drugbank_target|Q8TCG2 Phosphatidylinositol 4-kinase type 2-beta (DB02709)
 OpenBabel12092121063D

  0  0  0     0  0            999 V3000
M  V30 BEGIN CTAB
M  V30 COUNTS 7658 7759 0 0 0
M  V30 BEGIN ATOM
M  V30 1 H -0.908 1.98254 -0.117106 0
M  V30 2 N 0 1.576 0 0
M  V30 3 C 0.933 2.03868 1.02534 0
M  V30 4 C 1.911 0.928543 1.3348 0
M  V30 5 O 3.095 1.19667 1.45644 0
M  V30 6 C 0.222 2.43627 2.35294 0
M  V30 7 C -0.732 3.65373 2.2001 0
M  V30 8 S 0.101 5.13292 1.52614 0
M  V30 9 C 1.257 5.56322 2.86805 0
M  V30 10 H 1.49 2.90518 0.631377 0
M  V30 11 H -0.977 1.52953 0.210867 0
M  V30 12 H 0.981 2.67203 3.11629 0
M  V30 13 H -0.358 1.57376 2.7183 0
M  V30 14 H -1.165 3.90944 3.18086 0
M  V30 15 H -1.563 3.418 1.51819 0
M  V30 16 H 0.729 5.58782 3.83104 0
M  V30 17 H 1.672 6.56266 2.65933 0
M  V30 18 H 2.08 4.83886 2.90714 0
M  V30 19 N 1.4781 -0.272755 1.55222 0
M  V30 20 C 2.3881 -1.35918 1.91216 0
M  V30 21 C 3.4041 -1.54026 0.809436 0
M  V30 22 O 4.5801 -1.68148 1.10852 0
M  V30 23 C 1.6451 -2.69834 2.17693 0
M  V30 24 C 0.7061 -2.6047 3.41253 0
M  V30 25 C -0.0609 -3.88 3.66458 0
M  V30 26 O 0.1621 -4.88693 2.94169 0
M  V30 27 O -0.9039 -3.88189 4.59992 0
M  V30 28 H 2.9221 -1.0839 2.83699 0
M  V30 29 H 0.5071 -0.471301 1.41771 0
M  V30 30 H 2.3891 -3.49017 2.36147 0
M  V30 31 H 1.0641 -2.97148 1.28392 0
M  V30 32 H -0.0289 -1.79663 3.28134 0
M  V30 33 H 1.3041 -2.38106 4.30774 0
M  V30 34 N 2.9562 -1.48159 -0.537278 0
M  V30 35 C 4.2332 -1.46291 -1.29839 0
M  V30 36 C 4.6132 -0.170613 -2.10409 0
M  V30 37 O 3.9612 0.847746 -2.12192 0
M  V30 38 C 4.1712 -2.72055 -2.18603 0
M  V30 39 C 5.5192 -3.20087 -2.7898 0
M  V30 40 O 6.5432 -2.72921 -2.28894 0
M  V30 41 O 5.4022 -4.02138 -3.70064 0
M  V30 42 H 2.4962 -0.583906 -0.585647 0
M  V30 43 H 5.0422 -1.60384 -0.554534 0
M  V30 44 H 3.8142 -3.57628 -1.58801 0
M  V30 45 H 3.4372 -2.60646 -3.00249 0
M  V30 46 N 4.4343 0.785586 -1.36625 0
M  V30 47 C 5.8453 1.36101 -1.27803 0
M  V30 48 C 6.1963 1.96035 0.0804875 0
M  V30 49 O 5.3213 1.92834 0.982042 0
M  V30 50 C 5.9163 2.47442 -2.31426 0
M  V30 51 C 4.4753 3.00789 -2.26281 0
M  V30 52 C 3.6223 1.73896 -2.15999 0
M  V30 53 H 6.5733 0.586928 -1.47448 0
M  V30 54 H 6.5943 3.2656 -1.95291 0
M  V30 55 H 6.1063 2.03791 -3.30289 0
M  V30 56 H 4.2073 3.48851 -1.30896 0
M  V30 57 H 4.3203 3.57343 -3.19128 0
M  V30 58 H 2.6843 1.9628 -1.62316 0
M  V30 59 H 3.4673 1.32368 -3.16755 0
M  V30 60 N 5.9124 1.20967 1.01018 0
M  V30 61 C 7.1374 1.0503 1.78839 0
M  V30 62 C 7.5624 -0.395752 1.8389 0
M  V30 63 O 6.9204 -1.28529 1.27867 0
M  V30 64 C 6.9684 1.64602 3.2084 0
M  V30 65 O 6.0724 0.887988 4.02726 0
M  V30 66 H 5.4134 0.369987 0.551367 0
M  V30 67 H 7.9434 1.60399 1.27018 0
M  V30 68 H 7.9534 1.68607 3.71532 0
M  V30 69 H 6.6284 2.69841 3.16479 0
M  V30 70 H 5.2054 0.922648 3.61305 0
M  V30 71 N 7.3905 -1.2043 1.01659 0
M  V30 72 C 8.3005 -2.2689 0.596484 0
M  V30 73 C 9.3165 -1.70107 -0.36599 0
M  V30 74 O 10.4925 -2.00117 -0.226942 0
M  V30 75 C 7.5575 -3.4665 -0.0586659 0
M  V30 76 C 6.6185 -4.18662 0.949751 0
M  V30 77 C 5.8515 -5.32705 0.32577 0
M  V30 78 O 6.0745 -5.63656 -0.874509 0
M  V30 79 O 5.0085 -5.92803 1.04249 0
M  V30 80 H 8.8345 -2.65041 1.4828 0
M  V30 81 H 6.4195 -1.27048 0.786082 0
M  V30 82 H 8.3015 -4.19256 -0.424564 0
M  V30 83 H 6.9765 -3.10375 -0.91918 0
M  V30 84 H 5.8835 -3.48229 1.36702 0
M  V30 85 H 7.2165 -4.58878 1.78023 0
M  V30 86 N 8.8686 -0.792821 -1.36206 0
M  V30 87 C 10.2796 -0.429513 -1.81692 0
M  V30 88 C 10.6306 1.04695 -1.65932 0
M  V30 89 O 9.7556 1.81256 -1.18218 0
M  V30 90 C 10.3506 -0.772831 -3.29868 0
M  V30 91 C 8.9096 -0.462307 -3.7355 0
M  V30 92 C 8.0566 -1.00569 -2.5842 0
M  V30 93 H 11.0076 -0.985672 -1.24379 0
M  V30 94 H 11.0286 -0.0651928 -3.80444 0
M  V30 95 H 10.5406 -1.84747 -3.41307 0
M  V30 96 H 8.6416 0.604158 -3.67669 0
M  V30 97 H 8.7546 -0.985299 -4.68859 0
M  V30 98 H 7.1186 -0.428734 -2.51066 0
M  V30 99 H 7.9016 -2.08616 -2.72643 0
M  V30 100 N 10.3467 1.47872 -0.545128 0
M  V30 101 C 11.6237 1.9554 0.0485222 0
M  V30 102 C 12.0037 1.4876 1.49779 0
M  V30 103 O 11.3517 0.720925 2.16829 0
M  V30 104 C 11.5617 3.48898 -0.084417 0
M  V30 105 C 12.9097 4.24547 0.0671239 0
M  V30 106 O 13.9337 3.56198 -0.0113649 0
M  V30 107 O 12.7927 5.45999 0.233882 0
M  V30 108 H 9.8867 0.823957 0.0708773 0
M  V30 109 H 12.4327 1.58327 -0.610798 0
M  V30 110 H 11.2047 3.75714 -1.09337 0
M  V30 111 H 10.8277 3.92845 0.613066 0
M  V30 112 N 11.8248 0.280983 1.55075 0
M  V30 113 C 13.2408 -0.0729964 1.59433 0
M  V30 114 C 13.4408 -1.5411 1.29817 0
M  V30 115 O 12.4968 -2.29086 1.06187 0
M  V30 116 C 13.8098 0.306921 2.9913 0
M  V30 117 C 15.3578 0.254023 3.11968 0
M  V30 118 C 15.8328 0.608467 4.5394 0
M  V30 119 N 17.3238 0.560241 4.59799 0
M  V30 120 C 18.0588 0.80722 5.6769 0
M  V30 121 N 17.5548 1.11912 6.83701 0
M  V30 122 N 19.3478 0.735623 5.57266 0
M  V30 123 H 11.4988 1.238 1.7259 0
M  V30 124 H 13.7618 0.500547 0.805082 0
M  V30 125 H 13.4678 1.32816 3.25657 0
M  V30 126 H 13.3418 -0.349363 3.75579 0
M  V30 127 H 15.7288 -0.75794 2.852 0
M  V30 128 H 15.8098 0.944649 2.37718 0
M  V30 129 H 15.4538 1.61814 4.81434 0
M  V30 130 H 15.3838 -0.104013 5.26497 0
M  V30 131 H 17.8748 0.329288 3.76463 0
M  V30 132 H 18.1878 1.29409 7.61888 0
M  V30 133 H 16.5328 1.15695 6.85303 0
M  V30 134 H 19.7238 0.491752 4.6551 0
M  V30 135 H 19.8968 0.931482 6.4127 0
M  V30 136 N 13.3029 -1.57598 0.00835791 0
M  V30 137 C 14.2329 -2.1198 -0.979113 0
M  V30 138 C 15.2139 -1.03091 -1.35301 0
M  V30 139 O 16.3989 -1.30818 -1.43528 0
M  V30 140 C 13.5289 -2.62995 -2.26828 0
M  V30 141 C 12.4829 -3.76485 -2.03576 0
M  V30 142 C 11.8089 -4.13846 -3.38579 0
M  V30 143 C 13.1089 -5.0342 -1.39161 0
M  V30 144 H 14.8029 -2.94738 -0.526281 0
M  V30 145 H 12.3489 -1.41783 -0.251704 0
M  V30 146 H 14.3019 -2.99669 -2.96271 0
M  V30 147 H 13.0259 -1.7737 -2.7424 0
M  V30 148 H 11.6849 -3.40217 -1.36557 0
M  V30 149 H 11.3329 -3.25232 -3.83709 0
M  V30 150 H 11.0329 -4.90312 -3.23834 0
M  V30 151 H 12.5569 -4.53086 -4.09323 0
M  V30 152 H 13.9709 -5.37812 -1.98573 0
M  V30 153 H 12.3679 -5.84746 -1.34878 0
M  V30 154 H 13.4379 -4.83548 -0.361868 0
M  V30 155 N 14.781 0.264519 -1.55364 0
M  V30 156 C 15.744 1.31046 -1.88042 0
M  V30 157 C 16.744 1.41943 -0.755569 0
M  V30 158 O 17.934 1.40947 -1.02369 0
M  V30 159 C 15.066 2.69067 -2.09323 0
M  V30 160 H 16.259 1.03297 -2.81549 0
M  V30 161 H 13.812 0.502989 -1.47986 0
M  V30 162 H 14.547 3.01982 -1.18226 0
M  V30 163 H 14.332 2.62542 -2.91229 0
M  V30 164 H 15.822 3.44623 -2.35848 0
M  V30 165 N 16.2591 1.48442 0.529413 0
M  V30 166 C 17.4841 1.60406 1.31471 0
M  V30 167 C 17.9091 0.264738 1.86228 0
M  V30 168 O 17.2671 -0.763668 1.64432 0
M  V30 169 C 17.3151 2.65419 2.44101 0
M  V30 170 O 16.4191 2.22618 3.47153 0
M  V30 171 H 15.7601 0.537863 0.389357 0
M  V30 172 H 18.2901 1.94432 0.636965 0
M  V30 173 H 18.3001 2.86709 2.90279 0
M  V30 174 H 16.9751 3.62652 2.03608 0
M  V30 175 H 15.5521 2.11543 3.0709 0
M  V30 176 N 17.7372 -0.778329 1.37039 0
M  V30 177 C 18.7002 -1.87301 1.32102 0
M  V30 178 C 19.7002 -1.59198 0.226405 0
M  V30 179 O 20.8902 -1.67403 0.481861 0
M  V30 180 C 18.0222 -3.24309 1.05055 0
M  V30 181 H 19.2152 -1.93093 2.29467 0
M  V30 182 H 16.7682 -0.977358 1.21973 0
M  V30 183 H 17.5032 -3.24196 0.0819373 0
M  V30 184 H 17.2882 -3.46098 1.84279 0
M  V30 185 H 18.7782 -4.04382 1.04234 0
M  V30 186 N 19.2153 -1.21501 -1.00376 0
M  V30 187 C 20.4923 -0.941745 -1.71437 0
M  V30 188 C 20.8723 0.546114 -2.03914 0
M  V30 189 O 20.2203 1.51128 -1.71384 0
M  V30 190 C 20.4303 -1.82812 -2.97289 0
M  V30 191 C 21.7783 -2.07771 -3.70292 0
M  V30 192 O 22.8023 -1.80171 -3.07273 0
M  V30 193 O 21.6613 -2.54456 -4.83647 0
M  V30 194 H 18.7553 -0.353243 -0.747762 0
M  V30 195 H 21.3013 -1.32436 -1.06108 0
M  V30 196 H 20.0733 -2.83501 -2.69709 0
M  V30 197 H 19.6963 -1.4464 -3.70358 0
M  V30 198 N 20.6934 1.19889 -1.02296 0
M  V30 199 C 21.9414 1.89046 -0.714558 0
M  V30 200 C 22.2624 1.79636 0.758681 0
M  V30 201 O 21.5324 1.20292 1.54618 0
M  V30 202 H 20.1124 0.699802 -0.261317 0
M  V30 203 H 22.7744 1.45574 -1.29592 0
M  V30 204 H 21.8704 2.95524 -1.0036 0
M  V30 205 N 22.1715 0.800033 1.35784 0
M  V30 206 C 23.4195 0.376597 1.9856 0
M  V30 207 C 23.7405 -1.05812 1.63795 0
M  V30 208 O 23.0105 -1.73103 0.917171 0
M  V30 209 H 21.5905 0.136261 0.734467 0
M  V30 210 H 24.2525 1.02442 1.65806 0
M  V30 211 H 23.3485 0.477002 3.08433 0
M  V30 212 N 23.6496 -1.47581 0.552962 0
M  V30 213 C 24.8746 -2.07378 0.0300593 0
M  V30 214 C 25.2996 -1.40355 -1.25229 0
M  V30 215 O 24.6576 -0.477099 -1.7491 0
M  V30 216 C 24.7056 -3.60274 -0.153231 0
M  V30 217 O 23.8096 -3.94041 -1.21678 0
M  V30 218 H 23.1506 -0.662158 0.0494182 0
M  V30 219 H 25.6806 -1.89662 0.767434 0
M  V30 220 H 25.6906 -4.0633 -0.368761 0
M  V30 221 H 24.3656 -4.08455 0.783397 0
M  V30 222 H 22.9426 -3.59735 -0.982079 0
M  V30 223 N 25.1277 -0.289203 -1.54924 0
M  V30 224 C 26.5387 0.205791 -1.85562 0
M  V30 225 C 26.8897 1.54351 -1.2112 0
M  V30 226 O 26.0147 2.10435 -0.504601 0
M  V30 227 C 26.6097 0.380177 -3.3666 0
M  V30 228 C 25.1687 0.819395 -3.67373 0
M  V30 229 C 24.3157 -0.079159 -2.77187 0
M  V30 230 H 27.2667 -0.510577 -1.50262 0
M  V30 231 H 27.2877 1.21659 -3.60526 0
M  V30 232 H 26.7997 -0.593589 -3.83534 0
M  V30 233 H 24.9007 1.80413 -3.26009 0
M  V30 234 H 25.0137 0.646957 -4.74712 0
M  V30 235 H 23.3777 0.439565 -2.50878 0
M  V30 236 H 24.1607 -1.04906 -3.26878 0
M  V30 237 N 26.6058 1.57591 -0.0167156 0
M  V30 238 C 27.5158 2.1291 0.98521 0
M  V30 239 C 28.5318 1.07834 1.36557 0
M  V30 240 O 29.7078 1.39826 1.44951 0
M  V30 241 C 26.7728 2.63512 2.25305 0
M  V30 242 C 25.8338 3.83256 1.93426 0
M  V30 243 C 25.0668 4.31435 3.14165 0
M  V30 244 O 25.2898 3.78851 4.26413 0
M  V30 245 O 24.2238 5.23416 2.97186 0
M  V30 246 H 28.0498 2.98772 0.544888 0
M  V30 247 H 25.6348 1.48012 0.203141 0
M  V30 248 H 27.5168 2.96183 2.99756 0
M  V30 249 H 26.1918 1.8074 2.68542 0
M  V30 250 H 25.0988 3.55531 1.16398 0
M  V30 251 H 26.4318 4.67153 1.55013 0
M  V30 252 N 28.0839 -0.256276 1.55502 0
M  V30 253 C 28.9939 -1.33882 1.92647 0
M  V30 254 C 30.0099 -1.53159 0.825727 0
M  V30 255 O 31.1859 -1.66963 1.12629 0
M  V30 256 C 28.2509 -2.6751 2.20543 0
M  V30 257 C 27.3119 -2.56836 3.43997 0
M  V30 258 C 26.5449 -3.84092 3.70553 0
M  V30 259 O 26.7679 -4.85545 2.99336 0
M  V30 260 O 25.7019 -3.83288 4.64084 0
M  V30 261 H 29.5279 -1.05374 2.84833 0
M  V30 262 H 27.1129 -0.456237 1.42263 0
M  V30 263 H 28.9949 -3.46492 2.39835 0
M  V30 264 H 27.6699 -2.9577 1.31536 0
M  V30 265 H 26.5769 -1.76172 3.30021 0
M  V30 266 H 27.9099 -2.33523 4.33275 0
M  V30 267 N 29.562 -1.4872 -0.521534 0
M  V30 268 C 30.472 -1.66569 -1.65203 0
M  V30 269 C 31.488 -0.548197 -1.65139 0
M  V30 270 O 32.664 -0.820339 -1.83936 0
M  V30 271 C 29.729 -1.70917 -3.01642 0
M  V30 272 C 28.79 -2.94356 -3.12495 0
M  V30 273 C 28.023 -2.98487 -4.42426 0
M  V30 274 O 28.246 -2.10786 -5.30024 0
M  V30 275 O 27.18 -3.90746 -4.57822 0
M  V30 276 H 31.006 -2.62298 -1.5308 0
M  V30 277 H 28.591 -1.3222 -0.695565 0
M  V30 278 H 30.473 -1.7625 -3.82771 0
M  V30 279 H 29.148 -0.783633 -3.14071 0
M  V30 280 H 28.055 -2.94552 -2.3063 0
M  V30 281 H 29.388 -3.86322 -3.04986 0
M  V30 282 N 31.0401 0.771051 -1.3745 0
M  V30 283 C 31.9501 1.91538 -1.35464 0
M  V30 284 C 32.9661 1.72134 -0.254123 0
M  V30 285 O 34.1421 1.95358 -0.489626 0
M  V30 286 C 31.2071 3.26671 -1.16134 0
M  V30 287 C 30.2681 3.58723 -2.35831 0
M  V30 288 C 29.5011 4.87409 -2.17413 0
M  V30 289 O 29.7241 5.58506 -1.15876 0
M  V30 290 O 28.6581 5.18539 -3.05615 0
M  V30 291 H 32.4841 1.96165 -2.31847 0
M  V30 292 H 30.0691 0.9139 -1.18187 0
M  V30 293 H 31.9511 4.07499 -1.07345 0
M  V30 294 H 30.6261 3.22894 -0.228251 0
M  V30 295 H 29.5331 2.78127 -2.50192 0
M  V30 296 H 30.8661 3.67243 -3.27709 0
M  V30 297 N 32.5182 1.22032 0.997298 0
M  V30 298 C 33.7952 0.950823 1.70935 0
M  V30 299 C 34.1752 -0.535292 2.042 0
M  V30 300 O 33.5232 -1.50217 1.72183 0
M  V30 301 C 33.7332 1.84386 2.96315 0
M  V30 302 C 35.0812 2.09732 3.69185 0
M  V30 303 O 36.1052 1.81798 3.06314 0
M  V30 304 O 34.9642 2.57018 4.82291 0
M  V30 305 H 32.0582 0.357204 0.745878 0
M  V30 306 H 34.6042 1.32997 1.05404 0
M  V30 307 H 33.3762 2.84928 2.68201 0
M  V30 308 H 32.9992 1.46602 3.69586 0
M  V30 309 N 33.9963 -1.19345 1.0293 0
M  V30 310 C 35.2443 -1.88665 0.724574 0
M  V30 311 C 35.5653 -1.80036 -0.749144 0
M  V30 312 O 34.8353 -1.2111 -1.53978 0
M  V30 313 H 33.4153 -0.698406 0.265025 0
M  V30 314 H 36.0773 -1.44885 1.30362 0
M  V30 315 H 35.1733 -2.94987 1.01926 0
M  V30 316 N 35.4744 -0.807222 -1.35358 0
M  V30 317 C 36.3844 -0.219594 -2.3357 0
M  V30 318 C 37.4004 0.637734 -1.61892 0
M  V30 319 O 38.5764 0.549336 -1.93763 0
M  V30 320 C 35.6414 0.62158 -3.41083 0
M  V30 321 C 34.7024 -0.256315 -4.28534 0
M  V30 322 C 33.9354 0.544807 -5.30912 0
M  V30 323 O 34.1584 1.77944 -5.41934 0
M  V30 324 O 33.0924 -0.0646478 -6.01865 0
M  V30 325 H 36.9184 -1.03208 -2.85625 0
M  V30 326 H 34.5034 -0.569025 -1.38139 0
M  V30 327 H 36.3854 1.10067 -4.06772 0
M  V30 328 H 35.0604 1.41165 -2.91297 0
M  V30 329 H 33.9674 -0.782559 -3.65823 0
M  V30 330 H 35.3004 -1.01034 -4.81719 0
M  V30 331 N 36.9525 1.47285 -0.560781 0
M  V30 332 C 38.3685 1.58065 -0.22081 0
M  V30 333 C 38.5685 1.55892 1.27671 0
M  V30 334 O 37.6245 1.46422 2.0571 0
M  V30 335 C 38.9375 2.88418 -0.850625 0
M  V30 336 C 40.4855 3.02009 -0.822184 0
M  V30 337 C 40.9605 4.35066 -1.43113 0
M  V30 338 N 42.4515 4.41711 -1.39448 0
M  V30 339 C 43.1865 5.43237 -1.83525 0
M  V30 340 N 42.6825 6.51555 -2.35474 0
M  V30 341 N 44.4755 5.34304 -1.74574 0
M  V30 342 H 36.6265 1.46941 -1.53369 0
M  V30 343 H 38.8895 0.699558 -0.639783 0
M  V30 344 H 38.5955 2.95755 -1.9032 0
M  V30 345 H 38.4695 3.75612 -0.345773 0
M  V30 346 H 40.8565 2.94266 0.221714 0
M  V30 347 H 40.9375 2.16347 -1.36483 0
M  V30 348 H 40.5815 4.43565 -2.47412 0
M  V30 349 H 40.5115 5.19465 -0.863899 0
M  V30 350 H 43.0025 3.64027 -1.01452 0
M  V30 351 H 43.3155 7.25203 -2.67021 0
M  V30 352 H 41.6605 6.52435 -2.39487 0
M  V30 353 H 44.8515 4.48581 -1.33763 0
M  V30 354 H 45.0245 6.13288 -2.09242 0
M  V30 355 N 38.4306 0.297415 1.54768 0
M  V30 356 C 39.3406 -0.58983 2.27064 0
M  V30 357 C 40.3566 -1.15144 1.30453 0
M  V30 358 O 41.5326 -1.17699 1.63428 0
M  V30 359 C 38.5976 -1.74714 2.9946 0
M  V30 360 C 37.6586 -1.21997 4.11601 0
M  V30 361 C 36.8916 -2.32212 4.80535 0
M  V30 362 O 37.1146 -3.52036 4.48806 0
M  V30 363 O 36.0486 -1.99106 5.68014 0
M  V30 364 H 39.8746 -0.00348199 3.037 0
M  V30 365 H 37.4596 0.0640035 1.49263 0
M  V30 366 H 39.3416 -2.42147 3.44881 0
M  V30 367 H 38.0166 -2.32016 2.25722 0
M  V30 368 H 36.9236 -0.511458 3.70587 0
M  V30 369 H 38.2566 -0.692419 4.87305 0
M  V30 370 N 39.9087 -1.5758 0.0250728 0
M  V30 371 C 41.3197 -1.79476 -0.514323 0
M  V30 372 C 41.6707 -0.934956 -1.72491 0
M  V30 373 O 40.7957 -0.144245 -2.15919 0
M  V30 374 C 41.3907 -3.25503 -0.939842 0
M  V30 375 C 39.9497 -3.48408 -1.42438 0
M  V30 376 C 39.0967 -2.74583 -0.387201 0
M  V30 377 H 42.0477 -1.567 0.25113 0
M  V30 378 H 42.0687 -3.34992 -1.80445 0
M  V30 379 H 41.5807 -3.88056 -0.0585628 0
M  V30 380 H 39.6817 -2.91103 -2.32572 0
M  V30 381 H 39.7947 -4.57119 -1.43455 0
M  V30 382 H 38.1587 -2.39942 -0.854409 0
M  V30 383 H 38.9417 -3.39849 0.485543 0
M  V30 384 N 41.3868 0.248026 -1.55636 0
M  V30 385 C 42.3168 1.31079 -1.93237 0
M  V30 386 C 43.2978 1.50264 -0.797174 0
M  V30 387 O 44.4828 1.62891 -1.05737 0
M  V30 388 C 41.6128 2.66575 -2.22609 0
M  V30 389 C 40.5668 2.62087 -3.3837 0
M  V30 390 C 39.8928 4.01369 -3.53281 0
M  V30 391 C 41.1928 2.19171 -4.7409 0
M  V30 392 H 42.8868 0.998556 -2.82257 0
M  V30 393 H 40.4328 0.47891 -1.35803 0
M  V30 394 H 42.3858 3.41057 -2.47503 0
M  V30 395 H 41.1098 2.99432 -1.30414 0
M  V30 396 H 39.7688 1.90063 -3.13483 0
M  V30 397 H 39.4168 4.31489 -2.58508 0
M  V30 398 H 39.1168 3.99254 -4.31127 0
M  V30 399 H 40.6408 4.77552 -3.80495 0
M  V30 400 H 42.0548 2.83384 -4.98363 0
M  V30 401 H 40.4518 2.2817 -5.5503 0
M  V30 402 H 41.5218 1.14336 -4.71227 0
M  V30 403 N 42.8649 1.48995 0.513639 0
M  V30 404 C 43.7949 1.67636 1.62544 0
M  V30 405 C 44.7759 0.525087 1.61793 0
M  V30 406 O 45.9609 0.759502 1.78732 0
M  V30 407 C 43.0909 1.73114 3.01079 0
M  V30 408 C 42.0449 2.87905 3.16693 0
M  V30 409 C 41.3709 2.78486 4.56453 0
M  V30 410 C 42.6709 4.29005 2.97913 0
M  V30 411 H 44.3649 2.60716 1.47198 0
M  V30 412 H 41.9109 1.25465 0.706714 0
M  V30 413 H 43.8639 1.84742 3.78746 0
M  V30 414 H 42.5879 0.766241 3.17484 0
M  V30 415 H 41.2469 2.75859 2.41448 0
M  V30 416 H 40.8949 1.7993 4.69717 0
M  V30 417 H 40.5949 3.55523 4.67843 0
M  V30 418 H 42.1189 2.92104 5.36197 0
M  V30 419 H 43.5329 4.41798 3.65359 0
M  V30 420 H 41.9299 5.07166 3.20785 0
M  V30 421 H 42.9999 4.44329 1.94165 0
M  V30 422 N 44.343 -0.763751 1.37857 0
M  V30 423 C 45.754 -1.3405 1.29952 0
M  V30 424 C 46.105 -1.96138 -0.0492898 0
M  V30 425 O 45.23 -1.94372 -0.951239 0
M  V30 426 C 45.825 -2.43729 2.35333 0
M  V30 427 C 44.384 -2.97151 2.31037 0
M  V30 428 C 43.531 -1.70438 2.18738 0
M  V30 429 H 46.482 -0.563396 1.48363 0
M  V30 430 H 46.503 -3.23412 2.00462 0
M  V30 431 H 46.015 -1.9851 3.33489 0
M  V30 432 H 44.116 -3.46724 1.3643 0
M  V30 433 H 44.229 -3.52221 3.24772 0
M  V30 434 H 42.593 -1.93673 1.65418 0
M  V30 435 H 43.376 -1.27312 3.18821 0
M  V30 436 N 45.8211 -1.22559 -0.990812 0
M  V30 437 C 47.2371 -0.985996 -1.255 0
M  V30 438 C 47.4371 0.319173 -1.98956 0
M  V30 439 O 46.4931 1.04127 -2.3003 0
M  V30 440 C 47.8061 -2.18607 -2.06474 0
M  V30 441 C 49.3541 -2.22985 -2.19651 0
M  V30 442 C 49.8291 -3.4255 -3.04012 0
M  V30 443 N 51.3201 -3.42725 -3.11599 0
M  V30 444 C 52.0551 -4.31892 -3.7717 0
M  V30 445 N 51.5511 -5.31279 -4.44651 0
M  V30 446 N 53.3441 -4.19662 -3.73952 0
M  V30 447 H 45.4951 -2.06469 -0.49841 0
M  V30 448 H 47.7581 -0.904853 -0.282747 0
M  V30 449 H 47.4641 -3.13267 -1.59865 0
M  V30 450 H 47.3381 -2.18838 -3.07229 0
M  V30 451 H 49.7251 -1.28871 -2.65474 0
M  V30 452 H 49.8061 -2.26791 -1.18319 0
M  V30 453 H 49.4501 -4.36965 -2.58889 0
M  V30 454 H 49.3801 -3.35984 -4.0549 0
M  V30 455 H 51.8711 -2.70807 -2.63575 0
M  V30 456 H 52.1841 -5.95593 -4.92431 0
M  V30 457 H 50.5291 -5.3519 -4.43392 0
M  V30 458 H 53.7201 -3.41268 -3.20396 0
M  V30 459 H 53.8931 -4.89358 -4.24774 0
M  V30 460 N 47.2992 1.18797 -1.03562 0
M  V30 461 C 48.5482 1.87978 -0.731235 0
M  V30 462 C 48.8612 1.80911 0.743671 0
M  V30 463 O 50.0672 2.45407 1.16137 0
M  V30 464 C 48.5232 3.3721 -1.25768 0
M  V30 465 C 48.1312 3.52818 -2.76085 0
M  V30 466 C 49.8752 4.11825 -1.0296 0
M  V30 467 C 47.7822 4.9598 -3.22114 0
M  V30 468 H 46.7122 0.704063 -0.269835 0
M  V30 469 H 49.3632 1.34266 -1.25079 0
M  V30 470 H 47.7452 3.90359 -0.666011 0
M  V30 471 H 48.9192 3.09965 -3.40966 0
M  V30 472 H 47.2342 2.91602 -2.97249 0
M  V30 473 H 49.8312 5.17411 -1.34869 0
M  V30 474 H 50.1742 4.16287 0.0333546 0
M  V30 475 H 50.7072 3.64833 -1.58562 0
M  V30 476 H 47.4462 4.96684 -4.27768 0
M  V30 477 H 46.9662 5.39569 -2.61965 0
M  V30 478 H 48.6452 5.6467 -3.15844 0
M  V30 479 N 48.7773 0.814389 1.34928 0
M  V30 480 C 49.7403 0.235759 2.27984 0
M  V30 481 C 50.7403 -0.581412 1.49921 0
M  V30 482 O 51.9303 -0.398758 1.69575 0
M  V30 483 C 49.0623 -0.670433 3.34242 0
M  V30 484 H 50.2553 1.05659 2.80671 0
M  V30 485 H 47.8083 0.585614 1.44915 0
M  V30 486 H 48.5433 -1.51466 2.86755 0
M  V30 487 H 48.3283 -0.0860822 3.92005 0
M  V30 488 H 49.8183 -1.06935 4.03676 0
M  V30 489 N 50.2554 -1.46986 0.568584 0
M  V30 490 C 51.5014 -2.0332 0.0571487 0
M  V30 491 C 51.8564 -1.43384 -1.28291 0
M  V30 492 O 51.1494 -0.584304 -1.82473 0
M  V30 493 C 51.3434 -3.57306 -0.081836 0
M  V30 494 C 51.1724 -4.32174 1.24321 0
M  V30 495 C 49.9424 -4.71633 1.81358 0
M  V30 496 C 52.1404 -4.66598 2.16312 0
M  V30 497 N 50.1224 -5.31191 3.07748 0
M  V30 498 C 51.4934 -5.26578 3.27285 0
M  V30 499 C 53.5484 -4.48527 2.16166 0
M  V30 500 C 52.2514 -5.70395 4.38226 0
M  V30 501 C 54.2774 -4.93351 3.26127 0
M  V30 502 C 53.6394 -5.5339 4.3582 0
M  V30 503 H 49.7384 -0.77943 0.063351 0
M  V30 504 H 52.3224 -1.79323 0.758378 0
M  V30 505 H 50.4934 -3.81046 -0.752207 0
M  V30 506 H 52.2254 -4.00282 -0.59637 0
M  V30 507 H 48.9804 -4.53946 1.35019 0
M  V30 508 H 49.4044 -5.65505 3.72201 0
M  V30 509 H 54.0464 -4.01456 1.32638 0
M  V30 510 H 51.7644 -6.16452 5.22506 0
M  V30 511 H 55.3504 -4.81131 3.27115 0
M  V30 512 H 54.2304 -5.87441 5.19503 0
M  V30 513 N 51.7335 -0.305618 -1.54608 0
M  V30 514 C 52.6965 0.555591 -2.22364 0
M  V30 515 C 53.6965 1.05768 -1.21119 0
M  V30 516 O 54.8865 0.952972 -1.45822 0
M  V30 517 C 52.0185 1.76974 -2.91364 0
M  V30 518 H 53.2115 -0.0364572 -2.99878 0
M  V30 519 H 50.7645 -0.0565007 -1.56198 0
M  V30 520 H 51.4995 2.40151 -2.17941 0
M  V30 521 H 51.2845 1.41732 -3.65588 0
M  V30 522 H 52.7745 2.38148 -3.43038 0
M  V30 523 N 53.2116 1.57565 -0.0334293 0
M  V30 524 C 54.1616 2.06978 0.956237 0
M  V30 525 C 55.1456 0.971193 1.28283 0
M  V30 526 O 56.3376 1.23471 1.26822 0
M  V30 527 C 53.4666 2.60393 2.23719 0
M  V30 528 C 52.5526 3.7719 1.93877 0
M  V30 529 N 52.9436 4.87639 1.34321 0
M  V30 530 C 51.2416 3.85758 2.23845 0
M  V30 531 C 51.9426 5.68825 1.21709 0
M  V30 532 N 50.9186 5.1587 1.71404 0
M  V30 533 H 54.7206 2.89773 0.490815 0
M  V30 534 H 52.2346 1.61492 0.171478 0
M  V30 535 H 54.2316 2.94088 2.95496 0
M  V30 536 H 52.8916 1.79031 2.70884 0
M  V30 537 H 53.9026 5.07803 1.01767 0
M  V30 538 H 50.5796 3.1531 2.73653 0
M  V30 539 H 51.9696 6.67631 0.75621 0
M  V30 540 N 54.6897 -0.239769 1.55765 0
M  V30 541 C 56.1007 -0.808263 1.68297 0
M  V30 542 C 56.4517 -1.85736 0.632181 0
M  V30 543 O 55.5767 -2.15277 -0.220204 0
M  V30 544 C 56.1717 -1.47284 3.05111 0
M  V30 545 C 54.7307 -1.98895 3.19559 0
M  V30 546 C 53.8777 -0.842575 2.64189 0
M  V30 547 H 56.8287 -0.0154422 1.58692 0
M  V30 548 H 56.8497 -2.34111 2.99954 0
M  V30 549 H 56.3617 -0.709053 3.81568 0
M  V30 550 H 54.4627 -2.78132 2.47938 0
M  V30 551 H 54.5757 -2.18143 4.26556 0
M  V30 552 H 52.9397 -1.24501 2.22197 0
M  V30 553 H 53.7227 -0.0917552 3.43177 0
M  V30 554 N 56.1678 -1.49265 -0.50573 0
M  V30 555 C 57.5838 -1.35923 -0.836486 0
M  V30 556 C 57.7838 -0.388704 -1.97715 0
M  V30 557 O 56.8398 0.181336 -2.51848 0
M  V30 558 C 58.1528 -2.76531 -1.18115 0
M  V30 559 C 59.7008 -2.85197 -1.28964 0
M  V30 560 C 60.1758 -4.26561 -1.66761 0
M  V30 561 N 61.6668 -4.2935 -1.73819 0
M  V30 562 C 62.4018 -5.35693 -2.045 0
M  V30 563 N 61.8978 -6.52287 -2.33438 0
M  V30 564 N 63.6908 -5.23105 -2.05711 0
M  V30 565 H 55.8418 -2.10965 0.246519 0
M  V30 566 H 58.1048 -0.9468 0.0476887 0
M  V30 567 H 57.8108 -3.49226 -0.416398 0
M  V30 568 H 57.6848 -3.11599 -2.1257 0
M  V30 569 H 60.0718 -2.12742 -2.04511 0
M  V30 570 H 60.1528 -2.53718 -0.325704 0
M  V30 571 H 59.7968 -4.99541 -0.917656 0
M  V30 572 H 59.7268 -4.55502 -2.64246 0
M  V30 573 H 62.2178 -3.4526 -1.53635 0
M  V30 574 H 62.5308 -7.29158 -2.56024 0
M  V30 575 H 60.8758 -6.55521 -2.30905 0
M  V30 576 H 64.0668 -4.31026 -1.82577 0
M  V30 577 H 64.2398 -6.06078 -2.29289 0
M  V30 578 N 57.6459 0.756429 -1.3826 0
M  V30 579 C 59.0619 1.0591 -1.19395 0
M  V30 580 C 59.2619 2.01459 -0.0406567 0
M  V30 581 O 58.3179 2.44909 0.614467 0
M  V30 582 C 59.6309 1.64191 -2.51916 0
M  V30 583 C 61.1789 1.76376 -2.58574 0
M  V30 584 C 61.6539 2.38069 -3.91264 0
M  V30 585 N 63.1449 2.45503 -3.92788 0
M  V30 586 C 63.8799 2.94126 -4.92217 0
M  V30 587 N 63.3759 3.42805 -6.02043 0
M  V30 588 N 65.1689 2.9314 -4.7961 0
M  V30 589 H 57.3199 0.122313 -2.12048 0
M  V30 590 H 59.5829 0.116892 -0.940766 0
M  V30 591 H 59.2889 1.01451 -3.3675 0
M  V30 592 H 59.1629 2.6329 -2.70108 0
M  V30 593 H 61.5499 2.38244 -1.74137 0
M  V30 594 H 61.6309 0.759894 -2.44252 0
M  V30 595 H 61.2749 1.76835 -4.76121 0
M  V30 596 H 61.2049 3.39091 -4.02895 0
M  V30 597 H 63.6959 2.1107 -3.13461 0
M  V30 598 H 64.0089 3.78354 -6.73846 0
M  V30 599 H 62.3539 3.4087 -6.05667 0
M  V30 600 H 65.5449 2.54419 -3.92923 0
M  V30 601 H 65.7179 3.30721 -5.5725 0
M  V30 602 N 59.124 1.23083 0.984299 0
M  V30 603 C 60.372 1.05848 1.72165 0
M  V30 604 C 60.693 -0.406049 1.90726 0
M  V30 605 O 59.963 -1.29139 1.47309 0
M  V30 606 H 58.543 0.388685 0.637913 0
M  V30 607 H 61.205 1.54736 1.18503 0
M  V30 608 H 60.301 1.54327 2.71274 0
M  V30 609 N 60.6021 -1.18246 1.0419 0
M  V30 610 C 61.5651 -2.20128 0.638452 0
M  V30 611 C 62.5651 -1.57885 -0.304805 0
M  V30 612 O 63.7551 -1.73967 -0.0900369 0
M  V30 613 C 60.8871 -3.4084 -0.0637751 0
M  V30 614 H 62.0801 -2.57336 1.54007 0
M  V30 615 H 59.6331 -1.32152 0.834598 0
M  V30 616 H 60.3681 -3.09166 -0.979136 0
M  V30 617 H 60.1531 -3.8726 0.614198 0
M  V30 618 H 61.6431 -4.16274 -0.332512 0
M  V30 619 N 62.0802 -0.821533 -1.34494 0
M  V30 620 C 63.4912 -0.467956 -1.8074 0
M  V30 621 C 63.8422 1.01151 -1.68116 0
M  V30 622 O 62.9672 1.78707 -1.22036 0
M  V30 623 C 63.5622 -0.842627 -3.28154 0
M  V30 624 C 62.1212 -0.541439 -3.72485 0
M  V30 625 C 61.2682 -1.06028 -2.56229 0
M  V30 626 H 64.2192 -1.01183 -1.22261 0
M  V30 627 H 64.2402 -0.145876 -3.8022 0
M  V30 628 H 63.7522 -1.91945 -3.37311 0
M  V30 629 H 61.8532 0.526034 -3.68868 0
M  V30 630 H 61.9662 -1.08453 -4.66663 0
M  V30 631 H 60.3302 -0.481892 -2.501 0
M  V30 632 H 61.1132 -2.14352 -2.68157 0
M  V30 633 N 63.5583 1.46682 -0.576371 0
M  V30 634 C 64.8063 2.02013 -0.0594163 0
M  V30 635 C 65.1273 1.45101 1.30271 0
M  V30 636 O 64.3973 0.633317 1.8538 0
M  V30 637 H 62.9773 0.746759 -0.0189745 0
M  V30 638 H 65.6393 1.79862 -0.750717 0
M  V30 639 H 64.7353 3.12097 0.014345 0
M  V30 640 N 65.0364 0.313813 1.54444 0
M  V30 641 C 66.2614 -0.296681 2.05267 0
M  V30 642 C 66.6864 -1.45757 1.18897 0
M  V30 643 O 66.0444 -1.80239 0.195886 0
M  V30 644 C 66.0924 -0.71831 3.53373 0
M  V30 645 O 65.1964 -1.82175 3.69981 0
M  V30 646 H 64.5374 -0.0554061 0.661684 0
M  V30 647 H 67.0674 0.459387 1.99376 0
M  V30 648 H 67.0774 -1.00364 3.95463 0
M  V30 649 H 65.7524 0.130821 4.15694 0
M  V30 650 H 64.3294 -1.53598 3.39797 0
M  V30 651 N 66.5145 -1.57545 0.0417849 0
M  V30 652 C 67.4775 -2.09885 -0.92093 0
M  V30 653 C 68.4775 -1.01648 -1.24596 0
M  V30 654 O 69.6675 -1.27759 -1.1842 0
M  V30 655 C 66.7995 -2.57527 -2.23367 0
M  V30 656 H 67.9925 -2.96236 -0.467382 0
M  V30 657 H 65.5455 -1.5493 -0.206467 0
M  V30 658 H 66.2805 -1.74542 -2.73323 0
M  V30 659 H 66.0655 -3.36613 -2.01083 0
M  V30 660 H 67.5555 -2.98201 -2.92346 0
M  V30 661 N 67.9926 0.231505 -1.5589 0
M  V30 662 C 69.2386 0.95877 -1.78705 0
M  V30 663 C 69.5716 1.8438 -0.609725 0
M  V30 664 O 68.8466 1.90521 0.391426 0
M  V30 665 C 69.1296 1.8062 -3.11526 0
M  V30 666 C 68.9826 0.948328 -4.39689 0
M  V30 667 C 70.3016 2.78585 -3.40703 0
M  V30 668 H 67.4206 0.347129 -0.650131 0
M  V30 669 H 70.0626 0.228259 -1.88624 0
M  V30 670 H 68.2126 2.42902 -3.03201 0
M  V30 671 H 69.8846 0.343016 -4.60023 0
M  V30 672 H 68.1276 0.253314 -4.3306 0
M  V30 673 H 68.7986 1.57543 -5.29041 0
M  V30 674 H 71.2746 2.26439 -3.49091 0
M  V30 675 H 70.1506 3.34988 -4.34826 0
M  V30 676 H 70.4116 3.55825 -2.62375 0
M  V30 677 N 69.4707 1.49531 0.497807 0
M  V30 678 C 70.8867 1.36365 0.829266 0
M  V30 679 C 71.0867 0.399184 1.97506 0
M  V30 680 O 70.1427 -0.167977 2.51941 0
M  V30 681 C 71.4557 2.77153 1.16647 0
M  V30 682 C 73.0037 2.85877 1.27449 0
M  V30 683 C 73.4787 4.2744 1.64497 0
M  V30 684 N 74.9697 4.30265 1.7154 0
M  V30 685 C 75.7047 5.3677 2.01656 0
M  V30 686 N 75.2007 6.53516 2.29976 0
M  V30 687 N 76.9937 5.24189 2.02934 0
M  V30 688 H 69.1447 2.10831 -0.257703 0
M  V30 689 H 71.4077 0.946534 -0.0527091 0
M  V30 690 H 71.1137 3.49442 0.397872 0
M  V30 691 H 70.9877 3.12722 2.10915 0
M  V30 692 H 73.3747 2.13824 2.0338 0
M  V30 693 H 73.4557 2.53887 0.312244 0
M  V30 694 H 73.0997 5.00021 0.891151 0
M  V30 695 H 73.0297 4.56896 2.61827 0
M  V30 696 H 75.5207 3.4607 1.51802 0
M  V30 697 H 75.8337 7.30506 2.52153 0
M  V30 698 H 74.1787 6.56737 2.27425 0
M  V30 699 H 77.3697 4.31988 1.80289 0
M  V30 700 H 77.5427 6.07286 2.26071 0
M  V30 701 N 70.9488 -0.749086 1.3866 0
M  V30 702 C 71.8788 -1.8764 1.38973 0
M  V30 703 C 72.8598 -1.68178 0.255004 0
M  V30 704 O 74.0448 -1.88704 0.458754 0
M  V30 705 C 71.1748 -3.25222 1.21851 0
M  V30 706 C 70.1288 -3.59295 2.32575 0
M  V30 707 C 69.4548 -4.95663 2.00555 0
M  V30 708 C 70.7548 -3.63709 3.7485 0
M  V30 709 H 72.4488 -1.87635 2.3331 0
M  V30 710 H 69.9948 -0.901329 1.12303 0
M  V30 711 H 71.9478 -4.03746 1.20695 0
M  V30 712 H 70.6718 -3.25719 0.239775 0
M  V30 713 H 69.3308 -2.83093 2.32925 0
M  V30 714 H 68.9788 -4.92724 1.01154 0
M  V30 715 H 68.6788 -5.19429 2.74714 0
M  V30 716 H 70.2028 -5.7656 2.01024 0
M  V30 717 H 71.6168 -4.32338 3.76506 0
M  V30 718 H 70.0138 -3.98986 4.48252 0
M  V30 719 H 71.0838 -2.63834 4.06841 0
M  V30 720 N 72.4269 -1.23603 -0.977757 0
M  V30 721 C 73.3569 -1.04401 -2.0886 0
M  V30 722 C 74.3379 0.0399052 -1.70053 0
M  V30 723 O 75.5229 -0.125246 -1.93796 0
M  V30 724 C 72.6529 -0.637269 -3.41403 0
M  V30 725 C 71.6069 -1.66883 -3.94124 0
M  V30 726 C 70.9329 -1.11745 -5.22893 0
M  V30 727 C 72.2329 -3.06247 -4.23096 0
M  V30 728 H 73.9269 -1.97316 -2.25182 0
M  V30 729 H 71.4729 -0.950096 -1.08209 0
M  V30 730 H 73.4259 -0.48998 -4.18542 0
M  V30 731 H 72.1499 0.327557 -3.24953 0
M  V30 732 H 70.8089 -1.80416 -3.19133 0
M  V30 733 H 70.4569 -0.143527 -5.02795 0
M  V30 734 H 70.1569 -1.80672 -5.59134 0
M  V30 735 H 71.6809 -0.982067 -6.02651 0
M  V30 736 H 73.0949 -2.96001 -4.90975 0
M  V30 737 H 71.4919 -3.72436 -4.70544 0
M  V30 738 H 72.5619 -3.55041 -3.30263 0
M  V30 739 N 73.905 1.17692 -1.04816 0
M  V30 740 C 75.182 1.83768 -0.669963 0
M  V30 741 C 75.562 1.93232 0.849986 0
M  V30 742 O 74.91 1.46397 1.75443 0
M  V30 743 C 75.12 3.21641 -1.35455 0
M  V30 744 C 76.468 3.97592 -1.49017 0
M  V30 745 O 77.492 3.31107 -1.31326 0
M  V30 746 O 76.351 5.16729 -1.77914 0
M  V30 747 H 73.445 0.792799 -0.235368 0
M  V30 748 H 75.991 1.25021 -1.14751 0
M  V30 749 H 74.763 3.097 -2.39168 0
M  V30 750 H 74.386 3.88052 -0.866107 0
M  V30 751 N 75.3831 0.828654 1.34056 0
M  V30 752 C 76.3461 0.259927 2.27721 0
M  V30 753 C 77.3461 -0.565478 1.50529 0
M  V30 754 O 78.5361 -0.38075 1.69988 0
M  V30 755 C 75.6681 -0.634944 3.34935 0
M  V30 756 H 76.8611 1.0863 2.79534 0
M  V30 757 H 74.4141 0.600951 1.44285 0
M  V30 758 H 75.1491 -1.48416 2.88346 0
M  V30 759 H 74.9341 -0.0444999 3.92075 0
M  V30 760 H 76.4241 -1.02648 4.04788 0
M  V30 761 N 76.8612 -1.46375 0.584142 0
M  V30 762 C 77.8242 -2.28784 -0.138108 0
M  V30 763 C 78.8242 -1.38471 -0.817462 0
M  V30 764 O 80.0142 -1.60833 -0.669199 0
M  V30 765 C 77.1462 -3.18892 -1.20503 0
M  V30 766 H 78.3392 -2.94117 0.586127 0
M  V30 767 H 75.8922 -1.52509 0.342171 0
M  V30 768 H 76.6272 -2.58309 -1.96079 0
M  V30 769 H 76.4122 -3.85388 -0.722384 0
M  V30 770 H 77.9022 -3.80914 -1.71155 0
M  V30 771 N 78.3393 -0.321999 -1.54275 0
M  V30 772 C 79.5873 0.280489 -2.00144 0
M  V30 773 C 79.9083 1.52777 -1.21178 0
M  V30 774 O 79.1783 1.9338 -0.313187 0
M  V30 775 H 77.7583 0.106632 -0.73935 0
M  V30 776 H 80.4203 -0.438184 -1.8991 0
M  V30 777 H 79.5163 0.537972 -3.07428 0
M  V30 778 N 79.8174 1.5752 -0.0501392 0
M  V30 779 C 80.7274 2.14952 0.939827 0
M  V30 780 C 81.7434 1.10706 1.34239 0
M  V30 781 O 82.9194 1.42869 1.41952 0
M  V30 782 C 79.9844 2.68232 2.19665 0
M  V30 783 C 79.0454 3.87272 1.85253 0
M  V30 784 C 78.2784 4.38002 3.04943 0
M  V30 785 O 78.5014 3.87811 4.18281 0
M  V30 786 O 77.4354 5.29602 2.86017 0
M  V30 787 H 81.2614 2.9986 0.481392 0
M  V30 788 H 78.8464 1.4841 0.171699 0
M  V30 789 H 80.7284 3.02475 2.93406 0
M  V30 790 H 79.4034 1.86395 2.64648 0
M  V30 791 H 78.3104 3.5792 1.0883 0
M  V30 792 H 79.6434 4.70336 1.4507 0
M  V30 793 N 81.2955 -0.223234 1.56011 0
M  V30 794 C 82.2055 -1.29766 1.95443 0
M  V30 795 C 83.2215 -1.51373 0.858028 0
M  V30 796 O 84.3975 -1.64536 1.16146 0
M  V30 797 C 81.4625 -2.62772 2.26167 0
M  V30 798 C 80.5235 -2.49482 3.49367 0
M  V30 799 C 79.7565 -3.76145 3.78616 0
M  V30 800 O 79.9795 -4.79087 3.09568 0
M  V30 801 O 78.9135 -3.73358 4.72109 0
M  V30 802 H 82.7395 -0.99309 2.87004 0
M  V30 803 H 80.3245 -0.425958 1.43199 0
M  V30 804 H 82.2065 -3.41327 2.47131 0
M  V30 805 H 80.8815 -2.92913 1.37781 0
M  V30 806 H 79.7885 -1.69133 3.33684 0
M  V30 807 H 81.1215 -2.2428 4.38131 0
M  V30 808 N 82.7736 -1.49793 -0.48987 0
M  V30 809 C 84.0216 -1.59525 -1.24081 0
M  V30 810 C 84.3426 -0.288953 -1.92847 0
M  V30 811 O 83.6126 0.692436 -1.83254 0
M  V30 812 H 82.1926 -0.587796 -0.460983 0
M  V30 813 H 84.8546 -1.86477 -0.566778 0
M  V30 814 H 83.9506 -2.39696 -1.99881 0
M  V30 815 N 84.2517 0.741722 -1.39055 0
M  V30 816 C 85.1617 1.88621 -1.39496 0
M  V30 817 C 86.1777 1.71557 -0.290578 0
M  V30 818 O 87.3537 1.94275 -0.530954 0
M  V30 819 C 84.4187 3.24134 -1.23037 0
M  V30 820 C 83.4797 3.5364 -2.43387 0
M  V30 821 C 82.7127 4.82687 -2.27703 0
M  V30 822 O 82.9357 5.55922 -1.27696 0
M  V30 823 O 81.8697 5.1194 -3.16545 0
M  V30 824 H 85.6957 1.91203 -2.35956 0
M  V30 825 H 83.2807 0.888625 -1.20099 0
M  V30 826 H 85.1627 4.0513 -1.15964 0
M  V30 827 H 83.8377 3.22337 -0.296691 0
M  V30 828 H 82.7447 2.72758 -2.56035 0
M  V30 829 H 84.0777 3.60209 -3.35425 0
M  V30 830 N 85.7298 1.2412 0.971189 0
M  V30 831 C 86.6928 1.03156 2.04674 0
M  V30 832 C 87.6928 -0.00990322 1.60797 0
M  V30 833 O 88.8828 0.230729 1.72665 0
M  V30 834 C 86.0148 0.562765 3.36223 0
M  V30 835 H 87.2078 1.98614 2.24705 0
M  V30 836 H 84.7608 1.06293 1.14593 0
M  V30 837 H 85.4958 -0.395176 3.21883 0
M  V30 838 H 85.2808 1.31441 3.69413 0
M  V30 839 H 86.7708 0.437015 4.15307 0
M  V30 840 N 87.2079 -1.17134 1.05439 0
M  V30 841 C 88.4559 -1.87085 0.764429 0
M  V30 842 C 88.7769 -1.81584 -0.710787 0
M  V30 843 O 88.0469 -1.24349 -1.51374 0
M  V30 844 H 86.6269 -0.692627 0.279779 0
M  V30 845 H 89.2889 -1.42087 1.33406 0
M  V30 846 H 88.3849 -2.92759 1.0816 0
M  V30 847 N 88.686 -0.835752 -1.33615 0
M  V30 848 C 89.963 -0.352017 -1.92406 0
M  V30 849 C 90.343 1.16225 -1.76224 0
M  V30 850 O 89.691 1.97526 -1.14873 0
M  V30 851 C 89.901 -0.795485 -3.39813 0
M  V30 852 C 91.249 -0.801703 -4.16963 0
M  V30 853 O 92.273 -0.738889 -3.48452 0
M  V30 854 O 91.132 -0.886607 -5.3926 0
M  V30 855 H 88.226 -0.0989641 -0.821057 0
M  V30 856 H 90.772 -0.921397 -1.42507 0
M  V30 857 H 89.544 -1.83795 -3.45449 0
M  V30 858 H 89.167 -0.202505 -3.97084 0
M  V30 859 N 90.1641 1.46063 -0.591896 0
M  V30 860 C 91.0741 2.34192 0.13831 0
M  V30 861 C 92.0901 1.50305 0.876608 0
M  V30 862 O 93.2661 1.8315 0.837728 0
M  V30 863 C 90.3311 3.27656 1.13326 0
M  V30 864 C 89.3921 4.27445 0.39863 0
M  V30 865 C 88.6251 5.16443 1.34618 0
M  V30 866 O 88.8481 5.08553 2.58321 0
M  V30 867 O 87.7821 5.95843 0.851768 0
M  V30 868 H 91.6081 2.98002 -0.58552 0
M  V30 869 H 89.1931 1.45188 -0.352239 0
M  V30 870 H 91.0751 3.85291 1.70671 0
M  V30 871 H 89.7501 2.6643 1.83839 0
M  V30 872 H 88.6571 3.73471 -0.216895 0
M  V30 873 H 89.9901 4.91482 -0.265709 0
M  V30 874 N 91.6422 0.330177 1.54103 0
M  V30 875 C 92.5522 -0.541534 2.28264 0
M  V30 876 C 93.5682 -1.12351 1.32866 0
M  V30 877 O 94.7442 -1.14206 1.65888 0
M  V30 878 C 91.8092 -1.68322 3.03098 0
M  V30 879 C 90.8702 -1.13238 4.14096 0
M  V30 880 C 90.1032 -2.21966 4.85352 0
M  V30 881 O 90.3262 -3.42437 4.56172 0
M  V30 882 O 89.2602 -1.87013 5.7211 0
M  V30 883 H 93.0862 0.060938 3.03639 0
M  V30 884 H 90.6712 0.09565 1.49093 0
M  V30 885 H 92.5532 -2.34777 3.49939 0
M  V30 886 H 91.2282 -2.27176 2.30593 0
M  V30 887 H 90.1352 -0.432736 3.71589 0
M  V30 888 H 91.4682 -0.588898 4.88664 0
M  V30 889 N 93.1203 -1.57491 0.0584922 0
M  V30 890 C 94.0503 -2.14988 -0.911178 0
M  V30 891 C 95.0313 -1.07343 -1.31952 0
M  V30 892 O 96.2163 -1.35318 -1.39294 0
M  V30 893 C 93.3463 -2.70078 -2.18347 0
M  V30 894 C 92.3003 -3.82771 -1.91495 0
M  V30 895 C 91.6263 -4.24408 -3.25241 0
M  V30 896 C 92.9263 -5.07592 -1.23075 0
M  V30 897 H 94.6203 -2.96263 -0.432246 0
M  V30 898 H 92.1663 -1.42512 -0.206469 0
M  V30 899 H 94.1193 -3.08943 -2.86587 0
M  V30 900 H 92.8433 -1.86005 -2.68458 0
M  V30 901 H 91.5023 -3.44389 -1.25664 0
M  V30 902 H 91.1503 -3.37275 -3.73168 0
M  V30 903 H 90.8503 -5.00366 -3.08071 0
M  V30 904 H 92.3743 -4.65879 -3.94701 0
M  V30 905 H 93.7883 -5.43857 -1.81362 0
M  V30 906 H 92.1853 -5.88741 -1.16207 0
M  V30 907 H 93.2553 -4.84454 -0.207847 0
M  V30 908 N 94.5984 0.214957 -1.56127 0
M  V30 909 C 96.0094 0.781386 -1.69562 0
M  V30 910 C 96.3604 1.84707 -0.66165 0
M  V30 911 O 95.4854 2.156 0.185927 0
M  V30 912 C 96.0804 1.42411 -3.07416 0
M  V30 913 C 94.6394 1.93786 -3.22683 0
M  V30 914 C 93.7864 0.800438 -2.65496 0
M  V30 915 H 96.7374 -0.00980633 -1.58697 0
M  V30 916 H 96.7584 2.29309 -3.0364 0
M  V30 917 H 96.2704 0.64826 -3.82648 0
M  V30 918 H 94.3714 2.74152 -2.52332 0
M  V30 919 H 94.4844 2.1133 -4.29973 0
M  V30 920 H 92.8484 1.2095 -2.2415 0
M  V30 921 H 93.6314 0.0371471 -3.4328 0
M  V30 922 N 96.0765 1.50051 0.48192 0
M  V30 923 C 97.0065 1.71046 1.58951 0
M  V30 924 C 97.9875 0.559288 1.60642 0
M  V30 925 O 99.1725 0.797243 1.77081 0
M  V30 926 C 96.3025 1.79462 2.97339 0
M  V30 927 C 95.2565 2.94558 3.10515 0
M  V30 928 C 94.5825 2.88105 4.50444 0
M  V30 929 C 95.8825 4.35227 2.88747 0
M  V30 930 H 97.5765 2.6378 1.41635 0
M  V30 931 H 95.1225 1.26936 0.679942 0
M  V30 932 H 97.0755 1.92734 3.74742 0
M  V30 933 H 95.7995 0.833412 3.15788 0
M  V30 934 H 94.4585 2.80918 2.35543 0
M  V30 935 H 94.1065 1.89853 4.65795 0
M  V30 936 H 93.8065 3.65366 4.60197 0
M  V30 937 H 95.3305 3.03412 5.29881 0
M  V30 938 H 96.7445 4.49449 3.55905 0
M  V30 939 H 95.1415 5.13856 3.09955 0
M  V30 940 H 96.2115 4.48347 1.84696 0
M  V30 941 N 97.5546 -0.734337 1.39446 0
M  V30 942 C 98.9656 -1.31264 1.32766 0
M  V30 943 C 99.3166 -1.96198 -0.00767497 0
M  V30 944 O 98.4416 -1.96346 -0.909796 0
M  V30 945 C 99.0366 -2.38682 2.4045 0
M  V30 946 C 97.5956 -2.92184 2.37288 0
M  V30 947 C 96.7426 -1.6576 2.22304 0
M  V30 948 H 99.6936 -0.531799 1.49525 0
M  V30 949 H 99.7146 -3.19087 2.07276 0
M  V30 950 H 99.2266 -1.91392 3.37625 0
M  V30 951 H 97.3276 -3.43752 1.43754 0
M  V30 952 H 97.4406 -3.45253 3.3217 0
M  V30 953 H 95.8046 -1.9012 1.69489 0
M  V30 954 H 96.5876 -1.20521 3.21449 0
M  V30 955 N 99.0327 -1.24633 -0.964593 0
M  V30 956 C 100.444 -1.08045 -1.5226 0
M  V30 957 C 100.795 0.347116 -1.93105 0
M  V30 958 O 99.9197 1.23588 -1.77637 0
M  V30 959 C 100.515 -1.95514 -2.76695 0
M  V30 960 C 99.0737 -1.8314 -3.28841 0
M  V30 961 C 98.2207 -1.90262 -2.01732 0
M  V30 962 H 101.172 -1.38064 -0.782553 0
M  V30 963 H 101.193 -1.48925 -3.50145 0
M  V30 964 H 100.705 -2.99407 -2.46936 0
M  V30 965 H 98.8057 -0.82092 -3.63444 0
M  V30 966 H 98.9187 -2.67406 -3.97531 0
M  V30 967 H 97.2827 -1.34027 -2.16584 0
M  V30 968 H 98.0657 -2.9574 -1.74334 0
M  V30 969 N 100.511 1.16574 -1.06058 0
M  V30 970 C 101.759 1.86677 -0.77434 0
M  V30 971 C 102.08 1.81959 0.701147 0
M  V30 972 O 101.35 1.2515 1.50713 0
M  V30 973 H 99.9298 0.691134 -0.283449 0
M  V30 974 H 102.592 1.41378 -1.34158 0
M  V30 975 H 101.688 2.92181 -1.09711 0
M  V30 976 N 101.989 0.842826 1.3317 0
M  V30 977 C 103.266 0.362216 1.92217 0
M  V30 978 C 103.646 -1.15289 1.76838 0
M  V30 979 O 102.994 -1.96914 1.15919 0
M  V30 980 C 103.204 0.813495 3.39387 0
M  V30 981 C 104.552 0.823804 4.16532 0
M  V30 982 O 105.576 0.757358 3.48055 0
M  V30 983 O 104.435 0.915193 5.38782 0
M  V30 984 H 101.529 0.103317 0.820521 0
M  V30 985 H 104.075 0.928942 1.42017 0
M  V30 986 H 102.847 1.85624 3.4447 0
M  V30 987 H 102.47 0.223561 3.96971 0
M  V30 988 N 103.467 -1.45747 0.599634 0
M  V30 989 C 104.713 -2.02592 0.0918643 0
M  V30 990 C 105.046 -1.46806 -1.27128 0
M  V30 991 O 104.321 -0.639658 -1.83681 0
M  V30 992 C 104.604 -3.60073 0.0443398 0
M  V30 993 C 104.457 -4.26208 1.43759 0
M  V30 994 C 105.776 -4.35309 -0.647608 0
M  V30 995 H 102.895 -0.736175 0.034857 0
M  V30 996 H 105.537 -1.73694 0.770081 0
M  V30 997 H 103.687 -3.84823 -0.533224 0
M  V30 998 H 105.359 -4.12668 2.06162 0
M  V30 999 H 103.602 -3.84916 2.00056 0
M  V30 1000 H 104.273 -5.35069 1.35665 0
M  V30 1001 H 106.749 -4.15805 -0.156776 0
M  V30 1002 H 105.625 -5.45038 -0.649942 0
M  V30 1003 H 105.886 -4.07598 -1.71219 0
M  V30 1004 N 104.945 -0.338344 -1.53925 0
M  V30 1005 C 106.193 0.259245 -2.0043 0
M  V30 1006 C 106.514 1.51484 -1.22791 0
M  V30 1007 O 105.784 1.93037 -0.33368 0
M  V30 1008 H 104.364 0.0987845 -0.740439 0
M  V30 1009 H 107.026 -0.458302 -1.89435 0
M  V30 1010 H 106.122 0.505334 -3.07982 0
M  V30 1011 N 106.423 1.57458 -0.0668435 0
M  V30 1012 C 107.669 1.93587 0.6043 0
M  V30 1013 C 108.002 0.946722 1.69561 0
M  V30 1014 O 107.277 -0.0248516 1.94484 0
M  V30 1015 C 107.56 3.40014 1.18585 0
M  V30 1016 C 107.413 4.49685 0.101529 0
M  V30 1017 C 108.732 3.87154 2.09284 0
M  V30 1018 H 105.851 0.703958 0.218202 0
M  V30 1019 H 108.493 1.89542 -0.131804 0
M  V30 1020 H 106.643 3.43592 1.81319 0
M  V30 1021 H 108.315 4.5823 -0.531279 0
M  V30 1022 H 106.558 4.30059 -0.568487 0
M  V30 1023 H 107.229 5.49266 0.54874 0
M  V30 1024 H 109.705 3.85551 1.56491 0
M  V30 1025 H 108.581 4.90231 2.46911 0
M  V30 1026 H 108.842 3.2481 2.99918 0
M  V30 1027 N 107.901 -0.206675 1.56239 0
M  V30 1028 C 109.126 -0.949474 1.8439 0
M  V30 1029 C 109.551 -1.76549 0.649016 0
M  V30 1030 O 108.909 -1.76782 -0.402231 0
M  V30 1031 C 108.957 -1.83078 3.10668 0
M  V30 1032 O 108.061 -2.9281 2.90407 0
M  V30 1033 H 107.402 -0.268033 0.607499 0
M  V30 1034 H 109.932 -0.215488 2.03462 0
M  V30 1035 H 109.942 -2.2377 3.41161 0
M  V30 1036 H 108.617 -1.23112 3.97261 0
M  V30 1037 H 107.194 -2.55956 2.71184 0
M  V30 1038 N 109.379 -1.50304 -0.473955 0
M  V30 1039 C 110.795 -1.37667 -0.807466 0
M  V30 1040 C 110.995 -0.430555 -1.96846 0
M  V30 1041 O 110.051 0.127874 -2.52176 0
M  V30 1042 C 111.364 -2.78974 -1.12223 0
M  V30 1043 C 112.912 -2.87868 -1.22885 0
M  V30 1044 C 113.387 -4.30003 -1.57676 0
M  V30 1045 N 114.878 -4.3294 -1.64673 0
M  V30 1046 C 115.613 -5.3991 -1.93091 0
M  V30 1047 N 115.109 -6.57092 -2.1955 0
M  V30 1048 N 116.902 -5.27351 -1.94569 0
M  V30 1049 H 109.053 -2.10394 0.291212 0
M  V30 1050 H 111.316 -0.945575 0.0677609 0
M  V30 1051 H 111.022 -3.50031 -0.342229 0
M  V30 1052 H 110.896 -3.16038 -2.05913 0
M  V30 1053 H 113.283 -2.17032 -1.99953 0
M  V30 1054 H 113.364 -2.54352 -0.271814 0
M  V30 1055 H 113.008 -5.01375 -0.81149 0
M  V30 1056 H 112.938 -4.61004 -2.54525 0
M  V30 1057 H 115.429 -3.48441 -1.46277 0
M  V30 1058 H 115.742 -7.34425 -2.405 0
M  V30 1059 H 114.087 -6.60272 -2.16948 0
M  V30 1060 H 117.278 -4.34801 -1.73394 0
M  V30 1061 H 117.451 -6.10805 -2.16381 0
M  V30 1062 N 110.857 0.726932 -1.39834 0
M  V30 1063 C 112.082 1.52121 -1.40976 0
M  V30 1064 C 112.507 1.88098 -0.00826029 0
M  V30 1065 O 111.865 1.52479 0.980807 0
M  V30 1066 C 111.913 2.78021 -2.29644 0
M  V30 1067 O 111.017 3.74272 -1.73188 0
M  V30 1068 H 110.358 0.45908 -0.479731 0
M  V30 1069 H 112.888 0.896207 -1.83927 0
M  V30 1070 H 112.898 3.26671 -2.44438 0
M  V30 1071 H 111.573 2.51169 -3.31492 0
M  V30 1072 H 110.15 3.33073 -1.6768 0
M  V30 1073 N 112.336 1.25143 0.95797 0
M  V30 1074 C 113.561 1.12521 1.74223 0
M  V30 1075 C 113.986 -0.317402 1.85403 0
M  V30 1076 O 113.344 -1.2299 1.33204 0
M  V30 1077 C 113.392 1.78062 3.1357 0
M  V30 1078 O 112.496 1.058 3.98598 0
M  V30 1079 H 111.837 0.39304 0.535178 0
M  V30 1080 H 114.367 1.65641 1.201 0
M  V30 1081 H 114.377 1.84213 3.64046 0
M  V30 1082 H 113.052 2.83021 3.04749 0
M  V30 1083 H 111.629 1.07506 3.57067 0
M  V30 1084 N 113.814 -1.1601 1.06675 0
M  V30 1085 C 115.039 -1.91068 0.806706 0
M  V30 1086 C 115.464 -1.77112 -0.633485 0
M  V30 1087 O 114.822 -1.09908 -1.44187 0
M  V30 1088 C 114.87 -3.39655 1.21106 0
M  V30 1089 O 113.974 -4.10893 0.352189 0
M  V30 1090 H 113.315 -0.595125 0.294486 0
M  V30 1091 H 115.845 -1.46955 1.42356 0
M  V30 1092 H 115.855 -3.90434 1.18428 0
M  V30 1093 H 114.53 -3.49132 2.26008 0
M  V30 1094 H 113.107 -3.70285 0.440868 0
M  V30 1095 N 115.292 -0.849877 -1.32721 0
M  V30 1096 C 116.255 -0.296122 -2.27279 0
M  V30 1097 C 117.255 0.541458 -1.5141 0
M  V30 1098 O 118.445 0.353658 -1.70572 0
M  V30 1099 C 115.577 0.581579 -3.35902 0
M  V30 1100 H 116.77 -1.13064 -2.77771 0
M  V30 1101 H 114.323 -0.62383 -1.43311 0
M  V30 1102 H 115.058 1.43809 -2.9067 0
M  V30 1103 H 114.843 -0.0178814 -3.92096 0
M  V30 1104 H 116.333 0.961951 -4.0637 0
M  V30 1105 N 116.77 1.45427 -0.607355 0
M  V30 1106 C 117.68 2.34325 0.113463 0
M  V30 1107 C 118.696 1.51226 0.860617 0
M  V30 1108 O 119.872 1.84029 0.818255 0
M  V30 1109 C 116.937 3.28839 1.09844 0
M  V30 1110 C 115.998 4.27844 0.353271 0
M  V30 1111 C 115.231 5.17842 1.29133 0
M  V30 1112 O 115.454 5.11264 2.52913 0
M  V30 1113 O 114.388 5.96713 0.788523 0
M  V30 1114 H 118.214 2.97364 -0.617094 0
M  V30 1115 H 115.799 1.44807 -0.367619 0
M  V30 1116 H 117.681 3.8708 1.66575 0
M  V30 1117 H 116.356 2.68365 1.81003 0
M  V30 1118 H 115.263 3.7322 -0.256494 0
M  V30 1119 H 116.596 4.91173 -0.317822 0
M  V30 1120 N 118.248 0.346503 1.53744 0
M  V30 1121 C 119.178 -0.501193 2.28058 0
M  V30 1122 C 120.159 -1.10014 1.29734 0
M  V30 1123 O 121.344 -1.12097 1.58581 0
M  V30 1124 C 118.474 -1.65078 3.05559 0
M  V30 1125 C 117.428 -1.18003 4.11411 0
M  V30 1126 C 116.754 -2.41837 4.76884 0
M  V30 1127 C 118.054 -0.278394 5.21558 0
M  V30 1128 H 119.748 0.11875 2.99164 0
M  V30 1129 H 117.294 0.0585531 1.43881 0
M  V30 1130 H 119.247 -2.25028 3.56287 0
M  V30 1131 H 117.971 -2.29767 2.32109 0
M  V30 1132 H 116.63 -0.603331 3.61601 0
M  V30 1133 H 116.278 -3.0494 4.00026 0
M  V30 1134 H 115.978 -2.1102 5.48402 0
M  V30 1135 H 117.502 -3.02508 5.30397 0
M  V30 1136 H 118.916 -0.784823 5.67903 0
M  V30 1137 H 117.313 -0.0619707 6.00068 0
M  V30 1138 H 118.383 0.684677 4.80042 0
M  V30 1139 N 119.726 -1.57421 0.075193 0
M  V30 1140 C 121.003 -1.85029 -0.634329 0
M  V30 1141 C 121.383 -0.968305 -1.87582 0
M  V30 1142 O 120.731 -0.0354749 -2.28472 0
M  V30 1143 C 120.941 -3.35286 -0.968742 0
M  V30 1144 C 122.289 -4.02875 -1.34077 0
M  V30 1145 O 123.313 -3.40051 -1.06037 0
M  V30 1146 O 122.172 -5.13691 -1.86506 0
M  V30 1147 H 119.266 -0.7645 -0.315387 0
M  V30 1148 H 121.812 -1.69366 0.106382 0
M  V30 1149 H 120.584 -3.91203 -0.0871376 0
M  V30 1150 H 120.207 -3.56223 -1.7661 0
M  V30 1151 N 121.204 0.198386 -1.56346 0
M  V30 1152 C 122.62 0.549085 -1.49857 0
M  V30 1153 C 122.82 1.86016 -0.774611 0
M  V30 1154 O 121.876 2.50416 -0.323776 0
M  V30 1155 C 123.189 0.606868 -2.94512 0
M  V30 1156 C 124.737 0.695925 -3.05165 0
M  V30 1157 C 125.212 0.784848 -4.51225 0
M  V30 1158 N 126.703 0.848463 -4.55363 0
M  V30 1159 C 127.438 0.937378 -5.65686 0
M  V30 1160 N 126.934 0.9888 -6.85707 0
M  V30 1161 N 128.727 0.974312 -5.53592 0
M  V30 1162 H 120.878 -0.661655 -2.01831 0
M  V30 1163 H 123.141 -0.235261 -0.918344 0
M  V30 1164 H 122.847 -0.28732 -3.50524 0
M  V30 1165 H 122.721 1.46268 -3.47686 0
M  V30 1166 H 125.108 1.58055 -2.49204 0
M  V30 1167 H 125.189 -0.186022 -2.55123 0
M  V30 1168 H 124.833 -0.0954072 -5.0781 0
M  V30 1169 H 124.763 1.68255 -4.98997 0
M  V30 1170 H 127.254 0.818103 -3.68938 0
M  V30 1171 H 127.567 1.05707 -7.65536 0
M  V30 1172 H 125.912 0.957534 -6.88372 0
M  V30 1173 H 129.103 0.930954 -4.58749 0
M  V30 1174 H 129.276 1.04015 -6.39597 0
M  V30 1175 N 122.682 1.50554 0.465978 0
M  V30 1176 C 123.907 1.65838 1.24549 0
M  V30 1177 C 124.332 0.343486 1.84937 0
M  V30 1178 O 123.69 -0.69324 1.67523 0
M  V30 1179 C 123.738 2.75533 2.32624 0
M  V30 1180 O 122.842 2.37142 3.37398 0
M  V30 1181 H 122.183 0.553893 0.366194 0
M  V30 1182 H 124.713 1.96959 0.553927 0
M  V30 1183 H 124.723 2.98763 2.77857 0
M  V30 1184 H 123.398 3.70962 1.88043 0
M  V30 1185 H 121.975 2.24377 2.97841 0
M  V30 1186 N 124.16 -0.719506 1.40217 0
M  V30 1187 C 125.576 -1.02707 1.22161 0
M  V30 1188 C 125.776 -2.0128 0.0940557 0
M  V30 1189 O 124.832 -2.46452 -0.549318 0
M  V30 1190 C 126.145 -1.57454 2.56181 0
M  V30 1191 C 127.693 -1.69458 2.63159 0
M  V30 1192 C 128.168 -2.27611 3.97438 0
M  V30 1193 N 129.659 -2.35002 3.99159 0
M  V30 1194 C 130.394 -2.80972 4.99842 0
M  V30 1195 N 129.89 -3.26723 6.10921 0
M  V30 1196 N 131.683 -2.80321 4.87213 0
M  V30 1197 H 123.834 -0.0660492 2.12297 0
M  V30 1198 H 126.097 -0.0919077 0.943534 0
M  V30 1199 H 125.803 -0.924873 3.39321 0
M  V30 1200 H 125.677 -2.56036 2.76993 0
M  V30 1201 H 128.064 -2.33543 1.80393 0
M  V30 1202 H 128.145 -0.694867 2.46181 0
M  V30 1203 H 127.789 -1.6415 4.80643 0
M  V30 1204 H 127.719 -3.2829 4.11744 0
M  V30 1205 H 130.21 -2.02685 3.18947 0
M  V30 1206 H 130.523 -3.60355 6.8364 0
M  V30 1207 H 128.868 -3.24692 6.14492 0
M  V30 1208 H 132.059 -2.43912 3.9953 0
M  V30 1209 H 132.232 -3.15831 5.65822 0
M  V30 1210 N 125.638 -1.25649 -0.95132 0
M  V30 1211 C 127.049 -1.09654 -1.51106 0
M  V30 1212 C 127.4 0.326615 -1.93462 0
M  V30 1213 O 126.525 1.21697 -1.78938 0
M  V30 1214 C 127.12 -1.98437 -2.74605 0
M  V30 1215 C 125.679 -1.86618 -3.2688 0
M  V30 1216 C 124.826 -1.9239 -1.99703 0
M  V30 1217 H 127.777 -1.38887 -0.767865 0
M  V30 1218 H 127.798 -1.5263 -3.48546 0
M  V30 1219 H 127.31 -3.02009 -2.43746 0
M  V30 1220 H 125.411 -0.859421 -3.62553 0
M  V30 1221 H 125.524 -2.71607 -3.94673 0
M  V30 1222 H 123.888 -1.36317 -2.15151 0
M  V30 1223 H 124.671 -2.97573 -1.71188 0
M  V30 1224 N 127.117 1.15442 -1.07289 0
M  V30 1225 C 128.08 2.18358 -0.696591 0
M  V30 1226 C 129.08 1.58637 0.262837 0
M  V30 1227 O 130.27 1.74145 0.0438809 0
M  V30 1228 C 127.402 3.4089 -0.0266151 0
M  V30 1229 H 128.595 2.53162 -1.60776 0
M  V30 1230 H 126.148 1.29893 -0.869342 0
M  V30 1231 H 126.883 3.11653 0.896822 0
M  V30 1232 H 126.668 3.85495 -0.716657 0
M  V30 1233 H 128.158 4.17009 0.222028 0
M  V30 1234 N 128.595 0.856903 1.32268 0
M  V30 1235 C 129.841 0.462069 1.97466 0
M  V30 1236 C 130.174 -0.980298 1.67642 0
M  V30 1237 O 129.449 -1.68824 0.965858 0
M  V30 1238 C 129.732 0.704336 3.53145 0
M  V30 1239 C 129.585 2.19529 3.9259 0
M  V30 1240 C 130.904 0.1622 4.39801 0
M  V30 1241 H 128.023 0.169357 0.717278 0
M  V30 1242 H 130.665 1.07574 1.56614 0
M  V30 1243 H 128.815 0.181999 3.88073 0
M  V30 1244 H 130.487 2.78387 3.67829 0
M  V30 1245 H 128.73 2.67292 3.41668 0
M  V30 1246 H 129.401 2.31549 5.01088 0
M  V30 1247 H 131.877 0.608905 4.11621 0
M  V30 1248 H 130.753 0.361265 5.4771 0
M  V30 1249 H 131.014 -0.935158 4.32096 0
M  V30 1250 N 130.073 -1.45103 0.615059 0
M  V30 1251 C 131.298 -2.07064 0.117988 0
M  V30 1252 C 131.723 -1.4554 -1.19163 0
M  V30 1253 O 131.081 -0.550855 -1.72729 0
M  V30 1254 C 131.129 -3.606 -0.000288387 0
M  V30 1255 O 130.233 -3.98847 -1.04856 0
M  V30 1256 H 129.574 -0.659467 0.0774581 0
M  V30 1257 H 132.104 -1.86236 0.847186 0
M  V30 1258 H 132.114 -4.07529 -0.196091 0
M  V30 1259 H 130.789 -4.04765 0.955932 0
M  V30 1260 H 129.366 -3.63577 -0.828619 0
M  V30 1261 N 131.551 -0.354651 -1.53558 0
M  V30 1262 C 132.797 0.238797 -2.01389 0
M  V30 1263 C 133.13 1.49309 -1.2418 0
M  V30 1264 O 132.405 1.91638 -0.332457 0
M  V30 1265 C 132.688 0.541771 -3.56001 0
M  V30 1266 C 132.541 -0.725388 -4.43912 0
M  V30 1267 C 133.86 1.34685 -4.18984 0
M  V30 1268 H 130.979 0.0853177 -0.732045 0
M  V30 1269 H 133.621 -0.477384 -1.83905 0
M  V30 1270 H 131.771 1.15189 -3.71031 0
M  V30 1271 H 133.443 -1.36313 -4.407 0
M  V30 1272 H 131.686 -1.34801 -4.12324 0
M  V30 1273 H 132.357 -0.468505 -5.50008 0
M  V30 1274 H 134.833 0.830837 -4.07721 0
M  V30 1275 H 133.709 1.52759 -5.27215 0
M  V30 1276 H 133.97 2.35221 -3.74331 0
M  V30 1277 N 133.029 1.57378 -0.0835403 0
M  V30 1278 C 134.257 1.98263 0.59157 0
M  V30 1279 C 134.672 0.962302 1.62435 0
M  V30 1280 O 134.029 -0.049581 1.82433 0
M  V30 1281 C 134.08 3.39214 1.24965 0
M  V30 1282 O 133.801 4.37339 0.258186 0
M  V30 1283 C 135.302 3.95038 2.01147 0
M  V30 1284 H 132.522 0.651773 0.159477 0
M  V30 1285 H 135.066 2.03878 -0.159415 0
M  V30 1286 H 133.221 3.34649 1.95164 0
M  V30 1287 H 133.635 5.19371 0.731734 0
M  V30 1288 H 135.109 4.95848 2.42567 0
M  V30 1289 H 135.586 3.32222 2.87272 0
M  V30 1290 H 136.192 4.0304 1.35789 0
M  V30 1291 N 134.507 -0.190092 1.56449 0
M  V30 1292 C 135.756 -0.907912 1.80111 0
M  V30 1293 C 136.069 -1.84214 0.657619 0
M  V30 1294 O 137.275 -2.60094 0.778663 0
M  V30 1295 C 135.731 -1.66485 3.19078 0
M  V30 1296 C 135.339 -0.7752 4.41242 0
M  V30 1297 C 137.083 -2.37201 3.52045 0
M  V30 1298 C 134.99 -1.53129 5.71231 0
M  V30 1299 H 133.92 -0.34276 0.671589 0
M  V30 1300 H 136.571 -0.161109 1.82791 0
M  V30 1301 H 134.953 -2.45572 3.10661 0
M  V30 1302 H 136.127 -0.0226298 4.60794 0
M  V30 1303 H 134.442 -0.178627 4.16017 0
M  V30 1304 H 137.039 -2.94329 4.46402 0
M  V30 1305 H 137.382 -3.11632 2.76028 0
M  V30 1306 H 137.915 -1.65075 3.61932 0
M  V30 1307 H 134.654 -0.82967 6.50228 0
M  V30 1308 H 134.174 -2.25767 5.55688 0
M  V30 1309 H 135.853 -2.08377 6.12526 0
M  V30 1310 N 135.985 -1.50799 -0.457987 0
M  V30 1311 C 137.233 -1.62121 -1.2067 0
M  V30 1312 C 137.554 -0.329793 -1.92191 0
M  V30 1313 O 136.824 0.653409 -1.84682 0
M  V30 1314 H 135.404 -0.597441 -0.448411 0
M  V30 1315 H 138.066 -1.87637 -0.527096 0
M  V30 1316 H 137.162 -2.43882 -1.94751 0
M  V30 1317 N 137.463 0.71206 -1.40597 0
M  V30 1318 C 138.691 1.50111 -1.42388 0
M  V30 1319 C 139.106 1.88784 -0.0245395 0
M  V30 1320 O 138.463 1.55681 0.952351 0
M  V30 1321 C 138.514 2.7742 -2.31776 0
M  V30 1322 O 138.235 2.40382 -3.66262 0
M  V30 1323 C 139.736 3.7129 -2.42196 0
M  V30 1324 H 136.956 0.46314 -0.485533 0
M  V30 1325 H 139.5 0.878068 -1.8469 0
M  V30 1326 H 137.655 3.36001 -1.92827 0
M  V30 1327 H 138.069 3.22324 -4.13772 0
M  V30 1328 H 139.543 4.57448 -3.08943 0
M  V30 1329 H 140.02 4.14641 -1.44809 0
M  V30 1330 H 140.626 3.18619 -2.81712 0
M  V30 1331 N 138.941 1.26152 0.944643 0
M  V30 1332 C 140.166 1.14363 1.7302 0
M  V30 1333 C 140.591 -0.29772 1.85729 0
M  V30 1334 O 139.949 -1.2157 1.34501 0
M  V30 1335 C 139.997 1.81378 3.11664 0
M  V30 1336 O 139.101 1.10022 3.97453 0
M  V30 1337 H 138.442 0.398694 0.53098 0
M  V30 1338 H 140.972 1.66906 1.18337 0
M  V30 1339 H 140.982 1.88064 3.62072 0
M  V30 1340 H 139.657 2.86237 3.0173 0
M  V30 1341 H 138.234 1.11287 3.55907 0
M  V30 1342 N 140.419 -1.14872 1.07899 0
M  V30 1343 C 141.329 -2.2341 0.715915 0
M  V30 1344 C 142.345 -1.71808 -0.275306 0
M  V30 1345 O 143.521 -2.01039 -0.120545 0
M  V30 1346 C 140.586 -3.46474 0.125168 0
M  V30 1347 C 139.647 -4.13039 1.17034 0
M  V30 1348 C 138.88 -5.30229 0.607688 0
M  V30 1349 O 139.103 -5.675 -0.574497 0
M  V30 1350 O 138.037 -5.86444 1.35526 0
M  V30 1351 H 141.863 -2.56808 1.62121 0
M  V30 1352 H 139.448 -1.22702 0.852322 0
M  V30 1353 H 141.33 -4.20917 -0.201729 0
M  V30 1354 H 140.005 -3.14811 -0.753364 0
M  V30 1355 H 138.912 -3.40493 1.54968 0
M  V30 1356 H 140.245 -4.48796 2.02097 0
M  V30 1357 N 141.898 -0.863906 -1.31812 0
M  V30 1358 C 142.831 -0.259963 -2.26714 0
M  V30 1359 C 143.809 0.607392 -1.50829 0
M  V30 1360 O 144.993 0.562155 -1.79922 0
M  V30 1361 C 142.12 0.632456 -3.32743 0
M  V30 1362 C 141.166 -0.162743 -4.26189 0
M  V30 1363 S 141.999 -1.53726 -5.12961 0
M  V30 1364 C 143.155 -0.650803 -6.22507 0
M  V30 1365 H 143.388 -1.06445 -2.77591 0
M  V30 1366 H 140.921 -0.662071 -1.39485 0
M  V30 1367 H 142.879 1.14167 -3.94305 0
M  V30 1368 H 141.54 1.41083 -2.80632 0
M  V30 1369 H 140.733 0.517366 -5.01338 0
M  V30 1370 H 140.335 -0.60385 -3.69093 0
M  V30 1371 H 142.627 0.141134 -6.77353 0
M  V30 1372 H 143.57 -1.37322 -6.94657 0
M  V30 1373 H 143.978 -0.221041 -5.64067 0
M  V30 1374 N 143.376 1.44774 -0.622745 0
M  V30 1375 C 144.324 2.32387 0.0994683 0
M  V30 1376 C 145.318 1.46859 0.844326 0
M  V30 1377 O 146.524 1.63254 0.758174 0
M  V30 1378 H 142.899 0.750273 0.0509291 0
M  V30 1379 H 144.87 2.91062 -0.65767 0
M  V30 1380 C 143.619 3.30723 1.07319 0
M  V30 1381 H 142.942 3.96541 0.509462 0
M  V30 1382 H 144.382 3.94725 1.54817 0
M  V30 1383 C 142.841 2.59021 2.15429 0
M  V30 1384 O 143.371 2.38286 3.23393 0
M  V30 1385 N 141.577 2.189 1.91131 0
M  V30 1386 H 141.124 2.35964 1.03337 0
M  V30 1387 H 141.082 1.71251 2.63668 0
M  V30 1388 N 144.854 0.36279 1.53368 0
M  V30 1389 C 145.817 -0.472679 2.24273 0
M  V30 1390 C 146.817 -1.012 1.24961 0
M  V30 1391 O 148.007 -0.898194 1.49259 0
M  V30 1392 C 145.139 -1.66039 2.97731 0
M  V30 1393 H 146.332 0.14773 2.99536 0
M  V30 1394 H 143.885 0.114434 1.55881 0
M  V30 1395 H 144.62 -2.31896 2.26704 0
M  V30 1396 H 144.405 -1.28066 3.70596 0
M  V30 1397 H 145.895 -2.25252 3.51641 0
M  V30 1398 N 146.332 -1.57332 0.0918853 0
M  V30 1399 C 147.579 -1.94236 -0.572577 0
M  V30 1400 C 147.907 -0.973398 -1.6839 0
M  V30 1401 O 147.162 0.00756912 -1.95699 0
M  V30 1402 C 147.461 -3.37689 -1.17051 0
M  V30 1403 C 147.127 -4.50527 -0.183304 0
M  V30 1404 C 145.789 -4.81119 0.0882276 0
M  V30 1405 C 148.141 -5.18883 0.49095 0
M  V30 1406 C 145.469 -5.77395 1.04076 0
M  V30 1407 C 147.821 -6.1618 1.43193 0
M  V30 1408 C 146.485 -6.45179 1.71173 0
M  V30 1409 H 145.755 -0.710762 -0.209521 0
M  V30 1410 H 148.402 -1.9077 0.167036 0
M  V30 1411 H 146.707 -3.37718 -1.9863 0
M  V30 1412 H 148.404 -3.63543 -1.69227 0
M  V30 1413 H 144.994 -4.26681 -0.405124 0
M  V30 1414 H 149.178 -4.95427 0.294312 0
M  V30 1415 H 144.434 -5.98179 1.26457 0
M  V30 1416 H 148.608 -6.68243 1.96023 0
M  V30 1417 H 146.235 -7.1959 2.4514 0
M  V30 1418 N 147.81 0.181792 -1.56548 0
M  V30 1419 C 148.74 1.22765 -1.98623 0
M  V30 1420 C 149.721 1.46747 -0.860189 0
M  V30 1421 O 150.906 1.58259 -1.12551 0
M  V30 1422 C 148.036 2.56894 -2.33715 0
M  V30 1423 C 146.99 2.475 -3.49182 0
M  V30 1424 C 146.316 3.86023 -3.69986 0
M  V30 1425 C 147.616 1.98866 -4.82959 0
M  V30 1426 H 149.31 0.877942 -2.86239 0
M  V30 1427 H 146.856 0.42088 -1.37712 0
M  V30 1428 H 148.809 3.30253 -2.61746 0
M  V30 1429 H 147.533 2.93632 -1.42997 0
M  V30 1430 H 146.192 1.76596 -3.21262 0
M  V30 1431 H 145.84 4.20136 -2.76576 0
M  V30 1432 H 145.54 3.80609 -4.47672 0
M  V30 1433 H 147.064 4.60984 -4.00407 0
M  V30 1434 H 148.478 2.61992 -5.09934 0
M  V30 1435 H 146.875 2.04424 -5.64208 0
M  V30 1436 H 147.945 0.942465 -4.75653 0
M  V30 1437 N 149.288 1.51039 0.449983 0
M  V30 1438 C 150.565 1.53612 1.21089 0
M  V30 1439 C 150.945 0.292997 2.09057 0
M  V30 1440 O 150.293 -0.72259 2.16774 0
M  V30 1441 C 150.503 2.84337 2.0237 0
M  V30 1442 C 151.851 3.35807 2.59843 0
M  V30 1443 O 152.875 2.85802 2.12593 0
M  V30 1444 O 151.734 4.23029 3.45989 0
M  V30 1445 H 148.828 0.617057 0.550608 0
M  V30 1446 H 151.374 1.63344 0.460082 0
M  V30 1447 H 150.146 3.66278 1.37681 0
M  V30 1448 H 149.769 2.77708 2.84542 0
M  V30 1449 N 150.766 -0.704594 1.40972 0
M  V30 1450 C 152.043 -1.45847 1.30338 0
M  V30 1451 C 152.423 -2.10973 -0.0732344 0
M  V30 1452 O 151.771 -2.00997 -1.08685 0
M  V30 1453 C 151.981 -2.48525 2.45023 0
M  V30 1454 C 153.329 -3.1404 2.8577 0
M  V30 1455 O 154.353 -2.58848 2.44696 0
M  V30 1456 O 153.212 -4.13981 3.56766 0
M  V30 1457 H 150.306 -0.649092 0.512454 0
M  V30 1458 H 152.852 -0.735836 1.52917 0
M  V30 1459 H 151.624 -1.98994 3.36923 0
M  V30 1460 H 151.247 -3.2831 2.24272 0
M  V30 1461 N 152.244 -1.26651 -0.937939 0
M  V30 1462 C 153.655 -1.1125 -1.49934 0
M  V30 1463 C 154.006 0.306077 -1.93798 0
M  V30 1464 O 153.131 1.19792 -1.80219 0
M  V30 1465 C 153.726 -2.01339 -2.72485 0
M  V30 1466 C 152.285 -1.90074 -3.24883 0
M  V30 1467 C 151.432 -1.94498 -1.97651 0
M  V30 1468 H 154.383 -1.39693 -0.753091 0
M  V30 1469 H 154.404 -1.56319 -3.46907 0
M  V30 1470 H 153.916 -3.04577 -2.40529 0
M  V30 1471 H 152.017 -0.897827 -3.61621 0
M  V30 1472 H 152.13 -2.75778 -3.9177 0
M  V30 1473 H 150.494 -1.38591 -2.13693 0
M  V30 1474 H 151.277 -2.99372 -1.68022 0
M  V30 1475 N 153.722 1.14298 -1.08507 0
M  V30 1476 C 154.632 2.23027 -0.727753 0
M  V30 1477 C 155.648 1.71952 0.26619 0
M  V30 1478 O 156.824 2.011 0.109882 0
M  V30 1479 C 153.889 3.46403 -0.143541 0
M  V30 1480 C 152.95 4.12413 -1.19223 0
M  V30 1481 C 152.183 5.29899 -0.635798 0
M  V30 1482 O 152.406 5.67796 0.544393 0
M  V30 1483 O 151.34 5.85717 -1.38634 0
M  V30 1484 H 155.166 2.55945 -1.63481 0
M  V30 1485 H 152.751 1.22248 -0.858817 0
M  V30 1486 H 154.633 4.21018 0.179404 0
M  V30 1487 H 153.308 3.15206 0.736659 0
M  V30 1488 H 152.215 3.39667 -1.56772 0
M  V30 1489 H 153.548 4.47718 -2.04474 0
M  V30 1490 N 155.201 0.870884 1.31352 0
M  V30 1491 C 156.448 0.482273 1.96673 0
M  V30 1492 C 156.776 -0.965638 1.68836 0
M  V30 1493 O 156.031 -1.69514 0.977937 0
M  V30 1494 C 156.33 0.687157 3.50732 0
M  V30 1495 C 155.996 2.108 3.9859 0
M  V30 1496 C 154.658 2.49656 4.1137 0
M  V30 1497 C 157.01 3.03459 4.23748 0
M  V30 1498 C 154.338 3.80412 4.46659 0
M  V30 1499 C 156.69 4.3373 4.60501 0
M  V30 1500 C 155.354 4.725 4.71487 0
M  V30 1501 H 154.624 0.176476 0.719679 0
M  V30 1502 H 157.271 1.10405 1.56471 0
M  V30 1503 H 155.576 -0.0177476 3.91796 0
M  V30 1504 H 157.273 0.366284 3.99324 0
M  V30 1505 H 153.863 1.79633 3.8914 0
M  V30 1506 H 158.047 2.74665 4.13368 0
M  V30 1507 H 153.303 4.1021 4.53362 0
M  V30 1508 H 157.477 5.05578 4.78919 0
M  V30 1509 H 155.104 5.73859 4.98588 0
M  V30 1510 N 156.679 -1.44442 0.630414 0
M  V30 1511 C 157.642 -2.29107 -0.0652523 0
M  V30 1512 C 158.642 -1.41002 -0.772995 0
M  V30 1513 O 159.832 -1.62881 -0.617692 0
M  V30 1514 C 156.964 -3.22564 -1.10296 0
M  V30 1515 H 158.157 -2.92103 0.679401 0
M  V30 1516 H 155.71 -1.51343 0.390517 0
M  V30 1517 H 156.445 -2.64416 -1.87762 0
M  V30 1518 H 156.23 -3.87491 -0.59941 0
M  V30 1519 H 157.72 -3.86167 -1.5895 0
M  V30 1520 N 158.157 -0.370918 -1.53173 0
M  V30 1521 C 159.434 0.273754 -1.93675 0
M  V30 1522 C 159.814 1.65938 -1.3049 0
M  V30 1523 O 159.162 2.23698 -0.465999 0
M  V30 1524 C 159.372 0.318602 -3.47543 0
M  V30 1525 C 160.72 0.556392 -4.20939 0
M  V30 1526 O 161.744 0.399587 -3.53952 0
M  V30 1527 O 160.603 0.862133 -5.39657 0
M  V30 1528 H 157.697 0.165448 -0.810281 0
M  V30 1529 H 160.243 -0.42409 -1.64315 0
M  V30 1530 H 159.015 -0.652687 -3.85818 0
M  V30 1531 H 158.638 1.06212 -3.83151 0
M  V30 1532 N 159.635 1.57281 -0.100228 0
M  V30 1533 C 160.884 1.93713 0.561984 0
M  V30 1534 C 161.197 0.984492 1.69018 0
M  V30 1535 O 162.403 1.24273 2.41389 0
M  V30 1536 C 160.859 3.4421 1.05106 0
M  V30 1537 C 160.467 4.47975 -0.0476628 0
M  V30 1538 C 162.211 3.89595 1.68571 0
M  V30 1539 C 160.118 5.89631 0.457055 0
M  V30 1540 H 159.048 0.723082 0.2137 0
M  V30 1541 H 161.699 1.82644 -0.177057 0
M  V30 1542 H 160.081 3.50449 1.84395 0
M  V30 1543 H 161.255 4.53385 -0.823333 0
M  V30 1544 H 159.57 4.1223 -0.587816 0
M  V30 1545 H 162.167 4.92832 2.07414 0
M  V30 1546 H 162.51 3.28526 2.55688 0
M  V30 1547 H 163.043 3.86078 0.958562 0
M  V30 1548 H 159.782 6.54411 -0.377616 0
M  V30 1549 H 159.302 5.87681 1.19962 0
M  V30 1550 H 160.981 6.40363 0.92437 0
M  V30 1551 N 161.113 -0.173488 1.56642 0
M  V30 1552 C 162.046 -1.24353 1.91342 0
M  V30 1553 C 163.024 -1.4289 0.775965 0
M  V30 1554 O 164.208 -1.57932 1.02907 0
M  V30 1555 C 161.335 -2.60683 2.16245 0
M  V30 1556 C 160.381 -2.58894 3.38934 0
M  V30 1557 S 161.214 -2.0819 4.93373 0
M  V30 1558 C 162.37 -3.46302 5.21369 0
M  V30 1559 H 162.603 -0.947345 2.81803 0
M  V30 1560 H 160.136 -0.377958 1.49703 0
M  V30 1561 H 162.094 -3.39149 2.31275 0
M  V30 1562 H 160.755 -2.87502 1.26496 0
M  V30 1563 H 159.948 -3.59188 3.53553 0
M  V30 1564 H 159.55 -1.88522 3.2301 0
M  V30 1565 H 161.842 -4.42287 5.13214 0
M  V30 1566 H 162.785 -3.3656 6.23003 0
M  V30 1567 H 163.193 -3.42214 4.48943 0
M  V30 1568 N 162.591 -1.51276 -0.441967 0
M  V30 1569 C 163.521 -1.752 -1.54361 0
M  V30 1570 C 164.502 -0.601682 -1.59103 0
M  V30 1571 O 165.687 -0.843913 -1.74905 0
M  V30 1572 C 162.817 -1.87282 -2.92477 0
M  V30 1573 C 161.771 -3.02687 -3.02596 0
M  V30 1574 C 161.097 -2.99947 -4.42647 0
M  V30 1575 C 162.397 -4.4273 -2.77106 0
M  V30 1576 H 164.091 -2.67442 -1.34592 0
M  V30 1577 H 161.637 -1.28694 -0.646048 0
M  V30 1578 H 163.59 -2.02602 -3.695 0
M  V30 1579 H 162.314 -0.916844 -3.13467 0
M  V30 1580 H 160.973 -2.87065 -2.28012 0
M  V30 1581 H 160.621 -2.02136 -4.60597 0
M  V30 1582 H 160.321 -3.77439 -4.50348 0
M  V30 1583 H 161.845 -3.17354 -5.2165 0
M  V30 1584 H 163.259 -4.58727 -3.43864 0
M  V30 1585 H 161.656 -5.21893 -2.96222 0
M  V30 1586 H 162.726 -4.53087 -1.72744 0
M  V30 1587 N 164.069 0.697108 -1.41344 0
M  V30 1588 C 165.485 1.00751 -1.2378 0
M  V30 1589 C 165.685 2.01105 -0.126066 0
M  V30 1590 O 164.741 2.47295 0.51004 0
M  V30 1591 C 166.054 1.53359 -2.58653 0
M  V30 1592 C 167.602 1.6525 -2.65822 0
M  V30 1593 C 168.077 2.2126 -4.01009 0
M  V30 1594 N 169.568 2.28622 -4.02847 0
M  V30 1595 C 170.303 2.72984 -5.04249 0
M  V30 1596 N 169.799 3.16962 -6.16041 0
M  V30 1597 N 171.592 2.72534 -4.91611 0
M  V30 1598 H 163.743 0.0322662 -2.12375 0
M  V30 1599 H 166.006 0.0768853 -0.944877 0
M  V30 1600 H 165.712 0.870773 -3.4075 0
M  V30 1601 H 165.586 2.51597 -2.81032 0
M  V30 1602 H 167.973 2.30644 -1.84086 0
M  V30 1603 H 168.054 0.655614 -2.47256 0
M  V30 1604 H 167.698 1.56482 -4.83193 0
M  V30 1605 H 167.628 3.21698 -4.16915 0
M  V30 1606 H 170.119 1.97585 -3.22131 0
M  V30 1607 H 170.432 3.49434 -6.89287 0
M  V30 1608 H 168.777 3.14875 -6.1958 0
M  V30 1609 H 171.968 2.37525 -4.0336 0
M  V30 1610 H 172.141 3.06789 -5.70775 0
M  V30 1611 N 165.547 1.27147 0.931209 0
M  V30 1612 C 166.51 1.09615 2.01289 0
M  V30 1613 C 167.51 0.0412581 1.60747 0
M  V30 1614 O 168.7 0.285545 1.71844 0
M  V30 1615 C 165.832 0.669447 3.34262 0
M  V30 1616 H 167.025 2.05662 2.18273 0
M  V30 1617 H 164.578 1.09885 1.11153 0
M  V30 1618 H 165.313 -0.292572 3.22978 0
M  V30 1619 H 165.098 1.43127 3.65044 0
M  V30 1620 H 166.588 0.568921 4.13706 0
M  V30 1621 N 167.025 -1.13721 1.09112 0
M  V30 1622 C 167.935 -2.22638 0.73957 0
M  V30 1623 C 168.951 -1.72091 -0.257068 0
M  V30 1624 O 170.127 -2.01155 -0.0992154 0
M  V30 1625 C 167.192 -3.46322 0.16191 0
M  V30 1626 C 166.253 -4.11775 1.21408 0
M  V30 1627 C 165.486 -5.29555 0.663891 0
M  V30 1628 O 165.709 -5.68077 -0.514274 0
M  V30 1629 O 164.643 -5.84973 1.41738 0
M  V30 1630 H 168.469 -2.55074 1.64836 0
M  V30 1631 H 166.054 -1.21791 0.865289 0
M  V30 1632 H 167.936 -4.21107 -0.157073 0
M  V30 1633 H 166.611 -3.15593 -0.719932 0
M  V30 1634 H 165.518 -3.3883 1.58571 0
M  V30 1635 H 166.851 -4.46627 2.06845 0
M  V30 1636 N 168.503 -0.877838 -1.30888 0
M  V30 1637 C 169.435 -0.296607 -2.27273 0
M  V30 1638 C 170.448 0.544799 -1.53414 0
M  V30 1639 O 171.637 0.365511 -1.74718 0
M  V30 1640 C 168.737 0.597481 -3.33592 0
M  V30 1641 C 167.91 -0.213251 -4.3688 0
M  V30 1642 C 166.969 0.610208 -5.2265 0
M  V30 1643 O 165.995 0.035441 -5.69189 0
M  V30 1644 N 167.197 1.92071 -5.47804 0
M  V30 1645 H 169.962 -1.12492 -2.77787 0
M  V30 1646 H 167.523 -0.740105 -1.43993 0
M  V30 1647 H 169.515 1.15425 -3.87891 0
M  V30 1648 H 168.085 1.32647 -2.83061 0
M  V30 1649 H 167.305 -0.951466 -3.82545 0
M  V30 1650 H 168.593 -0.769262 -5.02951 0
M  V30 1651 H 167.991 2.4107 -5.11763 0
M  V30 1652 H 166.548 2.42508 -6.05007 0
M  V30 1653 N 169.982 1.44106 -0.638065 0
M  V30 1654 C 170.945 2.29138 0.0531013 0
M  V30 1655 C 171.945 1.41409 0.765506 0
M  V30 1656 O 173.135 1.63206 0.609046 0
M  V30 1657 C 170.267 3.23144 1.08584 0
M  V30 1658 H 171.46 2.91739 -0.694883 0
M  V30 1659 H 169.013 1.51134 -0.398538 0
M  V30 1660 H 169.748 2.65408 1.86357 0
M  V30 1661 H 169.533 3.87804 0.578852 0
M  V30 1662 H 171.023 3.87004 1.56899 0
M  V30 1663 N 171.46 0.379036 1.52974 0
M  V30 1664 C 172.709 -0.207612 2.00629 0
M  V30 1665 C 173.022 -1.48758 1.27006 0
M  V30 1666 O 174.228 -2.15365 1.65318 0
M  V30 1667 C 172.684 -0.42053 3.57435 0
M  V30 1668 C 172.292 0.845587 4.39948 0
M  V30 1669 C 174.036 -0.964102 4.13407 0
M  V30 1670 C 171.943 0.601513 5.88333 0
M  V30 1671 H 170.873 -0.0813591 0.749598 0
M  V30 1672 H 173.524 0.499853 1.76561 0
M  V30 1673 H 171.906 -1.18959 3.7771 0
M  V30 1674 H 173.08 1.61848 4.31442 0
M  V30 1675 H 171.395 1.31336 3.95145 0
M  V30 1676 H 173.992 -1.16225 5.21916 0
M  V30 1677 H 174.335 -1.93019 3.68849 0
M  V30 1678 H 174.868 -0.25487 3.96983 0
M  V30 1679 H 171.607 1.53831 6.37194 0
M  V30 1680 H 171.127 -0.132628 5.99653 0
M  V30 1681 H 172.806 0.232134 6.46583 0
M  V30 1682 N 172.938 -1.57226 0.108567 0
M  V30 1683 C 173.848 -2.18292 -0.859401 0
M  V30 1684 C 174.864 -1.15612 -1.30038 0
M  V30 1685 O 176.04 -1.48039 -1.36552 0
M  V30 1686 C 173.105 -2.762 -2.09558 0
M  V30 1687 C 172.166 -3.93881 -1.70752 0
M  V30 1688 C 171.399 -4.49018 -2.88477 0
M  V30 1689 O 171.622 -4.03068 -4.036 0
M  V30 1690 O 170.556 -5.39852 -2.66164 0
M  V30 1691 H 174.382 -3.01441 -0.369769 0
M  V30 1692 H 171.967 -1.48945 -0.1165 0
M  V30 1693 H 173.849 -3.13156 -2.81978 0
M  V30 1694 H 172.524 -1.96089 -2.57548 0
M  V30 1695 H 171.431 -3.61713 -0.954714 0
M  V30 1696 H 172.764 -4.75396 -1.27513 0
M  V30 1697 N 174.416 0.165178 -1.56732 0
M  V30 1698 C 175.662 0.882112 -1.82611 0
M  V30 1699 C 175.995 1.81628 -0.687378 0
M  V30 1700 O 175.27 1.92009 0.310267 0
M  V30 1701 C 175.553 1.67245 -3.18906 0
M  V30 1702 C 175.406 0.760987 -4.43316 0
M  V30 1703 C 176.725 2.63884 -3.52212 0
M  V30 1704 H 173.844 0.319242 -0.664269 0
M  V30 1705 H 176.486 0.148052 -1.89422 0
M  V30 1706 H 174.636 2.29824 -3.1323 0
M  V30 1707 H 176.308 0.147596 -4.61064 0
M  V30 1708 H 174.551 0.0694102 -4.33744 0
M  V30 1709 H 175.222 1.34962 -5.35247 0
M  V30 1710 H 177.698 2.11429 -3.58381 0
M  V30 1711 H 176.574 3.16245 -4.48643 0
M  V30 1712 H 176.835 3.44377 -2.77231 0
M  V30 1713 N 175.894 1.51508 0.433938 0
M  V30 1714 C 177.142 1.6402 1.18075 0
M  V30 1715 C 177.463 0.360328 1.91642 0
M  V30 1716 O 176.733 -0.623945 1.85698 0
M  V30 1717 H 175.313 0.6045 0.43885 0
M  V30 1718 H 177.975 1.88452 0.497178 0
M  V30 1719 H 177.071 2.46949 1.90847 0
M  V30 1720 N 177.372 -0.689602 1.41712 0
M  V30 1721 C 178.621 -1.44534 1.40686 0
M  V30 1722 C 178.934 -1.95588 0.0213352 0
M  V30 1723 O 180.14 -2.71271 -0.111534 0
M  V30 1724 C 178.596 -2.61387 2.47396 0
M  V30 1725 C 178.204 -2.17094 3.91885 0
M  V30 1726 C 179.948 -3.38986 2.55517 0
M  V30 1727 C 177.855 -3.3094 4.90135 0
M  V30 1728 H 176.785 -0.542925 0.52321 0
M  V30 1729 H 179.436 -0.748054 1.6756 0
M  V30 1730 H 177.818 -3.33412 2.13664 0
M  V30 1731 H 178.992 -1.52318 4.34897 0
M  V30 1732 H 177.307 -1.52473 3.8748 0
M  V30 1733 H 179.904 -4.23747 3.26102 0
M  V30 1734 H 180.247 -3.84578 1.59391 0
M  V30 1735 H 180.78 -2.74021 2.8837 0
M  V30 1736 H 177.519 -2.90355 5.87685 0
M  V30 1737 H 177.039 -3.94546 4.51767 0
M  V30 1738 H 178.718 -3.9663 5.11169 0
M  V30 1739 N 178.85 -1.27639 -0.924453 0
M  V30 1740 C 180.097 -1.14167 -1.67249 0
M  V30 1741 C 180.425 0.311863 -1.91984 0
M  V30 1742 O 179.68 1.24425 -1.51053 0
M  V30 1743 C 179.979 -1.87407 -3.04325 0
M  V30 1744 C 179.645 -3.37249 -2.99289 0
M  V30 1745 C 178.307 -3.7812 -2.97622 0
M  V30 1746 C 180.659 -4.32845 -2.90336 0
M  V30 1747 C 177.987 -5.12944 -2.8479 0
M  V30 1748 C 180.339 -5.6773 -2.79045 0
M  V30 1749 C 179.003 -6.07889 -2.7573 0
M  V30 1750 H 178.273 -0.417766 -0.612007 0
M  V30 1751 H 180.92 -1.58286 -1.07786 0
M  V30 1752 H 179.225 -1.35805 -3.67511 0
M  V30 1753 H 180.922 -1.74408 -3.61086 0
M  V30 1754 H 177.512 -3.04748 -3.01374 0
M  V30 1755 H 181.696 -4.02239 -2.90719 0
M  V30 1756 H 176.952 -5.432 -2.80612 0
M  V30 1757 H 181.126 -6.41472 -2.71083 0
M  V30 1758 H 178.753 -7.12314 -2.65544 0
M  V30 1759 N 180.328 1.1314 -1.09713 0
M  V30 1760 C 181.739 1.66029 -0.853885 0
M  V30 1761 C 182.09 1.86241 0.617142 0
M  V30 1762 O 181.215 1.5834 1.47503 0
M  V30 1763 C 181.81 3.01599 -1.5435 0
M  V30 1764 C 180.369 3.51467 -1.34714 0
M  V30 1765 C 179.516 2.26648 -1.59769 0
M  V30 1766 H 182.467 0.970226 -1.25588 0
M  V30 1767 H 182.488 3.67709 -0.978267 0
M  V30 1768 H 182 2.86856 -2.6141 0
M  V30 1769 H 180.101 3.71408 -0.297838 0
M  V30 1770 H 180.214 4.314 -2.08401 0
M  V30 1771 H 178.578 2.33385 -1.01998 0
M  V30 1772 H 179.361 2.14467 -2.68065 0
M  V30 1773 N 181.806 0.884767 1.30421 0
M  V30 1774 C 182.716 0.355398 2.31892 0
M  V30 1775 C 183.732 -0.542261 1.65335 0
M  V30 1776 O 184.908 -0.435432 1.96637 0
M  V30 1777 C 181.973 -0.421661 3.44126 0
M  V30 1778 C 181.034 0.505727 4.26311 0
M  V30 1779 C 180.267 -0.234343 5.33185 0
M  V30 1780 O 180.49 -1.46045 5.51386 0
M  V30 1781 O 179.424 0.415443 6.00465 0
M  V30 1782 H 183.25 1.19685 2.79122 0
M  V30 1783 H 180.835 0.648596 1.34587 0
M  V30 1784 H 182.717 -0.861641 4.12497 0
M  V30 1785 H 181.392 -1.23942 2.99032 0
M  V30 1786 H 180.299 0.994513 3.60639 0
M  V30 1787 H 181.632 1.28948 4.75009 0
M  V30 1788 N 183.284 -1.43765 0.645699 0
M  V30 1789 C 184.7 -1.56509 0.312591 0
M  V30 1790 C 184.9 -1.6307 -1.18365 0
M  V30 1791 O 183.956 -1.58167 -1.96824 0
M  V30 1792 C 185.269 -2.82968 1.01733 0
M  V30 1793 C 186.817 -2.96701 0.996865 0
M  V30 1794 C 187.292 -4.25982 1.68236 0
M  V30 1795 N 188.783 -4.32829 1.64964 0
M  V30 1796 C 189.518 -5.31613 2.14885 0
M  V30 1797 N 189.014 -6.36718 2.73061 0
M  V30 1798 N 190.807 -5.23217 2.05428 0
M  V30 1799 H 182.958 -1.3775 1.61675 0
M  V30 1800 H 185.221 -0.661067 0.679481 0
M  V30 1801 H 184.927 -2.84156 2.0724 0
M  V30 1802 H 184.801 -3.72957 0.564177 0
M  V30 1803 H 187.188 -2.95058 -0.0497719 0
M  V30 1804 H 187.269 -2.08022 1.48865 0
M  V30 1805 H 186.913 -4.28386 2.72852 0
M  V30 1806 H 186.843 -5.13545 1.16529 0
M  V30 1807 H 189.334 -3.57493 1.22503 0
M  V30 1808 H 189.647 -7.08401 3.08848 0
M  V30 1809 H 187.992 -6.37362 2.77118 0
M  V30 1810 H 191.183 -4.40019 1.59689 0
M  V30 1811 H 191.356 -6.00045 2.44643 0
M  V30 1812 N 184.763 -0.387143 -1.52771 0
M  V30 1813 C 186.012 0.19697 -2.00736 0
M  V30 1814 C 186.325 1.48082 -1.27793 0
M  V30 1815 O 187.531 2.14485 -1.66458 0
M  V30 1816 C 185.987 0.401568 -3.57653 0
M  V30 1817 C 185.595 -0.868907 -4.39493 0
M  V30 1818 C 187.339 0.942164 -4.13912 0
M  V30 1819 C 185.246 -0.632705 -5.88006 0
M  V30 1820 H 184.176 0.0773827 -0.750019 0
M  V30 1821 H 186.827 -0.50921 -1.76293 0
M  V30 1822 H 185.209 1.16954 -3.78335 0
M  V30 1823 H 186.383 -1.64133 -4.30577 0
M  V30 1824 H 184.698 -1.33429 -3.94443 0
M  V30 1825 H 187.295 1.13455 -5.22525 0
M  V30 1826 H 187.638 1.9106 -3.69867 0
M  V30 1827 H 188.171 0.233814 -3.97112 0
M  V30 1828 H 184.91 -1.57208 -6.36369 0
M  V30 1829 H 184.43 0.100825 -5.99715 0
M  V30 1830 H 186.109 -0.26642 -6.46451 0
M  V30 1831 N 186.241 1.57166 -0.116904 0
M  V30 1832 C 187.466 1.999 0.55271 0
M  V30 1833 C 187.891 0.996039 1.59564 0
M  V30 1834 O 187.249 -0.032556 1.81271 0
M  V30 1835 C 187.297 3.4152 1.15742 0
M  V30 1836 O 186.401 3.44106 2.27299 0
M  V30 1837 H 185.742 0.649447 0.138258 0
M  V30 1838 H 188.272 2.03573 -0.204759 0
M  V30 1839 H 188.282 3.79684 1.49346 0
M  V30 1840 H 186.957 4.14034 0.393493 0
M  V30 1841 H 185.534 3.17759 1.9515 0
M  V30 1842 N 187.719 -0.156864 1.56817 0
M  V30 1843 C 188.651 -1.21883 1.94106 0
M  V30 1844 C 189.664 -1.3971 0.835754 0
M  V30 1845 O 190.853 -1.39457 1.11418 0
M  V30 1846 C 187.953 -2.58527 2.19127 0
M  V30 1847 C 187.126 -2.61809 3.50393 0
M  V30 1848 C 186.185 -3.7992 3.64071 0
M  V30 1849 O 185.211 -3.65249 4.36557 0
M  V30 1850 N 186.413 -4.96973 2.99997 0
M  V30 1851 H 189.178 -0.901974 2.85805 0
M  V30 1852 H 186.739 -0.346513 1.58148 0
M  V30 1853 H 188.731 -3.36034 2.25529 0
M  V30 1854 H 187.301 -2.82545 1.33742 0
M  V30 1855 H 186.521 -1.7029 3.5552 0
M  V30 1856 H 187.809 -2.61024 4.36742 0
M  V30 1857 H 187.207 -5.11794 2.41004 0
M  V30 1858 H 185.764 -5.7229 3.11974 0
M  V30 1859 N 189.197 -1.51736 -0.425897 0
M  V30 1860 C 190.445 -1.64644 -1.17204 0
M  V30 1861 C 190.766 -0.370486 -1.91448 0
M  V30 1862 O 190.036 0.614088 -1.86026 0
M  V30 1863 H 188.616 -0.606819 -0.435638 0
M  V30 1864 H 191.278 -1.88713 -0.487177 0
M  V30 1865 H 190.374 -2.47958 -1.89534 0
M  V30 1866 N 190.675 0.682077 -1.42076 0
M  V30 1867 C 191.9 1.47558 -1.45744 0
M  V30 1868 C 192.325 1.87977 -0.0680981 0
M  V30 1869 O 191.683 1.55522 0.9318 0
M  V30 1870 C 191.731 2.70575 -2.38373 0
M  V30 1871 O 190.835 3.68573 -1.85007 0
M  V30 1872 H 190.176 0.443585 -0.494093 0
M  V30 1873 H 192.706 0.837238 -1.86686 0
M  V30 1874 H 192.716 3.18729 -2.54707 0
M  V30 1875 H 191.391 2.40495 -3.39315 0
M  V30 1876 H 189.968 3.2757 -1.78192 0
M  V30 1877 N 192.153 1.28127 0.917671 0
M  V30 1878 C 193.378 1.18007 1.70555 0
M  V30 1879 C 193.803 -0.258257 1.86319 0
M  V30 1880 O 193.161 -1.1869 1.37049 0
M  V30 1881 C 193.209 1.87948 3.07746 0
M  V30 1882 O 192.313 1.18427 3.9503 0
M  V30 1883 H 191.654 0.409867 0.522403 0
M  V30 1884 H 194.184 1.69379 1.1477 0
M  V30 1885 H 194.194 1.95701 3.58001 0
M  V30 1886 H 192.869 2.92573 2.95591 0
M  V30 1887 H 191.446 1.18811 3.53466 0
M  V30 1888 N 193.631 -1.12557 1.10312 0
M  V30 1889 C 194.879 -1.83675 0.843091 0
M  V30 1890 C 195.2 -1.84435 -0.633131 0
M  V30 1891 O 194.47 -1.30657 -1.45964 0
M  V30 1892 H 193.05 -0.680138 0.308904 0
M  V30 1893 H 195.712 -1.36301 1.39313 0
M  V30 1894 H 194.808 -2.87908 1.2048 0
M  V30 1895 N 195.109 -0.891671 -1.2995 0
M  V30 1896 C 196.334 -0.527932 -2.00568 0
M  V30 1897 C 196.759 0.877969 -1.66353 0
M  V30 1898 O 196.117 1.58301 -0.883762 0
M  V30 1899 C 196.165 -0.717745 -3.53385 0
M  V30 1900 O 195.269 0.233376 -4.11739 0
M  V30 1901 H 194.61 -0.20722 -0.630837 0
M  V30 1902 H 197.14 -1.20105 -1.65638 0
M  V30 1903 H 197.15 -0.619307 -4.03272 0
M  V30 1904 H 195.825 -1.74276 -3.77625 0
M  V30 1905 H 194.402 0.0880706 -3.72796 0
M  V30 1906 N 196.587 1.43421 -0.653314 0
M  V30 1907 C 197.817 2.05864 -0.174238 0
M  V30 1908 C 198.225 1.49052 1.16534 0
M  V30 1909 O 197.568 0.616481 1.73047 0
M  V30 1910 C 197.63 3.59499 -0.00875873 0
M  V30 1911 C 197.294 4.38893 -1.27364 0
M  V30 1912 C 198.291 4.70947 -2.20239 0
M  V30 1913 C 195.976 4.789 -1.51525 0
M  V30 1914 C 197.97 5.41916 -3.35568 0
M  V30 1915 C 195.657 5.49614 -2.67147 0
M  V30 1916 C 196.655 5.81044 -3.58994 0
M  V30 1917 O 196.343 6.50313 -4.72597 0
M  V30 1918 H 196.075 0.670345 -0.0872549 0
M  V30 1919 H 198.629 1.84913 -0.894226 0
M  V30 1920 H 196.859 3.79025 0.7666 0
M  V30 1921 H 198.548 4.0364 0.427687 0
M  V30 1922 H 199.314 4.40558 -2.02815 0
M  V30 1923 H 195.193 4.53843 -0.809158 0
M  V30 1924 H 198.737 5.66365 -4.07279 0
M  V30 1925 H 194.634 5.79419 -2.84505 0
M  V30 1926 H 195.402 6.68795 -4.71864 0
M  V30 1927 N 198.065 0.39524 1.52563 0
M  V30 1928 C 199.312 -0.185044 2.01653 0
M  V30 1929 C 199.64 -1.46317 1.28146 0
M  V30 1930 O 198.895 -1.9213 0.372074 0
M  V30 1931 C 199.194 -0.493444 3.53977 0
M  V30 1932 C 198.86 0.69384 4.4553 0
M  V30 1933 C 197.522 1.01954 4.70275 0
M  V30 1934 C 199.874 1.48785 4.99512 0
M  V30 1935 C 197.202 2.14069 5.46252 0
M  V30 1936 C 199.554 2.59965 5.76716 0
M  V30 1937 C 198.218 2.93037 5.99738 0
M  V30 1938 H 197.488 -0.0677123 0.7379 0
M  V30 1939 H 200.135 0.533807 1.8391 0
M  V30 1940 H 198.44 -1.29369 3.69825 0
M  V30 1941 H 200.137 -0.955163 3.89458 0
M  V30 1942 H 196.727 0.429987 4.26438 0
M  V30 1943 H 200.911 1.24946 4.80315 0
M  V30 1944 H 196.167 2.40056 5.62302 0
M  V30 1945 H 200.341 3.21887 6.17545 0
M  V30 1946 H 197.968 3.8003 6.58393 0
M  V30 1947 N 199.544 -1.57102 0.125237 0
M  V30 1948 C 200.79 -1.95697 -0.532035 0
M  V30 1949 C 201.123 -1.009 -1.6593 0
M  V30 1950 O 200.398 -0.047347 -1.94442 0
M  V30 1951 C 200.681 -3.44181 -1.05884 0
M  V30 1952 C 200.534 -4.49752 0.0654392 0
M  V30 1953 C 201.853 -3.94655 -1.9477 0
M  V30 1954 H 198.972 -0.711571 -0.191925 0
M  V30 1955 H 201.614 -1.88923 0.20206 0
M  V30 1956 H 199.764 -3.50085 -1.68442 0
M  V30 1957 H 201.436 -4.55943 0.700982 0
M  V30 1958 H 199.679 -4.27653 0.727709 0
M  V30 1959 H 200.35 -5.50924 -0.344505 0
M  V30 1960 H 202.826 -3.91094 -1.42074 0
M  V30 1961 H 201.702 -4.99057 -2.28546 0
M  V30 1962 H 201.963 -3.35718 -2.87656 0
M  V30 1963 N 201.022 0.148545 -1.56898 0
M  V30 1964 C 201.969 1.18345 -1.98149 0
M  V30 1965 C 202.939 1.42772 -0.848848 0
M  V30 1966 O 204.124 1.55132 -1.11079 0
M  V30 1967 C 201.264 2.51231 -2.36594 0
M  V30 1968 C 200.377 2.33991 -3.63142 0
M  V30 1969 C 199.512 3.59902 -3.90697 0
M  V30 1970 C 198.551 3.37692 -5.1052 0
M  V30 1971 N 197.688 4.5573 -5.34092 0
M  V30 1972 H 202.528 0.82467 -2.86362 0
M  V30 1973 H 200.065 0.395756 -1.41676 0
M  V30 1974 H 202.023 3.28713 -2.56912 0
M  V30 1975 H 200.653 2.85059 -1.51463 0
M  V30 1976 H 199.705 1.47572 -3.50609 0
M  V30 1977 H 201.017 2.13539 -4.5078 0
M  V30 1978 H 200.171 4.45813 -4.11505 0
M  V30 1979 H 198.91 3.83357 -3.01477 0
M  V30 1980 H 197.915 2.5017 -4.89587 0
M  V30 1981 H 199.14 3.15637 -6.0129 0
M  V30 1982 H 197.086 4.79361 -4.47827 0
M  V30 1983 H 197.003 4.38274 -6.15996 0
M  V30 1984 H 198.271 5.42858 -5.59397 0
M  V30 1985 N 202.5 1.5196 0.417844 0
M  V30 1986 C 203.777 1.56146 1.17803 0
M  V30 1987 C 204.157 0.337275 2.08388 0
M  V30 1988 O 203.505 -0.676447 2.18258 0
M  V30 1989 C 203.715 2.88566 1.96293 0
M  V30 1990 C 205.063 3.41244 2.52662 0
M  V30 1991 O 206.087 2.90247 2.06483 0
M  V30 1992 O 204.946 4.30273 3.36938 0
M  V30 1993 H 202.04 0.628598 0.537395 0
M  V30 1994 H 204.586 1.64283 0.425331 0
M  V30 1995 H 203.358 3.69116 1.2988 0
M  V30 1996 H 202.981 2.83681 2.78587 0
M  V30 1997 N 203.978 -0.674533 1.42435 0
M  V30 1998 C 205.389 -1.25514 1.38214 0
M  V30 1999 C 205.74 -1.96055 0.0755464 0
M  V30 2000 O 204.865 -2.00028 -0.8257 0
M  V30 2001 C 205.46 -2.28269 2.50357 0
M  V30 2002 C 204.019 -2.81856 2.49467 0
M  V30 2003 C 203.166 -1.56182 2.29134 0
M  V30 2004 H 206.117 -0.467902 1.51646 0
M  V30 2005 H 206.138 -3.10009 2.20624 0
M  V30 2006 H 205.65 -1.769 3.45439 0
M  V30 2007 H 203.751 -3.37346 1.58204 0
M  V30 2008 H 203.864 -3.30854 3.46515 0
M  V30 2009 H 202.228 -1.82761 1.774 0
M  V30 2010 H 203.011 -1.06778 3.26272 0
M  V30 2011 N 205.456 -1.28612 -0.910864 0
M  V30 2012 C 206.403 -1.12786 -2.01365 0
M  V30 2013 C 207.373 -0.024201 -1.66082 0
M  V30 2014 O 208.558 -0.189667 -1.89855 0
M  V30 2015 C 205.698 -0.798743 -3.35729 0
M  V30 2016 C 204.811 -1.98173 -3.83864 0
M  V30 2017 C 203.946 -1.59298 -5.06752 0
M  V30 2018 C 202.985 -2.74245 -5.47226 0
M  V30 2019 N 202.122 -2.35842 -6.61304 0
M  V30 2020 H 206.962 -2.07142 -2.14234 0
M  V30 2021 H 204.499 -1.03093 -1.0493 0
M  V30 2022 H 206.457 -0.588662 -4.13026 0
M  V30 2023 H 205.087 0.10789 -3.2262 0
M  V30 2024 H 204.139 -2.30386 -3.02699 0
M  V30 2025 H 205.451 -2.84343 -4.09818 0
M  V30 2026 H 204.605 -1.34513 -5.916 0
M  V30 2027 H 203.344 -0.702618 -4.82612 0
M  V30 2028 H 202.349 -2.99725 -4.60918 0
M  V30 2029 H 203.574 -3.63928 -5.73353 0
M  V30 2030 H 201.52 -1.49279 -6.38789 0
M  V30 2031 H 201.437 -3.15546 -6.86998 0
M  V30 2032 H 202.705 -2.14348 -7.4945 0
M  V30 2033 N 206.934 1.1197 -1.10907 0
M  V30 2034 C 208.35 1.35591 -0.841852 0
M  V30 2035 C 208.55 1.94233 0.536246 0
M  V30 2036 O 207.606 2.1717 1.28816 0
M  V30 2037 C 208.919 2.29284 -1.94549 0
M  V30 2038 C 210.467 2.42862 -1.97451 0
M  V30 2039 C 210.942 3.39873 -3.07002 0
M  V30 2040 N 212.433 3.47433 -3.06341 0
M  V30 2041 C 213.168 4.22421 -3.87748 0
M  V30 2042 N 212.664 5.00432 -4.79103 0
M  V30 2043 N 214.457 4.17876 -3.75946 0
M  V30 2044 H 206.608 0.722664 -1.99728 0
M  V30 2045 H 208.871 0.380635 -0.868229 0
M  V30 2046 H 208.577 1.93378 -2.93765 0
M  V30 2047 H 208.451 3.29452 -1.83688 0
M  V30 2048 H 210.838 2.78046 -0.988645 0
M  V30 2049 H 210.919 1.42566 -2.12388 0
M  V30 2050 H 210.563 3.05417 -4.05811 0
M  V30 2051 H 210.493 4.40011 -2.89306 0
M  V30 2052 H 212.984 2.91784 -2.40147 0
M  V30 2053 H 213.297 5.55002 -5.37766 0
M  V30 2054 H 211.642 4.99612 -4.83128 0
M  V30 2055 H 214.833 3.56016 -3.03924 0
M  V30 2056 H 215.006 4.76061 -4.39624 0
M  V30 2057 N 208.412 0.89855 1.29475 0
M  V30 2058 C 209.359 0.373819 2.27753 0
M  V30 2059 C 210.329 -0.543444 1.56958 0
M  V30 2060 O 211.514 -0.468934 1.84948 0
M  V30 2061 C 208.654 -0.393648 3.42848 0
M  V30 2062 C 207.767 0.554379 4.28428 0
M  V30 2063 C 206.902 -0.230026 5.30702 0
M  V30 2064 C 205.941 0.712599 6.07938 0
M  V30 2065 N 205.078 -0.0373283 7.0209 0
M  V30 2066 H 209.918 1.21699 2.72017 0
M  V30 2067 H 207.455 0.611456 1.33789 0
M  V30 2068 H 209.413 -0.85466 4.08352 0
M  V30 2069 H 208.043 -1.20128 2.99615 0
M  V30 2070 H 207.095 1.13391 3.63107 0
M  V30 2071 H 208.407 1.27597 4.82204 0
M  V30 2072 H 207.561 -0.752288 6.02018 0
M  V30 2073 H 206.3 -0.984758 4.77654 0
M  V30 2074 H 205.305 1.24637 5.35486 0
M  V30 2075 H 206.53 1.46664 6.63074 0
M  V30 2076 H 204.476 -0.774348 6.51414 0
M  V30 2077 H 204.393 0.624374 7.53417 0
M  V30 2078 H 205.661 -0.539891 7.77628 0
M  V30 2079 N 209.89 -1.43072 0.660911 0
M  V30 2080 C 211.139 -2.00942 0.174735 0
M  V30 2081 C 211.452 -1.52797 -1.22117 0
M  V30 2082 O 212.658 -2.02991 -1.80297 0
M  V30 2083 C 211.114 -3.58948 0.261559 0
M  V30 2084 C 210.722 -4.16085 1.66064 0
M  V30 2085 C 212.466 -4.24173 -0.166617 0
M  V30 2086 C 210.373 -5.6641 1.70098 0
M  V30 2087 H 209.303 -0.751483 0.0615631 0
M  V30 2088 H 211.954 -1.63955 0.824069 0
M  V30 2089 H 210.336 -3.93372 -0.455421 0
M  V30 2090 H 211.51 -3.93147 2.40359 0
M  V30 2091 H 209.825 -3.6326 2.03546 0
M  V30 2092 H 212.422 -5.34471 -0.156433 0
M  V30 2093 H 212.765 -3.98647 -1.19943 0
M  V30 2094 H 213.298 -3.94659 0.498875 0
M  V30 2095 H 210.037 -5.96715 2.71315 0
M  V30 2096 H 209.557 -5.91382 1.00139 0
M  V30 2097 H 211.236 -6.30585 1.44816 0
M  V30 2098 N 211.368 -0.403325 -1.52352 0
M  V30 2099 C 212.617 0.175668 -2.00934 0
M  V30 2100 C 212.93 1.46718 -1.29356 0
M  V30 2101 O 214.136 2.12708 -1.68724 0
M  V30 2102 C 212.592 0.363612 -3.58058 0
M  V30 2103 C 212.2 -0.915472 -4.38547 0
M  V30 2104 C 213.944 0.89821 -4.14888 0
M  V30 2105 C 211.851 -0.695035 -5.87302 0
M  V30 2106 H 210.781 0.0694234 -0.750797 0
M  V30 2107 H 213.432 -0.527879 -1.75743 0
M  V30 2108 H 211.814 1.12935 -3.79555 0
M  V30 2109 H 212.988 -1.68691 -4.28812 0
M  V30 2110 H 211.303 -1.37606 -3.93006 0
M  V30 2111 H 213.9 1.07907 -5.23699 0
M  V30 2112 H 214.243 1.87126 -3.71873 0
M  V30 2113 H 214.776 0.191681 -3.97338 0
M  V30 2114 H 211.515 -1.63948 -6.34666 0
M  V30 2115 H 211.035 0.0372116 -5.99788 0
M  V30 2116 H 212.714 -0.33497 -6.46132 0
M  V30 2117 N 212.846 1.57033 -0.133567 0
M  V30 2118 C 214.094 1.953 0.519848 0
M  V30 2119 C 214.415 1.01866 1.66278 0
M  V30 2120 O 213.685 0.0776513 1.95746 0
M  V30 2121 H 212.265 0.721091 0.195032 0
M  V30 2122 H 214.927 1.93809 -0.205921 0
M  V30 2123 H 214.023 2.98695 0.904854 0
M  V30 2124 N 214.325 -0.140222 1.56975 0
M  V30 2125 C 215.571 -0.852949 1.83991 0
M  V30 2126 C 215.904 -1.80512 0.716187 0
M  V30 2127 O 215.179 -1.92479 -0.279681 0
M  V30 2128 C 215.462 -1.6215 3.21527 0
M  V30 2129 C 215.315 -0.690363 4.4447 0
M  V30 2130 C 216.634 -2.58247 3.56366 0
M  V30 2131 H 213.753 -0.308634 0.669264 0
M  V30 2132 H 216.395 -0.117898 1.89634 0
M  V30 2133 H 214.545 -2.24812 3.16847 0
M  V30 2134 H 216.217 -0.0742264 4.6124 0
M  V30 2135 H 214.46 -0.000396433 4.338 0
M  V30 2136 H 215.131 -1.2643 5.37326 0
M  V30 2137 H 217.607 -2.05701 3.61699 0
M  V30 2138 H 216.483 -3.09067 4.53617 0
M  V30 2139 H 216.744 -3.39923 2.82674 0
M  V30 2140 N 215.803 -1.52179 -0.40978 0
M  V30 2141 C 217.05 -1.66206 -1.15679 0
M  V30 2142 C 217.378 -0.391674 -1.90516 0
M  V30 2143 O 216.633 0.62533 -1.8544 0
M  V30 2144 C 216.932 -2.83428 -2.17723 0
M  V30 2145 C 216.598 -4.21672 -1.59699 0
M  V30 2146 C 215.26 -4.59274 -1.43599 0
M  V30 2147 C 217.612 -5.07825 -1.17317 0
M  V30 2148 C 214.94 -5.80709 -0.836328 0
M  V30 2149 C 217.292 -6.29864 -0.587691 0
M  V30 2150 C 215.956 -6.66216 -0.413818 0
M  V30 2151 H 215.226 -0.608192 -0.423301 0
M  V30 2152 H 217.873 -1.86279 -0.444097 0
M  V30 2153 H 216.178 -2.57687 -2.95135 0
M  V30 2154 H 217.875 -2.91477 -2.75394 0
M  V30 2155 H 214.465 -3.9204 -1.73213 0
M  V30 2156 H 218.649 -4.79359 -1.28565 0
M  V30 2157 H 213.905 -6.07498 -0.689626 0
M  V30 2158 H 218.079 -6.95948 -0.250894 0
M  V30 2159 H 215.706 -7.60182 0.0529471 0
M  V30 2160 N 217.281 0.66697 -1.42791 0
M  V30 2161 C 218.228 1.7803 -1.4688 0
M  V30 2162 C 219.198 1.6299 -0.319919 0
M  V30 2163 O 220.383 1.83432 -0.525118 0
M  V30 2164 C 217.523 3.1611 -1.38451 0
M  V30 2165 C 216.636 3.42381 -2.63437 0
M  V30 2166 C 215.771 4.70232 -2.47094 0
M  V30 2167 C 214.81 4.89564 -3.67415 0
M  V30 2168 N 213.947 6.08661 -3.49966 0
M  V30 2169 H 218.787 1.7387 -2.42019 0
M  V30 2170 H 216.324 0.84868 -1.20149 0
M  V30 2171 H 218.282 3.95914 -1.31561 0
M  V30 2172 H 216.912 3.19374 -0.469033 0
M  V30 2173 H 215.964 2.56774 -2.80662 0
M  V30 2174 H 217.276 3.52557 -3.52853 0
M  V30 2175 H 216.43 5.5814 -2.37834 0
M  V30 2176 H 215.169 4.62353 -1.5518 0
M  V30 2177 H 214.174 4.00096 -3.77099 0
M  V30 2178 H 215.399 4.99282 -4.6032 0
M  V30 2179 H 213.345 6.0194 -2.60776 0
M  V30 2180 H 213.262 6.19733 -4.32975 0
M  V30 2181 H 214.53 6.99226 -3.44532 0
M  V30 2182 N 218.759 1.29093 0.90403 0
M  V30 2183 C 220.17 1.15186 1.46932 0
M  V30 2184 C 220.521 -0.254587 1.94541 0
M  V30 2185 O 219.646 -1.14972 1.83332 0
M  V30 2186 C 220.241 2.08492 2.67051 0
M  V30 2187 C 218.8 1.98621 3.19729 0
M  V30 2188 C 217.947 1.9967 1.92425 0
M  V30 2189 H 220.898 1.41641 0.715789 0
M  V30 2190 H 220.919 1.65461 3.42641 0
M  V30 2191 H 220.431 3.10847 2.3237 0
M  V30 2192 H 218.532 0.993389 3.59114 0
M  V30 2193 H 218.645 2.86068 3.8432 0
M  V30 2194 H 217.009 1.44208 2.09943 0
M  V30 2195 H 217.792 3.03721 1.60026 0
M  V30 2196 N 220.237 -1.11381 1.11499 0
M  V30 2197 C 221.184 -2.17439 0.773887 0
M  V30 2198 C 222.154 -1.64132 -0.254899 0
M  V30 2199 O 223.339 -1.90345 -0.13168 0
M  V30 2200 C 220.479 -3.44373 0.223917 0
M  V30 2201 C 219.592 -4.1168 1.30934 0
M  V30 2202 C 218.727 -5.263 0.71984 0
M  V30 2203 C 217.766 -5.85493 1.78507 0
M  V30 2204 N 216.903 -6.91507 1.21502 0
M  V30 2205 H 221.743 -2.45962 1.68246 0
M  V30 2206 H 219.28 -1.20744 0.840191 0
M  V30 2207 H 221.238 -4.17047 -0.112921 0
M  V30 2208 H 219.868 -3.16232 -0.647851 0
M  V30 2209 H 218.92 -3.37073 1.76312 0
M  V30 2210 H 220.232 -4.51729 2.11524 0
M  V30 2211 H 219.386 -6.05785 0.333094 0
M  V30 2212 H 218.125 -4.87559 -0.117377 0
M  V30 2213 H 217.13 -5.04686 2.18111 0
M  V30 2214 H 218.355 -6.26301 2.62533 0
M  V30 2215 H 216.301 -6.54783 0.399455 0
M  V30 2216 H 216.218 -7.30214 1.95763 0
M  V30 2217 H 217.486 -7.74795 0.855181 0
M  V30 2218 N 221.715 -0.905404 -1.28997 0
M  V30 2219 C 222.94 -0.549175 -1.99997 0
M  V30 2220 C 223.365 0.860276 -1.67275 0
M  V30 2221 O 222.723 1.57355 -0.900502 0
M  V30 2222 C 222.771 -0.755185 -3.52604 0
M  V30 2223 O 221.875 0.189692 -4.11964 0
M  V30 2224 H 221.216 -0.213899 -0.628604 0
M  V30 2225 H 223.746 -1.21856 -1.64354 0
M  V30 2226 H 223.756 -0.662045 -4.02593 0
M  V30 2227 H 222.431 -1.78271 -3.75755 0
M  V30 2228 H 221.008 0.0485257 -3.72868 0
M  V30 2229 N 223.193 1.4272 -0.668489 0
M  V30 2230 C 224.103 2.34596 0.0139753 0
M  V30 2231 C 225.119 1.5474 0.795703 0
M  V30 2232 O 226.295 1.87334 0.739466 0
M  V30 2233 C 223.36 3.33202 0.957982 0
M  V30 2234 C 222.421 4.28957 0.17149 0
M  V30 2235 C 221.654 5.22853 1.07053 0
M  V30 2236 O 221.877 5.21531 2.31001 0
M  V30 2237 O 220.811 5.9952 0.534727 0
M  V30 2238 H 224.637 2.9448 -0.742661 0
M  V30 2239 H 222.222 1.43117 -0.428705 0
M  V30 2240 H 224.104 3.93796 1.50008 0
M  V30 2241 H 222.779 2.758 1.69458 0
M  V30 2242 H 221.686 3.71796 -0.414558 0
M  V30 2243 H 223.019 4.89383 -0.52586 0
M  V30 2244 N 224.671 0.411399 1.52136 0
M  V30 2245 C 225.581 -0.419774 2.30814 0
M  V30 2246 C 226.597 -1.0515 1.38634 0
M  V30 2247 O 227.773 -1.05252 1.71709 0
M  V30 2248 C 224.838 -1.52019 3.11594 0
M  V30 2249 C 223.899 -0.91129 4.19516 0
M  V30 2250 C 223.132 -1.95927 4.96436 0
M  V30 2251 O 223.355 -3.17775 4.73683 0
M  V30 2252 O 222.289 -1.56423 5.81219 0
M  V30 2253 H 226.115 0.221805 3.02889 0
M  V30 2254 H 223.7 0.174547 1.48377 0
M  V30 2255 H 225.582 -2.15898 3.61892 0
M  V30 2256 H 224.257 -2.14633 2.42311 0
M  V30 2257 H 223.164 -0.235157 3.7336 0
M  V30 2258 H 224.497 -0.32904 4.91099 0
M  V30 2259 N 226.149 -1.5696 0.141893 0
M  V30 2260 C 227.56 -1.82797 -0.379776 0
M  V30 2261 C 227.911 -1.06033 -1.6508 0
M  V30 2262 O 227.036 -0.304011 -2.14254 0
M  V30 2263 C 227.631 -3.31578 -0.695802 0
M  V30 2264 C 226.19 -3.58014 -1.16201 0
M  V30 2265 C 225.337 -2.76699 -0.182455 0
M  V30 2266 H 228.288 -1.54406 0.366675 0
M  V30 2267 H 228.309 -3.47454 -1.55099 0
M  V30 2268 H 227.821 -3.87421 0.229449 0
M  V30 2269 H 225.922 -3.07553 -2.10338 0
M  V30 2270 H 226.035 -4.66501 -1.09151 0
M  V30 2271 H 224.399 -2.45618 -0.674072 0
M  V30 2272 H 225.182 -3.35311 0.736297 0
M  V30 2273 N 227.627 0.131896 -1.57047 0
M  V30 2274 C 228.857 0.855219 -1.88068 0
M  V30 2275 C 229.265 1.74557 -0.729817 0
M  V30 2276 O 228.608 1.81083 0.308962 0
M  V30 2277 C 228.67 1.75119 -3.13964 0
M  V30 2278 C 228.334 1.03646 -4.45091 0
M  V30 2279 C 229.331 0.383276 -5.18485 0
M  V30 2280 C 227.016 1.02148 -4.91804 0
M  V30 2281 C 229.01 -0.275347 -6.36805 0
M  V30 2282 C 226.697 0.359047 -6.10044 0
M  V30 2283 C 227.695 -0.288222 -6.82392 0
M  V30 2284 O 227.383 -0.94011 -7.98384 0
M  V30 2285 H 227.115 0.251864 -0.627328 0
M  V30 2286 H 229.669 0.124782 -2.05021 0
M  V30 2287 H 227.899 2.52295 -2.9306 0
M  V30 2288 H 229.588 2.3478 -3.31109 0
M  V30 2289 H 230.354 0.386562 -4.83457 0
M  V30 2290 H 226.233 1.5147 -4.35405 0
M  V30 2291 H 229.777 -0.781148 -6.93213 0
M  V30 2292 H 225.674 0.35348 -6.44531 0
M  V30 2293 H 226.442 -0.84329 -8.14144 0
M  V30 2294 N 229.106 1.52395 0.401703 0
M  V30 2295 C 230.354 1.66488 1.14569 0
M  V30 2296 C 230.675 0.400897 1.90835 0
M  V30 2297 O 229.945 -0.584415 1.8698 0
M  V30 2298 H 228.525 0.613672 0.425929 0
M  V30 2299 H 231.187 1.89464 0.457093 0
M  V30 2300 H 230.283 2.50942 1.85566 0
M  V30 2301 N 230.584 -0.659388 1.43143 0
M  V30 2302 C 231.516 -1.7849 1.43784 0
M  V30 2303 C 232.529 -1.5932 0.334787 0
M  V30 2304 O 233.718 -1.68155 0.598842 0
M  V30 2305 C 230.818 -3.15828 1.22906 0
M  V30 2306 C 229.991 -3.61711 2.45934 0
M  V30 2307 C 229.05 -4.77831 2.20371 0
M  V30 2308 O 228.076 -4.87586 2.93681 0
M  V30 2309 N 229.278 -5.67611 1.21647 0
M  V30 2310 H 232.043 -1.7842 2.40803 0
M  V30 2311 H 229.604 -0.84302 1.3822 0
M  V30 2312 H 231.596 -3.91189 1.03697 0
M  V30 2313 H 230.166 -3.10707 0.343542 0
M  V30 2314 H 229.386 -2.76861 2.80609 0
M  V30 2315 H 230.674 -3.89112 3.27825 0
M  V30 2316 H 230.072 -5.62397 0.610449 0
M  V30 2317 H 228.629 -6.42719 1.08423 0
M  V30 2318 N 232.062 -1.29571 -0.897171 0
M  V30 2319 C 232.992 -1.17473 -2.01798 0
M  V30 2320 C 233.973 -0.068323 -1.69963 0
M  V30 2321 O 235.158 -0.248239 -1.92607 0
M  V30 2322 C 232.288 -0.853099 -3.36659 0
M  V30 2323 C 231.242 -1.9161 -3.82713 0
M  V30 2324 C 230.568 -1.44773 -5.14728 0
M  V30 2325 C 231.868 -3.32535 -4.02763 0
M  V30 2326 H 233.562 -2.11237 -2.12177 0
M  V30 2327 H 231.108 -1.01699 -1.01948 0
M  V30 2328 H 233.061 -0.755165 -4.14578 0
M  V30 2329 H 231.785 0.120236 -3.26379 0
M  V30 2330 H 230.444 -2.00346 -3.07013 0
M  V30 2331 H 230.092 -0.462995 -5.00865 0
M  V30 2332 H 229.792 -2.15865 -5.46513 0
M  V30 2333 H 231.316 -1.36334 -5.95185 0
M  V30 2334 H 232.73 -3.26626 -4.71156 0
M  V30 2335 H 231.127 -4.01607 -4.45905 0
M  V30 2336 H 232.197 -3.75326 -3.07016 0
M  V30 2337 N 233.54 1.10788 -1.12088 0
M  V30 2338 C 234.488 2.19111 -0.780587 0
M  V30 2339 C 235.482 1.67818 0.230961 0
M  V30 2340 O 236.688 1.79777 0.0895427 0
M  V30 2341 H 233.063 0.714477 -0.234578 0
M  V30 2342 H 235.034 2.45055 -1.70266 0
M  V30 2343 C 233.783 3.46818 -0.24747 0
M  V30 2344 H 233.106 3.86646 -1.01712 0
M  V30 2345 H 234.546 4.23973 -0.0476291 0
M  V30 2346 C 233.005 3.20968 1.02378 0
M  V30 2347 O 233.535 3.42298 2.10226 0
M  V30 2348 N 231.741 2.74658 0.949271 0
M  V30 2349 H 231.288 2.57501 0.0715173 0
M  V30 2350 H 231.246 2.57739 1.80049 0
M  V30 2351 N 235.018 0.912232 1.28515 0
M  V30 2352 C 236.429 0.591352 1.77087 0
M  V30 2353 C 236.78 -0.8933 1.74684 0
M  V30 2354 O 235.905 -1.69876 1.34056 0
M  V30 2355 C 236.5 1.06668 3.2157 0
M  V30 2356 C 235.059 0.79675 3.67871 0
M  V30 2357 C 234.206 1.23427 2.48316 0
M  V30 2358 H 237.157 1.09365 1.15 0
M  V30 2359 H 237.178 0.407455 3.78312 0
M  V30 2360 H 236.69 2.14726 3.23287 0
M  V30 2361 H 234.791 -0.270679 3.71616 0
M  V30 2362 H 234.904 1.40343 4.58084 0
M  V30 2363 H 233.268 0.653036 2.46186 0
M  V30 2364 H 234.051 2.32316 2.52753 0
M  V30 2365 N 236.496 -1.42363 0.676048 0
M  V30 2366 C 237.443 -2.308 -0.00150904 0
M  V30 2367 C 238.413 -1.46032 -0.791444 0
M  V30 2368 O 239.598 -1.74861 -0.76344 0
M  V30 2369 C 236.738 -3.31883 -0.945919 0
M  V30 2370 C 235.851 -4.31741 -0.149675 0
M  V30 2371 C 234.986 -5.19898 -1.08995 0
M  V30 2372 C 234.025 -6.11434 -0.285465 0
M  V30 2373 N 233.162 -6.92138 -1.17851 0
M  V30 2374 H 238.002 -2.88187 0.758455 0
M  V30 2375 H 235.539 -1.41952 0.38576 0
M  V30 2376 H 237.497 -3.89019 -1.50731 0
M  V30 2377 H 236.127 -2.76093 -1.6725 0
M  V30 2378 H 235.179 -3.76713 0.528359 0
M  V30 2379 H 236.491 -4.96534 0.474866 0
M  V30 2380 H 235.645 -5.81772 -1.72123 0
M  V30 2381 H 234.384 -4.55284 -1.74837 0
M  V30 2382 H 233.389 -5.48627 0.359018 0
M  V30 2383 H 234.614 -6.78097 0.368883 0
M  V30 2384 H 232.56 -6.30152 -1.82332 0
M  V30 2385 H 232.477 -7.53542 -0.609082 0
M  V30 2386 H 233.745 -7.58499 -1.79722 0
M  V30 2387 N 237.974 -0.419461 -1.51915 0
M  V30 2388 C 239.22 0.145505 -2.02879 0
M  V30 2389 C 239.575 1.41926 -1.29903 0
M  V30 2390 O 238.868 1.87383 -0.399782 0
M  V30 2391 C 239.062 0.437067 -3.54717 0
M  V30 2392 C 238.891 -0.806877 -4.42402 0
M  V30 2393 C 237.661 -1.33514 -4.87342 0
M  V30 2394 C 239.859 -1.68796 -4.85811 0
M  V30 2395 N 237.841 -2.53349 -5.59185 0
M  V30 2396 C 239.212 -2.73247 -5.56539 0
M  V30 2397 C 241.267 -1.70449 -4.67816 0
M  V30 2398 C 239.97 -3.79276 -6.11181 0
M  V30 2399 C 241.996 -2.75403 -5.23361 0
M  V30 2400 C 241.358 -3.78575 -5.9402 0
M  V30 2401 H 237.457 0.0145424 -0.781865 0
M  V30 2402 H 240.041 -0.576126 -1.85981 0
M  V30 2403 H 238.212 1.12774 -3.71667 0
M  V30 2404 H 239.944 0.99182 -3.92358 0
M  V30 2405 H 236.699 -0.891657 -4.65131 0
M  V30 2406 H 237.123 -3.14066 -5.99743 0
M  V30 2407 H 241.765 -0.920209 -4.12664 0
M  V30 2408 H 239.483 -4.58554 -6.65397 0
M  V30 2409 H 243.069 -2.77603 -5.113 0
M  V30 2410 H 241.949 -4.58453 -6.36231 0
M  V30 2411 N 239.452 1.56882 -0.150215 0
M  V30 2412 C 240.68 2.00593 0.506948 0
M  V30 2413 C 241.095 1.03033 1.58208 0
M  V30 2414 O 240.452 0.0278396 1.82479 0
M  V30 2415 C 240.503 3.44209 1.10465 0
M  V30 2416 O 240.224 4.3804 0.0724636 0
M  V30 2417 C 241.725 4.03214 1.84211 0
M  V30 2418 H 238.945 0.65795 0.13169 0
M  V30 2419 H 241.489 2.03018 -0.245743 0
M  V30 2420 H 239.644 3.42625 1.80795 0
M  V30 2421 H 240.058 5.22007 0.510793 0
M  V30 2422 H 241.532 5.0569 2.21318 0
M  V30 2423 H 242.009 3.44107 2.72923 0
M  V30 2424 H 242.615 4.08437 1.18572 0
M  V30 2425 N 240.93 -0.123565 1.57115 0
M  V30 2426 C 241.877 -1.15177 2.00007 0
M  V30 2427 C 242.847 -1.41403 0.871454 0
M  V30 2428 O 244.032 -1.53346 1.13533 0
M  V30 2429 C 241.172 -2.47436 2.40561 0
M  V30 2430 C 240.285 -2.28184 3.66819 0
M  V30 2431 C 239.42 -3.53641 3.96373 0
M  V30 2432 C 238.459 -3.29528 5.15827 0
M  V30 2433 N 237.596 -4.47175 5.41275 0
M  V30 2434 H 242.436 -0.779008 2.87638 0
M  V30 2435 H 239.973 -0.373166 1.42288 0
M  V30 2436 H 241.931 -3.24584 2.62109 0
M  V30 2437 H 240.561 -2.82614 1.55978 0
M  V30 2438 H 239.613 -1.41976 3.52912 0
M  V30 2439 H 240.925 -2.0634 4.5412 0
M  V30 2440 H 240.079 -4.39209 4.18545 0
M  V30 2441 H 238.818 -3.78512 3.07538 0
M  V30 2442 H 237.823 -2.42349 4.93505 0
M  V30 2443 H 239.048 -3.06031 6.06236 0
M  V30 2444 H 236.994 -4.72175 4.55397 0
M  V30 2445 H 236.911 -4.28419 6.22891 0
M  V30 2446 H 238.179 -5.3389 5.67963 0
M  V30 2447 N 242.408 -1.52605 -0.393616 0
M  V30 2448 C 243.638 -1.71046 -1.15874 0
M  V30 2449 C 244.046 -0.426483 -1.84331 0
M  V30 2450 O 243.389 0.608513 -1.73329 0
M  V30 2451 C 243.451 -2.80118 -2.25332 0
M  V30 2452 C 243.115 -4.21381 -1.76881 0
M  V30 2453 C 244.112 -5.04697 -1.24808 0
M  V30 2454 C 241.797 -4.67683 -1.83244 0
M  V30 2455 C 243.791 -6.32393 -0.797387 0
M  V30 2456 C 241.478 -5.95364 -1.37787 0
M  V30 2457 C 242.476 -6.77549 -0.861208 0
M  V30 2458 O 242.164 -8.02837 -0.413252 0
M  V30 2459 H 241.896 -0.576155 -0.353583 0
M  V30 2460 H 244.45 -2.00018 -0.467123 0
M  V30 2461 H 242.68 -2.46557 -2.97904 0
M  V30 2462 H 244.369 -2.87006 -2.87023 0
M  V30 2463 H 245.135 -4.70111 -1.19252 0
M  V30 2464 H 241.014 -4.03805 -2.22401 0
M  V30 2465 H 244.558 -6.9649 -0.393437 0
M  V30 2466 H 240.455 -6.29455 -1.43026 0
M  V30 2467 H 241.223 -8.16749 -0.53515 0
M  V30 2468 N 243.887 0.651787 -1.4349 0
M  V30 2469 C 245.133 1.41376 -1.45398 0
M  V30 2470 C 245.466 1.94041 -0.0784823 0
M  V30 2471 O 244.741 1.72379 0.900878 0
M  V30 2472 C 245.024 2.59414 -2.49752 0
M  V30 2473 C 244.877 2.12232 -3.96582 0
M  V30 2474 C 246.196 3.61626 -2.50827 0
M  V30 2475 H 243.315 0.512719 -0.529422 0
M  V30 2476 H 245.957 0.738796 -1.75048 0
M  V30 2477 H 244.107 3.16997 -2.246 0
M  V30 2478 H 245.779 1.59639 -4.32797 0
M  V30 2479 H 244.022 1.43592 -4.09346 0
M  V30 2480 H 244.693 2.9712 -4.65214 0
M  V30 2481 H 247.169 3.13805 -2.7325 0
M  V30 2482 H 246.045 4.41766 -3.25783 0
M  V30 2483 H 246.306 4.14314 -1.5426 0
M  V30 2484 N 245.365 1.30045 0.890287 0
M  V30 2485 C 246.315 1.12592 1.9826 0
M  V30 2486 C 247.299 0.0426021 1.60844 0
M  V30 2487 O 248.491 0.265346 1.75 0
M  V30 2488 C 245.62 0.814301 3.33503 0
M  V30 2489 C 244.706 1.93761 3.7725 0
M  V30 2490 N 245.097 3.18232 3.93143 0
M  V30 2491 C 243.395 1.83277 4.06602 0
M  V30 2492 C 244.096 3.9158 4.30163 0
M  V30 2493 N 243.072 3.19591 4.3973 0
M  V30 2494 H 246.874 2.07003 2.08631 0
M  V30 2495 H 244.388 1.21307 1.07974 0
M  V30 2496 H 246.385 0.67029 4.11476 0
M  V30 2497 H 245.045 -0.121797 3.24471 0
M  V30 2498 H 246.056 3.53581 3.78419 0
M  V30 2499 H 242.733 0.97001 4.06075 0
M  V30 2500 H 244.123 4.98744 4.50226 0
M  V30 2501 N 246.843 -1.10192 1.12674 0
M  V30 2502 C 247.79 -2.16606 0.796906 0
M  V30 2503 C 248.76 -1.64394 -0.237476 0
M  V30 2504 O 249.945 -1.90474 -0.111484 0
M  V30 2505 C 247.085 -3.44116 0.26043 0
M  V30 2506 C 246.198 -4.10268 1.35293 0
M  V30 2507 C 245.333 -5.25507 0.775621 0
M  V30 2508 C 244.372 -5.83567 1.84706 0
M  V30 2509 N 243.509 -6.90179 1.28829 0
M  V30 2510 H 248.349 -2.44163 1.70846 0
M  V30 2511 H 245.886 -1.19846 0.85295 0
M  V30 2512 H 247.844 -4.17143 -0.0686814 0
M  V30 2513 H 246.474 -3.16901 -0.614274 0
M  V30 2514 H 245.526 -3.35184 1.79877 0
M  V30 2515 H 246.838 -4.4946 2.16303 0
M  V30 2516 H 245.992 -6.05398 0.397327 0
M  V30 2517 H 244.731 -4.87656 -0.0656581 0
M  V30 2518 H 243.736 -5.02344 2.23452 0
M  V30 2519 H 244.961 -6.23482 2.69161 0
M  V30 2520 H 242.907 -6.54322 0.468881 0
M  V30 2521 H 242.824 -7.28097 2.03497 0
M  V30 2522 H 244.092 -7.73844 0.937311 0
M  V30 2523 N 248.321 -0.919034 -1.28029 0
M  V30 2524 C 249.567 -0.555757 -1.95036 0
M  V30 2525 C 249.9 0.899198 -1.72128 0
M  V30 2526 O 249.175 1.64023 -1.04531 0
M  V30 2527 C 249.458 -0.872024 -3.49382 0
M  V30 2528 C 249.311 -2.3801 -3.81669 0
M  V30 2529 C 250.63 -0.37185 -4.38526 0
M  V30 2530 H 247.749 -0.203386 -0.708381 0
M  V30 2531 H 250.391 -1.14924 -1.51303 0
M  V30 2532 H 248.541 -0.366946 -3.86763 0
M  V30 2533 H 250.213 -2.9562 -3.54128 0
M  V30 2534 H 248.456 -2.83289 -3.28526 0
M  V30 2535 H 249.127 -2.55192 -4.8947 0
M  V30 2536 H 251.603 -0.804602 -4.08247 0
M  V30 2537 H 250.479 -0.622173 -5.45362 0
M  V30 2538 H 250.74 0.727934 -4.36066 0
M  V30 2539 N 249.799 1.42003 -0.683588 0
M  V30 2540 C 251.039 2.03282 -0.213513 0
M  V30 2541 C 251.403 1.52924 1.16097 0
M  V30 2542 O 252.604 2.06048 1.7262 0
M  V30 2543 C 250.875 3.56483 -0.255856 0
M  V30 2544 S 252.434 4.3857 0.14193 0
M  V30 2545 H 249.252 0.705659 -0.0869853 0
M  V30 2546 H 251.854 1.73619 -0.8987 0
M  V30 2547 H 250.558 3.90631 -1.25841 0
M  V30 2548 H 250.089 3.90831 0.448875 0
M  V30 2549 H 252.104 4.76828 1.37295 0
M  V30 2550 N 251.277 0.427512 1.51691 0
M  V30 2551 C 252.517 -0.141524 2.03909 0
M  V30 2552 C 252.881 -1.40811 1.30523 0
M  V30 2553 O 254.082 -2.05676 1.73063 0
M  V30 2554 C 252.353 -0.364962 3.55532 0
M  V30 2555 S 253.912 -0.898812 4.29496 0
M  V30 2556 H 250.73 -0.0364542 0.710065 0
M  V30 2557 H 253.332 0.584659 1.86553 0
M  V30 2558 H 252.036 0.56336 4.06515 0
M  V30 2559 H 251.567 -1.1185 3.77164 0
M  V30 2560 H 253.582 -2.17747 4.45871 0
M  V30 2561 N 252.755 -1.56801 0.158532 0
M  V30 2562 C 254.166 -1.83189 -0.360366 0
M  V30 2563 C 254.517 -1.07778 -1.63946 0
M  V30 2564 O 253.642 -0.326718 -2.13919 0
M  V30 2565 C 254.237 -3.32297 -0.660595 0
M  V30 2566 C 252.796 -3.59227 -1.12398 0
M  V30 2567 C 251.943 -2.76877 -0.153097 0
M  V30 2568 H 254.894 -1.54008 0.383031 0
M  V30 2569 H 254.915 -3.4908 -1.51405 0
M  V30 2570 H 254.427 -3.87156 0.270527 0
M  V30 2571 H 252.528 -3.09766 -2.07064 0
M  V30 2572 H 252.641 -4.67632 -1.04197 0
M  V30 2573 H 251.005 -2.46319 -0.647983 0
M  V30 2574 H 251.788 -3.34511 0.77182 0
M  V30 2575 N 254.233 0.115231 -1.57178 0
M  V30 2576 C 255.473 0.828199 -1.8687 0
M  V30 2577 C 255.837 1.76873 -0.747002 0
M  V30 2578 O 257.038 2.52354 -0.925785 0
M  V30 2579 C 255.309 1.55515 -3.21792 0
M  V30 2580 S 256.868 2.30917 -3.73125 0
M  V30 2581 H 253.686 0.27634 -0.655101 0
M  V30 2582 H 256.288 0.0863469 -1.95309 0
M  V30 2583 H 254.992 0.856248 -4.01368 0
M  V30 2584 H 254.523 2.3373 -3.16439 0
M  V30 2585 H 256.538 3.56705 -3.44929 0
M  V30 2586 N 255.711 1.52812 0.385517 0
M  V30 2587 C 256.951 1.69716 1.13911 0
M  V30 2588 C 257.315 0.42962 1.87132 0
M  V30 2589 O 258.516 0.475071 2.64569 0
M  V30 2590 C 256.787 2.90021 2.0886 0
M  V30 2591 S 258.346 3.27531 2.92009 0
M  V30 2592 H 255.164 0.59739 0.385547 0
M  V30 2593 H 257.766 1.90868 0.423061 0
M  V30 2594 H 256.47 3.80493 1.53797 0
M  V30 2595 H 256.001 2.71213 2.84969 0
M  V30 2596 H 258.016 2.77989 4.11019 0
M  V30 2597 N 257.189 -0.644168 1.43834 0
M  V30 2598 C 258.436 -1.40395 1.4593 0
M  V30 2599 C 258.764 -1.94305 0.0869658 0
M  V30 2600 O 258.019 -1.73288 -0.909378 0
M  V30 2601 C 258.318 -2.59615 2.45631 0
M  V30 2602 C 257.984 -2.2407 3.91284 0
M  V30 2603 C 256.646 -2.14089 4.30952 0
M  V30 2604 C 258.998 -1.95775 4.83034 0
M  V30 2605 C 256.326 -1.73981 5.6031 0
M  V30 2606 C 258.678 -1.57163 6.12766 0
M  V30 2607 C 257.342 -1.45713 6.51402 0
M  V30 2608 H 256.612 -0.513741 0.533995 0
M  V30 2609 H 259.259 -0.731724 1.76969 0
M  V30 2610 H 257.564 -3.32011 2.08028 0
M  V30 2611 H 259.261 -3.17834 2.44504 0
M  V30 2612 H 255.851 -2.32753 3.59895 0
M  V30 2613 H 260.035 -2.02403 4.53152 0
M  V30 2614 H 255.291 -1.63709 5.89075 0
M  V30 2615 H 259.465 -1.34303 6.83327 0
M  V30 2616 H 257.092 -1.14406 7.51542 0
M  V30 2617 N 258.668 -1.30515 -0.883378 0
M  V30 2618 C 259.916 -1.19194 -1.63209 0
M  V30 2619 C 260.237 0.253205 -1.93349 0
M  V30 2620 O 259.507 1.17025 -1.57105 0
M  V30 2621 H 258.087 -0.438148 -0.605009 0
M  V30 2622 H 260.749 -1.63663 -1.05832 0
M  V30 2623 H 259.845 -1.75396 -2.58153 0
M  V30 2624 N 260.146 1.09593 -1.13257 0
M  V30 2625 C 261.562 1.33775 -0.870423 0
M  V30 2626 C 261.762 1.95327 0.494926 0
M  V30 2627 O 260.818 2.19853 1.2418 0
M  V30 2628 C 262.131 2.25106 -1.99369 0
M  V30 2629 C 263.679 2.3862 -2.02558 0
M  V30 2630 C 264.154 3.33285 -3.14142 0
M  V30 2631 N 265.645 3.40857 -3.13641 0
M  V30 2632 C 266.38 4.14101 -3.96621 0
M  V30 2633 N 265.876 4.90157 -4.8961 0
M  V30 2634 N 267.669 4.09808 -3.84726 0
M  V30 2635 H 259.82 0.680136 -2.01216 0
M  V30 2636 H 262.083 0.362133 -0.876107 0
M  V30 2637 H 261.789 1.87103 -2.97801 0
M  V30 2638 H 261.663 3.25481 -1.90635 0
M  V30 2639 H 264.05 2.75887 -1.0474 0
M  V30 2640 H 264.131 1.38028 -2.15364 0
M  V30 2641 H 263.775 2.96741 -4.12198 0
M  V30 2642 H 263.705 4.33776 -2.98574 0
M  V30 2643 H 266.196 2.86624 -2.46282 0
M  V30 2644 H 266.509 5.4347 -5.49418 0
M  V30 2645 H 264.854 4.89251 -4.93617 0
M  V30 2646 H 268.045 3.4949 -3.11408 0
M  V30 2647 H 268.218 4.66629 -4.49623 0
M  V30 2648 N 261.624 0.925811 1.2754 0
M  V30 2649 C 262.872 0.564138 1.94067 0
M  V30 2650 C 263.193 -0.897188 1.73134 0
M  V30 2651 O 262.463 -1.63573 1.07799 0
M  V30 2652 H 261.043 0.205645 0.718136 0
M  V30 2653 H 263.705 1.1778 1.55287 0
M  V30 2654 H 262.801 0.76881 3.02483 0
M  V30 2655 N 263.102 -1.41638 0.69111 0
M  V30 2656 C 264.342 -2.03166 0.224291 0
M  V30 2657 C 264.706 -1.53537 -1.15284 0
M  V30 2658 O 265.907 -2.0696 -1.71525 0
M  V30 2659 C 264.178 -3.56342 0.274758 0
M  V30 2660 S 265.737 -4.3864 -0.118669 0
M  V30 2661 H 262.555 -0.705188 0.0907263 0
M  V30 2662 H 265.157 -1.7314 0.907895 0
M  V30 2663 H 263.861 -3.89958 1.2791 0
M  V30 2664 H 263.392 -3.91063 -0.428142 0
M  V30 2665 H 265.407 -4.77549 -1.34764 0
M  V30 2666 N 264.58 -0.43555 -1.51462 0
M  V30 2667 C 265.51 0.367376 -2.30592 0
M  V30 2668 C 266.491 1.02263 -1.35928 0
M  V30 2669 O 267.676 1.02661 -1.64847 0
M  V30 2670 C 264.806 1.46983 -3.14664 0
M  V30 2671 C 263.76 0.938161 -4.17591 0
M  V30 2672 C 263.086 2.13622 -4.90173 0
M  V30 2673 C 264.386 -0.0261621 -5.22293 0
M  V30 2674 H 266.08 -0.292969 -2.97963 0
M  V30 2675 H 263.626 -0.14234 -1.43295 0
M  V30 2676 H 265.579 2.03873 -3.688 0
M  V30 2677 H 264.303 2.15843 -2.4511 0
M  V30 2678 H 262.962 0.391481 -3.64504 0
M  V30 2679 H 262.61 2.81098 -4.17124 0
M  V30 2680 H 262.31 1.78688 -5.59772 0
M  V30 2681 H 263.834 2.7107 -5.47132 0
M  V30 2682 H 265.248 0.452384 -5.71512 0
M  V30 2683 H 263.645 -0.287992 -5.99409 0
M  V30 2684 H 264.715 -0.963391 -4.75233 0
M  V30 2685 N 266.058 1.56714 -0.166846 0
M  V30 2686 C 267.307 1.95922 0.479318 0
M  V30 2687 C 267.62 1.05529 1.6469 0
M  V30 2688 O 268.826 1.34399 2.35901 0
M  V30 2689 C 267.282 3.48359 0.90412 0
M  V30 2690 C 266.89 4.47369 -0.237621 0
M  V30 2691 C 268.634 3.96394 1.51896 0
M  V30 2692 C 266.541 5.91039 0.206561 0
M  V30 2693 H 265.471 0.731495 0.18284 0
M  V30 2694 H 268.122 1.81728 -0.254363 0
M  V30 2695 H 266.504 3.57955 1.69365 0
M  V30 2696 H 267.678 4.49485 -1.01489 0
M  V30 2697 H 265.993 4.09366 -0.762128 0
M  V30 2698 H 268.59 5.01186 1.86325 0
M  V30 2699 H 268.933 3.39075 2.41524 0
M  V30 2700 H 269.466 3.89796 0.79395 0
M  V30 2701 H 266.205 6.52221 -0.654834 0
M  V30 2702 H 265.725 5.9224 0.949282 0
M  V30 2703 H 267.404 6.43707 0.651939 0
M  V30 2704 N 267.536 -0.106894 1.57237 0
M  V30 2705 C 268.947 -0.662723 1.74542 0
M  V30 2706 C 269.298 -1.7971 0.787319 0
M  V30 2707 O 268.423 -2.16368 -0.0369636 0
M  V30 2708 C 269.018 -1.20896 3.16496 0
M  V30 2709 C 267.577 -1.71096 3.35266 0
M  V30 2710 C 266.724 -0.615642 2.7038 0
M  V30 2711 H 269.675 0.119106 1.58252 0
M  V30 2712 H 269.696 -2.07847 3.18716 0
M  V30 2713 H 269.208 -0.383122 3.86204 0
M  V30 2714 H 267.309 -2.56119 2.70618 0
M  V30 2715 H 267.422 -1.81208 4.43509 0
M  V30 2716 H 265.786 -1.05222 2.31949 0
M  V30 2717 H 266.569 0.199419 3.4272 0
M  V30 2718 N 269.014 -1.53014 -0.377408 0
M  V30 2719 C 269.962 -1.7927 -1.48206 0
M  V30 2720 C 270.956 -0.661195 -1.55963 0
M  V30 2721 O 272.162 -0.843908 -1.58991 0
M  V30 2722 H 268.537 -0.567425 -0.493491 0
M  V30 2723 H 270.508 -2.71753 -1.2326 0
M  V30 2724 C 269.257 -1.98894 -2.85196 0
M  V30 2725 H 268.58 -2.85395 -2.79981 0
M  V30 2726 H 270.02 -2.21249 -3.61698 0
M  V30 2727 C 268.479 -0.764691 -3.28107 0
M  V30 2728 O 269.009 0.0523226 -4.01666 0
M  V30 2729 N 267.215 -0.591493 -2.84517 0
M  V30 2730 H 266.762 -1.25749 -2.24822 0
M  V30 2731 H 266.72 0.226253 -3.13585 0
M  V30 2732 N 270.492 0.636531 -1.44174 0
M  V30 2733 C 271.424 1.7618 -1.46606 0
M  V30 2734 C 272.437 1.58768 -0.360091 0
M  V30 2735 O 273.626 1.67181 -0.625518 0
M  V30 2736 C 270.726 3.13833 -1.27915 0
M  V30 2737 C 269.899 3.57753 -2.51658 0
M  V30 2738 C 268.958 4.74265 -2.27945 0
M  V30 2739 O 267.984 4.82852 -3.01401 0
M  V30 2740 N 269.186 5.65604 -1.30662 0
M  V30 2741 H 271.951 1.74567 -2.43612 0
M  V30 2742 H 269.512 0.820924 -1.39544 0
M  V30 2743 H 271.504 3.8949 -1.09907 0
M  V30 2744 H 270.074 3.10121 -0.39293 0
M  V30 2745 H 269.294 2.72362 -2.84978 0
M  V30 2746 H 270.582 3.83847 -3.33974 0
M  V30 2747 H 269.98 5.61354 -0.699844 0
M  V30 2748 H 268.537 6.40913 -1.18634 0
M  V30 2749 N 271.97 1.30982 0.876444 0
M  V30 2750 C 273.218 1.20058 1.62575 0
M  V30 2751 C 273.539 -0.242947 1.93481 0
M  V30 2752 O 272.809 -1.1619 1.57724 0
M  V30 2753 H 271.389 0.44135 0.602677 0
M  V30 2754 H 274.051 1.64222 1.04962 0
M  V30 2755 H 273.147 1.76762 2.57219 0
M  V30 2756 N 273.449 -1.08991 1.13837 0
M  V30 2757 C 274.679 -1.84743 0.924859 0
M  V30 2758 C 275.087 -1.81629 -0.529874 0
M  V30 2759 O 274.43 -1.21397 -1.37872 0
M  V30 2760 C 274.492 -3.33568 1.34061 0
M  V30 2761 C 274.156 -3.60425 2.80968 0
M  V30 2762 C 275.153 -3.55771 3.79108 0
M  V30 2763 C 272.838 -3.88627 3.18236 0
M  V30 2764 C 274.832 -3.78939 5.12527 0
M  V30 2765 C 272.519 -4.11449 4.51833 0
M  V30 2766 C 273.517 -4.06598 5.48787 0
M  V30 2767 O 273.205 -4.28826 6.79973 0
M  V30 2768 H 272.937 -0.590258 0.329502 0
M  V30 2769 H 275.491 -1.38598 1.51591 0
M  V30 2770 H 273.721 -3.80442 0.692853 0
M  V30 2771 H 275.41 -3.90743 1.09886 0
M  V30 2772 H 276.176 -3.34005 3.51661 0
M  V30 2773 H 272.055 -3.91526 2.43369 0
M  V30 2774 H 275.599 -3.75068 5.88192 0
M  V30 2775 H 271.496 -4.32698 4.79002 0
M  V30 2776 H 272.264 -4.46264 6.86142 0
M  V30 2777 N 274.927 -0.932562 -1.27047 0
M  V30 2778 C 275.857 -0.452902 -2.29066 0
M  V30 2779 C 276.838 0.489338 -1.62909 0
M  V30 2780 O 278.023 0.393046 -1.90181 0
M  V30 2781 C 275.153 0.290698 -3.46081 0
M  V30 2782 C 274.107 -0.564168 -4.24265 0
M  V30 2783 C 273.433 0.308886 -5.33807 0
M  V30 2784 C 274.733 -1.83112 -4.89149 0
M  V30 2785 H 276.427 -1.30552 -2.69437 0
M  V30 2786 H 273.973 -0.629201 -1.29526 0
M  V30 2787 H 275.926 0.637233 -4.16554 0
M  V30 2788 H 274.65 1.17738 -3.0464 0
M  V30 2789 H 273.309 -0.893477 -3.55545 0
M  V30 2790 H 272.957 1.19467 -4.88607 0
M  V30 2791 H 272.657 -0.259633 -5.87026 0
M  V30 2792 H 274.181 0.650884 -6.07121 0
M  V30 2793 H 275.595 -1.55236 -5.51883 0
M  V30 2794 H 273.992 -2.34353 -5.52448 0
M  V30 2795 H 275.062 -2.54772 -4.12576 0
M  V30 2796 N 276.405 1.4127 -0.698611 0
M  V30 2797 C 277.63 2.06024 -0.238512 0
M  V30 2798 C 278.055 1.5224 1.10475 0
M  V30 2799 O 277.413 0.650623 1.69223 0
M  V30 2800 C 277.461 3.59988 -0.209952 0
M  V30 2801 O 276.565 4.04282 0.814235 0
M  V30 2802 H 275.906 0.653829 -0.115775 0
M  V30 2803 H 278.436 1.8098 -0.954326 0
M  V30 2804 H 278.446 4.07979 -0.0418436 0
M  V30 2805 H 277.121 3.98503 -1.1903 0
M  V30 2806 H 275.698 3.6779 0.615234 0
M  V30 2807 N 277.883 0.443576 1.51229 0
M  V30 2808 C 278.793 -0.370721 2.31652 0
M  V30 2809 C 279.809 -1.02186 1.40833 0
M  V30 2810 O 280.985 -1.01586 1.73903 0
M  V30 2811 C 278.05 -1.45376 3.14749 0
M  V30 2812 C 277.111 -0.822099 4.21355 0
M  V30 2813 C 276.344 -1.85353 5.0048 0
M  V30 2814 O 276.567 -3.07656 4.80316 0
M  V30 2815 O 275.501 -1.4406 5.84406 0
M  V30 2816 H 279.327 0.286002 3.0235 0
M  V30 2817 H 276.912 0.20598 1.47973 0
M  V30 2818 H 278.794 -2.08173 3.66391 0
M  V30 2819 H 277.469 -2.09445 2.46809 0
M  V30 2820 H 276.376 -0.155909 3.73775 0
M  V30 2821 H 277.709 -0.224797 4.91686 0
M  V30 2822 N 279.361 -1.56624 0.175154 0
M  V30 2823 C 280.324 -2.16934 -0.739738 0
M  V30 2824 C 281.324 -1.11842 -1.15533 0
M  V30 2825 O 282.514 -1.37335 -1.07167 0
M  V30 2826 C 279.646 -2.75531 -2.00738 0
M  V30 2827 H 280.839 -2.99131 -0.214639 0
M  V30 2828 H 278.392 -1.56123 -0.0744197 0
M  V30 2829 H 279.127 -1.97078 -2.57548 0
M  V30 2830 H 278.912 -3.52444 -1.71831 0
M  V30 2831 H 280.402 -3.21904 -2.66021 0
M  V30 2832 N 280.839 0.0985539 -1.57292 0
M  V30 2833 C 282.087 0.801092 -1.85545 0
M  V30 2834 C 282.408 1.79438 -0.763353 0
M  V30 2835 O 281.678 1.94763 0.21073 0
M  V30 2836 H 280.258 0.29884 -0.684619 0
M  V30 2837 H 282.92 0.0810064 -1.94732 0
M  V30 2838 H 282.016 1.3338 -2.82163 0
M  V30 2839 N 282.317 1.53212 0.369288 0
M  V30 2840 C 283.28 1.7872 1.43498 0
M  V30 2841 C 284.28 0.657554 1.46741 0
M  V30 2842 O 285.47 0.925736 1.47566 0
M  V30 2843 C 282.602 1.90591 2.82645 0
M  V30 2844 H 283.795 2.73894 1.22156 0
M  V30 2845 H 281.348 1.44233 0.602203 0
M  V30 2846 H 282.083 0.974709 3.09306 0
M  V30 2847 H 281.868 2.72751 2.8169 0
M  V30 2848 H 283.358 2.11931 3.59826 0
M  V30 2849 N 283.795 -0.628877 1.44509 0
M  V30 2850 C 285.025 -1.41349 1.50678 0
M  V30 2851 C 285.433 -1.88745 0.131075 0
M  V30 2852 O 284.776 -1.61592 -0.87371 0
M  V30 2853 C 284.838 -2.66608 2.41165 0
M  V30 2854 C 284.502 -2.40993 3.88293 0
M  V30 2855 C 285.499 -2.0268 4.78766 0
M  V30 2856 C 283.184 -2.54563 4.33016 0
M  V30 2857 C 285.178 -1.78269 6.11963 0
M  V30 2858 C 282.865 -2.29766 5.6626 0
M  V30 2859 C 283.863 -1.91678 6.55552 0
M  V30 2860 O 283.551 -1.67158 7.86329 0
M  V30 2861 H 283.283 -0.439851 0.51333 0
M  V30 2862 H 285.837 -0.776084 1.90174 0
M  V30 2863 H 284.067 -3.32994 1.96601 0
M  V30 2864 H 285.756 -3.28615 2.38259 0
M  V30 2865 H 286.522 -1.91751 4.45485 0
M  V30 2866 H 282.401 -2.83179 3.63773 0
M  V30 2867 H 285.945 -1.48465 6.81619 0
M  V30 2868 H 281.842 -2.40306 5.99102 0
M  V30 2869 H 282.61 -1.81386 7.98149 0
M  V30 2870 N 285.273 -1.31445 -0.869486 0
M  V30 2871 C 286.203 -1.21727 -1.99261 0
M  V30 2872 C 287.184 -0.104359 -1.6978 0
M  V30 2873 O 288.369 -0.289038 -1.92037 0
M  V30 2874 C 285.499 -0.924317 -3.34774 0
M  V30 2875 C 284.453 -1.99685 -3.78563 0
M  V30 2876 C 283.779 -1.55658 -5.11541 0
M  V30 2877 C 285.079 -3.41003 -3.95619 0
M  V30 2878 H 286.773 -2.1569 -2.07649 0
M  V30 2879 H 284.319 -1.03839 -0.997675 0
M  V30 2880 H 286.272 -0.842934 -4.12883 0
M  V30 2881 H 284.996 0.0509793 -3.2656 0
M  V30 2882 H 283.655 -2.06813 -3.02694 0
M  V30 2883 H 283.303 -0.569132 -4.9977 0
M  V30 2884 H 283.003 -2.27409 -5.41811 0
M  V30 2885 H 284.527 -1.48928 -5.92159 0
M  V30 2886 H 285.941 -3.36547 -4.64122 0
M  V30 2887 H 284.338 -4.10975 -4.37286 0
M  V30 2888 H 285.408 -3.81754 -2.98985 0
M  V30 2889 N 286.751 1.08385 -1.14413 0
M  V30 2890 C 287.997 1.81044 -0.913834 0
M  V30 2891 C 288.33 1.86004 0.558209 0
M  V30 2892 O 287.605 1.33606 1.4135 0
M  V30 2893 C 287.888 3.26648 -1.51569 0
M  V30 2894 C 287.741 3.29895 -3.0576 0
M  V30 2895 C 289.06 4.23629 -1.19273 0
M  V30 2896 H 286.179 0.65727 -0.333414 0
M  V30 2897 H 288.821 1.26896 -1.41412 0
M  V30 2898 H 286.971 3.72889 -1.09023 0
M  V30 2899 H 288.643 2.91977 -3.57137 0
M  V30 2900 H 286.886 2.69163 -3.40197 0
M  V30 2901 H 287.557 4.32516 -3.42977 0
M  V30 2902 H 290.033 3.85727 -1.56057 0
M  V30 2903 H 288.909 5.23822 -1.64017 0
M  V30 2904 H 289.17 4.41968 -0.108068 0
M  V30 2905 N 288.23 0.939286 1.26551 0
M  V30 2906 C 289.507 0.5038 1.89001 0
M  V30 2907 C 289.887 -1.01854 1.84903 0
M  V30 2908 O 289.235 -1.87773 1.30206 0
M  V30 2909 C 289.445 1.063 3.32417 0
M  V30 2910 C 290.793 1.13051 4.09273 0
M  V30 2911 O 291.817 1.01345 3.41479 0
M  V30 2912 O 290.676 1.31233 5.30509 0
M  V30 2913 H 287.77 0.163897 0.810597 0
M  V30 2914 H 290.316 1.03173 1.34735 0
M  V30 2915 H 289.088 2.10665 3.29752 0
M  V30 2916 H 288.711 0.517408 3.94219 0
M  V30 2917 N 289.708 -1.40897 0.706093 0
M  V30 2918 C 290.656 -2.32572 0.0361893 0
M  V30 2919 C 291.65 -1.51532 -0.757266 0
M  V30 2920 O 292.856 -1.67396 -0.661703 0
M  V30 2921 H 289.231 -0.751966 -0.00709935 0
M  V30 2922 H 291.202 -2.86733 0.826249 0
M  V30 2923 C 289.951 -3.36418 -0.87854 0
M  V30 2924 H 289.274 -3.98836 -0.277401 0
M  V30 2925 H 290.714 -4.0308 -1.3154 0
M  V30 2926 C 289.173 -2.71141 -1.99961 0
M  V30 2927 O 289.703 -2.56735 -3.0895 0
M  V30 2928 N 287.909 -2.29671 -1.78043 0
M  V30 2929 H 287.456 -2.41588 -0.894042 0
M  V30 2930 H 287.414 -1.86332 -2.53235 0
M  V30 2931 N 291.186 -0.45159 -1.50991 0
M  V30 2932 C 292.133 0.352625 -2.2809 0
M  V30 2933 C 293.103 1.0044 -1.32291 0
M  V30 2934 O 294.288 1.02058 -1.6121 0
M  V30 2935 C 291.428 1.43983 -3.13629 0
M  V30 2936 C 290.541 0.804772 -4.24438 0
M  V30 2937 C 289.676 1.86822 -4.97263 0
M  V30 2938 C 288.715 1.21236 -5.99973 0
M  V30 2939 N 287.852 2.2178 -6.66152 0
M  V30 2940 H 292.692 -0.311186 -2.96371 0
M  V30 2941 H 290.229 -0.165308 -1.46168 0
M  V30 2942 H 292.187 2.08161 -3.61559 0
M  V30 2943 H 290.817 2.07307 -2.47434 0
M  V30 2944 H 289.869 0.0509129 -3.80366 0
M  V30 2945 H 291.181 0.286076 -4.97979 0
M  V30 2946 H 290.335 2.58628 -5.48813 0
M  V30 2947 H 289.074 2.42068 -4.23385 0
M  V30 2948 H 288.079 0.479828 -5.47702 0
M  V30 2949 H 289.304 0.667051 -6.75816 0
M  V30 2950 H 287.25 2.76079 -5.95077 0
M  V30 2951 H 287.167 1.74841 -7.35504 0
M  V30 2952 H 288.435 2.93026 -7.22327 0
M  V30 2953 N 292.664 1.56529 -0.183458 0
M  V30 2954 C 293.594 2.21549 0.737456 0
M  V30 2955 C 294.575 1.17489 1.23005 0
M  V30 2956 O 295.76 1.45959 1.281 0
M  V30 2957 C 292.89 2.86575 1.96194 0
M  V30 2958 C 291.844 3.96778 1.60473 0
M  V30 2959 C 291.17 4.48911 2.90487 0
M  V30 2960 C 292.47 5.15767 0.823497 0
M  V30 2961 H 294.164 2.98761 0.195453 0
M  V30 2962 H 291.71 1.43702 0.0925686 0
M  V30 2963 H 293.663 3.30739 2.61131 0
M  V30 2964 H 292.387 2.06749 2.52828 0
M  V30 2965 H 291.046 3.53286 0.978997 0
M  V30 2966 H 290.694 3.65862 3.45186 0
M  V30 2967 H 290.394 5.23265 2.67335 0
M  V30 2968 H 291.918 4.95771 3.56432 0
M  V30 2969 H 293.332 5.56549 1.37571 0
M  V30 2970 H 291.729 5.96114 0.690551 0
M  V30 2971 H 292.799 4.84574 -0.177782 0
M  V30 2972 N 294.142 -0.090211 1.57342 0
M  V30 2973 C 295.092 -1.11557 1.98844 0
M  V30 2974 C 296.076 -1.35503 0.867624 0
M  V30 2975 O 297.268 -1.36113 1.13148 0
M  V30 2976 C 294.397 -2.43446 2.42051 0
M  V30 2977 C 293.483 -2.22853 3.60828 0
M  V30 2978 N 293.874 -1.72141 4.75606 0
M  V30 2979 C 292.172 -2.53401 3.67021 0
M  V30 2980 C 292.873 -1.65932 5.57531 0
M  V30 2981 N 291.849 -2.11323 5.00843 0
M  V30 2982 H 295.651 -0.716499 2.85032 0
M  V30 2983 H 293.165 -0.297567 1.59651 0
M  V30 2984 H 295.162 -3.17644 2.70014 0
M  V30 2985 H 293.822 -2.84087 1.57241 0
M  V30 2986 H 294.833 -1.41268 4.98261 0
M  V30 2987 H 291.51 -2.97532 2.92884 0
M  V30 2988 H 292.9 -1.27733 6.59647 0
M  V30 2989 N 295.62 -1.53406 -0.361157 0
M  V30 2990 C 296.55 -1.83136 -1.44857 0
M  V30 2991 C 297.531 -0.685174 -1.5569 0
M  V30 2992 O 298.716 -0.93544 -1.70186 0
M  V30 2993 C 295.846 -2.02522 -2.82138 0
M  V30 2994 C 294.8 -3.18302 -2.86126 0
M  V30 2995 C 294.126 -3.22989 -4.26125 0
M  V30 2996 C 295.426 -4.56796 -2.53248 0
M  V30 2997 H 297.12 -2.74201 -1.20226 0
M  V30 2998 H 294.666 -1.31938 -0.576922 0
M  V30 2999 H 296.619 -2.21904 -3.58241 0
M  V30 3000 H 295.343 -1.08172 -3.08166 0
M  V30 3001 H 294.002 -2.98747 -2.12475 0
M  V30 3002 H 293.65 -2.26267 -4.49235 0
M  V30 3003 H 293.35 -4.00781 -4.29708 0
M  V30 3004 H 294.874 -3.44559 -5.04094 0
M  V30 3005 H 296.288 -4.7631 -3.19064 0
M  V30 3006 H 294.685 -5.36862 -2.68141 0
M  V30 3007 H 295.755 -4.61606 -1.48484 0
M  V30 3008 N 297.098 0.621204 -1.44841 0
M  V30 3009 C 298.323 1.41244 -1.51871 0
M  V30 3010 C 298.748 1.87519 -0.147764 0
M  V30 3011 O 298.106 1.59334 0.865 0
M  V30 3012 C 298.154 2.60221 -2.49634 0
M  V30 3013 O 297.258 3.60395 -2.00473 0
M  V30 3014 H 296.599 0.42223 -0.512463 0
M  V30 3015 H 299.129 0.757305 -1.90069 0
M  V30 3016 H 299.139 3.0764 -2.67996 0
M  V30 3017 H 297.814 2.25887 -3.4921 0
M  V30 3018 H 296.391 3.19717 -1.91925 0
M  V30 3019 N 298.576 1.31904 0.862503 0
M  V30 3020 C 299.825 1.21373 1.61094 0
M  V30 3021 C 300.138 -0.22504 1.94301 0
M  V30 3022 O 301.344 -0.452121 2.67709 0
M  V30 3023 C 299.8 2.12525 2.9045 0
M  V30 3024 C 299.408 3.61441 2.64697 0
M  V30 3025 C 301.152 2.10813 3.68454 0
M  V30 3026 C 299.059 4.44578 3.90006 0
M  V30 3027 H 297.989 0.450705 0.604468 0
M  V30 3028 H 300.64 1.56811 0.953027 0
M  V30 3029 H 299.022 1.69994 3.57656 0
M  V30 3030 H 300.196 4.12264 2.05851 0
M  V30 3031 H 298.511 3.65205 2.00036 0
M  V30 3032 H 301.108 2.70167 4.61426 0
M  V30 3033 H 301.451 1.09713 4.01583 0
M  V30 3034 H 301.984 2.51583 3.08141 0
M  V30 3035 H 298.723 5.46461 3.62023 0
M  V30 3036 H 298.243 3.98508 4.48276 0
M  V30 3037 H 299.922 4.57176 4.5782 0
M  V30 3038 N 300.054 -1.07777 1.14986 0
M  V30 3039 C 301.3 -1.80557 0.923422 0
M  V30 3040 C 301.633 -1.86298 -0.548337 0
M  V30 3041 O 300.908 -1.34354 -1.40639 0
M  V30 3042 C 301.191 -3.25839 1.53299 0
M  V30 3043 C 301.044 -3.28269 3.07505 0
M  V30 3044 C 302.363 -4.22991 1.21518 0
M  V30 3045 H 299.482 -0.655493 0.336894 0
M  V30 3046 H 302.124 -1.26144 1.42083 0
M  V30 3047 H 300.274 -3.72306 1.10999 0
M  V30 3048 H 301.946 -2.90079 3.58681 0
M  V30 3049 H 300.189 -2.67355 3.4162 0
M  V30 3050 H 300.86 -4.30691 3.45266 0
M  V30 3051 H 303.336 -3.84894 1.581 0
M  V30 3052 H 302.212 -5.22945 1.66793 0
M  V30 3053 H 302.473 -4.41904 0.131505 0
M  V30 3054 N 301.532 -0.945985 -1.26051 0
M  V30 3055 C 302.943 -0.638096 -1.75457 0
M  V30 3056 C 303.294 0.846672 -1.76991 0
M  V30 3057 O 302.419 1.66262 -1.38513 0
M  V30 3058 C 303.014 -1.15157 -3.18629 0
M  V30 3059 C 301.573 -0.894004 -3.65629 0
M  V30 3060 C 300.72 -1.29967 -2.44957 0
M  V30 3061 H 303.671 -1.12376 -1.1206 0
M  V30 3062 H 303.692 -0.507615 -3.77099 0
M  V30 3063 H 303.204 -2.23222 -3.1748 0
M  V30 3064 H 301.305 0.172057 -3.72203 0
M  V30 3065 H 301.418 -1.52439 -4.54202 0
M  V30 3066 H 299.782 -0.718078 -2.44368 0
M  V30 3067 H 300.565 -2.38935 -2.46505 0
M  V30 3068 N 303.011 1.40521 -0.713556 0
M  V30 3069 C 303.958 2.30723 -0.059684 0
M  V30 3070 C 304.928 1.48079 0.752448 0
M  V30 3071 O 306.113 1.76823 0.71681 0
M  V30 3072 C 303.253 3.34274 0.857594 0
M  V30 3073 C 302.366 4.31986 0.0351536 0
M  V30 3074 C 301.501 5.22605 0.951724 0
M  V30 3075 C 300.54 6.11976 0.123253 0
M  V30 3076 N 299.677 6.9502 0.99459 0
M  V30 3077 H 304.517 2.86074 -0.834596 0
M  V30 3078 H 302.054 1.40879 -0.42326 0
M  V30 3079 H 304.012 3.92879 1.40364 0
M  V30 3080 H 302.642 2.8043 1.59871 0
M  V30 3081 H 301.694 3.7518 -0.628052 0
M  V30 3082 H 303.006 4.95101 -0.606347 0
M  V30 3083 H 302.16 5.86131 1.56638 0
M  V30 3084 H 300.899 4.59759 1.62705 0
M  V30 3085 H 299.904 5.47482 -0.50435 0
M  V30 3086 H 301.129 6.76881 -0.548539 0
M  V30 3087 H 299.075 6.34764 1.6556 0
M  V30 3088 H 298.992 7.54892 0.40908 0
M  V30 3089 H 300.26 7.62997 1.59549 0
M  V30 3090 N 304.489 0.459591 1.5075 0
M  V30 3091 C 305.717 -0.0973749 2.06671 0
M  V30 3092 C 306.132 -1.34524 1.32472 0
M  V30 3093 O 305.489 -1.7827 0.390634 0
M  V30 3094 C 305.54 -0.39714 3.59312 0
M  V30 3095 O 305.261 0.801214 4.30711 0
M  V30 3096 C 306.762 -1.00234 4.31819 0
M  V30 3097 H 303.982 0.00195854 0.670997 0
M  V30 3098 H 306.526 0.645072 1.94059 0
M  V30 3099 H 304.681 -1.08951 3.71764 0
M  V30 3100 H 305.095 0.538857 5.21725 0
M  V30 3101 H 306.569 -1.16193 5.39632 0
M  V30 3102 H 307.046 -1.98939 3.91561 0
M  V30 3103 H 307.652 -0.348699 4.23868 0
M  V30 3104 N 305.967 -1.56429 0.191757 0
M  V30 3105 C 306.914 -2.18936 -0.730454 0
M  V30 3106 C 307.884 -1.13557 -1.21219 0
M  V30 3107 O 309.069 -1.41794 -1.27668 0
M  V30 3108 C 306.209 -2.85013 -1.9458 0
M  V30 3109 C 305.322 -4.04909 -1.50574 0
M  V30 3110 C 304.457 -4.58853 -2.67634 0
M  V30 3111 C 303.496 -5.71114 -2.20217 0
M  V30 3112 N 302.633 -6.19478 -3.30442 0
M  V30 3113 H 307.473 -2.97389 -0.190664 0
M  V30 3114 H 305.01 -1.46869 -0.0823694 0
M  V30 3115 H 306.968 -3.21492 -2.65893 0
M  V30 3116 H 305.598 -2.09129 -2.45896 0
M  V30 3117 H 304.65 -3.74115 -0.688605 0
M  V30 3118 H 305.962 -4.86113 -1.11784 0
M  V30 3119 H 305.116 -4.97619 -3.47074 0
M  V30 3120 H 303.855 -3.76749 -3.09696 0
M  V30 3121 H 302.86 -5.31879 -1.3923 0
M  V30 3122 H 304.085 -6.55033 -1.79189 0
M  V30 3123 H 302.031 -5.40297 -3.72041 0
M  V30 3124 H 301.948 -6.95725 -2.9581 0
M  V30 3125 H 303.216 -6.62898 -4.10106 0
M  V30 3126 N 307.445 0.0818655 -1.57387 0
M  V30 3127 C 308.691 0.784074 -1.8703 0
M  V30 3128 C 309.024 1.77729 -0.782689 0
M  V30 3129 O 308.299 1.93384 0.208051 0
M  V30 3130 C 308.582 1.50105 -3.27323 0
M  V30 3131 C 308.435 0.524925 -4.46727 0
M  V30 3132 C 309.754 2.44843 -3.65705 0
M  V30 3133 H 306.873 0.283582 -0.680257 0
M  V30 3134 H 309.515 0.0474352 -1.89941 0
M  V30 3135 H 307.665 2.12897 -3.24972 0
M  V30 3136 H 309.337 -0.0970111 -4.61198 0
M  V30 3137 H 307.58 -0.160606 -4.33503 0
M  V30 3138 H 308.251 1.064 -5.41648 0
M  V30 3139 H 310.727 1.92135 -3.69085 0
M  V30 3140 H 309.603 2.92018 -4.64776 0
M  V30 3141 H 309.864 3.29197 -2.95096 0
M  V30 3142 N 308.923 1.53595 0.353017 0
M  V30 3143 C 310.169 1.70638 1.09593 0
M  V30 3144 C 310.502 0.463286 1.88593 0
M  V30 3145 O 309.777 -0.539597 1.86865 0
M  V30 3146 C 310.06 2.96406 2.04489 0
M  V30 3147 C 309.913 4.30901 1.29014 0
M  V30 3148 C 311.232 3.17812 3.0444 0
M  V30 3149 H 308.351 0.620913 0.397034 0
M  V30 3150 H 310.993 1.86254 0.375446 0
M  V30 3151 H 309.143 2.83223 2.65927 0
M  V30 3152 H 310.815 4.55917 0.702638 0
M  V30 3153 H 309.058 4.29741 0.592071 0
M  V30 3154 H 309.729 5.1506 1.98537 0
M  V30 3155 H 312.205 3.30263 2.53112 0
M  V30 3156 H 311.081 4.07223 3.6805 0
M  V30 3157 H 311.342 2.33669 3.75301 0
M  V30 3158 N 310.401 -0.613514 1.45168 0
M  V30 3159 C 311.647 -1.37279 1.50087 0
M  V30 3160 C 312.002 -1.91902 0.138294 0
M  V30 3161 O 311.295 -1.71764 -0.84899 0
M  V30 3162 C 311.489 -2.54347 2.51083 0
M  V30 3163 C 311.318 -2.11186 3.97027 0
M  V30 3164 C 310.088 -1.97636 4.65046 0
M  V30 3165 C 312.286 -1.69016 4.85735 0
M  V30 3166 N 310.268 -1.48224 5.95737 0
M  V30 3167 C 311.639 -1.30976 6.06008 0
M  V30 3168 C 313.694 -1.56555 4.72647 0
M  V30 3169 C 312.397 -0.817197 7.14643 0
M  V30 3170 C 314.423 -1.08702 5.81324 0
M  V30 3171 C 313.785 -0.716233 7.00749 0
M  V30 3172 H 309.884 -0.496478 0.60418 0
M  V30 3173 H 312.468 -0.701988 1.81605 0
M  V30 3174 H 310.639 -3.19031 2.21527 0
M  V30 3175 H 312.371 -3.21208 2.46187 0
M  V30 3176 H 309.126 -2.18638 4.20112 0
M  V30 3177 H 309.55 -1.25767 6.65216 0
M  V30 3178 H 314.192 -1.83849 3.80736 0
M  V30 3179 H 311.91 -0.531797 8.06348 0
M  V30 3180 H 315.496 -0.994943 5.7323 0
M  V30 3181 H 314.376 -0.351642 7.83411 0
M  V30 3182 N 311.879 -1.3236 -0.855495 0
M  V30 3183 C 312.809 -1.23833 -1.97958 0
M  V30 3184 C 313.79 -0.122361 -1.69659 0
M  V30 3185 O 314.975 -0.30939 -1.9172 0
M  V30 3186 C 312.105 -0.959772 -3.33775 0
M  V30 3187 C 311.059 -2.03689 -3.76424 0
M  V30 3188 C 310.385 -1.61075 -5.09862 0
M  V30 3189 C 311.685 -3.4518 -3.9198 0
M  V30 3190 H 313.379 -2.1788 -2.0535 0
M  V30 3191 H 310.925 -1.04891 -0.986605 0
M  V30 3192 H 312.878 -0.886678 -4.11966 0
M  V30 3193 H 311.602 0.0163404 -3.26596 0
M  V30 3194 H 310.261 -2.10012 -3.00484 0
M  V30 3195 H 309.909 -0.622107 -4.99138 0
M  V30 3196 H 309.609 -2.33143 -5.39368 0
M  V30 3197 H 311.133 -1.55201 -5.90546 0
M  V30 3198 H 312.547 -3.4145 -4.60526 0
M  V30 3199 H 310.944 -4.1559 -4.32903 0
M  V30 3200 H 312.014 -3.84903 -2.94919 0
M  V30 3201 N 313.357 1.07166 -1.15556 0
M  V30 3202 C 314.603 1.80065 -0.932984 0
M  V30 3203 C 314.936 1.86586 0.53845 0
M  V30 3204 O 314.211 1.35098 1.39924 0
M  V30 3205 C 314.494 3.25022 -1.55025 0
M  V30 3206 C 314.347 3.26634 -3.09242 0
M  V30 3207 C 315.666 4.22341 -1.2376 0
M  V30 3208 H 312.785 0.653697 -0.340366 0
M  V30 3209 H 315.427 1.25389 -1.4275 0
M  V30 3210 H 313.577 3.71712 -1.12972 0
M  V30 3211 H 315.249 2.88173 -3.60214 0
M  V30 3212 H 313.492 2.65539 -3.43033 0
M  V30 3213 H 314.163 4.28854 -3.47546 0
M  V30 3214 H 316.639 3.8405 -1.60139 0
M  V30 3215 H 315.515 5.22053 -1.69564 0
M  V30 3216 H 315.776 4.41828 -0.154938 0
M  V30 3217 N 314.835 0.952656 1.25548 0
M  V30 3218 C 316.06 0.623025 1.97821 0
M  V30 3219 C 316.485 -0.7976 1.70352 0
M  V30 3220 O 315.843 -1.53905 0.958283 0
M  V30 3221 C 315.891 0.885532 3.49558 0
M  V30 3222 O 314.995 -0.0366641 4.12384 0
M  V30 3223 H 314.336 0.237082 0.620232 0
M  V30 3224 H 316.866 1.27871 1.59719 0
M  V30 3225 H 316.876 0.811009 3.99858 0
M  V30 3226 H 315.551 1.92094 3.6888 0
M  V30 3227 H 314.128 0.0898954 3.72792 0
M  V30 3228 N 316.313 -1.40141 0.720998 0
M  V30 3229 C 317.223 -2.34486 0.0731031 0
M  V30 3230 C 318.239 -1.57587 -0.737723 0
M  V30 3231 O 319.415 -1.89949 -0.669429 0
M  V30 3232 C 316.48 -3.36528 -0.833656 0
M  V30 3233 C 315.541 -4.29298 -0.0121673 0
M  V30 3234 C 314.774 -5.26466 -0.875742 0
M  V30 3235 O 314.997 -5.29745 -2.11485 0
M  V30 3236 O 313.931 -6.01092 -0.31185 0
M  V30 3237 H 317.757 -2.9152 0.851444 0
M  V30 3238 H 315.342 -1.41427 0.481527 0
M  V30 3239 H 317.224 -3.99093 -1.35289 0
M  V30 3240 H 315.899 -2.81899 -1.59105 0
M  V30 3241 H 314.806 -3.70001 0.552262 0
M  V30 3242 H 316.139 -4.87094 0.707129 0
M  V30 3243 N 317.792 -0.46758 -1.50504 0
M  V30 3244 C 319.02 0.0864133 -2.06719 0
M  V30 3245 C 319.435 1.33819 -1.33184 0
M  V30 3246 O 318.792 1.78061 -0.400083 0
M  V30 3247 C 318.843 0.378079 -3.59517 0
M  V30 3248 O 318.564 -0.824044 -4.3028 0
M  V30 3249 C 320.065 0.979426 -4.32345 0
M  V30 3250 H 317.285 -0.00551697 -0.670977 0
M  V30 3251 H 319.829 -0.655354 -1.93715 0
M  V30 3252 H 317.984 1.06977 -3.72337 0
M  V30 3253 H 318.398 -0.566518 -5.21432 0
M  V30 3254 H 319.872 1.1333 -5.40241 0
M  V30 3255 H 320.349 1.9686 -3.9261 0
M  V30 3256 H 320.955 0.326216 -4.24047 0
M  V30 3257 N 319.27 1.56325 -0.20005 0
M  V30 3258 C 320.517 1.97719 0.437411 0
M  V30 3259 C 320.845 1.08709 1.61284 0
M  V30 3260 O 320.1 0.127261 1.95286 0
M  V30 3261 C 320.399 3.4495 0.935103 0
M  V30 3262 C 320.065 4.5072 -0.12749 0
M  V30 3263 C 318.727 4.79368 -0.419451 0
M  V30 3264 C 321.079 5.14268 -0.847231 0
M  V30 3265 C 318.407 5.68854 -1.43604 0
M  V30 3266 C 320.759 6.04852 -1.85301 0
M  V30 3267 C 319.423 6.31855 -2.15211 0
M  V30 3268 H 318.693 0.723507 0.16006 0
M  V30 3269 H 321.34 1.89166 -0.298056 0
M  V30 3270 H 319.645 3.50599 1.74894 0
M  V30 3271 H 321.342 3.74337 1.43781 0
M  V30 3272 H 317.932 4.28458 0.11023 0
M  V30 3273 H 322.116 4.92222 -0.634901 0
M  V30 3274 H 317.372 5.88047 -1.67364 0
M  V30 3275 H 321.546 6.53152 -2.41591 0
M  V30 3276 H 319.173 7.00994 -2.94129 0
M  V30 3277 N 320.748 -0.0735177 1.57428 0
M  V30 3278 C 321.696 -1.10628 2.04607 0
M  V30 3279 C 322.69 -1.40181 0.951088 0
M  V30 3280 O 323.896 -1.39608 1.1362 0
M  V30 3281 H 320.271 -0.374088 0.652351 0
M  V30 3282 H 322.242 -0.682218 2.90497 0
M  V30 3283 C 320.991 -2.41212 2.50423 0
M  V30 3284 H 320.314 -2.19322 3.34272 0
M  V30 3285 H 321.754 -3.11927 2.87189 0
M  V30 3286 C 320.213 -3.0705 1.38644 0
M  V30 3287 O 320.743 -3.95056 0.727582 0
M  V30 3288 N 318.949 -2.67645 1.132 0
M  V30 3289 H 318.496 -1.96169 1.66959 0
M  V30 3290 H 318.454 -3.1202 0.386147 0
M  V30 3291 N 322.226 -1.5378 -0.344866 0
M  V30 3292 C 323.456 -1.74646 -1.10374 0
M  V30 3293 C 323.864 -0.48491 -1.8288 0
M  V30 3294 O 323.207 0.553062 -1.75177 0
M  V30 3295 C 323.269 -2.87145 -2.16306 0
M  V30 3296 C 322.933 -4.26795 -1.63386 0
M  V30 3297 C 323.93 -5.08412 -1.08688 0
M  V30 3298 C 321.615 -4.73276 -1.68272 0
M  V30 3299 C 323.609 -6.34609 -0.595792 0
M  V30 3300 C 321.296 -5.99446 -1.18776 0
M  V30 3301 C 322.294 -6.79946 -0.645215 0
M  V30 3302 O 321.982 -8.03745 -0.157626 0
M  V30 3303 H 321.714 -0.587112 -0.335075 0
M  V30 3304 H 324.268 -2.01403 -0.403252 0
M  V30 3305 H 322.498 -2.55909 -2.89909 0
M  V30 3306 H 324.187 -2.95992 -2.77747 0
M  V30 3307 H 324.953 -4.73666 -1.04236 0
M  V30 3308 H 320.832 -4.10677 -2.09442 0
M  V30 3309 H 324.376 -6.97389 -0.171654 0
M  V30 3310 H 320.273 -6.33687 -1.22928 0
M  V30 3311 H 321.041 -8.18038 -0.275037 0
M  V30 3312 N 323.704 0.605807 -1.45491 0
M  V30 3313 C 324.652 1.73754 -1.54636 0
M  V30 3314 C 325.646 1.64207 -0.416219 0
M  V30 3315 O 326.852 1.69979 -0.592199 0
M  V30 3316 H 323.227 0.574073 -0.485741 0
M  V30 3317 H 325.198 1.63169 -2.49837 0
M  V30 3318 C 323.947 3.12135 -1.53189 0
M  V30 3319 H 323.27 3.20141 -2.39478 0
M  V30 3320 H 324.71 3.91147 -1.63645 0
M  V30 3321 C 323.169 3.35921 -0.256616 0
M  V30 3322 O 323.699 3.96194 0.662798 0
M  V30 3323 N 321.905 2.90204 -0.151751 0
M  V30 3324 H 321.452 2.41336 -0.90081 0
M  V30 3325 H 321.41 3.06492 0.700699 0
M  V30 3326 N 325.182 1.32811 0.848464 0
M  V30 3327 C 326.145 1.22194 1.9391 0
M  V30 3328 C 327.145 0.143404 1.60159 0
M  V30 3329 O 328.335 0.394253 1.6968 0
M  V30 3330 C 325.467 0.88067 3.29328 0
M  V30 3331 H 326.66 2.19127 2.04752 0
M  V30 3332 H 324.213 1.16731 1.0394 0
M  V30 3333 H 324.948 -0.0865776 3.24184 0
M  V30 3334 H 324.733 1.66052 3.55203 0
M  V30 3335 H 326.223 0.830871 4.09251 0
M  V30 3336 N 326.66 -1.06551 1.16123 0
M  V30 3337 C 327.909 -1.78687 0.935622 0
M  V30 3338 C 328.222 -1.88056 -0.538001 0
M  V30 3339 O 329.428 -2.56794 -0.88143 0
M  V30 3340 C 327.884 -3.21143 1.62466 0
M  V30 3341 C 327.492 -3.19949 3.13587 0
M  V30 3342 C 329.236 -3.9783 1.48092 0
M  V30 3343 C 327.143 -4.57108 3.75241 0
M  V30 3344 H 326.073 -0.669712 0.346412 0
M  V30 3345 H 328.724 -1.19534 1.39226 0
M  V30 3346 H 327.106 -3.80539 1.09572 0
M  V30 3347 H 328.28 -2.70151 3.73303 0
M  V30 3348 H 326.595 -2.5676 3.27816 0
M  V30 3349 H 329.192 -4.99217 1.91538 0
M  V30 3350 H 329.535 -4.14078 0.429507 0
M  V30 3351 H 330.068 -3.4495 1.98127 0
M  V30 3352 H 326.807 -4.46065 4.80319 0
M  V30 3353 H 326.327 -5.07111 3.20309 0
M  V30 3354 H 328.006 -5.26069 3.76644 0
M  V30 3355 N 328.138 -0.959301 -1.25041 0
M  V30 3356 C 329.415 -0.533805 -1.88175 0
M  V30 3357 C 329.795 0.988994 -1.865 0
M  V30 3358 O 329.143 1.85677 -1.33177 0
M  V30 3359 C 329.353 -1.11575 -3.30684 0
M  V30 3360 C 330.701 -1.19548 -4.07423 0
M  V30 3361 O 331.725 -1.06765 -3.39823 0
M  V30 3362 O 330.584 -1.39656 -5.28354 0
M  V30 3363 H 327.678 -0.176772 -0.807887 0
M  V30 3364 H 330.224 -1.05303 -1.33076 0
M  V30 3365 H 328.996 -2.15884 -3.26358 0
M  V30 3366 H 328.619 -0.580059 -3.93346 0
M  V30 3367 N 329.616 1.39756 -0.72842 0
M  V30 3368 C 331.032 1.5442 -0.403308 0
M  V30 3369 C 331.232 1.69694 1.08656 0
M  V30 3370 O 330.288 1.69373 1.87267 0
M  V30 3371 C 331.601 2.76555 -1.18058 0
M  V30 3372 C 333.149 2.90384 -1.16815 0
M  V30 3373 C 333.624 4.15449 -1.92785 0
M  V30 3374 N 335.115 4.22475 -1.89918 0
M  V30 3375 C 335.85 5.1818 -2.45514 0
M  V30 3376 N 335.346 6.19714 -3.09719 0
M  V30 3377 N 337.139 5.1035 -2.35584 0
M  V30 3378 H 329.29 1.28089 -1.69431 0
M  V30 3379 H 331.553 0.620327 -0.716867 0
M  V30 3380 H 331.259 2.7159 -2.23455 0
M  V30 3381 H 331.133 3.69033 -0.780662 0
M  V30 3382 H 333.52 2.94846 -0.12234 0
M  V30 3383 H 333.601 1.98988 -1.6074 0
M  V30 3384 H 333.245 4.11749 -2.97364 0
M  V30 3385 H 333.175 5.05877 -1.46272 0
M  V30 3386 H 335.666 3.49743 -1.43138 0
M  V30 3387 H 335.979 6.8919 -3.49625 0
M  V30 3388 H 334.324 6.20121 -3.13807 0
M  V30 3389 H 337.515 4.2996 -1.85072 0
M  V30 3390 H 337.688 5.84761 -2.79211 0
M  V30 3391 N 331.094 0.475555 1.50254 0
M  V30 3392 C 332.057 -0.305016 2.27161 0
M  V30 3393 C 333.057 -0.916519 1.32123 0
M  V30 3394 O 334.247 -0.785003 1.5551 0
M  V30 3395 C 331.379 -1.43496 3.09227 0
M  V30 3396 H 332.572 0.369511 2.97615 0
M  V30 3397 H 330.125 0.229747 1.54602 0
M  V30 3398 H 330.86 -2.14441 2.43281 0
M  V30 3399 H 330.645 -1.00223 3.79075 0
M  V30 3400 H 332.135 -1.98548 3.67381 0
M  V30 3401 N 332.573 -1.56217 0.208337 0
M  V30 3402 C 333.52 -2.19699 -0.707192 0
M  V30 3403 C 334.49 -1.14836 -1.20008 0
M  V30 3404 O 335.675 -1.4314 -1.26157 0
M  V30 3405 C 332.815 -2.87061 -1.91546 0
M  V30 3406 C 331.928 -4.06483 -1.46271 0
M  V30 3407 C 331.063 -4.61665 -2.62752 0
M  V30 3408 C 330.102 -5.73417 -2.14147 0
M  V30 3409 N 329.239 -6.22948 -3.23853 0
M  V30 3410 H 334.079 -2.97575 -0.159111 0
M  V30 3411 H 331.616 -1.46948 -0.0667874 0
M  V30 3412 H 333.574 -3.24294 -2.62468 0
M  V30 3413 H 332.204 -2.11725 -2.43664 0
M  V30 3414 H 331.256 -3.74825 -0.648886 0
M  V30 3415 H 332.568 -4.87271 -1.06622 0
M  V30 3416 H 331.722 -5.01272 -3.41776 0
M  V30 3417 H 330.461 -3.80013 -3.05682 0
M  V30 3418 H 329.466 -5.33326 -1.33581 0
M  V30 3419 H 330.691 -6.56897 -1.72232 0
M  V30 3420 H 328.637 -5.44213 -3.6629 0
M  V30 3421 H 328.554 -6.98823 -2.88414 0
M  V30 3422 H 329.822 -6.6721 -4.03052 0
M  V30 3423 N 334.051 0.0651679 -1.57465 0
M  V30 3424 C 335.276 0.779605 -1.9219 0
M  V30 3425 C 335.701 1.69988 -0.805333 0
M  V30 3426 O 335.059 1.79685 0.241435 0
M  V30 3427 C 335.107 1.54364 -3.2589 0
M  V30 3428 O 334.211 2.65474 -3.1559 0
M  V30 3429 H 333.552 0.212249 -0.629163 0
M  V30 3430 H 336.082 0.0314294 -2.04576 0
M  V30 3431 H 336.092 1.92146 -3.59922 0
M  V30 3432 H 334.767 0.868457 -4.06732 0
M  V30 3433 H 333.344 2.30501 -2.93128 0
M  V30 3434 N 335.529 1.53961 0.336706 0
M  V30 3435 C 336.945 1.44378 0.680241 0
M  V30 3436 C 337.145 0.606034 1.9217 0
M  V30 3437 O 336.201 0.099688 2.52303 0
M  V30 3438 C 337.514 2.87945 0.8665 0
M  V30 3439 C 339.062 2.97763 0.964682 0
M  V30 3440 C 339.537 4.42453 1.18321 0
M  V30 3441 N 341.028 4.46008 1.25025 0
M  V30 3442 C 341.763 5.55102 1.43697 0
M  V30 3443 N 341.259 6.7419 1.59498 0
M  V30 3444 N 343.052 5.42727 1.463 0
M  V30 3445 H 335.203 2.06918 -0.479455 0
M  V30 3446 H 337.466 0.935634 -0.152619 0
M  V30 3447 H 337.172 3.51691 0.0256937 0
M  V30 3448 H 337.046 3.33293 1.76623 0
M  V30 3449 H 339.433 2.34153 1.796 0
M  V30 3450 H 339.514 2.55766 0.041708 0
M  V30 3451 H 339.158 5.06645 0.356788 0
M  V30 3452 H 339.088 4.82048 2.11985 0
M  V30 3453 H 341.579 3.60196 1.14312 0
M  V30 3454 H 341.892 7.53095 1.734 0
M  V30 3455 H 340.237 6.77123 1.56621 0
M  V30 3456 H 343.428 4.48647 1.33543 0
M  V30 3457 H 343.601 6.27806 1.6051 0
M  V30 3458 N 337.007 -0.598083 1.45811 0
M  V30 3459 C 338.255 -1.35413 1.50026 0
M  V30 3460 C 338.576 -1.94444 0.147177 0
M  V30 3461 O 337.846 -1.77701 -0.824571 0
M  V30 3462 H 336.426 -0.502727 0.552517 0
M  V30 3463 H 339.088 -0.701606 1.81834 0
M  V30 3464 H 338.184 -2.16871 2.2444 0
M  V30 3465 N 338.485 -1.33259 -0.841409 0
M  V30 3466 C 339.432 -1.23302 -1.95103 0
M  V30 3467 C 340.402 -0.112204 -1.65721 0
M  V30 3468 O 341.587 -0.290038 -1.88583 0
M  V30 3469 C 338.727 -0.975583 -3.31023 0
M  V30 3470 C 337.84 -2.18243 -3.72819 0
M  V30 3471 C 336.975 -1.85936 -4.97595 0
M  V30 3472 C 336.014 -3.02866 -5.3192 0
M  V30 3473 N 335.151 -2.70565 -6.47873 0
M  V30 3474 H 339.991 -2.18207 -2.02952 0
M  V30 3475 H 337.528 -1.0851 -0.993173 0
M  V30 3476 H 339.486 -0.80677 -4.09325 0
M  V30 3477 H 338.116 -0.0632755 -3.22738 0
M  V30 3478 H 337.168 -2.46107 -2.90061 0
M  V30 3479 H 338.48 -3.05666 -3.94169 0
M  V30 3480 H 337.634 -1.65684 -5.83638 0
M  V30 3481 H 336.373 -0.957452 -4.78209 0
M  V30 3482 H 335.378 -3.23736 -4.44382 0
M  V30 3483 H 336.603 -3.93809 -5.53255 0
M  V30 3484 H 334.549 -1.8293 -6.29978 0
M  V30 3485 H 334.466 -3.51519 -6.69306 0
M  V30 3486 H 335.734 -2.53774 -7.37034 0
M  V30 3487 N 339.963 1.05934 -1.16686 0
M  V30 3488 C 340.91 2.13499 -0.876748 0
M  V30 3489 C 341.88 1.65162 0.176299 0
M  V30 3490 O 343.065 1.90757 0.0407143 0
M  V30 3491 C 340.205 3.42912 -0.387967 0
M  V30 3492 C 339.318 4.04964 -1.50426 0
M  V30 3493 C 338.453 5.22266 -0.970125 0
M  V30 3494 C 337.492 5.76309 -2.06238 0
M  V30 3495 N 336.629 6.84922 -1.54356 0
M  V30 3496 H 341.469 2.37654 -1.7979 0
M  V30 3497 H 339.006 1.16598 -0.896843 0
M  V30 3498 H 340.964 4.17111 -0.086186 0
M  V30 3499 H 339.594 3.18963 0.496235 0
M  V30 3500 H 338.646 3.28277 -1.92193 0
M  V30 3501 H 339.958 4.41122 -2.32836 0
M  V30 3502 H 339.112 6.03506 -0.621743 0
M  V30 3503 H 337.851 4.87564 -0.115377 0
M  V30 3504 H 336.856 4.93704 -2.41942 0
M  V30 3505 H 338.081 6.13062 -2.92115 0
M  V30 3506 H 336.027 6.52131 -0.711406 0
M  V30 3507 H 335.944 7.20043 -2.30379 0
M  V30 3508 H 337.212 7.69832 -1.22387 0
M  V30 3509 N 341.441 0.965919 1.2453 0
M  V30 3510 C 342.671 0.643451 1.96324 0
M  V30 3511 C 343.079 -0.790927 1.71875 0
M  V30 3512 O 342.422 -1.54208 0.998273 0
M  V30 3513 C 342.484 0.836078 3.49643 0
M  V30 3514 C 342.148 2.24975 3.97788 0
M  V30 3515 C 343.145 3.22735 4.07601 0
M  V30 3516 C 340.83 2.57697 4.31158 0
M  V30 3517 C 342.824 4.51303 4.50116 0
M  V30 3518 C 340.511 3.86492 4.73357 0
M  V30 3519 C 341.509 4.83107 4.828 0
M  V30 3520 O 341.197 6.09605 5.24058 0
M  V30 3521 H 340.929 0.239223 0.632257 0
M  V30 3522 H 343.483 1.29587 1.59362 0
M  V30 3523 H 341.713 0.12649 3.86493 0
M  V30 3524 H 343.402 0.512965 4.02646 0
M  V30 3525 H 344.168 2.98783 3.82039 0
M  V30 3526 H 340.047 1.83216 4.23028 0
M  V30 3527 H 343.591 5.26716 4.57401 0
M  V30 3528 H 339.488 4.10245 4.98366 0
M  V30 3529 H 340.256 6.13146 5.42213 0
M  V30 3530 N 342.919 -1.39368 0.735821 0
M  V30 3531 C 343.882 -2.2896 0.104874 0
M  V30 3532 C 344.882 -1.46347 -0.666274 0
M  V30 3533 O 346.072 -1.67014 -0.49517 0
M  V30 3534 C 343.204 -3.29857 -0.860656 0
M  V30 3535 H 344.397 -2.86259 0.894205 0
M  V30 3536 H 341.95 -1.48029 0.501704 0
M  V30 3537 H 342.685 -2.77615 -1.67631 0
M  V30 3538 H 342.47 -3.9087 -0.310327 0
M  V30 3539 H 343.96 -3.96893 -1.29867 0
M  V30 3540 N 344.397 -0.483516 -1.5 0
M  V30 3541 C 345.327 0.293829 -2.31644 0
M  V30 3542 C 346.308 0.978864 -1.39112 0
M  V30 3543 O 347.493 0.973644 -1.68029 0
M  V30 3544 C 344.623 1.36897 -3.19181 0
M  V30 3545 C 343.577 0.804833 -4.20365 0
M  V30 3546 C 342.903 1.9792 -4.96721 0
M  V30 3547 C 344.203 -0.192313 -5.21946 0
M  V30 3548 H 345.897 -0.387616 -2.9688 0
M  V30 3549 H 343.443 -0.187856 -1.42769 0
M  V30 3550 H 345.396 1.92037 -3.751 0
M  V30 3551 H 344.12 2.07936 -2.51853 0
M  V30 3552 H 342.779 0.275319 -3.65565 0
M  V30 3553 H 342.427 2.67686 -4.25856 0
M  V30 3554 H 342.127 1.60789 -5.65173 0
M  V30 3555 H 343.651 2.53526 -5.55479 0
M  V30 3556 H 345.065 0.270333 -5.72662 0
M  V30 3557 H 343.462 -0.478543 -5.98189 0
M  V30 3558 H 344.532 -1.11409 -4.71928 0
M  V30 3559 N 345.875 1.56104 -0.216619 0
M  V30 3560 C 346.785 2.23694 0.706982 0
M  V30 3561 C 347.801 1.24295 1.21765 0
M  V30 3562 O 348.977 1.57094 1.2603 0
M  V30 3563 C 346.042 2.8998 1.90033 0
M  V30 3564 C 345.103 4.04708 1.43213 0
M  V30 3565 C 344.336 4.67824 2.56859 0
M  V30 3566 O 344.559 4.29913 3.74874 0
M  V30 3567 O 343.493 5.56905 2.28343 0
M  V30 3568 H 347.319 3.03272 0.161235 0
M  V30 3569 H 344.904 1.49394 0.0136177 0
M  V30 3570 H 346.786 3.31837 2.59735 0
M  V30 3571 H 345.461 2.13365 2.43428 0
M  V30 3572 H 344.368 3.6743 0.70327 0
M  V30 3573 H 345.701 4.83051 0.944615 0
M  V30 3574 N 347.353 -0.0568162 1.57498 0
M  V30 3575 C 348.3 -1.06591 2.04712 0
M  V30 3576 C 349.27 -1.3758 0.930644 0
M  V30 3577 O 350.455 -1.48392 1.19935 0
M  V30 3578 C 347.595 -2.3701 2.50839 0
M  V30 3579 C 346.708 -2.12421 3.76167 0
M  V30 3580 C 345.843 -3.36511 4.11015 0
M  V30 3581 C 344.882 -3.07353 5.2934 0
M  V30 3582 N 344.019 -4.23816 5.59754 0
M  V30 3583 H 348.859 -0.65631 2.90683 0
M  V30 3584 H 346.396 -0.312481 1.43743 0
M  V30 3585 H 348.354 -3.13175 2.7564 0
M  V30 3586 H 346.984 -2.75744 1.67825 0
M  V30 3587 H 346.036 -1.2688 3.58616 0
M  V30 3588 H 347.348 -1.86894 4.62463 0
M  V30 3589 H 346.502 -4.21062 4.36797 0
M  V30 3590 H 345.241 -3.65128 3.23315 0
M  V30 3591 H 344.246 -2.212 5.03339 0
M  V30 3592 H 345.471 -2.80043 6.1867 0
M  V30 3593 H 343.417 -4.52436 4.75014 0
M  V30 3594 H 343.334 -4.01614 6.40501 0
M  V30 3595 H 344.602 -5.0932 5.90096 0
M  V30 3596 N 348.832 -1.54138 -0.328536 0
M  V30 3597 C 350.078 -1.7236 -1.06865 0
M  V30 3598 C 350.411 -0.493231 -1.87832 0
M  V30 3599 O 349.686 0.5098 -1.877 0
M  V30 3600 C 349.969 -2.99621 -1.99747 0
M  V30 3601 C 349.822 -4.32899 -1.22143 0
M  V30 3602 C 351.141 -3.22615 -2.99345 0
M  V30 3603 H 348.26 -0.627151 -0.387105 0
M  V30 3604 H 350.902 -1.86827 -0.345767 0
M  V30 3605 H 349.052 -2.87418 -2.61387 0
M  V30 3606 H 350.724 -4.56978 -0.630017 0
M  V30 3607 H 348.967 -4.30628 -0.523628 0
M  V30 3608 H 349.638 -5.18154 -1.90318 0
M  V30 3609 H 352.114 -3.34248 -2.47826 0
M  V30 3610 H 350.99 -4.13027 -3.61524 0
M  V30 3611 H 351.251 -2.3961 -3.71536 0
M  V30 3612 N 350.31 0.590341 -1.46126 0
M  V30 3613 C 351.721 1.17243 -1.45296 0
M  V30 3614 C 352.072 1.95281 -0.189723 0
M  V30 3615 O 351.197 2.04502 0.707674 0
M  V30 3616 C 351.792 2.13284 -2.6324 0
M  V30 3617 C 350.351 2.66832 -2.65476 0
M  V30 3618 C 349.498 1.42557 -2.3785 0
M  V30 3619 H 352.449 0.378692 -1.54116 0
M  V30 3620 H 352.47 2.96619 -2.38323 0
M  V30 3621 H 351.982 1.56459 -3.55165 0
M  V30 3622 H 350.083 3.27548 -1.77603 0
M  V30 3623 H 350.196 3.10088 -3.65215 0
M  V30 3624 H 348.56 1.72107 -1.87753 0
M  V30 3625 H 349.343 0.875741 -3.31942 0
M  V30 3626 N 351.788 1.33704 0.83433 0
M  V30 3627 C 352.735 1.24335 1.94447 0
M  V30 3628 C 353.705 0.120991 1.65659 0
M  V30 3629 O 354.89 0.300035 1.88426 0
M  V30 3630 C 352.03 0.993124 3.30501 0
M  V30 3631 C 351.143 2.20217 3.71657 0
M  V30 3632 C 350.278 1.88572 4.96602 0
M  V30 3633 C 349.317 3.05683 5.30306 0
M  V30 3634 N 348.454 2.73997 6.46429 0
M  V30 3635 H 353.294 2.1928 2.01792 0
M  V30 3636 H 350.831 1.09035 0.987404 0
M  V30 3637 H 352.789 0.828467 4.08892 0
M  V30 3638 H 351.419 0.0803902 3.227 0
M  V30 3639 H 350.471 2.47642 2.88752 0
M  V30 3640 H 351.783 3.07752 3.92543 0
M  V30 3641 H 350.937 1.68776 5.82752 0
M  V30 3642 H 349.676 0.982799 4.77695 0
M  V30 3643 H 348.681 3.26088 4.42659 0
M  V30 3644 H 349.906 3.96737 5.51159 0
M  V30 3645 H 347.852 1.86268 6.28999 0
M  V30 3646 H 347.769 3.55064 6.67432 0
M  V30 3647 H 349.037 2.57679 7.35678 0
M  V30 3648 N 353.266 -1.05314 1.17247 0
M  V30 3649 C 354.512 -1.78557 0.961513 0
M  V30 3650 C 354.845 -1.87419 -0.508697 0
M  V30 3651 O 354.12 -1.37307 -1.37757 0
M  V30 3652 C 354.403 -3.22514 1.60176 0
M  V30 3653 C 354.256 -3.21673 3.14399 0
M  V30 3654 C 355.575 -4.20318 1.30463 0
M  V30 3655 H 352.694 -0.6482 0.350723 0
M  V30 3656 H 355.336 -1.23102 1.44727 0
M  V30 3657 H 353.486 -3.69867 1.18871 0
M  V30 3658 H 355.158 -2.82405 3.64753 0
M  V30 3659 H 353.401 -2.60048 3.47214 0
M  V30 3660 H 354.072 -4.23271 3.54324 0
M  V30 3661 H 356.548 -3.81454 1.66229 0
M  V30 3662 H 355.424 -5.19289 1.77848 0
M  V30 3663 H 355.685 -4.41526 0.22521 0
M  V30 3664 N 354.744 -0.972509 -1.24016 0
M  V30 3665 C 355.992 -0.635776 -1.91839 0
M  V30 3666 C 356.313 0.832312 -1.76345 0
M  V30 3667 O 355.583 1.5946 -1.13795 0
M  V30 3668 H 354.163 -0.232157 -0.710009 0
M  V30 3669 H 356.825 -1.23462 -1.50809 0
M  V30 3670 H 355.921 -0.880545 -2.99421 0
M  V30 3671 N 356.222 1.38976 -0.743202 0
M  V30 3672 C 357.638 1.53984 -0.419664 0
M  V30 3673 C 357.838 1.70837 1.0685 0
M  V30 3674 O 356.894 1.7135 1.8546 0
M  V30 3675 C 358.207 2.75287 -1.20985 0
M  V30 3676 C 359.755 2.89129 -1.19889 0
M  V30 3677 C 360.23 4.13381 -1.97181 0
M  V30 3678 N 361.721 4.20437 -1.94389 0
M  V30 3679 C 362.456 5.15547 -2.50996 0
M  V30 3680 N 361.952 6.16395 -3.16274 0
M  V30 3681 N 363.745 5.07822 -2.40984 0
M  V30 3682 H 355.896 1.26285 -1.7078 0
M  V30 3683 H 358.159 0.612689 -0.723406 0
M  V30 3684 H 357.865 2.69204 -2.26323 0
M  V30 3685 H 357.739 3.68184 -0.819759 0
M  V30 3686 H 360.126 2.947 -0.153606 0
M  V30 3687 H 360.207 1.97272 -1.62841 0
M  V30 3688 H 359.851 4.08572 -3.01714 0
M  V30 3689 H 359.781 5.04298 -1.51629 0
M  V30 3690 H 362.272 3.48205 -1.46839 0
M  V30 3691 H 362.585 6.85443 -3.56915 0
M  V30 3692 H 360.93 6.16758 -3.20367 0
M  V30 3693 H 364.121 4.27973 -1.89622 0
M  V30 3694 H 364.294 5.81767 -2.85397 0
M  V30 3695 N 357.7 0.491464 1.49741 0
M  V30 3696 C 358.647 -0.292027 2.28945 0
M  V30 3697 C 359.617 -0.968973 1.34908 0
M  V30 3698 O 360.802 -0.97748 1.6386 0
M  V30 3699 C 357.942 -1.35617 3.17336 0
M  V30 3700 C 357.055 -0.691957 4.26422 0
M  V30 3701 C 356.19 -1.73572 5.02042 0
M  V30 3702 C 355.229 -1.05286 6.02977 0
M  V30 3703 N 354.366 -2.0404 6.71798 0
M  V30 3704 H 359.206 0.389654 2.95442 0
M  V30 3705 H 356.743 0.204003 1.45679 0
M  V30 3706 H 358.701 -1.98502 3.66951 0
M  V30 3707 H 357.331 -2.00674 2.52844 0
M  V30 3708 H 356.383 0.0499523 3.80367 0
M  V30 3709 H 357.695 -0.153946 4.98562 0
M  V30 3710 H 356.849 -2.43987 5.55478 0
M  V30 3711 H 355.588 -2.30757 4.29654 0
M  V30 3712 H 354.593 -0.334446 5.48782 0
M  V30 3713 H 355.818 -0.487636 6.77347 0
M  V30 3714 H 353.764 -2.60205 6.02187 0
M  V30 3715 H 353.681 -1.55279 7.39881 0
M  V30 3716 H 354.949 -2.73772 7.29842 0
M  V30 3717 N 359.178 -1.55987 0.224894 0
M  V30 3718 C 360.425 -1.9839 -0.4059 0
M  V30 3719 C 360.753 -1.11261 -1.59535 0
M  V30 3720 O 360.008 -0.158314 -1.95059 0
M  V30 3721 C 360.307 -3.46394 -0.880106 0
M  V30 3722 C 359.973 -4.5046 0.19918 0
M  V30 3723 C 358.635 -4.7864 0.495661 0
M  V30 3724 C 360.987 -5.12855 0.928939 0
M  V30 3725 C 358.315 -5.66497 1.52636 0
M  V30 3726 C 360.667 -6.01828 1.949 0
M  V30 3727 C 359.331 -6.28351 2.25236 0
M  V30 3728 H 358.601 -0.725961 -0.148529 0
M  V30 3729 H 361.248 -1.88668 0.328113 0
M  V30 3730 H 359.553 -3.53337 -1.69294 0
M  V30 3731 H 361.25 -3.76577 -1.37808 0
M  V30 3732 H 357.84 -4.28579 -0.0420526 0
M  V30 3733 H 362.024 -4.9115 0.713129 0
M  V30 3734 H 357.28 -5.8531 1.76698 0
M  V30 3735 H 361.454 -6.49225 2.51951 0
M  V30 3736 H 359.081 -6.96226 3.05244 0
M  V30 3737 N 360.656 0.0484629 -1.57525 0
M  V30 3738 C 361.606 1.06246 -2.01732 0
M  V30 3739 C 362.59 1.33155 -0.903245 0
M  V30 3740 O 363.782 1.33065 -1.16717 0
M  V30 3741 C 360.911 2.36943 -2.48421 0
M  V30 3742 C 359.997 2.13208 -3.6661 0
M  V30 3743 N 360.388 1.5947 -4.80003 0
M  V30 3744 C 358.686 2.43581 -3.7361 0
M  V30 3745 C 359.387 1.51092 -5.61735 0
M  V30 3746 N 358.363 1.9797 -5.0627 0
M  V30 3747 H 362.165 0.640675 -2.86832 0
M  V30 3748 H 359.679 0.255134 -1.60383 0
M  V30 3749 H 361.676 3.10374 -2.78341 0
M  V30 3750 H 360.336 2.79818 -1.64718 0
M  V30 3751 H 361.347 1.28008 -5.01831 0
M  V30 3752 H 358.024 2.89662 -3.00669 0
M  V30 3753 H 359.414 1.10199 -6.62801 0
M  V30 3754 N 362.134 1.5431 0.320358 0
M  V30 3755 C 363.55 1.45091 0.664889 0
M  V30 3756 C 363.75 0.626382 1.91517 0
M  V30 3757 O 362.806 0.126443 2.52183 0
M  V30 3758 C 364.119 2.88848 0.83591 0
M  V30 3759 C 365.667 2.9877 0.933046 0
M  V30 3760 C 366.142 4.43683 1.13621 0
M  V30 3761 N 367.633 4.47309 1.20287 0
M  V30 3762 C 368.368 5.56595 1.37801 0
M  V30 3763 N 367.864 6.75844 1.52338 0
M  V30 3764 N 369.657 5.44248 1.40535 0
M  V30 3765 H 361.808 2.06398 -0.501374 0
M  V30 3766 H 364.071 0.933963 -0.162534 0
M  V30 3767 H 363.777 3.51698 -0.0116092 0
M  V30 3768 H 363.651 3.35148 1.73078 0
M  V30 3769 H 366.038 2.36045 1.77107 0
M  V30 3770 H 366.119 2.55796 0.0145782 0
M  V30 3771 H 365.763 5.06995 0.303032 0
M  V30 3772 H 365.693 4.84269 2.0686 0
M  V30 3773 H 368.184 3.61388 1.10485 0
M  V30 3774 H 368.497 7.54892 1.65403 0
M  V30 3775 H 366.842 6.78746 1.4943 0
M  V30 3776 H 370.033 4.50038 1.28777 0
M  V30 3777 H 370.206 6.29473 1.53842 0
M  V30 3778 N 363.613 -0.582584 1.46437 0
M  V30 3779 C 364.862 -1.337 1.5102 0
M  V30 3780 C 365.175 -1.94891 0.166359 0
M  V30 3781 O 366.381 -2.71351 0.0899954 0
M  V30 3782 C 364.837 -2.42315 2.66104 0
M  V30 3783 C 364.445 -1.87427 4.06909 0
M  V30 3784 C 366.189 -3.19099 2.79958 0
M  V30 3785 C 364.096 -2.93672 5.13333 0
M  V30 3786 H 363.026 -0.502619 0.562041 0
M  V30 3787 H 365.677 -0.621701 1.72647 0
M  V30 3788 H 364.059 -3.16645 2.37807 0
M  V30 3789 H 365.233 -1.19639 4.44998 0
M  V30 3790 H 363.548 -1.2331 3.97723 0
M  V30 3791 H 366.145 -3.9839 3.56636 0
M  V30 3792 H 366.488 -3.71695 1.87479 0
M  V30 3793 H 367.021 -2.51875 3.07902 0
M  V30 3794 H 363.76 -2.45962 6.07604 0
M  V30 3795 H 363.28 -3.59948 4.79789 0
M  V30 3796 H 364.959 -3.5762 5.39182 0
M  V30 3797 N 365.091 -1.34144 -0.827227 0
M  V30 3798 C 366.339 -1.26009 -1.58007 0
M  V30 3799 C 366.66 0.170971 -1.94249 0
M  V30 3800 O 365.93 1.10256 -1.61927 0
M  V30 3801 H 364.51 -0.463414 -0.585881 0
M  V30 3802 H 367.172 -1.68005 -0.987951 0
M  V30 3803 H 366.268 -1.86187 -2.50481 0
M  V30 3804 N 366.569 1.04691 -1.17803 0
M  V30 3805 C 367.499 2.14494 -0.92275 0
M  V30 3806 C 368.48 1.69546 0.137179 0
M  V30 3807 O 369.665 1.94195 -0.0141108 0
M  V30 3808 C 366.795 3.44491 -0.440803 0
M  V30 3809 C 365.749 4.03031 -1.4405 0
M  V30 3810 C 365.075 5.28432 -0.81631 0
M  V30 3811 C 366.375 4.39932 -2.81527 0
M  V30 3812 H 368.069 2.36107 -1.84103 0
M  V30 3813 H 365.615 1.1347 -0.886599 0
M  V30 3814 H 367.568 4.2066 -0.249602 0
M  V30 3815 H 366.292 3.22546 0.513025 0
M  V30 3816 H 364.951 3.28937 -1.61853 0
M  V30 3817 H 364.599 5.02792 0.144511 0
M  V30 3818 H 364.299 5.68559 -1.48371 0
M  V30 3819 H 365.823 6.07284 -0.635496 0
M  V30 3820 H 367.237 5.07113 -2.67412 0
M  V30 3821 H 365.634 4.9109 -3.44892 0
M  V30 3822 H 366.704 3.50045 -3.35554 0
M  V30 3823 N 368.047 0.979072 1.23499 0
M  V30 3824 C 369.458 0.684391 1.73704 0
M  V30 3825 C 369.809 -0.799448 1.79174 0
M  V30 3826 O 368.934 -1.62531 1.42873 0
M  V30 3827 C 369.529 1.23564 3.15464 0
M  V30 3828 C 368.088 0.99063 3.6313 0
M  V30 3829 C 367.235 1.36416 2.41425 0
M  V30 3830 H 370.186 1.15307 1.09041 0
M  V30 3831 H 370.207 0.607417 3.7562 0
M  V30 3832 H 369.719 2.31561 3.1145 0
M  V30 3833 H 367.82 -0.0733136 3.72528 0
M  V30 3834 H 367.933 1.64427 4.5 0
M  V30 3835 H 366.297 0.782616 2.42378 0
M  V30 3836 H 367.08 2.45387 2.40083 0
M  V30 3837 N 369.525 -1.3858 0.750561 0
M  V30 3838 C 370.936 -1.82927 0.373438 0
M  V30 3839 C 371.287 -1.62634 -1.09748 0
M  V30 3840 O 370.412 -1.12588 -1.84805 0
M  V30 3841 C 371.007 -3.32088 0.671029 0
M  V30 3842 C 369.566 -3.74795 0.34722 0
M  V30 3843 C 368.713 -2.61391 0.92575 0
M  V30 3844 H 371.664 -1.27351 0.946958 0
M  V30 3845 H 371.685 -3.80465 -0.0518269 0
M  V30 3846 H 371.197 -3.46826 1.74164 0
M  V30 3847 H 369.298 -3.65638 -0.716933 0
M  V30 3848 H 369.411 -4.71667 0.840656 0
M  V30 3849 H 367.775 -2.52265 0.351327 0
M  V30 3850 H 368.558 -2.78929 2.00133 0
M  V30 3851 N 371.003 -0.499398 -1.49478 0
M  V30 3852 C 371.95 0.279881 -2.29097 0
M  V30 3853 C 372.92 0.961805 -1.3542 0
M  V30 3854 O 374.105 0.968777 -1.64376 0
M  V30 3855 C 371.245 1.33932 -3.18051 0
M  V30 3856 C 370.358 0.669333 -4.26783 0
M  V30 3857 C 369.493 1.70907 -5.02955 0
M  V30 3858 C 368.532 1.02087 -6.03527 0
M  V30 3859 N 367.669 2.00474 -6.7287 0
M  V30 3860 H 372.509 -0.405317 -2.95231 0
M  V30 3861 H 370.046 -0.211726 -1.45568 0
M  V30 3862 H 372.004 1.96553 -3.67998 0
M  V30 3863 H 370.634 1.9933 -2.53904 0
M  V30 3864 H 369.686 -0.0701234 -3.80335 0
M  V30 3865 H 370.998 0.127503 -4.98637 0
M  V30 3866 H 370.152 2.41037 -5.56764 0
M  V30 3867 H 368.891 2.28476 -4.30871 0
M  V30 3868 H 367.896 0.305338 -5.48951 0
M  V30 3869 H 369.121 0.451708 -6.77596 0
M  V30 3870 H 367.067 2.57007 -6.03559 0
M  V30 3871 H 366.984 1.51353 -7.40694 0
M  V30 3872 H 368.252 2.69897 -7.31284 0
M  V30 3873 N 372.481 1.55866 -0.233164 0
M  V30 3874 C 373.73 1.97779 0.39579 0
M  V30 3875 C 374.043 1.12419 1.60066 0
M  V30 3876 O 375.249 1.44283 2.29988 0
M  V30 3877 C 373.705 3.5188 0.755556 0
M  V30 3878 C 373.313 4.45959 -0.427152 0
M  V30 3879 C 375.057 4.02479 1.34946 0
M  V30 3880 C 372.964 5.91383 -0.0443043 0
M  V30 3881 H 371.894 0.738592 0.15165 0
M  V30 3882 H 374.545 1.80486 -0.331212 0
M  V30 3883 H 372.927 3.64816 1.5403 0
M  V30 3884 H 374.101 4.44776 -1.20462 0
M  V30 3885 H 372.416 4.05765 -0.935068 0
M  V30 3886 H 375.013 5.08637 1.649 0
M  V30 3887 H 375.356 3.49014 2.26925 0
M  V30 3888 H 375.889 3.92813 0.62791 0
M  V30 3889 H 372.628 6.48857 -0.930874 0
M  V30 3890 H 372.148 5.95734 0.697238 0
M  V30 3891 H 373.827 6.45893 0.378334 0
M  V30 3892 N 373.959 -0.0401083 1.57549 0
M  V30 3893 C 375.207 -0.731677 1.8839 0
M  V30 3894 C 375.528 -1.76481 0.829425 0
M  V30 3895 O 374.798 -1.95411 -0.1383 0
M  V30 3896 H 373.378 -0.273225 0.695239 0
M  V30 3897 H 376.04 -0.00867725 1.94898 0
M  V30 3898 H 375.136 -1.22816 2.86919 0
M  V30 3899 N 375.437 -1.54477 -0.31217 0
M  V30 3900 C 376.662 -1.77526 -1.07235 0
M  V30 3901 C 377.087 -0.527775 -1.80544 0
M  V30 3902 O 376.445 0.52121 -1.73646 0
M  V30 3903 C 376.493 -2.97535 -2.03728 0
M  V30 3904 O 375.597 -2.69878 -3.11833 0
M  V30 3905 H 374.938 -0.58792 -0.30862 0
M  V30 3906 H 377.468 -2.01532 -0.352993 0
M  V30 3907 H 377.478 -3.25198 -2.46395 0
M  V30 3908 H 376.153 -3.87996 -1.49774 0
M  V30 3909 H 374.73 -2.53199 -2.7376 0
M  V30 3910 N 376.915 0.57481 -1.46744 0
M  V30 3911 C 378.162 1.33272 -1.52462 0
M  V30 3912 C 378.49 1.93669 -0.179572 0
M  V30 3913 O 377.745 1.7743 0.825664 0
M  V30 3914 C 378.044 2.476 -2.57738 0
M  V30 3915 C 377.71 2.05146 -4.01529 0
M  V30 3916 C 376.372 1.93284 -4.40676 0
M  V30 3917 C 378.724 1.72506 -4.91824 0
M  V30 3918 C 376.052 1.47049 -5.67973 0
M  V30 3919 C 378.404 1.27748 -6.19567 0
M  V30 3920 C 377.068 1.14468 -6.57612 0
M  V30 3921 H 376.338 0.487678 -0.557899 0
M  V30 3922 H 378.985 0.646456 -1.80259 0
M  V30 3923 H 377.29 3.21708 -2.23632 0
M  V30 3924 H 378.987 3.05807 -2.5939 0
M  V30 3925 H 375.577 2.15316 -3.7059 0
M  V30 3926 H 379.761 1.80552 -4.62293 0
M  V30 3927 H 375.017 1.35417 -5.96215 0
M  V30 3928 H 379.191 1.01547 -6.88957 0
M  V30 3929 H 376.818 0.78419 -7.56145 0
M  V30 3930 N 378.394 1.34581 0.820102 0
M  V30 3931 C 379.326 1.22236 1.93884 0
M  V30 3932 C 380.339 0.148776 1.62119 0
M  V30 3933 O 381.528 0.400877 1.7394 0
M  V30 3934 C 378.628 0.856542 3.27897 0
M  V30 3935 C 377.801 2.02569 3.87666 0
M  V30 3936 C 376.86 1.63782 5.00062 0
M  V30 3937 O 375.886 2.35477 5.18208 0
M  V30 3938 N 377.088 0.553611 5.77854 0
M  V30 3939 H 379.853 2.18615 2.05006 0
M  V30 3940 H 377.414 1.27573 0.99683 0
M  V30 3941 H 379.406 0.578806 4.0054 0
M  V30 3942 H 377.976 -0.0171518 3.12595 0
M  V30 3943 H 377.196 2.468 3.07382 0
M  V30 3944 H 378.484 2.80752 4.24329 0
M  V30 3945 H 377.882 -0.0423528 5.65684 0
M  V30 3946 H 376.439 0.335614 6.50935 0
M  V30 3947 N 379.872 -1.04064 1.18357 0
M  V30 3948 C 380.802 -2.14001 0.934113 0
M  V30 3949 C 381.783 -1.69616 -0.128186 0
M  V30 3950 O 382.968 -1.94185 0.0244093 0
M  V30 3951 C 380.098 -3.44253 0.459066 0
M  V30 3952 C 379.052 -4.02261 1.46185 0
M  V30 3953 C 378.378 -5.27992 0.844322 0
M  V30 3954 C 379.678 -4.38432 2.83856 0
M  V30 3955 H 381.372 -2.35127 1.85352 0
M  V30 3956 H 378.918 -1.12998 0.892604 0
M  V30 3957 H 380.871 -4.20522 0.271907 0
M  V30 3958 H 379.595 -3.22813 -0.495912 0
M  V30 3959 H 378.254 -3.28074 1.63595 0
M  V30 3960 H 377.902 -5.02862 -0.117845 0
M  V30 3961 H 377.602 -5.67765 1.51384 0
M  V30 3962 H 379.126 -6.06938 0.667693 0
M  V30 3963 H 380.54 -5.05688 2.70098 0
M  V30 3964 H 378.937 -4.89254 3.47491 0
M  V30 3965 H 380.007 -3.4826 3.37406 0
M  V30 3966 N 381.35 -0.985608 -1.22978 0
M  V30 3967 C 382.597 -0.657386 -1.91532 0
M  V30 3968 C 382.925 0.809707 -1.76845 0
M  V30 3969 O 382.18 1.60021 -1.12658 0
M  V30 3970 C 382.479 -1.00014 -3.43121 0
M  V30 3971 C 382.145 -2.4583 -3.77993 0
M  V30 3972 C 380.807 -2.85679 -3.87222 0
M  V30 3973 C 383.159 -3.40378 -3.94705 0
M  V30 3974 C 380.487 -4.19081 -4.10595 0
M  V30 3975 C 382.839 -4.73429 -4.1958 0
M  V30 3976 C 381.503 -5.1303 -4.27032 0
M  V30 3977 H 380.773 -0.240555 -0.700867 0
M  V30 3978 H 383.42 -1.24044 -1.45895 0
M  V30 3979 H 381.725 -0.335072 -3.90365 0
M  V30 3980 H 383.422 -0.724322 -3.94404 0
M  V30 3981 H 380.012 -2.13939 -3.71387 0
M  V30 3982 H 384.196 -3.10766 -3.8696 0
M  V30 3983 H 379.452 -4.49362 -4.14589 0
M  V30 3984 H 383.626 -5.46644 -4.31455 0
M  V30 3985 H 381.253 -6.16418 -4.44896 0
M  V30 3986 N 382.828 1.3818 -0.7579 0
M  V30 3987 C 384.074 2.00316 -0.316453 0
M  V30 3988 C 384.407 1.60026 1.10025 0
M  V30 3989 O 383.682 0.839835 1.75434 0
M  V30 3990 C 383.965 3.57349 -0.444245 0
M  V30 3991 C 383.818 4.07591 -1.90236 0
M  V30 3992 C 385.137 4.3981 0.1598 0
M  V30 3993 H 382.256 0.727741 -0.116459 0
M  V30 3994 H 384.898 1.6406 -0.958352 0
M  V30 3995 H 383.048 3.88365 0.102233 0
M  V30 3996 H 384.72 3.87199 -2.50748 0
M  V30 3997 H 382.963 3.60297 -2.41595 0
M  V30 3998 H 383.634 5.16677 -1.94291 0
M  V30 3999 H 386.11 4.14971 -0.306314 0
M  V30 4000 H 384.986 5.48885 0.0401675 0
M  V30 4001 H 385.247 4.24102 1.24859 0
M  V30 4002 N 384.306 0.507319 1.49211 0
M  V30 4003 C 385.216 -0.272136 2.33016 0
M  V30 4004 C 386.232 -0.961206 1.45041 0
M  V30 4005 O 387.408 -0.941191 1.78055 0
M  V30 4006 C 384.473 -1.31895 3.20631 0
M  V30 4007 C 383.534 -0.642648 4.24463 0
M  V30 4008 C 382.767 -1.63959 5.07891 0
M  V30 4009 O 382.99 -2.87007 4.92933 0
M  V30 4010 O 381.924 -1.19143 5.8999 0
M  V30 4011 H 385.75 0.413982 3.00865 0
M  V30 4012 H 383.335 0.268556 1.46966 0
M  V30 4013 H 385.217 -1.92446 3.7489 0
M  V30 4014 H 383.892 -1.98788 2.5547 0
M  V30 4015 H 382.799 0.00276252 3.741 0
M  V30 4016 H 384.132 -0.0160534 4.92197 0
M  V30 4017 N 385.784 -1.5574 0.241426 0
M  V30 4018 C 387.032 -1.98417 -0.384075 0
M  V30 4019 C 387.353 -1.13078 -1.58866 0
M  V30 4020 O 386.623 -0.212312 -1.94746 0
M  V30 4021 H 385.203 -0.732813 -0.144894 0
M  V30 4022 H 387.865 -1.9193 0.338943 0
M  V30 4023 H 386.961 -3.04219 -0.696939 0
M  V30 4024 N 387.262 0.0317525 -1.57568 0
M  V30 4025 C 388.492 0.733884 -1.93126 0
M  V30 4026 C 388.9 1.69563 -0.839352 0
M  V30 4027 O 388.243 1.82681 0.193175 0
M  V30 4028 C 388.305 1.54798 -3.24465 0
M  V30 4029 C 387.969 0.751304 -4.50782 0
M  V30 4030 C 388.966 0.0527632 -5.19873 0
M  V30 4031 C 386.651 0.706639 -4.97305 0
M  V30 4032 C 388.645 -0.679774 -6.33765 0
M  V30 4033 C 386.332 -0.0296449 -6.11093 0
M  V30 4034 C 387.33 -0.721614 -6.79177 0
M  V30 4035 O 387.018 -1.44595 -7.90789 0
M  V30 4036 H 386.75 0.211459 -0.642076 0
M  V30 4037 H 389.304 -0.00585615 -2.05399 0
M  V30 4038 H 387.534 2.33147 -3.08512 0
M  V30 4039 H 389.223 2.13247 -3.4537 0
M  V30 4040 H 389.989 0.0783188 -4.84937 0
M  V30 4041 H 385.868 1.23474 -4.44157 0
M  V30 4042 H 389.412 -1.22042 -6.86842 0
M  V30 4043 H 385.309 -0.0571331 -6.45475 0
M  V30 4044 H 386.077 -1.35935 -8.07133 0
M  V30 4045 N 388.74 1.54641 0.303973 0
M  V30 4046 C 389.687 1.85386 1.37479 0
M  V30 4047 C 390.657 0.702528 1.50512 0
M  V30 4048 O 391.842 0.950867 1.65418 0
M  V30 4049 C 388.982 2.10413 2.73533 0
M  V30 4050 C 388.095 3.38049 2.68974 0
M  V30 4051 C 387.23 3.52934 3.97002 0
M  V30 4052 C 386.269 4.74373 3.86829 0
M  V30 4053 N 385.406 4.8608 5.06627 0
M  V30 4054 H 390.246 2.76732 1.1056 0
M  V30 4055 H 387.783 1.37034 0.534805 0
M  V30 4056 H 389.741 2.22919 3.52652 0
M  V30 4057 H 388.371 1.22338 2.98719 0
M  V30 4058 H 387.423 3.3418 1.81736 0
M  V30 4059 H 388.735 4.27288 2.57346 0
M  V30 4060 H 387.889 3.65088 4.84557 0
M  V30 4061 H 386.628 2.61824 4.1146 0
M  V30 4062 H 385.633 4.62255 2.97658 0
M  V30 4063 H 386.858 5.66888 3.73918 0
M  V30 4064 H 384.804 3.97891 5.21554 0
M  V30 4065 H 384.721 5.69315 4.9741 0
M  V30 4066 H 385.989 5.02587 5.95841 0
M  V30 4067 N 390.218 -0.567019 1.47046 0
M  V30 4068 C 391.128 -1.70247 1.6141 0
M  V30 4069 C 392.144 -1.66746 0.497157 0
M  V30 4070 O 393.32 -1.86371 0.763389 0
M  V30 4071 C 390.385 -3.06756 1.61561 0
M  V30 4072 C 389.446 -3.21399 2.84607 0
M  V30 4073 C 388.679 -4.51396 2.84741 0
M  V30 4074 O 388.902 -5.36255 1.94388 0
M  V30 4075 O 387.836 -4.69621 3.76483 0
M  V30 4076 H 391.662 -1.61073 2.57467 0
M  V30 4077 H 389.247 -0.735894 1.30019 0
M  V30 4078 H 391.129 -3.8801 1.64396 0
M  V30 4079 H 389.804 -3.16333 0.686684 0
M  V30 4080 H 388.711 -2.39579 2.8732 0
M  V30 4081 H 390.044 -3.16721 3.76761 0
M  V30 4082 N 391.696 -1.35014 -0.812953 0
M  V30 4083 C 392.659 -1.27292 -1.90602 0
M  V30 4084 C 393.659 -0.185817 -1.59723 0
M  V30 4085 O 394.849 -0.439102 -1.68575 0
M  V30 4086 C 391.981 -0.967676 -3.26877 0
M  V30 4087 H 393.174 -2.24479 -1.9887 0
M  V30 4088 H 390.727 -1.19446 -1.00808 0
M  V30 4089 H 391.462 0.0005954 -3.243 0
M  V30 4090 H 391.247 -1.75412 -3.50675 0
M  V30 4091 H 392.737 -0.939085 -4.06904 0
M  V30 4092 N 393.175 1.03435 -1.18907 0
M  V30 4093 C 394.085 2.15075 -0.937015 0
M  V30 4094 C 395.101 1.73706 0.101085 0
M  V30 4095 O 396.277 2.01232 -0.0822948 0
M  V30 4096 C 393.342 3.43458 -0.473057 0
M  V30 4097 C 392.403 3.99172 -1.57989 0
M  V30 4098 C 391.636 5.21427 -1.13797 0
M  V30 4099 O 391.859 5.704 0.000725941 0
M  V30 4100 O 390.793 5.69837 -1.9383 0
M  V30 4101 H 394.619 2.39198 -1.87131 0
M  V30 4102 H 392.204 1.13506 -0.971427 0
M  V30 4103 H 394.086 4.20811 -0.222702 0
M  V30 4104 H 392.761 3.20793 0.432869 0
M  V30 4105 H 391.668 3.23178 -1.88433 0
M  V30 4106 H 393.001 4.2619 -2.46217 0
M  V30 4107 N 394.653 0.992116 1.22453 0
M  V30 4108 C 395.883 0.684949 1.94915 0
M  V30 4109 C 396.291 -0.754292 1.73514 0
M  V30 4110 O 395.634 -1.52056 1.03076 0
M  V30 4111 C 395.696 0.910054 3.47791 0
M  V30 4112 C 395.36 2.33363 3.92926 0
M  V30 4113 C 396.357 3.31308 4.00663 0
M  V30 4114 C 394.042 2.66785 4.25595 0
M  V30 4115 C 396.036 4.6075 4.40441 0
M  V30 4116 C 393.723 3.96446 4.65053 0
M  V30 4117 C 394.721 4.9324 4.72444 0
M  V30 4118 O 394.409 6.20584 5.1101 0
M  V30 4119 H 394.141 0.25258 0.62704 0
M  V30 4120 H 396.695 1.32939 1.56577 0
M  V30 4121 H 394.925 0.208443 3.86138 0
M  V30 4122 H 396.614 0.598257 4.01467 0
M  V30 4123 H 397.38 3.0682 3.75615 0
M  V30 4124 H 393.259 1.92148 4.19047 0
M  V30 4125 H 396.803 5.363 4.46126 0
M  V30 4126 H 392.7 4.20724 4.89552 0
M  V30 4127 H 393.468 6.24509 5.29085 0
M  V30 4128 N 396.131 -1.37776 0.765217 0
M  V30 4129 C 397.377 -2.00604 0.336066 0
M  V30 4130 C 397.732 -1.59657 -1.07366 0
M  V30 4131 O 397.025 -0.829565 -1.7271 0
M  V30 4132 C 397.219 -3.5504 0.410053 0
M  V30 4133 C 397.048 -4.10985 1.82542 0
M  V30 4134 C 395.818 -4.42229 2.44461 0
M  V30 4135 C 398.016 -4.32438 2.78392 0
M  V30 4136 N 395.998 -4.8385 3.77839 0
M  V30 4137 C 397.369 -4.76596 3.96556 0
M  V30 4138 C 399.424 -4.14559 2.75764 0
M  V30 4139 C 398.127 -5.04748 5.12466 0
M  V30 4140 C 400.153 -4.43843 3.90842 0
M  V30 4141 C 399.515 -4.88235 5.07746 0
M  V30 4142 H 395.614 -0.763325 0.169881 0
M  V30 4143 H 398.198 -1.67197 0.997656 0
M  V30 4144 H 396.369 -3.87769 -0.221325 0
M  V30 4145 H 398.101 -4.0468 -0.0405285 0
M  V30 4146 H 394.856 -4.31079 1.96131 0
M  V30 4147 H 395.28 -5.08979 4.46396 0
M  V30 4148 H 399.922 -3.79415 1.86558 0
M  V30 4149 H 397.64 -5.38783 6.02277 0
M  V30 4150 H 401.226 -4.31603 3.90141 0
M  V30 4151 H 400.106 -5.10461 5.95315 0
M  V30 4152 N 397.609 -0.515225 -1.4894 0
M  V30 4153 C 398.539 0.244628 -2.32215 0
M  V30 4154 C 399.52 0.949136 -1.41157 0
M  V30 4155 O 400.705 0.937783 -1.70057 0
M  V30 4156 C 397.835 1.30096 -3.22013 0
M  V30 4157 C 396.789 0.715486 -4.21977 0
M  V30 4158 C 396.115 1.87339 -5.00808 0
M  V30 4159 C 397.415 -0.302982 -5.2142 0
M  V30 4160 H 399.109 -0.450501 -2.95991 0
M  V30 4161 H 396.655 -0.218098 -1.42339 0
M  V30 4162 H 398.608 1.84037 -3.79089 0
M  V30 4163 H 397.332 2.02547 -2.56207 0
M  V30 4164 H 395.991 0.197715 -3.66066 0
M  V30 4165 H 395.639 2.58592 -4.31438 0
M  V30 4166 H 395.339 1.48764 -5.68457 0
M  V30 4167 H 396.863 2.41686 -5.60732 0
M  V30 4168 H 398.277 0.148802 -5.73107 0
M  V30 4169 H 396.674 -0.60532 -5.97039 0
M  V30 4170 H 397.744 -1.21395 -4.69459 0
M  V30 4171 N 399.087 1.5561 -0.249682 0
M  V30 4172 C 400.503 1.59254 0.105103 0
M  V30 4173 C 400.703 1.26685 1.56694 0
M  V30 4174 O 399.759 1.0155 2.31179 0
M  V30 4175 C 401.072 2.99687 -0.246592 0
M  V30 4176 C 402.62 3.12416 -0.191118 0
M  V30 4177 C 403.095 4.55074 -0.516885 0
M  V30 4178 N 404.586 4.60835 -0.467489 0
M  V30 4179 C 405.321 5.69201 -0.69268 0
M  V30 4180 N 404.817 6.85817 -0.981146 0
M  V30 4181 N 406.61 5.58635 -0.623198 0
M  V30 4182 H 398.761 1.75049 -1.20298 0
M  V30 4183 H 401.024 0.815003 -0.484225 0
M  V30 4184 H 400.73 3.28267 -1.26228 0
M  V30 4185 H 400.604 3.74798 0.424962 0
M  V30 4186 H 402.991 2.83615 0.815247 0
M  V30 4187 H 403.072 2.39573 -0.896563 0
M  V30 4188 H 402.716 4.84596 -1.52082 0
M  V30 4189 H 402.646 5.26181 0.210068 0
M  V30 4190 H 405.137 3.7705 -0.253373 0
M  V30 4191 H 405.45 7.64341 -1.14032 0
M  V30 4192 H 403.795 6.87494 -1.01865 0
M  V30 4193 H 406.986 4.66406 -0.397863 0
M  V30 4194 H 407.159 6.43017 -0.802093 0
M  V30 4195 N 400.565 -0.0233959 1.57583 0
M  V30 4196 C 401.512 -1.02224 2.06927 0
M  V30 4197 C 402.482 -1.35575 0.959617 0
M  V30 4198 O 403.667 -1.45815 1.23055 0
M  V30 4199 C 400.807 -2.31636 2.5581 0
M  V30 4200 C 399.92 -2.04394 3.80588 0
M  V30 4201 C 399.055 -3.27717 4.18061 0
M  V30 4202 C 398.094 -2.96056 5.3574 0
M  V30 4203 N 397.231 -4.11847 5.68618 0
M  V30 4204 H 402.071 -0.594504 2.9201 0
M  V30 4205 H 399.608 -0.281921 1.44373 0
M  V30 4206 H 401.566 -3.07258 2.82221 0
M  V30 4207 H 400.196 -2.72122 1.73636 0
M  V30 4208 H 399.248 -1.19244 3.61227 0
M  V30 4209 H 400.56 -1.77042 4.66323 0
M  V30 4210 H 399.714 -4.11702 4.4563 0
M  V30 4211 H 398.453 -3.58188 3.30988 0
M  V30 4212 H 397.458 -2.10474 5.07918 0
M  V30 4213 H 398.683 -2.66857 6.24471 0
M  V30 4214 H 396.629 -4.42258 4.84504 0
M  V30 4215 H 396.546 -3.87938 6.48876 0
M  V30 4216 H 397.814 -4.96689 6.00766 0
M  V30 4217 N 402.043 -1.548 -0.295768 0
M  V30 4218 C 403.29 -1.74329 -1.03032 0
M  V30 4219 C 403.618 -0.531915 -1.87085 0
M  V30 4220 O 402.873 0.486052 -1.89568 0
M  V30 4221 C 403.172 -2.98797 -1.961 0
M  V30 4222 C 402.838 -4.32356 -1.2798 0
M  V30 4223 C 401.5 -4.68661 -1.09135 0
M  V30 4224 C 403.852 -5.15128 -0.793243 0
M  V30 4225 C 401.18 -5.85312 -0.403269 0
M  V30 4226 C 403.532 -6.32488 -0.118854 0
M  V30 4227 C 402.196 -6.6745 0.0815043 0
M  V30 4228 H 401.466 -0.637916 -0.37702 0
M  V30 4229 H 404.113 -1.8906 -0.304696 0
M  V30 4230 H 402.418 -2.78869 -2.75207 0
M  V30 4231 H 404.115 -3.11102 -2.53015 0
M  V30 4232 H 400.705 -4.03808 -1.43655 0
M  V30 4233 H 404.889 -4.87575 -0.92653 0
M  V30 4234 H 400.145 -6.1094 -0.237098 0
M  V30 4235 H 404.319 -6.95892 0.266035 0
M  V30 4236 H 401.946 -7.57695 0.616685 0
M  V30 4237 N 403.521 0.559213 -1.47345 0
M  V30 4238 C 404.431 1.69388 -1.62311 0
M  V30 4239 C 405.447 1.6648 -0.505993 0
M  V30 4240 O 406.623 1.85964 -0.773262 0
M  V30 4241 C 403.688 3.05894 -1.63185 0
M  V30 4242 C 402.749 3.19885 -2.86307 0
M  V30 4243 C 401.982 4.49879 -2.87131 0
M  V30 4244 O 402.205 5.35217 -1.97229 0
M  V30 4245 O 401.139 4.67618 -3.78968 0
M  V30 4246 H 404.965 1.59706 -2.58317 0
M  V30 4247 H 402.55 0.728989 -1.30407 0
M  V30 4248 H 404.432 3.87133 -1.66451 0
M  V30 4249 H 403.107 3.15964 -0.70345 0
M  V30 4250 H 402.014 2.38052 -2.88587 0
M  V30 4251 H 403.347 3.14718 -3.78435 0
M  V30 4252 N 404.999 1.35443 0.805782 0
M  V30 4253 C 405.962 1.28301 1.89925 0
M  V30 4254 C 406.962 0.194285 1.59622 0
M  V30 4255 O 408.152 0.448036 1.6834 0
M  V30 4256 C 405.284 0.984997 3.2636 0
M  V30 4257 H 406.477 2.2553 1.97677 0
M  V30 4258 H 404.03 1.19979 1.00173 0
M  V30 4259 H 404.765 0.016603 3.24296 0
M  V30 4260 H 404.55 1.77269 3.4974 0
M  V30 4261 H 406.04 0.960651 4.064 0
M  V30 4262 N 406.477 -1.02803 1.19454 0
M  V30 4263 C 407.754 -1.73299 0.907013 0
M  V30 4264 C 408.134 -2.02772 -0.587086 0
M  V30 4265 O 407.482 -1.68304 -1.54551 0
M  V30 4266 C 407.692 -3.00912 1.76785 0
M  V30 4267 C 409.04 -3.74403 2.00268 0
M  V30 4268 O 410.064 -3.10841 1.73943 0
M  V30 4269 O 408.923 -4.88675 2.4466 0
M  V30 4270 H 406.017 -0.754727 0.338106 0
M  V30 4271 H 408.563 -1.08754 1.30271 0
M  V30 4272 H 407.335 -2.75366 2.7801 0
M  V30 4273 H 406.958 -3.73197 1.37149 0
M  V30 4274 N 407.956 -0.998596 -1.21925 0
M  V30 4275 C 409.367 -0.711939 -1.72593 0
M  V30 4276 C 409.718 0.770842 -1.80423 0
M  V30 4277 O 408.843 1.60237 -1.4544 0
M  V30 4278 C 409.438 -1.28567 -3.13458 0
M  V30 4279 C 407.997 -1.04828 -3.61508 0
M  V30 4280 C 407.144 -1.4024 -2.39224 0
M  V30 4281 H 410.095 -1.17027 -1.07193 0
M  V30 4282 H 410.116 -0.667098 -3.74607 0
M  V30 4283 H 409.628 -2.36486 -3.07727 0
M  V30 4284 H 407.729 0.0140383 -3.72597 0
M  V30 4285 H 407.842 -1.71566 -4.47328 0
M  V30 4286 H 406.206 -0.821077 -2.41103 0
M  V30 4287 H 406.989 -2.49176 -2.36149 0
M  V30 4288 N 409.434 1.37368 -0.772513 0
M  V30 4289 C 410.364 2.32856 -0.173304 0
M  V30 4290 C 411.345 1.55818 0.682262 0
M  V30 4291 O 412.53 1.84052 0.619566 0
M  V30 4292 C 409.66 3.40048 0.706007 0
M  V30 4293 C 408.614 4.27973 -0.0483144 0
M  V30 4294 C 407.94 5.26184 0.950491 0
M  V30 4295 C 409.24 5.07665 -1.22776 0
M  V30 4296 H 410.934 2.83217 -0.971002 0
M  V30 4297 H 408.48 1.3617 -0.468377 0
M  V30 4298 H 410.433 4.05827 1.13501 0
M  V30 4299 H 409.157 2.88214 1.53623 0
M  V30 4300 H 407.816 3.63726 -0.458107 0
M  V30 4301 H 407.464 4.7063 1.77529 0
M  V30 4302 H 407.164 5.85872 0.450314 0
M  V30 4303 H 408.688 5.94838 1.37842 0
M  V30 4304 H 410.102 5.66578 -0.875366 0
M  V30 4305 H 408.499 5.76681 -1.66007 0
M  V30 4306 H 409.569 4.40294 -2.03149 0
M  V30 4307 N 410.912 0.523116 1.48665 0
M  V30 4308 C 412.323 0.0808997 1.86525 0
M  V30 4309 C 412.674 -1.33975 1.43336 0
M  V30 4310 O 411.799 -2.00221 0.821009 0
M  V30 4311 C 412.394 0.140037 3.3851 0
M  V30 4312 C 410.953 -0.246948 3.75589 0
M  V30 4313 C 410.1 0.502845 2.72703 0
M  V30 4314 H 413.051 0.734736 1.40667 0
M  V30 4315 H 413.072 -0.649945 3.74908 0
M  V30 4316 H 412.584 1.17412 3.69914 0
M  V30 4317 H 410.685 -1.28343 3.49798 0
M  V30 4318 H 410.798 0.0878859 4.79019 0
M  V30 4319 H 409.162 -0.0500581 2.54651 0
M  V30 4320 H 409.945 1.53743 3.0695 0
M  V30 4321 N 412.39 -1.55475 0.257931 0
M  V30 4322 C 413.3 -2.2549 -0.647425 0
M  V30 4323 C 414.316 -1.2748 -1.18427 0
M  V30 4324 O 415.492 -1.6038 -1.2182 0
M  V30 4325 C 412.557 -2.94916 -1.82278 0
M  V30 4326 C 411.618 -4.08363 -1.32432 0
M  V30 4327 C 410.851 -4.74469 -2.44366 0
M  V30 4328 O 411.074 -4.39701 -3.63344 0
M  V30 4329 O 410.008 -5.62763 -2.13497 0
M  V30 4330 H 413.834 -3.03593 -0.0807707 0
M  V30 4331 H 411.419 -1.49377 0.0259962 0
M  V30 4332 H 413.301 -3.38606 -2.50846 0
M  V30 4333 H 411.976 -2.19744 -2.37685 0
M  V30 4334 H 410.883 -3.69166 -0.605605 0
M  V30 4335 H 412.216 -4.85385 -0.816211 0
M  V30 4336 N 413.868 0.0150385 -1.57593 0
M  V30 4337 C 414.816 1.02958 -2.08572 0
M  V30 4338 C 415.81 1.36554 -1.00246 0
M  V30 4339 O 417.016 1.35295 -1.18724 0
M  V30 4340 H 413.391 0.349619 -0.665786 0
M  V30 4341 H 415.362 0.573932 -2.92829 0
M  V30 4342 C 414.111 2.31752 -2.59203 0
M  V30 4343 H 413.434 2.06765 -3.42182 0
M  V30 4344 H 414.874 3.01053 -2.98568 0
M  V30 4345 C 413.333 3.01692 -1.49945 0
M  V30 4346 O 413.863 3.92083 -0.873704 0
M  V30 4347 N 412.069 2.6326 -1.23056 0
M  V30 4348 H 411.616 1.89838 -1.74125 0
M  V30 4349 H 411.574 3.10372 -0.501685 0
M  V30 4350 N 415.346 1.54954 0.287554 0
M  V30 4351 C 416.595 1.74081 1.01877 0
M  V30 4352 C 416.908 0.541135 1.87966 0
M  V30 4353 O 418.114 0.614491 2.64455 0
M  V30 4354 C 416.57 3.08042 1.86113 0
M  V30 4355 C 416.178 4.35531 1.04961 0
M  V30 4356 C 417.922 3.36523 2.58752 0
M  V30 4357 C 415.829 5.60538 1.88551 0
M  V30 4358 H 414.759 0.64884 0.384087 0
M  V30 4359 H 417.41 1.81426 0.275101 0
M  V30 4360 H 415.792 2.94696 2.64519 0
M  V30 4361 H 416.966 4.59751 0.31074 0
M  V30 4362 H 415.281 4.14085 0.43843 0
M  V30 4363 H 417.878 4.27122 3.21668 0
M  V30 4364 H 418.221 2.56 3.28283 0
M  V30 4365 H 418.754 3.50901 1.87386 0
M  V30 4366 H 415.493 6.43767 1.23466 0
M  V30 4367 H 415.013 5.40483 2.60074 0
M  V30 4368 H 416.692 5.98297 2.46273 0
M  V30 4369 N 416.824 -0.551391 1.4764 0
M  V30 4370 C 418.24 -0.877887 1.33287 0
M  V30 4371 C 418.44 -1.98817 0.327721 0
M  V30 4372 O 417.496 -2.51171 -0.258695 0
M  V30 4373 C 418.809 -1.26563 2.72768 0
M  V30 4374 C 420.357 -1.37673 2.81097 0
M  V30 4375 C 420.832 -1.79799 4.21232 0
M  V30 4376 N 422.323 -1.8694 4.23802 0
M  V30 4377 C 423.058 -2.20876 5.29151 0
M  V30 4378 N 422.554 -2.53386 6.448 0
M  V30 4379 N 424.347 -2.217 5.16532 0
M  V30 4380 H 416.498 0.18153 2.11623 0
M  V30 4381 H 418.761 0.0185514 0.947818 0
M  V30 4382 H 418.467 -0.523591 3.47781 0
M  V30 4383 H 418.341 -2.22052 3.04915 0
M  V30 4384 H 420.728 -2.10956 2.06353 0
M  V30 4385 H 420.809 -0.40357 2.52596 0
M  V30 4386 H 420.453 -1.07083 4.96483 0
M  V30 4387 H 420.383 -2.78128 4.4716 0
M  V30 4388 H 422.874 -1.64179 3.40373 0
M  V30 4389 H 423.187 -2.78325 7.20941 0
M  V30 4390 H 421.532 -2.50953 6.48111 0
M  V30 4391 H 424.723 -1.95745 4.25207 0
M  V30 4392 H 424.896 -2.47818 5.98741 0
M  V30 4393 N 418.302 -1.35869 -0.798587 0
M  V30 4394 C 419.249 -1.29446 -1.91082 0
M  V30 4395 C 420.219 -0.16487 -1.6528 0
M  V30 4396 O 421.404 -0.349888 -1.87564 0
M  V30 4397 C 418.544 -1.0804 -3.27752 0
M  V30 4398 C 417.657 -2.29993 -3.65687 0
M  V30 4399 C 416.792 -2.01673 -4.91428 0
M  V30 4400 C 415.831 -3.19636 -5.22015 0
M  V30 4401 N 414.968 -2.91039 -6.38937 0
M  V30 4402 H 419.808 -2.24553 -1.95907 0
M  V30 4403 H 417.345 -1.11615 -0.958148 0
M  V30 4404 H 419.303 -0.936586 -4.06551 0
M  V30 4405 H 417.933 -0.16592 -3.22373 0
M  V30 4406 H 416.985 -2.55211 -2.82085 0
M  V30 4407 H 418.297 -3.18052 -3.84245 0
M  V30 4408 H 417.451 -1.84168 -5.78072 0
M  V30 4409 H 416.19 -1.10911 -4.74921 0
M  V30 4410 H 415.195 -3.37709 -4.33858 0
M  V30 4411 H 416.42 -4.11211 -5.40447 0
M  V30 4412 H 414.366 -2.0288 -6.2384 0
M  V30 4413 H 414.283 -3.72635 -6.57784 0
M  V30 4414 H 415.551 -2.77093 -7.28587 0
M  V30 4415 N 419.78 1.02168 -1.19998 0
M  V30 4416 C 420.712 2.10705 -0.901994 0
M  V30 4417 C 421.725 1.6244 0.108216 0
M  V30 4418 O 422.914 1.78082 -0.12214 0
M  V30 4419 C 420.014 3.37291 -0.329834 0
M  V30 4420 C 419.187 4.14714 -1.39035 0
M  V30 4421 C 418.246 5.19606 -0.830432 0
M  V30 4422 O 417.272 5.48809 -1.50989 0
M  V30 4423 N 418.474 5.79366 0.362696 0
M  V30 4424 H 421.239 2.36856 -1.83628 0
M  V30 4425 H 418.8 1.18518 -1.10296 0
M  V30 4426 H 420.792 4.04657 0.0587633 0
M  V30 4427 H 419.362 3.0843 0.508891 0
M  V30 4428 H 418.582 3.42392 -1.9535 0
M  V30 4429 H 419.87 4.63226 -2.10474 0
M  V30 4430 H 419.268 5.57968 0.932081 0
M  V30 4431 H 417.825 6.48106 0.69299 0
M  V30 4432 N 421.258 1.00505 1.21394 0
M  V30 4433 C 422.505 0.687774 1.90462 0
M  V30 4434 C 422.833 -0.78147 1.7811 0
M  V30 4435 O 422.088 -1.58208 1.1519 0
M  V30 4436 C 422.387 1.0546 3.41486 0
M  V30 4437 C 422.053 2.51812 3.74034 0
M  V30 4438 C 420.715 2.91804 3.82628 0
M  V30 4439 C 423.067 3.46614 3.8924 0
M  V30 4440 C 420.395 4.2556 4.03876 0
M  V30 4441 C 422.747 4.80044 4.11995 0
M  V30 4442 C 421.411 5.19759 4.18816 0
M  V30 4443 H 420.681 0.251674 0.696951 0
M  V30 4444 H 423.328 1.26349 1.43903 0
M  V30 4445 H 421.633 0.397133 3.89782 0
M  V30 4446 H 423.33 0.786976 3.93202 0
M  V30 4447 H 419.92 2.1982 3.67936 0
M  V30 4448 H 424.104 3.16883 3.81967 0
M  V30 4449 H 419.36 4.55901 4.07387 0
M  V30 4450 H 423.534 5.53439 4.22704 0
M  V30 4451 H 421.161 6.23418 4.35033 0
M  V30 4452 N 422.737 -1.36956 0.779787 0
M  V30 4453 C 423.669 -2.28833 0.129639 0
M  V30 4454 C 424.682 -1.4902 -0.655511 0
M  V30 4455 O 425.871 -1.71578 -0.492279 0
M  V30 4456 C 422.971 -3.2833 -0.839792 0
M  V30 4457 C 422.144 -4.3727 -0.10675 0
M  V30 4458 C 421.203 -5.16789 -0.990717 0
M  V30 4459 O 420.229 -5.67406 -0.451516 0
M  V30 4460 N 421.431 -5.32294 -2.3161 0
M  V30 4461 H 424.196 -2.85268 0.918803 0
M  V30 4462 H 421.757 -1.49019 0.632841 0
M  V30 4463 H 423.749 -3.78413 -1.43477 0
M  V30 4464 H 422.319 -2.72605 -1.52988 0
M  V30 4465 H 421.539 -3.88478 0.669216 0
M  V30 4466 H 422.827 -5.07229 0.399464 0
M  V30 4467 H 422.225 -4.92768 -2.77843 0
M  V30 4468 H 420.782 -5.85656 -2.86095 0
M  V30 4469 N 424.215 -0.530993 -1.48385 0
M  V30 4470 C 425.44 0.000729535 -2.074 0
M  V30 4471 C 425.865 1.27298 -1.3848 0
M  V30 4472 O 425.223 1.75599 -0.451081 0
M  V30 4473 C 425.271 0.206697 -3.60007 0
M  V30 4474 O 424.375 1.27514 -3.92191 0
M  V30 4475 H 423.716 -0.039583 -0.662819 0
M  V30 4476 H 426.246 -0.739194 -1.9078 0
M  V30 4477 H 426.256 0.42904 -4.05738 0
M  V30 4478 H 424.931 -0.722675 -4.09573 0
M  V30 4479 H 423.508 1.03537 -3.58238 0
M  V30 4480 N 425.693 1.55336 -0.266172 0
M  V30 4481 C 426.625 2.19544 0.658247 0
M  V30 4482 C 427.638 1.17746 1.12427 0
M  V30 4483 O 428.827 1.44517 1.04772 0
M  V30 4484 C 425.927 2.80032 1.9088 0
M  V30 4485 C 425.1 4.07436 1.59106 0
M  V30 4486 C 424.159 4.52056 2.69317 0
M  V30 4487 O 423.185 5.18023 2.35883 0
M  V30 4488 N 424.387 4.21448 3.99201 0
M  V30 4489 H 427.152 2.99503 0.108754 0
M  V30 4490 H 424.713 1.61667 -0.0869059 0
M  V30 4491 H 426.705 3.06831 2.63888 0
M  V30 4492 H 425.275 2.04119 2.36758 0
M  V30 4493 H 424.495 3.88021 0.695243 0
M  V30 4494 H 425.783 4.90462 1.35367 0
M  V30 4495 H 425.181 3.68528 4.29189 0
M  V30 4496 H 423.738 4.53039 4.68614 0
M  V30 4497 N 427.171 -0.0066808 1.57599 0
M  V30 4498 C 428.418 -0.69292 1.90276 0
M  V30 4499 C 428.746 -1.74148 0.866192 0
M  V30 4500 O 428.001 -1.95268 -0.129933 0
M  V30 4501 C 428.3 -1.37939 3.29708 0
M  V30 4502 C 427.966 -0.464679 4.48499 0
M  V30 4503 C 426.628 -0.212809 4.80729 0
M  V30 4504 C 428.98 0.16551 5.20937 0
M  V30 4505 C 426.308 0.677653 5.82773 0
M  V30 4506 C 428.66 1.04381 6.23929 0
M  V30 4507 C 427.324 1.30492 6.54621 0
M  V30 4508 H 426.594 -0.253558 0.696268 0
M  V30 4509 H 429.241 0.0474123 1.91441 0
M  V30 4510 H 427.546 -2.1936 3.24636 0
M  V30 4511 H 429.243 -1.9163 3.52249 0
M  V30 4512 H 425.833 -0.671153 4.23313 0
M  V30 4513 H 430.017 -0.0160756 4.96297 0
M  V30 4514 H 425.273 0.88803 6.04917 0
M  V30 4515 H 429.447 1.53851 6.79193 0
M  V30 4516 H 427.074 1.99662 7.33512 0
M  V30 4517 N 428.649 -1.55105 -0.279332 0
M  V30 4518 C 429.559 -1.90638 -1.36727 0
M  V30 4519 C 430.575 -0.802899 -1.54368 0
M  V30 4520 O 431.751 -1.10138 -1.68616 0
M  V30 4521 C 428.816 -2.16547 -2.70755 0
M  V30 4522 C 427.877 -3.40146 -2.61915 0
M  V30 4523 C 427.11 -3.6481 -3.8955 0
M  V30 4524 O 427.333 -2.92095 -4.89935 0
M  V30 4525 O 426.267 -4.58343 -3.90135 0
M  V30 4526 H 430.093 -2.83237 -1.09591 0
M  V30 4527 H 427.678 -1.4157 -0.477306 0
M  V30 4528 H 429.56 -2.34665 -3.50014 0
M  V30 4529 H 428.235 -1.27131 -2.9769 0
M  V30 4530 H 427.142 -3.2737 -1.81052 0
M  V30 4531 H 428.475 -4.29761 -2.3993 0
M  V30 4532 N 430.127 0.543554 -1.4793 0
M  V30 4533 C 431.543 0.870806 -1.3375 0
M  V30 4534 C 431.743 1.9864 -0.338261 0
M  V30 4535 O 430.799 2.51305 0.245371 0
M  V30 4536 C 432.112 1.25114 -2.73435 0
M  V30 4537 C 433.66 1.3618 -2.81823 0
M  V30 4538 C 434.135 1.77563 -4.22179 0
M  V30 4539 N 435.626 1.8469 -4.24787 0
M  V30 4540 C 436.361 2.18067 -5.30315 0
M  V30 4541 N 435.857 2.49963 -6.46135 0
M  V30 4542 N 437.65 2.18958 -5.17701 0
M  V30 4543 H 429.801 -0.19275 -2.11524 0
M  V30 4544 H 432.064 -0.0235777 -0.947707 0
M  V30 4545 H 431.77 0.50514 -3.48053 0
M  V30 4546 H 431.644 2.20431 -3.06088 0
M  V30 4547 H 434.031 2.09859 -2.07468 0
M  V30 4548 H 434.112 0.390169 -2.52807 0
M  V30 4549 H 433.756 1.04449 -4.97044 0
M  V30 4550 H 433.686 2.75753 -4.48629 0
M  V30 4551 H 436.177 1.62372 -3.41239 0
M  V30 4552 H 436.49 2.74497 -7.22406 0
M  V30 4553 H 434.835 2.47513 -6.49432 0
M  V30 4554 H 438.026 1.93488 -4.2624 0
M  V30 4555 H 438.199 2.44639 -6.00047 0
M  V30 4556 N 431.605 1.3629 0.791371 0
M  V30 4557 C 432.535 1.33137 1.91825 0
M  V30 4558 C 433.516 0.203168 1.68882 0
M  V30 4559 O 434.701 0.400509 1.90025 0
M  V30 4560 C 431.831 1.11793 3.28816 0
M  V30 4561 C 430.785 2.21417 3.66277 0
M  V30 4562 C 430.111 1.85218 5.01596 0
M  V30 4563 C 431.411 3.63489 3.75064 0
M  V30 4564 H 433.105 2.2743 1.9472 0
M  V30 4565 H 430.651 1.09479 0.935437 0
M  V30 4566 H 432.604 1.08222 4.07266 0
M  V30 4567 H 431.328 0.139501 3.26302 0
M  V30 4568 H 429.987 2.2411 2.90121 0
M  V30 4569 H 429.635 0.859544 4.95602 0
M  V30 4570 H 429.335 2.58611 5.27631 0
M  V30 4571 H 430.859 1.832 5.82469 0
M  V30 4572 H 432.273 3.63034 4.43711 0
M  V30 4573 H 430.67 4.35771 4.12582 0
M  V30 4574 H 431.74 3.98536 2.76219 0
M  V30 4575 N 433.083 -1.0153 1.20538 0
M  V30 4576 C 434.329 -1.75408 1.01783 0
M  V30 4577 C 434.662 -1.88943 -0.448814 0
M  V30 4578 O 433.937 -1.4162 -1.33319 0
M  V30 4579 C 434.22 -3.17255 1.70356 0
M  V30 4580 C 434.073 -3.11508 3.24473 0
M  V30 4581 C 435.392 -4.15955 1.43769 0
M  V30 4582 H 432.511 -0.636713 0.371167 0
M  V30 4583 H 435.153 -1.18436 1.4857 0
M  V30 4584 H 433.303 -3.65898 1.30578 0
M  V30 4585 H 434.975 -2.70658 3.73553 0
M  V30 4586 H 433.218 -2.4887 3.55311 0
M  V30 4587 H 433.889 -4.11784 3.67611 0
M  V30 4588 H 436.365 -3.75973 1.7828 0
M  V30 4589 H 435.241 -5.13368 1.94279 0
M  V30 4590 H 435.502 -4.40586 0.365564 0
M  V30 4591 N 434.561 -1.01147 -1.20859 0
M  V30 4592 C 435.81 -0.693214 -1.89413 0
M  V30 4593 C 436.123 0.779969 -1.79376 0
M  V30 4594 O 437.329 1.21057 -2.43017 0
M  V30 4595 C 435.785 -1.18949 -3.39675 0
M  V30 4596 C 435.393 -2.68921 -3.58309 0
M  V30 4597 C 437.137 -0.94642 -4.13815 0
M  V30 4598 C 435.044 -3.12056 -5.0237 0
M  V30 4599 H 433.974 -0.255595 -0.709357 0
M  V30 4600 H 436.625 -1.22349 -1.36759 0
M  V30 4601 H 435.007 -0.587228 -3.91622 0
M  V30 4602 H 436.181 -3.34652 -3.16772 0
M  V30 4603 H 434.496 -2.91314 -2.97532 0
M  V30 4604 H 437.093 -1.24417 -5.20023 0
M  V30 4605 H 437.436 0.117219 -4.16135 0
M  V30 4606 H 437.969 -1.5118 -3.67953 0
M  V30 4607 H 434.708 -4.17674 -5.05202 0
M  V30 4608 H 434.228 -2.51041 -5.44737 0
M  V30 4609 H 435.907 -3.04403 -5.70918 0
M  V30 4610 N 436.039 1.36541 -0.78704 0
M  V30 4611 C 436.969 2.32659 -0.197992 0
M  V30 4612 C 437.95 1.56533 0.665697 0
M  V30 4613 O 439.135 1.84698 0.60001 0
M  V30 4614 C 436.265 3.40778 0.669901 0
M  V30 4615 C 435.219 4.27897 -0.0937039 0
M  V30 4616 C 434.545 5.27163 0.894629 0
M  V30 4617 C 435.845 5.06334 -1.28154 0
M  V30 4618 H 437.539 2.82171 -1.00099 0
M  V30 4619 H 435.085 1.35665 -0.482793 0
M  V30 4620 H 437.038 4.07008 1.09191 0
M  V30 4621 H 435.762 2.89827 1.50558 0
M  V30 4622 H 434.421 3.6322 -0.49666 0
M  V30 4623 H 434.069 4.72486 1.72527 0
M  V30 4624 H 433.769 5.86317 0.388149 0
M  V30 4625 H 435.293 5.96266 1.31525 0
M  V30 4626 H 436.707 5.65617 -0.93541 0
M  V30 4627 H 435.104 5.74888 -1.72115 0
M  V30 4628 H 436.174 4.38114 -2.07807 0
M  V30 4629 N 437.518 0.538854 1.48102 0
M  V30 4630 C 438.795 -0.0568108 1.95517 0
M  V30 4631 C 439.175 -1.50408 1.48124 0
M  V30 4632 O 438.523 -2.17133 0.711727 0
M  V30 4633 C 438.733 0.0696262 3.48931 0
M  V30 4634 C 440.081 -0.0851202 4.24515 0
M  V30 4635 O 441.105 -0.0037347 3.562 0
M  V30 4636 O 439.964 -0.257025 5.45895 0
M  V30 4637 H 437.058 -0.0743695 0.823649 0
M  V30 4638 H 439.604 0.604081 1.58584 0
M  V30 4639 H 438.376 1.07744 3.76174 0
M  V30 4640 H 437.999 -0.629714 3.92582 0
M  V30 4641 N 438.996 -1.55193 0.274407 0
M  V30 4642 C 440.226 -2.03692 -0.345442 0
M  V30 4643 C 440.634 -1.15224 -1.50067 0
M  V30 4644 O 439.977 -0.164749 -1.8296 0
M  V30 4645 C 440.039 -3.48325 -0.88939 0
M  V30 4646 C 439.703 -4.56794 0.137115 0
M  V30 4647 C 440.7 -5.11028 0.956378 0
M  V30 4648 C 438.385 -5.01568 0.27115 0
M  V30 4649 C 440.379 -6.08552 1.89587 0
M  V30 4650 C 438.066 -5.98918 1.21412 0
M  V30 4651 C 439.064 -6.52291 2.02498 0
M  V30 4652 O 438.752 -7.47738 2.952 0
M  V30 4653 H 438.484 -0.670893 -0.0829332 0
M  V30 4654 H 441.038 -2.01387 0.404056 0
M  V30 4655 H 439.268 -3.47867 -1.68895 0
M  V30 4656 H 440.957 -3.80167 -1.42225 0
M  V30 4657 H 441.723 -4.7725 0.863559 0
M  V30 4658 H 437.602 -4.5967 -0.349987 0
M  V30 4659 H 441.146 -6.50137 2.52918 0
M  V30 4660 H 437.043 -6.32114 1.30776 0
M  V30 4661 H 437.811 -7.65451 2.89874 0
M  V30 4662 N 440.474 -0.00167713 -1.576 0
M  V30 4663 C 441.723 0.682021 -1.89819 0
M  V30 4664 C 442.036 1.74844 -0.876871 0
M  V30 4665 O 443.242 2.48688 -1.08934 0
M  V30 4666 C 441.698 1.26425 -3.36964 0
M  V30 4667 C 441.306 0.232568 -4.47396 0
M  V30 4668 C 443.05 1.92604 -3.78291 0
M  V30 4669 C 440.957 0.824882 -5.85619 0
M  V30 4670 H 439.887 0.258499 -0.708304 0
M  V30 4671 H 442.538 -0.0624957 -1.83394 0
M  V30 4672 H 440.92 2.05949 -3.38232 0
M  V30 4673 H 442.094 -0.5382 -4.57646 0
M  V30 4674 H 440.409 -0.32888 -4.15099 0
M  V30 4675 H 443.006 2.37827 -4.78897 0
M  V30 4676 H 443.349 2.75732 -3.11894 0
M  V30 4677 H 443.882 1.19812 -3.79328 0
M  V30 4678 H 440.621 0.0323542 -6.55492 0
M  V30 4679 H 440.141 1.56477 -5.79029 0
M  V30 4680 H 441.82 1.32301 -6.33329 0
M  V30 4681 N 441.952 1.55251 0.271103 0
M  V30 4682 C 443.201 1.75151 1.00025 0
M  V30 4683 C 443.514 0.561041 1.87381 0
M  V30 4684 O 444.72 0.642506 2.63788 0
M  V30 4685 C 443.176 3.09999 1.82835 0
M  V30 4686 C 442.784 4.3662 1.00336 0
M  V30 4687 C 444.528 3.39249 2.55168 0
M  V30 4688 C 442.435 5.62506 1.82595 0
M  V30 4689 H 441.365 0.652877 0.377183 0
M  V30 4690 H 444.016 1.81708 0.255843 0
M  V30 4691 H 442.398 2.97485 2.61378 0
M  V30 4692 H 443.572 4.60055 0.261959 0
M  V30 4693 H 441.887 4.14527 0.394486 0
M  V30 4694 H 444.484 4.3051 3.1712 0
M  V30 4695 H 444.827 2.59467 3.2555 0
M  V30 4696 H 445.36 3.52869 1.83653 0
M  V30 4697 H 442.099 6.45041 1.16631 0
M  V30 4698 H 441.619 5.43211 2.54327 0
M  V30 4699 H 443.298 6.00875 2.39913 0
M  V30 4700 N 443.43 -0.535701 1.48216 0
M  V30 4701 C 444.846 -0.863701 1.3421 0
M  V30 4702 C 445.046 -1.98458 0.34879 0
M  V30 4703 O 444.102 -2.51432 -0.23204 0
M  V30 4704 C 445.415 -1.23662 2.74095 0
M  V30 4705 C 446.963 -1.34683 2.82541 0
M  V30 4706 C 447.438 -1.75322 4.23115 0
M  V30 4707 N 448.929 -1.82434 4.2576 0
M  V30 4708 C 449.664 -2.15252 5.31464 0
M  V30 4709 N 449.16 -2.46533 6.47452 0
M  V30 4710 N 450.953 -2.16209 5.18855 0
M  V30 4711 H 443.104 0.203965 2.11418 0
M  V30 4712 H 445.367 0.0286033 0.947568 0
M  V30 4713 H 445.073 -0.486674 3.48316 0
M  V30 4714 H 444.947 -2.18805 3.07253 0
M  V30 4715 H 447.334 -2.08756 2.08579 0
M  V30 4716 H 447.415 -0.376756 2.5301 0
M  V30 4717 H 447.059 -1.01812 4.97591 0
M  V30 4718 H 446.989 -2.7337 4.50085 0
M  V30 4719 H 449.48 -1.6056 3.42095 0
M  V30 4720 H 449.793 -2.70662 7.23852 0
M  V30 4721 H 448.138 -2.44065 6.50736 0
M  V30 4722 H 451.329 -1.91224 4.2726 0
M  V30 4723 H 451.502 -2.41453 6.01335 0
M  V30 4724 N 444.908 -1.36708 -0.784132 0
M  V30 4725 C 445.856 -1.31533 -1.91838 0
M  V30 4726 C 446.85 -0.206205 -1.6814 0
M  V30 4727 O 448.056 -0.373519 -1.76082 0
M  V30 4728 H 444.431 -0.409613 -0.630651 0
M  V30 4729 H 446.402 -2.2731 -1.9332 0
M  V30 4730 C 445.151 -1.12679 -3.28936 0
M  V30 4731 H 444.474 -1.97274 -3.4774 0
M  V30 4732 H 445.914 -1.13106 -4.08636 0
M  V30 4733 C 444.373 0.168281 -3.36479 0
M  V30 4734 O 444.903 1.15625 -3.84699 0
M  V30 4735 N 443.109 0.214762 -2.89805 0
M  V30 4736 H 442.656 -0.589852 -2.50756 0
M  V30 4737 H 442.614 1.08094 -2.95234 0
M  V30 4738 N 446.386 1.0089 -1.21074 0
M  V30 4739 C 447.614 1.78191 -1.05145 0
M  V30 4740 C 448.029 1.84537 0.398952 0
M  V30 4741 O 447.386 1.30393 1.27687 0
M  V30 4742 C 447.437 3.22288 -1.63746 0
M  V30 4743 O 447.158 3.16315 -3.03111 0
M  V30 4744 C 448.659 4.16106 -1.52875 0
M  V30 4745 H 445.879 0.560129 -0.369454 0
M  V30 4746 H 448.423 1.26945 -1.60328 0
M  V30 4747 H 446.578 3.70655 -1.12664 0
M  V30 4748 H 446.992 4.06817 -3.31059 0
M  V30 4749 H 448.466 5.15026 -1.98626 0
M  V30 4750 H 448.943 4.36541 -0.482521 0
M  V30 4751 H 449.549 3.73625 -2.03185 0
M  V30 4752 N 447.864 1.01787 1.20321 0
M  V30 4753 C 449.141 0.622978 1.85414 0
M  V30 4754 C 449.521 -0.898887 1.91006 0
M  V30 4755 O 448.869 -1.79112 1.41884 0
M  V30 4756 C 449.079 1.27226 3.24984 0
M  V30 4757 C 450.427 1.3885 4.01255 0
M  V30 4758 O 451.451 1.22857 3.34342 0
M  V30 4759 O 450.31 1.64705 5.2109 0
M  V30 4760 H 447.404 0.215116 0.798533 0
M  V30 4761 H 449.95 1.11533 1.27901 0
M  V30 4762 H 448.722 2.31209 3.15687 0
M  V30 4763 H 448.345 0.767069 3.90131 0
M  V30 4764 N 449.342 -1.36122 0.79427 0
M  V30 4765 C 450.758 -1.5232 0.476525 0
M  V30 4766 C 450.958 -1.74685 -1.00436 0
M  V30 4767 O 450.014 -1.78115 -1.78973 0
M  V30 4768 C 451.327 -2.70607 1.31119 0
M  V30 4769 C 452.875 -2.8448 1.30537 0
M  V30 4770 C 453.35 -4.05778 2.12387 0
M  V30 4771 N 454.841 -4.12933 2.09859 0
M  V30 4772 C 455.576 -5.05876 2.69957 0
M  V30 4773 N 455.072 -6.04232 3.38934 0
M  V30 4774 N 456.865 -4.98528 2.59665 0
M  V30 4775 H 449.016 -1.1986 1.75349 0
M  V30 4776 H 451.279 -0.585418 0.745647 0
M  V30 4777 H 450.985 -2.60619 2.36158 0
M  V30 4778 H 450.859 -3.64888 0.955843 0
M  V30 4779 H 453.246 -2.93927 0.262876 0
M  V30 4780 H 453.327 -1.91093 1.70051 0
M  V30 4781 H 452.971 -3.97092 3.1667 0
M  V30 4782 H 452.901 -4.98323 1.70242 0
M  V30 4783 H 455.392 -3.42515 1.59662 0
M  V30 4784 H 455.705 -6.71724 3.82109 0
M  V30 4785 H 454.05 -6.04443 3.43036 0
M  V30 4786 H 457.241 -4.20641 2.05375 0
M  V30 4787 H 457.414 -5.70773 3.06793 0
M  V30 4788 N 450.82 -0.546701 -1.47814 0
M  V30 4789 C 452.068 -0.0187037 -2.02091 0
M  V30 4790 C 452.389 1.33168 -1.42447 0
M  V30 4791 O 451.659 1.86619 -0.595839 0
M  V30 4792 H 450.239 -0.00392531 -0.74699 0
M  V30 4793 H 452.901 -0.714327 -1.81338 0
M  V30 4794 H 451.997 0.0772219 -3.12004 0
M  V30 4795 N 452.299 1.55045 -0.282633 0
M  V30 4796 C 453.247 2.24254 0.617478 0
M  V30 4797 C 454.241 1.24215 1.15183 0
M  V30 4798 O 455.447 1.42123 1.10459 0
M  V30 4799 H 451.822 0.719801 0.217693 0
M  V30 4800 H 453.793 2.98398 0.0110076 0
M  V30 4801 C 452.542 2.98281 1.78672 0
M  V30 4802 H 451.865 3.75053 1.38475 0
M  V30 4803 H 453.305 3.50017 2.393 0
M  V30 4804 C 451.764 2.04184 2.67975 0
M  V30 4805 O 452.294 1.59792 3.6855 0
M  V30 4806 N 450.5 1.70526 2.35307 0
M  V30 4807 H 450.047 2.06821 1.53567 0
M  V30 4808 H 450.005 1.07839 2.95327 0
M  V30 4809 N 453.777 0.010035 1.57597 0
M  V30 4810 C 455.054 -0.710296 1.82248 0
M  V30 4811 C 455.434 -1.91426 0.889911 0
M  V30 4812 O 454.782 -2.28424 -0.0590292 0
M  V30 4813 C 454.992 -1.10655 3.30993 0
M  V30 4814 C 456.34 -1.50621 3.96987 0
M  V30 4815 O 457.364 -1.20007 3.35375 0
M  V30 4816 O 456.223 -2.07587 5.05539 0
M  V30 4817 H 453.317 -0.34673 0.750804 0
M  V30 4818 H 455.863 0.0362578 1.69661 0
M  V30 4819 H 454.635 -0.248826 3.90508 0
M  V30 4820 H 454.258 -1.91189 3.48615 0
M  V30 4821 N 455.255 -1.55392 -0.262866 0
M  V30 4822 C 456.203 -1.8977 -1.345 0
M  V30 4823 C 457.197 -0.775063 -1.50629 0
M  V30 4824 O 458.403 -0.959519 -1.52293 0
M  V30 4825 H 454.778 -0.602467 -0.450041 0
M  V30 4826 H 456.749 -2.80147 -1.02762 0
M  V30 4827 C 455.498 -2.19501 -2.69657 0
M  V30 4828 H 454.821 -3.05378 -2.5804 0
M  V30 4829 H 456.261 -2.47469 -3.44289 0
M  V30 4830 C 454.72 -1.00597 -3.21531 0
M  V30 4831 O 455.25 -0.245768 -4.00947 0
M  V30 4832 N 453.456 -0.800911 -2.79345 0
M  V30 4833 H 453.003 -1.42079 -2.14875 0
M  V30 4834 H 452.961 -0.00697996 -3.14399 0
M  V30 4835 N 456.733 0.527833 -1.48498 0
M  V30 4836 C 457.979 1.28295 -1.57836 0
M  V30 4837 C 458.334 1.9077 -0.249943 0
M  V30 4838 O 457.627 1.76421 0.747402 0
M  V30 4839 C 457.821 2.39275 -2.65485 0
M  V30 4840 C 457.65 1.87679 -4.08664 0
M  V30 4841 C 456.42 1.70187 -4.75778 0
M  V30 4842 C 458.618 1.40409 -4.94762 0
M  V30 4843 N 456.6 1.13238 -6.03366 0
M  V30 4844 C 457.971 0.954216 -6.12613 0
M  V30 4845 C 460.026 1.28732 -4.8097 0
M  V30 4846 C 458.729 0.39915 -7.18192 0
M  V30 4847 C 460.755 0.746244 -5.86673 0
M  V30 4848 C 460.117 0.306457 -7.03733 0
M  V30 4849 H 456.216 0.460408 -0.632099 0
M  V30 4850 H 458.8 0.594913 -1.85388 0
M  V30 4851 H 456.971 3.05572 -2.3975 0
M  V30 4852 H 458.703 3.06308 -2.64495 0
M  V30 4853 H 455.458 1.93772 -4.32145 0
M  V30 4854 H 455.882 0.867687 -6.71417 0
M  V30 4855 H 460.524 1.61338 -3.90807 0
M  V30 4856 H 458.242 0.0607678 -8.08077 0
M  V30 4857 H 461.828 0.659041 -5.78055 0
M  V30 4858 H 460.708 -0.105708 -7.84129 0
M  V30 4859 N 458.211 1.37122 0.776871 0
M  V30 4860 C 459.141 1.35164 1.90402 0
M  V30 4861 C 460.122 0.221069 1.68657 0
M  V30 4862 O 461.307 0.420642 1.8959 0
M  V30 4863 C 458.437 1.15274 3.27611 0
M  V30 4864 C 457.391 2.25289 3.63908 0
M  V30 4865 C 456.717 1.90527 4.99603 0
M  V30 4866 C 458.017 3.67446 3.71188 0
M  V30 4867 H 459.711 2.29482 1.92297 0
M  V30 4868 H 457.257 1.10465 0.923773 0
M  V30 4869 H 459.21 1.12536 4.06096 0
M  V30 4870 H 457.934 0.174102 3.26136 0
M  V30 4871 H 456.593 2.27174 2.87728 0
M  V30 4872 H 456.241 0.91206 4.94662 0
M  V30 4873 H 455.941 2.64193 5.24858 0
M  V30 4874 H 457.465 1.89367 5.80493 0
M  V30 4875 H 458.879 3.67719 4.39836 0
M  V30 4876 H 457.276 4.40123 4.07936 0
M  V30 4877 H 458.346 4.01443 2.71977 0
M  V30 4878 N 459.689 -1.00246 1.21608 0
M  V30 4879 C 460.935 -1.74319 1.03638 0
M  V30 4880 C 461.268 -1.89408 -0.428749 0
M  V30 4881 O 460.543 -1.43026 -1.3181 0
M  V30 4882 C 460.826 -3.15431 1.73711 0
M  V30 4883 C 460.679 -3.08049 3.27759 0
M  V30 4884 C 461.998 -4.14407 1.48173 0
M  V30 4885 H 459.117 -0.632741 0.377899 0
M  V30 4886 H 461.759 -1.16853 1.49818 0
M  V30 4887 H 459.909 -3.64493 1.34452 0
M  V30 4888 H 461.581 -2.66681 3.76403 0
M  V30 4889 H 459.824 -2.45088 3.57931 0
M  V30 4890 H 460.495 -4.07862 3.71958 0
M  V30 4891 H 462.971 -3.74061 1.82258 0
M  V30 4892 H 461.847 -5.11279 1.99713 0
M  V30 4893 H 462.108 -4.40174 0.412273 0
M  V30 4894 N 461.167 -1.02423 -1.1978 0
M  V30 4895 C 462.583 -0.740459 -1.41384 0
M  V30 4896 C 462.783 0.676827 -1.89793 0
M  V30 4897 O 461.839 1.4435 -2.0717 0
M  V30 4898 C 463.152 -1.77264 -2.42895 0
M  V30 4899 C 464.7 -1.79165 -2.56649 0
M  V30 4900 C 465.175 -2.8133 -3.6141 0
M  V30 4901 N 466.666 -2.80118 -3.68901 0
M  V30 4902 C 467.401 -3.55824 -4.49641 0
M  V30 4903 N 466.897 -4.41231 -5.34123 0
M  V30 4904 N 468.69 -3.44387 -4.44246 0
M  V30 4905 H 460.841 -1.9391 -0.866764 0
M  V30 4906 H 463.104 -0.838074 -0.443098 0
M  V30 4907 H 462.81 -2.7884 -2.14339 0
M  V30 4908 H 462.684 -1.59108 -3.42001 0
M  V30 4909 H 465.071 -0.782702 -2.84531 0
M  V30 4910 H 465.152 -2.01396 -1.57713 0
M  V30 4911 H 464.796 -3.82394 -3.34271 0
M  V30 4912 H 464.726 -2.56359 -4.59986 0
M  V30 4913 H 467.217 -2.1817 -3.08562 0
M  V30 4914 H 467.53 -4.95747 -5.92836 0
M  V30 4915 H 465.875 -4.45306 -5.33599 0
M  V30 4916 H 469.066 -2.7708 -3.77285 0
M  V30 4917 H 469.239 -4.0364 -5.06931 0
M  V30 4918 N 462.645 1.35699 -0.801477 0
M  V30 4919 C 463.875 2.02862 -0.3912 0
M  V30 4920 C 464.283 1.60552 1.00099 0
M  V30 4921 O 463.626 0.796215 1.65548 0
M  V30 4922 C 463.688 3.57386 -0.389299 0
M  V30 4923 C 463.352 4.22943 -1.73113 0
M  V30 4924 C 464.349 4.44984 -2.68859 0
M  V30 4925 C 462.034 4.60167 -2.01373 0
M  V30 4926 C 464.028 5.03345 -3.91053 0
M  V30 4927 C 461.715 5.18243 -3.23832 0
M  V30 4928 C 462.713 5.39773 -4.1849 0
M  V30 4929 O 462.401 5.96626 -5.38788 0
M  V30 4930 H 462.133 0.657341 -0.157732 0
M  V30 4931 H 464.687 1.74407 -1.08496 0
M  V30 4932 H 462.917 3.85011 0.361031 0
M  V30 4933 H 464.606 4.059 -0.0020365 0
M  V30 4934 H 465.372 4.1661 -2.48316 0
M  V30 4935 H 461.251 4.42726 -1.28508 0
M  V30 4936 H 464.795 5.20065 -4.64949 0
M  V30 4937 H 460.692 5.46044 -3.44248 0
M  V30 4938 H 461.46 6.15082 -5.40015 0
M  V30 4939 N 464.123 0.554532 1.47522 0
M  V30 4940 C 465.033 -0.197865 2.33764 0
M  V30 4941 C 466.049 -0.914576 1.48025 0
M  V30 4942 O 467.225 -0.884067 1.80959 0
M  V30 4943 C 464.29 -1.21628 3.24665 0
M  V30 4944 C 463.351 -0.507283 4.26292 0
M  V30 4945 C 462.584 -1.47718 5.1285 0
M  V30 4946 O 462.807 -2.7118 5.01814 0
M  V30 4947 O 461.741 -1.00313 5.93482 0
M  V30 4948 H 465.567 0.50949 2.99396 0
M  V30 4949 H 463.152 0.315176 1.46038 0
M  V30 4950 H 465.034 -1.80421 3.80823 0
M  V30 4951 H 463.709 -1.9056 2.61665 0
M  V30 4952 H 462.616 0.121778 3.73902 0
M  V30 4953 H 463.949 0.140544 4.91999 0
M  V30 4954 N 465.601 -1.54893 0.290851 0
M  V30 4955 C 466.548 -2.23138 -0.58974 0
M  V30 4956 C 467.518 -1.21036 -1.13752 0
M  V30 4957 O 468.703 -1.49626 -1.18392 0
M  V30 4958 C 465.843 -2.96811 -1.76061 0
M  V30 4959 C 464.956 -4.13665 -1.24519 0
M  V30 4960 C 464.091 -4.74944 -2.3791 0
M  V30 4961 C 463.13 -5.83963 -1.83451 0
M  V30 4962 N 462.267 -6.39239 -2.90376 0
M  V30 4963 H 467.107 -2.98 -0.00114915 0
M  V30 4964 H 464.644 -1.47096 0.0112006 0
M  V30 4965 H 466.602 -3.37751 -2.44909 0
M  V30 4966 H 465.232 -2.24344 -2.32098 0
M  V30 4967 H 464.284 -3.77737 -0.449288 0
M  V30 4968 H 465.596 -4.92238 -0.806424 0
M  V30 4969 H 464.75 -5.18684 -3.14724 0
M  V30 4970 H 463.489 -3.95682 -2.85109 0
M  V30 4971 H 462.494 -5.39657 -1.05122 0
M  V30 4972 H 463.719 -6.65103 -1.37169 0
M  V30 4973 H 461.665 -5.62864 -3.36927 0
M  V30 4974 H 461.582 -7.13129 -2.50965 0
M  V30 4975 H 462.85 -6.87637 -3.67118 0
M  V30 4976 N 467.08 -0.0183926 -1.57589 0
M  V30 4977 C 468.012 0.995557 -2.06449 0
M  V30 4978 C 469.025 1.29556 -0.985849 0
M  V30 4979 O 470.214 1.2621 -1.26227 0
M  V30 4980 C 467.314 2.32572 -2.46502 0
M  V30 4981 C 466.487 2.21245 -3.77319 0
M  V30 4982 C 465.546 3.37104 -4.04039 0
M  V30 4983 O 464.572 3.14468 -4.74445 0
M  V30 4984 N 465.774 4.60553 -3.53372 0
M  V30 4985 H 468.539 0.578746 -2.94059 0
M  V30 4986 H 466.1 0.168603 -1.6102 0
M  V30 4987 H 468.092 3.08887 -2.61478 0
M  V30 4988 H 466.662 2.65931 -1.64315 0
M  V30 4989 H 465.882 1.29723 -3.72244 0
M  V30 4990 H 467.17 2.10868 -4.63047 0
M  V30 4991 H 466.568 4.81839 -2.96391 0
M  V30 4992 H 465.125 5.34072 -3.73644 0
M  V30 4993 N 468.558 1.5553 0.254621 0
M  V30 4994 C 469.505 1.89666 1.31512 0
M  V30 4995 C 470.475 0.750057 1.482 0
M  V30 4996 O 471.66 1.00301 1.62309 0
M  V30 4997 C 468.8 2.19009 2.667 0
M  V30 4998 C 467.913 3.46435 2.58083 0
M  V30 4999 C 467.048 3.65386 3.85573 0
M  V30 5000 C 466.087 4.8644 3.71541 0
M  V30 5001 N 465.224 5.01952 4.90906 0
M  V30 5002 H 470.064 2.80109 1.017 0
M  V30 5003 H 467.601 1.38666 0.490938 0
M  V30 5004 H 469.559 2.34025 3.45381 0
M  V30 5005 H 468.189 1.31779 2.94676 0
M  V30 5006 H 467.241 3.39792 1.71013 0
M  V30 5007 H 468.553 4.35258 2.43622 0
M  V30 5008 H 467.707 3.80319 4.72697 0
M  V30 5009 H 466.446 2.74781 4.02922 0
M  V30 5010 H 465.451 4.71491 2.82801 0
M  V30 5011 H 466.676 5.78497 3.55694 0
M  V30 5012 H 464.622 4.14283 5.08631 0
M  V30 5013 H 464.539 5.84851 4.79046 0
M  V30 5014 H 465.807 5.21289 5.7955 0
M  V30 5015 N 470.036 -0.519951 1.48776 0
M  V30 5016 C 471.276 -1.2856 1.58908 0
M  V30 5017 C 471.64 -1.90212 0.261418 0
M  V30 5018 O 472.841 -2.67746 0.237791 0
M  V30 5019 C 471.112 -2.33836 2.70288 0
M  V30 5020 S 472.671 -3.19992 3.0025 0
M  V30 5021 H 469.489 -0.43717 0.560717 0
M  V30 5022 H 472.091 -0.591205 1.86346 0
M  V30 5023 H 470.795 -1.87041 3.653 0
M  V30 5024 H 470.326 -3.07969 2.44783 0
M  V30 5025 H 472.341 -4.34122 2.40317 0
M  V30 5026 N 471.514 -1.37532 -0.769588 0
M  V30 5027 C 472.424 -1.35668 -1.91393 0
M  V30 5028 C 473.44 -0.255954 -1.72107 0
M  V30 5029 O 474.616 -0.491704 -1.95305 0
M  V30 5030 C 471.681 -1.16481 -3.26547 0
M  V30 5031 C 470.742 -2.36212 -3.58472 0
M  V30 5032 C 469.975 -2.17932 -4.87177 0
M  V30 5033 O 470.198 -1.1647 -5.58382 0
M  V30 5034 O 469.132 -3.06167 -5.18214 0
M  V30 5035 H 472.958 -2.32055 -1.95918 0
M  V30 5036 H 470.543 -1.18284 -0.912641 0
M  V30 5037 H 472.425 -1.07778 -4.07384 0
M  V30 5038 H 471.1 -0.231687 -3.2287 0
M  V30 5039 H 470.007 -2.50488 -2.77861 0
M  V30 5040 H 471.34 -3.281 -3.66894 0
M  V30 5041 N 472.992 0.995999 -1.22138 0
M  V30 5042 C 473.939 2.08551 -0.988687 0
M  V30 5043 C 474.909 1.65864 0.0885021 0
M  V30 5044 O 476.094 1.90704 -0.0604589 0
M  V30 5045 C 473.234 3.40374 -0.569191 0
M  V30 5046 C 472.347 3.96421 -1.71681 0
M  V30 5047 C 471.482 5.1639 -1.2456 0
M  V30 5048 C 470.521 5.64567 -2.36497 0
M  V30 5049 N 469.658 6.75777 -1.90445 0
M  V30 5050 H 474.498 2.2779 -1.92135 0
M  V30 5051 H 472.035 1.1168 -0.957388 0
M  V30 5052 H 473.993 4.16068 -0.307166 0
M  V30 5053 H 472.623 3.21145 0.326462 0
M  V30 5054 H 471.675 3.17628 -2.09324 0
M  V30 5055 H 472.987 4.2816 -2.55891 0
M  V30 5056 H 472.141 5.99362 -0.940774 0
M  V30 5057 H 470.88 4.86266 -0.373662 0
M  V30 5058 H 469.885 4.80185 -2.67772 0
M  V30 5059 H 471.11 5.96716 -3.24202 0
M  V30 5060 H 469.056 6.47443 -1.05609 0
M  V30 5061 H 468.973 7.06818 -2.68223 0
M  V30 5062 H 470.241 7.62262 -1.63022 0
M  V30 5063 N 474.47 1.03057 1.19235 0
M  V30 5064 C 475.38 0.622922 2.26179 0
M  V30 5065 C 476.396 -0.346113 1.70523 0
M  V30 5066 O 477.572 -0.203572 2.00369 0
M  V30 5067 C 474.637 -0.0182063 3.46695 0
M  V30 5068 C 473.698 0.998546 4.17526 0
M  V30 5069 C 472.931 0.387917 5.32288 0
M  V30 5070 O 473.154 -0.808668 5.64639 0
M  V30 5071 O 472.088 1.1116 5.91546 0
M  V30 5072 H 475.914 1.51363 2.63292 0
M  V30 5073 H 473.499 0.800856 1.26122 0
M  V30 5074 H 475.381 -0.375606 4.19723 0
M  V30 5075 H 474.056 -0.882895 3.11427 0
M  V30 5076 H 472.963 1.40756 3.4661 0
M  V30 5077 H 474.296 1.83366 4.56769 0
M  V30 5078 N 475.948 -1.35272 0.808662 0
M  V30 5079 C 477.197 -1.97963 0.386483 0
M  V30 5080 C 477.51 -1.64866 -1.05255 0
M  V30 5081 O 478.716 -2.20937 -1.57794 0
M  V30 5082 C 477.172 -3.54162 0.640096 0
M  V30 5083 C 476.78 -3.96166 2.0918 0
M  V30 5084 C 478.524 -4.23553 0.283376 0
M  V30 5085 C 476.431 -5.4522 2.29106 0
M  V30 5086 H 475.361 -0.740742 0.140774 0
M  V30 5087 H 478.012 -1.5431 0.993012 0
M  V30 5088 H 476.394 -3.95983 -0.0364117 0
M  V30 5089 H 477.568 -3.65491 2.80629 0
M  V30 5090 H 475.883 -3.3967 2.40859 0
M  V30 5091 H 478.48 -5.33124 0.410273 0
M  V30 5092 H 478.823 -4.09105 -0.770659 0
M  V30 5093 H 479.356 -3.8716 0.913884 0
M  V30 5094 H 476.095 -5.64638 3.32962 0
M  V30 5095 H 475.615 -5.77457 1.62184 0
M  V30 5096 H 477.294 -6.1171 2.1076 0
M  V30 5097 N 477.426 -0.562348 -1.47226 0
M  V30 5098 C 478.703 0.0256985 -1.95583 0
M  V30 5099 C 479.083 1.48032 -1.50498 0
M  V30 5100 O 478.431 2.15973 -0.746181 0
M  V30 5101 C 478.641 -0.125129 -3.48776 0
M  V30 5102 C 479.989 0.0175728 -4.24596 0
M  V30 5103 O 481.013 -0.0529341 -3.56161 0
M  V30 5104 O 479.872 0.170145 -5.46235 0
M  V30 5105 H 476.966 0.0612565 -0.824728 0
M  V30 5106 H 479.512 -0.629233 -1.57603 0
M  V30 5107 H 478.284 -1.13715 -3.74412 0
M  V30 5108 H 477.907 0.567178 -3.93534 0
M  V30 5109 N 478.904 1.54736 -0.299062 0
M  V30 5110 C 479.854 2.20155 0.592932 0
M  V30 5111 C 480.838 1.1739 1.10038 0
M  V30 5112 O 482.03 1.43116 1.04147 0
M  V30 5113 C 479.159 2.94437 1.76527 0
M  V30 5114 C 478.245 4.04516 1.27388 0
M  V30 5115 N 478.636 5.03319 0.500339 0
M  V30 5116 C 476.934 4.18022 1.55478 0
M  V30 5117 C 477.635 5.81209 0.238909 0
M  V30 5118 N 476.611 5.37408 0.818163 0
M  V30 5119 H 480.413 2.93899 -0.00563596 0
M  V30 5120 H 477.927 1.62068 -0.103732 0
M  V30 5121 H 479.924 3.3977 2.41582 0
M  V30 5122 H 478.584 2.22209 2.36756 0
M  V30 5123 H 479.595 5.17696 0.145419 0
M  V30 5124 H 476.272 3.56998 2.16469 0
M  V30 5125 H 477.662 6.70812 -0.382223 0
M  V30 5126 N 480.382 0.0267497 1.57577 0
M  V30 5127 C 481.329 -0.955894 2.10075 0
M  V30 5128 C 482.299 -1.32453 1.00226 0
M  V30 5129 O 483.484 -1.41826 1.27632 0
M  V30 5130 C 480.624 -2.2338 2.6305 0
M  V30 5131 C 479.737 -1.92183 3.86898 0
M  V30 5132 C 478.872 -3.14251 4.28275 0
M  V30 5133 C 477.911 -2.78862 5.44888 0
M  V30 5134 N 477.048 -3.93548 5.81433 0
M  V30 5135 H 481.888 -0.501303 2.93753 0
M  V30 5136 H 479.425 -0.235847 1.45197 0
M  V30 5137 H 481.383 -2.98124 2.91853 0
M  V30 5138 H 480.013 -2.6646 1.82205 0
M  V30 5139 H 479.065 -1.07692 3.64838 0
M  V30 5140 H 480.377 -1.62117 4.7172 0
M  V30 5141 H 479.531 -3.97317 4.58502 0
M  V30 5142 H 478.27 -3.47476 3.42215 0
M  V30 5143 H 477.275 -1.94208 5.14357 0
M  V30 5144 H 478.5 -2.46855 6.32645 0
M  V30 5145 H 476.446 -4.2662 4.98328 0
M  V30 5146 H 476.363 -3.67098 6.6089 0
M  V30 5147 H 477.631 -4.77325 6.16264 0
M  V30 5148 N 481.861 -1.55662 -0.24637 0
M  V30 5149 C 482.771 -1.93495 -1.32653 0
M  V30 5150 C 483.787 -0.835462 -1.5263 0
M  V30 5151 O 484.963 -1.1369 -1.66242 0
M  V30 5152 C 482.028 -2.22242 -2.66101 0
M  V30 5153 C 481.089 -3.45625 -2.54641 0
M  V30 5154 C 480.322 -3.72991 -3.81724 0
M  V30 5155 O 480.545 -3.02421 -4.8363 0
M  V30 5156 O 479.479 -4.66515 -3.80325 0
M  V30 5157 H 483.305 -2.85498 -1.03559 0
M  V30 5158 H 480.89 -1.42551 -0.44717 0
M  V30 5159 H 482.772 -2.42037 -3.44958 0
M  V30 5160 H 481.447 -1.33417 -2.94926 0
M  V30 5161 H 480.354 -3.31136 -1.74067 0
M  V30 5162 H 481.687 -4.34754 -2.3076 0
M  V30 5163 N 483.339 0.512053 -1.4905 0
M  V30 5164 C 484.564 1.2959 -1.6193 0
M  V30 5165 C 484.989 1.85906 -0.286454 0
M  V30 5166 O 484.347 1.65312 0.744426 0
M  V30 5167 C 484.395 2.40987 -2.68249 0
M  V30 5168 O 483.499 3.44531 -2.26654 0
M  V30 5169 H 482.84 0.383053 -0.542371 0
M  V30 5170 H 485.37 0.614231 -1.95162 0
M  V30 5171 H 485.38 2.86913 -2.90078 0
M  V30 5172 H 484.055 1.99361 -3.65004 0
M  V30 5173 H 482.632 3.046 -2.15112 0
M  V30 5174 N 484.817 1.37938 0.762283 0
M  V30 5175 C 485.764 1.34467 1.87583 0
M  V30 5176 C 486.734 0.208633 1.64785 0
M  V30 5177 O 487.919 0.399494 1.86571 0
M  V30 5178 C 485.059 1.16692 3.24772 0
M  V30 5179 C 484.172 2.39608 3.59461 0
M  V30 5180 C 483.307 2.14631 4.85908 0
M  V30 5181 C 482.346 3.33364 5.13357 0
M  V30 5182 N 481.483 3.07877 6.30996 0
M  V30 5183 H 486.323 2.29669 1.89885 0
M  V30 5184 H 483.86 1.14116 0.928219 0
M  V30 5185 H 485.818 1.04405 4.03925 0
M  V30 5186 H 484.448 0.251333 3.2182 0
M  V30 5187 H 483.5 2.626 2.75219 0
M  V30 5188 H 484.812 3.28128 3.75678 0
M  V30 5189 H 483.966 1.99429 5.72986 0
M  V30 5190 H 482.705 1.23463 4.71814 0
M  V30 5191 H 481.71 3.49094 4.24751 0
M  V30 5192 H 482.935 4.25395 5.29354 0
M  V30 5193 H 480.881 2.19348 6.18241 0
M  V30 5194 H 480.798 3.89944 6.47673 0
M  V30 5195 H 482.066 2.96313 7.20985 0
M  V30 5196 N 486.295 -0.989507 1.22664 0
M  V30 5197 C 487.541 -1.73298 1.06487 0
M  V30 5198 C 487.896 -1.88292 -0.395438 0
M  V30 5199 O 487.189 -1.41748 -1.28911 0
M  V30 5200 C 487.383 -3.13649 1.71345 0
M  V30 5201 C 487.212 -3.12341 3.23532 0
M  V30 5202 C 485.982 -3.18044 3.92653 0
M  V30 5203 C 488.18 -2.96226 4.20422 0
M  V30 5204 N 486.162 -3.06526 5.31898 0
M  V30 5205 C 487.533 -2.92773 5.4652 0
M  V30 5206 C 489.588 -2.80642 4.11271 0
M  V30 5207 C 488.291 -2.75332 6.64519 0
M  V30 5208 C 490.317 -2.64563 5.28924 0
M  V30 5209 C 489.679 -2.618 6.53942 0
M  V30 5210 H 485.778 -0.643643 0.444126 0
M  V30 5211 H 488.362 -1.17489 1.55256 0
M  V30 5212 H 486.533 -3.67694 1.25122 0
M  V30 5213 H 488.265 -3.76577 1.48229 0
M  V30 5214 H 485.02 -3.25861 3.43673 0
M  V30 5215 H 485.444 -3.04067 6.04874 0
M  V30 5216 H 490.086 -2.81574 3.15398 0
M  V30 5217 H 487.804 -2.73145 7.60538 0
M  V30 5218 H 491.39 -2.53482 5.23677 0
M  V30 5219 H 490.27 -2.49511 7.43447 0
M  V30 5220 N 487.773 -1.03688 -1.18687 0
M  V30 5221 C 489.022 -0.733235 -1.879 0
M  V30 5222 C 489.335 0.741745 -1.8099 0
M  V30 5223 O 490.541 1.15875 -2.4553 0
M  V30 5224 C 488.997 -1.26127 -3.37076 0
M  V30 5225 C 488.605 -2.76461 -3.52524 0
M  V30 5226 C 490.349 -1.03398 -4.11715 0
M  V30 5227 C 488.256 -3.22642 -4.95637 0
M  V30 5228 H 487.186 -0.270584 -0.703776 0
M  V30 5229 H 489.837 -1.25222 -1.34133 0
M  V30 5230 H 488.219 -0.670165 -3.90288 0
M  V30 5231 H 489.393 -3.41296 -3.09602 0
M  V30 5232 H 487.708 -2.97559 -2.91286 0
M  V30 5233 H 490.305 -1.3542 -5.17267 0
M  V30 5234 H 490.648 0.0289246 -4.1629 0
M  V30 5235 H 491.181 -1.5895 -3.64664 0
M  V30 5236 H 487.92 -4.28296 -4.96228 0
M  V30 5237 H 487.44 -2.62539 -5.39289 0
M  V30 5238 H 489.119 -3.16444 -5.64333 0
M  V30 5239 N 489.251 1.34841 -0.815825 0
M  V30 5240 C 490.528 1.92908 -0.323416 0
M  V30 5241 C 490.908 1.74479 1.18828 0
M  V30 5242 O 490.256 1.11928 1.99209 0
M  V30 5243 C 490.466 3.40957 -0.744952 0
M  V30 5244 C 491.814 4.18107 -0.739716 0
M  V30 5245 O 492.838 3.49511 -0.68708 0
M  V30 5246 O 491.697 5.40517 -0.806456 0
M  V30 5247 H 488.791 0.822436 -0.0867646 0
M  V30 5248 H 491.337 1.4386 -0.90014 0
M  V30 5249 H 490.109 3.4814 -1.78646 0
M  V30 5250 H 489.732 3.97341 -0.143535 0
M  V30 5251 N 490.729 0.570148 1.46925 0
M  V30 5252 C 492.006 -0.0153259 1.95594 0
M  V30 5253 C 492.386 -1.47232 1.51281 0
M  V30 5254 O 491.734 -2.15574 0.757624 0
M  V30 5255 C 491.944 0.143624 3.48704 0
M  V30 5256 C 493.292 0.00494484 4.246 0
M  V30 5257 O 494.316 0.0718214 3.56128 0
M  V30 5258 O 493.175 -0.141175 5.46318 0
M  V30 5259 H 490.269 -0.0568819 0.825041 0
M  V30 5260 H 492.815 0.637583 1.57267 0
M  V30 5261 H 491.587 1.15699 3.73804 0
M  V30 5262 H 491.21 -0.5463 3.93829 0
M  V30 5263 N 492.207 -1.54576 0.307264 0
M  V30 5264 C 493.117 -2.27435 -0.57536 0
M  V30 5265 C 494.133 -1.31183 -1.14311 0
M  V30 5266 O 495.309 -1.64175 -1.16656 0
M  V30 5267 C 492.374 -3.00566 -1.72803 0
M  V30 5268 C 491.435 -4.12369 -1.19373 0
M  V30 5269 C 490.668 -4.82003 -2.29147 0
M  V30 5270 O 490.891 -4.51038 -3.49171 0
M  V30 5271 O 489.825 -5.69271 -1.95485 0
M  V30 5272 H 493.651 -3.03696 0.0158558 0
M  V30 5273 H 491.236 -1.49219 0.0735064 0
M  V30 5274 H 493.118 -3.46416 -2.39946 0
M  V30 5275 H 491.793 -2.27195 -2.30574 0
M  V30 5276 H 490.7 -3.70905 -0.487851 0
M  V30 5277 H 492.033 -4.87736 -0.661376 0
M  V30 5278 N 493.685 -0.035106 -1.57561 0
M  V30 5279 C 494.595 0.960295 -2.14046 0
M  V30 5280 C 495.611 1.3529 -1.0942 0
M  V30 5281 O 496.787 1.43309 -1.41508 0
M  V30 5282 C 493.852 2.22214 -2.66124 0
M  V30 5283 C 492.913 1.8894 -3.85487 0
M  V30 5284 C 492.146 3.09109 -4.35072 0
M  V30 5285 O 492.369 4.21963 -3.83802 0
M  V30 5286 O 491.303 2.91058 -5.26848 0
M  V30 5287 H 495.129 0.509983 -2.99387 0
M  V30 5288 H 492.714 0.185853 -1.48239 0
M  V30 5289 H 494.596 2.96279 -2.99661 0
M  V30 5290 H 493.271 2.66414 -1.83862 0
M  V30 5291 H 492.178 1.12241 -3.56865 0
M  V30 5292 H 493.511 1.49551 -4.6893 0
M  V30 5293 N 495.163 1.55791 0.238111 0
M  V30 5294 C 496.41 1.78033 0.964907 0
M  V30 5295 C 496.738 0.600984 1.84982 0
M  V30 5296 O 495.993 -0.41536 1.91241 0
M  V30 5297 C 496.292 3.05869 1.84875 0
M  V30 5298 C 495.958 4.36808 1.11846 0
M  V30 5299 C 494.62 4.72388 0.916662 0
M  V30 5300 C 496.972 5.17717 0.60151 0
M  V30 5301 C 494.3 5.86406 0.185756 0
M  V30 5302 C 496.652 6.32494 -0.115972 0
M  V30 5303 C 495.316 6.66688 -0.329168 0
M  V30 5304 H 494.586 0.651469 0.353085 0
M  V30 5305 H 497.233 1.90061 0.234318 0
M  V30 5306 H 495.538 2.88891 2.64668 0
M  V30 5307 H 497.235 3.20278 2.41294 0
M  V30 5308 H 493.825 4.08862 1.28569 0
M  V30 5309 H 498.009 4.90678 0.744932 0
M  V30 5310 H 493.265 6.11399 0.0101886 0
M  V30 5311 H 497.439 6.94425 -0.524127 0
M  V30 5312 H 495.066 7.54884 -0.897474 0
M  V30 5313 N 496.642 -0.504142 1.49319 0
M  V30 5314 C 497.572 -1.61473 1.68667 0
M  V30 5315 C 498.553 -1.61455 0.535378 0
M  V30 5316 O 499.738 -1.78245 0.770868 0
M  V30 5317 C 496.868 -2.99971 1.75028 0
M  V30 5318 C 495.822 -3.14854 2.89916 0
M  V30 5319 C 495.148 -4.54671 2.81387 0
M  V30 5320 C 496.448 -2.95176 4.30893 0
M  V30 5321 H 498.142 -1.45535 2.61648 0
M  V30 5322 H 495.688 -0.698711 1.25913 0
M  V30 5323 H 497.641 -3.77562 1.8715 0
M  V30 5324 H 496.365 -3.1699 0.786441 0
M  V30 5325 H 495.024 -2.39687 2.77391 0
M  V30 5326 H 494.672 -4.68562 1.82917 0
M  V30 5327 H 494.372 -4.6557 3.58494 0
M  V30 5328 H 495.896 -5.34327 2.95512 0
M  V30 5329 H 497.31 -3.62538 4.44116 0
M  V30 5330 H 495.707 -3.17549 5.09198 0
M  V30 5331 H 496.777 -1.91332 4.45556 0
M  V30 5332 N 498.12 -1.38341 -0.754957 0
M  V30 5333 C 499.369 -1.33791 -1.5094 0
M  V30 5334 C 499.682 0.0699267 -1.95475 0
M  V30 5335 O 500.888 0.237956 -2.70455 0
M  V30 5336 C 499.344 -2.34934 -2.72643 0
M  V30 5337 C 498.952 -3.81332 -2.35138 0
M  V30 5338 C 500.696 -2.39425 -3.50536 0
M  V30 5339 C 498.603 -4.74164 -3.53444 0
M  V30 5340 H 497.533 -0.497314 -0.566741 0
M  V30 5341 H 500.184 -1.63888 -0.825403 0
M  V30 5342 H 498.566 -1.97878 -3.43017 0
M  V30 5343 H 499.74 -4.27319 -1.7244 0
M  V30 5344 H 498.055 -3.79946 -1.70382 0
M  V30 5345 H 500.652 -3.0598 -4.38498 0
M  V30 5346 H 500.995 -1.41278 -3.91594 0
M  V30 5347 H 501.528 -2.75274 -2.87174 0
M  V30 5348 H 498.267 -5.73501 -3.17453 0
M  V30 5349 H 497.787 -4.3287 -4.15191 0
M  V30 5350 H 499.466 -4.92111 -4.20043 0
M  V30 5351 N 499.598 0.982988 -1.23187 0
M  V30 5352 C 500.545 2.07491 -1.01075 0
M  V30 5353 C 501.515 1.65949 0.070905 0
M  V30 5354 O 502.7 1.90629 -0.0806822 0
M  V30 5355 C 499.84 3.39751 -0.605261 0
M  V30 5356 C 498.953 3.94578 -1.75876 0
M  V30 5357 C 498.088 5.15039 -1.3003 0
M  V30 5358 C 497.127 5.62027 -2.42472 0
M  V30 5359 N 496.264 6.73719 -1.97602 0
M  V30 5360 H 501.104 2.25739 -1.9454 0
M  V30 5361 H 498.641 1.10659 -0.969179 0
M  V30 5362 H 500.599 4.15719 -0.351279 0
M  V30 5363 H 499.229 3.21473 0.292382 0
M  V30 5364 H 498.281 3.1539 -2.12681 0
M  V30 5365 H 499.593 4.25422 -2.60418 0
M  V30 5366 H 498.747 5.9833 -1.00429 0
M  V30 5367 H 497.486 4.85843 -0.425216 0
M  V30 5368 H 496.491 4.77318 -2.7285 0
M  V30 5369 H 497.716 5.93244 -3.30512 0
M  V30 5370 H 495.662 6.46287 -1.1247 0
M  V30 5371 H 495.579 7.03934 -2.75705 0
M  V30 5372 H 496.847 7.6049 -1.71098 0
M  V30 5373 N 501.076 1.04316 1.18135 0
M  V30 5374 C 502.325 0.74319 1.87509 0
M  V30 5375 C 502.638 -0.732136 1.81381 0
M  V30 5376 O 503.844 -1.14572 2.46141 0
M  V30 5377 C 502.3 1.27913 3.36402 0
M  V30 5378 C 501.908 2.78326 3.51053 0
M  V30 5379 C 503.652 1.0558 4.11161 0
M  V30 5380 C 501.559 3.25266 4.93919 0
M  V30 5381 H 500.489 0.274313 0.702331 0
M  V30 5382 H 503.14 1.25931 1.33467 0
M  V30 5383 H 501.522 0.690853 3.89927 0
M  V30 5384 H 502.696 3.42933 3.07788 0
M  V30 5385 H 501.011 2.991 2.89704 0
M  V30 5386 H 503.608 1.38161 5.16542 0
M  V30 5387 H 503.951 -0.00684729 4.16299 0
M  V30 5388 H 504.484 1.60882 3.63816 0
M  V30 5389 H 501.223 4.30922 4.9395 0
M  V30 5390 H 500.743 2.65396 5.3789 0
M  V30 5391 H 502.422 3.19433 5.62647 0
M  V30 5392 N 502.554 -1.34406 0.822964 0
M  V30 5393 C 503.517 -2.2783 0.250271 0
M  V30 5394 C 504.517 -1.50288 -0.571854 0
M  V30 5395 O 505.707 -1.69825 -0.387952 0
M  V30 5396 C 502.839 -3.34663 -0.649137 0
M  V30 5397 H 504.032 -2.79992 1.07444 0
M  V30 5398 H 501.585 -1.44539 0.594829 0
M  V30 5399 H 502.32 -2.87714 -1.49637 0
M  V30 5400 H 502.105 -3.92052 -0.0611199 0
M  V30 5401 H 503.595 -4.04349 -1.04363 0
M  V30 5402 N 504.032 -0.577932 -1.46621 0
M  V30 5403 C 504.995 0.147805 -2.28723 0
M  V30 5404 C 505.995 0.823325 -1.38123 0
M  V30 5405 O 507.185 0.676011 -1.60548 0
M  V30 5406 C 504.317 1.21853 -3.18378 0
M  V30 5407 H 505.51 -0.573654 -2.94362 0
M  V30 5408 H 503.063 -0.335703 -1.52652 0
M  V30 5409 H 503.798 1.97173 -2.57475 0
M  V30 5410 H 503.583 0.738714 -3.85078 0
M  V30 5411 H 505.073 1.72768 -3.80186 0
M  V30 5412 N 505.51 1.54411 -0.315457 0
M  V30 5413 C 506.759 1.99599 0.290395 0
M  V30 5414 C 507.072 1.20746 1.53882 0
M  V30 5415 O 508.278 1.56272 2.22017 0
M  V30 5416 C 506.734 3.5539 0.56797 0
M  V30 5417 C 506.342 4.43068 -0.662945 0
M  V30 5418 C 508.086 4.09067 1.13422 0
M  V30 5419 C 505.993 5.90317 -0.357722 0
M  V30 5420 H 504.923 0.745592 0.112286 0
M  V30 5421 H 507.574 1.78477 -0.426418 0
M  V30 5422 H 505.956 3.72468 1.34476 0
M  V30 5423 H 507.13 4.37765 -1.43869 0
M  V30 5424 H 505.445 4.00238 -1.14884 0
M  V30 5425 H 508.042 5.16663 1.37707 0
M  V30 5426 H 508.385 3.60552 2.08106 0
M  V30 5427 H 508.918 3.95589 0.418805 0
M  V30 5428 H 505.657 6.4301 -1.27351 0
M  V30 5429 H 505.177 5.98592 0.380472 0
M  V30 5430 H 506.856 6.4699 0.0354284 0
M  V30 5431 N 506.988 0.0434614 1.5754 0
M  V30 5432 C 508.265 -0.671479 1.83713 0
M  V30 5433 C 508.645 -1.89495 0.930315 0
M  V30 5434 O 507.993 -2.28498 -0.0105639 0
M  V30 5435 C 508.203 -1.0361 3.33266 0
M  V30 5436 C 509.551 -1.42167 4.00092 0
M  V30 5437 O 510.575 -1.12866 3.37846 0
M  V30 5438 O 509.434 -1.96817 5.09829 0
M  V30 5439 H 506.528 -0.330726 0.75799 0
M  V30 5440 H 509.074 0.0722373 1.69546 0
M  V30 5441 H 507.846 -0.165938 3.90948 0
M  V30 5442 H 507.469 -1.83751 3.52592 0
M  V30 5443 N 508.466 -1.55915 -0.229846 0
M  V30 5444 C 509.414 -1.9258 -1.30444 0
M  V30 5445 C 510.408 -0.806839 -1.48951 0
M  V30 5446 O 511.614 -0.991606 -1.50224 0
M  V30 5447 H 507.989 -0.611878 -0.437161 0
M  V30 5448 H 509.96 -2.82264 -0.96797 0
M  V30 5449 C 508.709 -2.25171 -2.6494 0
M  V30 5450 H 508.032 -3.10782 -2.51504 0
M  V30 5451 H 509.472 -2.54716 -3.38963 0
M  V30 5452 C 507.931 -1.07394 -3.19324 0
M  V30 5453 O 508.461 -0.330759 -4.00336 0
M  V30 5454 N 506.667 -0.859984 -2.77584 0
M  V30 5455 H 506.214 -1.46605 -2.11813 0
M  V30 5456 H 506.172 -0.0736671 -3.14314 0
M  V30 5457 N 509.944 0.496216 -1.49584 0
M  V30 5458 C 511.192 1.24756 -1.58998 0
M  V30 5459 C 511.513 1.92968 -0.280775 0
M  V30 5460 O 510.783 1.82959 0.700198 0
M  V30 5461 H 509.363 0.463471 -0.585836 0
M  V30 5462 H 512.025 0.574678 -1.86235 0
M  V30 5463 H 511.121 2.00895 -2.38847 0
M  V30 5464 N 511.423 1.38739 0.74761 0
M  V30 5465 C 512.353 1.39173 1.87492 0
M  V30 5466 C 513.334 0.256794 1.6815 0
M  V30 5467 O 514.519 0.460762 1.88655 0
M  V30 5468 C 511.649 1.22197 3.25093 0
M  V30 5469 C 510.603 2.32957 3.59047 0
M  V30 5470 C 509.929 2.01082 4.95449 0
M  V30 5471 C 511.229 3.75237 3.6331 0
M  V30 5472 H 512.923 2.3351 1.87386 0
M  V30 5473 H 510.469 1.12399 0.900134 0
M  V30 5474 H 512.422 1.21124 4.03617 0
M  V30 5475 H 511.146 0.243241 3.25693 0
M  V30 5476 H 509.805 2.33226 2.82845 0
M  V30 5477 H 509.453 1.01678 4.92616 0
M  V30 5478 H 509.153 2.75267 5.19136 0
M  V30 5479 H 510.677 2.01638 5.76346 0
M  V30 5480 H 512.091 3.76966 4.31937 0
M  V30 5481 H 510.488 4.48677 3.98509 0
M  V30 5482 H 511.558 4.07122 2.634 0
M  V30 5483 N 512.901 -0.976442 1.23707 0
M  V30 5484 C 513.864 -2.0511 1.02287 0
M  V30 5485 C 514.864 -1.60791 -0.0167195 0
M  V30 5486 O 516.054 -1.72761 0.223408 0
M  V30 5487 C 513.186 -3.36458 0.548507 0
M  V30 5488 H 514.379 -2.25545 1.9766 0
M  V30 5489 H 511.932 -1.15042 1.05806 0
M  V30 5490 H 512.667 -3.21713 -0.408818 0
M  V30 5491 H 512.452 -3.69967 1.29874 0
M  V30 5492 H 513.942 -4.15489 0.419406 0
M  V30 5493 N 514.379 -1.04941 -1.1758 0
M  V30 5494 C 515.626 -0.757989 -1.87779 0
M  V30 5495 C 515.954 0.714827 -1.80888 0
M  V30 5496 O 515.209 1.53824 -1.20982 0
M  V30 5497 C 515.508 -1.18062 -3.37337 0
M  V30 5498 C 515.174 -2.65521 -3.6443 0
M  V30 5499 C 513.836 -3.05804 -3.71534 0
M  V30 5500 C 516.188 -3.60822 -3.76108 0
M  V30 5501 C 513.516 -4.40256 -3.87803 0
M  V30 5502 C 515.868 -4.95005 -3.93895 0
M  V30 5503 C 514.532 -5.34945 -3.99237 0
M  V30 5504 H 513.802 -0.277368 -0.68713 0
M  V30 5505 H 516.449 -1.31603 -1.39115 0
M  V30 5506 H 514.754 -0.541525 -3.8804 0
M  V30 5507 H 516.451 -0.932368 -3.9001 0
M  V30 5508 H 513.041 -2.33324 -3.59524 0
M  V30 5509 H 517.225 -3.30841 -3.69943 0
M  V30 5510 H 512.481 -4.70707 -3.90186 0
M  V30 5511 H 516.655 -5.68746 -4.01872 0
M  V30 5512 H 514.282 -6.39135 -4.11596 0
M  V30 5513 N 515.857 1.33968 -0.830081 0
M  V30 5514 C 517.268 1.80439 -0.479455 0
M  V30 5515 C 517.619 1.68756 1.00079 0
M  V30 5516 O 516.744 1.23171 1.77927 0
M  V30 5517 C 517.339 3.27611 -0.863505 0
M  V30 5518 C 515.898 3.72133 -0.565145 0
M  V30 5519 C 515.045 2.55549 -1.07657 0
M  V30 5520 H 517.996 1.21614 -1.0196 0
M  V30 5521 H 518.017 3.8012 -0.170083 0
M  V30 5522 H 517.529 3.36082 -1.94089 0
M  V30 5523 H 515.63 3.69196 0.502536 0
M  V30 5524 H 515.743 4.65963 -1.11422 0
M  V30 5525 H 514.107 2.49788 -0.497807 0
M  V30 5526 H 514.89 2.66786 -2.16055 0
M  V30 5527 N 517.335 0.585699 1.46312 0
M  V30 5528 C 518.582 0.0724211 2.0237 0
M  V30 5529 C 518.91 -1.28868 1.45683 0
M  V30 5530 O 518.165 -1.85853 0.612945 0
M  V30 5531 C 518.464 -0.0401312 3.57377 0
M  V30 5532 C 518.13 1.25376 4.33119 0
M  V30 5533 C 516.792 1.60824 4.5353 0
M  V30 5534 C 519.144 2.10987 4.76586 0
M  V30 5535 C 516.472 2.81676 5.14661 0
M  V30 5536 C 518.824 3.31068 5.39052 0
M  V30 5537 C 517.488 3.66794 5.5769 0
M  V30 5538 H 516.758 0.0265007 0.740526 0
M  V30 5539 H 519.405 0.762935 1.75646 0
M  V30 5540 H 517.71 -0.813791 3.83255 0
M  V30 5541 H 519.407 -0.453078 3.98432 0
M  V30 5542 H 515.997 0.967808 4.1753 0
M  V30 5543 H 520.181 1.84904 4.60569 0
M  V30 5544 H 515.437 3.0949 5.27282 0
M  V30 5545 H 519.611 3.97672 5.71691 0
M  V30 5546 H 517.238 4.60529 6.04828 0
M  V30 5547 N 518.813 -1.54241 0.323641 0
M  V30 5548 C 519.76 -2.24339 -0.542277 0
M  V30 5549 C 520.73 -1.23421 -1.11159 0
M  V30 5550 O 521.915 -1.52104 -1.15192 0
M  V30 5551 C 519.055 -3.00479 -1.69725 0
M  V30 5552 C 518.168 -4.16214 -1.15716 0
M  V30 5553 C 517.303 -4.79884 -2.27783 0
M  V30 5554 C 516.342 -5.87722 -1.71023 0
M  V30 5555 N 515.479 -6.45254 -2.76752 0
M  V30 5556 H 520.319 -2.97935 0.0620613 0
M  V30 5557 H 517.856 -1.47039 0.0423993 0
M  V30 5558 H 519.814 -3.42869 -2.3769 0
M  V30 5559 H 518.444 -2.29217 -2.27288 0
M  V30 5560 H 517.496 -3.78605 -0.369063 0
M  V30 5561 H 518.808 -4.93838 -0.701832 0
M  V30 5562 H 517.962 -5.25243 -3.03651 0
M  V30 5563 H 516.701 -4.01641 -2.76652 0
M  V30 5564 H 515.706 -5.41765 -0.936518 0
M  V30 5565 H 516.931 -6.67863 -1.2303 0
M  V30 5566 H 514.877 -5.69884 -3.24912 0
M  V30 5567 H 514.794 -7.18292 -2.35782 0
M  V30 5568 H 516.062 -6.95269 -3.5245 0
M  V30 5569 N 520.291 -0.0518155 -1.57515 0
M  V30 5570 C 521.241 0.932017 -2.0808 0
M  V30 5571 C 522.225 1.27141 -0.986098 0
M  V30 5572 O 523.417 1.25373 -1.24943 0
M  V30 5573 C 520.546 2.20665 -2.62986 0
M  V30 5574 C 519.632 1.89462 -3.79427 0
M  V30 5575 N 520.023 1.28621 -4.89173 0
M  V30 5576 C 518.321 2.19327 -3.88345 0
M  V30 5577 C 519.022 1.15062 -5.70207 0
M  V30 5578 N 517.998 1.65372 -5.17835 0
M  V30 5579 H 521.8 0.456964 -2.90326 0
M  V30 5580 H 519.314 0.152619 -1.61681 0
M  V30 5581 H 521.311 2.92044 -2.97516 0
M  V30 5582 H 519.971 2.68776 -1.8218 0
M  V30 5583 H 520.982 0.958341 -5.08956 0
M  V30 5584 H 517.659 2.69955 -3.18482 0
M  V30 5585 H 519.049 0.678243 -6.68468 0
M  V30 5586 N 521.769 1.56035 0.221574 0
M  V30 5587 C 523.18 1.69229 0.788567 0
M  V30 5588 C 523.531 0.653814 1.84986 0
M  V30 5589 O 522.656 -0.195065 2.15519 0
M  V30 5590 C 523.251 3.06809 1.43713 0
M  V30 5591 C 521.81 3.21858 1.95152 0
M  V30 5592 C 520.957 2.65155 0.811685 0
M  V30 5593 H 523.908 1.587 -0.00307894 0
M  V30 5594 H 523.929 3.02666 2.30594 0
M  V30 5595 H 523.441 3.82369 0.664475 0
M  V30 5596 H 521.542 2.51167 2.7522 0
M  V30 5597 H 521.655 4.29073 2.1315 0
M  V30 5598 H 520.019 2.23635 1.21899 0
M  V30 5599 H 520.802 3.43261 0.0516987 0
M  V30 5600 N 523.247 -0.488276 1.49845 0
M  V30 5601 C 524.524 -1.24959 1.50481 0
M  V30 5602 C 524.904 -2.09735 0.239698 0
M  V30 5603 O 524.252 -2.14865 -0.777524 0
M  V30 5604 C 524.462 -2.0954 2.79095 0
M  V30 5605 C 525.81 -2.68305 3.29086 0
M  V30 5606 O 526.834 -2.19797 2.80299 0
M  V30 5607 O 525.693 -3.56643 4.14087 0
M  V30 5608 H 522.787 -0.566133 0.602845 0
M  V30 5609 H 525.333 -0.501504 1.6212 0
M  V30 5610 H 524.105 -1.46958 3.62656 0
M  V30 5611 H 523.728 -2.91517 2.70377 0
M  V30 5612 N 524.725 -1.39134 -0.740242 0
M  V30 5613 C 525.635 -1.39697 -1.88473 0
M  V30 5614 C 526.651 -0.292403 -1.71526 0
M  V30 5615 O 527.827 -0.533021 -1.94219 0
M  V30 5616 C 524.892 -1.23382 -3.24003 0
M  V30 5617 C 523.953 -2.43763 -3.53381 0
M  V30 5618 C 523.186 -2.28216 -4.82445 0
M  V30 5619 O 523.409 -1.28288 -5.55786 0
M  V30 5620 O 522.343 -3.1709 -5.11603 0
M  V30 5621 H 526.169 -2.36159 -1.90952 0
M  V30 5622 H 523.754 -1.20194 -0.887346 0
M  V30 5623 H 525.636 -1.16395 -4.05006 0
M  V30 5624 H 524.311 -0.300121 -3.22306 0
M  V30 5625 H 523.218 -2.56325 -2.72485 0
M  V30 5626 H 524.551 -3.35808 -3.59852 0
M  V30 5627 N 526.204 0.969867 -1.24223 0
M  V30 5628 C 527.45 1.71582 -1.09231 0
M  V30 5629 C 527.805 1.88898 0.365432 0
M  V30 5630 O 527.098 1.43781 1.2664 0
M  V30 5631 C 527.292 3.10883 -1.76314 0
M  V30 5632 C 527.121 3.07155 -3.2846 0
M  V30 5633 C 525.891 3.11757 -3.97663 0
M  V30 5634 C 528.089 2.895 -4.25082 0
M  V30 5635 N 526.071 2.98025 -5.36707 0
M  V30 5636 C 527.442 2.84041 -5.51109 0
M  V30 5637 C 529.497 2.74064 -4.15684 0
M  V30 5638 C 528.2 2.64725 -6.68815 0
M  V30 5639 C 530.226 2.56115 -5.33066 0
M  V30 5640 C 529.588 2.51363 -6.58024 0
M  V30 5641 H 525.687 0.636496 -0.454309 0
M  V30 5642 H 528.271 1.15004 -1.57106 0
M  V30 5643 H 526.442 3.65657 -1.30955 0
M  V30 5644 H 528.174 3.74171 -1.54201 0
M  V30 5645 H 524.929 3.20352 -3.48814 0
M  V30 5646 H 525.353 2.94405 -6.09635 0
M  V30 5647 H 529.995 2.76521 -3.19837 0
M  V30 5648 H 527.713 2.61011 -7.64787 0
M  V30 5649 H 531.299 2.45119 -5.27644 0
M  V30 5650 H 530.179 2.37651 -7.47323 0
M  V30 5651 N 527.682 1.05563 1.17022 0
M  V30 5652 C 529.098 0.777684 1.39371 0
M  V30 5653 C 529.298 -0.626269 1.91521 0
M  V30 5654 O 528.354 -1.38806 2.10924 0
M  V30 5655 C 529.667 1.83642 2.3811 0
M  V30 5656 C 531.215 1.85907 2.51809 0
M  V30 5657 C 531.69 2.90813 3.53824 0
M  V30 5658 N 533.181 2.898 3.61345 0
M  V30 5659 C 533.916 3.6762 4.40049 0
M  V30 5660 N 533.412 4.55237 5.22237 0
M  V30 5661 N 535.205 3.56044 4.34959 0
M  V30 5662 H 527.356 1.9614 0.815047 0
M  V30 5663 H 529.619 0.849527 0.420722 0
M  V30 5664 H 529.325 2.84425 2.06871 0
M  V30 5665 H 529.199 1.6812 3.37662 0
M  V30 5666 H 531.586 0.857865 2.82356 0
M  V30 5667 H 531.667 2.05506 1.52318 0
M  V30 5668 H 531.311 3.91122 3.24015 0
M  V30 5669 H 531.241 2.68465 4.53028 0
M  V30 5670 H 533.732 2.26274 3.02669 0
M  V30 5671 H 534.045 5.11291 5.79484 0
M  V30 5672 H 532.39 4.59296 5.21605 0
M  V30 5673 H 535.581 2.86986 3.69806 0
M  V30 5674 H 535.754 4.16938 4.96051 0
M  V30 5675 N 529.16 -1.33526 0.837174 0
M  V30 5676 C 530.123 -2.27551 0.274421 0
M  V30 5677 C 531.123 -1.50886 -0.555881 0
M  V30 5678 O 532.313 -1.70227 -0.369918 0
M  V30 5679 C 529.445 -3.35332 -0.613605 0
M  V30 5680 H 530.638 -2.78837 1.10408 0
M  V30 5681 H 528.191 -1.439 0.610126 0
M  V30 5682 H 528.926 -2.89285 -1.46577 0
M  V30 5683 H 528.711 -3.92095 -0.0195341 0
M  V30 5684 H 530.201 -4.05433 -1.00068 0
M  V30 5685 N 530.638 -0.59345 -1.46 0
M  V30 5686 C 531.868 -0.0889642 -2.06408 0
M  V30 5687 C 532.276 1.22597 -1.44106 0
M  V30 5688 O 531.619 1.75448 -0.544398 0
M  V30 5689 C 531.681 0.139902 -3.59228 0
M  V30 5690 C 531.345 -1.09107 -4.43784 0
M  V30 5691 C 532.342 -2.00577 -4.79651 0
M  V30 5692 C 530.027 -1.31593 -4.84756 0
M  V30 5693 C 532.021 -3.12873 -5.55328 0
M  V30 5694 C 529.708 -2.44192 -5.60191 0
M  V30 5695 C 530.706 -3.34661 -5.95392 0
M  V30 5696 O 530.394 -4.45302 -6.69299 0
M  V30 5697 H 530.126 -0.0594613 -0.67338 0
M  V30 5698 H 532.68 -0.817 -1.88452 0
M  V30 5699 H 530.91 0.922672 -3.75531 0
M  V30 5700 H 532.599 0.594228 -4.01527 0
M  V30 5701 H 533.365 -1.84425 -4.48567 0
M  V30 5702 H 529.244 -0.620801 -4.56801 0
M  V30 5703 H 532.788 -3.83511 -5.82722 0
M  V30 5704 H 528.685 -2.60303 -5.90688 0
M  V30 5705 H 529.453 -4.43805 -6.87735 0
M  V30 5706 N 532.116 1.54067 -0.331816 0
M  V30 5707 C 533.527 1.86059 0.15454 0
M  V30 5708 C 533.878 1.25331 1.50952 0
M  V30 5709 O 533.003 0.562441 2.08963 0
M  V30 5710 C 533.598 3.37581 0.287192 0
M  V30 5711 C 532.157 3.69493 0.717773 0
M  V30 5712 C 531.304 2.76863 -0.155569 0
M  V30 5713 H 534.255 1.48797 -0.55182 0
M  V30 5714 H 534.276 3.63744 1.11671 0
M  V30 5715 H 533.788 3.81751 -0.699131 0
M  V30 5716 H 531.889 3.3086 1.71354 0
M  V30 5717 H 532.002 4.76315 0.5158 0
M  V30 5718 H 530.366 2.51995 0.370213 0
M  V30 5719 H 531.149 3.23861 -1.13881 0
M  V30 5720 N 533.594 0.0601682 1.57485 0
M  V30 5721 C 534.841 -0.611594 1.93043 0
M  V30 5722 C 535.169 -1.70317 0.939274 0
M  V30 5723 O 534.424 -1.95644 -0.046996 0
M  V30 5724 C 534.723 -1.23831 3.35262 0
M  V30 5725 C 534.389 -0.274037 4.50066 0
M  V30 5726 C 533.051 -0.00872394 4.81199 0
M  V30 5727 C 535.403 0.386308 5.19766 0
M  V30 5728 C 532.731 0.924218 5.79375 0
M  V30 5729 C 535.083 1.3075 6.1894 0
M  V30 5730 C 533.747 1.58139 6.48497 0
M  V30 5731 H 533.017 -0.223798 0.706396 0
M  V30 5732 H 535.664 0.128566 1.91068 0
M  V30 5733 H 533.969 -2.05394 3.33647 0
M  V30 5734 H 535.666 -1.76517 3.60059 0
M  V30 5735 H 532.256 -0.491008 4.25778 0
M  V30 5736 H 536.44 0.194436 4.95919 0
M  V30 5737 H 531.696 1.1438 6.00606 0
M  V30 5738 H 535.87 1.82519 6.72056 0
M  V30 5739 H 533.497 2.30593 7.24383 0
M  V30 5740 N 535.072 -1.5615 -0.213296 0
M  V30 5741 C 536.022 -1.89485 -1.26804 0
M  V30 5742 C 537.006 -0.758713 -1.41889 0
M  V30 5743 O 538.198 -1.02127 -1.44565 0
M  V30 5744 C 535.327 -2.22219 -2.61675 0
M  V30 5745 C 534.413 -3.42245 -2.50458 0
M  V30 5746 N 534.804 -4.60645 -2.089 0
M  V30 5747 C 533.102 -3.46023 -2.81397 0
M  V30 5748 C 533.803 -5.42805 -2.09135 0
M  V30 5749 N 532.779 -4.82732 -2.49941 0
M  V30 5750 H 536.581 -2.78537 -0.937771 0
M  V30 5751 H 534.095 -1.56826 -0.421824 0
M  V30 5752 H 536.092 -2.44278 -3.37837 0
M  V30 5753 H 534.752 -1.34484 -2.95541 0
M  V30 5754 H 535.763 -4.85651 -1.79899 0
M  V30 5755 H 532.44 -2.68654 -3.1958 0
M  V30 5756 H 533.83 -6.47601 -1.79059 0
M  V30 5757 N 536.55 0.480323 -1.50102 0
M  V30 5758 C 537.796 1.23208 -1.61837 0
M  V30 5759 C 538.151 1.89878 -0.310509 0
M  V30 5760 O 537.444 1.7871 0.690897 0
M  V30 5761 C 537.638 2.30708 -2.72963 0
M  V30 5762 C 537.467 1.74583 -4.14428 0
M  V30 5763 C 536.237 1.54964 -4.80951 0
M  V30 5764 C 538.435 1.24597 -4.98979 0
M  V30 5765 N 536.417 0.939855 -6.06663 0
M  V30 5766 C 537.788 0.758834 -6.15339 0
M  V30 5767 C 539.843 1.13365 -4.84822 0
M  V30 5768 C 538.546 0.17046 -7.19098 0
M  V30 5769 C 540.572 0.559221 -5.8875 0
M  V30 5770 C 539.934 0.082415 -7.04352 0
M  V30 5771 H 536.033 0.440065 -0.646426 0
M  V30 5772 H 538.617 0.535632 -1.87187 0
M  V30 5773 H 536.788 2.9779 -2.4935 0
M  V30 5774 H 538.52 2.97738 -2.74106 0
M  V30 5775 H 535.275 1.79926 -4.38091 0
M  V30 5776 H 535.699 0.653641 -6.73837 0
M  V30 5777 H 540.341 1.48823 -3.95742 0
M  V30 5778 H 538.059 -0.196347 -8.07861 0
M  V30 5779 H 541.645 0.474804 -5.79859 0
M  V30 5780 H 540.525 -0.355119 -7.83396 0
M  V30 5781 N 538.028 1.39524 0.732853 0
M  V30 5782 C 538.991 1.38189 1.82857 0
M  V30 5783 C 539.991 0.278624 1.58368 0
M  V30 5784 O 541.181 0.536639 1.65728 0
M  V30 5785 C 538.313 1.15661 3.2068 0
M  V30 5786 H 539.506 2.35692 1.85444 0
M  V30 5787 H 537.059 1.2512 0.936728 0
M  V30 5788 H 537.794 0.188482 3.23752 0
M  V30 5789 H 537.579 1.95559 3.39852 0
M  V30 5790 H 539.069 1.17472 4.00737 0
M  V30 5791 N 539.506 -0.963266 1.24736 0
M  V30 5792 C 540.752 -1.71 1.10139 0
M  V30 5793 C 541.107 -1.89089 -0.35541 0
M  V30 5794 O 540.4 -1.44451 -1.25875 0
M  V30 5795 C 540.594 -3.09944 1.7796 0
M  V30 5796 C 540.423 -3.05408 3.30085 0
M  V30 5797 C 539.193 -3.09643 3.99311 0
M  V30 5798 C 541.391 -2.87241 4.26611 0
M  V30 5799 N 539.373 -2.95174 5.3828 0
M  V30 5800 C 540.744 -2.81114 5.52607 0
M  V30 5801 C 542.799 -2.71856 4.17132 0
M  V30 5802 C 541.502 -2.61174 6.70209 0
M  V30 5803 C 543.528 -2.53284 5.34417 0
M  V30 5804 C 542.89 -2.4787 6.59348 0
M  V30 5805 H 538.989 -0.634078 0.457678 0
M  V30 5806 H 541.573 -1.14169 1.57713 0
M  V30 5807 H 539.744 -3.64958 1.32893 0
M  V30 5808 H 541.476 -3.73348 1.56183 0
M  V30 5809 H 538.231 -3.18498 3.50508 0
M  V30 5810 H 538.655 -2.91168 6.11188 0
M  V30 5811 H 543.297 -2.74821 3.21299 0
M  V30 5812 H 541.015 -2.56952 7.6616 0
M  V30 5813 H 544.601 -2.42317 5.28936 0
M  V30 5814 H 543.481 -2.33685 7.48573 0
M  V30 5815 N 540.985 -1.06182 -1.16461 0
M  V30 5816 C 541.915 -0.692861 -2.22984 0
M  V30 5817 C 542.896 0.314122 -1.67174 0
M  V30 5818 O 544.081 0.189499 -1.93273 0
M  V30 5819 C 541.211 -0.07732 -3.47214 0
M  V30 5820 C 540.165 -1.01015 -4.15909 0
M  V30 5821 C 539.491 -0.257973 -5.34077 0
M  V30 5822 C 540.791 -2.33868 -4.67015 0
M  V30 5823 H 542.485 -1.58343 -2.54102 0
M  V30 5824 H 540.031 -0.76279 -1.22137 0
M  V30 5825 H 541.984 0.19266 -4.20959 0
M  V30 5826 H 540.708 0.848254 -3.15392 0
M  V30 5827 H 539.367 -1.26486 -3.44088 0
M  V30 5828 H 539.015 0.670684 -4.98509 0
M  V30 5829 H 538.715 -0.879638 -5.80979 0
M  V30 5830 H 540.239 0.00448788 -6.106 0
M  V30 5831 H 541.653 -2.1279 -5.32347 0
M  V30 5832 H 540.05 -2.91522 -5.24533 0
M  V30 5833 H 541.12 -2.97019 -3.83286 0
M  V30 5834 N 542.463 1.3308 -0.844243 0
M  V30 5835 C 543.874 1.7992 -0.498566 0
M  V30 5836 C 544.225 1.69808 0.982834 0
M  V30 5837 O 543.35 1.25051 1.7661 0
M  V30 5838 C 543.945 3.26677 -0.898204 0
M  V30 5839 C 542.504 3.71513 -0.604583 0
M  V30 5840 C 541.651 2.54393 -1.10362 0
M  V30 5841 H 544.602 1.20526 -1.03244 0
M  V30 5842 H 544.623 3.79918 -0.21039 0
M  V30 5843 H 544.135 3.34004 -1.97643 0
M  V30 5844 H 542.236 3.69708 0.46335 0
M  V30 5845 H 542.349 4.64755 -1.16358 0
M  V30 5846 H 540.713 2.49246 -0.524273 0
M  V30 5847 H 541.496 2.6448 -2.18873 0
M  V30 5848 N 543.941 0.601185 1.45683 0
M  V30 5849 C 544.873 -0.159446 2.28645 0
M  V30 5850 C 545.886 -0.837882 1.39583 0
M  V30 5851 O 547.075 -0.704344 1.64016 0
M  V30 5852 C 544.175 -1.24641 3.15147 0
M  V30 5853 C 543.348 -0.656334 4.32448 0
M  V30 5854 C 542.407 -1.63337 5.00208 0
M  V30 5855 O 541.433 -1.16217 5.57209 0
M  V30 5856 N 542.635 -2.96773 4.98905 0
M  V30 5857 H 545.4 0.5524 2.94565 0
M  V30 5858 H 542.961 0.440223 1.558 0
M  V30 5859 H 544.953 -1.8997 3.57342 0
M  V30 5860 H 543.523 -1.86087 2.51178 0
M  V30 5861 H 542.743 0.174879 3.93812 0
M  V30 5862 H 544.031 -0.242211 5.08223 0
M  V30 5863 H 543.429 -3.37662 4.53873 0
M  V30 5864 H 541.986 -3.57541 5.44984 0
M  V30 5865 N 545.419 -1.53889 0.339982 0
M  V30 5866 C 546.382 -2.23547 -0.50592 0
M  V30 5867 C 547.382 -1.23445 -1.03044 0
M  V30 5868 O 548.572 -1.47909 -0.920253 0
M  V30 5869 C 545.704 -2.95234 -1.7044 0
M  V30 5870 H 546.897 -2.99722 0.103247 0
M  V30 5871 H 544.45 -1.56033 0.0912804 0
M  V30 5872 H 545.185 -2.23236 -2.35236 0
M  V30 5873 H 544.97 -3.68654 -1.33553 0
M  V30 5874 H 546.46 -3.48258 -2.30447 0
M  V30 5875 N 546.897 -0.0685191 -1.57451 0
M  V30 5876 C 547.844 0.899861 -2.12535 0
M  V30 5877 C 548.814 1.29749 -1.03703 0
M  V30 5878 O 549.999 1.38392 -1.31348 0
M  V30 5879 C 547.139 2.16328 -2.6888 0
M  V30 5880 C 546.252 1.81857 -3.91857 0
M  V30 5881 C 545.387 3.02786 -4.36457 0
M  V30 5882 C 544.426 2.64317 -5.5209 0
M  V30 5883 N 543.563 3.77994 -5.91663 0
M  V30 5884 H 548.403 0.423243 -2.94979 0
M  V30 5885 H 545.94 0.197268 -1.45771 0
M  V30 5886 H 547.898 2.90281 -2.99655 0
M  V30 5887 H 546.528 2.61536 -1.89206 0
M  V30 5888 H 545.58 0.979808 -3.67565 0
M  V30 5889 H 546.892 1.49553 -4.75852 0
M  V30 5890 H 546.046 3.85021 -4.68875 0
M  V30 5891 H 544.785 3.38281 -3.51308 0
M  V30 5892 H 543.79 1.80503 -5.19325 0
M  V30 5893 H 545.015 2.29995 -6.38967 0
M  V30 5894 H 542.961 4.13258 -5.09464 0
M  V30 5895 H 542.878 3.49447 -6.7039 0
M  V30 5896 H 544.146 4.60818 -6.28703 0
M  V30 5897 N 548.375 1.56261 0.205012 0
M  V30 5898 C 549.621 1.80306 0.9283 0
M  V30 5899 C 549.954 0.640932 1.83319 0
M  V30 5900 O 549.229 -0.359032 1.91158 0
M  V30 5901 C 549.512 3.14547 1.75306 0
M  V30 5902 C 549.365 4.41236 0.873562 0
M  V30 5903 C 550.684 3.45382 2.72762 0
M  V30 5904 H 547.803 0.655929 0.336044 0
M  V30 5905 H 550.445 1.88984 0.196211 0
M  V30 5906 H 548.595 3.0728 2.37721 0
M  V30 5907 H 550.267 4.60539 0.264887 0
M  V30 5908 H 548.51 4.33427 0.179773 0
M  V30 5909 H 549.181 5.31639 1.48541 0
M  V30 5910 H 551.657 3.52884 2.20481 0
M  V30 5911 H 550.533 4.40449 3.2756 0
M  V30 5912 H 550.794 2.68377 3.51321 0
M  V30 5913 N 549.853 -0.472356 1.50355 0
M  V30 5914 C 551.264 -1.05326 1.54154 0
M  V30 5915 C 551.615 -1.93155 0.344303 0
M  V30 5916 O 550.74 -2.09479 -0.542928 0
M  V30 5917 C 551.335 -1.91691 2.79356 0
M  V30 5918 C 549.894 -2.44892 2.8584 0
M  V30 5919 C 549.041 -1.23205 2.48426 0
M  V30 5920 H 551.992 -0.255027 1.56637 0
M  V30 5921 H 552.013 -2.76742 2.6114 0
M  V30 5922 H 551.525 -1.27741 3.66475 0
M  V30 5923 H 549.626 -3.12399 2.0307 0
M  V30 5924 H 549.739 -2.80086 3.88701 0
M  V30 5925 H 548.103 -1.56643 2.00836 0
M  V30 5926 H 548.886 -0.609194 3.37852 0
M  V30 5927 N 551.331 -1.39911 -0.725443 0
M  V30 5928 C 552.578 -1.37654 -1.48518 0
M  V30 5929 C 552.906 0.0243982 -1.94485 0
M  V30 5930 O 552.161 1.00708 -1.67799 0
M  V30 5931 C 552.46 -2.30368 -2.7325 0
M  V30 5932 C 552.126 -3.77817 -2.461 0
M  V30 5933 C 550.788 -4.17991 -2.38405 0
M  V30 5934 C 553.14 -4.71036 -2.23103 0
M  V30 5935 C 550.468 -5.49433 -2.05768 0
M  V30 5936 C 552.82 -6.02766 -1.9198 0
M  V30 5937 C 551.484 -6.41993 -1.82761 0
M  V30 5938 H 550.754 -0.503713 -0.543465 0
M  V30 5939 H 553.401 -1.7249 -0.831822 0
M  V30 5940 H 551.706 -1.88683 -3.43375 0
M  V30 5941 H 553.403 -2.2591 -3.31309 0
M  V30 5942 H 549.993 -3.45982 -2.52972 0
M  V30 5943 H 554.177 -4.40823 -2.2801 0
M  V30 5944 H 549.433 -5.78738 -1.9716 0
M  V30 5945 H 553.607 -6.74519 -1.73197 0
M  V30 5946 H 551.234 -7.43761 -1.57237 0
M  V30 5947 N 552.809 0.956637 -1.25245 0
M  V30 5948 C 554.034 1.74104 -1.12706 0
M  V30 5949 C 554.459 1.85436 0.315429 0
M  V30 5950 O 553.817 1.33334 1.22848 0
M  V30 5951 C 553.865 3.1338 -1.78396 0
M  V30 5952 O 552.969 3.98485 -1.06224 0
M  V30 5953 H 552.31 0.53476 -0.393609 0
M  V30 5954 H 554.84 1.19924 -1.65769 0
M  V30 5955 H 554.85 3.6385 -1.846 0
M  V30 5956 H 553.525 3.04448 -2.83345 0
M  V30 5957 H 552.102 3.56952 -1.07886 0
M  V30 5958 N 554.287 1.06798 1.15896 0
M  V30 5959 C 555.197 0.694564 2.24083 0
M  V30 5960 C 556.213 -0.291687 1.71538 0
M  V30 5961 O 557.389 -0.139723 2.00915 0
M  V30 5962 C 554.454 0.0921014 3.46578 0
M  V30 5963 C 553.515 1.13087 4.14137 0
M  V30 5964 C 552.748 0.557064 5.30785 0
M  V30 5965 O 552.971 -0.628623 5.66925 0
M  V30 5966 O 551.905 1.29924 5.8771 0
M  V30 5967 H 555.731 1.59663 2.58344 0
M  V30 5968 H 553.316 0.840575 1.2351 0
M  V30 5969 H 555.198 -0.241884 4.20705 0
M  V30 5970 H 553.873 -0.78337 3.14078 0
M  V30 5971 H 552.78 1.51712 3.41957 0
M  V30 5972 H 554.113 1.97805 4.50704 0
M  V30 5973 N 555.766 -1.3263 0.851289 0
M  V30 5974 C 556.676 -2.32722 0.296268 0
M  V30 5975 C 557.692 -1.63901 -0.584162 0
M  V30 5976 O 558.868 -1.95465 -0.485334 0
M  V30 5977 C 555.933 -3.42942 -0.509103 0
M  V30 5978 C 554.994 -4.2746 0.397069 0
M  V30 5979 C 554.227 -5.32416 -0.36996 0
M  V30 5980 O 554.45 -5.47491 -1.6003 0
M  V30 5981 O 553.384 -6.01327 0.262493 0
M  V30 5982 H 557.21 -2.82078 1.12543 0
M  V30 5983 H 554.795 -1.36194 0.614135 0
M  V30 5984 H 556.677 -4.1017 -0.96634 0
M  V30 5985 H 555.352 -2.95781 -1.31512 0
M  V30 5986 H 554.259 -3.63053 0.902411 0
M  V30 5987 H 555.592 -4.78136 1.16818 0
M  V30 5988 N 557.244 -0.608902 -1.45362 0
M  V30 5989 C 558.493 -0.10218 -2.01441 0
M  V30 5990 C 558.806 1.27546 -1.48295 0
M  V30 5991 O 560.012 1.87498 -1.96359 0
M  V30 5992 C 558.468 -0.131985 -3.59658 0
M  V30 5993 C 558.076 -1.50956 -4.21801 0
M  V30 5994 C 559.82 0.319427 -4.23296 0
M  V30 5995 C 557.727 -1.49568 -5.72174 0
M  V30 5996 H 556.657 -0.0344314 -0.753213 0
M  V30 5997 H 559.308 -0.764426 -1.6682 0
M  V30 5998 H 557.69 0.596939 -3.91475 0
M  V30 5999 H 558.864 -2.26029 -4.01556 0
M  V30 6000 H 557.179 -1.90318 -3.70362 0
M  V30 6001 H 559.776 0.349013 -5.3356 0
M  V30 6002 H 560.119 1.34237 -3.94064 0
M  V30 6003 H 560.652 -0.356273 -3.96201 0
M  V30 6004 H 557.391 -2.49626 -6.06108 0
M  V30 6005 H 556.911 -0.787542 -5.94607 0
M  V30 6006 H 558.59 -1.21989 -6.35396 0
M  V30 6007 N 558.722 1.53707 -0.348139 0
M  V30 6008 C 560.138 1.596 0.00361134 0
M  V30 6009 C 560.338 1.36394 1.4832 0
M  V30 6010 O 559.394 1.16046 2.24253 0
M  V30 6011 C 560.707 2.97512 -0.436682 0
M  V30 6012 C 562.255 3.10568 -0.389416 0
M  V30 6013 C 562.73 4.50866 -0.805249 0
M  V30 6014 N 564.221 4.56929 -0.759616 0
M  V30 6015 C 564.956 5.63643 -1.05327 0
M  V30 6016 N 564.452 6.78189 -1.41531 0
M  V30 6017 N 566.245 5.5354 -0.977207 0
M  V30 6018 H 558.396 1.67044 -1.31187 0
M  V30 6019 H 560.659 0.782559 -0.535075 0
M  V30 6020 H 560.365 3.19575 -1.46849 0
M  V30 6021 H 560.239 3.76742 0.185744 0
M  V30 6022 H 562.626 2.88226 0.633228 0
M  V30 6023 H 562.707 2.33387 -1.04711 0
M  V30 6024 H 562.351 4.73943 -1.82593 0
M  V30 6025 H 562.281 5.26452 -0.124989 0
M  V30 6026 H 564.772 3.74675 -0.49265 0
M  V30 6027 H 565.085 7.55541 -1.62411 0
M  V30 6028 H 563.43 6.79624 -1.45381 0
M  V30 6029 H 566.621 4.62932 -0.693675 0
M  V30 6030 H 566.794 6.36614 -1.2094 0
M  V30 6031 N 560.2 0.0768682 1.57412 0
M  V30 6032 C 561.148 -0.906229 2.1422 0
M  V30 6033 C 562.142 -1.30477 1.08037 0
M  V30 6034 O 563.348 -1.28143 1.2641 0
M  V30 6035 H 559.723 -0.310207 0.685037 0
M  V30 6036 H 561.694 -0.402228 2.95677 0
M  V30 6037 C 560.443 -2.16245 2.72274 0
M  V30 6038 H 559.766 -1.86463 3.53655 0
M  V30 6039 H 561.206 -2.83134 3.15613 0
M  V30 6040 C 559.665 -2.92437 1.67279 0
M  V30 6041 O 560.195 -3.86322 1.10081 0
M  V30 6042 N 558.401 -2.55637 1.38195 0
M  V30 6043 H 557.948 -1.79363 1.84897 0
M  V30 6044 H 557.906 -3.06919 0.681787 0
M  V30 6045 N 561.678 -1.56367 -0.196722 0
M  V30 6046 C 562.608 -1.97442 -1.24655 0
M  V30 6047 C 563.589 -0.846147 -1.47561 0
M  V30 6048 O 564.774 -1.11035 -1.59326 0
M  V30 6049 C 561.904 -2.31253 -2.59112 0
M  V30 6050 C 560.858 -3.46804 -2.50821 0
M  V30 6051 C 560.184 -3.66286 -3.89536 0
M  V30 6052 C 561.484 -4.8104 -2.03465 0
M  V30 6053 H 563.178 -2.85388 -0.905216 0
M  V30 6054 H 560.724 -1.37304 -0.434002 0
M  V30 6055 H 562.677 -2.58583 -3.32736 0
M  V30 6056 H 561.401 -1.40188 -2.94983 0
M  V30 6057 H 560.06 -3.19563 -1.79653 0
M  V30 6058 H 559.708 -2.72555 -4.22756 0
M  V30 6059 H 559.408 -4.4402 -3.84864 0
M  V30 6060 H 560.932 -3.9599 -4.64784 0
M  V30 6061 H 562.346 -5.07411 -2.66846 0
M  V30 6062 H 560.743 -5.62232 -2.09798 0
M  V30 6063 H 561.813 -4.74732 -0.98781 0
M  V30 6064 N 563.156 0.464375 -1.50603 0
M  V30 6065 C 564.405 1.21277 -1.61167 0
M  V30 6066 C 564.718 1.92953 -0.320704 0
M  V30 6067 O 565.924 2.69778 -0.30534 0
M  V30 6068 C 564.38 2.20403 -2.84518 0
M  V30 6069 C 563.988 1.54499 -4.20516 0
M  V30 6070 C 565.732 2.95843 -3.0443 0
M  V30 6071 C 563.639 2.51951 -5.35047 0
M  V30 6072 H 562.569 0.456367 -0.600204 0
M  V30 6073 H 565.22 0.48254 -1.77042 0
M  V30 6074 H 563.602 2.96746 -2.62217 0
M  V30 6075 H 564.776 0.83899 -4.53098 0
M  V30 6076 H 563.091 0.913152 -4.06264 0
M  V30 6077 H 565.688 3.6879 -3.87167 0
M  V30 6078 H 566.031 3.55622 -2.16423 0
M  V30 6079 H 566.564 2.26611 -3.26944 0
M  V30 6080 H 563.303 1.96901 -6.25228 0
M  V30 6081 H 562.823 3.20683 -5.06875 0
M  V30 6082 H 564.502 3.13643 -5.65895 0
M  V30 6083 N 564.634 1.40294 0.718013 0
M  V30 6084 C 565.564 1.43118 1.84498 0
M  V30 6085 C 566.545 0.292403 1.67568 0
M  V30 6086 O 567.73 0.500675 1.87635 0
M  V30 6087 C 564.86 1.29065 3.22427 0
M  V30 6088 C 563.814 2.40521 3.54025 0
M  V30 6089 C 563.14 2.11546 4.91073 0
M  V30 6090 C 564.44 3.82859 3.55269 0
M  V30 6091 H 566.134 2.37432 1.82391 0
M  V30 6092 H 563.68 1.14283 0.87609 0
M  V30 6093 H 565.633 1.29658 4.00957 0
M  V30 6094 H 564.357 0.312271 3.25104 0
M  V30 6095 H 563.016 2.39173 2.77834 0
M  V30 6096 H 562.664 1.12104 4.90348 0
M  V30 6097 H 562.364 2.86216 5.1318 0
M  V30 6098 H 563.888 2.13817 5.71939 0
M  V30 6099 H 565.302 3.86044 4.23843 0
M  V30 6100 H 563.699 4.57029 3.88902 0
M  V30 6101 H 564.769 4.12617 2.54706 0
M  V30 6102 N 566.112 -0.949982 1.2575 0
M  V30 6103 C 567.523 -1.50989 1.09815 0
M  V30 6104 C 567.874 -1.93497 -0.324556 0
M  V30 6105 O 566.999 -1.79068 -1.21506 0
M  V30 6106 C 567.594 -2.74394 1.98729 0
M  V30 6107 C 566.153 -3.26682 1.86965 0
M  V30 6108 C 565.3 -1.99498 1.92603 0
M  V30 6109 H 568.251 -0.766387 1.38968 0
M  V30 6110 H 568.272 -3.48383 1.53001 0
M  V30 6111 H 567.784 -2.43425 3.02268 0
M  V30 6112 H 565.885 -3.62461 0.863279 0
M  V30 6113 H 565.998 -3.94383 2.72027 0
M  V30 6114 H 564.362 -2.15005 1.36546 0
M  V30 6115 H 565.145 -1.70871 2.97755 0
M  V30 6116 N 567.59 -1.07411 -1.15328 0
M  V30 6117 C 568.82 -0.817595 -1.89734 0
M  V30 6118 C 569.228 0.63297 -1.78298 0
M  V30 6119 O 568.571 1.44594 -1.13306 0
M  V30 6120 C 568.633 -1.14748 -3.40695 0
M  V30 6121 C 568.297 -2.59876 -3.75917 0
M  V30 6122 C 569.294 -3.58122 -3.76888 0
M  V30 6123 C 566.979 -2.95469 -4.06206 0
M  V30 6124 C 568.973 -4.89996 -4.07655 0
M  V30 6125 C 566.66 -4.2754 -4.36638 0
M  V30 6126 C 567.658 -5.24614 -4.37344 0
M  V30 6127 O 567.346 -6.54312 -4.67045 0
M  V30 6128 H 567.078 -0.295175 -0.608151 0
M  V30 6129 H 569.632 -1.43409 -1.47048 0
M  V30 6130 H 567.862 -0.47395 -3.83785 0
M  V30 6131 H 569.551 -0.873397 -3.96392 0
M  V30 6132 H 570.317 -3.31966 -3.53587 0
M  V30 6133 H 566.196 -2.20558 -4.04815 0
M  V30 6134 H 569.74 -5.65759 -4.08121 0
M  V30 6135 H 565.637 -4.53449 -4.59407 0
M  V30 6136 H 566.405 -6.59473 -4.84807 0
M  V30 6137 N 569.068 1.32177 -0.85831 0
M  V30 6138 C 570.317 1.96392 -0.459689 0
M  V30 6139 C 570.63 1.68659 0.990632 0
M  V30 6140 O 571.836 2.26641 1.49485 0
M  V30 6141 C 570.292 3.51542 -0.7711 0
M  V30 6142 C 569.9 3.8813 -2.2374 0
M  V30 6143 C 571.644 4.2221 -0.44038 0
M  V30 6144 C 569.551 5.36341 -2.49183 0
M  V30 6145 H 568.481 0.735007 -0.168169 0
M  V30 6146 H 571.132 1.50518 -1.0496 0
M  V30 6147 H 569.514 3.95846 -0.11058 0
M  V30 6148 H 570.688 3.54824 -2.94001 0
M  V30 6149 H 569.003 3.30497 -2.533 0
M  V30 6150 H 571.6 5.31234 -0.607855 0
M  V30 6151 H 571.943 4.11683 0.618291 0
M  V30 6152 H 572.476 3.83502 -1.05695 0
M  V30 6153 H 569.215 5.51892 -3.53689 0
M  V30 6154 H 568.735 5.7104 -1.83504 0
M  V30 6155 H 570.414 6.03466 -2.33318 0
M  V30 6156 N 570.547 0.616602 1.45037 0
M  V30 6157 C 571.772 0.120192 2.07051 0
M  V30 6158 C 572.197 -1.19008 1.45666 0
M  V30 6159 O 571.555 -1.7267 0.552692 0
M  V30 6160 C 571.603 0.00354901 3.606 0
M  V30 6161 O 570.707 -1.04431 3.98958 0
M  V30 6162 H 570.048 0.0781599 0.659384 0
M  V30 6163 H 572.578 0.849167 1.86146 0
M  V30 6164 H 572.588 -0.191754 4.07549 0
M  V30 6165 H 571.263 0.960239 4.04663 0
M  V30 6166 H 569.84 -0.824749 3.63665 0
M  V30 6167 N 572.025 -1.5352 0.356285 0
M  V30 6168 C 573.302 -1.93405 -0.292223 0
M  V30 6169 C 573.682 -1.28901 -1.67176 0
M  V30 6170 O 573.03 -0.444632 -2.24132 0
M  V30 6171 C 573.24 -3.47223 -0.35175 0
M  V30 6172 C 574.588 -4.20389 -0.596534 0
M  V30 6173 O 575.612 -3.53554 -0.433344 0
M  V30 6174 O 574.471 -5.3881 -0.913589 0
M  V30 6175 H 571.565 -0.808666 -0.173172 0
M  V30 6176 H 574.111 -1.64713 0.408391 0
M  V30 6177 H 572.883 -3.86423 0.615841 0
M  V30 6178 H 572.506 -3.8212 -1.09864 0
M  V30 6179 N 573.503 -0.0852151 -1.57369 0
M  V30 6180 C 574.436 0.913608 -2.09113 0
M  V30 6181 C 575.414 1.28264 -0.999358 0
M  V30 6182 O 576.598 1.3896 -1.27367 0
M  V30 6183 C 573.725 2.21777 -2.55993 0
M  V30 6184 C 572.771 1.99932 -3.76735 0
M  V30 6185 S 573.604 1.24637 -5.20794 0
M  V30 6186 C 574.76 2.56304 -5.71016 0
M  V30 6187 H 574.993 0.473369 -2.93507 0
M  V30 6188 H 572.526 0.127856 -1.5387 0
M  V30 6189 H 574.484 2.96726 -2.83662 0
M  V30 6190 H 573.145 2.62923 -1.71843 0
M  V30 6191 H 572.338 2.96482 -4.07571 0
M  V30 6192 H 571.94 1.33116 -3.49509 0
M  V30 6193 H 574.232 3.5233 -5.78679 0
M  V30 6194 H 575.175 2.3006 -6.69685 0
M  V30 6195 H 575.583 2.64125 -4.98897 0
M  V30 6196 N 574.981 1.5647 0.188427 0
M  V30 6197 C 575.929 1.95971 1.25293 0
M  V30 6198 C 576.923 0.846047 1.4676 0
M  V30 6199 O 578.129 1.03109 1.47542 0
M  V30 6200 H 574.504 0.623253 0.420784 0
M  V30 6201 H 576.475 2.84731 0.892792 0
M  V30 6202 C 575.224 2.32116 2.58877 0
M  V30 6203 H 574.547 3.17341 2.43176 0
M  V30 6204 H 575.987 2.63613 3.3209 0
M  V30 6205 C 574.446 1.15823 3.16365 0
M  V30 6206 O 574.976 0.436785 3.99318 0
M  V30 6207 N 573.182 0.933278 2.75206 0
M  V30 6208 H 572.729 1.52169 2.07852 0
M  V30 6209 H 572.687 0.156976 3.14008 0
M  V30 6210 N 576.459 -0.456382 1.50847 0
M  V30 6211 C 577.706 -1.20736 1.62571 0
M  V30 6212 C 578.034 -1.9163 0.332904 0
M  V30 6213 O 577.289 -1.8343 -0.682058 0
M  V30 6214 C 577.588 -2.26336 2.76599 0
M  V30 6215 C 577.254 -1.7259 4.16562 0
M  V30 6216 C 575.916 -1.57654 4.54641 0
M  V30 6217 C 578.268 -1.32877 5.03977 0
M  V30 6218 C 575.596 -1.0145 5.77862 0
M  V30 6219 C 577.948 -0.7811 6.27759 0
M  V30 6220 C 576.612 -0.618488 6.64628 0
M  V30 6221 H 575.882 -0.441803 0.594888 0
M  V30 6222 H 578.529 -0.501169 1.84826 0
M  V30 6223 H 576.834 -3.0292 2.48489 0
M  V30 6224 H 578.531 -2.84227 2.82871 0
M  V30 6225 H 575.121 -1.85187 3.86528 0
M  V30 6226 H 579.305 -1.43245 4.75179 0
M  V30 6227 H 574.561 -0.876109 6.0509 0
M  V30 6228 H 578.735 -0.464783 6.94847 0
M  V30 6229 H 576.362 -0.180838 7.59985 0
M  V30 6230 N 577.937 -1.40673 -0.710563 0
M  V30 6231 C 579.183 -1.39428 -1.47267 0
M  V30 6232 C 579.516 0.00182129 -1.942 0
M  V30 6233 O 578.791 0.971387 -1.68506 0
M  V30 6234 C 579.074 -2.38812 -2.6952 0
M  V30 6235 C 578.927 -3.87467 -2.28449 0
M  V30 6236 C 580.246 -2.3566 -3.71689 0
M  V30 6237 H 577.365 -0.507768 -0.534173 0
M  V30 6238 H 580.007 -1.71843 -0.810547 0
M  V30 6239 H 578.157 -2.113 -3.26013 0
M  V30 6240 H 579.829 -4.25825 -1.77399 0
M  V30 6241 H 578.072 -4.03058 -1.60395 0
M  V30 6242 H 578.743 -4.5253 -3.16103 0
M  V30 6243 H 581.219 -2.6004 -3.24836 0
M  V30 6244 H 580.095 -3.07237 -4.54859 0
M  V30 6245 H 580.356 -1.36996 -4.20339 0
M  V30 6246 N 579.415 0.9433 -1.26252 0
M  V30 6247 C 580.347 2.04542 -1.03417 0
M  V30 6248 C 581.36 1.62799 0.0046911 0
M  V30 6249 O 582.549 1.76944 -0.235146 0
M  V30 6250 C 579.649 3.34511 -0.543671 0
M  V30 6251 C 578.822 4.05033 -1.65128 0
M  V30 6252 C 577.881 5.13273 -1.1592 0
M  V30 6253 O 576.907 5.38095 -1.85586 0
M  V30 6254 N 578.109 5.805 -0.00649279 0
M  V30 6255 H 580.874 2.24699 -1.98319 0
M  V30 6256 H 578.435 1.11264 -1.1761 0
M  V30 6257 H 580.427 4.04212 -0.198703 0
M  V30 6258 H 578.997 3.11042 0.311711 0
M  V30 6259 H 578.217 3.29275 -2.16729 0
M  V30 6260 H 579.505 4.48903 -2.39508 0
M  V30 6261 H 578.903 5.62767 0.575347 0
M  V30 6262 H 577.46 6.51201 0.279416 0
M  V30 6263 N 580.893 1.08022 1.14757 0
M  V30 6264 C 582.17 0.720386 1.81851 0
M  V30 6265 C 582.55 -0.796375 1.95502 0
M  V30 6266 O 581.898 -1.71339 1.51179 0
M  V30 6267 C 582.108 1.44273 3.17783 0
M  V30 6268 C 583.456 1.59925 3.93331 0
M  V30 6269 O 584.48 1.40407 3.2736 0
M  V30 6270 O 583.339 1.92096 5.11626 0
M  V30 6271 H 580.433 0.257142 0.786007 0
M  V30 6272 H 582.979 1.18155 1.21809 0
M  V30 6273 H 581.751 2.47618 3.02987 0
M  V30 6274 H 581.374 0.97279 3.85516 0
M  V30 6275 N 582.371 -1.3172 0.865308 0
M  V30 6276 C 583.301 -2.31109 0.333302 0
M  V30 6277 C 584.282 -1.60148 -0.573301 0
M  V30 6278 O 585.467 -1.87882 -0.491305 0
M  V30 6279 C 582.597 -3.44104 -0.470078 0
M  V30 6280 C 581.551 -4.26623 0.343021 0
M  V30 6281 C 580.877 -5.31482 -0.585756 0
M  V30 6282 C 582.177 -4.98001 1.57456 0
M  V30 6283 H 583.871 -2.75855 1.1638 0
M  V30 6284 H 581.417 -1.3262 0.561069 0
M  V30 6285 H 583.37 -4.12682 -0.852752 0
M  V30 6286 H 582.094 -2.98112 -1.33404 0
M  V30 6287 H 580.753 -3.59707 0.707583 0
M  V30 6288 H 580.401 -4.81741 -1.44686 0
M  V30 6289 H 580.101 -5.87582 -0.0456494 0
M  V30 6290 H 581.625 -6.0292 -0.965375 0
M  V30 6291 H 583.039 -5.59201 1.26359 0
M  V30 6292 H 581.436 -5.63876 2.05339 0
M  V30 6293 H 582.506 -4.25253 2.32997 0
M  V30 6294 N 583.85 -0.624285 -1.44708 0
M  V30 6295 C 585.09 -0.129273 -2.03991 0
M  V30 6296 C 585.454 1.22321 -1.47992 0
M  V30 6297 O 586.654 1.80993 -1.98734 0
M  V30 6298 C 584.926 -0.108231 -3.57236 0
M  V30 6299 S 586.485 0.323158 -4.37608 0
M  V30 6300 H 583.303 -0.0577318 -0.708652 0
M  V30 6301 H 585.904 -0.826139 -1.77187 0
M  V30 6302 H 584.609 -1.0958 -3.955 0
M  V30 6303 H 584.139 0.610101 -3.8864 0
M  V30 6304 H 586.154 1.56894 -4.70743 0
M  V30 6305 N 585.328 1.53329 -0.364422 0
M  V30 6306 C 586.238 2.29414 0.490552 0
M  V30 6307 C 587.254 1.35335 1.09363 0
M  V30 6308 O 588.43 1.68391 1.10483 0
M  V30 6309 C 585.495 3.06772 1.61529 0
M  V30 6310 C 584.556 4.16516 1.03986 0
M  V30 6311 C 583.789 4.90176 2.111 0
M  V30 6312 O 584.012 4.63687 3.32191 0
M  V30 6313 O 582.946 5.76134 1.74222 0
M  V30 6314 H 586.772 3.03428 -0.12856 0
M  V30 6315 H 584.357 1.48843 -0.128837 0
M  V30 6316 H 586.239 3.55082 2.26924 0
M  V30 6317 H 584.914 2.35596 2.21983 0
M  V30 6318 H 583.821 3.7246 0.349856 0
M  V30 6319 H 585.154 4.89855 0.4799 0
M  V30 6320 N 586.806 0.0935595 1.57322 0
M  V30 6321 C 588.083 -0.612692 1.85756 0
M  V30 6322 C 588.463 -1.86439 0.99013 0
M  V30 6323 O 587.811 -2.28416 0.0621362 0
M  V30 6324 C 588.021 -0.929547 3.36393 0
M  V30 6325 C 589.369 -1.29366 4.04413 0
M  V30 6326 O 590.393 -1.02061 3.41265 0
M  V30 6327 O 589.252 -1.80498 5.15832 0
M  V30 6328 H 586.346 -0.306444 0.768128 0
M  V30 6329 H 588.892 0.126141 1.69231 0
M  V30 6330 H 587.664 -0.0414766 3.91278 0
M  V30 6331 H 587.287 -1.72441 3.5826 0
M  V30 6332 N 588.284 -1.56567 -0.180126 0
M  V30 6333 C 589.214 -1.98753 -1.22553 0
M  V30 6334 C 590.195 -0.86175 -1.46656 0
M  V30 6335 O 591.38 -1.12719 -1.58139 0
M  V30 6336 C 588.51 -2.33988 -2.56645 0
M  V30 6337 C 587.464 -3.49445 -2.47128 0
M  V30 6338 C 586.79 -3.70397 -3.8563 0
M  V30 6339 C 588.09 -4.83171 -1.98352 0
M  V30 6340 H 589.784 -2.86332 -0.874896 0
M  V30 6341 H 587.33 -1.37757 -0.419414 0
M  V30 6342 H 589.283 -2.62097 -3.29974 0
M  V30 6343 H 588.007 -1.43309 -2.93479 0
M  V30 6344 H 586.666 -3.2145 -1.76254 0
M  V30 6345 H 586.314 -2.77023 -4.19842 0
M  V30 6346 H 586.014 -4.48077 -3.80132 0
M  V30 6347 H 587.538 -4.00897 -4.60558 0
M  V30 6348 H 588.952 -5.10213 -2.61449 0
M  V30 6349 H 587.349 -5.64425 -2.03823 0
M  V30 6350 H 588.419 -4.75753 -0.937402 0
M  V30 6351 N 589.762 0.448376 -1.51087 0
M  V30 6352 C 590.992 1.21965 -1.66757 0
M  V30 6353 C 591.4 1.85748 -0.359753 0
M  V30 6354 O 590.743 1.71022 0.670604 0
M  V30 6355 C 590.805 2.35284 -2.71812 0
M  V30 6356 C 590.469 1.91957 -4.1473 0
M  V30 6357 C 591.466 1.42921 -4.9987 0
M  V30 6358 C 589.151 1.99985 -4.60772 0
M  V30 6359 C 591.145 1.02485 -6.29107 0
M  V30 6360 C 588.832 1.5916 -5.90009 0
M  V30 6361 C 589.83 1.10491 -6.74004 0
M  V30 6362 O 589.518 0.702413 -8.00825 0
M  V30 6363 H 589.25 0.374125 -0.563034 0
M  V30 6364 H 591.804 0.538927 -1.98204 0
M  V30 6365 H 590.034 3.06599 -2.35657 0
M  V30 6366 H 591.723 2.97184 -2.76472 0
M  V30 6367 H 592.489 1.36123 -4.65506 0
M  V30 6368 H 588.368 2.36814 -3.95525 0
M  V30 6369 H 591.912 0.644271 -6.94619 0
M  V30 6370 H 587.809 1.65626 -6.2389 0
M  V30 6371 H 588.577 0.829248 -8.14288 0
M  V30 6372 N 591.24 1.41047 0.703093 0
M  V30 6373 C 592.15 1.44645 1.84703 0
M  V30 6374 C 593.166 0.337778 1.7069 0
M  V30 6375 O 594.342 0.584327 1.92737 0
M  V30 6376 C 591.407 1.31928 3.20618 0
M  V30 6377 C 590.468 2.53047 3.46794 0
M  V30 6378 C 589.701 2.40927 4.76224 0
M  V30 6379 O 589.924 1.42978 5.5219 0
M  V30 6380 O 588.858 3.30543 5.03016 0
M  V30 6381 H 592.684 2.41139 1.84624 0
M  V30 6382 H 590.269 1.22504 0.855167 0
M  V30 6383 H 592.151 1.27092 4.01778 0
M  V30 6384 H 590.826 0.385469 3.21397 0
M  V30 6385 H 589.733 2.6346 2.65593 0
M  V30 6386 H 591.066 3.45231 3.50822 0
M  V30 6387 N 592.718 -0.936591 1.26751 0
M  V30 6388 C 593.648 -2.05315 1.11212 0
M  V30 6389 C 594.629 -1.70092 0.0160262 0
M  V30 6390 O 595.814 -1.93279 0.188894 0
M  V30 6391 C 592.944 -3.39123 0.749171 0
M  V30 6392 C 591.898 -3.88425 1.79751 0
M  V30 6393 C 591.224 -5.18936 1.28876 0
M  V30 6394 C 592.524 -4.12798 3.19992 0
M  V30 6395 H 594.218 -2.18573 2.04613 0
M  V30 6396 H 591.764 -1.05027 0.985159 0
M  V30 6397 H 593.717 -4.16704 0.627323 0
M  V30 6398 H 592.441 -3.25855 -0.220543 0
M  V30 6399 H 591.1 -3.13028 1.90811 0
M  V30 6400 H 590.748 -5.02051 0.308757 0
M  V30 6401 H 590.448 -5.52892 1.98958 0
M  V30 6402 H 591.972 -5.99096 1.17967 0
M  V30 6403 H 593.386 -4.80977 3.11983 0
M  V30 6404 H 591.783 -4.58044 3.87705 0
M  V30 6405 H 592.853 -3.18412 3.65707 0
M  V30 6406 N 594.196 -1.08629 -1.14182 0
M  V30 6407 C 595.443 -0.817345 -1.85272 0
M  V30 6408 C 595.771 0.656917 -1.83071 0
M  V30 6409 O 595.026 1.49897 -1.25815 0
M  V30 6410 C 595.325 -1.28734 -3.3341 0
M  V30 6411 C 594.991 -2.76981 -3.55798 0
M  V30 6412 C 593.653 -3.17469 -3.61617 0
M  V30 6413 C 596.005 -3.72605 -3.64438 0
M  V30 6414 C 593.333 -4.52371 -3.736 0
M  V30 6415 C 595.685 -5.07286 -3.77947 0
M  V30 6416 C 594.349 -5.47376 -3.82016 0
M  V30 6417 H 593.619 -0.299088 -0.677958 0
M  V30 6418 H 596.266 -1.35962 -1.34857 0
M  V30 6419 H 594.571 -0.664702 -3.8612 0
M  V30 6420 H 596.268 -1.05598 -3.86846 0
M  V30 6421 H 592.858 -2.44644 -3.51919 0
M  V30 6422 H 597.042 -3.42443 -3.5923 0
M  V30 6423 H 592.298 -4.82882 -3.75013 0
M  V30 6424 H 596.472 -5.81243 -3.83575 0
M  V30 6425 H 594.099 -6.51906 -3.91054 0
M  V30 6426 N 595.674 1.31259 -0.872281 0
M  V30 6427 C 596.621 2.28459 -0.327857 0
M  V30 6428 C 597.591 1.55831 0.574957 0
M  V30 6429 O 598.776 1.83965 0.506101 0
M  V30 6430 C 595.916 3.41985 0.462644 0
M  V30 6431 C 595.029 4.29458 -0.467949 0
M  V30 6432 C 594.164 5.30131 0.336903 0
M  V30 6433 C 593.203 6.0925 -0.58997 0
M  V30 6434 N 592.34 7.01872 0.178775 0
M  V30 6435 H 597.18 2.74414 -1.16193 0
M  V30 6436 H 594.717 1.34994 -0.584376 0
M  V30 6437 H 596.675 4.06547 0.936759 0
M  V30 6438 H 595.305 2.97134 1.2614 0
M  V30 6439 H 594.357 3.65318 -1.06052 0
M  V30 6440 H 595.669 4.84677 -1.17856 0
M  V30 6441 H 594.823 6.0038 0.873427 0
M  V30 6442 H 593.562 4.75573 1.08079 0
M  V30 6443 H 592.567 5.37889 -1.13823 0
M  V30 6444 H 593.792 6.65894 -1.33275 0
M  V30 6445 H 591.738 6.49721 0.905435 0
M  V30 6446 H 591.655 7.54522 -0.472452 0
M  V30 6447 H 592.923 7.76382 0.696454 0
M  V30 6448 N 597.152 0.631951 1.44375 0
M  V30 6449 C 598.38 0.143867 2.06399 0
M  V30 6450 C 598.795 -1.18188 1.47231 0
M  V30 6451 O 598.152 -1.72511 0.595498 0
M  V30 6452 C 598.203 0.0238253 3.61492 0
M  V30 6453 O 597.924 1.29715 4.18456 0
M  V30 6454 C 599.425 -0.492856 4.40552 0
M  V30 6455 H 596.645 0.0800542 0.666207 0
M  V30 6456 H 599.189 0.866586 1.85231 0
M  V30 6457 H 597.344 -0.649338 3.81919 0
M  V30 6458 H 597.758 1.14252 5.11905 0
M  V30 6459 H 599.232 -0.525861 5.49489 0
M  V30 6460 H 599.709 -1.52006 4.12057 0
M  V30 6461 H 600.315 0.147085 4.25046 0
M  V30 6462 N 598.631 -1.53133 0.372548 0
M  V30 6463 C 599.908 -1.93704 -0.271693 0
M  V30 6464 C 600.288 -1.30667 -1.65799 0
M  V30 6465 O 599.636 -0.46838 -2.23648 0
M  V30 6466 C 599.846 -3.47576 -0.314903 0
M  V30 6467 C 601.194 -4.20998 -0.551912 0
M  V30 6468 O 602.218 -3.53994 -0.39582 0
M  V30 6469 O 601.077 -5.39748 -0.85639 0
M  V30 6470 H 598.171 -0.810457 -0.164586 0
M  V30 6471 H 600.717 -1.6427 0.425838 0
M  V30 6472 H 599.489 -3.85749 0.656792 0
M  V30 6473 H 599.112 -3.83264 -1.05804 0
M  V30 6474 N 600.109 -0.101901 -1.5727 0
M  V30 6475 C 601.056 0.854577 -2.14396 0
M  V30 6476 C 602.026 1.27521 -1.06432 0
M  V30 6477 O 603.211 1.35575 -1.34253 0
M  V30 6478 C 600.351 2.10576 -2.73408 0
M  V30 6479 C 599.464 1.73504 -3.95626 0
M  V30 6480 C 598.599 2.9346 -4.42781 0
M  V30 6481 C 597.638 2.52547 -5.57572 0
M  V30 6482 N 596.775 3.65359 -5.99547 0
M  V30 6483 H 601.615 0.360578 -2.9581 0
M  V30 6484 H 599.152 0.166303 -1.46157 0
M  V30 6485 H 601.11 2.83859 -3.05745 0
M  V30 6486 H 599.74 2.57463 -1.94711 0
M  V30 6487 H 598.792 0.901622 -3.6956 0
M  V30 6488 H 600.104 1.39426 -4.78917 0
M  V30 6489 H 599.258 3.74988 -4.76937 0
M  V30 6490 H 597.997 3.30753 -3.58404 0
M  V30 6491 H 597.002 1.69446 -5.23037 0
M  V30 6492 H 598.227 2.1639 -6.43702 0
M  V30 6493 H 596.173 4.02358 -5.18116 0
M  V30 6494 H 596.09 3.35148 -6.77652 0
M  V30 6495 H 597.358 4.47378 -6.38336 0
M  V30 6496 N 601.587 1.56661 0.17182 0
M  V30 6497 C 602.835 1.81606 0.886774 0
M  V30 6498 C 603.156 0.678818 1.82803 0
M  V30 6499 O 602.426 -0.301354 1.93568 0
M  V30 6500 H 601.006 0.669934 0.330451 0
M  V30 6501 H 603.668 1.94142 0.171757 0
M  V30 6502 H 602.764 2.75634 1.46398 0
M  V30 6503 N 603.065 -0.440357 1.51323 0
M  V30 6504 C 604.312 -1.19004 1.63842 0
M  V30 6505 C 604.64 -1.91266 0.35321 0
M  V30 6506 O 603.895 -1.84143 -0.662565 0
M  V30 6507 C 604.194 -2.2339 2.78984 0
M  V30 6508 C 603.86 -1.68162 4.18369 0
M  V30 6509 C 602.522 -1.52823 4.56288 0
M  V30 6510 C 604.874 -1.27524 5.05358 0
M  V30 6511 C 602.202 -0.953157 5.78906 0
M  V30 6512 C 604.554 -0.714474 6.28552 0
M  V30 6513 C 603.218 -0.547961 6.65247 0
M  V30 6514 H 602.488 -0.435468 0.59954 0
M  V30 6515 H 605.135 -0.481538 1.85347 0
M  V30 6516 H 603.44 -3.00267 2.51688 0
M  V30 6517 H 605.137 -2.81211 2.85869 0
M  V30 6518 H 601.727 -1.81077 3.8847 0
M  V30 6519 H 605.911 -1.38197 4.76671 0
M  V30 6520 H 601.167 -0.811882 6.05986 0
M  V30 6521 H 605.341 -0.391059 6.95301 0
M  V30 6522 H 602.968 -0.100222 7.60134 0
M  V30 6523 N 604.543 -1.41418 -0.695603 0
M  V30 6524 C 605.82 -1.31264 -1.45014 0
M  V30 6525 C 606.2 0.0597994 -2.11015 0
M  V30 6526 O 605.548 1.07403 -2.01685 0
M  V30 6527 C 605.758 -2.466 -2.4696 0
M  V30 6528 C 607.106 -2.87763 -3.12214 0
M  V30 6529 O 608.13 -2.46339 -2.57285 0
M  V30 6530 O 606.989 -3.59395 -4.11701 0
M  V30 6531 H 604.083 -0.516576 -0.645816 0
M  V30 6532 H 606.629 -1.53382 -0.726084 0
M  V30 6533 H 605.401 -3.38183 -1.96845 0
M  V30 6534 H 605.024 -2.26358 -3.26876 0
M  V30 6535 N 606.021 0.929856 -1.27246 0
M  V30 6536 C 606.968 2.03017 -1.09785 0
M  V30 6537 C 607.938 1.661 0.000456744 0
M  V30 6538 O 609.123 1.90116 -0.161462 0
M  V30 6539 C 606.263 3.36878 -0.748816 0
M  V30 6540 C 605.376 3.86763 -1.92453 0
M  V30 6541 C 604.511 5.09061 -1.51758 0
M  V30 6542 C 603.55 5.51237 -2.66091 0
M  V30 6543 N 602.687 6.64732 -2.25999 0
M  V30 6544 H 607.527 2.17285 -2.03939 0
M  V30 6545 H 605.064 1.06448 -1.01524 0
M  V30 6546 H 607.022 4.13855 -0.527283 0
M  V30 6547 H 605.652 3.22424 0.155771 0
M  V30 6548 H 604.704 3.06086 -2.25867 0
M  V30 6549 H 606.016 4.13994 -2.78227 0
M  V30 6550 H 605.17 5.93532 -1.25716 0
M  V30 6551 H 603.909 4.83602 -0.630896 0
M  V30 6552 H 602.914 4.65316 -2.92849 0
M  V30 6553 H 604.139 5.78692 -3.55377 0
M  V30 6554 H 602.085 6.40935 -1.3978 0
M  V30 6555 H 602.002 6.91607 -3.05313 0
M  V30 6556 H 603.27 7.52549 -2.03199 0
M  V30 6557 N 607.499 1.09233 1.13605 0
M  V30 6558 C 608.462 0.733553 2.17144 0
M  V30 6559 C 609.462 -0.235873 1.59061 0
M  V30 6560 O 610.652 -0.0143167 1.74194 0
M  V30 6561 C 607.784 0.084471 3.40795 0
M  V30 6562 H 608.977 1.65049 2.50397 0
M  V30 6563 H 606.53 0.891264 1.28399 0
M  V30 6564 H 607.265 -0.843795 3.1313 0
M  V30 6565 H 607.05 0.781985 3.84223 0
M  V30 6566 H 608.54 -0.151216 4.17326 0
M  V30 6567 N 608.977 -1.30795 0.87923 0
M  V30 6568 C 610.205 -2.00527 0.509548 0
M  V30 6569 C 610.62 -1.65944 -0.90045 0
M  V30 6570 O 609.977 -0.893525 -1.5913 0
M  V30 6571 C 610.028 -3.55276 0.667943 0
M  V30 6572 O 609.749 -3.88625 2.02242 0
M  V30 6573 C 611.25 -4.4228 0.300494 0
M  V30 6574 H 608.47 -0.641261 0.197549 0
M  V30 6575 H 611.014 -1.66813 1.18295 0
M  V30 6576 H 609.169 -3.87377 0.0419843 0
M  V30 6577 H 609.583 -4.83334 2.03688 0
M  V30 6578 H 611.057 -5.50061 0.462242 0
M  V30 6579 H 611.534 -4.32556 -0.76106 0
M  V30 6580 H 612.14 -4.15613 0.902536 0
M  V30 6581 N 610.455 -0.639598 -1.44038 0
M  V30 6582 C 611.702 -0.14748 -2.01962 0
M  V30 6583 C 612.03 1.23372 -1.50365 0
M  V30 6584 O 611.285 1.8345 -0.681501 0
M  V30 6585 C 611.584 -0.0925348 -3.5728 0
M  V30 6586 C 611.25 -1.41365 -4.28167 0
M  V30 6587 C 609.912 -1.77545 -4.47248 0
M  V30 6588 C 612.264 -2.2853 -4.68427 0
M  V30 6589 C 609.592 -3.00583 -5.03852 0
M  V30 6590 C 611.944 -3.50846 -5.26393 0
M  V30 6591 C 610.608 -3.8724 -5.43692 0
M  V30 6592 H 609.878 -0.0539666 -0.739032 0
M  V30 6593 H 612.525 -0.827599 -1.72694 0
M  V30 6594 H 610.83 0.670987 -3.86012 0
M  V30 6595 H 612.527 0.304891 -3.99839 0
M  V30 6596 H 609.117 -1.1221 -4.13651 0
M  V30 6597 H 613.301 -2.0187 -4.5339 0
M  V30 6598 H 608.557 -3.28846 -5.15432 0
M  V30 6599 H 612.731 -4.18616 -5.56537 0
M  V30 6600 H 610.358 -4.8266 -5.87319 0
M  V30 6601 N 611.933 1.52934 -0.380664 0
M  V30 6602 C 612.843 2.29921 0.466192 0
M  V30 6603 C 613.859 1.36488 1.07922 0
M  V30 6604 O 615.035 1.69553 1.0869 0
M  V30 6605 C 612.1 3.08468 1.58266 0
M  V30 6606 C 611.161 4.17595 0.995627 0
M  V30 6607 C 610.394 4.92387 2.05889 0
M  V30 6608 O 610.617 4.67184 3.27254 0
M  V30 6609 O 609.551 5.77949 1.68102 0
M  V30 6610 H 613.377 3.03274 -0.160735 0
M  V30 6611 H 610.962 1.48698 -0.144617 0
M  V30 6612 H 612.844 3.57469 2.23145 0
M  V30 6613 H 611.519 2.37937 2.19471 0
M  V30 6614 H 610.426 3.72811 0.310332 0
M  V30 6615 H 611.759 4.90336 0.427918 0
M  V30 6616 N 613.412 0.11024 1.57214 0
M  V30 6617 C 614.637 -0.561179 1.99664 0
M  V30 6618 C 615.062 -1.59985 0.989266 0
M  V30 6619 O 614.42 -1.81255 -0.0402399 0
M  V30 6620 C 614.468 -1.17189 3.41027 0
M  V30 6621 O 613.572 -2.28755 3.4314 0
M  V30 6622 H 612.913 -0.14101 0.648855 0
M  V30 6623 H 615.443 0.196128 2.03658 0
M  V30 6624 H 615.453 -1.50954 3.79047 0
M  V30 6625 H 614.128 -0.411041 4.13864 0
M  V30 6626 H 612.705 -1.96495 3.16929 0
M  V30 6627 N 614.89 -1.56749 -0.16351 0
M  V30 6628 C 615.822 -1.93587 -1.22705 0
M  V30 6629 C 616.835 -0.829824 -1.40063 0
M  V30 6630 O 618.024 -1.10826 -1.39928 0
M  V30 6631 C 615.124 -2.1803 -2.59454 0
M  V30 6632 C 614.297 -3.4928 -2.63292 0
M  V30 6633 C 613.356 -3.62457 -3.8146 0
M  V30 6634 O 612.382 -4.35004 -3.67096 0
M  V30 6635 N 613.584 -2.97888 -4.9824 0
M  V30 6636 H 616.349 -2.8542 -0.914081 0
M  V30 6637 H 613.91 -1.58 -0.353214 0
M  V30 6638 H 615.902 -2.24102 -3.36987 0
M  V30 6639 H 614.472 -1.32543 -2.8311 0
M  V30 6640 H 613.692 -3.54795 -1.71796 0
M  V30 6641 H 614.98 -4.35632 -2.62873 0
M  V30 6642 H 614.378 -2.38833 -5.12811 0
M  V30 6643 H 612.935 -3.09545 -5.73607 0
M  V30 6644 N 616.368 0.432326 -1.51554 0
M  V30 6645 C 617.301 1.54525 -1.6792 0
M  V30 6646 C 618.279 1.53831 -0.526764 0
M  V30 6647 O 619.463 1.72884 -0.751233 0
M  V30 6648 C 616.59 2.931 -1.69736 0
M  V30 6649 C 615.636 3.11799 -2.91005 0
M  V30 6650 S 616.469 2.87565 -4.51737 0
M  V30 6651 C 617.625 4.28412 -4.56305 0
M  V30 6652 H 617.858 1.4041 -2.62054 0
M  V30 6653 H 615.391 0.622357 -1.41301 0
M  V30 6654 H 617.349 3.72974 -1.71467 0
M  V30 6655 H 616.01 3.04574 -0.767705 0
M  V30 6656 H 615.203 4.13127 -2.8869 0
M  V30 6657 H 614.805 2.39757 -2.87041 0
M  V30 6658 H 617.097 5.21692 -4.32254 0
M  V30 6659 H 618.04 4.35758 -5.58141 0
M  V30 6660 H 618.448 4.12301 -3.85576 0
M  V30 6661 N 617.846 1.41785 0.688094 0
M  V30 6662 C 619.071 1.45117 1.48175 0
M  V30 6663 C 619.496 0.060129 1.88004 0
M  V30 6664 O 618.854 -0.938385 1.55126 0
M  V30 6665 C 618.902 2.37224 2.71583 0
M  V30 6666 O 618.006 1.83443 3.69354 0
M  V30 6667 H 617.347 0.492208 0.445676 0
M  V30 6668 H 619.877 1.86329 0.845145 0
M  V30 6669 H 619.887 2.53353 3.19806 0
M  V30 6670 H 618.562 3.38293 2.41931 0
M  V30 6671 H 617.139 1.76802 3.28322 0
M  V30 6672 N 619.324 -0.923095 1.27737 0
M  V30 6673 C 620.57 -1.67375 1.14514 0
M  V30 6674 C 620.903 -1.91751 -0.307424 0
M  V30 6675 O 620.178 -1.51119 -1.22447 0
M  V30 6676 C 620.461 -3.03745 1.9342 0
M  V30 6677 C 620.314 -2.86581 3.46686 0
M  V30 6678 C 621.633 -4.04144 1.74228 0
M  V30 6679 H 618.752 -0.607427 0.417374 0
M  V30 6680 H 621.394 -1.07089 1.56946 0
M  V30 6681 H 619.544 -3.55204 1.5736 0
M  V30 6682 H 621.216 -2.42203 3.92601 0
M  V30 6683 H 619.459 -2.21829 3.72793 0
M  V30 6684 H 620.13 -3.83381 3.97143 0
M  V30 6685 H 622.606 -3.61712 2.05678 0
M  V30 6686 H 621.482 -4.97543 2.31824 0
M  V30 6687 H 621.743 -4.36661 0.691373 0
M  V30 6688 N 620.802 -1.09834 -1.13024 0
M  V30 6689 C 621.735 -0.685453 -2.17662 0
M  V30 6690 C 622.713 0.310142 -1.59615 0
M  V30 6691 O 623.897 0.21052 -1.87321 0
M  V30 6692 C 621.024 -0.0104476 -3.38698 0
M  V30 6693 C 620.07 -0.968522 -4.15358 0
M  V30 6694 S 620.903 -2.48272 -4.74469 0
M  V30 6695 C 622.059 -1.82025 -5.98847 0
M  V30 6696 H 622.292 -1.57187 -2.52348 0
M  V30 6697 H 619.825 -0.914728 -1.24387 0
M  V30 6698 H 621.783 0.372694 -4.08805 0
M  V30 6699 H 620.444 0.852673 -3.02305 0
M  V30 6700 H 619.637 -0.443373 -5.02046 0
M  V30 6701 H 619.239 -1.29327 -3.50928 0
M  V30 6702 H 621.531 -1.14678 -6.67724 0
M  V30 6703 H 622.474 -2.66645 -6.55977 0
M  V30 6704 H 622.882 -1.2874 -5.49624 0
M  V30 6705 N 622.28 1.30327 -0.886154 0
M  V30 6706 C 623.696 1.48676 -0.580323 0
M  V30 6707 C 623.896 1.81189 0.881639 0
M  V30 6708 O 622.952 1.90021 1.66278 0
M  V30 6709 C 624.265 2.60932 -1.49449 0
M  V30 6710 C 625.813 2.74812 -1.49824 0
M  V30 6711 C 626.288 3.90183 -2.39836 0
M  V30 6712 N 627.779 3.97495 -2.37806 0
M  V30 6713 C 628.514 4.86078 -3.04165 0
M  V30 6714 N 628.01 5.79448 -3.79753 0
M  V30 6715 N 629.803 4.79456 -2.93391 0
M  V30 6716 H 621.954 1.07495 -1.8319 0
M  V30 6717 H 624.217 0.532661 -0.784204 0
M  V30 6718 H 623.923 2.43731 -2.5355 0
M  V30 6719 H 623.797 3.57437 -1.20494 0
M  V30 6720 H 626.184 2.91418 -0.464731 0
M  V30 6721 H 626.265 1.78924 -1.82811 0
M  V30 6722 H 625.909 3.74334 -3.43273 0
M  V30 6723 H 625.839 4.85411 -2.04166 0
M  V30 6724 H 628.33 3.30703 -1.82877 0
M  V30 6725 H 628.643 6.43805 -4.27475 0
M  V30 6726 H 626.988 5.79376 -3.8386 0
M  V30 6727 H 630.179 4.05494 -2.33864 0
M  V30 6728 H 630.352 5.48283 -3.45383 0
M  V30 6729 N 623.758 0.647228 1.43697 0
M  V30 6730 C 625.006 0.157876 2.01482 0
M  V30 6731 C 625.327 -1.23039 1.51282 0
M  V30 6732 O 624.597 -1.82071 0.722982 0
M  V30 6733 H 623.177 0.0553745 0.744945 0
M  V30 6734 H 625.839 0.83755 1.75986 0
M  V30 6735 H 624.935 0.137895 3.11795 0
M  V30 6736 N 625.236 -1.5273 0.388769 0
M  V30 6737 C 626.168 -2.24081 -0.481704 0
M  V30 6738 C 627.181 -1.26307 -1.02715 0
M  V30 6739 O 628.37 -1.52386 -0.929565 0
M  V30 6740 C 625.47 -2.94315 -1.68024 0
M  V30 6741 C 624.643 -4.18791 -1.26226 0
M  V30 6742 C 623.702 -4.72028 -2.32542 0
M  V30 6743 O 622.728 -5.35129 -1.93972 0
M  V30 6744 N 623.93 -4.51838 -3.64448 0
M  V30 6745 H 626.695 -2.9942 0.129591 0
M  V30 6746 H 624.256 -1.60465 0.2151 0
M  V30 6747 H 626.248 -3.26831 -2.38671 0
M  V30 6748 H 624.818 -2.22287 -2.19789 0
M  V30 6749 H 624.038 -3.92318 -0.384703 0
M  V30 6750 H 625.326 -4.99668 -0.959647 0
M  V30 6751 H 624.724 -4.01468 -3.98547 0
M  V30 6752 H 623.281 -4.88845 -4.31131 0
M  V30 6753 N 626.714 -0.118576 -1.57153 0
M  V30 6754 C 627.963 0.539339 -1.94355 0
M  V30 6755 C 628.276 1.67858 -1.00415 0
M  V30 6756 O 629.482 2.39922 -1.27081 0
M  V30 6757 C 627.938 1.01082 -3.45414 0
M  V30 6758 C 627.546 -0.0999402 -4.47889 0
M  V30 6759 C 629.29 1.64013 -3.91535 0
M  V30 6760 C 627.197 0.388212 -5.90124 0
M  V30 6761 H 626.127 0.205247 -0.725527 0
M  V30 6762 H 628.778 -0.19836 -1.82425 0
M  V30 6763 H 627.16 1.80292 -3.52577 0
M  V30 6764 H 628.334 -0.876189 -4.52393 0
M  V30 6765 H 626.649 -0.635885 -4.11516 0
M  V30 6766 H 629.246 2.01649 -4.95219 0
M  V30 6767 H 629.589 2.51836 -3.31488 0
M  V30 6768 H 630.122 0.913439 -3.87171 0
M  V30 6769 H 626.861 -0.453963 -6.53926 0
M  V30 6770 H 626.381 1.13095 -5.89041 0
M  V30 6771 H 628.06 0.849574 -6.41398 0
M  V30 6772 N 628.193 1.56834 0.155195 0
M  V30 6773 C 629.123 2.00678 1.19376 0
M  V30 6774 C 630.104 0.884973 1.45266 0
M  V30 6775 O 631.289 1.1522 1.56326 0
M  V30 6776 C 628.419 2.38042 2.5289 0
M  V30 6777 C 627.373 3.53332 2.41538 0
M  V30 6778 C 626.699 3.76485 3.79688 0
M  V30 6779 C 627.999 4.86265 1.9064 0
M  V30 6780 H 629.693 2.87688 0.829232 0
M  V30 6781 H 627.239 1.38407 0.397445 0
M  V30 6782 H 629.192 2.67314 3.25763 0
M  V30 6783 H 627.916 1.4796 2.91162 0
M  V30 6784 H 626.575 3.24213 1.71117 0
M  V30 6785 H 626.223 2.83667 4.15382 0
M  V30 6786 H 625.923 4.54068 3.72956 0
M  V30 6787 H 627.447 4.08174 4.54122 0
M  V30 6788 H 628.861 5.14308 2.53299 0
M  V30 6789 H 627.258 5.67597 1.94818 0
M  V30 6790 H 628.328 4.77184 0.861596 0
M  V30 6791 N 629.671 -0.424282 1.51781 0
M  V30 6792 C 630.619 -1.53649 1.74628 0
M  V30 6793 C 631.613 -1.57923 0.612922 0
M  V30 6794 O 632.819 -1.61511 0.794618 0
M  V30 6795 H 629.194 -0.510706 0.551981 0
M  V30 6796 H 631.165 -1.31558 2.67834 0
M  V30 6797 C 629.914 -2.91177 1.9003 0
M  V30 6798 H 629.237 -2.88625 2.76651 0
M  V30 6799 H 630.677 -3.6833 2.10021 0
M  V30 6800 C 629.136 -3.30303 0.663435 0
M  V30 6801 O 629.666 -4.01315 -0.175812 0
M  V30 6802 N 627.872 -2.86201 0.503723 0
M  V30 6803 H 627.419 -2.28583 1.18776 0
M  V30 6804 H 627.377 -3.12741 -0.322575 0
M  V30 6805 N 631.149 -1.42148 -0.680565 0
M  V30 6806 C 632.079 -1.4796 -1.80638 0
M  V30 6807 C 633.06 -0.336728 -1.66734 0
M  V30 6808 O 634.245 -0.550247 -1.86242 0
M  V30 6809 C 631.375 -1.37569 -3.18892 0
M  V30 6810 C 630.329 -2.49823 -3.47524 0
M  V30 6811 C 629.655 -2.24491 -4.85291 0
M  V30 6812 C 630.955 -3.92144 -3.44994 0
M  V30 6813 H 632.649 -2.42184 -1.76032 0
M  V30 6814 H 630.195 -1.16566 -0.845481 0
M  V30 6815 H 632.148 -1.40243 -3.97379 0
M  V30 6816 H 630.872 -0.398357 -3.24162 0
M  V30 6817 H 629.531 -2.46455 -2.71395 0
M  V30 6818 H 629.179 -1.25066 -4.87204 0
M  V30 6819 H 628.879 -2.99722 -5.05411 0
M  V30 6820 H 630.403 -2.28906 -5.66069 0
M  V30 6821 H 631.817 -3.97145 -4.13459 0
M  V30 6822 H 630.214 -4.67179 -3.76648 0
M  V30 6823 H 631.284 -4.19225 -2.43676 0
M  V30 6824 N 632.627 0.916307 -1.28225 0
M  V30 6825 C 633.855 1.69901 -1.18073 0
M  V30 6826 C 634.27 1.86988 0.260968 0
M  V30 6827 O 633.627 1.39505 1.17663 0
M  V30 6828 C 633.678 3.09254 -1.87201 0
M  V30 6829 O 633.399 2.92959 -3.2574 0
M  V30 6830 C 634.9 4.0362 -1.83319 0
M  V30 6831 H 632.12 0.531181 -0.409985 0
M  V30 6832 H 634.664 1.14703 -1.69303 0
M  V30 6833 H 632.819 3.61277 -1.39848 0
M  V30 6834 H 633.233 3.81139 -3.60324 0
M  V30 6835 H 634.707 4.98873 -2.36282 0
M  V30 6836 H 635.184 4.3176 -0.805007 0
M  V30 6837 H 635.79 3.57524 -2.3034 0
M  V30 6838 N 634.105 1.10431 1.1244 0
M  V30 6839 C 635.037 0.710945 2.17895 0
M  V30 6840 C 636.05 -0.252315 1.60833 0
M  V30 6841 O 637.239 -0.03679 1.78462 0
M  V30 6842 C 634.339 0.0284262 3.38888 0
M  V30 6843 C 633.512 1.01585 4.2544 0
M  V30 6844 C 632.571 0.364826 5.24934 0
M  V30 6845 O 631.597 1.01561 5.60066 0
M  V30 6846 N 632.799 -0.87674 5.73841 0
M  V30 6847 H 635.564 1.61826 2.52255 0
M  V30 6848 H 633.125 0.993132 1.27861 0
M  V30 6849 H 635.117 -0.418568 4.0253 0
M  V30 6850 H 633.687 -0.781294 3.02679 0
M  V30 6851 H 632.907 1.64111 3.58415 0
M  V30 6852 H 634.195 1.68425 4.80115 0
M  V30 6853 H 633.593 -1.42483 5.47462 0
M  V30 6854 H 632.15 -1.26688 6.39369 0
M  V30 6855 N 635.583 -1.29855 0.893053 0
M  V30 6856 C 636.546 -2.26183 0.370687 0
M  V30 6857 C 637.546 -1.53108 -0.491385 0
M  V30 6858 O 638.736 -1.71643 -0.297386 0
M  V30 6859 C 635.868 -3.37633 -0.470827 0
M  V30 6860 H 637.061 -2.73903 1.22135 0
M  V30 6861 H 634.614 -1.41183 0.67061 0
M  V30 6862 H 635.349 -2.95241 -1.34175 0
M  V30 6863 H 635.134 -3.91825 0.146784 0
M  V30 6864 H 636.624 -4.09313 -0.827825 0
M  V30 6865 N 637.061 -0.65484 -1.43351 0
M  V30 6866 C 637.991 0.0221809 -2.33489 0
M  V30 6867 C 638.972 0.810272 -1.49561 0
M  V30 6868 O 640.157 0.771426 -1.78221 0
M  V30 6869 C 637.287 0.988117 -3.32947 0
M  V30 6870 C 636.241 0.310026 -4.26876 0
M  V30 6871 C 635.567 1.38752 -5.16384 0
M  V30 6872 C 636.867 -0.798589 -5.16159 0
M  V30 6873 H 638.561 -0.730571 -2.9035 0
M  V30 6874 H 636.107 -0.352773 -1.39612 0
M  V30 6875 H 638.06 1.47067 -3.94904 0
M  V30 6876 H 636.784 1.77205 -2.74346 0
M  V30 6877 H 635.443 -0.152097 -3.66284 0
M  V30 6878 H 635.091 2.16293 -4.54121 0
M  V30 6879 H 634.791 0.939051 -5.80048 0
M  V30 6880 H 636.315 1.87141 -5.81215 0
M  V30 6881 H 637.729 -0.398126 -5.71916 0
M  V30 6882 H 636.126 -1.17163 -5.88552 0
M  V30 6883 H 637.196 -1.65588 -4.55751 0
M  V30 6884 N 638.539 1.52521 -0.396863 0
M  V30 6885 C 639.955 1.5953 -0.0471659 0
M  V30 6886 C 640.155 1.41044 1.43906 0
M  V30 6887 O 639.211 1.23122 2.20448 0
M  V30 6888 C 640.524 2.95972 -0.531113 0
M  V30 6889 C 642.072 3.09172 -0.488024 0
M  V30 6890 C 642.547 4.48075 -0.948281 0
M  V30 6891 N 644.038 4.54281 -0.9046 0
M  V30 6892 C 644.773 5.60007 -1.23205 0
M  V30 6893 N 644.269 6.73343 -1.63036 0
M  V30 6894 N 646.062 5.50151 -1.15282 0
M  V30 6895 H 638.213 1.62786 -1.36435 0
M  V30 6896 H 640.476 0.76514 -0.559701 0
M  V30 6897 H 640.182 3.14741 -1.56942 0
M  V30 6898 H 640.056 3.77143 0.0657922 0
M  V30 6899 H 642.443 2.90095 0.541211 0
M  V30 6900 H 642.524 2.29937 -1.12083 0
M  V30 6901 H 642.168 4.67894 -1.97578 0
M  V30 6902 H 642.098 5.25788 -0.292412 0
M  V30 6903 H 644.589 3.72918 -0.6116 0
M  V30 6904 H 644.902 7.49992 -1.86365 0
M  V30 6905 H 643.247 6.74655 -1.66929 0
M  V30 6906 H 646.438 4.6049 -0.840602 0
M  V30 6907 H 646.611 6.32444 -1.41133 0
M  V30 6908 N 640.017 0.126909 1.57088 0
M  V30 6909 C 641.294 -0.573152 1.87014 0
M  V30 6910 C 641.674 -1.84297 1.02945 0
M  V30 6911 O 641.022 -2.28232 0.110573 0
M  V30 6912 C 641.232 -0.857984 3.38289 0
M  V30 6913 C 642.58 -1.20759 4.07066 0
M  V30 6914 O 643.604 -0.947992 3.43353 0
M  V30 6915 O 642.463 -1.69516 5.19545 0
M  V30 6916 H 639.557 -0.290082 0.774456 0
M  V30 6917 H 642.103 0.162008 1.68925 0
M  V30 6918 H 640.875 0.0415286 3.91278 0
M  V30 6919 H 640.498 -1.64803 3.61837 0
M  V30 6920 N 641.495 -1.56914 -0.146875 0
M  V30 6921 C 642.743 -1.82994 -0.85777 0
M  V30 6922 C 643.064 -0.707814 -1.817 0
M  V30 6923 O 642.334 0.270521 -1.94023 0
M  V30 6924 H 640.914 -0.675106 -0.319751 0
M  V30 6925 H 643.576 -1.9439 -0.140849 0
M  V30 6926 H 642.672 -2.77928 -1.41994 0
M  V30 6927 N 642.974 0.416227 -1.52004 0
M  V30 6928 C 643.921 1.50666 -1.74838 0
M  V30 6929 C 644.891 1.55245 -0.590599 0
M  V30 6930 O 646.076 1.71928 -0.827374 0
M  V30 6931 C 643.216 2.88185 -1.89851 0
M  V30 6932 C 642.329 2.92971 -3.17478 0
M  V30 6933 C 641.464 4.21745 -3.22962 0
M  V30 6934 C 640.503 4.20478 -4.4482 0
M  V30 6935 N 639.64 5.40811 -4.47736 0
M  V30 6936 H 644.48 1.30498 -2.67907 0
M  V30 6937 H 642.017 0.633568 -1.32757 0
M  V30 6938 H 643.975 3.68007 -1.96537 0
M  V30 6939 H 642.605 3.06865 -1.00169 0
M  V30 6940 H 641.657 2.05684 -3.19997 0
M  V30 6941 H 642.969 2.87899 -4.07328 0
M  V30 6942 H 642.123 5.09954 -3.28682 0
M  V30 6943 H 640.862 4.29503 -2.31038 0
M  V30 6944 H 639.867 3.30659 -4.39254 0
M  V30 6945 H 641.092 4.14366 -5.38031 0
M  V30 6946 H 639.038 5.4925 -3.58692 0
M  V30 6947 H 638.955 5.37705 -5.31422 0
M  V30 6948 H 640.223 6.30993 -4.57676 0
M  V30 6949 N 644.452 1.42507 0.673017 0
M  V30 6950 C 645.677 1.4668 1.46627 0
M  V30 6951 C 646.102 0.080066 1.8793 0
M  V30 6952 O 645.46 -0.921879 1.56112 0
M  V30 6953 C 645.508 2.40091 2.69051 0
M  V30 6954 O 644.612 1.8735 3.67387 0
M  V30 6955 H 643.953 0.496908 0.44043 0
M  V30 6956 H 646.483 1.87215 0.825334 0
M  V30 6957 H 646.493 2.56731 3.17101 0
M  V30 6958 H 645.168 3.4084 2.3833 0
M  V30 6959 H 643.745 1.80274 3.26429 0
M  V30 6960 N 645.93 -0.909495 1.28709 0
M  V30 6961 C 647.341 -1.47419 1.14563 0
M  V30 6962 C 647.692 -1.94432 -0.262832 0
M  V30 6963 O 646.817 -1.82842 -1.15748 0
M  V30 6964 C 647.412 -2.67933 2.07358 0
M  V30 6965 C 645.971 -3.20568 1.97264 0
M  V30 6966 C 645.118 -1.93269 1.98852 0
M  V30 6967 H 648.069 -0.721787 1.41336 0
M  V30 6968 H 648.09 -3.43339 1.64007 0
M  V30 6969 H 647.602 -2.33685 3.09859 0
M  V30 6970 H 645.703 -3.59531 0.978157 0
M  V30 6971 H 645.816 -3.85529 2.84436 0
M  V30 6972 H 644.18 -2.10553 1.43317 0
M  V30 6973 H 644.963 -1.61312 3.0304 0
M  V30 6974 N 647.408 -1.11026 -1.11852 0
M  V30 6975 C 648.655 -0.85646 -1.83497 0
M  V30 6976 C 648.983 0.617938 -1.84423 0
M  V30 6977 O 648.238 1.47194 -1.28966 0
M  V30 6978 C 648.537 -1.35777 -3.30604 0
M  V30 6979 C 648.203 -2.84465 -3.49843 0
M  V30 6980 C 646.865 -3.25068 -3.54802 0
M  V30 6981 C 649.217 -3.80251 -3.56453 0
M  V30 6982 C 646.545 -4.60194 -3.63921 0
M  V30 6983 C 648.897 -5.15188 -3.67102 0
M  V30 6984 C 647.561 -5.55356 -3.70319 0
M  V30 6985 H 646.831 -0.313401 -0.671462 0
M  V30 6986 H 649.478 -1.38792 -1.31943 0
M  V30 6987 H 647.783 -0.746455 -3.84624 0
M  V30 6988 H 649.48 -1.13779 -3.8452 0
M  V30 6989 H 646.07 -2.52054 -3.46651 0
M  V30 6990 H 650.254 -3.49986 -3.51886 0
M  V30 6991 H 645.51 -4.90728 -3.64686 0
M  V30 6992 H 649.684 -5.89248 -3.71159 0
M  V30 6993 H 647.311 -6.60054 -3.77138 0
M  V30 6994 N 648.886 1.2938 -0.899927 0
M  V30 6995 C 649.818 2.26737 -0.335139 0
M  V30 6996 C 650.831 1.54316 0.518681 0
M  V30 6997 O 652.02 1.75313 0.335803 0
M  V30 6998 C 649.12 3.34558 0.540774 0
M  V30 6999 C 648.293 4.36455 -0.287372 0
M  V30 7000 C 647.352 5.2361 0.52141 0
M  V30 7001 O 646.378 5.69167 -0.0611735 0
M  V30 7002 N 647.58 5.50985 1.82745 0
M  V30 7003 H 650.345 2.75838 -1.17191 0
M  V30 7004 H 647.906 1.42716 -0.764438 0
M  V30 7005 H 649.898 3.89794 1.08825 0
M  V30 7006 H 648.468 2.85272 1.27823 0
M  V30 7007 H 647.688 3.80875 -1.01626 0
M  V30 7008 H 648.976 5.01573 -0.854518 0
M  V30 7009 H 648.374 5.15781 2.32349 0
M  V30 7010 H 646.931 6.09036 2.32204 0
M  V30 7011 N 650.364 0.662433 1.43002 0
M  V30 7012 C 651.294 -0.00979809 2.33498 0
M  V30 7013 C 652.275 -0.802329 1.49989 0
M  V30 7014 O 653.46 -0.761964 1.78627 0
M  V30 7015 C 650.59 -0.970446 3.33466 0
M  V30 7016 C 649.544 -0.287383 4.27034 0
M  V30 7017 C 648.87 -1.36012 5.17112 0
M  V30 7018 C 650.17 0.82595 5.15728 0
M  V30 7019 H 651.864 0.745959 2.89958 0
M  V30 7020 H 649.41 0.360172 1.39423 0
M  V30 7021 H 651.363 -1.44971 3.95679 0
M  V30 7022 H 650.087 -1.75748 2.75282 0
M  V30 7023 H 648.746 0.17152 3.66199 0
M  V30 7024 H 648.394 -2.13882 4.55262 0
M  V30 7025 H 648.094 -0.908276 5.80538 0
M  V30 7026 H 649.618 -1.84056 5.82199 0
M  V30 7027 H 651.032 0.42845 5.71697 0
M  V30 7028 H 649.429 1.20282 5.87922 0
M  V30 7029 H 650.499 1.68003 4.54866 0
M  V30 7030 N 651.842 -1.52309 0.404946 0
M  V30 7031 C 653.088 -2.02065 -0.172455 0
M  V30 7032 C 653.421 -1.29022 -1.45145 0
M  V30 7033 O 652.696 -0.395284 -1.90441 0
M  V30 7034 C 652.979 -3.5759 -0.424433 0
M  V30 7035 C 652.832 -4.41287 0.870945 0
M  V30 7036 C 654.151 -4.23186 -1.20837 0
M  V30 7037 H 651.27 -0.734454 -0.0612035 0
M  V30 7038 H 653.912 -1.82236 0.53759 0
M  V30 7039 H 652.062 -3.74617 -1.02929 0
M  V30 7040 H 653.734 -4.3598 1.50729 0
M  V30 7041 H 651.977 -4.07669 1.48284 0
M  V30 7042 H 652.648 -5.48171 0.649083 0
M  V30 7043 H 655.124 -4.10232 -0.696338 0
M  V30 7044 H 654 -5.31953 -1.35343 0
M  V30 7045 H 654.261 -3.81862 -2.22786 0
M  V30 7046 N 653.32 -0.135238 -1.57019 0
M  V30 7047 C 654.252 0.839675 -2.13265 0
M  V30 7048 C 655.265 1.21887 -1.07923 0
M  V30 7049 O 656.454 1.16499 -1.35241 0
M  V30 7050 C 653.554 2.13647 -2.63075 0
M  V30 7051 C 652.727 1.92646 -3.92691 0
M  V30 7052 C 651.786 3.06205 -4.27931 0
M  V30 7053 O 650.812 2.78409 -4.96465 0
M  V30 7054 N 652.014 4.33072 -3.86561 0
M  V30 7055 H 654.779 0.359026 -2.97542 0
M  V30 7056 H 652.34 0.0486979 -1.61827 0
M  V30 7057 H 654.332 2.88641 -2.8367 0
M  V30 7058 H 652.902 2.5301 -1.83588 0
M  V30 7059 H 652.122 1.01754 -3.80841 0
M  V30 7060 H 653.41 1.75939 -4.77413 0
M  V30 7061 H 652.808 4.58526 -3.31316 0
M  V30 7062 H 651.365 5.04885 -4.12231 0
M  V30 7063 N 654.798 1.5699 0.138552 0
M  V30 7064 C 656.047 1.82998 0.848205 0
M  V30 7065 C 656.36 0.717829 1.81952 0
M  V30 7066 O 657.566 0.863756 2.57394 0
M  V30 7067 C 656.022 3.24379 1.55904 0
M  V30 7068 C 655.63 4.43552 0.62971 0
M  V30 7069 C 657.374 3.59654 2.25498 0
M  V30 7070 C 655.281 5.75957 1.34266 0
M  V30 7071 H 654.211 0.682495 0.320495 0
M  V30 7072 H 656.862 1.83222 0.100924 0
M  V30 7073 H 655.244 3.18567 2.35226 0
M  V30 7074 H 656.418 4.6062 -0.128882 0
M  V30 7075 H 654.733 4.16379 0.0417526 0
M  V30 7076 H 657.33 4.55837 2.79493 0
M  V30 7077 H 657.673 2.86124 3.02388 0
M  V30 7078 H 658.206 3.67164 1.53087 0
M  V30 7079 H 654.945 6.52604 0.615441 0
M  V30 7080 H 654.465 5.62811 2.07375 0
M  V30 7081 H 656.144 6.19046 1.88126 0
M  V30 7082 N 656.276 -0.40816 1.52223 0
M  V30 7083 C 657.687 -0.986929 1.58482 0
M  V30 7084 C 658.038 -1.91521 0.425917 0
M  V30 7085 O 657.163 -2.11593 -0.453593 0
M  V30 7086 C 657.758 -1.7967 2.87235 0
M  V30 7087 C 656.317 -2.32549 2.9597 0
M  V30 7088 C 655.464 -1.12558 2.53428 0
M  V30 7089 H 658.415 -0.188362 1.57578 0
M  V30 7090 H 658.436 -2.65417 2.72642 0
M  V30 7091 H 657.948 -1.12082 3.71563 0
M  V30 7092 H 656.049 -3.03505 2.16137 0
M  V30 7093 H 656.162 -2.63348 4.00231 0
M  V30 7094 H 654.526 -1.47984 2.07299 0
M  V30 7095 H 655.309 -0.465351 3.40131 0
M  V30 7096 N 657.755 -1.42862 -0.66545 0
M  V30 7097 C 658.995 -1.45323 -1.43738 0
M  V30 7098 C 659.359 -0.0707969 -1.91869 0
M  V30 7099 O 660.56 0.0298852 -2.68783 0
M  V30 7100 C 658.831 -2.45671 -2.59577 0
M  V30 7101 S 660.39 -2.6691 -3.48288 0
M  V30 7102 H 657.208 -0.51442 -0.490809 0
M  V30 7103 H 659.81 -1.79537 -0.773745 0
M  V30 7104 H 658.514 -3.44869 -2.22471 0
M  V30 7105 H 658.045 -2.12914 -3.30804 0
M  V30 7106 H 660.06 -1.95914 -4.55886 0
M  V30 7107 N 659.233 0.902656 -1.29189 0
M  V30 7108 C 660.479 1.65532 -1.17163 0
M  V30 7109 C 660.812 1.92216 0.276879 0
M  V30 7110 O 660.087 1.53048 1.20027 0
M  V30 7111 C 660.37 3.00629 -1.98228 0
M  V30 7112 C 660.223 2.81029 -3.51202 0
M  V30 7113 C 661.542 4.01321 -1.80635 0
M  V30 7114 H 658.661 0.60071 -0.426985 0
M  V30 7115 H 661.303 1.04578 -1.5863 0
M  V30 7116 H 659.453 3.52656 -1.62991 0
M  V30 7117 H 661.125 2.35927 -3.96404 0
M  V30 7118 H 659.368 2.1587 -3.76275 0
M  V30 7119 H 660.039 3.77014 -4.03192 0
M  V30 7120 H 662.515 3.58394 -2.11406 0
M  V30 7121 H 661.391 4.93792 -2.3971 0
M  V30 7122 H 661.652 4.35505 -0.760754 0
M  V30 7123 N 660.711 1.11618 1.11262 0
M  V30 7124 C 661.96 0.860934 1.82403 0
M  V30 7125 C 662.273 -0.615303 1.8567 0
M  V30 7126 O 663.479 -0.986861 2.52929 0
M  V30 7127 C 661.935 1.49048 3.27586 0
M  V30 7128 C 661.543 3.00089 3.32642 0
M  V30 7129 C 663.287 1.31515 4.03614 0
M  V30 7130 C 661.194 3.56019 4.72234 0
M  V30 7131 H 660.124 0.318423 0.683464 0
M  V30 7132 H 662.775 1.34165 1.25188 0
M  V30 7133 H 661.157 0.937434 3.84744 0
M  V30 7134 H 662.331 3.61813 2.85356 0
M  V30 7135 H 660.646 3.16919 2.70096 0
M  V30 7136 H 663.243 1.70732 5.0671 0
M  V30 7137 H 663.586 0.257917 4.155 0
M  V30 7138 H 664.119 1.83694 3.52848 0
M  V30 7139 H 660.858 4.61463 4.65545 0
M  V30 7140 H 660.378 2.99066 5.19923 0
M  V30 7141 H 662.057 3.54568 5.41193 0
M  V30 7142 N 662.189 -1.289 0.906776 0
M  V30 7143 C 663.435 -1.95558 0.53712 0
M  V30 7144 C 663.768 -1.71262 -0.915582 0
M  V30 7145 O 663.043 -1.02961 -1.65013 0
M  V30 7146 C 663.326 -3.50198 0.838645 0
M  V30 7147 C 663.179 -3.83923 2.34357 0
M  V30 7148 C 664.498 -4.38861 0.329988 0
M  V30 7149 H 661.617 -0.710289 0.196617 0
M  V30 7150 H 664.259 -1.52392 1.13475 0
M  V30 7151 H 662.409 -3.87096 0.330024 0
M  V30 7152 H 664.081 -3.56933 2.92227 0
M  V30 7153 H 662.324 -3.31215 2.80141 0
M  V30 7154 H 662.995 -4.91883 2.5051 0
M  V30 7155 H 665.471 -4.08996 0.765609 0
M  V30 7156 H 664.347 -5.45931 0.570105 0
M  V30 7157 H 664.608 -4.35352 -0.769511 0
M  V30 7158 N 663.667 -0.670007 -1.42649 0
M  V30 7159 C 664.577 0.0114788 -2.34597 0
M  V30 7160 C 665.593 0.794055 -1.54825 0
M  V30 7161 O 666.769 0.737472 -1.87412 0
M  V30 7162 C 663.834 0.954436 -3.33304 0
M  V30 7163 C 662.895 0.166925 -4.28975 0
M  V30 7164 C 662.128 1.06497 -5.22967 0
M  V30 7165 O 662.351 2.30446 -5.21777 0
M  V30 7166 O 661.285 0.528347 -5.99577 0
M  V30 7167 H 665.111 -0.745794 -2.944 0
M  V30 7168 H 662.696 -0.430228 -1.43071 0
M  V30 7169 H 664.578 1.49589 -3.93956 0
M  V30 7170 H 663.253 1.69164 -2.7598 0
M  V30 7171 H 662.16 -0.418515 -3.71752 0
M  V30 7172 H 663.493 -0.531067 -4.89327 0
M  V30 7173 N 665.145 1.52092 -0.413018 0
M  V30 7174 C 666.561 1.59471 -0.0640836 0
M  V30 7175 C 666.761 1.42562 1.42402 0
M  V30 7176 O 665.817 1.25453 2.19129 0
M  V30 7177 C 667.13 2.95392 -0.562474 0
M  V30 7178 C 668.678 3.08637 -0.520788 0
M  V30 7179 C 669.153 4.47044 -0.995752 0
M  V30 7180 N 670.644 4.53296 -0.952732 0
M  V30 7181 C 671.379 5.58669 -1.29138 0
M  V30 7182 N 670.875 6.71576 -1.70168 0
M  V30 7183 N 672.668 5.48898 -1.2111 0
M  V30 7184 H 664.819 1.6133 -1.38153 0
M  V30 7185 H 667.082 0.75916 -0.567785 0
M  V30 7186 H 666.788 3.13059 -1.60271 0
M  V30 7187 H 666.662 3.77191 0.0257875 0
M  V30 7188 H 669.049 2.90652 0.510412 0
M  V30 7189 H 669.13 2.28735 -1.14515 0
M  V30 7190 H 668.774 4.65773 -2.0253 0
M  V30 7191 H 668.704 5.25448 -0.348162 0
M  V30 7192 H 671.195 3.72248 -0.651119 0
M  V30 7193 H 671.508 7.47973 -1.9431 0
M  V30 7194 H 669.853 6.72847 -1.74075 0
M  V30 7195 H 673.044 4.59573 -0.889396 0
M  V30 7196 H 673.217 6.30912 -1.47833 0
M  V30 7197 N 666.623 0.143563 1.56945 0
M  V30 7198 C 667.848 -0.518701 2.00809 0
M  V30 7199 C 668.273 -1.5785 1.02298 0
M  V30 7200 O 667.631 -1.813 -0.0017839 0
M  V30 7201 C 667.679 -1.09929 3.43436 0
M  V30 7202 O 666.783 -2.21425 3.47915 0
M  V30 7203 H 666.124 -0.127215 0.6517 0
M  V30 7204 H 668.654 0.239283 2.03196 0
M  V30 7205 H 668.664 -1.4288 3.82164 0
M  V30 7206 H 667.339 -0.323162 4.14643 0
M  V30 7207 H 665.916 -1.89728 3.21026 0
M  V30 7208 N 668.101 -1.57061 -0.130224 0
M  V30 7209 C 669.033 -1.96147 -1.18571 0
M  V30 7210 C 670.046 -0.859347 -1.38272 0
M  V30 7211 O 671.235 -1.13769 -1.37545 0
M  V30 7212 C 668.335 -2.23484 -2.54771 0
M  V30 7213 C 667.508 -3.54786 -2.55824 0
M  V30 7214 C 666.567 -3.70467 -3.73686 0
M  V30 7215 O 665.593 -4.42693 -3.57787 0
M  V30 7216 N 666.795 -3.08389 -4.91809 0
M  V30 7217 H 669.56 -2.87295 -0.853333 0
M  V30 7218 H 667.121 -1.58714 -0.319621 0
M  V30 7219 H 669.113 -2.312 -3.32158 0
M  V30 7220 H 667.683 -1.38518 -2.80235 0
M  V30 7221 H 666.903 -3.5836 -1.64232 0
M  V30 7222 H 668.191 -4.4111 -2.53573 0
M  V30 7223 H 667.589 -2.49656 -5.0763 0
M  V30 7224 H 666.146 -3.21642 -5.66912 0
M  V30 7225 N 669.579 0.400081 -1.52437 0
M  V30 7226 C 670.827 1.14392 -1.6661 0
M  V30 7227 C 671.148 1.90792 -0.402927 0
M  V30 7228 O 670.418 1.87042 0.582425 0
M  V30 7229 H 668.998 0.425275 -0.614125 0
M  V30 7230 H 671.66 0.455076 -1.89513 0
M  V30 7231 H 670.756 1.85298 -2.51139 0
M  V30 7232 N 671.057 1.43213 0.657864 0
M  V30 7233 C 672.305 1.44298 1.41501 0
M  V30 7234 C 672.626 0.0666478 1.94886 0
M  V30 7235 O 671.896 -0.897345 1.74139 0
M  V30 7236 H 670.476 0.531257 0.525143 0
M  V30 7237 H 673.138 1.78777 0.776195 0
M  V30 7238 H 672.234 2.1528 2.25966 0
M  V30 7239 N 672.536 -0.895792 1.29666 0
M  V30 7240 C 673.761 -1.68528 1.20885 0
M  V30 7241 C 674.186 -1.8673 -0.226595 0
M  V30 7242 O 673.544 -1.39044 -1.16347 0
M  V30 7243 C 673.592 -3.04512 1.93144 0
M  V30 7244 O 672.696 -3.92963 1.25115 0
M  V30 7245 H 672.037 -0.515371 0.418675 0
M  V30 7246 H 674.567 -1.11878 1.71302 0
M  V30 7247 H 674.577 -3.54628 2.0175 0
M  V30 7248 H 673.252 -2.90582 2.97548 0
M  V30 7249 H 671.829 -3.51399 1.24794 0
M  V30 7250 N 674.014 -1.12206 -1.10668 0
M  V30 7251 C 674.946 -0.74552 -2.16736 0
M  V30 7252 C 675.959 0.226696 -1.61214 0
M  V30 7253 O 677.148 0.0083936 -1.78498 0
M  V30 7254 C 674.248 -0.0823368 -3.388 0
M  V30 7255 C 673.421 -1.08341 -4.2377 0
M  V30 7256 C 672.48 -0.448292 -5.24287 0
M  V30 7257 O 671.506 -1.10458 -5.58379 0
M  V30 7258 N 672.708 0.785336 -5.75163 0
M  V30 7259 H 675.473 -1.65818 -2.49649 0
M  V30 7260 H 673.034 -1.01335 -1.26265 0
M  V30 7261 H 675.026 0.354476 -4.03145 0
M  V30 7262 H 673.596 0.733041 -3.03884 0
M  V30 7263 H 672.816 -1.69792 -3.55759 0
M  V30 7264 H 674.104 -1.76042 -4.77375 0
M  V30 7265 H 673.502 1.33755 -5.4966 0
M  V30 7266 H 672.059 1.16501 -6.41304 0
M  V30 7267 N 675.492 1.28418 -0.913599 0
M  V30 7268 C 676.74 1.94596 -0.545594 0
M  V30 7269 C 677.061 1.7227 0.913668 0
M  V30 7270 O 676.331 1.06233 1.64595 0
M  V30 7271 H 674.911 0.720065 -0.198783 0
M  V30 7272 H 677.573 1.56404 -1.16292 0
M  V30 7273 H 676.669 3.03202 -0.739911 0
M  V30 7274 N 676.97 0.677563 1.42291 0
M  V30 7275 C 678.386 0.347376 1.55774 0
M  V30 7276 C 678.586 -1.14703 1.65667 0
M  V30 7277 O 677.642 -1.93252 1.62512 0
M  V30 7278 C 678.955 1.08011 2.80631 0
M  V30 7279 C 680.503 1.06271 2.94407 0
M  V30 7280 C 680.978 1.77683 4.22129 0
M  V30 7281 N 682.469 1.74564 4.29047 0
M  V30 7282 C 683.204 2.26673 5.26694 0
M  V30 7283 N 682.7 2.87176 6.30477 0
M  V30 7284 N 684.493 2.17032 5.18511 0
M  V30 7285 H 676.644 1.64703 1.34114 0
M  V30 7286 H 678.907 0.694038 0.645768 0
M  V30 7287 H 678.613 2.13518 2.79469 0
M  V30 7288 H 678.487 0.647115 3.71608 0
M  V30 7289 H 680.874 0.0159658 2.95096 0
M  V30 7290 H 680.955 1.53461 2.04654 0
M  V30 7291 H 680.599 2.82327 4.22201 0
M  V30 7292 H 680.529 1.2794 5.10822 0
M  V30 7293 H 683.02 1.30436 3.54676 0
M  V30 7294 H 683.333 3.24551 7.01346 0
M  V30 7295 H 681.678 2.91247 6.31031 0
M  V30 7296 H 684.869 1.69451 4.36353 0
M  V30 7297 H 685.042 2.57948 5.94446 0
M  V30 7298 N 678.448 -1.51871 0.421078 0
M  V30 7299 C 679.697 -2.01125 -0.152206 0
M  V30 7300 C 680.01 -1.3106 -1.45199 0
M  V30 7301 O 681.216 -1.71195 -2.10724 0
M  V30 7302 C 679.672 -3.58458 -0.3218 0
M  V30 7303 C 679.28 -4.37448 0.96659 0
M  V30 7304 C 681.024 -4.15908 -0.84973 0
M  V30 7305 C 678.931 -5.86451 0.763529 0
M  V30 7306 H 677.861 -0.751556 -0.0606565 0
M  V30 7307 H 680.512 -1.75115 0.548354 0
M  V30 7308 H 678.894 -3.80847 -1.08498 0
M  V30 7309 H 680.068 -4.26814 1.73684 0
M  V30 7310 H 678.383 -3.91373 1.42183 0
M  V30 7311 H 680.98 -5.24922 -1.01788 0
M  V30 7312 H 681.323 -3.74031 -1.82774 0
M  V30 7313 H 681.856 -3.97535 -0.145297 0
M  V30 7314 H 678.595 -6.3271 1.71344 0
M  V30 7315 H 678.115 -5.99791 0.0327889 0
M  V30 7316 H 679.794 -6.45697 0.410354 0
M  V30 7317 N 679.926 -0.151884 -1.56866 0
M  V30 7318 C 681.172 0.498742 -1.96572 0
M  V30 7319 C 681.505 1.64194 -1.03702 0
M  V30 7320 O 680.78 1.94334 -0.0803432 0
M  V30 7321 C 681.063 1.00027 -3.45929 0
M  V30 7322 C 680.916 -0.141767 -4.49577 0
M  V30 7323 C 682.235 1.88044 -3.97904 0
M  V30 7324 H 679.354 0.17982 -0.714726 0
M  V30 7325 H 681.996 -0.234097 -1.88552 0
M  V30 7326 H 680.146 1.62476 -3.52894 0
M  V30 7327 H 681.818 -0.778269 -4.54687 0
M  V30 7328 H 680.061 -0.80019 -4.26356 0
M  V30 7329 H 680.732 0.250947 -5.51429 0
M  V30 7330 H 683.208 1.35416 -3.93449 0
M  V30 7331 H 682.084 2.20043 -5.02864 0
M  V30 7332 H 682.345 2.81916 -3.40552 0
M  V30 7333 N 681.404 1.57128 0.121893 0
M  V30 7334 C 682.354 1.96556 1.15541 0
M  V30 7335 C 683.338 0.840147 1.37224 0
M  V30 7336 O 684.53 1.10382 1.38365 0
M  V30 7337 C 681.659 2.37097 2.48274 0
M  V30 7338 C 680.745 3.56265 2.30078 0
M  V30 7339 N 681.136 4.72041 1.81688 0
M  V30 7340 C 679.434 3.61841 2.60744 0
M  V30 7341 C 680.135 5.54075 1.77132 0
M  V30 7342 N 679.111 4.96483 2.21371 0
M  V30 7343 H 682.913 2.83531 0.77378 0
M  V30 7344 H 680.427 1.59019 0.329672 0
M  V30 7345 H 682.424 2.6356 3.2302 0
M  V30 7346 H 681.084 1.51486 2.87197 0
M  V30 7347 H 682.095 4.95313 1.51278 0
M  V30 7348 H 678.772 2.8683 3.03373 0
M  V30 7349 H 680.162 6.56939 1.40998 0
M  V30 7350 N 682.882 -0.391992 1.52647 0
M  V30 7351 C 683.812 -1.48517 1.8018 0
M  V30 7352 C 684.793 -1.57039 0.653667 0
M  V30 7353 O 685.978 -1.72036 0.900962 0
M  V30 7354 C 683.108 -2.86161 1.96797 0
M  V30 7355 C 682.062 -2.92481 3.12472 0
M  V30 7356 C 681.388 -4.32546 3.14338 0
M  V30 7357 C 682.688 -2.624 4.51601 0
M  V30 7358 H 684.382 -1.25726 2.71723 0
M  V30 7359 H 681.928 -0.603387 1.30749 0
M  V30 7360 H 683.881 -3.62639 2.14641 0
M  V30 7361 H 682.605 -3.10283 1.01941 0
M  V30 7362 H 681.264 -2.18451 2.94406 0
M  V30 7363 H 680.912 -4.53703 2.1717 0
M  V30 7364 H 680.612 -4.37695 3.92042 0
M  V30 7365 H 682.136 -5.10934 3.34333 0
M  V30 7366 H 683.55 -3.28596 4.69785 0
M  V30 7367 H 681.947 -2.78903 5.3135 0
M  V30 7368 H 683.017 -1.57754 4.58521 0
M  V30 7369 N 684.36 -1.4356 -0.65026 0
M  V30 7370 C 685.585 -1.48995 -1.44275 0
M  V30 7371 C 686.01 -0.109954 -1.87778 0
M  V30 7372 O 685.368 0.896926 -1.57559 0
M  V30 7373 C 685.416 -2.44341 -2.65198 0
M  V30 7374 O 684.52 -1.93172 -3.6436 0
M  V30 7375 H 683.861 -0.503852 -0.432469 0
M  V30 7376 H 686.391 -1.88504 -0.795446 0
M  V30 7377 H 686.401 -2.61743 -3.12977 0
M  V30 7378 H 685.076 -3.44588 -2.32877 0
M  V30 7379 H 683.653 -1.85445 -3.23519 0
M  V30 7380 N 685.838 0.888903 -1.30139 0
M  V30 7381 C 686.786 2.0156 -1.16088 0
M  V30 7382 C 687.78 1.69239 -0.0737413 0
M  V30 7383 O 688.986 1.78468 -0.234313 0
M  V30 7384 H 685.361 0.660825 -0.358907 0
M  V30 7385 H 687.332 2.10547 -2.11453 0
M  V30 7386 C 686.081 3.36758 -0.865426 0
M  V30 7387 H 685.404 3.62137 -1.69402 0
M  V30 7388 H 686.844 4.16246 -0.807192 0
M  V30 7389 C 685.303 3.34124 0.431577 0
M  V30 7390 O 685.833 3.7445 1.45431 0
M  V30 7391 N 684.039 2.87229 0.441321 0
M  V30 7392 H 683.586 2.54609 -0.391433 0
M  V30 7393 H 683.544 2.8585 1.30909 0
M  V30 7394 N 687.317 1.12792 1.10072 0
M  V30 7395 C 688.542 0.908838 1.86427 0
M  V30 7396 C 688.967 -0.536793 1.80278 0
M  V30 7397 O 688.325 -1.38033 1.17543 0
M  V30 7398 C 688.373 1.39295 3.3261 0
M  V30 7399 O 687.477 0.573846 4.08388 0
M  V30 7400 H 686.818 0.326234 0.578331 0
M  V30 7401 H 689.348 1.50094 1.39043 0
M  V30 7402 H 689.358 1.39366 3.83459 0
M  V30 7403 H 688.033 2.44555 3.36401 0
M  V30 7404 H 686.61 0.640438 3.67359 0
M  V30 7405 N 688.795 -1.27931 0.920396 0
M  V30 7406 C 690.042 -1.94689 0.557007 0
M  V30 7407 C 690.37 -1.724 -0.900476 0
M  V30 7408 O 689.625 -1.04194 -1.65657 0
M  V30 7409 C 689.924 -3.47853 0.820558 0
M  V30 7410 C 689.59 -3.90252 2.25863 0
M  V30 7411 C 688.252 -4.01539 2.65179 0
M  V30 7412 C 690.604 -4.11853 3.19415 0
M  V30 7413 C 687.932 -4.3181 3.97187 0
M  V30 7414 C 690.284 -4.43606 4.50995 0
M  V30 7415 C 688.948 -4.53105 4.90155 0
M  V30 7416 H 688.218 -0.712416 0.203823 0
M  V30 7417 H 690.865 -1.52142 1.16298 0
M  V30 7418 H 689.17 -3.91578 0.131844 0
M  V30 7419 H 690.867 -3.97634 0.51847 0
M  V30 7420 H 687.457 -3.81999 1.94358 0
M  V30 7421 H 691.641 -4.0258 2.90246 0
M  V30 7422 H 686.897 -4.37371 4.2722 0
M  V30 7423 H 691.071 -4.59268 5.23494 0
M  V30 7424 H 688.698 -4.76315 5.92476 0
M  V30 7425 N 690.273 -0.685099 -1.4193 0
M  V30 7426 C 691.501 -0.220372 -2.05723 0
M  V30 7427 C 691.916 1.12642 -1.51516 0
M  V30 7428 O 691.273 1.70182 -0.659114 0
M  V30 7429 C 691.324 -0.157974 -3.61155 0
M  V30 7430 O 691.045 -1.45156 -4.13354 0
M  V30 7431 C 692.546 0.329009 -4.42077 0
M  V30 7432 H 689.766 -0.104725 -0.662777 0
M  V30 7433 H 692.31 -0.934736 -1.81887 0
M  V30 7434 H 690.465 0.507144 -3.84066 0
M  V30 7435 H 690.879 -1.33172 -5.07312 0
M  V30 7436 H 692.353 0.321559 -5.51063 0
M  V30 7437 H 692.83 1.36608 -4.17414 0
M  V30 7438 H 693.436 -0.304737 -4.24207 0
M  V30 7439 N 691.751 1.51645 -0.429126 0
M  V30 7440 C 692.683 2.25279 0.422124 0
M  V30 7441 C 693.696 1.28986 0.993299 0
M  V30 7442 O 694.885 1.54797 0.888836 0
M  V30 7443 C 691.985 2.98666 1.60162 0
M  V30 7444 C 691.158 4.2199 1.15078 0
M  V30 7445 C 690.217 4.78028 2.19946 0
M  V30 7446 O 689.243 5.40084 1.79716 0
M  V30 7447 N 690.445 4.61342 3.5234 0
M  V30 7448 H 693.21 2.98971 -0.208931 0
M  V30 7449 H 690.771 1.59838 -0.257568 0
M  V30 7450 H 692.763 3.33044 2.29922 0
M  V30 7451 H 691.333 2.28036 2.13818 0
M  V30 7452 H 690.553 3.932 0.280552 0
M  V30 7453 H 691.841 5.02037 0.826831 0
M  V30 7454 H 691.239 4.11894 3.87763 0
M  V30 7455 H 689.796 5.00104 4.18019 0
M  V30 7456 N 693.229 0.160201 1.56784 0
M  V30 7457 C 694.457 -0.494165 2.00912 0
M  V30 7458 C 694.872 -1.57548 1.04038 0
M  V30 7459 O 694.229 -1.82457 0.0394581 0
M  V30 7460 C 694.28 -1.08271 3.44905 0
M  V30 7461 O 694.001 -0.0445704 4.38077 0
M  V30 7462 C 695.502 -1.8164 4.04378 0
M  V30 7463 H 692.722 -0.127498 0.658776 0
M  V30 7464 H 695.266 0.258665 2.02858 0
M  V30 7465 H 693.421 -1.78609 3.4377 0
M  V30 7466 H 693.835 -0.477544 5.22322 0
M  V30 7467 H 695.309 -2.18094 5.07089 0
M  V30 7468 H 695.786 -2.70727 3.45838 0
M  V30 7469 H 696.392 -1.15969 4.09184 0
M  V30 7470 N 694.707 -1.5719 -0.113559 0
M  V30 7471 C 695.953 -1.85412 -0.821597 0
M  V30 7472 C 696.286 -0.746722 -1.7927 0
M  V30 7473 O 695.561 0.246971 -1.92926 0
M  V30 7474 C 695.844 -3.24233 -1.56669 0
M  V30 7475 C 695.697 -4.45578 -0.614823 0
M  V30 7476 C 697.016 -3.60697 -2.52161 0
M  V30 7477 H 694.135 -0.674406 -0.29723 0
M  V30 7478 H 696.777 -1.89807 -0.085694 0
M  V30 7479 H 694.927 -3.20617 -2.19401 0
M  V30 7480 H 696.599 -4.613 0.00407137 0
M  V30 7481 H 694.842 -4.33738 0.0732332 0
M  V30 7482 H 695.513 -5.39395 -1.17292 0
M  V30 7483 H 697.989 -3.65139 -1.99532 0
M  V30 7484 H 696.865 -4.58798 -3.01323 0
M  V30 7485 H 697.126 -2.88403 -3.35076 0
M  V30 7486 N 696.185 0.383891 -1.52853 0
M  V30 7487 C 697.133 1.48965 -1.7864 0
M  V30 7488 C 698.127 1.56242 -0.654577 0
M  V30 7489 O 699.333 1.59347 -0.83716 0
M  V30 7490 H 695.708 0.495892 -0.565328 0
M  V30 7491 H 697.679 1.24411 -2.71228 0
M  V30 7492 C 696.428 2.86036 -1.97683 0
M  V30 7493 H 695.751 2.81188 -2.84206 0
M  V30 7494 H 697.191 3.62632 -2.19713 0
M  V30 7495 C 695.65 3.28428 -0.750776 0
M  V30 7496 O 696.18 4.0164 0.0693491 0
M  V30 7497 N 694.386 2.84765 -0.579427 0
M  V30 7498 H 693.933 2.25353 -1.24795 0
M  V30 7499 H 693.891 3.13486 0.239544 0
M  V30 7500 N 697.663 1.43903 0.642637 0
M  V30 7501 C 698.903 1.47591 1.41408 0
M  V30 7502 C 699.267 0.101313 1.91733 0
M  V30 7503 O 700.468 0.0128797 2.68797 0
M  V30 7504 C 698.739 2.4977 2.55636 0
M  V30 7505 S 700.298 2.72417 3.43998 0
M  V30 7506 H 697.116 0.522163 0.482563 0
M  V30 7507 H 699.718 1.80745 0.745085 0
M  V30 7508 H 698.422 3.48365 2.16956 0
M  V30 7509 H 697.953 2.1815 3.27375 0
M  V30 7510 H 699.968 2.03142 4.52712 0
M  V30 7511 N 699.141 -0.881989 1.30609 0
M  V30 7512 C 700.557 -1.16576 1.09005 0
M  V30 7513 C 700.757 -2.00961 -0.14727 0
M  V30 7514 O 699.813 -2.38117 -0.840036 0
M  V30 7515 C 701.126 -1.86954 2.35518 0
M  V30 7516 C 702.674 -1.99706 2.41011 0
M  V30 7517 C 703.149 -2.73497 3.67374 0
M  V30 7518 N 704.64 -2.8104 3.68199 0
M  V30 7519 C 705.375 -3.38718 4.62664 0
M  V30 7520 N 704.871 -3.97421 5.67475 0
M  V30 7521 N 706.664 -3.36561 4.50203 0
M  V30 7522 H 698.815 -0.319398 2.09985 0
M  V30 7523 H 701.078 -0.204058 0.925778 0
M  V30 7524 H 700.784 -1.32393 3.2583 0
M  V30 7525 H 700.658 -2.87317 2.44395 0
M  V30 7526 H 703.045 -2.53436 1.51176 0
M  V30 7527 H 703.126 -0.984218 2.36108 0
M  V30 7528 H 702.77 -2.20438 4.57569 0
M  V30 7529 H 702.7 -3.75163 3.6954 0
M  V30 7530 H 705.191 -2.39365 2.92426 0
M  V30 7531 H 705.504 -4.39507 6.35652 0
M  V30 7532 H 703.849 -3.95832 5.71264 0
M  V30 7533 H 707.04 -2.8993 3.67503 0
M  V30 7534 H 707.213 -3.81215 5.24003 0
M  V30 7535 N 700.619 -1.13374 -1.09472 0
M  V30 7536 C 701.566 -0.810682 -2.16094 0
M  V30 7537 C 702.536 0.227003 -1.64541 0
M  V30 7538 O 703.721 0.0993538 -1.90541 0
M  V30 7539 C 700.861 -0.282336 -3.43943 0
M  V30 7540 C 699.974 -1.37902 -4.09398 0
M  V30 7541 C 699.109 -0.809066 -5.25002 0
M  V30 7542 C 698.148 -1.88419 -5.82379 0
M  V30 7543 N 697.285 -1.33221 -6.89345 0
M  V30 7544 H 702.125 -1.72397 -2.43071 0
M  V30 7545 H 699.662 -0.860564 -1.19301 0
M  V30 7546 H 701.62 0.0421189 -4.17179 0
M  V30 7547 H 700.25 0.594083 -3.17286 0
M  V30 7548 H 699.302 -1.82008 -3.34032 0
M  V30 7549 H 700.614 -2.19161 -4.48074 0
M  V30 7550 H 699.768 -0.435867 -6.05132 0
M  V30 7551 H 698.507 0.0346058 -4.87688 0
M  V30 7552 H 697.512 -2.26646 -5.00911 0
M  V30 7553 H 698.737 -2.73125 -6.21755 0
M  V30 7554 H 696.683 -0.510535 -6.5401 0
M  V30 7555 H 696.6 -2.08129 -7.26786 0
M  V30 7556 H 697.868 -0.986565 -7.73232 0
M  V30 7557 N 702.098 1.27442 -0.927168 0
M  V30 7558 C 703.509 1.76385 -0.611979 0
M  V30 7559 C 703.86 1.75715 0.872853 0
M  V30 7560 O 702.985 1.3603 1.683 0
M  V30 7561 C 703.58 3.20303 -1.10414 0
M  V30 7562 C 702.139 3.66916 -0.839628 0
M  V30 7563 C 701.286 2.46859 -1.26317 0
M  V30 7564 H 704.237 1.13716 -1.107 0
M  V30 7565 H 704.258 3.77811 -0.451578 0
M  V30 7566 H 703.77 3.20759 -2.18484 0
M  V30 7567 H 701.871 3.71906 0.227292 0
M  V30 7568 H 701.984 4.56415 -1.45679 0
M  V30 7569 H 700.348 2.45407 -0.681723 0
M  V30 7570 H 701.131 2.50025 -2.3525 0
M  V30 7571 N 703.576 0.692616 1.41565 0
M  V30 7572 C 704.823 0.222335 2.01276 0
M  V30 7573 C 705.151 -1.17706 1.5484 0
M  V30 7574 O 704.406 -1.80795 0.749118 0
M  V30 7575 C 704.705 0.225073 3.56691 0
M  V30 7576 C 704.371 1.57158 4.22625 0
M  V30 7577 C 703.033 1.94022 4.40351 0
M  V30 7578 C 705.385 2.45758 4.59622 0
M  V30 7579 C 702.713 3.19076 4.92349 0
M  V30 7580 C 705.065 3.70141 5.13009 0
M  V30 7581 C 703.729 4.07152 5.28946 0
M  V30 7582 H 702.999 0.0813581 0.73652 0
M  V30 7583 H 705.646 0.891123 1.69503 0
M  V30 7584 H 703.951 -0.527259 3.88236 0
M  V30 7585 H 705.648 -0.156283 4.00695 0
M  V30 7586 H 702.238 1.27486 4.09201 0
M  V30 7587 H 706.422 2.18558 4.45585 0
M  V30 7588 H 701.678 3.4775 5.02872 0
M  V30 7589 H 705.852 4.38983 5.40617 0
M  V30 7590 H 703.479 5.04125 5.69001 0
M  V30 7591 N 705.054 -1.51416 0.437162 0
M  V30 7592 C 706.301 -2.02086 -0.129364 0
M  V30 7593 C 706.629 -1.32133 -1.42728 0
M  V30 7594 O 705.884 -0.424916 -1.91031 0
M  V30 7595 C 706.183 -3.55203 -0.39564 0
M  V30 7596 C 705.849 -4.43447 0.81644 0
M  V30 7597 C 704.511 -4.67285 1.14884 0
M  V30 7598 C 706.863 -4.95219 1.62503 0
M  V30 7599 C 704.191 -5.40141 2.29052 0
M  V30 7600 C 706.543 -5.69327 2.7577 0
M  V30 7601 C 705.207 -5.91429 3.09464 0
M  V30 7602 H 704.477 -0.739486 -0.0473375 0
M  V30 7603 H 707.124 -1.82368 0.584321 0
M  V30 7604 H 705.429 -3.73252 -1.19121 0
M  V30 7605 H 707.126 -3.91944 -0.847399 0
M  V30 7606 H 703.716 -4.2509 0.547422 0
M  V30 7607 H 707.9 -4.76686 1.38144 0
M  V30 7608 H 703.156 -5.55468 2.55471 0
M  V30 7609 H 707.33 -6.08433 3.38795 0
M  V30 7610 H 704.957 -6.47662 3.98042 0
M  V30 7611 N 706.532 -0.168513 -1.56696 0
M  V30 7612 C 707.757 0.486688 -2.01609 0
M  V30 7613 C 708.182 1.56203 -1.04796 0
M  V30 7614 O 707.54 1.8128 -0.0270596 0
M  V30 7615 C 707.588 1.04451 -3.45141 0
M  V30 7616 O 706.692 2.15862 -3.51393 0
M  V30 7617 H 706.033 0.116831 -0.653641 0
M  V30 7618 H 708.563 -0.271579 -2.0279 0
M  V30 7619 H 708.573 1.36782 -3.84389 0
M  V30 7620 H 707.248 0.257155 -4.15104 0
M  V30 7621 H 705.825 1.84597 -3.24004 0
M  V30 7622 N 708.01 1.57248 0.105221 0
M  V30 7623 C 709.235 1.90143 0.828264 0
M  V30 7624 C 709.66 0.761811 1.71983 0
M  V30 7625 O 709.018 -0.287086 1.79013 0
M  V30 7626 C 709.066 3.21856 1.62608 0
M  V30 7627 O 708.17 3.08732 2.7342 0
M  V30 7628 H 707.511 0.623558 0.228192 0
M  V30 7629 H 710.041 2.0443 0.0834826 0
M  V30 7630 H 710.051 3.54916 2.01243 0
M  V30 7631 H 708.726 4.0439 0.971687 0
M  V30 7632 H 707.303 2.87167 2.37886 0
M  V30 7633 N 709.488 -0.375779 1.53054 0
M  V30 7634 C 710.734 -1.11767 1.6994 0
M  V30 7635 C 711.089 -1.87288 0.440574 0
M  V30 7636 O 710.382 -1.83045 -0.566146 0
M  V30 7637 C 710.576 -2.11356 2.88207 0
M  V30 7638 C 710.405 -1.45619 4.25471 0
M  V30 7639 C 709.175 -1.21464 4.90484 0
M  V30 7640 C 711.373 -0.899276 5.06377 0
M  V30 7641 N 709.355 -0.519705 6.11696 0
M  V30 7642 C 710.726 -0.333138 6.19104 0
M  V30 7643 C 712.781 -0.79697 4.9148 0
M  V30 7644 C 711.484 0.325316 7.18564 0
M  V30 7645 C 713.51 -0.152315 5.91204 0
M  V30 7646 C 712.872 0.402994 7.03246 0
M  V30 7647 H 708.971 -0.394489 0.675206 0
M  V30 7648 H 711.555 -0.40541 1.90432 0
M  V30 7649 H 709.726 -2.79905 2.69272 0
M  V30 7650 H 711.458 -2.78148 2.93966 0
M  V30 7651 H 708.213 -1.49319 4.49445 0
M  V30 7652 H 708.637 -0.187896 6.76739 0
M  V30 7653 H 713.279 -1.21208 4.05054 0
M  V30 7654 H 710.997 0.752399 8.0459 0
M  V30 7655 H 714.583 -0.074223 5.81753 0
M  V30 7656 H 713.463 0.89394 7.79088 0
M  V30 7657 O 711.005 -1.5284 -0.521743 0
M  V30 7658 H 711.696 -1.53854 -1.17681 0
M  V30 END ATOM
M  V30 BEGIN BOND
M  V30 END BOND
M  V30 END CTAB
M  END
$$$$
