drugbank_target|P06875 Penicillin G acylase (DB01702; DB07331; DB08193; DB08327; DB08559)
 OpenBabel12092120413D

  0  0  0     0  0            999 V3000
M  V30 BEGIN CTAB
M  V30 COUNTS 13162 13344 0 0 0
M  V30 BEGIN ATOM
M  V30 1 H -0.908 1.98254 -0.117106 0
M  V30 2 N 0 1.576 0 0
M  V30 3 C 0.933 2.03868 1.02534 0
M  V30 4 C 1.911 0.928543 1.3348 0
M  V30 5 O 3.095 1.19667 1.45644 0
M  V30 6 C 0.222 2.43627 2.35294 0
M  V30 7 C -0.732 3.65373 2.2001 0
M  V30 8 S 0.101 5.13292 1.52614 0
M  V30 9 C 1.257 5.56322 2.86805 0
M  V30 10 H 1.49 2.90518 0.631377 0
M  V30 11 H -0.977 1.52953 0.210867 0
M  V30 12 H 0.981 2.67203 3.11629 0
M  V30 13 H -0.358 1.57376 2.7183 0
M  V30 14 H -1.165 3.90944 3.18086 0
M  V30 15 H -1.563 3.418 1.51819 0
M  V30 16 H 0.729 5.58782 3.83104 0
M  V30 17 H 1.672 6.56266 2.65933 0
M  V30 18 H 2.08 4.83886 2.90714 0
M  V30 19 N 1.4781 -0.272755 1.55222 0
M  V30 20 C 2.4251 -1.33716 1.88119 0
M  V30 21 C 3.3951 -1.49066 0.73271 0
M  V30 22 O 4.5801 -1.63469 0.984002 0
M  V30 23 C 1.7201 -2.69238 2.15882 0
M  V30 24 C 0.8331 -2.62108 3.43399 0
M  V30 25 C -0.0319 -3.89811 3.60861 0
M  V30 26 C -0.9929 -3.77193 4.8207 0
M  V30 27 N -1.8559 -4.9673 4.96189 0
M  V30 28 H 2.9841 -1.04962 2.78903 0
M  V30 29 H 0.5211 -0.507088 1.38083 0
M  V30 30 H 2.4791 -3.48089 2.29978 0
M  V30 31 H 1.1091 -2.96194 1.28331 0
M  V30 32 H 0.1611 -1.74967 3.37773 0
M  V30 33 H 1.4731 -2.48685 4.32386 0
M  V30 34 H 0.6271 -4.77103 3.74777 0
M  V30 35 H -0.6339 -4.06102 2.7006 0
M  V30 36 H -1.6289 -2.88284 4.68159 0
M  V30 37 H -0.4039 -3.62421 5.74307 0
M  V30 38 H -2.4579 -5.13431 4.08319 0
M  V30 39 H -2.5409 -4.85839 5.79221 0
M  V30 40 H -1.2729 -5.85594 5.1449 0
M  V30 41 N 2.9562 -1.48159 -0.537278 0
M  V30 42 C 3.9042 -1.62573 -1.66352 0
M  V30 43 C 4.8982 -0.492366 -1.62087 0
M  V30 44 O 6.1042 -0.670847 -1.67032 0
M  V30 45 H 2.4792 -0.511992 -0.550789 0
M  V30 46 H 4.4502 -2.57176 -1.51337 0
M  V30 47 C 3.1992 -1.67583 -3.04649 0
M  V30 48 H 2.5222 -2.54151 -3.08622 0
M  V30 49 H 3.9622 -1.81713 -3.83088 0
M  V30 50 C 2.4212 -0.413039 -3.34358 0
M  V30 51 O 2.9512 0.477259 -3.98855 0
M  V30 52 N 1.1572 -0.286961 -2.8918 0
M  V30 53 H 0.7042 -1.01241 -2.36871 0
M  V30 54 H 0.6622 0.556963 -3.09427 0
M  V30 55 N 4.4343 0.785586 -1.36625 0
M  V30 56 C 5.8503 1.08419 -1.17122 0
M  V30 57 C 6.0503 2.015 0.00208491 0
M  V30 58 O 5.1063 2.43551 0.666278 0
M  V30 59 C 6.4193 1.69498 -2.48377 0
M  V30 60 C 7.9673 1.81821 -2.54775 0
M  V30 61 C 8.4423 2.46315 -3.86126 0
M  V30 62 N 9.9333 2.53779 -3.87492 0
M  V30 63 C 10.6683 3.045 -4.85868 0
M  V30 64 N 10.1643 3.55499 -5.94637 0
M  V30 65 N 11.9573 3.03247 -4.73284 0
M  V30 66 H 4.1083 0.167264 -2.1174 0
M  V30 67 H 6.3713 0.13682 -0.938075 0
M  V30 68 H 6.0773 1.08571 -3.34522 0
M  V30 69 H 5.9513 2.6896 -2.64462 0
M  V30 70 H 8.3383 2.41884 -1.69045 0
M  V30 71 H 8.4193 0.811532 -2.42586 0
M  V30 72 H 8.0633 1.86895 -4.72263 0
M  V30 73 H 7.9933 3.47561 -3.95612 0
M  V30 74 H 10.4843 2.17672 -3.08913 0
M  V30 75 H 10.7973 3.92562 -6.65669 0
M  V30 76 H 9.1423 3.5364 -5.98301 0
M  V30 77 H 12.3333 2.62696 -3.87438 0
M  V30 78 H 12.5063 3.42467 -5.50109 0
M  V30 79 N 5.9124 1.20967 1.01018 0
M  V30 80 C 6.8604 0.961223 2.1181 0
M  V30 81 C 7.8544 -0.0897034 1.69162 0
M  V30 82 O 9.0604 0.0612271 1.79896 0
M  V30 83 H 5.4354 0.29355 0.692338 0
M  V30 84 H 7.4064 1.90178 2.29946 0
M  V30 85 C 6.1554 0.536854 3.4353 0
M  V30 86 H 5.4784 1.33713 3.76777 0
M  V30 87 H 6.9184 0.402286 4.22087 0
M  V30 88 C 5.3774 -0.751574 3.2841 0
M  V30 89 O 5.9074 -1.80841 3.58691 0
M  V30 90 N 4.1134 -0.716079 2.81639 0
M  V30 91 H 3.6604 0.144236 2.57196 0
M  V30 92 H 3.6184 -1.57847 2.71904 0
M  V30 93 N 7.3905 -1.2043 1.01659 0
M  V30 94 C 8.8065 -1.41852 0.731442 0
M  V30 95 C 9.0065 -1.89358 -0.688898 0
M  V30 96 O 8.0625 -2.06247 -1.45666 0
M  V30 97 C 9.3755 -2.44019 1.75714 0
M  V30 98 C 10.9235 -2.57785 1.77527 0
M  V30 99 C 11.3985 -3.63194 2.79023 0
M  V30 100 N 12.8895 -3.70678 2.77763 0
M  V30 101 C 13.6245 -4.51897 3.52954 0
M  V30 102 N 13.1205 -5.36921 4.37821 0
M  V30 103 N 14.9135 -4.4643 3.41551 0
M  V30 104 H 7.0645 -0.879093 1.93354 0
M  V30 105 H 9.3275 -0.448425 0.835236 0
M  V30 106 H 9.0335 -2.1611 2.77469 0
M  V30 107 H 8.9075 -3.43007 1.56927 0
M  V30 108 H 11.2945 -2.85023 0.764569 0
M  V30 109 H 11.3755 -1.58992 2.00387 0
M  V30 110 H 11.0195 -3.36699 3.80258 0
M  V30 111 H 10.9495 -4.61609 2.53425 0
M  V30 112 H 13.4405 -3.09944 2.16201 0
M  V30 113 H 13.7535 -5.95981 4.91962 0
M  V30 114 H 12.0985 -5.36424 4.41899 0
M  V30 115 H 15.2895 -3.79042 2.74672 0
M  V30 116 H 15.4625 -5.09491 4.00404 0
M  V30 117 N 8.8686 -0.792821 -1.36206 0
M  V30 118 C 9.8016 -0.139422 -2.27774 0
M  V30 119 C 10.7796 0.68649 -1.47398 0
M  V30 120 O 11.9636 0.656738 -1.7669 0
M  V30 121 C 9.0906 0.807947 -3.28922 0
M  V30 122 C 8.1366 0.0633999 -4.26453 0
M  V30 123 S 8.9696 -1.26319 -5.20388 0
M  V30 124 C 10.1256 -0.31991 -6.25082 0
M  V30 125 H 10.3586 -0.915809 -2.82843 0
M  V30 126 H 7.8916 -0.587203 -1.42798 0
M  V30 127 H 9.8496 1.34908 -3.87699 0
M  V30 128 H 8.5106 1.55761 -2.72759 0
M  V30 129 H 7.7036 0.782386 -4.9789 0
M  V30 130 H 7.3056 -0.407352 -3.71775 0
M  V30 131 H 9.5976 0.499985 -6.75653 0
M  V30 132 H 10.5406 -1.00307 -7.00959 0
M  V30 133 H 10.9486 0.0782694 -5.64446 0
M  V30 134 N 10.3467 1.47872 -0.545128 0
M  V30 135 C 11.5957 2.01695 -0.0145033 0
M  V30 136 C 11.9087 1.42609 1.33873 0
M  V30 137 O 13.1147 1.88021 1.95858 0
M  V30 138 C 11.5707 3.59892 0.0245068 0
M  V30 139 C 11.1787 4.27966 -1.32475 0
M  V30 140 C 12.9227 4.21507 0.50316 0
M  V30 141 C 10.8297 5.78136 -1.2455 0
M  V30 142 H 9.7597 0.753998 -0.00165172 0
M  V30 143 H 12.4107 1.69985 -0.691175 0
M  V30 144 H 10.7927 3.88509 0.766575 0
M  V30 145 H 11.9667 4.11003 -2.08357 0
M  V30 146 H 10.2817 3.78286 -1.74036 0
M  V30 147 H 12.8787 5.31538 0.580656 0
M  V30 148 H 13.2217 3.87855 1.51243 0
M  V30 149 H 13.7547 3.97376 -0.183681 0
M  V30 150 H 10.4937 6.16388 -2.23039 0
M  V30 151 H 10.0137 5.97469 -0.528282 0
M  V30 152 H 11.6927 6.40099 -0.942488 0
M  V30 153 N 11.8248 0.280983 1.55075 0
M  V30 154 C 13.0708 -0.33461 2.00021 0
M  V30 155 C 13.4038 -1.55063 1.16915 0
M  V30 156 O 12.6788 -1.93006 0.240646 0
M  V30 157 C 12.9618 -0.711007 3.53011 0
M  V30 158 C 12.8148 0.512766 4.46868 0
M  V30 159 C 14.1338 -1.54522 4.12081 0
M  V30 160 H 11.2528 -0.120147 0.727141 0
M  V30 161 H 13.8948 0.389097 1.85973 0
M  V30 162 H 12.0448 -1.32761 3.65112 0
M  V30 163 H 13.7168 1.15131 4.46702 0
M  V30 164 H 11.9598 1.14975 4.18286 0
M  V30 165 H 12.6308 0.205556 5.51617 0
M  V30 166 H 15.1068 -1.02442 4.03293 0
M  V30 167 H 13.9828 -1.77739 5.19327 0
M  V30 168 H 14.2438 -2.52813 3.62682 0
M  V30 169 N 13.3029 -1.57598 0.00835791 0
M  V30 170 C 14.2509 -2.10078 -0.998508 0
M  V30 171 C 15.2449 -1.02262 -1.35051 0
M  V30 172 O 16.4509 -1.20719 -1.33518 0
M  V30 173 H 12.8259 -0.670903 -0.339696 0
M  V30 174 H 14.7969 -2.93648 -0.530398 0
M  V30 175 C 13.5459 -2.62615 -2.27879 0
M  V30 176 H 12.8689 -3.45213 -2.01662 0
M  V30 177 H 14.3089 -3.03004 -2.96588 0
M  V30 178 C 12.7679 -1.54407 -2.99433 0
M  V30 179 O 13.2979 -0.931812 -3.90743 0
M  V30 180 N 11.5039 -1.2695 -2.61404 0
M  V30 181 H 11.0509 -1.76924 -1.87232 0
M  V30 182 H 11.0089 -0.547704 -3.09593 0
M  V30 183 N 14.781 0.264519 -1.55364 0
M  V30 184 C 16.021 1.00254 -1.78125 0
M  V30 185 C 16.385 1.83187 -0.575017 0
M  V30 186 O 17.586 2.60029 -0.681042 0
M  V30 187 C 15.857 1.85478 -3.05504 0
M  V30 188 S 17.416 2.6543 -3.49417 0
M  V30 189 H 14.234 0.337522 -0.625779 0
M  V30 190 H 16.836 0.272111 -1.93597 0
M  V30 191 H 15.54 1.23491 -3.9138 0
M  V30 192 H 15.071 2.62827 -2.92721 0
M  V30 193 H 17.086 3.87958 -3.09359 0
M  V30 194 N 16.2591 1.48442 0.529413 0
M  V30 195 C 17.5051 1.5672 1.28711 0
M  V30 196 C 17.8381 0.2406 1.92704 0
M  V30 197 O 17.1131 -0.753454 1.79313 0
M  V30 198 C 17.3961 2.70587 2.37603 0
M  V30 199 C 17.2491 4.12953 1.78297 0
M  V30 200 C 18.5681 2.80212 3.39366 0
M  V30 201 H 15.6871 0.570474 0.466613 0
M  V30 202 H 18.3291 1.80617 0.589706 0
M  V30 203 H 16.4791 2.50342 2.97088 0
M  V30 204 H 18.1511 4.44639 1.22858 0
M  V30 205 H 16.3941 4.19927 1.0883 0
M  V30 206 H 17.0651 4.88448 2.57144 0
M  V30 207 H 19.5411 2.98553 2.89836 0
M  V30 208 H 18.4171 3.61611 4.12951 0
M  V30 209 H 18.6781 1.88393 3.99951 0
M  V30 210 N 17.7372 -0.778329 1.37039 0
M  V30 211 C 18.9652 -1.56734 1.35063 0
M  V30 212 C 19.3802 -1.88686 -0.0655597 0
M  V30 213 O 18.7372 -1.5096 -1.02554 0
M  V30 214 C 18.7882 -2.88163 2.18276 0
M  V30 215 O 18.5092 -2.57583 3.54376 0
M  V30 216 C 20.0102 -3.82422 2.24206 0
M  V30 217 H 17.2302 -0.485778 0.462883 0
M  V30 218 H 19.7742 -0.965185 1.8029 0
M  V30 219 H 17.9292 -3.44818 1.76576 0
M  V30 220 H 18.3432 -3.41699 3.97922 0
M  V30 221 H 19.8172 -4.71667 2.86765 0
M  V30 222 H 20.2942 -4.21078 1.24861 0
M  V30 223 H 20.9002 -3.31697 2.6619 0
M  V30 224 N 19.2153 -1.21501 -1.00376 0
M  V30 225 C 20.1783 -0.976927 -2.07337 0
M  V30 226 C 21.1783 0.0525322 -1.60714 0
M  V30 227 O 22.3683 -0.184869 -1.73216 0
M  V30 228 C 19.5003 -0.473423 -3.37597 0
M  V30 229 H 20.6933 -1.92587 -2.29892 0
M  V30 230 H 18.2463 -1.03217 -1.17371 0
M  V30 231 H 18.9813 0.480379 -3.20722 0
M  V30 232 H 18.7663 -1.216 -3.72768 0
M  V30 233 H 20.2563 -0.32675 -4.1632 0
M  V30 234 N 20.6934 1.19889 -1.02296 0
M  V30 235 C 21.9184 1.9393 -0.735237 0
M  V30 236 C 22.3434 1.74639 0.698782 0
M  V30 237 O 21.7014 1.04481 1.48167 0
M  V30 238 C 21.7494 3.43916 -1.08417 0
M  V30 239 O 20.8534 4.11917 -0.199446 0
M  V30 240 H 20.1944 0.605645 -0.272196 0
M  V30 241 H 22.7244 1.52137 -1.36804 0
M  V30 242 H 22.7344 3.9456 -1.03856 0
M  V30 243 H 21.4094 3.5728 -2.12894 0
M  V30 244 H 19.9864 3.71666 -0.303136 0
M  V30 245 N 22.1715 0.800033 1.35784 0
M  V30 246 C 23.1015 0.220184 2.3246 0
M  V30 247 C 24.0825 -0.65073 1.57161 0
M  V30 248 O 25.2675 -0.582359 1.85263 0
M  V30 249 C 22.3975 -0.637353 3.41402 0
M  V30 250 C 21.3515 0.134531 4.27789 0
M  V30 251 C 20.6775 -0.844285 5.27992 0
M  V30 252 C 21.9775 1.32979 5.05088 0
M  V30 253 H 23.6715 1.02787 2.81203 0
M  V30 254 H 21.2175 0.495717 1.35199 0
M  V30 255 H 23.1705 -1.05302 4.08031 0
M  V30 256 H 21.8945 -1.47785 2.91251 0
M  V30 257 H 20.5535 0.531296 3.6273 0
M  V30 258 H 20.2015 -1.68011 4.74111 0
M  V30 259 H 19.9015 -0.332184 5.8666 0
M  V30 260 H 21.4255 -1.2583 5.97494 0
M  V30 261 H 22.8395 0.98934 5.64699 0
M  V30 262 H 21.2365 1.77593 5.7322 0
M  V30 263 H 22.3065 2.11978 4.36111 0
M  V30 264 N 23.6496 -1.47581 0.552962 0
M  V30 265 C 24.5826 -2.26883 -0.244857 0
M  V30 266 C 25.5606 -1.33784 -0.924147 0
M  V30 267 O 26.7446 -1.6316 -0.943981 0
M  V30 268 C 23.8716 -3.10695 -1.34856 0
M  V30 269 C 22.9176 -4.19339 -0.778268 0
M  V30 270 S 23.7506 -5.34207 0.37184 0
M  V30 271 C 24.9066 -6.21584 -0.733779 0
M  V30 272 H 25.1396 -2.94202 0.428087 0
M  V30 273 H 22.6726 -1.50628 0.339197 0
M  V30 274 H 24.6306 -3.59555 -1.98066 0
M  V30 275 H 23.2916 -2.42746 -1.99332 0
M  V30 276 H 22.4846 -4.77695 -1.60696 0
M  V30 277 H 22.0866 -3.73338 -0.222422 0
M  V30 278 H 24.3786 -6.57676 -1.62692 0
M  V30 279 H 25.3216 -7.07851 -0.187668 0
M  V30 280 H 25.7296 -5.55125 -1.02454 0
M  V30 281 N 25.1277 -0.289203 -1.54924 0
M  V30 282 C 26.3577 0.325989 -2.04012 0
M  V30 283 C 26.7657 1.48961 -1.1665 0
M  V30 284 O 26.1087 1.82794 -0.1822 0
M  V30 285 C 26.1707 0.856112 -3.49158 0
M  V30 286 C 25.8347 -0.180697 -4.56643 0
M  V30 287 C 26.8317 -1.0051 -5.10092 0
M  V30 288 C 24.5167 -0.318998 -5.01286 0
M  V30 289 C 26.5107 -1.95385 -6.06715 0
M  V30 290 C 24.1977 -1.27121 -5.97732 0
M  V30 291 C 25.1957 -2.08713 -6.50329 0
M  V30 292 O 24.8837 -3.02322 -7.44887 0
M  V30 293 H 24.6157 0.0765276 -0.671654 0
M  V30 294 H 27.1697 -0.423254 -2.00992 0
M  V30 295 H 25.3997 1.65567 -3.49463 0
M  V30 296 H 27.0887 1.38591 -3.81507 0
M  V30 297 H 27.8547 -0.90906 -4.76404 0
M  V30 298 H 23.7337 0.306108 -4.59983 0
M  V30 299 H 27.2777 -2.59111 -6.47694 0
M  V30 300 H 23.1747 -1.36801 -6.30837 0
M  V30 301 H 23.9427 -2.97165 -7.6265 0
M  V30 302 N 26.6058 1.57591 -0.0167156 0
M  V30 303 C 27.8358 1.95292 0.674149 0
M  V30 304 C 28.2438 0.891097 1.66901 0
M  V30 305 O 27.5868 -0.136908 1.83189 0
M  V30 306 C 27.6488 3.29072 1.44747 0
M  V30 307 C 27.3128 4.52879 0.612331 0
M  V30 308 C 28.3098 5.1979 -0.107126 0
M  V30 309 C 25.9948 4.99242 0.553381 0
M  V30 310 C 27.9888 6.31375 -0.874339 0
M  V30 311 C 25.6758 6.10713 -0.217546 0
M  V30 312 C 26.6738 6.76637 -0.930123 0
M  V30 313 O 26.3618 7.85969 -1.68844 0
M  V30 314 H 26.0938 0.648275 0.191615 0
M  V30 315 H 28.6478 2.05284 -0.0690148 0
M  V30 316 H 26.8778 3.15535 2.2355 0
M  V30 317 H 28.5668 3.51764 2.02526 0
M  V30 318 H 29.3328 4.84948 -0.0708392 0
M  V30 319 H 25.2118 4.47744 1.09757 0
M  V30 320 H 28.7558 6.82764 -1.43106 0
M  V30 321 H 24.6528 6.44994 -0.255593 0
M  V30 322 H 25.4208 8.02571 -1.6069 0
M  V30 323 N 28.0839 -0.256276 1.55502 0
M  V30 324 C 29.3299 -0.982884 1.78076 0
M  V30 325 C 29.6849 -1.83319 0.584109 0
M  V30 326 O 28.9779 -1.86875 -0.422877 0
M  V30 327 C 29.1719 -1.88432 3.03691 0
M  V30 328 C 29.0009 -1.12276 4.35459 0
M  V30 329 C 27.7709 -0.831647 4.98409 0
M  V30 330 C 29.9689 -0.504933 5.11815 0
M  V30 331 N 27.9509 -0.0450423 6.13883 0
M  V30 332 C 29.3219 0.146696 6.19826 0
M  V30 333 C 31.3769 -0.414455 4.96172 0
M  V30 334 C 30.0799 0.880103 7.13895 0
M  V30 335 C 32.1059 0.305398 5.90611 0
M  V30 336 C 31.4679 0.945701 6.98023 0
M  V30 337 H 27.5669 -0.341084 0.703694 0
M  V30 338 H 30.1509 -0.256909 1.92998 0
M  V30 339 H 28.3219 -2.58241 2.90114 0
M  V30 340 H 30.0539 -2.54579 3.14598 0
M  V30 341 H 26.8089 -1.14111 4.59647 0
M  V30 342 H 27.2329 0.336079 6.76165 0
M  V30 343 H 31.8749 -0.895163 4.13215 0
M  V30 344 H 29.5929 1.37244 7.9636 0
M  V30 345 H 33.1789 0.375946 5.80584 0
M  V30 346 H 32.0589 1.49383 7.6984 0
M  V30 347 N 29.562 -1.4872 -0.521534 0
M  V30 348 C 30.787 -1.61101 -1.30618 0
M  V30 349 C 31.212 -0.274611 -1.86085 0
M  V30 350 O 30.57 0.754937 -1.64834 0
M  V30 351 C 30.618 -2.66709 -2.4269 0
M  V30 352 O 29.722 -2.24456 -3.45967 0
M  V30 353 H 29.063 -0.539921 -0.386499 0
M  V30 354 H 31.593 -1.94767 -0.626645 0
M  V30 355 H 31.603 -2.88245 -2.88754 0
M  V30 356 H 30.278 -3.63727 -2.01682 0
M  V30 357 H 28.855 -2.13168 -3.05964 0
M  V30 358 N 31.0401 0.771051 -1.3745 0
M  V30 359 C 31.9701 1.89827 -1.3597 0
M  V30 360 C 32.9511 1.68562 -0.228216 0
M  V30 361 O 34.1361 1.8941 -0.428675 0
M  V30 362 C 31.2661 3.2712 -1.16662 0
M  V30 363 C 30.2201 3.6295 -2.2683 0
M  V30 364 C 29.5461 4.98791 -1.92644 0
M  V30 365 C 30.8461 3.69627 -3.69017 0
M  V30 366 H 32.5401 1.91323 -2.30295 0
M  V30 367 H 30.0861 0.919082 -1.10855 0
M  V30 368 H 32.0391 4.05615 -1.14256 0
M  V30 369 H 30.7631 3.26059 -0.187926 0
M  V30 370 H 29.4221 2.86763 -2.28392 0
M  V30 371 H 29.0701 4.94271 -0.933021 0
M  V30 372 H 28.7701 5.23733 -2.66416 0
M  V30 373 H 30.2941 5.79685 -1.91826 0
M  V30 374 H 31.7081 4.38273 -3.69581 0
M  V30 375 H 30.1051 4.06067 -4.41848 0
M  V30 376 H 31.1751 2.70273 -4.02592 0
M  V30 377 N 32.5182 1.22032 0.997298 0
M  V30 378 C 33.9292 1.0397 1.55071 0
M  V30 379 C 34.2802 -0.398192 1.92117 0
M  V30 380 O 33.4052 -1.28254 1.74298 0
M  V30 381 C 34.0002 1.88109 2.81781 0
M  V30 382 C 32.5592 1.74357 3.33581 0
M  V30 383 C 31.7062 1.84846 2.06706 0
M  V30 384 H 34.6572 1.35941 0.818883 0
M  V30 385 H 34.6782 1.39589 3.53971 0
M  V30 386 H 34.1902 2.92754 2.54787 0
M  V30 387 H 32.2912 0.72427 3.65493 0
M  V30 388 H 32.4042 2.56772 4.04481 0
M  V30 389 H 30.7682 1.28238 2.20062 0
M  V30 390 H 31.5512 2.91014 1.82114 0
M  V30 391 N 33.9963 -1.19345 1.0293 0
M  V30 392 C 34.9593 -2.20793 0.615069 0
M  V30 393 C 35.9593 -1.57553 -0.321533 0
M  V30 394 O 37.1493 -1.73862 -0.108483 0
M  V30 395 C 34.2813 -3.40754 -0.0999222 0
M  V30 396 H 35.4743 -2.58955 1.51269 0
M  V30 397 H 33.0273 -1.3303 0.820534 0
M  V30 398 H 33.7623 -3.0811 -1.01187 0
M  V30 399 H 33.5473 -3.87889 0.57309 0
M  V30 400 H 35.0373 -4.15898 -0.376645 0
M  V30 401 N 35.4744 -0.807222 -1.35358 0
M  V30 402 C 36.4044 -0.232509 -2.3234 0
M  V30 403 C 37.3854 0.642386 -1.57504 0
M  V30 404 O 38.5704 0.572526 -1.85569 0
M  V30 405 C 35.7004 0.619238 -3.41735 0
M  V30 406 C 34.6544 -0.157215 -4.27711 0
M  V30 407 C 33.9804 0.816273 -5.28433 0
M  V30 408 C 35.2804 -1.35656 -5.04376 0
M  V30 409 H 36.9744 -1.04276 -2.80654 0
M  V30 410 H 34.5204 -0.50288 -1.34934 0
M  V30 411 H 36.4734 1.03137 -4.08584 0
M  V30 412 H 35.1974 1.46239 -2.92031 0
M  V30 413 H 33.8564 -0.550525 -3.62443 0
M  V30 414 H 33.5044 1.65494 -4.74996 0
M  V30 415 H 33.2044 0.301067 -5.86828 0
M  V30 416 H 34.7284 1.22659 -5.98153 0
M  V30 417 H 36.1424 -1.01927 -5.64166 0
M  V30 418 H 34.5394 -1.8063 -5.7227 0
M  V30 419 H 35.6094 -2.14288 -4.34981 0
M  V30 420 N 36.9525 1.47285 -0.560781 0
M  V30 421 C 37.9155 2.28535 0.174488 0
M  V30 422 C 38.9155 1.37153 0.839388 0
M  V30 423 O 40.1055 1.59748 0.694702 0
M  V30 424 C 37.2375 3.16934 1.25561 0
M  V30 425 H 38.4305 2.95012 -0.539262 0
M  V30 426 H 35.9835 1.53034 -0.317865 0
M  V30 427 H 36.7185 2.55157 2.00164 0
M  V30 428 H 36.5035 3.8419 0.783604 0
M  V30 429 H 37.9935 3.78143 1.77193 0
M  V30 430 N 38.4306 0.297415 1.54768 0
M  V30 431 C 39.3406 -0.58983 2.27064 0
M  V30 432 C 40.3566 -1.15144 1.30453 0
M  V30 433 O 41.5326 -1.17699 1.63428 0
M  V30 434 C 38.5976 -1.74714 2.9946 0
M  V30 435 C 37.6586 -1.21997 4.11601 0
M  V30 436 C 36.8916 -2.32212 4.80535 0
M  V30 437 O 37.1146 -3.52036 4.48806 0
M  V30 438 O 36.0486 -1.99106 5.68014 0
M  V30 439 H 39.8746 -0.00348199 3.037 0
M  V30 440 H 37.4596 0.0640035 1.49263 0
M  V30 441 H 39.3416 -2.42147 3.44881 0
M  V30 442 H 38.0166 -2.32016 2.25722 0
M  V30 443 H 36.9236 -0.511458 3.70587 0
M  V30 444 H 38.2566 -0.692419 4.87305 0
M  V30 445 N 39.9087 -1.5758 0.0250728 0
M  V30 446 C 40.8407 -2.06869 -0.986796 0
M  V30 447 C 41.8537 -0.991332 -1.29137 0
M  V30 448 O 43.0427 -1.26761 -1.25674 0
M  V30 449 C 40.1427 -2.47486 -2.31525 0
M  V30 450 C 39.3157 -3.78253 -2.19643 0
M  V30 451 C 38.3747 -4.05464 -3.35388 0
M  V30 452 O 37.4007 -4.75774 -3.12454 0
M  V30 453 N 38.6027 -3.55321 -4.59051 0
M  V30 454 H 41.3677 -2.94302 -0.566276 0
M  V30 455 H 38.9287 -1.6109 -0.161776 0
M  V30 456 H 40.9207 -2.62785 -3.07776 0
M  V30 457 H 39.4907 -1.65441 -2.65232 0
M  V30 458 H 38.7107 -3.7279 -1.28144 0
M  V30 459 H 39.9987 -4.63936 -2.08903 0
M  V30 460 H 39.3967 -2.98431 -4.80578 0
M  V30 461 H 37.9537 -3.75905 -5.32483 0
M  V30 462 N 41.3868 0.248026 -1.55636 0
M  V30 463 C 42.6118 0.998028 -1.81808 0
M  V30 464 C 43.0368 1.78207 -0.601979 0
M  V30 465 O 42.3948 1.75653 0.448961 0
M  V30 466 C 42.4428 1.9125 -3.05705 0
M  V30 467 O 41.5468 3.00406 -2.82542 0
M  V30 468 H 40.8878 0.284045 -0.600179 0
M  V30 469 H 43.4178 0.269357 -2.02819 0
M  V30 470 H 43.4278 2.32737 -3.35108 0
M  V30 471 H 42.1028 1.33602 -3.93857 0
M  V30 472 H 40.6798 2.63056 -2.64303 0
M  V30 473 N 42.8649 1.48995 0.513639 0
M  V30 474 C 44.0899 1.61792 1.29762 0
M  V30 475 C 44.5149 0.284475 1.85936 0
M  V30 476 O 43.8729 -0.746185 1.65232 0
M  V30 477 C 43.9209 2.67993 2.41272 0
M  V30 478 O 43.0249 2.26287 3.44772 0
M  V30 479 H 42.3659 0.541963 0.38363 0
M  V30 480 H 44.8959 1.95097 0.616307 0
M  V30 481 H 44.9059 2.89772 2.87221 0
M  V30 482 H 43.5809 3.64791 1.9975 0
M  V30 483 H 42.1579 2.14788 3.04829 0
M  V30 484 N 44.343 -0.763751 1.37857 0
M  V30 485 C 45.568 -1.55805 1.36893 0
M  V30 486 C 45.993 -1.88054 -0.0416135 0
M  V30 487 O 45.351 -1.49825 -1.02089 0
M  V30 488 C 45.399 -2.84012 2.22192 0
M  V30 489 O 44.503 -3.78732 1.63204 0
M  V30 490 H 43.844 -0.471638 0.46739 0
M  V30 491 H 46.374 -0.944657 1.81487 0
M  V30 492 H 46.384 -3.33037 2.35691 0
M  V30 493 H 45.059 -2.59869 3.24716 0
M  V30 494 H 43.636 -3.37402 1.58791 0
M  V30 495 N 45.8211 -1.22559 -0.990812 0
M  V30 496 C 46.7311 -1.01394 -2.11557 0
M  V30 497 C 47.7471 0.0383962 -1.73958 0
M  V30 498 O 48.9231 -0.154787 -2.00804 0
M  V30 499 C 45.9881 -0.596569 -3.41529 0
M  V30 500 C 45.0491 -1.72276 -3.93217 0
M  V30 501 C 44.2821 -1.32521 -5.16985 0
M  V30 502 O 44.5051 -0.204909 -5.70032 0
M  V30 503 O 43.4391 -2.14247 -5.62478 0
M  V30 504 H 47.2651 -1.95633 -2.32296 0
M  V30 505 H 44.8501 -1.01172 -1.0993 0
M  V30 506 H 46.7321 -0.374263 -4.19735 0
M  V30 507 H 45.4071 0.316939 -3.22145 0
M  V30 508 H 44.3141 -1.99961 -3.16174 0
M  V30 509 H 45.6471 -2.61421 -4.17037 0
M  V30 510 N 47.2992 1.18797 -1.03562 0
M  V30 511 C 48.5482 1.87978 -0.731235 0
M  V30 512 C 48.8612 1.80911 0.743671 0
M  V30 513 O 50.0672 2.45407 1.16137 0
M  V30 514 C 48.5232 3.3721 -1.25768 0
M  V30 515 C 48.1312 3.52818 -2.76085 0
M  V30 516 C 49.8752 4.11825 -1.0296 0
M  V30 517 C 47.7822 4.9598 -3.22114 0
M  V30 518 H 46.7122 0.704063 -0.269835 0
M  V30 519 H 49.3632 1.34266 -1.25079 0
M  V30 520 H 47.7452 3.90359 -0.666011 0
M  V30 521 H 48.9192 3.09965 -3.40966 0
M  V30 522 H 47.2342 2.91602 -2.97249 0
M  V30 523 H 49.8312 5.17411 -1.34869 0
M  V30 524 H 50.1742 4.16287 0.0333546 0
M  V30 525 H 50.7072 3.64833 -1.58562 0
M  V30 526 H 47.4462 4.96684 -4.27768 0
M  V30 527 H 46.9662 5.39569 -2.61965 0
M  V30 528 H 48.6452 5.6467 -3.15844 0
M  V30 529 N 48.7773 0.814389 1.34928 0
M  V30 530 C 49.7243 0.22822 2.29669 0
M  V30 531 C 50.6943 -0.642164 1.53184 0
M  V30 532 O 51.8793 -0.585605 1.81591 0
M  V30 533 C 49.0193 -0.61089 3.3965 0
M  V30 534 C 48.1323 0.280792 4.31086 0
M  V30 535 C 47.2673 -0.567067 5.28165 0
M  V30 536 C 46.3063 0.324531 6.11239 0
M  V30 537 N 45.4433 -0.483756 7.00431 0
M  V30 538 H 50.2833 1.04153 2.79206 0
M  V30 539 H 47.8203 0.525133 1.37407 0
M  V30 540 H 49.7783 -1.11263 4.0209 0
M  V30 541 H 48.4083 -1.38939 2.91369 0
M  V30 542 H 47.4603 0.900688 3.69583 0
M  V30 543 H 48.7723 0.966723 4.89342 0
M  V30 544 H 47.9263 -1.13363 5.96015 0
M  V30 545 H 46.6653 -1.28654 4.70425 0
M  V30 546 H 45.6703 0.903298 5.42329 0
M  V30 547 H 46.8953 1.04198 6.71059 0
M  V30 548 H 44.8413 -1.18706 6.45171 0
M  V30 549 H 44.7583 0.143965 7.55863 0
M  V30 550 H 46.0263 -1.03334 7.7262 0
M  V30 551 N 50.2554 -1.46986 0.568584 0
M  V30 552 C 51.5044 -2.01646 0.0465894 0
M  V30 553 C 51.8174 -1.44721 -1.31587 0
M  V30 554 O 53.0234 -1.91113 -1.92842 0
M  V30 555 C 51.4794 -3.59885 0.032752 0
M  V30 556 C 51.0874 -4.25804 1.39266 0
M  V30 557 C 52.8314 -4.22255 -0.436038 0
M  V30 558 C 50.7384 -5.76081 1.33732 0
M  V30 559 H 49.6684 -0.753876 0.013647 0
M  V30 560 H 52.3194 -1.68864 0.718131 0
M  V30 561 H 50.7014 -3.8968 -0.704669 0
M  V30 562 H 51.8754 -4.07637 2.1487 0
M  V30 563 H 50.1904 -3.7547 1.80032 0
M  V30 564 H 52.7874 -5.32394 -0.49602 0
M  V30 565 H 53.1304 -3.90212 -1.45053 0
M  V30 566 H 53.6634 -3.97033 0.246877 0
M  V30 567 H 50.4024 -6.12761 2.32817 0
M  V30 568 H 49.9224 -5.96553 0.623267 0
M  V30 569 H 51.6014 -6.38518 1.0442 0
M  V30 570 N 51.7335 -0.305618 -1.54608 0
M  V30 571 C 52.9795 0.302746 -2.00528 0
M  V30 572 C 53.3125 1.53184 -1.19367 0
M  V30 573 O 52.5875 1.92598 -0.271321 0
M  V30 574 C 52.8705 0.654756 -3.54097 0
M  V30 575 C 52.7235 -0.583793 -4.45995 0
M  V30 576 C 54.0425 1.47947 -4.14487 0
M  V30 577 H 51.1615 0.108564 -0.72896 0
M  V30 578 H 53.8035 -0.418634 -1.85331 0
M  V30 579 H 51.9535 1.26935 -3.67178 0
M  V30 580 H 53.6255 -1.22224 -4.44814 0
M  V30 581 H 51.8685 -1.21615 -4.16404 0
M  V30 582 H 52.5395 -0.293287 -5.5122 0
M  V30 583 H 55.0155 0.96013 -4.04871 0
M  V30 584 H 53.8915 1.69454 -5.22088 0
M  V30 585 H 54.1525 2.47011 -3.66658 0
M  V30 586 N 53.2116 1.57565 -0.0334293 0
M  V30 587 C 54.6276 1.56297 0.322997 0
M  V30 588 C 54.8276 1.03945 1.7262 0
M  V30 589 O 53.8836 0.688109 2.42943 0
M  V30 590 C 55.1966 3.00232 0.167664 0
M  V30 591 C 56.7446 3.12078 0.240107 0
M  V30 592 C 57.2196 4.57859 0.113513 0
M  V30 593 N 58.7106 4.62887 0.170359 0
M  V30 594 C 59.4456 5.73319 0.0962517 0
M  V30 595 N 58.9416 6.92794 -0.0291881 0
M  V30 596 N 60.7346 5.61898 0.150551 0
M  V30 597 H 52.8856 1.89923 -0.950956 0
M  V30 598 H 55.1486 0.873824 -0.367608 0
M  V30 599 H 54.8546 3.42501 -0.799102 0
M  V30 600 H 54.7286 3.654 0.936083 0
M  V30 601 H 57.1156 2.69718 1.19733 0
M  V30 602 H 57.1966 2.49623 -0.558763 0
M  V30 603 H 56.8406 5.009 -0.840314 0
M  V30 604 H 56.7706 5.18299 0.931302 0
M  V30 605 H 59.2616 3.76954 0.26728 0
M  V30 606 H 59.5746 7.7276 -0.0789252 0
M  V30 607 H 57.9196 6.94971 -0.0640299 0
M  V30 608 H 61.1106 4.67448 0.246981 0
M  V30 609 H 61.2836 6.47938 0.0893365 0
M  V30 610 N 54.6897 -0.239769 1.55765 0
M  V30 611 C 55.9667 -0.990056 1.68693 0
M  V30 612 C 56.3467 -2.03107 0.5754 0
M  V30 613 O 55.6947 -2.24604 -0.42017 0
M  V30 614 C 55.9047 -1.61696 3.09282 0
M  V30 615 C 57.2527 -2.11613 3.6811 0
M  V30 616 O 58.2767 -1.71624 3.12127 0
M  V30 617 O 57.1357 -2.85057 4.66267 0
M  V30 618 H 54.2297 -0.461299 0.686391 0
M  V30 619 H 56.7757 -0.232991 1.68093 0
M  V30 620 H 55.5477 -0.864357 3.81634 0
M  V30 621 H 55.1707 -2.44005 3.13923 0
M  V30 622 N 56.1678 -1.49265 -0.50573 0
M  V30 623 C 57.0778 -1.68312 -1.63427 0
M  V30 624 C 58.0938 -0.565682 -1.64548 0
M  V30 625 O 59.2698 -0.839801 -1.83055 0
M  V30 626 C 56.3348 -1.74107 -2.99813 0
M  V30 627 C 55.3958 -2.97653 -3.09356 0
M  V30 628 C 54.6288 -3.03163 -4.39236 0
M  V30 629 O 54.8518 -2.16396 -5.27758 0
M  V30 630 O 53.7858 -3.9558 -4.53652 0
M  V30 631 H 57.6118 -2.63907 -1.50289 0
M  V30 632 H 55.1968 -1.32951 -0.681502 0
M  V30 633 H 57.0788 -1.803 -3.80881 0
M  V30 634 H 55.7538 -0.816901 -3.13223 0
M  V30 635 H 54.6608 -2.96981 -2.27493 0
M  V30 636 H 55.9938 -3.89535 -3.00871 0
M  V30 637 N 57.6459 0.756429 -1.3826 0
M  V30 638 C 58.8759 1.54341 -1.3734 0
M  V30 639 C 59.2839 1.89159 0.0393917 0
M  V30 640 O 58.6269 1.5307 1.01565 0
M  V30 641 C 58.6889 2.87238 -2.16182 0
M  V30 642 C 58.3529 2.74973 -3.65019 0
M  V30 643 C 59.3499 2.44962 -4.58574 0
M  V30 644 C 57.0349 2.92515 -4.08338 0
M  V30 645 C 59.0289 2.32642 -5.93428 0
M  V30 646 C 56.7159 2.79815 -5.43274 0
M  V30 647 C 57.7139 2.49921 -6.35632 0
M  V30 648 O 57.4019 2.37275 -7.68086 0
M  V30 649 H 57.1339 0.484281 -0.471643 0
M  V30 650 H 59.6879 0.944152 -1.82414 0
M  V30 651 H 57.9179 3.49342 -1.65822 0
M  V30 652 H 59.6069 3.48731 -2.07705 0
M  V30 653 H 60.3729 2.31081 -4.26412 0
M  V30 654 H 56.2519 3.14781 -3.368 0
M  V30 655 H 59.7959 2.0923 -6.65484 0
M  V30 656 H 55.6929 2.93269 -5.75034 0
M  V30 657 H 56.4609 2.52509 -7.78577 0
M  V30 658 N 59.124 1.23083 0.984299 0
M  V30 659 C 60.372 1.05848 1.72165 0
M  V30 660 C 60.693 -0.406049 1.90726 0
M  V30 661 O 59.963 -1.29139 1.47309 0
M  V30 662 H 58.543 0.388685 0.637913 0
M  V30 663 H 61.205 1.54736 1.18503 0
M  V30 664 H 60.301 1.54327 2.71274 0
M  V30 665 N 60.6021 -1.18246 1.0419 0
M  V30 666 C 61.5351 -2.20746 0.578474 0
M  V30 667 C 62.5131 -1.57912 -0.387624 0
M  V30 668 O 63.6971 -1.86071 -0.301634 0
M  V30 669 C 60.8241 -3.38346 -0.154762 0
M  V30 670 C 59.8701 -4.19587 0.764782 0
M  V30 671 S 60.7031 -4.86014 2.24835 0
M  V30 672 C 61.8591 -6.07012 1.526 0
M  V30 673 H 62.0921 -2.59715 1.44691 0
M  V30 674 H 59.6251 -1.287 0.85297 0
M  V30 675 H 61.5831 -4.065 -0.571641 0
M  V30 676 H 60.2441 -2.97786 -0.999105 0
M  V30 677 H 59.4371 -5.03611 0.197976 0
M  V30 678 H 59.0391 -3.56818 1.12057 0
M  V30 679 H 61.3311 -6.72523 0.819733 0
M  V30 680 H 62.2741 -6.68202 2.34333 0
M  V30 681 H 62.6821 -5.55249 1.01779 0
M  V30 682 N 62.0802 -0.821533 -1.34494 0
M  V30 683 C 63.4912 -0.467956 -1.8074 0
M  V30 684 C 63.8422 1.01151 -1.68116 0
M  V30 685 O 62.9672 1.78707 -1.22036 0
M  V30 686 C 63.5622 -0.842627 -3.28154 0
M  V30 687 C 62.1212 -0.541439 -3.72485 0
M  V30 688 C 61.2682 -1.06028 -2.56229 0
M  V30 689 H 64.2192 -1.01183 -1.22261 0
M  V30 690 H 64.2402 -0.145876 -3.8022 0
M  V30 691 H 63.7522 -1.91945 -3.37311 0
M  V30 692 H 61.8532 0.526034 -3.68868 0
M  V30 693 H 61.9662 -1.08453 -4.66663 0
M  V30 694 H 60.3302 -0.481892 -2.501 0
M  V30 695 H 61.1132 -2.14352 -2.68157 0
M  V30 696 N 63.5583 1.46682 -0.576371 0
M  V30 697 C 64.5083 2.27278 0.181288 0
M  V30 698 C 65.4923 1.35497 0.867721 0
M  V30 699 O 66.6843 1.59717 0.762863 0
M  V30 700 C 63.8133 3.21703 1.19841 0
M  V30 701 C 62.8993 4.20969 0.51442 0
M  V30 702 N 63.2903 5.03999 -0.426407 0
M  V30 703 C 61.5883 4.39373 0.765963 0
M  V30 704 C 62.2893 5.75812 -0.825565 0
M  V30 705 N 61.2653 5.43315 -0.176116 0
M  V30 706 H 65.0673 2.88863 -0.541785 0
M  V30 707 H 62.5813 1.57455 -0.397697 0
M  V30 708 H 64.5783 3.78145 1.75533 0
M  V30 709 H 63.2383 2.61677 1.92238 0
M  V30 710 H 64.2493 5.11659 -0.8016 0
M  V30 711 H 60.9263 3.90502 1.47698 0
M  V30 712 H 62.3163 6.52577 -1.59976 0
M  V30 713 N 65.0364 0.313813 1.54444 0
M  V30 714 C 66.2854 -0.292519 1.99568 0
M  V30 715 C 66.5984 -1.54011 1.20582 0
M  V30 716 O 67.8044 -2.22183 1.56035 0
M  V30 717 C 66.2604 -0.571752 3.55329 0
M  V30 718 C 65.8684 0.658229 4.43138 0
M  V30 719 C 67.6124 -1.13857 4.08946 0
M  V30 720 C 65.5194 0.351439 5.90355 0
M  V30 721 H 64.4494 -0.113079 0.745472 0
M  V30 722 H 67.1004 0.424518 1.78522 0
M  V30 723 H 65.4824 -1.34872 3.72325 0
M  V30 724 H 66.6564 1.43403 4.37918 0
M  V30 725 H 64.9714 1.14458 4.0036 0
M  V30 726 H 67.5684 -1.38257 5.16516 0
M  V30 727 H 67.9114 -2.08489 3.6033 0
M  V30 728 H 68.4444 -0.423015 3.95544 0
M  V30 729 H 65.1834 1.26667 6.43145 0
M  V30 730 H 64.7034 -0.386842 5.98551 0
M  V30 731 H 66.3824 -0.0423134 6.46986 0
M  V30 732 N 66.5145 -1.57545 0.0417849 0
M  V30 733 C 67.7445 -1.96339 -0.642995 0
M  V30 734 C 68.1525 -0.917536 -1.65463 0
M  V30 735 O 67.4955 0.107747 -1.83384 0
M  V30 736 C 67.5575 -3.31333 -1.39494 0
M  V30 737 C 67.2215 -4.53796 -0.540204 0
M  V30 738 C 68.2185 -5.19553 0.189806 0
M  V30 739 C 65.9035 -5.0006 -0.473886 0
M  V30 740 C 67.8975 -6.29904 0.974674 0
M  V30 741 C 65.5845 -6.10289 0.314677 0
M  V30 742 C 66.5825 -6.75072 1.03765 0
M  V30 743 O 66.2705 -7.83183 1.81327 0
M  V30 744 H 66.0025 -0.651241 -0.181277 0
M  V30 745 H 68.5565 -2.05148 0.101665 0
M  V30 746 H 66.7865 -3.19052 -2.18502 0
M  V30 747 H 68.4755 -3.54942 -1.96904 0
M  V30 748 H 69.2415 -4.84774 0.147981 0
M  V30 749 H 65.1205 -4.49433 -1.0262 0
M  V30 750 H 68.6645 -6.80401 1.5395 0
M  V30 751 H 64.5615 -6.44506 0.358174 0
M  V30 752 H 65.3295 -7.99913 1.73438 0
M  V30 753 N 67.9926 0.231505 -1.5589 0
M  V30 754 C 68.9556 1.27028 -1.90779 0
M  V30 755 C 69.9556 1.40308 -0.785507 0
M  V30 756 O 71.1456 1.38744 -1.05336 0
M  V30 757 C 68.2776 2.64566 -2.14983 0
M  V30 758 H 69.4706 0.973017 -2.83677 0
M  V30 759 H 67.0236 0.471486 -1.49019 0
M  V30 760 H 67.7586 2.99406 -1.24604 0
M  V30 761 H 67.5436 2.56305 -2.96732 0
M  V30 762 H 69.0336 3.39543 -2.43105 0
M  V30 763 N 69.4707 1.49531 0.497807 0
M  V30 764 C 70.4187 1.66926 1.61983 0
M  V30 765 C 71.4127 0.535167 1.60724 0
M  V30 766 O 72.6187 0.714896 1.65195 0
M  V30 767 H 68.9937 0.526415 0.537021 0
M  V30 768 H 70.9647 2.61098 1.44465 0
M  V30 769 C 69.7137 1.75602 3.00099 0
M  V30 770 H 69.0367 2.62244 3.01775 0
M  V30 771 H 70.4767 1.91807 3.78135 0
M  V30 772 C 68.9357 0.501543 3.33146 0
M  V30 773 O 69.4657 -0.371342 3.9998 0
M  V30 774 N 67.6717 0.363531 2.88317 0
M  V30 775 H 67.2187 1.07485 2.34104 0
M  V30 776 H 67.1767 -0.474728 3.10795 0
M  V30 777 N 70.9488 -0.749086 1.3866 0
M  V30 778 C 72.2258 -1.4992 1.25632 0
M  V30 779 C 72.6058 -2.10633 -0.140317 0
M  V30 780 O 71.9538 -1.97437 -1.15025 0
M  V30 781 C 72.1638 -2.56195 2.36992 0
M  V30 782 C 73.5118 -3.22972 2.75634 0
M  V30 783 O 74.5358 -2.66502 2.36337 0
M  V30 784 O 73.3948 -4.25122 3.43415 0
M  V30 785 H 70.4888 -0.665067 0.491544 0
M  V30 786 H 73.0348 -0.784113 1.50498 0
M  V30 787 H 71.8068 -2.09612 3.30422 0
M  V30 788 H 71.4298 -3.35279 2.13714 0
M  V30 789 N 72.4269 -1.23603 -0.977757 0
M  V30 790 C 73.6549 -1.09646 -1.75458 0
M  V30 791 C 74.0699 0.351859 -1.85492 0
M  V30 792 O 73.4269 1.24327 -1.336 0
M  V30 793 C 73.4779 -1.71895 -3.18016 0
M  V30 794 O 73.1989 -3.11063 -3.08498 0
M  V30 795 C 74.6999 -1.63415 -4.12081 0
M  V30 796 H 71.9199 -0.38359 -0.550545 0
M  V30 797 H 74.4639 -1.63507 -1.22824 0
M  V30 798 H 72.6189 -1.22061 -3.67668 0
M  V30 799 H 73.0329 -3.41305 -3.9826 0
M  V30 800 H 74.5069 -2.11669 -5.09804 0
M  V30 801 H 74.9839 -0.593462 -4.35172 0
M  V30 802 H 75.5899 -2.12628 -3.68334 0
M  V30 803 N 73.905 1.17692 -1.04816 0
M  V30 804 C 75.151 1.88389 -0.766892 0
M  V30 805 C 75.506 1.79282 0.698269 0
M  V30 806 O 74.799 1.18739 1.50372 0
M  V30 807 C 74.993 3.37462 -1.17703 0
M  V30 808 C 74.822 3.6108 -2.68051 0
M  V30 809 C 73.592 3.78018 -3.35307 0
M  V30 810 C 75.79 3.61039 -3.66273 0
M  V30 811 N 73.772 3.89444 -4.74559 0
M  V30 812 C 75.143 3.78269 -4.91235 0
M  V30 813 C 77.198 3.44168 -3.59796 0
M  V30 814 C 75.901 3.80376 -6.10497 0
M  V30 815 C 77.927 3.4756 -4.78493 0
M  V30 816 C 77.289 3.65295 -6.02278 0
M  V30 817 H 73.388 0.707651 -0.332798 0
M  V30 818 H 75.972 1.41314 -1.33934 0
M  V30 819 H 74.143 3.83214 -0.63257 0
M  V30 820 H 75.875 3.95759 -0.845989 0
M  V30 821 H 72.63 3.77714 -2.85708 0
M  V30 822 H 73.054 3.98962 -5.46954 0
M  V30 823 H 77.696 3.29396 -2.65062 0
M  V30 824 H 75.414 3.93933 -7.05579 0
M  V30 825 H 79 3.3577 -4.75131 0
M  V30 826 H 77.88 3.6782 -6.92588 0
M  V30 827 N 75.3831 0.828654 1.34056 0
M  V30 828 C 76.3331 0.226828 2.26869 0
M  V30 829 C 77.3171 -0.612243 1.48796 0
M  V30 830 O 78.5091 -0.465884 1.70759 0
M  V30 831 C 75.6381 -0.605654 3.37915 0
M  V30 832 C 74.7241 0.244361 4.23395 0
M  V30 833 N 75.1151 1.31815 4.88322 0
M  V30 834 C 73.4131 0.0296616 4.4599 0
M  V30 835 C 74.1141 1.83895 5.51867 0
M  V30 836 N 73.0901 1.14196 5.3147 0
M  V30 837 H 76.8921 1.04811 2.74576 0
M  V30 838 H 74.4061 0.67205 1.47842 0
M  V30 839 H 76.4031 -1.05302 4.03382 0
M  V30 840 H 75.0631 -1.42504 2.91758 0
M  V30 841 H 76.0741 1.70099 4.8917 0
M  V30 842 H 72.7511 -0.757097 4.10578 0
M  V30 843 H 74.1411 2.7376 6.136 0
M  V30 844 N 76.8612 -1.46375 0.584142 0
M  V30 845 C 77.7912 -2.33103 -0.136037 0
M  V30 846 C 78.7722 -1.45431 -0.882255 0
M  V30 847 O 79.9572 -1.74246 -0.857434 0
M  V30 848 C 77.0872 -3.27731 -1.14933 0
M  V30 849 C 76.0412 -4.24855 -0.517862 0
M  V30 850 C 75.3672 -5.09001 -1.63773 0
M  V30 851 C 76.6672 -5.19439 0.545886 0
M  V30 852 H 78.3612 -2.93568 0.588086 0
M  V30 853 H 75.9072 -1.41166 0.284259 0
M  V30 854 H 77.8602 -3.87261 -1.66153 0
M  V30 855 H 76.5842 -2.65377 -1.90375 0
M  V30 856 H 75.2432 -3.6659 -0.0267361 0
M  V30 857 H 74.8912 -4.43031 -2.38185 0
M  V30 858 H 74.5912 -5.74777 -1.22085 0
M  V30 859 H 76.1152 -5.71396 -2.15266 0
M  V30 860 H 77.5292 -5.73177 0.118704 0
M  V30 861 H 75.9262 -5.93566 0.88317 0
M  V30 862 H 76.9962 -4.63285 1.43162 0
M  V30 863 N 78.3393 -0.321999 -1.54275 0
M  V30 864 C 79.5863 0.281044 -2.0054 0
M  V30 865 C 79.9143 1.52265 -1.21019 0
M  V30 866 O 79.1693 1.93687 -0.279982 0
M  V30 867 C 79.4683 0.661769 -3.5122 0
M  V30 868 C 79.1343 -0.480482 -4.48333 0
M  V30 869 C 77.7963 -0.794005 -4.74604 0
M  V30 870 C 80.1483 -1.24783 -5.06042 0
M  V30 871 C 77.4763 -1.87763 -5.55844 0
M  V30 872 C 79.8283 -2.32153 -5.88462 0
M  V30 873 C 78.4923 -2.64089 -6.13036 0
M  V30 874 H 77.7623 0.102841 -0.733829 0
M  V30 875 H 80.4093 -0.445453 -1.86247 0
M  V30 876 H 78.7143 1.46867 -3.63232 0
M  V30 877 H 80.4113 1.13989 -3.84457 0
M  V30 878 H 77.0013 -0.226039 -4.28004 0
M  V30 879 H 81.1853 -1.01887 -4.85729 0
M  V30 880 H 76.4413 -2.12954 -5.73115 0
M  V30 881 H 80.6153 -2.92057 -6.32199 0
M  V30 882 H 78.2423 -3.48185 -6.75775 0
M  V30 883 N 79.8174 1.5752 -0.0501392 0
M  V30 884 C 81.0474 1.96678 0.632573 0
M  V30 885 C 81.4554 0.926298 1.64974 0
M  V30 886 O 80.7984 -0.09802 1.83438 0
M  V30 887 C 80.8604 3.32068 1.37735 0
M  V30 888 C 80.5244 4.54076 0.516131 0
M  V30 889 C 81.5214 5.19445 -0.217357 0
M  V30 890 C 79.2064 5.00304 0.44736 0
M  V30 891 C 81.2004 6.29378 -1.00807 0
M  V30 892 C 78.8874 6.10114 -0.347038 0
M  V30 893 C 79.8854 6.74512 -1.07344 0
M  V30 894 O 79.5734 7.82211 -1.85477 0
M  V30 895 H 79.3054 0.652193 0.177821 0
M  V30 896 H 81.8594 2.05091 -0.112543 0
M  V30 897 H 80.0894 3.20206 2.16807 0
M  V30 898 H 81.7784 3.55981 1.95019 0
M  V30 899 H 82.5444 4.84689 -0.173688 0
M  V30 900 H 78.4234 4.49971 1.00235 0
M  V30 901 H 81.9674 6.79575 -1.57556 0
M  V30 902 H 77.8644 6.44307 -0.392349 0
M  V30 903 H 78.6324 7.98982 -1.77678 0
M  V30 904 N 81.2955 -0.223234 1.56011 0
M  V30 905 C 82.5435 -0.946003 1.78592 0
M  V30 906 C 82.8645 -1.84936 0.618349 0
M  V30 907 O 82.1345 -1.92473 -0.364833 0
M  V30 908 H 80.7145 -0.352298 0.658707 0
M  V30 909 H 83.3765 -0.235494 1.93472 0
M  V30 910 H 82.4725 -1.55381 2.70672 0
M  V30 911 N 82.7736 -1.49793 -0.48987 0
M  V30 912 C 84.0036 -1.6333 -1.26518 0
M  V30 913 C 84.4116 -0.308392 -1.8667 0
M  V30 914 O 83.7546 0.717512 -1.69108 0
M  V30 915 C 83.8166 -2.6522 -2.4269 0
M  V30 916 C 83.4806 -4.09279 -2.03321 0
M  V30 917 C 84.4776 -4.95738 -1.56652 0
M  V30 918 C 82.1626 -4.55082 -2.12616 0
M  V30 919 C 84.1566 -6.26041 -1.19795 0
M  V30 920 C 81.8436 -5.85396 -1.75371 0
M  V30 921 C 82.8416 -6.707 -1.29036 0
M  V30 922 O 82.5296 -7.98584 -0.92299 0
M  V30 923 H 82.2616 -0.552502 -0.389509 0
M  V30 924 H 84.8156 -1.96642 -0.593381 0
M  V30 925 H 83.0456 -2.27112 -3.12981 0
M  V30 926 H 84.7346 -2.68171 -3.04695 0
M  V30 927 H 85.5006 -4.61575 -1.48908 0
M  V30 928 H 81.3796 -3.88844 -2.47631 0
M  V30 929 H 84.9236 -6.92578 -0.835582 0
M  V30 930 H 80.8206 -6.19085 -1.82768 0
M  V30 931 H 81.5886 -8.11692 -1.05349 0
M  V30 932 N 84.2517 0.741722 -1.39055 0
M  V30 933 C 85.4997 1.49818 -1.35643 0
M  V30 934 C 85.8207 1.94938 0.0491642 0
M  V30 935 O 85.0907 1.68505 0.999141 0
M  V30 936 H 83.6707 0.555755 -0.499144 0
M  V30 937 H 86.3327 0.880957 -1.73854 0
M  V30 938 H 85.4287 2.38348 -2.01486 0
M  V30 939 N 85.7298 1.2412 0.971189 0
M  V30 940 C 86.9598 1.10415 1.7462 0
M  V30 941 C 87.3678 -0.346462 1.86001 0
M  V30 942 O 86.7108 -1.25104 1.34517 0
M  V30 943 C 86.7728 1.66596 3.18568 0
M  V30 944 C 86.4368 3.15446 3.3067 0
M  V30 945 C 87.4338 4.12636 3.16271 0
M  V30 946 C 85.1188 3.55337 3.55022 0
M  V30 947 C 87.1128 5.47699 3.26044 0
M  V30 948 C 84.7998 4.90542 3.64434 0
M  V30 949 C 85.7978 5.86532 3.49956 0
M  V30 950 O 85.4858 7.19279 3.59017 0
M  V30 951 H 85.2178 0.386616 0.55453 0
M  V30 952 H 87.7718 1.64633 1.22821 0
M  V30 953 H 86.0018 1.06808 3.71657 0
M  V30 954 H 87.6908 1.48232 3.77865 0
M  V30 955 H 88.4568 3.8316 2.97344 0
M  V30 956 H 84.3358 2.8113 3.65359 0
M  V30 957 H 87.8798 6.22603 3.14661 0
M  V30 958 H 83.7768 5.19691 3.82873 0
M  V30 959 H 84.5448 7.27153 3.75754 0
M  V30 960 N 87.2079 -1.17134 1.05439 0
M  V30 961 C 88.4539 -1.87733 0.767077 0
M  V30 962 C 88.7869 -1.8098 -0.704253 0
M  V30 963 O 88.0619 -1.21951 -1.5152 0
M  V30 964 C 88.3449 -3.37659 1.25133 0
M  V30 965 C 88.1979 -3.53149 2.78578 0
M  V30 966 C 89.5169 -4.31768 0.852324 0
M  V30 967 H 86.6359 -0.681687 0.280129 0
M  V30 968 H 89.2779 -1.37732 1.30881 0
M  V30 969 H 87.4279 -3.80373 0.790469 0
M  V30 970 H 89.0999 -3.19434 3.32806 0
M  V30 971 H 87.3429 -2.95345 3.17732 0
M  V30 972 H 88.0139 -4.58403 3.07523 0
M  V30 973 H 90.4899 -3.96909 1.24911 0
M  V30 974 H 89.3659 -5.35199 1.21873 0
M  V30 975 H 89.6269 -4.41429 -0.243485 0
M  V30 976 N 88.686 -0.835752 -1.33615 0
M  V30 977 C 89.932 -0.430596 -1.98176 0
M  V30 978 C 90.265 1.00684 -1.66061 0
M  V30 979 O 89.54 1.70339 -0.938877 0
M  V30 980 C 89.823 -0.648065 -3.5422 0
M  V30 981 C 89.676 -2.13255 -3.96033 0
M  V30 982 C 90.995 -0.0922113 -4.40003 0
M  V30 983 H 88.114 -0.157924 -0.719881 0
M  V30 984 H 90.756 -1.05069 -1.58305 0
M  V30 985 H 88.906 -0.120237 -3.88314 0
M  V30 986 H 90.578 -2.725 -3.72211 0
M  V30 987 H 88.821 -2.61823 -3.45878 0
M  V30 988 H 89.492 -2.23547 -5.04708 0
M  V30 989 H 91.968 -0.543343 -4.12537 0
M  V30 990 H 90.844 -0.274083 -5.48215 0
M  V30 991 H 91.105 1.00378 -4.30554 0
M  V30 992 N 90.1641 1.46063 -0.591896 0
M  V30 993 C 91.1271 2.28854 0.125973 0
M  V30 994 C 92.1271 1.38903 0.810107 0
M  V30 995 O 93.3171 1.61186 0.66066 0
M  V30 996 C 90.4491 3.19526 1.1881 0
M  V30 997 H 91.6421 2.93802 -0.601717 0
M  V30 998 H 89.1951 1.52325 -0.350254 0
M  V30 999 H 89.9301 2.59345 1.94707 0
M  V30 1000 H 89.7151 3.85766 0.701936 0
M  V30 1001 H 91.2051 3.81817 1.69132 0
M  V30 1002 N 91.6422 0.330177 1.54103 0
M  V30 1003 C 92.5742 -0.566902 2.22079 0
M  V30 1004 C 93.5872 -1.07462 1.22294 0
M  V30 1005 O 94.7762 -0.987065 1.48726 0
M  V30 1006 C 91.8762 -1.79138 2.87685 0
M  V30 1007 C 91.0492 -1.42123 4.13666 0
M  V30 1008 C 90.1082 -2.50394 4.62806 0
M  V30 1009 O 89.1342 -2.14261 5.27334 0
M  V30 1010 N 90.3362 -3.81433 4.37595 0
M  V30 1011 H 93.1012 0.0151844 2.99696 0
M  V30 1012 H 90.6622 0.153681 1.61169 0
M  V30 1013 H 92.6542 -2.50975 3.1748 0
M  V30 1014 H 91.2242 -2.28115 2.13734 0
M  V30 1015 H 90.4442 -0.534201 3.90564 0
M  V30 1016 H 91.7322 -1.14971 4.9564 0
M  V30 1017 H 91.1302 -4.13584 3.8596 0
M  V30 1018 H 89.6872 -4.4948 4.72029 0
M  V30 1019 N 93.1203 -1.57491 0.0584922 0
M  V30 1020 C 94.3973 -1.84346 -0.653918 0
M  V30 1021 C 94.7773 -0.948355 -1.88599 0
M  V30 1022 O 94.1253 -0.0112403 -2.28497 0
M  V30 1023 C 94.3353 -3.34239 -1.00425 0
M  V30 1024 C 95.6833 -4.01431 -1.38342 0
M  V30 1025 O 96.7073 -3.38907 -1.09637 0
M  V30 1026 O 95.5663 -5.11683 -1.91943 0
M  V30 1027 H 92.6603 -0.761112 -0.323478 0
M  V30 1028 H 95.2063 -1.6947 0.0884125 0
M  V30 1029 H 93.9783 -3.91089 -0.128625 0
M  V30 1030 H 93.6013 -3.54329 -1.80378 0
M  V30 1031 N 94.5984 0.214957 -1.56127 0
M  V30 1032 C 96.0144 0.564948 -1.49267 0
M  V30 1033 C 96.2144 1.86827 -0.754838 0
M  V30 1034 O 95.2704 2.50745 -0.297198 0
M  V30 1035 C 96.5834 0.638071 -2.93852 0
M  V30 1036 C 98.1314 0.728253 -3.0441 0
M  V30 1037 C 98.6064 0.832663 -4.50367 0
M  V30 1038 N 100.097 0.896712 -4.54437 0
M  V30 1039 C 100.832 0.997324 -5.6466 0
M  V30 1040 N 100.328 1.06147 -6.8462 0
M  V30 1041 N 102.121 1.03297 -5.52527 0
M  V30 1042 H 94.2724 -0.640211 -2.02522 0
M  V30 1043 H 96.5354 -0.225507 -0.920788 0
M  V30 1044 H 96.2414 -0.250126 -3.50809 0
M  V30 1045 H 96.1154 1.49947 -3.46115 0
M  V30 1046 H 98.5024 1.60689 -2.47514 0
M  V30 1047 H 98.5834 -0.158952 -2.55306 0
M  V30 1048 H 98.2274 -0.0415417 -5.07883 0
M  V30 1049 H 98.1574 1.73538 -4.97184 0
M  V30 1050 H 100.648 0.857188 -3.6805 0
M  V30 1051 H 100.961 1.1382 -7.64372 0
M  V30 1052 H 99.3064 1.03049 -6.87318 0
M  V30 1053 H 102.497 0.979558 -4.57736 0
M  V30 1054 H 102.67 1.10793 -6.38458 0
M  V30 1055 N 96.0765 1.50051 0.48192 0
M  V30 1056 C 97.0065 1.71046 1.58951 0
M  V30 1057 C 97.9875 0.559288 1.60642 0
M  V30 1058 O 99.1725 0.797243 1.77081 0
M  V30 1059 C 96.3025 1.79462 2.97339 0
M  V30 1060 C 95.2565 2.94558 3.10515 0
M  V30 1061 C 94.5825 2.88105 4.50444 0
M  V30 1062 C 95.8825 4.35227 2.88747 0
M  V30 1063 H 97.5765 2.6378 1.41635 0
M  V30 1064 H 95.1225 1.26936 0.679942 0
M  V30 1065 H 97.0755 1.92734 3.74742 0
M  V30 1066 H 95.7995 0.833412 3.15788 0
M  V30 1067 H 94.4585 2.80918 2.35543 0
M  V30 1068 H 94.1065 1.89853 4.65795 0
M  V30 1069 H 93.8065 3.65366 4.60197 0
M  V30 1070 H 95.3305 3.03412 5.29881 0
M  V30 1071 H 96.7445 4.49449 3.55905 0
M  V30 1072 H 95.1415 5.13856 3.09955 0
M  V30 1073 H 96.2115 4.48347 1.84696 0
M  V30 1074 N 97.5546 -0.734337 1.39446 0
M  V30 1075 C 98.8016 -1.49391 1.36706 0
M  V30 1076 C 99.1296 -1.94465 -0.0367813 0
M  V30 1077 O 98.3846 -1.67154 -1.01774 0
M  V30 1078 C 98.6836 -2.74711 2.28623 0
M  V30 1079 C 98.3496 -2.48501 3.76242 0
M  V30 1080 C 97.0116 -2.41062 4.16464 0
M  V30 1081 C 99.3636 -2.26098 4.69606 0
M  V30 1082 C 96.6916 -2.09262 5.48112 0
M  V30 1083 C 99.0436 -1.95814 6.01531 0
M  V30 1084 C 97.7076 -1.86845 6.40816 0
M  V30 1085 H 96.9776 -0.546661 0.500243 0
M  V30 1086 H 99.6246 -0.842788 1.71957 0
M  V30 1087 H 97.9296 -3.44569 1.86492 0
M  V30 1088 H 99.6266 -3.32741 2.23796 0
M  V30 1089 H 96.2166 -2.55169 3.44364 0
M  V30 1090 H 100.401 -2.30812 4.39363 0
M  V30 1091 H 95.6566 -2.00841 5.77471 0
M  V30 1092 H 99.8306 -1.77488 6.73403 0
M  V30 1093 H 97.4576 -1.6197 7.42745 0
M  V30 1094 N 99.0327 -1.24633 -0.964593 0
M  V30 1095 C 99.9647 -0.999302 -2.06268 0
M  V30 1096 C 100.978 0.0323226 -1.62768 0
M  V30 1097 O 102.167 -0.205079 -1.77318 0
M  V30 1098 C 99.2667 -0.486816 -3.35385 0
M  V30 1099 C 98.4397 -1.5823 -4.07777 0
M  V30 1100 C 97.4987 -1.07191 -5.15166 0
M  V30 1101 O 96.5247 -1.76426 -5.41168 0
M  V30 1102 N 97.7267 0.0920373 -5.80427 0
M  V30 1103 H 100.492 -1.94477 -2.28033 0
M  V30 1104 H 98.0527 -1.15704 -1.13244 0
M  V30 1105 H 100.045 -0.130066 -4.04491 0
M  V30 1106 H 98.6147 0.364459 -3.10468 0
M  V30 1107 H 97.8347 -2.11109 -3.32906 0
M  V30 1108 H 99.1227 -2.31854 -4.52903 0
M  V30 1109 H 98.5207 0.670784 -5.61709 0
M  V30 1110 H 97.0777 0.389905 -6.50633 0
M  V30 1111 N 100.511 1.16574 -1.06058 0
M  V30 1112 C 101.444 2.19798 -0.61352 0
M  V30 1113 C 102.422 1.58509 0.362453 0
M  V30 1114 O 103.606 1.86527 0.271994 0
M  V30 1115 C 100.733 3.3855 0.100915 0
M  V30 1116 C 99.7788 4.18317 -0.831438 0
M  V30 1117 S 100.612 4.82375 -2.32539 0
M  V30 1118 C 101.768 6.04508 -1.62238 0
M  V30 1119 H 102.001 2.5738 -1.48805 0
M  V30 1120 H 99.5338 1.27327 -0.873338 0
M  V30 1121 H 101.492 4.07358 0.506898 0
M  V30 1122 H 100.153 2.99338 0.951604 0
M  V30 1123 H 99.3458 5.03232 -0.278071 0
M  V30 1124 H 98.9478 3.5499 -1.17719 0
M  V30 1125 H 101.24 6.71133 -0.926622 0
M  V30 1126 H 102.183 6.64389 -2.44934 0
M  V30 1127 H 102.591 5.53559 -1.106 0
M  V30 1128 N 101.989 0.842826 1.3317 0
M  V30 1129 C 102.899 0.281444 2.32906 0
M  V30 1130 C 103.915 -0.594587 1.63526 0
M  V30 1131 O 105.091 -0.49777 1.95152 0
M  V30 1132 C 102.156 -0.530929 3.42611 0
M  V30 1133 C 101.217 0.369843 4.27704 0
M  V30 1134 C 100.45 -0.403853 5.3217 0
M  V30 1135 O 100.673 -1.63513 5.46461 0
M  V30 1136 O 99.6069 0.224199 6.01482 0
M  V30 1137 H 103.433 1.10744 2.82789 0
M  V30 1138 H 101.018 0.60545 1.36582 0
M  V30 1139 H 102.9 -0.992437 4.09547 0
M  V30 1140 H 101.575 -1.33392 2.94938 0
M  V30 1141 H 100.482 0.879275 3.6362 0
M  V30 1142 H 101.815 1.13771 4.78871 0
M  V30 1143 N 103.467 -1.45747 0.599634 0
M  V30 1144 C 104.4 -2.27547 -0.172552 0
M  V30 1145 C 105.378 -1.36657 -0.881116 0
M  V30 1146 O 106.562 -1.66081 -0.891595 0
M  V30 1147 C 103.689 -3.14829 -1.24903 0
M  V30 1148 C 102.735 -4.21603 -0.644465 0
M  V30 1149 S 103.568 -5.32754 0.541606 0
M  V30 1150 C 104.724 -6.23604 -0.535656 0
M  V30 1151 H 104.957 -2.92691 0.521468 0
M  V30 1152 H 102.49 -1.49473 0.386947 0
M  V30 1153 H 104.448 -3.65675 -1.86527 0
M  V30 1154 H 103.109 -2.48965 -1.91508 0
M  V30 1155 H 102.302 -4.82566 -1.45417 0
M  V30 1156 H 101.904 -3.73857 -0.103534 0
M  V30 1157 H 104.196 -6.62519 -1.41686 0
M  V30 1158 H 105.139 -7.0809 0.0376246 0
M  V30 1159 H 105.547 -5.58103 -0.84741 0
M  V30 1160 N 104.945 -0.338344 -1.53925 0
M  V30 1161 C 105.908 0.508299 -2.23493 0
M  V30 1162 C 106.908 1.03175 -1.23335 0
M  V30 1163 O 108.098 0.921826 -1.47811 0
M  V30 1164 C 105.23 1.70754 -2.95052 0
M  V30 1165 H 106.423 -0.100058 -2.99733 0
M  V30 1166 H 103.976 -0.0896198 -1.56043 0
M  V30 1167 H 104.711 2.35474 -2.22986 0
M  V30 1168 H 104.496 1.33946 -3.68512 0
M  V30 1169 H 105.986 2.30818 -3.48013 0
M  V30 1170 N 106.423 1.57458 -0.0668435 0
M  V30 1171 C 107.839 1.56947 0.289772 0
M  V30 1172 C 108.039 1.07584 1.70376 0
M  V30 1173 O 107.095 0.739486 2.41429 0
M  V30 1174 C 108.408 3.0052 0.103943 0
M  V30 1175 C 109.956 3.12517 0.173857 0
M  V30 1176 C 110.431 4.57997 0.0163682 0
M  V30 1177 N 111.922 4.63144 0.0721352 0
M  V30 1178 C 112.657 5.73394 -0.0253794 0
M  V30 1179 N 112.153 6.92576 -0.176133 0
M  V30 1180 N 113.946 5.62091 0.0313305 0
M  V30 1181 H 106.097 1.87863 -0.991027 0
M  V30 1182 H 108.36 0.86583 -0.38606 0
M  V30 1183 H 108.066 3.40729 -0.871572 0
M  V30 1184 H 107.94 3.67304 0.858366 0
M  V30 1185 H 110.327 2.72197 1.13985 0
M  V30 1186 H 110.408 2.48381 -0.611586 0
M  V30 1187 H 110.052 4.99005 -0.946374 0
M  V30 1188 H 109.982 5.20158 0.821153 0
M  V30 1189 H 112.473 3.77436 0.187263 0
M  V30 1190 H 112.786 7.72418 -0.242821 0
M  V30 1191 H 111.131 6.94678 -0.211429 0
M  V30 1192 H 114.322 4.67867 0.147773 0
M  V30 1193 H 114.495 6.47982 -0.048121 0
M  V30 1194 N 107.901 -0.206675 1.56239 0
M  V30 1195 C 109.317 -0.557025 1.49564 0
M  V30 1196 C 109.517 -1.86424 0.764735 0
M  V30 1197 O 108.573 -2.50584 0.310491 0
M  V30 1198 C 109.886 -0.622478 2.94186 0
M  V30 1199 C 111.434 -0.712099 3.04792 0
M  V30 1200 C 111.909 -0.808767 4.50803 0
M  V30 1201 N 113.4 -0.8726 4.54907 0
M  V30 1202 C 114.135 -0.967365 5.65181 0
M  V30 1203 N 113.631 -1.02515 6.85173 0
M  V30 1204 N 115.424 -1.00366 5.53067 0
M  V30 1205 H 107.575 0.650943 2.02179 0
M  V30 1206 H 109.838 0.230387 0.919579 0
M  V30 1207 H 109.544 0.268727 3.50672 0
M  V30 1208 H 109.418 -1.4811 3.46905 0
M  V30 1209 H 111.805 -1.59374 2.48363 0
M  V30 1210 H 111.886 0.172489 2.55218 0
M  V30 1211 H 111.53 0.0684754 5.07854 0
M  V30 1212 H 111.46 -1.70899 4.98098 0
M  V30 1213 H 113.951 -0.837657 3.68499 0
M  V30 1214 H 114.264 -1.09765 7.64965 0
M  V30 1215 H 112.609 -0.994026 6.87855 0
M  V30 1216 H 115.8 -0.95527 4.58249 0
M  V30 1217 H 115.973 -1.07405 6.39037 0
M  V30 1218 N 109.379 -1.50304 -0.473955 0
M  V30 1219 C 110.604 -1.65175 -1.25427 0
M  V30 1220 C 111.029 -0.333673 -1.85117 0
M  V30 1221 O 110.387 0.702114 -1.67153 0
M  V30 1222 C 110.435 -2.74295 -2.34082 0
M  V30 1223 O 109.539 -2.35349 -3.38651 0
M  V30 1224 H 108.88 -0.551944 -0.369126 0
M  V30 1225 H 111.41 -1.96662 -0.564364 0
M  V30 1226 H 111.42 -2.97285 -2.79438 0
M  V30 1227 H 110.095 -3.69959 -1.90008 0
M  V30 1228 H 108.672 -2.22794 -2.99027 0
M  V30 1229 N 110.857 0.726932 -1.39834 0
M  V30 1230 C 112.085 1.51613 -1.40787 0
M  V30 1231 C 112.5 1.88799 -0.00451505 0
M  V30 1232 O 111.857 1.54662 0.968809 0
M  V30 1233 C 111.908 2.79863 -2.28821 0
M  V30 1234 O 111.629 2.44253 -3.63692 0
M  V30 1235 C 113.13 3.73837 -2.38245 0
M  V30 1236 H 110.35 0.468264 -0.480593 0
M  V30 1237 H 112.894 0.897607 -1.83748 0
M  V30 1238 H 111.049 3.38027 -1.89252 0
M  V30 1239 H 111.463 3.26695 -4.1033 0
M  V30 1240 H 112.937 4.60699 -3.04073 0
M  V30 1241 H 113.414 4.16153 -1.40403 0
M  V30 1242 H 114.02 3.21589 -2.78317 0
M  V30 1243 N 112.336 1.25143 0.95797 0
M  V30 1244 C 113.268 1.01023 2.05735 0
M  V30 1245 C 114.281 -0.0236902 1.62783 0
M  V30 1246 O 115.47 0.21448 1.77207 0
M  V30 1247 C 112.57 0.504595 3.35122 0
M  V30 1248 C 111.743 1.6039 4.06932 0
M  V30 1249 C 110.802 1.09922 5.14591 0
M  V30 1250 O 109.828 1.79293 5.40225 0
M  V30 1251 N 111.03 -0.0612545 5.80468 0
M  V30 1252 H 113.795 1.95683 2.26998 0
M  V30 1253 H 111.356 1.16303 1.12629 0
M  V30 1254 H 113.348 0.151516 4.04416 0
M  V30 1255 H 111.918 -0.347989 3.10657 0
M  V30 1256 H 111.138 2.12872 3.31782 0
M  V30 1257 H 112.426 2.34252 4.51667 0
M  V30 1258 H 111.824 -0.640985 5.62057 0
M  V30 1259 H 110.381 -0.355395 6.5083 0
M  V30 1260 N 113.814 -1.1601 1.06675 0
M  V30 1261 C 115.062 -1.86264 0.784229 0
M  V30 1262 C 115.383 -1.82328 -0.691488 0
M  V30 1263 O 114.653 -1.25947 -1.50047 0
M  V30 1264 H 113.233 -0.689621 0.28711 0
M  V30 1265 H 115.895 -1.40664 1.34906 0
M  V30 1266 H 114.991 -2.91595 1.11259 0
M  V30 1267 N 115.292 -0.849877 -1.32721 0
M  V30 1268 C 116.52 -0.464754 -2.01613 0
M  V30 1269 C 116.935 0.937191 -1.63897 0
M  V30 1270 O 116.292 1.61081 -0.857856 0
M  V30 1271 C 116.343 -0.588638 -3.56675 0
M  V30 1272 O 116.064 -1.93535 -3.93034 0
M  V30 1273 C 117.565 -0.2019 -4.4284 0
M  V30 1274 H 114.785 -0.183215 -0.645502 0
M  V30 1275 H 117.329 -1.1455 -1.69407 0
M  V30 1276 H 115.484 0.0443159 -3.87375 0
M  V30 1277 H 115.898 -1.92871 -4.87751 0
M  V30 1278 H 117.372 -0.339599 -5.50954 0
M  V30 1279 H 117.849 0.857224 -4.30753 0
M  V30 1280 H 118.455 -0.809733 -4.17521 0
M  V30 1281 N 116.77 1.45427 -0.607355 0
M  V30 1282 C 118.016 2.0254 -0.102607 0
M  V30 1283 C 118.349 1.47478 1.26348 0
M  V30 1284 O 117.624 0.64939 1.83339 0
M  V30 1285 C 117.907 3.60044 -0.0634347 0
M  V30 1286 C 117.76 4.2544 -1.46017 0
M  V30 1287 C 119.079 4.35646 0.624514 0
M  V30 1288 H 116.198 0.73598 -0.0387607 0
M  V30 1289 H 118.84 1.73284 -0.779282 0
M  V30 1290 H 116.99 3.85101 0.512808 0
M  V30 1291 H 118.662 4.11569 -2.08347 0
M  V30 1292 H 116.905 3.83849 -2.02094 0
M  V30 1293 H 117.576 5.34342 -1.385 0
M  V30 1294 H 120.052 4.15882 0.134723 0
M  V30 1295 H 118.928 5.45376 0.621028 0
M  V30 1296 H 119.189 4.08501 1.69055 0
M  V30 1297 N 118.248 0.346503 1.53744 0
M  V30 1298 C 119.211 -0.496439 2.23759 0
M  V30 1299 C 120.211 -1.0252 1.2388 0
M  V30 1300 O 121.401 -0.913974 1.48297 0
M  V30 1301 C 118.533 -1.69187 2.95954 0
M  V30 1302 H 119.726 0.115952 2.99676 0
M  V30 1303 H 117.279 0.0978939 1.55993 0
M  V30 1304 H 118.014 -2.34288 2.24231 0
M  V30 1305 H 117.799 -1.31989 3.69217 0
M  V30 1306 H 119.289 -2.28969 3.49232 0
M  V30 1307 N 119.726 -1.57421 0.075193 0
M  V30 1308 C 120.636 -2.1642 -0.905511 0
M  V30 1309 C 121.652 -1.12828 -1.32461 0
M  V30 1310 O 122.828 -1.45109 -1.39661 0
M  V30 1311 C 119.893 -2.71693 -2.15369 0
M  V30 1312 C 118.954 -3.90171 -1.79068 0
M  V30 1313 C 118.187 -4.42798 -2.97936 0
M  V30 1314 O 118.41 -3.94416 -4.12058 0
M  V30 1315 O 117.344 -5.34085 -2.77555 0
M  V30 1316 H 121.17 -3.00588 -0.433626 0
M  V30 1317 H 118.755 -1.48664 -0.148067 0
M  V30 1318 H 120.637 -3.07104 -2.88557 0
M  V30 1319 H 119.312 -1.90582 -2.61649 0
M  V30 1320 H 118.219 -3.59606 -1.03122 0
M  V30 1321 H 119.552 -4.72584 -1.37569 0
M  V30 1322 N 121.204 0.198386 -1.56346 0
M  V30 1323 C 122.45 0.920648 -1.80698 0
M  V30 1324 C 122.783 1.83045 -0.648697 0
M  V30 1325 O 122.058 1.91308 0.350925 0
M  V30 1326 C 122.341 1.73971 -3.15287 0
M  V30 1327 C 122.194 0.85485 -4.41602 0
M  V30 1328 C 123.513 2.71296 -3.46535 0
M  V30 1329 H 120.632 0.333261 -0.657348 0
M  V30 1330 H 123.274 0.188198 -1.89066 0
M  V30 1331 H 121.424 2.36416 -3.08285 0
M  V30 1332 H 123.096 0.245362 -4.60647 0
M  V30 1333 H 121.339 0.161398 -4.335 0
M  V30 1334 H 122.01 1.46286 -5.32264 0
M  V30 1335 H 124.486 2.18983 -3.53816 0
M  V30 1336 H 123.362 3.2569 -4.41834 0
M  V30 1337 H 123.623 3.5018 -2.69864 0
M  V30 1338 N 122.682 1.50554 0.465978 0
M  V30 1339 C 123.612 1.72722 1.57128 0
M  V30 1340 C 124.593 0.576294 1.6004 0
M  V30 1341 O 125.778 0.81598 1.76225 0
M  V30 1342 C 122.908 1.82605 2.95419 0
M  V30 1343 C 121.862 2.97835 3.07373 0
M  V30 1344 C 121.188 2.92867 4.47363 0
M  V30 1345 C 122.488 4.38265 2.84114 0
M  V30 1346 H 124.182 2.65267 1.38829 0
M  V30 1347 H 121.728 1.2765 0.666441 0
M  V30 1348 H 123.681 1.96698 3.72677 0
M  V30 1349 H 122.405 0.866858 3.14886 0
M  V30 1350 H 121.064 2.83401 2.3255 0
M  V30 1351 H 120.712 1.94783 4.63755 0
M  V30 1352 H 120.412 3.70227 4.56296 0
M  V30 1353 H 121.936 3.09015 5.26633 0
M  V30 1354 H 123.35 4.53198 3.51118 0
M  V30 1355 H 121.747 5.17115 3.04487 0
M  V30 1356 H 122.817 4.50281 1.7993 0
M  V30 1357 N 124.16 -0.719506 1.40217 0
M  V30 1358 C 125.408 -1.47641 1.3801 0
M  V30 1359 C 125.729 -1.94992 -0.018145 0
M  V30 1360 O 124.999 -1.70073 -0.972207 0
M  V30 1361 H 123.579 -0.547744 0.507923 0
M  V30 1362 H 126.241 -0.853187 1.75233 0
M  V30 1363 H 125.337 -2.35112 2.05253 0
M  V30 1364 N 125.638 -1.25649 -0.95132 0
M  V30 1365 C 126.585 -1.06323 -2.04851 0
M  V30 1366 C 127.555 0.0286491 -1.66075 0
M  V30 1367 O 128.74 -0.12917 -1.90362 0
M  V30 1368 C 125.88 -0.691529 -3.381 0
M  V30 1369 C 124.993 -1.85861 -3.89974 0
M  V30 1370 C 124.128 -1.43096 -5.11563 0
M  V30 1371 C 123.167 -2.56696 -5.55674 0
M  V30 1372 N 122.304 -2.14684 -6.68472 0
M  V30 1373 H 127.144 -2.00222 -2.20715 0
M  V30 1374 H 124.681 -0.997027 -1.08156 0
M  V30 1375 H 126.639 -0.456963 -4.1469 0
M  V30 1376 H 125.269 0.210474 -3.22113 0
M  V30 1377 H 124.321 -2.20639 -3.09875 0
M  V30 1378 H 125.633 -2.71161 -4.18657 0
M  V30 1379 H 124.787 -1.15624 -5.9558 0
M  V30 1380 H 123.526 -0.548722 -4.84603 0
M  V30 1381 H 122.531 -2.84909 -4.7022 0
M  V30 1382 H 123.756 -3.45503 -5.8464 0
M  V30 1383 H 121.702 -1.28881 -6.43215 0
M  V30 1384 H 121.619 -2.9353 -6.96689 0
M  V30 1385 H 122.887 -1.90397 -7.5589 0
M  V30 1386 N 127.117 1.15442 -1.07289 0
M  V30 1387 C 128.394 1.82306 -0.708792 0
M  V30 1388 C 128.774 1.94991 0.808807 0
M  V30 1389 O 128.122 1.50085 1.72298 0
M  V30 1390 C 128.332 3.18695 -1.42247 0
M  V30 1391 C 129.68 3.94341 -1.57417 0
M  V30 1392 O 130.704 3.28247 -1.38319 0
M  V30 1393 O 129.563 5.12839 -1.88834 0
M  V30 1394 H 126.657 0.787628 -0.252132 0
M  V30 1395 H 129.203 1.22559 -1.17377 0
M  V30 1396 H 127.975 3.04557 -2.45684 0
M  V30 1397 H 127.598 3.86128 -0.948223 0
M  V30 1398 N 128.595 0.856903 1.32268 0
M  V30 1399 C 129.842 0.461386 1.97174 0
M  V30 1400 C 130.17 -0.983491 1.67803 0
M  V30 1401 O 129.425 -1.70541 0.959903 0
M  V30 1402 C 129.724 0.649919 3.51441 0
M  V30 1403 C 129.39 2.0656 4.00804 0
M  V30 1404 C 128.052 2.45279 4.13995 0
M  V30 1405 C 130.404 2.98947 4.26943 0
M  V30 1406 C 127.732 3.75653 4.50668 0
M  V30 1407 C 130.084 4.28822 4.65075 0
M  V30 1408 C 128.748 4.67472 4.76472 0
M  V30 1409 H 128.018 0.168833 0.72151 0
M  V30 1410 H 130.665 1.08739 1.57633 0
M  V30 1411 H 128.97 -0.0593018 3.91755 0
M  V30 1412 H 130.667 0.32391 3.9969 0
M  V30 1413 H 127.257 1.75495 3.91024 0
M  V30 1414 H 131.441 2.70265 4.16258 0
M  V30 1415 H 126.697 4.05379 4.57688 0
M  V30 1416 H 130.871 5.0047 4.84255 0
M  V30 1417 H 128.498 5.68539 5.04646 0
M  V30 1418 N 130.073 -1.45103 0.615059 0
M  V30 1419 C 131.319 -2.02483 0.113347 0
M  V30 1420 C 131.652 -1.48146 -1.25564 0
M  V30 1421 O 130.927 -0.659104 -1.82992 0
M  V30 1422 C 131.21 -3.60005 0.0825278 0
M  V30 1423 C 131.063 -4.2466 1.48271 0
M  V30 1424 C 132.382 -4.35972 -0.601401 0
M  V30 1425 H 129.501 -0.735764 0.0426632 0
M  V30 1426 H 132.143 -1.72868 0.788461 0
M  V30 1427 H 130.293 -3.85367 -0.492378 0
M  V30 1428 H 131.965 -4.10458 2.10527 0
M  V30 1429 H 130.208 -3.82772 2.04127 0
M  V30 1430 H 130.879 -5.336 1.41332 0
M  V30 1431 H 133.355 -4.15947 -0.112666 0
M  V30 1432 H 132.231 -5.45697 -0.592097 0
M  V30 1433 H 132.492 -4.09391 -1.66887 0
M  V30 1434 N 131.551 -0.354651 -1.53558 0
M  V30 1435 C 132.498 0.496968 -2.25386 0
M  V30 1436 C 133.468 1.0865 -1.25636 0
M  V30 1437 O 134.653 1.12104 -1.54394 0
M  V30 1438 C 131.793 1.63637 -3.03837 0
M  V30 1439 C 130.906 1.07307 -4.18461 0
M  V30 1440 C 130.041 2.18068 -4.84376 0
M  V30 1441 C 129.08 1.59147 -5.91049 0
M  V30 1442 N 128.217 2.63695 -6.50699 0
M  V30 1443 H 133.057 -0.122075 -2.9775 0
M  V30 1444 H 130.594 -0.0720154 -1.46924 0
M  V30 1445 H 132.552 2.30734 -3.47589 0
M  V30 1446 H 131.182 2.22623 -2.33749 0
M  V30 1447 H 130.234 0.292708 -3.79272 0
M  V30 1448 H 131.546 0.602193 -4.95152 0
M  V30 1449 H 130.7 2.93007 -5.31255 0
M  V30 1450 H 129.439 2.68504 -4.07133 0
M  V30 1451 H 128.444 0.827175 -5.43542 0
M  V30 1452 H 129.669 1.09549 -6.70206 0
M  V30 1453 H 127.615 3.13365 -5.76315 0
M  V30 1454 H 127.532 2.21263 -7.22896 0
M  V30 1455 H 128.8 3.3837 -7.02229 0
M  V30 1456 N 133.029 1.57378 -0.0835403 0
M  V30 1457 C 134.276 1.9393 0.58287 0
M  V30 1458 C 134.604 0.964455 1.68904 0
M  V30 1459 O 133.859 -0.0179474 1.95692 0
M  V30 1460 C 134.158 3.37063 1.1884 0
M  V30 1461 C 133.824 4.50424 0.207194 0
M  V30 1462 C 132.486 4.81159 -0.0627115 0
M  V30 1463 C 134.838 5.19136 -0.463426 0
M  V30 1464 C 132.166 5.77939 -1.01012 0
M  V30 1465 C 134.518 6.16931 -1.39924 0
M  V30 1466 C 133.182 6.46078 -1.67749 0
M  V30 1467 H 132.452 0.70964 0.213287 0
M  V30 1468 H 135.099 1.90856 -0.156916 0
M  V30 1469 H 133.404 3.3666 2.00418 0
M  V30 1470 H 135.101 3.6264 1.71153 0
M  V30 1471 H 131.691 4.2646 0.427747 0
M  V30 1472 H 135.875 4.95576 -0.268034 0
M  V30 1473 H 131.131 5.98842 -1.23283 0
M  V30 1474 H 135.305 6.69273 -1.92476 0
M  V30 1475 H 132.932 7.2088 -2.41321 0
M  V30 1476 N 134.507 -0.190092 1.56449 0
M  V30 1477 C 135.784 -0.935886 1.71757 0
M  V30 1478 C 136.164 -2.01173 0.639726 0
M  V30 1479 O 135.512 -2.25827 -0.348502 0
M  V30 1480 C 135.722 -1.51775 3.1427 0
M  V30 1481 C 137.07 -1.99794 3.74656 0
M  V30 1482 O 138.094 -1.61607 3.1743 0
M  V30 1483 O 136.953 -2.70079 4.751 0
M  V30 1484 H 134.047 -0.439229 0.700719 0
M  V30 1485 H 136.593 -0.179395 1.68749 0
M  V30 1486 H 135.365 -0.742505 3.84191 0
M  V30 1487 H 134.988 -2.33894 3.21527 0
M  V30 1488 N 135.985 -1.50799 -0.457987 0
M  V30 1489 C 136.932 -1.70617 -1.5543 0
M  V30 1490 C 137.902 -0.547562 -1.56815 0
M  V30 1491 O 139.087 -0.779647 -1.74144 0
M  V30 1492 C 136.227 -1.81831 -2.93311 0
M  V30 1493 C 135.34 -3.09278 -3.01615 0
M  V30 1494 C 134.475 -3.11209 -4.30491 0
M  V30 1495 C 133.514 -4.33055 -4.32585 0
M  V30 1496 N 132.651 -4.32652 -5.52952 0
M  V30 1497 H 137.491 -2.64207 -1.37836 0
M  V30 1498 H 135.028 -1.30959 -0.669937 0
M  V30 1499 H 136.986 -1.86314 -3.73287 0
M  V30 1500 H 135.616 -0.916685 -3.0951 0
M  V30 1501 H 134.668 -3.14203 -2.1443 0
M  V30 1502 H 135.98 -3.99233 -2.99022 0
M  V30 1503 H 135.134 -3.14494 -5.18824 0
M  V30 1504 H 133.873 -2.19106 -4.35711 0
M  V30 1505 H 132.878 -4.29969 -3.42647 0
M  V30 1506 H 134.103 -5.264 -4.29046 0
M  V30 1507 H 132.049 -3.43409 -5.58933 0
M  V30 1508 H 131.966 -5.16392 -5.52155 0
M  V30 1509 H 133.234 -4.40101 -6.43375 0
M  V30 1510 N 137.463 0.71206 -1.40597 0
M  V30 1511 C 138.74 1.46536 -1.29563 0
M  V30 1512 C 139.12 2.10931 0.0844217 0
M  V30 1513 O 138.468 2.00418 1.0975 0
M  V30 1514 C 138.678 2.49821 -2.43701 0
M  V30 1515 C 140.026 3.15551 -2.841 0
M  V30 1516 O 141.05 2.60142 -2.4332 0
M  V30 1517 O 139.909 4.15867 -3.54566 0
M  V30 1518 H 137.003 0.651801 -0.509004 0
M  V30 1519 H 139.549 0.743935 -1.52524 0
M  V30 1520 H 138.321 2.00778 -3.35863 0
M  V30 1521 H 137.944 3.29495 -2.22528 0
M  V30 1522 N 138.941 1.26152 0.944643 0
M  V30 1523 C 140.19 1.10883 1.68487 0
M  V30 1524 C 140.503 -0.348153 1.92477 0
M  V30 1525 O 141.709 -0.621459 2.64292 0
M  V30 1526 C 140.165 1.93624 3.03377 0
M  V30 1527 C 139.773 3.43875 2.87148 0
M  V30 1528 C 141.517 1.86954 3.81115 0
M  V30 1529 C 139.424 4.18875 4.1749 0
M  V30 1530 H 138.354 0.41135 0.631907 0
M  V30 1531 H 141.005 1.50433 1.05082 0
M  V30 1532 H 139.387 1.46904 3.67743 0
M  V30 1533 H 140.561 3.98338 2.31653 0
M  V30 1534 H 138.876 3.51744 2.22856 0
M  V30 1535 H 141.473 2.40275 4.77673 0
M  V30 1536 H 141.816 0.839518 4.07747 0
M  V30 1537 H 142.349 2.31477 3.23517 0
M  V30 1538 H 139.088 5.22332 3.96043 0
M  V30 1539 H 138.608 3.69193 4.72712 0
M  V30 1540 H 140.287 4.27134 4.85968 0
M  V30 1541 N 140.419 -1.14872 1.07899 0
M  V30 1542 C 141.835 -1.37776 0.805606 0
M  V30 1543 C 142.035 -1.92743 -0.587555 0
M  V30 1544 O 141.091 -2.13678 -1.34528 0
M  V30 1545 C 142.404 -2.34361 1.88402 0
M  V30 1546 C 143.952 -2.48012 1.90942 0
M  V30 1547 C 144.427 -3.47893 2.97883 0
M  V30 1548 N 145.918 -3.55433 2.97021 0
M  V30 1549 C 146.653 -4.32553 3.76412 0
M  V30 1550 N 146.149 -5.12959 4.65666 0
M  V30 1551 N 147.942 -4.27697 3.64735 0
M  V30 1552 H 140.093 -0.775365 1.97742 0
M  V30 1553 H 142.356 -0.403521 0.857831 0
M  V30 1554 H 142.062 -2.01098 2.88535 0
M  V30 1555 H 141.936 -3.34206 1.74889 0
M  V30 1556 H 144.323 -2.8057 0.914579 0
M  V30 1557 H 144.404 -1.48147 2.08534 0
M  V30 1558 H 144.048 -3.16069 3.97571 0
M  V30 1559 H 143.978 -4.47527 2.77538 0
M  V30 1560 H 146.469 -2.98048 2.32326 0
M  V30 1561 H 146.782 -5.69065 5.22862 0
M  V30 1562 H 145.127 -5.12245 4.69712 0
M  V30 1563 H 148.318 -3.63949 2.94378 0
M  V30 1564 H 148.491 -4.8755 4.26848 0
M  V30 1565 N 141.898 -0.863906 -1.31812 0
M  V30 1566 C 143.314 -0.555004 -1.49639 0
M  V30 1567 C 143.514 0.912266 -1.79666 0
M  V30 1568 O 142.57 1.69479 -1.87171 0
M  V30 1569 C 143.883 -1.44998 -2.63431 0
M  V30 1570 C 145.431 -1.45138 -2.77316 0
M  V30 1571 C 145.906 -2.33179 -3.94197 0
M  V30 1572 N 147.397 -2.31025 -4.01474 0
M  V30 1573 C 148.132 -2.95871 -4.9117 0
M  V30 1574 N 147.628 -3.69863 -5.8581 0
M  V30 1575 N 149.421 -2.85211 -4.84367 0
M  V30 1576 H 141.572 -1.81339 -1.10589 0
M  V30 1577 H 143.835 -0.77505 -0.545895 0
M  V30 1578 H 143.541 -2.49377 -2.48 0
M  V30 1579 H 143.415 -1.14409 -3.59431 0
M  V30 1580 H 145.802 -0.415201 -2.92164 0
M  V30 1581 H 145.883 -1.79747 -1.82001 0
M  V30 1582 H 145.527 -3.3687 -3.80107 0
M  V30 1583 H 145.457 -1.95897 -4.88807 0
M  V30 1584 H 147.948 -1.77238 -3.33759 0
M  V30 1585 H 148.261 -4.16486 -6.50968 0
M  V30 1586 H 146.606 -3.73971 -5.85808 0
M  V30 1587 H 149.797 -2.26948 -4.09405 0
M  V30 1588 H 149.97 -3.36027 -5.54066 0
M  V30 1589 N 143.376 1.44774 -0.622745 0
M  V30 1590 C 144.324 2.32387 0.0994683 0
M  V30 1591 C 145.318 1.46859 0.844326 0
M  V30 1592 O 146.524 1.63254 0.758174 0
M  V30 1593 H 142.899 0.750273 0.0509291 0
M  V30 1594 H 144.87 2.91062 -0.65767 0
M  V30 1595 C 143.619 3.30723 1.07319 0
M  V30 1596 H 142.942 3.96541 0.509462 0
M  V30 1597 H 144.382 3.94725 1.54817 0
M  V30 1598 C 142.841 2.59021 2.15429 0
M  V30 1599 O 143.371 2.38286 3.23393 0
M  V30 1600 N 141.577 2.189 1.91131 0
M  V30 1601 H 141.124 2.35964 1.03337 0
M  V30 1602 H 141.082 1.71251 2.63668 0
M  V30 1603 N 144.854 0.36279 1.53368 0
M  V30 1604 C 146.084 -0.228281 2.05335 0
M  V30 1605 C 146.492 -1.43226 1.23625 0
M  V30 1606 O 145.835 -1.81717 0.269206 0
M  V30 1607 C 145.897 -0.688549 3.52845 0
M  V30 1608 C 145.561 0.398362 4.5526 0
M  V30 1609 C 146.558 1.24732 5.04716 0
M  V30 1610 C 144.243 0.557805 4.99193 0
M  V30 1611 C 146.237 2.2411 5.96702 0
M  V30 1612 C 143.924 1.55495 5.90986 0
M  V30 1613 C 144.922 2.39503 6.39631 0
M  V30 1614 O 144.61 3.37517 7.29615 0
M  V30 1615 H 144.342 -0.044395 0.674541 0
M  V30 1616 H 146.896 0.518668 1.98744 0
M  V30 1617 H 145.126 -1.48706 3.56964 0
M  V30 1618 H 146.815 -1.20231 3.87685 0
M  V30 1619 H 147.581 1.13532 4.71525 0
M  V30 1620 H 143.46 -0.0862959 4.60919 0
M  V30 1621 H 147.004 2.89718 6.34594 0
M  V30 1622 H 142.901 1.66744 6.23592 0
M  V30 1623 H 143.669 3.33213 7.47604 0
M  V30 1624 N 146.332 -1.57332 0.0918853 0
M  V30 1625 C 147.578 -1.95328 -0.567313 0
M  V30 1626 C 147.933 -0.972866 -1.65991 0
M  V30 1627 O 147.226 0.00166256 -1.916 0
M  V30 1628 C 147.42 -3.37689 -1.17051 0
M  V30 1629 C 147.249 -4.49489 -0.137875 0
M  V30 1630 C 146.019 -5.04498 0.284515 0
M  V30 1631 C 148.217 -5.10393 0.63271 0
M  V30 1632 N 146.199 -5.99853 1.30576 0
M  V30 1633 C 147.57 -6.01435 1.50587 0
M  V30 1634 C 149.625 -4.93143 0.68658 0
M  V30 1635 C 148.328 -6.77077 2.42815 0
M  V30 1636 C 150.354 -5.69445 1.59645 0
M  V30 1637 C 149.716 -6.60151 2.45725 0
M  V30 1638 H 145.815 -0.761467 -0.178023 0
M  V30 1639 H 148.399 -1.93924 0.173706 0
M  V30 1640 H 146.57 -3.39793 -1.88136 0
M  V30 1641 H 148.302 -3.62872 -1.79181 0
M  V30 1642 H 145.057 -4.73489 -0.102593 0
M  V30 1643 H 145.481 -6.52231 1.81449 0
M  V30 1644 H 150.123 -4.22785 0.035244 0
M  V30 1645 H 147.841 -7.46699 3.08975 0
M  V30 1646 H 151.427 -5.58112 1.64323 0
M  V30 1647 H 150.307 -7.18159 3.14987 0
M  V30 1648 N 147.81 0.181792 -1.56548 0
M  V30 1649 C 149.221 0.745244 -1.71181 0
M  V30 1650 C 149.572 1.83262 -0.70068 0
M  V30 1651 O 148.697 2.15946 0.140154 0
M  V30 1652 C 149.292 1.35859 -3.10367 0
M  V30 1653 C 147.851 1.86898 -3.2672 0
M  V30 1654 C 146.998 0.743942 -2.67134 0
M  V30 1655 H 149.949 -0.0434661 -1.5864 0
M  V30 1656 H 149.97 2.22817 -3.08436 0
M  V30 1657 H 149.482 0.566948 -3.83937 0
M  V30 1658 H 147.583 2.68738 -2.5809 0
M  V30 1659 H 147.696 2.02162 -4.34359 0
M  V30 1660 H 146.06 1.16169 -2.26665 0
M  V30 1661 H 146.843 -0.035676 -3.43281 0
M  V30 1662 N 149.288 1.51039 0.449983 0
M  V30 1663 C 150.565 1.53612 1.21089 0
M  V30 1664 C 150.945 0.292997 2.09057 0
M  V30 1665 O 150.293 -0.72259 2.16774 0
M  V30 1666 C 150.503 2.84337 2.0237 0
M  V30 1667 C 151.851 3.35807 2.59843 0
M  V30 1668 O 152.875 2.85802 2.12593 0
M  V30 1669 O 151.734 4.23029 3.45989 0
M  V30 1670 H 148.828 0.617057 0.550608 0
M  V30 1671 H 151.374 1.63344 0.460082 0
M  V30 1672 H 150.146 3.66278 1.37681 0
M  V30 1673 H 149.769 2.77708 2.84542 0
M  V30 1674 N 150.766 -0.704594 1.40972 0
M  V30 1675 C 151.729 -1.80035 1.41845 0
M  V30 1676 C 152.729 -1.57774 0.310474 0
M  V30 1677 O 153.919 -1.64613 0.56992 0
M  V30 1678 C 151.051 -3.18284 1.22098 0
M  V30 1679 H 152.244 -1.80658 2.3938 0
M  V30 1680 H 149.797 -0.911329 1.26982 0
M  V30 1681 H 150.532 -3.23306 0.253672 0
M  V30 1682 H 150.317 -3.35843 2.02366 0
M  V30 1683 H 151.807 -3.98289 1.25522 0
M  V30 1684 N 152.244 -1.26651 -0.937939 0
M  V30 1685 C 153.493 -1.11775 -1.67897 0
M  V30 1686 C 153.806 0.33794 -1.92659 0
M  V30 1687 O 155.012 0.607434 -2.64618 0
M  V30 1688 C 153.468 -1.9523 -3.02346 0
M  V30 1689 C 153.076 -3.45393 -2.8532 0
M  V30 1690 C 154.82 -1.88972 -3.80118 0
M  V30 1691 C 152.727 -4.21083 -4.15263 0
M  V30 1692 H 151.657 -0.414696 -0.629717 0
M  V30 1693 H 154.308 -1.50988 -1.04283 0
M  V30 1694 H 152.69 -1.48853 -3.66959 0
M  V30 1695 H 153.864 -3.99561 -2.29537 0
M  V30 1696 H 152.179 -3.52921 -2.20988 0
M  V30 1697 H 154.776 -2.42805 -4.76392 0
M  V30 1698 H 155.119 -0.86113 -4.07296 0
M  V30 1699 H 155.652 -2.33189 -3.22285 0
M  V30 1700 H 152.391 -5.24425 -3.93267 0
M  V30 1701 H 151.911 -3.71695 -4.70747 0
M  V30 1702 H 153.59 -4.29706 -4.83696 0
M  V30 1703 N 153.722 1.14298 -1.08507 0
M  V30 1704 C 155.138 1.37347 -0.812901 0
M  V30 1705 C 155.338 1.93052 0.577325 0
M  V30 1706 O 154.394 2.14389 1.33393 0
M  V30 1707 C 155.707 2.33359 -1.89642 0
M  V30 1708 C 157.255 2.46996 -1.92255 0
M  V30 1709 C 157.73 3.46309 -2.99724 0
M  V30 1710 N 159.221 3.53853 -2.98902 0
M  V30 1711 C 159.956 4.3055 -3.787 0
M  V30 1712 N 159.452 5.10482 -4.6838 0
M  V30 1713 N 161.245 4.25757 -3.66998 0
M  V30 1714 H 153.396 0.764867 -1.9815 0
M  V30 1715 H 155.659 0.398966 -0.859959 0
M  V30 1716 H 155.365 1.99565 -2.89597 0
M  V30 1717 H 155.239 3.33274 -1.76659 0
M  V30 1718 H 157.626 2.80081 -0.929445 0
M  V30 1719 H 157.707 1.47039 -2.09316 0
M  V30 1720 H 157.351 3.13957 -3.99241 0
M  V30 1721 H 157.281 4.46049 -2.79907 0
M  V30 1722 H 159.772 2.96812 -2.33904 0
M  V30 1723 H 160.085 5.66284 -5.25873 0
M  V30 1724 H 158.43 5.09747 -4.72422 0
M  V30 1725 H 161.621 3.62383 -2.96304 0
M  V30 1726 H 161.794 4.85279 -4.29427 0
M  V30 1727 N 155.201 0.870884 1.31352 0
M  V30 1728 C 156.164 0.332243 2.26779 0
M  V30 1729 C 157.164 -0.517302 1.52252 0
M  V30 1730 O 158.354 -0.326477 1.71113 0
M  V30 1731 C 155.486 -0.528066 3.36785 0
M  V30 1732 H 156.679 1.17469 2.75937 0
M  V30 1733 H 154.232 0.64655 1.423 0
M  V30 1734 H 154.967 -1.39167 2.92922 0
M  V30 1735 H 154.752 0.0802582 3.92018 0
M  V30 1736 H 156.242 -0.897179 4.07849 0
M  V30 1737 N 156.679 -1.44442 0.630414 0
M  V30 1738 C 157.611 -2.2892 -0.113347 0
M  V30 1739 C 158.624 -1.41243 -0.80959 0
M  V30 1740 O 159.813 -1.65402 -0.671156 0
M  V30 1741 C 156.913 -3.17594 -1.18266 0
M  V30 1742 C 156.086 -4.33682 -0.569073 0
M  V30 1743 C 155.145 -5.03397 -1.53226 0
M  V30 1744 O 154.171 -5.59438 -1.04967 0
M  V30 1745 N 155.373 -5.04783 -2.86661 0
M  V30 1746 H 158.138 -2.93392 0.611636 0
M  V30 1747 H 155.699 -1.54881 0.471523 0
M  V30 1748 H 157.691 -3.61097 -1.82732 0
M  V30 1749 H 156.261 -2.54876 -1.80988 0
M  V30 1750 H 155.481 -3.9338 0.254187 0
M  V30 1751 H 156.769 -5.08608 -0.139767 0
M  V30 1752 H 156.167 -4.60584 -3.28449 0
M  V30 1753 H 154.724 -5.52077 -3.46489 0
M  V30 1754 N 158.157 -0.370918 -1.53173 0
M  V30 1755 C 159.406 0.218249 -2.00516 0
M  V30 1756 C 159.719 1.49429 -1.26215 0
M  V30 1757 O 160.925 2.16239 -1.64174 0
M  V30 1758 C 159.381 0.43948 -3.57207 0
M  V30 1759 C 158.989 -0.822244 -4.4039 0
M  V30 1760 C 160.733 0.986012 -4.1289 0
M  V30 1761 C 158.64 -0.570304 -5.88644 0
M  V30 1762 H 157.57 0.0853333 -0.749156 0
M  V30 1763 H 160.221 -0.490483 -1.76823 0
M  V30 1764 H 158.603 1.20961 -3.77074 0
M  V30 1765 H 159.777 -1.59557 -4.32294 0
M  V30 1766 H 158.092 -1.29238 -3.95836 0
M  V30 1767 H 160.689 1.18991 -5.21292 0
M  V30 1768 H 161.032 1.94972 -3.6782 0
M  V30 1769 H 161.565 0.27592 -3.96842 0
M  V30 1770 H 158.304 -1.50449 -6.38001 0
M  V30 1771 H 157.824 0.164427 -5.99575 0
M  V30 1772 H 159.503 -0.19784 -6.46697 0
M  V30 1773 N 159.635 1.57281 -0.100228 0
M  V30 1774 C 160.598 2.13158 0.842398 0
M  V30 1775 C 161.598 1.06202 1.20738 0
M  V30 1776 O 162.788 1.32066 1.13597 0
M  V30 1777 C 159.92 2.65639 2.13655 0
M  V30 1778 H 161.113 2.97766 0.357114 0
M  V30 1779 H 158.666 1.5559 0.148823 0
M  V30 1780 H 159.401 1.84566 2.66657 0
M  V30 1781 H 159.186 3.43844 1.88451 0
M  V30 1782 H 160.676 3.08846 2.81077 0
M  V30 1783 N 161.113 -0.173488 1.56642 0
M  V30 1784 C 162.076 -1.19859 1.95362 0
M  V30 1785 C 163.076 -1.37296 0.83704 0
M  V30 1786 O 164.266 -1.34739 1.10413 0
M  V30 1787 C 161.398 -2.56405 2.24654 0
M  V30 1788 H 162.591 -0.867062 2.87092 0
M  V30 1789 H 160.144 -0.415853 1.50666 0
M  V30 1790 H 160.879 -2.94576 1.35631 0
M  V30 1791 H 160.664 -2.45115 3.06041 0
M  V30 1792 H 162.154 -3.30287 2.5554 0
M  V30 1793 N 162.591 -1.51276 -0.441967 0
M  V30 1794 C 163.521 -1.752 -1.54361 0
M  V30 1795 C 164.502 -0.601682 -1.59103 0
M  V30 1796 O 165.687 -0.843913 -1.74905 0
M  V30 1797 C 162.817 -1.87282 -2.92477 0
M  V30 1798 C 161.771 -3.02687 -3.02596 0
M  V30 1799 C 161.097 -2.99947 -4.42647 0
M  V30 1800 C 162.397 -4.4273 -2.77106 0
M  V30 1801 H 164.091 -2.67442 -1.34592 0
M  V30 1802 H 161.637 -1.28694 -0.646048 0
M  V30 1803 H 163.59 -2.02602 -3.695 0
M  V30 1804 H 162.314 -0.916844 -3.13467 0
M  V30 1805 H 160.973 -2.87065 -2.28012 0
M  V30 1806 H 160.621 -2.02136 -4.60597 0
M  V30 1807 H 160.321 -3.77439 -4.50348 0
M  V30 1808 H 161.845 -3.17354 -5.2165 0
M  V30 1809 H 163.259 -4.58727 -3.43864 0
M  V30 1810 H 161.656 -5.21893 -2.96222 0
M  V30 1811 H 162.726 -4.53087 -1.72744 0
M  V30 1812 N 164.069 0.697108 -1.41344 0
M  V30 1813 C 165.294 1.49096 -1.44171 0
M  V30 1814 C 165.719 1.88038 -0.0481568 0
M  V30 1815 O 165.077 1.54525 0.948243 0
M  V30 1816 C 165.125 2.73088 -2.3549 0
M  V30 1817 O 164.229 3.70514 -1.81088 0
M  V30 1818 H 163.57 0.448801 -0.489361 0
M  V30 1819 H 166.1 0.856992 -1.85787 0
M  V30 1820 H 166.11 3.21413 -2.51312 0
M  V30 1821 H 164.785 2.44081 -3.36745 0
M  V30 1822 H 163.362 3.29441 -1.74708 0
M  V30 1823 N 165.547 1.27147 0.931209 0
M  V30 1824 C 166.958 1.12044 1.49342 0
M  V30 1825 C 167.309 -0.295795 1.93957 0
M  V30 1826 O 166.434 -1.18835 1.80852 0
M  V30 1827 C 167.029 2.02781 2.71414 0
M  V30 1828 C 165.588 1.91794 3.2387 0
M  V30 1829 C 164.735 1.95543 1.96617 0
M  V30 1830 H 167.686 1.40091 0.745672 0
M  V30 1831 H 167.707 1.58156 3.46074 0
M  V30 1832 H 167.219 3.05848 2.38911 0
M  V30 1833 H 165.32 0.916992 3.6114 0
M  V30 1834 H 165.433 2.77852 3.90302 0
M  V30 1835 H 163.797 1.39722 2.12955 0
M  V30 1836 H 164.58 3.00259 1.66432 0
M  V30 1837 N 167.025 -1.13721 1.09112 0
M  V30 1838 C 167.935 -2.22638 0.73957 0
M  V30 1839 C 168.951 -1.72091 -0.257068 0
M  V30 1840 O 170.127 -2.01155 -0.0992154 0
M  V30 1841 C 167.192 -3.46322 0.16191 0
M  V30 1842 C 166.253 -4.11775 1.21408 0
M  V30 1843 C 165.486 -5.29555 0.663891 0
M  V30 1844 O 165.709 -5.68077 -0.514274 0
M  V30 1845 O 164.643 -5.84973 1.41738 0
M  V30 1846 H 168.469 -2.55074 1.64836 0
M  V30 1847 H 166.054 -1.21791 0.865289 0
M  V30 1848 H 167.936 -4.21107 -0.157073 0
M  V30 1849 H 166.611 -3.15593 -0.719932 0
M  V30 1850 H 165.518 -3.3883 1.58571 0
M  V30 1851 H 166.851 -4.46627 2.06845 0
M  V30 1852 N 168.503 -0.877838 -1.30888 0
M  V30 1853 C 169.78 -0.413052 -1.91189 0
M  V30 1854 C 170.16 1.1056 -1.79832 0
M  V30 1855 O 169.508 1.93771 -1.21099 0
M  V30 1856 C 169.718 -0.903191 -3.3711 0
M  V30 1857 C 171.066 -0.93395 -4.14201 0
M  V30 1858 O 172.09 -0.849373 -3.45925 0
M  V30 1859 O 170.949 -1.05772 -5.36167 0
M  V30 1860 H 168.043 -0.125035 -0.817493 0
M  V30 1861 H 170.589 -0.966269 -1.39504 0
M  V30 1862 H 169.361 -1.94692 -3.39427 0
M  V30 1863 H 168.984 -0.328732 -3.96239 0
M  V30 1864 N 169.982 1.44106 -0.638065 0
M  V30 1865 C 170.915 2.27924 0.112161 0
M  V30 1866 C 171.893 1.38945 0.844574 0
M  V30 1867 O 173.077 1.68386 0.847248 0
M  V30 1868 C 170.204 3.18029 1.16512 0
M  V30 1869 C 169.25 4.23163 0.532458 0
M  V30 1870 S 170.083 5.31131 -0.682666 0
M  V30 1871 C 171.239 6.24805 0.37013 0
M  V30 1872 H 171.472 2.91205 -0.598887 0
M  V30 1873 H 169.005 1.48394 -0.426441 0
M  V30 1874 H 170.963 3.70492 1.76766 0
M  V30 1875 H 169.624 2.53955 1.8484 0
M  V30 1876 H 168.817 4.86252 1.32571 0
M  V30 1877 H 168.419 3.74 0.00437644 0
M  V30 1878 H 170.711 6.66042 1.24071 0
M  V30 1879 H 171.654 7.07741 -0.225349 0
M  V30 1880 H 172.062 5.60154 0.699141 0
M  V30 1881 N 171.46 0.379036 1.52974 0
M  V30 1882 C 172.685 -0.209353 2.06341 0
M  V30 1883 C 173.11 -1.40583 1.24972 0
M  V30 1884 O 172.468 -1.79246 0.272155 0
M  V30 1885 C 172.516 -0.567786 3.56102 0
M  V30 1886 O 171.62 -1.66318 3.77375 0
M  V30 1887 H 170.961 -0.0272919 0.663439 0
M  V30 1888 H 173.491 0.543536 1.97248 0
M  V30 1889 H 173.501 -0.835003 3.99364 0
M  V30 1890 H 172.176 0.307013 4.14765 0
M  V30 1891 H 170.753 -1.39048 3.46006 0
M  V30 1892 N 172.938 -1.57226 0.108567 0
M  V30 1893 C 174.187 -1.94008 -0.551703 0
M  V30 1894 C 174.5 -0.993442 -1.68494 0
M  V30 1895 O 175.706 -1.25551 -2.40726 0
M  V30 1896 C 174.162 -3.44763 -1.03279 0
M  V30 1897 C 173.77 -4.47943 0.0714193 0
M  V30 1898 C 175.514 -3.90483 -1.66503 0
M  V30 1899 C 173.421 -5.89865 -0.425779 0
M  V30 1900 H 172.351 -0.724206 -0.209863 0
M  V30 1901 H 175.002 -1.82547 0.186741 0
M  V30 1902 H 173.384 -3.51422 -1.82533 0
M  V30 1903 H 174.558 -4.52942 0.847365 0
M  V30 1904 H 172.873 -4.11913 0.609669 0
M  V30 1905 H 175.47 -4.93925 -2.04798 0
M  V30 1906 H 175.813 -3.29877 -2.53942 0
M  V30 1907 H 176.346 -3.86581 -0.938074 0
M  V30 1908 H 173.085 -6.54202 0.412316 0
M  V30 1909 H 172.605 -5.88309 -1.16843 0
M  V30 1910 H 174.284 -6.40844 -0.890397 0
M  V30 1911 N 174.416 0.165178 -1.56732 0
M  V30 1912 C 175.346 1.20651 -1.99914 0
M  V30 1913 C 176.327 1.45827 -0.875705 0
M  V30 1914 O 177.512 1.57057 -1.14223 0
M  V30 1915 C 174.642 2.54401 -2.36427 0
M  V30 1916 C 173.596 2.43782 -3.51787 0
M  V30 1917 C 172.922 3.82078 -3.7406 0
M  V30 1918 C 174.222 1.93732 -4.85041 0
M  V30 1919 H 175.916 0.847534 -2.87154 0
M  V30 1920 H 173.462 0.40625 -1.38151 0
M  V30 1921 H 175.415 3.27458 -2.65234 0
M  V30 1922 H 174.139 2.92098 -1.46103 0
M  V30 1923 H 172.798 1.73178 -3.23117 0
M  V30 1924 H 172.446 4.17179 -2.81017 0
M  V30 1925 H 172.146 3.7584 -4.51684 0
M  V30 1926 H 173.67 4.56712 -4.05274 0
M  V30 1927 H 175.084 2.56569 -5.12684 0
M  V30 1928 H 173.481 1.98428 -5.66345 0
M  V30 1929 H 174.551 0.891962 -4.76626 0
M  V30 1930 N 175.894 1.51508 0.433938 0
M  V30 1931 C 176.826 1.69266 1.54537 0
M  V30 1932 C 177.839 0.573276 1.52373 0
M  V30 1933 O 179.028 0.847698 1.57087 0
M  V30 1934 C 176.128 1.69524 2.93453 0
M  V30 1935 C 175.301 2.98101 3.20085 0
M  V30 1936 C 174.36 2.90502 4.38742 0
M  V30 1937 O 173.386 3.64442 4.3723 0
M  V30 1938 N 174.588 2.06586 5.42496 0
M  V30 1939 H 177.353 2.65145 1.39708 0
M  V30 1940 H 174.914 1.49437 0.622922 0
M  V30 1941 H 176.906 1.62004 3.70859 0
M  V30 1942 H 175.476 0.812245 3.01863 0
M  V30 1943 H 174.696 3.19464 2.30947 0
M  V30 1944 H 175.984 3.83207 3.34708 0
M  V30 1945 H 175.382 1.45896 5.46563 0
M  V30 1946 H 173.939 2.04943 6.18742 0
M  V30 1947 N 177.372 -0.689602 1.41712 0
M  V30 1948 C 178.62 -1.4468 1.4111 0
M  V30 1949 C 178.941 -1.94986 0.0232196 0
M  V30 1950 O 178.211 -1.72097 -0.935913 0
M  V30 1951 H 176.791 -0.536847 0.519427 0
M  V30 1952 H 179.453 -0.815825 1.77004 0
M  V30 1953 H 178.549 -2.30706 2.10193 0
M  V30 1954 N 178.85 -1.27639 -0.924453 0
M  V30 1955 C 180.08 -1.16819 -1.70402 0
M  V30 1956 C 180.488 0.277191 -1.87158 0
M  V30 1957 O 179.831 1.20025 -1.39067 0
M  V30 1958 C 179.893 -1.78305 -3.12166 0
M  V30 1959 C 179.557 -3.27502 -3.18734 0
M  V30 1960 C 180.554 -4.2409 -3.00738 0
M  V30 1961 C 178.239 -3.68269 -3.4159 0
M  V30 1962 C 180.233 -5.59422 -3.05492 0
M  V30 1963 C 177.92 -5.0373 -3.45977 0
M  V30 1964 C 178.918 -5.99116 -3.27946 0
M  V30 1965 O 178.606 -7.32108 -3.32074 0
M  V30 1966 H 178.338 -0.406931 -0.539799 0
M  V30 1967 H 180.892 -1.69078 -1.16626 0
M  V30 1968 H 179.122 -1.20528 -3.67437 0
M  V30 1969 H 180.811 -1.62154 -3.72103 0
M  V30 1970 H 181.577 -3.93931 -2.82919 0
M  V30 1971 H 177.456 -2.94496 -3.54673 0
M  V30 1972 H 181 -6.33852 -2.91337 0
M  V30 1973 H 176.897 -5.33543 -3.63321 0
M  V30 1974 H 177.665 -7.40598 -3.48507 0
M  V30 1975 N 180.328 1.1314 -1.09713 0
M  V30 1976 C 181.291 2.16831 -0.742751 0
M  V30 1977 C 182.291 1.59159 0.229129 0
M  V30 1978 O 183.481 1.74199 0.00693237 0
M  V30 1979 C 180.613 3.40756 -0.0989168 0
M  V30 1980 H 181.806 2.49695 -1.66109 0
M  V30 1981 H 179.359 1.2802 -0.896699 0
M  V30 1982 H 180.094 3.13485 0.830514 0
M  V30 1983 H 179.879 3.83888 -0.798265 0
M  V30 1984 H 181.369 4.17386 0.133524 0
M  V30 1985 N 181.806 0.884767 1.30421 0
M  V30 1986 C 183.083 0.423185 1.90967 0
M  V30 1987 C 183.463 -1.09605 1.80416 0
M  V30 1988 O 182.811 -1.93126 1.22125 0
M  V30 1989 C 183.021 0.921056 3.36627 0
M  V30 1990 C 184.369 0.955903 4.137 0
M  V30 1991 O 185.393 0.867706 3.4547 0
M  V30 1992 O 184.252 1.08614 5.35598 0
M  V30 1993 H 181.346 0.129369 0.816819 0
M  V30 1994 H 183.892 0.973653 1.3899 0
M  V30 1995 H 182.664 1.96489 3.3839 0
M  V30 1996 H 182.287 0.349741 3.96059 0
M  V30 1997 N 183.284 -1.43765 0.645699 0
M  V30 1998 C 184.532 -2.01499 0.155731 0
M  V30 1999 C 184.853 -1.51151 -1.232 0
M  V30 2000 O 184.123 -0.721044 -1.82148 0
M  V30 2001 H 182.703 -0.745003 0.0545817 0
M  V30 2002 H 185.365 -1.76075 0.835677 0
M  V30 2003 H 184.461 -3.1181 0.134577 0
M  V30 2004 N 184.763 -0.387143 -1.52771 0
M  V30 2005 C 185.696 0.493123 -2.22808 0
M  V30 2006 C 186.674 1.0658 -1.22798 0
M  V30 2007 O 187.858 1.11785 -1.51777 0
M  V30 2008 C 184.985 1.68238 -2.93962 0
M  V30 2009 C 184.031 1.23515 -4.08223 0
M  V30 2010 S 184.864 0.21848 -5.35054 0
M  V30 2011 C 186.02 1.41357 -6.09729 0
M  V30 2012 H 186.253 -0.101625 -2.97126 0
M  V30 2013 H 183.786 -0.171323 -1.53447 0
M  V30 2014 H 185.744 2.36443 -3.35567 0
M  V30 2015 H 184.405 2.24842 -2.19328 0
M  V30 2016 H 183.598 2.12304 -4.57103 0
M  V30 2017 H 183.2 0.632044 -3.68621 0
M  V30 2018 H 185.492 2.34101 -6.3577 0
M  V30 2019 H 186.435 0.965736 -7.01484 0
M  V30 2020 H 186.843 1.6294 -5.40473 0
M  V30 2021 N 186.241 1.57166 -0.116904 0
M  V30 2022 C 187.189 2.16457 0.851418 0
M  V30 2023 C 188.183 1.11323 1.27686 0
M  V30 2024 O 189.389 1.2963 1.24884 0
M  V30 2025 H 185.764 0.69271 0.292672 0
M  V30 2026 H 187.735 2.96605 0.32685 0
M  V30 2027 C 186.484 2.77689 2.09246 0
M  V30 2028 H 185.807 3.58285 1.77402 0
M  V30 2029 H 187.247 3.22716 2.7501 0
M  V30 2030 C 185.706 1.74667 2.88085 0
M  V30 2031 O 186.236 1.19877 3.83396 0
M  V30 2032 N 184.442 1.44656 2.52038 0
M  V30 2033 H 183.989 1.89402 1.74599 0
M  V30 2034 H 183.947 0.759675 3.05084 0
M  V30 2035 N 187.719 -0.156864 1.56817 0
M  V30 2036 C 188.682 -1.17781 1.96622 0
M  V30 2037 C 189.682 -1.36401 0.851555 0
M  V30 2038 O 190.872 -1.33561 1.11836 0
M  V30 2039 C 188.004 -2.54008 2.27361 0
M  V30 2040 H 189.197 -0.836564 2.87996 0
M  V30 2041 H 186.75 -0.39985 1.51099 0
M  V30 2042 H 187.485 -2.9312 1.38748 0
M  V30 2043 H 187.27 -2.41856 3.08623 0
M  V30 2044 H 188.76 -3.27558 2.59029 0
M  V30 2045 N 189.197 -1.51736 -0.425897 0
M  V30 2046 C 190.443 -1.66174 -1.17294 0
M  V30 2047 C 190.798 -0.37876 -1.88635 0
M  V30 2048 O 190.091 0.626021 -1.81084 0
M  V30 2049 C 190.285 -2.81103 -2.20717 0
M  V30 2050 C 190.114 -4.20453 -1.59529 0
M  V30 2051 C 188.884 -4.86225 -1.37525 0
M  V30 2052 C 191.082 -5.03146 -1.06528 0
M  V30 2053 N 189.064 -6.09657 -0.720537 0
M  V30 2054 C 190.435 -6.17674 -0.536506 0
M  V30 2055 C 192.49 -4.88594 -0.958127 0
M  V30 2056 C 191.193 -7.19245 0.0888917 0
M  V30 2057 C 193.219 -5.90383 -0.346608 0
M  V30 2058 C 192.581 -7.04191 0.171564 0
M  V30 2059 H 188.68 -0.661871 -0.416475 0
M  V30 2060 H 191.264 -1.88997 -0.467801 0
M  V30 2061 H 189.435 -2.59924 -2.88607 0
M  V30 2062 H 191.167 -2.84662 -2.87663 0
M  V30 2063 H 187.922 -4.44293 -1.64015 0
M  V30 2064 H 188.346 -6.75756 -0.410292 0
M  V30 2065 H 192.988 -4.0085 -1.34459 0
M  V30 2066 H 190.706 -8.06628 0.48746 0
M  V30 2067 H 194.292 -5.81194 -0.265451 0
M  V30 2068 H 193.172 -7.81606 0.637309 0
M  V30 2069 N 190.675 0.682077 -1.42076 0
M  V30 2070 C 191.924 1.43786 -1.41451 0
M  V30 2071 C 192.237 1.95574 -0.0317074 0
M  V30 2072 O 193.443 2.71326 0.0971462 0
M  V30 2073 C 191.899 2.60071 -2.48779 0
M  V30 2074 C 191.507 2.15013 -3.93031 0
M  V30 2075 C 193.251 3.37626 -2.57311 0
M  V30 2076 C 191.158 3.28336 -4.91883 0
M  V30 2077 H 190.088 0.540143 -0.526082 0
M  V30 2078 H 192.739 0.739157 -1.67955 0
M  V30 2079 H 191.121 3.32275 -2.15429 0
M  V30 2080 H 192.295 1.5001 -4.35699 0
M  V30 2081 H 190.61 1.50416 -3.88284 0
M  V30 2082 H 193.207 4.22012 -3.28345 0
M  V30 2083 H 193.55 3.83727 -1.61429 0
M  V30 2084 H 194.083 2.72488 -2.89819 0
M  V30 2085 H 190.822 2.87234 -5.89217 0
M  V30 2086 H 190.342 3.92145 -4.53853 0
M  V30 2087 H 192.021 3.93913 -5.13265 0
M  V30 2088 N 192.153 1.28127 0.917671 0
M  V30 2089 C 193.43 1.05761 1.64542 0
M  V30 2090 C 193.81 -0.404344 2.07191 0
M  V30 2091 O 193.158 -1.38963 1.81388 0
M  V30 2092 C 193.368 2.02857 2.83989 0
M  V30 2093 C 194.716 2.32786 3.551 0
M  V30 2094 O 195.74 2.0091 2.94132 0
M  V30 2095 O 194.599 2.87169 4.64969 0
M  V30 2096 H 191.693 0.403916 0.721652 0
M  V30 2097 H 194.239 1.39431 0.967322 0
M  V30 2098 H 193.011 3.01407 2.49538 0
M  V30 2099 H 192.634 1.69809 3.59514 0
M  V30 2100 N 193.631 -1.12557 1.10312 0
M  V30 2101 C 194.578 -2.18247 0.750781 0
M  V30 2102 C 195.548 -1.63853 -0.272293 0
M  V30 2103 O 196.733 -1.90195 -0.151862 0
M  V30 2104 C 193.873 -3.44591 0.187379 0
M  V30 2105 C 192.986 -4.13046 1.2656 0
M  V30 2106 C 192.121 -5.27034 0.663978 0
M  V30 2107 C 191.16 -5.87353 1.72287 0
M  V30 2108 N 190.297 -6.92757 1.1416 0
M  V30 2109 H 195.137 -2.47732 1.65628 0
M  V30 2110 H 192.674 -1.21629 0.827337 0
M  V30 2111 H 194.632 -4.16904 -0.157148 0
M  V30 2112 H 193.262 -3.15527 -0.681355 0
M  V30 2113 H 192.314 -3.38924 1.72727 0
M  V30 2114 H 193.626 -4.53947 2.06721 0
M  V30 2115 H 192.78 -6.06104 0.268824 0
M  V30 2116 H 191.519 -4.87407 -0.169082 0
M  V30 2117 H 190.524 -5.06971 2.12746 0
M  V30 2118 H 191.749 -6.29051 2.55875 0
M  V30 2119 H 189.695 -6.5517 0.329984 0
M  V30 2120 H 189.612 -7.3225 1.88007 0
M  V30 2121 H 190.88 -7.75658 0.772956 0
M  V30 2122 N 195.109 -0.891671 -1.2995 0
M  V30 2123 C 196.355 -0.514261 -1.96171 0
M  V30 2124 C 196.688 0.935506 -1.70182 0
M  V30 2125 O 195.963 1.66204 -1.01028 0
M  V30 2126 C 196.246 -0.797719 -3.51153 0
M  V30 2127 C 196.099 -2.2986 -3.86632 0
M  V30 2128 C 197.418 -0.278749 -4.39216 0
M  V30 2129 H 194.537 -0.188314 -0.712535 0
M  V30 2130 H 197.179 -1.11689 -1.53706 0
M  V30 2131 H 195.329 -0.284826 -3.87455 0
M  V30 2132 H 197.001 -2.88042 -3.60319 0
M  V30 2133 H 195.244 -2.76257 -3.34462 0
M  V30 2134 H 195.915 -2.44753 -4.94773 0
M  V30 2135 H 198.391 -0.717825 -4.09862 0
M  V30 2136 H 197.267 -0.506353 -5.46559 0
M  V30 2137 H 197.528 0.820266 -4.34424 0
M  V30 2138 N 196.587 1.43421 -0.653314 0
M  V30 2139 C 197.535 2.32546 0.0501531 0
M  V30 2140 C 198.529 1.48617 0.812985 0
M  V30 2141 O 199.735 1.64825 0.723375 0
M  V30 2142 H 196.11 0.751185 0.0350032 0
M  V30 2143 H 198.081 2.89602 -0.719261 0
M  V30 2144 C 196.83 3.32925 1.00279 0
M  V30 2145 H 196.153 3.97532 0.425236 0
M  V30 2146 H 197.593 3.9792 1.46409 0
M  V30 2147 C 196.052 2.63532 2.09886 0
M  V30 2148 O 196.582 2.45092 3.18265 0
M  V30 2149 N 194.788 2.22905 1.86445 0
M  V30 2150 H 194.335 2.38103 0.98309 0
M  V30 2151 H 194.293 1.76805 2.59976 0
M  V30 2152 N 198.065 0.39524 1.52563 0
M  V30 2153 C 199.293 -0.184943 2.06072 0
M  V30 2154 C 199.708 -1.40021 1.26647 0
M  V30 2155 O 199.065 -1.79767 0.314672 0
M  V30 2156 C 199.116 -0.549179 3.57304 0
M  V30 2157 O 198.837 0.617813 4.33722 0
M  V30 2158 C 200.338 -1.18459 4.2718 0
M  V30 2159 H 197.558 -0.0265025 0.670476 0
M  V30 2160 H 200.102 0.562184 1.96621 0
M  V30 2161 H 198.257 -1.2462 3.66809 0
M  V30 2162 H 198.671 0.317091 5.23541 0
M  V30 2163 H 200.145 -1.38976 5.34219 0
M  V30 2164 H 200.622 -2.15368 3.82771 0
M  V30 2165 H 201.228 -0.528163 4.22008 0
M  V30 2166 N 199.544 -1.57102 0.125237 0
M  V30 2167 C 200.492 -2.16905 -0.839927 0
M  V30 2168 C 201.486 -1.11998 -1.27094 0
M  V30 2169 O 202.692 -1.3029 -1.24195 0
M  V30 2170 H 199.067 -0.694252 -0.288995 0
M  V30 2171 H 201.038 -2.96774 -0.311115 0
M  V30 2172 C 199.787 -2.78795 -2.07771 0
M  V30 2173 H 199.11 -3.59221 -1.755 0
M  V30 2174 H 200.55 -3.2417 -2.73295 0
M  V30 2175 C 199.009 -1.76193 -2.87155 0
M  V30 2176 O 199.539 -1.21909 -3.82755 0
M  V30 2177 N 197.745 -1.45991 -2.51267 0
M  V30 2178 H 197.292 -1.90325 -1.73592 0
M  V30 2179 H 197.25 -0.775844 -3.04677 0
M  V30 2180 N 201.022 0.148545 -1.56898 0
M  V30 2181 C 202.433 0.708766 -1.72723 0
M  V30 2182 C 202.784 1.81734 -0.739395 0
M  V30 2183 O 201.909 2.16194 0.0943169 0
M  V30 2184 C 202.504 1.29245 -3.13179 0
M  V30 2185 C 201.063 1.79925 -3.30611 0
M  V30 2186 C 200.21 0.687111 -2.68652 0
M  V30 2187 H 203.161 -0.0771063 -1.58513 0
M  V30 2188 H 203.182 2.16224 -3.13093 0
M  V30 2189 H 202.694 0.485382 -3.85053 0
M  V30 2190 H 200.795 2.63203 -2.63732 0
M  V30 2191 H 200.908 1.92903 -4.38549 0
M  V30 2192 H 199.272 1.11335 -2.29078 0
M  V30 2193 H 200.055 -0.108483 -3.43129 0
M  V30 2194 N 202.5 1.5196 0.417844 0
M  V30 2195 C 203.41 1.77554 1.53336 0
M  V30 2196 C 204.426 0.660655 1.6097 0
M  V30 2197 O 205.602 0.945099 1.77848 0
M  V30 2198 C 202.667 1.91291 2.89152 0
M  V30 2199 C 201.728 3.15183 2.91475 0
M  V30 2200 C 200.961 3.28256 4.20813 0
M  V30 2201 O 201.184 2.46798 5.14244 0
M  V30 2202 O 200.118 4.21356 4.29817 0
M  V30 2203 H 203.944 2.7222 1.34647 0
M  V30 2204 H 201.529 1.36698 0.602828 0
M  V30 2205 H 203.411 2.02199 3.69721 0
M  V30 2206 H 202.086 0.998129 3.07927 0
M  V30 2207 H 200.993 3.09739 2.09791 0
M  V30 2208 H 202.326 4.06414 2.77648 0
M  V30 2209 N 203.978 -0.674533 1.42435 0
M  V30 2210 C 205.206 -1.46283 1.46317 0
M  V30 2211 C 205.621 -1.88653 0.0745836 0
M  V30 2212 O 204.978 -1.58151 -0.91074 0
M  V30 2213 C 205.029 -2.71178 2.3905 0
M  V30 2214 O 204.75 -2.30586 3.72507 0
M  V30 2215 C 206.251 -3.64738 2.51955 0
M  V30 2216 H 203.471 -0.450104 0.497642 0
M  V30 2217 H 206.015 -0.828792 1.86953 0
M  V30 2218 H 204.17 -3.3077 2.01667 0
M  V30 2219 H 204.584 -3.11241 4.22172 0
M  V30 2220 H 206.058 -4.49096 3.20962 0
M  V30 2221 H 206.535 -4.10656 1.55752 0
M  V30 2222 H 207.141 -3.11038 2.90061 0
M  V30 2223 N 205.456 -1.28612 -0.910864 0
M  V30 2224 C 206.386 -1.15326 -2.03032 0
M  V30 2225 C 207.367 -0.0502924 -1.70026 0
M  V30 2226 O 208.552 -0.227797 -1.92859 0
M  V30 2227 C 205.682 -0.817343 -3.37545 0
M  V30 2228 C 204.636 -1.8754 -3.84724 0
M  V30 2229 C 203.962 -1.39305 -5.16235 0
M  V30 2230 C 205.262 -3.28244 -4.06267 0
M  V30 2231 H 206.956 -2.08975 -2.14406 0
M  V30 2232 H 204.502 -1.00612 -1.03021 0
M  V30 2233 H 206.455 -0.711151 -4.15356 0
M  V30 2234 H 205.179 0.154846 -3.26233 0
M  V30 2235 H 203.838 -1.97079 -3.09121 0
M  V30 2236 H 203.486 -0.409846 -5.01328 0
M  V30 2237 H 203.186 -2.10057 -5.48771 0
M  V30 2238 H 204.71 -1.30014 -5.96598 0
M  V30 2239 H 206.124 -3.21611 -4.74594 0
M  V30 2240 H 204.521 -3.96855 -4.5014 0
M  V30 2241 H 205.591 -3.72048 -3.10979 0
M  V30 2242 N 206.934 1.1197 -1.10907 0
M  V30 2243 C 207.864 2.19928 -0.784473 0
M  V30 2244 C 208.845 1.6833 0.244726 0
M  V30 2245 O 210.03 1.93892 0.109418 0
M  V30 2246 C 207.16 3.46597 -0.220827 0
M  V30 2247 C 206.114 4.11376 -1.18127 0
M  V30 2248 C 205.44 5.32554 -0.478594 0
M  V30 2249 C 206.74 4.56945 -2.52979 0
M  V30 2250 H 208.434 2.47337 -1.68715 0
M  V30 2251 H 205.98 1.18879 -0.812642 0
M  V30 2252 H 207.933 4.21396 0.0184278 0
M  V30 2253 H 206.657 3.1863 0.717113 0
M  V30 2254 H 205.316 3.38564 -1.40606 0
M  V30 2255 H 204.964 5.00856 0.463976 0
M  V30 2256 H 204.664 5.76844 -1.11912 0
M  V30 2257 H 206.188 6.10096 -0.248 0
M  V30 2258 H 207.602 5.23093 -2.3462 0
M  V30 2259 H 205.999 5.1203 -3.12962 0
M  V30 2260 H 207.069 3.70676 -3.12614 0
M  V30 2261 N 208.412 0.89855 1.29475 0
M  V30 2262 C 209.823 0.572537 1.77705 0
M  V30 2263 C 210.174 -0.911778 1.73727 0
M  V30 2264 O 209.299 -1.71288 1.32247 0
M  V30 2265 C 209.894 1.03252 3.22683 0
M  V30 2266 C 208.453 0.757687 3.68695 0
M  V30 2267 C 207.6 1.20787 2.49612 0
M  V30 2268 H 210.551 1.08139 1.16153 0
M  V30 2269 H 210.572 0.367307 3.78723 0
M  V30 2270 H 210.084 2.11285 3.25546 0
M  V30 2271 H 208.185 -0.310079 3.71308 0
M  V30 2272 H 208.298 1.35476 4.59547 0
M  V30 2273 H 206.662 0.626888 2.46865 0
M  V30 2274 H 207.445 2.29622 2.55203 0
M  V30 2275 N 209.89 -1.43072 0.660911 0
M  V30 2276 C 210.837 -2.30785 -0.0259884 0
M  V30 2277 C 211.807 -1.45184 -0.806888 0
M  V30 2278 O 212.992 -1.74041 -0.781943 0
M  V30 2279 C 210.132 -3.30861 -0.981067 0
M  V30 2280 C 209.245 -4.31558 -0.195458 0
M  V30 2281 C 208.38 -5.18712 -1.14503 0
M  V30 2282 C 207.419 -6.11097 -0.350299 0
M  V30 2283 N 206.556 -6.90849 -1.25186 0
M  V30 2284 H 211.396 -2.88975 0.727846 0
M  V30 2285 H 208.933 -1.42353 0.370682 0
M  V30 2286 H 210.891 -3.87399 -1.54849 0
M  V30 2287 H 209.521 -2.74304 -1.70169 0
M  V30 2288 H 208.573 -3.77252 0.488374 0
M  V30 2289 H 209.885 -4.9701 0.422176 0
M  V30 2290 H 209.039 -5.79914 -1.78284 0
M  V30 2291 H 207.778 -4.53404 -1.79656 0
M  V30 2292 H 206.783 -5.48976 0.300808 0
M  V30 2293 H 208.008 -6.7845 0.296941 0
M  V30 2294 H 205.954 -6.28182 -1.89005 0
M  V30 2295 H 205.871 -7.52854 -0.688971 0
M  V30 2296 H 207.139 -7.5655 -1.87757 0
M  V30 2297 N 211.368 -0.403325 -1.52352 0
M  V30 2298 C 212.3 0.4603 -2.2453 0
M  V30 2299 C 213.313 1.01505 -1.27282 0
M  V30 2300 O 214.502 0.914982 -1.53266 0
M  V30 2301 C 211.602 1.65208 -2.95905 0
M  V30 2302 C 210.775 1.22224 -4.19976 0
M  V30 2303 C 209.834 2.28028 -4.74226 0
M  V30 2304 O 208.86 1.88857 -5.36956 0
M  V30 2305 N 210.062 3.6012 -4.55295 0
M  V30 2306 H 212.827 -0.158156 -2.99282 0
M  V30 2307 H 210.388 -0.230402 -1.60252 0
M  V30 2308 H 212.38 2.35541 -3.29093 0
M  V30 2309 H 210.95 2.17658 -2.24374 0
M  V30 2310 H 210.17 0.34725 -3.92668 0
M  V30 2311 H 211.458 0.911924 -5.00561 0
M  V30 2312 H 210.856 3.94698 -4.05253 0
M  V30 2313 H 209.413 4.26447 -4.92936 0
M  V30 2314 N 212.846 1.57033 -0.133567 0
M  V30 2315 C 214.093 1.95686 0.520877 0
M  V30 2316 C 214.421 1.0177 1.6575 0
M  V30 2317 O 213.676 0.0443195 1.9565 0
M  V30 2318 C 213.975 3.40674 1.08057 0
M  V30 2319 C 213.641 4.50855 0.0637899 0
M  V30 2320 C 212.303 4.80716 -0.215757 0
M  V30 2321 C 214.655 5.17398 -0.62835 0
M  V30 2322 C 211.983 5.74433 -1.19348 0
M  V30 2323 C 214.335 6.12167 -1.5948 0
M  V30 2324 C 212.999 6.40414 -1.88218 0
M  V30 2325 H 212.269 0.716067 0.190602 0
M  V30 2326 H 214.916 1.9026 -0.217556 0
M  V30 2327 H 213.221 3.42865 1.89606 0
M  V30 2328 H 214.918 3.67902 1.59529 0
M  V30 2329 H 211.508 4.27605 0.291855 0
M  V30 2330 H 215.692 4.94472 -0.425562 0
M  V30 2331 H 210.948 5.94616 -1.42272 0
M  V30 2332 H 215.122 6.6281 -2.13671 0
M  V30 2333 H 212.749 7.12838 -2.64133 0
M  V30 2334 N 214.325 -0.140222 1.56975 0
M  V30 2335 C 215.273 -1.19207 1.99731 0
M  V30 2336 C 216.267 -1.44089 0.890777 0
M  V30 2337 O 217.473 -1.44301 1.07597 0
M  V30 2338 H 213.848 -0.40142 0.635898 0
M  V30 2339 H 215.819 -0.804813 2.87342 0
M  V30 2340 C 214.568 -2.51617 2.39967 0
M  V30 2341 H 213.891 -2.33303 3.24669 0
M  V30 2342 H 215.331 -3.23827 2.73701 0
M  V30 2343 C 213.79 -3.12654 1.25496 0
M  V30 2344 O 214.32 -3.97786 0.559371 0
M  V30 2345 N 212.526 -2.72206 1.01746 0
M  V30 2346 H 212.073 -2.03074 1.58489 0
M  V30 2347 H 212.031 -3.13377 0.253461 0
M  V30 2348 N 215.803 -1.52179 -0.40978 0
M  V30 2349 C 217.031 -1.70054 -1.17853 0
M  V30 2350 C 217.446 -0.409735 -1.843 0
M  V30 2351 O 216.803 0.614183 -1.71855 0
M  V30 2352 C 216.854 -2.83568 -2.24213 0
M  V30 2353 O 216.575 -4.0765 -1.60478 0
M  V30 2354 C 218.076 -3.12947 -3.13973 0
M  V30 2355 H 215.296 -0.569917 -0.354169 0
M  V30 2356 H 217.84 -1.98734 -0.482198 0
M  V30 2357 H 215.995 -2.57409 -2.89516 0
M  V30 2358 H 216.409 -4.70899 -2.30986 0
M  V30 2359 H 217.883 -3.95889 -3.84677 0
M  V30 2360 H 218.36 -2.26472 -3.76307 0
M  V30 2361 H 218.966 -3.40868 -2.5434 0
M  V30 2362 N 217.281 0.66697 -1.42791 0
M  V30 2363 C 218.528 1.42699 -1.43678 0
M  V30 2364 C 218.856 1.94419 -0.0560425 0
M  V30 2365 O 218.111 1.7182 0.936831 0
M  V30 2366 C 218.41 2.6349 -2.4147 0
M  V30 2367 C 218.076 2.30267 -3.8767 0
M  V30 2368 C 216.738 2.20918 -4.27491 0
M  V30 2369 C 219.09 2.03435 -4.79858 0
M  V30 2370 C 216.418 1.82873 -5.57471 0
M  V30 2371 C 218.77 1.66892 -6.10188 0
M  V30 2372 C 217.434 1.56058 -6.49001 0
M  V30 2373 H 216.704 0.522171 -0.525755 0
M  V30 2374 H 219.351 0.759785 -1.75783 0
M  V30 2375 H 217.656 3.35279 -2.0272 0
M  V30 2376 H 219.353 3.21684 -2.39417 0
M  V30 2377 H 215.943 2.38449 -3.56146 0
M  V30 2378 H 220.127 2.09586 -4.49875 0
M  V30 2379 H 215.383 1.7306 -5.86396 0
M  V30 2380 H 219.557 1.45157 -6.81104 0
M  V30 2381 H 217.184 1.26348 -7.49627 0
M  V30 2382 N 218.759 1.29093 0.90403 0
M  V30 2383 C 220.007 1.16583 1.65085 0
M  V30 2384 C 220.328 -0.283933 1.92922 0
M  V30 2385 O 219.598 -1.19509 1.55224 0
M  V30 2386 H 218.178 0.428467 0.611903 0
M  V30 2387 H 220.84 1.61959 1.08422 0
M  V30 2388 H 219.936 1.71266 2.6091 0
M  V30 2389 N 220.237 -1.11381 1.11499 0
M  V30 2390 C 221.484 -1.83132 0.864231 0
M  V30 2391 C 221.812 -1.84683 -0.610114 0
M  V30 2392 O 221.067 -1.29589 -1.46646 0
M  V30 2393 C 221.366 -3.30026 1.37177 0
M  V30 2394 C 221.032 -3.48634 2.85946 0
M  V30 2395 C 219.694 -3.53421 3.26569 0
M  V30 2396 C 222.046 -3.54837 3.81759 0
M  V30 2397 C 219.374 -3.61967 4.61733 0
M  V30 2398 C 221.726 -3.64915 5.1674 0
M  V30 2399 C 220.39 -3.67962 5.5692 0
M  V30 2400 H 219.66 -0.670127 0.316245 0
M  V30 2401 H 222.307 -1.31354 1.3935 0
M  V30 2402 H 220.612 -3.84304 0.762753 0
M  V30 2403 H 222.309 -3.84034 1.15408 0
M  V30 2404 H 218.899 -3.45579 2.53521 0
M  V30 2405 H 223.083 -3.50399 3.51474 0
M  V30 2406 H 218.339 -3.62603 4.92269 0
M  V30 2407 H 222.513 -3.68658 5.90816 0
M  V30 2408 H 220.14 -3.74336 6.61647 0
M  V30 2409 N 221.715 -0.905404 -1.28997 0
M  V30 2410 C 222.943 -0.549846 -1.9946 0
M  V30 2411 C 223.358 0.866834 -1.67724 0
M  V30 2412 O 222.715 1.57298 -0.925404 0
M  V30 2413 C 222.766 -0.739387 -3.53858 0
M  V30 2414 O 222.487 -2.10031 -3.84472 0
M  V30 2415 C 223.988 -0.389541 -4.41585 0
M  V30 2416 H 221.208 -0.210429 -0.637151 0
M  V30 2417 H 223.752 -1.21632 -1.64396 0
M  V30 2418 H 221.907 -0.120023 -3.87214 0
M  V30 2419 H 222.321 -2.13385 -4.79132 0
M  V30 2420 H 223.795 -0.572972 -5.49018 0
M  V30 2421 H 224.272 0.673756 -4.34001 0
M  V30 2422 H 224.878 -0.986089 -4.1371 0
M  V30 2423 N 223.193 1.4272 -0.668489 0
M  V30 2424 C 224.604 1.84793 -0.266151 0
M  V30 2425 C 224.955 1.55959 1.19043 0
M  V30 2426 O 224.08 1.01622 1.91055 0
M  V30 2427 C 224.675 3.35436 -0.476271 0
M  V30 2428 C 223.234 3.76182 -0.128113 0
M  V30 2429 C 222.381 2.66344 -0.771777 0
M  V30 2430 H 225.332 1.32656 -0.871098 0
M  V30 2431 H 225.353 3.79515 0.273561 0
M  V30 2432 H 224.865 3.5639 -1.53647 0
M  V30 2433 H 222.966 3.60836 0.928891 0
M  V30 2434 H 223.079 4.75766 -0.564231 0
M  V30 2435 H 221.443 2.53885 -0.203652 0
M  V30 2436 H 222.226 2.90123 -1.83531 0
M  V30 2437 N 224.671 0.411399 1.52136 0
M  V30 2438 C 225.618 -0.412975 2.27075 0
M  V30 2439 C 226.588 -1.03912 1.29582 0
M  V30 2440 O 227.773 -1.06296 1.58448 0
M  V30 2441 C 224.913 -1.52247 3.09701 0
M  V30 2442 C 224.026 -0.917021 4.22155 0
M  V30 2443 C 223.161 -1.9994 4.92135 0
M  V30 2444 C 222.2 -1.37101 5.96548 0
M  V30 2445 N 221.337 -2.39364 6.60038 0
M  V30 2446 H 226.177 0.232499 2.97092 0
M  V30 2447 H 223.714 0.126496 1.46555 0
M  V30 2448 H 225.672 -2.17674 3.55913 0
M  V30 2449 H 224.302 -2.13794 2.41851 0
M  V30 2450 H 223.354 -0.151742 3.80097 0
M  V30 2451 H 224.666 -0.418006 4.97045 0
M  V30 2452 H 223.82 -2.73088 5.41763 0
M  V30 2453 H 222.559 -2.53208 4.16818 0
M  V30 2454 H 221.564 -0.624873 5.46237 0
M  V30 2455 H 222.789 -0.845998 6.7381 0
M  V30 2456 H 220.735 -2.91759 5.87548 0
M  V30 2457 H 220.652 -1.9428 7.3061 0
M  V30 2458 H 221.92 -3.12074 7.14304 0
M  V30 2459 N 226.149 -1.5696 0.141893 0
M  V30 2460 C 227.565 -1.58151 -0.21456 0
M  V30 2461 C 227.765 -1.1559 -1.65049 0
M  V30 2462 O 226.821 -0.853832 -2.37626 0
M  V30 2463 C 228.134 -3.00674 0.0395576 0
M  V30 2464 C 229.682 -3.1299 -0.0245529 0
M  V30 2465 C 230.157 -4.57554 0.202167 0
M  V30 2466 N 231.648 -4.62961 0.148919 0
M  V30 2467 C 232.383 -5.7262 0.298924 0
M  V30 2468 N 231.879 -6.90947 0.50637 0
M  V30 2469 N 233.672 -5.61601 0.236886 0
M  V30 2470 H 225.823 -1.8292 1.07953 0
M  V30 2471 H 228.086 -0.846425 0.42693 0
M  V30 2472 H 227.792 -3.36183 1.03315 0
M  V30 2473 H 227.666 -3.70981 -0.682143 0
M  V30 2474 H 230.053 -2.77326 -1.00869 0
M  V30 2475 H 230.134 -2.4518 0.729396 0
M  V30 2476 H 229.778 -4.93922 1.18338 0
M  V30 2477 H 229.708 -5.23484 -0.572044 0
M  V30 2478 H 232.199 -3.77899 -0.00697015 0
M  V30 2479 H 232.512 -7.7038 0.611076 0
M  V30 2480 H 230.857 -6.92878 0.542628 0
M  V30 2481 H 234.048 -4.68039 0.0756209 0
M  V30 2482 H 234.221 -6.47015 0.357227 0
M  V30 2483 N 227.627 0.131896 -1.57047 0
M  V30 2484 C 228.873 0.838268 -1.85323 0
M  V30 2485 C 229.228 1.78098 -0.727937 0
M  V30 2486 O 228.521 1.89645 0.27304 0
M  V30 2487 C 228.715 1.63703 -3.17704 0
M  V30 2488 C 228.544 0.773167 -4.43004 0
M  V30 2489 C 227.314 0.432956 -5.03442 0
M  V30 2490 C 229.512 0.0966216 -5.14209 0
M  V30 2491 N 227.494 -0.442924 -6.123 0
M  V30 2492 C 228.865 -0.638778 -6.16701 0
M  V30 2493 C 230.92 0.018861 -4.97896 0
M  V30 2494 C 229.623 -1.44462 -7.04644 0
M  V30 2495 C 231.649 -0.773762 -5.86316 0
M  V30 2496 C 231.011 -1.4974 -6.883 0
M  V30 2497 H 227.11 0.284086 -0.728573 0
M  V30 2498 H 229.694 0.102731 -1.94429 0
M  V30 2499 H 227.865 2.3437 -3.09718 0
M  V30 2500 H 229.597 2.28774 -3.33833 0
M  V30 2501 H 226.352 0.772237 -4.67262 0
M  V30 2502 H 226.776 -0.872332 -6.71356 0
M  V30 2503 H 231.418 0.56397 -4.19022 0
M  V30 2504 H 229.136 -2.00093 -7.82936 0
M  V30 2505 H 232.722 -0.83612 -5.75761 0
M  V30 2506 H 231.602 -2.10087 -7.55535 0
M  V30 2507 N 229.106 1.52395 0.401703 0
M  V30 2508 C 230.016 1.7917 1.51444 0
M  V30 2509 C 231.032 0.677691 1.6026 0
M  V30 2510 O 232.208 0.963909 1.76835 0
M  V30 2511 C 229.273 1.94347 2.87107 0
M  V30 2512 C 228.334 3.18257 2.88116 0
M  V30 2513 C 227.567 3.32701 4.17308 0
M  V30 2514 O 227.79 2.52238 5.11598 0
M  V30 2515 O 226.724 4.25891 4.25324 0
M  V30 2516 H 230.55 2.73633 1.31752 0
M  V30 2517 H 228.135 1.3733 0.588296 0
M  V30 2518 H 230.017 2.06109 3.67555 0
M  V30 2519 H 228.692 1.03073 3.06851 0
M  V30 2520 H 227.599 3.11947 2.06494 0
M  V30 2521 H 228.932 4.09336 2.73322 0
M  V30 2522 N 230.584 -0.659388 1.43143 0
M  V30 2523 C 231.995 -1.24041 1.39537 0
M  V30 2524 C 232.346 -1.95963 0.0963364 0
M  V30 2525 O 231.471 -2.00892 -0.804438 0
M  V30 2526 C 232.066 -2.25601 2.52764 0
M  V30 2527 C 230.625 -2.79195 2.52443 0
M  V30 2528 C 229.772 -1.53743 2.30778 0
M  V30 2529 H 232.723 -0.451792 1.52133 0
M  V30 2530 H 232.744 -3.07651 2.23899 0
M  V30 2531 H 232.256 -1.73226 3.47296 0
M  V30 2532 H 230.357 -3.35649 1.61773 0
M  V30 2533 H 230.47 -3.2716 3.50004 0
M  V30 2534 H 228.834 -1.80869 1.79328 0
M  V30 2535 H 229.617 -1.03312 3.27386 0
M  V30 2536 N 232.062 -1.29571 -0.897171 0
M  V30 2537 C 233.309 -1.17689 -1.6479 0
M  V30 2538 C 233.637 0.27107 -1.92602 0
M  V30 2539 O 232.892 1.21193 -1.53658 0
M  V30 2540 C 233.191 -1.9382 -3.00281 0
M  V30 2541 C 232.857 -3.43522 -2.92068 0
M  V30 2542 C 231.519 -3.84348 -2.89535 0
M  V30 2543 C 233.871 -4.38906 -2.81089 0
M  V30 2544 C 231.199 -5.18869 -2.73846 0
M  V30 2545 C 233.551 -5.73521 -2.66939 0
M  V30 2546 C 232.215 -6.13601 -2.62774 0
M  V30 2547 H 231.485 -0.430654 -0.603008 0
M  V30 2548 H 234.132 -1.60536 -1.04404 0
M  V30 2549 H 232.437 -1.4357 -3.64547 0
M  V30 2550 H 234.134 -1.82028 -3.57305 0
M  V30 2551 H 230.724 -3.11072 -2.94842 0
M  V30 2552 H 234.908 -4.08315 -2.82121 0
M  V30 2553 H 230.164 -5.4903 -2.69027 0
M  V30 2554 H 234.338 -6.47078 -2.57416 0
M  V30 2555 H 231.965 -7.17786 -2.50375 0
M  V30 2556 N 233.54 1.10788 -1.12088 0
M  V30 2557 C 234.817 1.79136 -0.785476 0
M  V30 2558 C 235.197 1.98246 0.725377 0
M  V30 2559 O 234.545 1.57258 1.65778 0
M  V30 2560 C 234.755 3.12375 -1.55636 0
M  V30 2561 C 236.103 3.8731 -1.74001 0
M  V30 2562 O 237.127 3.22085 -1.52117 0
M  V30 2563 O 235.986 5.04369 -2.10415 0
M  V30 2564 H 233.08 0.776226 -0.285311 0
M  V30 2565 H 235.626 1.1747 -1.2247 0
M  V30 2566 H 234.398 2.93863 -2.5838 0
M  V30 2567 H 234.021 3.81758 -1.11114 0
M  V30 2568 N 235.018 0.912232 1.28515 0
M  V30 2569 C 236.264 0.545405 1.95328 0
M  V30 2570 C 236.597 -0.908313 1.71649 0
M  V30 2571 O 235.872 -1.64575 1.03659 0
M  V30 2572 C 236.155 0.853483 3.4984 0
M  V30 2573 C 236.008 2.35982 3.82926 0
M  V30 2574 C 237.327 0.348589 4.38717 0
M  V30 2575 H 234.446 0.199626 0.709449 0
M  V30 2576 H 237.088 1.1412 1.5191 0
M  V30 2577 H 235.238 0.34643 3.86952 0
M  V30 2578 H 236.91 2.93738 3.55691 0
M  V30 2579 H 235.153 2.81543 3.30024 0
M  V30 2580 H 235.824 2.52593 4.90816 0
M  V30 2581 H 238.3 0.78294 4.08668 0
M  V30 2582 H 237.176 0.593242 5.45685 0
M  V30 2583 H 237.437 -0.751049 4.35674 0
M  V30 2584 N 236.496 -1.42363 0.676048 0
M  V30 2585 C 237.459 -2.29199 0.00766941 0
M  V30 2586 C 238.459 -1.43389 -0.727745 0
M  V30 2587 O 239.649 -1.64764 -0.56556 0
M  V30 2588 C 236.781 -3.2591 -0.999785 0
M  V30 2589 H 237.974 -2.89794 0.771988 0
M  V30 2590 H 235.527 -1.50024 0.438468 0
M  V30 2591 H 236.262 -2.70256 -1.79255 0
M  V30 2592 H 236.047 -3.89202 -0.475829 0
M  V30 2593 H 237.537 -3.91028 -1.46583 0
M  V30 2594 N 237.974 -0.419461 -1.51915 0
M  V30 2595 C 238.907 0.445751 -2.23804 0
M  V30 2596 C 239.885 1.03951 -1.25031 0
M  V30 2597 O 241.069 1.08541 -1.54114 0
M  V30 2598 C 238.196 1.61964 -2.97465 0
M  V30 2599 C 237.242 1.14828 -4.10751 0
M  V30 2600 S 238.075 0.104938 -5.35397 0
M  V30 2601 C 239.231 1.28391 -6.1259 0
M  V30 2602 H 239.464 -0.164627 -2.96844 0
M  V30 2603 H 236.997 -0.203833 -1.53049 0
M  V30 2604 H 238.955 2.29271 -3.40507 0
M  V30 2605 H 237.616 2.20139 -2.24048 0
M  V30 2606 H 236.809 2.02561 -4.61503 0
M  V30 2607 H 236.411 0.553712 -3.69878 0
M  V30 2608 H 238.703 2.20563 -6.40592 0
M  V30 2609 H 239.646 0.816724 -7.03374 0
M  V30 2610 H 240.054 1.51439 -5.43807 0
M  V30 2611 N 239.452 1.56882 -0.150215 0
M  V30 2612 C 240.701 1.95403 0.500071 0
M  V30 2613 C 241.014 1.03777 1.658 0
M  V30 2614 O 242.22 1.31889 2.37313 0
M  V30 2615 C 240.676 3.4738 0.941018 0
M  V30 2616 C 240.284 4.47596 -0.190158 0
M  V30 2617 C 242.028 3.9476 1.56091 0
M  V30 2618 C 239.935 5.90787 0.269237 0
M  V30 2619 H 238.865 0.729515 0.190588 0
M  V30 2620 H 241.516 1.81988 -0.235074 0
M  V30 2621 H 239.898 3.56138 1.73152 0
M  V30 2622 H 241.072 4.50536 -0.967157 0
M  V30 2623 H 239.387 4.10151 -0.718666 0
M  V30 2624 H 241.984 4.99181 1.9163 0
M  V30 2625 H 242.327 3.36494 2.45107 0
M  V30 2626 H 242.86 3.88932 0.835249 0
M  V30 2627 H 239.599 6.52879 -0.585621 0
M  V30 2628 H 239.119 5.912 1.01204 0
M  V30 2629 H 240.798 6.42979 0.720176 0
M  V30 2630 N 240.93 -0.123565 1.57115 0
M  V30 2631 C 242.177 -0.832153 1.84612 0
M  V30 2632 C 242.505 -1.80093 0.734627 0
M  V30 2633 O 241.76 -1.93766 -0.27442 0
M  V30 2634 C 242.059 -1.62016 3.18568 0
M  V30 2635 C 241.725 -0.796084 4.43817 0
M  V30 2636 C 240.387 -0.568816 4.77826 0
M  V30 2637 C 242.739 -0.221364 5.2073 0
M  V30 2638 C 240.067 0.243499 5.86194 0
M  V30 2639 C 242.419 0.578117 6.29953 0
M  V30 2640 C 241.083 0.815744 6.62497 0
M  V30 2641 H 240.353 -0.304507 0.675542 0
M  V30 2642 H 243 -0.0947248 1.91266 0
M  V30 2643 H 241.305 -2.42837 3.0747 0
M  V30 2644 H 243.002 -2.17231 3.37064 0
M  V30 2645 H 239.592 -0.983307 4.17168 0
M  V30 2646 H 243.776 -0.384173 4.94811 0
M  V30 2647 H 239.032 0.436871 6.09837 0
M  V30 2648 H 243.206 1.03046 6.88734 0
M  V30 2649 H 240.833 1.44701 7.46301 0
M  V30 2650 N 242.408 -1.52605 -0.393616 0
M  V30 2651 C 243.654 -1.67672 -1.14079 0
M  V30 2652 C 243.987 -0.413121 -1.89755 0
M  V30 2653 O 243.262 0.588952 -1.85369 0
M  V30 2654 C 243.545 -2.9088 -2.12276 0
M  V30 2655 C 243.398 -4.27329 -1.40394 0
M  V30 2656 C 244.717 -3.09628 -3.12759 0
M  V30 2657 H 241.836 -0.610168 -0.413356 0
M  V30 2658 H 244.478 -1.85193 -0.424696 0
M  V30 2659 H 242.628 -2.76073 -2.73342 0
M  V30 2660 H 244.3 -4.53894 -0.82327 0
M  V30 2661 H 242.543 -4.2802 -0.705801 0
M  V30 2662 H 243.214 -5.09615 -2.12123 0
M  V30 2663 H 245.69 -3.23436 -2.61779 0
M  V30 2664 H 244.566 -3.97322 -3.78717 0
M  V30 2665 H 244.827 -2.23637 -3.81365 0
M  V30 2666 N 243.887 0.651787 -1.4349 0
M  V30 2667 C 245.135 1.40888 -1.44897 0
M  V30 2668 C 245.456 1.94856 -0.0749086 0
M  V30 2669 O 244.726 1.74518 0.889956 0
M  V30 2670 H 243.306 0.522887 -0.533478 0
M  V30 2671 H 245.968 0.768609 -1.79104 0
M  V30 2672 H 245.064 2.25052 -2.16236 0
M  V30 2673 N 245.365 1.30045 0.890287 0
M  V30 2674 C 246.593 1.21472 1.67487 0
M  V30 2675 C 247.008 -0.223241 1.87476 0
M  V30 2676 O 246.365 -1.14828 1.41847 0
M  V30 2677 C 246.416 1.93394 3.05419 0
M  V30 2678 O 246.137 3.31576 2.86337 0
M  V30 2679 C 247.638 1.91414 3.99844 0
M  V30 2680 H 244.858 0.420604 0.522813 0
M  V30 2681 H 247.402 1.7158 1.11268 0
M  V30 2682 H 245.557 1.47099 3.58386 0
M  V30 2683 H 245.971 3.67929 3.73802 0
M  V30 2684 H 247.445 2.46285 4.94012 0
M  V30 2685 H 247.922 0.891833 4.3005 0
M  V30 2686 H 248.528 2.37496 3.52811 0
M  V30 2687 N 246.843 -1.10192 1.12674 0
M  V30 2688 C 247.776 -2.15847 0.740625 0
M  V30 2689 C 248.754 -1.60352 -0.269421 0
M  V30 2690 O 249.938 -1.87796 -0.16278 0
M  V30 2691 C 247.065 -3.38562 0.096641 0
M  V30 2692 C 246.111 -4.12758 1.07391 0
M  V30 2693 S 246.944 -4.67997 2.60267 0
M  V30 2694 C 248.1 -5.94021 1.97206 0
M  V30 2695 H 248.333 -2.48266 1.63558 0
M  V30 2696 H 245.866 -1.22019 0.946087 0
M  V30 2697 H 247.824 -4.09621 -0.268535 0
M  V30 2698 H 246.485 -3.04377 -0.775462 0
M  V30 2699 H 245.678 -5.00755 0.570997 0
M  V30 2700 H 245.28 -3.47523 1.38216 0
M  V30 2701 H 247.572 -6.64589 1.31634 0
M  V30 2702 H 248.515 -6.48979 2.83253 0
M  V30 2703 H 248.923 -5.46169 1.42686 0
M  V30 2704 N 248.321 -0.919034 -1.28029 0
M  V30 2705 C 249.284 -0.416182 -2.2539 0
M  V30 2706 C 250.284 0.460438 -1.54067 0
M  V30 2707 O 251.474 0.262744 -1.72207 0
M  V30 2708 C 248.606 0.402707 -3.38513 0
M  V30 2709 H 249.799 -1.27629 -2.71387 0
M  V30 2710 H 247.352 -0.698919 -1.39803 0
M  V30 2711 H 248.087 1.282 -2.97885 0
M  V30 2712 H 247.872 -0.225698 -3.9145 0
M  V30 2713 H 249.362 0.745191 -4.10897 0
M  V30 2714 N 249.799 1.42003 -0.683588 0
M  V30 2715 C 250.747 2.326 0.000815408 0
M  V30 2716 C 251.741 1.50308 0.781278 0
M  V30 2717 O 252.947 1.66322 0.688251 0
M  V30 2718 H 249.322 0.751758 0.0190616 0
M  V30 2719 H 251.293 2.88011 -0.780528 0
M  V30 2720 C 250.042 3.34978 0.93195 0
M  V30 2721 H 249.365 3.98345 0.340817 0
M  V30 2722 H 250.805 4.00936 1.37936 0
M  V30 2723 C 249.264 2.67925 2.04249 0
M  V30 2724 O 249.794 2.51788 3.12995 0
M  V30 2725 N 248 2.2681 1.81675 0
M  V30 2726 H 247.547 2.40135 0.932363 0
M  V30 2727 H 247.505 1.8228 2.56167 0
M  V30 2728 N 251.277 0.427512 1.51691 0
M  V30 2729 C 252.693 0.0792977 1.59403 0
M  V30 2730 C 252.893 -1.41035 1.43914 0
M  V30 2731 O 251.949 -2.17922 1.27539 0
M  V30 2732 C 253.262 0.590636 2.94842 0
M  V30 2733 C 254.81 0.550215 3.08126 0
M  V30 2734 C 255.285 1.03836 4.46074 0
M  V30 2735 N 256.776 0.995943 4.52366 0
M  V30 2736 C 257.511 1.34463 5.57411 0
M  V30 2737 N 257.007 1.76569 6.69922 0
M  V30 2738 N 258.8 1.26343 5.47717 0
M  V30 2739 H 250.951 1.39687 1.60004 0
M  V30 2740 H 253.214 0.575003 0.753708 0
M  V30 2741 H 252.92 1.63251 3.11516 0
M  V30 2742 H 252.794 0.0102061 3.77199 0
M  V30 2743 H 255.181 -0.482654 2.91126 0
M  V30 2744 H 255.262 1.16693 2.27632 0
M  V30 2745 H 254.906 2.06965 4.63819 0
M  V30 2746 H 254.836 0.398286 5.25092 0
M  V30 2747 H 257.327 0.68661 3.7161 0
M  V30 2748 H 257.64 2.01438 7.46085 0
M  V30 2749 H 255.985 1.80488 6.71155 0
M  V30 2750 H 259.176 0.933209 4.58703 0
M  V30 2751 H 259.349 1.53846 6.29472 0
M  V30 2752 N 252.755 -1.56801 0.158532 0
M  V30 2753 C 254.002 -1.9649 -0.489679 0
M  V30 2754 C 254.33 -1.04394 -1.6411 0
M  V30 2755 O 253.585 -0.0754401 -1.95555 0
M  V30 2756 C 253.884 -3.4235 -1.02623 0
M  V30 2757 C 253.55 -4.50899 0.00794526 0
M  V30 2758 C 252.212 -4.80312 0.292207 0
M  V30 2759 C 254.564 -5.16333 0.710584 0
M  V30 2760 C 251.892 -5.72461 1.28472 0
M  V30 2761 C 254.244 -6.09553 1.69199 0
M  V30 2762 C 252.908 -6.37339 1.98383 0
M  V30 2763 H 252.178 -0.719009 -0.179186 0
M  V30 2764 H 254.825 -1.8989 0.247798 0
M  V30 2765 H 253.13 -3.45838 -1.84128 0
M  V30 2766 H 254.827 -3.70393 -1.53656 0
M  V30 2767 H 251.417 -4.28015 -0.22379 0
M  V30 2768 H 255.601 -4.93732 0.504174 0
M  V30 2769 H 250.857 -5.92278 1.51714 0
M  V30 2770 H 255.031 -6.59327 2.24189 0
M  V30 2771 H 252.658 -7.08546 2.7544 0
M  V30 2772 N 254.233 0.115231 -1.57178 0
M  V30 2773 C 255.458 0.840354 -1.89612 0
M  V30 2774 C 255.883 1.72464 -0.750845 0
M  V30 2775 O 255.241 1.78826 0.298478 0
M  V30 2776 C 255.289 1.64654 -3.20814 0
M  V30 2777 O 254.393 2.7538 -3.06985 0
M  V30 2778 H 253.734 0.232158 -0.622092 0
M  V30 2779 H 256.264 0.0964977 -2.04372 0
M  V30 2780 H 256.274 2.03499 -3.53627 0
M  V30 2781 H 254.949 0.997416 -4.03763 0
M  V30 2782 H 253.526 2.3971 -2.85646 0
M  V30 2783 N 255.711 1.52812 0.385517 0
M  V30 2784 C 256.988 1.5861 1.14465 0
M  V30 2785 C 257.368 0.381402 2.07626 0
M  V30 2786 O 256.716 -0.629999 2.19643 0
M  V30 2787 C 256.926 2.92664 1.90128 0
M  V30 2788 C 258.274 3.46526 2.45367 0
M  V30 2789 O 259.298 2.94562 2.0028 0
M  V30 2790 O 258.157 4.37323 3.27736 0
M  V30 2791 H 255.251 0.639855 0.523941 0
M  V30 2792 H 257.797 1.65149 0.390389 0
M  V30 2793 H 256.569 3.71788 1.22022 0
M  V30 2794 H 256.192 2.89527 2.72507 0
M  V30 2795 N 257.189 -0.644168 1.43834 0
M  V30 2796 C 258.414 -1.43642 1.49605 0
M  V30 2797 C 258.839 -1.8773 0.117913 0
M  V30 2798 O 258.197 -1.57938 -0.890239 0
M  V30 2799 C 258.245 -2.6416 2.45463 0
M  V30 2800 O 257.349 -3.63538 1.94714 0
M  V30 2801 H 256.69 -0.430329 0.50568 0
M  V30 2802 H 259.22 -0.787448 1.8884 0
M  V30 2803 H 259.23 -3.11864 2.63068 0
M  V30 2804 H 257.905 -2.31414 3.45572 0
M  V30 2805 H 256.482 -3.2273 1.86814 0
M  V30 2806 N 258.668 -1.30515 -0.883378 0
M  V30 2807 C 259.896 -1.22359 -1.66841 0
M  V30 2808 C 260.311 0.213296 -1.87591 0
M  V30 2809 O 259.668 1.14075 -1.42454 0
M  V30 2810 C 259.719 -1.95011 -3.04389 0
M  V30 2811 O 259.44 -3.3309 -2.84575 0
M  V30 2812 C 260.941 -1.93532 -3.98824 0
M  V30 2813 H 258.161 -0.423371 -0.520575 0
M  V30 2814 H 260.705 -1.72167 -1.10357 0
M  V30 2815 H 258.86 -1.48997 -3.57601 0
M  V30 2816 H 259.274 -3.69907 -3.71846 0
M  V30 2817 H 260.748 -2.48902 -4.92699 0
M  V30 2818 H 261.225 -0.914627 -4.29571 0
M  V30 2819 H 261.831 -2.39364 -3.51547 0
M  V30 2820 N 260.146 1.09593 -1.13257 0
M  V30 2821 C 261.371 1.8604 -0.916732 0
M  V30 2822 C 261.796 1.80504 0.529146 0
M  V30 2823 O 261.154 1.18127 1.37534 0
M  V30 2824 C 261.202 3.32017 -1.40703 0
M  V30 2825 O 260.306 4.08141 -0.591153 0
M  V30 2826 H 259.647 0.576943 -0.328683 0
M  V30 2827 H 262.177 1.38405 -1.50682 0
M  V30 2828 H 262.187 3.82865 -1.4099 0
M  V30 2829 H 260.862 3.35361 -2.45979 0
M  V30 2830 H 259.439 3.67084 -0.656005 0
M  V30 2831 N 261.624 0.925811 1.2754 0
M  V30 2832 C 262.534 0.428993 2.30644 0
M  V30 2833 C 263.55 -0.489387 1.66976 0
M  V30 2834 O 264.726 -0.372653 1.97922 0
M  V30 2835 C 261.791 -0.311967 3.45294 0
M  V30 2836 C 260.852 0.641098 4.24486 0
M  V30 2837 C 260.085 -0.0645955 5.33661 0
M  V30 2838 O 260.308 -1.28429 5.55754 0
M  V30 2839 O 259.242 0.606265 5.98839 0
M  V30 2840 H 263.068 1.28504 2.75173 0
M  V30 2841 H 260.653 0.691086 1.32455 0
M  V30 2842 H 262.535 -0.729972 4.15029 0
M  V30 2843 H 261.21 -1.14365 3.02824 0
M  V30 2844 H 260.117 1.10874 3.57292 0
M  V30 2845 H 261.45 1.43995 4.70666 0
M  V30 2846 N 263.102 -1.41638 0.69111 0
M  V30 2847 C 264.351 -2.00526 0.217318 0
M  V30 2848 C 264.664 -1.55353 -1.18848 0
M  V30 2849 O 265.87 -2.06769 -1.75951 0
M  V30 2850 C 264.326 -3.58313 0.337639 0
M  V30 2851 C 263.934 -4.12469 1.74852 0
M  V30 2852 C 265.678 -4.24431 -0.0766066 0
M  V30 2853 C 263.585 -5.62675 1.82074 0
M  V30 2854 H 262.515 -0.750008 0.0774893 0
M  V30 2855 H 265.166 -1.6217 0.858661 0
M  V30 2856 H 263.548 -3.9425 -0.371879 0
M  V30 2857 H 264.722 -3.8796 2.48644 0
M  V30 2858 H 263.037 -3.58861 2.11205 0
M  V30 2859 H 265.634 -5.34683 -0.0430284 0
M  V30 2860 H 265.977 -4.01101 -1.1146 0
M  V30 2861 H 266.51 -3.93512 0.582476 0
M  V30 2862 H 263.249 -5.90826 2.83911 0
M  V30 2863 H 262.769 -5.89124 1.12661 0
M  V30 2864 H 264.448 -6.27371 1.58159 0
M  V30 2865 N 264.58 -0.43555 -1.51462 0
M  V30 2866 C 265.857 0.191364 -1.94662 0
M  V30 2867 C 266.237 1.60254 -1.37411 0
M  V30 2868 O 265.585 2.2152 -0.560458 0
M  V30 2869 C 265.795 0.17091 -3.48581 0
M  V30 2870 C 267.143 0.377357 -4.2292 0
M  V30 2871 O 268.167 0.249104 -3.55328 0
M  V30 2872 O 267.026 0.63247 -5.42828 0
M  V30 2873 H 264.12 0.130932 -0.816569 0
M  V30 2874 H 266.666 -0.4934 -1.62369 0
M  V30 2875 H 265.438 -0.815738 -3.82703 0
M  V30 2876 H 265.061 0.898659 -3.87311 0
M  V30 2877 N 266.058 1.56714 -0.166846 0
M  V30 2878 C 267.006 2.19056 0.782123 0
M  V30 2879 C 268 1.15328 1.24079 0
M  V30 2880 O 269.206 1.33537 1.20697 0
M  V30 2881 H 265.581 0.70167 0.270486 0
M  V30 2882 H 267.552 2.97494 0.232322 0
M  V30 2883 C 266.301 2.84206 2.00306 0
M  V30 2884 H 265.624 3.63748 1.65914 0
M  V30 2885 H 267.064 3.31302 2.64604 0
M  V30 2886 C 265.523 1.83744 2.82382 0
M  V30 2887 O 266.053 1.32014 3.79388 0
M  V30 2888 N 264.259 1.52601 2.47308 0
M  V30 2889 H 263.806 1.9486 1.68485 0
M  V30 2890 H 263.764 0.856351 3.02513 0
M  V30 2891 N 267.536 -0.106894 1.57237 0
M  V30 2892 C 268.466 -1.13148 2.04254 0
M  V30 2893 C 269.447 -1.42476 0.929224 0
M  V30 2894 O 270.632 -1.52709 1.19973 0
M  V30 2895 C 267.762 -2.4545 2.45706 0
M  V30 2896 C 266.716 -2.30558 3.60592 0
M  V30 2897 C 266.042 -3.67931 3.87983 0
M  V30 2898 C 267.342 -1.75597 4.91897 0
M  V30 2899 H 269.036 -0.740374 2.90101 0
M  V30 2900 H 266.582 -0.354696 1.39563 0
M  V30 2901 H 268.535 -3.17389 2.77205 0
M  V30 2902 H 267.259 -2.86475 1.56843 0
M  V30 2903 H 265.918 -1.61067 3.29322 0
M  V30 2904 H 265.566 -4.06462 2.96306 0
M  V30 2905 H 265.266 -3.58817 4.65322 0
M  V30 2906 H 266.79 -4.41356 4.21945 0
M  V30 2907 H 268.204 -2.37364 5.21854 0
M  V30 2908 H 266.601 -1.77272 5.73319 0
M  V30 2909 H 267.671 -0.714451 4.79608 0
M  V30 2910 N 269.014 -1.53014 -0.377408 0
M  V30 2911 C 269.977 -1.77957 -1.44444 0
M  V30 2912 C 270.977 -0.649763 -1.47087 0
M  V30 2913 O 272.167 -0.917897 -1.48055 0
M  V30 2914 C 269.299 -1.89089 -2.83651 0
M  V30 2915 H 270.492 -2.73243 -1.23606 0
M  V30 2916 H 268.045 -1.43912 -0.609844 0
M  V30 2917 H 268.78 -0.958293 -3.09818 0
M  V30 2918 H 268.565 -2.71254 -2.83132 0
M  V30 2919 H 270.055 -2.1002 -3.60945 0
M  V30 2920 N 270.492 0.636531 -1.44174 0
M  V30 2921 C 271.422 1.76003 -1.53444 0
M  V30 2922 C 272.403 1.65619 -0.387841 0
M  V30 2923 O 273.588 1.84461 -0.607257 0
M  V30 2924 C 270.718 3.14511 -1.4731 0
M  V30 2925 C 269.672 3.39677 -2.60391 0
M  V30 2926 C 268.998 4.78159 -2.39308 0
M  V30 2927 C 270.298 3.32772 -4.02567 0
M  V30 2928 H 271.992 1.68501 -2.47483 0
M  V30 2929 H 269.538 0.809237 -1.19111 0
M  V30 2930 H 271.491 3.92878 -1.52397 0
M  V30 2931 H 270.215 3.22783 -0.49785 0
M  V30 2932 H 268.874 2.63688 -2.54684 0
M  V30 2933 H 268.522 4.83128 -1.39988 0
M  V30 2934 H 268.222 4.95956 -3.15122 0
M  V30 2935 H 269.746 5.58762 -2.46205 0
M  V30 2936 H 271.16 4.01051 -4.09672 0
M  V30 2937 H 269.557 3.62104 -4.7854 0
M  V30 2938 H 270.627 2.30669 -4.2652 0
M  V30 2939 N 271.97 1.30982 0.876444 0
M  V30 2940 C 272.9 1.20668 1.99903 0
M  V30 2941 C 273.881 0.095354 1.69833 0
M  V30 2942 O 275.066 0.27885 1.92188 0
M  V30 2943 C 272.196 0.90655 3.3526 0
M  V30 2944 C 271.15 1.97675 3.79617 0
M  V30 2945 C 270.476 1.52943 5.1236 0
M  V30 2946 C 271.776 3.389 3.97422 0
M  V30 2947 H 273.47 2.14586 2.0879 0
M  V30 2948 H 271.016 1.03308 1.00317 0
M  V30 2949 H 272.969 0.821025 4.13324 0
M  V30 2950 H 271.693 -0.0682969 3.26529 0
M  V30 2951 H 270.352 2.05205 3.03787 0
M  V30 2952 H 270 0.54262 5.00065 0
M  V30 2953 H 269.7 2.24532 5.43009 0
M  V30 2954 H 271.224 1.45786 5.92941 0
M  V30 2955 H 272.638 3.34081 4.659 0
M  V30 2956 H 271.035 4.0865 4.3946 0
M  V30 2957 H 272.105 3.80163 3.01006 0
M  V30 2958 N 273.449 -1.08991 1.13837 0
M  V30 2959 C 274.677 -1.85011 0.926202 0
M  V30 2960 C 275.092 -1.8135 -0.525127 0
M  V30 2961 O 274.449 -1.21287 -1.36366 0
M  V30 2962 C 274.5 -3.32802 1.41155 0
M  V30 2963 O 274.221 -3.36444 2.80601 0
M  V30 2964 C 275.722 -4.25649 1.23847 0
M  V30 2965 H 272.942 -0.584249 0.32999 0
M  V30 2966 H 275.486 -1.37688 1.51202 0
M  V30 2967 H 273.641 -3.77536 0.868631 0
M  V30 2968 H 274.055 -4.28657 3.02248 0
M  V30 2969 H 275.529 -5.27485 1.62675 0
M  V30 2970 H 276.006 -4.38828 0.18065 0
M  V30 2971 H 276.612 -3.86735 1.76964 0
M  V30 2972 N 274.927 -0.932562 -1.27047 0
M  V30 2973 C 275.89 -0.440064 -2.24936 0
M  V30 2974 C 276.89 0.444071 -1.54547 0
M  V30 2975 O 278.08 0.244465 -1.72476 0
M  V30 2976 C 275.212 0.36678 -3.38921 0
M  V30 2977 H 276.405 -1.305 -2.70018 0
M  V30 2978 H 273.958 -0.713707 -1.39054 0
M  V30 2979 H 274.693 1.25033 -2.99228 0
M  V30 2980 H 274.478 -0.267204 -3.91188 0
M  V30 2981 H 275.968 0.701567 -4.11665 0
M  V30 2982 N 276.405 1.4127 -0.698611 0
M  V30 2983 C 277.335 2.33447 -0.049629 0
M  V30 2984 C 278.316 1.51982 0.763898 0
M  V30 2985 O 279.501 1.80509 0.716257 0
M  V30 2986 C 276.631 3.35828 0.885267 0
M  V30 2987 C 275.585 4.27627 0.178613 0
M  V30 2988 C 274.911 5.20406 1.22807 0
M  V30 2989 C 276.211 5.13459 -0.956933 0
M  V30 2990 H 277.905 2.87966 -0.81951 0
M  V30 2991 H 275.451 1.38461 -0.395538 0
M  V30 2992 H 277.404 3.9924 1.34854 0
M  V30 2993 H 276.128 2.79666 1.68685 0
M  V30 2994 H 274.787 3.65643 -0.26466 0
M  V30 2995 H 274.435 4.60558 2.02226 0
M  V30 2996 H 274.135 5.82661 0.760239 0
M  V30 2997 H 275.659 5.86695 1.69179 0
M  V30 2998 H 277.073 5.70421 -0.573805 0
M  V30 2999 H 275.47 5.8467 -1.35205 0
M  V30 3000 H 276.54 4.50443 -1.79524 0
M  V30 3001 N 277.883 0.443576 1.51229 0
M  V30 3002 C 278.83 -0.364716 2.279 0
M  V30 3003 C 279.8 -1.0114 1.31757 0
M  V30 3004 O 280.985 -1.02912 1.60667 0
M  V30 3005 C 278.125 -1.45644 3.12861 0
M  V30 3006 C 277.238 -0.827269 4.24005 0
M  V30 3007 C 276.373 -1.89456 4.96266 0
M  V30 3008 C 275.412 -1.24416 5.99322 0
M  V30 3009 N 274.549 -2.25309 6.64966 0
M  V30 3010 H 279.389 0.295464 2.96532 0
M  V30 3011 H 276.926 0.157554 1.46254 0
M  V30 3012 H 278.884 -2.10076 3.6045 0
M  V30 3013 H 277.514 -2.08616 2.46331 0
M  V30 3014 H 276.566 -0.0710839 3.80334 0
M  V30 3015 H 277.878 -0.312481 4.9782 0
M  V30 3016 H 277.032 -2.61535 5.47434 0
M  V30 3017 H 275.771 -2.4431 4.22095 0
M  V30 3018 H 274.776 -0.508868 5.4744 0
M  V30 3019 H 276.001 -0.702882 6.75453 0
M  V30 3020 H 273.947 -2.79231 5.93604 0
M  V30 3021 H 273.864 -1.78739 7.34567 0
M  V30 3022 H 275.132 -2.96853 7.20763 0
M  V30 3023 N 279.361 -1.56624 0.175154 0
M  V30 3024 C 280.638 -1.88688 -0.515373 0
M  V30 3025 C 281.018 -1.08564 -1.81044 0
M  V30 3026 O 280.366 -0.180703 -2.27784 0
M  V30 3027 C 280.576 -3.40768 -0.753552 0
M  V30 3028 C 281.924 -4.10587 -1.08184 0
M  V30 3029 O 282.948 -3.46106 -0.841961 0
M  V30 3030 O 281.807 -5.24512 -1.53459 0
M  V30 3031 H 278.901 -0.78301 -0.26613 0
M  V30 3032 H 281.447 -1.68347 0.213877 0
M  V30 3033 H 280.219 -3.90965 0.161829 0
M  V30 3034 H 279.842 -3.66733 -1.53598 0
M  V30 3035 N 280.839 0.0985539 -1.57292 0
M  V30 3036 C 281.786 1.11981 -2.01814 0
M  V30 3037 C 282.756 1.39999 -0.89384 0
M  V30 3038 O 283.941 1.5152 -1.15958 0
M  V30 3039 C 281.081 2.43577 -2.44467 0
M  V30 3040 C 280.194 2.2232 -3.70402 0
M  V30 3041 C 279.329 3.4729 -4.01949 0
M  V30 3042 C 278.368 3.2128 -5.21005 0
M  V30 3043 N 277.505 4.38507 -5.48321 0
M  V30 3044 H 282.345 0.733149 -2.88841 0
M  V30 3045 H 279.882 0.350482 -1.42864 0
M  V30 3046 H 281.84 3.20373 -2.6724 0
M  V30 3047 H 280.47 2.80097 -1.60455 0
M  V30 3048 H 279.522 1.36343 -3.55126 0
M  V30 3049 H 280.834 1.99089 -4.57345 0
M  V30 3050 H 279.988 4.32495 -4.25479 0
M  V30 3051 H 278.727 3.73572 -3.13521 0
M  V30 3052 H 277.732 2.34468 -4.97298 0
M  V30 3053 H 278.957 2.96348 -6.11028 0
M  V30 3054 H 276.903 4.64871 -4.62851 0
M  V30 3055 H 276.82 4.18455 -6.29628 0
M  V30 3056 H 278.088 5.24787 -5.76385 0
M  V30 3057 N 282.317 1.53212 0.369288 0
M  V30 3058 C 283.547 1.72868 1.13139 0
M  V30 3059 C 283.955 0.455754 1.83629 0
M  V30 3060 O 283.298 -0.580861 1.74275 0
M  V30 3061 C 283.36 2.83667 2.20847 0
M  V30 3062 C 283.024 4.24142 1.70155 0
M  V30 3063 C 284.021 5.06619 1.16763 0
M  V30 3064 C 281.706 4.70539 1.7578 0
M  V30 3065 C 283.7 6.33581 0.696678 0
M  V30 3066 C 281.387 5.97481 1.28297 0
M  V30 3067 C 282.385 6.78833 0.753307 0
M  V30 3068 O 282.073 8.03393 0.285475 0
M  V30 3069 H 281.805 0.581707 0.344373 0
M  V30 3070 H 284.359 2.00736 0.435243 0
M  V30 3071 H 282.589 2.51265 2.93944 0
M  V30 3072 H 284.278 2.91536 2.82421 0
M  V30 3073 H 285.044 4.71948 1.11758 0
M  V30 3074 H 280.923 4.07293 2.15949 0
M  V30 3075 H 284.467 6.97027 0.282581 0
M  V30 3076 H 280.364 6.31651 1.32994 0
M  V30 3077 H 281.132 8.17497 0.405145 0
M  V30 3078 N 283.795 -0.628877 1.44509 0
M  V30 3079 C 285.043 -1.38565 1.4712 0
M  V30 3080 C 285.364 -1.94712 0.105899 0
M  V30 3081 O 284.634 -1.75912 -0.862079 0
M  V30 3082 H 283.214 -0.514333 0.541729 0
M  V30 3083 H 285.876 -0.740018 1.80305 0
M  V30 3084 H 284.972 -2.21583 2.19789 0
M  V30 3085 N 285.273 -1.31445 -0.869486 0
M  V30 3086 C 286.519 -1.21337 -1.62496 0
M  V30 3087 C 286.852 0.227872 -1.92858 0
M  V30 3088 O 286.127 1.16094 -1.56053 0
M  V30 3089 C 286.41 -2.05814 -2.95487 0
M  V30 3090 C 286.263 -3.5824 -2.72 0
M  V30 3091 C 287.582 -1.9079 -3.96594 0
M  V30 3092 H 284.701 -0.442135 -0.589649 0
M  V30 3093 H 287.343 -1.6124 -1.00507 0
M  V30 3094 H 285.493 -1.71913 -3.48394 0
M  V30 3095 H 287.165 -4.0228 -2.25762 0
M  V30 3096 H 285.408 -3.81647 -2.06224 0
M  V30 3097 H 286.079 -4.12657 -3.66631 0
M  V30 3098 H 288.555 -2.20459 -3.52898 0
M  V30 3099 H 287.431 -2.52199 -4.87531 0
M  V30 3100 H 287.692 -0.871341 -4.33428 0
M  V30 3101 N 286.751 1.08385 -1.14413 0
M  V30 3102 C 287.976 1.85057 -0.936413 0
M  V30 3103 C 288.401 1.81055 0.509971 0
M  V30 3104 O 287.759 1.1958 1.36273 0
M  V30 3105 C 287.807 3.30505 -1.44217 0
M  V30 3106 O 286.911 4.07491 -0.634409 0
M  V30 3107 H 286.252 0.573425 -0.334784 0
M  V30 3108 H 288.782 1.36799 -1.52142 0
M  V30 3109 H 288.792 3.81348 -1.45043 0
M  V30 3110 H 287.467 3.32734 -2.49522 0
M  V30 3111 H 286.044 3.66368 -0.694902 0
M  V30 3112 N 288.23 0.939286 1.26551 0
M  V30 3113 C 289.162 0.404704 2.25599 0
M  V30 3114 C 290.175 -0.470983 1.55838 0
M  V30 3115 O 291.364 -0.281734 1.76263 0
M  V30 3116 C 288.464 -0.43764 3.36062 0
M  V30 3117 C 287.637 0.421449 4.35365 0
M  V30 3118 C 286.696 -0.36015 5.24966 0
M  V30 3119 O 285.722 0.236167 5.6871 0
M  V30 3120 N 286.924 -1.65715 5.56344 0
M  V30 3121 H 289.689 1.25618 2.72103 0
M  V30 3122 H 287.25 0.807963 1.40298 0
M  V30 3123 H 289.242 -0.967866 3.92956 0
M  V30 3124 H 287.812 -1.18991 2.89067 0
M  V30 3125 H 287.032 1.1329 3.7757 0
M  V30 3126 H 288.32 1.00835 4.98708 0
M  V30 3127 H 287.718 -2.16378 5.22682 0
M  V30 3128 H 286.275 -2.13366 6.15888 0
M  V30 3129 N 289.708 -1.40897 0.706093 0
M  V30 3130 C 290.956 -2.00657 0.241054 0
M  V30 3131 C 291.277 -1.56241 -1.16678 0
M  V30 3132 O 290.547 -0.79765 -1.78926 0
M  V30 3133 H 289.127 -0.742018 0.0861308 0
M  V30 3134 H 291.789 -1.72372 0.909604 0
M  V30 3135 H 290.885 -3.10958 0.266705 0
M  V30 3136 N 291.186 -0.45159 -1.50991 0
M  V30 3137 C 292.119 0.398179 -2.24699 0
M  V30 3138 C 293.097 1.01276 -1.27208 0
M  V30 3139 O 294.281 1.05247 -1.56382 0
M  V30 3140 C 291.408 1.55618 -3.00833 0
M  V30 3141 C 290.454 1.0609 -4.13095 0
M  V30 3142 S 291.287 -0.00865136 -5.35499 0
M  V30 3143 C 292.443 1.15369 -6.15175 0
M  V30 3144 H 292.676 -0.227555 -2.96428 0
M  V30 3145 H 290.209 -0.236251 -1.52582 0
M  V30 3146 H 292.167 2.21997 -3.45293 0
M  V30 3147 H 290.828 2.15337 -2.28667 0
M  V30 3148 H 290.021 1.92726 -4.65696 0
M  V30 3149 H 289.623 0.47513 -3.7097 0
M  V30 3150 H 291.915 2.06925 -6.45126 0
M  V30 3151 H 292.858 0.667344 -7.04948 0
M  V30 3152 H 293.266 1.3987 -5.46897 0
M  V30 3153 N 292.664 1.56529 -0.183458 0
M  V30 3154 C 293.627 2.17324 0.728223 0
M  V30 3155 C 294.627 1.12453 1.14939 0
M  V30 3156 O 295.817 1.37902 1.06437 0
M  V30 3157 C 292.949 2.76591 1.99274 0
M  V30 3158 H 294.142 2.99241 0.198772 0
M  V30 3159 H 291.695 1.5616 0.0661391 0
M  V30 3160 H 292.43 1.98441 2.56499 0
M  V30 3161 H 292.215 3.5335 1.69959 0
M  V30 3162 H 293.705 3.23311 2.6431 0
M  V30 3163 N 294.142 -0.090211 1.57342 0
M  V30 3164 C 295.388 -0.793982 1.86611 0
M  V30 3165 C 295.721 -1.78142 0.773252 0
M  V30 3166 O 294.996 -1.93271 -0.218304 0
M  V30 3167 C 295.279 -1.51839 3.26523 0
M  V30 3168 C 295.132 -0.548609 4.46442 0
M  V30 3169 C 296.451 -2.46779 3.64401 0
M  V30 3170 H 293.57 -0.287186 0.678744 0
M  V30 3171 H 296.212 -0.0575076 1.89913 0
M  V30 3172 H 294.362 -2.14617 3.23839 0
M  V30 3173 H 296.034 0.0725513 4.61243 0
M  V30 3174 H 294.277 0.137614 4.33582 0
M  V30 3175 H 294.948 -1.09271 5.41076 0
M  V30 3176 H 297.424 -1.94089 3.68061 0
M  V30 3177 H 296.3 -2.94479 4.63221 0
M  V30 3178 H 296.561 -3.30758 2.93346 0
M  V30 3179 N 295.62 -1.53406 -0.361157 0
M  V30 3180 C 296.867 -1.69802 -1.10333 0
M  V30 3181 C 297.195 -0.452087 -1.89173 0
M  V30 3182 O 296.45 0.566017 -1.87336 0
M  V30 3183 C 296.749 -2.90211 -2.08596 0
M  V30 3184 C 296.415 -4.26539 -1.46203 0
M  V30 3185 C 295.077 -4.6361 -1.28915 0
M  V30 3186 C 297.429 -5.113 -1.01101 0
M  V30 3187 C 294.757 -5.83075 -0.651157 0
M  V30 3188 C 297.109 -6.31415 -0.387007 0
M  V30 3189 C 295.773 -6.67195 -0.201657 0
M  V30 3190 H 295.043 -0.621351 -0.403737 0
M  V30 3191 H 297.69 -1.87598 -0.384609 0
M  V30 3192 H 295.995 -2.66946 -2.86788 0
M  V30 3193 H 297.692 -3.00091 -2.65982 0
M  V30 3194 H 294.282 -3.97352 -1.60653 0
M  V30 3195 H 298.466 -4.83206 -1.13249 0
M  V30 3196 H 293.722 -6.09385 -0.496006 0
M  V30 3197 H 297.896 -6.96394 -0.0293563 0
M  V30 3198 H 295.523 -7.59628 0.294766 0
M  V30 3199 N 297.098 0.621204 -1.44841 0
M  V30 3200 C 298.046 1.75385 -1.52784 0
M  V30 3201 C 299.04 1.64639 -0.398779 0
M  V30 3202 O 300.246 1.70598 -0.574137 0
M  V30 3203 H 296.621 0.579193 -0.479625 0
M  V30 3204 H 298.592 1.6581 -2.48092 0
M  V30 3205 C 297.341 3.13742 -1.4987 0
M  V30 3206 H 296.664 3.22663 -2.36069 0
M  V30 3207 H 298.104 3.92861 -1.59487 0
M  V30 3208 C 296.563 3.36175 -0.220973 0
M  V30 3209 O 297.093 3.95469 0.704782 0
M  V30 3210 N 295.299 2.90348 -0.120963 0
M  V30 3211 H 294.846 2.42278 -0.875162 0
M  V30 3212 H 294.804 3.05732 0.733168 0
M  V30 3213 N 298.576 1.31904 0.862503 0
M  V30 3214 C 299.508 1.16005 1.97675 0
M  V30 3215 C 300.521 0.0971234 1.6251 0
M  V30 3216 O 301.71 0.345337 1.75128 0
M  V30 3217 C 298.81 0.751791 3.30456 0
M  V30 3218 C 297.983 1.90133 3.93914 0
M  V30 3219 C 297.042 1.4779 5.05019 0
M  V30 3220 O 296.068 2.18872 5.25437 0
M  V30 3221 N 297.27 0.369491 5.79323 0
M  V30 3222 H 300.035 2.11982 2.11857 0
M  V30 3223 H 297.596 1.24337 1.03691 0
M  V30 3224 H 299.588 0.451084 4.02178 0
M  V30 3225 H 298.158 -0.116593 3.12382 0
M  V30 3226 H 297.378 2.36896 3.15078 0
M  V30 3227 H 298.666 2.67111 4.33047 0
M  V30 3228 H 298.064 -0.222299 5.65263 0
M  V30 3229 H 296.621 0.128354 6.51674 0
M  V30 3230 N 300.054 -1.07777 1.14986 0
M  V30 3231 C 300.984 -2.16865 0.865557 0
M  V30 3232 C 301.965 -1.69123 -0.182083 0
M  V30 3233 O 303.15 -1.94164 -0.0373815 0
M  V30 3234 C 300.28 -3.45539 0.349313 0
M  V30 3235 C 299.234 -4.06708 1.33313 0
M  V30 3236 C 298.56 -5.30411 0.675918 0
M  V30 3237 C 299.86 -4.47241 2.69764 0
M  V30 3238 H 301.554 -2.40905 1.77778 0
M  V30 3239 H 299.1 -1.15781 0.856203 0
M  V30 3240 H 301.053 -4.21174 0.137983 0
M  V30 3241 H 299.777 -3.21072 -0.598362 0
M  V30 3242 H 298.436 -3.33112 1.53075 0
M  V30 3243 H 298.084 -5.02232 -0.277767 0
M  V30 3244 H 297.784 -5.72293 1.33244 0
M  V30 3245 H 299.308 -6.08755 0.474262 0
M  V30 3246 H 300.722 -5.14025 2.53873 0
M  V30 3247 H 299.119 -5.00062 3.3175 0
M  V30 3248 H 300.189 -3.58818 3.26156 0
M  V30 3249 N 301.532 -0.945985 -1.26051 0
M  V30 3250 C 302.479 -0.45809 -2.26208 0
M  V30 3251 C 303.449 0.484816 -1.58867 0
M  V30 3252 O 304.634 0.399969 -1.86561 0
M  V30 3253 C 301.774 0.266131 -3.44072 0
M  V30 3254 C 300.887 -0.713005 -4.26075 0
M  V30 3255 C 300.022 0.0329013 -5.3119 0
M  V30 3256 C 299.061 -0.93774 -6.04874 0
M  V30 3257 N 298.198 -0.223274 -7.01745 0
M  V30 3258 H 303.038 -1.3171 -2.67313 0
M  V30 3259 H 300.575 -0.66069 -1.31428 0
M  V30 3260 H 302.533 0.702514 -4.11243 0
M  V30 3261 H 301.163 1.08925 -3.03867 0
M  V30 3262 H 300.215 -1.26789 -3.58648 0
M  V30 3263 H 301.527 -1.45406 -4.77136 0
M  V30 3264 H 300.681 0.528335 -6.04395 0
M  V30 3265 H 299.42 0.806801 -4.8098 0
M  V30 3266 H 298.425 -1.44425 -5.30492 0
M  V30 3267 H 299.65 -1.71172 -6.57173 0
M  V30 3268 H 297.596 0.532046 -6.53839 0
M  V30 3269 H 297.513 -0.90357 -7.50581 0
M  V30 3270 H 298.781 0.250907 -7.79096 0
M  V30 3271 N 303.011 1.40521 -0.713556 0
M  V30 3272 C 304.257 2.01714 -0.261382 0
M  V30 3273 C 304.612 1.55562 1.13217 0
M  V30 3274 O 303.905 0.764893 1.7567 0
M  V30 3275 C 304.099 3.56317 -0.278 0
M  V30 3276 C 303.928 4.17476 -1.67163 0
M  V30 3277 C 302.698 4.50998 -2.2788 0
M  V30 3278 C 304.896 4.42472 -2.6215 0
M  V30 3279 N 302.878 4.9754 -3.5962 0
M  V30 3280 C 304.249 4.90985 -3.78594 0
M  V30 3281 C 306.304 4.24508 -2.60188 0
M  V30 3282 C 305.007 5.2342 -4.9338 0
M  V30 3283 C 307.033 4.58043 -3.741 0
M  V30 3284 C 306.395 5.06743 -4.89276 0
M  V30 3285 H 302.494 0.769104 -0.141434 0
M  V30 3286 H 305.078 1.70785 -0.934915 0
M  V30 3287 H 303.249 3.8668 0.36509 0
M  V30 3288 H 304.981 4.0425 0.190695 0
M  V30 3289 H 301.736 4.38062 -1.79997 0
M  V30 3290 H 302.16 5.25196 -4.27198 0
M  V30 3291 H 306.802 3.86078 -1.72348 0
M  V30 3292 H 304.52 5.60765 -5.81866 0
M  V30 3293 H 308.106 4.45785 -3.73854 0
M  V30 3294 H 306.986 5.32204 -5.75959 0
M  V30 3295 N 304.489 0.459591 1.5075 0
M  V30 3296 C 305.419 -0.330644 2.31147 0
M  V30 3297 C 306.4 -1.00087 1.37538 0
M  V30 3298 O 307.585 -1.00025 1.66459 0
M  V30 3299 C 304.715 -1.41958 3.16962 0
M  V30 3300 C 303.669 -0.871608 4.19031 0
M  V30 3301 C 302.995 -2.05797 4.9351 0
M  V30 3302 C 304.295 0.109251 5.22186 0
M  V30 3303 H 305.989 0.340336 2.97459 0
M  V30 3304 H 303.535 0.165119 1.4305 0
M  V30 3305 H 305.488 -1.9798 3.71997 0
M  V30 3306 H 304.212 -2.11917 2.48513 0
M  V30 3307 H 302.871 -0.333442 3.6508 0
M  V30 3308 H 302.519 -2.74427 4.21544 0
M  V30 3309 H 302.219 -1.6976 5.62544 0
M  V30 3310 H 303.743 -2.62331 5.51375 0
M  V30 3311 H 305.157 -0.361405 5.7216 0
M  V30 3312 H 303.554 0.383316 5.98875 0
M  V30 3313 H 304.624 1.03887 4.73641 0
M  V30 3314 N 305.967 -1.56429 0.191757 0
M  V30 3315 C 307.213 -1.97777 -0.448554 0
M  V30 3316 C 307.546 -1.07847 -1.61501 0
M  V30 3317 O 306.821 -0.129774 -1.94067 0
M  V30 3318 C 307.104 -3.48362 -0.911906 0
M  V30 3319 C 306.957 -4.4907 0.256136 0
M  V30 3320 C 308.276 -4.02561 -1.77857 0
M  V30 3321 H 305.395 -0.719071 -0.161572 0
M  V30 3322 H 308.037 -1.87896 0.282007 0
M  V30 3323 H 306.187 -3.56914 -1.53442 0
M  V30 3324 H 307.859 -4.5256 0.893733 0
M  V30 3325 H 306.102 -4.24181 0.908436 0
M  V30 3326 H 306.773 -5.51889 -0.11053 0
M  V30 3327 H 309.249 -3.96767 -1.25359 0
M  V30 3328 H 308.125 -5.08301 -2.07174 0
M  V30 3329 H 308.386 -3.47616 -2.73158 0
M  V30 3330 N 307.445 0.0818655 -1.57387 0
M  V30 3331 C 308.393 1.11712 -2.04018 0
M  V30 3332 C 309.387 1.40683 -0.94364 0
M  V30 3333 O 310.593 1.40209 -1.12878 0
M  V30 3334 H 306.968 0.377542 -0.650358 0
M  V30 3335 H 308.939 0.697614 -2.90131 0
M  V30 3336 C 307.688 2.42537 -2.49141 0
M  V30 3337 H 307.011 2.21092 -3.33104 0
M  V30 3338 H 308.451 3.13446 -2.85531 0
M  V30 3339 C 306.91 3.0778 -1.37014 0
M  V30 3340 O 307.44 3.95436 -0.706621 0
M  V30 3341 N 305.646 2.68242 -1.11779 0
M  V30 3342 H 305.193 1.97052 -1.65917 0
M  V30 3343 H 305.151 3.1222 -0.369594 0
M  V30 3344 N 308.923 1.53595 0.353017 0
M  V30 3345 C 310.334 1.61937 0.929153 0
M  V30 3346 C 310.685 0.494686 1.89861 0
M  V30 3347 O 309.81 -0.377017 2.1309 0
M  V30 3348 C 310.405 2.93526 1.69199 0
M  V30 3349 C 308.964 3.04161 2.21727 0
M  V30 3350 C 308.111 2.57322 1.03348 0
M  V30 3351 H 311.062 1.58155 0.131431 0
M  V30 3352 H 311.083 2.82034 2.55416 0
M  V30 3353 H 310.595 3.75362 0.986144 0
M  V30 3354 H 308.696 2.26938 2.95516 0
M  V30 3355 H 308.809 4.09465 2.48748 0
M  V30 3356 H 307.173 2.12499 1.40414 0
M  V30 3357 H 307.956 3.41588 0.342428 0
M  V30 3358 N 310.401 -0.613514 1.45168 0
M  V30 3359 C 311.626 -1.40437 1.52618 0
M  V30 3360 C 312.051 -1.87438 0.157707 0
M  V30 3361 O 311.409 -1.59791 -0.856537 0
M  V30 3362 C 311.457 -2.58894 2.51011 0
M  V30 3363 O 310.561 -3.59326 2.02382 0
M  V30 3364 H 309.902 -0.419506 0.514695 0
M  V30 3365 H 312.432 -0.747215 1.90467 0
M  V30 3366 H 312.442 -3.06214 2.69624 0
M  V30 3367 H 311.117 -2.24032 3.50403 0
M  V30 3368 H 309.694 -3.18695 1.93618 0
M  V30 3369 N 311.879 -1.3236 -0.855495 0
M  V30 3370 C 312.842 -1.21164 -1.94556 0
M  V30 3371 C 313.842 -0.134908 -1.60233 0
M  V30 3372 O 315.032 -0.385249 -1.69887 0
M  V30 3373 C 312.164 -0.863192 -3.29791 0
M  V30 3374 H 313.357 -2.18038 -2.05911 0
M  V30 3375 H 310.91 -1.16179 -1.04557 0
M  V30 3376 H 311.645 0.103769 -3.24134 0
M  V30 3377 H 311.43 -1.64166 -3.56078 0
M  V30 3378 H 312.92 -0.809156 -4.09686 0
M  V30 3379 N 313.357 1.07166 -1.15556 0
M  V30 3380 C 314.768 1.6127 -0.940693 0
M  V30 3381 C 315.119 1.89251 0.517551 0
M  V30 3382 O 314.244 1.65937 1.38903 0
M  V30 3383 C 314.839 2.92993 -1.7012 0
M  V30 3384 C 313.398 3.43832 -1.53156 0
M  V30 3385 C 312.545 2.1786 -1.71558 0
M  V30 3386 H 315.496 0.90229 -1.30554 0
M  V30 3387 H 315.517 3.62007 -1.17181 0
M  V30 3388 H 315.029 2.72596 -2.76248 0
M  V30 3389 H 313.13 3.69307 -0.494294 0
M  V30 3390 H 313.243 4.19747 -2.30975 0
M  V30 3391 H 311.607 2.2765 -1.14225 0
M  V30 3392 H 312.39 1.99956 -2.79056 0
M  V30 3393 N 314.835 0.952656 1.25548 0
M  V30 3394 C 316.063 0.623496 1.97282 0
M  V30 3395 C 316.478 -0.803987 1.70826 0
M  V30 3396 O 315.835 -1.53755 0.983147 0
M  V30 3397 C 315.886 0.870209 3.5087 0
M  V30 3398 O 315.607 2.24156 3.76412 0
M  V30 3399 C 317.108 0.553164 4.39835 0
M  V30 3400 H 314.328 0.233931 0.628902 0
M  V30 3401 H 316.872 1.27649 1.59768 0
M  V30 3402 H 315.027 0.263652 3.86502 0
M  V30 3403 H 315.441 2.31021 4.70882 0
M  V30 3404 H 316.915 0.776342 5.46513 0
M  V30 3405 H 317.392 -0.512215 4.36203 0
M  V30 3406 H 317.998 1.13896 4.09766 0
M  V30 3407 N 316.313 -1.40141 0.720998 0
M  V30 3408 C 317.541 -2.05096 0.272656 0
M  V30 3409 C 317.956 -1.54334 -1.0875 0
M  V30 3410 O 317.313 -0.702211 -1.6845 0
M  V30 3411 C 317.364 -3.60636 0.249835 0
M  V30 3412 O 317.085 -4.09526 1.55629 0
M  V30 3413 C 318.586 -4.42772 -0.216396 0
M  V30 3414 H 315.806 -0.659897 0.121558 0
M  V30 3415 H 318.35 -1.79449 0.980723 0
M  V30 3416 H 316.505 -3.85232 -0.409237 0
M  V30 3417 H 316.919 -5.03758 1.4604 0
M  V30 3418 H 318.393 -5.51702 -0.181212 0
M  V30 3419 H 318.87 -4.20756 -1.25941 0
M  V30 3420 H 319.476 -4.23294 0.412596 0
M  V30 3421 N 317.792 -0.46758 -1.50504 0
M  V30 3422 C 319.041 0.0902868 -2.01498 0
M  V30 3423 C 319.354 1.411 -1.35463 0
M  V30 3424 O 320.56 2.0536 -1.77594 0
M  V30 3425 C 319.016 0.21142 -3.59278 0
M  V30 3426 C 318.624 -1.10065 -4.34269 0
M  V30 3427 C 320.368 0.721433 -4.18325 0
M  V30 3428 C 318.275 -0.943505 -5.83825 0
M  V30 3429 H 317.205 0.037517 -0.753066 0
M  V30 3430 H 319.856 -0.601943 -1.73346 0
M  V30 3431 H 318.238 0.967352 -3.84003 0
M  V30 3432 H 319.412 -1.86726 -4.21272 0
M  V30 3433 H 317.727 -1.5415 -3.86816 0
M  V30 3434 H 320.324 0.85598 -5.27804 0
M  V30 3435 H 320.667 1.71186 -3.79475 0
M  V30 3436 H 321.2 0.0229843 -3.97793 0
M  V30 3437 H 317.939 -1.90719 -6.27141 0
M  V30 3438 H 317.459 -0.217213 -5.99407 0
M  V30 3439 H 319.138 -0.608715 -6.4413 0
M  V30 3440 N 319.27 1.56325 -0.20005 0
M  V30 3441 C 320.233 2.18084 0.705132 0
M  V30 3442 C 321.233 1.13666 1.1374 0
M  V30 3443 O 322.423 1.39023 1.04968 0
M  V30 3444 C 319.555 2.78689 1.96329 0
M  V30 3445 H 320.748 2.99435 0.167023 0
M  V30 3446 H 318.301 1.56221 0.0495725 0
M  V30 3447 H 319.036 2.0115 2.5438 0
M  V30 3448 H 318.821 3.55133 1.66202 0
M  V30 3449 H 320.311 3.26096 2.60866 0
M  V30 3450 N 320.748 -0.0735177 1.57428 0
M  V30 3451 C 321.994 -0.774145 1.87443 0
M  V30 3452 C 322.327 -1.77311 0.792103 0
M  V30 3453 O 321.602 -1.93492 -0.197793 0
M  V30 3454 C 321.885 -1.48367 3.28115 0
M  V30 3455 C 321.738 -0.501227 4.46999 0
M  V30 3456 C 323.057 -2.429 3.66998 0
M  V30 3457 H 320.176 -0.279971 0.681752 0
M  V30 3458 H 322.818 -0.0373616 1.89963 0
M  V30 3459 H 320.968 -2.11171 3.26097 0
M  V30 3460 H 322.64 0.121468 4.6114 0
M  V30 3461 H 320.883 0.183593 4.33411 0
M  V30 3462 H 321.554 -1.03526 5.42205 0
M  V30 3463 H 324.03 -1.90175 3.70098 0
M  V30 3464 H 322.906 -2.89549 4.66318 0
M  V30 3465 H 323.167 -3.27628 2.96837 0
M  V30 3466 N 322.226 -1.5378 -0.344866 0
M  V30 3467 C 323.158 -1.77988 -1.44406 0
M  V30 3468 C 324.171 -0.661138 -1.48771 0
M  V30 3469 O 325.36 -0.937842 -1.51877 0
M  V30 3470 C 322.46 -1.86345 -2.8307 0
M  V30 3471 C 321.633 -3.16256 -3.0216 0
M  V30 3472 C 320.692 -3.15588 -4.21059 0
M  V30 3473 O 319.718 -3.89314 -4.15239 0
M  V30 3474 N 320.92 -2.37864 -5.29529 0
M  V30 3475 H 323.685 -2.72839 -1.24012 0
M  V30 3476 H 321.246 -1.52814 -0.534737 0
M  V30 3477 H 323.238 -1.83351 -3.60783 0
M  V30 3478 H 321.808 -0.986858 -2.96614 0
M  V30 3479 H 321.028 -3.32385 -2.11929 0
M  V30 3480 H 322.316 -4.0207 -3.11797 0
M  V30 3481 H 321.714 -1.77514 -5.37127 0
M  V30 3482 H 320.271 -2.40668 -6.05741 0
M  V30 3483 N 323.704 0.605807 -1.45491 0
M  V30 3484 C 324.614 1.74466 -1.56839 0
M  V30 3485 C 325.63 1.68006 -0.452772 0
M  V30 3486 O 326.806 1.8833 -0.713708 0
M  V30 3487 C 323.871 3.10931 -1.53371 0
M  V30 3488 C 322.932 3.28832 -2.75986 0
M  V30 3489 C 322.165 4.58787 -2.72673 0
M  V30 3490 O 322.388 5.4122 -1.80102 0
M  V30 3491 O 321.322 4.79438 -3.63899 0
M  V30 3492 H 325.148 1.67843 -2.53106 0
M  V30 3493 H 322.733 0.770108 -1.28022 0
M  V30 3494 H 324.615 3.92233 -1.54051 0
M  V30 3495 H 323.29 3.18042 -0.602572 0
M  V30 3496 H 322.197 2.47112 -2.80867 0
M  V30 3497 H 323.53 3.26599 -3.68231 0
M  V30 3498 N 325.182 1.32811 0.848464 0
M  V30 3499 C 326.407 1.26882 1.6406 0
M  V30 3500 C 326.832 -0.15913 1.87426 0
M  V30 3501 O 326.19 -1.11258 1.43148 0
M  V30 3502 C 326.238 2.03997 2.97351 0
M  V30 3503 O 325.342 1.39201 3.88197 0
M  V30 3504 H 324.683 0.436982 0.499943 0
M  V30 3505 H 327.213 1.75224 1.0563 0
M  V30 3506 H 327.223 2.14403 3.47124 0
M  V30 3507 H 325.898 3.0783 2.79666 0
M  V30 3508 H 324.475 1.37381 3.46671 0
M  V30 3509 N 326.66 -1.06551 1.16123 0
M  V30 3510 C 327.608 -2.16063 0.861371 0
M  V30 3511 C 328.602 -1.6856 -0.168517 0
M  V30 3512 O 329.808 -1.79986 -0.0227579 0
M  V30 3513 H 326.183 -0.705278 0.260934 0
M  V30 3514 H 328.154 -2.38567 1.79244 0
M  V30 3515 C 326.903 -3.45661 0.376018 0
M  V30 3516 H 326.226 -3.82604 1.15992 0
M  V30 3517 H 327.666 -4.23504 0.204951 0
M  V30 3518 C 326.125 -3.24546 -0.903954 0
M  V30 3519 O 326.655 -3.49865 -1.97377 0
M  V30 3520 N 324.861 -2.77992 -0.846679 0
M  V30 3521 H 324.408 -2.57589 0.0241017 0
M  V30 3522 H 324.366 -2.64244 -1.70359 0
M  V30 3523 N 328.138 -0.959301 -1.25041 0
M  V30 3524 C 329.368 -0.63303 -1.96663 0
M  V30 3525 C 329.776 0.800031 -1.71453 0
M  V30 3526 O 329.119 1.54736 -0.99008 0
M  V30 3527 C 329.181 -0.817523 -3.50081 0
M  V30 3528 C 328.845 -2.22863 -3.98975 0
M  V30 3529 C 329.842 -3.20569 -4.09306 0
M  V30 3530 C 327.527 -2.55407 -4.32519 0
M  V30 3531 C 329.521 -4.4891 -4.52503 0
M  V30 3532 C 327.208 -3.83976 -4.754 0
M  V30 3533 C 328.206 -4.8054 -4.85356 0
M  V30 3534 O 327.894 -6.06817 -5.27284 0
M  V30 3535 H 327.626 -0.235866 -0.633516 0
M  V30 3536 H 330.18 -1.2874 -1.60047 0
M  V30 3537 H 328.41 -0.105992 -3.86555 0
M  V30 3538 H 330.099 -0.491604 -4.02912 0
M  V30 3539 H 330.865 -2.96753 -3.83618 0
M  V30 3540 H 326.744 -1.8097 -4.23994 0
M  V30 3541 H 330.288 -5.24283 -4.60188 0
M  V30 3542 H 326.185 -4.07596 -5.00535 0
M  V30 3543 H 326.953 -6.10262 -5.45457 0
M  V30 3544 N 329.616 1.39756 -0.72842 0
M  V30 3545 C 331.027 1.83498 -0.344289 0
M  V30 3546 C 331.378 1.60868 1.12321 0
M  V30 3547 O 330.503 1.09634 1.86573 0
M  V30 3548 C 331.098 3.33114 -0.618112 0
M  V30 3549 C 329.657 3.753 -0.287549 0
M  V30 3550 C 328.804 2.62831 -0.884048 0
M  V30 3551 H 331.755 1.28842 -0.926578 0
M  V30 3552 H 331.776 3.80334 0.112349 0
M  V30 3553 H 331.288 3.49553 -1.68625 0
M  V30 3554 H 329.389 3.64451 0.775012 0
M  V30 3555 H 329.502 4.72945 -0.765512 0
M  V30 3556 H 327.866 2.52792 -0.311149 0
M  V30 3557 H 328.649 2.82078 -1.95671 0
M  V30 3558 N 331.094 0.475555 1.50254 0
M  V30 3559 C 332.024 -0.30611 2.31485 0
M  V30 3560 C 333.005 -0.986228 1.38591 0
M  V30 3561 O 334.19 -0.982541 1.67511 0
M  V30 3562 C 331.32 -1.38588 3.1845 0
M  V30 3563 C 330.274 -0.827115 4.19932 0
M  V30 3564 C 329.6 -2.00551 4.95665 0
M  V30 3565 C 330.9 0.16463 5.2204 0
M  V30 3566 H 332.594 0.371866 2.97082 0
M  V30 3567 H 330.14 0.180282 1.42867 0
M  V30 3568 H 332.093 -1.94023 3.74076 0
M  V30 3569 H 330.817 -2.09269 2.50747 0
M  V30 3570 H 329.476 -0.294702 3.65414 0
M  V30 3571 H 329.124 -2.6994 4.2443 0
M  V30 3572 H 328.824 -1.63784 5.64313 0
M  V30 3573 H 330.348 -2.56468 5.54127 0
M  V30 3574 H 331.762 -0.300699 5.72511 0
M  V30 3575 H 330.159 0.446813 5.98434 0
M  V30 3576 H 331.229 1.08905 4.72512 0
M  V30 3577 N 332.573 -1.56217 0.208337 0
M  V30 3578 C 333.52 -2.19699 -0.707192 0
M  V30 3579 C 334.49 -1.14836 -1.20008 0
M  V30 3580 O 335.675 -1.4314 -1.26157 0
M  V30 3581 C 332.815 -2.87061 -1.91546 0
M  V30 3582 C 331.928 -4.06483 -1.46271 0
M  V30 3583 C 331.063 -4.61665 -2.62752 0
M  V30 3584 C 330.102 -5.73417 -2.14147 0
M  V30 3585 N 329.239 -6.22948 -3.23853 0
M  V30 3586 H 334.079 -2.97575 -0.159111 0
M  V30 3587 H 331.616 -1.46948 -0.0667874 0
M  V30 3588 H 333.574 -3.24294 -2.62468 0
M  V30 3589 H 332.204 -2.11725 -2.43664 0
M  V30 3590 H 331.256 -3.74825 -0.648886 0
M  V30 3591 H 332.568 -4.87271 -1.06622 0
M  V30 3592 H 331.722 -5.01272 -3.41776 0
M  V30 3593 H 330.461 -3.80013 -3.05682 0
M  V30 3594 H 329.466 -5.33326 -1.33581 0
M  V30 3595 H 330.691 -6.56897 -1.72232 0
M  V30 3596 H 328.637 -5.44213 -3.6629 0
M  V30 3597 H 328.554 -6.98823 -2.88414 0
M  V30 3598 H 329.822 -6.6721 -4.03052 0
M  V30 3599 N 334.051 0.0651679 -1.57465 0
M  V30 3600 C 335.298 0.763063 -1.87573 0
M  V30 3601 C 335.626 1.77242 -0.800961 0
M  V30 3602 O 334.881 1.94651 0.202316 0
M  V30 3603 C 335.18 1.50081 -3.24362 0
M  V30 3604 C 334.846 0.630816 -4.46466 0
M  V30 3605 C 333.508 0.391082 -4.79608 0
M  V30 3606 C 335.86 0.0279465 -5.21193 0
M  V30 3607 C 333.188 -0.460894 -5.84887 0
M  V30 3608 C 335.54 -0.811522 -6.27373 0
M  V30 3609 C 334.204 -1.06106 -6.59013 0
M  V30 3610 H 333.474 0.279224 -0.686378 0
M  V30 3611 H 336.121 0.0236726 -1.91485 0
M  V30 3612 H 334.426 2.31258 -3.16271 0
M  V30 3613 H 336.123 2.04571 -3.44894 0
M  V30 3614 H 332.713 0.8278 -4.2053 0
M  V30 3615 H 336.897 0.200262 -4.95896 0
M  V30 3616 H 332.153 -0.662907 -6.07796 0
M  V30 3617 H 336.327 -1.28537 -6.84435 0
M  V30 3618 H 333.954 -1.723 -7.40417 0
M  V30 3619 N 335.529 1.53961 0.336706 0
M  V30 3620 C 336.477 1.83136 1.43401 0
M  V30 3621 C 337.471 0.702313 1.54156 0
M  V30 3622 O 338.677 0.885765 1.56698 0
M  V30 3623 H 335.052 0.580309 0.478273 0
M  V30 3624 H 337.023 2.74925 1.16012 0
M  V30 3625 C 335.772 2.06385 2.79822 0
M  V30 3626 H 335.095 2.92718 2.72316 0
M  V30 3627 H 336.535 2.30761 3.55704 0
M  V30 3628 C 334.994 0.851414 3.25964 0
M  V30 3629 O 335.524 0.0541904 4.01663 0
M  V30 3630 N 333.73 0.66672 2.82848 0
M  V30 3631 H 333.277 1.31665 2.21409 0
M  V30 3632 H 333.235 -0.143032 3.14074 0
M  V30 3633 N 337.007 -0.598083 1.45811 0
M  V30 3634 C 337.939 -1.72231 1.51225 0
M  V30 3635 C 338.952 -1.57757 0.402059 0
M  V30 3636 O 340.141 -1.65464 0.669624 0
M  V30 3637 C 337.241 -3.10331 1.3619 0
M  V30 3638 C 336.414 -3.50955 2.61054 0
M  V30 3639 C 335.473 -4.68055 2.40439 0
M  V30 3640 O 334.499 -4.74691 3.14097 0
M  V30 3641 N 335.701 -5.61941 1.45612 0
M  V30 3642 H 338.466 -1.68046 2.48154 0
M  V30 3643 H 336.027 -0.783637 1.41671 0
M  V30 3644 H 338.019 -3.86439 1.20195 0
M  V30 3645 H 336.589 -3.0897 0.475015 0
M  V30 3646 H 335.809 -2.64711 2.92099 0
M  V30 3647 H 337.097 -3.74858 3.44034 0
M  V30 3648 H 336.495 -5.59301 0.848431 0
M  V30 3649 H 335.052 -6.37542 1.35585 0
M  V30 3650 N 338.485 -1.33259 -0.841409 0
M  V30 3651 C 339.417 -1.19136 -1.95804 0
M  V30 3652 C 340.43 -0.122965 -1.62335 0
M  V30 3653 O 341.619 -0.373154 -1.74556 0
M  V30 3654 C 338.719 -0.804268 -3.29218 0
M  V30 3655 C 337.892 -1.96376 -3.90839 0
M  V30 3656 C 336.951 -1.55806 -5.02604 0
M  V30 3657 O 335.977 -2.27203 -5.21888 0
M  V30 3658 N 337.179 -0.461609 -5.78662 0
M  V30 3659 H 339.944 -2.15326 -2.08458 0
M  V30 3660 H 337.505 -1.25971 -1.017 0
M  V30 3661 H 339.497 -0.51501 -4.0141 0
M  V30 3662 H 338.067 0.0668809 -3.12528 0
M  V30 3663 H 337.287 -2.41879 -3.11269 0
M  V30 3664 H 338.575 -2.73966 -4.28742 0
M  V30 3665 H 337.973 0.132343 -5.65545 0
M  V30 3666 H 336.53 -0.232013 -6.51387 0
M  V30 3667 N 339.963 1.05934 -1.16686 0
M  V30 3668 C 340.911 2.15603 -0.872817 0
M  V30 3669 C 341.905 1.68647 0.159576 0
M  V30 3670 O 343.111 1.79995 0.0132125 0
M  V30 3671 H 339.486 0.703885 -0.264671 0
M  V30 3672 H 341.457 2.37613 -1.80507 0
M  V30 3673 C 340.206 3.45457 -0.394344 0
M  V30 3674 H 339.529 3.81984 -1.18019 0
M  V30 3675 H 340.969 4.2339 -0.227408 0
M  V30 3676 C 339.428 3.25021 0.88673 0
M  V30 3677 O 339.958 3.50906 1.95519 0
M  V30 3678 N 338.164 2.78437 0.831925 0
M  V30 3679 H 337.711 2.57572 -0.0377619 0
M  V30 3680 H 337.669 2.65144 1.68956 0
M  V30 3681 N 341.441 0.965919 1.2453 0
M  V30 3682 C 342.666 0.643971 1.97149 0
M  V30 3683 C 343.091 -0.779487 1.71189 0
M  V30 3684 O 342.449 -1.5288 0.974553 0
M  V30 3685 C 342.497 0.922557 3.48599 0
M  V30 3686 O 341.601 0.00707672 4.12399 0
M  V30 3687 H 340.942 0.243647 0.617683 0
M  V30 3688 H 343.472 1.29558 1.58353 0
M  V30 3689 H 343.482 0.853373 3.98976 0
M  V30 3690 H 342.157 1.95996 3.66822 0
M  V30 3691 H 340.734 0.12943 3.72675 0
M  V30 3692 N 342.919 -1.39368 0.735821 0
M  V30 3693 C 343.851 -2.2913 0.0567723 0
M  V30 3694 C 344.864 -1.46859 -0.702589 0
M  V30 3695 O 346.053 -1.69925 -0.546616 0
M  V30 3696 C 343.153 -3.25492 -0.943823 0
M  V30 3697 C 342.326 -4.36709 -0.24581 0
M  V30 3698 C 341.385 -5.13376 -1.15463 0
M  V30 3699 O 340.411 -5.65683 -0.631803 0
M  V30 3700 N 341.613 -5.24656 -2.48427 0
M  V30 3701 H 344.378 -2.88047 0.827582 0
M  V30 3702 H 341.939 -1.50957 0.585112 0
M  V30 3703 H 343.931 -3.73657 -1.55443 0
M  V30 3704 H 342.501 -2.676 -1.61583 0
M  V30 3705 H 341.721 -3.9041 0.545286 0
M  V30 3706 H 343.009 -5.08244 0.237891 0
M  V30 3707 H 342.407 -4.83679 -2.93379 0
M  V30 3708 H 340.964 -5.76258 -3.04582 0
M  V30 3709 N 344.397 -0.483516 -1.5 0
M  V30 3710 C 345.625 0.0644831 -2.06799 0
M  V30 3711 C 346.04 1.32399 -1.34596 0
M  V30 3712 O 345.397 1.77626 -0.418946 0
M  V30 3713 C 345.448 0.339927 -3.59898 0
M  V30 3714 O 345.169 -0.869635 -4.29382 0
M  V30 3715 C 346.67 0.933515 -4.33359 0
M  V30 3716 H 343.89 -0.0126333 -0.670881 0
M  V30 3717 H 346.434 -0.675864 -1.93009 0
M  V30 3718 H 344.589 1.03022 -3.7345 0
M  V30 3719 H 345.003 -0.62179 -5.20801 0
M  V30 3720 H 346.477 1.07593 -5.41413 0
M  V30 3721 H 346.954 1.92685 -3.94676 0
M  V30 3722 H 347.56 0.281221 -4.24369 0
M  V30 3723 N 345.875 1.56104 -0.216619 0
M  V30 3724 C 346.838 2.18819 0.681962 0
M  V30 3725 C 347.838 1.14866 1.12528 0
M  V30 3726 O 349.028 1.40128 1.03488 0
M  V30 3727 C 346.16 2.80756 1.93362 0
M  V30 3728 H 347.353 2.99595 0.135254 0
M  V30 3729 H 344.906 1.56265 0.0330003 0
M  V30 3730 H 345.641 2.03837 2.52232 0
M  V30 3731 H 345.426 3.56876 1.62426 0
M  V30 3732 H 346.916 3.28844 2.57393 0
M  V30 3733 N 347.353 -0.0568162 1.57498 0
M  V30 3734 C 348.316 -1.05038 2.03715 0
M  V30 3735 C 349.316 -1.30709 0.936577 0
M  V30 3736 O 350.506 -1.26178 1.20103 0
M  V30 3737 C 347.638 -2.39034 2.43055 0
M  V30 3738 H 348.831 -0.651715 2.92733 0
M  V30 3739 H 346.384 -0.302947 1.53336 0
M  V30 3740 H 347.119 -2.83703 1.57108 0
M  V30 3741 H 346.904 -2.21739 3.2338 0
M  V30 3742 H 348.394 -3.10421 2.79336 0
M  V30 3743 N 348.832 -1.54138 -0.328536 0
M  V30 3744 C 349.762 -1.86167 -1.40939 0
M  V30 3745 C 350.743 -0.718044 -1.54202 0
M  V30 3746 O 351.928 -0.971328 -1.68163 0
M  V30 3747 C 349.058 -2.08461 -2.77779 0
M  V30 3748 C 348.012 -3.24299 -2.7931 0
M  V30 3749 C 347.338 -3.31955 -4.19178 0
M  V30 3750 C 348.638 -4.62065 -2.43502 0
M  V30 3751 H 350.332 -2.76689 -1.14383 0
M  V30 3752 H 347.878 -1.33132 -0.548806 0
M  V30 3753 H 349.831 -2.29453 -3.53454 0
M  V30 3754 H 348.555 -1.14684 -3.05802 0
M  V30 3755 H 347.214 -3.03187 -2.0609 0
M  V30 3756 H 346.862 -2.35745 -4.44335 0
M  V30 3757 H 346.562 -4.09805 -4.2111 0
M  V30 3758 H 348.086 -3.55175 -4.96672 0
M  V30 3759 H 349.5 -4.8297 -3.08889 0
M  V30 3760 H 347.897 -5.42429 -2.56693 0
M  V30 3761 H 348.967 -4.64652 -1.38659 0
M  V30 3762 N 350.31 0.590341 -1.46126 0
M  V30 3763 C 351.24 1.71032 -1.58966 0
M  V30 3764 C 352.221 1.64302 -0.440335 0
M  V30 3765 O 353.406 1.82436 -0.665634 0
M  V30 3766 C 350.536 3.09665 -1.57241 0
M  V30 3767 C 349.49 3.31221 -2.71066 0
M  V30 3768 C 348.816 4.70303 -2.54399 0
M  V30 3769 C 350.116 3.19796 -4.1295 0
M  V30 3770 H 351.81 1.60543 -2.52718 0
M  V30 3771 H 349.356 0.770933 -1.21625 0
M  V30 3772 H 351.309 3.87831 -1.64819 0
M  V30 3773 H 350.033 3.21036 -0.600289 0
M  V30 3774 H 348.692 2.55452 -2.62944 0
M  V30 3775 H 348.34 4.78429 -1.55288 0
M  V30 3776 H 348.04 4.85679 -3.30741 0
M  V30 3777 H 349.564 5.50647 -2.63857 0
M  V30 3778 H 350.978 3.87815 -4.22223 0
M  V30 3779 H 349.375 3.46696 -4.89818 0
M  V30 3780 H 350.445 2.16983 -4.33643 0
M  V30 3781 N 351.788 1.33704 0.83433 0
M  V30 3782 C 353.199 1.22813 1.4062 0
M  V30 3783 C 353.55 -0.151107 1.95617 0
M  V30 3784 O 352.675 -1.05092 1.89168 0
M  V30 3785 C 353.27 2.22355 2.55624 0
M  V30 3786 C 351.829 2.1529 3.08751 0
M  V30 3787 C 350.976 2.09589 1.8157 0
M  V30 3788 H 353.927 1.45236 0.639702 0
M  V30 3789 H 353.948 1.83391 3.33389 0
M  V30 3790 H 353.46 3.22728 2.15566 0
M  V30 3791 H 351.561 1.18235 3.53343 0
M  V30 3792 H 351.674 3.06038 3.68616 0
M  V30 3793 H 350.038 1.55134 2.02004 0
M  V30 3794 H 350.821 3.11777 1.43701 0
M  V30 3795 N 353.266 -1.05314 1.17247 0
M  V30 3796 C 354.682 -1.30452 0.919473 0
M  V30 3797 C 354.882 -1.9703 -0.42209 0
M  V30 3798 O 353.938 -2.24311 -1.15935 0
M  V30 3799 C 355.251 -2.17551 2.07586 0
M  V30 3800 C 356.799 -2.30937 2.11275 0
M  V30 3801 C 357.274 -3.21396 3.26296 0
M  V30 3802 N 358.765 -3.28981 3.26076 0
M  V30 3803 C 359.5 -3.99095 4.11716 0
M  V30 3804 N 358.996 -4.71648 5.07465 0
M  V30 3805 N 360.789 -3.95247 3.9967 0
M  V30 3806 H 352.94 -0.604988 2.03602 0
M  V30 3807 H 355.203 -0.329368 0.888944 0
M  V30 3808 H 354.909 -1.75921 3.0454 0
M  V30 3809 H 354.783 -3.18182 2.02584 0
M  V30 3810 H 357.17 -2.71809 1.14907 0
M  V30 3811 H 357.251 -1.2994 2.20339 0
M  V30 3812 H 356.895 -2.81238 4.22927 0
M  V30 3813 H 356.825 -4.22395 3.14467 0
M  V30 3814 H 359.316 -2.77286 2.5675 0
M  V30 3815 H 359.629 -5.22705 5.6921 0
M  V30 3816 H 357.974 -4.70594 5.11435 0
M  V30 3817 H 361.165 -3.37691 3.24164 0
M  V30 3818 H 361.338 -4.4962 4.66632 0
M  V30 3819 N 354.744 -0.972509 -1.24016 0
M  V30 3820 C 355.974 -0.653853 -1.9598 0
M  V30 3821 C 356.382 0.781801 -1.72292 0
M  V30 3822 O 355.725 1.53677 -1.00644 0
M  V30 3823 C 355.787 -0.854608 -3.49194 0
M  V30 3824 C 355.451 -2.27082 -3.96589 0
M  V30 3825 C 356.448 -3.24892 -4.05883 0
M  V30 3826 C 354.133 -2.5998 -4.29786 0
M  V30 3827 C 356.127 -4.53684 -4.47716 0
M  V30 3828 C 353.814 -3.88997 -4.71301 0
M  V30 3829 C 354.812 -4.85661 -4.80232 0
M  V30 3830 O 354.5 -6.12376 -5.20818 0
M  V30 3831 H 354.232 -0.242572 -0.630979 0
M  V30 3832 H 356.786 -1.30431 -1.58673 0
M  V30 3833 H 355.016 -0.146985 -3.86421 0
M  V30 3834 H 356.705 -0.534311 -4.02368 0
M  V30 3835 H 357.471 -3.00805 -3.80449 0
M  V30 3836 H 353.35 -1.85457 -4.22051 0
M  V30 3837 H 356.894 -5.29135 -4.54601 0
M  V30 3838 H 352.791 -4.12882 -4.96184 0
M  V30 3839 H 353.559 -6.16013 -5.38953 0
M  V30 3840 N 356.222 1.38976 -0.743202 0
M  V30 3841 C 357.499 1.94351 -0.220705 0
M  V30 3842 C 357.879 1.67935 1.2791 0
M  V30 3843 O 357.227 1.01211 2.04862 0
M  V30 3844 C 357.437 3.44426 -0.563171 0
M  V30 3845 C 358.785 4.2144 -0.517046 0
M  V30 3846 O 359.809 3.52661 -0.500846 0
M  V30 3847 O 358.668 5.44032 -0.518806 0
M  V30 3848 H 355.762 0.825879 -0.043047 0
M  V30 3849 H 358.308 1.48429 -0.822618 0
M  V30 3850 H 357.08 3.5712 -1.59941 0
M  V30 3851 H 356.703 3.97543 0.0672883 0
M  V30 3852 N 357.7 0.491464 1.49741 0
M  V30 3853 C 358.63 -0.28154 2.31796 0
M  V30 3854 C 359.611 -0.971473 1.3963 0
M  V30 3855 O 360.796 -0.964719 1.68543 0
M  V30 3856 C 357.926 -1.35203 3.19902 0
M  V30 3857 C 356.88 -0.782529 4.20786 0
M  V30 3858 C 356.206 -1.95283 4.97764 0
M  V30 3859 C 357.506 0.21999 5.21837 0
M  V30 3860 H 359.2 0.403355 2.96671 0
M  V30 3861 H 356.746 0.195425 1.42668 0
M  V30 3862 H 358.699 -1.90045 3.76113 0
M  V30 3863 H 357.423 -2.06598 2.52953 0
M  V30 3864 H 356.082 -0.255928 3.65706 0
M  V30 3865 H 355.73 -2.65423 4.2727 0
M  V30 3866 H 355.43 -1.57789 5.66018 0
M  V30 3867 H 356.954 -2.50577 5.56816 0
M  V30 3868 H 358.368 -0.23996 5.72798 0
M  V30 3869 H 356.765 0.51026 5.97927 0
M  V30 3870 H 357.835 1.13911 4.7133 0
M  V30 3871 N 359.178 -1.55987 0.224894 0
M  V30 3872 C 360.589 -1.84553 -0.282345 0
M  V30 3873 C 360.94 -1.14634 -1.59227 0
M  V30 3874 O 360.065 -0.417155 -2.12341 0
M  V30 3875 C 360.66 -3.348 -0.519062 0
M  V30 3876 C 359.219 -3.63671 -0.970604 0
M  V30 3877 C 358.366 -2.77277 -0.0355261 0
M  V30 3878 H 361.317 -1.52245 0.448006 0
M  V30 3879 H 361.338 -3.55187 -1.36463 0
M  V30 3880 H 360.85 -3.8566 0.43449 0
M  V30 3881 H 358.951 -3.1827 -1.9374 0
M  V30 3882 H 359.064 -4.71631 -0.842698 0
M  V30 3883 H 357.428 -2.48846 -0.542927 0
M  V30 3884 H 358.211 -3.30937 0.913003 0
M  V30 3885 N 360.656 0.0484629 -1.57525 0
M  V30 3886 C 361.619 1.03956 -2.04269 0
M  V30 3887 C 362.619 1.30211 -0.943496 0
M  V30 3888 O 363.809 1.25539 -1.20771 0
M  V30 3889 C 360.941 2.37742 -2.44319 0
M  V30 3890 H 362.134 0.636182 -2.93075 0
M  V30 3891 H 359.687 0.294811 -1.53494 0
M  V30 3892 H 360.422 2.82866 -1.5861 0
M  V30 3893 H 360.207 2.20021 -3.24551 0
M  V30 3894 H 361.697 3.08936 -2.80978 0
M  V30 3895 N 362.134 1.5431 0.320358 0
M  V30 3896 C 363.545 1.63872 0.894594 0
M  V30 3897 C 363.896 0.534847 1.88769 0
M  V30 3898 O 363.021 -0.331732 2.13842 0
M  V30 3899 C 363.616 2.97049 1.62934 0
M  V30 3900 C 362.175 3.08796 2.15226 0
M  V30 3901 C 361.322 2.59456 0.978671 0
M  V30 3902 H 364.273 1.58398 0.0978544 0
M  V30 3903 H 364.294 2.87388 2.49376 0
M  V30 3904 H 363.806 3.7737 0.906302 0
M  V30 3905 H 361.907 2.33156 2.90636 0
M  V30 3906 H 362.02 4.14649 2.40006 0
M  V30 3907 H 360.384 2.1543 1.35875 0
M  V30 3908 H 361.167 3.42237 0.269895 0
M  V30 3909 N 363.613 -0.582584 1.46437 0
M  V30 3910 C 364.546 -1.70633 1.51524 0
M  V30 3911 C 365.524 -1.58349 0.369351 0
M  V30 3912 O 366.708 -1.79563 0.573516 0
M  V30 3913 C 363.835 -3.08687 1.39392 0
M  V30 3914 C 362.881 -3.3949 2.58164 0
M  V30 3915 S 363.714 -3.31548 4.20519 0
M  V30 3916 C 364.87 -4.72139 4.10896 0
M  V30 3917 H 365.103 -1.66058 2.46601 0
M  V30 3918 H 362.636 -0.761337 1.34324 0
M  V30 3919 H 364.594 -3.8833 1.33079 0
M  V30 3920 H 363.255 -3.10751 0.457436 0
M  V30 3921 H 362.448 -4.40071 2.45669 0
M  V30 3922 H 362.05 -2.67415 2.61468 0
M  V30 3923 H 364.342 -5.62527 3.77584 0
M  V30 3924 H 365.285 -4.89692 5.11476 0
M  V30 3925 H 365.693 -4.48995 3.42146 0
M  V30 3926 N 365.091 -1.34144 -0.827227 0
M  V30 3927 C 366.021 -1.28005 -1.95287 0
M  V30 3928 C 367.002 -0.158321 -1.69362 0
M  V30 3929 O 368.187 -0.349987 -1.9102 0
M  V30 3930 C 365.317 -1.03036 -3.31664 0
M  V30 3931 C 364.271 -2.11628 -3.72019 0
M  V30 3932 C 363.597 -1.71854 -5.0633 0
M  V30 3933 C 364.897 -3.53417 -3.8457 0
M  V30 3934 H 366.591 -2.22187 -2.00682 0
M  V30 3935 H 364.137 -1.0696 -0.964135 0
M  V30 3936 H 366.09 -0.973863 -4.09993 0
M  V30 3937 H 364.814 -0.0529391 -3.26557 0
M  V30 3938 H 363.473 -2.16339 -2.95961 0
M  V30 3939 H 363.121 -0.727841 -4.97706 0
M  V30 3940 H 362.821 -2.44531 -5.34302 0
M  V30 3941 H 364.345 -1.67692 -5.87122 0
M  V30 3942 H 365.759 -3.51142 -4.5318 0
M  V30 3943 H 364.156 -4.24679 -4.2399 0
M  V30 3944 H 365.226 -3.91072 -2.86689 0
M  V30 3945 N 366.569 1.04691 -1.17803 0
M  V30 3946 C 367.846 1.7472 -0.879328 0
M  V30 3947 C 368.226 2.01812 0.619271 0
M  V30 3948 O 367.574 1.65824 1.57209 0
M  V30 3949 C 367.784 3.03686 -1.71976 0
M  V30 3950 C 369.132 3.77542 -1.94286 0
M  V30 3951 O 370.156 3.13569 -1.68976 0
M  V30 3952 O 369.015 4.92506 -2.36855 0
M  V30 3953 H 366.109 0.760011 -0.326056 0
M  V30 3954 H 368.655 1.10813 -1.28525 0
M  V30 3955 H 367.427 2.79754 -2.73594 0
M  V30 3956 H 367.05 3.75332 -1.31194 0
M  V30 3957 N 368.047 0.979072 1.23499 0
M  V30 3958 C 369.463 0.687475 1.44034 0
M  V30 3959 C 369.663 -0.746801 1.8715 0
M  V30 3960 O 368.719 -1.51939 2.0167 0
M  V30 3961 C 370.032 1.68127 2.49307 0
M  V30 3962 C 371.58 1.69516 2.63122 0
M  V30 3963 C 372.055 2.67723 3.71603 0
M  V30 3964 N 373.546 2.66233 3.79044 0
M  V30 3965 C 374.281 3.38891 4.62537 0
M  V30 3966 N 373.777 4.21103 5.50131 0
M  V30 3967 N 375.57 3.27661 4.56721 0
M  V30 3968 H 367.721 1.90559 0.938135 0
M  V30 3969 H 369.984 0.821051 0.473897 0
M  V30 3970 H 369.69 2.70693 2.2454 0
M  V30 3971 H 369.564 1.46306 3.4767 0
M  V30 3972 H 371.951 0.676561 2.8724 0
M  V30 3973 H 372.032 1.95404 1.65079 0
M  V30 3974 H 371.676 3.69724 3.48233 0
M  V30 3975 H 371.606 2.39111 4.69184 0
M  V30 3976 H 374.097 2.06568 3.16446 0
M  V30 3977 H 374.41 4.73403 6.10827 0
M  V30 3978 H 372.755 4.25195 5.49759 0
M  V30 3979 H 375.946 2.62887 3.87309 0
M  V30 3980 H 376.119 3.84547 5.21562 0
M  V30 3981 N 369.525 -1.3858 0.750561 0
M  V30 3982 C 370.936 -1.82927 0.373438 0
M  V30 3983 C 371.287 -1.62634 -1.09748 0
M  V30 3984 O 370.412 -1.12588 -1.84805 0
M  V30 3985 C 371.007 -3.32088 0.671029 0
M  V30 3986 C 369.566 -3.74795 0.34722 0
M  V30 3987 C 368.713 -2.61391 0.92575 0
M  V30 3988 H 371.664 -1.27351 0.946958 0
M  V30 3989 H 371.685 -3.80465 -0.0518269 0
M  V30 3990 H 371.197 -3.46826 1.74164 0
M  V30 3991 H 369.298 -3.65638 -0.716933 0
M  V30 3992 H 369.411 -4.71667 0.840656 0
M  V30 3993 H 367.775 -2.52265 0.351327 0
M  V30 3994 H 368.558 -2.78929 2.00133 0
M  V30 3995 N 371.003 -0.499398 -1.49478 0
M  V30 3996 C 371.966 0.268838 -2.27618 0
M  V30 3997 C 372.966 0.895383 -1.33565 0
M  V30 3998 O 374.156 0.760164 -1.56739 0
M  V30 3999 C 371.288 1.38559 -3.11471 0
M  V30 4000 H 372.481 -0.416812 -2.96989 0
M  V30 4001 H 370.034 -0.254313 -1.54217 0
M  V30 4002 H 370.769 2.10544 -2.46661 0
M  V30 4003 H 370.554 0.941797 -3.80621 0
M  V30 4004 H 372.044 1.92678 -3.70493 0
M  V30 4005 N 372.481 1.55866 -0.233164 0
M  V30 4006 C 373.428 2.20796 0.67215 0
M  V30 4007 C 374.398 1.16731 1.18166 0
M  V30 4008 O 375.583 1.45129 1.23864 0
M  V30 4009 C 372.723 2.90072 1.86955 0
M  V30 4010 C 371.836 4.08759 1.39786 0
M  V30 4011 C 370.971 4.65787 2.55374 0
M  V30 4012 C 370.01 5.76752 2.04998 0
M  V30 4013 N 369.147 6.28021 3.13901 0
M  V30 4014 H 373.987 2.9779 0.111749 0
M  V30 4015 H 371.524 1.47036 0.0434007 0
M  V30 4016 H 373.482 3.28428 2.57276 0
M  V30 4017 H 372.112 2.15575 2.40265 0
M  V30 4018 H 371.164 3.7581 0.589173 0
M  V30 4019 H 372.476 4.88906 0.98856 0
M  V30 4020 H 371.63 5.06646 3.33758 0
M  V30 4021 H 370.369 3.84828 2.99598 0
M  V30 4022 H 369.374 5.35383 1.25079 0
M  V30 4023 H 370.599 6.59553 1.61759 0
M  V30 4024 H 368.545 5.49971 3.57586 0
M  V30 4025 H 368.462 7.03323 2.7726 0
M  V30 4026 H 369.73 6.73538 3.92386 0
M  V30 4027 N 373.959 -0.0401083 1.57549 0
M  V30 4028 C 375.207 -0.731677 1.8839 0
M  V30 4029 C 375.528 -1.76481 0.829425 0
M  V30 4030 O 374.798 -1.95411 -0.1383 0
M  V30 4031 H 373.378 -0.273225 0.695239 0
M  V30 4032 H 376.04 -0.00867725 1.94898 0
M  V30 4033 H 375.136 -1.22816 2.86919 0
M  V30 4034 N 375.437 -1.54477 -0.31217 0
M  V30 4035 C 376.4 -1.83923 -1.36766 0
M  V30 4036 C 377.4 -0.711563 -1.44199 0
M  V30 4037 O 378.59 -0.979866 -1.44029 0
M  V30 4038 C 375.722 -2.0095 -2.75376 0
M  V30 4039 H 376.915 -2.78239 -1.11906 0
M  V30 4040 H 374.468 -1.46369 -0.548257 0
M  V30 4041 H 375.203 -1.08883 -3.05475 0
M  V30 4042 H 374.988 -2.83018 -2.71373 0
M  V30 4043 H 376.478 -2.2514 -3.51713 0
M  V30 4044 N 376.915 0.57481 -1.46744 0
M  V30 4045 C 378.192 1.3352 -1.4294 0
M  V30 4046 C 378.572 2.10775 -0.117009 0
M  V30 4047 O 377.92 2.09966 0.901474 0
M  V30 4048 C 378.13 2.25456 -2.66403 0
M  V30 4049 C 379.478 2.87035 -3.12883 0
M  V30 4050 O 380.502 2.35766 -2.67007 0
M  V30 4051 O 379.361 3.80179 -3.92589 0
M  V30 4052 H 376.455 0.600318 -0.568812 0
M  V30 4053 H 379.001 0.595171 -1.58921 0
M  V30 4054 H 377.773 1.67851 -3.53471 0
M  V30 4055 H 377.396 3.06785 -2.52921 0
M  V30 4056 N 378.394 1.34581 0.820102 0
M  V30 4057 C 379.642 1.26845 1.57336 0
M  V30 4058 C 379.963 -0.160667 1.94337 0
M  V30 4059 O 379.233 -1.09396 1.6251 0
M  V30 4060 H 377.813 0.466514 0.583415 0
M  V30 4061 H 380.475 1.68526 0.979027 0
M  V30 4062 H 379.571 1.87513 2.4949 0
M  V30 4063 N 379.872 -1.04064 1.18357 0
M  V30 4064 C 380.835 -2.10243 0.912707 0
M  V30 4065 C 381.835 -1.60477 -0.101928 0
M  V30 4066 O 383.025 -1.73703 0.131517 0
M  V30 4067 C 380.157 -3.38893 0.369387 0
M  V30 4068 H 381.35 -2.35706 1.85426 0
M  V30 4069 H 378.903 -1.20489 0.995594 0
M  V30 4070 H 379.638 -3.19094 -0.578776 0
M  V30 4071 H 379.423 -3.76331 1.1008 0
M  V30 4072 H 380.913 -4.17128 0.198575 0
M  V30 4073 N 381.35 -0.985608 -1.22978 0
M  V30 4074 C 382.28 -0.549649 -2.26939 0
M  V30 4075 C 383.261 0.419803 -1.64838 0
M  V30 4076 O 384.446 0.31203 -1.91677 0
M  V30 4077 C 381.576 0.143652 -3.47003 0
M  V30 4078 C 380.53 -0.743606 -4.21491 0
M  V30 4079 C 379.856 0.0822027 -5.34637 0
M  V30 4080 C 381.156 -2.03694 -4.80943 0
M  V30 4081 H 382.85 -1.41862 -2.63658 0
M  V30 4082 H 380.396 -0.683571 -1.26741 0
M  V30 4083 H 382.349 0.459985 -4.18882 0
M  V30 4084 H 381.073 1.04711 -3.09359 0
M  V30 4085 H 379.732 -1.04347 -3.51436 0
M  V30 4086 H 379.38 0.986359 -4.93234 0
M  V30 4087 H 379.08 -0.508377 -5.85397 0
M  V30 4088 H 380.604 0.392797 -6.09335 0
M  V30 4089 H 382.018 -1.78504 -5.44802 0
M  V30 4090 H 380.415 -2.57573 -5.42011 0
M  V30 4091 H 381.485 -2.72042 -4.01399 0
M  V30 4092 N 382.828 1.3818 -0.7579 0
M  V30 4093 C 383.758 2.33027 -0.148597 0
M  V30 4094 C 384.739 1.55085 0.69875 0
M  V30 4095 O 385.924 1.83384 0.639053 0
M  V30 4096 C 383.054 3.3928 0.742034 0
M  V30 4097 C 382.008 4.28 -0.00291946 0
M  V30 4098 C 381.334 5.25146 1.00625 0
M  V30 4099 C 382.634 5.08938 -1.17385 0
M  V30 4100 H 384.328 2.84231 -0.940909 0
M  V30 4101 H 381.874 1.36659 -0.453908 0
M  V30 4102 H 383.827 4.046 1.17799 0
M  V30 4103 H 382.551 2.86569 1.56671 0
M  V30 4104 H 381.21 3.64192 -0.419504 0
M  V30 4105 H 380.858 4.68721 1.8251 0
M  V30 4106 H 380.558 5.85361 0.512428 0
M  V30 4107 H 382.082 5.93342 1.44143 0
M  V30 4108 H 383.496 5.67474 -0.815224 0
M  V30 4109 H 381.893 5.7841 -1.59882 0
M  V30 4110 H 382.963 4.42424 -1.98468 0
M  V30 4111 N 384.306 0.507319 1.49211 0
M  V30 4112 C 385.269 -0.256763 2.27757 0
M  V30 4113 C 386.269 -0.888287 1.34038 0
M  V30 4114 O 387.459 -0.751841 1.5714 0
M  V30 4115 C 384.591 -1.36905 3.12202 0
M  V30 4116 H 385.784 0.432557 2.96764 0
M  V30 4117 H 383.337 0.262488 1.5408 0
M  V30 4118 H 384.072 -2.09233 2.47775 0
M  V30 4119 H 383.857 -0.921599 3.81115 0
M  V30 4120 H 385.347 -1.9071 3.7151 0
M  V30 4121 N 385.784 -1.5574 0.241426 0
M  V30 4122 C 386.714 -2.24133 -0.654722 0
M  V30 4123 C 387.695 -1.21974 -1.1856 0
M  V30 4124 O 388.88 -1.50612 -1.22595 0
M  V30 4125 C 386.01 -2.93659 -1.85423 0
M  V30 4126 C 384.964 -4.0246 -1.45636 0
M  V30 4127 C 384.29 -4.59383 -2.73626 0
M  V30 4128 C 385.59 -5.18468 -0.631506 0
M  V30 4129 H 387.284 -2.99281 -0.0844353 0
M  V30 4130 H 384.83 -1.43947 -0.0391707 0
M  V30 4131 H 386.783 -3.40203 -2.48676 0
M  V30 4132 H 385.507 -2.15991 -2.44981 0
M  V30 4133 H 384.166 -3.56676 -0.847202 0
M  V30 4134 H 383.814 -3.78422 -3.3137 0
M  V30 4135 H 383.514 -5.32826 -2.4773 0
M  V30 4136 H 385.038 -5.08658 -3.37786 0
M  V30 4137 H 386.452 -5.61272 -1.1682 0
M  V30 4138 H 384.849 -5.98266 -0.468831 0
M  V30 4139 H 385.919 -4.8358 0.357506 0
M  V30 4140 N 387.262 0.0317525 -1.57568 0
M  V30 4141 C 388.49 0.734949 -1.93407 0
M  V30 4142 C 388.905 1.69036 -0.84096 0
M  V30 4143 O 388.262 1.81582 0.182836 0
M  V30 4144 C 388.313 1.49432 -3.29169 0
M  V30 4145 O 388.034 0.577261 -4.3428 0
M  V30 4146 C 389.535 2.29492 -3.79273 0
M  V30 4147 H 386.755 0.206706 -0.638368 0
M  V30 4148 H 389.299 -0.00992046 -2.04498 0
M  V30 4149 H 387.454 2.1911 -3.19483 0
M  V30 4150 H 387.868 1.10952 -5.1263 0
M  V30 4151 H 389.342 2.78172 -4.76785 0
M  V30 4152 H 389.819 3.10794 -3.10328 0
M  V30 4153 H 390.425 1.64894 -3.92033 0
M  V30 4154 N 388.74 1.54641 0.303973 0
M  V30 4155 C 389.703 1.84646 1.35789 0
M  V30 4156 C 390.703 0.7192 1.4382 0
M  V30 4157 O 391.893 0.987491 1.43507 0
M  V30 4158 C 389.025 2.02407 2.74307 0
M  V30 4159 H 390.218 2.78829 1.10429 0
M  V30 4160 H 387.771 1.46658 0.540487 0
M  V30 4161 H 388.506 1.10502 3.04893 0
M  V30 4162 H 388.291 2.84453 2.69868 0
M  V30 4163 H 389.781 2.27002 3.50514 0
M  V30 4164 N 390.218 -0.567019 1.47046 0
M  V30 4165 C 391.466 -1.322 1.52864 0
M  V30 4166 C 391.787 -1.94088 0.188388 0
M  V30 4167 O 391.057 -1.7941 -0.786693 0
M  V30 4168 H 389.637 -0.490894 0.563056 0
M  V30 4169 H 392.299 -0.662879 1.83281 0
M  V30 4170 H 391.395 -2.12062 2.2899 0
M  V30 4171 N 391.696 -1.35014 -0.812953 0
M  V30 4172 C 392.643 -1.27412 -1.92444 0
M  V30 4173 C 393.613 -0.14733 -1.65445 0
M  V30 4174 O 394.798 -0.329974 -1.87925 0
M  V30 4175 C 391.938 -1.04558 -3.28879 0
M  V30 4176 C 391.051 -2.26101 -3.68106 0
M  V30 4177 C 390.186 -1.96449 -4.9354 0
M  V30 4178 C 389.225 -3.14081 -5.25376 0
M  V30 4179 N 388.362 -2.84246 -6.41988 0
M  V30 4180 H 393.202 -2.22463 -1.98278 0
M  V30 4181 H 390.739 -1.10593 -0.969933 0
M  V30 4182 H 392.697 -0.893413 -4.07522 0
M  V30 4183 H 391.327 -0.131719 -3.22531 0
M  V30 4184 H 390.379 -2.52204 -2.84775 0
M  V30 4185 H 391.691 -3.13959 -3.87597 0
M  V30 4186 H 390.845 -1.78026 -5.79993 0
M  V30 4187 H 389.584 -1.05867 -4.76071 0
M  V30 4188 H 388.589 -3.33089 -4.37415 0
M  V30 4189 H 389.814 -4.05455 -5.44778 0
M  V30 4190 H 387.76 -1.96252 -6.25956 0
M  V30 4191 H 387.677 -3.65637 -6.61699 0
M  V30 4192 H 388.945 -2.6935 -7.31485 0
M  V30 4193 N 393.175 1.03435 -1.18907 0
M  V30 4194 C 394.123 2.13703 -0.918353 0
M  V30 4195 C 395.117 1.68947 0.123767 0
M  V30 4196 O 396.323 1.79983 -0.0249701 0
M  V30 4197 H 392.698 0.698112 -0.279542 0
M  V30 4198 H 394.669 2.33731 -1.85506 0
M  V30 4199 C 393.418 3.44542 -0.467532 0
M  V30 4200 H 392.741 3.79394 -1.26095 0
M  V30 4201 H 394.181 4.22812 -0.317164 0
M  V30 4202 C 392.64 3.26829 0.817588 0
M  V30 4203 O 393.17 3.54975 1.88031 0
M  V30 4204 N 391.376 2.80139 0.772677 0
M  V30 4205 H 390.923 2.57434 -0.0923883 0
M  V30 4206 H 390.881 2.68668 1.63294 0
M  V30 4207 N 394.653 0.992116 1.22453 0
M  V30 4208 C 396.069 0.702713 1.43297 0
M  V30 4209 C 396.269 -0.726909 1.87932 0
M  V30 4210 O 395.325 -1.49792 2.0327 0
M  V30 4211 C 396.638 1.70762 2.47509 0
M  V30 4212 C 398.186 1.72298 2.61309 0
M  V30 4213 C 398.661 2.71649 3.68742 0
M  V30 4214 N 400.152 2.70239 3.76199 0
M  V30 4215 C 400.887 3.43778 4.58917 0
M  V30 4216 N 400.383 4.26914 5.45633 0
M  V30 4217 N 402.176 3.32487 4.5322 0
M  V30 4218 H 394.327 1.91543 0.917871 0
M  V30 4219 H 396.59 0.826031 0.465162 0
M  V30 4220 H 396.296 2.73059 2.21657 0
M  V30 4221 H 396.17 1.49985 3.46099 0
M  V30 4222 H 398.557 0.706989 2.86506 0
M  V30 4223 H 398.638 1.97143 1.62997 0
M  V30 4224 H 398.282 3.73397 3.44292 0
M  V30 4225 H 398.212 2.44074 4.66622 0
M  V30 4226 H 400.703 2.09912 3.14237 0
M  V30 4227 H 401.016 4.79855 6.05771 0
M  V30 4228 H 399.361 4.31002 5.45218 0
M  V30 4229 H 402.552 2.6698 3.84499 0
M  V30 4230 H 402.725 3.90058 5.17454 0
M  V30 4231 N 396.131 -1.37776 0.765217 0
M  V30 4232 C 397.041 -2.34135 0.147666 0
M  V30 4233 C 398.057 -1.59854 -0.687215 0
M  V30 4234 O 399.233 -1.91983 -0.608659 0
M  V30 4235 C 396.298 -3.3901 -0.72617 0
M  V30 4236 C 395.359 -4.2912 0.124417 0
M  V30 4237 C 394.592 -5.28986 -0.707807 0
M  V30 4238 O 394.815 -5.36205 -1.94525 0
M  V30 4239 O 393.749 -6.01779 -0.12046 0
M  V30 4240 H 397.575 -2.88664 0.943758 0
M  V30 4241 H 395.16 -1.39824 0.526277 0
M  V30 4242 H 397.042 -4.03195 -1.22524 0
M  V30 4243 H 395.717 -2.86819 -1.50056 0
M  V30 4244 H 394.624 -3.68057 0.669696 0
M  V30 4245 H 395.957 -4.84598 0.861736 0
M  V30 4246 N 397.609 -0.515225 -1.4894 0
M  V30 4247 C 398.837 0.0206034 -2.0689 0
M  V30 4248 C 399.252 1.29514 -1.37374 0
M  V30 4249 O 398.609 1.76698 -0.456529 0
M  V30 4250 C 398.66 0.26351 -3.60538 0
M  V30 4251 O 398.381 -0.960517 -4.27441 0
M  V30 4252 C 399.882 0.841383 -4.35242 0
M  V30 4253 H 397.102 -0.0268608 -0.670462 0
M  V30 4254 H 399.646 -0.716651 -1.91532 0
M  V30 4255 H 397.801 0.950777 -3.75552 0
M  V30 4256 H 398.215 -0.73212 -5.19365 0
M  V30 4257 H 399.689 0.96085 -5.43573 0
M  V30 4258 H 400.166 1.8427 -3.98674 0
M  V30 4259 H 400.772 0.191143 -4.2487 0
M  V30 4260 N 399.087 1.5561 -0.249682 0
M  V30 4261 C 400.336 1.98187 0.37479 0
M  V30 4262 C 400.649 1.14111 1.58865 0
M  V30 4263 O 401.855 1.46714 2.28445 0
M  V30 4264 C 400.311 3.52661 0.718192 0
M  V30 4265 C 399.919 4.45481 -0.474428 0
M  V30 4266 C 401.663 4.03888 1.3067 0
M  V30 4267 C 399.57 5.91303 -0.107026 0
M  V30 4268 H 398.5 0.740159 0.143808 0
M  V30 4269 H 401.151 1.80125 -0.350336 0
M  V30 4270 H 399.533 3.66429 1.50152 0
M  V30 4271 H 400.707 4.43473 -1.25172 0
M  V30 4272 H 399.022 4.04751 -0.978052 0
M  V30 4273 H 401.619 5.10358 1.59496 0
M  V30 4274 H 401.962 3.51401 2.23211 0
M  V30 4275 H 402.495 3.93457 0.586211 0
M  V30 4276 H 399.234 6.47833 -0.999642 0
M  V30 4277 H 398.754 5.9644 0.634013 0
M  V30 4278 H 400.433 6.46258 0.309807 0
M  V30 4279 N 400.565 -0.0233959 1.57583 0
M  V30 4280 C 401.528 -1.00693 2.05897 0
M  V30 4281 C 402.528 -1.28693 0.964092 0
M  V30 4282 O 403.718 -1.23602 1.22753 0
M  V30 4283 C 400.85 -2.33825 2.4807 0
M  V30 4284 H 402.043 -0.589476 2.9405 0
M  V30 4285 H 399.596 -0.270354 1.53944 0
M  V30 4286 H 400.331 -2.80307 1.6309 0
M  V30 4287 H 400.116 -2.1483 3.2801 0
M  V30 4288 H 401.606 -3.04426 2.85857 0
M  V30 4289 N 402.043 -1.548 -0.295768 0
M  V30 4290 C 403.006 -1.85363 -1.34808 0
M  V30 4291 C 404.006 -0.726817 -1.43436 0
M  V30 4292 O 405.196 -0.995088 -1.42981 0
M  V30 4293 C 402.328 -2.03859 -2.73229 0
M  V30 4294 H 403.521 -2.7941 -1.08949 0
M  V30 4295 H 401.074 -1.46942 -0.532702 0
M  V30 4296 H 401.809 -1.12117 -3.04303 0
M  V30 4297 H 401.594 -2.8588 -2.68356 0
M  V30 4298 H 403.084 -2.28857 -3.49305 0
M  V30 4299 N 403.521 0.559213 -1.47345 0
M  V30 4300 C 404.453 1.68161 -1.55738 0
M  V30 4301 C 405.466 1.56636 -0.443744 0
M  V30 4302 O 406.655 1.6363 -0.713258 0
M  V30 4303 C 403.755 3.06611 -1.4437 0
M  V30 4304 C 402.928 3.4391 -2.70268 0
M  V30 4305 C 401.987 4.61515 -2.52765 0
M  V30 4306 O 401.013 4.66197 -3.26572 0
M  V30 4307 N 402.215 5.57883 -1.6046 0
M  V30 4308 H 404.98 1.61408 -2.52522 0
M  V30 4309 H 402.541 0.7458 -1.43699 0
M  V30 4310 H 404.533 3.83117 -1.30398 0
M  V30 4311 H 403.103 3.07602 -0.556766 0
M  V30 4312 H 402.323 2.56873 -2.99015 0
M  V30 4313 H 403.611 3.65605 -3.53851 0
M  V30 4314 H 403.009 5.56855 -0.996422 0
M  V30 4315 H 401.566 6.33723 -1.52441 0
M  V30 4316 N 404.999 1.35443 0.805782 0
M  V30 4317 C 406.246 1.28761 1.56291 0
M  V30 4318 C 406.574 -0.137747 1.94012 0
M  V30 4319 O 405.829 -1.1032 1.61642 0
M  V30 4320 C 406.128 2.14045 2.86216 0
M  V30 4321 C 405.794 3.62826 2.67709 0
M  V30 4322 C 404.456 4.0338 2.6237 0
M  V30 4323 C 406.808 4.57227 2.50186 0
M  V30 4324 C 404.136 5.36501 2.37451 0
M  V30 4325 C 406.488 5.90547 2.26797 0
M  V30 4326 C 405.152 6.30245 2.1988 0
M  V30 4327 H 404.422 0.471171 0.571908 0
M  V30 4328 H 407.069 1.67347 0.930974 0
M  V30 4329 H 405.374 1.68342 3.53791 0
M  V30 4330 H 407.071 2.0621 3.43917 0
M  V30 4331 H 403.661 3.30644 2.72713 0
M  V30 4332 H 407.845 4.2678 2.53323 0
M  V30 4333 H 403.101 5.66259 2.30567 0
M  V30 4334 H 407.275 6.63274 2.12228 0
M  V30 4335 H 404.902 7.33328 2.00333 0
M  V30 4336 N 406.477 -1.02803 1.19454 0
M  V30 4337 C 407.44 -2.09264 0.934955 0
M  V30 4338 C 408.44 -1.60576 -0.0849015 0
M  V30 4339 O 409.63 -1.73554 0.149933 0
M  V30 4340 C 406.762 -3.38482 0.40531 0
M  V30 4341 H 407.955 -2.33726 1.87916 0
M  V30 4342 H 405.508 -1.19426 1.00832 0
M  V30 4343 H 406.243 -3.19689 -0.544899 0
M  V30 4344 H 406.028 -3.75142 1.14065 0
M  V30 4345 H 407.518 -4.16894 0.242806 0
M  V30 4346 N 407.956 -0.998596 -1.21925 0
M  V30 4347 C 408.888 -0.511879 -2.23411 0
M  V30 4348 C 409.901 0.396094 -1.57908 0
M  V30 4349 O 411.09 0.197316 -1.77406 0
M  V30 4350 C 408.19 0.276802 -3.37768 0
M  V30 4351 C 407.363 -0.628687 -4.32858 0
M  V30 4352 C 406.422 0.109272 -5.26087 0
M  V30 4353 O 405.448 -0.507237 -5.66935 0
M  V30 4354 N 406.65 1.38983 -5.63617 0
M  V30 4355 H 409.415 -1.38457 -2.658 0
M  V30 4356 H 406.976 -0.873981 -1.36283 0
M  V30 4357 H 408.968 0.77928 -3.97126 0
M  V30 4358 H 407.538 1.05063 -2.94415 0
M  V30 4359 H 406.758 -1.31175 -3.71735 0
M  V30 4360 H 408.046 -1.24514 -4.93329 0
M  V30 4361 H 407.444 1.91194 -5.32411 0
M  V30 4362 H 406.001 1.83739 -6.25367 0
M  V30 4363 N 409.434 1.37368 -0.772513 0
M  V30 4364 C 410.682 1.99279 -0.336516 0
M  V30 4365 C 411.003 1.6163 1.09091 0
M  V30 4366 O 410.273 0.882109 1.74916 0
M  V30 4367 H 408.853 0.737063 -0.121435 0
M  V30 4368 H 411.515 1.67836 -0.990809 0
M  V30 4369 H 410.611 3.09332 -0.414763 0
M  V30 4370 N 410.912 0.523116 1.48665 0
M  V30 4371 C 412.16 -0.0134497 2.02096 0
M  V30 4372 C 412.481 -1.35418 1.40311 0
M  V30 4373 O 411.751 -1.87543 0.566074 0
M  V30 4374 H 410.331 -0.00795915 0.746958 0
M  V30 4375 H 412.993 0.685388 1.82451 0
M  V30 4376 H 412.089 -0.126849 3.11842 0
M  V30 4377 N 412.39 -1.55475 0.257931 0
M  V30 4378 C 413.353 -2.20551 -0.623706 0
M  V30 4379 C 414.353 -1.17809 -1.09443 0
M  V30 4380 O 415.543 -1.42823 -0.997362 0
M  V30 4381 C 412.675 -2.85784 -1.8585 0
M  V30 4382 H 413.868 -2.99848 -0.0557743 0
M  V30 4383 H 411.421 -1.56298 0.0084422 0
M  V30 4384 H 412.156 -2.10453 -2.46739 0
M  V30 4385 H 411.941 -3.61057 -1.52907 0
M  V30 4386 H 413.431 -3.35553 -2.48584 0
M  V30 4387 N 413.868 0.0150385 -1.57593 0
M  V30 4388 C 414.816 1.02958 -2.08572 0
M  V30 4389 C 415.81 1.36554 -1.00246 0
M  V30 4390 O 417.016 1.35295 -1.18724 0
M  V30 4391 H 413.391 0.349619 -0.665786 0
M  V30 4392 H 415.362 0.573932 -2.92829 0
M  V30 4393 C 414.111 2.31752 -2.59203 0
M  V30 4394 H 413.434 2.06765 -3.42182 0
M  V30 4395 H 414.874 3.01053 -2.98568 0
M  V30 4396 C 413.333 3.01692 -1.49945 0
M  V30 4397 O 413.863 3.92083 -0.873704 0
M  V30 4398 N 412.069 2.6326 -1.23056 0
M  V30 4399 H 411.616 1.89838 -1.74125 0
M  V30 4400 H 411.574 3.10372 -0.501685 0
M  V30 4401 N 415.346 1.54954 0.287554 0
M  V30 4402 C 416.594 1.74528 1.01904 0
M  V30 4403 C 416.915 0.541349 1.87335 0
M  V30 4404 O 416.185 -0.444108 1.908 0
M  V30 4405 H 414.765 0.643576 0.379235 0
M  V30 4406 H 417.427 1.92333 0.315294 0
M  V30 4407 H 416.523 2.64015 1.6644 0
M  V30 4408 N 416.824 -0.551391 1.4764 0
M  V30 4409 C 417.754 -1.66757 1.63445 0
M  V30 4410 C 418.735 -1.63077 0.483742 0
M  V30 4411 O 419.92 -1.80607 0.71377 0
M  V30 4412 C 417.05 -3.05387 1.65396 0
M  V30 4413 C 416.004 -3.23918 2.79752 0
M  V30 4414 C 415.33 -4.63393 2.66779 0
M  V30 4415 C 416.63 -3.08735 4.21284 0
M  V30 4416 H 418.324 -1.53786 2.56886 0
M  V30 4417 H 415.87 -0.738415 1.23626 0
M  V30 4418 H 417.823 -3.83325 1.75043 0
M  V30 4419 H 416.547 -3.19332 0.685195 0
M  V30 4420 H 415.206 -2.48391 2.69625 0
M  V30 4421 H 414.854 -4.74144 1.67918 0
M  V30 4422 H 414.554 -4.7674 3.43501 0
M  V30 4423 H 416.078 -5.43458 2.78364 0
M  V30 4424 H 417.492 -3.76484 4.32357 0
M  V30 4425 H 415.889 -3.33588 4.98838 0
M  V30 4426 H 416.959 -2.0541 4.39243 0
M  V30 4427 N 418.302 -1.35869 -0.798587 0
M  V30 4428 C 419.265 -1.29307 -1.89242 0
M  V30 4429 C 420.265 -0.202747 -1.59517 0
M  V30 4430 O 421.455 -0.456957 -1.681 0
M  V30 4431 C 418.587 -1.00229 -3.25833 0
M  V30 4432 H 419.78 -2.26576 -1.96478 0
M  V30 4433 H 417.333 -1.20509 -0.995358 0
M  V30 4434 H 418.068 -0.033801 -3.24282 0
M  V30 4435 H 417.853 -1.79121 -3.48795 0
M  V30 4436 H 419.343 -0.98219 -4.05885 0
M  V30 4437 N 419.78 1.02168 -1.19998 0
M  V30 4438 C 421.028 1.75338 -1.00504 0
M  V30 4439 C 421.349 1.89387 0.464506 0
M  V30 4440 O 420.619 1.43268 1.33608 0
M  V30 4441 H 419.199 0.649564 -0.368885 0
M  V30 4442 H 421.861 1.23205 -1.51018 0
M  V30 4443 H 420.957 2.75892 -1.45912 0
M  V30 4444 N 421.258 1.00505 1.21394 0
M  V30 4445 C 422.488 0.705584 1.94178 0
M  V30 4446 C 422.896 -0.735846 1.74304 0
M  V30 4447 O 422.239 -1.50954 1.04683 0
M  V30 4448 C 422.301 0.94689 3.46806 0
M  V30 4449 C 421.965 2.37517 3.90429 0
M  V30 4450 C 422.962 3.35539 3.97127 0
M  V30 4451 C 420.647 2.71284 4.22742 0
M  V30 4452 C 422.641 4.65395 4.3553 0
M  V30 4453 C 420.328 4.01356 4.60822 0
M  V30 4454 C 421.326 4.98223 4.67186 0
M  V30 4455 O 421.014 6.25969 5.04399 0
M  V30 4456 H 420.746 0.259216 0.624326 0
M  V30 4457 H 423.3 1.34592 1.55159 0
M  V30 4458 H 421.53 0.249386 3.85895 0
M  V30 4459 H 423.219 0.640804 4.0081 0
M  V30 4460 H 423.985 3.10786 3.7234 0
M  V30 4461 H 419.864 1.96581 4.16985 0
M  V30 4462 H 423.408 5.41002 4.40412 0
M  V30 4463 H 419.305 4.25893 4.85063 0
M  V30 4464 H 420.073 6.30085 5.22431 0
M  V30 4465 N 422.737 -1.36956 0.779787 0
M  V30 4466 C 424.148 -1.82094 0.412156 0
M  V30 4467 C 424.499 -1.64926 -1.06273 0
M  V30 4468 O 423.624 -1.16483 -1.82375 0
M  V30 4469 C 424.219 -3.3059 0.741319 0
M  V30 4470 C 422.778 -3.73974 0.426641 0
M  V30 4471 C 421.925 -2.59368 0.980987 0
M  V30 4472 H 424.876 -1.25314 0.973758 0
M  V30 4473 H 424.897 -3.80489 0.028887 0
M  V30 4474 H 424.409 -3.43054 1.81482 0
M  V30 4475 H 422.51 -3.67076 -0.639215 0
M  V30 4476 H 422.623 -4.69778 0.940515 0
M  V30 4477 H 420.987 -2.51463 0.404757 0
M  V30 4478 H 421.77 -2.74621 2.06005 0
M  V30 4479 N 424.215 -0.530993 -1.48385 0
M  V30 4480 C 425.443 -0.00134122 -2.069 0
M  V30 4481 C 425.858 1.2805 -1.3874 0
M  V30 4482 O 425.215 1.76204 -0.475244 0
M  V30 4483 C 425.266 0.225256 -3.60798 0
M  V30 4484 O 424.987 -1.0058 -4.26398 0
M  V30 4485 C 426.488 0.795172 -4.3611 0
M  V30 4486 H 423.708 -0.0339704 -0.67014 0
M  V30 4487 H 426.252 -0.736926 -1.90761 0
M  V30 4488 H 424.407 0.910891 -3.76539 0
M  V30 4489 H 424.821 -0.787165 -5.1856 0
M  V30 4490 H 426.295 0.903143 -5.44562 0
M  V30 4491 H 426.772 1.80031 -4.00606 0
M  V30 4492 H 427.378 0.146069 -4.25049 0
M  V30 4493 N 425.693 1.55336 -0.266172 0
M  V30 4494 C 426.921 2.03801 0.356756 0
M  V30 4495 C 427.336 1.14485 1.50129 0
M  V30 4496 O 426.693 0.163121 1.8177 0
M  V30 4497 C 426.744 3.51455 0.846281 0
M  V30 4498 O 426.465 4.37371 -0.252663 0
M  V30 4499 C 427.966 4.15767 1.53794 0
M  V30 4500 H 425.186 0.665906 0.0825218 0
M  V30 4501 H 427.73 2.00636 -0.39566 0
M  V30 4502 H 425.885 3.55092 1.54881 0
M  V30 4503 H 426.299 5.24358 0.122173 0
M  V30 4504 H 427.773 5.20714 1.83198 0
M  V30 4505 H 428.25 3.63404 2.46646 0
M  V30 4506 H 428.856 4.16107 0.879488 0
M  V30 4507 N 427.171 -0.0066808 1.57599 0
M  V30 4508 C 428.396 -0.707738 1.94951 0
M  V30 4509 C 428.821 -1.66882 0.867868 0
M  V30 4510 O 428.179 -1.80457 -0.17458 0
M  V30 4511 C 428.227 -1.42162 3.31394 0
M  V30 4512 O 427.331 -2.53578 3.25226 0
M  V30 4513 H 426.672 -0.188752 0.636607 0
M  V30 4514 H 429.202 0.0445193 2.04552 0
M  V30 4515 H 429.212 -1.78655 3.66806 0
M  V30 4516 H 427.887 -0.716903 4.09675 0
M  V30 4517 H 426.464 -2.19463 3.01481 0
M  V30 4518 N 428.649 -1.55105 -0.279332 0
M  V30 4519 C 429.597 -1.88333 -1.36505 0
M  V30 4520 C 430.591 -0.759043 -1.51443 0
M  V30 4521 O 431.797 -0.943312 -1.53302 0
M  V30 4522 H 428.172 -0.59766 -0.456406 0
M  V30 4523 H 430.143 -2.79041 -1.05728 0
M  V30 4524 C 428.892 -2.16628 -2.7197 0
M  V30 4525 H 428.215 -3.02624 -2.61264 0
M  V30 4526 H 429.655 -2.43803 -3.46895 0
M  V30 4527 C 428.114 -0.971807 -3.22579 0
M  V30 4528 O 428.644 -0.203228 -4.01186 0
M  V30 4529 N 426.85 -0.771238 -2.80179 0
M  V30 4530 H 426.397 -1.39792 -2.1637 0
M  V30 4531 H 426.355 0.0263667 -3.14389 0
M  V30 4532 N 430.127 0.543554 -1.4793 0
M  V30 4533 C 431.06 1.66556 -1.55995 0
M  V30 4534 C 432.038 1.57315 -0.411205 0
M  V30 4535 O 433.222 1.7798 -0.620922 0
M  V30 4536 C 430.349 3.04883 -1.47527 0
M  V30 4537 C 429.395 3.32526 -2.67074 0
M  V30 4538 S 430.228 3.20282 -4.29162 0
M  V30 4539 C 431.384 4.61079 -4.23269 0
M  V30 4540 H 431.617 1.59462 -2.50917 0
M  V30 4541 H 429.15 0.725456 -1.36296 0
M  V30 4542 H 431.108 3.84665 -1.43328 0
M  V30 4543 H 429.769 3.09429 -0.539665 0
M  V30 4544 H 428.962 4.33403 -2.5725 0
M  V30 4545 H 428.564 2.60389 -2.68466 0
M  V30 4546 H 430.856 5.52318 -3.92365 0
M  V30 4547 H 431.799 4.75959 -5.24279 0
M  V30 4548 H 432.207 4.39766 -3.5393 0
M  V30 4549 N 431.605 1.3629 0.791371 0
M  V30 4550 C 432.851 1.31613 1.5508 0
M  V30 4551 C 433.206 -0.104372 1.92117 0
M  V30 4552 O 432.499 -1.05845 1.5971 0
M  V30 4553 C 432.693 2.17068 2.8393 0
M  V30 4554 C 432.522 3.67285 2.59484 0
M  V30 4555 C 431.292 4.36469 2.54604 0
M  V30 4556 C 433.49 4.60595 2.28816 0
M  V30 4557 N 431.472 5.7234 2.22036 0
M  V30 4558 C 432.843 5.847 2.06218 0
M  V30 4559 C 434.898 4.4918 2.14806 0
M  V30 4560 C 433.601 6.98671 1.71028 0
M  V30 4561 C 435.627 5.63017 1.81014 0
M  V30 4562 C 434.989 6.86159 1.59263 0
M  V30 4563 H 431.088 0.536878 0.568582 0
M  V30 4564 H 433.672 1.71323 0.925007 0
M  V30 4565 H 431.843 1.79605 3.44378 0
M  V30 4566 H 433.575 2.03795 3.49642 0
M  V30 4567 H 430.33 3.89249 2.69782 0
M  V30 4568 H 430.754 6.44093 2.08503 0
M  V30 4569 H 435.396 3.54564 2.30313 0
M  V30 4570 H 433.114 7.9324 1.54259 0
M  V30 4571 H 436.7 5.56146 1.70861 0
M  V30 4572 H 435.58 7.72753 1.335 0
M  V30 4573 N 433.083 -1.0153 1.20538 0
M  V30 4574 C 434.329 -1.75408 1.01783 0
M  V30 4575 C 434.662 -1.88943 -0.448814 0
M  V30 4576 O 433.937 -1.4162 -1.33319 0
M  V30 4577 C 434.22 -3.17255 1.70356 0
M  V30 4578 C 434.073 -3.11508 3.24473 0
M  V30 4579 C 435.392 -4.15955 1.43769 0
M  V30 4580 H 432.511 -0.636713 0.371167 0
M  V30 4581 H 435.153 -1.18436 1.4857 0
M  V30 4582 H 433.303 -3.65898 1.30578 0
M  V30 4583 H 434.975 -2.70658 3.73553 0
M  V30 4584 H 433.218 -2.4887 3.55311 0
M  V30 4585 H 433.889 -4.11784 3.67611 0
M  V30 4586 H 436.365 -3.75973 1.7828 0
M  V30 4587 H 435.241 -5.13368 1.94279 0
M  V30 4588 H 435.502 -4.40586 0.365564 0
M  V30 4589 N 434.561 -1.01147 -1.20859 0
M  V30 4590 C 435.81 -0.693214 -1.89413 0
M  V30 4591 C 436.123 0.779969 -1.79376 0
M  V30 4592 O 437.329 1.21057 -2.43017 0
M  V30 4593 C 435.785 -1.18949 -3.39675 0
M  V30 4594 C 435.393 -2.68921 -3.58309 0
M  V30 4595 C 437.137 -0.94642 -4.13815 0
M  V30 4596 C 435.044 -3.12056 -5.0237 0
M  V30 4597 H 433.974 -0.255595 -0.709357 0
M  V30 4598 H 436.625 -1.22349 -1.36759 0
M  V30 4599 H 435.007 -0.587228 -3.91622 0
M  V30 4600 H 436.181 -3.34652 -3.16772 0
M  V30 4601 H 434.496 -2.91314 -2.97532 0
M  V30 4602 H 437.093 -1.24417 -5.20023 0
M  V30 4603 H 437.436 0.117219 -4.16135 0
M  V30 4604 H 437.969 -1.5118 -3.67953 0
M  V30 4605 H 434.708 -4.17674 -5.05202 0
M  V30 4606 H 434.228 -2.51041 -5.44737 0
M  V30 4607 H 435.907 -3.04403 -5.70918 0
M  V30 4608 N 436.039 1.36541 -0.78704 0
M  V30 4609 C 437.287 1.98911 -0.357633 0
M  V30 4610 C 437.608 1.62778 1.07371 0
M  V30 4611 O 436.878 0.900612 1.73971 0
M  V30 4612 H 435.458 0.735734 -0.129246 0
M  V30 4613 H 438.12 1.66776 -1.00855 0
M  V30 4614 H 437.216 3.08874 -0.447549 0
M  V30 4615 N 437.518 0.538854 1.48102 0
M  V30 4616 C 438.465 -0.219042 2.29758 0
M  V30 4617 C 439.435 -0.925562 1.37922 0
M  V30 4618 O 440.62 -0.924855 1.66886 0
M  V30 4619 C 437.76 -1.25452 3.2149 0
M  V30 4620 C 436.873 -0.555943 4.28408 0
M  V30 4621 C 436.008 -1.57512 5.0731 0
M  V30 4622 C 435.047 -0.860498 6.06021 0
M  V30 4623 N 434.184 -1.82564 6.77949 0
M  V30 4624 H 439.024 0.483449 2.94052 0
M  V30 4625 H 436.561 0.250247 1.44956 0
M  V30 4626 H 438.519 -1.86727 3.7308 0
M  V30 4627 H 437.149 -1.92528 2.591 0
M  V30 4628 H 436.201 0.170938 3.80016 0
M  V30 4629 H 437.513 0.00474616 4.988 0
M  V30 4630 H 436.667 -2.26191 5.62959 0
M  V30 4631 H 435.406 -2.16972 4.36778 0
M  V30 4632 H 434.411 -0.159686 5.49568 0
M  V30 4633 H 435.636 -0.271897 6.78555 0
M  V30 4634 H 433.582 -2.40915 6.10161 0
M  V30 4635 H 433.499 -1.31662 7.44447 0
M  V30 4636 H 434.767 -2.50414 7.38182 0
M  V30 4637 N 438.996 -1.55193 0.274407 0
M  V30 4638 C 440.221 -2.04446 -0.348824 0
M  V30 4639 C 440.646 -1.15149 -1.48735 0
M  V30 4640 O 440.004 -0.149952 -1.80679 0
M  V30 4641 C 440.052 -3.51431 -0.808009 0
M  V30 4642 O 439.156 -3.65225 -1.91531 0
M  V30 4643 H 438.497 -0.66006 -0.0722276 0
M  V30 4644 H 441.027 -2.00481 0.408498 0
M  V30 4645 H 441.037 -3.92781 -1.10395 0
M  V30 4646 H 439.712 -4.15892 0.0249865 0
M  V30 4647 H 438.289 -3.35778 -1.62196 0
M  V30 4648 N 440.474 -0.00167713 -1.576 0
M  V30 4649 C 441.421 0.989195 -2.08527 0
M  V30 4650 C 442.391 1.34031 -0.981065 0
M  V30 4651 O 443.576 1.43839 -1.2536 0
M  V30 4652 C 440.716 2.27537 -2.59463 0
M  V30 4653 C 439.829 1.98314 -3.83791 0
M  V30 4654 C 438.964 3.21025 -4.23222 0
M  V30 4655 C 438.003 2.87495 -5.40382 0
M  V30 4656 N 437.14 4.02749 -5.75098 0
M  V30 4657 H 441.98 0.547973 -2.92919 0
M  V30 4658 H 439.517 0.258917 -1.44803 0
M  V30 4659 H 441.475 3.02729 -2.87073 0
M  V30 4660 H 440.105 2.69325 -1.77943 0
M  V30 4661 H 439.157 1.13482 -3.63078 0
M  V30 4662 H 440.469 1.69601 -4.69081 0
M  V30 4663 H 439.623 4.04561 -4.52123 0
M  V30 4664 H 438.362 3.52877 -3.36644 0
M  V30 4665 H 437.367 2.02367 -5.11202 0
M  V30 4666 H 438.592 2.56889 -6.28637 0
M  V30 4667 H 436.538 4.34494 -4.91478 0
M  V30 4668 H 436.455 3.77566 -6.54966 0
M  V30 4669 H 437.723 4.87068 -6.08592 0
M  V30 4670 N 441.952 1.55251 0.271103 0
M  V30 4671 C 442.915 1.87484 1.31842 0
M  V30 4672 C 443.915 0.749545 1.42262 0
M  V30 4673 O 445.105 1.01771 1.4138 0
M  V30 4674 C 442.237 2.0818 2.69951 0
M  V30 4675 H 443.43 2.81108 1.0449 0
M  V30 4676 H 440.983 1.47771 0.509258 0
M  V30 4677 H 441.718 1.16944 3.02481 0
M  V30 4678 H 441.503 2.90114 2.63774 0
M  V30 4679 H 442.993 2.34385 3.4562 0
M  V30 4680 N 443.43 -0.535701 1.48216 0
M  V30 4681 C 444.362 -1.65662 1.58394 0
M  V30 4682 C 445.375 -1.5591 0.468607 0
M  V30 4683 O 446.564 -1.62475 0.7392 0
M  V30 4684 C 443.664 -3.04276 1.4923 0
M  V30 4685 C 442.837 -3.39567 2.75705 0
M  V30 4686 C 441.896 -4.57436 2.60075 0
M  V30 4687 O 440.922 -4.60942 3.33948 0
M  V30 4688 N 442.124 -5.55259 1.69315 0
M  V30 4689 H 444.889 -1.5737 2.55058 0
M  V30 4690 H 442.45 -0.722845 1.44867 0
M  V30 4691 H 444.442 -3.80994 1.36477 0
M  V30 4692 H 443.012 -3.06677 0.605632 0
M  V30 4693 H 442.232 -2.52083 3.03064 0
M  V30 4694 H 443.52 -3.59929 3.59623 0
M  V30 4695 H 442.918 -5.552 1.08489 0
M  V30 4696 H 441.475 -6.31218 1.62504 0
M  V30 4697 N 444.908 -1.36708 -0.784132 0
M  V30 4698 C 446.185 -1.21776 -1.53069 0
M  V30 4699 C 446.565 0.193876 -2.10208 0
M  V30 4700 O 445.913 1.20012 -1.94446 0
M  V30 4701 C 446.123 -2.30395 -2.62143 0
M  V30 4702 C 447.471 -2.67325 -3.29882 0
M  V30 4703 O 448.495 -2.29478 -2.7243 0
M  V30 4704 O 447.354 -3.32485 -4.33724 0
M  V30 4705 H 444.448 -0.474459 -0.677361 0
M  V30 4706 H 446.994 -1.48454 -0.82216 0
M  V30 4707 H 445.766 -3.2498 -2.17953 0
M  V30 4708 H 445.389 -2.05112 -3.40609 0
M  V30 4709 N 446.386 1.0089 -1.21074 0
M  V30 4710 C 447.349 2.0775 -0.968129 0
M  V30 4711 C 448.349 1.6069 0.0593445 0
M  V30 4712 O 449.539 1.73293 -0.177525 0
M  V30 4713 C 446.671 3.37794 -0.459108 0
M  V30 4714 H 447.864 2.30707 -1.9161 0
M  V30 4715 H 445.417 1.17807 -1.02719 0
M  V30 4716 H 446.152 3.20516 0.49397 0
M  V30 4717 H 445.937 3.7328 -1.20019 0
M  V30 4718 H 447.427 4.16454 -0.309099 0
M  V30 4719 N 447.864 1.01787 1.20321 0
M  V30 4720 C 448.811 0.589197 2.23153 0
M  V30 4721 C 449.781 -0.391367 1.61423 0
M  V30 4722 O 450.966 -0.290518 1.88575 0
M  V30 4723 C 448.106 -0.0650747 3.45039 0
M  V30 4724 C 447.219 0.960207 4.21194 0
M  V30 4725 C 446.354 0.276854 5.30478 0
M  V30 4726 C 445.393 1.2888 5.98378 0
M  V30 4727 N 444.53 0.632031 6.99249 0
M  V30 4728 H 449.37 1.47071 2.59179 0
M  V30 4729 H 446.907 0.736192 1.27352 0
M  V30 4730 H 448.865 -0.461552 4.14639 0
M  V30 4731 H 447.495 -0.910233 3.09701 0
M  V30 4732 H 446.547 1.47484 3.50646 0
M  V30 4733 H 447.859 1.72977 4.67847 0
M  V30 4734 H 447.013 -0.175056 6.06447 0
M  V30 4735 H 445.752 -0.525004 4.84866 0
M  V30 4736 H 444.757 1.75109 5.21169 0
M  V30 4737 H 445.982 2.09196 6.46076 0
M  V30 4738 H 443.928 -0.149935 6.55829 0
M  V30 4739 H 443.845 1.33964 7.44036 0
M  V30 4740 H 445.113 0.203755 7.79234 0
M  V30 4741 N 449.342 -1.36122 0.79427 0
M  V30 4742 C 450.305 -2.28309 0.201889 0
M  V30 4743 C 451.305 -1.49041 -0.603603 0
M  V30 4744 O 452.495 -1.68964 -0.423888 0
M  V30 4745 C 449.627 -3.3321 -0.719978 0
M  V30 4746 H 450.82 -2.82208 1.01481 0
M  V30 4747 H 448.373 -1.45768 0.564037 0
M  V30 4748 H 449.108 -2.84475 -1.55706 0
M  V30 4749 H 448.893 -3.91835 -0.144266 0
M  V30 4750 H 450.383 -4.02044 -1.12916 0
M  V30 4751 N 450.82 -0.546701 -1.47814 0
M  V30 4752 C 452.069 -0.0166497 -2.01693 0
M  V30 4753 C 452.382 1.33721 -1.42752 0
M  V30 4754 O 453.588 1.95658 -1.8823 0
M  V30 4755 C 452.044 0.0206769 -3.59894 0
M  V30 4756 C 451.652 -1.3293 -4.27824 0
M  V30 4757 C 453.396 0.498674 -4.21561 0
M  V30 4758 C 451.303 -1.25165 -5.78003 0
M  V30 4759 H 450.233 -0.0024541 -0.753996 0
M  V30 4760 H 452.884 -0.692984 -1.69912 0
M  V30 4761 H 451.266 0.76244 -3.88591 0
M  V30 4762 H 452.44 -2.08795 -4.10781 0
M  V30 4763 H 450.755 -1.74438 -3.78101 0
M  V30 4764 H 453.352 0.575 -5.31599 0
M  V30 4765 H 453.695 1.5083 -3.88016 0
M  V30 4766 H 454.228 -0.18791 -3.97356 0
M  V30 4767 H 450.967 -2.23695 -6.1615 0
M  V30 4768 H 450.487 -0.53464 -5.97412 0
M  V30 4769 H 452.166 -0.949299 -6.39998 0
M  V30 4770 N 452.299 1.55045 -0.282633 0
M  V30 4771 C 453.232 2.18951 0.64311 0
M  V30 4772 C 454.21 1.15287 1.14664 0
M  V30 4773 O 455.394 1.43846 1.21822 0
M  V30 4774 C 452.521 2.81874 1.87789 0
M  V30 4775 C 451.567 3.98906 1.50919 0
M  V30 4776 S 452.4 5.3234 0.580884 0
M  V30 4777 C 453.556 5.98737 1.82387 0
M  V30 4778 H 453.789 2.97131 0.100138 0
M  V30 4779 H 451.322 1.54255 -0.0668514 0
M  V30 4780 H 453.28 3.18757 2.58658 0
M  V30 4781 H 451.941 2.03573 2.392 0
M  V30 4782 H 451.134 4.4165 2.42819 0
M  V30 4783 H 450.736 3.63485 0.88061 0
M  V30 4784 H 453.028 6.18427 2.76684 0
M  V30 4785 H 453.971 6.93318 1.4393 0
M  V30 4786 H 454.379 5.28177 1.99223 0
M  V30 4787 N 453.777 0.010035 1.57597 0
M  V30 4788 C 455.023 -0.673697 1.91283 0
M  V30 4789 C 455.356 -1.72863 0.884979 0
M  V30 4790 O 454.631 -1.94268 -0.0949487 0
M  V30 4791 C 454.914 -1.30766 3.35518 0
M  V30 4792 C 454.767 -0.263578 4.49027 0
M  V30 4793 C 456.086 -2.23105 3.79358 0
M  V30 4794 H 453.205 -0.243439 0.695634 0
M  V30 4795 H 455.847 0.0633864 1.89894 0
M  V30 4796 H 453.997 -1.93588 3.36832 0
M  V30 4797 H 455.669 0.365738 4.59848 0
M  V30 4798 H 453.912 0.413077 4.31829 0
M  V30 4799 H 454.583 -0.746398 5.4693 0
M  V30 4800 H 457.059 -1.70289 3.79659 0
M  V30 4801 H 455.935 -2.64424 4.81011 0
M  V30 4802 H 456.196 -3.11433 3.13787 0
M  V30 4803 N 455.255 -1.55392 -0.262866 0
M  V30 4804 C 456.203 -1.8977 -1.345 0
M  V30 4805 C 457.197 -0.775063 -1.50629 0
M  V30 4806 O 458.403 -0.959519 -1.52293 0
M  V30 4807 H 454.778 -0.602467 -0.450041 0
M  V30 4808 H 456.749 -2.80147 -1.02762 0
M  V30 4809 C 455.498 -2.19501 -2.69657 0
M  V30 4810 H 454.821 -3.05378 -2.5804 0
M  V30 4811 H 456.261 -2.47469 -3.44289 0
M  V30 4812 C 454.72 -1.00597 -3.21531 0
M  V30 4813 O 455.25 -0.245768 -4.00947 0
M  V30 4814 N 453.456 -0.800911 -2.79345 0
M  V30 4815 H 453.003 -1.42079 -2.14875 0
M  V30 4816 H 452.961 -0.00697996 -3.14399 0
M  V30 4817 N 456.733 0.527833 -1.48498 0
M  V30 4818 C 457.981 1.28101 -1.56316 0
M  V30 4819 C 458.302 1.9352 -0.239781 0
M  V30 4820 O 457.572 1.81433 0.738849 0
M  V30 4821 H 456.152 0.475793 -0.575873 0
M  V30 4822 H 458.814 0.614052 -1.84974 0
M  V30 4823 H 457.91 2.05916 -2.34532 0
M  V30 4824 N 458.211 1.37122 0.776871 0
M  V30 4825 C 459.622 1.28667 1.35284 0
M  V30 4826 C 459.973 -0.0680035 1.96082 0
M  V30 4827 O 459.098 -0.969743 1.93455 0
M  V30 4828 C 459.693 2.32997 2.45963 0
M  V30 4829 C 458.252 2.28191 2.99342 0
M  V30 4830 C 457.399 2.17101 1.72517 0
M  V30 4831 H 460.35 1.47819 0.577527 0
M  V30 4832 H 460.371 1.97366 3.2531 0
M  V30 4833 H 459.883 3.3158 2.01684 0
M  V30 4834 H 457.984 1.33115 3.4801 0
M  V30 4835 H 458.097 3.21397 3.55304 0
M  V30 4836 H 456.461 1.63562 1.95242 0
M  V30 4837 H 457.244 3.17591 1.30348 0
M  V30 4838 N 459.689 -1.00246 1.21608 0
M  V30 4839 C 460.621 -2.09244 0.935401 0
M  V30 4840 C 461.634 -1.62592 -0.0823594 0
M  V30 4841 O 462.823 -1.77865 0.150456 0
M  V30 4842 C 459.923 -3.36724 0.383453 0
M  V30 4843 C 459.096 -4.1245 1.45615 0
M  V30 4844 C 458.155 -5.18219 0.912991 0
M  V30 4845 O 457.181 -5.46337 1.59701 0
M  V30 4846 N 458.383 -5.7987 -0.270478 0
M  V30 4847 H 461.148 -2.33905 1.87373 0
M  V30 4848 H 458.709 -1.16748 1.12167 0
M  V30 4849 H 460.701 -4.047 0.00562157 0
M  V30 4850 H 459.271 -3.09201 -0.459758 0
M  V30 4851 H 458.491 -3.39241 2.00772 0
M  V30 4852 H 459.779 -4.59819 2.17817 0
M  V30 4853 H 459.177 -5.59381 -0.843195 0
M  V30 4854 H 457.734 -6.49126 -0.589794 0
M  V30 4855 N 461.167 -1.02423 -1.1978 0
M  V30 4856 C 462.414 -0.717988 -1.89344 0
M  V30 4857 C 462.742 0.753036 -1.79331 0
M  V30 4858 O 461.997 1.56355 -1.17692 0
M  V30 4859 C 462.296 -1.1088 -3.39765 0
M  V30 4860 C 461.962 -2.57731 -3.6998 0
M  V30 4861 C 460.624 -2.97854 -3.77937 0
M  V30 4862 C 462.976 -3.52763 -3.83677 0
M  V30 4863 C 460.304 -4.31931 -3.97054 0
M  V30 4864 C 462.656 -4.86538 -4.04306 0
M  V30 4865 C 461.32 -5.26356 -4.10494 0
M  V30 4866 H 460.59 -0.26273 -0.692859 0
M  V30 4867 H 463.237 -1.28623 -1.41875 0
M  V30 4868 H 461.542 -0.459094 -3.89101 0
M  V30 4869 H 463.239 -0.849432 -3.919 0
M  V30 4870 H 459.829 -2.25646 -3.64393 0
M  V30 4871 H 464.013 -3.2292 -3.76877 0
M  V30 4872 H 459.269 -4.62324 -4.00083 0
M  V30 4873 H 463.443 -5.60093 -4.13846 0
M  V30 4874 H 461.07 -6.3026 -4.2506 0
M  V30 4875 N 462.645 1.35699 -0.801477 0
M  V30 4876 C 463.893 1.9852 -0.37871 0
M  V30 4877 C 464.214 1.63907 1.05638 0
M  V30 4878 O 463.484 0.919013 1.73006 0
M  V30 4879 H 462.064 0.734322 -0.137042 0
M  V30 4880 H 464.726 1.65697 -1.02619 0
M  V30 4881 H 463.822 3.08382 -0.480284 0
M  V30 4882 N 464.123 0.554532 1.47522 0
M  V30 4883 C 465.369 0.0377449 2.03365 0
M  V30 4884 C 465.724 -1.29654 1.42154 0
M  V30 4885 O 465.017 -1.83022 0.566865 0
M  V30 4886 C 465.211 -0.115927 3.57212 0
M  V30 4887 C 465.04 1.20191 4.33341 0
M  V30 4888 C 463.81 1.76849 4.73342 0
M  V30 4889 C 466.008 2.11849 4.68641 0
M  V30 4890 N 463.99 3.02665 5.34104 0
M  V30 4891 C 465.361 3.22245 5.29677 0
M  V30 4892 C 467.416 2.11876 4.5057 0
M  V30 4893 C 466.119 4.32763 5.74551 0
M  V30 4894 C 468.145 3.21405 4.9644 0
M  V30 4895 C 467.507 4.30519 5.57523 0
M  V30 4896 H 463.606 0.0559107 0.779999 0
M  V30 4897 H 466.19 0.741232 1.80038 0
M  V30 4898 H 464.361 -0.788533 3.80311 0
M  V30 4899 H 466.093 -0.634538 3.99695 0
M  V30 4900 H 462.848 1.30681 4.55214 0
M  V30 4901 H 463.272 3.66788 5.69031 0
M  V30 4902 H 467.914 1.28801 4.02704 0
M  V30 4903 H 465.632 5.166 6.2141 0
M  V30 4904 H 469.218 3.22509 4.8423 0
M  V30 4905 H 468.098 5.13873 5.92371 0
M  V30 4906 N 465.601 -1.54893 0.290851 0
M  V30 4907 C 466.831 -2.04047 -0.323818 0
M  V30 4908 C 467.239 -1.16809 -1.48837 0
M  V30 4909 O 466.582 -0.184145 -1.82775 0
M  V30 4910 C 466.644 -3.49248 -0.852395 0
M  V30 4911 C 466.308 -4.56623 0.185557 0
M  V30 4912 C 467.305 -5.09985 1.01053 0
M  V30 4913 C 464.99 -5.01252 0.324332 0
M  V30 4914 C 466.984 -6.06507 1.96031 0
M  V30 4915 C 464.671 -5.97596 1.27757 0
M  V30 4916 C 465.669 -6.50107 2.09405 0
M  V30 4917 O 465.357 -7.44565 3.03114 0
M  V30 4918 H 465.089 -0.671735 -0.0758129 0
M  V30 4919 H 467.643 -2.00947 0.425393 0
M  V30 4920 H 465.873 -3.49639 -1.65195 0
M  V30 4921 H 467.562 -3.81654 -1.38185 0
M  V30 4922 H 468.328 -4.76307 0.914129 0
M  V30 4923 H 464.207 -4.60015 -0.301213 0
M  V30 4924 H 467.751 -6.47418 2.598 0
M  V30 4925 H 463.648 -6.30691 1.37473 0
M  V30 4926 H 464.416 -7.62334 2.97976 0
M  V30 4927 N 467.08 -0.0183926 -1.57589 0
M  V30 4928 C 468.043 0.951986 -2.08494 0
M  V30 4929 C 469.043 1.26092 -0.997874 0
M  V30 4930 O 470.233 1.20304 -1.25987 0
M  V30 4931 C 467.365 2.27165 -2.54182 0
M  V30 4932 H 468.558 0.511307 -2.95509 0
M  V30 4933 H 466.111 0.229444 -1.54607 0
M  V30 4934 H 466.846 2.75884 -1.70465 0
M  V30 4935 H 466.631 2.06057 -3.33591 0
M  V30 4936 H 468.121 2.9674 -2.93828 0
M  V30 4937 N 468.558 1.5553 0.254621 0
M  V30 4938 C 469.969 1.67518 0.824286 0
M  V30 4939 C 470.32 0.614429 1.86331 0
M  V30 4940 O 469.445 -0.240736 2.15057 0
M  V30 4941 C 470.04 3.03692 1.50189 0
M  V30 4942 C 468.599 3.17646 2.01935 0
M  V30 4943 C 467.746 2.63373 0.867746 0
M  V30 4944 H 470.697 1.58671 0.0305843 0
M  V30 4945 H 470.718 2.97706 2.36962 0
M  V30 4946 H 470.23 3.80874 0.745431 0
M  V30 4947 H 468.331 2.45273 2.80485 0
M  V30 4948 H 468.444 4.24455 2.22204 0
M  V30 4949 H 466.808 2.20999 1.26616 0
M  V30 4950 H 467.591 3.43074 0.124498 0
M  V30 4951 N 470.036 -0.519951 1.48776 0
M  V30 4952 C 470.999 -1.60574 1.6355 0
M  V30 4953 C 471.999 -1.52557 0.508234 0
M  V30 4954 O 473.189 -1.56047 0.774262 0
M  V30 4955 C 470.321 -3.00211 1.61512 0
M  V30 4956 H 471.514 -1.4881 2.60376 0
M  V30 4957 H 469.067 -0.742772 1.37523 0
M  V30 4958 H 469.802 -3.17471 0.662009 0
M  V30 4959 H 469.587 -3.07439 2.43359 0
M  V30 4960 H 471.077 -3.79134 1.75064 0
M  V30 4961 N 471.514 -1.37532 -0.769588 0
M  V30 4962 C 472.744 -1.35861 -1.55645 0
M  V30 4963 C 473.152 0.0574398 -1.89113 0
M  V30 4964 O 472.495 1.03021 -1.52093 0
M  V30 4965 C 472.557 -2.13431 -2.89288 0
M  V30 4966 C 472.221 -3.62378 -2.78444 0
M  V30 4967 C 473.218 -4.56215 -2.49326 0
M  V30 4968 C 470.903 -4.05529 -2.96398 0
M  V30 4969 C 472.897 -5.91181 -2.38294 0
M  V30 4970 C 470.584 -5.40579 -2.84987 0
M  V30 4971 C 471.582 -6.33218 -2.55975 0
M  V30 4972 O 471.27 -7.65787 -2.44594 0
M  V30 4973 H 471.002 -0.467001 -0.48876 0
M  V30 4974 H 473.556 -1.81505 -0.961515 0
M  V30 4975 H 471.786 -1.62481 -3.50909 0
M  V30 4976 H 473.475 -2.04368 -3.50697 0
M  V30 4977 H 474.241 -4.24187 -2.35139 0
M  V30 4978 H 470.12 -3.33781 -3.1798 0
M  V30 4979 H 473.664 -6.63457 -2.15571 0
M  V30 4980 H 469.561 -5.72209 -2.98743 0
M  V30 4981 H 470.329 -7.76132 -2.59927 0
M  V30 4982 N 472.992 0.995999 -1.22138 0
M  V30 4983 C 474.22 1.77066 -1.07029 0
M  V30 4984 C 474.635 1.8495 0.379357 0
M  V30 4985 O 473.992 1.3174 1.26297 0
M  V30 4986 C 474.043 3.20533 -1.67155 0
M  V30 4987 O 473.764 3.13082 -3.06449 0
M  V30 4988 C 475.265 4.14461 -1.5728 0
M  V30 4989 H 472.485 0.556179 -0.375374 0
M  V30 4990 H 475.029 1.25238 -1.61666 0
M  V30 4991 H 473.184 3.6944 -1.16589 0
M  V30 4992 H 473.598 4.03283 -3.35355 0
M  V30 4993 H 475.072 5.1289 -2.04078 0
M  V30 4994 H 475.549 4.36005 -0.528795 0
M  V30 4995 H 476.155 3.71449 -2.07136 0
M  V30 4996 N 474.47 1.03057 1.19235 0
M  V30 4997 C 475.7 0.746613 1.92638 0
M  V30 4998 C 476.108 -0.698708 1.75826 0
M  V30 4999 O 475.451 -1.487 1.07861 0
M  V30 5000 C 475.513 1.02024 3.44719 0
M  V30 5001 C 475.177 2.45745 3.85303 0
M  V30 5002 C 476.174 3.43887 3.8992 0
M  V30 5003 C 473.859 2.8019 4.16892 0
M  V30 5004 C 475.853 4.74529 4.2556 0
M  V30 5005 C 473.54 4.1104 4.52205 0
M  V30 5006 C 474.538 5.0802 4.56513 0
M  V30 5007 O 474.226 6.36527 4.91008 0
M  V30 5008 H 473.958 0.272401 0.618687 0
M  V30 5009 H 476.512 1.37853 1.52269 0
M  V30 5010 H 474.742 0.331184 3.85279 0
M  V30 5011 H 476.431 0.725677 3.9936 0
M  V30 5012 H 477.197 3.18614 3.65664 0
M  V30 5013 H 473.076 2.05382 4.12722 0
M  V30 5014 H 476.62 5.50222 4.28838 0
M  V30 5015 H 472.517 4.36086 4.7592 0
M  V30 5016 H 473.285 6.41025 5.08949 0
M  V30 5017 N 475.948 -1.35272 0.808662 0
M  V30 5018 C 477.196 -1.98316 0.389233 0
M  V30 5019 C 477.517 -1.64465 -1.04767 0
M  V30 5020 O 476.787 -0.928175 -1.72516 0
M  V30 5021 H 475.367 -0.733585 0.140935 0
M  V30 5022 H 478.029 -1.6515 1.03496 0
M  V30 5023 H 477.125 -3.08123 0.496631 0
M  V30 5024 N 477.426 -0.562348 -1.47226 0
M  V30 5025 C 478.675 -0.038041 -2.01664 0
M  V30 5026 C 478.988 1.32199 -1.44162 0
M  V30 5027 O 480.194 1.9365 -1.90294 0
M  V30 5028 C 478.65 -0.0174958 -3.59896 0
M  V30 5029 C 478.258 -1.3746 -4.2639 0
M  V30 5030 C 480.002 0.453934 -4.22066 0
M  V30 5031 C 477.909 -1.31289 -5.76643 0
M  V30 5032 H 476.839 -0.0104511 -0.753928 0
M  V30 5033 H 479.49 -0.710966 -1.69167 0
M  V30 5034 H 477.872 0.721182 -3.89378 0
M  V30 5035 H 479.046 -2.1314 -4.08544 0
M  V30 5036 H 477.361 -1.78438 -3.7623 0
M  V30 5037 H 479.958 0.518584 -5.32179 0
M  V30 5038 H 480.301 1.46706 -3.89594 0
M  V30 5039 H 480.834 -0.230044 -3.97134 0
M  V30 5040 H 477.573 -2.30217 -6.13743 0
M  V30 5041 H 477.093 -0.597973 -5.96812 0
M  V30 5042 H 478.772 -1.01713 -6.38955 0
M  V30 5043 N 478.904 1.54736 -0.299062 0
M  V30 5044 C 480.152 1.99706 0.31017 0
M  V30 5045 C 480.473 1.18896 1.54559 0
M  V30 5046 O 479.743 0.284445 1.93824 0
M  V30 5047 H 478.323 0.737686 0.117596 0
M  V30 5048 H 480.985 1.9054 -0.409943 0
M  V30 5049 H 480.081 3.06596 0.58355 0
M  V30 5050 N 480.382 0.0267497 1.57577 0
M  V30 5051 C 481.312 -0.954308 2.13108 0
M  V30 5052 C 482.293 -1.34088 1.04663 0
M  V30 5053 O 483.478 -1.41992 1.32484 0
M  V30 5054 C 480.608 -2.23744 2.65624 0
M  V30 5055 C 479.562 -1.99168 3.78835 0
M  V30 5056 C 478.888 -3.33726 4.17769 0
M  V30 5057 C 480.188 -1.33277 5.0501 0
M  V30 5058 H 481.882 -0.491848 2.95332 0
M  V30 5059 H 479.428 -0.23514 1.42067 0
M  V30 5060 H 481.381 -2.92754 3.03106 0
M  V30 5061 H 480.105 -2.72151 1.80558 0
M  V30 5062 H 478.764 -1.32577 3.41788 0
M  V30 5063 H 478.412 -3.79888 3.29688 0
M  V30 5064 H 478.112 -3.18089 4.94058 0
M  V30 5065 H 479.636 -4.04008 4.57832 0
M  V30 5066 H 481.05 -1.92283 5.40093 0
M  V30 5067 H 479.447 -1.28045 5.8628 0
M  V30 5068 H 480.517 -0.305411 4.83937 0
M  V30 5069 N 481.861 -1.55662 -0.24637 0
M  V30 5070 C 482.811 -1.86753 -1.30795 0
M  V30 5071 C 483.795 -0.728445 -1.43466 0
M  V30 5072 O 484.987 -0.99038 -1.46699 0
M  V30 5073 C 482.116 -2.16618 -2.66329 0
M  V30 5074 C 481.202 -3.36855 -2.57661 0
M  V30 5075 N 481.593 -4.56111 -2.18624 0
M  V30 5076 C 479.891 -3.39976 -2.88673 0
M  V30 5077 C 480.592 -5.38247 -2.20601 0
M  V30 5078 N 479.568 -4.77322 -2.60124 0
M  V30 5079 H 483.37 -2.76486 -0.996642 0
M  V30 5080 H 480.884 -1.55896 -0.454994 0
M  V30 5081 H 482.881 -2.37057 -3.42942 0
M  V30 5082 H 481.541 -1.28185 -2.98327 0
M  V30 5083 H 482.552 -4.81726 -1.9016 0
M  V30 5084 H 479.229 -2.61815 -3.25206 0
M  V30 5085 H 480.619 -6.43657 -1.92756 0
M  V30 5086 N 483.339 0.512053 -1.4905 0
M  V30 5087 C 484.587 1.26436 -1.57665 0
M  V30 5088 C 484.908 1.93255 -0.260293 0
M  V30 5089 O 484.178 1.82206 0.719564 0
M  V30 5090 H 482.758 0.469658 -0.580888 0
M  V30 5091 H 485.42 0.594398 -1.85615 0
M  V30 5092 H 484.516 2.03417 -2.36702 0
M  V30 5093 N 484.817 1.37938 0.762283 0
M  V30 5094 C 485.78 1.34279 1.85747 0
M  V30 5095 C 486.78 0.244969 1.58923 0
M  V30 5096 O 487.97 0.501365 1.66829 0
M  V30 5097 C 485.102 1.08833 3.23061 0
M  V30 5098 H 486.295 2.31705 1.90401 0
M  V30 5099 H 483.848 1.23105 0.963057 0
M  V30 5100 H 484.583 0.119767 3.24079 0
M  V30 5101 H 484.368 1.88306 3.43923 0
M  V30 5102 H 485.858 1.08946 4.03138 0
M  V30 5103 N 486.295 -0.989507 1.22664 0
M  V30 5104 C 487.543 -1.72612 1.05117 0
M  V30 5105 C 487.864 -1.90552 -0.414131 0
M  V30 5106 O 487.134 -1.4676 -1.29762 0
M  V30 5107 H 485.714 -0.639555 0.385977 0
M  V30 5108 H 488.376 -1.19158 1.54232 0
M  V30 5109 H 487.472 -2.71926 1.53175 0
M  V30 5110 N 487.773 -1.03688 -1.18687 0
M  V30 5111 C 489.003 -0.756819 -1.92239 0
M  V30 5112 C 489.411 0.689374 -1.76194 0
M  V30 5113 O 488.754 1.48126 -1.08648 0
M  V30 5114 C 488.816 -1.03851 -3.44173 0
M  V30 5115 C 488.48 -2.47785 -3.83994 0
M  V30 5116 C 489.477 -3.4595 -3.88091 0
M  V30 5117 C 487.162 -2.82397 -4.154 0
M  V30 5118 C 489.156 -4.76779 -4.23038 0
M  V30 5119 C 486.843 -4.13433 -4.50018 0
M  V30 5120 C 487.841 -5.10434 -4.53813 0
M  V30 5121 O 487.529 -6.39122 -4.87625 0
M  V30 5122 H 487.261 -0.275678 -0.617234 0
M  V30 5123 H 489.815 -1.38658 -1.51536 0
M  V30 5124 H 488.045 -0.351612 -3.85098 0
M  V30 5125 H 489.734 -0.746846 -3.9897 0
M  V30 5126 H 490.5 -3.20549 -3.63969 0
M  V30 5127 H 486.379 -2.07568 -4.11627 0
M  V30 5128 H 489.923 -5.52488 -4.25914 0
M  V30 5129 H 485.82 -4.38604 -4.736 0
M  V30 5130 H 486.588 -6.43715 -5.05542 0
M  V30 5131 N 489.251 1.34841 -0.815825 0
M  V30 5132 C 490.528 1.92908 -0.323416 0
M  V30 5133 C 490.908 1.74479 1.18828 0
M  V30 5134 O 490.256 1.11928 1.99209 0
M  V30 5135 C 490.466 3.40957 -0.744952 0
M  V30 5136 C 491.814 4.18107 -0.739716 0
M  V30 5137 O 492.838 3.49511 -0.68708 0
M  V30 5138 O 491.697 5.40517 -0.806456 0
M  V30 5139 H 488.791 0.822436 -0.0867646 0
M  V30 5140 H 491.337 1.4386 -0.90014 0
M  V30 5141 H 490.109 3.4814 -1.78646 0
M  V30 5142 H 489.732 3.97341 -0.143535 0
M  V30 5143 N 490.729 0.570148 1.46925 0
M  V30 5144 C 491.975 0.0510284 2.02736 0
M  V30 5145 C 492.308 -1.3006 1.44215 0
M  V30 5146 O 491.583 -1.84932 0.602521 0
M  V30 5147 C 491.866 -0.028215 3.60089 0
M  V30 5148 C 491.719 1.35142 4.29018 0
M  V30 5149 C 493.038 -0.735181 4.33916 0
M  V30 5150 H 490.157 0.0200178 0.736728 0
M  V30 5151 H 492.799 0.73493 1.75211 0
M  V30 5152 H 490.949 -0.610648 3.83671 0
M  V30 5153 H 492.621 1.97806 4.16738 0
M  V30 5154 H 490.864 1.9226 3.88868 0
M  V30 5155 H 491.535 1.24857 5.37694 0
M  V30 5156 H 494.011 -0.240519 4.15404 0
M  V30 5157 H 492.887 -0.759622 5.43618 0
M  V30 5158 H 493.148 -1.79397 4.04066 0
M  V30 5159 N 492.207 -1.54576 0.307264 0
M  V30 5160 C 493.435 -2.04675 -0.302597 0
M  V30 5161 C 493.85 -1.18425 -1.47041 0
M  V30 5162 O 493.207 -0.211257 -1.81273 0
M  V30 5163 C 493.258 -3.53575 -0.752801 0
M  V30 5164 O 492.979 -4.36547 0.368536 0
M  V30 5165 C 494.48 -4.19699 -1.42717 0
M  V30 5166 H 491.7 -0.66786 -0.0648374 0
M  V30 5167 H 494.244 -1.99516 0.448716 0
M  V30 5168 H 492.399 -3.59074 -1.45412 0
M  V30 5169 H 492.813 -5.24497 0.0168937 0
M  V30 5170 H 494.287 -5.25388 -1.69327 0
M  V30 5171 H 494.764 -3.69815 -2.36925 0
M  V30 5172 H 495.37 -4.18293 -0.768856 0
M  V30 5173 N 493.685 -0.035106 -1.57561 0
M  V30 5174 C 494.933 0.64096 -1.91667 0
M  V30 5175 C 495.254 1.72323 -0.912681 0
M  V30 5176 O 494.524 1.95849 0.0449089 0
M  V30 5177 H 493.104 0.239743 -0.707483 0
M  V30 5178 H 495.766 -0.084321 -1.94718 0
M  V30 5179 H 494.862 1.08987 -2.92452 0
M  V30 5180 N 495.163 1.55791 0.238111 0
M  V30 5181 C 496.111 1.91885 1.31464 0
M  V30 5182 C 497.105 0.798929 1.49377 0
M  V30 5183 O 498.311 0.983626 1.50747 0
M  V30 5184 H 494.686 0.609551 0.440399 0
M  V30 5185 H 496.657 2.81747 0.982925 0
M  V30 5186 C 495.406 2.23763 2.6613 0
M  V30 5187 H 494.729 3.09444 2.53149 0
M  V30 5188 H 496.169 2.52915 3.40309 0
M  V30 5189 C 494.628 1.05699 3.1989 0
M  V30 5190 O 495.158 0.309524 4.00506 0
M  V30 5191 N 493.364 0.845251 2.78036 0
M  V30 5192 H 492.911 1.4548 2.12588 0
M  V30 5193 H 492.869 0.0569973 3.14348 0
M  V30 5194 N 496.642 -0.504142 1.49319 0
M  V30 5195 C 497.87 -1.28256 1.62351 0
M  V30 5196 C 498.285 -1.86502 0.293682 0
M  V30 5197 O 497.642 -1.67678 -0.720449 0
M  V30 5198 C 497.693 -2.41507 2.68992 0
M  V30 5199 O 497.414 -1.85656 3.96817 0
M  V30 5200 C 498.915 -3.32929 2.927 0
M  V30 5201 H 496.135 -0.389115 0.546654 0
M  V30 5202 H 498.679 -0.605531 1.95329 0
M  V30 5203 H 496.834 -3.05046 2.38801 0
M  V30 5204 H 497.248 -2.59981 4.55533 0
M  V30 5205 H 498.722 -4.0868 3.71058 0
M  V30 5206 H 499.199 -3.89733 2.02496 0
M  V30 5207 H 499.805 -2.75158 3.24296 0
M  V30 5208 N 498.12 -1.38341 -0.754957 0
M  V30 5209 C 499.531 -1.30803 -1.3322 0
M  V30 5210 C 499.882 0.0368 -1.96165 0
M  V30 5211 O 499.007 0.938844 -1.94974 0
M  V30 5212 C 499.602 -2.3688 -2.42225 0
M  V30 5213 C 498.161 -2.32925 -2.95674 0
M  V30 5214 C 497.308 -2.19819 -1.69042 0
M  V30 5215 H 500.259 -1.48719 -0.553937 0
M  V30 5216 H 500.28 -2.02517 -3.22129 0
M  V30 5217 H 499.792 -3.34747 -1.96383 0
M  V30 5218 H 497.893 -1.38635 -3.45848 0
M  V30 5219 H 498.006 -3.27008 -3.50146 0
M  V30 5220 H 496.37 -1.66648 -1.92615 0
M  V30 5221 H 497.153 -3.19625 -1.25279 0
M  V30 5222 N 499.598 0.982988 -1.23187 0
M  V30 5223 C 500.845 1.72392 -1.06241 0
M  V30 5224 C 501.173 1.9032 0.40108 0
M  V30 5225 O 500.428 1.45084 1.31336 0
M  V30 5226 C 500.727 3.12736 -1.73006 0
M  V30 5227 C 500.393 3.14695 -3.22921 0
M  V30 5228 C 499.055 3.14937 -3.63824 0
M  V30 5229 C 501.407 3.10211 -4.1883 0
M  V30 5230 C 498.735 3.08408 -4.99101 0
M  V30 5231 C 501.087 3.05224 -5.54095 0
M  V30 5232 C 499.751 3.03787 -5.94365 0
M  V30 5233 H 499.021 0.630829 -0.388762 0
M  V30 5234 H 501.668 1.15053 -1.53085 0
M  V30 5235 H 499.973 3.73446 -1.18514 0
M  V30 5236 H 501.67 3.68828 -1.57374 0
M  V30 5237 H 498.26 3.15262 -2.90358 0
M  V30 5238 H 502.444 3.09166 -3.8824 0
M  V30 5239 H 497.7 3.05646 -5.29519 0
M  V30 5240 H 501.874 3.00712 -6.28128 0
M  V30 5241 H 499.501 2.98483 -6.99151 0
M  V30 5242 N 501.076 1.04316 1.18135 0
M  V30 5243 C 502.039 0.640794 2.2006 0
M  V30 5244 C 503.039 -0.303124 1.57917 0
M  V30 5245 O 504.229 -0.0881855 1.73977 0
M  V30 5246 C 501.361 -0.060148 3.40847 0
M  V30 5247 H 502.554 1.54281 2.57172 0
M  V30 5248 H 500.107 0.836004 1.32063 0
M  V30 5249 H 500.842 -0.975845 3.0927 0
M  V30 5250 H 500.627 0.618319 3.87194 0
M  V30 5251 H 502.117 -0.328082 4.16309 0
M  V30 5252 N 502.554 -1.34406 0.822964 0
M  V30 5253 C 503.784 -2.02214 0.423424 0
M  V30 5254 C 504.192 -1.62124 -0.975322 0
M  V30 5255 O 503.535 -0.822452 -1.6426 0
M  V30 5256 C 503.597 -3.56721 0.446107 0
M  V30 5257 C 503.261 -4.20136 1.79819 0
M  V30 5258 C 504.258 -4.4065 2.75904 0
M  V30 5259 C 501.943 -4.56906 2.08669 0
M  V30 5260 C 503.937 -4.9706 3.99012 0
M  V30 5261 C 501.624 -5.13026 3.32036 0
M  V30 5262 C 502.622 -5.33047 4.27024 0
M  V30 5263 O 502.31 -5.87979 5.48211 0
M  V30 5264 H 502.042 -0.654748 0.168169 0
M  V30 5265 H 504.596 -1.72659 1.11257 0
M  V30 5266 H 502.826 -3.85537 -0.299734 0
M  V30 5267 H 504.515 -4.05845 0.0666114 0
M  V30 5268 H 505.281 -4.12607 2.54912 0
M  V30 5269 H 501.16 -4.40626 1.35535 0
M  V30 5270 H 504.704 -5.12603 4.73164 0
M  V30 5271 H 500.601 -5.40498 3.52891 0
M  V30 5272 H 501.369 -6.06413 5.49732 0
M  V30 5273 N 504.032 -0.577932 -1.46621 0
M  V30 5274 C 505.443 -0.150071 -1.86096 0
M  V30 5275 C 505.794 1.28563 -1.48209 0
M  V30 5276 O 504.919 1.97036 -0.894754 0
M  V30 5277 C 505.514 -0.265576 -3.37758 0
M  V30 5278 C 504.073 0.10738 -3.76247 0
M  V30 5279 C 503.22 -0.603711 -2.70649 0
M  V30 5280 H 506.171 -0.786438 -1.37844 0
M  V30 5281 H 506.192 0.510352 -3.77062 0
M  V30 5282 H 505.704 -1.3106 -3.65301 0
M  V30 5283 H 503.805 1.15272 -3.54321 0
M  V30 5284 H 503.918 -0.26561 -4.78363 0
M  V30 5285 H 502.282 -0.0444884 -2.54661 0
M  V30 5286 H 503.065 -1.65029 -3.01032 0
M  V30 5287 N 505.51 1.54411 -0.315457 0
M  V30 5288 C 506.758 2.00023 0.288971 0
M  V30 5289 C 507.079 1.20529 1.5329 0
M  V30 5290 O 506.349 0.304986 1.93511 0
M  V30 5291 H 504.929 0.738891 0.109766 0
M  V30 5292 H 507.591 1.90094 -0.430129 0
M  V30 5293 H 506.687 3.07198 0.550999 0
M  V30 5294 N 506.988 0.0434614 1.5754 0
M  V30 5295 C 507.918 -0.931651 2.14109 0
M  V30 5296 C 508.899 -1.32971 1.06079 0
M  V30 5297 O 510.084 -1.40579 1.33982 0
M  V30 5298 C 507.214 -2.20914 2.67982 0
M  V30 5299 C 506.168 -1.95139 3.80926 0
M  V30 5300 C 505.494 -3.29276 4.21285 0
M  V30 5301 C 506.794 -1.27913 5.06395 0
M  V30 5302 H 508.488 -0.460497 2.95837 0
M  V30 5303 H 506.034 -0.220058 1.42309 0
M  V30 5304 H 507.987 -2.89522 3.06194 0
M  V30 5305 H 506.711 -2.70221 1.83434 0
M  V30 5306 H 505.37 -1.28945 3.43175 0
M  V30 5307 H 505.018 -3.76369 3.33699 0
M  V30 5308 H 504.718 -3.12831 4.97404 0
M  V30 5309 H 506.242 -3.99129 4.62091 0
M  V30 5310 H 507.656 -1.86544 5.42102 0
M  V30 5311 H 506.053 -1.2182 5.87605 0
M  V30 5312 H 507.123 -0.254066 4.84234 0
M  V30 5313 N 508.466 -1.55915 -0.229846 0
M  V30 5314 C 509.712 -1.78807 -0.956868 0
M  V30 5315 C 510.045 -0.611687 -1.84315 0
M  V30 5316 O 509.32 0.389398 -1.90562 0
M  V30 5317 C 509.603 -3.11718 -1.80288 0
M  V30 5318 C 509.456 -4.3979 -0.943649 0
M  V30 5319 C 510.775 -3.40999 -2.78222 0
M  V30 5320 H 507.894 -0.6505 -0.346437 0
M  V30 5321 H 510.536 -1.88648 -0.226252 0
M  V30 5322 H 508.686 -3.03459 -2.42579 0
M  V30 5323 H 510.358 -4.60059 -0.338121 0
M  V30 5324 H 508.601 -4.33086 -0.248705 0
M  V30 5325 H 509.272 -5.29208 -1.5698 0
M  V30 5326 H 511.748 -3.49332 -2.26067 0
M  V30 5327 H 510.624 -4.35183 -3.34526 0
M  V30 5328 H 510.885 -2.62754 -3.55546 0
M  V30 5329 N 509.944 0.496216 -1.49584 0
M  V30 5330 C 511.191 1.25003 -1.59312 0
M  V30 5331 C 511.519 1.92445 -0.28198 0
M  V30 5332 O 510.774 1.81557 0.730452 0
M  V30 5333 C 511.073 2.3359 -2.705 0
M  V30 5334 C 510.739 1.83574 -4.11839 0
M  V30 5335 C 509.401 1.69653 -4.50302 0
M  V30 5336 C 511.753 1.46193 -5.00277 0
M  V30 5337 C 509.081 1.16736 -5.74969 0
M  V30 5338 C 511.433 0.947265 -6.25468 0
M  V30 5339 C 510.097 0.794485 -6.62755 0
M  V30 5340 H 509.367 0.45742 -0.582965 0
M  V30 5341 H 512.014 0.549996 -1.83432 0
M  V30 5342 H 510.319 3.09401 -2.40371 0
M  V30 5343 H 512.016 2.91627 -2.75235 0
M  V30 5344 H 508.606 1.9537 -3.81482 0
M  V30 5345 H 512.79 1.55793 -4.71214 0
M  V30 5346 H 508.046 1.03623 -6.02555 0
M  V30 5347 H 512.22 0.648846 -6.93371 0
M  V30 5348 H 509.847 0.382271 -7.59238 0
M  V30 5349 N 511.423 1.38739 0.74761 0
M  V30 5350 C 512.671 1.35007 1.50391 0
M  V30 5351 C 512.992 -0.0574274 1.94915 0
M  V30 5352 O 512.262 -1.00628 1.6808 0
M  V30 5353 H 510.842 0.496784 0.557866 0
M  V30 5354 H 513.504 1.73479 0.888319 0
M  V30 5355 H 512.6 2.00474 2.392 0
M  V30 5356 N 512.901 -0.976442 1.23707 0
M  V30 5357 C 513.851 -2.0544 0.988851 0
M  V30 5358 C 514.835 -1.60762 -0.0665901 0
M  V30 5359 O 516.027 -1.76396 0.14604 0
M  V30 5360 C 513.156 -3.38258 0.586223 0
M  V30 5361 C 512.242 -3.89523 1.67728 0
M  V30 5362 N 512.633 -4.13823 2.90834 0
M  V30 5363 C 510.931 -4.18097 1.55277 0
M  V30 5364 C 511.632 -4.55731 3.61502 0
M  V30 5365 N 510.608 -4.60394 2.8903 0
M  V30 5366 H 514.41 -2.22191 1.92376 0
M  V30 5367 H 511.924 -1.15954 1.13704 0
M  V30 5368 H 513.921 -4.15075 0.389658 0
M  V30 5369 H 512.581 -3.22898 -0.341594 0
M  V30 5370 H 513.592 -4.01529 3.271 0
M  V30 5371 H 510.269 -4.11719 0.692351 0
M  V30 5372 H 511.659 -4.83018 4.67059 0
M  V30 5373 N 514.379 -1.04941 -1.1758 0
M  V30 5374 C 515.327 -0.64204 -2.23563 0
M  V30 5375 C 516.321 0.335453 -1.66045 0
M  V30 5376 O 517.527 0.20179 -1.78865 0
M  V30 5377 H 513.902 -0.18944 -0.727748 0
M  V30 5378 H 515.873 -1.54609 -2.55223 0
M  V30 5379 C 514.622 -0.0301051 -3.47687 0
M  V30 5380 H 513.945 -0.773339 -3.92249 0
M  V30 5381 H 515.385 0.217592 -4.23441 0
M  V30 5382 C 513.844 1.2225 -3.13937 0
M  V30 5383 O 514.374 2.3122 -3.28482 0
M  V30 5384 N 512.58 1.11917 -2.68185 0
M  V30 5385 H 512.127 0.232403 -2.5655 0
M  V30 5386 H 512.085 1.95814 -2.45976 0
M  V30 5387 N 515.857 1.33968 -0.830081 0
M  V30 5388 C 517.105 1.97672 -0.420734 0
M  V30 5389 C 517.426 1.66111 1.02138 0
M  V30 5390 O 516.696 0.955503 1.71017 0
M  V30 5391 H 515.276 0.73125 -0.152587 0
M  V30 5392 H 517.938 1.63483 -1.0611 0
M  V30 5393 H 517.034 3.07294 -0.545588 0
M  V30 5394 N 517.335 0.585699 1.46312 0
M  V30 5395 C 518.581 0.0725284 2.0267 0
M  V30 5396 C 518.914 -1.28523 1.45586 0
M  V30 5397 O 518.189 -1.84283 0.622101 0
M  V30 5398 C 518.472 0.0099788 3.60099 0
M  V30 5399 C 518.325 1.39685 4.27561 0
M  V30 5400 C 519.644 -0.689117 4.34671 0
M  V30 5401 H 516.763 0.0278307 0.736474 0
M  V30 5402 H 519.405 0.753472 1.74421 0
M  V30 5403 H 517.555 -0.56992 3.84297 0
M  V30 5404 H 519.227 2.02215 4.14617 0
M  V30 5405 H 517.47 1.96374 3.86807 0
M  V30 5406 H 518.141 1.30553 5.36339 0
M  V30 5407 H 520.617 -0.196446 4.15636 0
M  V30 5408 H 519.493 -0.701921 5.44393 0
M  V30 5409 H 519.754 -1.75101 4.05946 0
M  V30 5410 N 518.813 -1.54241 0.323641 0
M  V30 5411 C 520.062 -1.9975 -0.279806 0
M  V30 5412 C 520.375 -1.2156 -1.5324 0
M  V30 5413 O 521.581 -1.57447 -2.21185 0
M  V30 5414 C 520.037 -3.55686 -0.549115 0
M  V30 5415 C 519.645 -4.4271 0.686432 0
M  V30 5416 C 521.389 -4.09663 -1.11251 0
M  V30 5417 C 519.296 -5.90119 0.389022 0
M  V30 5418 H 518.226 -0.746177 -0.10833 0
M  V30 5419 H 520.877 -1.78248 0.435877 0
M  V30 5420 H 519.259 -3.73176 -1.32499 0
M  V30 5421 H 520.433 -4.36996 1.46188 0
M  V30 5422 H 518.748 -3.99623 1.17005 0
M  V30 5423 H 521.345 -5.17386 -1.34965 0
M  V30 5424 H 521.688 -3.61651 -2.06191 0
M  V30 5425 H 522.221 -3.95806 -0.39782 0
M  V30 5426 H 518.96 -6.42326 1.30759 0
M  V30 5427 H 518.48 -5.98785 -0.348722 0
M  V30 5428 H 520.159 -6.47 -0.0011164 0
M  V30 5429 N 520.291 -0.0518155 -1.57515 0
M  V30 5430 C 521.516 0.634896 -1.97443 0
M  V30 5431 C 521.941 1.63546 -0.929207 0
M  V30 5432 O 521.299 1.80981 0.107484 0
M  V30 5433 C 521.347 1.29765 -3.36442 0
M  V30 5434 O 520.451 2.41333 -3.34413 0
M  V30 5435 H 519.792 0.164994 -0.643174 0
M  V30 5436 H 522.322 -0.120407 -2.04245 0
M  V30 5437 H 522.332 1.64918 -3.73184 0
M  V30 5438 H 521.007 0.564361 -4.12053 0
M  V30 5439 H 519.584 2.08122 -3.09418 0
M  V30 5440 N 521.769 1.56035 0.221574 0
M  V30 5441 C 523.015 1.80221 0.942973 0
M  V30 5442 C 523.37 0.624799 1.81973 0
M  V30 5443 O 522.663 -0.381145 1.87771 0
M  V30 5444 C 522.857 3.07813 1.8162 0
M  V30 5445 C 522.686 4.37852 1.02548 0
M  V30 5446 C 521.456 5.00138 0.720418 0
M  V30 5447 C 523.654 5.12813 0.390799 0
M  V30 5448 N 521.636 6.13831 -0.0917139 0
M  V30 5449 C 523.007 6.19346 -0.284728 0
M  V30 5450 C 525.062 4.96972 0.303828 0
M  V30 5451 C 523.765 7.11758 -1.03891 0
M  V30 5452 C 525.791 5.89784 -0.436883 0
M  V30 5453 C 525.153 6.95743 -1.10095 0
M  V30 5454 H 521.252 0.711117 0.325325 0
M  V30 5455 H 523.836 1.93522 0.213854 0
M  V30 5456 H 522.007 2.95795 2.51714 0
M  V30 5457 H 523.739 3.20191 2.47508 0
M  V30 5458 H 520.494 4.62075 1.03843 0
M  V30 5459 H 520.918 6.75249 -0.486615 0
M  V30 5460 H 525.56 4.15107 0.802896 0
M  V30 5461 H 523.278 7.93105 -1.54949 0
M  V30 5462 H 526.864 5.79603 -0.505181 0
M  V30 5463 H 525.744 7.66322 -1.66495 0
M  V30 5464 N 523.247 -0.488276 1.49845 0
M  V30 5465 C 524.495 -1.23911 1.59657 0
M  V30 5466 C 524.816 -1.92816 0.291005 0
M  V30 5467 O 524.086 -1.83328 -0.690485 0
M  V30 5468 H 522.666 -0.460357 0.588286 0
M  V30 5469 H 525.328 -0.564794 1.86537 0
M  V30 5470 H 524.424 -1.99625 2.39909 0
M  V30 5471 N 524.725 -1.39134 -0.740242 0
M  V30 5472 C 525.95 -1.39518 -1.53459 0
M  V30 5473 C 526.375 0.00968883 -1.88098 0
M  V30 5474 O 525.733 0.995312 -1.51536 0
M  V30 5475 C 525.781 -2.26981 -2.802 0
M  V30 5476 O 524.885 -1.69609 -3.75908 0
M  V30 5477 H 524.226 -0.475328 -0.463637 0
M  V30 5478 H 526.756 -1.83064 -0.913717 0
M  V30 5479 H 526.766 -2.41309 -3.28989 0
M  V30 5480 H 525.441 -3.29081 -2.5432 0
M  V30 5481 H 524.018 -1.64495 -3.34658 0
M  V30 5482 N 526.204 0.969867 -1.24223 0
M  V30 5483 C 527.432 1.74756 -1.10761 0
M  V30 5484 C 527.847 1.85713 0.340041 0
M  V30 5485 O 527.204 1.34389 1.23474 0
M  V30 5486 C 527.255 3.16915 -1.73917 0
M  V30 5487 O 526.976 3.06511 -3.13021 0
M  V30 5488 C 528.477 4.11032 -1.66036 0
M  V30 5489 H 525.697 0.548092 -0.387087 0
M  V30 5490 H 528.241 1.2178 -1.64286 0
M  V30 5491 H 526.396 3.66884 -1.244 0
M  V30 5492 H 526.81 3.96079 -3.43834 0
M  V30 5493 H 528.284 5.08446 -2.14911 0
M  V30 5494 H 528.761 4.34785 -0.621159 0
M  V30 5495 H 529.367 3.66972 -2.14969 0
M  V30 5496 N 527.682 1.05563 1.17022 0
M  V30 5497 C 528.645 0.664098 2.19368 0
M  V30 5498 C 529.645 -0.286358 1.5823 0
M  V30 5499 O 530.835 -0.069728 1.7406 0
M  V30 5500 C 527.967 -0.0239932 3.40892 0
M  V30 5501 H 529.16 1.57 2.55521 0
M  V30 5502 H 526.713 0.849964 1.31169 0
M  V30 5503 H 527.448 -0.942988 3.10287 0
M  V30 5504 H 527.233 0.659351 3.86516 0
M  V30 5505 H 528.723 -0.283909 4.16634 0
M  V30 5506 N 529.16 -1.33526 0.837174 0
M  V30 5507 C 530.408 -1.97446 0.431211 0
M  V30 5508 C 530.729 -1.6665 -1.01255 0
M  V30 5509 O 529.999 -0.964559 -1.70508 0
M  V30 5510 H 528.579 -0.73043 0.156463 0
M  V30 5511 H 531.241 -1.62918 1.06976 0
M  V30 5512 H 530.337 -3.07001 0.561877 0
M  V30 5513 N 530.638 -0.59345 -1.46 0
M  V30 5514 C 531.885 -0.0831523 -2.02329 0
M  V30 5515 C 532.213 1.28093 -1.46364 0
M  V30 5516 O 531.468 1.85526 -0.622793 0
M  V30 5517 C 531.767 0.021178 -3.57394 0
M  V30 5518 C 531.433 -1.27671 -4.32448 0
M  V30 5519 C 530.095 -1.63227 -4.5267 0
M  V30 5520 C 532.447 -2.13511 -4.7546 0
M  V30 5521 C 529.775 -2.84401 -5.1316 0
M  V30 5522 C 532.127 -3.33922 -5.37289 0
M  V30 5523 C 530.791 -3.69747 -5.55737 0
M  V30 5524 H 530.061 -0.0304276 -0.740375 0
M  V30 5525 H 532.708 -0.772239 -1.75239 0
M  V30 5526 H 531.013 0.793454 -3.83682 0
M  V30 5527 H 532.71 0.431942 -3.98667 0
M  V30 5528 H 529.3 -0.989937 -4.17011 0
M  V30 5529 H 533.484 -1.87344 -4.59582 0
M  V30 5530 H 528.74 -3.12282 -5.25633 0
M  V30 5531 H 532.914 -4.00698 -5.69574 0
M  V30 5532 H 530.541 -4.6373 -6.02377 0
M  V30 5533 N 532.116 1.54067 -0.331816 0
M  V30 5534 C 533.364 2.00319 0.267739 0
M  V30 5535 C 533.685 1.22148 1.52003 0
M  V30 5536 O 532.955 0.325494 1.93177 0
M  V30 5537 H 531.535 0.740014 0.101922 0
M  V30 5538 H 534.197 1.89628 -0.450267 0
M  V30 5539 H 533.293 3.07765 0.518385 0
M  V30 5540 N 533.594 0.0601682 1.57485 0
M  V30 5541 C 534.871 -0.651956 1.84415 0
M  V30 5542 C 535.251 -1.88498 0.950361 0
M  V30 5543 O 534.599 -2.28496 0.0136719 0
M  V30 5544 C 534.809 -1.00069 3.34346 0
M  V30 5545 C 536.157 -1.37915 4.01578 0
M  V30 5546 O 537.181 -1.09277 3.39024 0
M  V30 5547 O 536.04 -1.91399 5.11887 0
M  V30 5548 H 533.134 -0.322668 0.761455 0
M  V30 5549 H 535.68 0.0902159 1.6946 0
M  V30 5550 H 534.452 -0.124463 3.91102 0
M  V30 5551 H 534.075 -1.80001 3.54521 0
M  V30 5552 N 535.072 -1.5615 -0.213296 0
M  V30 5553 C 536.349 -1.70349 -0.961281 0
M  V30 5554 C 536.729 -0.609791 -2.02101 0
M  V30 5555 O 536.077 0.381987 -2.25285 0
M  V30 5556 C 536.287 -3.11982 -1.56424 0
M  V30 5557 C 537.635 -3.71649 -2.05334 0
M  V30 5558 O 538.659 -3.14995 -1.66302 0
M  V30 5559 O 537.518 -4.71038 -2.77102 0
M  V30 5560 H 534.612 -0.694121 -0.449582 0
M  V30 5561 H 537.158 -1.68464 -0.204426 0
M  V30 5562 H 535.93 -3.83046 -0.799457 0
M  V30 5563 H 535.553 -3.18019 -2.38641 0
M  V30 5564 N 536.55 0.480323 -1.50102 0
M  V30 5565 C 537.796 1.23489 -1.60867 0
M  V30 5566 C 538.129 1.91809 -0.303827 0
M  V30 5567 O 537.404 1.81694 0.694092 0
M  V30 5568 C 537.687 2.28578 -2.78252 0
M  V30 5569 C 537.54 1.64624 -4.18592 0
M  V30 5570 C 538.859 3.2997 -2.91218 0
M  V30 5571 H 535.978 0.447605 -0.585507 0
M  V30 5572 H 538.62 0.530005 -1.82458 0
M  V30 5573 H 536.77 2.88697 -2.59974 0
M  V30 5574 H 538.442 1.08173 -4.48438 0
M  V30 5575 H 536.685 0.949645 -4.23278 0
M  V30 5576 H 537.356 2.40946 -4.96638 0
M  V30 5577 H 539.832 2.79864 -3.07921 0
M  V30 5578 H 538.708 4.00839 -3.74993 0
M  V30 5579 H 538.969 3.93541 -2.0144 0
M  V30 5580 N 538.028 1.39524 0.732853 0
M  V30 5581 C 539.305 1.27373 1.48444 0
M  V30 5582 C 539.685 -0.115725 2.10783 0
M  V30 5583 O 539.033 -1.12713 1.98766 0
M  V30 5584 C 539.243 2.39966 2.53412 0
M  V30 5585 C 540.591 2.79384 3.19733 0
M  V30 5586 O 541.615 2.39431 2.63725 0
M  V30 5587 O 540.474 3.48353 4.21085 0
M  V30 5588 H 537.568 0.499272 0.659285 0
M  V30 5589 H 540.114 1.51403 0.766496 0
M  V30 5590 H 538.886 3.32845 2.05742 0
M  V30 5591 H 538.509 2.17612 3.32762 0
M  V30 5592 N 539.506 -0.963266 1.24736 0
M  V30 5593 C 540.755 -1.70115 1.08369 0
M  V30 5594 C 541.068 -1.91939 -0.376688 0
M  V30 5595 O 542.274 -2.6334 -0.660624 0
M  V30 5596 C 540.73 -3.06218 1.89099 0
M  V30 5597 C 540.338 -2.92221 3.39574 0
M  V30 5598 C 542.082 -3.83848 1.81275 0
M  V30 5599 C 539.989 -4.23662 4.12631 0
M  V30 5600 H 538.919 -0.637944 0.401924 0
M  V30 5601 H 541.57 -1.07304 1.48856 0
M  V30 5602 H 539.952 -3.69884 1.41429 0
M  V30 5603 H 541.126 -2.37541 3.94856 0
M  V30 5604 H 539.441 -2.28054 3.48397 0
M  V30 5605 H 542.038 -4.81188 2.33158 0
M  V30 5606 H 542.381 -4.08949 0.778895 0
M  V30 5607 H 542.914 -3.26918 2.26649 0
M  V30 5608 H 539.653 -4.03753 5.16395 0
M  V30 5609 H 539.173 -4.78141 3.62135 0
M  V30 5610 H 540.852 -4.92256 4.19873 0
M  V30 5611 N 540.985 -1.06182 -1.16461 0
M  V30 5612 C 542.232 -0.777863 -1.86964 0
M  V30 5613 C 542.56 0.695602 -1.81636 0
M  V30 5614 O 541.815 1.52532 -1.22607 0
M  V30 5615 C 542.114 -1.21633 -3.36066 0
M  V30 5616 C 541.78 -2.69371 -3.61594 0
M  V30 5617 C 540.442 -3.09727 -3.6827 0
M  V30 5618 C 542.794 -3.64791 -3.7226 0
M  V30 5619 C 540.122 -4.44345 -3.83112 0
M  V30 5620 C 542.474 -4.99155 -3.88623 0
M  V30 5621 C 541.138 -5.39149 -3.93541 0
M  V30 5622 H 540.408 -0.28464 -0.68415 0
M  V30 5623 H 543.055 -1.33071 -1.37711 0
M  V30 5624 H 541.36 -0.582651 -3.87443 0
M  V30 5625 H 543.057 -0.973682 -3.88999 0
M  V30 5626 H 539.647 -2.37124 -3.57029 0
M  V30 5627 H 543.831 -3.34746 -3.66413 0
M  V30 5628 H 539.087 -4.74819 -3.85172 0
M  V30 5629 H 543.261 -5.72976 -3.95817 0
M  V30 5630 H 540.888 -6.43464 -4.04794 0
M  V30 5631 N 542.463 1.3308 -0.844243 0
M  V30 5632 C 543.426 2.27403 -0.286485 0
M  V30 5633 C 544.426 1.51179 0.547872 0
M  V30 5634 O 545.616 1.70421 0.360886 0
M  V30 5635 C 542.748 3.35653 0.595813 0
M  V30 5636 H 543.941 2.78248 -1.11885 0
M  V30 5637 H 541.494 1.43574 -0.617749 0
M  V30 5638 H 542.229 2.90058 1.4504 0
M  V30 5639 H 542.014 3.921 -0.00125994 0
M  V30 5640 H 543.504 4.05958 0.979168 0
M  V30 5641 N 543.941 0.601185 1.45683 0
M  V30 5642 C 544.851 -0.123395 2.34275 0
M  V30 5643 C 545.867 -0.86702 1.5086 0
M  V30 5644 O 547.043 -0.826049 1.8368 0
M  V30 5645 C 544.108 -1.11237 3.2837 0
M  V30 5646 C 543.169 -0.371405 4.2769 0
M  V30 5647 C 542.402 -1.31327 5.1729 0
M  V30 5648 O 542.625 -2.55078 5.10188 0
M  V30 5649 O 541.559 -0.813811 5.96373 0
M  V30 5650 H 545.385 0.604483 2.97623 0
M  V30 5651 H 542.97 0.361477 1.44961 0
M  V30 5652 H 544.852 -1.68214 3.8637 0
M  V30 5653 H 543.527 -1.82139 2.67595 0
M  V30 5654 H 542.434 0.24067 3.73325 0
M  V30 5655 H 543.767 0.296998 4.91303 0
M  V30 5656 N 545.419 -1.53889 0.339982 0
M  V30 5657 C 546.835 -1.59595 -0.0120752 0
M  V30 5658 C 547.035 -1.35605 -1.49042 0
M  V30 5659 O 546.091 -1.14856 -2.24865 0
M  V30 5660 C 547.404 -2.9774 0.420898 0
M  V30 5661 C 548.952 -3.1077 0.37294 0
M  V30 5662 C 549.427 -4.51286 0.781327 0
M  V30 5663 N 550.918 -4.57325 0.735374 0
M  V30 5664 C 551.653 -5.64194 1.02336 0
M  V30 5665 N 551.149 -6.7893 1.37933 0
M  V30 5666 N 552.942 -5.54051 0.947838 0
M  V30 5667 H 545.093 -1.67738 1.30299 0
M  V30 5668 H 547.356 -0.785385 0.530918 0
M  V30 5669 H 547.062 -3.20349 1.45152 0
M  V30 5670 H 546.936 -3.76639 -0.205721 0
M  V30 5671 H 549.323 -2.87886 -0.648505 0
M  V30 5672 H 549.404 -2.33939 1.03472 0
M  V30 5673 H 549.048 -4.74905 1.80077 0
M  V30 5674 H 548.978 -5.26511 0.0970679 0
M  V30 5675 H 551.469 -3.74931 0.472773 0
M  V30 5676 H 551.782 -7.56392 1.58402 0
M  V30 5677 H 550.127 -6.80386 1.41774 0
M  V30 5678 H 553.318 -4.63293 0.669115 0
M  V30 5679 H 553.491 -6.37246 1.17563 0
M  V30 5680 N 546.897 -0.0685191 -1.57451 0
M  V30 5681 C 547.827 0.89747 -2.15564 0
M  V30 5682 C 548.808 1.31266 -1.08181 0
M  V30 5683 O 549.993 1.38429 -1.36202 0
M  V30 5684 C 547.123 2.16623 -2.71463 0
M  V30 5685 C 546.077 1.89054 -3.83982 0
M  V30 5686 C 545.403 3.22532 -4.26471 0
M  V30 5687 C 546.703 1.1984 -5.08366 0
M  V30 5688 H 548.397 0.413373 -2.96533 0
M  V30 5689 H 545.943 0.197391 -1.42641 0
M  V30 5690 H 547.896 2.84614 -3.10761 0
M  V30 5691 H 546.62 2.67269 -1.8771 0
M  V30 5692 H 545.279 1.23469 -3.45183 0
M  V30 5693 H 544.927 3.71013 -3.39644 0
M  V30 5694 H 544.627 3.04879 -5.02317 0
M  V30 5695 H 546.151 3.91727 -4.68383 0
M  V30 5696 H 547.565 1.77896 -5.45001 0
M  V30 5697 H 545.962 1.12456 -5.89469 0
M  V30 5698 H 547.032 0.176996 -4.84577 0
M  V30 5699 N 548.375 1.56261 0.205012 0
M  V30 5700 C 549.6 1.84491 0.947512 0
M  V30 5701 C 550.025 0.650894 1.76479 0
M  V30 5702 O 549.383 -0.40035 1.76824 0
M  V30 5703 C 549.431 3.10863 1.82747 0
M  V30 5704 O 548.535 2.90719 2.925 0
M  V30 5705 H 547.876 0.607783 0.267386 0
M  V30 5706 H 550.406 2.03485 0.213323 0
M  V30 5707 H 550.416 3.41399 2.23407 0
M  V30 5708 H 549.091 3.97392 1.2269 0
M  V30 5709 H 547.668 2.71457 2.55667 0
M  V30 5710 N 549.853 -0.472356 1.50355 0
M  V30 5711 C 550.816 -1.5529 1.68576 0
M  V30 5712 C 551.816 -1.50863 0.556511 0
M  V30 5713 O 553.006 -1.53505 0.823516 0
M  V30 5714 C 550.138 -2.94921 1.70981 0
M  V30 5715 H 551.331 -1.40451 2.64978 0
M  V30 5716 H 548.884 -0.698645 1.39816 0
M  V30 5717 H 549.619 -3.15204 0.762675 0
M  V30 5718 H 549.404 -2.99541 2.53017 0
M  V30 5719 H 550.894 -3.73372 1.87037 0
M  V30 5720 N 551.331 -1.39911 -0.725443 0
M  V30 5721 C 552.241 -1.41688 -1.8698 0
M  V30 5722 C 553.257 -0.310579 -1.71206 0
M  V30 5723 O 554.433 -0.55359 -1.93642 0
M  V30 5724 C 551.498 -1.26811 -3.22676 0
M  V30 5725 C 550.559 -2.47497 -3.50776 0
M  V30 5726 C 549.792 -2.3332 -4.79997 0
M  V30 5727 O 550.015 -1.34175 -5.54394 0
M  V30 5728 O 548.949 -3.22498 -5.08211 0
M  V30 5729 H 552.775 -2.38171 -1.88436 0
M  V30 5730 H 550.36 -1.21128 -0.874548 0
M  V30 5731 H 552.242 -1.20684 -4.03749 0
M  V30 5732 H 550.917 -0.334289 -3.21969 0
M  V30 5733 H 549.824 -2.59201 -2.69751 0
M  V30 5734 H 551.157 -3.39606 -3.5627 0
M  V30 5735 N 552.809 0.956637 -1.25245 0
M  V30 5736 C 553.756 2.053 -1.05454 0
M  V30 5737 C 554.726 1.66062 0.0356889 0
M  V30 5738 O 555.911 1.90415 -0.121099 0
M  V30 5739 C 553.051 3.38391 -0.677191 0
M  V30 5740 C 552.164 3.90758 -1.84206 0
M  V30 5741 C 551.299 5.12165 -1.40926 0
M  V30 5742 C 550.338 5.56757 -2.54338 0
M  V30 5743 N 549.475 6.69376 -2.11848 0
M  V30 5744 H 554.315 2.21562 -1.99284 0
M  V30 5745 H 551.852 1.08578 -0.992434 0
M  V30 5746 H 553.81 4.1488 -0.43938 0
M  V30 5747 H 552.44 3.22021 0.224127 0
M  V30 5748 H 551.492 3.10808 -2.19323 0
M  V30 5749 H 552.804 4.19802 -2.69383 0
M  V30 5750 H 551.958 5.96065 -1.13098 0
M  V30 5751 H 550.697 4.84832 -0.528175 0
M  V30 5752 H 549.702 4.71423 -2.82913 0
M  V30 5753 H 550.927 5.861 -3.43022 0
M  V30 5754 H 548.873 6.43756 -1.26153 0
M  V30 5755 H 548.79 6.97927 -2.90574 0
M  V30 5756 H 550.058 7.5669 -1.87191 0
M  V30 5757 N 554.287 1.06798 1.15896 0
M  V30 5758 C 555.698 0.811355 1.68149 0
M  V30 5759 C 556.049 -0.664339 1.8461 0
M  V30 5760 O 555.174 -1.51485 1.54535 0
M  V30 5761 C 555.769 1.46624 3.05429 0
M  V30 5762 C 554.328 1.25726 3.54781 0
M  V30 5763 C 553.475 1.53949 2.3064 0
M  V30 5764 H 556.426 1.23078 1.00187 0
M  V30 5765 H 556.447 0.88437 3.7008 0
M  V30 5766 H 555.959 2.54025 2.93416 0
M  V30 5767 H 554.06 0.20322 3.72045 0
M  V30 5768 H 554.173 1.97354 4.36564 0
M  V30 5769 H 552.537 0.96025 2.35905 0
M  V30 5770 H 553.32 2.6252 2.2122 0
M  V30 5771 N 555.766 -1.3263 0.851289 0
M  V30 5772 C 557.014 -1.96978 0.452128 0
M  V30 5773 C 557.335 -1.67715 -0.99482 0
M  V30 5774 O 556.605 -0.98259 -1.69476 0
M  V30 5775 H 555.185 -0.72873 0.164202 0
M  V30 5776 H 557.847 -1.61774 1.08698 0
M  V30 5777 H 556.943 -3.06387 0.594407 0
M  V30 5778 N 557.244 -0.608902 -1.45362 0
M  V30 5779 C 558.474 -0.110852 -2.06302 0
M  V30 5780 C 558.882 1.21062 -1.45398 0
M  V30 5781 O 558.225 1.74861 -0.562976 0
M  V30 5782 C 558.287 0.101793 -3.59356 0
M  V30 5783 C 557.951 -1.13808 -4.42602 0
M  V30 5784 C 558.948 -2.05653 -4.77496 0
M  V30 5785 C 556.633 -1.36727 -4.83333 0
M  V30 5786 C 558.627 -3.18745 -5.51978 0
M  V30 5787 C 556.314 -2.5012 -5.57569 0
M  V30 5788 C 557.312 -3.40957 -5.91809 0
M  V30 5789 O 557 -4.52376 -6.64538 0
M  V30 5790 H 556.732 -0.0666001 -0.672711 0
M  V30 5791 H 559.286 -0.836942 -1.87575 0
M  V30 5792 H 557.516 0.88279 -3.76489 0
M  V30 5793 H 559.205 0.551607 -4.02134 0
M  V30 5794 H 559.971 -1.89172 -4.46586 0
M  V30 5795 H 555.85 -0.669216 -4.56117 0
M  V30 5796 H 559.394 -3.8967 -5.78622 0
M  V30 5797 H 555.291 -2.66553 -5.87894 0
M  V30 5798 H 556.059 -4.51075 -6.82989 0
M  V30 5799 N 558.722 1.53707 -0.348139 0
M  V30 5800 C 559.952 2.05108 0.247864 0
M  V30 5801 C 560.36 1.22252 1.44399 0
M  V30 5802 O 559.703 0.251853 1.81965 0
M  V30 5803 C 559.765 3.52171 0.722187 0
M  V30 5804 C 559.429 4.5562 -0.354902 0
M  V30 5805 C 560.426 5.05883 -1.19911 0
M  V30 5806 C 558.111 4.99703 -0.510145 0
M  V30 5807 C 560.105 5.98814 -2.18406 0
M  V30 5808 C 557.792 5.92443 -1.49848 0
M  V30 5809 C 558.79 6.41887 -2.33389 0
M  V30 5810 O 558.478 7.32802 -3.3054 0
M  V30 5811 H 558.21 0.674086 0.0508296 0
M  V30 5812 H 560.764 1.99229 -0.49968 0
M  V30 5813 H 558.994 3.55529 1.52105 0
M  V30 5814 H 560.683 3.8652 1.23925 0
M  V30 5815 H 561.449 4.72586 -1.09028 0
M  V30 5816 H 557.328 4.60816 0.130274 0
M  V30 5817 H 560.872 6.3733 -2.83649 0
M  V30 5818 H 556.769 6.25155 -1.60786 0
M  V30 5819 H 557.537 7.50749 -3.26064 0
M  V30 5820 N 560.2 0.0768682 1.57412 0
M  V30 5821 C 561.13 -0.886026 2.16037 0
M  V30 5822 C 562.111 -1.30691 1.08876 0
M  V30 5823 O 563.296 -1.37705 1.36934 0
M  V30 5824 C 560.426 -2.1518 2.72608 0
M  V30 5825 C 559.38 -1.87015 3.8498 0
M  V30 5826 C 558.706 -3.20266 4.28175 0
M  V30 5827 C 560.006 -1.17143 5.08994 0
M  V30 5828 H 561.7 -0.397642 2.96748 0
M  V30 5829 H 559.246 -0.189823 1.42743 0
M  V30 5830 H 561.199 -2.82962 3.12266 0
M  V30 5831 H 559.923 -2.66269 1.89125 0
M  V30 5832 H 558.582 -1.21636 3.45833 0
M  V30 5833 H 558.23 -3.69207 3.41607 0
M  V30 5834 H 557.93 -3.0221 5.03927 0
M  V30 5835 H 559.454 -3.89237 4.70454 0
M  V30 5836 H 560.868 -1.75003 5.45937 0
M  V30 5837 H 559.265 -1.09328 5.90057 0
M  V30 5838 H 560.335 -0.151295 4.84664 0
M  V30 5839 N 561.678 -1.56367 -0.196722 0
M  V30 5840 C 562.628 -1.9082 -1.24787 0
M  V30 5841 C 563.612 -0.773719 -1.41076 0
M  V30 5842 O 564.804 -1.03655 -1.43474 0
M  V30 5843 C 561.933 -2.24982 -2.59303 0
M  V30 5844 C 561.019 -3.44882 -2.46814 0
M  V30 5845 N 561.41 -4.62835 -2.04003 0
M  V30 5846 C 559.708 -3.48988 -2.77711 0
M  V30 5847 C 560.409 -5.44993 -2.03366 0
M  V30 5848 N 559.385 -4.85356 -2.44807 0
M  V30 5849 H 563.187 -2.79516 -0.908175 0
M  V30 5850 H 560.701 -1.57265 -0.405166 0
M  V30 5851 H 562.698 -2.47848 -3.35227 0
M  V30 5852 H 561.358 -1.37611 -2.94098 0
M  V30 5853 H 562.369 -4.87532 -1.74738 0
M  V30 5854 H 559.046 -2.72029 -3.16712 0
M  V30 5855 H 560.436 -6.49464 -1.72181 0
M  V30 5856 N 563.156 0.464375 -1.50603 0
M  V30 5857 C 564.104 1.58224 -1.70493 0
M  V30 5858 C 565.098 1.59492 -0.570836 0
M  V30 5859 O 566.304 1.63561 -0.751517 0
M  V30 5860 H 562.679 0.525161 -0.538247 0
M  V30 5861 H 564.65 1.38613 -2.64252 0
M  V30 5862 C 563.399 2.96113 -1.82243 0
M  V30 5863 H 562.722 2.95858 -2.68901 0
M  V30 5864 H 564.162 3.73769 -2.00182 0
M  V30 5865 C 562.621 3.31946 -0.575628 0
M  V30 5866 O 563.151 4.00708 0.282152 0
M  V30 5867 N 561.357 2.87436 -0.427665 0
M  V30 5868 H 560.904 2.31652 -1.12674 0
M  V30 5869 H 560.862 3.11776 0.405379 0
M  V30 5870 N 564.634 1.40294 0.718013 0
M  V30 5871 C 565.882 1.38167 1.47494 0
M  V30 5872 C 566.203 -0.01607 1.94993 0
M  V30 5873 O 565.473 -0.970396 1.70177 0
M  V30 5874 H 564.053 0.508505 0.547203 0
M  V30 5875 H 566.715 1.75324 0.851322 0
M  V30 5876 H 565.811 2.05503 2.34894 0
M  V30 5877 N 566.112 -0.949982 1.2575 0
M  V30 5878 C 567.059 -2.04738 1.06541 0
M  V30 5879 C 568.029 -1.66078 -0.0268818 0
M  V30 5880 O 569.214 -1.90348 0.131196 0
M  V30 5881 C 566.354 -3.38027 0.695127 0
M  V30 5882 C 565.467 -3.89776 1.86276 0
M  V30 5883 C 564.602 -5.11411 1.4364 0
M  V30 5884 C 563.641 -5.554 2.57287 0
M  V30 5885 N 562.778 -6.68244 2.15395 0
M  V30 5886 H 567.618 -2.20502 2.00457 0
M  V30 5887 H 565.155 -1.0805 0.998178 0
M  V30 5888 H 567.113 -4.14641 0.461375 0
M  V30 5889 H 565.743 -3.22135 -0.207046 0
M  V30 5890 H 564.795 -3.0964 2.20969 0
M  V30 5891 H 566.107 -4.18368 2.71606 0
M  V30 5892 H 565.261 -5.95457 1.16257 0
M  V30 5893 H 564 -4.84545 0.553879 0
M  V30 5894 H 563.005 -4.69916 2.85409 0
M  V30 5895 H 564.23 -5.84272 3.46125 0
M  V30 5896 H 562.176 -6.43078 1.29565 0
M  V30 5897 H 562.093 -6.96377 2.94272 0
M  V30 5898 H 563.361 -7.55687 1.91201 0
M  V30 5899 N 567.59 -1.07411 -1.15328 0
M  V30 5900 C 568.836 -0.808666 -1.86634 0
M  V30 5901 C 569.191 0.65816 -1.80793 0
M  V30 5902 O 568.484 1.47689 -1.22059 0
M  V30 5903 C 568.678 -1.25191 -3.34757 0
M  V30 5904 C 568.507 -2.76028 -3.55019 0
M  V30 5905 C 567.277 -3.43644 -3.70455 0
M  V30 5906 C 569.475 -3.74224 -3.5279 0
M  V30 5907 N 567.457 -4.83117 -3.78776 0
M  V30 5908 C 568.828 -4.9954 -3.67233 0
M  V30 5909 C 570.883 -3.67373 -3.36068 0
M  V30 5910 C 569.586 -6.18819 -3.66682 0
M  V30 5911 C 571.612 -4.86116 -3.36816 0
M  V30 5912 C 570.974 -6.10266 -3.51789 0
M  V30 5913 H 567.073 -0.348478 -0.700062 0
M  V30 5914 H 569.657 -1.37049 -1.38295 0
M  V30 5915 H 567.828 -0.717775 -3.8171 0
M  V30 5916 H 569.56 -0.933936 -3.93776 0
M  V30 5917 H 566.315 -2.94051 -3.71256 0
M  V30 5918 H 566.739 -5.55705 -3.86679 0
M  V30 5919 H 571.381 -2.72334 -3.2341 0
M  V30 5920 H 569.099 -7.14179 -3.78118 0
M  V30 5921 H 572.685 -4.82492 -3.25103 0
M  V30 5922 H 571.565 -7.00609 -3.52301 0
M  V30 5923 N 569.068 1.32177 -0.85831 0
M  V30 5924 C 570.314 1.97417 -0.46417 0
M  V30 5925 C 570.647 1.67746 0.978514 0
M  V30 5926 O 569.922 0.967654 1.68721 0
M  V30 5927 C 570.205 3.53069 -0.708094 0
M  V30 5928 C 570.058 3.92357 -2.19946 0
M  V30 5929 C 571.377 4.39783 -0.166881 0
M  V30 5930 H 568.496 0.717097 -0.17012 0
M  V30 5931 H 571.138 1.56499 -1.07741 0
M  V30 5932 H 569.288 3.88054 -0.186128 0
M  V30 5933 H 570.96 3.67533 -2.78779 0
M  V30 5934 H 569.203 3.41384 -2.67656 0
M  V30 5935 H 569.874 5.00841 -2.32082 0
M  V30 5936 H 572.35 4.11556 -0.613285 0
M  V30 5937 H 571.226 5.47671 -0.367093 0
M  V30 5938 H 571.487 4.32196 0.930559 0
M  V30 5939 N 570.547 0.616602 1.45037 0
M  V30 5940 C 571.494 -0.0969439 2.30596 0
M  V30 5941 C 572.464 -0.851151 1.42635 0
M  V30 5942 O 573.649 -0.835092 1.71554 0
M  V30 5943 C 570.789 -1.08234 3.27688 0
M  V30 5944 C 569.902 -0.328072 4.30752 0
M  V30 5945 C 569.037 -1.30399 5.14946 0
M  V30 5946 C 568.076 -0.538049 6.09731 0
M  V30 5947 N 567.213 -1.46371 6.86673 0
M  V30 5948 H 572.053 0.63864 2.91076 0
M  V30 5949 H 569.59 0.326733 1.43425 0
M  V30 5950 H 571.548 -1.66688 3.82454 0
M  V30 5951 H 570.178 -1.78523 2.68941 0
M  V30 5952 H 569.23 0.372136 3.78575 0
M  V30 5953 H 570.542 0.269142 4.98073 0
M  V30 5954 H 569.696 -1.96032 5.74157 0
M  V30 5955 H 568.435 -1.93514 4.47665 0
M  V30 5956 H 567.44 0.131852 5.49642 0
M  V30 5957 H 568.665 0.0881732 6.79043 0
M  V30 5958 H 566.611 -2.08233 6.22073 0
M  V30 5959 H 566.528 -0.920152 7.50379 0
M  V30 5960 H 567.796 -2.10932 7.50418 0
M  V30 5961 N 572.025 -1.5352 0.356285 0
M  V30 5962 C 572.958 -2.2177 -0.537913 0
M  V30 5963 C 573.936 -1.20626 -1.09033 0
M  V30 5964 O 575.12 -1.49494 -1.1482 0
M  V30 5965 C 572.247 -2.90513 -1.74126 0
M  V30 5966 C 571.293 -4.05652 -1.31715 0
M  V30 5967 S 572.126 -5.34505 -0.326236 0
M  V30 5968 C 573.282 -6.06757 -1.53612 0
M  V30 5969 H 573.515 -2.97271 0.0417411 0
M  V30 5970 H 571.048 -1.53761 0.140372 0
M  V30 5971 H 573.006 -3.30735 -2.43155 0
M  V30 5972 H 571.667 -2.14754 -2.29215 0
M  V30 5973 H 570.86 -4.52733 -2.21471 0
M  V30 5974 H 570.462 -3.67272 -0.706183 0
M  V30 5975 H 572.754 -6.30924 -2.46863 0
M  V30 5976 H 573.697 -6.99395 -1.10687 0
M  V30 5977 H 574.105 -5.3708 -1.73796 0
M  V30 5978 N 573.503 -0.0852151 -1.57369 0
M  V30 5979 C 574.433 0.874556 -2.16503 0
M  V30 5980 C 575.414 1.30111 -1.09568 0
M  V30 5981 O 576.599 1.36977 -1.37662 0
M  V30 5982 C 573.729 2.13731 -2.73745 0
M  V30 5983 C 572.683 1.84971 -3.85966 0
M  V30 5984 C 572.009 3.17991 -4.29867 0
M  V30 5985 C 573.309 1.14442 -5.09608 0
M  V30 5986 H 575.003 0.381899 -2.96954 0
M  V30 5987 H 572.549 0.18225 -1.42842 0
M  V30 5988 H 574.502 2.81302 -3.13763 0
M  V30 5989 H 573.226 2.65263 -1.90534 0
M  V30 5990 H 571.885 1.19801 -3.46473 0
M  V30 5991 H 571.533 3.6739 -3.4356 0
M  V30 5992 H 571.233 2.99534 -5.05523 0
M  V30 5993 H 572.757 3.86737 -4.72511 0
M  V30 5994 H 574.171 1.72105 -5.46857 0
M  V30 5995 H 572.568 1.06197 -5.90629 0
M  V30 5996 H 573.638 0.12559 -4.84737 0
M  V30 5997 N 574.981 1.5647 0.188427 0
M  V30 5998 C 576.206 1.85486 0.927891 0
M  V30 5999 C 576.631 0.669575 1.75779 0
M  V30 6000 O 575.989 -0.381573 1.77239 0
M  V30 6001 C 576.037 3.12784 1.7944 0
M  V30 6002 O 575.141 2.93805 2.894 0
M  V30 6003 H 574.482 0.610585 0.260925 0
M  V30 6004 H 577.012 2.037 0.191729 0
M  V30 6005 H 577.022 3.43749 2.19774 0
M  V30 6006 H 575.697 3.98671 1.18468 0
M  V30 6007 H 574.274 2.74153 2.52774 0
M  V30 6008 N 576.459 -0.456382 1.50847 0
M  V30 6009 C 577.875 -0.791345 1.386 0
M  V30 6010 C 578.075 -1.9633 0.453498 0
M  V30 6011 O 577.131 -2.52308 -0.0984353 0
M  V30 6012 C 578.444 -1.08959 2.80265 0
M  V30 6013 C 579.992 -1.19517 2.89283 0
M  V30 6014 C 580.467 -1.52647 4.31814 0
M  V30 6015 N 581.958 -1.59609 4.34832 0
M  V30 6016 C 582.693 -1.86777 5.42127 0
M  V30 6017 N 582.189 -2.11866 6.59609 0
M  V30 6018 N 583.982 -1.88402 5.29586 0
M  V30 6019 H 576.133 0.315746 2.1004 0
M  V30 6020 H 578.396 0.0787916 0.94472 0
M  V30 6021 H 578.102 -0.301355 3.50407 0
M  V30 6022 H 577.976 -2.02211 3.18419 0
M  V30 6023 H 580.363 -1.97406 2.19351 0
M  V30 6024 H 580.444 -0.242111 2.54652 0
M  V30 6025 H 580.088 -0.752922 5.02288 0
M  V30 6026 H 580.018 -2.49127 4.63943 0
M  V30 6027 H 582.509 -1.42201 3.50125 0
M  V30 6028 H 582.822 -2.31912 7.37182 0
M  V30 6029 H 581.167 -2.09228 6.62758 0
M  V30 6030 H 584.358 -1.68307 4.36795 0
M  V30 6031 H 584.531 -2.09238 6.13289 0
M  V30 6032 N 577.937 -1.40673 -0.710563 0
M  V30 6033 C 578.847 -1.43663 -1.85467 0
M  V30 6034 C 579.863 -0.328721 -1.70867 0
M  V30 6035 O 581.039 -0.574098 -1.93044 0
M  V30 6036 C 578.104 -1.30226 -3.21313 0
M  V30 6037 C 577.165 -2.51204 -3.48131 0
M  V30 6038 C 576.398 -2.38398 -4.77495 0
M  V30 6039 O 576.621 -1.40048 -5.5294 0
M  V30 6040 O 575.555 -3.2787 -5.04762 0
M  V30 6041 H 579.381 -2.40156 -1.859 0
M  V30 6042 H 576.966 -1.22049 -0.861652 0
M  V30 6043 H 578.848 -1.2496 -4.02446 0
M  V30 6044 H 577.523 -0.368419 -3.21597 0
M  V30 6045 H 576.43 -2.62048 -2.66987 0
M  V30 6046 H 577.763 -3.43366 -3.52648 0
M  V30 6047 N 579.415 0.9433 -1.26252 0
M  V30 6048 C 580.325 2.07532 -1.09397 0
M  V30 6049 C 581.341 1.73977 -0.0280449 0
M  V30 6050 O 582.517 2.00067 -0.231337 0
M  V30 6051 C 579.582 3.39002 -0.726523 0
M  V30 6052 C 578.643 3.86353 -1.87163 0
M  V30 6053 C 577.876 5.11549 -1.52162 0
M  V30 6054 O 578.099 5.68834 -0.422385 0
M  V30 6055 O 577.033 5.53889 -2.35565 0
M  V30 6056 H 580.859 2.24658 -2.04359 0
M  V30 6057 H 578.444 1.05988 -1.05295 0
M  V30 6058 H 580.326 4.18 -0.534236 0
M  V30 6059 H 579.001 3.2312 0.193721 0
M  V30 6060 H 577.908 3.0831 -2.11886 0
M  V30 6061 H 579.241 4.06752 -2.77152 0
M  V30 6062 N 580.893 1.08022 1.14757 0
M  V30 6063 C 582.121 0.828847 1.89572 0
M  V30 6064 C 582.536 -0.618621 1.78377 0
M  V30 6065 O 581.893 -1.42482 1.1404 0
M  V30 6066 C 581.944 1.23677 3.39685 0
M  V30 6067 O 581.665 2.62746 3.50566 0
M  V30 6068 C 583.166 1.01569 4.31507 0
M  V30 6069 H 580.386 0.299196 0.600602 0
M  V30 6070 H 582.93 1.43846 1.45357 0
M  V30 6071 H 581.085 0.671347 3.81539 0
M  V30 6072 H 581.499 2.79573 4.43778 0
M  V30 6073 H 582.973 1.35055 5.35223 0
M  V30 6074 H 583.45 -0.0475433 4.39174 0
M  V30 6075 H 584.056 1.56636 3.95405 0
M  V30 6076 N 582.371 -1.3172 0.865308 0
M  V30 6077 C 583.62 -1.96145 0.470098 0
M  V30 6078 C 583.933 -1.69182 -0.981674 0
M  V30 6079 O 585.139 -2.27431 -1.48281 0
M  V30 6080 C 583.595 -3.51129 0.789732 0
M  V30 6081 C 583.203 -3.86938 2.25795 0
M  V30 6082 C 584.947 -4.2197 0.462765 0
M  V30 6083 C 582.854 -5.35012 2.52024 0
M  V30 6084 H 581.784 -0.734105 0.172065 0
M  V30 6085 H 584.435 -1.49959 1.05757 0
M  V30 6086 H 582.817 -3.95781 0.131571 0
M  V30 6087 H 583.991 -3.5326 2.95879 0
M  V30 6088 H 582.306 -3.29149 2.55049 0
M  V30 6089 H 584.903 -5.30904 0.636019 0
M  V30 6090 H 585.246 -4.12005 -0.59645 0
M  V30 6091 H 585.779 -3.82936 1.07727 0
M  V30 6092 H 582.518 -5.50008 3.56611 0
M  V30 6093 H 582.038 -5.70058 1.8653 0
M  V30 6094 H 583.717 -6.0222 2.36515 0
M  V30 6095 N 583.85 -0.624285 -1.44708 0
M  V30 6096 C 585.077 -0.132919 -2.06473 0
M  V30 6097 C 585.493 1.18967 -1.46602 0
M  V30 6098 O 584.85 1.72824 -0.586341 0
M  V30 6099 C 584.901 -0.00465418 -3.615 0
M  V30 6100 O 584.622 -1.27494 -4.19138 0
M  V30 6101 C 586.123 0.516213 -4.40284 0
M  V30 6102 H 583.343 -0.0765201 -0.666623 0
M  V30 6103 H 585.887 -0.856751 -1.85688 0
M  V30 6104 H 584.042 0.669583 -3.8157 0
M  V30 6105 H 584.456 -1.11536 -5.12504 0
M  V30 6106 H 585.93 0.554994 -5.49203 0
M  V30 6107 H 586.407 1.5419 -4.11245 0
M  V30 6108 H 587.013 -0.124542 -4.25118 0
M  V30 6109 N 585.328 1.53329 -0.364422 0
M  V30 6110 C 586.574 2.01537 0.225969 0
M  V30 6111 C 586.907 1.25128 1.48515 0
M  V30 6112 O 586.182 0.344653 1.91422 0
M  V30 6113 C 586.465 3.56339 0.519092 0
M  V30 6114 C 586.318 4.43441 -0.753639 0
M  V30 6115 C 587.637 4.19833 1.32015 0
M  V30 6116 H 584.756 0.732573 0.0806548 0
M  V30 6117 H 587.398 1.83597 -0.489084 0
M  V30 6118 H 585.548 3.71756 1.12825 0
M  V30 6119 H 587.22 4.39823 -1.39116 0
M  V30 6120 H 585.463 4.11457 -1.37424 0
M  V30 6121 H 586.134 5.49699 -0.503517 0
M  V30 6122 H 588.61 4.08242 0.804859 0
M  V30 6123 H 587.486 5.28177 1.49399 0
M  V30 6124 H 587.747 3.75821 2.32832 0
M  V30 6125 N 586.806 0.0935595 1.57322 0
M  V30 6126 C 587.753 -0.865935 2.1394 0
M  V30 6127 C 588.723 -1.28083 1.05754 0
M  V30 6128 O 589.908 -1.36285 1.33533 0
M  V30 6129 C 587.048 -2.12023 2.72287 0
M  V30 6130 C 586.161 -1.756 3.94701 0
M  V30 6131 C 585.296 -2.95804 4.41218 0
M  V30 6132 C 584.335 -2.555 5.56225 0
M  V30 6133 N 583.472 -3.68534 5.97601 0
M  V30 6134 H 588.312 -0.376261 2.95615 0
M  V30 6135 H 585.849 -0.174052 1.46067 0
M  V30 6136 H 587.807 -2.85477 3.04235 0
M  V30 6137 H 586.437 -2.58492 1.93343 0
M  V30 6138 H 585.489 -0.921208 3.69077 0
M  V30 6139 H 586.801 -1.41964 4.78171 0
M  V30 6140 H 585.955 -3.77513 4.74941 0
M  V30 6141 H 584.694 -3.32649 3.56645 0
M  V30 6142 H 583.699 -1.72218 5.22131 0
M  V30 6143 H 584.924 -2.19801 6.42545 0
M  V30 6144 H 582.87 -4.051 5.15974 0
M  V30 6145 H 582.787 -3.38737 6.75865 0
M  V30 6146 H 584.055 -4.50757 6.35955 0
M  V30 6147 N 588.284 -1.56567 -0.180126 0
M  V30 6148 C 589.232 -1.96632 -1.24251 0
M  V30 6149 C 590.226 -0.853818 -1.46309 0
M  V30 6150 O 591.432 -1.0389 -1.46993 0
M  V30 6151 H 587.807 -0.625476 -0.417473 0
M  V30 6152 H 589.778 -2.85201 -0.877679 0
M  V30 6153 C 588.527 -2.33486 -2.57642 0
M  V30 6154 H 587.85 -3.18626 -2.4149 0
M  V30 6155 H 589.29 -2.65371 -3.30688 0
M  V30 6156 C 587.749 -1.17499 -3.15746 0
M  V30 6157 O 588.279 -0.457956 -3.99081 0
M  V30 6158 N 586.485 -0.94786 -2.74707 0
M  V30 6159 H 586.032 -1.53269 -2.07042 0
M  V30 6160 H 585.99 -0.173626 -3.1392 0
M  V30 6161 N 589.762 0.448376 -1.51087 0
M  V30 6162 C 591.01 1.19635 -1.62886 0
M  V30 6163 C 591.331 1.91977 -0.342024 0
M  V30 6164 O 590.601 1.85094 0.641636 0
M  V30 6165 H 589.181 0.444598 -0.600285 0
M  V30 6166 H 591.843 0.515138 -1.87969 0
M  V30 6167 H 590.939 1.93194 -2.45117 0
M  V30 6168 N 591.24 1.41047 0.703093 0
M  V30 6169 C 592.172 1.38228 1.82827 0
M  V30 6170 C 593.185 0.285637 1.60275 0
M  V30 6171 O 594.374 0.54685 1.69917 0
M  V30 6172 C 591.474 1.13136 3.19458 0
M  V30 6173 C 590.647 2.34695 3.69103 0
M  V30 6174 C 589.706 2.05574 4.84382 0
M  V30 6175 O 588.732 2.78549 4.96386 0
M  V30 6176 N 589.934 1.04135 5.71083 0
M  V30 6177 H 592.699 2.35203 1.85741 0
M  V30 6178 H 590.26 1.35562 0.885125 0
M  V30 6179 H 592.252 0.916183 3.94193 0
M  V30 6180 H 590.822 0.247836 3.11616 0
M  V30 6181 H 590.042 2.71963 2.85359 0
M  V30 6182 H 591.33 3.15705 3.99009 0
M  V30 6183 H 590.728 0.43722 5.64008 0
M  V30 6184 H 589.285 0.886078 6.45749 0
M  V30 6185 N 592.718 -0.936591 1.26751 0
M  V30 6186 C 593.681 -2.01752 1.08761 0
M  V30 6187 C 594.681 -1.60763 0.0344435 0
M  V30 6188 O 595.871 -1.71963 0.278258 0
M  V30 6189 C 593.003 -3.34543 0.655271 0
M  V30 6190 H 594.196 -2.19143 2.04735 0
M  V30 6191 H 591.749 -1.11618 1.09413 0
M  V30 6192 H 592.484 -3.22851 -0.30626 0
M  V30 6193 H 592.269 -3.65647 1.41578 0
M  V30 6194 H 593.759 -4.13944 0.551378 0
M  V30 6195 N 594.196 -1.08629 -1.14182 0
M  V30 6196 C 595.106 -0.730126 -2.22949 0
M  V30 6197 C 596.122 0.26436 -1.7198 0
M  V30 6198 O 597.298 0.107742 -2.01112 0
M  V30 6199 C 594.363 -0.147227 -3.46387 0
M  V30 6200 C 593.424 -1.19662 -4.12286 0
M  V30 6201 C 592.657 -0.641437 -5.29831 0
M  V30 6202 O 592.88 0.538351 -5.67854 0
M  V30 6203 O 591.814 -1.39257 -5.85569 0
M  V30 6204 H 595.64 -1.63753 -2.55771 0
M  V30 6205 H 593.225 -0.860118 -1.22157 0
M  V30 6206 H 595.107 0.174923 -4.21037 0
M  V30 6207 H 593.782 0.733304 -3.15285 0
M  V30 6208 H 592.689 -1.57133 -3.395 0
M  V30 6209 H 594.022 -2.0495 -4.475 0
M  V30 6210 N 595.674 1.31259 -0.872281 0
M  V30 6211 C 596.902 2.00795 -0.498907 0
M  V30 6212 C 597.317 1.65464 0.909238 0
M  V30 6213 O 596.674 0.885073 1.59602 0
M  V30 6214 C 596.725 3.55625 -0.649092 0
M  V30 6215 O 596.446 3.89692 -2.00179 0
M  V30 6216 C 597.947 4.42434 -0.277034 0
M  V30 6217 H 595.167 0.642299 -0.194145 0
M  V30 6218 H 597.711 1.67438 -1.17408 0
M  V30 6219 H 595.866 3.87394 -0.0214402 0
M  V30 6220 H 596.28 4.84407 -2.01122 0
M  V30 6221 H 597.754 5.50299 -0.433064 0
M  V30 6222 H 598.231 4.32146 0.783989 0
M  V30 6223 H 598.837 4.16086 -0.880483 0
M  V30 6224 N 597.152 0.631951 1.44375 0
M  V30 6225 C 598.399 0.136767 2.02038 0
M  V30 6226 C 598.727 -1.24168 1.49709 0
M  V30 6227 O 597.982 -1.83809 0.671763 0
M  V30 6228 C 598.281 0.0735861 3.57324 0
M  V30 6229 C 597.947 1.39092 4.28911 0
M  V30 6230 C 596.609 1.75171 4.48184 0
M  V30 6231 C 598.961 2.26042 4.69632 0
M  V30 6232 C 596.289 2.97907 5.05439 0
M  V30 6233 C 598.641 3.4805 5.28246 0
M  V30 6234 C 597.305 3.84351 5.45738 0
M  V30 6235 H 596.575 0.0500466 0.739308 0
M  V30 6236 H 599.222 0.818429 1.7313 0
M  V30 6237 H 597.527 -0.691449 3.8565 0
M  V30 6238 H 599.224 -0.326091 3.99672 0
M  V30 6239 H 595.814 1.10015 4.1424 0
M  V30 6240 H 599.998 1.99463 4.54454 0
M  V30 6241 H 595.254 3.26108 5.17169 0
M  V30 6242 H 599.428 4.15658 5.5875 0
M  V30 6243 H 597.055 4.79538 5.8987 0
M  V30 6244 N 598.631 -1.53133 0.372548 0
M  V30 6245 C 599.859 -2.05774 -0.215515 0
M  V30 6246 C 600.274 -1.24555 -1.41886 0
M  V30 6247 O 599.631 -0.287951 -1.80214 0
M  V30 6248 C 599.682 -3.5645 -0.602161 0
M  V30 6249 O 599.403 -4.34591 0.553359 0
M  V30 6250 C 600.904 -4.25374 -1.24787 0
M  V30 6251 H 598.124 -0.670009 -0.0364529 0
M  V30 6252 H 600.668 -1.97434 0.532934 0
M  V30 6253 H 598.823 -3.64918 -1.30052 0
M  V30 6254 H 599.237 -5.23954 0.239336 0
M  V30 6255 H 600.711 -5.32097 -1.46891 0
M  V30 6256 H 601.188 -3.79531 -2.21026 0
M  V30 6257 H 601.794 -4.21177 -0.590752 0
M  V30 6258 N 600.109 -0.101901 -1.5727 0
M  V30 6259 C 601.355 0.561027 -1.94885 0
M  V30 6260 C 601.688 1.6741 -0.984258 0
M  V30 6261 O 600.963 1.94491 -0.0184767 0
M  V30 6262 C 601.246 1.10982 -3.42571 0
M  V30 6263 C 601.099 0.00133418 -4.498 0
M  V30 6264 C 602.418 2.00608 -3.9172 0
M  V30 6265 H 599.537 0.202467 -0.708644 0
M  V30 6266 H 602.179 -0.173992 -1.89202 0
M  V30 6267 H 600.329 1.73621 -3.47546 0
M  V30 6268 H 602.001 -0.63322 -4.56933 0
M  V30 6269 H 600.244 -0.664143 -4.28686 0
M  V30 6270 H 600.915 0.426253 -5.50352 0
M  V30 6271 H 603.391 1.47864 -3.88941 0
M  V30 6272 H 602.267 2.3593 -4.95609 0
M  V30 6273 H 602.528 2.92608 -3.3141 0
M  V30 6274 N 601.587 1.56661 0.17182 0
M  V30 6275 C 602.833 1.8313 0.88516 0
M  V30 6276 C 603.188 0.682376 1.79893 0
M  V30 6277 O 602.481 -0.321215 1.88888 0
M  V30 6278 C 602.675 3.13435 1.71736 0
M  V30 6279 C 602.504 4.40892 0.885659 0
M  V30 6280 C 601.274 5.02177 0.560939 0
M  V30 6281 C 603.472 5.13797 0.227454 0
M  V30 6282 N 601.454 6.13229 -0.286953 0
M  V30 6283 C 602.825 6.18127 -0.481625 0
M  V30 6284 C 604.88 4.97687 0.145567 0
M  V30 6285 C 603.583 7.08092 -1.26482 0
M  V30 6286 C 605.609 5.88096 -0.624298 0
M  V30 6287 C 604.971 6.91888 -1.32174 0
M  V30 6288 H 601.07 0.721107 0.302536 0
M  V30 6289 H 603.654 1.94104 0.152178 0
M  V30 6290 H 601.825 3.03653 2.42176 0
M  V30 6291 H 603.557 3.27903 2.37196 0
M  V30 6292 H 600.312 4.65145 0.890902 0
M  V30 6293 H 600.736 6.73359 -0.701193 0
M  V30 6294 H 605.378 4.17451 0.670426 0
M  V30 6295 H 603.096 7.87774 -1.80103 0
M  V30 6296 H 606.682 5.77702 -0.689321 0
M  V30 6297 H 605.562 7.60637 -1.90791 0
M  V30 6298 N 603.065 -0.440357 1.51323 0
M  V30 6299 C 604.481 -0.7766 1.39431 0
M  V30 6300 C 604.681 -1.95838 0.474296 0
M  V30 6301 O 603.737 -2.52398 -0.0716692 0
M  V30 6302 C 605.05 -1.05981 2.81405 0
M  V30 6303 C 606.598 -1.16442 2.90534 0
M  V30 6304 C 607.073 -1.48058 4.33408 0
M  V30 6305 N 608.564 -1.54988 4.36501 0
M  V30 6306 C 609.299 -1.81017 5.44078 0
M  V30 6307 N 608.795 -2.04858 6.61819 0
M  V30 6308 N 610.588 -1.82774 5.31554 0
M  V30 6309 H 602.739 0.338006 2.09693 0
M  V30 6310 H 605.002 0.0888072 0.943831 0
M  V30 6311 H 604.708 -0.264173 3.50706 0
M  V30 6312 H 604.582 -1.98822 3.20546 0
M  V30 6313 H 606.969 -1.95068 2.21432 0
M  V30 6314 H 607.05 -0.215088 2.54894 0
M  V30 6315 H 606.694 -0.699605 5.03059 0
M  V30 6316 H 606.624 -2.44192 4.66559 0
M  V30 6317 H 609.115 -1.38479 3.51613 0
M  V30 6318 H 609.428 -2.2408 7.396 0
M  V30 6319 H 607.773 -2.02187 6.6494 0
M  V30 6320 H 610.964 -1.63665 4.38556 0
M  V30 6321 H 611.137 -2.02722 6.15474 0
M  V30 6322 N 604.543 -1.41418 -0.695603 0
M  V30 6323 C 605.771 -1.4413 -1.48439 0
M  V30 6324 C 606.186 -0.0465698 -1.88743 0
M  V30 6325 O 605.543 0.934117 -1.56782 0
M  V30 6326 C 605.594 -2.34998 -2.74696 0
M  V30 6327 O 605.315 -3.69043 -2.36091 0
M  V30 6328 C 606.816 -2.46513 -3.68438 0
M  V30 6329 H 604.036 -0.490905 -0.457442 0
M  V30 6330 H 606.58 -1.85702 -0.856454 0
M  V30 6331 H 604.735 -1.96735 -3.33728 0
M  V30 6332 H 605.149 -4.17505 -3.17474 0
M  V30 6333 H 606.623 -3.1426 -4.53811 0
M  V30 6334 H 607.1 -1.49638 -4.12922 0
M  V30 6335 H 607.706 -2.85412 -3.1531 0
M  V30 6336 N 606.021 0.929856 -1.27246 0
M  V30 6337 C 607.267 1.6798 -1.13625 0
M  V30 6338 C 607.6 1.91586 0.317589 0
M  V30 6339 O 606.875 1.50467 1.23247 0
M  V30 6340 C 607.158 3.04766 -1.91806 0
M  V30 6341 C 607.011 2.88415 -3.45162 0
M  V30 6342 C 608.33 4.05063 -1.72082 0
M  V30 6343 H 605.449 0.609632 -0.414147 0
M  V30 6344 H 608.091 1.0792 -1.56376 0
M  V30 6345 H 606.241 3.56034 -1.55474 0
M  V30 6346 H 607.913 2.44282 -3.91311 0
M  V30 6347 H 606.156 2.23802 -3.71611 0
M  V30 6348 H 606.827 3.85482 -3.95105 0
M  V30 6349 H 609.303 3.62798 -2.03757 0
M  V30 6350 H 608.179 4.98765 -2.29182 0
M  V30 6351 H 608.44 4.37021 -0.668206 0
M  V30 6352 N 607.499 1.09233 1.13605 0
M  V30 6353 C 608.449 0.6994 2.17008 0
M  V30 6354 C 609.433 -0.285238 1.58352 0
M  V30 6355 O 610.625 -0.09592 1.7674 0
M  V30 6356 C 607.754 0.11938 3.43092 0
M  V30 6357 C 606.84 1.13031 4.0876 0
M  V30 6358 N 607.231 2.31673 4.49623 0
M  V30 6359 C 605.529 0.967999 4.35369 0
M  V30 6360 C 606.23 2.95964 5.00779 0
M  V30 6361 N 605.206 2.23534 4.95513 0
M  V30 6362 H 609.008 1.60272 2.46354 0
M  V30 6363 H 606.522 0.968257 1.30378 0
M  V30 6364 H 608.519 -0.180122 4.16511 0
M  V30 6365 H 607.179 -0.778816 3.15221 0
M  V30 6366 H 608.19 2.69277 4.42391 0
M  V30 6367 H 604.867 0.124319 4.17315 0
M  V30 6368 H 606.257 3.96813 5.42208 0
M  V30 6369 N 608.977 -1.30795 0.87923 0
M  V30 6370 C 610.225 -1.95974 0.493809 0
M  V30 6371 C 610.546 -1.69787 -0.959021 0
M  V30 6372 O 609.816 -1.01832 -1.67353 0
M  V30 6373 H 608.396 -0.725083 0.179622 0
M  V30 6374 H 611.058 -1.59432 1.12105 0
M  V30 6375 H 610.154 -3.05058 0.659263 0
M  V30 6376 N 610.455 -0.639598 -1.44038 0
M  V30 6377 C 611.403 0.0723409 -2.32487 0
M  V30 6378 C 612.397 0.827129 -1.47834 0
M  V30 6379 O 613.603 0.73907 -1.64127 0
M  V30 6380 H 609.978 0.0421696 -0.750817 0
M  V30 6381 H 611.949 -0.691593 -2.90275 0
M  V30 6382 C 610.698 1.03452 -3.31953 0
M  V30 6383 H 610.021 0.46315 -3.97108 0
M  V30 6384 H 611.461 1.502 -3.96505 0
M  V30 6385 C 609.92 2.12392 -2.61518 0
M  V30 6386 O 610.45 3.2059 -2.42044 0
M  V30 6387 N 608.656 1.88563 -2.21116 0
M  V30 6388 H 608.203 1.00577 -2.37154 0
M  V30 6389 H 608.161 2.61651 -1.74316 0
M  V30 6390 N 611.933 1.52934 -0.380664 0
M  V30 6391 C 613.182 2.00651 0.205477 0
M  V30 6392 C 613.495 1.27164 1.48623 0
M  V30 6393 O 614.701 1.65547 2.15189 0
M  V30 6394 C 613.157 3.57479 0.416726 0
M  V30 6395 C 612.765 4.39857 -0.850268 0
M  V30 6396 C 614.509 4.13509 0.959702 0
M  V30 6397 C 612.416 5.88269 -0.607773 0
M  V30 6398 H 611.346 0.749684 0.0805614 0
M  V30 6399 H 613.997 1.76508 -0.501732 0
M  V30 6400 H 612.379 3.77836 1.18557 0
M  V30 6401 H 613.553 4.31269 -1.62307 0
M  V30 6402 H 611.868 3.95005 -1.31756 0
M  V30 6403 H 614.465 5.22039 1.15669 0
M  V30 6404 H 614.808 3.69054 1.92626 0
M  V30 6405 H 615.341 3.9701 0.250645 0
M  V30 6406 H 612.08 6.3703 -1.54509 0
M  V30 6407 H 611.6 5.99667 0.126247 0
M  V30 6408 H 613.279 6.46558 -0.239014 0
M  V30 6409 N 613.412 0.11024 1.57214 0
M  V30 6410 C 614.342 -0.840002 2.17867 0
M  V30 6411 C 615.323 -1.28352 1.11624 0
M  V30 6412 O 616.508 -1.3477 1.39824 0
M  V30 6413 C 613.638 -2.09349 2.77111 0
M  V30 6414 C 612.592 -1.78807 3.8886 0
M  V30 6415 C 611.918 -3.11112 4.34872 0
M  V30 6416 C 613.218 -1.0632 5.11364 0
M  V30 6417 H 614.912 -0.334608 2.97524 0
M  V30 6418 H 612.458 -0.159502 1.43114 0
M  V30 6419 H 614.411 -2.76275 3.18198 0
M  V30 6420 H 613.135 -2.62198 1.9473 0
M  V30 6421 H 611.794 -1.14273 3.48335 0
M  V30 6422 H 611.442 -3.61877 3.49362 0
M  V30 6423 H 611.142 -2.91453 5.10224 0
M  V30 6424 H 612.666 -3.79171 4.78604 0
M  V30 6425 H 614.08 -1.63383 5.49526 0
M  V30 6426 H 612.477 -0.967876 5.92243 0
M  V30 6427 H 613.547 -0.0484569 4.84876 0
M  V30 6428 N 614.89 -1.56749 -0.16351 0
M  V30 6429 C 615.822 -1.93587 -1.22705 0
M  V30 6430 C 616.835 -0.829824 -1.40063 0
M  V30 6431 O 618.024 -1.10826 -1.39928 0
M  V30 6432 C 615.124 -2.1803 -2.59454 0
M  V30 6433 C 614.297 -3.4928 -2.63292 0
M  V30 6434 C 613.356 -3.62457 -3.8146 0
M  V30 6435 O 612.382 -4.35004 -3.67096 0
M  V30 6436 N 613.584 -2.97888 -4.9824 0
M  V30 6437 H 616.349 -2.8542 -0.914081 0
M  V30 6438 H 613.91 -1.58 -0.353214 0
M  V30 6439 H 615.902 -2.24102 -3.36987 0
M  V30 6440 H 614.472 -1.32543 -2.8311 0
M  V30 6441 H 613.692 -3.54795 -1.71796 0
M  V30 6442 H 614.98 -4.35632 -2.62873 0
M  V30 6443 H 614.378 -2.38833 -5.12811 0
M  V30 6444 H 612.935 -3.09545 -5.73607 0
M  V30 6445 N 616.368 0.432326 -1.51554 0
M  V30 6446 C 617.596 1.20364 -1.68286 0
M  V30 6447 C 618.011 1.84888 -0.38233 0
M  V30 6448 O 617.368 1.70924 0.639627 0
M  V30 6449 C 617.419 2.28398 -2.80208 0
M  V30 6450 O 617.14 1.66512 -4.05223 0
M  V30 6451 C 618.641 3.18584 -3.08251 0
M  V30 6452 H 615.861 0.36259 -0.564596 0
M  V30 6453 H 618.405 0.511647 -1.97996 0
M  V30 6454 H 616.56 2.93305 -2.53083 0
M  V30 6455 H 616.974 2.37951 -4.67418 0
M  V30 6456 H 618.448 3.90511 -3.90135 0
M  V30 6457 H 618.925 3.79628 -2.2086 0
M  V30 6458 H 619.531 2.59372 -3.37055 0
M  V30 6459 N 617.846 1.41785 0.688094 0
M  V30 6460 C 619.123 1.32031 1.44316 0
M  V30 6461 C 619.503 -0.0486079 2.11044 0
M  V30 6462 O 618.851 -1.06332 2.02252 0
M  V30 6463 C 619.061 2.47906 2.45649 0
M  V30 6464 C 620.409 2.89415 3.10683 0
M  V30 6465 O 621.433 2.477 2.55975 0
M  V30 6466 O 620.292 3.61573 4.09789 0
M  V30 6467 H 617.386 0.519994 0.643067 0
M  V30 6468 H 619.932 1.53765 0.71794 0
M  V30 6469 H 618.704 3.39222 1.95048 0
M  V30 6470 H 618.327 2.28089 3.25671 0
M  V30 6471 N 619.324 -0.923095 1.27737 0
M  V30 6472 C 620.256 -2.02871 1.06658 0
M  V30 6473 C 621.269 -1.62786 0.0212095 0
M  V30 6474 O 622.458 -1.76548 0.263267 0
M  V30 6475 C 619.558 -3.33603 0.59682 0
M  V30 6476 C 618.731 -4.02354 1.71551 0
M  V30 6477 C 617.79 -5.11364 1.24071 0
M  V30 6478 O 616.816 -5.35075 1.94123 0
M  V30 6479 N 618.018 -5.80416 0.0988444 0
M  V30 6480 H 620.783 -2.21515 2.01869 0
M  V30 6481 H 618.344 -1.09378 1.19365 0
M  V30 6482 H 620.336 -4.03845 0.262984 0
M  V30 6483 H 618.906 -3.11499 -0.262187 0
M  V30 6484 H 618.126 -3.25786 2.2194 0
M  V30 6485 H 619.414 -4.45035 2.46619 0
M  V30 6486 H 618.812 -5.63611 -0.485743 0
M  V30 6487 H 617.369 -6.51563 -0.17578 0
M  V30 6488 N 620.802 -1.09834 -1.13024 0
M  V30 6489 C 622.03 -0.858902 -1.8823 0
M  V30 6490 C 622.445 0.590164 -1.79339 0
M  V30 6491 O 621.802 1.4065 -1.16292 0
M  V30 6492 C 621.853 -1.29066 -3.37675 0
M  V30 6493 O 621.574 -2.6829 -3.46341 0
M  V30 6494 C 623.075 -1.08421 -4.29837 0
M  V30 6495 H 620.295 -0.308713 -0.595766 0
M  V30 6496 H 622.839 -1.4614 -1.4305 0
M  V30 6497 H 620.994 -0.731961 -3.80422 0
M  V30 6498 H 621.408 -2.86598 -4.39274 0
M  V30 6499 H 622.882 -1.43553 -5.33007 0
M  V30 6500 H 623.359 -0.0223315 -4.39194 0
M  V30 6501 H 623.965 -1.62907 -3.92863 0
M  V30 6502 N 622.28 1.30327 -0.886154 0
M  V30 6503 C 623.508 2.00254 -0.520176 0
M  V30 6504 C 623.923 1.66419 0.891637 0
M  V30 6505 O 623.28 0.901951 1.58654 0
M  V30 6506 C 623.331 3.54916 -0.686775 0
M  V30 6507 O 623.052 3.87547 -2.04301 0
M  V30 6508 C 624.553 4.42115 -0.323945 0
M  V30 6509 H 621.773 0.640204 -0.200947 0
M  V30 6510 H 624.317 1.66183 -1.19178 0
M  V30 6511 H 622.472 3.8735 -0.0625273 0
M  V30 6512 H 622.886 4.82247 -2.06249 0
M  V30 6513 H 624.36 5.49808 -0.491407 0
M  V30 6514 H 624.837 4.32953 0.73811 0
M  V30 6515 H 625.443 4.15129 -0.924565 0
M  V30 6516 N 623.758 0.647228 1.43697 0
M  V30 6517 C 624.69 -0.0866232 2.29036 0
M  V30 6518 C 625.703 -0.793051 1.42178 0
M  V30 6519 O 626.892 -0.651807 1.66174 0
M  V30 6520 C 623.992 -1.14552 3.18953 0
M  V30 6521 C 623.165 -0.518422 4.34317 0
M  V30 6522 C 622.224 -1.4734 5.05151 0
M  V30 6523 O 621.25 -0.984312 5.60625 0
M  V30 6524 N 622.452 -2.8075 5.08094 0
M  V30 6525 H 625.217 0.645834 2.92659 0
M  V30 6526 H 622.778 0.489567 1.54321 0
M  V30 6527 H 624.77 -1.78505 3.63205 0
M  V30 6528 H 623.34 -1.78001 2.56971 0
M  V30 6529 H 622.56 0.300079 3.93056 0
M  V30 6530 H 623.848 -0.080401 5.08736 0
M  V30 6531 H 623.246 -3.23052 4.64386 0
M  V30 6532 H 621.803 -3.40022 5.56083 0
M  V30 6533 N 625.236 -1.5273 0.388769 0
M  V30 6534 C 626.464 -2.05992 -0.193677 0
M  V30 6535 C 626.879 -1.26053 -1.40557 0
M  V30 6536 O 626.236 -0.307049 -1.79898 0
M  V30 6537 C 626.287 -3.57068 -0.564321 0
M  V30 6538 O 626.008 -4.3398 0.599422 0
M  V30 6539 C 627.509 -4.26674 -1.20269 0
M  V30 6540 H 624.729 -0.670358 -0.0293445 0
M  V30 6541 H 627.273 -1.96857 0.553844 0
M  V30 6542 H 625.428 -3.66277 -1.26174 0
M  V30 6543 H 625.842 -5.2367 0.294895 0
M  V30 6544 H 627.316 -5.33625 -1.4124 0
M  V30 6545 H 627.793 -3.81854 -2.16989 0
M  V30 6546 H 628.399 -4.2178 -0.546047 0
M  V30 6547 N 626.714 -0.118576 -1.57153 0
M  V30 6548 C 627.677 0.817464 -2.14127 0
M  V30 6549 C 628.677 1.1949 -1.07604 0
M  V30 6550 O 629.867 1.12048 -1.33382 0
M  V30 6551 C 626.999 2.10541 -2.68115 0
M  V30 6552 H 628.192 0.322339 -2.98163 0
M  V30 6553 H 625.745 0.130655 -1.55753 0
M  V30 6554 H 626.48 2.64485 -1.87665 0
M  V30 6555 H 626.265 1.84425 -3.4602 0
M  V30 6556 H 627.755 2.77453 -3.12105 0
M  V30 6557 N 628.193 1.56834 0.155195 0
M  V30 6558 C 629.423 1.86778 0.883044 0
M  V30 6559 C 629.831 0.703824 1.75622 0
M  V30 6560 O 629.174 -0.33581 1.80605 0
M  V30 6561 C 629.236 3.1133 1.79761 0
M  V30 6562 C 628.9 4.43504 1.10242 0
M  V30 6563 C 629.897 5.17859 0.460204 0
M  V30 6564 C 627.582 4.90233 1.09437 0
M  V30 6565 C 629.576 6.37144 -0.180782 0
M  V30 6566 C 627.263 6.09444 0.449569 0
M  V30 6567 C 628.261 6.82744 -0.186888 0
M  V30 6568 O 627.949 7.99692 -0.821486 0
M  V30 6569 H 627.681 0.62352 0.261149 0
M  V30 6570 H 630.235 2.04813 0.155204 0
M  V30 6571 H 628.465 2.89282 2.56618 0
M  V30 6572 H 630.154 3.27587 2.39669 0
M  V30 6573 H 630.92 4.8283 0.458289 0
M  V30 6574 H 626.799 4.33109 1.57917 0
M  V30 6575 H 630.343 6.94296 -0.678154 0
M  V30 6576 H 626.24 6.43936 0.449123 0
M  V30 6577 H 627.008 8.15306 -0.722337 0
M  V30 6578 N 629.671 -0.424282 1.51781 0
M  V30 6579 C 630.634 -1.49848 1.73431 0
M  V30 6580 C 631.634 -1.49016 0.604225 0
M  V30 6581 O 632.824 -1.50808 0.871935 0
M  V30 6582 C 629.956 -2.89332 1.80277 0
M  V30 6583 H 631.149 -1.3195 2.69312 0
M  V30 6584 H 628.702 -0.653809 1.41968 0
M  V30 6585 H 629.437 -3.12618 0.862568 0
M  V30 6586 H 629.222 -2.9134 2.62419 0
M  V30 6587 H 630.712 -3.67233 1.98821 0
M  V30 6588 N 631.149 -1.42148 -0.680565 0
M  V30 6589 C 632.096 -1.45175 -1.79424 0
M  V30 6590 C 633.066 -0.304352 -1.63288 0
M  V30 6591 O 634.251 -0.507591 -1.83924 0
M  V30 6592 C 631.391 -1.35429 -3.17416 0
M  V30 6593 C 630.504 -2.60158 -3.4488 0
M  V30 6594 C 629.639 -2.42596 -4.72568 0
M  V30 6595 C 628.678 -3.62727 -4.93047 0
M  V30 6596 N 627.815 -3.44143 -6.11973 0
M  V30 6597 H 632.655 -2.40349 -1.76172 0
M  V30 6598 H 630.192 -1.19334 -0.860107 0
M  V30 6599 H 632.15 -1.27777 -3.97151 0
M  V30 6600 H 630.78 -0.438536 -3.19807 0
M  V30 6601 H 629.832 -2.78199 -2.5944 0
M  V30 6602 H 631.144 -3.49473 -3.55908 0
M  V30 6603 H 630.298 -2.32497 -5.60384 0
M  V30 6604 H 629.037 -1.50761 -4.63813 0
M  V30 6605 H 628.042 -3.73264 -4.03676 0
M  V30 6606 H 629.267 -4.55534 -5.03652 0
M  V30 6607 H 627.213 -2.5502 -6.04401 0
M  V30 6608 H 627.13 -4.27041 -6.23836 0
M  V30 6609 H 628.398 -3.37845 -7.02482 0
M  V30 6610 N 632.627 0.916307 -1.28225 0
M  V30 6611 C 633.852 1.7043 -1.18188 0
M  V30 6612 C 634.277 1.86346 0.256274 0
M  V30 6613 O 633.635 1.37175 1.18544 0
M  V30 6614 C 633.683 3.07546 -1.88275 0
M  V30 6615 O 632.787 3.94904 -1.18848 0
M  V30 6616 H 632.128 0.521967 -0.410423 0
M  V30 6617 H 634.658 1.14589 -1.69501 0
M  V30 6618 H 634.668 3.57793 -1.96082 0
M  V30 6619 H 633.343 2.95279 -2.92887 0
M  V30 6620 H 631.92 3.53339 -1.19187 0
M  V30 6621 N 634.105 1.10431 1.1244 0
M  V30 6622 C 635.521 0.836096 1.35947 0
M  V30 6623 C 635.721 -0.544475 1.94004 0
M  V30 6624 O 634.777 -1.29735 2.16622 0
M  V30 6625 C 636.09 1.93575 2.30107 0
M  V30 6626 C 637.638 1.9642 2.43697 0
M  V30 6627 C 638.113 3.05559 3.41171 0
M  V30 6628 N 639.604 3.04865 3.48728 0
M  V30 6629 C 640.339 3.85954 4.24061 0
M  V30 6630 N 639.835 4.76977 5.02458 0
M  V30 6631 N 641.628 3.74172 4.19466 0
M  V30 6632 H 633.779 1.9942 0.731124 0
M  V30 6633 H 636.042 0.866607 0.384312 0
M  V30 6634 H 635.748 2.92943 1.94621 0
M  V30 6635 H 635.622 1.8229 3.30227 0
M  V30 6636 H 638.009 0.97685 2.78463 0
M  V30 6637 H 638.09 2.11782 1.43465 0
M  V30 6638 H 637.734 4.04513 3.07135 0
M  V30 6639 H 637.664 2.87438 4.41234 0
M  V30 6640 H 640.155 2.38908 2.92799 0
M  V30 6641 H 640.468 5.35409 5.57277 0
M  V30 6642 H 638.813 4.81006 5.01655 0
M  V30 6643 H 642.004 3.02412 3.57302 0
M  V30 6644 H 642.177 4.37602 4.77921 0
M  V30 6645 N 635.583 -1.29855 0.893053 0
M  V30 6646 C 636.546 -2.26183 0.370687 0
M  V30 6647 C 637.546 -1.53108 -0.491385 0
M  V30 6648 O 638.736 -1.71643 -0.297386 0
M  V30 6649 C 635.868 -3.37633 -0.470827 0
M  V30 6650 H 637.061 -2.73903 1.22135 0
M  V30 6651 H 634.614 -1.41183 0.67061 0
M  V30 6652 H 635.349 -2.95241 -1.34175 0
M  V30 6653 H 635.134 -3.91825 0.146784 0
M  V30 6654 H 636.624 -4.09313 -0.827825 0
M  V30 6655 N 637.061 -0.65484 -1.43351 0
M  V30 6656 C 638.307 -0.177749 -2.02622 0
M  V30 6657 C 638.662 1.19553 -1.50748 0
M  V30 6658 O 637.955 1.78683 -0.691599 0
M  V30 6659 C 638.149 -0.130424 -3.57162 0
M  V30 6660 C 637.978 -1.49757 -4.24032 0
M  V30 6661 C 636.748 -2.09036 -4.60035 0
M  V30 6662 C 638.946 -2.4363 -4.52934 0
M  V30 6663 N 636.928 -3.3874 -5.11985 0
M  V30 6664 C 638.299 -3.57968 -5.0622 0
M  V30 6665 C 640.354 -2.42412 -4.34903 0
M  V30 6666 C 639.057 -4.71314 -5.43374 0
M  V30 6667 C 641.083 -3.5484 -4.7312 0
M  V30 6668 C 640.445 -4.67903 -5.26541 0
M  V30 6669 H 636.544 -0.10951 -0.774294 0
M  V30 6670 H 639.128 -0.863495 -1.74505 0
M  V30 6671 H 637.299 0.524671 -3.8484 0
M  V30 6672 H 639.031 0.35769 -4.03116 0
M  V30 6673 H 635.786 -1.61729 -4.4513 0
M  V30 6674 H 636.21 -4.05116 -5.42412 0
M  V30 6675 H 640.852 -1.56236 -3.92874 0
M  V30 6676 H 638.57 -5.5818 -5.84346 0
M  V30 6677 H 642.156 -3.55101 -4.60863 0
M  V30 6678 H 641.036 -5.5346 -5.55564 0
M  V30 6679 N 638.539 1.52521 -0.396863 0
M  V30 6680 C 639.816 1.94112 0.240842 0
M  V30 6681 C 640.196 1.33288 1.637 0
M  V30 6682 O 639.544 0.503901 2.22875 0
M  V30 6683 C 639.754 3.48033 0.259567 0
M  V30 6684 C 641.102 4.21822 0.484866 0
M  V30 6685 O 642.126 3.54579 0.339453 0
M  V30 6686 O 640.985 5.41042 0.770412 0
M  V30 6687 H 638.079 0.812973 0.151671 0
M  V30 6688 H 640.625 1.63572 -0.451918 0
M  V30 6689 H 639.397 3.84655 -0.718078 0
M  V30 6690 H 639.02 3.84899 0.996937 0
M  V30 6691 N 640.017 0.126909 1.57088 0
M  V30 6692 C 641.265 -0.528123 1.95078 0
M  V30 6693 C 641.586 -1.66708 1.0116 0
M  V30 6694 O 640.856 -1.95777 0.0693527 0
M  V30 6695 H 639.436 -0.198087 0.720257 0
M  V30 6696 H 642.098 0.197703 1.93895 0
M  V30 6697 H 641.194 -0.917507 2.98309 0
M  V30 6698 N 641.495 -1.56914 -0.146875 0
M  V30 6699 C 642.442 -1.98275 -1.18134 0
M  V30 6700 C 643.412 -0.850367 -1.42681 0
M  V30 6701 O 644.597 -1.11244 -1.55014 0
M  V30 6702 C 641.737 -2.36861 -2.5098 0
M  V30 6703 C 640.85 -3.63391 -2.33605 0
M  V30 6704 C 639.985 -3.91079 -3.59486 0
M  V30 6705 C 639.024 -5.10879 -3.37149 0
M  V30 6706 N 638.161 -5.34577 -4.55161 0
M  V30 6707 H 643.001 -2.8645 -0.821622 0
M  V30 6708 H 640.538 -1.41718 -0.394248 0
M  V30 6709 H 642.496 -2.57262 -3.28439 0
M  V30 6710 H 641.126 -1.51766 -2.84898 0
M  V30 6711 H 640.178 -3.50766 -1.47199 0
M  V30 6712 H 641.49 -4.51007 -2.13059 0
M  V30 6713 H 640.644 -4.11979 -4.45374 0
M  V30 6714 H 639.383 -3.01885 -3.83036 0
M  V30 6715 H 638.388 -4.89853 -2.49649 0
M  V30 6716 H 639.613 -6.01626 -3.14997 0
M  V30 6717 H 637.559 -4.48337 -4.78884 0
M  V30 6718 H 637.476 -6.16463 -4.37618 0
M  V30 6719 H 638.744 -5.59975 -5.42263 0
M  V30 6720 N 642.974 0.416227 -1.52004 0
M  V30 6721 C 643.884 1.53147 -1.77717 0
M  V30 6722 C 644.9 1.609 -0.662368 0
M  V30 6723 O 646.076 1.77747 -0.946991 0
M  V30 6724 C 643.141 2.88948 -1.91598 0
M  V30 6725 C 642.202 2.9114 -3.15493 0
M  V30 6726 C 641.435 4.20464 -3.28703 0
M  V30 6727 O 641.658 5.13981 -2.47345 0
M  V30 6728 O 640.592 4.29368 -4.21813 0
M  V30 6729 H 644.418 1.34357 -2.72363 0
M  V30 6730 H 642.003 0.601373 -1.36762 0
M  V30 6731 H 643.885 3.69505 -2.02593 0
M  V30 6732 H 642.56 3.07821 -1.00141 0
M  V30 6733 H 641.467 2.09461 -3.09962 0
M  V30 6734 H 642.8 2.77216 -4.06709 0
M  V30 6735 N 644.452 1.42507 0.673017 0
M  V30 6736 C 645.698 1.43284 1.43519 0
M  V30 6737 C 646.031 0.049668 1.94136 0
M  V30 6738 O 645.306 -0.926369 1.71022 0
M  V30 6739 C 645.589 2.45874 2.63093 0
M  V30 6740 C 645.442 3.93388 2.18096 0
M  V30 6741 C 646.761 2.45431 3.6531 0
M  V30 6742 H 643.88 0.521752 0.520522 0
M  V30 6743 H 646.522 1.73932 0.764701 0
M  V30 6744 H 644.672 2.19869 3.20296 0
M  V30 6745 H 646.344 4.30379 1.66046 0
M  V30 6746 H 644.587 4.07169 1.49652 0
M  V30 6747 H 645.258 4.60752 3.03993 0
M  V30 6748 H 647.734 2.68561 3.17827 0
M  V30 6749 H 646.61 3.19189 4.46553 0
M  V30 6750 H 646.871 1.48092 4.16559 0
M  V30 6751 N 645.93 -0.909495 1.28709 0
M  V30 6752 C 646.893 -1.99399 1.13016 0
M  V30 6753 C 647.893 -1.60654 0.068536 0
M  V30 6754 O 649.083 -1.71334 0.314671 0
M  V30 6755 C 646.215 -3.33078 0.726085 0
M  V30 6756 H 647.408 -2.14751 2.09338 0
M  V30 6757 H 644.961 -1.09272 1.11756 0
M  V30 6758 H 645.696 -3.23428 -0.23771 0
M  V30 6759 H 645.481 -3.62562 1.49302 0
M  V30 6760 H 646.971 -4.12681 0.639058 0
M  V30 6761 N 647.408 -1.11026 -1.11852 0
M  V30 6762 C 648.633 -0.879064 -1.87849 0
M  V30 6763 C 649.058 0.565406 -1.79401 0
M  V30 6764 O 648.416 1.39886 -1.15333 0
M  V30 6765 C 648.464 -1.33985 -3.34784 0
M  V30 6766 O 647.568 -0.508803 -4.09249 0
M  V30 6767 H 646.909 -0.316992 -0.583448 0
M  V30 6768 H 649.439 -1.47863 -1.41413 0
M  V30 6769 H 649.449 -1.33248 -3.85628 0
M  V30 6770 H 648.124 -2.39172 -3.40249 0
M  V30 6771 H 646.701 -0.581913 -3.68332 0
M  V30 6772 N 648.886 1.2938 -0.899927 0
M  V30 6773 C 649.816 2.30144 -0.39446 0
M  V30 6774 C 650.797 1.61611 0.530639 0
M  V30 6775 O 651.982 1.89119 0.441319 0
M  V30 6776 C 649.112 3.45229 0.37868 0
M  V30 6777 C 648.066 4.25564 -0.456012 0
M  V30 6778 C 647.392 5.32848 0.444637 0
M  V30 6779 C 648.692 4.93651 -1.70605 0
M  V30 6780 H 650.386 2.72673 -1.23653 0
M  V30 6781 H 647.932 1.31086 -0.596034 0
M  V30 6782 H 649.885 4.14797 0.743037 0
M  V30 6783 H 648.609 3.01545 1.25453 0
M  V30 6784 H 647.268 3.57704 -0.802704 0
M  V30 6785 H 646.916 4.85408 1.31863 0
M  V30 6786 H 646.616 5.87497 -0.110154 0
M  V30 6787 H 648.14 6.05268 0.805182 0
M  V30 6788 H 649.554 5.55655 -1.41141 0
M  V30 6789 H 647.951 5.58233 -2.20217 0
M  V30 6790 H 649.021 4.18926 -2.4419 0
M  V30 6791 N 650.364 0.662433 1.43002 0
M  V30 6792 C 651.294 -0.00979809 2.33498 0
M  V30 6793 C 652.275 -0.802329 1.49989 0
M  V30 6794 O 653.46 -0.761964 1.78627 0
M  V30 6795 C 650.59 -0.970446 3.33466 0
M  V30 6796 C 649.544 -0.287383 4.27034 0
M  V30 6797 C 648.87 -1.36012 5.17112 0
M  V30 6798 C 650.17 0.82595 5.15728 0
M  V30 6799 H 651.864 0.745959 2.89958 0
M  V30 6800 H 649.41 0.360172 1.39423 0
M  V30 6801 H 651.363 -1.44971 3.95679 0
M  V30 6802 H 650.087 -1.75748 2.75282 0
M  V30 6803 H 648.746 0.17152 3.66199 0
M  V30 6804 H 648.394 -2.13882 4.55262 0
M  V30 6805 H 648.094 -0.908276 5.80538 0
M  V30 6806 H 649.618 -1.84056 5.82199 0
M  V30 6807 H 651.032 0.42845 5.71697 0
M  V30 6808 H 649.429 1.20282 5.87922 0
M  V30 6809 H 650.499 1.68003 4.54866 0
M  V30 6810 N 651.842 -1.52309 0.404946 0
M  V30 6811 C 652.805 -2.25491 -0.410651 0
M  V30 6812 C 653.805 -1.27704 -0.977154 0
M  V30 6813 O 654.995 -1.51679 -0.856691 0
M  V30 6814 C 652.127 -3.02197 -1.57765 0
M  V30 6815 H 653.32 -2.99015 0.230277 0
M  V30 6816 H 650.873 -1.55506 0.157377 0
M  V30 6817 H 651.608 -2.33013 -2.25556 0
M  V30 6818 H 651.393 -3.73987 -1.17797 0
M  V30 6819 H 652.883 -3.57719 -2.15469 0
M  V30 6820 N 653.32 -0.135238 -1.57019 0
M  V30 6821 C 654.566 0.513232 -1.96818 0
M  V30 6822 C 654.921 1.63245 -1.01827 0
M  V30 6823 O 654.214 1.91532 -0.0511756 0
M  V30 6824 C 654.408 1.07694 -3.40788 0
M  V30 6825 C 654.237 0.0138667 -4.49698 0
M  V30 6826 C 653.007 -0.423532 -5.03522 0
M  V30 6827 C 655.205 -0.77322 -5.08454 0
M  V30 6828 N 653.187 -1.47068 -5.96024 0
M  V30 6829 C 654.558 -1.67115 -5.97053 0
M  V30 6830 C 656.613 -0.822313 -4.91063 0
M  V30 6831 C 655.316 -2.61395 -6.70123 0
M  V30 6832 C 657.342 -1.75288 -5.64826 0
M  V30 6833 C 656.704 -2.63836 -6.53123 0
M  V30 6834 H 652.803 0.156956 -0.766087 0
M  V30 6835 H 655.387 -0.227118 -1.93371 0
M  V30 6836 H 653.558 1.78694 -3.44852 0
M  V30 6837 H 655.29 1.69106 -3.67675 0
M  V30 6838 H 652.045 -0.0280202 -4.73592 0
M  V30 6839 H 652.469 -1.99366 -6.46979 0
M  V30 6840 H 657.111 -0.151822 -4.22527 0
M  V30 6841 H 654.829 -3.2945 -7.37895 0
M  V30 6842 H 658.415 -1.79652 -5.53368 0
M  V30 6843 H 657.295 -3.34672 -7.092 0
M  V30 6844 N 654.798 1.5699 0.138552 0
M  V30 6845 C 656.026 1.87976 0.864437 0
M  V30 6846 C 656.441 0.724372 1.74351 0
M  V30 6847 O 655.798 -0.305575 1.79924 0
M  V30 6848 C 655.849 3.18276 1.71414 0
M  V30 6849 O 655.57 4.29365 0.870487 0
M  V30 6850 C 657.071 3.62834 2.54688 0
M  V30 6851 H 654.291 0.622878 0.249528 0
M  V30 6852 H 656.835 2.04094 0.128805 0
M  V30 6853 H 654.99 3.03886 2.40274 0
M  V30 6854 H 655.404 5.03924 1.45466 0
M  V30 6855 H 656.878 4.5682 3.0987 0
M  V30 6856 H 657.355 2.88533 3.31127 0
M  V30 6857 H 657.961 3.79946 1.91105 0
M  V30 6858 N 656.276 -0.40816 1.52223 0
M  V30 6859 C 657.226 -1.49648 1.72016 0
M  V30 6860 C 658.21 -1.50311 0.574069 0
M  V30 6861 O 659.402 -1.56271 0.831173 0
M  V30 6862 C 656.531 -2.87566 1.87512 0
M  V30 6863 C 655.617 -2.91547 3.07995 0
M  V30 6864 N 656.008 -2.65225 4.30685 0
M  V30 6865 C 654.306 -3.22715 3.07849 0
M  V30 6866 C 655.007 -2.75799 5.12162 0
M  V30 6867 N 653.983 -3.08719 4.4743 0
M  V30 6868 H 657.785 -1.28093 2.64517 0
M  V30 6869 H 655.299 -0.61588 1.50269 0
M  V30 6870 H 657.296 -3.65899 1.99809 0
M  V30 6871 H 655.956 -3.10118 0.962114 0
M  V30 6872 H 656.967 -2.39601 4.59142 0
M  V30 6873 H 653.644 -3.50856 2.26289 0
M  V30 6874 H 655.034 -2.59155 6.1991 0
M  V30 6875 N 657.755 -1.42862 -0.66545 0
M  V30 6876 C 658.687 -1.43026 -1.79098 0
M  V30 6877 C 659.7 -0.32803 -1.59461 0
M  V30 6878 O 660.889 -0.591709 -1.68407 0
M  V30 6879 C 657.989 -1.21566 -3.16346 0
M  V30 6880 C 657.162 -2.44399 -3.62751 0
M  V30 6881 C 656.221 -2.18344 -4.78761 0
M  V30 6882 O 655.247 -2.91611 -4.88827 0
M  V30 6883 N 656.449 -1.1924 -5.68122 0
M  V30 6884 H 659.214 -2.40045 -1.79439 0
M  V30 6885 H 656.775 -1.37861 -0.848872 0
M  V30 6886 H 658.767 -1.02037 -3.91625 0
M  V30 6887 H 657.337 -0.330368 -3.10849 0
M  V30 6888 H 656.557 -2.79433 -2.78048 0
M  V30 6889 H 657.845 -3.26173 -3.90498 0
M  V30 6890 H 657.243 -0.586603 -5.6265 0
M  V30 6891 H 655.8 -1.05698 -6.43173 0
M  V30 6892 N 659.233 0.902656 -1.29189 0
M  V30 6893 C 660.166 2.00816 -1.0839 0
M  V30 6894 C 661.144 1.626 0.00335266 0
M  V30 6895 O 662.328 1.87928 -0.146765 0
M  V30 6896 C 659.455 3.32415 -0.649435 0
M  V30 6897 C 658.501 3.89617 -1.73496 0
M  V30 6898 S 659.334 4.19091 -3.33351 0
M  V30 6899 C 660.49 5.53736 -2.91766 0
M  V30 6900 H 660.723 2.18151 -2.01984 0
M  V30 6901 H 658.256 1.0489 -1.13303 0
M  V30 6902 H 660.214 4.08492 -0.405479 0
M  V30 6903 H 658.875 3.12964 0.266857 0
M  V30 6904 H 658.068 4.84658 -1.38284 0
M  V30 6905 H 657.67 3.20217 -1.93229 0
M  V30 6906 H 659.962 6.34085 -2.38627 0
M  V30 6907 H 660.905 5.93871 -3.85647 0
M  V30 6908 H 661.313 5.15453 -2.30149 0
M  V30 6909 N 660.711 1.11618 1.11262 0
M  V30 6910 C 661.658 0.7762 2.17356 0
M  V30 6911 C 662.628 -0.253152 1.6416 0
M  V30 6912 O 663.813 -0.129655 1.90359 0
M  V30 6913 C 660.953 0.227581 3.44349 0
M  V30 6914 C 660.066 1.31372 4.1154 0
M  V30 6915 C 659.201 0.72544 5.26223 0
M  V30 6916 C 658.24 1.7913 5.85302 0
M  V30 6917 N 657.377 1.22237 6.91377 0
M  V30 6918 H 662.217 1.68508 2.45783 0
M  V30 6919 H 659.754 0.841475 1.20655 0
M  V30 6920 H 661.712 -0.108483 4.17059 0
M  V30 6921 H 660.342 -0.644486 3.16301 0
M  V30 6922 H 659.394 1.7667 3.36885 0
M  V30 6923 H 660.706 2.12005 4.51504 0
M  V30 6924 H 659.86 0.339541 6.05749 0
M  V30 6925 H 658.599 -0.112188 4.87571 0
M  V30 6926 H 657.604 2.18648 5.04453 0
M  V30 6927 H 658.829 2.63199 6.26022 0
M  V30 6928 H 656.775 0.406423 6.5474 0
M  V30 6929 H 656.692 1.9654 7.30006 0
M  V30 6930 H 657.96 0.863426 7.74703 0
M  V30 6931 N 662.189 -1.289 0.906776 0
M  V30 6932 C 663.152 -2.25777 0.394656 0
M  V30 6933 C 664.152 -1.53621 -0.475119 0
M  V30 6934 O 665.342 -1.71949 -0.279165 0
M  V30 6935 C 662.474 -3.38113 -0.43499 0
M  V30 6936 H 663.667 -2.72592 1.25033 0
M  V30 6937 H 661.22 -1.40463 0.685547 0
M  V30 6938 H 661.955 -2.96648 -1.31036 0
M  V30 6939 H 661.74 -3.91647 0.188334 0
M  V30 6940 H 663.23 -4.10168 -0.784365 0
M  V30 6941 N 663.667 -0.670007 -1.42649 0
M  V30 6942 C 664.614 0.0112928 -2.30797 0
M  V30 6943 C 665.584 0.797627 -1.45695 0
M  V30 6944 O 666.769 0.770845 -1.74535 0
M  V30 6945 C 663.909 0.95998 -3.31479 0
M  V30 6946 C 663.022 0.167975 -4.31673 0
M  V30 6947 C 662.157 1.11198 -5.19431 0
M  V30 6948 C 661.196 0.311381 -6.11307 0
M  V30 6949 N 660.333 1.20784 -6.91633 0
M  V30 6950 H 665.173 -0.746231 -2.88505 0
M  V30 6951 H 662.71 -0.379739 -1.42114 0
M  V30 6952 H 664.668 1.52379 -3.88377 0
M  V30 6953 H 663.298 1.68419 -2.75382 0
M  V30 6954 H 662.35 -0.512385 -3.76933 0
M  V30 6955 H 663.662 -0.453814 -4.96731 0
M  V30 6956 H 662.816 1.74587 -5.81037 0
M  V30 6957 H 661.555 1.76766 -4.54538 0
M  V30 6958 H 660.56 -0.335758 -5.48774 0
M  V30 6959 H 661.785 -0.340135 -6.78248 0
M  V30 6960 H 659.731 1.85001 -6.29373 0
M  V30 6961 H 659.648 0.64102 -7.53277 0
M  V30 6962 H 660.916 1.82936 -7.5773 0
M  V30 6963 N 665.145 1.52092 -0.413018 0
M  V30 6964 C 666.093 2.28681 0.425199 0
M  V30 6965 C 667.087 1.3353 1.04241 0
M  V30 6966 O 668.293 1.50973 0.980166 0
M  V30 6967 H 664.668 0.735661 0.155906 0
M  V30 6968 H 666.639 2.97418 -0.241926 0
M  V30 6969 C 665.388 3.1235 1.5275 0
M  V30 6970 H 664.711 3.85439 1.06191 0
M  V30 6971 H 666.151 3.69038 2.08774 0
M  V30 6972 C 664.61 2.26161 2.49706 0
M  V30 6973 O 665.14 1.90452 3.53682 0
M  V30 6974 N 663.346 1.89854 2.20008 0
M  V30 6975 H 662.893 2.19092 1.35486 0
M  V30 6976 H 662.851 1.3248 2.85125 0
M  V30 6977 N 666.623 0.143563 1.56945 0
M  V30 6978 C 667.869 -0.502787 1.97088 0
M  V30 6979 C 668.224 -1.62703 1.02691 0
M  V30 6980 O 667.517 -1.91502 0.0613323 0
M  V30 6981 C 667.711 -1.05885 3.41355 0
M  V30 6982 C 667.54 0.00998209 4.49699 0
M  V30 6983 C 666.31 0.450229 5.0329 0
M  V30 6984 C 668.508 0.800174 5.08037 0
M  V30 6985 N 666.49 1.50227 5.95235 0
M  V30 6986 C 667.861 1.70279 5.96158 0
M  V30 6987 C 669.916 0.848344 4.9062 0
M  V30 6988 C 668.619 2.64945 6.68728 0
M  V30 6989 C 670.645 1.78281 5.63888 0
M  V30 6990 C 670.007 2.67296 6.51715 0
M  V30 6991 H 666.106 -0.152891 0.766908 0
M  V30 6992 H 668.69 0.23737 1.93248 0
M  V30 6993 H 666.861 -1.76863 3.45795 0
M  V30 6994 H 668.593 -1.67154 3.68567 0
M  V30 6995 H 665.348 0.0531355 4.7357 0
M  V30 6996 H 665.772 2.02795 6.45913 0
M  V30 6997 H 670.414 0.174228 4.22441 0
M  V30 6998 H 668.132 3.33358 7.36137 0
M  V30 6999 H 671.718 1.82584 5.52408 0
M  V30 7000 H 670.598 3.38428 7.07415 0
M  V30 7001 N 668.101 -1.57061 -0.130224 0
M  V30 7002 C 669.033 -1.96147 -1.18571 0
M  V30 7003 C 670.046 -0.859347 -1.38272 0
M  V30 7004 O 671.235 -1.13769 -1.37545 0
M  V30 7005 C 668.335 -2.23484 -2.54771 0
M  V30 7006 C 667.508 -3.54786 -2.55824 0
M  V30 7007 C 666.567 -3.70467 -3.73686 0
M  V30 7008 O 665.593 -4.42693 -3.57787 0
M  V30 7009 N 666.795 -3.08389 -4.91809 0
M  V30 7010 H 669.56 -2.87295 -0.853333 0
M  V30 7011 H 667.121 -1.58714 -0.319621 0
M  V30 7012 H 669.113 -2.312 -3.32158 0
M  V30 7013 H 667.683 -1.38518 -2.80235 0
M  V30 7014 H 666.903 -3.5836 -1.64232 0
M  V30 7015 H 668.191 -4.4111 -2.53573 0
M  V30 7016 H 667.589 -2.49656 -5.0763 0
M  V30 7017 H 666.146 -3.21642 -5.66912 0
M  V30 7018 N 669.579 0.400081 -1.52437 0
M  V30 7019 C 670.489 1.51253 -1.79331 0
M  V30 7020 C 671.505 1.60188 -0.679396 0
M  V30 7021 O 672.681 1.76733 -0.965791 0
M  V30 7022 C 669.746 2.869 -1.94652 0
M  V30 7023 C 668.807 2.87777 -3.18564 0
M  V30 7024 C 668.04 4.16954 -3.33145 0
M  V30 7025 O 668.263 5.11329 -2.52783 0
M  V30 7026 O 667.197 4.2487 -4.26343 0
M  V30 7027 H 671.023 1.31461 -2.73773 0
M  V30 7028 H 668.608 0.586834 -1.37392 0
M  V30 7029 H 670.49 3.67336 -2.065 0
M  V30 7030 H 669.165 3.06741 -1.034 0
M  V30 7031 H 668.072 2.06162 -3.12167 0
M  V30 7032 H 669.405 2.72886 -4.09627 0
M  V30 7033 N 671.057 1.43213 0.657864 0
M  V30 7034 C 672.303 1.45795 1.41829 0
M  V30 7035 C 672.658 0.0792176 1.92237 0
M  V30 7036 O 671.951 -0.901406 1.69072 0
M  V30 7037 C 672.145 2.43143 2.61947 0
M  V30 7038 C 671.974 3.90345 2.23295 0
M  V30 7039 C 670.744 4.58749 2.11843 0
M  V30 7040 C 672.942 4.80308 1.83873 0
M  V30 7041 N 670.924 5.90898 1.66473 0
M  V30 7042 C 672.295 6.01693 1.49549 0
M  V30 7043 C 674.35 4.67609 1.71015 0
M  V30 7044 C 673.053 7.11792 1.03657 0
M  V30 7045 C 675.079 5.77707 1.26527 0
M  V30 7046 C 674.441 6.98215 0.931379 0
M  V30 7047 H 670.54 0.588628 0.514822 0
M  V30 7048 H 673.124 1.7936 0.7575 0
M  V30 7049 H 671.295 2.11612 3.25692 0
M  V30 7050 H 673.027 2.36193 3.28626 0
M  V30 7051 H 669.782 4.1319 2.31453 0
M  V30 7052 H 670.206 6.61034 1.46163 0
M  V30 7053 H 674.848 3.74902 1.95469 0
M  V30 7054 H 672.566 8.04332 0.779502 0
M  V30 7055 H 676.152 5.69899 1.17074 0
M  V30 7056 H 675.032 7.81959 0.592379 0
M  V30 7057 N 672.536 -0.895792 1.29666 0
M  V30 7058 C 673.764 -1.68001 1.20761 0
M  V30 7059 C 674.179 -1.87379 -0.231187 0
M  V30 7060 O 673.536 -1.41359 -1.15429 0
M  V30 7061 C 673.587 -3.06236 1.92098 0
M  V30 7062 O 673.308 -2.8774 3.30359 0
M  V30 7063 C 674.809 -4.00652 1.89717 0
M  V30 7064 H 672.029 -0.524591 0.418384 0
M  V30 7065 H 674.573 -1.11995 1.71106 0
M  V30 7066 H 672.728 -3.59007 1.45578 0
M  V30 7067 H 673.142 -3.75359 3.66342 0
M  V30 7068 H 674.616 -4.95051 2.44189 0
M  V30 7069 H 675.093 -4.30424 0.873595 0
M  V30 7070 H 675.699 -3.53815 2.35998 0
M  V30 7071 N 674.014 -1.12206 -1.10668 0
M  V30 7072 C 674.946 -0.74552 -2.16736 0
M  V30 7073 C 675.959 0.226696 -1.61214 0
M  V30 7074 O 677.148 0.0083936 -1.78498 0
M  V30 7075 C 674.248 -0.0823368 -3.388 0
M  V30 7076 C 673.421 -1.08341 -4.2377 0
M  V30 7077 C 672.48 -0.448292 -5.24287 0
M  V30 7078 O 671.506 -1.10458 -5.58379 0
M  V30 7079 N 672.708 0.785336 -5.75163 0
M  V30 7080 H 675.473 -1.65818 -2.49649 0
M  V30 7081 H 673.034 -1.01335 -1.26265 0
M  V30 7082 H 675.026 0.354476 -4.03145 0
M  V30 7083 H 673.596 0.733041 -3.03884 0
M  V30 7084 H 672.816 -1.69792 -3.55759 0
M  V30 7085 H 674.104 -1.76042 -4.77375 0
M  V30 7086 H 673.502 1.33755 -5.4966 0
M  V30 7087 H 672.059 1.16501 -6.41304 0
M  V30 7088 N 675.492 1.28418 -0.913599 0
M  V30 7089 C 676.424 2.26368 -0.359169 0
M  V30 7090 C 677.437 1.54858 0.502285 0
M  V30 7091 O 678.626 1.75659 0.31719 0
M  V30 7092 C 675.726 3.35112 0.50526 0
M  V30 7093 C 674.899 4.36126 -0.333648 0
M  V30 7094 C 673.958 5.24134 0.465845 0
M  V30 7095 O 672.984 5.6907 -0.121538 0
M  V30 7096 N 674.186 5.52892 1.76891 0
M  V30 7097 H 676.951 2.74579 -1.2011 0
M  V30 7098 H 674.512 1.41898 -0.779532 0
M  V30 7099 H 676.504 3.90926 1.04684 0
M  V30 7100 H 675.074 2.86611 1.2479 0
M  V30 7101 H 674.294 3.79776 -1.0566 0
M  V30 7102 H 675.582 5.00638 -0.907669 0
M  V30 7103 H 674.98 5.18217 2.26865 0
M  V30 7104 H 673.537 6.11464 2.25732 0
M  V30 7105 N 676.97 0.677563 1.42291 0
M  V30 7106 C 677.933 0.0101085 2.29198 0
M  V30 7107 C 678.933 -0.726219 1.43467 0
M  V30 7108 O 680.123 -0.563807 1.64824 0
M  V30 7109 C 677.255 -0.996316 3.26016 0
M  V30 7110 H 678.448 0.775071 2.89711 0
M  V30 7111 H 676.001 0.440065 1.49977 0
M  V30 7112 H 676.736 -1.78967 2.70446 0
M  V30 7113 H 676.521 -0.471687 3.89253 0
M  V30 7114 H 678.011 -1.46167 3.91184 0
M  V30 7115 N 678.448 -1.51871 0.421078 0
M  V30 7116 C 679.411 -2.25914 -0.386712 0
M  V30 7117 C 680.411 -1.28733 -0.963555 0
M  V30 7118 O 681.601 -1.52579 -0.840556 0
M  V30 7119 C 678.733 -3.03853 -1.54551 0
M  V30 7120 H 679.926 -2.98754 0.261978 0
M  V30 7121 H 677.479 -1.5533 0.173862 0
M  V30 7122 H 678.214 -2.35392 -2.23072 0
M  V30 7123 H 677.999 -3.75215 -1.13824 0
M  V30 7124 H 679.489 -3.59984 -2.11663 0
M  V30 7125 N 679.926 -0.151884 -1.56866 0
M  V30 7126 C 680.873 0.785936 -2.17006 0
M  V30 7127 C 681.843 1.2407 -1.10435 0
M  V30 7128 O 683.028 1.31235 -1.38499 0
M  V30 7129 C 680.168 2.01771 -2.79969 0
M  V30 7130 C 679.281 1.6083 -4.00946 0
M  V30 7131 C 678.416 2.79224 -4.51893 0
M  V30 7132 C 677.455 2.3468 -5.65324 0
M  V30 7133 N 676.592 3.461 -6.10867 0
M  V30 7134 H 681.432 0.266286 -2.96808 0
M  V30 7135 H 678.969 0.11972 -1.46612 0
M  V30 7136 H 680.927 2.73989 -3.14621 0
M  V30 7137 H 679.557 2.51139 -2.02803 0
M  V30 7138 H 678.609 0.783592 -3.72242 0
M  V30 7139 H 679.921 1.24119 -4.83111 0
M  V30 7140 H 679.075 3.59625 -4.88625 0
M  V30 7141 H 677.814 3.19183 -3.68746 0
M  V30 7142 H 676.819 1.52721 -5.28163 0
M  V30 7143 H 678.044 1.95801 -6.5026 0
M  V30 7144 H 675.99 3.85671 -5.30654 0
M  V30 7145 H 675.907 3.1342 -6.87971 0
M  V30 7146 H 677.175 4.26844 -6.52246 0
M  V30 7147 N 681.404 1.57128 0.121893 0
M  V30 7148 C 682.336 1.96773 1.17529 0
M  V30 7149 C 683.349 0.866668 1.37814 0
M  V30 7150 O 684.538 1.14497 1.3694 0
M  V30 7151 C 681.638 2.24832 2.53582 0
M  V30 7152 C 680.811 3.56138 2.53939 0
M  V30 7153 C 679.87 3.72443 3.71716 0
M  V30 7154 O 678.896 4.44584 3.55434 0
M  V30 7155 N 680.098 3.10993 4.90167 0
M  V30 7156 H 682.863 2.87743 0.838086 0
M  V30 7157 H 680.424 1.58881 0.311199 0
M  V30 7158 H 682.416 2.32958 3.30927 0
M  V30 7159 H 680.986 1.40002 2.79496 0
M  V30 7160 H 680.206 3.59226 1.62329 0
M  V30 7161 H 681.494 4.42448 2.51231 0
M  V30 7162 H 680.892 2.52345 5.06299 0
M  V30 7163 H 679.449 3.24644 5.65198 0
M  V30 7164 N 682.882 -0.391992 1.52647 0
M  V30 7165 C 683.845 -1.46135 1.7657 0
M  V30 7166 C 684.845 -1.47701 0.635698 0
M  V30 7167 O 686.035 -1.48924 0.903728 0
M  V30 7168 C 683.167 -2.85443 1.86374 0
M  V30 7169 H 684.36 -1.26208 2.72051 0
M  V30 7170 H 681.913 -0.623549 1.43323 0
M  V30 7171 H 682.648 -3.10718 0.928685 0
M  V30 7172 H 682.433 -2.85708 2.68539 0
M  V30 7173 H 683.923 -3.62933 2.06566 0
M  V30 7174 N 684.36 -1.4356 -0.65026 0
M  V30 7175 C 685.29 -1.51758 -1.77459 0
M  V30 7176 C 686.271 -0.372019 -1.65982 0
M  V30 7177 O 687.456 -0.589627 -1.85033 0
M  V30 7178 C 684.586 -1.44302 -3.15902 0
M  V30 7179 C 683.54 -2.57138 -3.42146 0
M  V30 7180 C 682.866 -2.34735 -4.8042 0
M  V30 7181 C 684.166 -3.99373 -3.36598 0
M  V30 7182 H 685.86 -2.45863 -1.70855 0
M  V30 7183 H 683.406 -1.18333 -0.820566 0
M  V30 7184 H 685.359 -1.48641 -3.94314 0
M  V30 7185 H 684.083 -0.467026 -3.23244 0
M  V30 7186 H 682.742 -2.52157 -2.66106 0
M  V30 7187 H 682.39 -1.35372 -4.84441 0
M  V30 7188 H 682.09 -3.10375 -4.9894 0
M  V30 7189 H 683.614 -2.40862 -5.61086 0
M  V30 7190 H 685.028 -4.05826 -4.04942 0
M  V30 7191 H 683.425 -4.75063 -3.66654 0
M  V30 7192 H 684.495 -4.243 -2.34729 0
M  V30 7193 N 685.838 0.888903 -1.30139 0
M  V30 7194 C 687.066 1.67358 -1.21651 0
M  V30 7195 C 687.481 1.87499 0.221246 0
M  V30 7196 O 686.838 1.41969 1.14677 0
M  V30 7197 C 686.889 3.05213 -1.93719 0
M  V30 7198 O 686.61 2.85984 -3.31881 0
M  V30 7199 C 688.111 3.9964 -1.9184 0
M  V30 7200 H 685.331 0.522365 -0.42116 0
M  V30 7201 H 687.875 1.11086 -1.71698 0
M  V30 7202 H 686.03 3.5823 -1.4748 0
M  V30 7203 H 686.444 3.73411 -3.68327 0
M  V30 7204 H 687.918 4.93749 -2.46811 0
M  V30 7205 H 688.395 4.29955 -0.896409 0
M  V30 7206 H 689.001 3.52558 -2.37872 0
M  V30 7207 N 687.317 1.12792 1.10072 0
M  V30 7208 C 688.566 0.880232 1.81479 0
M  V30 7209 C 688.879 -0.595575 1.86312 0
M  V30 7210 O 690.085 -0.959979 2.53962 0
M  V30 7211 C 688.541 1.52514 3.25987 0
M  V30 7212 C 688.149 3.036 3.29441 0
M  V30 7213 C 689.893 1.35788 4.02196 0
M  V30 7214 C 687.8 3.61007 4.68431 0
M  V30 7215 H 686.73 0.325654 0.680048 0
M  V30 7216 H 689.381 1.35485 1.23758 0
M  V30 7217 H 687.763 0.978188 3.83728 0
M  V30 7218 H 688.937 3.64819 2.81502 0
M  V30 7219 H 687.252 3.19765 2.66719 0
M  V30 7220 H 689.849 1.76096 5.0487 0
M  V30 7221 H 690.192 0.301972 4.15203 0
M  V30 7222 H 690.725 1.87426 3.50879 0
M  V30 7223 H 687.464 4.66375 4.60625 0
M  V30 7224 H 686.984 3.04564 5.16721 0
M  V30 7225 H 688.663 3.60289 5.37402 0
M  V30 7226 N 688.795 -1.27931 0.920396 0
M  V30 7227 C 689.743 -2.29061 0.404191 0
M  V30 7228 C 690.737 -1.61615 -0.507634 0
M  V30 7229 O 691.943 -1.75765 -0.388144 0
M  V30 7230 H 688.318 -0.743594 0.112123 0
M  V30 7231 H 690.289 -2.70021 1.27008 0
M  V30 7232 C 689.038 -3.46088 -0.334466 0
M  V30 7233 H 688.361 -3.98194 0.35797 0
M  V30 7234 H 689.801 -4.18829 -0.660196 0
M  V30 7235 C 688.26 -2.99396 -1.54479 0
M  V30 7236 O 688.79 -3.02439 -2.64374 0
M  V30 7237 N 686.996 -2.54978 -1.39408 0
M  V30 7238 H 686.543 -2.52701 -0.500009 0
M  V30 7239 H 686.501 -2.24098 -2.20516 0
M  V30 7240 N 690.273 -0.685099 -1.4193 0
M  V30 7241 C 691.519 -0.220688 -2.02199 0
M  V30 7242 C 691.874 1.16329 -1.5325 0
M  V30 7243 O 691.167 1.77175 -0.729345 0
M  V30 7244 C 691.361 -0.206154 -3.56805 0
M  V30 7245 C 691.19 -1.58718 -4.2076 0
M  V30 7246 C 689.96 -2.18747 -4.55497 0
M  V30 7247 C 692.158 -2.53182 -4.47664 0
M  V30 7248 N 690.14 -3.49523 -5.04685 0
M  V30 7249 C 691.511 -3.68625 -4.98514 0
M  V30 7250 C 693.566 -2.51582 -4.29664 0
M  V30 7251 C 692.269 -4.82734 -5.33255 0
M  V30 7252 C 694.295 -3.64795 -4.65487 0
M  V30 7253 C 693.657 -4.78967 -5.16498 0
M  V30 7254 H 689.756 -0.12591 -0.771797 0
M  V30 7255 H 692.34 -0.900316 -1.72634 0
M  V30 7256 H 690.511 0.442923 -3.85866 0
M  V30 7257 H 692.243 0.272103 -4.03784 0
M  V30 7258 H 688.998 -1.71135 -4.41599 0
M  V30 7259 H 689.422 -4.1653 -5.33696 0
M  V30 7260 H 694.064 -1.64535 -3.89472 0
M  V30 7261 H 691.782 -5.7045 -5.72375 0
M  V30 7262 H 695.368 -3.64796 -4.53227 0
M  V30 7263 H 694.248 -5.6512 -5.437 0
M  V30 7264 N 691.751 1.51645 -0.429126 0
M  V30 7265 C 692.981 2.06133 0.138793 0
M  V30 7266 C 693.389 1.29735 1.37716 0
M  V30 7267 O 692.732 0.347955 1.80375 0
M  V30 7268 C 692.794 3.55504 0.534493 0
M  V30 7269 C 692.458 4.53098 -0.595917 0
M  V30 7270 C 693.455 4.98815 -1.46558 0
M  V30 7271 C 691.14 4.96296 -0.774309 0
M  V30 7272 C 693.134 5.86394 -2.4984 0
M  V30 7273 C 690.821 5.83667 -1.81042 0
M  V30 7274 C 691.819 6.28613 -2.67086 0
M  V30 7275 O 691.507 7.14251 -3.68919 0
M  V30 7276 H 691.239 0.675833 0.0150263 0
M  V30 7277 H 693.793 1.96301 -0.604584 0
M  V30 7278 H 692.023 3.63092 1.33045 0
M  V30 7279 H 693.712 3.92545 1.03262 0
M  V30 7280 H 694.478 4.66143 -1.33925 0
M  V30 7281 H 690.357 4.60859 -0.114178 0
M  V30 7282 H 693.901 6.21398 -3.17034 0
M  V30 7283 H 689.798 6.15753 -1.93698 0
M  V30 7284 H 690.566 7.3241 -3.65402 0
M  V30 7285 N 693.229 0.160201 1.56784 0
M  V30 7286 C 694.459 -0.493449 2.00621 0
M  V30 7287 C 694.867 -1.5809 1.03943 0
M  V30 7288 O 694.21 -1.83675 0.0305343 0
M  V30 7289 C 694.272 -1.14169 3.4089 0
M  V30 7290 C 693.936 -0.197243 4.56574 0
M  V30 7291 C 694.933 0.580174 5.16653 0
M  V30 7292 C 692.618 -0.0963038 5.02208 0
M  V30 7293 C 694.612 1.44584 6.20785 0
M  V30 7294 C 692.299 0.772959 6.06192 0
M  V30 7295 C 693.297 1.54263 6.65351 0
M  V30 7296 O 692.985 2.39738 7.67321 0
M  V30 7297 H 692.717 -0.131764 0.663034 0
M  V30 7298 H 695.271 0.255728 2.03802 0
M  V30 7299 H 693.501 -1.93877 3.34587 0
M  V30 7300 H 695.19 -1.69641 3.6875 0
M  V30 7301 H 695.956 0.5123 4.82287 0
M  V30 7302 H 691.835 -0.685143 4.5588 0
M  V30 7303 H 695.379 2.04706 6.66889 0
M  V30 7304 H 691.276 0.842077 6.39984 0
M  V30 7305 H 692.044 2.33131 7.84597 0
M  V30 7306 N 694.707 -1.5719 -0.113559 0
M  V30 7307 C 695.67 -1.99796 -1.12314 0
M  V30 7308 C 696.67 -0.888847 -1.34001 0
M  V30 7309 O 697.86 -1.15476 -1.30426 0
M  V30 7310 C 694.992 -2.34279 -2.47641 0
M  V30 7311 H 696.185 -2.90193 -0.756825 0
M  V30 7312 H 693.738 -1.52144 -0.358029 0
M  V30 7313 H 694.473 -1.46778 -2.89183 0
M  V30 7314 H 694.258 -3.15175 -2.33253 0
M  V30 7315 H 695.748 -2.67963 -3.2029 0
M  V30 7316 N 696.185 0.383891 -1.52853 0
M  V30 7317 C 697.462 1.14296 -1.58732 0
M  V30 7318 C 697.842 2.07585 -0.383611 0
M  V30 7319 O 697.19 2.1971 0.627661 0
M  V30 7320 C 697.4 1.89816 -2.92867 0
M  V30 7321 C 698.748 2.44998 -3.46787 0
M  V30 7322 O 699.772 1.99966 -2.94774 0
M  V30 7323 O 698.631 3.2727 -4.37672 0
M  V30 7324 H 695.725 0.52326 -0.640413 0
M  V30 7325 H 698.271 0.388631 -1.6519 0
M  V30 7326 H 697.043 1.21626 -3.71918 0
M  V30 7327 H 696.666 2.72199 -2.89816 0
M  V30 7328 N 697.663 1.43903 0.642637 0
M  V30 7329 C 698.909 1.46296 1.40447 0
M  V30 7330 C 699.242 0.0908361 1.93987 0
M  V30 7331 O 698.517 -0.889884 1.72949 0
M  V30 7332 C 698.8 2.51399 2.57819 0
M  V30 7333 C 698.653 3.97926 2.09702 0
M  V30 7334 C 699.972 2.53125 3.60022 0
M  V30 7335 H 697.091 0.532676 0.509338 0
M  V30 7336 H 699.733 1.75515 0.727635 0
M  V30 7337 H 697.883 2.26614 3.1556 0
M  V30 7338 H 699.555 4.33804 1.5688 0
M  V30 7339 H 697.798 4.10252 1.40982 0
M  V30 7340 H 698.469 4.67096 2.94152 0
M  V30 7341 H 700.945 2.75242 3.12059 0
M  V30 7342 H 699.821 3.28589 4.39682 0
M  V30 7343 H 700.082 1.56895 4.13324 0
M  V30 7344 N 699.141 -0.881989 1.30609 0
M  V30 7345 C 700.089 -2.00942 1.17155 0
M  V30 7346 C 701.083 -1.69198 0.0827154 0
M  V30 7347 O 702.289 -1.78342 0.243775 0
M  V30 7348 H 698.664 -0.658913 0.362406 0
M  V30 7349 H 700.635 -2.09423 2.12567 0
M  V30 7350 C 699.384 -3.36294 0.883273 0
M  V30 7351 H 698.707 -3.61233 1.7132 0
M  V30 7352 H 700.147 -4.15812 0.829255 0
M  V30 7353 C 698.606 -3.34348 -0.413851 0
M  V30 7354 O 699.136 -3.75216 -1.43444 0
M  V30 7355 N 697.342 -2.87459 -0.426082 0
M  V30 7356 H 696.889 -2.54397 0.40493 0
M  V30 7357 H 696.847 -2.8654 -1.29391 0
M  V30 7358 N 700.619 -1.13374 -1.09472 0
M  V30 7359 C 701.867 -0.893422 -1.8128 0
M  V30 7360 C 702.188 0.582029 -1.86111 0
M  V30 7361 O 701.458 1.42305 -1.34633 0
M  V30 7362 H 700.038 -0.327543 -0.67136 0
M  V30 7363 H 702.7 -1.43018 -1.32408 0
M  V30 7364 H 701.796 -1.28374 -2.84476 0
M  V30 7365 N 702.098 1.27442 -0.927168 0
M  V30 7366 C 703.046 2.28844 -0.416333 0
M  V30 7367 C 704.04 1.61882 0.499057 0
M  V30 7368 O 705.246 1.75969 0.378817 0
M  V30 7369 H 701.621 0.742989 -0.116065 0
M  V30 7370 H 703.592 2.69344 -1.28438 0
M  V30 7371 C 702.341 3.4626 0.316107 0
M  V30 7372 H 701.664 3.97999 -0.379082 0
M  V30 7373 H 703.104 4.19173 0.637975 0
M  V30 7374 C 701.563 3.00211 1.5289 0
M  V30 7375 O 702.093 3.03837 2.62766 0
M  V30 7376 N 700.299 2.55713 1.38054 0
M  V30 7377 H 699.846 2.52962 0.4866 0
M  V30 7378 H 699.804 2.25264 2.19325 0
M  V30 7379 N 703.576 0.692616 1.41565 0
M  V30 7380 C 704.825 0.219452 2.00503 0
M  V30 7381 C 705.138 -1.18683 1.55479 0
M  V30 7382 O 706.344 -1.75731 2.06956 0
M  V30 7383 C 704.8 0.341451 3.58277 0
M  V30 7384 C 704.408 1.75291 4.12283 0
M  V30 7385 C 706.152 -0.0720899 4.24439 0
M  V30 7386 C 704.059 1.82673 5.62481 0
M  V30 7387 H 702.989 0.0782874 0.749925 0
M  V30 7388 H 705.64 0.860386 1.62079 0
M  V30 7389 H 704.022 -0.367683 3.94289 0
M  V30 7390 H 705.196 2.49057 3.87695 0
M  V30 7391 H 703.511 2.11587 3.58636 0
M  V30 7392 H 706.108 -0.0373385 5.34687 0
M  V30 7393 H 706.451 -1.11034 4.0122 0
M  V30 7394 H 706.984 0.586663 3.9345 0
M  V30 7395 H 703.723 2.84539 5.90523 0
M  V30 7396 H 703.243 1.13288 5.89004 0
M  V30 7397 H 704.922 1.58827 6.27203 0
M  V30 7398 N 705.054 -1.51416 0.437162 0
M  V30 7399 C 706.302 -2.01687 -0.129108 0
M  V30 7400 C 706.623 -1.32329 -1.43227 0
M  V30 7401 O 705.893 -0.457796 -1.90476 0
M  V30 7402 H 704.473 -0.745277 -0.0507023 0
M  V30 7403 H 707.135 -1.86075 0.579828 0
M  V30 7404 H 706.231 -3.10605 -0.305141 0
M  V30 7405 N 706.532 -0.168513 -1.56696 0
M  V30 7406 C 707.762 0.482802 -2.0088 0
M  V30 7407 C 708.17 1.57537 -1.0478 0
M  V30 7408 O 707.513 1.83656 -0.0402746 0
M  V30 7409 C 707.575 1.1236 -3.4149 0
M  V30 7410 C 707.239 0.173027 -4.56672 0
M  V30 7411 C 708.236 -0.607565 -5.16338 0
M  V30 7412 C 705.921 0.0696691 -5.02252 0
M  V30 7413 C 707.915 -1.47874 -6.2001 0
M  V30 7414 C 705.602 -0.805096 -6.05773 0
M  V30 7415 C 706.6 -1.57789 -6.64524 0
M  V30 7416 O 706.288 -2.43804 -7.66038 0
M  V30 7417 H 706.02 0.128246 -0.663723 0
M  V30 7418 H 708.574 -0.266532 -2.03663 0
M  V30 7419 H 706.804 1.921 -3.35611 0
M  V30 7420 H 708.493 1.67683 -3.69645 0
M  V30 7421 H 709.259 -0.53787 -4.82008 0
M  V30 7422 H 705.138 0.660957 -4.56237 0
M  V30 7423 H 708.682 -2.0824 -6.65794 0
M  V30 7424 H 704.579 -0.876005 -6.39528 0
M  V30 7425 H 705.347 -2.37289 -7.83349 0
M  V30 7426 N 708.01 1.57248 0.105221 0
M  V30 7427 C 709.256 1.85845 0.811753 0
M  V30 7428 C 709.589 0.756219 1.78871 0
M  V30 7429 O 708.864 -0.236736 1.93054 0
M  V30 7430 C 709.147 3.25059 1.54947 0
M  V30 7431 C 709 4.45898 0.591185 0
M  V30 7432 C 710.319 3.6203 2.50245 0
M  V30 7433 H 707.438 0.675973 0.293649 0
M  V30 7434 H 710.08 1.89849 0.0756269 0
M  V30 7435 H 708.23 3.21776 2.17698 0
M  V30 7436 H 709.902 4.61291 -0.0285352 0
M  V30 7437 H 708.145 4.33693 -0.0962343 0
M  V30 7438 H 708.816 5.40009 1.1443 0
M  V30 7439 H 711.292 3.66192 1.97593 0
M  V30 7440 H 710.168 4.60389 2.98886 0
M  V30 7441 H 710.429 2.90176 3.33542 0
M  V30 7442 N 709.488 -0.375779 1.53054 0
M  V30 7443 C 710.438 -1.45965 1.75152 0
M  V30 7444 C 711.422 -1.49059 0.605823 0
M  V30 7445 O 712.614 -1.54472 0.864133 0
M  V30 7446 C 709.743 -2.83524 1.93569 0
M  V30 7447 C 708.829 -2.84949 3.1411 0
M  V30 7448 N 709.22 -2.56029 4.36214 0
M  V30 7449 C 707.518 -3.16113 3.14625 0
M  V30 7450 C 708.219 -2.64873 5.17897 0
M  V30 7451 N 707.195 -2.99159 4.53878 0
M  V30 7452 H 710.997 -1.22454 2.67175 0
M  V30 7453 H 708.511 -0.583867 1.51541 0
M  V30 7454 H 710.508 -3.61578 2.07525 0
M  V30 7455 H 709.168 -3.08008 1.02768 0
M  V30 7456 H 710.179 -2.29808 4.64121 0
M  V30 7457 H 706.856 -3.45977 2.3368 0
M  V30 7458 H 708.246 -2.45947 6.25268 0
M  V30 7459 N 710.966 -1.44241 -0.634997 0
M  V30 7460 C 712.194 -1.50296 -1.42193 0
M  V30 7461 C 712.609 -0.12658 -1.88375 0
M  V30 7462 O 711.966 0.86678 -1.60603 0
M  V30 7463 C 712.017 -2.46437 -2.64482 0
M  V30 7464 O 711.738 -3.78724 -2.20226 0
M  V30 7465 C 713.239 -2.61918 -3.57651 0
M  V30 7466 H 710.459 -0.509865 -0.43621 0
M  V30 7467 H 713.003 -1.89167 -0.776921 0
M  V30 7468 H 711.158 -2.10712 -3.25083 0
M  V30 7469 H 711.572 -4.30595 -2.9948 0
M  V30 7470 H 713.046 -3.33225 -4.40074 0
M  V30 7471 H 713.523 -1.67017 -4.06204 0
M  V30 7472 H 714.129 -2.98528 -3.02921 0
M  V30 7473 N 712.444 0.87505 -1.31075 0
M  V30 7474 C 713.692 1.62447 -1.20231 0
M  V30 7475 C 714.013 1.93506 0.240888 0
M  V30 7476 O 713.283 1.57847 1.16022 0
M  V30 7477 H 711.863 0.602207 -0.441991 0
M  V30 7478 H 714.525 1.04788 -1.64334 0
M  V30 7479 H 713.621 2.57031 -1.77036 0
M  V30 7480 N 713.922 1.13953 1.08869 0
M  V30 7481 C 714.885 0.824991 2.13838 0
M  V30 7482 C 715.885 -0.168198 1.59918 0
M  V30 7483 O 717.075 0.0595778 1.74098 0
M  V30 7484 C 714.207 0.228938 3.4013 0
M  V30 7485 H 715.4 1.75521 2.43171 0
M  V30 7486 H 712.953 0.94492 1.24503 0
M  V30 7487 H 713.688 -0.710227 3.16427 0
M  V30 7488 H 713.473 0.944243 3.80561 0
M  V30 7489 H 714.963 0.0259223 4.17592 0
M  V30 7490 N 715.4 -1.26948 0.933913 0
M  V30 7491 C 716.63 -1.97898 0.593279 0
M  V30 7492 C 717.038 -1.69806 -0.834412 0
M  V30 7493 O 716.381 -0.958704 -1.56699 0
M  V30 7494 C 716.443 -3.51657 0.746825 0
M  V30 7495 C 716.107 -4.03384 2.14779 0
M  V30 7496 C 717.104 -4.15682 3.12257 0
M  V30 7497 C 714.789 -4.37577 2.46641 0
M  V30 7498 C 716.783 -4.61455 4.39702 0
M  V30 7499 C 714.47 -4.8304 3.7432 0
M  V30 7500 C 715.468 -4.94939 4.70664 0
M  V30 7501 O 715.156 -5.39403 5.96071 0
M  V30 7502 H 714.888 -0.63814 0.223055 0
M  V30 7503 H 717.442 -1.62608 1.2549 0
M  V30 7504 H 715.672 -3.8669 0.0280889 0
M  V30 7505 H 717.361 -4.03821 0.410328 0
M  V30 7506 H 718.127 -3.89519 2.88964 0
M  V30 7507 H 714.006 -4.27554 1.72391 0
M  V30 7508 H 717.55 -4.70658 5.14905 0
M  V30 7509 H 713.447 -5.08646 3.97429 0
M  V30 7510 H 714.215 -5.57641 5.99148 0
M  V30 7511 N 716.879 -0.700114 -1.41195 0
M  V30 7512 C 718.29 -0.307249 -1.84154 0
M  V30 7513 C 718.641 1.15539 -1.58572 0
M  V30 7514 O 717.766 1.88744 -1.05852 0
M  V30 7515 C 718.361 -0.550872 -3.34292 0
M  V30 7516 C 716.92 -0.211877 -3.75803 0
M  V30 7517 C 716.067 -0.830915 -2.64558 0
M  V30 7518 H 719.018 -0.900431 -1.30683 0
M  V30 7519 H 719.039 0.188954 -3.80031 0
M  V30 7520 H 718.551 -1.61548 -3.5288 0
M  V30 7521 H 716.652 0.848283 -3.62815 0
M  V30 7522 H 716.765 -0.67007 -4.74391 0
M  V30 7523 H 715.129 -0.260155 -2.53368 0
M  V30 7524 H 715.912 -1.89948 -2.85963 0
M  V30 7525 N 718.357 1.51182 -0.445186 0
M  V30 7526 C 719.634 1.9478 0.178965 0
M  V30 7527 C 720.014 1.38428 1.59376 0
M  V30 7528 O 719.362 0.574552 2.21159 0
M  V30 7529 C 719.572 3.48683 0.148711 0
M  V30 7530 C 720.92 4.23152 0.35042 0
M  V30 7531 O 721.944 3.55479 0.226474 0
M  V30 7532 O 720.803 5.4322 0.597893 0
M  V30 7533 H 717.897 0.817387 0.12573 0
M  V30 7534 H 720.443 1.62051 -0.503729 0
M  V30 7535 H 719.215 3.82176 -0.84009 0
M  V30 7536 H 718.838 3.87875 0.873979 0
M  V30 7537 N 719.835 0.176821 1.56605 0
M  V30 7538 C 721.251 -0.179278 1.5859 0
M  V30 7539 C 721.451 -1.62433 1.19238 0
M  V30 7540 O 720.507 -2.35665 0.906552 0
M  V30 7541 C 721.82 0.106524 3.00511 0
M  V30 7542 C 723.368 0.0451731 3.12967 0
M  V30 7543 C 723.843 0.304038 4.5699 0
M  V30 7544 N 725.334 0.252008 4.62514 0
M  V30 7545 C 726.069 0.426404 5.71812 0
M  V30 7546 N 725.565 0.660155 6.89648 0
M  V30 7547 N 727.358 0.361926 5.60934 0
M  V30 7548 H 719.509 1.12001 1.8047 0
M  V30 7549 H 721.772 0.445679 0.836704 0
M  V30 7550 H 721.478 1.10778 3.33798 0
M  V30 7551 H 721.352 -0.599337 3.72408 0
M  V30 7552 H 723.739 -0.946662 2.79504 0
M  V30 7553 H 723.82 0.78383 2.43495 0
M  V30 7554 H 723.464 1.29311 4.91163 0
M  V30 7555 H 723.394 -0.455294 5.24628 0
M  V30 7556 H 725.885 0.0772102 3.77821 0
M  V30 7557 H 726.198 0.782529 7.68828 0
M  V30 7558 H 724.543 0.696835 6.91498 0
M  V30 7559 H 727.734 0.17986 4.67754 0
M  V30 7560 H 727.907 0.501263 6.46058 0
M  V30 7561 N 721.313 -1.57302 -0.09688 0
M  V30 7562 C 722.245 -1.98618 -1.14384 0
M  V30 7563 C 723.258 -0.888483 -1.36418 0
M  V30 7564 O 724.447 -1.16661 -1.35101 0
M  V30 7565 C 721.547 -2.28838 -2.49973 0
M  V30 7566 C 720.72 -3.60132 -2.48241 0
M  V30 7567 C 719.779 -3.7831 -3.65743 0
M  V30 7568 O 718.805 -4.50183 -3.48316 0
M  V30 7569 N 720.007 -3.18752 -4.85157 0
M  V30 7570 H 722.772 -2.8904 -0.792202 0
M  V30 7571 H 720.333 -1.59356 -0.285883 0
M  V30 7572 H 722.325 -2.38193 -3.27179 0
M  V30 7573 H 720.895 -1.44431 -2.77233 0
M  V30 7574 H 720.115 -3.61763 -1.56593 0
M  V30 7575 H 721.403 -4.46389 -2.4416 0
M  V30 7576 H 720.801 -2.60368 -5.0222 0
M  V30 7577 H 719.358 -3.33595 -5.59962 0
M  V30 7578 N 722.791 0.367657 -1.53252 0
M  V30 7579 C 724.016 1.13566 -1.73544 0
M  V30 7580 C 724.441 1.82329 -0.462344 0
M  V30 7581 O 723.799 1.71655 0.583472 0
M  V30 7582 C 723.847 2.14322 -2.89997 0
M  V30 7583 O 722.951 3.21359 -2.58461 0
M  V30 7584 H 722.292 0.329614 -0.576412 0
M  V30 7585 H 724.822 0.425417 -2.00128 0
M  V30 7586 H 724.832 2.57958 -3.16104 0
M  V30 7587 H 723.507 1.63664 -3.82344 0
M  V30 7588 H 722.084 2.8271 -2.43165 0
M  V30 7589 N 724.269 1.44576 0.627338 0
M  V30 7590 C 725.517 1.47267 1.38408 0
M  V30 7591 C 725.838 0.107971 1.94701 0
M  V30 7592 O 725.108 -0.860206 1.76004 0
M  V30 7593 H 723.688 0.542276 0.513756 0
M  V30 7594 H 726.35 1.80383 0.738099 0
M  V30 7595 H 725.446 2.20025 2.21349 0
M  V30 7596 N 725.747 -0.868086 1.31537 0
M  V30 7597 C 726.697 -1.96321 1.1594 0
M  V30 7598 C 727.681 -1.60748 0.0698962 0
M  V30 7599 O 728.873 -1.74524 0.295011 0
M  V30 7600 C 726.002 -3.32073 0.870789 0
M  V30 7601 C 725.088 -3.73907 2.00136 0
M  V30 7602 N 725.479 -3.87685 3.24859 0
M  V30 7603 C 723.777 -4.03433 1.90152 0
M  V30 7604 C 724.478 -4.23454 3.98825 0
M  V30 7605 N 723.454 -4.34242 3.27009 0
M  V30 7606 H 727.256 -2.05088 2.10514 0
M  V30 7607 H 724.77 -1.059 1.23122 0
M  V30 7608 H 726.767 -4.10279 0.740034 0
M  V30 7609 H 725.427 -3.24631 -0.0667068 0
M  V30 7610 H 726.438 -3.72363 3.59953 0
M  V30 7611 H 723.115 -4.0437 1.03879 0
M  V30 7612 H 724.505 -4.41696 5.06314 0
M  V30 7613 N 727.225 -1.14528 -1.08264 0
M  V30 7614 C 728.502 -0.825185 -1.77342 0
M  V30 7615 C 728.882 0.681037 -1.99813 0
M  V30 7616 O 728.23 1.62234 -1.60912 0
M  V30 7617 C 728.44 -1.62556 -3.08831 0
M  V30 7618 C 729.788 -1.82585 -3.83338 0
M  V30 7619 O 730.812 -1.59254 -3.18617 0
M  V30 7620 O 729.671 -2.21598 -4.99556 0
M  V30 7621 H 726.765 -0.302531 -0.769678 0
M  V30 7622 H 729.311 -1.25056 -1.14713 0
M  V30 7623 H 728.083 -2.64862 -2.88035 0
M  V30 7624 H 727.706 -1.1959 -3.79189 0
M  V30 7625 N 728.703 1.26451 -0.940633 0
M  V30 7626 C 730.114 1.75726 -0.630653 0
M  V30 7627 C 730.465 1.76631 0.854167 0
M  V30 7628 O 729.59 1.37807 1.66848 0
M  V30 7629 C 730.185 3.19114 -1.13805 0
M  V30 7630 C 728.744 3.66005 -0.878497 0
M  V30 7631 C 727.891 2.45505 -1.28928 0
M  V30 7632 H 730.842 1.12535 -1.119 0
M  V30 7633 H 730.863 3.77311 -0.491625 0
M  V30 7634 H 730.375 3.18424 -2.21874 0
M  V30 7635 H 728.476 3.72126 0.187833 0
M  V30 7636 H 728.589 4.54844 -1.50512 0
M  V30 7637 H 726.953 2.4467 -0.707713 0
M  V30 7638 H 727.736 2.47516 -2.37888 0
M  V30 7639 N 730.181 0.707592 1.40822 0
M  V30 7640 C 731.597 0.38034 1.55002 0
M  V30 7641 C 731.797 -1.11163 1.68062 0
M  V30 7642 O 730.853 -1.89761 1.66574 0
M  V30 7643 C 732.166 1.1394 2.78277 0
M  V30 7644 C 733.714 1.12492 2.92087 0
M  V30 7645 C 734.189 1.86597 4.18265 0
M  V30 7646 N 735.68 1.83626 4.25248 0
M  V30 7647 C 736.415 2.37794 5.21768 0
M  V30 7648 N 735.911 3.00485 6.24244 0
M  V30 7649 N 737.704 2.27982 5.13791 0
M  V30 7650 H 729.855 1.67511 1.3059 0
M  V30 7651 H 732.118 0.707579 0.630901 0
M  V30 7652 H 731.824 2.19398 2.74877 0
M  V30 7653 H 731.698 0.725793 3.70151 0
M  V30 7654 H 734.085 0.0785564 2.94995 0
M  V30 7655 H 734.166 1.57768 2.01353 0
M  V30 7656 H 733.81 2.91219 4.16118 0
M  V30 7657 H 733.74 1.38746 5.07993 0
M  V30 7658 H 736.231 1.3793 3.51829 0
M  V30 7659 H 736.544 3.39355 6.94304 0
M  V30 7660 H 734.889 3.04567 6.24711 0
M  V30 7661 H 738.08 1.78669 4.3266 0
M  V30 7662 H 738.253 2.70499 5.88841 0
M  V30 7663 N 731.66 -1.50943 0.453197 0
M  V30 7664 C 732.59 -2.31005 -0.34044 0
M  V30 7665 C 733.571 -1.37112 -1.00669 0
M  V30 7666 O 734.756 -1.66033 -1.0073 0
M  V30 7667 C 731.886 -3.16358 -1.433 0
M  V30 7668 C 730.84 -4.18658 -0.889363 0
M  V30 7669 C 730.166 -4.92633 -2.07887 0
M  V30 7670 C 731.466 -5.22227 0.0871142 0
M  V30 7671 H 733.16 -2.97601 0.327723 0
M  V30 7672 H 730.706 -1.43119 0.159054 0
M  V30 7673 H 732.659 -3.71155 -1.99555 0
M  V30 7674 H 731.383 -2.47613 -2.12968 0
M  V30 7675 H 730.042 -3.64936 -0.348915 0
M  V30 7676 H 729.69 -4.20376 -2.76211 0
M  V30 7677 H 729.39 -5.61819 -1.72143 0
M  V30 7678 H 730.914 -5.50258 -2.64666 0
M  V30 7679 H 732.328 -5.72001 -0.385656 0
M  V30 7680 H 730.725 -5.99032 0.357926 0
M  V30 7681 H 731.795 -4.74077 1.01879 0
M  V30 7682 N 733.138 -0.185124 -1.56509 0
M  V30 7683 C 734.549 0.329221 -1.83774 0
M  V30 7684 C 734.9 1.62093 -1.10545 0
M  V30 7685 O 734.025 2.13334 -0.36298 0
M  V30 7686 C 734.62 0.604099 -3.33371 0
M  V30 7687 C 733.179 1.06284 -3.61083 0
M  V30 7688 C 732.326 0.10608 -2.77097 0
M  V30 7689 H 735.277 -0.409116 -1.53336 0
M  V30 7690 H 735.298 1.45458 -3.51599 0
M  V30 7691 H 734.81 -0.336201 -3.86641 0
M  V30 7692 H 732.911 2.01777 -3.13236 0
M  V30 7693 H 733.024 0.962453 -4.69333 0
M  V30 7694 H 731.388 0.606082 -2.47384 0
M  V30 7695 H 732.171 -0.828486 -3.33153 0
M  V30 7696 N 734.616 1.57351 0.0885366 0
M  V30 7697 C 735.862 1.86696 0.791996 0
M  V30 7698 C 736.195 0.775148 1.78059 0
M  V30 7699 O 735.47 -0.216247 1.93294 0
M  V30 7700 C 735.753 3.26684 1.51491 0
M  V30 7701 C 735.606 4.465 0.543858 0
M  V30 7702 C 736.925 3.64664 2.46391 0
M  V30 7703 H 734.044 0.679049 0.286463 0
M  V30 7704 H 736.686 1.89919 0.0554866 0
M  V30 7705 H 734.836 3.24067 2.14273 0
M  V30 7706 H 736.508 4.61235 -0.0774597 0
M  V30 7707 H 734.751 4.33567 -0.142228 0
M  V30 7708 H 735.422 5.41192 1.08696 0
M  V30 7709 H 737.898 3.68267 1.93698 0
M  V30 7710 H 736.774 4.63534 2.93986 0
M  V30 7711 H 737.035 2.93698 3.30445 0
M  V30 7712 N 736.094 -0.359525 1.53444 0
M  V30 7713 C 737.505 -0.936009 1.61542 0
M  V30 7714 C 737.856 -1.90069 0.486633 0
M  V30 7715 O 736.981 -2.12929 -0.386047 0
M  V30 7716 C 737.576 -1.70441 2.92806 0
M  V30 7717 C 736.135 -2.23015 3.03218 0
M  V30 7718 C 735.282 -1.04438 2.56881 0
M  V30 7719 H 738.233 -0.138134 1.58098 0
M  V30 7720 H 738.254 -2.56609 2.80948 0
M  V30 7721 H 737.766 -1.00205 3.74941 0
M  V30 7722 H 735.867 -2.96475 2.25684 0
M  V30 7723 H 735.98 -2.50481 4.08407 0
M  V30 7724 H 734.344 -1.41314 2.11902 0
M  V30 7725 H 735.127 -0.356905 3.4144 0
M  V30 7726 N 737.572 -1.44907 -0.619662 0
M  V30 7727 C 738.82 -1.47999 -1.37625 0
M  V30 7728 C 739.141 -0.118295 -1.94641 0
M  V30 7729 O 738.411 0.85086 -1.76457 0
M  V30 7730 H 736.991 -0.544993 -0.510873 0
M  V30 7731 H 739.653 -1.80772 -0.728522 0
M  V30 7732 H 738.749 -2.21196 -2.20179 0
M  V30 7733 N 739.05 0.861098 -1.31996 0
M  V30 7734 C 740.278 1.6474 -1.25173 0
M  V30 7735 C 740.693 1.87926 0.181425 0
M  V30 7736 O 740.05 1.4437 1.1164 0
M  V30 7737 C 740.101 3.01036 -2.0015 0
M  V30 7738 O 739.822 2.7888 -3.37872 0
M  V30 7739 C 741.323 3.95481 -2.00273 0
M  V30 7740 H 738.543 0.513314 -0.432146 0
M  V30 7741 H 741.087 1.07419 -1.74016 0
M  V30 7742 H 739.242 3.55021 -1.55046 0
M  V30 7743 H 739.656 3.65514 -3.76165 0
M  V30 7744 H 741.13 4.88403 -2.57229 0
M  V30 7745 H 741.607 4.27957 -0.987407 0
M  V30 7746 H 742.213 3.47433 -2.45296 0
M  V30 7747 N 740.528 1.15101 1.07655 0
M  V30 7748 C 741.776 0.922149 1.79836 0
M  V30 7749 C 742.097 -0.552346 1.87014 0
M  V30 7750 O 741.367 -1.40145 1.3688 0
M  V30 7751 H 739.947 0.338182 0.666064 0
M  V30 7752 H 742.609 1.45107 1.30115 0
M  V30 7753 H 741.705 1.32883 2.82398 0
M  V30 7754 N 742.006 -1.2595 0.947325 0
M  V30 7755 C 742.953 -2.26159 0.460497 0
M  V30 7756 C 743.923 -1.58919 -0.483125 0
M  V30 7757 O 745.108 -1.86603 -0.397983 0
M  V30 7758 C 742.248 -3.441 -0.26247 0
M  V30 7759 C 741.361 -4.25999 0.717539 0
M  V30 7760 C 740.496 -5.31193 -0.0272486 0
M  V30 7761 C 739.535 -6.04774 0.944177 0
M  V30 7762 N 738.672 -7.01721 0.230741 0
M  V30 7763 H 743.512 -2.67173 1.31995 0
M  V30 7764 H 741.049 -1.31358 0.662088 0
M  V30 7765 H 743.007 -4.11317 -0.698137 0
M  V30 7766 H 741.637 -3.03983 -1.08602 0
M  V30 7767 H 740.689 -3.58513 1.27171 0
M  V30 7768 H 742.001 -4.76981 1.45913 0
M  V30 7769 H 741.155 -6.04451 -0.521903 0
M  V30 7770 H 739.894 -4.81066 -0.801682 0
M  V30 7771 H 738.899 -5.30338 1.4499 0
M  V30 7772 H 740.124 -6.56991 1.71872 0
M  V30 7773 H 738.07 -6.53895 -0.525088 0
M  V30 7774 H 737.987 -7.50484 0.911556 0
M  V30 7775 H 739.255 -7.79122 -0.242616 0
M  V30 7776 N 743.484 -0.715051 -1.40445 0
M  V30 7777 C 744.73 -0.263528 -2.01686 0
M  V30 7778 C 745.085 1.13052 -1.55683 0
M  V30 7779 O 744.378 1.75588 -0.766762 0
M  V30 7780 C 744.572 -0.281791 -3.56287 0
M  V30 7781 C 744.401 -1.67607 -4.17298 0
M  V30 7782 C 743.171 -2.2836 -4.50755 0
M  V30 7783 C 745.369 -2.62621 -4.42193 0
M  V30 7784 N 743.351 -3.6015 -4.97157 0
M  V30 7785 C 744.722 -3.79116 -4.90582 0
M  V30 7786 C 746.777 -2.60639 -4.24231 0
M  V30 7787 C 745.48 -4.93937 -5.22895 0
M  V30 7788 C 747.506 -3.74587 -4.57644 0
M  V30 7789 C 746.868 -4.89815 -5.06222 0
M  V30 7790 H 742.967 -0.142252 -0.768953 0
M  V30 7791 H 745.551 -0.936732 -1.70685 0
M  V30 7792 H 743.722 0.360975 -3.86719 0
M  V30 7793 H 745.454 0.186393 -4.04271 0
M  V30 7794 H 742.209 -1.80463 -4.3787 0
M  V30 7795 H 742.633 -4.27757 -5.24741 0
M  V30 7796 H 747.275 -1.72759 -3.85894 0
M  V30 7797 H 744.993 -5.82462 -5.60146 0
M  V30 7798 H 748.579 -3.74328 -4.45387 0
M  V30 7799 H 747.459 -5.76525 -5.3159 0
M  V30 7800 N 744.962 1.50701 -0.461195 0
M  V30 7801 C 746.239 1.94958 0.158296 0
M  V30 7802 C 746.619 1.40111 1.57899 0
M  V30 7803 O 745.967 0.597976 2.20537 0
M  V30 7804 C 746.177 3.48821 0.11172 0
M  V30 7805 C 747.525 4.23499 0.30552 0
M  V30 7806 O 748.549 3.557 0.188758 0
M  V30 7807 O 747.408 5.43823 0.540244 0
M  V30 7808 H 744.502 0.818674 0.117054 0
M  V30 7809 H 747.048 1.61508 -0.520888 0
M  V30 7810 H 745.82 3.81263 -0.880577 0
M  V30 7811 H 745.443 3.88781 0.832791 0
M  V30 7812 N 746.441 0.193421 1.56409 0
M  V30 7813 C 747.687 -0.43983 1.98588 0
M  V30 7814 C 748.042 -1.59353 1.07816 0
M  V30 7815 O 747.335 -1.9121 0.122226 0
M  V30 7816 C 747.529 -0.949718 3.44551 0
M  V30 7817 C 747.358 0.153045 4.49439 0
M  V30 7818 C 746.128 0.610119 5.01603 0
M  V30 7819 C 748.326 0.961397 5.05234 0
M  V30 7820 N 746.308 1.69088 5.90155 0
M  V30 7821 C 747.679 1.8916 5.90439 0
M  V30 7822 C 749.734 1.004 4.87672 0
M  V30 7823 C 748.437 2.86086 6.5996 0
M  V30 7824 C 750.463 1.96131 5.57931 0
M  V30 7825 C 749.825 2.87895 6.42881 0
M  V30 7826 H 745.924 -0.128415 0.771384 0
M  V30 7827 H 748.508 0.29873 1.92395 0
M  V30 7828 H 746.679 -1.65772 3.51246 0
M  V30 7829 H 748.411 -1.55344 3.73698 0
M  V30 7830 H 745.166 0.203771 4.73161 0
M  V30 7831 H 745.59 2.23241 6.39134 0
M  V30 7832 H 750.232 0.308536 4.21673 0
M  V30 7833 H 747.95 3.56609 7.25159 0
M  V30 7834 H 751.536 2.00066 5.46319 0
M  V30 7835 H 750.416 3.60763 6.9629 0
M  V30 7836 N 747.919 -1.57396 -0.0801906 0
M  V30 7837 C 748.866 -2.03107 -1.09618 0
M  V30 7838 C 749.836 -0.910118 -1.38946 0
M  V30 7839 O 751.021 -1.17719 -1.50156 0
M  V30 7840 C 748.161 -2.47293 -2.40708 0
M  V30 7841 C 747.274 -3.72972 -2.17982 0
M  V30 7842 C 746.409 -4.05975 -3.42576 0
M  V30 7843 C 745.448 -5.24719 -3.15177 0
M  V30 7844 N 744.585 -5.53401 -4.32078 0
M  V30 7845 H 749.425 -2.89677 -0.69939 0
M  V30 7846 H 746.962 -1.43263 -0.333785 0
M  V30 7847 H 748.92 -2.7096 -3.17232 0
M  V30 7848 H 747.55 -1.63713 -2.78205 0
M  V30 7849 H 746.602 -3.56693 -1.32189 0
M  V30 7850 H 747.914 -4.59638 -1.93738 0
M  V30 7851 H 747.068 -4.30498 -4.275 0
M  V30 7852 H 745.807 -3.17859 -3.69887 0
M  V30 7853 H 744.812 -5 -2.28648 0
M  V30 7854 H 746.037 -6.14445 -2.89197 0
M  V30 7855 H 743.983 -4.68245 -4.59437 0
M  V30 7856 H 743.9 -6.34469 -4.11078 0
M  V30 7857 H 745.168 -5.8247 -5.18024 0
M  V30 7858 N 749.397 0.351382 -1.53633 0
M  V30 7859 C 750.645 1.09034 -1.70165 0
M  V30 7860 C 750.966 1.89413 -0.463422 0
M  V30 7861 O 750.236 1.888 0.522624 0
M  V30 7862 H 748.816 0.405522 -0.627344 0
M  V30 7863 H 751.478 0.394554 -1.90865 0
M  V30 7864 H 750.574 1.77215 -2.56907 0
M  V30 7865 N 750.875 1.45233 0.611969 0
M  V30 7866 C 751.805 1.5641 1.73373 0
M  V30 7867 C 752.786 0.415896 1.64937 0
M  V30 7868 O 753.971 0.638478 1.83404 0
M  V30 7869 C 751.101 1.52627 3.11965 0
M  V30 7870 C 750.055 2.66119 3.35208 0
M  V30 7871 C 749.381 2.4739 4.74028 0
M  V30 7872 C 750.681 4.08157 3.25891 0
M  V30 7873 H 752.375 2.50307 1.64277 0
M  V30 7874 H 749.921 1.20467 0.788904 0
M  V30 7875 H 751.874 1.59043 3.90235 0
M  V30 7876 H 750.598 0.552564 3.21892 0
M  V30 7877 H 749.257 2.59123 2.59327 0
M  V30 7878 H 748.905 1.48168 4.80682 0
M  V30 7879 H 748.605 3.23494 4.90536 0
M  V30 7880 H 750.129 2.55653 5.54503 0
M  V30 7881 H 751.543 4.1642 3.9404 0
M  V30 7882 H 749.94 4.84617 3.5393 0
M  V30 7883 H 751.01 4.30374 2.23397 0
M  V30 7884 N 752.353 -0.854086 1.3245 0
M  V30 7885 C 753.283 -1.97827 1.24044 0
M  V30 7886 C 754.264 -1.69646 0.124166 0
M  V30 7887 O 755.449 -1.91687 0.31143 0
M  V30 7888 C 752.579 -3.33673 0.963324 0
M  V30 7889 C 751.533 -3.76207 2.04089 0
M  V30 7890 C 750.859 -5.0969 1.61618 0
M  V30 7891 C 752.159 -3.91612 3.45597 0
M  V30 7892 H 753.853 -2.05118 2.18099 0
M  V30 7893 H 751.399 -0.985489 1.04996 0
M  V30 7894 H 753.352 -4.11871 0.891061 0
M  V30 7895 H 752.076 -3.26597 -0.0128649 0
M  V30 7896 H 750.735 -3.0026 2.10332 0
M  V30 7897 H 750.383 -4.99072 0.627418 0
M  V30 7898 H 750.083 -5.3912 2.33717 0
M  V30 7899 H 751.607 -5.90381 1.55829 0
M  V30 7900 H 753.021 -4.60163 3.4194 0
M  V30 7901 H 751.418 -4.3246 4.16051 0
M  V30 7902 H 752.488 -2.9451 3.85217 0
M  V30 7903 N 753.831 -1.1567 -1.07043 0
M  V30 7904 C 755.242 -0.942408 -1.61169 0
M  V30 7905 C 755.593 0.515537 -1.89306 0
M  V30 7906 O 754.718 1.38726 -1.66084 0
M  V30 7907 C 755.313 -1.70431 -2.92812 0
M  V30 7908 C 753.872 -1.53521 -3.43669 0
M  V30 7909 C 753.019 -1.7179 -2.17678 0
M  V30 7910 H 755.97 -1.3065 -0.9009 0
M  V30 7911 H 755.991 -1.17566 -3.61882 0
M  V30 7912 H 755.503 -2.76538 -2.72302 0
M  V30 7913 H 753.604 -0.498224 -3.69254 0
M  V30 7914 H 753.717 -2.31422 -4.19501 0
M  V30 7915 H 752.081 -1.14468 -2.27529 0
M  V30 7916 H 752.864 -2.79269 -1.99659 0
M  V30 7917 N 755.309 1.25446 -0.953992 0
M  V30 7918 C 756.556 1.93143 -0.608429 0
M  V30 7919 C 756.884 1.74727 0.854451 0
M  V30 7920 O 756.139 1.0855 1.62836 0
M  V30 7921 C 756.438 3.45555 -0.912496 0
M  V30 7922 C 756.104 3.84126 -2.36131 0
M  V30 7923 C 754.766 3.94367 -2.75732 0
M  V30 7924 C 757.118 4.0324 -3.30223 0
M  V30 7925 C 754.446 4.21127 -4.08496 0
M  V30 7926 C 756.798 4.31493 -4.62598 0
M  V30 7927 C 755.462 4.3995 -5.01996 0
M  V30 7928 H 754.732 0.706762 -0.22264 0
M  V30 7929 H 757.379 1.49005 -1.20291 0
M  V30 7930 H 755.684 3.91091 -0.235618 0
M  V30 7931 H 757.381 3.9612 -0.623714 0
M  V30 7932 H 753.971 3.76711 -2.04418 0
M  V30 7933 H 758.155 3.94744 -3.00817 0
M  V30 7934 H 753.411 4.2589 -4.38665 0
M  V30 7935 H 757.585 4.45227 -5.35486 0
M  V30 7936 H 755.212 4.60439 -6.04896 0
M  V30 7937 N 756.787 0.722489 1.40064 0
M  V30 7938 C 757.697 0.0755984 2.34478 0
M  V30 7939 C 758.713 -0.736046 1.57665 0
M  V30 7940 O 759.889 -0.667407 1.9002 0
M  V30 7941 C 756.954 -0.830075 3.36616 0
M  V30 7942 C 756.015 -0.00759884 4.29299 0
M  V30 7943 C 755.248 -0.870139 5.26559 0
M  V30 7944 O 755.471 -2.10921 5.2997 0
M  V30 7945 O 754.405 -0.305454 6.01124 0
M  V30 7946 H 758.231 0.854545 2.9143 0
M  V30 7947 H 755.816 0.483032 1.41376 0
M  V30 7948 H 757.698 -1.34864 3.99236 0
M  V30 7949 H 756.373 -1.58805 2.82069 0
M  V30 7950 H 755.28 0.556199 3.69942 0
M  V30 7951 H 756.613 0.712312 4.87018 0
M  V30 7952 N 758.265 -1.50454 0.469181 0
M  V30 7953 C 759.198 -2.25149 -0.371928 0
M  V30 7954 C 760.176 -1.28382 -0.997845 0
M  V30 7955 O 761.36 -1.57599 -1.03415 0
M  V30 7956 C 758.487 -3.02629 -1.52097 0
M  V30 7957 C 757.533 -4.14305 -1.01262 0
M  V30 7958 S 758.366 -5.35453 0.0711459 0
M  V30 7959 C 759.522 -6.1648 -1.08181 0
M  V30 7960 H 759.755 -2.96142 0.262134 0
M  V30 7961 H 757.288 -1.52296 0.254042 0
M  V30 7962 H 759.246 -3.47861 -2.17952 0
M  V30 7963 H 757.907 -2.31165 -2.12654 0
M  V30 7964 H 757.1 -4.67913 -1.87278 0
M  V30 7965 H 756.702 -3.71499 -0.431804 0
M  V30 7966 H 758.994 -6.47497 -1.99382 0
M  V30 7967 H 759.937 -7.05679 -0.585028 0
M  V30 7968 H 760.345 -5.48492 -1.33478 0
M  V30 7969 N 759.743 -0.201713 -1.56304 0
M  V30 7970 C 760.691 0.733133 -2.20744 0
M  V30 7971 C 761.685 1.2148 -1.18064 0
M  V30 7972 O 762.891 1.17692 -1.36193 0
M  V30 7973 H 759.266 0.254789 -0.707521 0
M  V30 7974 H 761.237 0.165996 -2.97938 0
M  V30 7975 C 759.986 1.93925 -2.88597 0
M  V30 7976 H 759.309 1.5777 -3.67353 0
M  V30 7977 H 760.749 2.57158 -3.37114 0
M  V30 7978 C 759.208 2.78219 -1.89989 0
M  V30 7979 O 759.738 3.76353 -1.40432 0
M  V30 7980 N 757.944 2.43847 -1.58072 0
M  V30 7981 H 757.491 1.64103 -1.98565 0
M  V30 7982 H 757.449 3.0053 -0.923524 0
M  V30 7983 N 761.222 1.57436 0.0718424 0
M  V30 7984 C 762.633 1.75975 0.623678 0
M  V30 7985 C 762.984 0.827155 1.77912 0
M  V30 7986 O 762.109 0.0112425 2.16397 0
M  V30 7987 C 762.704 3.1911 1.13816 0
M  V30 7988 C 761.263 3.38994 1.63586 0
M  V30 7989 C 760.41 2.71684 0.555261 0
M  V30 7990 H 763.361 1.57948 -0.154328 0
M  V30 7991 H 763.382 3.23267 2.00696 0
M  V30 7992 H 762.894 3.86962 0.296998 0
M  V30 7993 H 760.995 2.76256 2.50027 0
M  V30 7994 H 761.108 4.47436 1.71283 0
M  V30 7995 H 759.472 2.34236 1.00029 0
M  V30 7996 H 760.255 3.42191 -0.275712 0
M  V30 7997 N 762.7 -0.34323 1.53817 0
M  V30 7998 C 763.647 -1.42153 1.81827 0
M  V30 7999 C 764.617 -1.52251 0.663996 0
M  V30 8000 O 765.802 -1.67784 0.908461 0
M  V30 8001 C 762.942 -2.78799 2.03384 0
M  V30 8002 C 762.055 -2.7749 3.31094 0
M  V30 8003 C 761.19 -4.05856 3.42717 0
M  V30 8004 C 760.229 -3.98776 4.64375 0
M  V30 8005 N 759.366 -5.18833 4.73029 0
M  V30 8006 H 764.206 -1.17567 2.73829 0
M  V30 8007 H 761.743 -0.569506 1.35628 0
M  V30 8008 H 763.701 -3.58211 2.13872 0
M  V30 8009 H 762.331 -3.01736 1.14696 0
M  V30 8010 H 761.383 -1.90182 3.29446 0
M  V30 8011 H 762.695 -2.68137 4.206 0
M  V30 8012 H 761.849 -4.93691 3.52638 0
M  V30 8013 H 760.588 -4.1799 2.51267 0
M  V30 8014 H 759.593 -3.09325 4.5453 0
M  V30 8015 H 760.818 -3.88224 5.57189 0
M  V30 8016 H 758.764 -5.31511 3.84489 0
M  V30 8017 H 758.681 -5.11737 5.56472 0
M  V30 8018 H 759.949 -6.08439 4.87261 0
M  V30 8019 N 764.178 -1.45556 -0.604258 0
M  V30 8020 C 765.424 -1.49968 -1.36519 0
M  V30 8021 C 765.757 -0.142236 -1.93678 0
M  V30 8022 O 765.032 0.843717 -1.75247 0
M  V30 8023 C 765.315 -2.58146 -2.51063 0
M  V30 8024 C 765.168 -4.03346 -1.99078 0
M  V30 8025 C 766.487 -2.62581 -3.53184 0
M  V30 8026 H 763.606 -0.545993 -0.495036 0
M  V30 8027 H 766.248 -1.77382 -0.680845 0
M  V30 8028 H 764.398 -2.34901 -3.09441 0
M  V30 8029 H 766.07 -4.37811 -1.45323 0
M  V30 8030 H 764.313 -4.13845 -1.30055 0
M  V30 8031 H 764.984 -4.74731 -2.81664 0
M  V30 8032 H 767.46 -2.83419 -3.04652 0
M  V30 8033 H 766.336 -3.40131 -4.30816 0
M  V30 8034 H 766.597 -1.67798 -4.09019 0
M  V30 8035 N 765.656 0.84705 -1.32902 0
M  V30 8036 C 766.886 1.63166 -1.26729 0
M  V30 8037 C 767.294 1.88474 0.165595 0
M  V30 8038 O 766.637 1.45947 1.11558 0
M  V30 8039 C 766.699 3.0103 -1.96522 0
M  V30 8040 C 766.363 2.9873 -3.45846 0
M  V30 8041 C 767.36 2.75032 -4.41196 0
M  V30 8042 C 765.045 3.19125 -3.87898 0
M  V30 8043 C 767.039 2.71743 -5.76571 0
M  V30 8044 C 764.726 3.15462 -5.2338 0
M  V30 8045 C 765.724 2.91801 -6.17528 0
M  V30 8046 O 765.412 2.88027 -7.5053 0
M  V30 8047 H 765.144 0.51469 -0.438258 0
M  V30 8048 H 767.698 1.06383 -1.75704 0
M  V30 8049 H 765.928 3.59634 -1.42128 0
M  V30 8050 H 767.617 3.61821 -1.83958 0
M  V30 8051 H 768.383 2.59034 -4.10032 0
M  V30 8052 H 764.262 3.36565 -3.15032 0
M  V30 8053 H 767.806 2.53194 -6.5003 0
M  V30 8054 H 763.703 3.31006 -5.54171 0
M  V30 8055 H 764.471 3.03927 -7.59981 0
M  V30 8056 N 767.134 1.16236 1.06428 0
M  V30 8057 C 768.082 0.863669 2.15971 0
M  V30 8058 C 769.076 -0.166723 1.68578 0
M  V30 8059 O 770.282 -0.0208425 1.79988 0
M  V30 8060 H 766.657 0.261684 0.705 0
M  V30 8061 H 768.628 1.79498 2.38376 0
M  V30 8062 C 767.377 0.379697 3.45621 0
M  V30 8063 H 766.7 1.16399 3.82481 0
M  V30 8064 H 768.14 0.209458 4.23482 0
M  V30 8065 C 766.599 -0.900499 3.24642 0
M  V30 8066 O 767.129 -1.97004 3.50074 0
M  V30 8067 N 765.335 -0.843721 2.78082 0
M  V30 8068 H 764.882 0.0268429 2.57586 0
M  V30 8069 H 764.84 -1.70078 2.64425 0
M  V30 8070 N 768.612 -1.24939 0.960631 0
M  V30 8071 C 770.023 -1.74701 0.658529 0
M  V30 8072 C 770.374 -1.77967 -0.825959 0
M  V30 8073 O 769.499 -1.40444 -1.64634 0
M  V30 8074 C 770.094 -3.17263 1.18867 0
M  V30 8075 C 768.653 -3.64561 0.936614 0
M  V30 8076 C 767.8 -2.43423 1.32817 0
M  V30 8077 H 770.751 -1.10741 1.13676 0
M  V30 8078 H 770.772 -3.76481 0.551589 0
M  V30 8079 H 770.284 -3.14854 2.26912 0
M  V30 8080 H 768.385 -3.72378 -0.128608 0
M  V30 8081 H 768.498 -4.52392 1.57729 0
M  V30 8082 H 766.862 -2.43513 0.746548 0
M  V30 8083 H 767.645 -2.437 2.41796 0
M  V30 8084 N 770.09 -0.729906 -1.39679 0
M  V30 8085 C 771.022 -0.0470588 -2.29152 0
M  V30 8086 C 772.035 0.708808 -1.4656 0
M  V30 8087 O 773.224 0.553815 -1.69691 0
M  V30 8088 C 770.324 0.957612 -3.25089 0
M  V30 8089 C 769.497 0.264321 -4.36601 0
M  V30 8090 C 768.556 1.17638 -5.12882 0
M  V30 8091 O 767.582 0.655777 -5.6541 0
M  V30 8092 N 768.784 2.50649 -5.23598 0
M  V30 8093 H 771.549 -0.815364 -2.88395 0
M  V30 8094 H 769.11 -0.578707 -1.51204 0
M  V30 8095 H 771.102 1.57026 -3.72995 0
M  V30 8096 H 769.672 1.62716 -2.66912 0
M  V30 8097 H 768.892 -0.528732 -3.90638 0
M  V30 8098 H 770.18 -0.216344 -5.0834 0
M  V30 8099 H 769.578 2.95427 -4.82431 0
M  V30 8100 H 768.135 3.07022 -5.74961 0
M  V30 8101 N 771.568 1.50203 -0.477153 0
M  V30 8102 C 772.793 2.07263 0.0754986 0
M  V30 8103 C 773.218 1.33801 1.32208 0
M  V30 8104 O 772.576 0.387482 1.77111 0
M  V30 8105 C 772.624 3.59028 0.336348 0
M  V30 8106 O 771.728 3.87339 1.4157 0
M  V30 8107 H 771.069 0.663815 -0.015662 0
M  V30 8108 H 773.599 1.93321 -0.669936 0
M  V30 8109 H 773.609 4.03927 0.575034 0
M  V30 8110 H 772.284 4.11912 -0.574551 0
M  V30 8111 H 770.861 3.54272 1.16385 0
M  V30 8112 N 773.046 0.209999 1.56195 0
M  V30 8113 C 774.294 -0.423974 1.97603 0
M  V30 8114 C 774.615 -1.61112 1.09854 0
M  V30 8115 O 773.885 -1.95134 0.173032 0
M  V30 8116 H 772.465 -0.159629 0.729745 0
M  V30 8117 H 775.127 0.300205 1.92574 0
M  V30 8118 H 774.223 -0.75809 3.02753 0
M  V30 8119 N 774.524 -1.57472 -0.0634922 0
M  V30 8120 C 775.754 -1.91608 -0.772645 0
M  V30 8121 C 776.162 -0.805019 -1.71219 0
M  V30 8122 O 775.505 0.229941 -1.82255 0
M  V30 8123 C 775.567 -3.21281 -1.61304 0
M  V30 8124 C 775.231 -4.49177 -0.841973 0
M  V30 8125 C 776.228 -5.19661 -0.157494 0
M  V30 8126 C 773.913 -4.9578 -0.80669 0
M  V30 8127 C 775.907 -6.35006 0.551948 0
M  V30 8128 C 773.594 -6.11028 -0.0934812 0
M  V30 8129 C 774.592 -6.80493 0.58463 0
M  V30 8130 O 774.28 -7.93542 1.28633 0
M  V30 8131 H 774.012 -0.637685 -0.224352 0
M  V30 8132 H 776.566 -2.05369 -0.0355279 0
M  V30 8133 H 774.796 -3.03752 -2.39315 0
M  V30 8134 H 776.485 -3.41003 -2.20162 0
M  V30 8135 H 777.251 -4.84681 -0.176006 0
M  V30 8136 H 773.13 -4.41579 -1.32397 0
M  V30 8137 H 776.674 -6.89161 1.0818 0
M  V30 8138 H 772.571 -6.45459 -0.0729258 0
M  V30 8139 H 773.339 -8.09708 1.19646 0
M  V30 8140 N 776.003 0.335068 -1.53997 0
M  V30 8141 C 777.252 1.07182 -1.70865 0
M  V30 8142 C 777.565 1.89541 -0.483078 0
M  V30 8143 O 778.771 2.66219 -0.532879 0
M  V30 8144 C 777.227 1.95497 -3.02174 0
M  V30 8145 C 776.835 1.18304 -4.32097 0
M  V30 8146 C 778.579 2.68978 -3.28407 0
M  V30 8147 C 776.486 2.05699 -5.54474 0
M  V30 8148 H 775.416 0.403857 -0.636722 0
M  V30 8149 H 778.067 0.33076 -1.80494 0
M  V30 8150 H 776.449 2.73456 -2.86423 0
M  V30 8151 H 777.623 0.451969 -4.58578 0
M  V30 8152 H 775.938 0.565556 -4.12541 0
M  V30 8153 H 778.535 3.34651 -4.17029 0
M  V30 8154 H 778.878 3.36 -2.45784 0
M  V30 8155 H 779.411 1.98087 -3.44973 0
M  V30 8156 H 776.15 1.43204 -6.39666 0
M  V30 8157 H 775.67 2.76572 -5.32229 0
M  V30 8158 H 777.349 2.64554 -5.90441 0
M  V30 8159 N 777.481 1.45874 0.596531 0
M  V30 8160 C 778.444 1.54988 1.68853 0
M  V30 8161 C 779.444 0.428302 1.54991 0
M  V30 8162 O 780.634 0.692158 1.59859 0
M  V30 8163 C 777.766 1.457 3.08195 0
M  V30 8164 H 778.959 2.52294 1.62135 0
M  V30 8165 H 776.512 1.33479 0.813206 0
M  V30 8166 H 777.247 0.496204 3.20481 0
M  V30 8167 H 777.032 2.27061 3.19665 0
M  V30 8168 H 778.522 1.55133 3.87716 0
M  V30 8169 N 778.959 -0.83999 1.33349 0
M  V30 8170 C 779.907 -1.97113 1.23488 0
M  V30 8171 C 780.901 -1.68849 0.136503 0
M  V30 8172 O 782.107 -1.77476 0.300389 0
M  V30 8173 H 778.482 -0.647049 0.383185 0
M  V30 8174 H 780.453 -2.02554 2.19122 0
M  V30 8175 C 779.202 -3.33314 0.989815 0
M  V30 8176 H 778.525 -3.556 1.82726 0
M  V30 8177 H 779.965 -4.12963 0.961123 0
M  V30 8178 C 778.424 -3.35496 -0.307272 0
M  V30 8179 O 778.954 -3.79589 -1.31434 0
M  V30 8180 N 777.16 -2.88669 -0.334414 0
M  V30 8181 H 776.707 -2.5298 0.485659 0
M  V30 8182 H 776.665 -2.90512 -1.20209 0
M  V30 8183 N 780.437 -1.16799 -1.0581 0
M  V30 8184 C 781.683 -0.963929 -1.79109 0
M  V30 8185 C 782.038 0.502569 -1.8572 0
M  V30 8186 O 781.331 1.36813 -1.34137 0
M  V30 8187 C 781.525 -1.53111 -3.22942 0
M  V30 8188 C 781.354 -3.05123 -3.30348 0
M  V30 8189 C 780.124 -3.73804 -3.39998 0
M  V30 8190 C 782.322 -4.02777 -3.19805 0
M  V30 8191 N 780.304 -5.1348 -3.36469 0
M  V30 8192 C 781.675 -5.28866 -3.23576 0
M  V30 8193 C 783.73 -3.94533 -3.03724 0
M  V30 8194 C 782.433 -6.47669 -3.12918 0
M  V30 8195 C 784.459 -5.12913 -2.94405 0
M  V30 8196 C 783.821 -6.37884 -2.98803 0
M  V30 8197 H 779.92 -0.406555 -0.66801 0
M  V30 8198 H 782.504 -1.48277 -1.26183 0
M  V30 8199 H 780.675 -1.03869 -3.74254 0
M  V30 8200 H 782.407 -1.2643 -3.84444 0
M  V30 8201 H 779.162 -3.24457 -3.44999 0
M  V30 8202 H 779.586 -5.86477 -3.38191 0
M  V30 8203 H 784.228 -2.98763 -2.99166 0
M  V30 8204 H 781.946 -7.43656 -3.16231 0
M  V30 8205 H 785.532 -5.08309 -2.83042 0
M  V30 8206 H 784.412 -7.27946 -2.91657 0
M  V30 8207 N 781.915 1.24427 -0.967243 0
M  V30 8208 C 782.863 2.27403 -0.488927 0
M  V30 8209 C 783.857 1.63388 0.447302 0
M  V30 8210 O 785.063 1.77085 0.322643 0
M  V30 8211 H 781.438 0.738921 -0.139643 0
M  V30 8212 H 783.409 2.65122 -1.36942 0
M  V30 8213 C 782.158 3.4709 0.205787 0
M  V30 8214 H 781.481 3.96591 -0.50551 0
M  V30 8215 H 782.921 4.2099 0.504296 0
M  V30 8216 C 781.38 3.04923 1.43261 0
M  V30 8217 O 781.91 3.12043 2.52967 0
M  V30 8218 N 780.116 2.59976 1.29849 0
M  V30 8219 H 779.663 2.54382 0.405876 0
M  V30 8220 H 779.621 2.32128 2.12047 0
M  V30 8221 N 783.393 0.737304 1.3929 0
M  V30 8222 C 784.341 0.0879867 2.32434 0
M  V30 8223 C 785.335 -0.723324 1.53181 0
M  V30 8224 O 786.541 -0.624251 1.68829 0
M  V30 8225 H 782.916 0.00965277 0.751938 0
M  V30 8226 H 784.887 0.889915 2.84821 0
M  V30 8227 C 783.636 -0.803384 3.38291 0
M  V30 8228 H 782.959 -0.18849 3.99355 0
M  V30 8229 H 784.399 -1.22528 4.0591 0
M  V30 8230 C 782.858 -1.93872 2.75527 0
M  V30 8231 O 783.388 -3.03154 2.63553 0
M  V30 8232 N 781.594 -1.72883 2.3358 0
M  V30 8233 H 781.141 -0.840005 2.43519 0
M  V30 8234 H 781.099 -2.49021 1.91927 0
M  V30 8235 N 784.871 -1.49948 0.485112 0
M  V30 8236 C 786.096 -2.073 -0.0645059 0
M  V30 8237 C 786.521 -1.345 -1.31497 0
M  V30 8238 O 785.879 -0.39687 -1.76903 0
M  V30 8239 C 785.927 -3.59201 -0.317304 0
M  V30 8240 O 785.031 -3.88085 -1.39514 0
M  V30 8241 H 784.372 -0.663723 0.0191822 0
M  V30 8242 H 786.902 -1.92963 0.680179 0
M  V30 8243 H 786.912 -4.04227 -0.553604 0
M  V30 8244 H 785.587 -4.11602 0.596387 0
M  V30 8245 H 784.164 -3.54885 -1.14504 0
M  V30 8246 N 786.349 -0.21828 -1.56081 0
M  V30 8247 C 787.76 0.290166 -1.84431 0
M  V30 8248 C 788.111 1.59712 -1.13958 0
M  V30 8249 O 787.236 2.12516 -0.40815 0
M  V30 8250 C 787.831 0.53325 -3.34577 0
M  V30 8251 C 786.39 0.986011 -3.63256 0
M  V30 8252 C 785.537 0.0472798 -2.7726 0
M  V30 8253 H 788.488 -0.441548 -1.52434 0
M  V30 8254 H 788.509 1.37967 -3.54606 0
M  V30 8255 H 788.021 -0.418137 -3.85841 0
M  V30 8256 H 786.122 1.95087 -3.17446 0
M  V30 8257 H 786.235 0.862684 -4.71269 0
M  V30 8258 H 784.599 0.553471 -2.48614 0
M  V30 8259 H 785.382 -0.898966 -3.31321 0
M  V30 8260 N 787.827 1.57504 0.0551401 0
M  V30 8261 C 788.759 2.0158 1.09078 0
M  V30 8262 C 789.772 0.92434 1.34014 0
M  V30 8263 O 790.961 1.20202 1.31961 0
M  V30 8264 C 788.061 2.35385 2.43818 0
M  V30 8265 C 787.234 3.66588 2.38605 0
M  V30 8266 C 786.293 3.87874 3.55585 0
M  V30 8267 O 785.319 4.59259 3.36258 0
M  V30 8268 N 786.521 3.31503 4.76536 0
M  V30 8269 H 789.286 2.91039 0.71529 0
M  V30 8270 H 786.847 1.60058 0.243532 0
M  V30 8271 H 788.839 2.46784 3.20749 0
M  V30 8272 H 787.409 1.51731 2.73307 0
M  V30 8273 H 786.629 3.65787 1.46947 0
M  V30 8274 H 787.917 4.52706 2.32239 0
M  V30 8275 H 787.315 2.73592 4.9514 0
M  V30 8276 H 785.872 3.48324 5.50921 0
M  V30 8277 N 789.305 -0.326896 1.54172 0
M  V30 8278 C 790.252 -1.40216 1.83325 0
M  V30 8279 C 791.222 -1.51538 0.680107 0
M  V30 8280 O 792.407 -1.66811 0.926206 0
M  V30 8281 C 789.547 -2.76626 2.0633 0
M  V30 8282 C 788.66 -2.73963 3.34019 0
M  V30 8283 C 787.795 -4.02198 3.47002 0
M  V30 8284 C 786.834 -3.93828 4.68578 0
M  V30 8285 N 785.971 -5.13787 4.78506 0
M  V30 8286 H 790.811 -1.14656 2.7506 0
M  V30 8287 H 788.348 -0.555089 1.36225 0
M  V30 8288 H 790.306 -3.55922 2.17659 0
M  V30 8289 H 788.936 -3.00503 1.1789 0
M  V30 8290 H 787.988 -1.86677 3.31445 0
M  V30 8291 H 789.3 -2.6366 4.2342 0
M  V30 8292 H 788.454 -4.89923 3.57855 0
M  V30 8293 H 787.193 -4.15302 2.55687 0
M  V30 8294 H 786.198 -3.04487 4.57786 0
M  V30 8295 H 787.423 -3.82292 5.61275 0
M  V30 8296 H 785.369 -5.27403 3.90105 0
M  V30 8297 H 785.286 -5.05807 5.61868 0
M  V30 8298 H 786.554 -6.03236 4.93686 0
M  V30 8299 N 790.784 -1.46188 -0.588786 0
M  V30 8300 C 792.061 -1.41659 -1.34878 0
M  V30 8301 C 792.441 -0.0968913 -2.10878 0
M  V30 8302 O 791.789 0.921468 -2.09096 0
M  V30 8303 C 791.999 -2.6424 -2.27988 0
M  V30 8304 C 793.347 -3.1013 -2.90008 0
M  V30 8305 O 794.371 -2.64745 -2.38303 0
M  V30 8306 O 793.23 -3.88944 -3.83908 0
M  V30 8307 H 790.324 -0.563058 -0.605718 0
M  V30 8308 H 792.87 -1.58346 -0.610309 0
M  V30 8309 H 791.642 -3.51853 -1.71217 0
M  V30 8310 H 791.265 -2.49982 -3.09184 0
M  V30 8311 N 792.262 0.832906 -1.33792 0
M  V30 8312 C 793.492 1.61813 -1.28453 0
M  V30 8313 C 793.9 1.88639 0.145595 0
M  V30 8314 O 793.243 1.47122 1.10004 0
M  V30 8315 C 793.305 2.98929 -1.99704 0
M  V30 8316 C 792.969 2.95045 -3.48995 0
M  V30 8317 C 793.966 2.70337 -4.44088 0
M  V30 8318 C 791.651 3.14993 -3.91261 0
M  V30 8319 C 793.645 2.65612 -5.79421 0
M  V30 8320 C 791.332 3.09893 -5.26697 0
M  V30 8321 C 792.33 2.85235 -6.20588 0
M  V30 8322 O 792.018 2.8005 -7.53543 0
M  V30 8323 H 791.75 0.510013 -0.443693 0
M  V30 8324 H 794.304 1.04514 -1.76822 0
M  V30 8325 H 792.534 3.58106 -1.45935 0
M  V30 8326 H 794.223 3.59849 -1.87786 0
M  V30 8327 H 794.989 2.54671 -4.12756 0
M  V30 8328 H 790.868 3.33204 -3.18584 0
M  V30 8329 H 794.412 2.46285 -6.52679 0
M  V30 8330 H 790.309 3.2511 -5.5765 0
M  V30 8331 H 791.077 2.95849 -7.63162 0
M  V30 8332 N 793.74 1.17359 1.05189 0
M  V30 8333 C 795.151 0.96793 1.5965 0
M  V30 8334 C 795.502 -0.485355 1.90102 0
M  V30 8335 O 794.627 -1.36066 1.6827 0
M  V30 8336 C 795.222 1.75068 2.90063 0
M  V30 8337 C 793.781 1.58969 3.41183 0
M  V30 8338 C 792.928 1.75231 2.14917 0
M  V30 8339 H 795.879 1.32067 0.880001 0
M  V30 8340 H 795.9 1.23308 3.59966 0
M  V30 8341 H 795.412 2.80835 2.67868 0
M  V30 8342 H 793.513 0.556906 3.68415 0
M  V30 8343 H 793.626 2.38067 4.15766 0
M  V30 8344 H 791.99 1.18073 2.25679 0
M  V30 8345 H 792.773 2.8241 1.95191 0
M  V30 8346 N 795.218 -1.23913 0.973828 0
M  V30 8347 C 796.181 -2.23367 0.51378 0
M  V30 8348 C 797.181 -1.55923 -0.39302 0
M  V30 8349 O 798.371 -1.73187 -0.187626 0
M  V30 8350 C 795.503 -3.39944 -0.255152 0
M  V30 8351 H 796.696 -2.65581 1.39307 0
M  V30 8352 H 794.249 -1.36632 0.759039 0
M  V30 8353 H 794.984 -3.03177 -1.15127 0
M  V30 8354 H 794.769 -3.90098 0.395673 0
M  V30 8355 H 796.259 -4.13749 -0.565842 0
M  V30 8356 N 796.696 -0.74468 -1.38897 0
M  V30 8357 C 797.921 -0.306119 -2.05128 0
M  V30 8358 C 798.346 1.0541 -1.55789 0
M  V30 8359 O 797.704 1.66993 -0.705909 0
M  V30 8360 C 797.752 -0.328195 -3.59103 0
M  V30 8361 O 796.856 0.680876 -4.06741 0
M  V30 8362 H 796.197 -0.137209 -0.649669 0
M  V30 8363 H 798.727 -1.01331 -1.77745 0
M  V30 8364 H 798.737 -0.175956 -4.0762 0
M  V30 8365 H 797.412 -1.32067 -3.94374 0
M  V30 8366 H 795.989 0.49398 -3.69614 0
M  V30 8367 N 798.174 1.49689 -0.493057 0
M  V30 8368 C 799.451 1.9525 0.116907 0
M  V30 8369 C 799.831 1.43429 1.54892 0
M  V30 8370 O 799.179 0.644621 2.19219 0
M  V30 8371 C 799.389 3.4898 0.037705 0
M  V30 8372 C 800.737 4.24052 0.215621 0
M  V30 8373 O 801.761 3.5602 0.113266 0
M  V30 8374 O 800.62 5.44847 0.42477 0
M  V30 8375 H 797.714 0.820973 0.099662 0
M  V30 8376 H 800.26 1.60367 -0.555029 0
M  V30 8377 H 799.032 3.79309 -0.961251 0
M  V30 8378 H 798.655 3.9046 0.750137 0
M  V30 8379 N 799.652 0.226554 1.55963 0
M  V30 8380 C 800.582 -0.676079 2.23498 0
M  V30 8381 C 801.563 -1.19718 1.20837 0
M  V30 8382 O 802.748 -1.24027 1.49436 0
M  V30 8383 C 799.878 -1.88217 2.91876 0
M  V30 8384 C 798.832 -1.4947 4.01052 0
M  V30 8385 C 798.158 -2.77997 4.56751 0
M  V30 8386 C 799.458 -0.680951 5.17842 0
M  V30 8387 H 801.152 -0.112989 2.99187 0
M  V30 8388 H 798.698 -0.0529046 1.43903 0
M  V30 8389 H 800.651 -2.51911 3.37815 0
M  V30 8390 H 799.375 -2.47031 2.13643 0
M  V30 8391 H 798.034 -0.881199 3.55852 0
M  V30 8392 H 797.682 -3.34966 3.75243 0
M  V30 8393 H 797.382 -2.52803 5.30438 0
M  V30 8394 H 798.906 -3.42625 5.05411 0
M  V30 8395 H 800.32 -1.22171 5.60131 0
M  V30 8396 H 798.717 -0.525898 5.97791 0
M  V30 8397 H 799.787 0.311346 4.83899 0
M  V30 8398 N 801.13 -1.57531 -0.0467866 0
M  V30 8399 C 802.377 -1.88451 -0.74112 0
M  V30 8400 C 802.705 -0.821592 -1.76296 0
M  V30 8401 O 801.96 0.179585 -1.94874 0
M  V30 8402 C 802.259 -3.26091 -1.46285 0
M  V30 8403 C 801.925 -4.47171 -0.578669 0
M  V30 8404 C 800.587 -4.80032 -0.335083 0
M  V30 8405 C 802.939 -5.2119 0.0328809 0
M  V30 8406 C 800.267 -5.84309 0.529121 0
M  V30 8407 C 802.619 -6.26383 0.884684 0
M  V30 8408 C 801.283 -6.57729 1.1379 0
M  V30 8409 H 800.553 -0.68959 -0.271195 0
M  V30 8410 H 803.2 -1.915 -0.00132378 0
M  V30 8411 H 801.505 -3.18948 -2.27551 0
M  V30 8412 H 803.202 -3.47258 -2.00532 0
M  V30 8413 H 799.792 -4.21467 -0.778666 0
M  V30 8414 H 803.976 -4.96096 -0.142375 0
M  V30 8415 H 799.232 -6.06981 0.733794 0
M  V30 8416 H 803.406 -6.82888 1.36516 0
M  V30 8417 H 801.033 -7.38355 1.80929 0
M  V30 8418 N 802.608 0.318715 -1.54344 0
M  V30 8419 C 803.571 1.37545 -1.83342 0
M  V30 8420 C 804.571 1.445 -0.705444 0
M  V30 8421 O 805.761 1.44443 -0.973752 0
M  V30 8422 C 802.893 2.76225 -1.99781 0
M  V30 8423 H 804.086 1.13084 -2.77762 0
M  V30 8424 H 801.639 0.554457 -1.46135 0
M  V30 8425 H 802.374 3.05934 -1.07588 0
M  V30 8426 H 802.159 2.7257 -2.81865 0
M  V30 8427 H 803.649 3.52664 -2.23647 0
M  V30 8428 N 804.086 1.46499 0.581025 0
M  V30 8429 C 805.333 1.51896 1.33918 0
M  V30 8430 C 805.661 0.171361 1.93744 0
M  V30 8431 O 804.916 -0.833178 1.77078 0
M  V30 8432 C 805.215 2.56686 2.48691 0
M  V30 8433 C 804.881 4.00656 2.06847 0
M  V30 8434 C 803.543 4.39852 1.9515 0
M  V30 8435 C 805.895 4.91089 1.74589 0
M  V30 8436 C 803.223 5.67345 1.49456 0
M  V30 8437 C 805.575 6.1902 1.30373 0
M  V30 8438 C 804.239 6.57121 1.17255 0
M  V30 8439 H 803.509 0.555826 0.490039 0
M  V30 8440 H 806.156 1.79983 0.654092 0
M  V30 8441 H 804.461 2.22266 3.22653 0
M  V30 8442 H 806.158 2.58091 3.06904 0
M  V30 8443 H 802.748 3.69674 2.16886 0
M  V30 8444 H 806.932 4.61523 1.8251 0
M  V30 8445 H 802.188 5.95635 1.37944 0
M  V30 8446 H 806.362 6.8852 1.04467 0
M  V30 8447 H 803.989 7.55805 0.816236 0
M  V30 8448 N 805.565 -0.825799 1.34232 0
M  V30 8449 C 806.495 -1.95151 1.28212 0
M  V30 8450 C 807.476 -1.69345 0.160123 0
M  V30 8451 O 808.661 -1.90983 0.352019 0
M  V30 8452 C 805.791 -3.31554 1.03388 0
M  V30 8453 C 804.745 -3.71793 2.12023 0
M  V30 8454 C 804.071 -5.06147 1.72392 0
M  V30 8455 C 805.371 -3.84193 3.53826 0
M  V30 8456 H 807.065 -2.00445 2.22401 0
M  V30 8457 H 804.611 -0.962996 1.07063 0
M  V30 8458 H 806.564 -4.09889 0.978225 0
M  V30 8459 H 805.288 -3.26551 0.0564142 0
M  V30 8460 H 803.947 -2.95731 2.16654 0
M  V30 8461 H 803.595 -4.97628 0.733137 0
M  V30 8462 H 803.295 -5.34041 2.451 0
M  V30 8463 H 804.819 -5.86943 1.68317 0
M  V30 8464 H 806.233 -4.52806 3.51624 0
M  V30 8465 H 804.63 -4.23538 4.2513 0
M  V30 8466 H 805.7 -2.86272 3.91377 0
M  V30 8467 N 807.043 -1.17915 -1.04565 0
M  V30 8468 C 808.289 -0.982872 -1.78076 0
M  V30 8469 C 808.644 0.482843 -1.86243 0
M  V30 8470 O 807.937 1.35383 -1.3558 0
M  V30 8471 C 808.131 -1.56528 -3.213 0
M  V30 8472 C 807.96 -3.0861 -3.27093 0
M  V30 8473 C 806.73 -3.77389 -3.36014 0
M  V30 8474 C 808.928 -4.06146 -3.15515 0
M  V30 8475 N 806.91 -5.1702 -3.31004 0
M  V30 8476 C 808.281 -5.32268 -3.17948 0
M  V30 8477 C 810.336 -3.97732 -2.99522 0
M  V30 8478 C 809.039 -6.50951 -3.06031 0
M  V30 8479 C 811.065 -5.16007 -2.88948 0
M  V30 8480 C 810.427 -6.41018 -2.9202 0
M  V30 8481 H 806.526 -0.413617 -0.66366 0
M  V30 8482 H 809.11 -1.49607 -1.24603 0
M  V30 8483 H 807.281 -1.07833 -3.73131 0
M  V30 8484 H 809.013 -1.30501 -3.83082 0
M  V30 8485 H 805.768 -3.28098 -3.41538 0
M  V30 8486 H 806.192 -5.90031 -3.31952 0
M  V30 8487 H 810.834 -3.01919 -2.95981 0
M  V30 8488 H 808.552 -7.46968 -3.08326 0
M  V30 8489 H 812.138 -5.11283 -2.77635 0
M  V30 8490 H 811.018 -7.30999 -2.83919 0
M  V30 8491 N 808.521 1.23394 -0.980386 0
M  V30 8492 C 809.769 1.91431 -0.647978 0
M  V30 8493 C 810.09 1.76871 0.821066 0
M  V30 8494 O 809.36 1.14808 1.58732 0
M  V30 8495 H 807.94 0.708516 -0.236673 0
M  V30 8496 H 810.602 1.50019 -1.2442 0
M  V30 8497 H 809.698 2.98854 -0.899592 0
M  V30 8498 N 809.999 0.752036 1.385 0
M  V30 8499 C 811.247 0.306895 1.99756 0
M  V30 8500 C 811.568 -1.11478 1.59992 0
M  V30 8501 O 810.838 -1.76206 0.856045 0
M  V30 8502 H 809.418 0.11048 0.738785 0
M  V30 8503 H 812.08 0.965785 1.69289 0
M  V30 8504 H 811.176 0.368797 3.09913 0
M  V30 8505 N 811.477 -1.49425 0.500989 0
M  V30 8506 C 812.44 -2.27646 -0.266416 0
M  V30 8507 C 813.44 -1.3366 -0.893961 0
M  V30 8508 O 814.63 -1.5682 -0.758495 0
M  V30 8509 C 811.762 -3.11618 -1.38227 0
M  V30 8510 H 812.955 -2.96945 0.419973 0
M  V30 8511 H 810.508 -1.5419 0.255954 0
M  V30 8512 H 811.243 -2.46885 -2.10281 0
M  V30 8513 H 811.028 -3.80721 -0.937746 0
M  V30 8514 H 812.518 -3.70698 -1.92283 0
M  V30 8515 N 812.955 -0.234822 -1.55841 0
M  V30 8516 C 814.232 0.442961 -1.90518 0
M  V30 8517 C 814.612 1.76768 -1.15397 0
M  V30 8518 O 813.96 2.26928 -0.267534 0
M  V30 8519 C 814.17 0.622905 -3.43396 0
M  V30 8520 C 815.518 0.9243 -4.14417 0
M  V30 8521 O 816.542 0.709211 -3.49068 0
M  V30 8522 O 815.401 1.33323 -5.29988 0
M  V30 8523 H 812.495 0.236042 -0.792599 0
M  V30 8524 H 815.041 -0.277992 -1.67408 0
M  V30 8525 H 813.813 -0.310973 -3.90062 0
M  V30 8526 H 813.436 1.39485 -3.7233 0
M  V30 8527 N 814.433 1.57553 0.0384317 0
M  V30 8528 C 815.849 1.54663 0.39391 0
M  V30 8529 C 816.049 0.959685 1.77179 0
M  V30 8530 O 815.105 0.576647 2.45827 0
M  V30 8531 C 816.418 2.99156 0.304352 0
M  V30 8532 C 817.966 3.10659 0.382119 0
M  V30 8533 C 818.441 4.56866 0.322111 0
M  V30 8534 N 819.932 4.61629 0.38119 0
M  V30 8535 C 820.667 5.72284 0.357501 0
M  V30 8536 N 820.163 6.92207 0.286654 0
M  V30 8537 N 821.956 5.60628 0.406538 0
M  V30 8538 H 814.107 1.9406 -0.86339 0
M  V30 8539 H 816.37 0.889673 -0.327392 0
M  V30 8540 H 816.076 3.45788 -0.642141 0
M  V30 8541 H 815.95 3.60753 1.10168 0
M  V30 8542 H 818.337 2.6398 1.31904 0
M  V30 8543 H 818.418 2.5191 -0.444391 0
M  V30 8544 H 818.062 5.0421 -0.611104 0
M  V30 8545 H 817.992 5.13515 1.1666 0
M  V30 8546 H 820.483 3.75343 0.438838 0
M  V30 8547 H 820.796 7.72316 0.273421 0
M  V30 8548 H 819.141 6.9454 0.252841 0
M  V30 8549 H 822.332 4.65836 0.459812 0
M  V30 8550 H 822.505 6.46858 0.384608 0
M  V30 8551 N 815.911 -0.310526 1.54511 0
M  V30 8552 C 817.157 -1.04846 1.73595 0
M  V30 8553 C 817.49 -1.87244 0.515118 0
M  V30 8554 O 816.765 -1.88282 -0.48786 0
M  V30 8555 C 817.048 -1.96237 3.01932 0
M  V30 8556 C 816.901 -1.17082 4.34295 0
M  V30 8557 C 818.22 -2.9556 3.26086 0
M  V30 8558 H 815.339 -0.37976 0.631626 0
M  V30 8559 H 817.981 -0.32394 1.87218 0
M  V30 8560 H 816.131 -2.58015 2.90449 0
M  V30 8561 H 817.803 -0.576643 4.57682 0
M  V30 8562 H 816.046 -0.473336 4.3121 0
M  V30 8563 H 816.717 -1.84257 5.20339 0
M  V30 8564 H 819.193 -2.43908 3.37117 0
M  V30 8565 H 818.069 -3.5668 4.17218 0
M  V30 8566 H 818.33 -3.68715 2.4393 0
M  V30 8567 N 817.389 -1.46805 -0.573248 0
M  V30 8568 C 818.617 -1.56191 -1.3569 0
M  V30 8569 C 819.032 -0.206362 -1.87669 0
M  V30 8570 O 818.389 0.797883 -1.64134 0
M  V30 8571 C 818.44 -2.57433 -2.53792 0
M  V30 8572 O 818.161 -3.87724 -2.03965 0
M  V30 8573 C 819.662 -2.76851 -3.4622 0
M  V30 8574 H 816.882 -0.527907 -0.414192 0
M  V30 8575 H 819.426 -1.92292 -0.695989 0
M  V30 8576 H 817.581 -2.24311 -3.15854 0
M  V30 8577 H 817.995 -4.42909 -2.80948 0
M  V30 8578 H 819.469 -3.5159 -4.25545 0
M  V30 8579 H 819.946 -1.84095 -3.98755 0
M  V30 8580 H 820.552 -3.11107 -2.89987 0
M  V30 8581 N 818.867 0.818669 -1.34668 0
M  V30 8582 C 819.777 1.9616 -1.2868 0
M  V30 8583 C 820.793 1.72918 -0.193742 0
M  V30 8584 O 821.969 1.96951 -0.420975 0
M  V30 8585 C 819.034 3.30534 -1.04633 0
M  V30 8586 C 818.095 3.66755 -2.23136 0
M  V30 8587 C 817.328 4.94717 -2.00227 0
M  V30 8588 O 817.551 5.62218 -0.96264 0
M  V30 8589 O 816.485 5.28915 -2.87286 0
M  V30 8590 H 820.311 2.04157 -2.24842 0
M  V30 8591 H 817.896 0.954691 -1.14917 0
M  V30 8592 H 819.778 4.11005 -0.930216 0
M  V30 8593 H 818.453 3.23495 -0.115139 0
M  V30 8594 H 817.36 2.8671 -2.40308 0
M  V30 8595 H 818.693 3.78484 -3.1466 0
M  V30 8596 N 820.346 1.18468 1.03938 0
M  V30 8597 C 821.595 0.975193 1.76558 0
M  V30 8598 C 821.908 -0.495978 1.89207 0
M  V30 8599 O 823.114 -0.824009 2.58694 0
M  V30 8600 C 821.57 1.69579 3.17444 0
M  V30 8601 C 821.178 3.20636 3.12884 0
M  V30 8602 C 822.922 1.56917 3.94433 0
M  V30 8603 C 820.829 3.8533 4.48636 0
M  V30 8604 H 819.759 0.361244 0.66183 0
M  V30 8605 H 822.41 1.41854 1.16403 0
M  V30 8606 H 820.792 1.18022 3.78004 0
M  V30 8607 H 821.966 3.79228 2.61768 0
M  V30 8608 H 820.281 3.33454 2.49394 0
M  V30 8609 H 822.878 2.02611 4.94826 0
M  V30 8610 H 823.221 0.521638 4.13019 0
M  V30 8611 H 823.754 2.05762 3.40451 0
M  V30 8612 H 820.493 4.90136 4.35255 0
M  V30 8613 H 820.013 3.31526 4.99851 0
M  V30 8614 H 821.692 3.88269 5.17549 0
M  V30 8615 N 821.824 -1.22873 0.986916 0
M  V30 8616 C 823.101 -1.86939 0.575589 0
M  V30 8617 C 823.481 -1.88656 -0.947205 0
M  V30 8618 O 822.829 -1.3728 -1.82665 0
M  V30 8619 C 823.039 -3.28117 1.18914 0
M  V30 8620 C 824.387 -4.04659 1.28593 0
M  V30 8621 O 825.411 -3.3736 1.14308 0
M  V30 8622 O 824.27 -5.25112 1.51391 0
M  V30 8623 H 821.364 -0.803748 0.194724 0
M  V30 8624 H 823.91 -1.30698 1.08241 0
M  V30 8625 H 822.682 -3.21468 2.231 0
M  V30 8626 H 822.305 -3.91956 0.667535 0
M  V30 8627 N 823.302 -0.75937 -1.38099 0
M  V30 8628 C 824.718 -0.437606 -1.53483 0
M  V30 8629 C 824.918 1.04849 -1.72072 0
M  V30 8630 O 823.974 1.83448 -1.73502 0
M  V30 8631 C 825.287 -1.24189 -2.73857 0
M  V30 8632 C 826.835 -1.23255 -2.8771 0
M  V30 8633 C 827.31 -2.01992 -4.11051 0
M  V30 8634 N 828.801 -1.99282 -4.1814 0
M  V30 8635 C 829.536 -2.56996 -5.12583 0
M  V30 8636 N 829.032 -3.23446 -6.12662 0
M  V30 8637 N 830.825 -2.46894 -5.04975 0
M  V30 8638 H 822.976 -1.72242 -1.24283 0
M  V30 8639 H 825.239 -0.730507 -0.604205 0
M  V30 8640 H 824.945 -2.29449 -2.66545 0
M  V30 8641 H 824.819 -0.862672 -3.67203 0
M  V30 8642 H 827.206 -0.187988 -2.94501 0
M  V30 8643 H 827.287 -1.65132 -1.95359 0
M  V30 8644 H 826.931 -3.06462 -4.05023 0
M  V30 8645 H 826.861 -1.57505 -5.02494 0
M  V30 8646 H 829.352 -1.50893 -3.46467 0
M  V30 8647 H 829.665 -3.6489 -6.81231 0
M  V30 8648 H 828.01 -3.27543 -6.12977 0
M  V30 8649 H 831.201 -1.94604 -4.25731 0
M  V30 8650 H 831.374 -2.92168 -5.78396 0
M  V30 8651 N 824.78 1.49157 -0.508906 0
M  V30 8652 C 825.71 2.32109 0.254469 0
M  V30 8653 C 826.691 1.40754 0.955111 0
M  V30 8654 O 827.876 1.69658 0.944983 0
M  V30 8655 C 825.006 3.21458 1.3146 0
M  V30 8656 C 823.96 4.2167 0.733368 0
M  V30 8657 C 823.286 5.00009 1.8946 0
M  V30 8658 C 824.586 5.21544 -0.280875 0
M  V30 8659 H 826.28 2.9618 -0.43795 0
M  V30 8660 H 823.826 1.4243 -0.212062 0
M  V30 8661 H 825.779 3.78305 1.85643 0
M  V30 8662 H 824.503 2.55346 2.03632 0
M  V30 8663 H 823.162 3.65979 0.213231 0
M  V30 8664 H 822.81 4.30338 2.60419 0
M  V30 8665 H 822.51 5.67821 1.51173 0
M  V30 8666 H 824.034 5.59702 2.44061 0
M  V30 8667 H 825.448 5.73039 0.173095 0
M  V30 8668 H 823.845 5.97291 -0.580006 0
M  V30 8669 H 824.915 4.69969 -1.19404 0
M  V30 8670 N 826.258 0.243083 1.55714 0
M  V30 8671 C 827.188 -0.652336 2.24203 0
M  V30 8672 C 828.169 -1.1843 1.221 0
M  V30 8673 O 829.354 -1.22435 1.50743 0
M  V30 8674 C 826.484 -1.85111 2.93856 0
M  V30 8675 C 825.438 -1.45208 4.02615 0
M  V30 8676 C 824.764 -2.73137 4.59674 0
M  V30 8677 C 826.064 -0.625988 5.18535 0
M  V30 8678 H 827.758 -0.0812504 2.9929 0
M  V30 8679 H 825.304 -0.0376388 1.43951 0
M  V30 8680 H 827.257 -2.48314 3.40468 0
M  V30 8681 H 825.981 -2.44751 2.16251 0
M  V30 8682 H 824.64 -0.843406 3.56766 0
M  V30 8683 H 824.288 -3.30967 3.78774 0
M  V30 8684 H 823.988 -2.47163 5.33089 0
M  V30 8685 H 825.512 -3.37245 5.09017 0
M  V30 8686 H 826.926 -1.16223 5.61396 0
M  V30 8687 H 825.323 -0.462465 5.98315 0
M  V30 8688 H 826.393 0.362652 4.83542 0
M  V30 8689 N 827.736 -1.57571 -0.0300757 0
M  V30 8690 C 828.646 -2.09892 -1.04798 0
M  V30 8691 C 829.662 -1.03732 -1.39698 0
M  V30 8692 O 830.838 -1.35461 -1.49038 0
M  V30 8693 C 827.903 -2.56707 -2.33028 0
M  V30 8694 C 826.964 -3.77345 -2.04718 0
M  V30 8695 C 826.197 -4.21918 -3.26834 0
M  V30 8696 O 826.42 -3.66025 -4.37472 0
M  V30 8697 O 825.354 -5.14362 -3.12594 0
M  V30 8698 H 829.18 -2.97023 -0.633344 0
M  V30 8699 H 826.765 -1.47344 -0.246991 0
M  V30 8700 H 828.647 -2.87154 -3.08417 0
M  V30 8701 H 827.322 -1.72688 -2.73789 0
M  V30 8702 H 826.229 -3.51919 -1.26901 0
M  V30 8703 H 827.562 -4.62345 -1.68813 0
M  V30 8704 N 829.214 0.302327 -1.54673 0
M  V30 8705 C 830.146 1.39443 -1.81902 0
M  V30 8706 C 831.159 1.46891 -0.701914 0
M  V30 8707 O 832.348 1.49233 -0.979369 0
M  V30 8708 C 829.448 2.77824 -1.9408 0
M  V30 8709 C 828.621 2.93324 -3.24468 0
M  V30 8710 C 827.68 4.12196 -3.27079 0
M  V30 8711 O 826.706 4.04344 -4.00617 0
M  V30 8712 N 827.908 5.22768 -2.52376 0
M  V30 8713 H 830.673 1.1644 -2.76155 0
M  V30 8714 H 828.234 0.492392 -1.54231 0
M  V30 8715 H 830.226 3.5559 -1.9323 0
M  V30 8716 H 828.796 2.9378 -1.06828 0
M  V30 8717 H 828.016 2.02682 -3.38103 0
M  V30 8718 H 829.304 3.0059 -4.10516 0
M  V30 8719 H 828.702 5.32027 -1.92259 0
M  V30 8720 H 827.259 5.98874 -2.57281 0
M  V30 8721 N 830.692 1.47107 0.565454 0
M  V30 8722 C 831.639 1.58974 1.6732 0
M  V30 8723 C 832.609 0.433146 1.60353 0
M  V30 8724 O 833.794 0.652141 1.79309 0
M  V30 8725 C 830.934 1.60224 3.05651 0
M  V30 8726 C 830.047 2.86741 3.23116 0
M  V30 8727 C 829.182 2.79381 4.51796 0
M  V30 8728 C 828.221 4.0076 4.62664 0
M  V30 8729 N 827.358 3.91685 5.8269 0
M  V30 8730 H 832.198 2.53588 1.56515 0
M  V30 8731 H 829.735 1.25791 0.762558 0
M  V30 8732 H 831.693 1.58933 3.85741 0
M  V30 8733 H 830.323 0.691285 3.15311 0
M  V30 8734 H 829.375 2.97936 2.36513 0
M  V30 8735 H 830.687 3.7665 3.27011 0
M  V30 8736 H 829.841 2.76293 5.40136 0
M  V30 8737 H 828.58 1.87142 4.50366 0
M  V30 8738 H 827.585 4.04162 3.72738 0
M  V30 8739 H 828.81 4.94117 4.6586 0
M  V30 8740 H 826.756 3.02243 5.82224 0
M  V30 8741 H 826.673 4.75264 5.87929 0
M  V30 8742 H 827.941 3.92599 6.73414 0
M  V30 8743 N 832.17 -0.811516 1.35101 0
M  V30 8744 C 833.581 -1.38515 1.25182 0
M  V30 8745 C 833.932 -1.95846 -0.117883 0
M  V30 8746 O 833.057 -1.90925 -1.01866 0
M  V30 8747 C 833.652 -2.51813 2.26662 0
M  V30 8748 C 832.211 -3.05052 2.20499 0
M  V30 8749 C 831.358 -1.77987 2.12641 0
M  V30 8750 H 834.309 -0.614959 1.46301 0
M  V30 8751 H 834.33 -3.30228 1.89023 0
M  V30 8752 H 833.842 -2.10057 3.2634 0
M  V30 8753 H 831.943 -3.51285 1.24215 0
M  V30 8754 H 832.056 -3.63368 3.1225 0
M  V30 8755 H 830.42 -1.99342 1.5854 0
M  V30 8756 H 831.203 -1.38389 3.14171 0
M  V30 8757 N 833.648 -1.19017 -1.03309 0
M  V30 8758 C 835.064 -0.941483 -1.28873 0
M  V30 8759 C 835.264 0.388587 -1.97718 0
M  V30 8760 O 834.32 1.12111 -2.26246 0
M  V30 8761 C 835.633 -2.11249 -2.13996 0
M  V30 8762 C 837.181 -2.15164 -2.27318 0
M  V30 8763 C 837.656 -3.31704 -3.15811 0
M  V30 8764 N 839.147 -3.31613 -3.23399 0
M  V30 8765 C 839.882 -4.18431 -3.9205 0
M  V30 8766 N 839.378 -5.15397 -4.62966 0
M  V30 8767 N 841.171 -4.06321 -3.88406 0
M  V30 8768 H 833.322 -2.04599 -0.570343 0
M  V30 8769 H 835.585 -0.894406 -0.314232 0
M  V30 8770 H 835.291 -3.07482 -1.70727 0
M  V30 8771 H 835.165 -2.07955 -3.14697 0
M  V30 8772 H 837.552 -1.19504 -2.6982 0
M  V30 8773 H 837.633 -2.22513 -1.26182 0
M  V30 8774 H 837.277 -4.2764 -2.74019 0
M  V30 8775 H 837.207 -3.21592 -4.16997 0
M  V30 8776 H 839.698 -2.6142 -2.72888 0
M  V30 8777 H 840.011 -5.78 -5.12968 0
M  V30 8778 H 838.356 -5.19349 -4.61846 0
M  V30 8779 H 841.547 -3.29849 -3.3214 0
M  V30 8780 H 841.72 -4.74196 -4.41635 0
M  V30 8781 N 835.127 1.22348 -0.993418 0
M  V30 8782 C 836.057 2.26584 -0.564088 0
M  V30 8783 C 837.038 1.65102 0.409298 0
M  V30 8784 O 838.223 1.91872 0.299819 0
M  V30 8785 C 835.353 3.47087 0.121554 0
M  V30 8786 C 834.307 4.21009 -0.770429 0
M  V30 8787 C 833.633 5.34678 0.0481586 0
M  V30 8788 C 834.933 4.79636 -2.06752 0
M  V30 8789 H 836.627 2.62749 -1.43538 0
M  V30 8790 H 834.173 1.26303 -0.691628 0
M  V30 8791 H 836.126 4.19166 0.433303 0
M  V30 8792 H 834.85 3.1002 1.0274 0
M  V30 8793 H 833.509 3.50764 -1.06583 0
M  V30 8794 H 833.157 4.93852 0.954933 0
M  V30 8795 H 832.857 5.85061 -0.545641 0
M  V30 8796 H 834.381 6.09573 0.353991 0
M  V30 8797 H 835.795 5.43654 -1.81969 0
M  V30 8798 H 834.192 5.4036 -2.61019 0
M  V30 8799 H 835.262 3.99659 -2.74592 0
M  V30 8800 N 836.605 0.766683 1.37694 0
M  V30 8801 C 837.833 0.339939 2.04088 0
M  V30 8802 C 838.248 -1.03617 1.57826 0
M  V30 8803 O 837.605 -1.6605 0.757214 0
M  V30 8804 C 837.656 0.368269 3.59619 0
M  V30 8805 O 837.377 1.69009 4.04188 0
M  V30 8806 C 838.878 -0.0707053 4.43244 0
M  V30 8807 H 836.098 0.143189 0.655544 0
M  V30 8808 H 838.642 1.03919 1.76128 0
M  V30 8809 H 836.797 -0.282359 3.8637 0
M  V30 8810 H 837.211 1.62523 4.98685 0
M  V30 8811 H 838.685 0.000273538 5.52 0
M  V30 8812 H 839.162 -1.1204 4.24669 0
M  V30 8813 H 839.768 0.551543 4.21709 0
M  V30 8814 N 838.083 -1.48885 0.516809 0
M  V30 8815 C 839.046 -2.27916 -0.242256 0
M  V30 8816 C 840.046 -1.34601 -0.879735 0
M  V30 8817 O 841.236 -1.57616 -0.74182 0
M  V30 8818 C 838.368 -3.13067 -1.34914 0
M  V30 8819 H 839.561 -2.96483 0.451444 0
M  V30 8820 H 837.114 -1.5391 0.272294 0
M  V30 8821 H 837.849 -2.49102 -2.07651 0
M  V30 8822 H 837.634 -3.81695 -0.897313 0
M  V30 8823 H 839.124 -3.72716 -1.88341 0
M  V30 8824 N 839.561 -0.251338 -1.55583 0
M  V30 8825 C 840.838 0.422729 -1.90977 0
M  V30 8826 C 841.218 1.75534 -1.17265 0
M  V30 8827 O 840.566 2.26632 -0.291588 0
M  V30 8828 C 840.776 0.586448 -3.44037 0
M  V30 8829 C 842.124 0.880294 -4.15375 0
M  V30 8830 O 843.148 0.672148 -3.49801 0
M  V30 8831 O 842.007 1.27694 -5.31372 0
M  V30 8832 H 839.101 0.227622 -0.795058 0
M  V30 8833 H 841.647 -0.295733 -1.67103 0
M  V30 8834 H 840.419 -0.352327 -3.89711 0
M  V30 8835 H 840.042 1.35528 -3.73789 0
M  V30 8836 N 841.039 1.57585 0.0217189 0
M  V30 8837 C 841.971 2.03849 1.04777 0
M  V30 8838 C 842.984 0.952558 1.32023 0
M  V30 8839 O 844.173 1.22974 1.29381 0
M  V30 8840 C 841.273 2.40504 2.3877 0
M  V30 8841 C 840.446 3.71566 2.30775 0
M  V30 8842 C 839.505 3.95329 3.47277 0
M  V30 8843 O 838.531 4.66289 3.26441 0
M  V30 8844 N 839.733 3.41536 4.69397 0
M  V30 8845 H 842.498 2.92491 0.653395 0
M  V30 8846 H 840.059 1.60538 0.209527 0
M  V30 8847 H 842.051 2.53532 3.15442 0
M  V30 8848 H 840.621 1.57494 2.70027 0
M  V30 8849 H 839.841 3.68822 1.39155 0
M  V30 8850 H 841.129 4.5753 2.22584 0
M  V30 8851 H 840.527 2.84033 4.89226 0
M  V30 8852 H 839.084 3.59932 5.43408 0
M  V30 8853 N 842.517 -0.29412 1.54831 0
M  V30 8854 C 843.48 -1.3461 1.85507 0
M  V30 8855 C 844.48 -1.43359 0.728343 0
M  V30 8856 O 845.67 -1.42875 0.996609 0
M  V30 8857 C 842.802 -2.73012 2.0415 0
M  V30 8858 H 843.995 -1.08651 2.79526 0
M  V30 8859 H 841.548 -0.531138 1.46999 0
M  V30 8860 H 842.283 -3.04183 1.12441 0
M  V30 8861 H 842.068 -2.68051 2.86166 0
M  V30 8862 H 843.558 -3.49061 2.29229 0
M  V30 8863 N 843.995 -1.47404 -0.557645 0
M  V30 8864 C 845.241 -1.55219 -1.31449 0
M  V30 8865 C 845.596 -0.211457 -1.91234 0
M  V30 8866 O 844.889 0.782795 -1.7488 0
M  V30 8867 C 845.083 -2.6061 -2.44575 0
M  V30 8868 C 844.912 -4.048 -1.95875 0
M  V30 8869 C 843.682 -4.72252 -1.79738 0
M  V30 8870 C 845.88 -4.91833 -1.50348 0
M  V30 8871 N 843.862 -6.00962 -1.25372 0
M  V30 8872 C 845.233 -6.10566 -1.07745 0
M  V30 8873 C 847.288 -4.78279 -1.38396 0
M  V30 8874 C 845.991 -7.17242 -0.543767 0
M  V30 8875 C 848.017 -5.8505 -0.864293 0
M  V30 8876 C 847.379 -7.02973 -0.44818 0
M  V30 8877 H 843.478 -0.622694 -0.47305 0
M  V30 8878 H 846.062 -1.84152 -0.632144 0
M  V30 8879 H 844.233 -2.33545 -3.10341 0
M  V30 8880 H 845.965 -2.5827 -3.11574 0
M  V30 8881 H 842.72 -4.28153 -2.0244 0
M  V30 8882 H 843.144 -6.69532 -1.00278 0
M  V30 8883 H 847.786 -3.87477 -1.69179 0
M  V30 8884 H 845.504 -8.07791 -0.223563 0
M  V30 8885 H 849.09 -5.7661 -0.775371 0
M  V30 8886 H 847.97 -7.84183 -0.0522964 0
M  V30 8887 N 845.473 0.80434 -1.35529 0
M  V30 8888 C 846.75 1.5486 -1.1949 0
M  V30 8889 C 847.13 2.09897 0.22506 0
M  V30 8890 O 846.478 1.92643 1.22886 0
M  V30 8891 C 846.688 2.65535 -2.26478 0
M  V30 8892 C 848.036 3.33814 -2.62399 0
M  V30 8893 O 849.06 2.75807 -2.25409 0
M  V30 8894 O 847.919 4.38612 -3.26009 0
M  V30 8895 H 845.013 0.68433 -0.464351 0
M  V30 8896 H 847.559 0.844107 -1.47217 0
M  V30 8897 H 846.331 2.22754 -3.21709 0
M  V30 8898 H 845.954 3.43617 -2.00033 0
M  V30 8899 N 846.951 1.19563 1.02676 0
M  V30 8900 C 848.197 1.00105 1.76371 0
M  V30 8901 C 848.53 -0.466823 1.88506 0
M  V30 8902 O 847.805 -1.34665 1.40341 0
M  V30 8903 C 848.088 1.67321 3.18866 0
M  V30 8904 C 847.941 3.21486 3.1459 0
M  V30 8905 C 849.26 1.39794 4.17308 0
M  V30 8906 H 846.379 0.365075 0.640226 0
M  V30 8907 H 849.021 1.47433 1.19848 0
M  V30 8908 H 847.171 1.27081 3.67128 0
M  V30 8909 H 848.843 3.70953 2.7421 0
M  V30 8910 H 847.086 3.5292 2.52249 0
M  V30 8911 H 847.757 3.63665 4.15273 0
M  V30 8912 H 850.233 1.74685 3.77657 0
M  V30 8913 H 849.109 1.89371 5.15199 0
M  V30 8914 H 849.37 0.323505 4.40915 0
M  V30 8915 N 848.429 -1.21819 0.999893 0
M  V30 8916 C 849.678 -1.90066 0.675108 0
M  V30 8917 C 849.991 -1.78624 -0.79705 0
M  V30 8918 O 851.197 -2.41851 -1.23371 0
M  V30 8919 C 849.653 -3.40795 1.15702 0
M  V30 8920 C 849.261 -3.60859 2.6549 0
M  V30 8921 C 851.005 -4.147 0.906889 0
M  V30 8922 C 848.912 -5.05324 3.07248 0
M  V30 8923 H 847.842 -0.711763 0.248815 0
M  V30 8924 H 850.493 -1.3792 1.21038 0
M  V30 8925 H 848.875 -3.92164 0.549832 0
M  V30 8926 H 850.049 -3.19951 3.31614 0
M  V30 8927 H 848.364 -3.00298 2.88461 0
M  V30 8928 H 850.961 -5.21187 1.1945 0
M  V30 8929 H 851.304 -4.16004 -0.156923 0
M  V30 8930 H 851.837 -3.69379 1.47662 0
M  V30 8931 H 848.576 -5.09164 4.12834 0
M  V30 8932 H 848.096 -5.47108 2.45832 0
M  V30 8933 H 849.775 -5.73797 2.98941 0
M  V30 8934 N 849.908 -0.773975 -1.37286 0
M  V30 8935 C 851.324 -0.45386 -1.53011 0
M  V30 8936 C 851.524 1.03018 -1.73175 0
M  V30 8937 O 850.58 1.81597 -1.75438 0
M  V30 8938 C 851.893 -1.27087 -2.72524 0
M  V30 8939 C 853.441 -1.26299 -2.86387 0
M  V30 8940 C 853.916 -2.0634 -4.08886 0
M  V30 8941 N 855.407 -2.03706 -4.16003 0
M  V30 8942 C 856.142 -2.62418 -5.09828 0
M  V30 8943 N 855.638 -3.29926 -6.09197 0
M  V30 8944 N 857.431 -2.52236 -5.02328 0
M  V30 8945 H 849.582 -1.73551 -1.22449 0
M  V30 8946 H 851.845 -0.736874 -0.596423 0
M  V30 8947 H 851.551 -2.32263 -2.64096 0
M  V30 8948 H 851.425 -0.90157 -3.66267 0
M  V30 8949 H 853.812 -0.219213 -2.94285 0
M  V30 8950 H 853.893 -1.67195 -1.93596 0
M  V30 8951 H 853.537 -3.10741 -4.01749 0
M  V30 8952 H 853.467 -1.62825 -5.00795 0
M  V30 8953 H 855.958 -1.54559 -3.44848 0
M  V30 8954 H 856.271 -3.72095 -6.77322 0
M  V30 8955 H 854.616 -3.34026 -6.09469 0
M  V30 8956 H 857.807 -1.99108 -4.23643 0
M  V30 8957 H 857.98 -2.98286 -5.75265 0
M  V30 8958 N 851.386 1.48609 -0.524698 0
M  V30 8959 C 852.318 2.27508 0.278 0
M  V30 8960 C 853.331 1.35042 0.909258 0
M  V30 8961 O 854.52 1.60136 0.788592 0
M  V30 8962 C 851.62 3.08247 1.40843 0
M  V30 8963 C 850.793 4.28455 0.880083 0
M  V30 8964 C 849.852 4.91048 1.891 0
M  V30 8965 O 848.878 5.5042 1.45005 0
M  V30 8966 N 850.08 4.82816 3.22288 0
M  V30 8967 H 852.845 2.97037 -0.398642 0
M  V30 8968 H 850.406 1.57876 -0.358698 0
M  V30 8969 H 852.398 3.46992 2.08276 0
M  V30 8970 H 850.968 2.41173 1.98883 0
M  V30 8971 H 850.188 3.94189 0.0299228 0
M  V30 8972 H 851.476 5.06279 0.505881 0
M  V30 8973 H 850.874 4.3572 3.60783 0
M  V30 8974 H 849.431 5.25676 3.85368 0
M  V30 8975 N 852.864 0.259585 1.55447 0
M  V30 8976 C 854.092 -0.365392 2.03648 0
M  V30 8977 C 854.507 -1.50613 1.13847 0
M  V30 8978 O 853.864 -1.81837 0.155414 0
M  V30 8979 C 853.915 -0.861172 3.51093 0
M  V30 8980 O 853.636 0.234121 4.37474 0
M  V30 8981 C 855.137 -1.55555 4.15111 0
M  V30 8982 H 852.357 -0.0853439 0.66555 0
M  V30 8983 H 854.901 0.387151 2.00802 0
M  V30 8984 H 853.056 -1.56385 3.54433 0
M  V30 8985 H 853.47 -0.1444 5.24301 0
M  V30 8986 H 854.944 -1.85403 5.19932 0
M  V30 8987 H 855.421 -2.48185 3.62355 0
M  V30 8988 H 856.027 -0.89712 4.15731 0
M  V30 8989 N 854.342 -1.57594 -0.0133615 0
M  V30 8990 C 855.567 -1.94649 -0.715996 0
M  V30 8991 C 855.992 -0.860786 -1.67249 0
M  V30 8992 O 855.35 0.182228 -1.80382 0
M  V30 8993 C 855.398 -3.30789 -1.43566 0
M  V30 8994 O 854.502 -3.24148 -2.54955 0
M  V30 8995 H 853.843 -0.635801 -0.191449 0
M  V30 8996 H 856.373 -2.04569 0.0358478 0
M  V30 8997 H 856.383 -3.66045 -1.80208 0
M  V30 8998 H 855.058 -4.09367 -0.734263 0
M  V30 8999 H 853.635 -3.00548 -2.20739 0
M  V30 9000 N 855.82 0.285905 -1.54985 0
M  V30 9001 C 857.236 0.632405 -1.46536 0
M  V30 9002 C 857.436 1.90074 -0.668888 0
M  V30 9003 O 856.492 2.51839 -0.182586 0
M  V30 9004 C 857.805 0.771361 -2.90638 0
M  V30 9005 C 859.353 0.866262 -3.00774 0
M  V30 9006 C 859.828 1.0371 -4.46103 0
M  V30 9007 N 861.319 1.10294 -4.49877 0
M  V30 9008 C 862.054 1.25369 -5.59527 0
M  V30 9009 N 861.55 1.37246 -6.7907 0
M  V30 9010 N 863.343 1.28377 -5.47244 0
M  V30 9011 H 855.494 -0.547226 -2.0523 0
M  V30 9012 H 857.757 -0.183298 -0.930111 0
M  V30 9013 H 857.463 -0.0899485 -3.51585 0
M  V30 9014 H 857.337 1.65569 -3.3892 0
M  V30 9015 H 859.724 1.71805 -2.39931 0
M  V30 9016 H 859.805 -0.0424049 -2.55765 0
M  V30 9017 H 859.449 0.190021 -5.07544 0
M  V30 9018 H 859.379 1.96022 -4.88757 0
M  V30 9019 H 861.87 1.02407 -3.6376 0
M  V30 9020 H 862.183 1.48546 -7.58389 0
M  V30 9021 H 860.528 1.34274 -6.81906 0
M  V30 9022 H 863.719 1.1872 -4.52795 0
M  V30 9023 H 863.892 1.39782 -6.32744 0
M  V30 9024 N 857.298 1.47698 0.54982 0
M  V30 9025 C 858.23 1.56806 1.67166 0
M  V30 9026 C 859.243 0.453709 1.5635 0
M  V30 9027 O 860.432 0.723663 1.63173 0
M  V30 9028 C 857.532 1.4632 3.05686 0
M  V30 9029 C 856.705 2.72452 3.42182 0
M  V30 9030 C 855.764 2.55698 4.59897 0
M  V30 9031 O 854.79 3.29534 4.64108 0
M  V30 9032 N 855.992 1.64009 5.56849 0
M  V30 9033 H 858.757 2.53545 1.59797 0
M  V30 9034 H 856.318 1.44171 0.736635 0
M  V30 9035 H 858.31 1.32835 3.82279 0
M  V30 9036 H 856.88 0.57634 3.07241 0
M  V30 9037 H 856.1 3.00644 2.54964 0
M  V30 9038 H 857.388 3.56172 3.63344 0
M  V30 9039 H 856.786 1.03186 5.5621 0
M  V30 9040 H 855.343 1.56473 6.3274 0
M  V30 9041 N 858.776 -0.797141 1.35954 0
M  V30 9042 C 860.053 -1.54224 1.2031 0
M  V30 9043 C 860.433 -2.10013 -0.213926 0
M  V30 9044 O 859.781 -1.93292 -1.21862 0
M  V30 9045 C 859.991 -2.6433 2.27883 0
M  V30 9046 C 861.339 -3.32418 2.64165 0
M  V30 9047 O 862.363 -2.74607 2.26868 0
M  V30 9048 O 861.222 -4.36876 3.28331 0
M  V30 9049 H 858.316 -0.681857 0.467974 0
M  V30 9050 H 860.862 -0.836288 1.47663 0
M  V30 9051 H 859.634 -2.21044 3.22885 0
M  V30 9052 H 859.257 -3.42551 2.01853 0
M  V30 9053 N 860.254 -1.20106 -1.0204 0
M  V30 9054 C 861.184 -0.970301 -2.12385 0
M  V30 9055 C 862.165 0.099378 -1.69809 0
M  V30 9056 O 863.35 -0.057365 -1.94115 0
M  V30 9057 C 860.48 -0.517431 -3.43424 0
M  V30 9058 C 859.434 -1.52992 -3.99722 0
M  V30 9059 C 858.76 -0.933817 -5.26483 0
M  V30 9060 C 860.06 -2.91257 -4.33551 0
M  V30 9061 H 861.754 -1.89316 -2.31948 0
M  V30 9062 H 859.3 -0.911655 -1.11467 0
M  V30 9063 H 861.253 -0.343243 -4.2 0
M  V30 9064 H 859.977 0.441049 -3.23608 0
M  V30 9065 H 858.636 -1.6914 -3.2525 0
M  V30 9066 H 858.284 0.0324763 -5.0299 0
M  V30 9067 H 857.984 -1.60999 -5.65113 0
M  V30 9068 H 859.508 -0.770614 -6.05718 0
M  V30 9069 H 860.922 -2.78642 -5.0103 0
M  V30 9070 H 859.319 -3.55745 -4.83286 0
M  V30 9071 H 860.389 -3.43269 -3.42483 0
M  V30 9072 N 861.732 1.21287 -1.00634 0
M  V30 9073 C 862.68 2.25733 -0.561026 0
M  V30 9074 C 863.674 1.64728 0.395095 0
M  V30 9075 O 864.88 1.78022 0.266141 0
M  V30 9076 H 861.255 0.734104 -0.163081 0
M  V30 9077 H 863.226 2.60631 -1.45307 0
M  V30 9078 C 861.975 3.47569 0.0952587 0
M  V30 9079 H 861.298 3.94782 -0.631427 0
M  V30 9080 H 862.738 4.22382 0.370105 0
M  V30 9081 C 861.197 3.09326 1.33488 0
M  V30 9082 O 861.727 3.19933 2.42912 0
M  V30 9083 N 859.933 2.63976 1.21512 0
M  V30 9084 H 859.48 2.55545 0.324741 0
M  V30 9085 H 859.438 2.38757 2.04555 0
M  V30 9086 N 863.21 0.781244 1.36873 0
M  V30 9087 C 864.14 0.188128 2.32741 0
M  V30 9088 C 865.121 -0.672326 1.56249 0
M  V30 9089 O 866.306 -0.607835 1.84442 0
M  V30 9090 C 863.436 -0.684341 3.40491 0
M  V30 9091 C 862.39 0.0755641 4.27933 0
M  V30 9092 C 861.716 -0.916968 5.26779 0
M  V30 9093 C 863.016 1.26006 5.06873 0
M  V30 9094 H 864.71 0.989016 2.82593 0
M  V30 9095 H 862.256 0.477038 1.35869 0
M  V30 9096 H 864.209 -1.10915 4.06541 0
M  V30 9097 H 862.933 -1.51785 2.89187 0
M  V30 9098 H 861.592 0.481258 3.63427 0
M  V30 9099 H 861.24 -1.74528 4.71751 0
M  V30 9100 H 860.94 -0.413 5.86147 0
M  V30 9101 H 862.464 -1.34052 5.95703 0
M  V30 9102 H 863.878 0.911425 5.66009 0
M  V30 9103 H 862.275 1.69676 5.75613 0
M  V30 9104 H 863.345 2.05948 4.38991 0
M  V30 9105 N 864.689 -1.48329 0.532571 0
M  V30 9106 C 866.105 -1.58458 0.190605 0
M  V30 9107 C 866.305 -1.53427 -1.30623 0
M  V30 9108 O 865.361 -1.4247 -2.08467 0
M  V30 9109 C 866.674 -2.89989 0.79543 0
M  V30 9110 C 868.222 -3.03523 0.7644 0
M  V30 9111 C 868.697 -4.37718 1.34785 0
M  V30 9112 N 870.188 -4.44292 1.30993 0
M  V30 9113 C 870.923 -5.4664 1.73124 0
M  V30 9114 N 870.419 -6.5593 2.22997 0
M  V30 9115 N 872.212 -5.37538 1.64346 0
M  V30 9116 H 864.363 -1.49842 1.50537 0
M  V30 9117 H 866.626 -0.71164 0.626316 0
M  V30 9118 H 866.332 -2.99333 1.84642 0
M  V30 9119 H 866.206 -3.76203 0.27403 0
M  V30 9120 H 868.593 -2.93789 -0.277831 0
M  V30 9121 H 868.674 -2.18912 1.3233 0
M  V30 9122 H 868.318 -4.48206 2.38902 0
M  V30 9123 H 868.248 -5.21019 0.764609 0
M  V30 9124 H 870.739 -3.65897 0.944868 0
M  V30 9125 H 871.052 -7.30167 2.53133 0
M  V30 9126 H 869.397 -6.56886 2.26992 0
M  V30 9127 H 872.588 -4.51052 1.25178 0
M  V30 9128 H 872.761 -6.17169 1.97501 0
M  V30 9129 N 866.167 -0.267825 -1.55308 0
M  V30 9130 C 867.097 0.616585 -2.25212 0
M  V30 9131 C 868.078 1.16472 -1.23969 0
M  V30 9132 O 869.263 1.20021 -1.52672 0
M  V30 9133 C 866.393 1.80412 -2.96764 0
M  V30 9134 C 865.347 1.38784 -4.04874 0
M  V30 9135 C 864.673 2.65789 -4.63961 0
M  V30 9136 C 865.973 0.543415 -5.19465 0
M  V30 9137 H 867.667 0.0336257 -2.99381 0
M  V30 9138 H 865.213 0.0147328 -1.43992 0
M  V30 9139 H 867.166 2.42866 -3.44375 0
M  V30 9140 H 865.89 2.4128 -2.20118 0
M  V30 9141 H 864.549 0.786541 -3.58063 0
M  V30 9142 H 864.197 3.24899 -3.83992 0
M  V30 9143 H 863.897 2.38651 -5.36954 0
M  V30 9144 H 865.421 3.29104 -5.14318 0
M  V30 9145 H 866.835 1.07277 -5.63174 0
M  V30 9146 H 865.232 0.367219 -5.98975 0
M  V30 9147 H 866.302 -0.439534 -4.82904 0
M  V30 9148 N 867.645 1.57599 0.00500368 0
M  V30 9149 C 868.892 1.90349 0.690895 0
M  V30 9150 C 869.22 0.868045 1.74055 0
M  V30 9151 O 868.475 -0.127855 1.95282 0
M  V30 9152 C 868.774 3.29855 1.37588 0
M  V30 9153 C 868.44 4.48548 0.459906 0
M  V30 9154 C 867.102 4.80752 0.207693 0
M  V30 9155 C 869.454 5.20919 -0.171054 0
M  V30 9156 C 866.782 5.82701 -0.683855 0
M  V30 9157 C 869.134 6.23818 -1.05045 0
M  V30 9158 C 867.798 6.54481 -1.31189 0
M  V30 9159 H 867.068 0.696538 0.252816 0
M  V30 9160 H 869.715 1.91436 -0.0494495 0
M  V30 9161 H 868.02 3.24869 2.19015 0
M  V30 9162 H 869.717 3.52452 1.91255 0
M  V30 9163 H 866.307 4.23384 0.666648 0
M  V30 9164 H 870.491 4.96299 0.0107942 0
M  V30 9165 H 865.747 6.04822 -0.894467 0
M  V30 9166 H 869.921 6.79029 -1.54574 0
M  V30 9167 H 867.548 7.33299 -2.00442 0
M  V30 9168 N 869.123 -0.277682 1.55134 0
M  V30 9169 C 870.053 -1.34742 1.90701 0
M  V30 9170 C 871.034 -1.51757 0.768354 0
M  V30 9171 O 872.219 -1.64879 1.02609 0
M  V30 9172 C 869.349 -2.70775 2.17481 0
M  V30 9173 C 868.303 -2.68497 3.33307 0
M  V30 9174 C 867.629 -4.08037 3.45557 0
M  V30 9175 C 868.929 -2.28178 4.69821 0
M  V30 9176 H 870.623 -1.05224 2.803 0
M  V30 9177 H 868.169 -0.504738 1.34864 0
M  V30 9178 H 870.122 -3.45719 2.40949 0
M  V30 9179 H 868.846 -3.01867 1.24676 0
M  V30 9180 H 867.505 -1.9601 3.09799 0
M  V30 9181 H 867.153 -4.36344 2.50226 0
M  V30 9182 H 866.853 -4.07409 4.23429 0
M  V30 9183 H 868.377 -4.84726 3.71312 0
M  V30 9184 H 869.791 -2.92843 4.92865 0
M  V30 9185 H 868.188 -2.3872 5.50575 0
M  V30 9186 H 869.258 -1.23308 4.6896 0
M  V30 9187 N 870.601 -1.47988 -0.541979 0
M  V30 9188 C 872.012 -1.49073 -1.12402 0
M  V30 9189 C 872.363 -0.253825 -1.94551 0
M  V30 9190 O 871.488 0.640056 -2.06718 0
M  V30 9191 C 872.083 -2.7011 -2.04514 0
M  V30 9192 C 870.642 -2.74105 -2.5796 0
M  V30 9193 C 869.789 -2.42409 -1.3466 0
M  V30 9194 H 872.74 -1.55277 -0.327818 0
M  V30 9195 H 872.761 -2.47946 -2.88623 0
M  V30 9196 H 872.273 -3.60117 -1.44697 0
M  V30 9197 H 870.374 -1.88276 -3.21532 0
M  V30 9198 H 870.487 -3.75213 -2.97913 0
M  V30 9199 H 868.851 -1.9331 -1.65841 0
M  V30 9200 H 869.634 -3.34642 -0.766133 0
M  V30 9201 N 872.079 0.78992 -1.36375 0
M  V30 9202 C 873.307 1.57873 -1.3373 0
M  V30 9203 C 873.722 1.88624 0.0815544 0
M  V30 9204 O 873.079 1.50085 1.03831 0
M  V30 9205 C 873.13 2.90003 -2.15825 0
M  V30 9206 O 872.851 2.60578 -3.5218 0
M  V30 9207 C 874.352 3.84309 -2.20955 0
M  V30 9208 H 871.572 0.489685 -0.458748 0
M  V30 9209 H 874.116 0.980436 -1.79465 0
M  V30 9210 H 872.271 3.46303 -1.73646 0
M  V30 9211 H 872.685 3.4506 -3.95011 0
M  V30 9212 H 874.159 4.74081 -2.82756 0
M  V30 9213 H 874.636 4.22121 -1.21287 0
M  V30 9214 H 875.242 3.33942 -2.63368 0
M  V30 9215 N 873.557 1.20646 1.01402 0
M  V30 9216 C 874.487 0.98155 2.11867 0
M  V30 9217 C 875.468 -0.0903712 1.6986 0
M  V30 9218 O 876.653 0.0676586 1.94082 0
M  V30 9219 C 873.783 0.535636 3.43145 0
M  V30 9220 C 872.737 1.55109 3.98905 0
M  V30 9221 C 872.063 0.961725 5.2598 0
M  V30 9222 C 873.363 2.93552 4.32001 0
M  V30 9223 H 875.057 1.90544 2.3094 0
M  V30 9224 H 872.603 0.917554 1.10982 0
M  V30 9225 H 874.556 0.365512 4.19812 0
M  V30 9226 H 873.28 -0.423882 3.23838 0
M  V30 9227 H 871.939 1.70862 3.24348 0
M  V30 9228 H 871.587 -0.00580108 5.03 0
M  V30 9229 H 871.287 1.63993 5.64252 0
M  V30 9230 H 872.811 0.802726 6.053 0
M  V30 9231 H 874.225 2.81295 4.99546 0
M  V30 9232 H 872.622 3.58303 4.81393 0
M  V30 9233 H 873.692 3.4508 3.40658 0
M  V30 9234 N 875.035 -1.20752 1.01276 0
M  V30 9235 C 875.967 -2.22798 0.537917 0
M  V30 9236 C 876.98 -1.5836 -0.377638 0
M  V30 9237 O 878.169 -1.77624 -0.176599 0
M  V30 9238 C 875.269 -3.38068 -0.237364 0
M  V30 9239 C 874.442 -4.32095 0.679161 0
M  V30 9240 C 873.501 -5.26178 -0.0478676 0
M  V30 9241 O 872.527 -5.66305 0.573366 0
M  V30 9242 N 873.729 -5.65201 -1.32396 0
M  V30 9243 H 876.494 -2.64166 1.4155 0
M  V30 9244 H 874.055 -1.35254 0.889826 0
M  V30 9245 H 876.047 -3.98009 -0.73288 0
M  V30 9246 H 874.617 -2.95622 -1.0162 0
M  V30 9247 H 873.837 -3.70179 1.35505 0
M  V30 9248 H 875.125 -4.91842 1.30263 0
M  V30 9249 H 874.523 -5.34606 -1.84968 0
M  V30 9250 H 873.08 -6.27468 -1.76428 0
M  V30 9251 N 876.513 -0.788492 -1.36457 0
M  V30 9252 C 877.476 -0.192209 -2.28393 0
M  V30 9253 C 878.476 0.609916 -1.48784 0
M  V30 9254 O 879.666 0.431046 -1.68783 0
M  V30 9255 C 876.798 0.734096 -3.32902 0
M  V30 9256 H 877.991 -1.00284 -2.82636 0
M  V30 9257 H 875.544 -0.557852 -1.46006 0
M  V30 9258 H 876.279 1.5691 -2.83813 0
M  V30 9259 H 876.064 0.160875 -3.9177 0
M  V30 9260 H 877.554 1.1462 -4.01562 0
M  V30 9261 N 877.991 1.48044 -0.54043 0
M  V30 9262 C 878.954 2.28273 0.205966 0
M  V30 9263 C 879.954 1.35983 0.858209 0
M  V30 9264 O 881.144 1.58776 0.716651 0
M  V30 9265 C 878.276 3.15174 1.29917 0
M  V30 9266 H 879.469 2.95727 -0.498555 0
M  V30 9267 H 877.022 1.53457 -0.296745 0
M  V30 9268 H 877.757 2.52374 2.03661 0
M  V30 9269 H 877.542 3.83074 0.836475 0
M  V30 9270 H 879.032 3.75666 1.82387 0
M  V30 9271 N 879.47 0.276058 1.55163 0
M  V30 9272 C 880.698 -0.343772 2.04024 0
M  V30 9273 C 881.113 -1.49397 1.15438 0
M  V30 9274 O 880.47 -1.81662 0.174692 0
M  V30 9275 C 880.521 -0.823885 3.51986 0
M  V30 9276 O 880.242 0.280507 4.37201 0
M  V30 9277 C 881.743 -1.51143 4.16738 0
M  V30 9278 H 878.963 -0.07828 0.666418 0
M  V30 9279 H 881.507 0.408427 2.0038 0
M  V30 9280 H 879.662 -1.52617 3.56071 0
M  V30 9281 H 880.076 -0.0887831 5.24425 0
M  V30 9282 H 881.55 -1.79878 5.2187 0
M  V30 9283 H 882.027 -2.44327 3.64967 0
M  V30 9284 H 882.633 -0.852975 4.16659 0
M  V30 9285 N 880.948 -1.576 0.00335426 0
M  V30 9286 C 882.173 -1.95398 -0.695311 0
M  V30 9287 C 882.598 -0.878476 -1.66326 0
M  V30 9288 O 881.956 0.163086 -1.80565 0
M  V30 9289 C 882.004 -3.32293 -1.40049 0
M  V30 9290 O 881.108 -3.26834 -2.51502 0
M  V30 9291 H 880.449 -0.637796 -0.184694 0
M  V30 9292 H 882.979 -2.04519 0.057543 0
M  V30 9293 H 882.989 -3.67936 -1.76316 0
M  V30 9294 H 881.664 -4.10123 -0.690803 0
M  V30 9295 H 880.241 -3.02872 -2.17539 0
M  V30 9296 N 882.426 0.269451 -1.5528 0
M  V30 9297 C 883.674 0.998604 -1.75705 0
M  V30 9298 C 883.995 1.86691 -0.563175 0
M  V30 9299 O 883.265 1.91305 0.421811 0
M  V30 9300 H 881.845 0.371698 -0.647958 0
M  V30 9301 H 884.507 0.292826 -1.92688 0
M  V30 9302 H 883.603 1.63348 -2.6594 0
M  V30 9303 N 883.904 1.48273 0.534124 0
M  V30 9304 C 884.834 1.6538 1.64839 0
M  V30 9305 C 885.815 0.502741 1.62501 0
M  V30 9306 O 887 0.734799 1.79762 0
M  V30 9307 C 884.13 1.68949 3.03436 0
M  V30 9308 C 883.084 2.83513 3.20631 0
M  V30 9309 C 882.41 2.72169 4.60248 0
M  V30 9310 C 883.71 4.24858 3.03797 0
M  V30 9311 H 885.404 2.58663 1.50777 0
M  V30 9312 H 882.95 1.24479 0.723937 0
M  V30 9313 H 884.903 1.79505 3.81256 0
M  V30 9314 H 883.627 0.722415 3.1851 0
M  V30 9315 H 882.286 2.72505 2.45227 0
M  V30 9316 H 881.934 1.7344 4.72152 0
M  V30 9317 H 881.634 3.49042 4.72698 0
M  V30 9318 H 883.158 2.84687 5.40172 0
M  V30 9319 H 884.572 4.36721 3.71413 0
M  V30 9320 H 882.969 5.02697 3.27743 0
M  V30 9321 H 884.039 4.41611 2.0027 0
M  V30 9322 N 885.382 -0.782676 1.36792 0
M  V30 9323 C 886.61 -1.57162 1.34565 0
M  V30 9324 C 887.025 -1.88664 -0.0715501 0
M  V30 9325 O 886.382 -1.50633 -1.03033 0
M  V30 9326 C 886.433 -2.88854 2.1736 0
M  V30 9327 O 886.154 -2.58707 3.53557 0
M  V30 9328 C 887.655 -3.83132 2.2299 0
M  V30 9329 H 884.875 -0.487245 0.461338 0
M  V30 9330 H 887.419 -0.970905 1.79982 0
M  V30 9331 H 885.574 -3.45377 1.7548 0
M  V30 9332 H 885.988 -3.42961 3.96835 0
M  V30 9333 H 887.462 -4.72575 2.85266 0
M  V30 9334 H 887.939 -4.21472 1.23524 0
M  V30 9335 H 888.545 -3.32541 2.65135 0
M  V30 9336 N 886.86 -1.21182 -1.00761 0
M  V30 9337 C 887.792 -0.926523 -2.09638 0
M  V30 9338 C 888.805 0.0892511 -1.62555 0
M  V30 9339 O 889.994 -0.142915 -1.77927 0
M  V30 9340 C 887.094 -0.369175 -3.36883 0
M  V30 9341 C 886.267 -1.43866 -4.13063 0
M  V30 9342 C 885.326 -0.891015 -5.18601 0
M  V30 9343 O 884.352 -1.57384 -5.47009 0
M  V30 9344 N 885.554 0.295057 -5.7975 0
M  V30 9345 H 888.319 -1.8638 -2.34697 0
M  V30 9346 H 885.88 -1.11671 -1.17223 0
M  V30 9347 H 887.872 0.011534 -4.04698 0
M  V30 9348 H 886.442 0.472861 -3.09003 0
M  V30 9349 H 885.662 -1.99332 -3.40089 0
M  V30 9350 H 886.95 -2.15866 -4.60738 0
M  V30 9351 H 886.348 0.8669 -5.59018 0
M  V30 9352 H 884.905 0.617306 -6.4887 0
M  V30 9353 N 888.338 1.20213 -1.01915 0
M  V30 9354 C 889.563 1.94163 -0.729076 0
M  V30 9355 C 889.988 1.74416 0.704323 0
M  V30 9356 O 889.346 1.0401 1.48498 0
M  V30 9357 C 889.394 3.44258 -1.07324 0
M  V30 9358 O 888.498 4.11979 -0.186367 0
M  V30 9359 H 887.839 0.606506 -0.270272 0
M  V30 9360 H 890.369 1.52571 -1.3632 0
M  V30 9361 H 890.379 3.94888 -1.02603 0
M  V30 9362 H 889.054 3.57954 -2.11759 0
M  V30 9363 H 887.631 3.7176 -0.291334 0
M  V30 9364 N 889.816 0.795718 1.36037 0
M  V30 9365 C 891.093 0.294743 1.93367 0
M  V30 9366 C 891.473 -1.21406 1.72696 0
M  V30 9367 O 890.821 -2.00849 1.08959 0
M  V30 9368 C 891.031 0.694254 3.42025 0
M  V30 9369 C 892.379 0.677566 4.19159 0
M  V30 9370 O 893.403 0.635119 3.50492 0
M  V30 9371 O 892.262 0.726127 5.41655 0
M  V30 9372 H 889.356 0.0745459 0.823633 0
M  V30 9373 H 891.902 0.878685 1.4518 0
M  V30 9374 H 890.674 1.73458 3.50753 0
M  V30 9375 H 890.297 0.0845338 3.9751 0
M  V30 9376 N 891.294 -1.47756 0.548274 0
M  V30 9377 C 892.705 -1.8636 0.112547 0
M  V30 9378 C 893.056 -1.45589 -1.31523 0
M  V30 9379 O 892.181 -0.854874 -1.98799 0
M  V30 9380 C 892.776 -3.38224 0.197473 0
M  V30 9381 C 891.335 -3.75954 -0.183163 0
M  V30 9382 C 890.482 -2.7181 0.549059 0
M  V30 9383 H 893.433 -1.394 0.758506 0
M  V30 9384 H 893.454 -3.75957 -0.586217 0
M  V30 9385 H 892.966 -3.67868 1.23673 0
M  V30 9386 H 891.067 -3.51926 -1.22387 0
M  V30 9387 H 891.18 -4.78801 0.169178 0
M  V30 9388 H 889.544 -2.54699 -0.00682862 0
M  V30 9389 H 890.327 -3.04296 1.5893 0
M  V30 9390 N 892.772 -0.284283 -1.55015 0
M  V30 9391 C 894.188 0.069603 -1.59448 0
M  V30 9392 C 894.388 1.53833 -1.30144 0
M  V30 9393 O 893.444 2.2886 -1.06674 0
M  V30 9394 C 894.757 -0.313287 -2.99064 0
M  V30 9395 C 896.305 -0.260662 -3.11913 0
M  V30 9396 C 896.78 -0.618127 -4.5381 0
M  V30 9397 N 898.271 -0.570026 -4.59679 0
M  V30 9398 C 899.006 -0.8193 -5.67517 0
M  V30 9399 N 898.502 -1.13367 -6.83462 0
M  V30 9400 N 900.295 -0.747482 -5.57108 0
M  V30 9401 H 892.446 -1.24167 -1.72326 0
M  V30 9402 H 894.709 -0.502259 -0.804015 0
M  V30 9403 H 894.415 -1.33509 -3.25374 0
M  V30 9404 H 894.289 0.341369 -3.75652 0
M  V30 9405 H 896.676 0.751869 -2.85361 0
M  V30 9406 H 896.757 -0.949706 -2.37517 0
M  V30 9407 H 896.401 -1.62839 -4.81088 0
M  V30 9408 H 896.331 0.092807 -5.26518 0
M  V30 9409 H 898.822 -0.3373 -3.76392 0
M  V30 9410 H 899.135 -1.3103 -7.61611 0
M  V30 9411 H 897.48 -1.17154 -6.85055 0
M  V30 9412 H 900.671 -0.501658 -4.65404 0
M  V30 9413 H 900.844 -0.945128 -6.4107 0
M  V30 9414 N 894.251 1.57596 -0.0117121 0
M  V30 9415 C 895.667 1.55837 0.344506 0
M  V30 9416 C 895.867 1.01557 1.74036 0
M  V30 9417 O 894.923 0.654563 2.43868 0
M  V30 9418 C 896.236 2.99973 0.209023 0
M  V30 9419 C 897.784 3.11717 0.283092 0
M  V30 9420 C 898.259 4.57659 0.176599 0
M  V30 9421 N 899.75 4.62608 0.234133 0
M  V30 9422 C 900.485 5.73132 0.175252 0
M  V30 9423 N 899.981 6.92768 0.0662888 0
M  V30 9424 N 901.774 5.61638 0.227972 0
M  V30 9425 H 893.925 1.91215 -0.924692 0
M  V30 9426 H 896.188 0.878807 -0.355531 0
M  V30 9427 H 895.894 3.4357 -0.751826 0
M  V30 9428 H 895.768 3.64075 0.98635 0
M  V30 9429 H 898.155 2.68043 1.23439 0
M  V30 9430 H 898.236 2.50369 -0.52431 0
M  V30 9431 H 897.88 5.02011 -0.771205 0
M  V30 9432 H 897.81 5.16967 1.00264 0
M  V30 9433 H 900.301 3.76549 0.319203 0
M  V30 9434 H 900.614 7.72795 0.0275765 0
M  V30 9435 H 898.959 6.94993 0.0317502 0
M  V30 9436 H 902.15 4.67063 0.311377 0
M  V30 9437 H 902.323 6.47754 0.178621 0
M  V30 9438 N 895.729 -0.261212 1.5542 0
M  V30 9439 C 896.661 -1.34571 1.85535 0
M  V30 9440 C 897.674 -1.44979 0.740612 0
M  V30 9441 O 898.863 -1.46584 1.01859 0
M  V30 9442 C 895.963 -2.7258 2.01378 0
M  V30 9443 C 895.136 -2.84618 3.32131 0
M  V30 9444 C 894.195 -4.03379 3.37893 0
M  V30 9445 O 893.221 -3.93581 4.11197 0
M  V30 9446 N 894.423 -5.15893 2.66148 0
M  V30 9447 H 897.188 -1.09078 2.79145 0
M  V30 9448 H 894.749 -0.451327 1.55482 0
M  V30 9449 H 896.741 -3.50342 2.0259 0
M  V30 9450 H 895.311 -2.90844 1.14579 0
M  V30 9451 H 894.531 -1.93647 3.43358 0
M  V30 9452 H 895.819 -2.896 4.18341 0
M  V30 9453 H 895.217 -5.26743 2.06297 0
M  V30 9454 H 893.774 -5.91842 2.73069 0
M  V30 9455 N 897.207 -1.48554 -0.526253 0
M  V30 9456 C 898.137 -1.66252 -1.63959 0
M  V30 9457 C 899.118 -0.511351 -1.62232 0
M  V30 9458 O 900.303 -0.744322 -1.7937 0
M  V30 9459 C 897.433 -1.70556 -3.02536 0
M  V30 9460 C 896.387 -2.8521 -3.19123 0
M  V30 9461 C 895.713 -2.74606 -4.58798 0
M  V30 9462 C 897.013 -4.26463 -3.0154 0
M  V30 9463 H 898.707 -2.59459 -1.49404 0
M  V30 9464 H 896.253 -1.24862 -0.717326 0
M  V30 9465 H 898.206 -1.81524 -3.80298 0
M  V30 9466 H 896.93 -0.739297 -3.18123 0
M  V30 9467 H 895.589 -2.73802 -2.43779 0
M  V30 9468 H 895.237 -1.75941 -4.71226 0
M  V30 9469 H 894.937 -3.51544 -4.70841 0
M  V30 9470 H 896.461 -2.87548 -5.38655 0
M  V30 9471 H 897.875 -4.38685 -3.69091 0
M  V30 9472 H 896.272 -5.04428 -3.25073 0
M  V30 9473 H 897.342 -4.42667 -1.97925 0
M  V30 9474 N 898.685 0.775411 -1.37205 0
M  V30 9475 C 899.931 1.53611 -1.32407 0
M  V30 9476 C 900.264 1.9398 0.0924103 0
M  V30 9477 O 899.539 1.63791 1.04893 0
M  V30 9478 C 899.822 2.80367 -2.25979 0
M  V30 9479 C 899.675 2.46275 -3.76389 0
M  V30 9480 C 900.994 3.82277 -2.18064 0
M  V30 9481 H 898.113 0.557278 -0.482297 0
M  V30 9482 H 900.755 0.889826 -1.67875 0
M  V30 9483 H 898.905 3.35515 -1.95862 0
M  V30 9484 H 900.577 1.9707 -4.17087 0
M  V30 9485 H 898.82 1.79023 -3.95137 0
M  V30 9486 H 899.491 3.36868 -4.37291 0
M  V30 9487 H 901.967 3.36613 -2.44604 0
M  V30 9488 H 900.843 4.68696 -2.85684 0
M  V30 9489 H 901.104 4.26272 -1.17239 0
M  V30 9490 N 900.163 1.21714 1.00117 0
M  V30 9491 C 901.073 0.99597 2.12409 0
M  V30 9492 C 902.089 -0.0531431 1.73919 0
M  V30 9493 O 903.265 0.137757 2.00928 0
M  V30 9494 C 900.33 0.567593 3.42022 0
M  V30 9495 C 899.391 1.68936 3.94663 0
M  V30 9496 C 898.624 1.28133 5.1809 0
M  V30 9497 O 898.847 0.156574 5.70185 0
M  V30 9498 O 897.781 2.0947 5.64275 0
M  V30 9499 H 901.607 1.93657 2.33946 0
M  V30 9500 H 899.192 1.00236 1.10784 0
M  V30 9501 H 901.074 0.338664 4.20037 0
M  V30 9502 H 899.749 -0.34424 3.21864 0
M  V30 9503 H 898.656 1.97274 3.17858 0
M  V30 9504 H 899.989 2.57876 4.19238 0
M  V30 9505 N 901.641 -1.19671 1.02551 0
M  V30 9506 C 902.869 -1.93233 0.739513 0
M  V30 9507 C 903.284 -1.75298 -0.701158 0
M  V30 9508 O 902.641 -1.07269 -1.47647 0
M  V30 9509 C 902.692 -3.45085 1.07697 0
M  V30 9510 O 902.413 -3.62441 2.46106 0
M  V30 9511 C 903.914 -4.35776 0.813298 0
M  V30 9512 H 901.134 -0.613905 0.270853 0
M  V30 9513 H 903.678 -1.51909 1.36909 0
M  V30 9514 H 901.833 -3.84255 0.492635 0
M  V30 9515 H 902.247 -4.56337 2.58567 0
M  V30 9516 H 903.721 -5.40941 1.09941 0
M  V30 9517 H 904.198 -4.38474 -0.252359 0
M  V30 9518 H 904.804 -4.02282 1.38021 0
M  V30 9519 N 903.119 -0.802921 -1.35613 0
M  V30 9520 C 904.049 -0.225131 -2.32412 0
M  V30 9521 C 905.03 0.647383 -1.57299 0
M  V30 9522 O 906.215 0.578414 -1.85386 0
M  V30 9523 C 903.345 0.630085 -3.41537 0
M  V30 9524 C 902.299 -0.143635 -4.27759 0
M  V30 9525 C 901.625 0.833046 -5.28171 0
M  V30 9526 C 902.925 -1.34054 -5.04804 0
M  V30 9527 H 904.619 -1.03385 -2.80984 0
M  V30 9528 H 902.165 -0.498593 -1.35093 0
M  V30 9529 H 904.118 1.04433 -4.08254 0
M  V30 9530 H 902.842 1.47165 -2.91565 0
M  V30 9531 H 901.501 -0.539015 -3.62616 0
M  V30 9532 H 901.149 1.67001 -4.74468 0
M  V30 9533 H 900.849 0.319697 -5.8673 0
M  V30 9534 H 902.373 1.24558 -5.97761 0
M  V30 9535 H 903.787 -1.00136 -5.64487 0
M  V30 9536 H 902.184 -1.78812 -5.72841 0
M  V30 9537 H 903.254 -2.12906 -4.35659 0
M  V30 9538 N 904.597 1.47463 -0.556102 0
M  V30 9539 C 905.825 2.06868 -0.0364585 0
M  V30 9540 C 906.24 1.40893 1.25677 0
M  V30 9541 O 905.597 0.505083 1.75371 0
M  V30 9542 C 905.648 3.61128 0.163984 0
M  V30 9543 O 905.369 4.24629 -1.07803 0
M  V30 9544 C 906.87 4.37397 0.721036 0
M  V30 9545 H 904.09 0.669466 -0.0453399 0
M  V30 9546 H 906.634 1.89482 -0.769198 0
M  V30 9547 H 904.789 3.78031 0.84685 0
M  V30 9548 H 905.203 5.17149 -0.875067 0
M  V30 9549 H 906.677 5.46016 0.810584 0
M  V30 9550 H 907.154 4.03604 1.73206 0
M  V30 9551 H 907.76 4.25236 0.073904 0
M  V30 9552 N 906.075 0.2925 1.54862 0
M  V30 9553 C 907.491 -0.0611461 1.59483 0
M  V30 9554 C 907.691 -1.53141 1.30958 0
M  V30 9555 O 906.747 -2.28291 1.07887 0
M  V30 9556 C 908.06 0.329143 2.98893 0
M  V30 9557 C 909.608 0.2772 3.1177 0
M  V30 9558 C 910.083 0.642185 4.53475 0
M  V30 9559 N 911.574 0.594396 4.5937 0
M  V30 9560 C 912.309 0.849385 5.67074 0
M  V30 9561 N 911.805 1.1699 6.82851 0
M  V30 9562 N 913.598 0.777016 5.56704 0
M  V30 9563 H 905.749 1.25079 1.71665 0
M  V30 9564 H 908.012 0.506516 0.80134 0
M  V30 9565 H 907.718 1.35233 3.24661 0
M  V30 9566 H 907.592 -0.321442 3.75828 0
M  V30 9567 H 909.979 -0.736725 2.85756 0
M  V30 9568 H 910.06 0.962289 2.3701 0
M  V30 9569 H 909.704 1.65388 4.80218 0
M  V30 9570 H 909.634 -0.0648831 5.2656 0
M  V30 9571 H 912.125 0.357256 3.76208 0
M  V30 9572 H 912.438 1.35067 7.60905 0
M  V30 9573 H 910.783 1.20785 6.84424 0
M  V30 9574 H 913.974 0.526333 4.65132 0
M  V30 9575 H 914.147 0.979113 6.4056 0
M  V30 9576 N 907.553 -1.57587 0.0200696 0
M  V30 9577 C 908.799 -1.92539 -0.655764 0
M  V30 9578 C 909.154 -0.896187 -1.70253 0
M  V30 9579 O 908.447 0.0890022 -1.91393 0
M  V30 9580 C 908.641 -3.32002 -1.32323 0
M  V30 9581 C 908.47 -4.48393 -0.342632 0
M  V30 9582 C 907.24 -5.05271 0.0542423 0
M  V30 9583 C 909.438 -5.12747 0.399388 0
M  V30 9584 N 907.42 -6.05181 1.03095 0
M  V30 9585 C 908.791 -6.07674 1.23014 0
M  V30 9586 C 910.846 -4.95761 0.461065 0
M  V30 9587 C 909.549 -6.87442 2.11698 0
M  V30 9588 C 911.575 -5.7613 1.33521 0
M  V30 9589 C 910.937 -6.70666 2.15376 0
M  V30 9590 H 907.036 -0.75256 -0.212549 0
M  V30 9591 H 909.62 -1.94514 0.0851247 0
M  V30 9592 H 907.791 -3.30863 -2.0343 0
M  V30 9593 H 909.523 -3.54327 -1.95537 0
M  V30 9594 H 906.278 -4.72529 -0.318327 0
M  V30 9595 H 906.702 -6.59824 1.51528 0
M  V30 9596 H 911.344 -4.22506 -0.15752 0
M  V30 9597 H 909.062 -7.60008 2.74616 0
M  V30 9598 H 912.648 -5.65023 1.38711 0
M  V30 9599 H 911.528 -7.31772 2.81922 0
M  V30 9600 N 909.032 0.252966 -1.55557 0
M  V30 9601 C 910.309 1.00432 -1.67847 0
M  V30 9602 C 910.689 2.03587 -0.55816 0
M  V30 9603 O 910.037 2.24239 0.439197 0
M  V30 9604 C 910.247 1.64313 -3.079 0
M  V30 9605 C 911.595 2.14726 -3.66303 0
M  V30 9606 O 912.619 1.74264 -3.10661 0
M  V30 9607 O 911.478 2.89 -4.63833 0
M  V30 9608 H 908.572 0.467102 -0.682455 0
M  V30 9609 H 911.118 0.247233 -1.67889 0
M  V30 9610 H 909.89 0.896681 -3.80888 0
M  V30 9611 H 909.513 2.46657 -3.11843 0
M  V30 9612 N 910.51 1.48831 0.518367 0
M  V30 9613 C 911.758 1.57128 1.27103 0
M  V30 9614 C 912.079 0.252098 1.93364 0
M  V30 9615 O 911.349 -0.727281 1.819 0
M  V30 9616 H 909.929 0.578891 0.472116 0
M  V30 9617 H 912.591 1.85361 0.602262 0
M  V30 9618 H 911.687 2.35838 2.04418 0
M  V30 9619 N 911.988 -0.768124 1.37614 0
M  V30 9620 C 913.237 -1.5221 1.32345 0
M  V30 9621 C 913.55 -1.95399 -0.0885761 0
M  V30 9622 O 914.756 -2.70216 -0.263752 0
M  V30 9623 C 913.212 -2.74872 2.32322 0
M  V30 9624 C 912.82 -2.38767 3.79071 0
M  V30 9625 C 914.564 -3.52805 2.36069 0
M  V30 9626 C 912.471 -3.57953 4.7077 0
M  V30 9627 H 911.401 -0.571461 0.491883 0
M  V30 9628 H 914.052 -0.841004 1.63093 0
M  V30 9629 H 912.434 -3.44889 1.94596 0
M  V30 9630 H 913.608 -1.7651 4.25654 0
M  V30 9631 H 911.923 -1.74 3.78303 0
M  V30 9632 H 914.52 -4.41397 3.01782 0
M  V30 9633 H 914.863 -3.92925 1.37535 0
M  V30 9634 H 915.396 -2.89788 2.72521 0
M  V30 9635 H 912.135 -3.22911 5.70446 0
M  V30 9636 H 911.655 -4.19302 4.28889 0
M  V30 9637 H 913.334 -4.2472 4.8808 0
M  V30 9638 N 913.466 -1.22244 -0.994698 0
M  V30 9639 C 914.414 -0.988118 -2.10568 0
M  V30 9640 C 915.408 0.0681541 -1.69263 0
M  V30 9641 O 916.614 -0.0841311 -1.79803 0
M  V30 9642 H 912.989 -0.302343 -0.688544 0
M  V30 9643 H 914.96 -1.93091 -2.27505 0
M  V30 9644 C 913.709 -0.580557 -3.42819 0
M  V30 9645 H 913.032 -1.385 -3.75044 0
M  V30 9646 H 914.472 -0.456004 -4.21541 0
M  V30 9647 C 912.931 0.709692 -3.2934 0
M  V30 9648 O 913.461 1.76259 -3.60965 0
M  V30 9649 N 911.667 0.680155 -2.82528 0
M  V30 9650 H 911.214 -0.176977 -2.56991 0
M  V30 9651 H 911.172 1.54372 -2.73892 0
M  V30 9652 N 914.944 1.19125 -1.03184 0
M  V30 9653 C 915.874 2.24675 -0.635889 0
M  V30 9654 C 916.855 1.66321 0.356565 0
M  V30 9655 O 918.04 1.92728 0.238625 0
M  V30 9656 C 915.17 3.47298 0.011069 0
M  V30 9657 C 914.124 4.18345 -0.903979 0
M  V30 9658 C 913.45 5.34561 -0.12197 0
M  V30 9659 C 914.75 4.72816 -2.21907 0
M  V30 9660 H 916.444 2.5805 -1.51825 0
M  V30 9661 H 913.99 1.24039 -0.73146 0
M  V30 9662 H 915.943 4.20333 0.299729 0
M  V30 9663 H 914.667 3.13131 0.928245 0
M  V30 9664 H 913.326 3.47196 -1.17688 0
M  V30 9665 H 912.974 4.9664 0.797334 0
M  V30 9666 H 912.674 5.83029 -0.731498 0
M  V30 9667 H 914.198 6.10391 0.159881 0
M  V30 9668 H 915.612 5.3759 -1.99173 0
M  V30 9669 H 914.009 5.31782 -2.78078 0
M  V30 9670 H 915.079 3.9072 -2.87168 0
M  V30 9671 N 916.422 0.810101 1.35185 0
M  V30 9672 C 917.352 0.237453 2.32289 0
M  V30 9673 C 918.333 -0.639032 1.5764 0
M  V30 9674 O 919.518 -0.568575 1.8569 0
M  V30 9675 C 916.648 -0.611964 3.41866 0
M  V30 9676 C 915.602 0.166318 4.27677 0
M  V30 9677 C 914.928 -0.805024 5.28605 0
M  V30 9678 C 916.228 1.36729 5.04086 0
M  V30 9679 H 917.922 1.04874 2.80432 0
M  V30 9680 H 915.468 0.505751 1.34826 0
M  V30 9681 H 917.421 -1.02267 4.08802 0
M  V30 9682 H 916.145 -1.45617 2.92341 0
M  V30 9683 H 914.804 0.558238 3.62325 0
M  V30 9684 H 914.452 -1.64483 4.75347 0
M  V30 9685 H 914.152 -0.288577 5.86891 0
M  V30 9686 H 915.676 -1.21386 5.98413 0
M  V30 9687 H 917.09 1.03128 5.63948 0
M  V30 9688 H 915.487 1.81848 5.71884 0
M  V30 9689 H 916.557 2.15214 4.34524 0
M  V30 9690 N 917.9 -1.47166 0.563914 0
M  V30 9691 C 918.848 -2.31798 -0.193009 0
M  V30 9692 C 919.842 -1.43338 -0.902805 0
M  V30 9693 O 921.048 -1.60067 -0.823328 0
M  V30 9694 H 917.423 -0.747613 -0.0811139 0
M  V30 9695 H 919.394 -2.93476 0.539876 0
M  V30 9696 C 918.143 -3.26131 -1.20555 0
M  V30 9697 H 917.466 -3.94166 -0.668803 0
M  V30 9698 H 918.906 -3.88167 -1.70593 0
M  V30 9699 C 917.365 -2.50132 -2.25689 0
M  V30 9700 O 917.895 -2.25064 -3.3273 0
M  V30 9701 N 916.101 -2.11022 -1.99795 0
M  V30 9702 H 915.648 -2.3161 -1.1276 0
M  V30 9703 H 915.606 -1.60489 -2.70353 0
M  V30 9704 N 919.378 -0.300708 -1.54705 0
M  V30 9705 C 920.655 0.361757 -1.92226 0
M  V30 9706 C 921.035 1.71714 -1.2279 0
M  V30 9707 O 920.383 2.2559 -0.363542 0
M  V30 9708 C 920.593 0.476699 -3.45729 0
M  V30 9709 C 921.941 0.7477 -4.17965 0
M  V30 9710 O 922.965 0.560521 -3.51762 0
M  V30 9711 O 921.824 1.10724 -5.35166 0
M  V30 9712 H 918.918 0.202213 -0.801897 0
M  V30 9713 H 921.464 -0.348746 -1.66078 0
M  V30 9714 H 920.236 -0.476132 -3.88392 0
M  V30 9715 H 919.859 1.23568 -3.77911 0
M  V30 9716 N 920.856 1.57574 -0.0284266 0
M  V30 9717 C 922.133 1.83064 0.688979 0
M  V30 9718 C 922.513 0.91219 1.90374 0
M  V30 9719 O 921.861 -0.0323672 2.28477 0
M  V30 9720 C 922.071 3.32262 1.06785 0
M  V30 9721 C 923.419 3.98717 1.45978 0
M  V30 9722 O 924.443 3.36753 1.16085 0
M  V30 9723 O 923.302 5.07927 2.01673 0
M  V30 9724 H 920.396 0.7548 0.337944 0
M  V30 9725 H 922.942 1.69607 -0.0560555 0
M  V30 9726 H 921.714 3.90772 0.203235 0
M  V30 9727 H 921.337 3.50823 1.87107 0
M  V30 9728 N 922.334 -0.244713 1.55689 0
M  V30 9729 C 923.582 -0.970525 1.77272 0
M  V30 9730 C 923.903 -1.85771 0.592804 0
M  V30 9731 O 923.173 -1.91952 -0.391323 0
M  V30 9732 H 921.753 -0.361342 0.653789 0
M  V30 9733 H 924.415 -0.262134 1.93129 0
M  V30 9734 H 923.511 -1.59096 2.68505 0
M  V30 9735 N 923.813 -1.49104 -0.510467 0
M  V30 9736 C 924.76 -1.65074 -1.61305 0
M  V30 9737 C 925.73 -0.492362 -1.58635 0
M  V30 9738 O 926.915 -0.718241 -1.76765 0
M  V30 9739 C 924.055 -1.71457 -2.99493 0
M  V30 9740 C 923.168 -2.98536 -3.12251 0
M  V30 9741 C 922.303 -2.95957 -4.41116 0
M  V30 9742 C 921.342 -4.17655 -4.47471 0
M  V30 9743 N 920.479 -4.13041 -5.67751 0
M  V30 9744 H 925.319 -2.59222 -1.46996 0
M  V30 9745 H 922.856 -1.28535 -0.715346 0
M  V30 9746 H 924.814 -1.7314 -3.79577 0
M  V30 9747 H 923.444 -0.807834 -3.12528 0
M  V30 9748 H 922.496 -3.06509 -2.25292 0
M  V30 9749 H 923.808 -3.88527 -3.12807 0
M  V30 9750 H 922.962 -2.96149 -5.2951 0
M  V30 9751 H 921.701 -2.03728 -4.4311 0
M  V30 9752 H 920.706 -4.17717 -3.57481 0
M  V30 9753 H 921.931 -5.11066 -4.472 0
M  V30 9754 H 919.877 -3.23643 -5.70606 0
M  V30 9755 H 919.794 -4.96757 -5.69884 0
M  V30 9756 H 921.062 -4.17322 -6.58379 0
M  V30 9757 N 925.291 0.760815 -1.38019 0
M  V30 9758 C 926.519 1.55001 -1.37048 0
M  V30 9759 C 926.934 1.88754 0.0415261 0
M  V30 9760 O 926.291 1.52254 1.00624 0
M  V30 9761 C 926.342 2.8536 -2.21928 0
M  V30 9762 O 926.063 2.53049 -3.57628 0
M  V30 9763 C 927.564 3.79536 -2.29057 0
M  V30 9764 H 924.784 0.479844 -0.469032 0
M  V30 9765 H 927.328 0.942148 -1.81504 0
M  V30 9766 H 925.483 3.42542 -1.80953 0
M  V30 9767 H 925.897 3.36604 -4.02241 0
M  V30 9768 H 927.371 4.67977 -2.92749 0
M  V30 9769 H 927.848 4.19453 -1.30213 0
M  V30 9770 H 928.454 3.28281 -2.70392 0
M  V30 9771 N 926.769 1.22769 0.988202 0
M  V30 9772 C 928.015 1.06672 1.73184 0
M  V30 9773 C 928.37 -0.393434 1.88334 0
M  V30 9774 O 927.663 -1.2876 1.41885 0
M  V30 9775 C 927.857 1.71679 3.13466 0
M  V30 9776 C 927.686 3.23864 3.11997 0
M  V30 9777 C 926.456 3.92991 3.17626 0
M  V30 9778 C 928.654 4.20737 2.95778 0
M  V30 9779 N 926.636 5.32224 3.05959 0
M  V30 9780 C 928.007 5.46831 2.92191 0
M  V30 9781 C 930.062 4.1157 2.80205 0
M  V30 9782 C 928.765 6.64811 2.74624 0
M  V30 9783 C 930.791 5.29205 2.64 0
M  V30 9784 C 930.153 6.5422 2.61104 0
M  V30 9785 H 926.252 0.44481 0.64317 0
M  V30 9786 H 928.836 1.55381 1.17323 0
M  V30 9787 H 927.007 1.25513 3.67561 0
M  V30 9788 H 928.739 1.48629 3.76419 0
M  V30 9789 H 925.494 3.4402 3.25495 0
M  V30 9790 H 925.918 6.05197 3.03423 0
M  V30 9791 H 930.56 3.15697 2.81239 0
M  V30 9792 H 928.278 7.60828 2.72336 0
M  V30 9793 H 931.864 5.23947 2.52925 0
M  V30 9794 H 930.744 7.43713 2.48719 0
M  V30 9795 N 928.247 -1.18576 1.03814 0
M  V30 9796 C 929.179 -2.21607 0.585055 0
M  V30 9797 C 930.192 -1.59125 -0.343963 0
M  V30 9798 O 931.381 -1.77959 -0.138882 0
M  V30 9799 C 928.481 -3.38495 -0.165602 0
M  V30 9800 C 927.654 -4.30557 0.770662 0
M  V30 9801 C 926.713 -5.26161 0.0637534 0
M  V30 9802 O 925.739 -5.64961 0.693359 0
M  V30 9803 N 926.941 -5.67882 -1.20377 0
M  V30 9804 H 929.706 -2.61104 1.47121 0
M  V30 9805 H 927.267 -1.33336 0.918316 0
M  V30 9806 H 929.259 -3.99474 -0.648292 0
M  V30 9807 H 927.829 -2.97711 -0.953268 0
M  V30 9808 H 927.049 -3.67221 1.43326 0
M  V30 9809 H 928.337 -4.88969 1.40667 0
M  V30 9810 H 927.735 -5.38409 -1.73586 0
M  V30 9811 H 926.292 -6.31069 -1.63079 0
M  V30 9812 N 929.725 -0.817259 -1.34754 0
M  V30 9813 C 930.657 -0.192695 -2.28389 0
M  V30 9814 C 931.67 0.614167 -1.50771 0
M  V30 9815 O 932.859 0.444776 -1.7287 0
M  V30 9816 C 929.959 0.748929 -3.30521 0
M  V30 9817 C 929.132 -0.0138762 -4.37398 0
M  V30 9818 C 928.191 0.847825 -5.19325 0
M  V30 9819 O 927.217 0.29487 -5.68436 0
M  V30 9820 N 928.419 2.16843 -5.38479 0
M  V30 9821 H 931.184 -0.997122 -2.82626 0
M  V30 9822 H 928.745 -0.673696 -1.47217 0
M  V30 9823 H 930.737 1.32987 -3.82226 0
M  V30 9824 H 929.307 1.45412 -2.7672 0
M  V30 9825 H 928.527 -0.776093 -3.86485 0
M  V30 9826 H 929.815 -0.539191 -5.05935 0
M  V30 9827 H 929.213 2.64148 -5.00242 0
M  V30 9828 H 927.77 2.69835 -5.93323 0
M  V30 9829 N 931.203 1.46865 -0.571711 0
M  V30 9830 C 932.614 1.86158 -0.142181 0
M  V30 9831 C 932.965 1.47663 1.2919 0
M  V30 9832 O 932.09 0.886393 1.97413 0
M  V30 9833 C 932.685 3.37867 -0.251256 0
M  V30 9834 C 931.244 3.76198 0.123329 0
M  V30 9835 C 930.391 2.70902 -0.592232 0
M  V30 9836 H 933.342 1.38176 -0.780587 0
M  V30 9837 H 933.363 3.76842 0.526331 0
M  V30 9838 H 932.875 3.65853 -1.2951 0
M  V30 9839 H 930.976 3.53829 1.16773 0
M  V30 9840 H 931.089 4.78471 -0.24533 0
M  V30 9841 H 929.453 2.54678 -0.0336927 0
M  V30 9842 H 930.236 3.01729 -1.63751 0
M  V30 9843 N 932.681 0.308908 1.54543 0
M  V30 9844 C 933.929 -0.297447 1.99899 0
M  V30 9845 C 934.25 -1.53799 1.19878 0
M  V30 9846 O 933.52 -1.93639 0.29678 0
M  V30 9847 H 932.1 -0.112897 0.738419 0
M  V30 9848 H 934.762 0.422067 1.90275 0
M  V30 9849 H 933.858 -0.564016 3.06961 0
M  V30 9850 N 934.159 -1.57557 0.0367827 0
M  V30 9851 C 935.384 -1.96828 -0.653707 0
M  V30 9852 C 935.809 -0.913559 -1.64425 0
M  V30 9853 O 935.167 0.124749 -1.8087 0
M  V30 9854 C 935.215 -3.35189 -1.32969 0
M  V30 9855 O 934.319 -3.32095 -2.44513 0
M  V30 9856 H 933.66 -0.64157 -0.171124 0
M  V30 9857 H 936.19 -2.04351 0.100912 0
M  V30 9858 H 936.2 -3.71593 -1.68472 0
M  V30 9859 H 934.875 -4.11496 -0.603654 0
M  V30 9860 H 933.452 -3.07418 -2.11065 0
M  V30 9861 N 935.637 0.236453 -1.55816 0
M  V30 9862 C 936.6 1.27633 -1.90375 0
M  V30 9863 C 937.6 1.40557 -0.781048 0
M  V30 9864 O 938.79 1.39078 -1.04895 0
M  V30 9865 C 935.922 2.65247 -2.14142 0
M  V30 9866 H 937.115 0.982019 -2.83366 0
M  V30 9867 H 934.668 0.476215 -1.48869 0
M  V30 9868 H 935.403 2.99801 -1.23653 0
M  V30 9869 H 935.188 2.57246 -2.95917 0
M  V30 9870 H 936.678 3.40313 -2.42026 0
M  V30 9871 N 937.115 1.49373 0.502552 0
M  V30 9872 C 938.364 1.58028 1.25339 0
M  V30 9873 C 938.677 0.271494 1.93707 0
M  V30 9874 O 939.883 0.236584 2.70467 0
M  V30 9875 C 938.339 2.78817 2.27572 0
M  V30 9876 C 937.947 4.16448 1.65151 0
M  V30 9877 C 939.691 2.96802 3.03494 0
M  V30 9878 C 937.598 5.28461 2.65486 0
M  V30 9879 H 936.528 0.588396 0.471494 0
M  V30 9880 H 939.179 1.75756 0.52744 0
M  V30 9881 H 937.561 2.5458 3.03323 0
M  V30 9882 H 938.735 4.50816 0.954029 0
M  V30 9883 H 937.05 4.03809 1.01625 0
M  V30 9884 H 939.647 3.77656 3.78524 0
M  V30 9885 H 939.99 2.07303 3.61014 0
M  V30 9886 H 940.523 3.21071 2.34858 0
M  V30 9887 H 937.262 6.20015 2.12749 0
M  V30 9888 H 936.782 4.9855 3.33479 0
M  V30 9889 H 938.461 5.5773 3.27943 0
M  V30 9890 N 938.594 -0.753485 1.38421 0
M  V30 9891 C 939.524 -1.8808 1.38377 0
M  V30 9892 C 940.505 -1.68258 0.249664 0
M  V30 9893 O 941.69 -1.88848 0.45276 0
M  V30 9894 C 938.82 -3.25608 1.20818 0
M  V30 9895 C 937.774 -3.60032 2.31433 0
M  V30 9896 C 937.1 -4.96297 1.9898 0
M  V30 9897 C 938.4 -3.64898 3.73694 0
M  V30 9898 H 940.094 -1.88375 2.32713 0
M  V30 9899 H 937.64 -0.90489 1.12017 0
M  V30 9900 H 939.593 -4.04127 1.19412 0
M  V30 9901 H 938.317 -3.25793 0.229433 0
M  V30 9902 H 936.976 -2.83831 2.32025 0
M  V30 9903 H 936.624 -4.93043 0.995889 0
M  V30 9904 H 936.324 -5.20298 2.73063 0
M  V30 9905 H 937.848 -5.77196 1.99193 0
M  V30 9906 H 939.262 -4.33531 3.75132 0
M  V30 9907 H 937.659 -4.00407 4.46983 0
M  V30 9908 H 938.729 -2.65124 4.06002 0
M  V30 9909 N 940.072 -1.23292 -0.981677 0
M  V30 9910 C 941.02 -1.0104 -2.09508 0
M  V30 9911 C 942.014 0.0501977 -1.69326 0
M  V30 9912 O 943.22 -0.103197 -1.79704 0
M  V30 9913 H 939.595 -0.309629 -0.685298 0
M  V30 9914 H 941.566 -1.95493 -2.25444 0
M  V30 9915 C 940.315 -0.616885 -3.42184 0
M  V30 9916 H 939.638 -1.4247 -3.73554 0
M  V30 9917 H 941.078 -0.500688 -4.21033 0
M  V30 9918 C 939.537 0.674721 -3.30074 0
M  V30 9919 O 940.067 1.72421 -3.62814 0
M  V30 9920 N 938.273 0.650151 -2.83234 0
M  V30 9921 H 937.82 -0.204225 -2.56789 0
M  V30 9922 H 937.778 1.51458 -2.75514 0
M  V30 9923 N 941.55 1.18024 -1.04442 0
M  V30 9924 C 942.796 1.88377 -0.751133 0
M  V30 9925 C 943.129 1.80377 0.719571 0
M  V30 9926 O 942.404 1.20662 1.52548 0
M  V30 9927 C 942.687 3.38708 -1.22265 0
M  V30 9928 C 942.54 3.55499 -2.75574 0
M  V30 9929 C 943.859 4.32475 -0.815688 0
M  V30 9930 H 940.978 0.684037 -0.27434 0
M  V30 9931 H 943.62 1.38837 -1.29709 0
M  V30 9932 H 941.77 3.8103 -0.758192 0
M  V30 9933 H 943.442 3.22244 -3.30086 0
M  V30 9934 H 941.685 2.98028 -3.15217 0
M  V30 9935 H 942.356 4.60994 -3.03625 0
M  V30 9936 H 944.832 3.97953 -1.21542 0
M  V30 9937 H 943.708 5.36213 -1.17331 0
M  V30 9938 H 943.969 4.41207 0.280901 0
M  V30 9939 N 943.028 0.824394 1.34319 0
M  V30 9940 C 944.274 0.422964 1.98954 0
M  V30 9941 C 944.629 -1.00323 1.64174 0
M  V30 9942 O 943.922 -1.6894 0.903869 0
M  V30 9943 C 944.116 0.564024 3.52921 0
M  V30 9944 C 943.945 2.00238 4.0266 0
M  V30 9945 C 942.715 2.63457 4.31183 0
M  V30 9946 C 944.913 2.9693 4.19925 0
M  V30 9947 N 942.895 3.98518 4.66966 0
M  V30 9948 C 944.266 4.16901 4.58904 0
M  V30 9949 C 946.321 2.93527 4.02177 0
M  V30 9950 C 945.024 5.33926 4.81991 0
M  V30 9951 C 947.05 4.09769 4.26431 0
M  V30 9952 C 946.412 5.28493 4.65698 0
M  V30 9953 H 942.511 0.202907 0.755217 0
M  V30 9954 H 945.095 1.0694 1.62702 0
M  V30 9955 H 943.266 -0.0525268 3.88364 0
M  V30 9956 H 944.998 0.135451 4.04473 0
M  V30 9957 H 941.753 2.14688 4.22145 0
M  V30 9958 H 942.177 4.68103 4.8909 0
M  V30 9959 H 946.819 2.02878 3.70945 0
M  V30 9960 H 944.537 6.25132 5.12089 0
M  V30 9961 H 948.123 4.08537 4.14233 0
M  V30 9962 H 947.003 6.16945 4.84096 0
M  V30 9963 N 944.506 -1.46559 0.579492 0
M  V30 9964 C 945.436 -2.33059 -0.143437 0
M  V30 9965 C 946.417 -1.4515 -0.886868 0
M  V30 9966 O 947.602 -1.73973 -0.862961 0
M  V30 9967 C 944.732 -3.27364 -1.15973 0
M  V30 9968 C 943.686 -4.24689 -0.531348 0
M  V30 9969 C 943.012 -5.08479 -1.65388 0
M  V30 9970 C 944.312 -5.1961 0.529391 0
M  V30 9971 H 946.006 -2.93753 0.578762 0
M  V30 9972 H 943.552 -1.41256 0.279775 0
M  V30 9973 H 945.505 -3.86732 -1.67382 0
M  V30 9974 H 944.229 -2.64771 -1.91217 0
M  V30 9975 H 942.888 -3.6658 -0.0383749 0
M  V30 9976 H 942.536 -4.42273 -2.3959 0
M  V30 9977 H 942.236 -5.74387 -1.23909 0
M  V30 9978 H 943.76 -5.70709 -2.17079 0
M  V30 9979 H 945.174 -5.73212 0.100506 0
M  V30 9980 H 943.571 -5.93843 0.86432 0
M  V30 9981 H 944.641 -4.63737 1.4169 0
M  V30 9982 N 945.984 -0.3171 -1.54377 0
M  V30 9983 C 947.212 0.289558 -2.04864 0
M  V30 9984 C 947.627 1.46284 -1.19359 0
M  V30 9985 O 946.984 1.81135 -0.222795 0
M  V30 9986 C 947.035 0.730273 -3.54047 0
M  V30 9987 O 946.756 -0.396325 -4.36304 0
M  V30 9988 C 948.257 1.40041 -4.20599 0
M  V30 9989 H 945.477 0.0605836 -0.668259 0
M  V30 9990 H 948.021 -0.461411 -1.99227 0
M  V30 9991 H 946.176 1.43123 -3.59992 0
M  V30 9992 H 946.59 -0.0502901 -5.24476 0
M  V30 9993 H 948.064 1.65979 -5.26455 0
M  V30 9994 H 948.541 2.34565 -3.71316 0
M  V30 9995 H 949.147 0.742206 -4.18774 0
M  V30 9996 N 947.462 1.57535 -0.0451378 0
M  V30 9997 C 948.687 1.97172 0.64326 0
M  V30 9998 C 949.112 0.922266 1.63939 0
M  V30 9999 O 948.47 -0.115155 1.80934 0
M  V30 10000 C 948.518 3.35889 1.3119 0
M  V30 10001 O 947.622 3.33387 2.42748 0
M  V30 10002 H 946.963 0.642469 0.167719 0
M  V30 10003 H 949.493 2.04295 -0.111747 0
M  V30 10004 H 949.503 3.72481 1.66499 0
M  V30 10005 H 948.178 4.1181 0.581823 0
M  V30 10006 H 946.755 3.08533 2.09432 0
M  V30 10007 N 948.94 -0.228186 1.55939 0
M  V30 10008 C 949.873 -1.30971 1.86874 0
M  V30 10009 C 950.851 -1.45517 0.725496 0
M  V30 10010 O 952.035 -1.61436 0.973181 0
M  V30 10011 C 949.162 -2.68089 2.06992 0
M  V30 10012 C 948.208 -2.70594 3.29669 0
M  V30 10013 S 949.041 -2.25325 4.85787 0
M  V30 10014 C 950.197 -3.64331 5.08934 0
M  V30 10015 H 950.43 -1.04536 2.78315 0
M  V30 10016 H 947.963 -0.430103 1.48288 0
M  V30 10017 H 949.921 -3.47033 2.19267 0
M  V30 10018 H 948.582 -2.91752 1.16359 0
M  V30 10019 H 947.775 -3.71338 3.4077 0
M  V30 10020 H 947.377 -1.99708 3.16216 0
M  V30 10021 H 949.669 -4.59972 4.97425 0
M  V30 10022 H 950.612 -3.58151 6.10847 0
M  V30 10023 H 951.02 -3.57711 4.36695 0
M  V30 10024 N 950.418 -1.49637 -0.494624 0
M  V30 10025 C 951.348 -1.69692 -1.60396 0
M  V30 10026 C 952.329 -0.545648 -1.61111 0
M  V30 10027 O 953.514 -0.782202 -1.77751 0
M  V30 10028 C 950.644 -1.76934 -2.9885 0
M  V30 10029 C 949.598 -2.91915 -3.13001 0
M  V30 10030 C 948.924 -2.84276 -4.5287 0
M  V30 10031 C 950.224 -4.32764 -2.92426 0
M  V30 10032 H 951.918 -2.6257 -1.43866 0
M  V30 10033 H 949.464 -1.26355 -0.690679 0
M  V30 10034 H 951.417 -1.8955 -3.76362 0
M  V30 10035 H 950.141 -0.806609 -3.16483 0
M  V30 10036 H 948.8 -2.78911 -2.37916 0
M  V30 10037 H 948.448 -1.85897 -4.67388 0
M  V30 10038 H 948.148 -3.61452 -4.63278 0
M  V30 10039 H 949.672 -2.98909 -5.32434 0
M  V30 10040 H 951.086 -4.46415 -3.59703 0
M  V30 10041 H 949.483 -5.1121 -3.143 0
M  V30 10042 H 950.553 -4.46765 -1.88491 0
M  V30 10043 N 951.896 0.746133 -1.38819 0
M  V30 10044 C 952.843 1.86001 -1.36647 0
M  V30 10045 C 953.813 1.6453 -0.227849 0
M  V30 10046 O 954.998 1.86092 -0.421241 0
M  V30 10047 C 952.138 3.23388 -1.20474 0
M  V30 10048 C 951.251 3.5664 -2.43786 0
M  V30 10049 C 950.386 4.8337 -2.20287 0
M  V30 10050 C 949.425 5.09431 -3.39332 0
M  V30 10051 N 948.562 6.2736 -3.1522 0
M  V30 10052 H 953.402 1.87192 -2.31869 0
M  V30 10053 H 950.939 0.914838 -1.15192 0
M  V30 10054 H 952.897 4.02679 -1.09112 0
M  V30 10055 H 951.527 3.21505 -0.288874 0
M  V30 10056 H 950.579 2.72135 -2.65794 0
M  V30 10057 H 951.891 3.71823 -3.3249 0
M  V30 10058 H 951.045 5.70619 -2.06103 0
M  V30 10059 H 949.784 4.70341 -1.28961 0
M  V30 10060 H 948.789 4.20648 -3.54027 0
M  V30 10061 H 950.014 5.24354 -4.31544 0
M  V30 10062 H 947.96 6.15639 -2.26549 0
M  V30 10063 H 947.877 6.43078 -3.97476 0
M  V30 10064 H 949.145 7.17477 -3.04707 0
M  V30 10065 N 953.375 1.23811 0.975125 0
M  V30 10066 C 954.791 1.0019 1.24234 0
M  V30 10067 C 954.991 -0.293811 1.99346 0
M  V30 10068 O 954.047 -1.01189 2.31337 0
M  V30 10069 C 955.36 2.21218 2.03674 0
M  V30 10070 C 956.908 2.25764 2.16793 0
M  V30 10071 C 957.383 3.46394 2.99626 0
M  V30 10072 N 958.874 3.46665 3.07209 0
M  V30 10073 C 959.609 4.3666 3.71639 0
M  V30 10074 N 959.105 5.36899 4.37849 0
M  V30 10075 N 960.898 4.2439 3.68578 0
M  V30 10076 H 953.049 2.07087 0.472076 0
M  V30 10077 H 955.312 0.90838 0.271201 0
M  V30 10078 H 955.018 3.15277 1.55862 0
M  V30 10079 H 954.892 2.22733 3.04417 0
M  V30 10080 H 957.279 1.32242 2.63811 0
M  V30 10081 H 957.36 2.28279 1.15422 0
M  V30 10082 H 957.004 4.40227 2.53304 0
M  V30 10083 H 956.934 3.41121 4.01178 0
M  V30 10084 H 959.425 2.74142 2.60105 0
M  V30 10085 H 959.738 6.01816 4.84807 0
M  V30 10086 H 958.083 5.40793 4.36541 0
M  V30 10087 H 961.274 3.4532 3.16025 0
M  V30 10088 H 961.447 4.94727 4.18508 0
M  V30 10089 N 954.853 -1.17469 1.05066 0
M  V30 10090 C 956.081 -1.9162 0.780334 0
M  V30 10091 C 956.496 -1.76745 -0.663817 0
M  V30 10092 O 955.853 -1.10377 -1.45338 0
M  V30 10093 C 955.904 -3.42723 1.14992 0
M  V30 10094 O 955.625 -3.57139 2.53739 0
M  V30 10095 C 957.126 -4.33952 0.905549 0
M  V30 10096 H 954.346 -0.608022 0.283814 0
M  V30 10097 H 956.89 -1.4897 1.401 0
M  V30 10098 H 955.045 -3.83124 0.57403 0
M  V30 10099 H 955.459 -4.5075 2.68189 0
M  V30 10100 H 956.933 -5.38487 1.21391 0
M  V30 10101 H 957.41 -4.38911 -0.159295 0
M  V30 10102 H 958.016 -3.99263 1.46522 0
M  V30 10103 N 956.331 -0.831506 -1.3388 0
M  V30 10104 C 957.577 -0.424302 -1.98312 0
M  V30 10105 C 957.91 1.01211 -1.65741 0
M  V30 10106 O 957.185 1.70636 -0.933464 0
M  V30 10107 C 957.468 -0.636815 -3.54424 0
M  V30 10108 C 957.321 -2.11997 -3.96708 0
M  V30 10109 C 958.64 -0.0782411 -4.4003 0
M  V30 10110 H 955.759 -0.155637 -0.720379 0
M  V30 10111 H 958.401 -1.04566 -1.58638 0
M  V30 10112 H 956.551 -0.107907 -3.8835 0
M  V30 10113 H 958.223 -2.71317 -3.73075 0
M  V30 10114 H 956.466 -2.60723 -3.46707 0
M  V30 10115 H 957.137 -2.21944 -5.05416 0
M  V30 10116 H 959.613 -0.530243 -4.12708 0
M  V30 10117 H 958.489 -0.256676 -5.483 0
M  V30 10118 H 958.75 1.01745 -4.30233 0
M  V30 10119 N 957.809 1.4625 -0.587256 0
M  V30 10120 C 959.055 2.02662 -0.0746851 0
M  V30 10121 C 959.388 1.45723 1.28368 0
M  V30 10122 O 958.663 0.624062 1.84216 0
M  V30 10123 C 958.946 3.60097 -0.0138109 0
M  V30 10124 C 958.799 4.27412 -1.4014 0
M  V30 10125 C 960.118 4.34744 0.684491 0
M  V30 10126 H 957.237 0.736444 -0.0286144 0
M  V30 10127 H 959.879 1.74341 -0.755328 0
M  V30 10128 H 958.029 3.84357 0.56583 0
M  V30 10129 H 959.701 4.14401 -2.02656 0
M  V30 10130 H 957.944 3.86598 -1.96785 0
M  V30 10131 H 958.615 5.362 -1.31124 0
M  V30 10132 H 961.091 4.15657 0.192023 0
M  V30 10133 H 959.967 5.44468 0.696127 0
M  V30 10134 H 960.228 4.06132 1.74669 0
M  V30 10135 N 959.287 0.325282 1.54207 0
M  V30 10136 C 960.25 -0.527228 2.23054 0
M  V30 10137 C 961.25 -1.04217 1.22456 0
M  V30 10138 O 962.44 -0.934325 1.47024 0
M  V30 10139 C 959.572 -1.7325 2.93594 0
M  V30 10140 H 960.765 0.0746423 2.99807 0
M  V30 10141 H 958.318 0.0763872 1.56113 0
M  V30 10142 H 959.053 -2.37356 2.20981 0
M  V30 10143 H 958.838 -1.37065 3.67363 0
M  V30 10144 H 960.328 -2.3376 3.46043 0
M  V30 10145 N 960.765 -1.57509 0.0534917 0
M  V30 10146 C 961.728 -2.10563 -0.905307 0
M  V30 10147 C 962.728 -1.02571 -1.23838 0
M  V30 10148 O 963.918 -1.28635 -1.17468 0
M  V30 10149 C 961.05 -2.5918 -2.21447 0
M  V30 10150 H 962.243 -2.96575 -0.445354 0
M  V30 10151 H 959.796 -1.55079 -0.194947 0
M  V30 10152 H 960.531 -1.76568 -2.72019 0
M  V30 10153 H 960.316 -3.38098 -1.98575 0
M  V30 10154 H 961.806 -3.00365 -2.90122 0
M  V30 10155 N 962.243 0.219913 -1.56058 0
M  V30 10156 C 963.489 0.945463 -1.79412 0
M  V30 10157 C 963.822 1.83922 -0.62341 0
M  V30 10158 O 963.097 1.90806 0.377256 0
M  V30 10159 C 963.38 1.783 -3.1286 0
M  V30 10160 C 963.233 0.915626 -4.40382 0
M  V30 10161 C 964.552 2.76045 -3.42764 0
M  V30 10162 H 961.671 0.342288 -0.652693 0
M  V30 10163 H 964.313 0.214235 -1.88788 0
M  V30 10164 H 962.463 2.40642 -3.04998 0
M  V30 10165 H 964.135 0.30882 -4.60265 0
M  V30 10166 H 962.378 0.221124 -4.33236 0
M  V30 10167 H 963.049 1.53607 -5.30197 0
M  V30 10168 H 965.525 2.23838 -3.50764 0
M  V30 10169 H 964.401 3.31748 -4.37304 0
M  V30 10170 H 964.662 3.53866 -2.65012 0
M  V30 10171 N 963.721 1.49897 0.486681 0
M  V30 10172 C 965.132 1.53142 1.06792 0
M  V30 10173 C 965.483 0.325856 1.93475 0
M  V30 10174 O 964.608 -0.562893 2.08951 0
M  V30 10175 C 965.203 2.77514 1.94348 0
M  V30 10176 C 963.762 2.83491 2.47609 0
M  V30 10177 C 962.909 2.47239 1.2557 0
M  V30 10178 H 965.86 1.56387 0.269962 0
M  V30 10179 H 965.881 2.58487 2.79221 0
M  V30 10180 H 965.393 3.65239 1.31232 0
M  V30 10181 H 963.494 2.0008 3.14323 0
M  V30 10182 H 963.607 3.86011 2.83782 0
M  V30 10183 H 961.971 1.99332 1.58552 0
M  V30 10184 H 962.754 3.37255 0.641404 0
M  V30 10185 N 965.199 -0.738761 1.39212 0
M  V30 10186 C 966.132 -1.86135 1.32018 0
M  V30 10187 C 967.11 -1.61432 0.194512 0
M  V30 10188 O 968.294 -1.84746 0.374331 0
M  V30 10189 C 965.421 -3.22044 1.04907 0
M  V30 10190 C 964.467 -3.65612 2.19613 0
M  V30 10191 S 965.3 -3.75418 3.81866 0
M  V30 10192 C 966.456 -5.14122 3.56972 0
M  V30 10193 H 966.689 -1.91954 2.27027 0
M  V30 10194 H 964.222 -0.903244 1.25223 0
M  V30 10195 H 966.18 -4.00524 0.899491 0
M  V30 10196 H 964.841 -3.13886 0.115918 0
M  V30 10197 H 964.034 -4.64232 1.96227 0
M  V30 10198 H 963.636 -2.94327 2.30755 0
M  V30 10199 H 965.928 -6.00339 3.14005 0
M  V30 10200 H 966.871 -5.42535 4.55039 0
M  V30 10201 H 967.279 -4.8362 2.91156 0
M  V30 10202 N 966.677 -1.24326 -0.968545 0
M  V30 10203 C 968.088 -1.07561 -1.52603 0
M  V30 10204 C 968.439 0.353245 -1.92994 0
M  V30 10205 O 967.564 1.24151 -1.77244 0
M  V30 10206 C 968.159 -1.94634 -2.77314 0
M  V30 10207 C 966.718 -1.82095 -3.29421 0
M  V30 10208 C 965.865 -1.8962 -2.02335 0
M  V30 10209 H 968.816 -1.37815 -0.786932 0
M  V30 10210 H 968.837 -1.47812 -3.50616 0
M  V30 10211 H 968.349 -2.98621 -2.47885 0
M  V30 10212 H 966.45 -0.809376 -3.63703 0
M  V30 10213 H 966.563 -2.66142 -3.98378 0
M  V30 10214 H 964.927 -1.33339 -2.17009 0
M  V30 10215 H 965.71 -2.95185 -1.75273 0
M  V30 10216 N 968.156 1.1691 -1.05688 0
M  V30 10217 C 969.403 1.87292 -0.76993 0
M  V30 10218 C 969.731 1.81339 0.703295 0
M  V30 10219 O 968.986 1.21959 1.5305 0
M  V30 10220 C 969.285 3.36578 -1.20207 0
M  V30 10221 C 968.951 3.62732 -2.67836 0
M  V30 10222 C 967.613 3.69579 -3.08163 0
M  V30 10223 C 969.965 3.73803 -3.63209 0
M  V30 10224 C 967.293 3.84992 -4.42717 0
M  V30 10225 C 969.645 3.90735 -4.97503 0
M  V30 10226 C 968.309 3.95823 -5.37476 0
M  V30 10227 H 967.579 0.68535 -0.281737 0
M  V30 10228 H 970.226 1.38274 -1.32486 0
M  V30 10229 H 968.531 3.87687 -0.566222 0
M  V30 10230 H 970.228 3.89409 -0.957183 0
M  V30 10231 H 966.818 3.58031 -2.35609 0
M  V30 10232 H 971.002 3.67829 -3.3319 0
M  V30 10233 H 966.258 3.87181 -4.73182 0
M  V30 10234 H 970.432 3.98243 -5.71293 0
M  V30 10235 H 968.059 4.07518 -6.41742 0
M  V30 10236 N 969.634 0.838594 1.33437 0
M  V30 10237 C 970.911 0.356112 1.92331 0
M  V30 10238 C 971.291 -1.1585 1.76471 0
M  V30 10239 O 970.639 -1.97281 1.15293 0
M  V30 10240 C 970.849 0.802715 3.39643 0
M  V30 10241 C 972.197 0.810575 4.16791 0
M  V30 10242 O 973.221 0.746304 3.48294 0
M  V30 10243 O 972.08 0.898082 5.3907 0
M  V30 10244 H 969.174 0.100711 0.820845 0
M  V30 10245 H 971.72 0.924428 1.42311 0
M  V30 10246 H 970.492 1.84529 3.45057 0
M  V30 10247 H 970.115 0.210956 3.9704 0
M  V30 10248 N 971.112 -1.45937 0.595003 0
M  V30 10249 C 972.059 -2.30427 -0.131165 0
M  V30 10250 C 973.029 -1.41355 -0.872232 0
M  V30 10251 O 974.214 -1.70296 -0.860467 0
M  V30 10252 C 971.354 -3.26045 -1.13087 0
M  V30 10253 C 970.467 -4.30218 -0.391982 0
M  V30 10254 C 969.602 -5.12953 -1.3803 0
M  V30 10255 C 968.641 -6.08865 -0.628505 0
M  V30 10256 N 967.778 -6.84425 -1.56548 0
M  V30 10257 H 972.618 -2.91992 0.595359 0
M  V30 10258 H 970.155 -1.43895 0.305405 0
M  V30 10259 H 972.113 -3.79937 -1.72348 0
M  V30 10260 H 970.743 -2.66261 -1.82496 0
M  V30 10261 H 969.795 -3.79086 0.315895 0
M  V30 10262 H 971.107 -4.98418 0.195173 0
M  V30 10263 H 970.261 -5.71184 -2.04534 0
M  V30 10264 H 969 -4.44743 -2.00138 0
M  V30 10265 H 968.005 -5.49777 0.0502431 0
M  V30 10266 H 969.23 -6.79099 -0.012641 0
M  V30 10267 H 967.176 -6.18913 -2.17444 0
M  V30 10268 H 967.093 -7.48931 -1.03145 0
M  V30 10269 H 968.361 -7.47204 -2.22049 0
M  V30 10270 N 972.59 -0.333456 -1.54032 0
M  V30 10271 C 973.836 0.259248 -2.01741 0
M  V30 10272 C 974.191 1.48999 -1.21725 0
M  V30 10273 O 973.484 1.89333 -0.293882 0
M  V30 10274 C 973.678 0.63565 -3.51702 0
M  V30 10275 C 973.507 -0.55707 -4.46236 0
M  V30 10276 C 972.277 -1.05925 -4.94073 0
M  V30 10277 C 974.475 -1.41237 -4.94527 0
M  V30 10278 N 972.457 -2.21535 -5.72534 0
M  V30 10279 C 973.828 -2.41551 -5.71011 0
M  V30 10280 C 975.883 -1.43899 -4.76652 0
M  V30 10281 C 974.586 -3.44342 -6.31523 0
M  V30 10282 C 976.612 -2.45567 -5.38006 0
M  V30 10283 C 975.974 -3.44606 -6.1435 0
M  V30 10284 H 972.073 0.0584431 -0.779813 0
M  V30 10285 H 974.657 -0.470736 -1.88924 0
M  V30 10286 H 972.828 1.33475 -3.64745 0
M  V30 10287 H 974.56 1.21067 -3.86167 0
M  V30 10288 H 971.315 -0.628947 -4.69405 0
M  V30 10289 H 971.739 -2.79878 -6.16439 0
M  V30 10290 H 976.381 -0.686929 -4.17182 0
M  V30 10291 H 974.099 -4.20449 -6.90107 0
M  V30 10292 H 977.685 -2.4844 -5.26088 0
M  V30 10293 H 976.565 -4.21987 -6.60982 0
M  V30 10294 N 974.068 1.57479 -0.061844 0
M  V30 10295 C 975.298 1.97142 0.61794 0
M  V30 10296 C 975.706 0.938533 1.64281 0
M  V30 10297 O 975.049 -0.084385 1.83506 0
M  V30 10298 C 975.111 3.33083 1.35263 0
M  V30 10299 C 974.775 4.54447 0.482372 0
M  V30 10300 C 975.772 5.1927 -0.255954 0
M  V30 10301 C 973.457 5.00623 0.410167 0
M  V30 10302 C 975.451 6.28612 -1.05481 0
M  V30 10303 C 973.138 6.09839 -0.392369 0
M  V30 10304 C 974.136 6.73696 -1.12354 0
M  V30 10305 O 973.824 7.80811 -1.91285 0
M  V30 10306 H 973.556 0.653497 0.172969 0
M  V30 10307 H 976.11 2.05002 -0.127781 0
M  V30 10308 H 974.34 3.21808 2.14421 0
M  V30 10309 H 976.029 3.5742 1.92368 0
M  V30 10310 H 976.795 4.84546 -0.209703 0
M  V30 10311 H 972.674 4.50704 0.968883 0
M  V30 10312 H 976.218 6.78385 -1.62602 0
M  V30 10313 H 972.115 6.43997 -0.44022 0
M  V30 10314 H 972.883 7.9764 -1.83611 0
M  V30 10315 N 975.546 -0.211634 1.56173 0
M  V30 10316 C 976.771 -0.955324 1.84088 0
M  V30 10317 C 977.196 -1.76754 0.643407 0
M  V30 10318 O 976.554 -1.76653 -0.407842 0
M  V30 10319 C 976.602 -1.84063 3.10085 0
M  V30 10320 O 975.706 -2.9373 2.89476 0
M  V30 10321 H 975.047 -0.26996 0.606645 0
M  V30 10322 H 977.577 -0.221947 2.03393 0
M  V30 10323 H 977.587 -2.24852 3.40449 0
M  V30 10324 H 976.262 -1.24373 3.96868 0
M  V30 10325 H 974.839 -2.56816 2.7037 0
M  V30 10326 N 977.024 -1.50153 -0.478725 0
M  V30 10327 C 977.987 -1.67916 -1.56003 0
M  V30 10328 C 978.987 -0.550111 -1.51097 0
M  V30 10329 O 980.177 -0.817001 -1.53853 0
M  V30 10330 C 977.309 -1.6973 -2.95643 0
M  V30 10331 H 978.502 -2.6438 -1.41573 0
M  V30 10332 H 976.055 -1.39519 -0.704565 0
M  V30 10333 H 976.79 -0.749306 -3.15525 0
M  V30 10334 H 976.575 -2.51745 -3.00611 0
M  V30 10335 H 978.065 -1.85453 -3.74162 0
M  V30 10336 N 978.502 0.731368 -1.39602 0
M  V30 10337 C 979.727 1.52567 -1.40492 0
M  V30 10338 C 980.152 1.881 -0.00228828 0
M  V30 10339 O 979.51 1.52167 0.985643 0
M  V30 10340 C 979.558 2.78749 -2.2876 0
M  V30 10341 O 978.662 3.7482 -1.71999 0
M  V30 10342 H 978.003 0.460601 -0.478271 0
M  V30 10343 H 980.533 0.902042 -1.83642 0
M  V30 10344 H 980.543 3.27446 -2.43399 0
M  V30 10345 H 979.218 2.5222 -3.30693 0
M  V30 10346 H 977.795 3.33604 -1.66622 0
M  V30 10347 N 979.98 1.24838 0.961938 0
M  V30 10348 C 981.228 1.08936 1.70227 0
M  V30 10349 C 981.549 -0.371582 1.91427 0
M  V30 10350 O 980.819 -1.26461 1.49614 0
M  V30 10351 H 979.399 0.400128 0.630799 0
M  V30 10352 H 982.061 1.56848 1.15692 0
M  V30 10353 H 981.157 1.59195 2.68446 0
M  V30 10354 N 981.458 -1.16348 1.06306 0
M  V30 10355 C 982.688 -1.90505 0.799453 0
M  V30 10356 C 983.096 -1.77686 -0.649955 0
M  V30 10357 O 982.439 -1.11921 -1.45669 0
M  V30 10358 C 982.501 -3.41775 1.11492 0
M  V30 10359 C 982.165 -3.7838 2.56277 0
M  V30 10360 C 983.162 -3.80288 3.54509 0
M  V30 10361 C 980.847 -4.09007 2.9158 0
M  V30 10362 C 982.841 -4.12312 4.86084 0
M  V30 10363 C 980.528 -4.40697 4.23354 0
M  V30 10364 C 981.526 -4.4233 5.20416 0
M  V30 10365 O 981.214 -4.73267 6.49826 0
M  V30 10366 H 980.946 -0.61094 0.289359 0
M  V30 10367 H 983.5 -1.48409 1.41999 0
M  V30 10368 H 981.73 -3.84219 0.437306 0
M  V30 10369 H 983.419 -3.97207 0.835533 0
M  V30 10370 H 984.185 -3.56738 3.28577 0
M  V30 10371 H 980.064 -4.06901 2.16686 0
M  V30 10372 H 983.608 -4.13501 5.61838 0
M  V30 10373 H 979.505 -4.63713 4.49044 0
M  V30 10374 H 980.273 -4.91078 6.54817 0
M  V30 10375 N 982.937 -0.845659 -1.3299 0
M  V30 10376 C 983.847 -0.2864 -2.32845 0
M  V30 10377 C 984.863 0.591105 -1.63652 0
M  V30 10378 O 986.039 0.493615 -1.95257 0
M  V30 10379 C 983.104 0.523636 -3.42723 0
M  V30 10380 C 982.165 -0.378945 -4.27624 0
M  V30 10381 C 981.398 0.392526 -5.32255 0
M  V30 10382 O 981.621 1.6235 -5.46808 0
M  V30 10383 O 980.555 -0.237 -6.01433 0
M  V30 10384 H 984.381 -1.11346 -2.82552 0
M  V30 10385 H 981.966 -0.608356 -1.36453 0
M  V30 10386 H 983.848 0.983718 -4.09757 0
M  V30 10387 H 982.523 1.32764 -2.95221 0
M  V30 10388 H 981.43 -0.887012 -3.63432 0
M  V30 10389 H 982.763 -1.1479 -4.78627 0
M  V30 10390 N 984.415 1.45619 -0.602734 0
M  V30 10391 C 985.643 2.06647 -0.102253 0
M  V30 10392 C 986.058 1.4482 1.21131 0
M  V30 10393 O 985.415 0.560621 1.73676 0
M  V30 10394 C 985.466 3.61467 0.0490113 0
M  V30 10395 O 985.187 4.20985 -1.21257 0
M  V30 10396 C 986.688 4.39469 0.581517 0
M  V30 10397 H 983.908 0.667685 -0.0666155 0
M  V30 10398 H 986.452 1.86939 -0.829091 0
M  V30 10399 H 984.607 3.80534 0.726153 0
M  V30 10400 H 985.021 5.14103 -1.03915 0
M  V30 10401 H 986.495 5.48318 0.636462 0
M  V30 10402 H 986.972 4.0891 1.60277 0
M  V30 10403 H 987.578 4.25256 -0.061419 0
M  V30 10404 N 985.893 0.34162 1.53853 0
M  V30 10405 C 987.121 -0.256929 2.05299 0
M  V30 10406 C 987.536 -1.44366 1.21671 0
M  V30 10407 O 986.893 -1.80758 0.251584 0
M  V30 10408 C 986.944 -0.673854 3.55164 0
M  V30 10409 O 986.665 0.465687 4.35618 0
M  V30 10410 C 988.166 -1.33332 4.22773 0
M  V30 10411 H 985.386 -0.0499445 0.669139 0
M  V30 10412 H 987.93 0.493048 1.98467 0
M  V30 10413 H 986.085 -1.37378 3.62224 0
M  V30 10414 H 986.499 0.133723 5.2433 0
M  V30 10415 H 987.973 -1.57582 5.29029 0
M  V30 10416 H 988.45 -2.28628 3.75001 0
M  V30 10417 H 989.056 -0.675489 4.19901 0
M  V30 10418 N 987.371 -1.57444 0.0701946 0
M  V30 10419 C 988.303 -2.09611 -0.927142 0
M  V30 10420 C 989.316 -1.02791 -1.26245 0
M  V30 10421 O 990.505 -1.30309 -1.21992 0
M  V30 10422 C 987.605 -2.54015 -2.24342 0
M  V30 10423 C 986.778 -3.84389 -2.08719 0
M  V30 10424 C 985.837 -4.14904 -3.23638 0
M  V30 10425 O 984.863 -4.84528 -2.98699 0
M  V30 10426 N 986.065 -3.68322 -4.48686 0
M  V30 10427 H 988.83 -2.95803 -0.481753 0
M  V30 10428 H 986.391 -1.61487 -0.115572 0
M  V30 10429 H 988.383 -2.71492 -3.00124 0
M  V30 10430 H 986.953 -1.72969 -2.60385 0
M  V30 10431 H 986.173 -3.76308 -1.17415 0
M  V30 10432 H 987.461 -4.69729 -1.9553 0
M  V30 10433 H 986.859 -3.12073 -4.71834 0
M  V30 10434 H 985.416 -3.91002 -5.21499 0
M  V30 10435 N 988.849 0.203349 -1.56283 0
M  V30 10436 C 990.126 0.950415 -1.70958 0
M  V30 10437 C 990.506 2.01708 -0.622647 0
M  V30 10438 O 989.854 2.25523 0.367635 0
M  V30 10439 C 990.064 1.54434 -3.12971 0
M  V30 10440 C 991.412 2.02964 -3.72949 0
M  V30 10441 O 992.436 1.64293 -3.16048 0
M  V30 10442 O 991.295 2.74097 -4.72793 0
M  V30 10443 H 988.389 0.445154 -0.69697 0
M  V30 10444 H 990.935 0.193695 -1.68591 0
M  V30 10445 H 989.707 0.77505 -3.83547 0
M  V30 10446 H 989.33 2.36611 -3.19532 0
M  V30 10447 N 990.327 1.50405 0.470755 0
M  V30 10448 C 991.575 1.61092 1.2204 0
M  V30 10449 C 991.896 0.313487 1.92464 0
M  V30 10450 O 991.166 -0.669043 1.84121 0
M  V30 10451 H 989.746 0.593618 0.45346 0
M  V30 10452 H 992.408 1.87184 0.542985 0
M  V30 10453 H 991.504 2.42222 1.96812 0
M  V30 10454 N 991.805 -0.723954 1.39988 0
M  V30 10455 C 993.216 -1.30273 1.33738 0
M  V30 10456 C 993.567 -1.96199 0.00690581 0
M  V30 10457 O 992.692 -1.97016 -0.895179 0
M  V30 10458 C 993.287 -2.36889 2.42217 0
M  V30 10459 C 991.846 -2.90412 2.39453 0
M  V30 10460 C 990.993 -1.64103 2.2353 0
M  V30 10461 H 993.944 -0.520672 1.49916 0
M  V30 10462 H 993.965 -3.17538 2.09642 0
M  V30 10463 H 993.477 -1.88878 3.39038 0
M  V30 10464 H 991.578 -3.42674 1.46304 0
M  V30 10465 H 991.691 -3.42775 3.34727 0
M  V30 10466 H 990.055 -1.88855 1.70897 0
M  V30 10467 H 990.838 -1.18128 3.22336 0
M  V30 10468 N 993.283 -1.25346 -0.955304 0
M  V30 10469 C 994.511 -1.12793 -1.73451 0
M  V30 10470 C 994.926 0.318344 -1.86097 0
M  V30 10471 O 994.283 1.21897 -1.35821 0
M  V30 10472 C 994.334 -1.77603 -3.14864 0
M  V30 10473 O 994.055 -3.16577 -3.02837 0
M  V30 10474 C 995.556 -1.70821 -4.09066 0
M  V30 10475 H 992.776 -0.393457 -0.543537 0
M  V30 10476 H 995.32 -1.65696 -1.19855 0
M  V30 10477 H 993.475 -1.28673 -3.65407 0
M  V30 10478 H 993.889 -3.48433 -3.92039 0
M  V30 10479 H 995.363 -2.2083 -5.05903 0
M  V30 10480 H 995.84 -0.671858 -4.34031 0
M  V30 10481 H 996.446 -2.19237 -3.64438 0
M  V30 10482 N 994.761 1.15782 -1.06922 0
M  V30 10483 C 996.009 1.86097 -0.788192 0
M  V30 10484 C 996.33 1.82475 0.687606 0
M  V30 10485 O 995.6 1.26266 1.49778 0
M  V30 10486 H 994.18 0.689008 -0.288577 0
M  V30 10487 H 996.842 1.40377 -1.35205 0
M  V30 10488 H 995.938 2.91358 -1.1188 0
M  V30 10489 N 996.239 0.8527 1.3254 0
M  V30 10490 C 997.464 0.468157 2.02047 0
M  V30 10491 C 997.889 -0.926967 1.63673 0
M  V30 10492 O 997.247 -1.60855 0.836378 0
M  V30 10493 C 997.295 0.612519 3.5536 0
M  V30 10494 O 996.399 -0.355506 4.10865 0
M  V30 10495 H 995.74 0.188401 0.636711 0
M  V30 10496 H 998.27 1.15135 1.6913 0
M  V30 10497 H 998.28 0.499315 4.04933 0
M  V30 10498 H 996.955 1.62988 3.82632 0
M  V30 10499 H 995.532 -0.198703 3.7237 0
M  V30 10500 N 997.718 -1.45297 0.610449 0
M  V30 10501 C 998.648 -2.33311 -0.0939698 0
M  V30 10502 C 999.629 -1.46999 -0.85588 0
M  V30 10503 O 1000.81 -1.75764 -0.825865 0
M  V30 10504 C 997.944 -3.29751 -1.09003 0
M  V30 10505 C 996.898 -4.2572 -0.441146 0
M  V30 10506 C 996.224 -5.11873 -1.54566 0
M  V30 10507 C 997.524 -5.1837 0.639489 0
M  V30 10508 H 999.218 -2.92459 0.640941 0
M  V30 10509 H 996.764 -1.40631 0.309675 0
M  V30 10510 H 998.717 -3.90195 -1.59141 0
M  V30 10511 H 997.441 -2.68768 -1.85557 0
M  V30 10512 H 996.1 -3.66579 0.0393908 0
M  V30 10513 H 995.748 -4.47256 -2.30155 0
M  V30 10514 H 995.448 -5.76886 -1.11698 0
M  V30 10515 H 996.972 -5.75185 -2.04925 0
M  V30 10516 H 998.386 -5.7287 0.22207 0
M  V30 10517 H 996.783 -5.91876 0.990089 0
M  V30 10518 H 997.853 -4.60627 1.51495 0
M  V30 10519 N 999.196 -0.349774 -1.5367 0
M  V30 10520 C 1000.14 0.519396 -2.26727 0
M  V30 10521 C 1001.14 1.09673 -1.29105 0
M  V30 10522 O 1002.34 1.04176 -1.46791 0
M  V30 10523 H 998.719 0.186192 -0.728585 0
M  V30 10524 H 1000.69 -0.118736 -2.98164 0
M  V30 10525 C 999.439 1.65535 -3.05767 0
M  V30 10526 H 998.762 1.22038 -3.80719 0
M  V30 10527 H 1000.2 2.23856 -3.6009 0
M  V30 10528 C 998.661 2.58844 -2.15642 0
M  V30 10529 O 999.191 3.61254 -1.75665 0
M  V30 10530 N 997.397 2.27671 -1.80595 0
M  V30 10531 H 996.944 1.44429 -2.13302 0
M  V30 10532 H 996.902 2.90359 -1.20577 0
M  V30 10533 N 1000.67 1.57404 -0.0785433 0
M  V30 10534 C 1001.92 1.9292 0.588626 0
M  V30 10535 C 1002.24 0.961106 1.70359 0
M  V30 10536 O 1003.44 1.20934 2.43079 0
M  V30 10537 C 1001.9 3.42729 1.09839 0
M  V30 10538 C 1001.51 4.47998 0.0140773 0
M  V30 10539 C 1003.25 3.87235 1.73924 0
M  V30 10540 C 1001.16 5.88945 0.538269 0
M  V30 10541 H 1000.09 0.720069 0.223645 0
M  V30 10542 H 1002.74 1.8287 -0.15187 0
M  V30 10543 H 1001.12 3.47875 1.89207 0
M  V30 10544 H 1002.29 4.54476 -0.760773 0
M  V30 10545 H 1000.61 4.13001 -0.53095 0
M  V30 10546 H 1003.21 4.89927 2.14186 0
M  V30 10547 H 1003.55 3.24971 2.60191 0
M  V30 10548 H 1004.08 3.84721 1.01168 0
M  V30 10549 H 1000.82 6.5487 -0.287395 0
M  V30 10550 H 1000.34 5.85972 1.28049 0
M  V30 10551 H 1002.02 6.39028 1.01253 0
M  V30 10552 N 1002.15 -0.195058 1.56388 0
M  V30 10553 C 1003.38 -0.935745 1.85091 0
M  V30 10554 C 1003.8 -1.76061 0.662118 0
M  V30 10555 O 1003.16 -1.77076 -0.389083 0
M  V30 10556 C 1003.21 -1.80764 3.1202 0
M  V30 10557 O 1002.31 -2.90643 2.92575 0
M  V30 10558 H 1001.65 -0.26351 0.609474 0
M  V30 10559 H 1004.18 -0.200362 2.03617 0
M  V30 10560 H 1004.19 -2.21229 3.42815 0
M  V30 10561 H 1002.87 -1.20157 3.98165 0
M  V30 10562 H 1001.44 -2.53934 2.73079 0
M  V30 10563 N 1003.63 -1.50653 -0.462772 0
M  V30 10564 C 1004.88 -1.62297 -1.21603 0
M  V30 10565 C 1005.21 -0.326191 -1.91441 0
M  V30 10566 O 1004.48 0.67284 -1.82491 0
M  V30 10567 C 1004.77 -2.80901 -2.25315 0
M  V30 10568 C 1004.62 -4.20484 -1.59728 0
M  V30 10569 C 1005.94 -2.95049 -3.26549 0
M  V30 10570 H 1003.06 -0.590691 -0.440741 0
M  V30 10571 H 1005.7 -1.83064 -0.508675 0
M  V30 10572 H 1003.85 -2.63325 -2.85643 0
M  V30 10573 H 1005.52 -4.49669 -1.02932 0
M  V30 10574 H 1003.76 -4.24357 -0.900181 0
M  V30 10575 H 1004.44 -4.99416 -2.35133 0
M  V30 10576 H 1006.91 -3.11166 -2.76251 0
M  V30 10577 H 1005.79 -3.79645 -3.96435 0
M  V30 10578 H 1006.05 -2.06019 -3.91163 0
M  V30 10579 N 1005.11 0.71652 -1.4037 0
M  V30 10580 C 1006.36 1.47347 -1.38324 0
M  V30 10581 C 1006.68 1.94995 0.0139949 0
M  V30 10582 O 1005.95 1.7028 0.968585 0
M  V30 10583 H 1004.53 0.546662 -0.509087 0
M  V30 10584 H 1007.19 0.849455 -1.75415 0
M  V30 10585 H 1006.29 2.34675 -2.05752 0
M  V30 10586 N 1006.59 1.25851 0.948643 0
M  V30 10587 C 1007.55 1.0683 2.0278 0
M  V30 10588 C 1008.55 0.0191016 1.60789 0
M  V30 10589 O 1009.74 0.261836 1.72221 0
M  V30 10590 C 1006.87 0.623318 3.35153 0
M  V30 10591 H 1008.06 2.02635 2.21086 0
M  V30 10592 H 1005.62 1.08343 1.12657 0
M  V30 10593 H 1006.35 -0.337053 3.22544 0
M  V30 10594 H 1006.14 1.38082 3.66982 0
M  V30 10595 H 1007.63 0.511854 4.14451 0
M  V30 10596 N 1008.06 -1.15214 1.07534 0
M  V30 10597 C 1009.01 -2.20013 0.697337 0
M  V30 10598 C 1009.98 -1.6314 -0.312168 0
M  V30 10599 O 1011.17 -1.89768 -0.198196 0
M  V30 10600 C 1008.31 -3.44945 0.103293 0
M  V30 10601 C 1007.42 -4.16009 1.1645 0
M  V30 10602 C 1006.55 -5.28496 0.535261 0
M  V30 10603 C 1005.59 -5.9138 1.57912 0
M  V30 10604 N 1004.73 -6.95335 0.972332 0
M  V30 10605 H 1009.57 -2.51698 1.59538 0
M  V30 10606 H 1007.11 -1.2361 0.797431 0
M  V30 10607 H 1009.07 -4.16397 -0.258766 0
M  V30 10608 H 1007.7 -3.13772 -0.758096 0
M  V30 10609 H 1006.75 -3.43035 1.64411 0
M  V30 10610 H 1008.06 -4.58853 1.9559 0
M  V30 10611 H 1007.21 -6.06579 0.120942 0
M  V30 10612 H 1005.95 -4.8685 -0.287889 0
M  V30 10613 H 1004.96 -5.12008 2.0032 0
M  V30 10614 H 1006.18 -6.35103 2.40459 0
M  V30 10615 H 1004.13 -6.55779 0.170119 0
M  V30 10616 H 1004.05 -7.36616 1.70095 0
M  V30 10617 H 1005.31 -7.77312 0.583577 0
M  V30 10618 N 1009.54 -0.859717 -1.32086 0
M  V30 10619 C 1010.79 -0.461779 -1.96343 0
M  V30 10620 C 1011.1 0.988837 -1.68764 0
M  V30 10621 O 1012.31 1.49244 -2.268 0
M  V30 10622 C 1010.77 -0.77484 -3.5146 0
M  V30 10623 C 1010.37 -2.24153 -3.87891 0
M  V30 10624 C 1012.12 -0.444873 -4.22162 0
M  V30 10625 C 1010.03 -2.49754 -5.36075 0
M  V30 10626 H 1008.96 -0.168951 -0.734828 0
M  V30 10627 H 1011.61 -1.0512 -1.50406 0
M  V30 10628 H 1009.99 -0.114792 -3.95834 0
M  V30 10629 H 1011.16 -2.94378 -3.54511 0
M  V30 10630 H 1009.48 -2.53651 -3.30227 0
M  V30 10631 H 1012.07 -0.613508 -5.31169 0
M  V30 10632 H 1012.42 0.61391 -4.11749 0
M  V30 10633 H 1012.95 -1.06103 -3.83389 0
M  V30 10634 H 1009.69 -3.54276 -5.51515 0
M  V30 10635 H 1009.21 -1.84112 -5.70844 0
M  V30 10636 H 1010.89 -2.3396 -6.03218 0
M  V30 10637 N 1011.02 1.44971 -0.618145 0
M  V30 10638 C 1011.95 2.33357 0.0815955 0
M  V30 10639 C 1012.93 1.47451 0.848072 0
M  V30 10640 O 1014.12 1.762 0.816532 0
M  V30 10641 C 1011.25 3.30324 1.07253 0
M  V30 10642 C 1010.2 4.25948 0.418563 0
M  V30 10643 C 1009.53 5.12685 1.51849 0
M  V30 10644 C 1010.83 5.18024 -0.66697 0
M  V30 10645 H 1012.52 2.92115 -0.656442 0
M  V30 10646 H 1010.07 1.40465 -0.317129 0
M  V30 10647 H 1012.02 3.91033 1.57069 0
M  V30 10648 H 1010.74 2.69748 1.8413 0
M  V30 10649 H 1009.4 3.66553 -0.0588308 0
M  V30 10650 H 1009.05 4.4847 2.2778 0
M  V30 10651 H 1008.75 5.7747 1.08637 0
M  V30 10652 H 1010.27 5.76264 2.01871 0
M  V30 10653 H 1011.69 5.72744 -0.252448 0
M  V30 10654 H 1010.09 5.91343 -1.02146 0
M  V30 10655 H 1011.16 4.59817 -1.53936 0
M  V30 10656 N 1012.5 0.357919 1.53482 0
M  V30 10657 C 1013.73 -0.234799 2.05261 0
M  V30 10658 C 1014.14 -1.43618 1.23169 0
M  V30 10659 O 1013.48 -1.81801 0.263435 0
M  V30 10660 C 1013.54 -0.699748 3.52624 0
M  V30 10661 C 1013.21 0.383905 4.55385 0
M  V30 10662 C 1014.2 1.23129 5.05109 0
M  V30 10663 C 1011.89 0.541953 4.99368 0
M  V30 10664 C 1013.88 2.22214 5.97411 0
M  V30 10665 C 1011.57 1.53618 5.91477 0
M  V30 10666 C 1012.57 2.37471 6.40388 0
M  V30 10667 O 1012.25 3.35199 7.30682 0
M  V30 10668 H 1011.99 -0.0465364 0.674396 0
M  V30 10669 H 1014.54 0.512355 1.98907 0
M  V30 10670 H 1012.77 -1.49838 3.5649 0
M  V30 10671 H 1014.46 -1.21461 3.87301 0
M  V30 10672 H 1015.23 1.12035 4.71883 0
M  V30 10673 H 1011.1 -0.100929 4.6089 0
M  V30 10674 H 1014.65 2.87702 6.35511 0
M  V30 10675 H 1010.55 1.64763 6.24118 0
M  V30 10676 H 1011.31 3.30838 7.48658 0
M  V30 10677 N 1013.98 -1.5736 0.0868897 0
M  V30 10678 C 1014.89 -2.17087 -0.889402 0
M  V30 10679 C 1015.9 -1.13809 -1.31619 0
M  V30 10680 O 1017.08 -1.46143 -1.38579 0
M  V30 10681 C 1014.14 -2.73286 -2.13344 0
M  V30 10682 C 1013.2 -3.91491 -1.76164 0
M  V30 10683 C 1012.44 -4.45 -2.94637 0
M  V30 10684 O 1012.66 -3.97467 -4.09116 0
M  V30 10685 O 1011.59 -5.36133 -2.73579 0
M  V30 10686 H 1015.42 -3.00902 -0.411275 0
M  V30 10687 H 1013.01 -1.4877 -0.137015 0
M  V30 10688 H 1014.89 -3.0924 -2.86266 0
M  V30 10689 H 1013.56 -1.92521 -2.60225 0
M  V30 10690 H 1012.47 -3.60363 -1.00447 0
M  V30 10691 H 1013.8 -4.73593 -1.34053 0
M  V30 10692 N 1015.45 0.186762 -1.56489 0
M  V30 10693 C 1016.42 1.21511 -1.94339 0
M  V30 10694 C 1017.42 1.38001 -0.82537 0
M  V30 10695 O 1018.61 1.3567 -1.09266 0
M  V30 10696 C 1015.74 2.583 -2.22472 0
M  V30 10697 H 1016.93 0.891371 -2.86347 0
M  V30 10698 H 1014.49 0.428612 -1.50308 0
M  V30 10699 H 1015.22 2.95715 -1.33129 0
M  V30 10700 H 1015.01 2.47701 -3.03951 0
M  V30 10701 H 1016.5 3.32441 -2.5273 0
M  V30 10702 N 1016.93 1.50896 0.454776 0
M  V30 10703 C 1018.18 1.6294 1.20741 0
M  V30 10704 C 1018.51 0.336339 1.91265 0
M  V30 10705 O 1017.79 -0.663153 1.82846 0
M  V30 10706 C 1018.07 2.82092 2.23822 0
M  V30 10707 C 1017.92 4.21326 1.57495 0
M  V30 10708 C 1019.24 2.96777 3.24979 0
M  V30 10709 H 1016.36 0.59302 0.437603 0
M  V30 10710 H 1019 1.83331 0.498959 0
M  V30 10711 H 1017.15 2.64837 2.84243 0
M  V30 10712 H 1018.82 4.50209 1.00546 0
M  V30 10713 H 1017.07 4.24829 0.877664 0
M  V30 10714 H 1017.74 5.00656 2.32482 0
M  V30 10715 H 1020.21 3.12627 2.74597 0
M  V30 10716 H 1019.09 3.81742 3.94416 0
M  V30 10717 H 1019.35 2.08091 3.90065 0
M  V30 10718 N 1018.41 -0.709066 1.40748 0
M  V30 10719 C 1019.34 -1.83412 1.37451 0
M  V30 10720 C 1020.36 -1.60394 0.27884 0
M  V30 10721 O 1021.54 -1.70147 0.539642 0
M  V30 10722 C 1018.64 -3.19935 1.1178 0
M  V30 10723 C 1017.82 -3.70095 2.33128 0
M  V30 10724 C 1016.88 -4.85249 2.03518 0
M  V30 10725 O 1015.9 -4.97563 2.76442 0
M  V30 10726 N 1017.1 -5.7152 1.01714 0
M  V30 10727 H 1019.87 -1.86736 2.34414 0
M  V30 10728 H 1017.43 -0.890863 1.35186 0
M  V30 10729 H 1019.42 -3.94578 0.899464 0
M  V30 10730 H 1017.99 -3.11718 0.234624 0
M  V30 10731 H 1017.21 -2.8651 2.70751 0
M  V30 10732 H 1018.5 -4.00344 3.1401 0
M  V30 10733 H 1017.9 -5.64188 0.413307 0
M  V30 10734 H 1016.46 -6.46119 0.858696 0
M  V30 10735 N 1019.89 -1.26353 -0.941956 0
M  V30 10736 C 1021.14 -1.1163 -1.68473 0
M  V30 10737 C 1021.46 0.34108 -1.91994 0
M  V30 10738 O 1020.73 1.24065 -1.51607 0
M  V30 10739 H 1019.31 -0.410113 -0.624353 0
M  V30 10740 H 1021.97 -1.58669 -1.13182 0
M  V30 10741 H 1021.07 -1.63445 -2.6588 0
M  V30 10742 N 1021.37 1.14642 -1.08144 0
M  V30 10743 C 1022.64 1.81774 -0.72232 0
M  V30 10744 C 1023.02 1.95587 0.794294 0
M  V30 10745 O 1022.37 1.51361 1.71178 0
M  V30 10746 C 1022.58 3.1763 -1.44611 0
M  V30 10747 C 1023.93 3.93161 -1.60343 0
M  V30 10748 O 1024.95 3.2721 -1.40755 0
M  V30 10749 O 1023.81 5.11422 -1.9264 0
M  V30 10750 H 1020.91 0.785733 -0.257978 0
M  V30 10751 H 1023.45 1.21683 -1.18285 0
M  V30 10752 H 1022.23 3.02723 -2.4794 0
M  V30 10753 H 1021.85 3.85412 -0.976892 0
M  V30 10754 N 1022.85 0.866709 1.31628 0
M  V30 10755 C 1023.79 0.318169 2.28596 0
M  V30 10756 C 1024.76 -0.581558 1.55586 0
M  V30 10757 O 1025.95 -0.513895 1.83749 0
M  V30 10758 C 1023.09 -0.477137 3.41786 0
M  V30 10759 C 1022.2 0.449739 4.29653 0
M  V30 10760 C 1021.34 -0.359373 5.29983 0
M  V30 10761 C 1020.37 0.564138 6.09495 0
M  V30 10762 N 1019.51 -0.208526 7.0179 0
M  V30 10763 H 1024.35 1.15029 2.74904 0
M  V30 10764 H 1021.89 0.578649 1.35241 0
M  V30 10765 H 1023.85 -0.953985 4.06146 0
M  V30 10766 H 1022.48 -1.27398 2.96597 0
M  V30 10767 H 1021.53 1.04502 3.65764 0
M  V30 10768 H 1022.84 1.158 4.85172 0
M  V30 10769 H 1021.99 -0.89887 6.00004 0
M  V30 10770 H 1020.73 -1.10094 4.75111 0
M  V30 10771 H 1019.74 1.11542 5.38366 0
M  V30 10772 H 1020.96 1.30451 6.66453 0
M  V30 10773 H 1018.91 -0.932969 6.49332 0
M  V30 10774 H 1018.83 0.440463 7.54716 0
M  V30 10775 H 1020.09 -0.72936 7.7608 0
M  V30 10776 N 1024.32 -1.44642 0.625825 0
M  V30 10777 C 1025.55 -2.06971 0.133373 0
M  V30 10778 C 1025.97 -1.46421 -1.18078 0
M  V30 10779 O 1025.33 -0.563676 -1.72315 0
M  V30 10780 C 1025.38 -3.6059 0.0265097 0
M  V30 10781 O 1024.48 -3.99615 -1.01889 0
M  V30 10782 H 1023.82 -0.658873 0.0823568 0
M  V30 10783 H 1026.35 -1.85601 0.861002 0
M  V30 10784 H 1026.36 -4.07663 -0.1658 0
M  V30 10785 H 1025.04 -4.04043 0.985986 0
M  V30 10786 H 1023.62 -3.64183 -0.801577 0
M  V30 10787 N 1025.8 -0.366053 -1.5329 0
M  V30 10788 C 1027.21 0.113056 -1.86357 0
M  V30 10789 C 1027.56 1.48123 -1.28662 0
M  V30 10790 O 1026.69 2.07658 -0.608849 0
M  V30 10791 C 1027.28 0.211923 -3.38137 0
M  V30 10792 C 1025.84 0.635289 -3.71 0
M  V30 10793 C 1024.99 -0.217203 -2.76448 0
M  V30 10794 H 1027.94 -0.584829 -1.47531 0
M  V30 10795 H 1027.96 1.0354 -3.66142 0
M  V30 10796 H 1027.47 -0.783994 -3.80099 0
M  V30 10797 H 1025.57 1.63942 -3.34595 0
M  V30 10798 H 1025.69 0.409571 -4.77346 0
M  V30 10799 H 1024.05 0.313988 -2.52757 0
M  V30 10800 H 1024.83 -1.21067 -3.21244 0
M  V30 10801 N 1027.28 1.57312 -0.0952337 0
M  V30 10802 C 1028.53 1.93533 0.568131 0
M  V30 10803 C 1028.84 0.979121 1.6933 0
M  V30 10804 O 1030.05 1.23506 2.41782 0
M  V30 10805 C 1028.5 3.43875 1.06198 0
M  V30 10806 C 1028.11 4.47988 -0.0334397 0
M  V30 10807 C 1029.86 3.89057 1.69807 0
M  V30 10808 C 1027.76 5.89483 0.475774 0
M  V30 10809 H 1026.69 0.7224 0.215995 0
M  V30 10810 H 1029.34 1.82699 -0.171257 0
M  V30 10811 H 1027.73 3.49862 1.85506 0
M  V30 10812 H 1028.9 4.53644 -0.808934 0
M  V30 10813 H 1027.21 4.12415 -0.574725 0
M  V30 10814 H 1029.81 4.92171 2.08978 0
M  V30 10815 H 1030.15 3.27713 2.5673 0
M  V30 10816 H 1030.69 3.85772 0.970815 0
M  V30 10817 H 1027.43 6.54528 -0.356837 0
M  V30 10818 H 1026.95 5.87297 1.21827 0
M  V30 10819 H 1028.63 6.40066 0.944697 0
M  V30 10820 N 1028.76 -0.17846 1.56586 0
M  V30 10821 C 1030.17 -0.741599 1.71339 0
M  V30 10822 C 1030.52 -1.83112 0.704579 0
M  V30 10823 O 1029.64 -2.15975 -0.135557 0
M  V30 10824 C 1030.24 -1.35198 3.10656 0
M  V30 10825 C 1028.8 -1.86202 3.27118 0
M  V30 10826 C 1027.95 -0.738255 2.67292 0
M  V30 10827 H 1030.9 0.0468424 1.58631 0
M  V30 10828 H 1030.92 -2.2216 3.0891 0
M  V30 10829 H 1030.43 -0.558776 3.84056 0
M  V30 10830 H 1028.53 -2.68188 2.58661 0
M  V30 10831 H 1028.64 -2.01237 4.34788 0
M  V30 10832 H 1027.01 -1.15686 2.26912 0
M  V30 10833 H 1027.79 0.0429821 3.43273 0
M  V30 10834 N 1030.24 -1.51135 -0.446768 0
M  V30 10835 C 1031.17 -1.67949 -1.55967 0
M  V30 10836 C 1032.18 -0.560337 -1.52853 0
M  V30 10837 O 1033.37 -0.83435 -1.578 0
M  V30 10838 C 1030.47 -1.6703 -2.9488 0
M  V30 10839 C 1029.64 -2.95377 -3.22601 0
M  V30 10840 C 1028.7 -2.86772 -4.4119 0
M  V30 10841 O 1027.73 -3.60722 -4.40304 0
M  V30 10842 N 1028.93 -2.01979 -5.44228 0
M  V30 10843 H 1031.69 -2.63951 -1.41951 0
M  V30 10844 H 1029.26 -1.48903 -0.635569 0
M  V30 10845 H 1031.25 -1.58854 -3.7222 0
M  V30 10846 H 1029.82 -0.786623 -3.02541 0
M  V30 10847 H 1029.04 -3.17494 -2.33647 0
M  V30 10848 H 1030.33 -3.80356 -3.37945 0
M  V30 10849 H 1029.72 -1.41257 -5.4778 0
M  V30 10850 H 1028.28 -1.99689 -6.20457 0
M  V30 10851 N 1031.71 0.701592 -1.41122 0
M  V30 10852 C 1032.68 1.79733 -1.42227 0
M  V30 10853 C 1033.68 1.57708 -0.313831 0
M  V30 10854 O 1034.87 1.64492 -0.573423 0
M  V30 10855 C 1032 3.18024 -1.22775 0
M  V30 10856 H 1033.19 1.80148 -2.39764 0
M  V30 10857 H 1030.74 0.908624 -1.27176 0
M  V30 10858 H 1031.48 3.23252 -0.260552 0
M  V30 10859 H 1031.26 3.35411 -2.0308 0
M  V30 10860 H 1032.75 3.98021 -1.2637 0
M  V30 10861 N 1033.19 1.2685 0.935242 0
M  V30 10862 C 1034.44 1.12912 1.6846 0
M  V30 10863 C 1034.77 -0.325708 1.91449 0
M  V30 10864 O 1034.05 -1.23884 1.49944 0
M  V30 10865 C 1034.33 1.90513 3.05576 0
M  V30 10866 C 1034.18 3.43936 2.89876 0
M  V30 10867 C 1035.5 1.70363 4.05789 0
M  V30 10868 H 1032.62 0.411559 0.611382 0
M  V30 10869 H 1035.26 1.55917 1.08582 0
M  V30 10870 H 1033.41 1.53963 3.5669 0
M  V30 10871 H 1035.08 3.90272 2.45939 0
M  V30 10872 H 1033.33 3.70659 2.25376 0
M  V30 10873 H 1034 3.93467 3.87153 0
M  V30 10874 H 1036.47 2.02217 3.63659 0
M  V30 10875 H 1035.35 2.27066 4.99732 0
M  V30 10876 H 1035.61 0.649674 4.373 0
M  V30 10877 N 1034.67 -1.14067 1.0875 0
M  V30 10878 C 1035.95 -1.81389 0.73195 0
M  V30 10879 C 1036.33 -1.96005 -0.78391 0
M  V30 10880 O 1035.68 -1.52267 -1.70373 0
M  V30 10881 C 1035.89 -3.16858 1.46294 0
M  V30 10882 C 1037.23 -3.92305 1.62426 0
M  V30 10883 O 1038.26 -3.26459 1.42488 0
M  V30 10884 O 1037.12 -5.10393 1.9535 0
M  V30 10885 H 1034.21 -0.784354 0.262141 0
M  V30 10886 H 1036.76 -1.21054 1.18929 0
M  V30 10887 H 1035.53 -3.01404 2.49542 0
M  V30 10888 H 1035.15 -3.84889 0.997318 0
M  V30 10889 N 1036.15 -0.873678 -1.31166 0
M  V30 10890 C 1037.08 -0.348011 -2.30892 0
M  V30 10891 C 1038.06 0.563092 -1.60509 0
M  V30 10892 O 1039.24 0.479332 -1.88192 0
M  V30 10893 C 1036.37 0.448158 -3.44396 0
M  V30 10894 C 1035.33 -0.370179 -4.26396 0
M  V30 10895 C 1034.65 0.551903 -5.31844 0
M  V30 10896 C 1035.95 -1.60624 -4.96988 0
M  V30 10897 H 1037.65 -1.18134 -2.75109 0
M  V30 10898 H 1035.19 -0.569502 -1.3226 0
M  V30 10899 H 1037.15 0.826458 -4.13216 0
M  V30 10900 H 1035.87 1.31503 -2.98956 0
M  V30 10901 H 1034.53 -0.730472 -3.59249 0
M  V30 10902 H 1034.18 1.41616 -4.82653 0
M  V30 10903 H 1033.88 0.00823478 -5.87599 0
M  V30 10904 H 1035.4 0.926965 -6.03523 0
M  V30 10905 H 1036.82 -1.29917 -5.58386 0
M  V30 10906 H 1035.21 -2.08926 -5.62557 0
M  V30 10907 H 1036.28 -2.357 -4.23761 0
M  V30 10908 N 1037.63 1.44308 -0.633487 0
M  V30 10909 C 1038.87 2.02023 -0.138917 0
M  V30 10910 C 1039.2 1.49841 1.24008 0
M  V30 10911 O 1038.46 0.673718 1.83738 0
M  V30 10912 C 1038.76 3.57316 -0.0773886 0
M  V30 10913 C 1038.42 4.28762 -1.39548 0
M  V30 10914 C 1037.08 4.47997 -1.75648 0
M  V30 10915 C 1039.44 4.69391 -2.26542 0
M  V30 10916 C 1036.76 5.05121 -2.98445 0
M  V30 10917 C 1039.12 5.27876 -3.48612 0
M  V30 10918 C 1037.78 5.45329 -3.84932 0
M  V30 10919 H 1037.05 0.739254 -0.0508333 0
M  V30 10920 H 1039.7 1.73043 -0.820271 0
M  V30 10921 H 1038 3.85724 0.687345 0
M  V30 10922 H 1039.7 3.99706 0.321837 0
M  V30 10923 H 1036.29 4.14122 -1.10456 0
M  V30 10924 H 1040.47 4.54241 -1.99946 0
M  V30 10925 H 1035.73 5.16821 -3.26658 0
M  V30 10926 H 1039.9 5.58307 -4.16253 0
M  V30 10927 H 1037.53 5.8936 -4.80166 0
M  V30 10928 N 1039.1 0.374177 1.53094 0
M  V30 10929 C 1040.07 -0.455999 2.24618 0
M  V30 10930 C 1041.07 -1.00269 1.25709 0
M  V30 10931 O 1042.26 -0.887077 1.49922 0
M  V30 10932 C 1039.39 -1.63822 2.98957 0
M  V30 10933 H 1040.58 0.169986 2.99418 0
M  V30 10934 H 1038.14 0.126015 1.55791 0
M  V30 10935 H 1038.87 -2.30205 2.28421 0
M  V30 10936 H 1038.66 -1.25308 3.71538 0
M  V30 10937 H 1040.15 -2.22633 3.53305 0
M  V30 10938 N 1040.58 -1.57259 0.103575 0
M  V30 10939 C 1041.83 -1.94272 -0.557024 0
M  V30 10940 C 1042.15 -0.986739 -1.68192 0
M  V30 10941 O 1041.42 -0.0402818 -1.95859 0
M  V30 10942 H 1040 -0.717237 -0.208757 0
M  V30 10943 H 1042.66 -1.94167 0.168898 0
M  V30 10944 H 1041.76 -2.96914 -0.961691 0
M  V30 10945 N 1042.06 0.170153 -1.56679 0
M  V30 10946 C 1043.01 1.21064 -1.965 0
M  V30 10947 C 1043.98 1.43928 -0.829092 0
M  V30 10948 O 1045.16 1.56649 -1.08931 0
M  V30 10949 C 1042.3 2.54468 -2.33109 0
M  V30 10950 C 1041.42 2.38974 -3.59883 0
M  V30 10951 C 1040.55 3.65252 -3.857 0
M  V30 10952 C 1039.59 3.44696 -5.05817 0
M  V30 10953 N 1038.73 4.63047 -5.27761 0
M  V30 10954 H 1043.57 0.864055 -2.85198 0
M  V30 10955 H 1041.1 0.415243 -1.41117 0
M  V30 10956 H 1043.06 3.32222 -2.52358 0
M  V30 10957 H 1041.69 2.8712 -1.4752 0
M  V30 10958 H 1040.74 1.5239 -3.48542 0
M  V30 10959 H 1042.06 2.19731 -4.47794 0
M  V30 10960 H 1041.21 4.51441 -4.05322 0
M  V30 10961 H 1039.95 3.87475 -2.96166 0
M  V30 10962 H 1038.95 2.56893 -4.86092 0
M  V30 10963 H 1040.18 3.23894 -5.96883 0
M  V30 10964 H 1038.12 4.85487 -4.41179 0
M  V30 10965 H 1038.04 4.46722 -6.09898 0
M  V30 10966 H 1039.31 5.50516 -5.51863 0
M  V30 10967 N 1043.54 1.5137 0.438746 0
M  V30 10968 C 1044.95 1.56462 1.01866 0
M  V30 10969 C 1045.3 0.387244 1.9234 0
M  V30 10970 O 1044.43 -0.496131 2.10636 0
M  V30 10971 C 1045.02 2.83557 1.85421 0
M  V30 10972 C 1043.58 2.91224 2.38464 0
M  V30 10973 C 1042.73 2.51109 1.17641 0
M  V30 10974 H 1045.68 1.57167 0.220072 0
M  V30 10975 H 1045.7 2.6724 2.70857 0
M  V30 10976 H 1045.21 3.69229 1.19546 0
M  V30 10977 H 1043.31 2.09979 3.07798 0
M  V30 10978 H 1043.42 3.94844 2.71358 0
M  V30 10979 H 1041.79 2.04276 1.5213 0
M  V30 10980 H 1042.57 3.39125 0.533785 0
M  V30 10981 N 1045.02 -0.694098 1.41492 0
M  V30 10982 C 1045.95 -1.81943 1.39389 0
M  V30 10983 C 1046.96 -1.6009 0.295836 0
M  V30 10984 O 1048.15 -1.69565 0.557658 0
M  V30 10985 C 1045.25 -3.18731 1.15167 0
M  V30 10986 C 1044.42 -3.67601 2.37041 0
M  V30 10987 C 1043.48 -4.83063 2.08654 0
M  V30 10988 O 1042.51 -4.94603 2.81704 0
M  V30 10989 N 1043.71 -5.70409 1.0777 0
M  V30 10990 H 1046.48 -1.84239 2.36381 0
M  V30 10991 H 1044.04 -0.876475 1.36123 0
M  V30 10992 H 1046.03 -3.93602 0.941264 0
M  V30 10993 H 1044.6 -3.11452 0.267673 0
M  V30 10994 H 1043.82 -2.83622 2.73774 0
M  V30 10995 H 1045.11 -3.96991 3.18239 0
M  V30 10996 H 1044.5 -5.63718 0.473123 0
M  V30 10997 H 1043.06 -6.45172 0.927177 0
M  V30 10998 N 1046.49 -1.27344 -0.928501 0
M  V30 10999 C 1047.43 -1.05797 -2.03322 0
M  V30 11000 C 1048.44 -0.0143086 -1.62794 0
M  V30 11001 O 1049.63 -0.25578 -1.76658 0
M  V30 11002 C 1046.73 -0.582673 -3.33853 0
M  V30 11003 C 1045.9 -1.69844 -4.03078 0
M  V30 11004 C 1044.96 -1.21902 -5.11885 0
M  V30 11005 O 1043.99 -1.91853 -5.35893 0
M  V30 11006 N 1045.19 -0.0742392 -5.80453 0
M  V30 11007 H 1047.95 -2.00928 -2.22369 0
M  V30 11008 H 1045.51 -1.189 -1.09883 0
M  V30 11009 H 1047.51 -0.245862 -4.03952 0
M  V30 11010 H 1046.08 0.27539 -3.11385 0
M  V30 11011 H 1045.3 -2.20557 -3.26723 0
M  V30 11012 H 1046.58 -2.4473 -4.46077 0
M  V30 11013 H 1045.98 0.509631 -5.634 0
M  V30 11014 H 1044.54 0.203399 -6.51483 0
M  V30 11015 N 1047.97 1.13488 -1.09353 0
M  V30 11016 C 1048.88 2.2248 -0.744307 0
M  V30 11017 C 1049.9 1.72145 0.253404 0
M  V30 11018 O 1051.07 2.01176 0.0949339 0
M  V30 11019 C 1048.14 3.46286 -0.16928 0
M  V30 11020 C 1047.2 4.11516 -1.22284 0
M  V30 11021 C 1046.43 5.29412 -0.675161 0
M  V30 11022 O 1046.66 5.68185 0.502182 0
M  V30 11023 O 1045.59 5.8467 -1.42983 0
M  V30 11024 H 1049.42 2.54723 -1.65378 0
M  V30 11025 H 1047 1.21607 -0.867879 0
M  V30 11026 H 1048.88 4.2114 0.14811 0
M  V30 11027 H 1047.56 3.15745 0.713214 0
M  V30 11028 H 1046.47 3.38492 -1.59292 0
M  V30 11029 H 1047.8 4.46186 -2.07796 0
M  V30 11030 N 1049.45 0.880621 1.30701 0
M  V30 11031 C 1050.7 0.497611 1.966 0
M  V30 11032 C 1051.03 -0.949901 1.69383 0
M  V30 11033 O 1050.31 -1.67054 0.996152 0
M  V30 11034 C 1050.59 0.767919 3.51817 0
M  V30 11035 C 1050.44 2.26574 3.88567 0
M  V30 11036 C 1051.76 0.241502 4.39437 0
M  V30 11037 H 1048.88 0.182267 0.714106 0
M  V30 11038 H 1051.52 1.10382 1.54648 0
M  V30 11039 H 1049.67 0.251967 3.87682 0
M  V30 11040 H 1051.34 2.84977 3.62748 0
M  V30 11041 H 1049.59 2.73411 3.36792 0
M  V30 11042 H 1050.26 2.40549 4.9683 0
M  V30 11043 H 1052.73 0.683051 4.10455 0
M  V30 11044 H 1051.61 0.459997 5.46969 0
M  V30 11045 H 1051.87 -0.857068 4.33713 0
M  V30 11046 N 1050.93 -1.4397 0.641131 0
M  V30 11047 C 1052.18 -2.02246 0.14985 0
M  V30 11048 C 1052.51 -1.50387 -1.22871 0
M  V30 11049 O 1051.78 -0.692003 -1.81773 0
M  V30 11050 C 1052.07 -3.59798 0.147449 0
M  V30 11051 C 1051.92 -4.21916 1.55907 0
M  V30 11052 C 1053.24 -4.36985 -0.522667 0
M  V30 11053 H 1050.36 -0.734875 0.0559274 0
M  V30 11054 H 1053 -1.71418 0.819513 0
M  V30 11055 H 1051.15 -3.86193 -0.422789 0
M  V30 11056 H 1052.82 -4.06594 2.17896 0
M  V30 11057 H 1051.06 -3.79028 2.10998 0
M  V30 11058 H 1051.74 -5.30964 1.50934 0
M  V30 11059 H 1054.21 -4.16083 -0.0376226 0
M  V30 11060 H 1053.09 -5.46676 -0.493572 0
M  V30 11061 H 1053.35 -4.12335 -1.59475 0
M  V30 11062 N 1052.41 -0.382291 -1.52893 0
M  V30 11063 C 1053.34 0.447829 -2.29165 0
M  V30 11064 C 1054.32 1.06956 -1.32267 0
M  V30 11065 O 1055.5 1.08365 -1.61154 0
M  V30 11066 C 1052.63 1.57902 -3.09329 0
M  V30 11067 C 1051.59 1.08369 -4.14053 0
M  V30 11068 C 1050.91 2.30641 -4.82399 0
M  V30 11069 C 1052.21 0.156591 -5.22065 0
M  V30 11070 H 1053.91 -0.188541 -2.98806 0
M  V30 11071 H 1051.45 -0.0921179 -1.43705 0
M  V30 11072 H 1053.41 2.16652 -3.61442 0
M  V30 11073 H 1052.13 2.24287 -2.37409 0
M  V30 11074 H 1050.79 0.518772 -3.62911 0
M  V30 11075 H 1050.44 2.9552 -4.07034 0
M  V30 11076 H 1050.14 1.98163 -5.53177 0
M  V30 11077 H 1051.66 2.90047 -5.37313 0
M  V30 11078 H 1053.08 0.652065 -5.6958 0
M  V30 11079 H 1051.47 -0.0780978 -6.00049 0
M  V30 11080 H 1052.54 -0.796529 -4.78313 0
M  V30 11081 N 1053.89 1.57202 -0.111913 0
M  V30 11082 C 1054.85 2.13778 0.826534 0
M  V30 11083 C 1055.85 1.07097 1.19945 0
M  V30 11084 O 1057.04 1.32906 1.12613 0
M  V30 11085 C 1054.17 2.6722 2.11675 0
M  V30 11086 H 1055.36 2.98023 0.334975 0
M  V30 11087 H 1052.92 1.55696 0.137256 0
M  V30 11088 H 1053.65 1.86542 2.65278 0
M  V30 11089 H 1053.44 3.45235 1.8589 0
M  V30 11090 H 1054.93 3.10926 2.78774 0
M  V30 11091 N 1055.36 -0.161842 1.56767 0
M  V30 11092 C 1056.33 -1.18404 1.96247 0
M  V30 11093 C 1057.33 -1.3667 0.84722 0
M  V30 11094 O 1058.52 -1.33915 1.11411 0
M  V30 11095 C 1055.65 -2.54728 2.26553 0
M  V30 11096 H 1056.84 -0.845703 2.87729 0
M  V30 11097 H 1054.39 -0.404645 1.50971 0
M  V30 11098 H 1055.13 -2.93559 1.37816 0
M  V30 11099 H 1054.91 -2.42834 3.07854 0
M  V30 11100 H 1056.4 -3.28378 2.57987 0
M  V30 11101 N 1056.84 -1.516 -0.430713 0
M  V30 11102 C 1057.77 -1.76342 -1.53054 0
M  V30 11103 C 1058.75 -0.61349 -1.58652 0
M  V30 11104 O 1059.94 -0.856888 -1.74273 0
M  V30 11105 C 1057.07 -1.8945 -2.91077 0
M  V30 11106 C 1056.02 -3.04928 -3.00339 0
M  V30 11107 C 1055.35 -3.03228 -4.40405 0
M  V30 11108 C 1056.65 -4.44777 -2.73808 0
M  V30 11109 H 1058.34 -2.68435 -1.326 0
M  V30 11110 H 1055.89 -1.29171 -0.636466 0
M  V30 11111 H 1057.84 -2.05343 -3.67984 0
M  V30 11112 H 1056.56 -0.940114 -3.12777 0
M  V30 11113 H 1055.22 -2.88751 -2.25872 0
M  V30 11114 H 1054.87 -2.05553 -4.59083 0
M  V30 11115 H 1054.57 -3.80776 -4.47531 0
M  V30 11116 H 1056.1 -3.21222 -5.19277 0
M  V30 11117 H 1057.51 -4.6127 -3.40445 0
M  V30 11118 H 1055.91 -5.2408 -2.92335 0
M  V30 11119 H 1056.98 -4.54358 -1.69372 0
M  V30 11120 N 1058.32 0.686584 -1.41858 0
M  V30 11121 C 1059.23 1.83002 -1.46791 0
M  V30 11122 C 1060.25 1.70284 -0.357675 0
M  V30 11123 O 1061.42 1.92042 -0.606781 0
M  V30 11124 C 1058.49 3.19056 -1.35661 0
M  V30 11125 C 1057.55 3.43817 -2.57077 0
M  V30 11126 C 1056.78 4.7338 -2.46469 0
M  V30 11127 O 1057 5.50483 -1.49413 0
M  V30 11128 O 1055.94 4.99124 -3.36391 0
M  V30 11129 H 1059.76 1.81797 -2.43277 0
M  V30 11130 H 1057.35 0.840812 -1.23494 0
M  V30 11131 H 1059.23 4.00267 -1.31773 0
M  V30 11132 H 1057.91 3.20925 -0.422951 0
M  V30 11133 H 1056.81 2.625 -2.66541 0
M  V30 11134 H 1058.15 3.4677 -3.49302 0
M  V30 11135 N 1059.8 1.27835 0.921735 0
M  V30 11136 C 1061.07 1.05238 1.64877 0
M  V30 11137 C 1061.45 -0.410921 2.07062 0
M  V30 11138 O 1060.8 -1.39538 1.80946 0
M  V30 11139 C 1061.01 2.01955 2.84632 0
M  V30 11140 C 1062.36 2.31657 3.55837 0
M  V30 11141 O 1063.38 1.99975 2.94768 0
M  V30 11142 O 1062.24 2.85692 4.65878 0
M  V30 11143 H 1059.34 0.401622 0.72293 0
M  V30 11144 H 1061.88 1.39123 0.971744 0
M  V30 11145 H 1060.66 3.00614 2.50494 0
M  V30 11146 H 1060.28 1.68667 3.60052 0
M  V30 11147 N 1061.28 -1.12907 1.09954 0
M  V30 11148 C 1062.5 -1.88138 0.860905 0
M  V30 11149 C 1062.92 -1.79402 -0.588256 0
M  V30 11150 O 1062.28 -1.16442 -1.40526 0
M  V30 11151 C 1062.33 -3.37537 1.29425 0
M  V30 11152 O 1062.05 -3.46056 2.68658 0
M  V30 11153 C 1063.55 -4.29721 1.08879 0
M  V30 11154 H 1060.77 -0.595437 0.309347 0
M  V30 11155 H 1063.31 -1.42894 1.46292 0
M  V30 11156 H 1061.47 -3.80344 0.736009 0
M  V30 11157 H 1061.88 -4.38969 2.87065 0
M  V30 11158 H 1063.36 -5.32854 1.4412 0
M  V30 11159 H 1063.83 -4.39192 0.0270053 0
M  V30 11160 H 1064.44 -3.9269 1.63325 0
M  V30 11161 N 1062.75 -0.88754 -1.30232 0
M  V30 11162 C 1064 -0.517406 -1.96709 0
M  V30 11163 C 1064.35 0.923757 -1.68774 0
M  V30 11164 O 1063.65 1.64435 -0.983443 0
M  V30 11165 C 1063.84 -0.731765 -3.49828 0
M  V30 11166 C 1063.67 -2.19221 -3.92648 0
M  V30 11167 C 1062.44 -2.83729 -4.18122 0
M  V30 11168 C 1064.64 -3.16627 -4.0528 0
M  V30 11169 N 1062.62 -4.20343 -4.4742 0
M  V30 11170 C 1063.99 -4.38322 -4.38491 0
M  V30 11171 C 1066.05 -3.12381 -3.87715 0
M  V30 11172 C 1064.75 -5.56315 -4.55967 0
M  V30 11173 C 1066.78 -4.29648 -4.06394 0
M  V30 11174 C 1066.14 -5.5011 -4.39953 0
M  V30 11175 H 1062.24 -0.238709 -0.744676 0
M  V30 11176 H 1064.82 -1.14581 -1.57414 0
M  V30 11177 H 1062.99 -0.132827 -3.88173 0
M  V30 11178 H 1064.72 -0.328276 -4.03366 0
M  V30 11179 H 1061.48 -2.34584 -4.11421 0
M  V30 11180 H 1061.9 -4.90905 -4.66199 0
M  V30 11181 H 1066.54 -2.20345 -3.60843 0
M  V30 11182 H 1064.26 -6.48853 -4.8168 0
M  V30 11183 H 1067.85 -4.27835 -3.94269 0
M  V30 11184 H 1066.73 -6.39339 -4.54109 0
M  V30 11185 N 1064.23 1.43628 -0.648757 0
M  V30 11186 C 1065.14 2.34554 0.0463037 0
M  V30 11187 C 1066.16 1.53629 0.816952 0
M  V30 11188 O 1067.33 1.86297 0.765212 0
M  V30 11189 C 1064.4 3.3185 1.00381 0
M  V30 11190 C 1063.46 4.2868 0.230589 0
M  V30 11191 C 1062.69 5.21328 1.14249 0
M  V30 11192 O 1062.92 5.18298 2.38166 0
M  V30 11193 O 1061.85 5.98726 0.617296 0
M  V30 11194 H 1065.68 2.95475 -0.702008 0
M  V30 11195 H 1063.26 1.43694 -0.408942 0
M  V30 11196 H 1065.14 3.91692 1.5542 0
M  V30 11197 H 1063.82 2.73439 1.73243 0
M  V30 11198 H 1062.73 3.72332 -0.363282 0
M  V30 11199 H 1064.06 4.90061 -0.458368 0
M  V30 11200 N 1065.71 0.390394 1.52688 0
M  V30 11201 C 1066.94 -0.191485 2.06012 0
M  V30 11202 C 1067.35 -1.40422 1.26202 0
M  V30 11203 O 1066.71 -1.79866 0.308963 0
M  V30 11204 C 1066.76 -0.560521 3.57128 0
M  V30 11205 O 1066.48 0.60404 4.33916 0
M  V30 11206 C 1067.98 -1.19814 4.26801 0
M  V30 11207 H 1065.2 -0.0286311 0.670389 0
M  V30 11208 H 1067.75 0.555939 1.96798 0
M  V30 11209 H 1065.9 -1.25784 3.66411 0
M  V30 11210 H 1066.32 0.300467 5.23639 0
M  V30 11211 H 1067.79 -1.40672 5.33775 0
M  V30 11212 H 1068.27 -2.16582 3.82085 0
M  V30 11213 H 1068.87 -0.541558 4.21838 0
M  V30 11214 N 1067.19 -1.57141 0.120249 0
M  V30 11215 C 1068.12 -2.18398 -0.826112 0
M  V30 11216 C 1069.1 -1.12439 -1.27638 0
M  V30 11217 O 1070.28 -1.40679 -1.33877 0
M  V30 11218 C 1067.41 -2.78438 -2.0758 0
M  V30 11219 C 1066.37 -3.89991 -1.76327 0
M  V30 11220 C 1065.69 -4.36844 -3.08336 0
M  V30 11221 C 1066.99 -5.12031 -1.03062 0
M  V30 11222 H 1068.69 -2.97731 -0.315656 0
M  V30 11223 H 1066.23 -1.43213 -0.150387 0
M  V30 11224 H 1068.19 -3.19951 -2.74243 0
M  V30 11225 H 1066.91 -1.96396 -2.60953 0
M  V30 11226 H 1065.57 -3.49055 -1.12053 0
M  V30 11227 H 1065.22 -3.51659 -3.59646 0
M  V30 11228 H 1064.92 -5.1207 -2.88199 0
M  V30 11229 H 1066.44 -4.81009 -3.76116 0
M  V30 11230 H 1067.86 -5.50555 -1.59881 0
M  V30 11231 H 1066.25 -5.92848 -0.930146 0
M  V30 11232 H 1067.32 -4.84897 -0.017582 0
M  V30 11233 N 1068.67 0.153526 -1.5685 0
M  V30 11234 C 1069.89 0.886343 -1.87507 0
M  V30 11235 C 1070.32 1.74244 -0.708565 0
M  V30 11236 O 1069.67 1.78045 0.341997 0
M  V30 11237 C 1069.72 1.72428 -3.16703 0
M  V30 11238 O 1068.83 2.82784 -3.00178 0
M  V30 11239 H 1068.17 0.247259 -0.616246 0
M  V30 11240 H 1070.7 0.146306 -2.04076 0
M  V30 11241 H 1070.71 2.12062 -3.4856 0
M  V30 11242 H 1069.38 1.09558 -4.01211 0
M  V30 11243 H 1067.96 2.46604 -2.79716 0
M  V30 11244 N 1070.14 1.51827 0.422667 0
M  V30 11245 C 1071.09 1.74198 1.51406 0
M  V30 11246 C 1072.06 0.584013 1.55494 0
M  V30 11247 O 1073.25 0.820079 1.72277 0
M  V30 11248 C 1070.39 1.88627 2.88988 0
M  V30 11249 C 1069.5 3.16233 2.94314 0
M  V30 11250 C 1068.63 3.21172 4.2311 0
M  V30 11251 C 1067.67 4.43033 4.2236 0
M  V30 11252 N 1066.81 4.4544 5.42704 0
M  V30 11253 H 1071.65 2.67352 1.31632 0
M  V30 11254 H 1069.19 1.32487 0.63919 0
M  V30 11255 H 1071.15 1.94976 3.68837 0
M  V30 11256 H 1069.78 0.988673 3.07287 0
M  V30 11257 H 1068.83 3.19123 2.07039 0
M  V30 11258 H 1070.14 4.06104 2.89623 0
M  V30 11259 H 1069.29 3.26517 5.11343 0
M  V30 11260 H 1068.03 2.29216 4.30478 0
M  V30 11261 H 1067.04 4.37849 3.32518 0
M  V30 11262 H 1068.26 5.3627 4.16643 0
M  V30 11263 H 1066.21 3.56361 5.50766 0
M  V30 11264 H 1066.13 5.29138 5.39953 0
M  V30 11265 H 1067.39 4.54997 6.32928 0
M  V30 11266 N 1071.62 -0.679052 1.4222 0
M  V30 11267 C 1073.04 -0.991665 1.25053 0
M  V30 11268 C 1073.24 -2.00928 0.151665 0
M  V30 11269 O 1072.29 -2.47925 -0.478507 0
M  V30 11270 C 1073.61 -1.50053 2.60585 0
M  V30 11271 C 1075.16 -1.61852 2.67905 0
M  V30 11272 C 1075.63 -2.16135 4.03794 0
M  V30 11273 N 1077.12 -2.23474 4.05726 0
M  V30 11274 C 1077.86 -2.66541 5.07685 0
M  V30 11275 N 1077.35 -3.09092 6.20028 0
M  V30 11276 N 1079.15 -2.66252 4.95042 0
M  V30 11277 H 1071.3 -0.00521851 2.12399 0
M  V30 11278 H 1073.56 -0.0648465 0.94578 0
M  V30 11279 H 1073.27 -0.82731 3.41831 0
M  V30 11280 H 1073.14 -2.47998 2.84213 0
M  V30 11281 H 1075.53 -2.28281 1.87008 0
M  V30 11282 H 1075.61 -0.624074 2.4807 0
M  V30 11283 H 1075.25 -1.50316 4.85147 0
M  V30 11284 H 1075.18 -3.16363 4.20978 0
M  V30 11285 H 1077.67 -1.93467 3.24621 0
M  V30 11286 H 1077.99 -3.40627 6.93681 0
M  V30 11287 H 1076.33 -3.06959 6.23539 0
M  V30 11288 H 1079.52 -2.32369 4.06352 0
M  V30 11289 H 1079.69 -2.99496 5.74636 0
M  V30 11290 N 1073.1 -1.28322 -0.914942 0
M  V30 11291 C 1074.33 -1.18083 -1.69529 0
M  V30 11292 C 1074.74 0.263274 -1.87359 0
M  V30 11293 O 1074.08 1.18988 -1.39955 0
M  V30 11294 C 1074.14 -1.8062 -3.10832 0
M  V30 11295 C 1073.81 -3.29861 -3.16292 0
M  V30 11296 C 1074.8 -4.26313 -2.97578 0
M  V30 11297 C 1072.49 -3.70797 -3.38843 0
M  V30 11298 C 1074.48 -5.61677 -3.01326 0
M  V30 11299 C 1072.17 -5.06287 -3.42223 0
M  V30 11300 C 1073.17 -6.01537 -3.23485 0
M  V30 11301 O 1072.86 -7.34556 -3.26624 0
M  V30 11302 H 1072.59 -0.410931 -0.53676 0
M  V30 11303 H 1075.14 -1.6994 -1.15367 0
M  V30 11304 H 1073.37 -1.23255 -3.66531 0
M  V30 11305 H 1075.06 -1.64915 -3.70888 0
M  V30 11306 H 1075.83 -3.96023 -2.79984 0
M  V30 11307 H 1071.71 -2.97124 -3.52475 0
M  V30 11308 H 1075.25 -6.36 -2.86618 0
M  V30 11309 H 1071.15 -5.36228 -3.59346 0
M  V30 11310 H 1071.92 -7.43167 -3.42994 0
M  V30 11311 N 1074.58 1.12322 -1.10551 0
M  V30 11312 C 1075.83 1.83495 -0.846998 0
M  V30 11313 C 1076.15 1.8457 0.629205 0
M  V30 11314 O 1075.42 1.30968 1.45686 0
M  V30 11315 H 1074 0.679479 -0.310351 0
M  V30 11316 H 1076.66 1.36004 -1.39602 0
M  V30 11317 H 1075.76 2.87651 -1.21092 0
M  V30 11318 N 1076.06 0.894434 1.2976 0
M  V30 11319 C 1077 0.357958 2.29829 0
M  V30 11320 C 1078 -0.540093 1.6056 0
M  V30 11321 O 1079.2 -0.423478 1.74948 0
M  V30 11322 H 1075.58 0.0971183 0.745702 0
M  V30 11323 H 1077.55 1.21542 2.72526 0
M  V30 11324 C 1076.3 -0.404126 3.45343 0
M  V30 11325 H 1075.62 0.277671 3.98835 0
M  V30 11326 H 1077.06 -0.744446 4.17413 0
M  V30 11327 C 1075.52 -1.6048 2.96222 0
M  V30 11328 O 1076.05 -2.70414 2.97051 0
M  V30 11329 N 1074.26 -1.44517 2.52117 0
M  V30 11330 H 1073.8 -0.55082 2.51642 0
M  V30 11331 H 1073.76 -2.24987 2.1961 0
M  V30 11332 N 1077.53 -1.43282 0.656365 0
M  V30 11333 C 1078.48 -2.32556 -0.0452037 0
M  V30 11334 C 1079.48 -1.48789 -0.80982 0
M  V30 11335 O 1080.68 -1.64979 -0.719865 0
M  V30 11336 H 1077.06 -0.751258 -0.0334043 0
M  V30 11337 H 1079.03 -2.89448 0.725423 0
M  V30 11338 C 1077.78 -3.33138 -0.995706 0
M  V30 11339 H 1077.1 -3.97622 -0.416774 0
M  V30 11340 H 1078.54 -3.98231 -1.45562 0
M  V30 11341 C 1077 -2.63978 -2.09325 0
M  V30 11342 O 1077.53 -2.45769 -3.17743 0
M  V30 11343 N 1075.74 -2.23301 -1.8597 0
M  V30 11344 H 1075.28 -2.38312 -0.97802 0
M  V30 11345 H 1075.24 -1.77358 -2.59599 0
M  V30 11346 N 1079.01 -0.398486 -1.52479 0
M  V30 11347 C 1080.26 0.181019 -2.0199 0
M  V30 11348 C 1080.59 1.45691 -1.28405 0
M  V30 11349 O 1079.87 1.90607 -0.387207 0
M  V30 11350 C 1080.15 0.439587 -3.57407 0
M  V30 11351 C 1080 -0.85223 -4.41653 0
M  V30 11352 C 1081.32 1.2263 -4.2267 0
M  V30 11353 H 1078.44 0.0643164 -0.734188 0
M  V30 11354 H 1081.08 -0.52986 -1.82462 0
M  V30 11355 H 1079.23 1.04516 -3.74177 0
M  V30 11356 H 1080.91 -1.48879 -4.36615 0
M  V30 11357 H 1079.15 -1.46555 -4.08294 0
M  V30 11358 H 1079.82 -0.625839 -5.48441 0
M  V30 11359 H 1082.3 0.713722 -4.09933 0
M  V30 11360 H 1081.17 1.37596 -5.31374 0
M  V30 11361 H 1081.43 2.24403 -3.80914 0
M  V30 11362 N 1080.49 1.57075 -0.12858 0
M  V30 11363 C 1081.72 2.00305 0.537839 0
M  V30 11364 C 1082.14 1.00787 1.58819 0
M  V30 11365 O 1081.5 -0.0190839 1.8129 0
M  V30 11366 C 1081.55 3.42371 1.13201 0
M  V30 11367 O 1080.65 3.45786 2.24735 0
M  V30 11368 H 1079.99 0.650456 0.133428 0
M  V30 11369 H 1082.52 2.03415 -0.219882 0
M  V30 11370 H 1082.53 3.80783 1.4652 0
M  V30 11371 H 1081.21 4.14315 0.362713 0
M  V30 11372 H 1079.78 3.19201 1.92783 0
M  V30 11373 N 1081.97 -0.145205 1.5693 0
M  V30 11374 C 1082.92 -1.19841 1.99351 0
M  V30 11375 C 1083.91 -1.44371 0.886197 0
M  V30 11376 O 1085.12 -1.44642 1.07138 0
M  V30 11377 H 1081.49 -0.403437 0.63462 0
M  V30 11378 H 1083.46 -0.813932 2.87085 0
M  V30 11379 C 1082.21 -2.52377 2.39167 0
M  V30 11380 H 1081.54 -2.34332 3.23927 0
M  V30 11381 H 1082.98 -3.24694 2.72671 0
M  V30 11382 C 1081.43 -3.1305 1.24503 0
M  V30 11383 O 1081.96 -3.97962 0.546739 0
M  V30 11384 N 1080.17 -2.72528 1.00882 0
M  V30 11385 H 1079.72 -2.03576 1.57843 0
M  V30 11386 H 1079.68 -3.13456 0.24351 0
M  V30 11387 N 1083.45 -1.52049 -0.414609 0
M  V30 11388 C 1084.69 -1.67041 -1.16056 0
M  V30 11389 C 1085.05 -0.392768 -1.88348 0
M  V30 11390 O 1084.34 0.612547 -1.81545 0
M  V30 11391 C 1084.54 -2.82735 -2.18622 0
M  V30 11392 C 1084.36 -4.21627 -1.564 0
M  V30 11393 C 1083.13 -4.87234 -1.33907 0
M  V30 11394 C 1085.33 -5.03924 -1.02785 0
M  V30 11395 N 1083.31 -6.10175 -0.67521 0
M  V30 11396 C 1084.69 -6.18056 -0.490589 0
M  V30 11397 C 1086.74 -4.89293 -0.921791 0
M  V30 11398 C 1085.44 -7.19159 0.14234 0
M  V30 11399 C 1087.47 -5.90625 -0.302724 0
M  V30 11400 C 1086.83 -7.04044 0.223891 0
M  V30 11401 H 1082.93 -0.664947 -0.411544 0
M  V30 11402 H 1085.51 -1.89339 -0.453743 0
M  V30 11403 H 1083.69 -2.62062 -2.86668 0
M  V30 11404 H 1085.42 -2.86792 -2.85539 0
M  V30 11405 H 1082.17 -4.45499 -1.60709 0
M  V30 11406 H 1082.6 -6.76042 -0.360062 0
M  V30 11407 H 1087.24 -4.01838 -1.31477 0
M  V30 11408 H 1084.96 -8.06244 0.547392 0
M  V30 11409 H 1088.54 -5.81375 -0.222252 0
M  V30 11410 H 1087.42 -7.81111 0.695377 0
M  V30 11411 N 1084.93 0.6715 -1.42579 0
M  V30 11412 C 1085.87 1.78496 -1.46314 0
M  V30 11413 C 1086.84 1.63091 -0.314743 0
M  V30 11414 O 1088.03 1.83597 -0.519292 0
M  V30 11415 C 1085.17 3.16548 -1.37447 0
M  V30 11416 C 1084.28 3.43216 -2.62348 0
M  V30 11417 C 1083.42 4.71014 -2.456 0
M  V30 11418 C 1082.45 4.90728 -3.65859 0
M  V30 11419 N 1081.59 6.09769 -3.48032 0
M  V30 11420 H 1086.43 1.74638 -2.41466 0
M  V30 11421 H 1083.97 0.852491 -1.19879 0
M  V30 11422 H 1085.93 3.96329 -1.30303 0
M  V30 11423 H 1084.56 3.19522 -0.458891 0
M  V30 11424 H 1083.61 2.57664 -2.79846 0
M  V30 11425 H 1084.92 3.53675 -3.51732 0
M  V30 11426 H 1084.07 5.58892 -2.3606 0
M  V30 11427 H 1082.81 4.62843 -1.53712 0
M  V30 11428 H 1081.82 4.01291 -3.75827 0
M  V30 11429 H 1083.04 5.00741 -4.58732 0
M  V30 11430 H 1080.99 6.02765 -2.58864 0
M  V30 11431 H 1080.91 6.21104 -4.31005 0
M  V30 11432 H 1082.17 7.00317 -3.42311 0
M  V30 11433 N 1086.4 1.28806 0.908124 0
M  V30 11434 C 1087.63 1.19153 1.69146 0
M  V30 11435 C 1088.05 -0.249056 1.8715 0
M  V30 11436 O 1087.4 -1.16772 1.40251 0
M  V30 11437 C 1087.45 1.89167 3.08055 0
M  V30 11438 O 1087.18 3.27599 2.90879 0
M  V30 11439 C 1088.68 1.85886 4.02444 0
M  V30 11440 H 1085.9 0.413359 0.528559 0
M  V30 11441 H 1088.44 1.7003 1.13622 0
M  V30 11442 H 1086.6 1.42146 3.60379 0
M  V30 11443 H 1087.01 3.62743 3.78837 0
M  V30 11444 H 1088.48 2.39454 4.97359 0
M  V30 11445 H 1088.96 0.832483 4.31238 0
M  V30 11446 H 1089.57 2.32612 3.5605 0
M  V30 11447 N 1087.88 -1.11734 1.11145 0
M  V30 11448 C 1089.29 -1.64928 0.874959 0
M  V30 11449 C 1089.64 -1.87012 -0.593375 0
M  V30 11450 O 1088.77 -1.60206 -1.45475 0
M  V30 11451 C 1089.36 -2.99608 1.58178 0
M  V30 11452 C 1087.92 -3.49723 1.39179 0
M  V30 11453 C 1087.07 -2.24595 1.62642 0
M  V30 11454 H 1090.02 -0.954154 1.26813 0
M  V30 11455 H 1090.04 -3.66434 1.02501 0
M  V30 11456 H 1089.55 -2.83504 2.65042 0
M  V30 11457 H 1087.65 -3.70998 0.345111 0
M  V30 11458 H 1087.77 -4.28711 2.13878 0
M  V30 11459 H 1086.13 -2.32067 1.04961 0
M  V30 11460 H 1086.91 -2.11036 2.70774 0
M  V30 11461 N 1089.36 -0.901303 -1.29284 0
M  V30 11462 C 1090.32 -0.385081 -2.25942 0
M  V30 11463 C 1091.32 0.481626 -1.53418 0
M  V30 11464 O 1092.51 0.286451 -1.71829 0
M  V30 11465 C 1089.64 0.449319 -3.37926 0
M  V30 11466 H 1090.84 -1.23877 -2.7312 0
M  V30 11467 H 1088.39 -0.679586 -1.40753 0
M  V30 11468 H 1089.13 1.32292 -2.9609 0
M  V30 11469 H 1088.91 -0.171731 -3.91724 0
M  V30 11470 H 1090.4 0.801746 -4.09831 0
M  V30 11471 N 1090.84 1.42931 -0.663954 0
M  V30 11472 C 1091.77 2.28089 0.0710318 0
M  V30 11473 C 1092.75 1.40446 0.819375 0
M  V30 11474 O 1093.93 1.69887 0.816738 0
M  V30 11475 C 1091.06 3.20079 1.10756 0
M  V30 11476 C 1090.11 4.24055 0.456045 0
M  V30 11477 S 1090.94 5.29813 -0.778356 0
M  V30 11478 C 1092.09 6.25371 0.257373 0
M  V30 11479 H 1092.33 2.90078 -0.651315 0
M  V30 11480 H 1089.86 1.47601 -0.453137 0
M  V30 11481 H 1091.82 3.7362 1.70055 0
M  V30 11482 H 1090.48 2.57248 1.80229 0
M  V30 11483 H 1089.67 4.88564 1.23779 0
M  V30 11484 H 1089.27 3.73947 -0.0630832 0
M  V30 11485 H 1091.57 6.68172 1.12037 0
M  V30 11486 H 1092.51 7.0722 -0.352969 0
M  V30 11487 H 1092.92 5.61324 0.597991 0
M  V30 11488 N 1092.32 0.406567 1.52266 0
M  V30 11489 C 1093.28 -0.408251 2.25535 0
M  V30 11490 C 1094.28 -0.975795 1.27808 0
M  V30 11491 O 1095.47 -0.855077 1.5177 0
M  V30 11492 C 1092.6 -1.57443 3.02365 0
M  V30 11493 H 1093.79 0.233459 2.9899 0
M  V30 11494 H 1091.35 0.159032 1.55489 0
M  V30 11495 H 1092.08 -2.25308 2.33252 0
M  V30 11496 H 1091.87 -1.17399 3.74112 0
M  V30 11497 H 1093.36 -2.15088 3.57948 0
M  V30 11498 N 1093.79 -1.57004 0.136909 0
M  V30 11499 C 1094.72 -2.19262 -0.802902 0
M  V30 11500 C 1095.71 -1.13786 -1.26439 0
M  V30 11501 O 1096.89 -1.42091 -1.32377 0
M  V30 11502 C 1094.02 -2.80624 -2.04615 0
M  V30 11503 C 1092.97 -3.91839 -1.72181 0
M  V30 11504 C 1092.3 -4.4009 -3.03686 0
M  V30 11505 C 1093.6 -5.13095 -0.976249 0
M  V30 11506 H 1095.29 -2.98049 -0.28406 0
M  V30 11507 H 1092.84 -1.43364 -0.135189 0
M  V30 11508 H 1094.79 -3.22842 -2.70834 0
M  V30 11509 H 1093.52 -1.99153 -2.58855 0
M  V30 11510 H 1092.18 -3.50224 -1.08344 0
M  V30 11511 H 1091.82 -3.55454 -3.55896 0
M  V30 11512 H 1091.52 -5.15098 -2.82751 0
M  V30 11513 H 1093.05 -4.84971 -3.70993 0
M  V30 11514 H 1094.46 -5.5222 -1.54033 0
M  V30 11515 H 1092.86 -5.93801 -0.867214 0
M  V30 11516 H 1093.93 -4.84888 0.0338488 0
M  V30 11517 N 1095.27 0.136881 -1.57004 0
M  V30 11518 C 1096.5 0.862436 -1.88068 0
M  V30 11519 C 1096.92 1.74274 -0.726227 0
M  V30 11520 O 1096.27 1.79956 0.30366 0
M  V30 11521 C 1096.32 1.71076 -3.18458 0
M  V30 11522 O 1096.04 0.865918 -4.29457 0
M  V30 11523 C 1097.55 2.54302 -3.63105 0
M  V30 11524 H 1094.77 0.248865 -0.623143 0
M  V30 11525 H 1097.31 0.126633 -2.04108 0
M  V30 11526 H 1095.46 2.39951 -3.04142 0
M  V30 11527 H 1095.88 1.4493 -5.04079 0
M  V30 11528 H 1097.35 3.09384 -4.57149 0
M  V30 11529 H 1097.83 3.3082 -2.88886 0
M  V30 11530 H 1098.44 1.907 -3.80149 0
M  V30 11531 N 1096.75 1.52266 0.40654 0
M  V30 11532 C 1098 1.66452 1.15325 0
M  V30 11533 C 1098.33 0.395728 1.90432 0
M  V30 11534 O 1097.58 -0.621382 1.85573 0
M  V30 11535 C 1097.88 2.8389 2.1712 0
M  V30 11536 C 1097.55 4.22011 1.58801 0
M  V30 11537 C 1096.21 4.59579 1.42621 0
M  V30 11538 C 1098.56 5.08074 1.16236 0
M  V30 11539 C 1095.89 5.80885 0.823967 0
M  V30 11540 C 1098.24 6.29988 0.574284 0
M  V30 11541 C 1096.9 6.66303 0.399638 0
M  V30 11542 H 1096.17 0.609092 0.422005 0
M  V30 11543 H 1098.82 1.86374 0.440131 0
M  V30 11544 H 1097.13 2.58314 2.94586 0
M  V30 11545 H 1098.82 2.92063 2.74774 0
M  V30 11546 H 1095.41 3.92408 1.72378 0
M  V30 11547 H 1099.6 4.79631 1.27544 0
M  V30 11548 H 1094.85 6.07644 0.676694 0
M  V30 11549 H 1099.03 6.96 0.236081 0
M  V30 11550 H 1096.65 7.60169 -0.0691262 0
M  V30 11551 N 1098.23 -0.663929 1.42933 0
M  V30 11552 C 1099.64 -0.978346 1.26097 0
M  V30 11553 C 1099.84 -2.00756 0.172968 0
M  V30 11554 O 1098.9 -2.48418 -0.452184 0
M  V30 11555 C 1100.21 -1.4728 2.62162 0
M  V30 11556 C 1101.76 -1.59001 2.69606 0
M  V30 11557 C 1102.24 -2.1184 4.06064 0
M  V30 11558 N 1103.73 -2.19158 4.08074 0
M  V30 11559 C 1104.46 -2.61141 5.10483 0
M  V30 11560 N 1103.96 -3.02498 6.23271 0
M  V30 11561 N 1105.75 -2.60986 4.97838 0
M  V30 11562 H 1097.9 0.0173096 2.12393 0
M  V30 11563 H 1100.17 -0.0548116 0.946414 0
M  V30 11564 H 1099.87 -0.791008 3.42689 0
M  V30 11565 H 1099.75 -2.4497 2.86827 0
M  V30 11566 H 1102.13 -2.26284 1.89418 0
M  V30 11567 H 1102.21 -0.597728 2.48718 0
M  V30 11568 H 1101.86 -1.45162 4.86714 0
M  V30 11569 H 1101.79 -3.1188 4.2431 0
M  V30 11570 H 1104.28 -1.90013 3.26655 0
M  V30 11571 H 1104.59 -3.33251 6.97254 0
M  V30 11572 H 1102.94 -3.00328 6.2676 0
M  V30 11573 H 1106.13 -2.28046 4.08794 0
M  V30 11574 H 1106.3 -2.93384 5.7778 0
M  V30 11575 N 1099.71 -1.29285 -0.901281 0
M  V30 11576 C 1100.67 -1.14283 -1.98676 0
M  V30 11577 C 1101.67 -0.0787641 -1.60607 0
M  V30 11578 O 1102.86 -0.325574 -1.71131 0
M  V30 11579 C 1099.99 -0.747279 -3.32609 0
M  V30 11580 H 1101.18 -2.10701 -2.13413 0
M  V30 11581 H 1098.74 -1.12449 -1.08558 0
M  V30 11582 H 1099.47 0.217111 -3.23572 0
M  V30 11583 H 1099.26 -1.51608 -3.61604 0
M  V30 11584 H 1100.75 -0.665322 -4.12266 0
M  V30 11585 N 1101.18 1.11143 -1.11736 0
M  V30 11586 C 1102.13 2.19358 -0.773626 0
M  V30 11587 C 1103.13 1.67744 0.236288 0
M  V30 11588 O 1104.33 1.79748 0.09525 0
M  V30 11589 H 1100.71 0.715218 -0.232309 0
M  V30 11590 H 1102.68 2.45594 -1.69487 0
M  V30 11591 C 1101.43 3.46895 -0.236457 0
M  V30 11592 H 1100.75 3.86967 -1.00483 0
M  V30 11593 H 1102.19 4.23986 -0.034168 0
M  V30 11594 C 1100.65 3.20641 1.03397 0
M  V30 11595 O 1101.18 3.41629 2.11312 0
M  V30 11596 N 1099.39 2.74356 0.957986 0
M  V30 11597 H 1098.93 2.57477 0.0796924 0
M  V30 11598 H 1098.89 2.57166 1.80867 0
M  V30 11599 N 1102.66 0.908147 1.28804 0
M  V30 11600 C 1103.61 0.382315 2.29437 0
M  V30 11601 C 1104.6 -0.523033 1.61123 0
M  V30 11602 O 1105.81 -0.404898 1.75387 0
M  V30 11603 H 1102.19 0.105022 0.74463 0
M  V30 11604 H 1104.16 1.24425 2.71221 0
M  V30 11605 C 1102.91 -0.367475 3.45753 0
M  V30 11606 H 1102.23 0.319957 3.98518 0
M  V30 11607 H 1103.67 -0.700131 4.1818 0
M  V30 11608 C 1102.13 -1.57329 2.97908 0
M  V30 11609 O 1102.66 -2.67248 2.99902 0
M  V30 11610 N 1100.86 -1.41835 2.53636 0
M  V30 11611 H 1100.41 -0.524099 2.52212 0
M  V30 11612 H 1100.37 -2.22645 2.21984 0
M  V30 11613 N 1104.14 -1.42577 0.671525 0
M  V30 11614 C 1105.39 -2.01584 0.192431 0
M  V30 11615 C 1105.72 -1.53076 -1.19992 0
M  V30 11616 O 1104.97 -0.722196 -1.81887 0
M  V30 11617 C 1105.27 -3.56985 0.172097 0
M  V30 11618 C 1104.94 -4.24912 1.50867 0
M  V30 11619 C 1103.6 -4.43182 1.87464 0
M  V30 11620 C 1105.95 -4.6322 2.38908 0
M  V30 11621 C 1103.28 -4.97031 3.11732 0
M  V30 11622 C 1105.63 -5.18447 3.62485 0
M  V30 11623 C 1104.29 -5.34932 3.99255 0
M  V30 11624 H 1103.56 -0.737647 0.0704155 0
M  V30 11625 H 1106.21 -1.70807 0.865862 0
M  V30 11626 H 1104.52 -3.87411 -0.584835 0
M  V30 11627 H 1106.21 -4.00419 -0.215749 0
M  V30 11628 H 1102.8 -4.11048 1.21397 0
M  V30 11629 H 1106.99 -4.4878 2.1192 0
M  V30 11630 H 1102.24 -5.07979 3.40246 0
M  V30 11631 H 1106.42 -5.47075 4.30909 0
M  V30 11632 H 1104.04 -5.76422 4.95623 0
M  V30 11633 N 1105.62 -0.414636 -1.52048 0
M  V30 11634 C 1106.87 0.159349 -2.01872 0
M  V30 11635 C 1107.19 1.44674 -1.29999 0
M  V30 11636 O 1106.45 1.91641 -0.396511 0
M  V30 11637 C 1106.75 0.448327 -3.54577 0
M  V30 11638 C 1106.41 -0.75052 -4.4461 0
M  V30 11639 C 1105.08 -1.07935 -4.68939 0
M  V30 11640 C 1107.43 -1.55134 -4.97577 0
M  V30 11641 C 1104.76 -2.21008 -5.43482 0
M  V30 11642 C 1107.11 -2.67288 -5.73358 0
M  V30 11643 C 1105.77 -3.00651 -5.95958 0
M  V30 11644 H 1105.04 0.05831 -0.738702 0
M  V30 11645 H 1107.69 -0.557184 -1.83215 0
M  V30 11646 H 1105.99 1.24649 -3.71443 0
M  V30 11647 H 1107.69 0.90549 -3.90643 0
M  V30 11648 H 1104.28 -0.484257 -4.25856 0
M  V30 11649 H 1108.46 -1.31052 -4.78685 0
M  V30 11650 H 1103.72 -2.47197 -5.59199 0
M  V30 11651 H 1107.89 -3.29725 -6.13396 0
M  V30 11652 H 1105.52 -3.88384 -6.535 0
M  V30 11653 N 1107.1 1.56929 -0.145233 0
M  V30 11654 C 1108.34 1.95681 0.50532 0
M  V30 11655 C 1108.67 1.03098 1.65516 0
M  V30 11656 O 1107.94 0.0921961 1.95683 0
M  V30 11657 H 1106.52 0.72252 0.189668 0
M  V30 11658 H 1109.18 1.93651 -0.220318 0
M  V30 11659 H 1108.27 2.99359 0.882631 0
M  V30 11660 N 1108.58 -0.128553 1.57075 0
M  V30 11661 C 1109.82 -0.839252 1.8462 0
M  V30 11662 C 1110.15 -1.79974 0.729582 0
M  V30 11663 O 1109.43 -1.92681 -0.265369 0
M  V30 11664 C 1109.71 -1.59756 3.22723 0
M  V30 11665 C 1109.57 -0.657313 4.44971 0
M  V30 11666 C 1110.88 -2.55592 3.58275 0
M  V30 11667 H 1108 -0.303652 0.671539 0
M  V30 11668 H 1110.65 -0.103802 1.89716 0
M  V30 11669 H 1108.8 -2.22451 3.18509 0
M  V30 11670 H 1110.47 -0.0399471 4.61283 0
M  V30 11671 H 1108.71 0.0318416 4.33788 0
M  V30 11672 H 1109.38 -1.22433 5.38251 0
M  V30 11673 H 1111.86 -2.03007 3.63218 0
M  V30 11674 H 1110.73 -3.05687 4.55902 0
M  V30 11675 H 1110.99 -3.37813 2.85193 0
M  V30 11676 N 1110.05 -1.5248 -0.398459 0
M  V30 11677 C 1111.46 -1.59107 -0.976817 0
M  V30 11678 C 1111.82 -0.438104 -1.91246 0
M  V30 11679 O 1110.94 0.440111 -2.11877 0
M  V30 11680 C 1111.54 -2.88373 -1.77838 0
M  V30 11681 C 1110.09 -2.97445 -2.30659 0
M  V30 11682 C 1109.24 -2.5414 -1.10942 0
M  V30 11683 H 1112.19 -1.57695 -0.178324 0
M  V30 11684 H 1112.21 -2.74327 -2.63676 0
M  V30 11685 H 1111.73 -3.72269 -1.09714 0
M  V30 11686 H 1109.83 -2.18066 -3.02123 0
M  V30 11687 H 1109.94 -4.019 -2.60794 0
M  V30 11688 H 1108.3 -2.08237 -1.46661 0
M  V30 11689 H 1109.09 -3.40421 -0.443684 0
M  V30 11690 N 1111.53 0.65634 -1.43283 0
M  V30 11691 C 1112.46 1.78184 -1.44164 0
M  V30 11692 C 1113.48 1.59249 -0.338177 0
M  V30 11693 O 1114.67 1.68027 -0.60242 0
M  V30 11694 C 1111.77 3.15566 -1.23577 0
M  V30 11695 C 1110.94 3.61187 -2.46704 0
M  V30 11696 C 1110 4.77361 -2.21388 0
M  V30 11697 O 1109.02 4.8696 -2.94718 0
M  V30 11698 N 1110.23 5.67351 -1.22855 0
M  V30 11699 H 1112.99 1.77907 -2.41183 0
M  V30 11700 H 1110.55 0.840076 -1.38399 0
M  V30 11701 H 1112.54 3.90968 -1.04529 0
M  V30 11702 H 1111.11 3.10633 -0.350155 0
M  V30 11703 H 1110.33 2.76263 -2.81198 0
M  V30 11704 H 1111.62 3.88413 -3.28652 0
M  V30 11705 H 1111.02 5.62265 -0.622417 0
M  V30 11706 H 1109.58 6.42487 -1.09791 0
M  V30 11707 N 1113.01 1.29761 0.894412 0
M  V30 11708 C 1113.97 1.15335 1.98067 0
M  V30 11709 C 1114.97 0.0872804 1.60563 0
M  V30 11710 O 1116.16 0.334645 1.70955 0
M  V30 11711 C 1113.29 0.764907 3.32208 0
M  V30 11712 H 1114.49 2.11829 2.12293 0
M  V30 11713 H 1112.04 1.13023 1.0796 0
M  V30 11714 H 1112.78 -0.199948 3.23683 0
M  V30 11715 H 1112.56 1.53523 3.60795 0
M  V30 11716 H 1114.05 0.687176 4.11907 0
M  V30 11717 N 1114.49 -1.10549 1.12324 0
M  V30 11718 C 1115.45 -2.15039 0.793156 0
M  V30 11719 C 1116.45 -1.59651 -0.19192 0
M  V30 11720 O 1117.64 -1.74167 0.0337262 0
M  V30 11721 C 1114.77 -3.40433 0.17842 0
M  V30 11722 H 1115.97 -2.4575 1.71892 0
M  V30 11723 H 1113.52 -1.25892 0.926333 0
M  V30 11724 H 1114.25 -3.15338 -0.757122 0
M  V30 11725 H 1114.04 -3.81921 0.887645 0
M  V30 11726 H 1115.53 -4.17584 -0.0360724 0
M  V30 11727 N 1115.97 -0.914965 -1.28321 0
M  V30 11728 C 1116.93 -0.409024 -2.25521 0
M  V30 11729 C 1117.93 0.465327 -1.5392 0
M  V30 11730 O 1119.12 0.26821 -1.72123 0
M  V30 11731 C 1116.25 0.413452 -3.38383 0
M  V30 11732 H 1117.44 -1.26767 -2.71791 0
M  V30 11733 H 1115 -0.694477 -1.40024 0
M  V30 11734 H 1115.73 1.29145 -2.97476 0
M  V30 11735 H 1115.52 -0.213268 -3.9152 0
M  V30 11736 H 1117.01 0.758232 -4.10659 0
M  V30 11737 N 1117.44 1.42219 -0.679077 0
M  V30 11738 C 1118.35 2.346 -0.00345919 0
M  V30 11739 C 1119.37 1.55327 0.784181 0
M  V30 11740 O 1120.55 1.87878 0.725524 0
M  V30 11741 C 1117.61 3.33905 0.933194 0
M  V30 11742 C 1116.67 4.29073 0.139607 0
M  V30 11743 C 1115.9 5.23634 1.03165 0
M  V30 11744 O 1116.13 5.23234 2.27119 0
M  V30 11745 O 1115.06 5.99901 0.490159 0
M  V30 11746 H 1118.89 2.9392 -0.764525 0
M  V30 11747 H 1116.47 1.42794 -0.439329 0
M  V30 11748 H 1118.35 3.949 1.47077 0
M  V30 11749 H 1117.03 2.77052 1.67404 0
M  V30 11750 H 1115.94 3.71478 -0.442177 0
M  V30 11751 H 1117.27 4.88979 -0.562214 0
M  V30 11752 N 1118.92 0.422693 1.51826 0
M  V30 11753 C 1119.83 -0.40261 2.31119 0
M  V30 11754 C 1120.85 -1.04117 1.39412 0
M  V30 11755 O 1122.02 -1.03973 1.72486 0
M  V30 11756 C 1119.09 -1.49699 3.12716 0
M  V30 11757 C 1118.15 -0.880088 4.20182 0
M  V30 11758 C 1117.38 -1.92232 4.97878 0
M  V30 11759 O 1117.61 -3.14246 4.76031 0
M  V30 11760 O 1116.54 -1.521 5.82365 0
M  V30 11761 H 1120.37 0.244308 3.02716 0
M  V30 11762 H 1117.95 0.185569 1.48243 0
M  V30 11763 H 1119.83 -2.13202 3.63487 0
M  V30 11764 H 1118.51 -2.12826 2.43899 0
M  V30 11765 H 1117.41 -0.207404 3.73525 0
M  V30 11766 H 1118.75 -0.292535 4.9133 0
M  V30 11767 N 1120.4 -1.5685 0.153553 0
M  V30 11768 C 1121.63 -2.00701 -0.502678 0
M  V30 11769 C 1122.04 -1.0337 -1.57988 0
M  V30 11770 O 1121.4 -0.0317233 -1.82472 0
M  V30 11771 C 1121.45 -3.44443 -1.09732 0
M  V30 11772 O 1121.17 -4.38054 -0.0631405 0
M  V30 11773 C 1122.67 -4.03605 -1.83352 0
M  V30 11774 H 1119.89 -0.658229 -0.130289 0
M  V30 11775 H 1122.44 -2.02965 0.250063 0
M  V30 11776 H 1120.59 -3.43009 -1.80065 0
M  V30 11777 H 1121.01 -5.22114 -0.499681 0
M  V30 11778 H 1122.48 -5.0616 -2.20241 0
M  V30 11779 H 1122.96 -3.44687 -2.7219 0
M  V30 11780 H 1123.56 -4.08688 -1.17703 0
M  V30 11781 N 1121.88 0.120221 -1.57141 0
M  V30 11782 C 1123.29 0.473718 -1.52408 0
M  V30 11783 C 1123.49 1.81925 -0.866354 0
M  V30 11784 O 1122.55 2.48491 -0.448173 0
M  V30 11785 C 1123.86 0.459338 -2.97171 0
M  V30 11786 C 1125.41 0.542975 -3.08254 0
M  V30 11787 C 1125.89 0.558996 -4.54576 0
M  V30 11788 N 1127.38 0.620469 -4.59026 0
M  V30 11789 C 1128.11 0.654292 -5.69655 0
M  V30 11790 N 1127.61 0.645835 -6.89783 0
M  V30 11791 N 1129.4 0.697208 -5.57759 0
M  V30 11792 H 1121.55 -0.76142 -1.98283 0
M  V30 11793 H 1123.81 -0.280736 -0.905479 0
M  V30 11794 H 1123.52 -0.461654 -3.48657 0
M  V30 11795 H 1123.39 1.28759 -3.54543 0
M  V30 11796 H 1125.78 1.45439 -2.56772 0
M  V30 11797 H 1125.86 -0.312936 -2.53879 0
M  V30 11798 H 1125.51 -0.348367 -5.06704 0
M  V30 11799 H 1125.44 1.43177 -5.06762 0
M  V30 11800 H 1127.93 0.633218 -3.72557 0
M  V30 11801 H 1128.24 0.674233 -7.69853 0
M  V30 11802 H 1126.59 0.613279 -6.92289 0
M  V30 11803 H 1129.78 0.70117 -4.62819 0
M  V30 11804 H 1129.95 0.7201 -6.43986 0
M  V30 11805 N 1123.36 1.52689 0.390367 0
M  V30 11806 C 1124.31 1.73751 1.4763 0
M  V30 11807 C 1125.29 0.591572 1.4963 0
M  V30 11808 O 1126.48 0.849354 1.5529 0
M  V30 11809 C 1123.61 1.90855 2.85358 0
M  V30 11810 C 1122.7 3.11377 2.87933 0
M  V30 11811 N 1123.09 4.33751 2.6018 0
M  V30 11812 C 1121.39 3.11594 3.19101 0
M  V30 11813 C 1122.09 5.15346 2.69803 0
M  V30 11814 N 1121.06 4.51002 3.03476 0
M  V30 11815 H 1124.87 2.65994 1.24997 0
M  V30 11816 H 1122.38 1.50977 0.598301 0
M  V30 11817 H 1124.38 2.04065 3.63542 0
M  V30 11818 H 1123.04 0.998241 3.08974 0
M  V30 11819 H 1124.05 4.61907 2.34227 0
M  V30 11820 H 1120.72 2.30368 3.48191 0
M  V30 11821 H 1122.11 6.22892 2.51902 0
M  V30 11822 N 1124.83 -0.648732 1.43629 0
M  V30 11823 C 1125.77 -1.77417 1.45107 0
M  V30 11824 C 1126.78 -1.59067 0.346618 0
M  V30 11825 O 1127.97 -1.67705 0.611322 0
M  V30 11826 C 1125.07 -3.14906 1.25249 0
M  V30 11827 C 1124.24 -3.59874 2.48616 0
M  V30 11828 C 1123.3 -4.76181 2.23916 0
M  V30 11829 O 1122.33 -4.8539 2.97296 0
M  V30 11830 N 1123.53 -5.66691 1.25862 0
M  V30 11831 H 1126.29 -1.76626 2.42123 0
M  V30 11832 H 1123.85 -0.832725 1.38843 0
M  V30 11833 H 1125.85 -3.90408 1.06601 0
M  V30 11834 H 1124.42 -3.10443 0.366623 0
M  V30 11835 H 1123.64 -2.74768 2.82659 0
M  V30 11836 H 1124.92 -3.86665 3.30708 0
M  V30 11837 H 1124.32 -5.61927 0.652227 0
M  V30 11838 H 1122.88 -6.41895 1.13196 0
M  V30 11839 N 1126.31 -1.30234 -0.887518 0
M  V30 11840 C 1127.28 -1.16384 -1.97452 0
M  V30 11841 C 1128.28 -0.0957942 -1.60514 0
M  V30 11842 O 1129.47 -0.343706 -1.70776 0
M  V30 11843 C 1126.6 -0.782514 -3.31797 0
M  V30 11844 H 1127.79 -2.12952 -2.11167 0
M  V30 11845 H 1125.34 -1.13594 -1.07359 0
M  V30 11846 H 1126.08 0.18278 -3.23785 0
M  V30 11847 H 1125.86 -1.55434 -3.59976 0
M  V30 11848 H 1127.35 -0.709011 -4.11537 0
M  V30 11849 N 1127.79 1.09952 -1.12909 0
M  V30 11850 C 1128.7 2.19999 -0.81471 0
M  V30 11851 C 1129.72 1.72864 0.19851 0
M  V30 11852 O 1130.89 2.01376 0.0308832 0
M  V30 11853 C 1127.96 3.45573 -0.279363 0
M  V30 11854 C 1127.02 4.07417 -1.35314 0
M  V30 11855 C 1126.25 5.26996 -0.843247 0
M  V30 11856 O 1126.47 5.69495 0.321164 0
M  V30 11857 O 1125.41 5.79826 -1.61511 0
M  V30 11858 H 1129.23 2.49333 -1.73398 0
M  V30 11859 H 1126.82 1.18784 -0.906128 0
M  V30 11860 H 1128.7 4.21398 0.0140531 0
M  V30 11861 H 1127.38 3.17854 0.612401 0
M  V30 11862 H 1126.28 3.33253 -1.6998 0
M  V30 11863 H 1127.62 4.39349 -2.21885 0
M  V30 11864 N 1129.27 0.921757 1.27833 0
M  V30 11865 C 1130.5 0.574368 1.98455 0
M  V30 11866 C 1130.91 -0.850577 1.69002 0
M  V30 11867 O 1130.25 -1.57607 0.943708 0
M  V30 11868 C 1130.31 0.713235 3.52354 0
M  V30 11869 C 1129.98 2.1092 4.05415 0
M  V30 11870 C 1130.97 3.08276 4.18643 0
M  V30 11871 C 1128.66 2.42454 4.3991 0
M  V30 11872 C 1130.65 4.35279 4.6563 0
M  V30 11873 C 1128.34 3.69694 4.8659 0
M  V30 11874 C 1129.34 4.6592 4.99407 0
M  V30 11875 O 1129.02 5.90896 5.45066 0
M  V30 11876 H 1128.76 0.216955 0.640239 0
M  V30 11877 H 1131.31 1.23932 1.63798 0
M  V30 11878 H 1129.54 -0.00881115 3.86699 0
M  V30 11879 H 1131.23 0.371776 4.04194 0
M  V30 11880 H 1132 2.85234 3.92258 0
M  V30 11881 H 1127.87 1.68303 4.2918 0
M  V30 11882 H 1131.42 5.10391 4.75549 0
M  V30 11883 H 1127.32 3.92557 5.12415 0
M  V30 11884 H 1128.08 5.938 5.63333 0
M  V30 11885 N 1130.75 -1.41857 0.686609 0
M  V30 11886 C 1131.68 -2.29188 -0.0234289 0
M  V30 11887 C 1132.69 -1.44311 -0.753541 0
M  V30 11888 O 1133.88 -1.67908 -0.605734 0
M  V30 11889 C 1130.98 -3.21991 -1.05713 0
M  V30 11890 C 1130.15 -4.35581 -0.398453 0
M  V30 11891 C 1129.21 -5.09022 -1.33354 0
M  V30 11892 O 1128.24 -5.63126 -0.829334 0
M  V30 11893 N 1129.44 -5.15643 -2.66632 0
M  V30 11894 H 1132.21 -2.90766 0.726295 0
M  V30 11895 H 1129.77 -1.52912 0.531937 0
M  V30 11896 H 1131.76 -3.6799 -1.68421 0
M  V30 11897 H 1130.33 -2.61782 -1.70847 0
M  V30 11898 H 1129.55 -3.92079 0.408358 0
M  V30 11899 H 1130.84 -5.08765 0.0599239 0
M  V30 11900 H 1130.23 -4.73118 -3.10122 0
M  V30 11901 H 1128.79 -5.65248 -3.24558 0
M  V30 11902 N 1132.22 -0.430739 -1.51599 0
M  V30 11903 C 1133.17 0.398482 -2.29161 0
M  V30 11904 C 1134.17 1.02676 -1.34737 0
M  V30 11905 O 1135.37 0.96248 -1.52106 0
M  V30 11906 H 1131.75 0.14731 -0.737431 0
M  V30 11907 H 1133.72 -0.276619 -2.97115 0
M  V30 11908 C 1132.47 1.49094 -3.14112 0
M  V30 11909 H 1131.79 1.01685 -3.86652 0
M  V30 11910 H 1133.23 2.04453 -3.7145 0
M  V30 11911 C 1131.69 2.47049 -2.29059 0
M  V30 11912 O 1132.22 3.51435 -1.94567 0
M  V30 11913 N 1130.43 2.17778 -1.92409 0
M  V30 11914 H 1129.97 1.3292 -2.20658 0
M  V30 11915 H 1129.93 2.8356 -1.35798 0
M  V30 11916 N 1133.7 1.56767 -0.161869 0
M  V30 11917 C 1135.12 1.58412 0.194403 0
M  V30 11918 C 1135.32 1.17682 1.63564 0
M  V30 11919 O 1134.37 0.884024 2.36519 0
M  V30 11920 C 1135.69 3.00599 -0.0778438 0
M  V30 11921 C 1137.24 3.12996 -0.015307 0
M  V30 11922 C 1137.71 4.57259 -0.260418 0
M  V30 11923 N 1139.2 4.62733 -0.207863 0
M  V30 11924 C 1139.94 5.72193 -0.371821 0
M  V30 11925 N 1139.43 6.90246 -0.594318 0
M  V30 11926 N 1141.23 5.61253 -0.308384 0
M  V30 11927 H 1133.38 1.81531 -1.10274 0
M  V30 11928 H 1135.64 0.840919 -0.437675 0
M  V30 11929 H 1135.35 3.3484 -1.07587 0
M  V30 11930 H 1135.22 3.71819 0.634845 0
M  V30 11931 H 1137.61 2.78588 0.97329 0
M  V30 11932 H 1137.69 2.44232 -0.760559 0
M  V30 11933 H 1137.33 4.92375 -1.24618 0
M  V30 11934 H 1137.26 5.2417 0.505334 0
M  V30 11935 H 1139.75 3.77878 -0.0411541 0
M  V30 11936 H 1140.07 7.6954 -0.70913 0
M  V30 11937 H 1138.41 6.92131 -0.630819 0
M  V30 11938 H 1141.6 4.67905 -0.135217 0
M  V30 11939 H 1141.77 6.46507 -0.439592 0
M  V30 11940 N 1135.18 -0.111886 1.57202 0
M  V30 11941 C 1136.43 -0.816794 1.84859 0
M  V30 11942 C 1136.75 -1.80079 0.748113 0
M  V30 11943 O 1136.02 -1.94578 -0.227235 0
M  V30 11944 H 1134.6 -0.304633 0.682061 0
M  V30 11945 H 1137.26 -0.097513 1.94656 0
M  V30 11946 H 1136.36 -1.35768 2.81022 0
M  V30 11947 N 1136.66 -1.52894 -0.382264 0
M  V30 11948 C 1137.89 -1.72152 -1.14766 0
M  V30 11949 C 1138.3 -0.442911 -1.83531 0
M  V30 11950 O 1137.66 0.583085 -1.72935 0
M  V30 11951 C 1137.71 -2.87566 -2.19062 0
M  V30 11952 O 1137.43 -4.10478 -1.53099 0
M  V30 11953 C 1138.93 -3.18559 -3.08277 0
M  V30 11954 H 1136.15 -0.576212 -0.343832 0
M  V30 11955 H 1138.7 -1.99571 -0.446273 0
M  V30 11956 H 1136.85 -2.62589 -2.84826 0
M  V30 11957 H 1137.26 -4.74989 -2.22454 0
M  V30 11958 H 1138.74 -4.02763 -3.77473 0
M  V30 11959 H 1139.22 -2.33222 -3.72161 0
M  V30 11960 H 1139.82 -3.454 -2.48151 0
M  V30 11961 N 1138.14 0.641106 -1.43971 0
M  V30 11962 C 1139.05 1.78239 -1.52538 0
M  V30 11963 C 1140.06 1.6906 -0.411668 0
M  V30 11964 O 1141.24 1.90014 -0.66757 0
M  V30 11965 C 1138.3 3.14579 -1.45743 0
M  V30 11966 C 1137.37 3.35464 -2.67885 0
M  V30 11967 C 1136.6 4.65299 -2.61404 0
M  V30 11968 O 1136.82 5.45451 -1.66851 0
M  V30 11969 O 1135.76 4.8817 -3.521 0
M  V30 11970 H 1139.58 1.73965 -2.48937 0
M  V30 11971 H 1137.17 0.801098 -1.26106 0
M  V30 11972 H 1139.05 3.95873 -1.4444 0
M  V30 11973 H 1137.72 3.19417 -0.524837 0
M  V30 11974 H 1136.63 2.53888 -2.74758 0
M  V30 11975 H 1137.96 3.35481 -3.60157 0
M  V30 11976 N 1139.62 1.30703 0.880598 0
M  V30 11977 C 1140.56 1.17369 2.00817 0
M  V30 11978 C 1141.56 0.0845159 1.69189 0
M  V30 11979 O 1142.76 0.245673 1.78316 0
M  V30 11980 H 1139.14 0.363107 0.658527 0
M  V30 11981 H 1141.11 2.12789 2.09197 0
M  V30 11982 C 1139.86 0.886851 3.362 0
M  V30 11983 H 1139.18 1.71704 3.61051 0
M  V30 11984 H 1140.62 0.83368 4.15723 0
M  V30 11985 C 1139.08 -0.410293 3.34392 0
M  V30 11986 O 1139.61 -1.43044 3.75368 0
M  V30 11987 N 1137.82 -0.423023 2.87505 0
M  V30 11988 H 1137.36 0.407637 2.54354 0
M  V30 11989 H 1137.32 -1.29086 2.86678 0
M  V30 11990 N 1141.09 -1.09351 1.1349 0
M  V30 11991 C 1142.37 -1.78121 0.808225 0
M  V30 11992 C 1142.75 -1.99154 -0.700072 0
M  V30 11993 O 1142.1 -1.59356 -1.63762 0
M  V30 11994 C 1142.31 -3.10368 1.59601 0
M  V30 11995 C 1143.66 -3.85063 1.78919 0
M  V30 11996 O 1144.68 -3.20122 1.56206 0
M  V30 11997 O 1143.54 -5.01648 2.16821 0
M  V30 11998 H 1140.63 -0.77253 0.295173 0
M  V30 11999 H 1143.18 -1.15901 1.23956 0
M  V30 12000 H 1141.95 -2.90549 2.62101 0
M  V30 12001 H 1141.57 -3.80312 1.15967 0
M  V30 12002 N 1142.57 -0.928524 -1.27343 0
M  V30 12003 C 1143.5 -0.372628 -2.25137 0
M  V30 12004 C 1144.48 0.531468 -1.53669 0
M  V30 12005 O 1145.67 0.471788 -1.825 0
M  V30 12006 C 1142.79 0.465841 -3.35481 0
M  V30 12007 C 1141.84 -0.374941 -4.24849 0
M  V30 12008 S 1142.67 -1.791 -5.04662 0
M  V30 12009 C 1143.83 -0.960233 -6.1849 0
M  V30 12010 H 1144.06 -1.20147 -2.71941 0
M  V30 12011 H 1141.59 -0.730764 -1.36012 0
M  V30 12012 H 1143.55 0.943741 -3.99504 0
M  V30 12013 H 1142.21 1.26922 -2.87314 0
M  V30 12014 H 1141.41 0.266871 -5.03293 0
M  V30 12015 H 1141.01 -0.787045 -3.65625 0
M  V30 12016 H 1143.3 -0.196615 -6.77215 0
M  V30 12017 H 1144.24 -1.71771 -6.8695 0
M  V30 12018 H 1144.65 -0.501881 -5.62265 0
M  V30 12019 N 1144.05 1.41491 -0.694123 0
M  V30 12020 C 1145.3 2.00479 -0.221585 0
M  V30 12021 C 1145.61 1.55605 1.18518 0
M  V30 12022 O 1146.82 2.07143 1.7551 0
M  V30 12023 C 1145.27 3.5824 -0.345264 0
M  V30 12024 C 1144.88 4.12096 -1.7573 0
M  V30 12025 C 1146.63 4.24446 0.0675731 0
M  V30 12026 C 1144.53 5.62286 -1.83271 0
M  V30 12027 H 1143.46 0.749841 -0.0790854 0
M  V30 12028 H 1146.11 1.61987 -0.86211 0
M  V30 12029 H 1144.5 3.94328 0.363487 0
M  V30 12030 H 1145.67 3.8743 -2.49469 0
M  V30 12031 H 1143.98 3.58411 -2.11969 0
M  V30 12032 H 1146.58 5.34691 0.0316485 0
M  V30 12033 H 1146.92 4.01338 1.10606 0
M  V30 12034 H 1147.46 3.93388 -0.59085 0
M  V30 12035 H 1144.2 5.9022 -2.85168 0
M  V30 12036 H 1143.72 5.88883 -1.13914 0
M  V30 12037 H 1145.4 6.27033 -1.59494 0
M  V30 12038 N 1145.53 0.438773 1.51369 0
M  V30 12039 C 1146.77 -0.127401 2.02399 0
M  V30 12040 C 1147.11 -1.42235 1.32223 0
M  V30 12041 O 1146.38 -1.89513 0.437607 0
M  V30 12042 C 1146.66 -0.344673 3.58447 0
M  V30 12043 C 1146.52 0.969027 4.39238 0
M  V30 12044 C 1147.84 -1.11381 4.25773 0
M  V30 12045 H 1144.96 -0.0448281 0.735635 0
M  V30 12046 H 1147.6 0.57805 1.80993 0
M  V30 12047 H 1145.75 -0.945582 3.76817 0
M  V30 12048 H 1147.42 1.60403 4.32514 0
M  V30 12049 H 1145.66 1.57329 4.04265 0
M  V30 12050 H 1146.33 0.771029 5.46589 0
M  V30 12051 H 1148.81 -0.604785 4.11681 0
M  V30 12052 H 1147.69 -1.23459 5.34835 0
M  V30 12053 H 1147.95 -2.14225 3.8673 0
M  V30 12054 N 1147.01 -1.56678 0.170181 0
M  V30 12055 C 1148.25 -1.96849 -0.475064 0
M  V30 12056 C 1148.58 -1.05611 -1.6333 0
M  V30 12057 O 1147.84 -0.0899708 -1.95493 0
M  V30 12058 C 1148.13 -3.43103 -1.00076 0
M  V30 12059 C 1147.8 -4.50881 0.0414538 0
M  V30 12060 C 1146.46 -4.80082 0.327894 0
M  V30 12061 C 1148.81 -5.15791 0.748936 0
M  V30 12062 C 1146.14 -5.71491 1.32722 0
M  V30 12063 C 1148.49 -6.08278 1.73724 0
M  V30 12064 C 1147.16 -6.35847 2.03114 0
M  V30 12065 H 1146.43 -0.72032 -0.173838 0
M  V30 12066 H 1149.08 -1.89701 0.261903 0
M  V30 12067 H 1147.38 -3.47197 -1.81553 0
M  V30 12068 H 1149.08 -3.71525 -1.50899 0
M  V30 12069 H 1145.67 -4.2817 -0.191976 0
M  V30 12070 H 1149.85 -4.93344 0.540852 0
M  V30 12071 H 1145.11 -5.91134 1.56112 0
M  V30 12072 H 1149.28 -6.57643 2.29082 0
M  V30 12073 H 1146.91 -7.06479 2.80698 0
M  V30 12074 N 1148.48 0.103547 -1.57259 0
M  V30 12075 C 1149.71 0.82624 -1.90232 0
M  V30 12076 C 1150.13 1.71902 -0.763641 0
M  V30 12077 O 1149.49 1.79043 0.285181 0
M  V30 12078 C 1149.54 1.62265 -3.22029 0
M  V30 12079 O 1148.64 2.73091 -3.09023 0
M  V30 12080 H 1147.98 0.227528 -0.6238 0
M  V30 12081 H 1150.51 0.081307 -2.04438 0
M  V30 12082 H 1150.52 2.00865 -3.5513 0
M  V30 12083 H 1149.2 0.967383 -4.04493 0
M  V30 12084 H 1147.78 2.3758 -2.8742 0
M  V30 12085 N 1149.96 1.53094 0.37415 0
M  V30 12086 C 1151.37 1.60641 0.951381 0
M  V30 12087 C 1151.72 0.468474 1.90525 0
M  V30 12088 O 1150.85 -0.406347 2.12551 0
M  V30 12089 C 1151.44 2.91166 1.73228 0
M  V30 12090 C 1150 3.01077 2.25898 0
M  V30 12091 C 1149.15 2.55873 1.06885 0
M  V30 12092 H 1152.1 1.57959 0.153214 0
M  V30 12093 H 1152.12 2.78487 2.59278 0
M  V30 12094 H 1151.63 3.73968 1.03778 0
M  V30 12095 H 1149.73 2.22844 2.98615 0
M  V30 12096 H 1149.85 4.05998 2.54367 0
M  V30 12097 H 1148.21 2.10544 1.43329 0
M  V30 12098 H 1148.99 3.41084 0.38947 0
M  V30 12099 N 1151.44 -0.633461 1.44309 0
M  V30 12100 C 1152.67 -1.42033 1.50447 0
M  V30 12101 C 1153.08 -1.88362 0.128585 0
M  V30 12102 O 1152.44 -1.60695 -0.865071 0
M  V30 12103 C 1152.49 -2.6422 2.46719 0
M  V30 12104 O 1152.21 -2.19823 3.78958 0
M  V30 12105 C 1153.71 -3.57372 2.62298 0
M  V30 12106 H 1150.93 -0.435667 0.510329 0
M  V30 12107 H 1153.48 -0.774907 1.8925 0
M  V30 12108 H 1151.63 -3.24859 2.11058 0
M  V30 12109 H 1152.05 -2.99022 4.30913 0
M  V30 12110 H 1153.52 -4.39719 3.33693 0
M  V30 12111 H 1154 -4.06026 1.67449 0
M  V30 12112 H 1154.6 -3.02603 2.9885 0
M  V30 12113 N 1152.92 -1.31168 -0.873655 0
M  V30 12114 C 1154.15 -1.23595 -1.65927 0
M  V30 12115 C 1154.56 0.199349 -1.87745 0
M  V30 12116 O 1153.92 1.13013 -1.43298 0
M  V30 12117 C 1153.97 -1.97268 -3.02932 0
M  V30 12118 O 1153.69 -3.35196 -2.82091 0
M  V30 12119 C 1155.19 -1.9649 -3.97374 0
M  V30 12120 H 1152.41 -0.427228 -0.517414 0
M  V30 12121 H 1154.96 -1.72983 -1.09074 0
M  V30 12122 H 1153.11 -1.51651 -3.56484 0
M  V30 12123 H 1153.52 -3.7266 -3.69087 0
M  V30 12124 H 1155 -2.52557 -4.90835 0
M  V30 12125 H 1155.48 -0.946525 -4.28879 0
M  V30 12126 H 1156.08 -2.4197 -3.49758 0
M  V30 12127 N 1154.4 1.08748 -1.14068 0
M  V30 12128 C 1155.62 1.85353 -0.930532 0
M  V30 12129 C 1156.05 1.80892 0.515717 0
M  V30 12130 O 1155.4 1.19146 1.36652 0
M  V30 12131 C 1155.45 3.30962 -1.43167 0
M  V30 12132 O 1154.56 4.0769 -0.621468 0
M  V30 12133 H 1153.9 0.574485 -0.332962 0
M  V30 12134 H 1156.43 1.37282 -1.51707 0
M  V30 12135 H 1156.44 3.81807 -1.43832 0
M  V30 12136 H 1155.11 3.33524 -2.48464 0
M  V30 12137 H 1153.69 3.66587 -0.683267 0
M  V30 12138 N 1155.87 0.935264 1.26849 0
M  V30 12139 C 1157.15 0.497797 1.8916 0
M  V30 12140 C 1157.53 -1.02441 1.84578 0
M  V30 12141 O 1156.88 -1.88185 1.29609 0
M  V30 12142 C 1157.09 1.05244 3.32753 0
M  V30 12143 C 1158.44 1.11751 4.0963 0
M  V30 12144 O 1159.46 1.0026 3.41799 0
M  V30 12145 O 1158.32 1.29548 5.30923 0
M  V30 12146 H 1155.41 0.161322 0.811113 0
M  V30 12147 H 1157.96 1.02744 1.35062 0
M  V30 12148 H 1156.73 2.09617 3.30419 0
M  V30 12149 H 1156.36 0.504889 3.94381 0
M  V30 12150 N 1157.35 -1.41121 0.701616 0
M  V30 12151 C 1158.77 -1.55162 0.373766 0
M  V30 12152 C 1158.97 -1.6759 -1.11875 0
M  V30 12153 O 1158.02 -1.65768 -1.90465 0
M  V30 12154 C 1159.34 -2.78758 1.12759 0
M  V30 12155 C 1160.89 -2.92561 1.11253 0
M  V30 12156 C 1161.36 -4.19052 1.84822 0
M  V30 12157 N 1162.85 -4.26023 1.81821 0
M  V30 12158 C 1163.59 -5.22771 2.3558 0
M  V30 12159 N 1163.08 -6.25512 2.97836 0
M  V30 12160 N 1164.88 -5.14752 2.25802 0
M  V30 12161 H 1157.03 -1.31299 1.66956 0
M  V30 12162 H 1159.29 -0.633894 0.704898 0
M  V30 12163 H 1159 -2.75804 2.18231 0
M  V30 12164 H 1158.87 -3.70456 0.710095 0
M  V30 12165 H 1161.26 -2.95026 0.0660506 0
M  V30 12166 H 1161.34 -2.0202 1.56913 0
M  V30 12167 H 1160.98 -4.17349 2.89452 0
M  V30 12168 H 1160.91 -5.08577 1.36592 0
M  V30 12169 H 1163.4 -3.52411 1.36438 0
M  V30 12170 H 1163.72 -6.95736 3.36409 0
M  V30 12171 H 1162.06 -6.25997 3.01916 0
M  V30 12172 H 1165.25 -4.33414 1.76833 0
M  V30 12173 H 1165.42 -5.89983 2.68001 0
M  V30 12174 N 1158.83 -0.446794 -1.51134 0
M  V30 12175 C 1160.24 0.0141132 -1.86695 0
M  V30 12176 C 1160.59 1.41095 -1.36333 0
M  V30 12177 O 1159.72 2.04139 -0.718068 0
M  V30 12178 C 1160.31 0.0323866 -3.38785 0
M  V30 12179 C 1158.87 0.437737 -3.73846 0
M  V30 12180 C 1158.02 -0.363436 -2.74908 0
M  V30 12181 H 1160.97 -0.66221 -1.44224 0
M  V30 12182 H 1160.99 0.839865 -3.71115 0
M  V30 12183 H 1160.5 -0.984374 -3.75409 0
M  V30 12184 H 1158.6 1.45975 -3.42815 0
M  V30 12185 H 1158.72 0.155964 -4.78846 0
M  V30 12186 H 1157.08 0.179566 -2.54066 0
M  V30 12187 H 1157.86 -1.37925 -3.14375 0
M  V30 12188 N 1160.31 1.56586 -0.178487 0
M  V30 12189 C 1161.55 1.9739 0.465306 0
M  V30 12190 C 1161.89 1.06474 1.6241 0
M  V30 12191 O 1161.16 0.113316 1.9417 0
M  V30 12192 C 1161.45 3.47577 0.941408 0
M  V30 12193 C 1161.3 4.49271 -0.218054 0
M  V30 12194 C 1162.62 4.01038 1.81263 0
M  V30 12195 H 1159.74 0.717676 0.167663 0
M  V30 12196 H 1162.38 1.88128 -0.266067 0
M  V30 12197 H 1160.53 3.556 1.56463 0
M  V30 12198 H 1162.2 4.53301 -0.855332 0
M  V30 12199 H 1160.44 4.24936 -0.872441 0
M  V30 12200 H 1161.11 5.51776 0.157315 0
M  V30 12201 H 1163.59 3.9569 1.28718 0
M  V30 12202 H 1162.47 5.06526 2.11476 0
M  V30 12203 H 1162.73 3.45288 2.76096 0
M  V30 12204 N 1161.79 -0.095206 1.57312 0
M  V30 12205 C 1162.72 -1.11627 2.05089 0
M  V30 12206 C 1163.7 -1.41782 0.939787 0
M  V30 12207 O 1164.88 -1.51813 1.21105 0
M  V30 12208 C 1162.01 -2.43618 2.47523 0
M  V30 12209 C 1160.97 -2.27872 3.62296 0
M  V30 12210 C 1160.29 -3.65038 3.90706 0
M  V30 12211 C 1161.59 -1.71936 4.93189 0
M  V30 12212 H 1163.29 -0.718795 2.90644 0
M  V30 12213 H 1160.83 -0.344315 1.39823 0
M  V30 12214 H 1162.79 -3.1532 2.79556 0
M  V30 12215 H 1161.51 -2.85301 1.58968 0
M  V30 12216 H 1160.17 -1.58615 3.3051 0
M  V30 12217 H 1159.82 -4.04249 2.99319 0
M  V30 12218 H 1159.52 -3.55349 4.67976 0
M  V30 12219 H 1161.04 -4.38208 4.25213 0
M  V30 12220 H 1162.45 -2.33479 5.23603 0
M  V30 12221 H 1160.85 -1.73006 5.74621 0
M  V30 12222 H 1161.92 -0.678789 4.80125 0
M  V30 12223 N 1163.26 -1.53291 -0.366026 0
M  V30 12224 C 1164.23 -1.79025 -1.43117 0
M  V30 12225 C 1165.23 -0.660676 -1.46601 0
M  V30 12226 O 1166.42 -0.928875 -1.47369 0
M  V30 12227 C 1163.55 -1.91192 -2.82238 0
M  V30 12228 H 1164.74 -2.74154 -1.21572 0
M  V30 12229 H 1162.3 -1.44361 -0.599132 0
M  V30 12230 H 1163.03 -0.98129 -3.09097 0
M  V30 12231 H 1162.82 -2.7335 -2.81109 0
M  V30 12232 H 1164.31 -2.12696 -3.59375 0
M  V30 12233 N 1164.74 0.6258 -1.44643 0
M  V30 12234 C 1165.99 1.38546 -1.48918 0
M  V30 12235 C 1166.34 1.92013 -0.122019 0
M  V30 12236 O 1165.64 1.71038 0.863521 0
M  V30 12237 C 1165.83 2.56466 -2.48917 0
M  V30 12238 C 1165.66 2.14545 -3.95222 0
M  V30 12239 C 1164.43 2.01572 -4.63354 0
M  V30 12240 C 1166.63 1.73128 -4.84284 0
M  V30 12241 N 1164.61 1.53269 -5.94459 0
M  V30 12242 C 1165.98 1.36109 -6.04875 0
M  V30 12243 C 1168.04 1.60556 -4.71303 0
M  V30 12244 C 1166.74 0.877756 -7.13924 0
M  V30 12245 C 1168.76 1.13627 -5.80382 0
M  V30 12246 C 1168.13 0.775617 -7.00117 0
M  V30 12247 H 1164.23 0.501582 -0.599949 0
M  V30 12248 H 1166.81 0.717359 -1.81003 0
M  V30 12249 H 1164.98 3.20897 -2.18814 0
M  V30 12250 H 1166.71 3.23283 -2.43454 0
M  V30 12251 H 1163.47 2.22192 -4.18244 0
M  V30 12252 H 1163.89 1.31402 -6.64125 0
M  V30 12253 H 1168.53 1.8707 -3.79163 0
M  V30 12254 H 1166.25 0.60014 -8.05868 0
M  V30 12255 H 1169.84 1.04351 -5.72365 0
M  V30 12256 H 1168.72 0.418047 -7.83085 0
M  V30 12257 N 1166.22 1.31629 0.866686 0
M  V30 12258 C 1167.5 1.12136 1.60265 0
M  V30 12259 C 1167.88 -0.322729 2.08618 0
M  V30 12260 O 1167.23 -1.31738 1.86701 0
M  V30 12261 C 1167.44 2.13845 2.7581 0
M  V30 12262 C 1168.78 2.46541 3.45692 0
M  V30 12263 O 1169.81 2.12298 2.86021 0
M  V30 12264 O 1168.67 3.05194 4.53342 0
M  V30 12265 H 1165.76 0.431923 0.705246 0
M  V30 12266 H 1168.31 1.43119 0.911863 0
M  V30 12267 H 1167.08 3.10967 2.37518 0
M  V30 12268 H 1166.7 1.83786 3.52574 0
M  V30 12269 N 1167.7 -1.08142 1.14644 0
M  V30 12270 C 1168.95 -1.80849 0.917685 0
M  V30 12271 C 1169.28 -1.86123 -0.554249 0
M  V30 12272 O 1168.55 -1.33907 -1.41065 0
M  V30 12273 C 1168.84 -3.26325 1.52264 0
M  V30 12274 C 1168.69 -3.29244 3.06461 0
M  V30 12275 C 1170.01 -4.23375 1.20175 0
M  V30 12276 H 1167.13 -0.656559 0.334812 0
M  V30 12277 H 1169.77 -1.26595 1.41682 0
M  V30 12278 H 1167.92 -3.72656 1.09817 0
M  V30 12279 H 1169.59 -2.91216 3.57758 0
M  V30 12280 H 1167.83 -2.68438 3.40769 0
M  V30 12281 H 1168.51 -4.31785 3.43897 0
M  V30 12282 H 1170.98 -3.85394 1.56877 0
M  V30 12283 H 1169.86 -5.23472 1.65132 0
M  V30 12284 H 1170.12 -4.41944 0.117474 0
M  V30 12285 N 1169.18 -0.941978 -1.26351 0
M  V30 12286 C 1170.42 -0.590845 -1.94002 0
M  V30 12287 C 1170.76 0.868004 -1.73722 0
M  V30 12288 O 1170.03 1.62111 -1.07472 0
M  V30 12289 C 1170.31 -0.934901 -3.47752 0
M  V30 12290 C 1170.17 -2.44855 -3.77314 0
M  V30 12291 C 1171.49 -0.450888 -4.37784 0
M  V30 12292 H 1168.61 -0.21613 -0.704597 0
M  V30 12293 H 1171.25 -1.17634 -1.49205 0
M  V30 12294 H 1169.4 -0.436648 -3.86038 0
M  V30 12295 H 1171.07 -3.01959 -3.48738 0
M  V30 12296 H 1169.31 -2.89169 -3.23363 0
M  V30 12297 H 1169.98 -2.6398 -4.84787 0
M  V30 12298 H 1172.46 -0.878107 -4.06729 0
M  V30 12299 H 1171.34 -0.720439 -5.44152 0
M  V30 12300 H 1171.6 0.649162 -4.37308 0
M  V30 12301 N 1170.66 1.40747 -0.709091 0
M  V30 12302 C 1171.62 2.29118 -0.0611607 0
M  V30 12303 C 1172.62 1.45049 0.694081 0
M  V30 12304 O 1173.81 1.66039 0.526952 0
M  V30 12305 C 1170.94 3.28154 0.923447 0
M  V30 12306 H 1172.13 2.87913 -0.839413 0
M  V30 12307 H 1169.69 1.4896 -0.473363 0
M  V30 12308 H 1170.42 2.74366 1.72899 0
M  V30 12309 H 1170.21 3.90207 0.384862 0
M  V30 12310 H 1171.7 3.94343 1.37417 0
M  V30 12311 N 1172.13 0.454803 1.50895 0
M  V30 12312 C 1173.54 -0.00421212 1.867 0
M  V30 12313 C 1173.9 -1.4037 1.3708 0
M  V30 12314 O 1173.02 -2.03755 0.728884 0
M  V30 12315 C 1173.62 -0.0144196 3.38797 0
M  V30 12316 C 1172.17 -0.417905 3.74073 0
M  V30 12317 C 1171.32 0.37801 2.74711 0
M  V30 12318 H 1174.27 0.669849 1.4387 0
M  V30 12319 H 1174.29 -0.820172 3.71555 0
M  V30 12320 H 1173.81 1.00427 3.74881 0
M  V30 12321 H 1171.91 -1.44155 3.43584 0
M  V30 12322 H 1172.02 -0.130568 4.78922 0
M  V30 12323 H 1170.38 -0.166089 2.54158 0
M  V30 12324 H 1171.17 1.3959 3.13639 0
M  V30 12325 N 1173.61 -1.56489 0.186789 0
M  V30 12326 C 1174.86 -1.96952 -0.453261 0
M  V30 12327 C 1175.18 -1.07451 -1.62725 0
M  V30 12328 O 1174.45 -0.144046 -1.9537 0
M  V30 12329 H 1173.03 -0.727295 -0.170445 0
M  V30 12330 H 1175.69 -1.92999 0.271584 0
M  V30 12331 H 1174.79 -3.01594 -0.802951 0
M  V30 12332 N 1175.09 0.086862 -1.5736 0
M  V30 12333 C 1176.02 1.13117 -1.99342 0
M  V30 12334 C 1177.03 1.35849 -0.897151 0
M  V30 12335 O 1178.22 1.34356 -1.17519 0
M  V30 12336 C 1175.32 2.48511 -2.30425 0
M  V30 12337 C 1174.5 2.45942 -3.61706 0
M  V30 12338 C 1173.56 3.63327 -3.80631 0
M  V30 12339 O 1172.58 3.45443 -4.52392 0
M  V30 12340 N 1173.78 4.83118 -3.21835 0
M  V30 12341 H 1176.55 0.773782 -2.89539 0
M  V30 12342 H 1174.11 0.275731 -1.59535 0
M  V30 12343 H 1176.1 3.25656 -2.40272 0
M  V30 12344 H 1174.67 2.76308 -1.46194 0
M  V30 12345 H 1173.89 1.54287 -3.62752 0
M  V30 12346 H 1175.18 2.41313 -4.47935 0
M  V30 12347 H 1174.58 5.00552 -2.6356 0
M  V30 12348 H 1173.13 5.57827 -3.37154 0
M  V30 12349 N 1176.57 1.53483 0.357892 0
M  V30 12350 C 1177.79 1.74264 1.12458 0
M  V30 12351 C 1178.22 0.473944 1.82031 0
M  V30 12352 O 1177.58 -0.57253 1.72023 0
M  V30 12353 C 1177.62 2.91356 2.12471 0
M  V30 12354 O 1176.73 2.60502 3.19707 0
M  V30 12355 H 1176.07 0.578499 0.325937 0
M  V30 12356 H 1178.6 2.00395 0.412666 0
M  V30 12357 H 1178.61 3.1774 2.5594 0
M  V30 12358 H 1177.28 3.83378 1.61226 0
M  V30 12359 H 1175.86 2.44961 2.81156 0
M  V30 12360 N 1178.05 -0.61812 1.44973 0
M  V30 12361 C 1179.29 -1.37468 1.48145 0
M  V30 12362 C 1179.61 -1.94628 0.120366 0
M  V30 12363 O 1178.88 -1.76548 -0.848982 0
M  V30 12364 H 1177.46 -0.510293 0.545536 0
M  V30 12365 H 1180.13 -0.726598 1.8085 0
M  V30 12366 H 1179.22 -2.19944 2.2143 0
M  V30 12367 N 1179.52 -1.32087 -0.859693 0
M  V30 12368 C 1180.77 -1.2236 -1.61351 0
M  V30 12369 C 1181.1 0.215796 -1.93299 0
M  V30 12370 O 1180.35 1.16742 -1.57066 0
M  V30 12371 C 1180.65 -2.0234 -2.94607 0
M  V30 12372 C 1180.32 -3.51746 -2.82109 0
M  V30 12373 C 1178.98 -3.92482 -2.78408 0
M  V30 12374 C 1181.33 -4.46776 -2.68403 0
M  V30 12375 C 1178.66 -5.265 -2.58873 0
M  V30 12376 C 1181.01 -5.80931 -2.50404 0
M  V30 12377 C 1179.68 -6.20875 -2.45092 0
M  V30 12378 H 1178.95 -0.447748 -0.590426 0
M  V30 12379 H 1181.59 -1.63461 -0.997637 0
M  V30 12380 H 1179.9 -1.53952 -3.60286 0
M  V30 12381 H 1181.6 -1.92187 -3.51945 0
M  V30 12382 H 1178.19 -3.19389 -2.85812 0
M  V30 12383 H 1182.37 -4.16228 -2.70311 0
M  V30 12384 H 1177.63 -5.5651 -2.53192 0
M  V30 12385 H 1181.8 -6.54185 -2.38777 0
M  V30 12386 H 1179.43 -7.24662 -2.29714 0
M  V30 12387 N 1181 1.07532 -1.15215 0
M  V30 12388 C 1182.25 1.79474 -0.920439 0
M  V30 12389 C 1182.56 1.87593 0.553926 0
M  V30 12390 O 1183.77 2.56037 0.903169 0
M  V30 12391 C 1182.23 3.22509 -1.59738 0
M  V30 12392 C 1181.83 3.22596 -3.10863 0
M  V30 12393 C 1183.58 3.99072 -1.44714 0
M  V30 12394 C 1181.48 4.60273 -3.71352 0
M  V30 12395 H 1180.41 0.672625 -0.340722 0
M  V30 12396 H 1183.07 1.2071 -1.38208 0
M  V30 12397 H 1181.45 3.81454 -1.06342 0
M  V30 12398 H 1182.62 2.73306 -3.70999 0
M  V30 12399 H 1180.94 2.5953 -3.25627 0
M  V30 12400 H 1183.53 5.00823 -1.87299 0
M  V30 12401 H 1183.88 4.14428 -0.394386 0
M  V30 12402 H 1184.41 3.46617 -1.95195 0
M  V30 12403 H 1181.15 4.50122 -4.76519 0
M  V30 12404 H 1180.67 5.09809 -3.15998 0
M  V30 12405 H 1182.35 5.29243 -3.7217 0
M  V30 12406 N 1182.48 0.948665 1.2585 0
M  V30 12407 C 1183.44 0.468673 2.24357 0
M  V30 12408 C 1184.44 -0.424355 1.551 0
M  V30 12409 O 1185.63 -0.222481 1.72773 0
M  V30 12410 C 1182.77 -0.32359 3.39361 0
M  V30 12411 H 1183.96 1.33928 2.68334 0
M  V30 12412 H 1181.51 0.731357 1.38133 0
M  V30 12413 H 1182.25 -1.21212 3.00796 0
M  V30 12414 H 1182.03 0.316998 3.90816 0
M  V30 12415 H 1183.52 -0.649087 4.12525 0
M  V30 12416 N 1183.96 -1.40369 0.716545 0
M  V30 12417 C 1185.37 -1.83783 0.328719 0
M  V30 12418 C 1185.72 -1.5991 -1.13681 0
M  V30 12419 O 1184.85 -1.08048 -1.87496 0
M  V30 12420 C 1185.44 -3.33626 0.589848 0
M  V30 12421 C 1184 -3.7553 0.25572 0
M  V30 12422 C 1183.15 -2.63571 0.861733 0
M  V30 12423 H 1186.1 -1.29623 0.915621 0
M  V30 12424 H 1186.12 -3.80225 -0.14459 0
M  V30 12425 H 1185.63 -3.5097 1.65655 0
M  V30 12426 H 1183.73 -3.63781 -0.805883 0
M  V30 12427 H 1183.84 -4.73577 0.725388 0
M  V30 12428 H 1182.21 -2.53047 0.289706 0
M  V30 12429 H 1182.99 -2.83727 1.93272 0
M  V30 12430 N 1185.44 -0.462799 -1.50652 0
M  V30 12431 C 1186.71 0.156221 -1.94975 0
M  V30 12432 C 1187.09 1.5775 -1.40279 0
M  V30 12433 O 1186.44 2.20473 -0.600323 0
M  V30 12434 C 1186.65 0.108008 -3.48833 0
M  V30 12435 C 1188 0.301013 -4.23532 0
M  V30 12436 O 1189.02 0.184973 -3.55719 0
M  V30 12437 O 1187.88 0.534457 -5.4388 0
M  V30 12438 H 1184.98 0.116182 -0.818798 0
M  V30 12439 H 1187.52 -0.522607 -1.61453 0
M  V30 12440 H 1186.29 -0.884634 -3.81169 0
M  V30 12441 H 1185.92 0.828653 -3.88869 0
M  V30 12442 N 1186.91 1.56388 -0.195085 0
M  V30 12443 C 1188.16 1.97189 0.44281 0
M  V30 12444 C 1188.48 1.08312 1.62153 0
M  V30 12445 O 1187.75 0.154404 1.95291 0
M  V30 12446 H 1186.33 0.728188 0.166585 0
M  V30 12447 H 1189 1.92852 -0.281815 0
M  V30 12448 H 1188.09 3.02016 0.786945 0
M  V30 12449 N 1188.39 -0.0785156 1.57404 0
M  V30 12450 C 1189.62 -0.792042 1.9114 0
M  V30 12451 C 1190.04 -1.71458 0.790408 0
M  V30 12452 O 1189.39 -1.80959 -0.236662 0
M  V30 12453 C 1189.44 -1.59138 3.24588 0
M  V30 12454 O 1189.16 -0.705931 4.32375 0
M  V30 12455 C 1190.67 -2.4065 3.72293 0
M  V30 12456 H 1187.89 -0.225566 0.63195 0
M  V30 12457 H 1190.43 -0.0507929 2.04437 0
M  V30 12458 H 1188.58 -2.28498 3.12838 0
M  V30 12459 H 1189 -1.26121 5.09111 0
M  V30 12460 H 1190.47 -2.92204 4.68317 0
M  V30 12461 H 1190.95 -3.1987 3.00965 0
M  V30 12462 H 1191.56 -1.7646 3.86965 0
M  V30 12463 N 1189.87 -1.5367 -0.349747 0
M  V30 12464 C 1191.12 -1.7087 -1.0923 0
M  V30 12465 C 1191.45 -0.467299 -1.88494 0
M  V30 12466 O 1190.72 0.535619 -1.8698 0
M  V30 12467 C 1191.01 -2.9684 -2.03858 0
M  V30 12468 C 1190.86 -4.31174 -1.28097 0
M  V30 12469 C 1192.18 -3.18459 -3.03763 0
M  V30 12470 H 1189.3 -0.621757 -0.395711 0
M  V30 12471 H 1191.94 -1.86333 -0.371481 0
M  V30 12472 H 1190.09 -2.83788 -2.65323 0
M  V30 12473 H 1191.76 -4.56066 -0.692933 0
M  V30 12474 H 1190.01 -4.29866 -0.582924 0
M  V30 12475 H 1190.68 -5.15482 -1.9744 0
M  V30 12476 H 1193.15 -3.30801 -2.52409 0
M  V30 12477 H 1192.03 -4.08006 -3.67182 0
M  V30 12478 H 1192.29 -2.34467 -3.74803 0
M  V30 12479 N 1191.35 0.610423 -1.45298 0
M  V30 12480 C 1192.63 1.36966 -1.39641 0
M  V30 12481 C 1193.01 2.10998 -0.0655757 0
M  V30 12482 O 1192.35 2.07705 0.952407 0
M  V30 12483 C 1192.56 2.31885 -2.60826 0
M  V30 12484 C 1193.91 2.9458 -3.05791 0
M  V30 12485 O 1194.94 2.42207 -2.61179 0
M  V30 12486 O 1193.79 3.89639 -3.83202 0
M  V30 12487 H 1190.89 0.61401 -0.554004 0
M  V30 12488 H 1193.43 0.633748 -1.57422 0
M  V30 12489 H 1192.21 1.76421 -3.49272 0
M  V30 12490 H 1191.83 3.12861 -2.45364 0
M  V30 12491 N 1192.83 1.32541 0.852676 0
M  V30 12492 C 1193.77 1.21643 1.96142 0
M  V30 12493 C 1194.74 0.0981496 1.6581 0
M  V30 12494 O 1195.93 0.27404 1.88822 0
M  V30 12495 C 1193.07 0.947483 3.31838 0
M  V30 12496 C 1192.18 2.15074 3.74656 0
M  V30 12497 C 1191.32 1.81711 4.99154 0
M  V30 12498 C 1190.36 2.98346 5.34468 0
M  V30 12499 N 1189.49 2.65062 6.50143 0
M  V30 12500 H 1194.33 2.16479 2.04795 0
M  V30 12501 H 1191.87 1.07664 1.00234 0
M  V30 12502 H 1193.83 0.772038 4.09994 0
M  V30 12503 H 1192.46 0.0359112 3.2278 0
M  V30 12504 H 1191.51 2.43639 2.92137 0
M  V30 12505 H 1192.82 3.02314 3.96747 0
M  V30 12506 H 1191.98 1.60729 5.85022 0
M  V30 12507 H 1190.71 0.916875 4.79004 0
M  V30 12508 H 1189.72 3.19956 4.47111 0
M  V30 12509 H 1190.94 3.89104 5.56574 0
M  V30 12510 H 1188.89 1.77582 6.31507 0
M  V30 12511 H 1188.81 3.45832 6.72262 0
M  V30 12512 H 1190.08 2.47516 7.39159 0
M  V30 12513 N 1194.3 -1.0692 1.15784 0
M  V30 12514 C 1195.25 -2.12473 0.826994 0
M  V30 12515 C 1196.24 -1.59766 -0.19073 0
M  V30 12516 O 1197.43 -1.76998 0.00917115 0
M  V30 12517 C 1194.56 -3.41779 0.322847 0
M  V30 12518 C 1193.65 -4.01329 1.37098 0
M  V30 12519 N 1194.04 -4.35077 2.57957 0
M  V30 12520 C 1192.33 -4.28854 1.22475 0
M  V30 12521 C 1193.04 -4.82326 3.25171 0
M  V30 12522 N 1192.01 -4.81369 2.52556 0
M  V30 12523 H 1195.81 -2.36404 1.74614 0
M  V30 12524 H 1193.33 -1.244 1.04395 0
M  V30 12525 H 1195.32 -4.16845 0.0674576 0
M  V30 12526 H 1193.98 -3.19289 -0.590311 0
M  V30 12527 H 1195 -4.25626 2.95065 0
M  V30 12528 H 1191.67 -4.15841 0.371839 0
M  V30 12529 H 1193.06 -5.17695 4.28301 0
M  V30 12530 N 1195.78 -0.955326 -1.25345 0
M  V30 12531 C 1197.01 -0.626783 -1.96863 0
M  V30 12532 C 1197.42 0.80547 -1.71198 0
M  V30 12533 O 1196.76 1.55049 -0.985163 0
M  V30 12534 C 1196.83 -0.806404 -3.50339 0
M  V30 12535 C 1196.49 -2.21595 -3.99681 0
M  V30 12536 C 1197.49 -3.19268 -4.10322 0
M  V30 12537 C 1195.17 -2.54032 -4.33328 0
M  V30 12538 C 1197.17 -4.47471 -4.53926 0
M  V30 12539 C 1194.85 -3.82465 -4.76617 0
M  V30 12540 C 1195.85 -4.78997 -4.86879 0
M  V30 12541 O 1195.54 -6.0514 -5.29208 0
M  V30 12542 H 1195.27 -0.233854 -0.634262 0
M  V30 12543 H 1197.82 -1.28232 -1.60455 0
M  V30 12544 H 1196.05 -0.0937184 -3.86586 0
M  V30 12545 H 1197.74 -0.47881 -4.03066 0
M  V30 12546 H 1198.51 -2.95534 -3.84558 0
M  V30 12547 H 1194.39 -1.79623 -4.24566 0
M  V30 12548 H 1197.93 -5.22819 -4.6185 0
M  V30 12549 H 1193.83 -4.06005 -5.01827 0
M  V30 12550 H 1194.6 -6.08527 -5.47392 0
M  V30 12551 N 1197.26 1.39987 -0.723979 0
M  V30 12552 C 1198.17 2.3447 -0.0780936 0
M  V30 12553 C 1199.19 1.57744 0.734368 0
M  V30 12554 O 1200.36 1.90091 0.665385 0
M  V30 12555 C 1197.43 3.36705 0.826492 0
M  V30 12556 C 1196.49 4.293 0.00303036 0
M  V30 12557 C 1195.72 5.26651 0.864535 0
M  V30 12558 O 1195.95 5.30194 2.10357 0
M  V30 12559 O 1194.88 6.01157 0.299057 0
M  V30 12560 H 1198.71 2.91338 -0.857646 0
M  V30 12561 H 1196.29 1.41324 -0.484536 0
M  V30 12562 H 1198.17 3.9938 1.34439 0
M  V30 12563 H 1196.85 2.82237 1.58505 0
M  V30 12564 H 1195.75 3.69883 -0.560136 0
M  V30 12565 H 1197.09 4.86942 -0.717494 0
M  V30 12566 N 1198.74 0.470782 1.50404 0
M  V30 12567 C 1200.02 -0.145879 1.95055 0
M  V30 12568 C 1200.4 -1.57004 1.41114 0
M  V30 12569 O 1199.74 -2.20152 0.612006 0
M  V30 12570 C 1199.95 -0.0895071 3.48885 0
M  V30 12571 C 1201.3 -0.278548 4.23685 0
M  V30 12572 O 1202.33 -0.166105 3.55812 0
M  V30 12573 O 1201.19 -0.505606 5.44156 0
M  V30 12574 H 1198.28 -0.111838 0.819403 0
M  V30 12575 H 1200.83 0.531162 1.61173 0
M  V30 12576 H 1199.6 0.904836 3.80695 0
M  V30 12577 H 1199.22 -0.808019 3.89303 0
M  V30 12578 N 1200.22 -1.56282 0.203376 0
M  V30 12579 C 1201.15 -2.16714 -0.74616 0
M  V30 12580 C 1202.16 -1.13121 -1.17079 0
M  V30 12581 O 1203.35 -1.40179 -1.10509 0
M  V30 12582 C 1200.45 -2.72115 -2.02007 0
M  V30 12583 C 1199.62 -4.00695 -1.75391 0
M  V30 12584 C 1198.68 -4.40839 -2.8731 0
M  V30 12585 O 1197.71 -5.081 -2.56561 0
M  V30 12586 N 1198.91 -4.05024 -4.15856 0
M  V30 12587 H 1201.68 -2.98821 -0.229326 0
M  V30 12588 H 1199.24 -1.61885 0.0217049 0
M  V30 12589 H 1201.23 -2.95951 -2.76035 0
M  V30 12590 H 1199.8 -1.94415 -2.44789 0
M  V30 12591 H 1199.02 -3.84905 -0.851 0
M  V30 12592 H 1200.31 -4.8461 -1.55017 0
M  V30 12593 H 1199.71 -3.50938 -4.43688 0
M  V30 12594 H 1198.26 -4.33792 -4.86485 0
M  V30 12595 N 1201.7 0.070167 -1.57444 0
M  V30 12596 C 1202.63 1.08351 -2.06839 0
M  V30 12597 C 1203.61 1.40269 -0.962224 0
M  V30 12598 O 1204.79 1.49867 -1.23505 0
M  V30 12599 C 1201.92 2.39649 -2.51368 0
M  V30 12600 C 1200.88 2.22079 -3.65875 0
M  V30 12601 C 1200.2 3.58776 -3.96464 0
M  V30 12602 C 1201.5 1.64069 -4.95862 0
M  V30 12603 H 1203.2 0.672465 -2.9175 0
M  V30 12604 H 1200.74 0.322027 -1.40353 0
M  V30 12605 H 1202.69 3.10833 -2.84537 0
M  V30 12606 H 1201.42 2.82736 -1.63487 0
M  V30 12607 H 1200.08 1.53337 -3.32992 0
M  V30 12608 H 1199.73 3.99436 -3.05712 0
M  V30 12609 H 1199.43 3.47859 -4.7357 0
M  V30 12610 H 1200.95 4.31387 -4.32131 0
M  V30 12611 H 1202.36 2.2512 -5.27251 0
M  V30 12612 H 1200.76 1.63843 -5.773 0
M  V30 12613 H 1201.83 0.60232 -4.81145 0
M  V30 12614 N 1203.17 1.53854 0.341593 0
M  V30 12615 C 1204.12 1.81979 1.41959 0
M  V30 12616 C 1205.09 0.665616 1.5218 0
M  V30 12617 O 1206.28 0.910246 1.67688 0
M  V30 12618 C 1203.42 2.03681 2.78583 0
M  V30 12619 C 1202.53 3.31389 2.77137 0
M  V30 12620 C 1201.66 3.43148 4.05491 0
M  V30 12621 C 1200.7 4.64799 3.98282 0
M  V30 12622 N 1199.84 4.73581 5.18329 0
M  V30 12623 H 1204.68 2.73953 1.17275 0
M  V30 12624 H 1202.22 1.35689 0.568062 0
M  V30 12625 H 1204.17 2.14253 3.57983 0
M  V30 12626 H 1202.8 1.15017 3.01614 0
M  V30 12627 H 1201.86 3.29649 1.89832 0
M  V30 12628 H 1203.17 4.20885 2.67689 0
M  V30 12629 H 1202.32 3.53163 4.93316 0
M  V30 12630 H 1201.06 2.51712 4.17723 0
M  V30 12631 H 1200.07 4.54859 3.08842 0
M  V30 12632 H 1201.29 5.57601 3.87631 0
M  V30 12633 H 1199.24 3.85055 5.31102 0
M  V30 12634 H 1199.15 5.57016 5.11145 0
M  V30 12635 H 1200.42 4.87908 6.0792 0
M  V30 12636 N 1204.65 -0.602709 1.4562 0
M  V30 12637 C 1205.58 -1.72705 1.49159 0
M  V30 12638 C 1206.56 -1.58843 0.347494 0
M  V30 12639 O 1207.75 -1.80337 0.548716 0
M  V30 12640 C 1204.87 -3.10579 1.35125 0
M  V30 12641 C 1203.92 -3.43016 2.53461 0
M  V30 12642 S 1204.75 -3.37311 4.1591 0
M  V30 12643 C 1205.91 -4.77757 4.0435 0
M  V30 12644 H 1206.14 -1.69441 2.44289 0
M  V30 12645 H 1203.67 -0.779776 1.33262 0
M  V30 12646 H 1205.63 -3.90127 1.27715 0
M  V30 12647 H 1204.29 -3.11352 0.414568 0
M  V30 12648 H 1203.49 -4.43415 2.39581 0
M  V30 12649 H 1203.09 -2.70993 2.57757 0
M  V30 12650 H 1205.38 -5.67677 3.69796 0
M  V30 12651 H 1206.32 -4.96694 5.04679 0
M  V30 12652 H 1206.73 -4.53667 3.35926 0
M  V30 12653 N 1206.13 -1.32992 -0.845635 0
M  V30 12654 C 1207.36 -1.26903 -1.63031 0
M  V30 12655 C 1207.77 0.163589 -1.88491 0
M  V30 12656 O 1207.11 1.11402 -1.46066 0
M  V30 12657 C 1207.17 -1.96843 -3.00821 0
M  V30 12658 C 1206.84 -3.46164 -2.98362 0
M  V30 12659 C 1207.83 -4.41488 -2.74562 0
M  V30 12660 C 1205.52 -3.88237 -3.18712 0
M  V30 12661 C 1207.51 -5.7686 -2.71129 0
M  V30 12662 C 1205.2 -5.23715 -3.14905 0
M  V30 12663 C 1206.2 -6.17838 -2.91144 0
M  V30 12664 O 1205.89 -7.50836 -2.87228 0
M  V30 12665 H 1205.62 -0.438806 -0.514223 0
M  V30 12666 H 1208.17 -1.75817 -1.06196 0
M  V30 12667 H 1206.4 -1.42511 -3.59482 0
M  V30 12668 H 1208.09 -1.84343 -3.61625 0
M  V30 12669 H 1208.86 -4.10308 -2.58598 0
M  V30 12670 H 1204.74 -3.1539 -3.36229 0
M  V30 12671 H 1208.28 -6.50299 -2.52502 0
M  V30 12672 H 1204.18 -5.54523 -3.30416 0
M  V30 12673 H 1204.94 -7.60304 -3.03118 0
M  V30 12674 N 1207.61 1.06304 -1.1635 0
M  V30 12675 C 1208.52 2.17296 -0.884289 0
M  V30 12676 C 1209.53 1.73408 0.143414 0
M  V30 12677 O 1210.71 2.01373 -0.0331987 0
M  V30 12678 C 1207.77 3.44509 -0.389163 0
M  V30 12679 C 1206.84 4.02906 -1.48208 0
M  V30 12680 C 1206.07 5.24047 -1.01048 0
M  V30 12681 O 1206.29 5.70229 0.139821 0
M  V30 12682 O 1205.23 5.74394 -1.79876 0
M  V30 12683 H 1209.05 2.4369 -1.81243 0
M  V30 12684 H 1206.64 1.15841 -0.943459 0
M  V30 12685 H 1208.52 4.21229 -0.120018 0
M  V30 12686 H 1207.19 3.19642 0.510968 0
M  V30 12687 H 1206.1 3.27677 -1.80496 0
M  V30 12688 H 1207.43 4.32068 -2.35751 0
M  V30 12689 N 1209.09 0.96196 1.24836 0
M  V30 12690 C 1210.03 0.479282 2.27609 0
M  V30 12691 C 1211.03 -0.454224 1.63197 0
M  V30 12692 O 1212.23 -0.330146 1.76946 0
M  V30 12693 H 1208.61 0.13651 0.739506 0
M  V30 12694 H 1210.58 1.35817 2.657 0
M  V30 12695 C 1209.33 -0.220499 3.47 0
M  V30 12696 H 1208.65 0.488694 3.96802 0
M  V30 12697 H 1210.09 -0.522137 4.20773 0
M  V30 12698 C 1208.55 -1.44552 3.04313 0
M  V30 12699 O 1209.08 -2.54287 3.10967 0
M  V30 12700 N 1207.29 -1.3095 2.59423 0
M  V30 12701 H 1206.83 -0.416656 2.54208 0
M  V30 12702 H 1206.79 -2.13029 2.31227 0
M  V30 12703 N 1210.56 -1.39601 0.731392 0
M  V30 12704 C 1211.81 -2.00586 0.277756 0
M  V30 12705 C 1212.14 -1.58027 -1.13391 0
M  V30 12706 O 1211.39 -0.798691 -1.7866 0
M  V30 12707 C 1211.69 -3.55934 0.323352 0
M  V30 12708 C 1211.36 -4.18131 1.68753 0
M  V30 12709 C 1210.02 -4.34833 2.06092 0
M  V30 12710 C 1212.37 -4.5267 2.58339 0
M  V30 12711 C 1209.7 -4.83362 3.32532 0
M  V30 12712 C 1212.05 -5.02607 3.84148 0
M  V30 12713 C 1210.72 -5.17517 4.21584 0
M  V30 12714 H 1209.99 -0.733996 0.101638 0
M  V30 12715 H 1212.63 -1.66981 0.937528 0
M  V30 12716 H 1210.94 -3.89542 -0.419995 0
M  V30 12717 H 1212.64 -4.00974 -0.0457235 0
M  V30 12718 H 1209.23 -4.0553 1.38722 0
M  V30 12719 H 1213.41 -4.39388 2.30763 0
M  V30 12720 H 1208.67 -4.93091 3.61485 0
M  V30 12721 H 1212.84 -5.28306 4.53724 0
M  V30 12722 H 1210.47 -5.54882 5.19625 0
M  V30 12723 N 1212.04 -0.478751 -1.50152 0
M  V30 12724 C 1213.29 0.0734397 -2.01967 0
M  V30 12725 C 1213.61 1.39523 -1.36229 0
M  V30 12726 O 1212.88 1.89141 -0.510149 0
M  V30 12727 H 1211.46 0.0301305 -0.746392 0
M  V30 12728 H 1214.12 -0.630921 -1.84406 0
M  V30 12729 H 1213.22 0.21937 -3.11328 0
M  V30 12730 N 1213.52 1.56172 -0.211661 0
M  V30 12731 C 1214.94 1.5895 0.143907 0
M  V30 12732 C 1215.14 1.22826 1.59737 0
M  V30 12733 O 1214.19 0.958823 2.33587 0
M  V30 12734 C 1215.51 3.00199 -0.173438 0
M  V30 12735 C 1217.05 3.12789 -0.114877 0
M  V30 12736 C 1217.53 4.56199 -0.405759 0
M  V30 12737 N 1219.02 4.61838 -0.354973 0
M  V30 12738 C 1219.75 5.70721 -0.553671 0
M  V30 12739 N 1219.25 6.88006 -0.813613 0
M  V30 12740 N 1221.04 5.59988 -0.486787 0
M  V30 12741 H 1213.19 1.77931 -1.15993 0
M  V30 12742 H 1215.46 0.826569 -0.464206 0
M  V30 12743 H 1215.16 3.31248 -1.18186 0
M  V30 12744 H 1215.04 3.73651 0.516232 0
M  V30 12745 H 1217.42 2.81543 0.884166 0
M  V30 12746 H 1217.51 2.41688 -0.837875 0
M  V30 12747 H 1217.15 4.88161 -1.40219 0
M  V30 12748 H 1217.08 5.25512 0.338318 0
M  V30 12749 H 1219.57 3.77555 -0.161352 0
M  V30 12750 H 1219.88 7.66894 -0.953594 0
M  V30 12751 H 1218.23 6.89774 -0.850696 0
M  V30 12752 H 1221.42 4.67238 -0.284009 0
M  V30 12753 H 1221.59 6.44781 -0.645051 0
M  V30 12754 N 1215 -0.0618163 1.57479 0
M  V30 12755 C 1215.95 -1.0724 2.04373 0
M  V30 12756 C 1216.92 -1.37875 0.926271 0
M  V30 12757 O 1218.1 -1.48772 1.19463 0
M  V30 12758 C 1215.24 -2.37805 2.50085 0
M  V30 12759 C 1214.35 -2.13614 3.7549 0
M  V30 12760 C 1213.49 -3.37814 4.09945 0
M  V30 12761 C 1212.53 -3.09032 5.28361 0
M  V30 12762 N 1211.66 -4.25591 5.58406 0
M  V30 12763 H 1216.5 -0.665536 2.90473 0
M  V30 12764 H 1214.04 -0.317043 1.43643 0
M  V30 12765 H 1216 -3.14048 2.74644 0
M  V30 12766 H 1214.63 -2.76275 1.66948 0
M  V30 12767 H 1213.68 -1.28017 3.58212 0
M  V30 12768 H 1214.99 -1.88361 4.61867 0
M  V30 12769 H 1214.15 -4.22447 4.35458 0
M  V30 12770 H 1212.89 -3.66153 3.22154 0
M  V30 12771 H 1211.89 -2.22797 5.02635 0
M  V30 12772 H 1213.12 -2.82006 6.17778 0
M  V30 12773 H 1211.06 -4.53941 4.73575 0
M  V30 12774 H 1210.98 -4.03646 6.39223 0
M  V30 12775 H 1212.25 -5.11191 5.88476 0
M  V30 12776 N 1216.48 -1.54033 -0.333429 0
M  V30 12777 C 1217.7 -1.76031 -1.09672 0
M  V30 12778 C 1218.13 -0.502844 -1.81254 0
M  V30 12779 O 1217.48 0.54509 -1.72912 0
M  V30 12780 C 1217.53 -2.947 -2.07809 0
M  V30 12781 O 1216.64 -2.65555 -3.15522 0
M  V30 12782 H 1215.98 -0.583611 -0.316692 0
M  V30 12783 H 1218.51 -2.01026 -0.380732 0
M  V30 12784 H 1218.52 -3.21771 -2.50853 0
M  V30 12785 H 1217.19 -3.85895 -1.55106 0
M  V30 12786 H 1215.77 -2.49403 -2.77223 0
M  V30 12787 N 1217.95 0.594978 -1.45938 0
M  V30 12788 C 1218.88 1.71536 -1.58422 0
M  V30 12789 C 1219.87 1.64441 -0.435116 0
M  V30 12790 O 1221.05 1.82647 -0.659839 0
M  V30 12791 C 1218.18 3.10163 -1.56257 0
M  V30 12792 C 1217.13 3.3208 -2.70013 0
M  V30 12793 C 1216.46 4.71108 -2.52905 0
M  V30 12794 C 1217.76 3.21105 -4.11933 0
M  V30 12795 H 1219.45 1.61344 -2.52207 0
M  V30 12796 H 1217 0.774791 -1.2138 0
M  V30 12797 H 1218.95 3.88352 -1.63587 0
M  V30 12798 H 1217.68 3.21225 -0.590093 0
M  V30 12799 H 1216.34 2.56286 -2.62132 0
M  V30 12800 H 1215.98 4.7892 -1.53768 0
M  V30 12801 H 1215.68 4.86727 -3.29197 0
M  V30 12802 H 1217.21 5.51482 -2.62107 0
M  V30 12803 H 1218.62 3.89153 -4.2099 0
M  V30 12804 H 1217.02 3.4825 -4.88715 0
M  V30 12805 H 1218.09 2.18359 -4.32952 0
M  V30 12806 N 1219.43 1.33438 0.838571 0
M  V30 12807 C 1220.68 1.26106 1.59589 0
M  V30 12808 C 1221.03 -0.171524 1.91634 0
M  V30 12809 O 1220.33 -1.11368 1.55909 0
M  V30 12810 C 1220.52 2.07002 2.9135 0
M  V30 12811 C 1220.35 3.57981 2.72175 0
M  V30 12812 C 1219.12 4.27293 2.69719 0
M  V30 12813 C 1221.32 4.52308 2.4479 0
M  V30 12814 N 1219.3 5.64221 2.41925 0
M  V30 12815 C 1220.67 5.77127 2.26549 0
M  V30 12816 C 1222.73 4.4139 2.3039 0
M  V30 12817 C 1221.43 6.9226 1.95368 0
M  V30 12818 C 1223.45 5.56339 2.00602 0
M  V30 12819 C 1222.82 6.80167 1.83173 0
M  V30 12820 H 1218.92 0.516656 0.587018 0
M  V30 12821 H 1221.5 1.67982 0.984382 0
M  V30 12822 H 1219.67 1.67446 3.50452 0
M  V30 12823 H 1221.4 1.91437 3.56558 0
M  V30 12824 H 1218.16 3.79571 2.83236 0
M  V30 12825 H 1218.58 6.36403 2.30911 0
M  V30 12826 H 1223.22 3.46289 2.42577 0
M  V30 12827 H 1220.94 7.87357 1.81918 0
M  V30 12828 H 1224.53 5.49827 1.90214 0
M  V30 12829 H 1223.41 7.67609 1.60455 0
M  V30 12830 N 1220.91 -1.05686 1.16912 0
M  V30 12831 C 1221.84 -2.15268 0.904532 0
M  V30 12832 C 1222.82 -1.69424 -0.151548 0
M  V30 12833 O 1224.01 -1.942 -0.00235371 0
M  V30 12834 C 1221.14 -3.44853 0.411581 0
M  V30 12835 C 1220.09 -4.04237 1.40628 0
M  V30 12836 C 1219.42 -5.29105 0.771479 0
M  V30 12837 C 1220.72 -4.42303 2.77787 0
M  V30 12838 H 1222.41 -2.37659 1.82094 0
M  V30 12839 H 1219.96 -1.14217 0.876947 0
M  V30 12840 H 1221.91 -4.20857 0.213929 0
M  V30 12841 H 1220.63 -3.22099 -0.540352 0
M  V30 12842 H 1219.29 -3.30297 1.59058 0
M  V30 12843 H 1218.94 -5.02652 -0.187133 0
M  V30 12844 H 1218.64 -5.69797 1.43545 0
M  V30 12845 H 1220.16 -6.07801 0.583988 0
M  V30 12846 H 1221.58 -5.09362 2.63103 0
M  V30 12847 H 1219.98 -4.93997 3.40716 0
M  V30 12848 H 1221.05 -3.52877 3.32575 0
M  V30 12849 N 1222.39 -0.968567 -1.24324 0
M  V30 12850 C 1223.62 -0.648568 -1.96472 0
M  V30 12851 C 1224.03 0.782168 -1.71836 0
M  V30 12852 O 1223.39 1.5249 -1.00265 0
M  V30 12853 C 1223.44 -0.91482 -3.49733 0
M  V30 12854 O 1223.16 -2.28931 -3.73527 0
M  V30 12855 C 1224.66 -0.609131 -4.39095 0
M  V30 12856 H 1221.88 -0.241921 -0.625872 0
M  V30 12857 H 1224.43 -1.29673 -1.5813 0
M  V30 12858 H 1222.58 -0.31285 -3.86135 0
M  V30 12859 H 1222.99 -2.36998 -4.67902 0
M  V30 12860 H 1224.47 -0.845875 -5.4548 0
M  V30 12861 H 1224.95 0.456625 -4.3682 0
M  V30 12862 H 1225.55 -1.19105 -4.08282 0
M  V30 12863 N 1223.87 1.39211 -0.738786 0
M  V30 12864 C 1224.81 2.30578 -0.10129 0
M  V30 12865 C 1225.78 1.49412 0.725616 0
M  V30 12866 O 1226.97 1.78087 0.684799 0
M  V30 12867 C 1224.11 3.35767 0.797161 0
M  V30 12868 C 1223.22 4.31979 -0.0427701 0
M  V30 12869 C 1222.36 5.24236 0.857306 0
M  V30 12870 C 1221.4 6.12099 0.0128501 0
M  V30 12871 N 1220.53 6.96701 0.869067 0
M  V30 12872 H 1225.37 2.84522 -0.88606 0
M  V30 12873 H 1222.91 1.40093 -0.448602 0
M  V30 12874 H 1224.87 3.95347 1.33255 0
M  V30 12875 H 1223.5 2.83268 1.54787 0
M  V30 12876 H 1222.55 3.73986 -0.695622 0
M  V30 12877 H 1223.86 4.93927 -0.69555 0
M  V30 12878 H 1223.02 5.88861 1.4604 0
M  V30 12879 H 1221.75 4.62619 1.54386 0
M  V30 12880 H 1220.76 5.46483 -0.603018 0
M  V30 12881 H 1221.98 6.75781 -0.67054 0
M  V30 12882 H 1219.93 6.37647 1.54084 0
M  V30 12883 H 1219.85 7.55507 0.272852 0
M  V30 12884 H 1221.12 7.65751 1.4576 0
M  V30 12885 N 1225.34 0.486708 1.49896 0
M  V30 12886 C 1226.28 -0.335809 2.26727 0
M  V30 12887 C 1227.29 -0.94333 1.32684 0
M  V30 12888 O 1228.48 -0.82909 1.58077 0
M  V30 12889 C 1225.58 -1.48642 3.04563 0
M  V30 12890 C 1224.75 -0.988837 4.26076 0
M  V30 12891 C 1223.81 -2.01535 4.86076 0
M  V30 12892 O 1222.84 -1.58966 5.46552 0
M  V30 12893 N 1224.04 -3.34471 4.74457 0
M  V30 12894 H 1226.8 0.322919 2.97955 0
M  V30 12895 H 1224.36 0.318403 1.58738 0
M  V30 12896 H 1226.36 -2.17039 3.41579 0
M  V30 12897 H 1224.93 -2.04956 2.36033 0
M  V30 12898 H 1224.15 -0.130232 3.93985 0
M  V30 12899 H 1225.43 -0.634562 5.04827 0
M  V30 12900 H 1224.83 -3.71755 4.26398 0
M  V30 12901 H 1223.39 -3.98621 5.15698 0
M  V30 12902 N 1226.82 -1.56058 0.219941 0
M  V30 12903 C 1228.1 -1.90087 -0.46112 0
M  V30 12904 C 1228.48 -1.13705 -1.77861 0
M  V30 12905 O 1227.83 -0.245868 -2.27173 0
M  V30 12906 C 1228.04 -3.42786 -0.655644 0
M  V30 12907 C 1229.39 -4.13517 -0.963803 0
M  V30 12908 O 1230.41 -3.48376 -0.742488 0
M  V30 12909 O 1229.27 -5.28692 -1.38374 0
M  V30 12910 H 1226.36 -0.790311 -0.243595 0
M  V30 12911 H 1228.91 -1.67665 0.262005 0
M  V30 12912 H 1227.68 -3.90341 0.273738 0
M  V30 12913 H 1227.3 -3.70982 -1.43032 0
M  V30 12914 N 1228.3 0.053464 -1.57509 0
M  V30 12915 C 1229.55 0.750212 -1.88414 0
M  V30 12916 C 1229.88 1.76288 -0.814619 0
M  V30 12917 O 1229.16 1.93728 0.173136 0
M  V30 12918 C 1229.44 1.44176 -3.29978 0
M  V30 12919 C 1229.29 0.444263 -4.47601 0
M  V30 12920 C 1230.61 2.38207 -3.70061 0
M  V30 12921 H 1227.73 0.271266 -0.685262 0
M  V30 12922 H 1230.37 0.0131676 -1.89995 0
M  V30 12923 H 1228.52 2.07001 -3.2876 0
M  V30 12924 H 1230.19 -0.180182 -4.60948 0
M  V30 12925 H 1228.44 -0.238771 -4.33142 0
M  V30 12926 H 1229.11 0.966134 -5.43479 0
M  V30 12927 H 1231.58 1.85446 -3.7249 0
M  V30 12928 H 1230.46 2.83588 -4.69967 0
M  V30 12929 H 1230.72 3.23821 -3.00985 0
M  V30 12930 N 1229.78 1.54207 0.325255 0
M  V30 12931 C 1230.69 1.86495 1.42326 0
M  V30 12932 C 1231.71 0.756718 1.56684 0
M  V30 12933 O 1232.88 1.05084 1.71812 0
M  V30 12934 C 1229.95 2.08414 2.77064 0
M  V30 12935 C 1229.01 3.32221 2.71897 0
M  V30 12936 C 1228.24 3.53085 4.00209 0
M  V30 12937 O 1228.46 2.77421 4.98391 0
M  V30 12938 O 1227.4 4.46559 4.0357 0
M  V30 12939 H 1231.22 2.79859 1.17951 0
M  V30 12940 H 1228.81 1.40091 0.519124 0
M  V30 12941 H 1230.69 2.24171 3.56827 0
M  V30 12942 H 1229.37 1.18238 3.01333 0
M  V30 12943 H 1228.27 3.21851 1.90691 0
M  V30 12944 H 1229.61 4.22449 2.52582 0
M  V30 12945 N 1231.26 -0.58723 1.46251 0
M  V30 12946 C 1232.22 -1.67863 1.5606 0
M  V30 12947 C 1233.22 -1.54715 0.438162 0
M  V30 12948 O 1234.41 -1.59415 0.702323 0
M  V30 12949 C 1231.54 -3.07262 1.47659 0
M  V30 12950 H 1232.74 -1.60525 2.53321 0
M  V30 12951 H 1230.29 -0.804691 1.33994 0
M  V30 12952 H 1231.02 -3.20159 0.5166 0
M  V30 12953 H 1230.81 -3.18213 2.29092 0
M  V30 12954 H 1232.3 -3.8672 1.57599 0
M  V30 12955 N 1232.74 -1.33881 -0.831482 0
M  V30 12956 C 1233.69 -1.2131 -1.93049 0
M  V30 12957 C 1234.67 -0.114199 -1.60494 0
M  V30 12958 O 1235.86 -0.343027 -1.73644 0
M  V30 12959 C 1232.99 -0.962034 -3.29545 0
M  V30 12960 C 1232.08 -2.10372 -3.68245 0
M  V30 12961 N 1232.47 -3.35427 -3.78579 0
M  V30 12962 C 1230.77 -2.01206 -3.98036 0
M  V30 12963 C 1231.47 -4.10351 -4.12295 0
M  V30 12964 N 1230.44 -3.3886 -4.25059 0
M  V30 12965 H 1234.24 -2.1609 -1.99204 0
M  V30 12966 H 1231.76 -1.25995 -1.02464 0
M  V30 12967 H 1233.76 -0.852895 -4.08082 0
M  V30 12968 H 1232.42 -0.0228423 -3.24692 0
M  V30 12969 H 1233.43 -3.70085 -3.62295 0
M  V30 12970 H 1230.1 -1.14991 -4.01352 0
M  V30 12971 H 1231.49 -5.18302 -4.27566 0
M  V30 12972 N 1234.21 1.05064 -1.1747 0
M  V30 12973 C 1235.16 2.12841 -0.89259 0
M  V30 12974 C 1236.13 1.65288 0.16402 0
M  V30 12975 O 1237.32 1.90782 0.026537 0
M  V30 12976 C 1234.46 3.42614 -0.41344 0
M  V30 12977 C 1233.57 4.03835 -1.53432 0
M  V30 12978 C 1232.7 5.21531 -1.00891 0
M  V30 12979 C 1231.74 5.74761 -2.10515 0
M  V30 12980 N 1230.88 6.83756 -1.59442 0
M  V30 12981 H 1235.72 2.36312 -1.81551 0
M  V30 12982 H 1233.26 1.15929 -0.905483 0
M  V30 12983 H 1235.21 4.17035 -0.117181 0
M  V30 12984 H 1233.84 3.19323 0.472517 0
M  V30 12985 H 1232.9 3.2684 -1.94627 0
M  V30 12986 H 1234.21 4.3938 -2.36108 0
M  V30 12987 H 1233.36 6.03027 -0.666575 0
M  V30 12988 H 1232.1 4.87464 -0.151608 0
M  V30 12989 H 1231.11 4.91893 -2.45604 0
M  V30 12990 H 1232.33 6.10875 -2.96663 0
M  V30 12991 H 1230.28 6.51584 -0.759849 0
M  V30 12992 H 1230.19 7.18311 -2.35724 0
M  V30 12993 H 1231.46 7.68901 -1.28105 0
M  V30 12994 N 1235.69 0.975146 1.23809 0
M  V30 12995 C 1236.6 0.51917 2.28783 0
M  V30 12996 C 1237.62 -0.423487 1.68768 0
M  V30 12997 O 1238.79 -0.294699 1.99232 0
M  V30 12998 C 1235.86 -0.176229 3.46252 0
M  V30 12999 C 1234.92 0.807177 4.21643 0
M  V30 13000 C 1234.15 0.144869 5.33503 0
M  V30 13001 O 1234.38 -1.06522 5.60365 0
M  V30 13002 O 1233.31 0.84079 5.95999 0
M  V30 13003 H 1237.14 1.39204 2.69919 0
M  V30 13004 H 1234.72 0.74253 1.29641 0
M  V30 13005 H 1236.6 -0.566547 4.17574 0
M  V30 13006 H 1235.28 -1.02394 3.07078 0
M  V30 13007 H 1234.18 1.2481 3.52666 0
M  V30 13008 H 1235.52 1.62354 4.64653 0
M  V30 13009 N 1237.17 -1.38817 0.746158 0
M  V30 13010 C 1238.39 -2.05096 0.308302 0
M  V30 13011 C 1238.82 -1.55902 -1.05244 0
M  V30 13012 O 1238.18 -0.707685 -1.66918 0
M  V30 13013 C 1238.23 -3.59068 0.332016 0
M  V30 13014 O 1237.33 -4.06813 -0.676547 0
M  V30 13015 H 1236.67 -0.649523 0.1379 0
M  V30 13016 H 1239.2 -1.77637 1.0152 0
M  V30 13017 H 1239.21 -4.07601 0.180293 0
M  V30 13018 H 1237.89 -3.94234 1.32487 0
M  V30 13019 H 1236.46 -3.69666 -0.490046 0
M  V30 13020 N 1238.65 -0.49465 -1.49636 0
M  V30 13021 C 1239.58 0.323781 -2.26902 0
M  V30 13022 C 1240.59 0.936281 -1.33183 0
M  V30 13023 O 1241.78 0.820695 -1.58514 0
M  V30 13024 C 1238.88 1.47025 -3.05347 0
M  V30 13025 C 1238.05 0.966228 -4.26594 0
M  V30 13026 C 1237.11 1.98955 -4.87138 0
M  V30 13027 O 1236.14 1.56065 -5.47387 0
M  V30 13028 N 1237.34 3.3195 -4.76224 0
M  V30 13029 H 1240.11 -0.338716 -2.9778 0
M  V30 13030 H 1237.67 -0.326817 -1.58567 0
M  V30 13031 H 1239.66 2.15225 -3.42725 0
M  V30 13032 H 1238.23 2.03702 -2.37117 0
M  V30 13033 H 1237.45 0.109336 -3.94048 0
M  V30 13034 H 1238.74 0.607781 -5.05157 0
M  V30 13035 H 1238.14 3.69488 -4.28363 0
M  V30 13036 H 1236.69 3.95881 -5.17805 0
M  V30 13037 N 1240.13 1.55939 -0.228214 0
M  V30 13038 C 1241.04 2.24213 0.690339 0
M  V30 13039 C 1242.05 1.25197 1.20838 0
M  V30 13040 O 1243.23 1.58026 1.24859 0
M  V30 13041 C 1240.29 2.91384 1.87873 0
M  V30 13042 C 1239.35 4.05761 1.40201 0
M  V30 13043 C 1238.59 4.6972 2.53376 0
M  V30 13044 O 1238.81 4.32687 3.71669 0
M  V30 13045 O 1237.74 5.58587 2.24198 0
M  V30 13046 H 1241.57 3.03383 0.138692 0
M  V30 13047 H 1239.15 1.494 0.00251504 0
M  V30 13048 H 1241.04 3.33758 2.57262 0
M  V30 13049 H 1239.71 2.15168 2.41835 0
M  V30 13050 H 1238.62 3.67943 0.675945 0
M  V30 13051 H 1239.95 4.83739 0.908691 0
M  V30 13052 N 1241.6 -0.0451101 1.57535 0
M  V30 13053 C 1242.85 -0.740209 1.88809 0
M  V30 13054 C 1243.18 -1.75854 0.823956 0
M  V30 13055 O 1242.46 -1.93817 -0.16286 0
M  V30 13056 C 1242.74 -1.42424 3.30737 0
M  V30 13057 C 1242.59 -0.42052 4.4783 0
M  V30 13058 C 1243.91 -2.36241 3.7132 0
M  V30 13059 H 1241.03 -0.267628 0.686691 0
M  V30 13060 H 1243.67 -0.00309149 1.9 0
M  V30 13061 H 1241.82 -2.05254 3.29853 0
M  V30 13062 H 1243.5 0.204625 4.60846 0
M  V30 13063 H 1241.74 0.261739 4.3301 0
M  V30 13064 H 1242.41 -0.937298 5.43984 0
M  V30 13065 H 1244.89 -1.83468 3.73468 0
M  V30 13066 H 1243.76 -2.81091 4.71465 0
M  V30 13067 H 1244.02 -3.2222 3.02699 0
M  V30 13068 N 1243.08 -1.54377 -0.317073 0
M  V30 13069 C 1244.01 -1.8721 -1.39552 0
M  V30 13070 C 1244.99 -0.729483 -1.53664 0
M  V30 13071 O 1246.18 -0.983799 -1.67437 0
M  V30 13072 C 1243.31 -2.1052 -2.76222 0
M  V30 13073 C 1242.26 -3.26366 -2.76892 0
M  V30 13074 C 1241.59 -3.35061 -4.16699 0
M  V30 13075 C 1242.89 -4.63862 -2.40061 0
M  V30 13076 H 1244.58 -2.77532 -1.12323 0
M  V30 13077 H 1242.13 -1.33536 -0.538897 0
M  V30 13078 H 1244.08 -2.32073 -3.51739 0
M  V30 13079 H 1242.81 -1.16953 -3.04942 0
M  V30 13080 H 1241.46 -3.0471 -2.03831 0
M  V30 13081 H 1241.11 -2.39041 -4.4257 0
M  V30 13082 H 1240.81 -4.12923 -4.18053 0
M  V30 13083 H 1242.34 -3.58856 -4.94019 0
M  V30 13084 H 1243.75 -4.85252 -3.05292 0
M  V30 13085 H 1242.15 -5.44321 -2.52655 0
M  V30 13086 H 1243.22 -4.6567 -1.35202 0
M  V30 13087 N 1244.56 0.579466 -1.4656 0
M  V30 13088 C 1245.51 1.68327 -1.53785 0
M  V30 13089 C 1246.49 1.55887 -0.398512 0
M  V30 13090 O 1247.69 1.64746 -0.647119 0
M  V30 13091 C 1244.82 3.07113 -1.53416 0
M  V30 13092 C 1243.9 3.24839 -2.72655 0
M  V30 13093 N 1244.29 3.12711 -3.97549 0
M  V30 13094 C 1242.59 3.55786 -2.68947 0
M  V30 13095 C 1243.29 3.32528 -4.77284 0
M  V30 13096 N 1242.27 3.57834 -4.09214 0
M  V30 13097 H 1246.07 1.57486 -2.48144 0
M  V30 13098 H 1243.58 0.783591 -1.42245 0
M  V30 13099 H 1245.58 3.86338 -1.5668 0
M  V30 13100 H 1244.24 3.19083 -0.601365 0
M  V30 13101 H 1245.25 2.90508 -4.28749 0
M  V30 13102 H 1241.93 3.7442 -1.84705 0
M  V30 13103 H 1243.32 3.28308 -5.86228 0
M  V30 13104 N 1246.04 1.3432 0.824371 0
M  V30 13105 C 1247.28 1.26783 1.58284 0
M  V30 13106 C 1247.62 -0.162282 1.93521 0
M  V30 13107 O 1246.89 -1.1073 1.59903 0
M  V30 13108 C 1247.18 2.15725 2.88331 0
M  V30 13109 C 1247.03 3.67266 2.59684 0
M  V30 13110 C 1248.35 2.04141 3.8989 0
M  V30 13111 H 1245.47 0.461893 0.574303 0
M  V30 13112 H 1248.11 1.64558 0.949769 0
M  V30 13113 H 1246.26 1.83639 3.42358 0
M  V30 13114 H 1247.93 4.09711 2.11978 0
M  V30 13115 H 1246.17 3.88426 1.93151 0
M  V30 13116 H 1246.84 4.24863 3.52414 0
M  V30 13117 H 1249.32 2.3231 3.45212 0
M  V30 13118 H 1248.2 2.68601 4.7869 0
M  V30 13119 H 1248.46 1.01795 4.30221 0
M  V30 13120 N 1247.52 -1.0444 1.18026 0
M  V30 13121 C 1248.45 -2.12388 0.86162 0
M  V30 13122 C 1249.46 -1.62204 -0.139196 0
M  V30 13123 O 1250.65 -1.78282 0.0881334 0
M  V30 13124 C 1247.75 -3.37859 0.265407 0
M  V30 13125 C 1246.92 -4.17292 1.31096 0
M  V30 13126 C 1245.98 -5.21096 0.731121 0
M  V30 13127 O 1245.01 -5.5159 1.40488 0
M  V30 13128 N 1246.21 -5.78568 -0.473194 0
M  V30 13129 H 1248.98 -2.40317 1.79074 0
M  V30 13130 H 1246.54 -1.20601 1.08014 0
M  V30 13131 H 1248.53 -4.04472 -0.135976 0
M  V30 13132 H 1247.1 -3.07403 -0.567658 0
M  V30 13133 H 1246.32 -3.46057 1.8878 0
M  V30 13134 H 1247.61 -4.67158 2.01596 0
M  V30 13135 H 1247 -5.56088 -1.03839 0
M  V30 13136 H 1245.56 -6.46665 -0.816545 0
M  V30 13137 N 1248.99 -0.981699 -1.2329 0
M  V30 13138 C 1250.41 -0.690539 -1.43888 0
M  V30 13139 C 1250.61 0.742816 -1.87309 0
M  V30 13140 O 1249.67 1.5151 -2.01993 0
M  V30 13141 C 1250.98 -1.68657 -2.48948 0
M  V30 13142 C 1252.53 -1.70076 -2.62761 0
M  V30 13143 C 1253 -2.68513 -3.71032 0
M  V30 13144 N 1254.49 -2.67039 -3.78476 0
M  V30 13145 C 1255.23 -3.39874 -4.61815 0
M  V30 13146 N 1254.72 -4.22273 -5.49233 0
M  V30 13147 N 1256.52 -3.28633 -4.56023 0
M  V30 13148 H 1248.67 -1.90758 -0.934077 0
M  V30 13149 H 1250.93 -0.822058 -0.472149 0
M  V30 13150 H 1250.64 -2.7117 -2.23964 0
M  V30 13151 H 1250.51 -1.47045 -3.47358 0
M  V30 13152 H 1252.9 -0.682673 -2.87095 0
M  V30 13153 H 1252.98 -1.95754 -1.64663 0
M  V30 13154 H 1252.62 -3.70464 -3.47446 0
M  V30 13155 H 1252.55 -2.40109 -4.68674 0
M  V30 13156 H 1255.04 -2.07241 -3.16006 0
M  V30 13157 H 1255.36 -4.74702 -6.09818 0
M  V30 13158 H 1253.7 -4.26364 -5.48852 0
M  V30 13159 H 1256.89 -2.6371 -3.86749 0
M  V30 13160 H 1257.07 -3.85656 -5.20743 0
M  V30 13161 O 1250.51 1.34712 -0.890788 0
M  V30 13162 H 1251.2 1.87177 -0.498428 0
M  V30 END ATOM
M  V30 BEGIN BOND
M  V30 END BOND
M  V30 END CTAB
M  END
$$$$
