drugbank_target|P77398 Bifunctional polymyxin resistance protein ArnA (DB03256; DB03685)
 OpenBabel12092119593D

  0  0  0     0  0            999 V3000
M  V30 BEGIN CTAB
M  V30 COUNTS 10433 10565 0 0 0
M  V30 BEGIN ATOM
M  V30 1 H -0.908 1.98254 -0.117106 0
M  V30 2 N 0 1.576 0 0
M  V30 3 C 0.933 2.03868 1.02534 0
M  V30 4 C 1.911 0.928543 1.3348 0
M  V30 5 O 3.095 1.19667 1.45644 0
M  V30 6 C 0.222 2.43627 2.35294 0
M  V30 7 C -0.732 3.65373 2.2001 0
M  V30 8 S 0.101 5.13292 1.52614 0
M  V30 9 C 1.257 5.56322 2.86805 0
M  V30 10 H 1.49 2.90518 0.631377 0
M  V30 11 H -0.977 1.52953 0.210867 0
M  V30 12 H 0.981 2.67203 3.11629 0
M  V30 13 H -0.358 1.57376 2.7183 0
M  V30 14 H -1.165 3.90944 3.18086 0
M  V30 15 H -1.563 3.418 1.51819 0
M  V30 16 H 0.729 5.58782 3.83104 0
M  V30 17 H 1.672 6.56266 2.65933 0
M  V30 18 H 2.08 4.83886 2.90714 0
M  V30 19 N 1.4781 -0.272755 1.55222 0
M  V30 20 C 2.4251 -1.33716 1.88119 0
M  V30 21 C 3.3951 -1.49066 0.73271 0
M  V30 22 O 4.5801 -1.63469 0.984002 0
M  V30 23 C 1.7201 -2.69238 2.15882 0
M  V30 24 C 0.8331 -2.62108 3.43399 0
M  V30 25 C -0.0319 -3.89811 3.60861 0
M  V30 26 C -0.9929 -3.77193 4.8207 0
M  V30 27 N -1.8559 -4.9673 4.96189 0
M  V30 28 H 2.9841 -1.04962 2.78903 0
M  V30 29 H 0.5211 -0.507088 1.38083 0
M  V30 30 H 2.4791 -3.48089 2.29978 0
M  V30 31 H 1.1091 -2.96194 1.28331 0
M  V30 32 H 0.1611 -1.74967 3.37773 0
M  V30 33 H 1.4731 -2.48685 4.32386 0
M  V30 34 H 0.6271 -4.77103 3.74777 0
M  V30 35 H -0.6339 -4.06102 2.7006 0
M  V30 36 H -1.6289 -2.88284 4.68159 0
M  V30 37 H -0.4039 -3.62421 5.74307 0
M  V30 38 H -2.4579 -5.13431 4.08319 0
M  V30 39 H -2.5409 -4.85839 5.79221 0
M  V30 40 H -1.2729 -5.85594 5.1449 0
M  V30 41 N 2.9562 -1.48159 -0.537278 0
M  V30 42 C 4.1842 -1.59454 -1.31841 0
M  V30 43 C 4.5992 -0.252065 -1.8711 0
M  V30 44 O 3.9562 0.757621 -1.66031 0
M  V30 45 C 4.0072 -2.63546 -2.47439 0
M  V30 46 O 3.7282 -3.92583 -1.94449 0
M  V30 47 C 5.2292 -2.85212 -3.39366 0
M  V30 48 H 2.4492 -0.53785 -0.401196 0
M  V30 49 H 4.9932 -1.93932 -0.648891 0
M  V30 50 H 3.1482 -2.31946 -3.1029 0
M  V30 51 H 3.5622 -4.49629 -2.70063 0
M  V30 52 H 5.0362 -3.61863 -4.16844 0
M  V30 53 H 5.5132 -1.93765 -3.94147 0
M  V30 54 H 6.1192 -3.18086 -2.82314 0
M  V30 55 N 4.4343 0.785586 -1.36625 0
M  V30 56 C 5.6803 1.54591 -1.31261 0
M  V30 57 C 6.0133 1.93906 0.106823 0
M  V30 58 O 5.2883 1.63007 1.06108 0
M  V30 59 C 5.5713 2.82038 -2.23889 0
M  V30 60 C 5.4243 2.49066 -3.74548 0
M  V30 61 C 6.7433 3.83887 -2.15217 0
M  V30 62 H 3.8623 0.560846 -0.478143 0
M  V30 63 H 6.5043 0.902278 -1.67209 0
M  V30 64 H 4.6543 3.36961 -1.93363 0
M  V30 65 H 6.3263 2.00164 -4.15611 0
M  V30 66 H 4.5693 1.81954 -3.93796 0
M  V30 67 H 5.2403 3.40109 -4.34776 0
M  V30 68 H 7.7163 3.38421 -2.42096 0
M  V30 69 H 6.5923 4.70806 -2.82193 0
M  V30 70 H 6.8533 4.27131 -1.14068 0
M  V30 71 N 5.9124 1.20967 1.01018 0
M  V30 72 C 7.1584 1.02526 1.74975 0
M  V30 73 C 7.4914 -0.4408 1.89131 0
M  V30 74 O 6.7664 -1.32718 1.42184 0
M  V30 75 C 7.0494 1.71699 3.1653 0
M  V30 76 C 6.9024 3.25791 3.10129 0
M  V30 77 C 8.2214 1.45531 4.15342 0
M  V30 78 H 5.3404 0.373863 0.635134 0
M  V30 79 H 7.9824 1.49071 1.17805 0
M  V30 80 H 6.1324 1.32128 3.65341 0
M  V30 81 H 7.8044 3.74697 2.69072 0
M  V30 82 H 6.0474 3.56363 2.47362 0
M  V30 83 H 6.7184 3.69353 4.10222 0
M  V30 84 H 9.1944 1.79872 3.75213 0
M  V30 85 H 8.0704 1.96453 5.1254 0
M  V30 86 H 8.3314 0.384237 4.40427 0
M  V30 87 N 7.3905 -1.2043 1.01659 0
M  V30 88 C 8.6375 -1.89797 0.705917 0
M  V30 89 C 8.9655 -1.78848 -0.764439 0
M  V30 90 O 8.2205 -1.16694 -1.57102 0
M  V30 91 C 8.5195 -3.40464 1.08714 0
M  V30 92 C 8.1855 -3.71614 2.5537 0
M  V30 93 C 6.8475 -3.79826 2.95441 0
M  V30 94 C 9.1995 -3.85915 3.50313 0
M  V30 95 C 6.5275 -3.99797 4.29394 0
M  V30 96 C 8.8795 -4.07396 4.83954 0
M  V30 97 C 7.5435 -4.13837 5.23732 0
M  V30 98 H 6.8135 -0.694518 0.258313 0
M  V30 99 H 9.4605 -1.42691 1.27717 0
M  V30 100 H 7.7655 -3.89385 0.434309 0
M  V30 101 H 9.4625 -3.92433 0.824461 0
M  V30 102 H 6.0525 -3.65822 2.23321 0
M  V30 103 H 10.2365 -3.78926 3.20513 0
M  V30 104 H 5.4925 -4.03018 4.59768 0
M  V30 105 H 9.6665 -4.17404 5.57447 0
M  V30 106 H 7.2935 -4.29064 6.27541 0
M  V30 107 N 8.8686 -0.792821 -1.36206 0
M  V30 108 C 9.8316 -0.199459 -2.2833 0
M  V30 109 C 10.8316 0.605189 -1.48977 0
M  V30 110 O 12.0216 0.425685 -1.68919 0
M  V30 111 C 9.1536 0.723523 -3.33134 0
M  V30 112 H 10.3466 -1.01181 -2.82316 0
M  V30 113 H 7.8996 -0.562485 -1.45828 0
M  V30 114 H 8.6346 1.56008 -2.84309 0
M  V30 115 H 8.4196 0.148436 -3.91819 0
M  V30 116 H 9.9096 1.13344 -4.01924 0
M  V30 117 N 10.3467 1.47872 -0.545128 0
M  V30 118 C 11.5767 2.06589 -0.0210534 0
M  V30 119 C 11.9847 1.39997 1.27269 0
M  V30 120 O 11.3277 0.486421 1.77143 0
M  V30 121 C 11.3897 3.58574 0.257933 0
M  V30 122 C 11.0537 4.47132 -0.944573 0
M  V30 123 C 12.0507 4.85986 -1.84699 0
M  V30 124 C 9.7357 4.88821 -1.15584 0
M  V30 125 C 11.7297 5.65314 -2.94446 0
M  V30 126 C 9.4167 5.67916 -2.25642 0
M  V30 127 C 10.4147 6.06073 -3.14905 0
M  V30 128 O 10.1027 6.83578 -4.23057 0
M  V30 129 H 9.8347 0.674971 -0.0372899 0
M  V30 130 H 12.3887 1.91037 -0.754599 0
M  V30 131 H 10.6187 3.72295 1.04564 0
M  V30 132 H 12.3077 3.99356 0.72592 0
M  V30 133 H 13.0737 4.54388 -1.69577 0
M  V30 134 H 8.9527 4.58595 -0.470279 0
M  V30 135 H 12.4967 5.95016 -3.64145 0
M  V30 136 H 8.3937 5.98927 -2.40742 0
M  V30 137 H 9.1617 7.01954 -4.20954 0
M  V30 138 N 11.8248 0.280983 1.55075 0
M  V30 139 C 12.7748 -0.618585 2.19448 0
M  V30 140 C 13.7588 -1.11401 1.16098 0
M  V30 141 O 14.9508 -1.0581 1.41891 0
M  V30 142 C 12.0798 -1.79951 2.92357 0
M  V30 143 C 11.1658 -1.321 4.03002 0
M  V30 144 N 11.5568 -0.559044 5.02701 0
M  V30 145 C 9.8548 -1.60346 4.16179 0
M  V30 146 C 10.5558 -0.306722 5.80891 0
M  V30 147 N 9.5318 -0.880825 5.36416 0
M  V30 148 H 13.3338 -0.0286638 2.93886 0
M  V30 149 H 10.8478 0.0848104 1.62178 0
M  V30 150 H 12.8448 -2.45531 3.36927 0
M  V30 151 H 11.5048 -2.39333 2.19431 0
M  V30 152 H 12.5158 -0.205827 5.17491 0
M  V30 153 H 9.1928 -2.20621 3.54447 0
M  V30 154 H 10.5828 0.30391 6.71212 0
M  V30 155 N 13.3029 -1.57598 0.00835791 0
M  V30 156 C 14.5799 -1.82172 -0.712235 0
M  V30 157 C 14.9599 -0.887873 -1.9152 0
M  V30 158 O 14.3079 0.06146 -2.28417 0
M  V30 159 C 14.5179 -3.30875 -1.11008 0
M  V30 160 C 15.8659 -3.96826 -1.51044 0
M  V30 161 O 16.8899 -3.35248 -1.20364 0
M  V30 162 O 15.7489 -5.05318 -2.08125 0
M  V30 163 H 12.8429 -0.750435 -0.347529 0
M  V30 164 H 15.3889 -1.69665 0.0344523 0
M  V30 165 H 14.1609 -3.90481 -0.252982 0
M  V30 166 H 13.7839 -3.48412 -1.9156 0
M  V30 167 N 14.781 0.264519 -1.55364 0
M  V30 168 C 15.714 1.35297 -1.83766 0
M  V30 169 C 16.692 1.47171 -0.691336 0
M  V30 170 O 17.876 1.63663 -0.935238 0
M  V30 171 C 15.003 2.72847 -2.00679 0
M  V30 172 C 14.049 2.78214 -3.23263 0
M  V30 173 S 14.882 2.36601 -4.80396 0
M  V30 174 C 16.038 3.7611 -5.00292 0
M  V30 175 H 16.271 1.11003 -2.758 0
M  V30 176 H 13.804 0.464596 -1.47244 0
M  V30 177 H 15.762 3.52057 -2.11108 0
M  V30 178 H 14.423 2.94388 -1.09518 0
M  V30 179 H 13.616 3.7919 -3.3201 0
M  V30 180 H 13.218 2.07034 -3.11469 0
M  V30 181 H 15.51 4.71457 -4.86554 0
M  V30 182 H 16.453 3.7231 -6.02321 0
M  V30 183 H 16.861 3.67806 -4.28228 0
M  V30 184 N 16.2591 1.48442 0.529413 0
M  V30 185 C 17.5071 1.56179 1.28267 0
M  V30 186 C 17.8281 0.237721 1.93546 0
M  V30 187 O 17.0981 -0.740779 1.81354 0
M  V30 188 H 15.6781 0.575367 0.476405 0
M  V30 189 H 18.3401 1.84909 0.61602 0
M  V30 190 H 17.4361 2.34312 2.06165 0
M  V30 191 N 17.7372 -0.778329 1.37039 0
M  V30 192 C 18.9772 -1.54973 1.33276 0
M  V30 193 C 19.3412 -1.91816 -0.0839376 0
M  V30 194 O 20.5422 -2.6767 -0.246228 0
M  V30 195 C 18.8132 -2.78517 2.23971 0
M  V30 196 S 20.3722 -3.6865 2.37997 0
M  V30 197 H 17.1902 -0.530639 0.473226 0
M  V30 198 H 19.7922 -0.915806 1.72723 0
M  V30 199 H 18.4962 -2.4952 3.25835 0
M  V30 200 H 18.0272 -3.46875 1.85584 0
M  V30 201 H 20.0422 -4.70182 1.58567 0
M  V30 202 N 19.2153 -1.21501 -1.00376 0
M  V30 203 C 20.1453 -0.999478 -2.11028 0
M  V30 204 C 21.1263 0.0759671 -1.6993 0
M  V30 205 O 22.3113 -0.0841106 -1.94018 0
M  V30 206 C 19.4413 -0.564709 -3.42678 0
M  V30 207 C 18.3953 -1.58486 -3.97576 0
M  V30 208 C 17.7213 -1.00628 -5.25146 0
M  V30 209 C 19.0213 -2.97204 -4.29496 0
M  V30 210 H 20.7153 -1.92495 -2.29317 0
M  V30 211 H 18.2613 -0.92693 -1.102 0
M  V30 212 H 20.2143 -0.401091 -4.19487 0
M  V30 213 H 18.9383 0.396411 -3.24185 0
M  V30 214 H 17.5973 -1.73606 -3.22888 0
M  V30 215 H 17.2453 -0.0368439 -5.02987 0
M  V30 216 H 16.9453 -1.68771 -5.62841 0
M  V30 217 H 18.4693 -0.854015 -6.04598 0
M  V30 218 H 19.8833 -2.8552 -4.97143 0
M  V30 219 H 18.2803 -3.62372 -4.78338 0
M  V30 220 H 19.3503 -3.47956 -3.3772 0
M  V30 221 N 20.6934 1.19889 -1.02296 0
M  V30 222 C 21.9414 1.89046 -0.714558 0
M  V30 223 C 22.2624 1.79636 0.758681 0
M  V30 224 O 21.5324 1.20292 1.54618 0
M  V30 225 H 20.1124 0.699802 -0.261317 0
M  V30 226 H 22.7744 1.45574 -1.29592 0
M  V30 227 H 21.8704 2.95524 -1.0036 0
M  V30 228 N 22.1715 0.800033 1.35784 0
M  V30 229 C 23.4205 0.37387 1.98205 0
M  V30 230 C 23.7335 -1.06302 1.64193 0
M  V30 231 O 24.9395 -1.59198 2.19928 0
M  V30 232 C 23.3955 0.617532 3.54562 0
M  V30 233 C 23.0035 2.06654 3.9749 0
M  V30 234 C 24.7475 0.256401 4.23725 0
M  V30 235 C 22.6545 2.2563 5.46667 0
M  V30 236 H 21.5845 0.136055 0.741623 0
M  V30 237 H 24.2355 0.983166 1.54939 0
M  V30 238 H 22.6175 -0.0616248 3.95952 0
M  V30 239 H 23.7915 2.78296 3.67271 0
M  V30 240 H 22.1065 2.38691 3.41197 0
M  V30 241 H 24.7035 0.376318 5.33374 0
M  V30 242 H 25.0465 -0.796692 4.08606 0
M  V30 243 H 25.5795 0.889214 3.87734 0
M  V30 244 H 22.3185 3.2936 5.66747 0
M  V30 245 H 21.8385 1.58504 5.78478 0
M  V30 246 H 23.5175 2.06861 6.1304 0
M  V30 247 N 23.6496 -1.47581 0.552962 0
M  V30 248 C 24.5596 -2.33743 -0.200353 0
M  V30 249 C 25.5756 -1.47928 -0.916151 0
M  V30 250 O 26.7516 -1.80865 -0.885993 0
M  V30 251 C 23.8166 -3.24536 -1.21973 0
M  V30 252 C 22.8776 -4.26238 -0.511819 0
M  V30 253 C 22.1106 -5.12693 -1.48263 0
M  V30 254 O 22.3336 -5.01525 -2.71714 0
M  V30 255 O 21.2676 -5.93375 -1.00945 0
M  V30 256 H 25.0936 -2.9945 0.506304 0
M  V30 257 H 22.6786 -1.46071 0.313622 0
M  V30 258 H 24.5606 -3.80631 -1.80827 0
M  V30 259 H 23.2356 -2.61462 -1.90839 0
M  V30 260 H 22.1426 -3.73914 0.117799 0
M  V30 261 H 23.4756 -4.92014 0.135308 0
M  V30 262 N 25.1277 -0.289203 -1.54924 0
M  V30 263 C 26.0907 0.579144 -2.21762 0
M  V30 264 C 27.0907 1.07047 -1.1999 0
M  V30 265 O 28.2807 0.968384 -1.44803 0
M  V30 266 C 25.4127 1.80055 -2.8947 0
M  V30 267 H 26.6057 -0.00464908 -2.999 0
M  V30 268 H 24.1587 -0.0399306 -1.56249 0
M  V30 269 H 24.8937 2.42449 -2.15381 0
M  V30 270 H 24.6787 1.45602 -3.64064 0
M  V30 271 H 26.1687 2.41773 -3.40493 0
M  V30 272 N 26.6058 1.57591 -0.0167156 0
M  V30 273 C 27.5358 2.12496 0.967858 0
M  V30 274 C 28.5168 1.03807 1.34752 0
M  V30 275 O 29.7018 1.31577 1.42833 0
M  V30 276 C 26.8318 2.64194 2.25431 0
M  V30 277 C 25.7858 3.77559 2.01576 0
M  V30 278 C 25.1118 4.15636 3.36379 0
M  V30 279 C 26.4118 5.04151 1.36489 0
M  V30 280 H 28.1058 2.95013 0.510643 0
M  V30 281 H 25.6518 1.41915 0.244181 0
M  V30 282 H 27.6048 3.01236 2.94678 0
M  V30 283 H 26.3288 1.78821 2.73296 0
M  V30 284 H 24.9878 3.40937 1.34751 0
M  V30 285 H 24.6358 3.27263 3.81979 0
M  V30 286 H 24.3358 4.92022 3.21229 0
M  V30 287 H 25.8598 4.5525 4.06915 0
M  V30 288 H 27.2738 5.38857 1.95718 0
M  V30 289 H 25.6708 5.85453 1.31776 0
M  V30 290 H 26.7408 4.83733 0.336219 0
M  V30 291 N 28.0839 -0.256276 1.55502 0
M  V30 292 C 29.0139 -1.32102 1.92539 0
M  V30 293 C 29.9949 -1.50684 0.789194 0
M  V30 294 O 31.1799 -1.63449 1.04872 0
M  V30 295 C 28.3099 -2.67752 2.21192 0
M  V30 296 C 27.2639 -2.63878 3.36975 0
M  V30 297 C 26.5899 -4.03236 3.51147 0
M  V30 298 C 27.8899 -2.21682 4.72921 0
M  V30 299 H 29.5839 -1.01351 2.81724 0
M  V30 300 H 27.1299 -0.486105 1.35547 0
M  V30 301 H 29.0829 -3.42365 2.45691 0
M  V30 302 H 27.8069 -3.0012 1.28824 0
M  V30 303 H 26.4659 -1.91722 3.12471 0
M  V30 304 H 26.1139 -4.32854 2.56216 0
M  V30 305 H 25.8139 -4.01535 4.29003 0
M  V30 306 H 27.3379 -4.79563 3.77957 0
M  V30 307 H 28.7519 -2.86023 4.96854 0
M  V30 308 H 27.1489 -2.3111 5.53812 0
M  V30 309 H 28.2189 -1.16833 4.70615 0
M  V30 310 N 29.562 -1.4872 -0.521534 0
M  V30 311 C 30.525 -1.63379 -1.60748 0
M  V30 312 C 31.525 -0.50661 -1.52611 0
M  V30 313 O 32.715 -0.772601 -1.5613 0
M  V30 314 C 29.847 -1.61192 -3.00383 0
M  V30 315 H 31.04 -2.60217 -1.49087 0
M  V30 316 H 28.593 -1.37444 -0.744235 0
M  V30 317 H 29.328 -0.65863 -3.17541 0
M  V30 318 H 29.113 -2.43032 -3.07698 0
M  V30 319 H 30.603 -1.7466 -3.7932 0
M  V30 320 N 31.0401 0.771051 -1.3745 0
M  V30 321 C 32.0031 1.86598 -1.33093 0
M  V30 322 C 33.0031 1.59076 -0.234845 0
M  V30 323 O 34.1931 1.67145 -0.490732 0
M  V30 324 C 31.3251 3.23747 -1.06773 0
M  V30 325 H 32.5181 1.91873 -2.30488 0
M  V30 326 H 30.0711 0.970876 -1.2249 0
M  V30 327 H 30.8061 3.24148 -0.099129 0
M  V30 328 H 30.5911 3.45115 -1.86112 0
M  V30 329 H 32.0811 4.03824 -1.06377 0
M  V30 330 N 32.5182 1.22032 0.997298 0
M  V30 331 C 33.7662 1.04016 1.73278 0
M  V30 332 C 34.0872 -0.426255 1.90284 0
M  V30 333 O 33.3572 -1.30694 1.45931 0
M  V30 334 H 31.9372 0.381897 0.642 0
M  V30 335 H 34.5992 1.5347 1.20137 0
M  V30 336 H 33.6952 1.51441 2.72896 0
M  V30 337 N 33.9963 -1.19345 1.0293 0
M  V30 338 C 35.2263 -1.92717 0.744563 0
M  V30 339 C 35.6343 -1.75751 -0.700579 0
M  V30 340 O 34.9773 -1.07703 -1.48815 0
M  V30 341 C 35.0393 -3.44828 1.01657 0
M  V30 342 C 34.7033 -3.85564 2.45335 0
M  V30 343 C 35.7003 -3.90286 3.43472 0
M  V30 344 C 33.3853 -4.1719 2.79746 0
M  V30 345 C 35.3793 -4.26065 4.74075 0
M  V30 346 C 33.0663 -4.52642 4.10559 0
M  V30 347 C 34.0643 -4.57054 5.07534 0
M  V30 348 O 33.7523 -4.91685 6.36004 0
M  V30 349 H 33.4843 -0.618977 0.271742 0
M  V30 350 H 36.0383 -1.52415 1.37691 0
M  V30 351 H 34.2683 -3.85314 0.327084 0
M  V30 352 H 35.9573 -3.99437 0.721427 0
M  V30 353 H 36.7233 -3.66002 3.18225 0
M  V30 354 H 32.6023 -4.1294 2.04943 0
M  V30 355 H 36.1463 -4.29423 5.49765 0
M  V30 356 H 32.0433 -4.76383 4.35579 0
M  V30 357 H 32.8113 -5.09631 6.40483 0
M  V30 358 N 35.4744 -0.807222 -1.35358 0
M  V30 359 C 36.3844 -0.219594 -2.3357 0
M  V30 360 C 37.4004 0.637734 -1.61892 0
M  V30 361 O 38.5764 0.549336 -1.93763 0
M  V30 362 C 35.6414 0.62158 -3.41083 0
M  V30 363 C 34.7024 -0.256315 -4.28534 0
M  V30 364 C 33.9354 0.544807 -5.30912 0
M  V30 365 O 34.1584 1.77944 -5.41934 0
M  V30 366 O 33.0924 -0.0646478 -6.01865 0
M  V30 367 H 36.9184 -1.03208 -2.85625 0
M  V30 368 H 34.5034 -0.569025 -1.38139 0
M  V30 369 H 36.3854 1.10067 -4.06772 0
M  V30 370 H 35.0604 1.41165 -2.91297 0
M  V30 371 H 33.9674 -0.782559 -3.65823 0
M  V30 372 H 35.3004 -1.01034 -4.81719 0
M  V30 373 N 36.9525 1.47285 -0.560781 0
M  V30 374 C 38.2015 2.01668 -0.035895 0
M  V30 375 C 38.5145 1.44021 1.32353 0
M  V30 376 O 39.7205 1.90088 1.93853 0
M  V30 377 C 38.1765 3.59897 -0.0136659 0
M  V30 378 C 37.7845 4.26536 -1.37006 0
M  V30 379 C 39.5285 4.22017 0.458425 0
M  V30 380 C 37.4355 5.76782 -1.30675 0
M  V30 381 H 36.3655 0.753938 -0.00964879 0
M  V30 382 H 39.0165 1.69243 -0.709166 0
M  V30 383 H 37.3985 3.89301 0.725325 0
M  V30 384 H 38.5725 4.0877 -2.12705 0
M  V30 385 H 36.8875 3.76419 -1.78038 0
M  V30 386 H 39.4845 5.32124 0.524247 0
M  V30 387 H 39.8275 3.89437 1.4712 0
M  V30 388 H 40.3605 3.97159 -0.225818 0
M  V30 389 H 37.0995 6.13988 -2.29564 0
M  V30 390 H 36.6195 5.96875 -0.591622 0
M  V30 391 H 38.2985 6.39063 -1.01033 0
M  V30 392 N 38.4306 0.297415 1.54768 0
M  V30 393 C 39.6556 -0.318435 2.04941 0
M  V30 394 C 40.0806 -1.4701 1.17345 0
M  V30 395 O 39.4386 -1.80436 0.176758 0
M  V30 396 C 39.4866 -0.755749 3.52592 0
M  V30 397 O 38.5906 -1.86088 3.68028 0
M  V30 398 H 37.9316 -0.062421 0.661059 0
M  V30 399 H 40.4616 0.438215 1.99852 0
M  V30 400 H 40.4716 -1.04552 3.94376 0
M  V30 401 H 39.1466 0.0867233 4.1581 0
M  V30 402 H 37.7236 -1.57193 3.38149 0
M  V30 403 N 39.9087 -1.5758 0.0250728 0
M  V30 404 C 40.8717 -2.08896 -0.943139 0
M  V30 405 C 41.8717 -1.00321 -1.25668 0
M  V30 406 O 43.0617 -1.26495 -1.19769 0
M  V30 407 C 40.1937 -2.55143 -2.26086 0
M  V30 408 H 41.3867 -2.95723 -0.498775 0
M  V30 409 H 38.9397 -1.54703 -0.222888 0
M  V30 410 H 39.6747 -1.71633 -2.75159 0
M  V30 411 H 39.4597 -3.34461 -2.04641 0
M  V30 412 H 40.9497 -2.95083 -2.95492 0
M  V30 413 N 41.3868 0.248026 -1.55636 0
M  V30 414 C 42.6358 0.974134 -1.76617 0
M  V30 415 C 42.9488 1.86528 -0.588796 0
M  V30 416 O 44.1548 2.62805 -0.681594 0
M  V30 417 C 42.6108 1.78213 -3.12679 0
M  V30 418 C 42.2188 0.93843 -4.38061 0
M  V30 419 C 43.9628 2.50104 -3.42999 0
M  V30 420 C 41.8698 1.74225 -5.65155 0
M  V30 421 H 40.7998 0.36745 -0.658405 0
M  V30 422 H 43.4508 0.22884 -1.82067 0
M  V30 423 H 41.8328 2.56933 -3.01333 0
M  V30 424 H 43.0068 0.193635 -4.60393 0
M  V30 425 H 41.3218 0.332905 -4.15067 0
M  V30 426 H 43.9188 3.10694 -4.3517 0
M  V30 427 H 44.2618 3.21662 -2.64271 0
M  V30 428 H 44.7948 1.78395 -3.55556 0
M  V30 429 H 41.5338 1.07043 -6.46701 0
M  V30 430 H 41.0538 2.46235 -5.46926 0
M  V30 431 H 42.7328 2.30967 -6.0437 0
M  V30 432 N 42.8649 1.48995 0.513639 0
M  V30 433 C 44.1119 1.57843 1.26854 0
M  V30 434 C 44.4399 0.259501 1.92761 0
M  V30 435 O 43.6949 -0.75159 1.80692 0
M  V30 436 C 43.9939 2.67756 2.36731 0
M  V30 437 C 43.6599 4.09669 1.88368 0
M  V30 438 C 42.3219 4.48291 1.74896 0
M  V30 439 C 44.6739 4.98537 1.52021 0
M  V30 440 C 42.0019 5.73568 1.23438 0
M  V30 441 C 44.3539 6.24319 1.0202 0
M  V30 442 C 43.0179 6.61783 0.871778 0
M  V30 443 H 42.2879 0.577587 0.464192 0
M  V30 444 H 44.9349 1.82778 0.571366 0
M  V30 445 H 43.2399 2.36743 3.12185 0
M  V30 446 H 44.9369 2.71813 2.9482 0
M  V30 447 H 41.5269 3.79176 1.99808 0
M  V30 448 H 45.7109 4.69363 1.61281 0
M  V30 449 H 40.9669 6.01304 1.10648 0
M  V30 450 H 45.1409 6.92566 0.729722 0
M  V30 451 H 42.7679 7.5874 0.470852 0
M  V30 452 N 44.343 -0.763751 1.37857 0
M  V30 453 C 45.571 -1.55293 1.36718 0
M  V30 454 C 45.986 -1.88745 -0.0455434 0
M  V30 455 O 45.343 -1.52039 -1.00947 0
M  V30 456 C 45.394 -2.85831 2.2132 0
M  V30 457 O 45.115 -2.5381 3.57089 0
M  V30 458 C 46.616 -3.80023 2.28249 0
M  V30 459 H 43.836 -0.480841 0.468009 0
M  V30 460 H 46.38 -0.946009 1.81303 0
M  V30 461 H 44.535 -3.42926 1.80223 0
M  V30 462 H 44.949 -3.37459 4.01524 0
M  V30 463 H 46.423 -4.68599 2.91752 0
M  V30 464 H 46.9 -4.1973 1.2932 0
M  V30 465 H 47.506 -3.28855 2.69693 0
M  V30 466 N 45.8211 -1.22559 -0.990812 0
M  V30 467 C 46.7711 -0.964807 -2.0658 0
M  V30 468 C 47.7551 0.0853472 -1.60673 0
M  V30 469 O 48.9471 -0.125443 -1.76555 0
M  V30 470 C 46.0761 -0.546707 -3.38919 0
M  V30 471 C 45.1621 -1.6317 -3.91454 0
M  V30 472 N 45.5531 -2.85985 -4.17189 0
M  V30 473 C 43.8511 -1.50387 -4.19881 0
M  V30 474 C 44.5521 -3.56159 -4.59919 0
M  V30 475 N 43.5281 -2.83637 -4.63736 0
M  V30 476 H 47.3301 -1.89769 -2.24421 0
M  V30 477 H 44.8441 -1.12343 -1.17273 0
M  V30 478 H 46.8411 -0.34119 -4.15502 0
M  V30 479 H 45.5011 0.379254 -3.22478 0
M  V30 480 H 46.5121 -3.22392 -4.05319 0
M  V30 481 H 43.1891 -0.644254 -4.12499 0
M  V30 482 H 44.5791 -4.6139 -4.88435 0
M  V30 483 N 47.2992 1.18797 -1.03562 0
M  V30 484 C 48.5272 1.92599 -0.755869 0
M  V30 485 C 48.9422 1.75886 0.686271 0
M  V30 486 O 48.2992 1.08517 1.46732 0
M  V30 487 C 48.3502 3.44159 -1.10619 0
M  V30 488 O 48.0712 3.60341 -2.4917 0
M  V30 489 C 49.5722 4.3507 -0.850214 0
M  V30 490 H 46.7922 0.611587 -0.276048 0
M  V30 491 H 49.3362 1.50742 -1.38192 0
M  V30 492 H 47.4912 3.83823 -0.525194 0
M  V30 493 H 47.9052 4.54128 -2.62427 0
M  V30 494 H 49.3792 5.39989 -1.14523 0
M  V30 495 H 49.8562 4.38673 0.215176 0
M  V30 496 H 50.4622 4.01097 -1.41426 0
M  V30 497 N 48.7773 0.814389 1.34928 0
M  V30 498 C 50.0543 0.321363 1.92942 0
M  V30 499 C 50.4343 -1.19014 1.74353 0
M  V30 500 O 49.7823 -1.99328 1.11716 0
M  V30 501 C 49.9923 0.741323 3.41036 0
M  V30 502 C 51.3403 0.735266 4.18185 0
M  V30 503 O 52.3643 0.68336 3.49584 0
M  V30 504 O 51.2233 0.800703 5.40602 0
M  V30 505 H 48.3173 0.0858893 0.822528 0
M  V30 506 H 50.8633 0.898609 1.43955 0
M  V30 507 H 49.6353 1.78276 3.4833 0
M  V30 508 H 49.2583 0.139307 3.97356 0
M  V30 509 N 50.2554 -1.46986 0.568584 0
M  V30 510 C 51.2034 -2.31858 -0.185649 0
M  V30 511 C 52.1974 -1.43624 -0.898249 0
M  V30 512 O 53.4034 -1.60327 -0.818242 0
M  V30 513 H 49.7784 -0.747866 -0.0787399 0
M  V30 514 H 51.7494 -2.93303 0.549191 0
M  V30 515 C 50.4984 -3.26513 -1.19519 0
M  V30 516 H 49.8214 -3.94377 -0.656285 0
M  V30 517 H 51.2614 -3.88707 -1.6936 0
M  V30 518 C 49.7204 -2.50847 -2.24894 0
M  V30 519 O 50.2504 -2.26119 -3.32014 0
M  V30 520 N 48.4564 -2.11656 -1.99124 0
M  V30 521 H 48.0034 -2.31966 -1.12024 0
M  V30 522 H 47.9614 -1.61347 -2.69842 0
M  V30 523 N 51.7335 -0.305618 -1.54608 0
M  V30 524 C 53.1445 0.186098 -1.8577 0
M  V30 525 C 53.4955 1.53058 -1.22751 0
M  V30 526 O 52.6205 2.09888 -0.526893 0
M  V30 527 C 53.2155 0.344449 -3.37044 0
M  V30 528 C 51.7745 0.780384 -3.68221 0
M  V30 529 C 50.9215 -0.108554 -2.77087 0
M  V30 530 H 53.8725 -0.526485 -1.49712 0
M  V30 531 H 53.8935 1.17828 -3.61796 0
M  V30 532 H 53.4055 -0.634235 -3.82883 0
M  V30 533 H 51.5065 1.76945 -3.27904 0
M  V30 534 H 51.6195 0.596572 -4.75371 0
M  V30 535 H 49.9835 0.412931 -2.5133 0
M  V30 536 H 50.7665 -1.08368 -3.25747 0
M  V30 537 N 53.2116 1.57565 -0.0334293 0
M  V30 538 C 54.4596 1.91598 0.642999 0
M  V30 539 C 54.7806 0.910847 1.7242 0
M  V30 540 O 54.0506 -0.0469931 1.95844 0
M  V30 541 H 52.6306 0.707228 0.240496 0
M  V30 542 H 55.2926 1.94726 -0.0822488 0
M  V30 543 H 54.3886 2.92336 1.09298 0
M  V30 544 N 54.6897 -0.239769 1.55765 0
M  V30 545 C 55.5997 -1.31831 1.94056 0
M  V30 546 C 56.6157 -1.52275 0.841925 0
M  V30 547 O 57.7917 -1.65759 1.14394 0
M  V30 548 C 54.8567 -2.65156 2.23368 0
M  V30 549 C 53.9177 -2.53173 3.46701 0
M  V30 550 C 53.1507 -3.8014 3.74606 0
M  V30 551 O 53.3737 -4.82343 3.04469 0
M  V30 552 O 52.3077 -3.78344 4.68123 0
M  V30 553 H 56.1337 -1.02347 2.85935 0
M  V30 554 H 53.7187 -0.441123 1.42739 0
M  V30 555 H 55.6007 -3.43929 2.43497 0
M  V30 556 H 54.2757 -2.94358 1.34666 0
M  V30 557 H 53.1827 -1.72662 3.31871 0
M  V30 558 H 54.5157 -2.28915 4.35728 0
M  V30 559 N 56.1678 -1.49265 -0.50573 0
M  V30 560 C 57.1148 -1.65585 -1.6078 0
M  V30 561 C 58.0848 -0.497396 -1.58478 0
M  V30 562 O 59.2698 -0.72385 -1.76536 0
M  V30 563 C 56.4098 -1.72408 -2.98948 0
M  V30 564 C 55.5228 -2.99525 -3.11301 0
M  V30 565 C 54.6578 -2.97356 -4.40174 0
M  V30 566 C 53.6968 -4.19074 -4.46143 0
M  V30 567 N 52.8338 -4.14841 -5.66437 0
M  V30 568 H 57.6738 -2.59688 -1.46172 0
M  V30 569 H 55.2108 -1.28761 -0.711261 0
M  V30 570 H 57.1688 -1.74344 -3.79025 0
M  V30 571 H 55.7988 -0.817753 -3.1227 0
M  V30 572 H 54.8508 -3.07222 -2.24318 0
M  V30 573 H 56.1628 -3.89518 -3.11572 0
M  V30 574 H 55.3168 -2.97829 -5.28567 0
M  V30 575 H 54.0558 -2.05133 -4.42461 0
M  V30 576 H 53.0608 -4.1885 -3.56153 0
M  V30 577 H 54.2858 -5.12483 -4.45575 0
M  V30 578 H 52.2318 -3.25453 -5.69575 0
M  V30 579 H 52.1488 -4.98564 -5.68304 0
M  V30 580 H 53.4168 -4.1941 -6.57051 0
M  V30 581 N 57.6459 0.756429 -1.3826 0
M  V30 582 C 58.6089 1.85176 -1.35065 0
M  V30 583 C 59.6089 1.58818 -0.251703 0
M  V30 584 O 60.7989 1.66615 -0.508433 0
M  V30 585 C 57.9309 3.22596 -1.10201 0
M  V30 586 H 59.1239 1.89417 -2.3251 0
M  V30 587 H 56.6769 0.95783 -1.23512 0
M  V30 588 H 57.4119 3.24025 -0.133504 0
M  V30 589 H 57.1969 3.43122 -1.89762 0
M  V30 590 H 58.6869 4.02673 -1.10654 0
M  V30 591 N 59.124 1.23083 0.984299 0
M  V30 592 C 60.371 1.06057 1.72505 0
M  V30 593 C 60.699 -0.403105 1.90277 0
M  V30 594 O 59.954 -1.3149 1.44944 0
M  V30 595 C 60.253 1.72673 3.1292 0
M  V30 596 C 59.919 3.22586 3.15038 0
M  V30 597 C 58.581 3.63489 3.15324 0
M  V30 598 C 60.933 4.185 3.10657 0
M  V30 599 C 58.261 4.98772 3.08939 0
M  V30 600 C 60.613 5.53769 3.05814 0
M  V30 601 C 59.277 5.94041 3.04419 0
M  V30 602 H 58.547 0.388091 0.631242 0
M  V30 603 H 61.194 1.52963 1.15215 0
M  V30 604 H 59.499 1.18116 3.73572 0
M  V30 605 H 61.196 1.56982 3.68996 0
M  V30 606 H 57.786 2.90022 3.15571 0
M  V30 607 H 61.97 3.87911 3.09579 0
M  V30 608 H 57.226 5.29193 3.0621 0
M  V30 609 H 61.4 6.27808 3.0138 0
M  V30 610 H 59.027 6.98833 2.99227 0
M  V30 611 N 60.6021 -1.18246 1.0419 0
M  V30 612 C 61.8321 -1.91916 0.764961 0
M  V30 613 C 62.2401 -1.76485 -0.681898 0
M  V30 614 O 61.5831 -1.09275 -1.47664 0
M  V30 615 C 61.6451 -3.4373 1.05309 0
M  V30 616 C 61.3091 -3.8294 2.4941 0
M  V30 617 C 62.3061 -3.86621 3.47592 0
M  V30 618 C 59.9911 -4.142 2.84155 0
M  V30 619 C 61.9851 -4.21013 4.78568 0
M  V30 620 C 59.6721 -4.48262 4.15337 0
M  V30 621 C 60.6701 -4.51645 5.12353 0
M  V30 622 O 60.3581 -4.84911 6.41183 0
M  V30 623 H 60.0901 -0.61606 0.278292 0
M  V30 624 H 62.6441 -1.50947 1.39299 0
M  V30 625 H 60.8741 -3.84946 0.367933 0
M  V30 626 H 62.5631 -3.9865 0.763752 0
M  V30 627 H 63.3291 -3.62607 3.22089 0
M  V30 628 H 59.2081 -4.10743 2.09311 0
M  V30 629 H 62.7521 -4.23568 5.54289 0
M  V30 630 H 58.6491 -4.71737 4.40607 0
M  V30 631 H 59.4171 -5.02809 6.45852 0
M  V30 632 N 62.0802 -0.821533 -1.34494 0
M  V30 633 C 63.3282 -0.408139 -1.97936 0
M  V30 634 C 63.6492 1.03193 -1.65457 0
M  V30 635 O 62.9192 1.71622 -0.944595 0
M  V30 636 H 61.4992 -0.147928 -0.732206 0
M  V30 637 H 64.1612 -1.05067 -1.64155 0
M  V30 638 H 63.2572 -0.52601 -3.07635 0
M  V30 639 N 63.5583 1.46682 -0.576371 0
M  V30 640 C 64.7833 2.07304 -0.0630475 0
M  V30 641 C 65.2083 1.42329 1.2298 0
M  V30 642 O 64.5663 0.504865 1.74129 0
M  V30 643 C 64.6143 3.60472 0.095895 0
M  V30 644 O 63.7183 3.95927 1.15394 0
M  V30 645 H 63.0593 0.661288 -0.0599463 0
M  V30 646 H 65.5893 1.88417 -0.797511 0
M  V30 647 H 65.5993 4.06865 0.304071 0
M  V30 648 H 64.2743 4.07157 -0.84828 0
M  V30 649 H 62.8513 3.61252 0.924724 0
M  V30 650 N 65.0364 0.313813 1.54444 0
M  V30 651 C 66.2824 -0.292108 2.00685 0
M  V30 652 C 66.6154 -1.52548 1.20177 0
M  V30 653 O 65.8904 -1.92452 0.281531 0
M  V30 654 C 66.1734 -0.635968 3.5444 0
M  V30 655 C 66.0264 0.607437 4.4568 0
M  V30 656 C 67.3454 -1.45747 4.15266 0
M  V30 657 H 64.4644 -0.104697 0.729526 0
M  V30 658 H 67.1064 0.428457 1.85106 0
M  V30 659 H 65.2564 -1.24986 3.67846 0
M  V30 660 H 66.9284 1.24581 4.44159 0
M  V30 661 H 65.1714 1.23822 4.15753 0
M  V30 662 H 65.8424 0.322515 5.51057 0
M  V30 663 H 68.3184 -0.938645 4.05375 0
M  V30 664 H 67.1944 -1.66683 5.2298 0
M  V30 665 H 67.4554 -2.45063 3.67963 0
M  V30 666 N 66.5145 -1.57545 0.0417849 0
M  V30 667 C 67.4775 -2.09885 -0.92093 0
M  V30 668 C 68.4775 -1.01648 -1.24596 0
M  V30 669 O 69.6675 -1.27759 -1.1842 0
M  V30 670 C 66.7995 -2.57527 -2.23367 0
M  V30 671 H 67.9925 -2.96236 -0.467382 0
M  V30 672 H 65.5455 -1.5493 -0.206467 0
M  V30 673 H 66.2805 -1.74542 -2.73323 0
M  V30 674 H 66.0655 -3.36613 -2.01083 0
M  V30 675 H 67.5555 -2.98201 -2.92346 0
M  V30 676 N 67.9926 0.231505 -1.5589 0
M  V30 677 C 69.4086 0.580748 -1.48659 0
M  V30 678 C 69.6086 1.87617 -0.73498 0
M  V30 679 O 68.6646 2.51046 -0.270586 0
M  V30 680 C 69.9776 0.669202 -2.93159 0
M  V30 681 C 71.5256 0.760499 -3.03621 0
M  V30 682 C 72.0006 0.880383 -4.49459 0
M  V30 683 N 73.4916 0.944861 -4.53461 0
M  V30 684 C 74.2266 1.05716 -5.63571 0
M  V30 685 N 73.7226 1.13403 -6.83456 0
M  V30 686 N 75.5156 1.09152 -5.514 0
M  V30 687 H 67.6666 -0.618695 -2.03189 0
M  V30 688 H 69.9296 -0.215728 -0.923128 0
M  V30 689 H 69.6356 -0.212904 -3.51055 0
M  V30 690 H 69.5096 1.5361 -3.44505 0
M  V30 691 H 71.8966 1.63305 -2.45796 0
M  V30 692 H 71.9776 -0.131864 -2.5546 0
M  V30 693 H 71.6216 0.0123284 -5.07899 0
M  V30 694 H 71.5516 1.78802 -4.95316 0
M  V30 695 H 74.0426 0.896176 -3.6712 0
M  V30 696 H 74.3556 1.21921 -7.63122 0
M  V30 697 H 72.7006 1.10333 -6.86186 0
M  V30 698 H 75.8916 1.02805 -4.56671 0
M  V30 699 H 76.0646 1.17558 -6.37247 0
M  V30 700 N 69.4707 1.49531 0.497807 0
M  V30 701 C 70.4007 1.6935 1.60757 0
M  V30 702 C 71.3817 0.542218 1.61227 0
M  V30 703 O 72.5667 0.778417 1.77917 0
M  V30 704 C 69.6967 1.76298 2.99226 0
M  V30 705 C 68.6507 2.91248 3.13622 0
M  V30 706 C 67.9767 2.83312 4.53474 0
M  V30 707 C 69.2767 4.3214 2.93346 0
M  V30 708 H 70.9707 2.62263 1.44425 0
M  V30 709 H 68.5167 1.26208 0.693367 0
M  V30 710 H 70.4697 1.88749 3.76765 0
M  V30 711 H 69.1937 0.799871 3.16654 0
M  V30 712 H 67.8527 2.78404 2.38509 0
M  V30 713 H 67.5007 1.84902 4.67782 0
M  V30 714 H 67.2007 3.60465 4.64046 0
M  V30 715 H 68.7247 2.97775 5.33069 0
M  V30 716 H 70.1387 4.45649 3.60652 0
M  V30 717 H 68.5357 5.1054 3.15387 0
M  V30 718 H 69.6057 4.46363 1.89441 0
M  V30 719 N 70.9488 -0.749086 1.3866 0
M  V30 720 C 71.9118 -1.84457 1.36045 0
M  V30 721 C 72.9118 -1.58682 0.260122 0
M  V30 722 O 74.1018 -1.66343 0.517261 0
M  V30 723 C 71.2338 -3.22008 1.11911 0
M  V30 724 H 72.4268 -1.88182 2.33512 0
M  V30 725 H 69.9798 -0.951266 1.24019 0
M  V30 726 H 70.7148 -3.2395 0.150686 0
M  V30 727 H 70.4998 -3.42111 1.91579 0
M  V30 728 H 71.9898 -4.0208 1.12788 0
M  V30 729 N 72.4269 -1.23603 -0.977757 0
M  V30 730 C 73.3899 -1.02069 -2.05218 0
M  V30 731 C 74.3899 0.0184305 -1.60789 0
M  V30 732 O 75.5799 -0.221569 -1.72785 0
M  V30 733 C 72.7119 -0.544926 -3.36517 0
M  V30 734 H 73.9049 -1.9742 -2.25755 0
M  V30 735 H 71.4579 -1.05684 -1.15155 0
M  V30 736 H 72.1929 0.412241 -3.21669 0
M  V30 737 H 71.9779 -1.2948 -3.70105 0
M  V30 738 H 73.4679 -0.414985 -4.15533 0
M  V30 739 N 73.905 1.17692 -1.04816 0
M  V30 740 C 74.815 2.25229 -0.65643 0
M  V30 741 C 75.831 1.71018 0.320761 0
M  V30 742 O 77.007 2.00649 0.173805 0
M  V30 743 C 74.072 3.46684 -0.0332629 0
M  V30 744 C 73.133 4.15997 -1.06042 0
M  V30 745 C 72.366 5.31654 -0.466893 0
M  V30 746 O 72.589 5.65777 0.724758 0
M  V30 747 O 71.523 5.89831 -1.1993 0
M  V30 748 H 75.349 2.61016 -1.55255 0
M  V30 749 H 72.934 1.24919 -0.81949 0
M  V30 750 H 74.816 4.20234 0.313256 0
M  V30 751 H 73.491 3.12703 0.836566 0
M  V30 752 H 72.398 3.44482 -1.45886 0
M  V30 753 H 73.731 4.53996 -1.90127 0
M  V30 754 N 75.3831 0.828654 1.34056 0
M  V30 755 C 76.7991 0.515135 1.51058 0
M  V30 756 C 76.9991 -0.959581 1.77184 0
M  V30 757 O 76.0551 -1.74382 1.82612 0
M  V30 758 C 77.3681 1.37963 2.67183 0
M  V30 759 C 78.9161 1.37735 2.81066 0
M  V30 760 C 79.3911 2.22645 4.00241 0
M  V30 761 N 80.8821 2.203 4.07458 0
M  V30 762 C 81.6171 2.82744 4.98842 0
M  V30 763 N 81.1131 3.54201 5.9541 0
M  V30 764 N 82.9061 2.72268 4.91759 0
M  V30 765 H 75.0571 1.78343 1.15358 0
M  V30 766 H 77.3201 0.760304 0.566252 0
M  V30 767 H 77.0261 2.42714 2.54525 0
M  V30 768 H 76.9001 1.0484 3.62338 0
M  V30 769 H 79.2871 0.337593 2.93163 0
M  V30 770 H 79.3681 1.74859 1.86703 0
M  V30 771 H 79.0121 3.26674 3.88905 0
M  V30 772 H 78.9421 1.82869 4.93829 0
M  V30 773 H 81.4331 1.68327 3.38341 0
M  V30 774 H 81.7461 3.9908 6.61782 0
M  V30 775 H 80.0911 3.58308 5.95517 0
M  V30 776 H 83.2821 2.16014 4.15278 0
M  V30 777 H 83.4551 3.21219 5.62781 0
M  V30 778 N 76.8612 -1.46375 0.584142 0
M  V30 779 C 78.1092 -2.01978 0.0701287 0
M  V30 780 C 78.4302 -1.4579 -1.295 0
M  V30 781 O 77.7002 -0.64314 -1.85042 0
M  V30 782 H 76.2802 -0.746648 0.0229345 0
M  V30 783 H 78.9422 -1.79461 0.760245 0
M  V30 784 H 78.0382 -3.121 0.0022064 0
M  V30 785 N 78.3393 -0.321999 -1.54275 0
M  V30 786 C 79.5883 0.281931 -1.9972 0
M  V30 787 C 79.9013 1.53369 -1.21397 0
M  V30 788 O 81.1073 2.21352 -1.57211 0
M  V30 789 C 79.5633 0.5529 -3.55628 0
M  V30 790 C 79.1713 -0.681721 -4.42783 0
M  V30 791 C 80.9153 1.11687 -4.09544 0
M  V30 792 C 78.8223 -0.382742 -5.9016 0
M  V30 793 H 77.7523 0.109124 -0.746062 0
M  V30 794 H 80.4033 -0.43398 -1.78294 0
M  V30 795 H 78.7853 1.32896 -3.73035 0
M  V30 796 H 79.9593 -1.45723 -4.37151 0
M  V30 797 H 78.2743 -1.1658 -3.99748 0
M  V30 798 H 80.8713 1.35515 -5.17242 0
M  V30 799 H 81.2143 2.06575 -3.61431 0
M  V30 800 H 81.7473 0.402032 -3.95763 0
M  V30 801 H 78.4863 -1.30076 -6.42464 0
M  V30 802 H 78.0063 0.355094 -5.98748 0
M  V30 803 H 79.6853 0.00800157 -6.47 0
M  V30 804 N 79.8174 1.5752 -0.0501392 0
M  V30 805 C 81.2284 1.80271 0.485705 0
M  V30 806 C 81.5794 0.96228 1.70981 0
M  V30 807 O 80.7044 0.178578 2.15662 0
M  V30 808 C 81.2994 3.26957 0.887938 0
M  V30 809 C 79.8584 3.5063 1.36877 0
M  V30 810 C 79.0054 2.75165 0.343468 0
M  V30 811 H 81.9564 1.56281 -0.276028 0
M  V30 812 H 81.9774 3.37821 1.75093 0
M  V30 813 H 81.4894 3.881 -0.0031809 0
M  V30 814 H 79.5904 2.94766 2.27911 0
M  V30 815 H 79.7034 4.59343 1.36164 0
M  V30 816 H 78.0674 2.4127 0.816128 0
M  V30 817 H 78.8504 3.39034 -0.539548 0
M  V30 818 N 81.2955 -0.223234 1.56011 0
M  V30 819 C 82.5415 -0.949279 1.79211 0
M  V30 820 C 82.8745 -1.84054 0.619494 0
M  V30 821 O 82.1495 -1.90726 -0.381317 0
M  V30 822 C 82.4325 -1.78965 3.12479 0
M  V30 823 C 82.2855 -0.924997 4.40186 0
M  V30 824 C 83.6045 -2.76774 3.42175 0
M  V30 825 H 80.7235 -0.343676 0.651963 0
M  V30 826 H 83.3655 -0.218253 1.88742 0
M  V30 827 H 81.5155 -2.41291 3.04485 0
M  V30 828 H 83.1875 -0.318615 4.60198 0
M  V30 829 H 81.4305 -0.230344 4.33188 0
M  V30 830 H 82.1015 -1.54735 5.29869 0
M  V30 831 H 84.5775 -2.24584 3.50287 0
M  V30 832 H 83.4535 -3.32678 4.36597 0
M  V30 833 H 83.7145 -3.54429 2.64258 0
M  V30 834 N 82.7736 -1.49793 -0.48987 0
M  V30 835 C 84.0036 -1.6333 -1.26518 0
M  V30 836 C 84.4116 -0.308392 -1.8667 0
M  V30 837 O 83.7546 0.717512 -1.69108 0
M  V30 838 C 83.8166 -2.6522 -2.4269 0
M  V30 839 C 83.4806 -4.09279 -2.03321 0
M  V30 840 C 84.4776 -4.95738 -1.56652 0
M  V30 841 C 82.1626 -4.55082 -2.12616 0
M  V30 842 C 84.1566 -6.26041 -1.19795 0
M  V30 843 C 81.8436 -5.85396 -1.75371 0
M  V30 844 C 82.8416 -6.707 -1.29036 0
M  V30 845 O 82.5296 -7.98584 -0.92299 0
M  V30 846 H 82.2616 -0.552502 -0.389509 0
M  V30 847 H 84.8156 -1.96642 -0.593381 0
M  V30 848 H 83.0456 -2.27112 -3.12981 0
M  V30 849 H 84.7346 -2.68171 -3.04695 0
M  V30 850 H 85.5006 -4.61575 -1.48908 0
M  V30 851 H 81.3796 -3.88844 -2.47631 0
M  V30 852 H 84.9236 -6.92578 -0.835582 0
M  V30 853 H 80.8206 -6.19085 -1.82768 0
M  V30 854 H 81.5886 -8.11692 -1.05349 0
M  V30 855 N 84.2517 0.741722 -1.39055 0
M  V30 856 C 85.2147 1.83733 -1.37021 0
M  V30 857 C 86.2147 1.58542 -0.268534 0
M  V30 858 O 87.4047 1.66067 -0.526076 0
M  V30 859 C 84.5367 3.2141 -1.13617 0
M  V30 860 H 85.7297 1.86941 -2.34506 0
M  V30 861 H 83.2827 0.944676 -1.24521 0
M  V30 862 H 84.0177 3.23865 -0.167863 0
M  V30 863 H 83.8027 3.4109 -1.93391 0
M  V30 864 H 85.2927 4.01477 -1.14918 0
M  V30 865 N 85.7298 1.2412 0.971189 0
M  V30 866 C 87.1408 1.07236 1.52831 0
M  V30 867 C 87.4918 -0.357352 1.92918 0
M  V30 868 O 86.6168 -1.24528 1.76979 0
M  V30 869 C 87.2118 1.94043 2.77728 0
M  V30 870 C 85.7708 1.81394 3.29808 0
M  V30 871 C 84.9178 1.89189 2.02738 0
M  V30 872 H 87.8688 1.37648 0.789864 0
M  V30 873 H 87.8898 1.47066 3.5093 0
M  V30 874 H 87.4018 2.98093 2.4852 0
M  V30 875 H 85.5028 0.801634 3.63874 0
M  V30 876 H 85.6158 2.65294 3.98944 0
M  V30 877 H 83.9798 1.32877 2.17292 0
M  V30 878 H 84.7628 2.94812 1.759 0
M  V30 879 N 87.2079 -1.17134 1.05439 0
M  V30 880 C 88.4849 -1.83411 0.679699 0
M  V30 881 C 88.8649 -1.9368 -0.839726 0
M  V30 882 O 88.2129 -1.47325 -1.74664 0
M  V30 883 C 88.4229 -3.20918 1.37159 0
M  V30 884 C 89.7709 -3.96796 1.51123 0
M  V30 885 O 90.7949 -3.30406 1.3308 0
M  V30 886 O 89.6539 -5.15778 1.80651 0
M  V30 887 H 86.7479 -0.79154 0.239569 0
M  V30 888 H 89.2939 -1.24411 1.15413 0
M  V30 889 H 88.0659 -3.08428 2.40807 0
M  V30 890 H 87.6889 -3.87587 0.886674 0
M  V30 891 N 88.686 -0.835752 -1.33615 0
M  V30 892 C 89.634 -0.255238 -2.31195 0
M  V30 893 C 90.628 0.61107 -1.57995 0
M  V30 894 O 91.834 0.500979 -1.72888 0
M  V30 895 H 88.209 -0.0638085 -0.749288 0
M  V30 896 H 90.18 -1.09283 -2.77669 0
M  V30 897 C 88.929 0.55754 -3.43201 0
M  V30 898 H 88.252 -0.0997553 -3.99676 0
M  V30 899 H 89.692 0.929622 -4.13683 0
M  V30 900 C 88.151 1.73515 -2.88781 0
M  V30 901 O 88.681 2.83376 -2.84712 0
M  V30 902 N 86.887 1.55603 -2.4543 0
M  V30 903 H 86.434 0.662354 -2.48939 0
M  V30 904 H 86.392 2.34545 -2.09371 0
M  V30 905 N 90.1641 1.46063 -0.591896 0
M  V30 906 C 91.4101 2.02638 -0.0811191 0
M  V30 907 C 91.7431 1.4613 1.27905 0
M  V30 908 O 91.0181 0.629908 1.84017 0
M  V30 909 C 91.3011 3.60091 -0.0252436 0
M  V30 910 C 91.1541 4.26965 -1.41496 0
M  V30 911 C 92.4731 4.3496 0.670685 0
M  V30 912 H 89.5921 0.73635 -0.0309524 0
M  V30 913 H 92.2341 1.741 -0.760859 0
M  V30 914 H 90.3841 3.84535 0.553624 0
M  V30 915 H 92.0561 4.13756 -2.0397 0
M  V30 916 H 90.2991 3.85971 -1.98011 0
M  V30 917 H 90.9701 5.35781 -1.32825 0
M  V30 918 H 93.4461 4.15716 0.178825 0
M  V30 919 H 92.3221 5.44686 0.678837 0
M  V30 920 H 92.5831 4.06685 1.73379 0
M  V30 921 N 91.6422 0.330177 1.54103 0
M  V30 922 C 92.5902 -0.548226 2.26047 0
M  V30 923 C 93.5842 -1.11309 1.27698 0
M  V30 924 O 94.7902 -1.06036 1.45452 0
M  V30 925 H 91.1652 -0.195456 0.726155 0
M  V30 926 H 93.1362 0.0807567 2.98291 0
M  V30 927 C 91.8852 -1.69415 3.03634 0
M  V30 928 H 91.2082 -1.26876 3.79134 0
M  V30 929 H 92.6482 -2.28423 3.5721 0
M  V30 930 C 91.1072 -2.61569 2.12328 0
M  V30 931 O 91.6372 -3.63462 1.7105 0
M  V30 932 N 89.8432 -2.29952 1.77681 0
M  V30 933 H 89.3902 -1.47134 2.11446 0
M  V30 934 H 89.3482 -2.91871 1.16869 0
M  V30 935 N 93.1203 -1.57491 0.0584922 0
M  V30 936 C 94.0703 -2.08474 -0.923188 0
M  V30 937 C 95.0543 -0.991479 -1.26722 0
M  V30 938 O 96.2463 -1.25473 -1.24842 0
M  V30 939 C 93.3753 -2.6392 -2.19548 0
M  V30 940 C 92.4613 -3.80227 -1.87852 0
M  V30 941 N 92.8523 -4.89714 -1.26546 0
M  V30 942 C 91.1503 -3.89271 -2.17679 0
M  V30 943 C 91.8513 -5.70689 -1.12644 0
M  V30 944 N 90.8273 -5.18531 -1.63176 0
M  V30 945 H 94.6293 -2.90517 -0.444653 0
M  V30 946 H 92.1433 -1.61745 -0.145764 0
M  V30 947 H 94.1403 -2.98752 -2.9078 0
M  V30 948 H 92.8003 -1.83318 -2.68001 0
M  V30 949 H 93.8113 -5.09358 -0.936757 0
M  V30 950 H 90.4883 -3.19623 -2.68602 0
M  V30 951 H 91.8783 -6.6875 -0.6499 0
M  V30 952 N 94.5984 0.214957 -1.56127 0
M  V30 953 C 96.0094 0.781386 -1.69562 0
M  V30 954 C 96.3604 1.84707 -0.66165 0
M  V30 955 O 95.4854 2.156 0.185927 0
M  V30 956 C 96.0804 1.42411 -3.07416 0
M  V30 957 C 94.6394 1.93786 -3.22683 0
M  V30 958 C 93.7864 0.800438 -2.65496 0
M  V30 959 H 96.7374 -0.00980633 -1.58697 0
M  V30 960 H 96.7584 2.29309 -3.0364 0
M  V30 961 H 96.2704 0.64826 -3.82648 0
M  V30 962 H 94.3714 2.74152 -2.52332 0
M  V30 963 H 94.4844 2.1133 -4.29973 0
M  V30 964 H 92.8484 1.2095 -2.2415 0
M  V30 965 H 93.6314 0.0371471 -3.4328 0
M  V30 966 N 96.0765 1.50051 0.48192 0
M  V30 967 C 97.0065 1.71046 1.58951 0
M  V30 968 C 97.9875 0.559288 1.60642 0
M  V30 969 O 99.1725 0.797243 1.77081 0
M  V30 970 C 96.3025 1.79462 2.97339 0
M  V30 971 C 95.2565 2.94558 3.10515 0
M  V30 972 C 94.5825 2.88105 4.50444 0
M  V30 973 C 95.8825 4.35227 2.88747 0
M  V30 974 H 97.5765 2.6378 1.41635 0
M  V30 975 H 95.1225 1.26936 0.679942 0
M  V30 976 H 97.0755 1.92734 3.74742 0
M  V30 977 H 95.7995 0.833412 3.15788 0
M  V30 978 H 94.4585 2.80918 2.35543 0
M  V30 979 H 94.1065 1.89853 4.65795 0
M  V30 980 H 93.8065 3.65366 4.60197 0
M  V30 981 H 95.3305 3.03412 5.29881 0
M  V30 982 H 96.7445 4.49449 3.55905 0
M  V30 983 H 95.1415 5.13856 3.09955 0
M  V30 984 H 96.2115 4.48347 1.84696 0
M  V30 985 N 97.5546 -0.734337 1.39446 0
M  V30 986 C 98.8006 -1.49505 1.37913 0
M  V30 987 C 99.1556 -1.92384 -0.0248416 0
M  V30 988 O 98.4486 -1.6395 -0.991506 0
M  V30 989 C 98.6426 -2.74711 2.28623 0
M  V30 990 C 98.4716 -2.44075 3.777 0
M  V30 991 C 97.2416 -2.36338 4.46623 0
M  V30 992 C 99.4396 -2.09574 4.69663 0
M  V30 993 N 97.4216 -1.9818 5.81032 0
M  V30 994 C 98.7926 -1.81865 5.92727 0
M  V30 995 C 100.848 -1.96048 4.57678 0
M  V30 996 C 99.5506 -1.41992 7.05146 0
M  V30 997 C 101.577 -1.57579 5.7002 0
M  V30 998 C 100.939 -1.30754 6.92158 0
M  V30 999 H 97.0376 -0.545896 0.55993 0
M  V30 1000 H 99.6216 -0.853373 1.75002 0
M  V30 1001 H 97.7926 -3.36657 1.93692 0
M  V30 1002 H 99.5246 -3.40916 2.18078 0
M  V30 1003 H 96.2796 -2.53456 4.00071 0
M  V30 1004 H 96.7036 -1.81691 6.52163 0
M  V30 1005 H 101.346 -2.15455 3.63784 0
M  V30 1006 H 99.0636 -1.21327 7.9894 0
M  V30 1007 H 102.65 -1.47718 5.62735 0
M  V30 1008 H 101.53 -1.01432 7.77612 0
M  V30 1009 N 99.0327 -1.24633 -0.964593 0
M  V30 1010 C 100.279 -1.08949 -1.71049 0
M  V30 1011 C 100.612 0.370302 -1.90637 0
M  V30 1012 O 99.8867 1.27349 -1.47011 0
M  V30 1013 C 100.17 -1.83329 -3.0994 0
M  V30 1014 C 100.023 -3.37077 -2.97824 0
M  V30 1015 C 101.342 -1.60846 -4.09654 0
M  V30 1016 H 98.4607 -0.397178 -0.620821 0
M  V30 1017 H 101.103 -1.5334 -1.12191 0
M  V30 1018 H 99.2527 -1.45597 -3.60186 0
M  V30 1019 H 100.925 -3.84425 -2.5498 0
M  V30 1020 H 99.1677 -3.65298 -2.33965 0
M  V30 1021 H 99.8387 -3.84324 -3.96231 0
M  V30 1022 H 102.315 -1.93674 -3.68279 0
M  V30 1023 H 101.191 -2.1534 -5.04896 0
M  V30 1024 H 101.452 -0.547434 -4.38698 0
M  V30 1025 N 100.511 1.16574 -1.06058 0
M  V30 1026 C 101.421 2.2452 -0.680282 0
M  V30 1027 C 102.437 1.71348 0.302604 0
M  V30 1028 O 103.613 2.00822 0.152513 0
M  V30 1029 C 100.678 3.46629 -0.0700315 0
M  V30 1030 C 99.7388 4.14849 -1.10448 0
M  V30 1031 C 98.9718 5.31129 -0.523256 0
M  V30 1032 O 99.1948 5.66514 0.664709 0
M  V30 1033 O 98.1288 5.88526 -1.26179 0
M  V30 1034 H 101.955 2.59355 -1.58015 0
M  V30 1035 H 99.5398 1.24043 -0.832694 0
M  V30 1036 H 101.422 4.20543 0.268667 0
M  V30 1037 H 100.097 3.13573 0.803353 0
M  V30 1038 H 99.0038 3.42916 -1.49532 0
M  V30 1039 H 100.337 4.51954 -1.94931 0
M  V30 1040 N 101.989 0.842826 1.3317 0
M  V30 1041 C 103.405 0.531128 1.50503 0
M  V30 1042 C 103.605 -0.940734 1.78192 0
M  V30 1043 O 102.661 -1.72436 1.84451 0
M  V30 1044 C 103.974 1.40789 2.65705 0
M  V30 1045 C 105.522 1.40708 2.79589 0
M  V30 1046 C 105.997 2.26878 3.97857 0
M  V30 1047 N 107.488 2.24609 4.05099 0
M  V30 1048 C 108.223 2.88019 4.95815 0
M  V30 1049 N 107.719 3.60496 5.9162 0
M  V30 1050 N 109.512 2.77469 4.88843 0
M  V30 1051 H 101.663 1.79557 1.1346 0
M  V30 1052 H 103.926 0.766267 0.558156 0
M  V30 1053 H 103.632 2.454 2.51936 0
M  V30 1054 H 103.506 1.08677 3.61205 0
M  V30 1055 H 105.893 0.368668 2.92788 0
M  V30 1056 H 105.974 1.76829 1.84838 0
M  V30 1057 H 105.618 3.3078 3.85418 0
M  V30 1058 H 105.548 1.88096 4.91861 0
M  V30 1059 H 108.039 1.71906 3.36536 0
M  V30 1060 H 108.352 4.06076 6.57512 0
M  V30 1061 H 106.697 3.64604 5.91683 0
M  V30 1062 H 109.888 2.20406 4.12963 0
M  V30 1063 H 110.061 3.2717 5.59342 0
M  V30 1064 N 103.467 -1.45747 0.599634 0
M  V30 1065 C 104.716 -2.01502 0.0893511 0
M  V30 1066 C 105.029 -1.4748 -1.28488 0
M  V30 1067 O 106.235 -1.95161 -1.88745 0
M  V30 1068 C 104.691 -3.59735 0.109082 0
M  V30 1069 C 104.299 -4.22754 1.48267 0
M  V30 1070 C 106.043 -4.23085 -0.346374 0
M  V30 1071 C 103.95 -5.73115 1.45921 0
M  V30 1072 H 102.88 -0.753417 0.0296347 0
M  V30 1073 H 105.531 -1.67303 0.753788 0
M  V30 1074 H 103.913 -3.91087 -0.621854 0
M  V30 1075 H 105.087 -4.02987 2.23468 0
M  V30 1076 H 103.402 -3.71567 1.87955 0
M  V30 1077 H 105.999 -5.33327 -0.38298 0
M  V30 1078 H 106.342 -3.93201 -1.36743 0
M  V30 1079 H 106.875 -3.9642 0.331038 0
M  V30 1080 H 103.614 -6.07685 2.45762 0
M  V30 1081 H 103.134 -5.95097 0.749665 0
M  V30 1082 H 104.813 -6.3616 1.17941 0
M  V30 1083 N 104.945 -0.338344 -1.53925 0
M  V30 1084 C 105.908 0.508299 -2.23493 0
M  V30 1085 C 106.908 1.03175 -1.23335 0
M  V30 1086 O 108.098 0.921826 -1.47811 0
M  V30 1087 C 105.23 1.70754 -2.95052 0
M  V30 1088 H 106.423 -0.100058 -2.99733 0
M  V30 1089 H 103.976 -0.0896198 -1.56043 0
M  V30 1090 H 104.711 2.35474 -2.22986 0
M  V30 1091 H 104.496 1.33946 -3.68512 0
M  V30 1092 H 105.986 2.30818 -3.48013 0
M  V30 1093 N 106.423 1.57458 -0.0668435 0
M  V30 1094 C 107.355 2.09413 0.931601 0
M  V30 1095 C 108.368 1.02522 1.26464 0
M  V30 1096 O 109.557 1.30049 1.22269 0
M  V30 1097 C 106.657 2.53537 2.24882 0
M  V30 1098 C 105.83 3.83944 2.09537 0
M  V30 1099 C 104.889 4.14214 3.2452 0
M  V30 1100 O 103.915 4.83891 2.9973 0
M  V30 1101 N 105.117 3.67367 4.49469 0
M  V30 1102 H 107.882 2.95699 0.488048 0
M  V30 1103 H 105.443 1.61462 0.119009 0
M  V30 1104 H 107.435 2.70853 3.00701 0
M  V30 1105 H 106.005 1.72415 2.60753 0
M  V30 1106 H 105.225 3.76057 1.18215 0
M  V30 1107 H 106.513 4.69312 1.96529 0
M  V30 1108 H 105.911 3.11068 4.72497 0
M  V30 1109 H 104.468 3.89891 5.2233 0
M  V30 1110 N 107.901 -0.206675 1.56239 0
M  V30 1111 C 108.831 -1.25909 1.96645 0
M  V30 1112 C 109.812 -1.48097 0.836734 0
M  V30 1113 O 110.997 -1.6003 1.10019 0
M  V30 1114 C 108.127 -2.6058 2.29599 0
M  V30 1115 C 107.081 -2.53024 3.452 0
M  V30 1116 C 106.407 -3.91861 3.63798 0
M  V30 1117 C 107.707 -2.06524 4.79734 0
M  V30 1118 H 109.401 -0.923369 2.84806 0
M  V30 1119 H 106.947 -0.442735 1.37025 0
M  V30 1120 H 108.9 -3.34375 2.56459 0
M  V30 1121 H 107.624 -2.95869 1.38307 0
M  V30 1122 H 106.283 -1.81684 3.18412 0
M  V30 1123 H 105.931 -4.24483 2.69857 0
M  V30 1124 H 105.631 -3.87683 4.4156 0
M  V30 1125 H 107.155 -4.67296 3.93022 0
M  V30 1126 H 108.569 -2.70072 5.05702 0
M  V30 1127 H 106.966 -2.13374 5.60885 0
M  V30 1128 H 108.036 -1.01802 4.74093 0
M  V30 1129 N 109.379 -1.50304 -0.473955 0
M  V30 1130 C 110.604 -1.65175 -1.25427 0
M  V30 1131 C 111.029 -0.333673 -1.85117 0
M  V30 1132 O 110.387 0.702114 -1.67153 0
M  V30 1133 C 110.435 -2.74295 -2.34082 0
M  V30 1134 O 109.539 -2.35349 -3.38651 0
M  V30 1135 H 108.88 -0.551944 -0.369126 0
M  V30 1136 H 111.41 -1.96662 -0.564364 0
M  V30 1137 H 111.42 -2.97285 -2.79438 0
M  V30 1138 H 110.095 -3.69959 -1.90008 0
M  V30 1139 H 108.672 -2.22794 -2.99027 0
M  V30 1140 N 110.857 0.726932 -1.39834 0
M  V30 1141 C 112.268 1.30558 -1.3346 0
M  V30 1142 C 112.619 1.962 -0.00273003 0
M  V30 1143 O 111.744 1.96826 0.899371 0
M  V30 1144 C 112.339 2.37404 -2.41713 0
M  V30 1145 C 110.898 2.90921 -2.38835 0
M  V30 1146 C 110.045 1.64578 -2.2318 0
M  V30 1147 H 112.996 0.523862 -1.49804 0
M  V30 1148 H 113.017 3.17984 -2.08966 0
M  V30 1149 H 112.529 1.89599 -3.38635 0
M  V30 1150 H 110.63 3.42985 -1.45575 0
M  V30 1151 H 110.743 3.43487 -3.33997 0
M  V30 1152 H 109.107 1.89219 -1.70494 0
M  V30 1153 H 109.89 1.18814 -3.22084 0
M  V30 1154 N 112.336 1.25143 0.95797 0
M  V30 1155 C 113.613 1.00472 1.67823 0
M  V30 1156 C 113.993 -0.470056 2.058 0
M  V30 1157 O 113.341 -1.44663 1.76875 0
M  V30 1158 C 113.551 1.9372 2.90299 0
M  V30 1159 C 114.899 2.21371 3.62326 0
M  V30 1160 O 115.923 1.91451 3.00375 0
M  V30 1161 O 114.782 2.72231 4.7387 0
M  V30 1162 H 111.876 0.380752 0.734137 0
M  V30 1163 H 114.422 1.36283 1.01119 0
M  V30 1164 H 113.194 2.93316 2.59001 0
M  V30 1165 H 112.817 1.58286 3.64735 0
M  V30 1166 N 113.814 -1.1601 1.06675 0
M  V30 1167 C 115.06 -1.86909 0.786945 0
M  V30 1168 C 115.393 -1.81717 -0.685018 0
M  V30 1169 O 114.668 -1.23551 -1.50218 0
M  V30 1170 C 114.951 -3.36313 1.28707 0
M  V30 1171 C 114.804 -3.50175 2.82308 0
M  V30 1172 C 116.123 -4.3084 0.898071 0
M  V30 1173 H 113.242 -0.678677 0.287343 0
M  V30 1174 H 115.884 -1.36336 1.32334 0
M  V30 1175 H 114.034 -3.79513 0.830768 0
M  V30 1176 H 115.706 -3.15886 3.36175 0
M  V30 1177 H 113.949 -2.91959 3.20847 0
M  V30 1178 H 114.62 -4.55116 3.12368 0
M  V30 1179 H 117.096 -3.95561 1.29114 0
M  V30 1180 H 115.972 -5.33876 1.27543 0
M  V30 1181 H 116.233 -4.41662 -0.196651 0
M  V30 1182 N 115.292 -0.849877 -1.32721 0
M  V30 1183 C 116.541 -0.447175 -1.96681 0
M  V30 1184 C 116.854 1.00135 -1.68025 0
M  V30 1185 O 118.06 1.50926 -2.25685 0
M  V30 1186 C 116.516 -0.7487 -3.52026 0
M  V30 1187 C 116.124 -2.21264 -3.89546 0
M  V30 1188 C 117.868 -0.413487 -4.22481 0
M  V30 1189 C 115.775 -2.45763 -5.37917 0
M  V30 1190 H 114.705 -0.163486 -0.736063 0
M  V30 1191 H 117.356 -1.03999 -1.51183 0
M  V30 1192 H 115.738 -0.0853727 -3.95908 0
M  V30 1193 H 116.912 -2.91736 -3.56689 0
M  V30 1194 H 115.227 -2.5119 -3.32103 0
M  V30 1195 H 117.824 -0.574017 -5.3161 0
M  V30 1196 H 118.167 0.644492 -4.11281 0
M  V30 1197 H 118.7 -1.03251 -3.84167 0
M  V30 1198 H 115.439 -3.50168 -5.54132 0
M  V30 1199 H 114.959 -1.79864 -5.72197 0
M  V30 1200 H 116.638 -2.29471 -6.0494 0
M  V30 1201 N 116.77 1.45427 -0.607355 0
M  V30 1202 C 118.017 2.02241 -0.102455 0
M  V30 1203 C 118.345 1.4758 1.26691 0
M  V30 1204 O 117.6 0.640468 1.84923 0
M  V30 1205 C 117.899 3.57398 -0.0129263 0
M  V30 1206 C 117.565 4.3121 -1.31792 0
M  V30 1207 C 116.227 4.51092 -1.67539 0
M  V30 1208 C 118.579 4.73401 -2.18039 0
M  V30 1209 C 115.907 5.10422 -2.89285 0
M  V30 1210 C 118.259 5.34078 -3.39034 0
M  V30 1211 C 116.923 5.52184 -3.75033 0
M  V30 1212 H 116.193 0.740051 -0.037491 0
M  V30 1213 H 118.84 1.74494 -0.788926 0
M  V30 1214 H 117.145 3.84421 0.756806 0
M  V30 1215 H 118.842 3.99061 0.393881 0
M  V30 1216 H 115.432 4.16047 -1.02968 0
M  V30 1217 H 119.616 4.57774 -1.91721 0
M  V30 1218 H 114.872 5.22629 -3.17283 0
M  V30 1219 H 119.046 5.65724 -4.06115 0
M  V30 1220 H 116.673 5.97925 -4.69457 0
M  V30 1221 N 118.248 0.346503 1.53744 0
M  V30 1222 C 119.473 -0.253074 2.0585 0
M  V30 1223 C 119.898 -1.43202 1.21962 0
M  V30 1224 O 119.256 -1.79783 0.234073 0
M  V30 1225 C 119.304 -0.643193 3.54817 0
M  V30 1226 O 118.408 -1.74286 3.73762 0
M  V30 1227 H 117.749 -0.0413583 0.662711 0
M  V30 1228 H 120.279 0.501574 1.98357 0
M  V30 1229 H 120.289 -0.919526 3.97503 0
M  V30 1230 H 118.964 0.218966 4.15323 0
M  V30 1231 H 117.541 -1.46356 3.42979 0
M  V30 1232 N 119.726 -1.57421 0.075193 0
M  V30 1233 C 120.973 -1.93618 -0.593146 0
M  V30 1234 C 121.301 -0.955484 -1.69413 0
M  V30 1235 O 120.556 0.0283251 -1.9568 0
M  V30 1236 C 120.855 -3.36428 -1.20626 0
M  V30 1237 C 120.521 -4.50307 -0.231078 0
M  V30 1238 C 119.183 -4.81186 0.0371936 0
M  V30 1239 C 121.535 -5.19374 0.435888 0
M  V30 1240 C 118.863 -5.78466 0.979461 0
M  V30 1241 C 121.215 -6.17665 1.3665 0
M  V30 1242 C 119.879 -6.46958 1.6432 0
M  V30 1243 H 119.149 -0.708499 -0.217047 0
M  V30 1244 H 121.796 -1.90937 0.146793 0
M  V30 1245 H 120.101 -3.35592 -2.02201 0
M  V30 1246 H 121.798 -3.61727 -1.73073 0
M  V30 1247 H 118.388 -4.26227 -0.450357 0
M  V30 1248 H 122.572 -4.95711 0.241748 0
M  V30 1249 H 117.828 -5.99487 1.20106 0
M  V30 1250 H 122.002 -6.70284 1.88924 0
M  V30 1251 H 119.629 -7.2215 2.37494 0
M  V30 1252 N 121.204 0.198386 -1.56346 0
M  V30 1253 C 122.434 0.934215 -1.84271 0
M  V30 1254 C 122.842 1.77496 -0.655125 0
M  V30 1255 O 122.185 1.7961 0.385488 0
M  V30 1256 C 122.247 1.88278 -3.06254 0
M  V30 1257 C 121.911 1.22431 -4.40295 0
M  V30 1258 C 122.908 0.602839 -5.16393 0
M  V30 1259 C 120.593 1.22915 -4.87029 0
M  V30 1260 C 122.587 -0.0050083 -6.374 0
M  V30 1261 C 120.274 0.617465 -6.07973 0
M  V30 1262 C 121.272 0.00146341 -6.83 0
M  V30 1263 O 120.96 -0.600642 -8.01653 0
M  V30 1264 H 120.692 0.278245 -0.616081 0
M  V30 1265 H 123.246 0.211626 -2.04307 0
M  V30 1266 H 121.476 2.64498 -2.82095 0
M  V30 1267 H 123.165 2.48612 -3.20853 0
M  V30 1268 H 123.931 0.591265 -4.81382 0
M  V30 1269 H 119.81 1.69801 -4.28589 0
M  V30 1270 H 123.354 -0.48643 -6.95902 0
M  V30 1271 H 119.251 0.62653 -6.42452 0
M  V30 1272 H 120.019 -0.497225 -8.16988 0
M  V30 1273 N 122.682 1.50554 0.465978 0
M  V30 1274 C 123.912 1.65323 1.23903 0
M  V30 1275 C 124.32 0.338051 1.86155 0
M  V30 1276 O 123.663 -0.690518 1.70228 0
M  V30 1277 C 123.725 2.69048 2.3844 0
M  V30 1278 C 123.389 4.12462 1.96784 0
M  V30 1279 C 124.386 4.98168 1.48745 0
M  V30 1280 C 122.071 4.58407 2.05349 0
M  V30 1281 C 124.065 6.27868 1.0982 0
M  V30 1282 C 121.752 5.88112 1.66035 0
M  V30 1283 C 122.75 6.72668 1.18349 0
M  V30 1284 O 122.438 7.99951 0.795825 0
M  V30 1285 H 122.17 0.558629 0.38067 0
M  V30 1286 H 124.724 1.97561 0.562022 0
M  V30 1287 H 122.954 2.32062 3.09328 0
M  V30 1288 H 124.643 2.72985 3.0039 0
M  V30 1289 H 125.409 4.63885 1.41546 0
M  V30 1290 H 121.288 3.92735 2.41414 0
M  V30 1291 H 124.832 6.93819 0.725293 0
M  V30 1292 H 120.729 6.21914 1.72895 0
M  V30 1293 H 121.497 8.13265 0.924222 0
M  V30 1294 N 124.16 -0.719506 1.40217 0
M  V30 1295 C 125.576 -1.02707 1.22161 0
M  V30 1296 C 125.776 -2.0128 0.0940557 0
M  V30 1297 O 124.832 -2.46452 -0.549318 0
M  V30 1298 C 126.145 -1.57454 2.56181 0
M  V30 1299 C 127.693 -1.69458 2.63159 0
M  V30 1300 C 128.168 -2.27611 3.97438 0
M  V30 1301 N 129.659 -2.35002 3.99159 0
M  V30 1302 C 130.394 -2.80972 4.99842 0
M  V30 1303 N 129.89 -3.26723 6.10921 0
M  V30 1304 N 131.683 -2.80321 4.87213 0
M  V30 1305 H 123.834 -0.0660492 2.12297 0
M  V30 1306 H 126.097 -0.0919077 0.943534 0
M  V30 1307 H 125.803 -0.924873 3.39321 0
M  V30 1308 H 125.677 -2.56036 2.76993 0
M  V30 1309 H 128.064 -2.33543 1.80393 0
M  V30 1310 H 128.145 -0.694867 2.46181 0
M  V30 1311 H 127.789 -1.6415 4.80643 0
M  V30 1312 H 127.719 -3.2829 4.11744 0
M  V30 1313 H 130.21 -2.02685 3.18947 0
M  V30 1314 H 130.523 -3.60355 6.8364 0
M  V30 1315 H 128.868 -3.24692 6.14492 0
M  V30 1316 H 132.059 -2.43912 3.9953 0
M  V30 1317 H 132.232 -3.15831 5.65822 0
M  V30 1318 N 125.638 -1.25649 -0.95132 0
M  V30 1319 C 126.588 -1.03004 -2.03406 0
M  V30 1320 C 127.572 0.034187 -1.60864 0
M  V30 1321 O 128.764 -0.181549 -1.76066 0
M  V30 1322 C 125.893 -0.654255 -3.37008 0
M  V30 1323 C 124.979 -1.75542 -3.86065 0
M  V30 1324 N 125.37 -2.99113 -4.07879 0
M  V30 1325 C 123.668 -1.63669 -4.14884 0
M  V30 1326 C 124.369 -3.70611 -4.48356 0
M  V30 1327 N 123.345 -2.98247 -4.54477 0
M  V30 1328 H 127.147 -1.96813 -2.1827 0
M  V30 1329 H 124.661 -1.16017 -1.13639 0
M  V30 1330 H 126.658 -0.473206 -4.14206 0
M  V30 1331 H 125.318 0.276468 -3.23521 0
M  V30 1332 H 126.329 -3.35124 -3.94857 0
M  V30 1333 H 123.006 -0.775161 -4.10241 0
M  V30 1334 H 124.396 -4.76695 -4.73509 0
M  V30 1335 N 127.117 1.15442 -1.07289 0
M  V30 1336 C 128.047 2.22312 -0.714107 0
M  V30 1337 C 129.028 1.67467 0.298155 0
M  V30 1338 O 130.213 1.93445 0.171048 0
M  V30 1339 C 127.343 3.47124 -0.110448 0
M  V30 1340 C 126.297 4.14926 -1.04979 0
M  V30 1341 C 125.623 5.33807 -0.308924 0
M  V30 1342 C 126.923 4.64762 -2.38314 0
M  V30 1343 H 128.617 2.5258 -1.6076 0
M  V30 1344 H 126.163 1.21404 -0.77441 0
M  V30 1345 H 128.116 4.21124 0.152482 0
M  V30 1346 H 126.84 3.16187 0.81812 0
M  V30 1347 H 125.499 3.42866 -1.29764 0
M  V30 1348 H 125.147 4.99126 0.623084 0
M  V30 1349 H 124.847 5.80113 -0.935036 0
M  V30 1350 H 126.371 6.10576 -0.0537771 0
M  V30 1351 H 127.785 5.30292 -2.1786 0
M  V30 1352 H 126.182 5.21728 -2.96514 0
M  V30 1353 H 127.252 3.80434 -3.00663 0
M  V30 1354 N 128.595 0.856903 1.32268 0
M  V30 1355 C 129.844 0.457599 1.96441 0
M  V30 1356 C 130.157 -0.992426 1.68553 0
M  V30 1357 O 131.363 -1.49727 2.26482 0
M  V30 1358 C 129.819 0.767358 3.51624 0
M  V30 1359 C 129.427 2.23326 3.88367 0
M  V30 1360 C 131.171 0.435887 4.22256 0
M  V30 1361 C 129.078 2.48613 5.36606 0
M  V30 1362 H 128.008 0.167387 0.735185 0
M  V30 1363 H 130.659 1.048 1.5063 0
M  V30 1364 H 129.041 0.106367 3.95857 0
M  V30 1365 H 130.215 2.93623 3.55137 0
M  V30 1366 H 128.53 2.52948 3.30766 0
M  V30 1367 H 131.127 0.602202 5.31298 0
M  V30 1368 H 131.47 -0.622672 4.11617 0
M  V30 1369 H 132.003 1.05286 3.83614 0
M  V30 1370 H 128.742 3.53101 5.52268 0
M  V30 1371 H 128.262 1.82896 5.71235 0
M  V30 1372 H 129.941 2.32676 6.03714 0
M  V30 1373 N 130.073 -1.45103 0.615059 0
M  V30 1374 C 131.303 -2.06254 0.119596 0
M  V30 1375 C 131.711 -1.4591 -1.20445 0
M  V30 1376 O 131.054 -0.570384 -1.7462 0
M  V30 1377 C 131.116 -3.59396 -0.0865591 0
M  V30 1378 C 130.78 -4.42116 1.15683 0
M  V30 1379 C 131.777 -4.7662 2.07676 0
M  V30 1380 C 129.462 -4.82749 1.38775 0
M  V30 1381 C 131.456 -5.50622 3.21082 0
M  V30 1382 C 129.143 -5.56504 2.52481 0
M  V30 1383 C 130.141 -5.90358 3.43463 0
M  V30 1384 O 129.829 -6.62615 4.55189 0
M  V30 1385 H 129.561 -0.672423 0.0694512 0
M  V30 1386 H 132.115 -1.87219 0.844885 0
M  V30 1387 H 130.345 -3.76859 -0.866823 0
M  V30 1388 H 132.034 -4.02365 -0.534555 0
M  V30 1389 H 132.8 -4.4578 1.91063 0
M  V30 1390 H 128.679 -4.55829 0.688545 0
M  V30 1391 H 132.223 -5.76965 3.92119 0
M  V30 1392 H 128.12 -5.86759 2.69043 0
M  V30 1393 H 128.888 -6.81071 4.53966 0
M  V30 1394 N 131.551 -0.354651 -1.53558 0
M  V30 1395 C 132.828 0.294281 -1.93374 0
M  V30 1396 C 133.208 1.67313 -1.28723 0
M  V30 1397 O 132.556 2.24179 -0.442247 0
M  V30 1398 C 132.766 0.355445 -3.47185 0
M  V30 1399 C 134.114 0.601007 -4.20325 0
M  V30 1400 O 135.138 0.437106 -3.53508 0
M  V30 1401 O 133.997 0.919322 -5.38712 0
M  V30 1402 H 131.091 0.174033 -0.808481 0
M  V30 1403 H 133.637 -0.406638 -1.64756 0
M  V30 1404 H 132.409 -0.611729 -3.86489 0
M  V30 1405 H 132.032 1.1027 -3.82003 0
M  V30 1406 N 133.029 1.57378 -0.0835403 0
M  V30 1407 C 133.939 2.16897 0.894021 0
M  V30 1408 C 134.955 1.13528 1.31861 0
M  V30 1409 O 136.131 1.45848 1.3889 0
M  V30 1410 C 133.196 2.72831 2.13925 0
M  V30 1411 C 132.257 3.91115 1.76997 0
M  V30 1412 C 131.49 4.44371 2.95584 0
M  V30 1413 O 131.713 3.96596 4.09961 0
M  V30 1414 O 130.647 5.35549 2.74719 0
M  V30 1415 H 134.473 3.00814 0.417679 0
M  V30 1416 H 132.058 1.48741 0.140181 0
M  V30 1417 H 133.94 3.0863 2.86924 0
M  V30 1418 H 132.615 1.91967 2.60635 0
M  V30 1419 H 131.522 3.60148 1.01214 0
M  V30 1420 H 132.855 4.73307 1.3506 0
M  V30 1421 N 134.507 -0.190092 1.56449 0
M  V30 1422 C 135.756 -0.907912 1.80111 0
M  V30 1423 C 136.069 -1.84214 0.657619 0
M  V30 1424 O 137.275 -2.60094 0.778663 0
M  V30 1425 C 135.731 -1.66485 3.19078 0
M  V30 1426 C 135.339 -0.7752 4.41242 0
M  V30 1427 C 137.083 -2.37201 3.52045 0
M  V30 1428 C 134.99 -1.53129 5.71231 0
M  V30 1429 H 133.92 -0.34276 0.671589 0
M  V30 1430 H 136.571 -0.161109 1.82791 0
M  V30 1431 H 134.953 -2.45572 3.10661 0
M  V30 1432 H 136.127 -0.0226298 4.60794 0
M  V30 1433 H 134.442 -0.178627 4.16017 0
M  V30 1434 H 137.039 -2.94329 4.46402 0
M  V30 1435 H 137.382 -3.11632 2.76028 0
M  V30 1436 H 137.915 -1.65075 3.61932 0
M  V30 1437 H 134.654 -0.82967 6.50228 0
M  V30 1438 H 134.174 -2.25767 5.55688 0
M  V30 1439 H 135.853 -2.08377 6.12526 0
M  V30 1440 N 135.985 -1.50799 -0.457987 0
M  V30 1441 C 136.915 -1.73553 -1.5621 0
M  V30 1442 C 137.896 -0.584774 -1.59732 0
M  V30 1443 O 139.081 -0.825314 -1.7579 0
M  V30 1444 C 136.211 -1.84169 -2.94447 0
M  V30 1445 C 135.165 -2.99461 -3.0579 0
M  V30 1446 C 134.491 -2.95235 -4.45803 0
M  V30 1447 C 135.791 -4.39766 -2.81786 0
M  V30 1448 H 137.485 -2.66 -1.37421 0
M  V30 1449 H 135.031 -1.28002 -0.659662 0
M  V30 1450 H 136.984 -1.98672 -3.71628 0
M  V30 1451 H 135.708 -0.883545 -3.14422 0
M  V30 1452 H 134.367 -2.8463 -2.31044 0
M  V30 1453 H 134.015 -1.97239 -4.62715 0
M  V30 1454 H 133.715 -3.72642 -4.54326 0
M  V30 1455 H 135.239 -3.11803 -5.24987 0
M  V30 1456 H 136.653 -4.55054 -3.4871 0
M  V30 1457 H 135.05 -5.18722 -3.0174 0
M  V30 1458 H 136.12 -4.51229 -1.7754 0
M  V30 1459 N 137.463 0.71206 -1.40597 0
M  V30 1460 C 138.395 1.83704 -1.37061 0
M  V30 1461 C 139.408 1.60453 -0.275426 0
M  V30 1462 O 140.597 1.70262 -0.53602 0
M  V30 1463 C 137.697 3.20172 -1.11099 0
M  V30 1464 C 136.87 3.7059 -2.3234 0
M  V30 1465 C 135.929 4.85681 -2.02485 0
M  V30 1466 O 134.955 4.9815 -2.75382 0
M  V30 1467 N 136.157 5.71735 -1.00497 0
M  V30 1468 H 138.922 1.87235 -2.34016 0
M  V30 1469 H 136.483 0.893739 -1.34996 0
M  V30 1470 H 138.475 3.94768 -0.891064 0
M  V30 1471 H 137.045 3.11767 -0.227989 0
M  V30 1472 H 136.265 2.87085 -2.7014 0
M  V30 1473 H 137.553 4.01011 -3.13157 0
M  V30 1474 H 136.951 5.64275 -0.401298 0
M  V30 1475 H 135.508 6.463 -0.844942 0
M  V30 1476 N 138.941 1.26152 0.944643 0
M  V30 1477 C 139.871 1.09902 2.06019 0
M  V30 1478 C 140.852 0.00519538 1.70099 0
M  V30 1479 O 142.037 0.176583 1.93396 0
M  V30 1480 C 139.167 0.727562 3.39594 0
M  V30 1481 C 138.121 1.77274 3.89561 0
M  V30 1482 C 137.447 1.25569 5.19747 0
M  V30 1483 C 138.747 3.17357 4.14827 0
M  V30 1484 H 140.441 2.03217 2.19871 0
M  V30 1485 H 137.987 0.978452 1.05652 0
M  V30 1486 H 139.94 0.600777 4.17095 0
M  V30 1487 H 138.664 -0.241287 3.25707 0
M  V30 1488 H 137.323 1.88814 3.14237 0
M  V30 1489 H 136.971 0.276783 5.02238 0
M  V30 1490 H 136.671 1.95433 5.54148 0
M  V30 1491 H 138.195 1.1415 5.99835 0
M  V30 1492 H 139.609 3.08914 4.82954 0
M  V30 1493 H 138.006 3.84781 4.60504 0
M  V30 1494 H 139.076 3.63673 3.20734 0
M  V30 1495 N 140.419 -1.14872 1.07899 0
M  V30 1496 C 141.382 -2.17986 0.708161 0
M  V30 1497 C 142.382 -1.58775 -0.25442 0
M  V30 1498 O 143.572 -1.74166 -0.034645 0
M  V30 1499 C 140.704 -3.40871 0.0446929 0
M  V30 1500 H 141.897 -2.52306 1.62116 0
M  V30 1501 H 139.45 -1.2943 0.876218 0
M  V30 1502 H 140.185 -3.12124 -0.880281 0
M  V30 1503 H 139.97 -3.8511 0.737091 0
M  V30 1504 H 141.46 -4.17121 -0.19991 0
M  V30 1505 N 141.898 -0.863906 -1.31812 0
M  V30 1506 C 143.309 -0.52522 -1.7916 0
M  V30 1507 C 143.66 0.957518 -1.71248 0
M  V30 1508 O 142.785 1.74734 -1.27659 0
M  V30 1509 C 143.38 -0.9466 -3.25307 0
M  V30 1510 C 141.939 -0.659668 -3.70574 0
M  V30 1511 C 141.086 -1.14126 -2.52726 0
M  V30 1512 H 144.037 -1.05022 -1.1898 0
M  V30 1513 H 144.058 -0.266766 -3.79564 0
M  V30 1514 H 143.57 -2.02579 -3.31034 0
M  V30 1515 H 141.671 0.408416 -3.70355 0
M  V30 1516 H 141.784 -1.23245 -4.62977 0
M  V30 1517 H 140.148 -0.561216 -2.4844 0
M  V30 1518 H 140.931 -2.22775 -2.61201 0
M  V30 1519 N 143.376 1.44774 -0.622745 0
M  V30 1520 C 144.339 2.29069 0.0774015 0
M  V30 1521 C 145.339 1.4059 0.780461 0
M  V30 1522 O 146.529 1.62551 0.626322 0
M  V30 1523 C 143.661 3.21974 1.12006 0
M  V30 1524 H 144.854 2.92459 -0.663901 0
M  V30 1525 H 142.407 1.51548 -0.382486 0
M  V30 1526 H 143.142 2.63417 1.89162 0
M  V30 1527 H 142.927 3.87168 0.619951 0
M  V30 1528 H 144.417 3.85318 1.60995 0
M  V30 1529 N 144.854 0.36279 1.53368 0
M  V30 1530 C 146.102 -0.227326 2.00817 0
M  V30 1531 C 146.423 -1.49511 1.25186 0
M  V30 1532 O 145.693 -1.92482 0.364348 0
M  V30 1533 H 144.273 -0.0869923 0.741917 0
M  V30 1534 H 146.935 0.488381 1.88682 0
M  V30 1535 H 146.031 -0.456273 3.08747 0
M  V30 1536 N 146.332 -1.57332 0.0918853 0
M  V30 1537 C 147.295 -2.12708 -0.85369 0
M  V30 1538 C 148.295 -1.05561 -1.213 0
M  V30 1539 O 149.485 -1.31461 -1.14296 0
M  V30 1540 C 146.617 -2.64503 -2.15061 0
M  V30 1541 H 147.81 -2.97573 -0.3729 0
M  V30 1542 H 145.363 -1.55509 -0.157072 0
M  V30 1543 H 146.098 -1.83149 -2.67632 0
M  V30 1544 H 145.883 -3.4284 -1.90272 0
M  V30 1545 H 147.373 -3.07351 -2.82711 0
M  V30 1546 N 147.81 0.181792 -1.56548 0
M  V30 1547 C 149.057 0.900097 -1.81396 0
M  V30 1548 C 149.385 1.82695 -0.667281 0
M  V30 1549 O 148.64 1.92614 0.346146 0
M  V30 1550 C 148.939 1.73728 -3.12335 0
M  V30 1551 C 148.605 0.960255 -4.40556 0
M  V30 1552 C 147.267 0.745766 -4.75386 0
M  V30 1553 C 149.619 0.414477 -5.19549 0
M  V30 1554 C 146.947 -0.0257694 -5.86694 0
M  V30 1555 C 149.299 -0.343916 -6.31664 0
M  V30 1556 C 147.963 -0.569301 -6.65068 0
M  V30 1557 H 147.233 0.329369 -0.663775 0
M  V30 1558 H 149.88 0.165647 -1.90782 0
M  V30 1559 H 148.185 2.54081 -2.98245 0
M  V30 1560 H 149.882 2.29591 -3.28769 0
M  V30 1561 H 146.472 1.13746 -4.13231 0
M  V30 1562 H 150.656 0.567554 -4.93044 0
M  V30 1563 H 145.912 -0.210233 -6.11038 0
M  V30 1564 H 150.086 -0.774133 -6.92084 0
M  V30 1565 H 147.713 -1.16903 -7.51158 0
M  V30 1566 N 149.288 1.51039 0.449983 0
M  V30 1567 C 150.236 1.71995 1.5659 0
M  V30 1568 C 151.23 0.586029 1.5894 0
M  V30 1569 O 152.436 0.76709 1.62837 0
M  V30 1570 H 148.811 0.543233 0.520001 0
M  V30 1571 H 150.782 2.65562 1.36085 0
M  V30 1572 C 149.531 1.8506 2.9436 0
M  V30 1573 H 148.854 2.71712 2.93279 0
M  V30 1574 H 150.294 2.0374 3.71842 0
M  V30 1575 C 148.753 0.607277 3.31382 0
M  V30 1576 O 149.283 -0.243903 4.00959 0
M  V30 1577 N 147.489 0.455073 2.87015 0
M  V30 1578 H 147.036 1.14879 2.30566 0
M  V30 1579 H 146.994 -0.375611 3.12148 0
M  V30 1580 N 150.766 -0.704594 1.40972 0
M  V30 1581 C 151.696 -1.83124 1.44872 0
M  V30 1582 C 152.677 -1.67281 0.30838 0
M  V30 1583 O 153.862 -1.87149 0.518556 0
M  V30 1584 C 150.992 -3.21181 1.32136 0
M  V30 1585 C 149.946 -3.51714 2.43888 0
M  V30 1586 C 149.272 -4.89032 2.16222 0
M  V30 1587 C 150.572 -3.516 3.86232 0
M  V30 1588 H 152.266 -1.80117 2.39161 0
M  V30 1589 H 149.812 -0.865145 1.15114 0
M  V30 1590 H 151.765 -3.99702 1.33479 0
M  V30 1591 H 150.489 -3.24791 0.343279 0
M  V30 1592 H 149.148 -2.75539 2.41813 0
M  V30 1593 H 148.796 -4.89256 1.16778 0
M  V30 1594 H 148.496 -5.10426 2.911 0
M  V30 1595 H 150.02 -5.69873 2.19265 0
M  V30 1596 H 151.434 -4.2014 3.9007 0
M  V30 1597 H 149.831 -3.84523 4.60719 0
M  V30 1598 H 150.901 -2.50757 4.15029 0
M  V30 1599 N 152.244 -1.26651 -0.937939 0
M  V30 1600 C 153.194 -1.05156 -2.02302 0
M  V30 1601 C 154.178 0.0171233 -1.60891 0
M  V30 1602 O 155.37 -0.200213 -1.75864 0
M  V30 1603 C 152.499 -0.689962 -3.36295 0
M  V30 1604 C 151.585 -1.79626 -3.84181 0
M  V30 1605 N 151.976 -3.03422 -4.04684 0
M  V30 1606 C 150.274 -1.6806 -4.13124 0
M  V30 1607 C 150.975 -3.75345 -4.444 0
M  V30 1608 N 149.951 -3.03051 -4.51288 0
M  V30 1609 H 153.753 -1.99117 -2.1617 0
M  V30 1610 H 151.267 -1.17216 -1.12402 0
M  V30 1611 H 153.264 -0.517112 -4.13681 0
M  V30 1612 H 151.924 0.242139 -3.23796 0
M  V30 1613 H 152.935 -3.39293 -3.91281 0
M  V30 1614 H 149.612 -0.818629 -4.09396 0
M  V30 1615 H 151.002 -4.81691 -4.68427 0
M  V30 1616 N 153.722 1.14298 -1.08507 0
M  V30 1617 C 154.97 1.84993 -0.813763 0
M  V30 1618 C 155.291 1.83405 0.662393 0
M  V30 1619 O 154.561 1.28319 1.48024 0
M  V30 1620 H 153.141 0.684966 -0.298045 0
M  V30 1621 H 155.803 1.385 -1.37126 0
M  V30 1622 H 154.899 2.89788 -1.15884 0
M  V30 1623 N 155.201 0.870884 1.31352 0
M  V30 1624 C 156.426 0.495957 2.01383 0
M  V30 1625 C 156.851 -0.904324 1.64935 0
M  V30 1626 O 156.209 -1.59687 0.858466 0
M  V30 1627 C 156.257 0.661433 3.54482 0
M  V30 1628 O 155.361 -0.298851 4.11316 0
M  V30 1629 H 154.702 0.197158 0.634054 0
M  V30 1630 H 157.232 1.17455 1.67527 0
M  V30 1631 H 157.242 0.555072 4.04207 0
M  V30 1632 H 155.917 1.68246 3.8035 0
M  V30 1633 H 154.494 -0.147368 3.72609 0
M  V30 1634 N 156.679 -1.44442 0.630414 0
M  V30 1635 C 157.609 -2.33418 -0.0618083 0
M  V30 1636 C 158.59 -1.48165 -0.835541 0
M  V30 1637 O 159.775 -1.76886 -0.801564 0
M  V30 1638 C 156.905 -3.31222 -1.04449 0
M  V30 1639 C 155.859 -4.26288 -0.382436 0
M  V30 1640 C 155.185 -5.13954 -1.47497 0
M  V30 1641 C 156.485 -5.1744 0.710865 0
M  V30 1642 H 158.179 -2.91548 0.681184 0
M  V30 1643 H 155.725 -1.40191 0.329026 0
M  V30 1644 H 157.678 -3.92351 -1.53748 0
M  V30 1645 H 156.402 -2.71299 -1.81836 0
M  V30 1646 H 155.061 -3.6649 0.0899054 0
M  V30 1647 H 154.709 -4.50385 -2.2397 0
M  V30 1648 H 154.409 -5.7837 -1.03737 0
M  V30 1649 H 155.933 -5.77955 -1.96979 0
M  V30 1650 H 157.347 -5.72509 0.300996 0
M  V30 1651 H 155.744 -5.90455 1.07156 0
M  V30 1652 H 156.814 -4.58496 1.57829 0
M  V30 1653 N 158.157 -0.370918 -1.53173 0
M  V30 1654 C 159.087 0.464847 -2.28826 0
M  V30 1655 C 160.068 1.07936 -1.31468 0
M  V30 1656 O 161.253 1.0956 -1.60344 0
M  V30 1657 C 158.383 1.60196 -3.08147 0
M  V30 1658 C 157.337 1.11443 -4.13237 0
M  V30 1659 C 156.663 2.3422 -4.80672 0
M  V30 1660 C 157.963 0.195384 -5.21934 0
M  V30 1661 H 159.657 -0.166329 -2.98938 0
M  V30 1662 H 157.203 -0.0814359 -1.4377 0
M  V30 1663 H 159.156 2.19332 -3.59822 0
M  V30 1664 H 157.88 2.26045 -2.35735 0
M  V30 1665 H 156.539 0.545727 -3.62515 0
M  V30 1666 H 156.187 2.98537 -4.04827 0
M  V30 1667 H 155.887 2.02269 -5.51689 0
M  V30 1668 H 157.411 2.94032 -5.35143 0
M  V30 1669 H 158.825 0.694375 -5.69079 0
M  V30 1670 H 157.222 -0.0335027 -6.00091 0
M  V30 1671 H 158.292 -0.760961 -4.78892 0
M  V30 1672 N 159.635 1.57281 -0.100228 0
M  V30 1673 C 161.046 1.81725 0.428107 0
M  V30 1674 C 161.397 1.01619 1.67833 0
M  V30 1675 O 160.522 0.247098 2.14985 0
M  V30 1676 C 161.117 3.29617 0.78347 0
M  V30 1677 C 159.676 3.54808 1.25653 0
M  V30 1678 C 158.823 2.76118 0.255752 0
M  V30 1679 H 161.774 1.55324 -0.325608 0
M  V30 1680 H 161.795 3.4322 1.64256 0
M  V30 1681 H 161.307 3.87893 -0.12665 0
M  V30 1682 H 159.408 3.01868 2.18418 0
M  V30 1683 H 159.521 4.63443 1.21482 0
M  V30 1684 H 157.885 2.43745 0.738956 0
M  V30 1685 H 158.668 3.37145 -0.647136 0
M  V30 1686 N 161.113 -0.173488 1.56642 0
M  V30 1687 C 162.06 -1.21482 1.96242 0
M  V30 1688 C 163.03 -1.44104 0.826027 0
M  V30 1689 O 164.215 -1.5688 1.08597 0
M  V30 1690 C 161.355 -2.54964 2.32567 0
M  V30 1691 C 160.468 -2.39739 3.59373 0
M  V30 1692 C 159.603 -3.66072 3.84921 0
M  V30 1693 C 158.642 -3.45771 5.05083 0
M  V30 1694 N 157.779 -4.64169 5.26775 0
M  V30 1695 H 162.619 -0.870123 2.85014 0
M  V30 1696 H 160.156 -0.418245 1.41029 0
M  V30 1697 H 162.114 -3.32758 2.5165 0
M  V30 1698 H 160.744 -2.87433 1.46908 0
M  V30 1699 H 159.796 -1.53131 3.48217 0
M  V30 1700 H 161.108 -2.20683 4.47326 0
M  V30 1701 H 160.262 -4.52303 4.0436 0
M  V30 1702 H 159.001 -3.88105 2.9534 0
M  V30 1703 H 158.006 -2.57927 4.85545 0
M  V30 1704 H 159.231 -3.25163 5.96193 0
M  V30 1705 H 157.177 -4.86425 4.40144 0
M  V30 1706 H 157.094 -4.48019 6.08946 0
M  V30 1707 H 158.362 -5.51689 5.5069 0
M  V30 1708 N 162.591 -1.51276 -0.441967 0
M  V30 1709 C 163.821 -1.67273 -1.21257 0
M  V30 1710 C 164.229 -0.367624 -1.85594 0
M  V30 1711 O 163.572 0.663349 -1.71305 0
M  V30 1712 C 163.634 -2.72807 -2.34129 0
M  V30 1713 C 163.298 -4.1554 -1.90198 0
M  V30 1714 C 164.295 -5.00471 -1.40801 0
M  V30 1715 C 161.98 -4.61616 -1.9803 0
M  V30 1716 C 163.974 -6.29536 -0.998174 0
M  V30 1717 C 161.661 -5.90679 -1.56658 0
M  V30 1718 C 162.659 -6.74466 -1.07633 0
M  V30 1719 O 162.347 -8.01116 -0.668459 0
M  V30 1720 H 162.079 -0.564614 -0.371734 0
M  V30 1721 H 164.633 -1.9843 -0.530521 0
M  V30 1722 H 162.863 -2.36954 -3.05597 0
M  V30 1723 H 164.552 -2.77729 -2.96009 0
M  V30 1724 H 165.318 -4.66079 -1.34148 0
M  V30 1725 H 161.197 -3.96526 -2.35135 0
M  V30 1726 H 164.741 -6.94885 -0.61482 0
M  V30 1727 H 160.638 -6.24586 -1.62979 0
M  V30 1728 H 161.406 -8.14633 -0.794722 0
M  V30 1729 N 164.069 0.697108 -1.41344 0
M  V30 1730 C 165.485 1.00751 -1.2378 0
M  V30 1731 C 165.685 2.01105 -0.126066 0
M  V30 1732 O 164.741 2.47295 0.51004 0
M  V30 1733 C 166.054 1.53359 -2.58653 0
M  V30 1734 C 167.602 1.6525 -2.65822 0
M  V30 1735 C 168.077 2.2126 -4.01009 0
M  V30 1736 N 169.568 2.28622 -4.02847 0
M  V30 1737 C 170.303 2.72984 -5.04249 0
M  V30 1738 N 169.799 3.16962 -6.16041 0
M  V30 1739 N 171.592 2.72534 -4.91611 0
M  V30 1740 H 163.743 0.0322662 -2.12375 0
M  V30 1741 H 166.006 0.0768853 -0.944877 0
M  V30 1742 H 165.712 0.870773 -3.4075 0
M  V30 1743 H 165.586 2.51597 -2.81032 0
M  V30 1744 H 167.973 2.30644 -1.84086 0
M  V30 1745 H 168.054 0.655614 -2.47256 0
M  V30 1746 H 167.698 1.56482 -4.83193 0
M  V30 1747 H 167.628 3.21698 -4.16915 0
M  V30 1748 H 170.119 1.97585 -3.22131 0
M  V30 1749 H 170.432 3.49434 -6.89287 0
M  V30 1750 H 168.777 3.14875 -6.1958 0
M  V30 1751 H 171.968 2.37525 -4.0336 0
M  V30 1752 H 172.141 3.06789 -5.70775 0
M  V30 1753 N 165.547 1.27147 0.931209 0
M  V30 1754 C 166.795 1.13055 1.6752 0
M  V30 1755 C 167.116 -0.324791 1.92276 0
M  V30 1756 O 166.386 -1.22775 1.52654 0
M  V30 1757 H 164.966 0.415391 0.620854 0
M  V30 1758 H 167.628 1.59623 1.11833 0
M  V30 1759 H 166.724 1.65694 2.64485 0
M  V30 1760 N 167.025 -1.13721 1.09112 0
M  V30 1761 C 168.441 -1.36914 0.820174 0
M  V30 1762 C 168.641 -1.93356 -0.567079 0
M  V30 1763 O 167.697 -2.15093 -1.32255 0
M  V30 1764 C 169.01 -2.3235 1.90877 0
M  V30 1765 C 170.558 -2.45973 1.93562 0
M  V30 1766 C 171.033 -3.44714 3.01556 0
M  V30 1767 N 172.524 -3.52263 3.00775 0
M  V30 1768 C 173.259 -4.28536 3.80978 0
M  V30 1769 N 172.755 -5.07991 4.71081 0
M  V30 1770 N 174.548 -4.23804 3.69251 0
M  V30 1771 H 166.699 -0.754348 1.98553 0
M  V30 1772 H 168.962 -0.3944 0.862063 0
M  V30 1773 H 168.668 -1.98027 2.90651 0
M  V30 1774 H 168.542 -3.32332 1.78424 0
M  V30 1775 H 170.929 -2.79584 0.944286 0
M  V30 1776 H 171.01 -1.45926 2.10093 0
M  V30 1777 H 170.654 -3.11835 4.00901 0
M  V30 1778 H 170.584 -4.44558 2.82269 0
M  V30 1779 H 173.075 -2.95567 2.35475 0
M  V30 1780 H 173.388 -5.63487 5.28869 0
M  V30 1781 H 171.733 -5.07235 4.75119 0
M  V30 1782 H 174.924 -3.60806 2.98222 0
M  V30 1783 H 175.097 -4.82995 4.31995 0
M  V30 1784 N 168.503 -0.877838 -1.30888 0
M  V30 1785 C 169.466 -0.344265 -2.266 0
M  V30 1786 C 170.466 0.50922 -1.52524 0
M  V30 1787 O 171.656 0.317398 -1.71284 0
M  V30 1788 C 168.788 0.510198 -3.37061 0
M  V30 1789 H 169.981 -1.1893 -2.7531 0
M  V30 1790 H 167.534 -0.654088 -1.41956 0
M  V30 1791 H 168.269 1.37612 -2.93655 0
M  V30 1792 H 168.054 -0.101047 -3.9197 0
M  V30 1793 H 169.544 0.875537 -4.08319 0
M  V30 1794 N 169.982 1.44106 -0.638065 0
M  V30 1795 C 171.393 1.85316 -0.226894 0
M  V30 1796 C 171.744 1.53399 1.22324 0
M  V30 1797 O 170.869 0.975463 1.93167 0
M  V30 1798 C 171.464 3.3637 -0.405013 0
M  V30 1799 C 170.023 3.76369 -0.0482902 0
M  V30 1800 C 169.17 2.67921 -0.715108 0
M  V30 1801 H 172.121 1.34474 -0.842764 0
M  V30 1802 H 172.142 3.7885 0.354 0
M  V30 1803 H 171.654 3.59569 -1.46053 0
M  V30 1804 H 169.755 3.58784 1.00522 0
M  V30 1805 H 169.868 4.76856 -0.463187 0
M  V30 1806 H 168.232 2.54259 -0.149753 0
M  V30 1807 H 169.015 2.93951 -1.77335 0
M  V30 1808 N 171.46 0.379036 1.52974 0
M  V30 1809 C 172.39 -0.452706 2.29069 0
M  V30 1810 C 173.371 -1.07237 1.32039 0
M  V30 1811 O 174.556 -1.08708 1.60923 0
M  V30 1812 C 171.686 -1.5856 3.08992 0
M  V30 1813 C 170.64 -1.0925 4.13822 0
M  V30 1814 C 169.966 -2.31668 4.81907 0
M  V30 1815 C 171.266 -0.167702 5.22031 0
M  V30 1816 H 172.96 0.182181 2.98845 0
M  V30 1817 H 170.506 0.0890592 1.43724 0
M  V30 1818 H 172.459 -2.1742 3.6098 0
M  V30 1819 H 171.183 -2.24792 2.36931 0
M  V30 1820 H 169.842 -0.526494 3.628 0
M  V30 1821 H 169.49 -2.96386 4.06404 0
M  V30 1822 H 169.19 -1.9934 5.52754 0
M  V30 1823 H 170.714 -2.91189 5.36695 0
M  V30 1824 H 172.128 -0.664186 5.6944 0
M  V30 1825 H 170.525 0.0653265 6.00064 0
M  V30 1826 H 171.595 0.786347 4.78482 0
M  V30 1827 N 172.938 -1.57226 0.108567 0
M  V30 1828 C 173.886 -2.16002 -0.862885 0
M  V30 1829 C 174.88 -1.10644 -1.28274 0
M  V30 1830 O 176.086 -1.28966 -1.2557 0
M  V30 1831 H 172.461 -0.691148 -0.296342 0
M  V30 1832 H 174.432 -2.96427 -0.342575 0
M  V30 1833 C 173.181 -2.76576 -2.10716 0
M  V30 1834 H 172.504 -3.5734 -1.793 0
M  V30 1835 H 173.944 -3.21253 -2.76717 0
M  V30 1836 C 172.403 -1.73137 -2.89007 0
M  V30 1837 O 172.933 -1.17842 -3.84026 0
M  V30 1838 N 171.139 -1.43317 -2.52801 0
M  V30 1839 H 170.686 -1.88473 -1.75601 0
M  V30 1840 H 170.644 -0.743485 -3.05483 0
M  V30 1841 N 174.416 0.165178 -1.56732 0
M  V30 1842 C 175.662 0.877389 -1.83503 0
M  V30 1843 C 176.017 1.79602 -0.689996 0
M  V30 1844 O 175.31 1.89023 0.313205 0
M  V30 1845 C 175.504 1.70405 -3.1416 0
M  V30 1846 C 175.333 0.866961 -4.41264 0
M  V30 1847 C 174.103 0.539646 -5.0241 0
M  V30 1848 C 176.301 0.205671 -5.13889 0
M  V30 1849 N 174.283 -0.312946 -6.13102 0
M  V30 1850 C 175.654 -0.507823 -6.17917 0
M  V30 1851 C 177.709 0.124468 -4.97744 0
M  V30 1852 C 176.412 -1.29483 -7.0755 0
M  V30 1853 C 178.438 -0.649222 -5.87826 0
M  V30 1854 C 177.8 -1.35106 -6.91322 0
M  V30 1855 H 173.899 0.299477 -0.722383 0
M  V30 1856 H 176.483 0.143949 -1.94167 0
M  V30 1857 H 174.654 2.40887 -3.04677 0
M  V30 1858 H 176.386 2.35804 -3.28905 0
M  V30 1859 H 173.141 0.871176 -4.65519 0
M  V30 1860 H 173.565 -0.729731 -6.73056 0
M  V30 1861 H 178.207 0.652724 -4.17731 0
M  V30 1862 H 175.925 -1.83441 -7.87004 0
M  V30 1863 H 179.511 -0.713804 -5.77405 0
M  V30 1864 H 178.391 -1.94013 -7.59821 0
M  V30 1865 N 175.894 1.51508 0.433938 0
M  V30 1866 C 177.14 1.64588 1.18484 0
M  V30 1867 C 177.473 0.362666 1.90784 0
M  V30 1868 O 176.748 -0.637892 1.83742 0
M  V30 1869 C 177.031 2.85149 2.19913 0
M  V30 1870 C 176.884 4.23456 1.51674 0
M  V30 1871 C 178.203 3.01227 3.20858 0
M  V30 1872 H 175.322 0.598994 0.429389 0
M  V30 1873 H 177.964 1.84002 0.473647 0
M  V30 1874 H 176.114 2.68729 2.80566 0
M  V30 1875 H 177.786 4.51552 0.943322 0
M  V30 1876 H 176.029 4.25998 0.819035 0
M  V30 1877 H 176.7 5.03812 2.2556 0
M  V30 1878 H 179.176 3.16382 2.70263 0
M  V30 1879 H 178.052 3.87141 3.89118 0
M  V30 1880 H 178.313 2.13447 3.8716 0
M  V30 1881 N 177.372 -0.689602 1.41712 0
M  V30 1882 C 178.302 -1.81577 1.46806 0
M  V30 1883 C 179.283 -1.66945 0.326105 0
M  V30 1884 O 180.468 -1.86588 0.538377 0
M  V30 1885 C 177.598 -3.19762 1.35535 0
M  V30 1886 C 176.552 -3.49107 2.47605 0
M  V30 1887 C 175.878 -4.86711 2.21397 0
M  V30 1888 C 177.178 -3.47483 3.89939 0
M  V30 1889 H 178.872 -1.7757 2.41058 0
M  V30 1890 H 176.418 -0.852887 1.16025 0
M  V30 1891 H 178.371 -3.98263 1.3771 0
M  V30 1892 H 177.095 -3.24409 0.377708 0
M  V30 1893 H 175.754 -2.72959 2.44722 0
M  V30 1894 H 175.402 -4.8799 1.21961 0
M  V30 1895 H 175.102 -5.0731 2.96497 0
M  V30 1896 H 176.626 -5.67515 2.25297 0
M  V30 1897 H 178.04 -4.1598 3.94505 0
M  V30 1898 H 176.437 -3.79615 4.64771 0
M  V30 1899 H 177.507 -2.46341 4.17665 0
M  V30 1900 N 178.85 -1.27639 -0.924453 0
M  V30 1901 C 180.096 -1.14336 -1.67497 0
M  V30 1902 C 180.429 0.309465 -1.91718 0
M  V30 1903 O 179.704 1.22608 -1.50989 0
M  V30 1904 C 179.987 -1.93096 -3.0395 0
M  V30 1905 C 179.84 -3.46381 -2.8695 0
M  V30 1906 C 181.159 -1.73798 -4.0433 0
M  V30 1907 H 178.278 -0.416728 -0.607871 0
M  V30 1908 H 180.92 -1.56832 -1.07256 0
M  V30 1909 H 179.07 -1.56982 -3.55372 0
M  V30 1910 H 180.742 -3.92343 -2.42621 0
M  V30 1911 H 178.985 -3.72557 -2.22225 0
M  V30 1912 H 179.656 -3.96735 -3.83804 0
M  V30 1913 H 182.132 -2.05293 -3.61931 0
M  V30 1914 H 181.008 -2.31294 -4.97789 0
M  V30 1915 H 181.269 -0.686725 -4.36734 0
M  V30 1916 N 180.328 1.1314 -1.09713 0
M  V30 1917 C 181.276 2.20717 -0.733934 0
M  V30 1918 C 182.27 1.6729 0.266506 0
M  V30 1919 O 183.476 1.79547 0.127656 0
M  V30 1920 H 179.851 0.719292 -0.21937 0
M  V30 1921 H 181.822 2.48611 -1.6503 0
M  V30 1922 C 180.571 3.47265 -0.173849 0
M  V30 1923 H 179.894 3.88716 -0.934873 0
M  V30 1924 H 181.334 4.23979 0.0423126 0
M  V30 1925 C 179.793 3.18724 1.09164 0
M  V30 1926 O 180.323 3.37762 2.17439 0
M  V30 1927 N 178.529 2.72583 1.00732 0
M  V30 1928 H 178.076 2.57291 0.126121 0
M  V30 1929 H 178.034 2.53862 1.85476 0
M  V30 1930 N 181.806 0.884767 1.30421 0
M  V30 1931 C 183.054 0.502112 1.95763 0
M  V30 1932 C 183.375 -0.951815 1.70192 0
M  V30 1933 O 182.645 -1.6692 1.0254 0
M  V30 1934 H 181.225 0.182694 0.724315 0
M  V30 1935 H 183.887 1.1278 1.58955 0
M  V30 1936 H 182.983 0.672188 3.04775 0
M  V30 1937 N 183.284 -1.43765 0.645699 0
M  V30 1938 C 184.194 -2.34544 -0.0512957 0
M  V30 1939 C 185.21 -1.53455 -0.82022 0
M  V30 1940 O 186.386 -1.86133 -0.769176 0
M  V30 1941 C 183.451 -3.31636 -1.01087 0
M  V30 1942 C 182.512 -4.2863 -0.239712 0
M  V30 1943 C 181.745 -5.21084 -1.15358 0
M  V30 1944 O 181.968 -5.1779 -2.39269 0
M  V30 1945 O 180.902 -5.98593 -0.630038 0
M  V30 1946 H 184.728 -2.95624 0.695718 0
M  V30 1947 H 182.313 -1.43781 0.405882 0
M  V30 1948 H 184.195 -3.9136 -1.56254 0
M  V30 1949 H 182.87 -2.73069 -1.73824 0
M  V30 1950 H 181.777 -3.72408 0.355356 0
M  V30 1951 H 183.11 -4.90157 0.447936 0
M  V30 1952 N 184.763 -0.387143 -1.52771 0
M  V30 1953 C 185.991 0.195869 -2.05971 0
M  V30 1954 C 186.406 1.40691 -1.25903 0
M  V30 1955 O 185.763 1.79931 -0.305134 0
M  V30 1956 C 185.814 0.56812 -3.57008 0
M  V30 1957 O 185.535 -0.594803 -4.34043 0
M  V30 1958 C 187.036 1.20723 -4.26545 0
M  V30 1959 H 184.256 0.0300578 -0.670326 0
M  V30 1960 H 186.8 -0.551749 -1.96916 0
M  V30 1961 H 184.955 1.26564 -3.66143 0
M  V30 1962 H 185.369 -0.289322 -5.23701 0
M  V30 1963 H 186.843 1.41807 -5.33474 0
M  V30 1964 H 187.32 2.17395 -3.81623 0
M  V30 1965 H 187.926 0.550535 -4.21722 0
M  V30 1966 N 186.241 1.57166 -0.116904 0
M  V30 1967 C 187.151 2.18745 0.847812 0
M  V30 1968 C 188.167 1.163 1.29423 0
M  V30 1969 O 189.343 1.48761 1.35765 0
M  V30 1970 C 186.408 2.77307 2.0809 0
M  V30 1971 C 185.469 3.94781 1.68661 0
M  V30 1972 C 184.702 4.50541 2.86091 0
M  V30 1973 O 184.925 4.05202 4.01456 0
M  V30 1974 O 183.859 5.41256 2.63298 0
M  V30 1975 H 187.685 3.01632 0.353778 0
M  V30 1976 H 185.27 1.49005 0.108599 0
M  V30 1977 H 187.152 3.14647 2.80313 0
M  V30 1978 H 185.827 1.97452 2.56504 0
M  V30 1979 H 184.734 3.62214 0.935518 0
M  V30 1980 H 186.067 4.76065 1.24991 0
M  V30 1981 N 187.719 -0.156864 1.56817 0
M  V30 1982 C 188.947 -0.886316 1.86955 0
M  V30 1983 C 189.362 -1.75185 0.703975 0
M  V30 1984 O 188.719 -1.79555 -0.326552 0
M  V30 1985 C 188.77 -1.75117 3.16253 0
M  V30 1986 O 188.491 -0.920537 4.2832 0
M  V30 1987 C 189.992 -2.58905 3.59837 0
M  V30 1988 H 187.212 -0.25678 0.619923 0
M  V30 1989 H 189.756 -0.152615 2.0393 0
M  V30 1990 H 187.911 -2.43805 3.01062 0
M  V30 1991 H 188.325 -1.51337 5.02192 0
M  V30 1992 H 189.799 -3.1518 4.53172 0
M  V30 1993 H 190.276 -3.34472 2.84649 0
M  V30 1994 H 190.882 -1.95526 3.7769 0
M  V30 1995 N 189.197 -1.51736 -0.425897 0
M  V30 1996 C 190.445 -1.64644 -1.17204 0
M  V30 1997 C 190.766 -0.370486 -1.91448 0
M  V30 1998 O 190.036 0.614088 -1.86026 0
M  V30 1999 H 188.616 -0.606819 -0.435638 0
M  V30 2000 H 191.278 -1.88713 -0.487177 0
M  V30 2001 H 190.374 -2.47958 -1.89534 0
M  V30 2002 N 190.675 0.682077 -1.42076 0
M  V30 2003 C 191.921 1.44428 -1.42367 0
M  V30 2004 C 192.254 1.94164 -0.0373056 0
M  V30 2005 O 191.529 1.70429 0.937239 0
M  V30 2006 C 191.812 2.64654 -2.44194 0
M  V30 2007 C 191.665 2.20596 -3.91991 0
M  V30 2008 C 192.984 3.66865 -2.431 0
M  V30 2009 H 190.103 0.523834 -0.518428 0
M  V30 2010 H 192.745 0.77576 -1.73442 0
M  V30 2011 H 190.895 3.2169 -2.17826 0
M  V30 2012 H 192.567 1.68783 -4.29313 0
M  V30 2013 H 190.81 1.52242 -4.06208 0
M  V30 2014 H 191.481 3.06921 -4.58807 0
M  V30 2015 H 193.957 3.19531 -2.66532 0
M  V30 2016 H 192.833 4.48577 -3.16339 0
M  V30 2017 H 193.094 4.17493 -1.45437 0
M  V30 2018 N 192.153 1.28127 0.917671 0
M  V30 2019 C 193.381 1.17892 1.70026 0
M  V30 2020 C 193.796 -0.262958 1.8696 0
M  V30 2021 O 193.153 -1.17811 1.3938 0
M  V30 2022 C 193.204 1.86872 3.09453 0
M  V30 2023 O 192.925 3.25428 2.93306 0
M  V30 2024 C 194.426 1.8289 4.03815 0
M  V30 2025 H 191.646 0.40942 0.531617 0
M  V30 2026 H 194.19 1.69181 1.14883 0
M  V30 2027 H 192.345 1.39464 3.61426 0
M  V30 2028 H 192.759 3.59918 3.81523 0
M  V30 2029 H 194.233 2.35751 4.99125 0
M  V30 2030 H 194.71 0.800412 4.31845 0
M  V30 2031 H 195.316 2.29959 3.57769 0
M  V30 2032 N 193.631 -1.12557 1.10312 0
M  V30 2033 C 194.561 -2.20341 0.772798 0
M  V30 2034 C 195.542 -1.68198 -0.25365 0
M  V30 2035 O 196.727 -1.93831 -0.119699 0
M  V30 2036 C 193.857 -3.46709 0.202443 0
M  V30 2037 C 192.811 -4.11996 1.15943 0
M  V30 2038 C 192.137 -5.328 0.450345 0
M  V30 2039 C 193.437 -4.5828 2.50552 0
M  V30 2040 H 195.131 -2.48229 1.674 0
M  V30 2041 H 192.677 -1.19308 0.806326 0
M  V30 2042 H 194.63 -4.2138 -0.0407752 0
M  V30 2043 H 193.354 -3.18245 -0.734001 0
M  V30 2044 H 192.013 -3.39305 1.38808 0
M  V30 2045 H 191.661 -5.00602 -0.490531 0
M  V30 2046 H 191.361 -5.7743 1.08851 0
M  V30 2047 H 192.885 -6.10219 0.215642 0
M  V30 2048 H 194.299 -5.2433 2.31843 0
M  V30 2049 H 192.696 -5.13683 3.10242 0
M  V30 2050 H 193.766 -3.72329 3.10643 0
M  V30 2051 N 195.109 -0.891671 -1.2995 0
M  V30 2052 C 196.059 -0.334811 -2.25528 0
M  V30 2053 C 197.043 0.540553 -1.51548 0
M  V30 2054 O 198.235 0.383882 -1.72787 0
M  V30 2055 C 195.364 0.44374 -3.4042 0
M  V30 2056 C 194.45 -0.44609 -4.21747 0
M  V30 2057 N 194.841 -1.54963 -4.81477 0
M  V30 2058 C 193.139 -0.242415 -4.45341 0
M  V30 2059 C 193.84 -2.10015 -5.42465 0
M  V30 2060 N 192.816 -1.39423 -5.25416 0
M  V30 2061 H 196.618 -1.17792 -2.69262 0
M  V30 2062 H 194.132 -0.741822 -1.44467 0
M  V30 2063 H 196.129 0.859362 -4.07947 0
M  V30 2064 H 194.789 1.28421 -2.98225 0
M  V30 2065 H 195.8 -1.93244 -4.80497 0
M  V30 2066 H 192.477 0.560342 -4.13723 0
M  V30 2067 H 193.867 -3.02724 -5.9984 0
M  V30 2068 N 196.587 1.43421 -0.653314 0
M  V30 2069 C 198.003 1.56341 -0.320886 0
M  V30 2070 C 198.203 1.63696 1.17499 0
M  V30 2071 O 197.259 1.59208 1.95982 0
M  V30 2072 C 198.572 2.82424 -1.03233 0
M  V30 2073 C 200.12 2.96168 -1.01259 0
M  V30 2074 C 200.595 4.25084 -1.70492 0
M  V30 2075 N 202.086 4.31948 -1.67257 0
M  V30 2076 C 202.821 5.30466 -2.17701 0
M  V30 2077 N 202.317 6.35261 -2.76434 0
M  V30 2078 N 204.11 5.2212 -2.082 0
M  V30 2079 H 196.261 1.3689 -1.62403 0
M  V30 2080 H 198.524 0.657455 -0.682977 0
M  V30 2081 H 198.23 2.83053 -2.08744 0
M  V30 2082 H 198.104 3.72653 -0.583948 0
M  V30 2083 H 200.491 2.9508 0.0341235 0
M  V30 2084 H 200.572 2.07229 -1.49966 0
M  V30 2085 H 200.216 4.26932 -2.7512 0
M  V30 2086 H 200.146 5.1292 -1.19251 0
M  V30 2087 H 202.637 3.56838 -1.24398 0
M  V30 2088 H 202.95 7.06754 -3.12601 0
M  V30 2089 H 201.295 6.35884 -2.80495 0
M  V30 2090 H 204.486 4.39166 -1.62021 0
M  V30 2091 H 204.659 5.98739 -2.47822 0
M  V30 2092 N 198.065 0.39524 1.52563 0
M  V30 2093 C 198.998 -0.4813 2.23067 0
M  V30 2094 C 199.976 -1.05927 1.23362 0
M  V30 2095 O 201.16 -1.10979 1.52368 0
M  V30 2096 C 198.287 -1.66676 2.9485 0
M  V30 2097 C 197.333 -1.21348 4.08873 0
M  V30 2098 S 198.166 -0.190102 5.35162 0
M  V30 2099 C 199.322 -1.38121 6.1047 0
M  V30 2100 H 199.555 0.117381 2.97068 0
M  V30 2101 H 197.088 0.179458 1.53354 0
M  V30 2102 H 199.046 -2.3466 3.36816 0
M  V30 2103 H 197.707 -2.23676 2.20518 0
M  V30 2104 H 196.9 -2.09877 4.58222 0
M  V30 2105 H 196.502 -0.612486 3.68951 0
M  V30 2106 H 198.794 -2.30726 6.37002 0
M  V30 2107 H 199.737 -0.928521 7.01986 0
M  V30 2108 H 200.145 -1.60071 5.41329 0
M  V30 2109 N 199.544 -1.57102 0.125237 0
M  V30 2110 C 200.79 -1.95697 -0.532035 0
M  V30 2111 C 201.123 -1.009 -1.6593 0
M  V30 2112 O 200.398 -0.047347 -1.94442 0
M  V30 2113 C 200.681 -3.44181 -1.05884 0
M  V30 2114 C 200.534 -4.49752 0.0654392 0
M  V30 2115 C 201.853 -3.94655 -1.9477 0
M  V30 2116 H 198.972 -0.711571 -0.191925 0
M  V30 2117 H 201.614 -1.88923 0.20206 0
M  V30 2118 H 199.764 -3.50085 -1.68442 0
M  V30 2119 H 201.436 -4.55943 0.700982 0
M  V30 2120 H 199.679 -4.27653 0.727709 0
M  V30 2121 H 200.35 -5.50924 -0.344505 0
M  V30 2122 H 202.826 -3.91094 -1.42074 0
M  V30 2123 H 201.702 -4.99057 -2.28546 0
M  V30 2124 H 201.963 -3.35718 -2.87656 0
M  V30 2125 N 201.022 0.148545 -1.56898 0
M  V30 2126 C 201.969 1.18345 -1.98149 0
M  V30 2127 C 202.939 1.42772 -0.848848 0
M  V30 2128 O 204.124 1.55132 -1.11079 0
M  V30 2129 C 201.264 2.51231 -2.36594 0
M  V30 2130 C 200.377 2.33991 -3.63142 0
M  V30 2131 C 199.512 3.59902 -3.90697 0
M  V30 2132 C 198.551 3.37692 -5.1052 0
M  V30 2133 N 197.688 4.5573 -5.34092 0
M  V30 2134 H 202.528 0.82467 -2.86362 0
M  V30 2135 H 200.065 0.395756 -1.41676 0
M  V30 2136 H 202.023 3.28713 -2.56912 0
M  V30 2137 H 200.653 2.85059 -1.51463 0
M  V30 2138 H 199.705 1.47572 -3.50609 0
M  V30 2139 H 201.017 2.13539 -4.5078 0
M  V30 2140 H 200.171 4.45813 -4.11505 0
M  V30 2141 H 198.91 3.83357 -3.01477 0
M  V30 2142 H 197.915 2.5017 -4.89587 0
M  V30 2143 H 199.14 3.15637 -6.0129 0
M  V30 2144 H 197.086 4.79361 -4.47827 0
M  V30 2145 H 197.003 4.38274 -6.15996 0
M  V30 2146 H 198.271 5.42858 -5.59397 0
M  V30 2147 N 202.5 1.5196 0.417844 0
M  V30 2148 C 203.916 1.40569 0.755816 0
M  V30 2149 C 204.116 0.503316 1.95113 0
M  V30 2150 O 203.172 -0.0341925 2.52477 0
M  V30 2151 C 204.485 2.82947 1.01791 0
M  V30 2152 C 206.033 2.92231 1.12116 0
M  V30 2153 C 206.508 4.35559 1.41608 0
M  V30 2154 N 207.999 4.38753 1.48491 0
M  V30 2155 C 208.734 5.46705 1.7292 0
M  V30 2156 N 208.23 6.64788 1.95011 0
M  V30 2157 N 210.023 5.34209 1.74863 0
M  V30 2158 H 202.174 2.09168 -0.369098 0
M  V30 2159 H 204.437 0.942409 -0.102809 0
M  V30 2160 H 204.143 3.5106 0.212081 0
M  V30 2161 H 204.017 3.23462 1.94042 0
M  V30 2162 H 206.404 2.24304 1.9176 0
M  V30 2163 H 206.485 2.55185 0.177225 0
M  V30 2164 H 206.129 5.04042 0.624848 0
M  V30 2165 H 206.059 4.70133 2.37239 0
M  V30 2166 H 208.55 3.5363 1.33244 0
M  V30 2167 H 208.863 7.42845 2.13076 0
M  V30 2168 H 207.208 6.67869 1.92293 0
M  V30 2169 H 210.399 4.40937 1.57137 0
M  V30 2170 H 210.572 6.18415 1.93563 0
M  V30 2171 N 203.978 -0.674533 1.42435 0
M  V30 2172 C 204.941 -1.76986 1.45632 0
M  V30 2173 C 205.941 -1.5708 0.343871 0
M  V30 2174 O 207.131 -1.63367 0.604709 0
M  V30 2175 C 204.263 -3.15623 1.28822 0
M  V30 2176 H 205.456 -1.75539 2.43158 0
M  V30 2177 H 203.009 -0.884189 1.28887 0
M  V30 2178 H 203.744 -3.22696 0.322193 0
M  V30 2179 H 203.529 -3.31475 2.09444 0
M  V30 2180 H 205.019 -3.95537 1.33942 0
M  V30 2181 N 205.456 -1.28612 -0.910864 0
M  V30 2182 C 206.733 -1.06632 -1.63979 0
M  V30 2183 C 207.113 0.393351 -2.07403 0
M  V30 2184 O 206.461 1.37999 -1.82122 0
M  V30 2185 C 206.671 -2.0436 -2.8291 0
M  V30 2186 C 208.019 -2.34666 -3.5386 0
M  V30 2187 O 209.043 -2.02467 -2.93062 0
M  V30 2188 O 207.902 -2.89631 -4.63439 0
M  V30 2189 H 204.996 -0.407737 -0.7195 0
M  V30 2190 H 207.542 -1.39942 -0.959914 0
M  V30 2191 H 206.314 -3.02727 -2.47936 0
M  V30 2192 H 205.937 -1.71714 -3.58609 0
M  V30 2193 N 206.934 1.1197 -1.10907 0
M  V30 2194 C 207.897 2.16031 -0.765707 0
M  V30 2195 C 208.897 1.59393 0.212235 0
M  V30 2196 O 210.087 1.74196 -0.0115441 0
M  V30 2197 C 207.219 3.40632 -0.135053 0
M  V30 2198 H 208.412 2.47919 -1.68748 0
M  V30 2199 H 205.965 1.27061 -0.910226 0
M  V30 2200 H 206.7 3.14348 0.797218 0
M  V30 2201 H 206.485 3.8302 -0.838937 0
M  V30 2202 H 207.975 4.17505 0.0892469 0
M  V30 2203 N 208.412 0.89855 1.29475 0
M  V30 2204 C 209.66 0.522847 1.9522 0
M  V30 2205 C 209.981 -0.93371 1.71192 0
M  V30 2206 O 209.251 -1.65823 1.04305 0
M  V30 2207 H 207.831 0.190366 0.722336 0
M  V30 2208 H 210.493 1.14459 1.5775 0
M  V30 2209 H 209.589 0.704476 3.04045 0
M  V30 2210 N 209.89 -1.43072 0.660911 0
M  V30 2211 C 210.853 -2.29194 -0.0166406 0
M  V30 2212 C 211.853 -1.42609 -0.742912 0
M  V30 2213 O 213.043 -1.64155 -0.583004 0
M  V30 2214 C 210.175 -3.24831 -1.0343 0
M  V30 2215 H 211.368 -2.90596 0.741208 0
M  V30 2216 H 208.921 -1.5048 0.422532 0
M  V30 2217 H 209.656 -2.68339 -1.82111 0
M  V30 2218 H 209.441 -3.88676 -0.517082 0
M  V30 2219 H 210.931 -3.89451 -1.50723 0
M  V30 2220 N 211.368 -0.403325 -1.52352 0
M  V30 2221 C 212.617 0.175668 -2.00934 0
M  V30 2222 C 212.93 1.46718 -1.29356 0
M  V30 2223 O 214.136 2.12708 -1.68724 0
M  V30 2224 C 212.592 0.363612 -3.58058 0
M  V30 2225 C 212.2 -0.915472 -4.38547 0
M  V30 2226 C 213.944 0.89821 -4.14888 0
M  V30 2227 C 211.851 -0.695035 -5.87302 0
M  V30 2228 H 210.781 0.0694234 -0.750797 0
M  V30 2229 H 213.432 -0.527879 -1.75743 0
M  V30 2230 H 211.814 1.12935 -3.79555 0
M  V30 2231 H 212.988 -1.68691 -4.28812 0
M  V30 2232 H 211.303 -1.37606 -3.93006 0
M  V30 2233 H 213.9 1.07907 -5.23699 0
M  V30 2234 H 214.243 1.87126 -3.71873 0
M  V30 2235 H 214.776 0.191681 -3.97338 0
M  V30 2236 H 211.515 -1.63948 -6.34666 0
M  V30 2237 H 211.035 0.0372116 -5.99788 0
M  V30 2238 H 212.714 -0.33497 -6.46132 0
M  V30 2239 N 212.846 1.57033 -0.133567 0
M  V30 2240 C 214.092 1.95976 0.521649 0
M  V30 2241 C 214.425 1.01779 1.65393 0
M  V30 2242 O 213.7 0.0576581 1.94415 0
M  V30 2243 C 213.983 3.44738 1.04057 0
M  V30 2244 C 213.836 4.49711 -0.0892897 0
M  V30 2245 C 215.155 3.95682 1.92675 0
M  V30 2246 H 212.274 0.712579 0.188149 0
M  V30 2247 H 214.916 1.88813 -0.212076 0
M  V30 2248 H 213.066 3.50973 1.66583 0
M  V30 2249 H 214.738 4.55565 -0.725152 0
M  V30 2250 H 212.981 4.27261 -0.750378 0
M  V30 2251 H 213.652 5.51099 0.315284 0
M  V30 2252 H 216.128 3.91841 1.39998 0
M  V30 2253 H 215.004 5.00262 2.25897 0
M  V30 2254 H 215.265 3.37239 2.85872 0
M  V30 2255 N 214.325 -0.140222 1.56975 0
M  V30 2256 C 215.288 -1.15689 1.97861 0
M  V30 2257 C 216.288 -1.3549 0.865974 0
M  V30 2258 O 217.478 -1.32367 1.13246 0
M  V30 2259 C 214.61 -2.51582 2.30042 0
M  V30 2260 H 215.803 -0.805971 2.88867 0
M  V30 2261 H 213.356 -0.383801 1.51515 0
M  V30 2262 H 214.091 -2.91632 1.41849 0
M  V30 2263 H 213.876 -2.38569 3.11171 0
M  V30 2264 H 215.366 -3.24792 2.62488 0
M  V30 2265 N 215.803 -1.52179 -0.40978 0
M  V30 2266 C 216.735 -1.71703 -1.51825 0
M  V30 2267 C 217.748 -0.597445 -1.51441 0
M  V30 2268 O 218.937 -0.872582 -1.55719 0
M  V30 2269 C 216.037 -1.74171 -2.90719 0
M  V30 2270 C 215.21 -3.03156 -3.15302 0
M  V30 2271 C 214.269 -2.97445 -4.34065 0
M  V30 2272 O 213.295 -3.71352 -4.31377 0
M  V30 2273 N 214.497 -2.15191 -5.39141 0
M  V30 2274 H 217.262 -2.67334 -1.35472 0
M  V30 2275 H 214.823 -1.50409 -0.599069 0
M  V30 2276 H 216.815 -1.67884 -3.68235 0
M  V30 2277 H 215.385 -0.860166 -3.00533 0
M  V30 2278 H 214.605 -3.23097 -2.25836 0
M  V30 2279 H 215.893 -3.88484 -3.28569 0
M  V30 2280 H 215.291 -1.54573 -5.44173 0
M  V30 2281 H 213.848 -2.1476 -6.15403 0
M  V30 2282 N 217.281 0.66697 -1.42791 0
M  V30 2283 C 218.211 1.79218 -1.49677 0
M  V30 2284 C 219.192 1.66405 -0.352623 0
M  V30 2285 O 220.377 1.85708 -0.567993 0
M  V30 2286 C 217.507 3.17565 -1.40605 0
M  V30 2287 C 216.461 3.45124 -2.53127 0
M  V30 2288 C 215.787 4.83127 -2.29112 0
M  V30 2289 C 217.087 3.41236 -3.95418 0
M  V30 2290 H 218.781 1.73713 -2.43853 0
M  V30 2291 H 216.327 0.83432 -1.17367 0
M  V30 2292 H 218.28 3.96022 -1.44029 0
M  V30 2293 H 217.004 3.23767 -0.429271 0
M  V30 2294 H 215.663 2.69031 -2.49034 0
M  V30 2295 H 215.311 4.85988 -1.29709 0
M  V30 2296 H 215.011 5.02528 -3.04531 0
M  V30 2297 H 216.535 5.63859 -2.34297 0
M  V30 2298 H 217.949 4.09651 -4.01073 0
M  V30 2299 H 216.346 3.72173 -4.70752 0
M  V30 2300 H 217.416 2.39665 -4.21532 0
M  V30 2301 N 218.759 1.29093 0.90403 0
M  V30 2302 C 220.175 1.07011 1.1841 0
M  V30 2303 C 220.375 -0.181358 2.00682 0
M  V30 2304 O 219.431 -0.880331 2.36657 0
M  V30 2305 C 220.744 2.32311 1.90924 0
M  V30 2306 C 222.292 2.37587 2.03768 0
M  V30 2307 C 222.767 3.62679 2.79693 0
M  V30 2308 N 224.258 3.63376 2.87249 0
M  V30 2309 C 224.993 4.56848 3.46522 0
M  V30 2310 N 224.489 5.60648 4.06996 0
M  V30 2311 N 226.282 4.44426 3.44154 0
M  V30 2312 H 218.433 2.09412 0.354993 0
M  V30 2313 H 220.696 0.922181 0.219742 0
M  V30 2314 H 220.402 3.23536 1.37905 0
M  V30 2315 H 220.276 2.39483 2.91424 0
M  V30 2316 H 222.663 1.46853 2.55965 0
M  V30 2317 H 222.744 2.34403 1.02415 0
M  V30 2318 H 222.388 4.53762 2.28173 0
M  V30 2319 H 222.318 3.63119 3.81381 0
M  V30 2320 H 224.809 2.88321 2.44293 0
M  V30 2321 H 225.122 6.28101 4.50232 0
M  V30 2322 H 223.467 5.64463 4.05471 0
M  V30 2323 H 226.658 3.62529 2.96126 0
M  V30 2324 H 226.831 5.17457 3.90054 0
M  V30 2325 N 220.237 -1.11381 1.11499 0
M  V30 2326 C 221.486 -1.82494 0.858993 0
M  V30 2327 C 221.799 -1.85605 -0.617278 0
M  V30 2328 O 223.005 -2.52824 -0.989552 0
M  V30 2329 C 221.461 -3.27745 1.48699 0
M  V30 2330 C 221.069 -3.32961 2.99735 0
M  V30 2331 C 222.813 -4.03754 1.31085 0
M  V30 2332 C 220.72 -4.72612 3.55516 0
M  V30 2333 H 219.65 -0.683802 0.317696 0
M  V30 2334 H 222.301 -1.25331 1.34031 0
M  V30 2335 H 220.683 -3.84844 0.933339 0
M  V30 2336 H 221.857 -2.85741 3.61509 0
M  V30 2337 H 220.172 -2.70433 3.16631 0
M  V30 2338 H 222.769 -5.06891 1.70192 0
M  V30 2339 H 223.112 -4.15527 0.253496 0
M  V30 2340 H 223.645 -3.53043 1.83318 0
M  V30 2341 H 220.384 -4.66036 4.60967 0
M  V30 2342 H 219.904 -5.2024 2.98513 0
M  V30 2343 H 221.583 -5.4157 3.53992 0
M  V30 2344 N 221.715 -0.905404 -1.28997 0
M  V30 2345 C 222.678 -0.392253 -2.25819 0
M  V30 2346 C 223.678 0.476753 -1.5357 0
M  V30 2347 O 224.868 0.280994 -1.71919 0
M  V30 2348 C 222 0.438588 -3.38067 0
M  V30 2349 H 223.193 -1.24743 -2.72725 0
M  V30 2350 H 220.746 -0.684051 -1.40536 0
M  V30 2351 H 221.481 1.31352 -2.96508 0
M  V30 2352 H 221.266 -0.184167 -3.91667 0
M  V30 2353 H 222.756 0.78873 -4.10084 0
M  V30 2354 N 223.193 1.4272 -0.668489 0
M  V30 2355 C 224.442 2.00846 -0.185389 0
M  V30 2356 C 224.755 1.53442 1.21305 0
M  V30 2357 O 225.961 2.03944 1.79218 0
M  V30 2358 C 224.417 3.58805 -0.280591 0
M  V30 2359 C 224.025 4.15198 -1.68268 0
M  V30 2360 C 225.769 4.24255 0.14412 0
M  V30 2361 C 223.676 5.655 -1.73099 0
M  V30 2362 H 222.606 0.751145 -0.0655475 0
M  V30 2363 H 225.257 1.63516 -0.832752 0
M  V30 2364 H 223.639 3.93608 0.434553 0
M  V30 2365 H 224.813 3.91866 -2.42441 0
M  V30 2366 H 223.128 3.62176 -2.05469 0
M  V30 2367 H 225.725 5.34547 0.128086 0
M  V30 2368 H 226.068 3.99277 1.17827 0
M  V30 2369 H 226.601 3.94389 -0.519798 0
M  V30 2370 H 223.34 5.95268 -2.74475 0
M  V30 2371 H 222.86 5.90842 -1.03274 0
M  V30 2372 H 224.539 6.29808 -1.48158 0
M  V30 2373 N 224.671 0.411399 1.52136 0
M  V30 2374 C 225.634 -0.401089 2.25663 0
M  V30 2375 C 226.634 -0.971732 1.28117 0
M  V30 2376 O 227.824 -0.850254 1.52041 0
M  V30 2377 C 224.956 -1.56483 3.02863 0
M  V30 2378 H 226.149 0.24295 2.98914 0
M  V30 2379 H 223.702 0.163968 1.55438 0
M  V30 2380 H 224.437 -2.24567 2.33967 0
M  V30 2381 H 224.222 -1.16211 3.74483 0
M  V30 2382 H 225.712 -2.13951 3.58629 0
M  V30 2383 N 226.149 -1.5696 0.141893 0
M  V30 2384 C 227.56 -1.82797 -0.379776 0
M  V30 2385 C 227.911 -1.06033 -1.6508 0
M  V30 2386 O 227.036 -0.304011 -2.14254 0
M  V30 2387 C 227.631 -3.31578 -0.695802 0
M  V30 2388 C 226.19 -3.58014 -1.16201 0
M  V30 2389 C 225.337 -2.76699 -0.182455 0
M  V30 2390 H 228.288 -1.54406 0.366675 0
M  V30 2391 H 228.309 -3.47454 -1.55099 0
M  V30 2392 H 227.821 -3.87421 0.229449 0
M  V30 2393 H 225.922 -3.07553 -2.10338 0
M  V30 2394 H 226.035 -4.66501 -1.09151 0
M  V30 2395 H 224.399 -2.45618 -0.674072 0
M  V30 2396 H 225.182 -3.35311 0.736297 0
M  V30 2397 N 227.627 0.131896 -1.57047 0
M  V30 2398 C 228.904 0.871495 -1.75112 0
M  V30 2399 C 229.284 1.9866 -0.713949 0
M  V30 2400 O 228.632 2.26965 0.264447 0
M  V30 2401 C 228.842 1.40007 -3.19686 0
M  V30 2402 C 230.19 1.85752 -3.81813 0
M  V30 2403 O 231.214 1.49715 -3.23209 0
M  V30 2404 O 230.073 2.5226 -4.84796 0
M  V30 2405 H 227.167 0.412919 -0.716538 0
M  V30 2406 H 229.713 0.116641 -1.69299 0
M  V30 2407 H 228.485 0.599404 -3.86682 0
M  V30 2408 H 228.108 2.218 -3.29986 0
M  V30 2409 N 229.106 1.52395 0.401703 0
M  V30 2410 C 230.383 1.57387 1.16141 0
M  V30 2411 C 230.763 0.359359 2.08019 0
M  V30 2412 O 230.111 -0.65326 2.18963 0
M  V30 2413 C 230.321 2.90631 1.93221 0
M  V30 2414 C 231.669 3.43904 2.49028 0
M  V30 2415 O 232.693 2.92421 2.03393 0
M  V30 2416 O 231.552 4.33823 3.32356 0
M  V30 2417 H 228.646 0.634262 0.530698 0
M  V30 2418 H 231.192 1.64725 0.407883 0
M  V30 2419 H 229.964 3.70473 1.25958 0
M  V30 2420 H 229.587 2.8662 2.75563 0
M  V30 2421 N 230.584 -0.659388 1.43143 0
M  V30 2422 C 231.833 -1.41518 1.43721 0
M  V30 2423 C 232.146 -1.95499 0.0628176 0
M  V30 2424 O 233.352 -2.71446 -0.0539683 0
M  V30 2425 C 231.808 -2.5608 2.52885 0
M  V30 2426 C 231.416 -2.08733 3.96402 0
M  V30 2427 C 233.16 -3.3349 2.62649 0
M  V30 2428 C 231.067 -3.20469 4.97045 0
M  V30 2429 H 229.997 -0.531705 0.534608 0
M  V30 2430 H 232.648 -0.712343 1.69109 0
M  V30 2431 H 231.03 -3.28805 2.20688 0
M  V30 2432 H 232.204 -1.43059 4.3803 0
M  V30 2433 H 230.519 -1.44219 3.90627 0
M  V30 2434 H 233.116 -4.16734 3.35017 0
M  V30 2435 H 233.459 -3.8111 1.67513 0
M  V30 2436 H 233.992 -2.67842 2.94118 0
M  V30 2437 H 230.731 -2.77824 5.93712 0
M  V30 2438 H 230.251 -3.84874 4.60034 0
M  V30 2439 H 231.93 -3.85698 5.19467 0
M  V30 2440 N 232.062 -1.29571 -0.897171 0
M  V30 2441 C 233.025 -1.14913 -1.98312 0
M  V30 2442 C 234.025 -0.0838629 -1.60581 0
M  V30 2443 O 235.215 -0.331006 -1.71026 0
M  V30 2444 C 232.347 -0.757835 -3.3237 0
M  V30 2445 H 233.54 -2.11377 -2.12743 0
M  V30 2446 H 231.093 -1.12793 -1.08201 0
M  V30 2447 H 231.828 0.206837 -3.2364 0
M  V30 2448 H 231.613 -1.52755 -3.61121 0
M  V30 2449 H 233.103 -0.678408 -4.12053 0
M  V30 2450 N 233.54 1.10788 -1.12088 0
M  V30 2451 C 234.789 1.82036 -0.868659 0
M  V30 2452 C 235.102 1.85929 0.607426 0
M  V30 2453 O 236.308 2.53346 0.97613 0
M  V30 2454 C 234.764 3.26951 -1.50435 0
M  V30 2455 C 234.372 3.31367 -3.01496 0
M  V30 2456 C 236.116 4.03053 -1.33225 0
M  V30 2457 C 234.023 4.7072 -3.58017 0
M  V30 2458 H 232.953 0.682108 -0.321318 0
M  V30 2459 H 235.604 1.24618 -1.34694 0
M  V30 2460 H 233.986 3.84343 -0.953735 0
M  V30 2461 H 235.16 2.83819 -3.6302 0
M  V30 2462 H 233.475 2.6875 -3.18061 0
M  V30 2463 H 236.072 5.05981 -1.72878 0
M  V30 2464 H 236.415 4.15387 -0.275529 0
M  V30 2465 H 236.948 3.52066 -1.85188 0
M  V30 2466 H 233.687 4.63585 -4.63432 0
M  V30 2467 H 233.207 5.1865 -3.01268 0
M  V30 2468 H 234.886 5.39685 -3.56859 0
M  V30 2469 N 235.018 0.912232 1.28515 0
M  V30 2470 C 236.246 0.560416 1.99166 0
M  V30 2471 C 236.661 -0.857927 1.68182 0
M  V30 2472 O 236.018 -1.56805 0.933733 0
M  V30 2473 C 236.069 0.758142 3.53461 0
M  V30 2474 O 235.79 2.12067 3.83352 0
M  V30 2475 C 237.291 0.412954 4.41372 0
M  V30 2476 H 234.511 0.213805 0.636026 0
M  V30 2477 H 237.055 1.22502 1.63749 0
M  V30 2478 H 235.21 0.140556 3.87145 0
M  V30 2479 H 235.624 2.15923 4.77993 0
M  V30 2480 H 237.098 0.60208 5.48707 0
M  V30 2481 H 237.575 -0.65073 4.34353 0
M  V30 2482 H 238.181 1.00802 4.13182 0
M  V30 2483 N 236.496 -1.42363 0.676048 0
M  V30 2484 C 237.426 -2.33497 0.0124832 0
M  V30 2485 C 238.407 -1.50748 -0.787981 0
M  V30 2486 O 239.592 -1.79346 -0.744884 0
M  V30 2487 C 236.722 -3.34377 -0.938582 0
M  V30 2488 C 235.676 -4.27289 -0.246622 0
M  V30 2489 C 235.002 -5.18386 -1.31071 0
M  V30 2490 C 236.302 -5.14916 0.875125 0
M  V30 2491 H 237.996 -2.89233 0.773593 0
M  V30 2492 H 235.542 -1.39073 0.37346 0
M  V30 2493 H 237.495 -3.97044 -1.41188 0
M  V30 2494 H 236.219 -2.76947 -1.73113 0
M  V30 2495 H 234.878 -3.66018 0.206456 0
M  V30 2496 H 234.526 -4.57282 -2.09528 0
M  V30 2497 H 234.226 -5.81378 -0.852839 0
M  V30 2498 H 235.75 -5.83929 -1.78492 0
M  V30 2499 H 237.164 -5.71262 0.482983 0
M  V30 2500 H 235.561 -5.86747 1.25887 0
M  V30 2501 H 236.631 -4.53242 1.72335 0
M  V30 2502 N 237.974 -0.419461 -1.51915 0
M  V30 2503 C 238.924 0.418496 -2.24126 0
M  V30 2504 C 239.908 1.00495 -1.25656 0
M  V30 2505 O 241.1 0.926058 -1.50842 0
M  V30 2506 C 238.229 1.52899 -3.07371 0
M  V30 2507 C 237.315 0.952797 -4.13258 0
M  V30 2508 N 237.706 0.104175 -5.05693 0
M  V30 2509 C 236.004 1.22224 -4.28926 0
M  V30 2510 C 236.705 -0.21752 -5.81293 0
M  V30 2511 N 235.681 0.394293 -5.42168 0
M  V30 2512 H 239.483 -0.236048 -2.92951 0
M  V30 2513 H 236.997 -0.230481 -1.60756 0
M  V30 2514 H 238.994 2.14199 -3.57665 0
M  V30 2515 H 237.654 2.18605 -2.40088 0
M  V30 2516 H 238.665 -0.260924 -5.17242 0
M  V30 2517 H 235.342 1.87812 -3.72871 0
M  V30 2518 H 236.732 -0.906992 -6.6575 0
M  V30 2519 N 239.452 1.56882 -0.150215 0
M  V30 2520 C 240.402 2.13501 0.800071 0
M  V30 2521 C 241.386 1.06368 1.20726 0
M  V30 2522 O 242.578 1.32538 1.17314 0
M  V30 2523 C 239.707 2.76271 2.03787 0
M  V30 2524 C 238.793 3.90533 1.65364 0
M  V30 2525 N 239.184 4.96259 0.977794 0
M  V30 2526 C 237.482 4.013 1.94613 0
M  V30 2527 C 238.183 5.76286 0.791794 0
M  V30 2528 N 237.159 5.27163 1.32666 0
M  V30 2529 H 240.961 2.92615 0.274517 0
M  V30 2530 H 238.475 1.62319 0.0512144 0
M  V30 2531 H 240.472 3.15197 2.72867 0
M  V30 2532 H 239.132 1.98631 2.56857 0
M  V30 2533 H 240.143 5.13953 0.638193 0
M  V30 2534 H 236.82 3.3474 2.4951 0
M  V30 2535 H 238.21 6.71401 0.258894 0
M  V30 2536 N 240.93 -0.123565 1.57115 0
M  V30 2537 C 241.877 -1.15177 2.00007 0
M  V30 2538 C 242.847 -1.41403 0.871454 0
M  V30 2539 O 244.032 -1.53346 1.13533 0
M  V30 2540 C 241.172 -2.47436 2.40561 0
M  V30 2541 C 240.285 -2.28184 3.66819 0
M  V30 2542 C 239.42 -3.53641 3.96373 0
M  V30 2543 C 238.459 -3.29528 5.15827 0
M  V30 2544 N 237.596 -4.47175 5.41275 0
M  V30 2545 H 242.436 -0.779008 2.87638 0
M  V30 2546 H 239.973 -0.373166 1.42288 0
M  V30 2547 H 241.931 -3.24584 2.62109 0
M  V30 2548 H 240.561 -2.82614 1.55978 0
M  V30 2549 H 239.613 -1.41976 3.52912 0
M  V30 2550 H 240.925 -2.0634 4.5412 0
M  V30 2551 H 240.079 -4.39209 4.18545 0
M  V30 2552 H 238.818 -3.78512 3.07538 0
M  V30 2553 H 237.823 -2.42349 4.93505 0
M  V30 2554 H 239.048 -3.06031 6.06236 0
M  V30 2555 H 236.994 -4.72175 4.55397 0
M  V30 2556 H 236.911 -4.28419 6.22891 0
M  V30 2557 H 238.179 -5.3389 5.67963 0
M  V30 2558 N 242.408 -1.52605 -0.393616 0
M  V30 2559 C 243.338 -1.80022 -1.48709 0
M  V30 2560 C 244.319 -0.651995 -1.57108 0
M  V30 2561 O 245.504 -0.89913 -1.72132 0
M  V30 2562 C 242.634 -1.96492 -2.86371 0
M  V30 2563 C 241.588 -3.12161 -2.92813 0
M  V30 2564 C 240.914 -3.13877 -4.3288 0
M  V30 2565 C 242.214 -4.51322 -2.6288 0
M  V30 2566 H 243.908 -2.71589 -1.26015 0
M  V30 2567 H 241.454 -1.30684 -0.604778 0
M  V30 2568 H 243.407 -2.14255 -3.62867 0
M  V30 2569 H 242.131 -1.01611 -3.10391 0
M  V30 2570 H 240.79 -2.94173 -2.18764 0
M  V30 2571 H 240.438 -2.16687 -4.53933 0
M  V30 2572 H 240.138 -3.91576 -4.38112 0
M  V30 2573 H 241.662 -3.33789 -5.1129 0
M  V30 2574 H 243.076 -4.69435 -3.29096 0
M  V30 2575 H 241.473 -5.31053 -2.79468 0
M  V30 2576 H 242.543 -4.58353 -1.58242 0
M  V30 2577 N 243.887 0.651787 -1.4349 0
M  V30 2578 C 245.127 1.42345 -1.46688 0
M  V30 2579 C 245.491 1.91793 -0.0891023 0
M  V30 2580 O 246.692 2.688 0.00423594 0
M  V30 2581 C 244.963 2.57221 -2.48137 0
M  V30 2582 S 246.522 3.45725 -2.70221 0
M  V30 2583 H 243.34 0.485878 -0.51908 0
M  V30 2584 H 245.942 0.756578 -1.80267 0
M  V30 2585 H 244.646 2.1917 -3.46976 0
M  V30 2586 H 244.177 3.28757 -2.16061 0
M  V30 2587 H 246.192 4.53996 -2.00255 0
M  V30 2588 N 245.365 1.30045 0.890287 0
M  V30 2589 C 246.315 1.12592 1.9826 0
M  V30 2590 C 247.299 0.0426021 1.60844 0
M  V30 2591 O 248.491 0.265346 1.75 0
M  V30 2592 C 245.62 0.814301 3.33503 0
M  V30 2593 C 244.706 1.93761 3.7725 0
M  V30 2594 N 245.097 3.18232 3.93143 0
M  V30 2595 C 243.395 1.83277 4.06602 0
M  V30 2596 C 244.096 3.9158 4.30163 0
M  V30 2597 N 243.072 3.19591 4.3973 0
M  V30 2598 H 246.874 2.07003 2.08631 0
M  V30 2599 H 244.388 1.21307 1.07974 0
M  V30 2600 H 246.385 0.67029 4.11476 0
M  V30 2601 H 245.045 -0.121797 3.24471 0
M  V30 2602 H 246.056 3.53581 3.78419 0
M  V30 2603 H 242.733 0.97001 4.06075 0
M  V30 2604 H 244.123 4.98744 4.50226 0
M  V30 2605 N 246.843 -1.10192 1.12674 0
M  V30 2606 C 247.806 -2.14786 0.799979 0
M  V30 2607 C 248.806 -1.59711 -0.18685 0
M  V30 2608 O 249.996 -1.74156 0.0392558 0
M  V30 2609 C 247.128 -3.40374 0.189228 0
M  V30 2610 H 248.321 -2.45203 1.72671 0
M  V30 2611 H 245.874 -1.25597 0.930326 0
M  V30 2612 H 246.609 -3.15577 -0.747107 0
M  V30 2613 H 246.394 -3.81637 0.899766 0
M  V30 2614 H 247.884 -4.17594 -0.0228143 0
M  V30 2615 N 248.321 -0.919034 -1.28029 0
M  V30 2616 C 249.284 -0.416182 -2.2539 0
M  V30 2617 C 250.284 0.460438 -1.54067 0
M  V30 2618 O 251.474 0.262744 -1.72207 0
M  V30 2619 C 248.606 0.402707 -3.38513 0
M  V30 2620 H 249.799 -1.27629 -2.71387 0
M  V30 2621 H 247.352 -0.698919 -1.39803 0
M  V30 2622 H 248.087 1.282 -2.97885 0
M  V30 2623 H 247.872 -0.225698 -3.9145 0
M  V30 2624 H 249.362 0.745191 -4.10897 0
M  V30 2625 N 249.799 1.42003 -0.683588 0
M  V30 2626 C 251.215 1.55625 -0.353976 0
M  V30 2627 C 251.415 1.66151 1.14 0
M  V30 2628 O 250.471 1.63329 1.92561 0
M  V30 2629 C 251.784 2.80171 -1.092 0
M  V30 2630 C 253.332 2.93954 -1.07518 0
M  V30 2631 C 253.807 4.21372 -1.79471 0
M  V30 2632 N 255.298 4.28303 -1.76381 0
M  V30 2633 C 256.033 5.25729 -2.28904 0
M  V30 2634 N 255.529 6.29254 -2.89846 0
M  V30 2635 N 257.322 5.17586 -2.19228 0
M  V30 2636 H 249.473 1.33415 -1.6527 0
M  V30 2637 H 251.736 0.64282 -0.696769 0
M  V30 2638 H 251.442 2.78561 -2.14701 0
M  V30 2639 H 251.316 3.7133 -0.662862 0
M  V30 2640 H 253.703 2.95086 -0.028475 0
M  V30 2641 H 253.784 2.04002 -1.54328 0
M  V30 2642 H 253.428 4.21001 -2.84114 0
M  V30 2643 H 253.358 5.10275 -1.30104 0
M  V30 2644 H 255.849 3.54119 -1.31939 0
M  V30 2645 H 256.162 6.99964 -3.27522 0
M  V30 2646 H 254.507 6.29791 -2.93919 0
M  V30 2647 H 257.698 4.35631 -1.71299 0
M  V30 2648 H 257.871 5.93348 -2.60466 0
M  V30 2649 N 251.277 0.427512 1.51691 0
M  V30 2650 C 252.209 -0.424521 2.25234 0
M  V30 2651 C 253.222 -0.994671 1.2888 0
M  V30 2652 O 254.411 -0.890483 1.54702 0
M  V30 2653 C 251.511 -1.60479 2.98496 0
M  V30 2654 C 250.684 -1.15527 4.21868 0
M  V30 2655 C 249.743 -2.20454 4.77793 0
M  V30 2656 O 248.769 -1.8029 5.39893 0
M  V30 2657 N 249.971 -3.52831 4.60967 0
M  V30 2658 H 252.736 0.205749 2.98993 0
M  V30 2659 H 250.297 0.255867 1.59865 0
M  V30 2660 H 252.289 -2.30276 3.32799 0
M  V30 2661 H 250.859 -2.14061 2.27809 0
M  V30 2662 H 250.079 -0.284736 3.9317 0
M  V30 2663 H 251.367 -0.832173 5.01949 0
M  V30 2664 H 250.765 -3.88201 4.11481 0
M  V30 2665 H 249.322 -4.18551 4.99658 0
M  V30 2666 N 252.755 -1.56801 0.158532 0
M  V30 2667 C 253.685 -2.20347 -0.772609 0
M  V30 2668 C 254.666 -1.15518 -1.24859 0
M  V30 2669 O 255.851 -1.43902 -1.30406 0
M  V30 2670 C 252.981 -2.83417 -2.00729 0
M  V30 2671 C 251.935 -3.94174 -1.66765 0
M  V30 2672 C 251.261 -4.44233 -2.97592 0
M  V30 2673 C 252.561 -5.14392 -0.905447 0
M  V30 2674 H 254.255 -2.98413 -0.242959 0
M  V30 2675 H 251.801 -1.43537 -0.115419 0
M  V30 2676 H 253.754 -3.26543 -2.6636 0
M  V30 2677 H 252.478 -2.02701 -2.56086 0
M  V30 2678 H 251.137 -3.51684 -1.03508 0
M  V30 2679 H 250.785 -3.60325 -3.50963 0
M  V30 2680 H 250.485 -5.18945 -2.75626 0
M  V30 2681 H 252.009 -4.90037 -3.64274 0
M  V30 2682 H 253.423 -5.5429 -1.46408 0
M  V30 2683 H 251.82 -5.9494 -0.7853 0
M  V30 2684 H 252.89 -4.84795 0.100668 0
M  V30 2685 N 254.233 0.115231 -1.57178 0
M  V30 2686 C 255.163 1.1423 -2.03651 0
M  V30 2687 C 256.144 1.42967 -0.921655 0
M  V30 2688 O 257.329 1.53343 -1.19162 0
M  V30 2689 C 254.459 2.4675 -2.44401 0
M  V30 2690 C 253.413 2.32467 -3.59365 0
M  V30 2691 C 252.739 3.69984 -3.86026 0
M  V30 2692 C 254.039 1.78203 -4.90959 0
M  V30 2693 H 255.733 0.755749 -2.89705 0
M  V30 2694 H 253.279 0.362093 -1.39373 0
M  V30 2695 H 255.232 3.18854 -2.75517 0
M  V30 2696 H 253.956 2.87302 -1.55322 0
M  V30 2697 H 252.615 1.62811 -3.28463 0
M  V30 2698 H 252.263 4.08028 -2.94147 0
M  V30 2699 H 251.963 3.61279 -4.63412 0
M  V30 2700 H 253.487 4.43587 -4.19599 0
M  V30 2701 H 254.901 2.40128 -5.20587 0
M  V30 2702 H 253.298 1.8031 -5.72371 0
M  V30 2703 H 254.368 0.739876 -4.79222 0
M  V30 2704 N 255.711 1.52812 0.385517 0
M  V30 2705 C 256.621 1.80766 1.49535 0
M  V30 2706 C 257.637 0.694651 1.59532 0
M  V30 2707 O 258.813 0.982611 1.75803 0
M  V30 2708 C 255.878 1.97381 2.85029 0
M  V30 2709 C 254.939 3.21295 2.84724 0
M  V30 2710 C 254.172 3.37108 4.13756 0
M  V30 2711 O 254.395 2.5765 5.08893 0
M  V30 2712 O 253.329 4.30378 4.20783 0
M  V30 2713 H 257.155 2.75015 1.28842 0
M  V30 2714 H 254.74 1.37946 0.573697 0
M  V30 2715 H 256.622 2.09996 3.65349 0
M  V30 2716 H 255.297 1.06322 3.05741 0
M  V30 2717 H 254.204 3.1412 2.03174 0
M  V30 2718 H 255.537 4.12212 2.68965 0
M  V30 2719 N 257.189 -0.644168 1.43834 0
M  V30 2720 C 258.121 -1.76955 1.45669 0
M  V30 2721 C 259.134 -1.58956 0.351666 0
M  V30 2722 O 260.323 -1.6751 0.616644 0
M  V30 2723 C 257.423 -3.14507 1.26248 0
M  V30 2724 C 256.596 -3.59083 2.49757 0
M  V30 2725 C 255.655 -4.75467 2.25427 0
M  V30 2726 O 254.681 -4.84444 2.98836 0
M  V30 2727 N 255.883 -5.66289 1.27661 0
M  V30 2728 H 258.648 -1.75856 2.42682 0
M  V30 2729 H 256.209 -0.828312 1.39106 0
M  V30 2730 H 258.201 -3.90067 1.0784 0
M  V30 2731 H 256.771 -3.10325 0.376478 0
M  V30 2732 H 255.991 -2.7387 2.8353 0
M  V30 2733 H 257.279 -3.85613 3.31934 0
M  V30 2734 H 256.677 -5.61718 0.670064 0
M  V30 2735 H 255.234 -6.41533 1.15234 0
M  V30 2736 N 258.668 -1.30515 -0.883378 0
M  V30 2737 C 259.896 -1.22359 -1.66841 0
M  V30 2738 C 260.311 0.213296 -1.87591 0
M  V30 2739 O 259.668 1.14075 -1.42454 0
M  V30 2740 C 259.719 -1.95011 -3.04389 0
M  V30 2741 O 259.44 -3.3309 -2.84575 0
M  V30 2742 C 260.941 -1.93532 -3.98824 0
M  V30 2743 H 258.161 -0.423371 -0.520575 0
M  V30 2744 H 260.705 -1.72167 -1.10357 0
M  V30 2745 H 258.86 -1.48997 -3.57601 0
M  V30 2746 H 259.274 -3.69907 -3.71846 0
M  V30 2747 H 260.748 -2.48902 -4.92699 0
M  V30 2748 H 261.225 -0.914627 -4.29571 0
M  V30 2749 H 261.831 -2.39364 -3.51547 0
M  V30 2750 N 260.146 1.09593 -1.13257 0
M  V30 2751 C 261.076 2.18214 -0.830946 0
M  V30 2752 C 262.057 1.68812 0.208966 0
M  V30 2753 O 263.242 1.9408 0.0682666 0
M  V30 2754 C 260.372 3.46051 -0.294296 0
M  V30 2755 C 259.326 4.08778 -1.26826 0
M  V30 2756 C 258.652 5.31419 -0.591449 0
M  V30 2757 C 259.952 4.51476 -2.62615 0
M  V30 2758 H 261.646 2.43703 -1.73923 0
M  V30 2759 H 259.192 1.17128 -0.837675 0
M  V30 2760 H 261.145 4.2134 -0.0709606 0
M  V30 2761 H 259.869 3.20079 0.649366 0
M  V30 2762 H 258.528 3.35505 -1.47756 0
M  V30 2763 H 258.176 5.01727 0.357633 0
M  V30 2764 H 257.876 5.74341 -1.24123 0
M  V30 2765 H 259.4 6.09433 -0.377355 0
M  V30 2766 H 260.814 5.17999 -2.45663 0
M  V30 2767 H 259.211 5.05277 -3.23752 0
M  V30 2768 H 260.281 3.63962 -3.20406 0
M  V30 2769 N 261.624 0.925811 1.2754 0
M  V30 2770 C 263.035 0.610102 1.7645 0
M  V30 2771 C 263.386 -0.874723 1.75622 0
M  V30 2772 O 262.511 -1.68444 1.35851 0
M  V30 2773 C 263.106 1.10073 3.20421 0
M  V30 2774 C 261.665 0.835723 3.67005 0
M  V30 2775 C 260.812 1.26054 2.46993 0
M  V30 2776 H 263.763 1.10579 1.13833 0
M  V30 2777 H 263.784 0.447557 3.77859 0
M  V30 2778 H 263.296 2.18143 3.20991 0
M  V30 2779 H 261.397 -0.231249 3.71882 0
M  V30 2780 H 261.51 1.45193 4.56569 0
M  V30 2781 H 259.874 0.679111 2.45479 0
M  V30 2782 H 260.657 2.34984 2.50275 0
M  V30 2783 N 263.102 -1.41638 0.69111 0
M  V30 2784 C 264.065 -2.29178 0.0319786 0
M  V30 2785 C 265.065 -1.44153 -0.712496 0
M  V30 2786 O 266.255 -1.65354 -0.548053 0
M  V30 2787 C 263.387 -3.26952 -0.965161 0
M  V30 2788 H 264.58 -2.88959 0.802681 0
M  V30 2789 H 262.133 -1.4955 0.454356 0
M  V30 2790 H 262.868 -2.72142 -1.76378 0
M  V30 2791 H 262.653 -3.89685 -0.434522 0
M  V30 2792 H 264.143 -3.92561 -1.42428 0
M  V30 2793 N 264.58 -0.43555 -1.51462 0
M  V30 2794 C 265.829 0.133007 -2.01261 0
M  V30 2795 C 266.142 1.43942 -1.32439 0
M  V30 2796 O 267.348 2.09081 -1.73198 0
M  V30 2797 C 265.804 0.287581 -3.58749 0
M  V30 2798 C 265.412 -1.00829 -4.36506 0
M  V30 2799 C 267.156 0.810004 -4.167 0
M  V30 2800 C 265.063 -0.819454 -5.85695 0
M  V30 2801 H 263.993 0.0534822 -0.752101 0
M  V30 2802 H 266.644 -0.565038 -1.74584 0
M  V30 2803 H 265.026 1.04859 -3.81865 0
M  V30 2804 H 266.2 -1.77749 -4.25138 0
M  V30 2805 H 264.515 -1.45911 -3.89999 0
M  V30 2806 H 267.112 0.967743 -5.2587 0
M  V30 2807 H 267.455 1.79196 -3.75758 0
M  V30 2808 H 267.988 0.107357 -3.97655 0
M  V30 2809 H 264.727 -1.77374 -6.31046 0
M  V30 2810 H 264.247 -0.0900208 -5.99732 0
M  V30 2811 H 265.926 -0.471949 -6.45276 0
M  V30 2812 N 266.058 1.56714 -0.166846 0
M  V30 2813 C 267.005 2.17746 0.765193 0
M  V30 2814 C 267.975 1.11614 1.23011 0
M  V30 2815 O 269.16 1.39745 1.29908 0
M  V30 2816 C 266.3 2.81882 1.9909 0
M  V30 2817 C 265.413 4.02462 1.56997 0
M  V30 2818 C 264.548 4.54537 2.749 0
M  V30 2819 C 263.587 5.67538 2.29275 0
M  V30 2820 N 262.724 6.14142 3.40255 0
M  V30 2821 H 267.564 2.97048 0.237952 0
M  V30 2822 H 265.101 1.4672 0.105725 0
M  V30 2823 H 267.059 3.17221 2.70974 0
M  V30 2824 H 265.689 2.05191 2.49192 0
M  V30 2825 H 264.741 3.72973 0.748037 0
M  V30 2826 H 266.053 4.84273 1.19503 0
M  V30 2827 H 265.207 4.92035 3.54946 0
M  V30 2828 H 263.946 3.71774 3.1565 0
M  V30 2829 H 262.951 5.29597 1.47674 0
M  V30 2830 H 264.176 6.52099 1.89588 0
M  V30 2831 H 262.122 5.3431 3.8059 0
M  V30 2832 H 262.039 6.9093 3.06841 0
M  V30 2833 H 263.307 6.56289 4.206 0
M  V30 2834 N 267.536 -0.106894 1.57237 0
M  V30 2835 C 268.486 -1.1366 1.9765 0
M  V30 2836 C 269.47 -1.36416 0.853203 0
M  V30 2837 O 270.662 -1.37305 1.11697 0
M  V30 2838 C 267.791 -2.46 2.39455 0
M  V30 2839 C 266.877 -2.26668 3.58445 0
M  V30 2840 N 267.268 -1.77176 4.73754 0
M  V30 2841 C 265.566 -2.57279 3.64312 0
M  V30 2842 C 266.267 -1.71836 5.5574 0
M  V30 2843 N 265.243 -2.16623 4.98573 0
M  V30 2844 H 269.045 -0.74669 2.84256 0
M  V30 2845 H 266.559 -0.314483 1.59326 0
M  V30 2846 H 268.556 -3.2049 2.6663 0
M  V30 2847 H 267.216 -2.85738 1.54219 0
M  V30 2848 H 268.227 -1.46545 4.96734 0
M  V30 2849 H 264.904 -3.00622 2.89711 0
M  V30 2850 H 266.294 -1.34723 6.58255 0
M  V30 2851 N 269.014 -1.53014 -0.377408 0
M  V30 2852 C 270.262 -1.6829 -1.11906 0
M  V30 2853 C 270.583 -0.431206 -1.90173 0
M  V30 2854 O 269.853 0.554595 -1.87886 0
M  V30 2855 H 268.433 -0.620371 -0.416112 0
M  V30 2856 H 271.095 -1.90167 -0.426893 0
M  V30 2857 H 270.191 -2.53862 -1.8155 0
M  V30 2858 N 270.492 0.636531 -1.44174 0
M  V30 2859 C 271.44 1.76995 -1.50915 0
M  V30 2860 C 272.434 1.65053 -0.381295 0
M  V30 2861 O 273.64 1.71197 -0.55601 0
M  V30 2862 H 270.015 0.584247 -0.473455 0
M  V30 2863 H 271.986 1.68432 -2.4632 0
M  V30 2864 C 270.735 3.15314 -1.46534 0
M  V30 2865 H 270.058 3.25149 -2.32633 0
M  V30 2866 H 271.498 3.9453 -1.55312 0
M  V30 2867 C 269.957 3.3639 -0.185305 0
M  V30 2868 O 270.487 3.94699 0.746688 0
M  V30 2869 N 268.693 2.9046 -0.0901606 0
M  V30 2870 H 268.24 2.43193 -0.849416 0
M  V30 2871 H 268.198 3.04937 0.765553 0
M  V30 2872 N 271.97 1.30982 0.876444 0
M  V30 2873 C 273.219 1.19658 1.62373 0
M  V30 2874 C 273.532 -0.245636 1.94052 0
M  V30 2875 O 274.738 -0.48049 2.67214 0
M  V30 2876 C 273.194 2.09433 2.92687 0
M  V30 2877 C 272.802 3.58613 2.68516 0
M  V30 2878 C 274.546 2.06893 3.70669 0
M  V30 2879 C 272.453 4.40416 3.94699 0
M  V30 2880 H 271.383 0.444268 0.609214 0
M  V30 2881 H 274.034 1.55791 0.969605 0
M  V30 2882 H 272.416 1.66191 3.59439 0
M  V30 2883 H 273.59 4.10058 2.10212 0
M  V30 2884 H 271.905 3.63063 2.03898 0
M  V30 2885 H 274.502 2.65258 4.64265 0
M  V30 2886 H 274.845 1.05448 4.02724 0
M  V30 2887 H 275.378 2.48301 3.10792 0
M  V30 2888 H 272.117 5.42591 3.67798 0
M  V30 2889 H 271.637 3.93731 4.52477 0
M  V30 2890 H 273.316 4.52294 4.62644 0
M  V30 2891 N 273.449 -1.08991 1.13837 0
M  V30 2892 C 274.379 -2.17771 0.842507 0
M  V30 2893 C 275.36 -1.6892 -0.20001 0
M  V30 2894 O 276.545 -1.94113 -0.0579731 0
M  V30 2895 C 273.675 -3.4589 0.312644 0
M  V30 2896 C 272.629 -4.08099 1.28992 0
M  V30 2897 C 271.955 -5.31098 0.619623 0
M  V30 2898 C 273.255 -4.50077 2.65005 0
M  V30 2899 H 274.949 -2.42777 1.75213 0
M  V30 2900 H 272.495 -1.16682 0.843875 0
M  V30 2901 H 274.448 -4.21297 0.0933043 0
M  V30 2902 H 273.172 -3.20419 -0.632382 0
M  V30 2903 H 271.831 -3.34717 1.49533 0
M  V30 2904 H 271.479 -5.0191 -0.33102 0
M  V30 2905 H 271.179 -5.73674 1.27167 0
M  V30 2906 H 272.703 -6.09224 0.409669 0
M  V30 2907 H 274.117 -5.16688 2.48407 0
M  V30 2908 H 272.514 -5.03553 3.26427 0
M  V30 2909 H 273.584 -3.62257 3.22332 0
M  V30 2910 N 274.927 -0.932562 -1.27047 0
M  V30 2911 C 275.837 -0.441219 -2.30414 0
M  V30 2912 C 276.853 0.480525 -1.67233 0
M  V30 2913 O 278.029 0.362151 -1.98117 0
M  V30 2914 C 275.094 0.293651 -3.45454 0
M  V30 2915 C 274.155 -0.663601 -4.2414 0
M  V30 2916 C 273.388 0.0362932 -5.33688 0
M  V30 2917 O 273.611 1.2548 -5.56427 0
M  V30 2918 O 272.545 -0.638015 -5.98509 0
M  V30 2919 H 276.371 -1.29962 -2.74488 0
M  V30 2920 H 273.956 -0.6981 -1.32087 0
M  V30 2921 H 275.838 0.707951 -4.15411 0
M  V30 2922 H 274.513 1.12758 -3.03426 0
M  V30 2923 H 273.42 -1.12768 -3.56699 0
M  V30 2924 H 274.753 -1.46489 -4.69896 0
M  V30 2925 N 276.405 1.4127 -0.698611 0
M  V30 2926 C 277.654 2.00408 -0.227949 0
M  V30 2927 C 277.967 1.55981 1.18023 0
M  V30 2928 O 279.173 2.07699 1.74852 0
M  V30 2929 C 277.629 3.58129 -0.356636 0
M  V30 2930 C 277.237 4.11536 -1.77037 0
M  V30 2931 C 278.981 4.24466 0.0540969 0
M  V30 2932 C 276.888 5.61701 -1.85055 0
M  V30 2933 H 275.818 0.749586 -0.0814657 0
M  V30 2934 H 278.469 1.61713 -0.867249 0
M  V30 2935 H 276.851 3.94442 0.350965 0
M  V30 2936 H 278.025 3.86636 -2.50698 0
M  V30 2937 H 276.34 3.57736 -2.13105 0
M  V30 2938 H 278.937 5.34698 0.0146723 0
M  V30 2939 H 279.28 4.01687 1.09332 0
M  V30 2940 H 279.813 3.93198 -0.603337 0
M  V30 2941 H 276.552 5.89312 -2.8704 0
M  V30 2942 H 276.072 5.88519 -1.15783 0
M  V30 2943 H 277.751 6.26524 -1.61484 0
M  V30 2944 N 277.883 0.443576 1.51229 0
M  V30 2945 C 278.846 -0.353132 2.26463 0
M  V30 2946 C 279.846 -0.944338 1.3015 0
M  V30 2947 O 281.036 -0.817813 1.5381 0
M  V30 2948 C 278.168 -1.50023 3.06114 0
M  V30 2949 H 279.361 0.3063 2.98332 0
M  V30 2950 H 276.914 0.196902 1.55055 0
M  V30 2951 H 277.649 -2.19553 2.38677 0
M  V30 2952 H 277.434 -1.08241 3.76864 0
M  V30 2953 H 278.924 -2.06296 3.63087 0
M  V30 2954 N 279.361 -1.56624 0.175154 0
M  V30 2955 C 280.293 -2.15333 -0.785128 0
M  V30 2956 C 281.306 -1.1099 -1.19101 0
M  V30 2957 O 282.495 -1.38162 -1.13019 0
M  V30 2958 C 279.595 -2.68427 -2.06882 0
M  V30 2959 C 278.768 -3.97466 -1.8259 0
M  V30 2960 C 277.827 -4.35585 -2.95215 0
M  V30 2961 O 276.853 -5.03389 -2.65684 0
M  V30 2962 N 278.055 -3.97457 -4.23094 0
M  V30 2963 H 280.82 -2.98359 -0.283187 0
M  V30 2964 H 278.381 -1.61898 -0.00749817 0
M  V30 2965 H 280.373 -2.90924 -2.81328 0
M  V30 2966 H 278.943 -1.89968 -2.48256 0
M  V30 2967 H 278.163 -3.83307 -0.920287 0
M  V30 2968 H 279.451 -4.81736 -1.63733 0
M  V30 2969 H 278.849 -3.42878 -4.49945 0
M  V30 2970 H 277.406 -4.24947 -4.9423 0
M  V30 2971 N 280.839 0.0985539 -1.57292 0
M  V30 2972 C 282.255 0.45267 -1.53046 0
M  V30 2973 C 282.455 1.80713 -0.891342 0
M  V30 2974 O 281.511 2.4785 -0.482375 0
M  V30 2975 C 282.824 0.418341 -2.97776 0
M  V30 2976 C 284.372 0.500443 -3.08973 0
M  V30 2977 C 284.847 0.496297 -4.55303 0
M  V30 2978 N 286.338 0.557151 -4.59837 0
M  V30 2979 C 287.073 0.575726 -5.70502 0
M  V30 2980 N 286.569 0.550714 -6.90608 0
M  V30 2981 N 288.362 0.620277 -5.58667 0
M  V30 2982 H 280.513 -0.788673 -1.97215 0
M  V30 2983 H 282.776 -0.293188 -0.901524 0
M  V30 2984 H 282.482 -0.509659 -3.47988 0
M  V30 2985 H 282.356 1.2386 -3.56284 0
M  V30 2986 H 284.743 1.41886 -2.58751 0
M  V30 2987 H 284.824 -0.347894 -2.53423 0
M  V30 2988 H 284.468 -0.418162 -5.06176 0
M  V30 2989 H 284.398 1.3618 -5.08687 0
M  V30 2990 H 286.889 0.581816 -3.73394 0
M  V30 2991 H 287.202 0.568075 -7.70709 0
M  V30 2992 H 285.547 0.517816 -6.93068 0
M  V30 2993 H 288.738 0.637322 -4.63741 0
M  V30 2994 H 288.911 0.631283 -6.44918 0
M  V30 2995 N 282.317 1.53212 0.369288 0
M  V30 2996 C 283.227 1.82342 1.47609 0
M  V30 2997 C 284.243 0.711532 1.58787 0
M  V30 2998 O 285.419 1.0012 1.74751 0
M  V30 2999 C 282.484 2.00393 2.8292 0
M  V30 3000 C 281.545 3.24297 2.81301 0
M  V30 3001 C 280.778 3.41478 4.10157 0
M  V30 3002 O 281.001 2.63033 5.06132 0
M  V30 3003 O 279.935 4.34817 4.16194 0
M  V30 3004 H 283.761 2.76366 1.25918 0
M  V30 3005 H 281.346 1.38547 0.559034 0
M  V30 3006 H 283.228 2.13859 3.63101 0
M  V30 3007 H 281.903 1.09559 3.04596 0
M  V30 3008 H 280.81 3.16257 1.99831 0
M  V30 3009 H 282.143 4.15041 2.64578 0
M  V30 3010 N 283.795 -0.628877 1.44509 0
M  V30 3011 C 284.743 -1.76193 1.51852 0
M  V30 3012 C 285.737 -1.64849 0.390042 0
M  V30 3013 O 286.943 -1.709 0.565082 0
M  V30 3014 H 283.318 -0.581728 0.476547 0
M  V30 3015 H 285.289 -1.67123 2.47209 0
M  V30 3016 C 284.038 -3.14533 1.48204 0
M  V30 3017 H 283.361 -3.23911 2.34354 0
M  V30 3018 H 284.801 -3.93701 1.57402 0
M  V30 3019 C 283.26 -3.36287 0.203142 0
M  V30 3020 O 283.79 -3.9509 -0.725745 0
M  V30 3021 N 281.996 -2.90408 0.105563 0
M  V30 3022 H 281.543 -2.42739 0.862301 0
M  V30 3023 H 281.501 -3.05339 -0.749371 0
M  V30 3024 N 285.273 -1.31445 -0.869486 0
M  V30 3025 C 286.183 -1.21097 -2.0093 0
M  V30 3026 C 287.199 -0.127584 -1.73532 0
M  V30 3027 O 288.375 -0.345477 -1.98415 0
M  V30 3028 C 285.44 -0.919378 -3.34288 0
M  V30 3029 C 284.501 -2.08971 -3.75006 0
M  V30 3030 C 283.734 -1.81194 -5.02001 0
M  V30 3031 O 283.957 -0.747296 -5.65484 0
M  V30 3032 O 282.891 -2.66883 -5.39497 0
M  V30 3033 H 286.717 -2.16883 -2.12592 0
M  V30 3034 H 284.302 -1.11189 -0.997868 0
M  V30 3035 H 286.184 -0.772625 -4.14257 0
M  V30 3036 H 284.859 0.00844772 -3.23699 0
M  V30 3037 H 283.766 -2.29187 -2.95676 0
M  V30 3038 H 285.099 -2.9998 -3.90221 0
M  V30 3039 N 286.751 1.08385 -1.14413 0
M  V30 3040 C 287.714 2.13486 -0.834048 0
M  V30 3041 C 288.714 1.59988 0.161418 0
M  V30 3042 O 289.904 1.74071 -0.0669575 0
M  V30 3043 C 287.036 3.4003 -0.243354 0
M  V30 3044 H 288.229 2.42425 -1.7655 0
M  V30 3045 H 285.782 1.24101 -0.950189 0
M  V30 3046 H 286.517 3.16726 0.696807 0
M  V30 3047 H 286.302 3.80157 -0.960367 0
M  V30 3048 H 287.792 4.17577 -0.0436242 0
M  V30 3049 N 288.23 0.939286 1.26551 0
M  V30 3050 C 289.458 0.602536 1.97932 0
M  V30 3051 C 289.873 -0.82206 1.69964 0
M  V30 3052 O 289.23 -1.54789 0.966784 0
M  V30 3053 C 289.281 0.832946 3.51773 0
M  V30 3054 O 289.002 2.20151 3.78768 0
M  V30 3055 C 290.503 0.506483 4.40397 0
M  V30 3056 H 287.723 0.227248 0.631347 0
M  V30 3057 H 290.267 1.25948 1.61113 0
M  V30 3058 H 288.422 0.222644 3.8676 0
M  V30 3059 H 288.836 2.26013 4.73306 0
M  V30 3060 H 290.31 0.718333 5.47306 0
M  V30 3061 H 290.787 -0.558451 4.35635 0
M  V30 3062 H 291.393 1.09543 4.10951 0
M  V30 3063 N 289.708 -1.40897 0.706093 0
M  V30 3064 C 290.948 -2.02916 0.245827 0
M  V30 3065 C 291.312 -1.54751 -1.13649 0
M  V30 3066 O 292.513 -2.08768 -1.69321 0
M  V30 3067 C 290.784 -3.56031 0.312537 0
M  V30 3068 S 292.343 -4.38741 -0.0721388 0
M  V30 3069 H 289.161 -0.704186 0.0982007 0
M  V30 3070 H 291.763 -1.72168 0.926207 0
M  V30 3071 H 290.467 -3.88579 1.32039 0
M  V30 3072 H 289.998 -3.91495 -0.386641 0
M  V30 3073 H 292.013 -4.78952 -1.29692 0
M  V30 3074 N 291.186 -0.45159 -1.50991 0
M  V30 3075 C 292.433 0.110074 -2.02201 0
M  V30 3076 C 292.761 1.4146 -1.33489 0
M  V30 3077 O 292.016 1.90617 -0.443125 0
M  V30 3078 C 292.315 0.361728 -3.55565 0
M  V30 3079 C 291.981 -0.858717 -4.42648 0
M  V30 3080 C 290.643 -1.19338 -4.66167 0
M  V30 3081 C 292.995 -1.67221 -4.93646 0
M  V30 3082 C 290.323 -2.34195 -5.37931 0
M  V30 3083 C 292.675 -2.8119 -5.6667 0
M  V30 3084 C 291.339 -3.15094 -5.88449 0
M  V30 3085 H 290.609 0.040279 -0.739904 0
M  V30 3086 H 293.256 -0.601696 -1.81802 0
M  V30 3087 H 291.561 1.15554 -3.74372 0
M  V30 3088 H 293.258 0.80996 -3.92735 0
M  V30 3089 H 289.848 -0.58796 -4.24548 0
M  V30 3090 H 294.032 -1.42686 -4.75347 0
M  V30 3091 H 289.288 -2.6076 -5.53005 0
M  V30 3092 H 293.462 -3.44585 -6.05173 0
M  V30 3093 H 291.089 -4.04204 -6.43835 0
M  V30 3094 N 292.664 1.56529 -0.183458 0
M  V30 3095 C 293.912 1.96855 0.457452 0
M  V30 3096 C 294.233 1.07104 1.62953 0
M  V30 3097 O 293.503 0.139887 1.954 0
M  V30 3098 H 292.083 0.72693 0.171992 0
M  V30 3099 H 294.745 1.93056 -0.267476 0
M  V30 3100 H 293.841 3.01423 0.809368 0
M  V30 3101 N 294.142 -0.090211 1.57342 0
M  V30 3102 C 295.558 -0.444547 1.53284 0
M  V30 3103 C 295.758 -1.80238 0.900914 0
M  V30 3104 O 294.814 -2.4759 0.495513 0
M  V30 3105 C 296.127 -0.402543 2.97993 0
M  V30 3106 C 297.675 -0.48405 3.09234 0
M  V30 3107 C 298.15 -0.472144 4.5556 0
M  V30 3108 N 299.641 -0.532757 4.60126 0
M  V30 3109 C 300.376 -0.545462 5.708 0
M  V30 3110 N 299.872 -0.514082 6.9089 0
M  V30 3111 N 301.665 -0.59064 5.58988 0
M  V30 3112 H 293.816 0.799121 1.96794 0
M  V30 3113 H 296.079 0.297965 0.899956 0
M  V30 3114 H 295.785 0.528106 3.47712 0
M  V30 3115 H 295.659 -1.21969 3.56936 0
M  V30 3116 H 298.046 -1.40512 2.595 0
M  V30 3117 H 298.127 0.361328 2.53235 0
M  V30 3118 H 297.771 0.445 5.05947 0
M  V30 3119 H 297.701 -1.3348 5.09402 0
M  V30 3120 H 300.192 -0.562006 3.73698 0
M  V30 3121 H 300.505 -0.527195 7.71 0
M  V30 3122 H 298.85 -0.481054 6.93333 0
M  V30 3123 H 302.041 -0.61272 4.64073 0
M  V30 3124 H 302.214 -0.597073 6.45243 0
M  V30 3125 N 295.62 -1.53406 -0.361157 0
M  V30 3126 C 297.036 -1.43277 -0.703124 0
M  V30 3127 C 297.236 -0.575384 -1.9311 0
M  V30 3128 O 296.292 -0.0595362 -2.5243 0
M  V30 3129 C 297.605 -2.8653 -0.9122 0
M  V30 3130 C 299.153 -2.96191 -1.01193 0
M  V30 3131 C 299.628 -4.40514 -1.25345 0
M  V30 3132 N 301.119 -4.43962 -1.32105 0
M  V30 3133 C 301.854 -5.52746 -1.5251 0
M  V30 3134 N 301.35 -6.71567 -1.70203 0
M  V30 3135 N 303.143 -5.40331 -1.54916 0
M  V30 3136 H 295.294 -2.07654 0.446475 0
M  V30 3137 H 297.557 -0.937944 0.137715 0
M  V30 3138 H 297.263 -3.51605 -0.0816414 0
M  V30 3139 H 297.137 -3.30441 -1.81903 0
M  V30 3140 H 299.524 -2.31266 -1.83303 0
M  V30 3141 H 299.605 -2.55667 -0.0823929 0
M  V30 3142 H 299.249 -5.06014 -0.437346 0
M  V30 3143 H 299.179 -4.78614 -2.19627 0
M  V30 3144 H 301.67 -3.58332 -1.20028 0
M  V30 3145 H 301.983 -7.50241 -1.85359 0
M  V30 3146 H 300.328 -6.74545 -1.67373 0
M  V30 3147 H 303.519 -4.46465 -1.40663 0
M  V30 3148 H 303.692 -6.25173 -1.70477 0
M  V30 3149 N 297.098 0.621204 -1.44841 0
M  V30 3150 C 298.326 1.40752 -1.51646 0
M  V30 3151 C 298.741 1.88246 -0.144549 0
M  V30 3152 O 298.098 1.61422 0.851416 0
M  V30 3153 C 298.149 2.62119 -2.4895 0
M  V30 3154 O 297.87 2.16602 -3.80808 0
M  V30 3155 C 299.371 3.55135 -2.65319 0
M  V30 3156 H 296.591 0.431325 -0.514004 0
M  V30 3157 H 299.135 0.758835 -1.899 0
M  V30 3158 H 297.29 3.23058 -2.13805 0
M  V30 3159 H 297.704 2.95358 -4.33433 0
M  V30 3160 H 299.178 4.36874 -3.37409 0
M  V30 3161 H 299.655 4.04592 -1.70886 0
M  V30 3162 H 300.261 3.00058 -3.01405 0
M  V30 3163 N 298.576 1.31904 0.862503 0
M  V30 3164 C 299.987 1.19803 1.43193 0
M  V30 3165 C 300.338 -0.192567 1.95253 0
M  V30 3166 O 299.463 -1.09081 1.86896 0
M  V30 3167 C 300.058 2.16883 2.60283 0
M  V30 3168 C 298.617 2.08692 3.13248 0
M  V30 3169 C 297.764 2.05691 1.85975 0
M  V30 3170 H 300.715 1.43846 0.670365 0
M  V30 3171 H 300.736 1.76278 3.37204 0
M  V30 3172 H 300.248 3.18083 2.22363 0
M  V30 3173 H 298.349 1.10713 3.55771 0
M  V30 3174 H 298.462 2.9815 3.75025 0
M  V30 3175 H 296.826 1.50814 2.05249 0
M  V30 3176 H 297.609 3.08659 1.50282 0
M  V30 3177 N 300.054 -1.07777 1.14986 0
M  V30 3178 C 301.331 -1.7699 0.832695 0
M  V30 3179 C 301.711 -2.001 -0.672561 0
M  V30 3180 O 301.059 -1.61598 -1.6155 0
M  V30 3181 C 301.269 -3.08139 1.63863 0
M  V30 3182 C 302.617 -3.8256 1.84208 0
M  V30 3183 O 303.641 -3.17939 1.60603 0
M  V30 3184 O 302.5 -4.98612 2.23714 0
M  V30 3185 H 299.594 -0.768389 0.305791 0
M  V30 3186 H 302.14 -1.14182 1.25541 0
M  V30 3187 H 300.912 -2.86909 2.6608 0
M  V30 3188 H 300.535 -3.78678 1.21197 0
M  V30 3189 N 301.532 -0.945985 -1.26051 0
M  V30 3190 C 302.809 -0.513816 -1.88731 0
M  V30 3191 C 303.189 1.00872 -1.8544 0
M  V30 3192 O 302.537 1.8708 -1.312 0
M  V30 3193 C 302.747 -1.08062 -3.31849 0
M  V30 3194 C 304.095 -1.1522 -4.08668 0
M  V30 3195 O 305.119 -1.03155 -3.40936 0
M  V30 3196 O 303.978 -1.34044 -5.29806 0
M  V30 3197 H 301.072 -0.168193 -0.809716 0
M  V30 3198 H 303.618 -1.03886 -1.34186 0
M  V30 3199 H 302.39 -2.1241 -3.2863 0
M  V30 3200 H 302.013 -0.538307 -3.93939 0
M  V30 3201 N 303.011 1.40521 -0.713556 0
M  V30 3202 C 304.236 2.05759 -0.26035 0
M  V30 3203 C 304.661 1.53403 1.08854 0
M  V30 3204 O 304.019 0.668535 1.68524 0
M  V30 3205 C 304.067 3.59745 -0.248122 0
M  V30 3206 O 303.171 4.05123 0.77131 0
M  V30 3207 H 302.512 0.652564 -0.122703 0
M  V30 3208 H 305.042 1.79958 -0.973467 0
M  V30 3209 H 305.052 4.07911 -0.0851129 0
M  V30 3210 H 303.727 3.97218 -1.2325 0
M  V30 3211 H 302.304 3.68422 0.57619 0
M  V30 3212 N 304.489 0.459591 1.5075 0
M  V30 3213 C 305.736 -0.0993495 2.02256 0
M  V30 3214 C 306.064 -1.40751 1.34237 0
M  V30 3215 O 305.319 -1.90379 0.453228 0
M  V30 3216 C 305.618 -0.342866 3.55752 0
M  V30 3217 C 305.284 0.88218 4.42186 0
M  V30 3218 C 303.946 1.21808 4.65528 0
M  V30 3219 C 306.298 1.69837 4.92752 0
M  V30 3220 C 303.626 2.37045 5.36681 0
M  V30 3221 C 305.978 2.84192 5.65171 0
M  V30 3222 C 304.642 3.1821 5.8677 0
M  V30 3223 H 303.912 -0.0363545 0.740108 0
M  V30 3224 H 306.559 0.611329 1.8148 0
M  V30 3225 H 304.864 -1.13567 3.7498 0
M  V30 3226 H 306.561 -0.789121 3.93159 0
M  V30 3227 H 303.151 0.610467 4.2423 0
M  V30 3228 H 307.335 1.45205 4.74583 0
M  V30 3229 H 302.591 2.63689 5.51614 0
M  V30 3230 H 306.765 3.4779 6.03337 0
M  V30 3231 H 304.392 4.07613 6.41682 0
M  V30 3232 N 305.967 -1.56429 0.191757 0
M  V30 3233 C 306.897 -2.21937 -0.725696 0
M  V30 3234 C 307.878 -1.1814 -1.2238 0
M  V30 3235 O 309.063 -1.46636 -1.27325 0
M  V30 3236 C 306.193 -2.87611 -1.94672 0
M  V30 3237 C 305.147 -3.97623 -1.58366 0
M  V30 3238 C 304.473 -4.50446 -2.88102 0
M  V30 3239 C 305.773 -5.16197 -0.796133 0
M  V30 3240 H 307.467 -2.98861 -0.179606 0
M  V30 3241 H 305.013 -1.43749 -0.0849464 0
M  V30 3242 H 306.966 -3.3212 -2.59373 0
M  V30 3243 H 305.69 -2.08087 -2.51728 0
M  V30 3244 H 304.349 -3.53801 -0.960247 0
M  V30 3245 H 303.997 -3.67688 -3.43241 0
M  V30 3246 H 303.697 -5.24675 -2.64556 0
M  V30 3247 H 305.221 -4.97654 -3.53798 0
M  V30 3248 H 306.635 -5.57271 -1.34618 0
M  V30 3249 H 305.032 -5.96471 -0.658928 0
M  V30 3250 H 306.102 -4.84473 0.203478 0
M  V30 3251 N 307.445 0.0818655 -1.57387 0
M  V30 3252 C 308.355 1.11642 -2.06333 0
M  V30 3253 C 309.371 1.43033 -0.99083 0
M  V30 3254 O 310.547 1.53411 -1.30488 0
M  V30 3255 C 307.612 2.41342 -2.48907 0
M  V30 3256 C 306.673 2.17014 -3.7041 0
M  V30 3257 C 305.906 3.4053 -4.10944 0
M  V30 3258 O 306.129 4.4927 -3.51444 0
M  V30 3259 O 305.063 3.29336 -5.03807 0
M  V30 3260 H 308.889 0.730657 -2.9478 0
M  V30 3261 H 306.474 0.295301 -1.46452 0
M  V30 3262 H 308.356 3.17691 -2.76858 0
M  V30 3263 H 307.031 2.79319 -1.63593 0
M  V30 3264 H 305.938 1.38403 -3.47556 0
M  V30 3265 H 307.271 1.83923 -4.56545 0
M  V30 3266 N 308.923 1.53595 0.353017 0
M  V30 3267 C 310.169 1.71581 1.09232 0
M  V30 3268 C 310.524 0.468328 1.86613 0
M  V30 3269 O 309.817 -0.538911 1.83865 0
M  V30 3270 C 310.011 2.91313 2.07054 0
M  V30 3271 C 309.84 4.27585 1.39287 0
M  V30 3272 C 308.61 4.92233 1.1417 0
M  V30 3273 C 310.808 5.07656 0.824005 0
M  V30 3274 N 308.79 6.124 0.428841 0
M  V30 3275 C 310.161 6.19531 0.241195 0
M  V30 3276 C 312.216 4.92609 0.723922 0
M  V30 3277 C 310.919 7.18002 -0.431952 0
M  V30 3278 C 312.945 5.91365 0.0645334 0
M  V30 3279 C 312.307 7.02571 -0.507347 0
M  V30 3280 H 308.406 0.680987 0.384422 0
M  V30 3281 H 310.99 1.91013 0.377096 0
M  V30 3282 H 309.161 2.73398 2.75877 0
M  V30 3283 H 310.893 2.98062 2.73753 0
M  V30 3284 H 307.648 4.51612 1.42631 0
M  V30 3285 H 308.072 6.76944 0.0874131 0
M  V30 3286 H 312.714 4.06808 1.15181 0
M  V30 3287 H 310.432 8.03384 -0.871758 0
M  V30 3288 H 314.018 5.81799 -0.0121469 0
M  V30 3289 H 312.898 7.77675 -1.0095 0
M  V30 3290 N 310.401 -0.613514 1.45168 0
M  V30 3291 C 311.351 -1.71871 1.49815 0
M  V30 3292 C 312.335 -1.56774 0.362021 0
M  V30 3293 O 313.527 -1.66212 0.608493 0
M  V30 3294 C 310.656 -3.1061 1.46207 0
M  V30 3295 C 309.742 -3.31114 2.64999 0
M  V30 3296 N 310.133 -3.21904 3.90143 0
M  V30 3297 C 308.431 -3.61966 2.6057 0
M  V30 3298 C 309.132 -3.43577 4.69393 0
M  V30 3299 N 308.108 -3.67287 4.00751 0
M  V30 3300 H 311.91 -1.63235 2.444 0
M  V30 3301 H 309.424 -0.816577 1.40377 0
M  V30 3302 H 311.421 -3.8989 1.4762 0
M  V30 3303 H 310.081 -3.20399 0.52673 0
M  V30 3304 H 311.092 -3.00436 4.21852 0
M  V30 3305 H 307.769 -3.78629 1.75916 0
M  V30 3306 H 309.159 -3.41901 5.78406 0
M  V30 3307 N 311.879 -1.3236 -0.855495 0
M  V30 3308 C 312.826 -1.21225 -1.964 0
M  V30 3309 C 313.796 -0.0946204 -1.6583 0
M  V30 3310 O 314.981 -0.27002 -1.8888 0
M  V30 3311 C 312.121 -0.940419 -3.32039 0
M  V30 3312 C 311.234 -2.14276 -3.75113 0
M  V30 3313 C 310.369 -1.80648 -4.9954 0
M  V30 3314 C 309.408 -2.97208 -5.35102 0
M  V30 3315 N 308.545 -2.63678 -6.50706 0
M  V30 3316 H 313.385 -2.16042 -2.05255 0
M  V30 3317 H 310.922 -1.07451 -1.00463 0
M  V30 3318 H 312.88 -0.763311 -4.10158 0
M  V30 3319 H 311.51 -0.0290413 -3.22787 0
M  V30 3320 H 310.562 -2.43017 -2.92655 0
M  V30 3321 H 311.874 -3.01468 -3.97389 0
M  V30 3322 H 311.028 -1.59484 -5.85363 0
M  V30 3323 H 309.767 -0.906678 -4.79198 0
M  V30 3324 H 308.772 -3.19004 -4.47791 0
M  V30 3325 H 309.997 -3.87918 -5.57401 0
M  V30 3326 H 307.943 -1.76238 -6.31883 0
M  V30 3327 H 307.86 -3.444 -6.72997 0
M  V30 3328 H 309.128 -2.45942 -7.39684 0
M  V30 3329 N 313.357 1.07166 -1.15556 0
M  V30 3330 C 314.768 1.6127 -0.940693 0
M  V30 3331 C 315.119 1.89251 0.517551 0
M  V30 3332 O 314.244 1.65937 1.38903 0
M  V30 3333 C 314.839 2.92993 -1.7012 0
M  V30 3334 C 313.398 3.43832 -1.53156 0
M  V30 3335 C 312.545 2.1786 -1.71558 0
M  V30 3336 H 315.496 0.90229 -1.30554 0
M  V30 3337 H 315.517 3.62007 -1.17181 0
M  V30 3338 H 315.029 2.72596 -2.76248 0
M  V30 3339 H 313.13 3.69307 -0.494294 0
M  V30 3340 H 313.243 4.19747 -2.30975 0
M  V30 3341 H 311.607 2.2765 -1.14225 0
M  V30 3342 H 312.39 1.99956 -2.79056 0
M  V30 3343 N 314.835 0.952656 1.25548 0
M  V30 3344 C 315.798 0.475794 2.24207 0
M  V30 3345 C 316.798 -0.419428 1.55234 0
M  V30 3346 O 317.988 -0.216994 1.72843 0
M  V30 3347 C 315.12 -0.312814 3.39462 0
M  V30 3348 H 316.313 1.34779 2.67908 0
M  V30 3349 H 313.866 0.735739 1.37901 0
M  V30 3350 H 314.601 -1.20257 3.01179 0
M  V30 3351 H 314.386 0.329404 3.90714 0
M  V30 3352 H 315.876 -0.635986 4.12729 0
M  V30 3353 N 316.313 -1.40141 0.720998 0
M  V30 3354 C 317.538 -2.05618 0.271258 0
M  V30 3355 C 317.963 -1.53978 -1.08039 0
M  V30 3356 O 317.321 -0.677463 -1.68167 0
M  V30 3357 C 317.369 -3.59609 0.267197 0
M  V30 3358 O 316.473 -4.05526 -0.749814 0
M  V30 3359 H 315.814 -0.651904 0.126162 0
M  V30 3360 H 318.344 -1.79439 0.982997 0
M  V30 3361 H 318.354 -4.0786 0.106744 0
M  V30 3362 H 317.029 -3.96559 1.25354 0
M  V30 3363 H 315.606 -3.68722 -0.556644 0
M  V30 3364 N 317.792 -0.46758 -1.50504 0
M  V30 3365 C 319.038 0.0887532 -2.02606 0
M  V30 3366 C 319.371 1.39686 -1.34913 0
M  V30 3367 O 318.646 1.88644 -0.473694 0
M  V30 3368 C 318.929 0.276206 -3.59039 0
M  V30 3369 C 318.782 -1.05267 -4.37309 0
M  V30 3370 C 320.101 1.03235 -4.27821 0
M  V30 3371 H 317.22 0.0307814 -0.736357 0
M  V30 3372 H 319.862 -0.612485 -1.79857 0
M  V30 3373 H 318.012 0.8735 -3.78553 0
M  V30 3374 H 319.684 -1.68628 -4.29374 0
M  V30 3375 H 317.927 -1.65015 -4.01189 0
M  V30 3376 H 318.598 -0.875197 -5.45018 0
M  V30 3377 H 321.074 0.526111 -4.12761 0
M  V30 3378 H 319.95 1.1323 -5.37094 0
M  V30 3379 H 320.211 2.06806 -3.90748 0
M  V30 3380 N 319.27 1.56325 -0.20005 0
M  V30 3381 C 320.2 2.22318 0.713916 0
M  V30 3382 C 321.181 1.18788 1.21752 0
M  V30 3383 O 322.366 1.47309 1.26545 0
M  V30 3384 C 319.496 2.88639 1.93144 0
M  V30 3385 C 318.45 3.98457 1.56255 0
M  V30 3386 C 317.776 4.51967 2.85709 0
M  V30 3387 C 319.076 5.16612 0.768747 0
M  V30 3388 H 320.77 2.98952 0.163755 0
M  V30 3389 H 318.316 1.43792 0.0773219 0
M  V30 3390 H 320.269 3.33491 2.57608 0
M  V30 3391 H 318.993 2.09419 2.50621 0
M  V30 3392 H 317.652 3.54305 0.941471 0
M  V30 3393 H 317.3 3.69503 3.41287 0
M  V30 3394 H 317 5.26071 2.6177 0
M  V30 3395 H 318.524 4.99523 3.51154 0
M  V30 3396 H 319.938 5.57977 1.3166 0
M  V30 3397 H 318.335 5.96812 0.627286 0
M  V30 3398 H 319.405 4.84358 -0.229168 0
M  V30 3399 N 320.748 -0.0735177 1.57428 0
M  V30 3400 C 321.698 -1.09442 2.00016 0
M  V30 3401 C 322.682 -1.34575 0.881947 0
M  V30 3402 O 323.874 -1.34905 1.14585 0
M  V30 3403 C 321.003 -2.40865 2.4462 0
M  V30 3404 C 320.089 -2.19014 3.63172 0
M  V30 3405 N 320.48 -1.67087 4.77405 0
M  V30 3406 C 318.778 -2.49494 3.69688 0
M  V30 3407 C 319.479 -1.6001 5.5926 0
M  V30 3408 N 318.455 -2.05999 5.03056 0
M  V30 3409 H 322.257 -0.686227 2.85776 0
M  V30 3410 H 319.771 -0.280617 1.59957 0
M  V30 3411 H 321.768 -3.14763 2.73368 0
M  V30 3412 H 320.428 -2.82403 1.60246 0
M  V30 3413 H 321.439 -1.35975 4.99731 0
M  V30 3414 H 318.116 -2.94409 2.96023 0
M  V30 3415 H 319.506 -1.2073 6.60964 0
M  V30 3416 N 322.226 -1.5378 -0.344866 0
M  V30 3417 C 323.174 -1.82373 -1.4437 0
M  V30 3418 C 324.168 -0.694128 -1.54526 0
M  V30 3419 O 325.374 -0.877442 -1.57165 0
M  V30 3420 H 321.749 -0.577765 -0.481344 0
M  V30 3421 H 323.72 -2.74306 -1.17468 0
M  V30 3422 C 322.469 -2.04898 -2.80913 0
M  V30 3423 H 321.792 -2.9127 -2.73865 0
M  V30 3424 H 323.232 -2.28871 -3.56923 0
M  V30 3425 C 321.691 -0.834116 -3.26411 0
M  V30 3426 O 322.221 -0.0328885 -4.01687 0
M  V30 3427 N 320.427 -0.65171 -2.83198 0
M  V30 3428 H 319.974 -1.30489 -2.22104 0
M  V30 3429 H 319.932 0.159686 -3.13994 0
M  V30 3430 N 323.704 0.605807 -1.45491 0
M  V30 3431 C 324.637 1.73022 -1.48791 0
M  V30 3432 C 325.615 1.58917 -0.344112 0
M  V30 3433 O 326.799 1.80453 -0.544876 0
M  V30 3434 C 323.926 3.10865 -1.34463 0
M  V30 3435 C 322.972 3.43554 -2.5273 0
M  V30 3436 S 323.805 3.38196 -4.15191 0
M  V30 3437 C 324.961 4.78616 -4.03333 0
M  V30 3438 H 325.194 1.69961 -2.43928 0
M  V30 3439 H 322.727 0.782611 -1.33096 0
M  V30 3440 H 324.685 3.90398 -1.26884 0
M  V30 3441 H 323.346 3.1144 -0.40794 0
M  V30 3442 H 322.539 4.43924 -2.38637 0
M  V30 3443 H 322.141 2.71541 -2.5718 0
M  V30 3444 H 324.433 5.68463 -3.68587 0
M  V30 3445 H 325.376 4.97767 -5.03621 0
M  V30 3446 H 325.784 4.54381 -3.34959 0
M  V30 3447 N 325.182 1.32811 0.848464 0
M  V30 3448 C 326.428 1.23907 1.60546 0
M  V30 3449 C 326.761 -0.197161 1.93197 0
M  V30 3450 O 326.036 -1.13596 1.5788 0
M  V30 3451 C 326.319 2.10489 2.92175 0
M  V30 3452 C 326.172 3.62522 2.66266 0
M  V30 3453 C 327.491 1.97075 3.93509 0
M  V30 3454 H 324.61 0.451459 0.58254 0
M  V30 3455 H 327.252 1.62818 0.979296 0
M  V30 3456 H 325.402 1.77434 3.45614 0
M  V30 3457 H 327.074 4.05821 2.19334 0
M  V30 3458 H 325.317 3.84879 2.00126 0
M  V30 3459 H 325.988 4.18437 3.6002 0
M  V30 3460 H 328.464 2.26045 3.49346 0
M  V30 3461 H 327.34 2.59923 4.83457 0
M  V30 3462 H 327.601 0.940186 4.31987 0
M  V30 3463 N 326.66 -1.06551 1.16123 0
M  V30 3464 C 328.076 -1.3142 0.905585 0
M  V30 3465 C 328.276 -1.96571 -0.442964 0
M  V30 3466 O 327.332 -2.23068 -1.18308 0
M  V30 3467 C 328.645 -2.19741 2.05267 0
M  V30 3468 C 330.193 -2.33165 2.08813 0
M  V30 3469 C 330.668 -3.24838 3.22868 0
M  V30 3470 N 332.159 -3.32421 3.22568 0
M  V30 3471 C 332.894 -4.0344 4.0746 0
M  V30 3472 N 332.39 -4.77003 5.02434 0
M  V30 3473 N 334.183 -3.99464 3.95456 0
M  V30 3474 H 326.334 -0.626548 2.02949 0
M  V30 3475 H 328.597 -0.338777 0.8854 0
M  V30 3476 H 328.303 -1.79142 3.02657 0
M  V30 3477 H 328.177 -3.20313 1.99198 0
M  V30 3478 H 330.564 -2.73013 1.12018 0
M  V30 3479 H 330.645 -1.3227 2.18948 0
M  V30 3480 H 330.289 -2.85708 4.19921 0
M  V30 3481 H 330.219 -4.25707 3.0997 0
M  V30 3482 H 332.71 -2.79994 2.53795 0
M  V30 3483 H 333.023 -5.28712 5.63634 0
M  V30 3484 H 331.368 -4.75992 5.06415 0
M  V30 3485 H 334.559 -3.4111 3.20564 0
M  V30 3486 H 334.732 -4.54544 4.61837 0
M  V30 3487 N 328.138 -0.959301 -1.25041 0
M  V30 3488 C 329.101 -0.487677 -2.23952 0
M  V30 3489 C 330.101 0.41119 -1.55454 0
M  V30 3490 O 331.291 0.207825 -1.72956 0
M  V30 3491 C 328.423 0.294807 -3.39623 0
M  V30 3492 H 329.616 -1.36198 -2.67189 0
M  V30 3493 H 327.169 -0.743042 -1.37508 0
M  V30 3494 H 327.904 1.18658 -3.01813 0
M  V30 3495 H 327.689 -0.35012 -3.90534 0
M  V30 3496 H 329.179 0.614089 -4.1306 0
M  V30 3497 N 329.616 1.39756 -0.72842 0
M  V30 3498 C 330.862 2.00942 -0.273892 0
M  V30 3499 C 331.195 1.57656 1.13394 0
M  V30 3500 O 330.47 0.802434 1.77176 0
M  V30 3501 C 330.753 3.58211 -0.368346 0
M  V30 3502 C 330.606 4.11534 -1.81548 0
M  V30 3503 C 331.925 4.39372 0.253054 0
M  V30 3504 H 329.044 0.730047 -0.100996 0
M  V30 3505 H 331.686 1.66056 -0.923337 0
M  V30 3506 H 329.836 3.88061 0.184588 0
M  V30 3507 H 331.508 3.92431 -2.42478 0
M  V30 3508 H 329.751 3.65341 -2.33898 0
M  V30 3509 H 330.422 5.20682 -1.83288 0
M  V30 3510 H 332.898 4.15527 -0.218224 0
M  V30 3511 H 331.774 5.48677 0.156585 0
M  V30 3512 H 332.035 4.21358 1.33826 0
M  V30 3513 N 331.094 0.475555 1.50254 0
M  V30 3514 C 332.057 -0.305016 2.27161 0
M  V30 3515 C 333.057 -0.916519 1.32123 0
M  V30 3516 O 334.247 -0.785003 1.5551 0
M  V30 3517 C 331.379 -1.43496 3.09227 0
M  V30 3518 H 332.572 0.369511 2.97615 0
M  V30 3519 H 330.125 0.229747 1.54602 0
M  V30 3520 H 330.86 -2.14441 2.43281 0
M  V30 3521 H 330.645 -1.00223 3.79075 0
M  V30 3522 H 332.135 -1.98548 3.67381 0
M  V30 3523 N 332.573 -1.56217 0.208337 0
M  V30 3524 C 333.85 -1.89739 -0.475234 0
M  V30 3525 C 334.23 -1.1238 -1.78701 0
M  V30 3526 O 333.578 -0.228979 -2.2735 0
M  V30 3527 C 333.788 -3.42289 -0.681101 0
M  V30 3528 C 335.136 -4.12789 -0.994507 0
M  V30 3529 O 336.16 -3.47814 -0.768357 0
M  V30 3530 O 335.019 -5.27649 -1.42299 0
M  V30 3531 H 332.113 -0.788478 -0.249461 0
M  V30 3532 H 334.659 -1.67855 0.249538 0
M  V30 3533 H 333.431 -3.90534 0.244722 0
M  V30 3534 H 333.054 -3.69909 -1.45785 0
M  V30 3535 N 334.051 0.0651679 -1.57465 0
M  V30 3536 C 335.462 0.616213 -1.76238 0
M  V30 3537 C 335.813 1.7756 -0.834689 0
M  V30 3538 O 334.938 2.1639 -0.0204156 0
M  V30 3539 C 335.533 1.12462 -3.1959 0
M  V30 3540 C 334.092 1.62147 -3.39684 0
M  V30 3541 C 333.239 0.543739 -2.71917 0
M  V30 3542 H 336.19 -0.161022 -1.57881 0
M  V30 3543 H 336.211 1.99324 -3.24114 0
M  V30 3544 H 335.723 0.280592 -3.87084 0
M  V30 3545 H 333.824 2.48854 -2.77313 0
M  V30 3546 H 333.937 1.69385 -4.48158 0
M  V30 3547 H 332.301 0.990352 -2.34657 0
M  V30 3548 H 333.084 -0.290216 -3.42071 0
M  V30 3549 N 335.529 1.53961 0.336706 0
M  V30 3550 C 336.775 1.7273 1.07406 0
M  V30 3551 C 337.13 0.488095 1.86106 0
M  V30 3552 O 336.423 -0.519379 1.84426 0
M  V30 3553 C 336.617 2.93493 2.03953 0
M  V30 3554 C 336.446 4.29039 1.34744 0
M  V30 3555 C 335.216 4.93416 1.08942 0
M  V30 3556 C 337.414 5.08501 0.770115 0
M  V30 3557 N 335.396 6.12821 0.363864 0
M  V30 3558 C 336.767 6.19752 0.175472 0
M  V30 3559 C 338.822 4.93349 0.671633 0
M  V30 3560 C 337.525 7.17503 -0.508081 0
M  V30 3561 C 339.551 5.914 0.0018076 0
M  V30 3562 C 338.913 7.01993 -0.581835 0
M  V30 3563 H 335.012 0.685026 0.377177 0
M  V30 3564 H 337.596 1.91403 0.356815 0
M  V30 3565 H 335.767 2.76308 2.72962 0
M  V30 3566 H 337.499 3.00949 2.70577 0
M  V30 3567 H 334.254 4.53099 1.37833 0
M  V30 3568 H 334.678 6.76998 0.0156092 0
M  V30 3569 H 339.32 4.08007 1.1086 0
M  V30 3570 H 337.038 8.02414 -0.956918 0
M  V30 3571 H 340.624 5.81753 -0.0738538 0
M  V30 3572 H 339.504 7.76561 -1.09192 0
M  V30 3573 N 337.007 -0.598083 1.45811 0
M  V30 3574 C 338.418 -1.18011 1.44673 0
M  V30 3575 C 338.769 -1.95378 0.179364 0
M  V30 3576 O 337.894 -2.04124 -0.718509 0
M  V30 3577 C 338.489 -2.14677 2.62105 0
M  V30 3578 C 337.048 -2.68236 2.64057 0
M  V30 3579 C 336.195 -1.43816 2.37091 0
M  V30 3580 H 339.146 -0.38686 1.53913 0
M  V30 3581 H 339.167 -2.97878 2.36746 0
M  V30 3582 H 338.679 -1.5834 3.5433 0
M  V30 3583 H 336.78 -3.28486 1.75864 0
M  V30 3584 H 336.893 -3.12021 3.63566 0
M  V30 3585 H 335.257 -1.731 1.86838 0
M  V30 3586 H 336.04 -0.893333 3.31473 0
M  V30 3587 N 338.485 -1.33259 -0.841409 0
M  V30 3588 C 339.733 -1.24326 -1.59334 0
M  V30 3589 C 340.054 0.191564 -1.94057 0
M  V30 3590 O 339.324 1.11967 -1.60749 0
M  V30 3591 H 337.904 -0.457174 -0.590763 0
M  V30 3592 H 340.566 -1.66947 -1.00571 0
M  V30 3593 H 339.662 -1.8352 -2.52442 0
M  V30 3594 N 339.963 1.05934 -1.16686 0
M  V30 3595 C 340.926 2.11669 -0.879144 0
M  V30 3596 C 341.926 1.60294 0.127445 0
M  V30 3597 O 343.116 1.7389 -0.103865 0
M  V30 3598 C 340.248 3.39438 -0.315425 0
M  V30 3599 H 341.441 2.38626 -1.81653 0
M  V30 3600 H 338.994 1.22058 -0.976299 0
M  V30 3601 H 339.729 3.18132 0.629468 0
M  V30 3602 H 339.514 3.78034 -1.04079 0
M  V30 3603 H 341.004 4.17391 -0.132189 0
M  V30 3604 N 341.441 0.965919 1.2453 0
M  V30 3605 C 342.688 0.626831 1.92554 0
M  V30 3606 C 343.016 -0.837739 1.75534 0
M  V30 3607 O 342.271 -1.61793 1.10098 0
M  V30 3608 C 342.57 0.945428 3.44669 0
M  V30 3609 C 342.236 2.39785 3.81856 0
M  V30 3610 C 340.898 2.79483 3.91718 0
M  V30 3611 C 343.25 3.34055 4.00071 0
M  V30 3612 C 340.578 4.12496 4.1721 0
M  V30 3613 C 342.93 4.66694 4.27059 0
M  V30 3614 C 341.594 5.06172 4.3514 0
M  V30 3615 H 340.864 0.229374 0.704605 0
M  V30 3616 H 343.511 1.21707 1.4785 0
M  V30 3617 H 341.816 0.272926 3.90848 0
M  V30 3618 H 343.513 0.661484 3.95507 0
M  V30 3619 H 340.103 2.08003 3.74743 0
M  V30 3620 H 344.287 3.04571 3.91855 0
M  V30 3621 H 339.543 4.42709 4.21685 0
M  V30 3622 H 343.717 5.3971 4.40097 0
M  V30 3623 H 341.344 6.09262 4.54646 0
M  V30 3624 N 342.919 -1.39368 0.735821 0
M  V30 3625 C 344.144 -2.05319 0.293052 0
M  V30 3626 C 344.569 -1.55115 -1.064 0
M  V30 3627 O 343.927 -0.695261 -1.67439 0
M  V30 3628 C 343.975 -3.59305 0.305323 0
M  V30 3629 O 343.079 -4.06299 -0.706761 0
M  V30 3630 H 342.42 -0.650529 0.13307 0
M  V30 3631 H 344.95 -1.78386 1.00197 0
M  V30 3632 H 344.96 -4.07724 0.149997 0
M  V30 3633 H 343.635 -3.95207 1.29553 0
M  V30 3634 H 342.212 -3.69292 -0.517504 0
M  V30 3635 N 344.397 -0.483516 -1.5 0
M  V30 3636 C 345.627 0.0643896 -2.065 0
M  V30 3637 C 346.035 1.32949 -1.34615 0
M  V30 3638 O 345.378 1.79003 -0.412756 0
M  V30 3639 C 345.44 0.405983 -3.572 0
M  V30 3640 C 345.104 -0.758875 -4.50655 0
M  V30 3641 C 346.101 -1.64445 -4.93208 0
M  V30 3642 C 343.786 -0.952725 -4.93182 0
M  V30 3643 C 345.78 -2.70818 -5.77006 0
M  V30 3644 C 343.467 -2.01966 -5.76761 0
M  V30 3645 C 344.465 -2.89574 -6.18576 0
M  V30 3646 O 344.153 -3.94429 -7.00486 0
M  V30 3647 H 343.885 -0.00934786 -0.675935 0
M  V30 3648 H 346.439 -0.674959 -1.93993 0
M  V30 3649 H 344.669 1.19869 -3.67652 0
M  V30 3650 H 346.358 0.890433 -3.96013 0
M  V30 3651 H 347.124 -1.50643 -4.61012 0
M  V30 3652 H 343.003 -0.280247 -4.60147 0
M  V30 3653 H 346.547 -3.3923 -6.09565 0
M  V30 3654 H 342.444 -2.1577 -6.0837 0
M  V30 3655 H 343.212 -3.91568 -7.1876 0
M  V30 3656 N 345.875 1.56104 -0.216619 0
M  V30 3657 C 347.121 1.98466 0.417033 0
M  V30 3658 C 347.454 1.10403 1.59765 0
M  V30 3659 O 346.729 0.160632 1.93836 0
M  V30 3660 C 347.012 3.49769 0.85637 0
M  V30 3661 C 346.865 4.48606 -0.327546 0
M  V30 3662 C 348.184 4.05339 1.7143 0
M  V30 3663 H 345.303 0.721551 0.150112 0
M  V30 3664 H 347.945 1.87423 -0.311864 0
M  V30 3665 H 346.095 3.5931 1.47745 0
M  V30 3666 H 347.767 4.5108 -0.965618 0
M  V30 3667 H 346.01 4.22682 -0.975805 0
M  V30 3668 H 346.681 5.51995 0.0227149 0
M  V30 3669 H 349.157 3.98712 1.19031 0
M  V30 3670 H 348.033 5.11533 1.99061 0
M  V30 3671 H 348.294 3.51918 2.67593 0
M  V30 3672 N 347.353 -0.0568162 1.57498 0
M  V30 3673 C 348.601 -0.751617 1.87604 0
M  V30 3674 C 348.922 -1.77351 0.81066 0
M  V30 3675 O 348.192 -1.95254 -0.159018 0
M  V30 3676 H 346.772 -0.280583 0.692302 0
M  V30 3677 H 349.434 -0.0293483 1.94878 0
M  V30 3678 H 348.53 -1.25852 2.856 0
M  V30 3679 N 348.832 -1.54138 -0.328536 0
M  V30 3680 C 349.78 -1.83894 -1.42428 0
M  V30 3681 C 350.774 -0.710478 -1.53781 0
M  V30 3682 O 351.98 -0.894062 -1.56226 0
M  V30 3683 H 348.355 -0.582837 -0.475189 0
M  V30 3684 H 350.326 -2.75537 -1.14552 0
M  V30 3685 C 349.075 -2.07866 -2.78724 0
M  V30 3686 H 348.398 -2.94158 -2.7076 0
M  V30 3687 H 349.838 -2.32644 -3.54476 0
M  V30 3688 C 348.297 -0.868689 -3.25508 0
M  V30 3689 O 348.827 -0.0754908 -4.01629 0
M  V30 3690 N 347.033 -0.681711 -2.82491 0
M  V30 3691 H 346.58 -1.32838 -2.20708 0
M  V30 3692 H 346.538 0.126374 -3.14146 0
M  V30 3693 N 350.31 0.590341 -1.46126 0
M  V30 3694 C 351.242 1.71427 -1.52136 0
M  V30 3695 C 352.255 1.57542 -0.41042 0
M  V30 3696 O 353.444 1.65106 -0.678389 0
M  V30 3697 C 350.544 3.09605 -1.37834 0
M  V30 3698 C 349.717 3.49566 -2.62912 0
M  V30 3699 C 348.776 4.66773 -2.42918 0
M  V30 3700 O 347.802 4.73019 -3.1661 0
M  V30 3701 N 349.004 5.61161 -1.4859 0
M  V30 3702 H 351.769 1.66728 -2.49042 0
M  V30 3703 H 349.33 0.776113 -1.42085 0
M  V30 3704 H 351.322 3.85796 -1.22243 0
M  V30 3705 H 349.892 3.08714 -0.491393 0
M  V30 3706 H 349.112 2.63158 -2.93499 0
M  V30 3707 H 350.4 3.73028 -3.46017 0
M  V30 3708 H 349.798 5.58844 -0.87808 0
M  V30 3709 H 348.355 6.36814 -1.38965 0
M  V30 3710 N 351.788 1.33704 0.83433 0
M  V30 3711 C 352.735 1.24335 1.94447 0
M  V30 3712 C 353.705 0.120991 1.65659 0
M  V30 3713 O 354.89 0.300035 1.88426 0
M  V30 3714 C 352.03 0.993124 3.30501 0
M  V30 3715 C 351.143 2.20217 3.71657 0
M  V30 3716 C 350.278 1.88572 4.96602 0
M  V30 3717 C 349.317 3.05683 5.30306 0
M  V30 3718 N 348.454 2.73997 6.46429 0
M  V30 3719 H 353.294 2.1928 2.01792 0
M  V30 3720 H 350.831 1.09035 0.987404 0
M  V30 3721 H 352.789 0.828467 4.08892 0
M  V30 3722 H 351.419 0.0803902 3.227 0
M  V30 3723 H 350.471 2.47642 2.88752 0
M  V30 3724 H 351.783 3.07752 3.92543 0
M  V30 3725 H 350.937 1.68776 5.82752 0
M  V30 3726 H 349.676 0.982799 4.77695 0
M  V30 3727 H 348.681 3.26088 4.42659 0
M  V30 3728 H 349.906 3.96737 5.51159 0
M  V30 3729 H 347.852 1.86268 6.28999 0
M  V30 3730 H 347.769 3.55064 6.67432 0
M  V30 3731 H 349.037 2.57679 7.35678 0
M  V30 3732 N 353.266 -1.05314 1.17247 0
M  V30 3733 C 354.513 -1.78293 0.960091 0
M  V30 3734 C 354.841 -1.87658 -0.51136 0
M  V30 3735 O 354.096 -1.3718 -1.39571 0
M  V30 3736 C 354.395 -3.2229 1.54479 0
M  V30 3737 C 354.061 -3.32987 3.04024 0
M  V30 3738 C 352.723 -3.35613 3.44844 0
M  V30 3739 C 355.075 -3.34102 4.00031 0
M  V30 3740 C 352.403 -3.36982 4.8027 0
M  V30 3741 C 354.755 -3.3701 5.35357 0
M  V30 3742 C 353.419 -3.37923 5.75642 0
M  V30 3743 H 352.689 -0.652422 0.351322 0
M  V30 3744 H 355.336 -1.23782 1.46117 0
M  V30 3745 H 353.641 -3.7972 0.965391 0
M  V30 3746 H 355.338 -3.77376 1.35603 0
M  V30 3747 H 351.928 -3.31655 2.71483 0
M  V30 3748 H 356.112 -3.31276 3.69554 0
M  V30 3749 H 351.368 -3.35999 5.10798 0
M  V30 3750 H 355.542 -3.36822 6.09528 0
M  V30 3751 H 353.169 -3.38738 6.80559 0
M  V30 3752 N 354.744 -0.972509 -1.24016 0
M  V30 3753 C 355.972 -0.654803 -1.96265 0
M  V30 3754 C 356.387 0.776708 -1.72083 0
M  V30 3755 O 355.744 1.52171 -1.00748 0
M  V30 3756 C 355.795 -0.92592 -3.49441 0
M  V30 3757 O 355.516 -2.30116 -3.72798 0
M  V30 3758 C 357.017 -0.623068 -4.38899 0
M  V30 3759 H 354.237 -0.243907 -0.6251 0
M  V30 3760 H 356.781 -1.30175 -1.57717 0
M  V30 3761 H 354.936 -0.325108 -3.86033 0
M  V30 3762 H 355.35 -2.38483 -4.67147 0
M  V30 3763 H 356.824 -0.863189 -5.45209 0
M  V30 3764 H 357.301 0.442754 -4.36963 0
M  V30 3765 H 357.907 -1.204 -4.07902 0
M  V30 3766 N 356.222 1.38976 -0.743202 0
M  V30 3767 C 357.468 2.0064 -0.295189 0
M  V30 3768 C 357.801 1.5885 1.11716 0
M  V30 3769 O 357.076 0.821181 1.76315 0
M  V30 3770 C 357.359 3.578 -0.406318 0
M  V30 3771 C 357.212 4.09586 -1.85903 0
M  V30 3772 C 358.531 4.39616 0.206439 0
M  V30 3773 H 355.65 0.728935 -0.108733 0
M  V30 3774 H 358.292 1.65067 -0.940897 0
M  V30 3775 H 356.442 3.88235 0.143419 0
M  V30 3776 H 358.114 3.89837 -2.46627 0
M  V30 3777 H 356.357 3.6284 -2.3776 0
M  V30 3778 H 357.028 5.18708 -1.888 0
M  V30 3779 H 359.504 4.15273 -0.262283 0
M  V30 3780 H 358.38 5.48812 0.0983819 0
M  V30 3781 H 358.641 4.22754 1.2935 0
M  V30 3782 N 357.7 0.491464 1.49741 0
M  V30 3783 C 358.946 -0.0485431 2.03342 0
M  V30 3784 C 359.301 -1.35566 1.36527 0
M  V30 3785 O 358.594 -1.85262 0.488729 0
M  V30 3786 C 358.788 -0.267329 3.56399 0
M  V30 3787 C 358.617 1.01703 4.38049 0
M  V30 3788 C 357.387 1.56614 4.80417 0
M  V30 3789 C 359.585 1.91782 4.77204 0
M  V30 3790 N 357.567 2.7974 5.4646 0
M  V30 3791 C 358.938 2.99489 5.42868 0
M  V30 3792 C 360.993 1.92575 4.5915 0
M  V30 3793 C 359.696 4.08005 5.92389 0
M  V30 3794 C 361.722 3.0006 5.09626 0
M  V30 3795 C 361.084 4.06485 5.75282 0
M  V30 3796 H 357.183 0.0227779 0.781668 0
M  V30 3797 H 359.767 0.664204 1.8302 0
M  V30 3798 H 357.938 -0.949126 3.76625 0
M  V30 3799 H 359.67 -0.803492 3.96644 0
M  V30 3800 H 356.425 1.11256 4.60347 0
M  V30 3801 H 356.849 3.42323 5.84075 0
M  V30 3802 H 361.491 1.11605 4.07804 0
M  V30 3803 H 359.209 4.89779 6.42761 0
M  V30 3804 H 362.795 3.01681 4.97473 0
M  V30 3805 H 361.675 4.88287 6.13633 0
M  V30 3806 N 359.178 -1.55987 0.224894 0
M  V30 3807 C 360.403 -2.03232 -0.41369 0
M  V30 3808 C 360.828 -1.10359 -1.52323 0
M  V30 3809 O 360.186 -0.092395 -1.81064 0
M  V30 3810 C 360.234 -3.48682 -0.919405 0
M  V30 3811 O 359.338 -3.58947 -2.03054 0
M  V30 3812 H 358.679 -0.657428 -0.0931903 0
M  V30 3813 H 361.209 -2.01679 0.34451 0
M  V30 3814 H 361.219 -3.8907 -1.22835 0
M  V30 3815 H 359.894 -4.15761 -0.107339 0
M  V30 3816 H 358.471 -3.30448 -1.72796 0
M  V30 3817 N 360.656 0.0484629 -1.57525 0
M  V30 3818 C 361.881 0.759177 -1.93006 0
M  V30 3819 C 362.306 1.69125 -0.823317 0
M  V30 3820 O 361.664 1.79931 0.222364 0
M  V30 3821 C 361.712 1.50899 -3.27509 0
M  V30 3822 O 360.816 2.62112 -3.18388 0
M  V30 3823 H 360.157 0.205564 -0.631379 0
M  V30 3824 H 362.687 0.00972959 -2.04598 0
M  V30 3825 H 362.697 1.88317 -3.6194 0
M  V30 3826 H 361.372 0.825269 -4.0763 0
M  V30 3827 H 359.949 2.27379 -2.95556 0
M  V30 3828 N 362.134 1.5431 0.320358 0
M  V30 3829 C 363.55 1.45091 0.664889 0
M  V30 3830 C 363.75 0.626382 1.91517 0
M  V30 3831 O 362.806 0.126443 2.52183 0
M  V30 3832 C 364.119 2.88848 0.83591 0
M  V30 3833 C 365.667 2.9877 0.933046 0
M  V30 3834 C 366.142 4.43683 1.13621 0
M  V30 3835 N 367.633 4.47309 1.20287 0
M  V30 3836 C 368.368 5.56595 1.37801 0
M  V30 3837 N 367.864 6.75844 1.52338 0
M  V30 3838 N 369.657 5.44248 1.40535 0
M  V30 3839 H 361.808 2.06398 -0.501374 0
M  V30 3840 H 364.071 0.933963 -0.162534 0
M  V30 3841 H 363.777 3.51698 -0.0116092 0
M  V30 3842 H 363.651 3.35148 1.73078 0
M  V30 3843 H 366.038 2.36045 1.77107 0
M  V30 3844 H 366.119 2.55796 0.0145782 0
M  V30 3845 H 365.763 5.06995 0.303032 0
M  V30 3846 H 365.693 4.84269 2.0686 0
M  V30 3847 H 368.184 3.61388 1.10485 0
M  V30 3848 H 368.497 7.54892 1.65403 0
M  V30 3849 H 366.842 6.78746 1.4943 0
M  V30 3850 H 370.033 4.50038 1.28777 0
M  V30 3851 H 370.206 6.29473 1.53842 0
M  V30 3852 N 363.613 -0.582584 1.46437 0
M  V30 3853 C 364.859 -1.34278 1.51978 0
M  V30 3854 C 365.192 -1.93446 0.170973 0
M  V30 3855 O 364.467 -1.76481 -0.817608 0
M  V30 3856 C 364.75 -2.47203 2.61845 0
M  V30 3857 C 364.603 -1.93069 4.06257 0
M  V30 3858 C 365.922 -3.49247 2.67795 0
M  V30 3859 H 363.041 -0.486876 0.553282 0
M  V30 3860 H 365.683 -0.654437 1.78374 0
M  V30 3861 H 363.833 -3.0592 2.39469 0
M  V30 3862 H 365.505 -1.38808 4.3992 0
M  V30 3863 H 363.748 -1.23898 4.1573 0
M  V30 3864 H 364.419 -2.74586 4.7886 0
M  V30 3865 H 366.895 -3.00411 2.8791 0
M  V30 3866 H 365.771 -4.25719 3.46489 0
M  V30 3867 H 366.032 -4.06482 1.73852 0
M  V30 3868 N 365.091 -1.34144 -0.827227 0
M  V30 3869 C 366.041 -1.21923 -1.92663 0
M  V30 3870 C 367.025 -0.119294 -1.60457 0
M  V30 3871 O 368.217 -0.348539 -1.73534 0
M  V30 3872 C 365.346 -0.972492 -3.29238 0
M  V30 3873 C 364.432 -2.1154 -3.67576 0
M  V30 3874 N 364.823 -3.36627 -3.77512 0
M  V30 3875 C 363.121 -2.02468 -3.97395 0
M  V30 3876 C 363.822 -4.11658 -4.1099 0
M  V30 3877 N 362.798 -3.40207 -4.23981 0
M  V30 3878 H 366.6 -2.16721 -1.98517 0
M  V30 3879 H 364.114 -1.2632 -1.02064 0
M  V30 3880 H 366.111 -0.865847 -4.0781 0
M  V30 3881 H 364.771 -0.0331509 -3.24683 0
M  V30 3882 H 365.782 -3.71234 -3.61118 0
M  V30 3883 H 362.459 -1.16265 -4.00985 0
M  V30 3884 H 363.849 -5.19657 -4.25918 0
M  V30 3885 N 366.569 1.04691 -1.17803 0
M  V30 3886 C 367.98 1.59238 -0.974689 0
M  V30 3887 C 368.331 1.90306 0.477292 0
M  V30 3888 O 367.456 1.68846 1.35352 0
M  V30 3889 C 368.051 2.89318 -1.76296 0
M  V30 3890 C 366.61 3.40506 -1.60414 0
M  V30 3891 C 365.757 2.14172 -1.76141 0
M  V30 3892 H 368.708 0.874395 -1.32439 0
M  V30 3893 H 368.729 3.5944 -1.24833 0
M  V30 3894 H 368.241 2.66675 -2.81968 0
M  V30 3895 H 366.342 3.68175 -0.572519 0
M  V30 3896 H 366.455 4.14753 -2.39827 0
M  V30 3897 H 364.819 2.25176 -1.19028 0
M  V30 3898 H 365.602 1.93992 -2.83235 0
M  V30 3899 N 368.047 0.979072 1.23499 0
M  V30 3900 C 368.997 0.489378 2.22686 0
M  V30 3901 C 369.981 -0.434871 1.54912 0
M  V30 3902 O 371.173 -0.263941 1.75021 0
M  V30 3903 C 368.302 -0.208178 3.42668 0
M  V30 3904 C 367.388 0.735563 4.17672 0
M  V30 3905 N 367.779 1.87763 4.69658 0
M  V30 3906 C 366.077 0.548625 4.42613 0
M  V30 3907 C 366.778 2.46886 5.26709 0
M  V30 3908 N 365.754 1.75287 5.14563 0
M  V30 3909 H 369.556 1.36062 2.60508 0
M  V30 3910 H 367.07 0.83958 1.39014 0
M  V30 3911 H 369.067 -0.576295 4.12898 0
M  V30 3912 H 367.727 -1.07572 3.06363 0
M  V30 3913 H 368.738 2.25885 4.66043 0
M  V30 3914 H 365.415 -0.274006 4.166 0
M  V30 3915 H 366.805 3.43326 5.77561 0
M  V30 3916 N 369.525 -1.3858 0.750561 0
M  V30 3917 C 370.488 -2.28836 0.129152 0
M  V30 3918 C 371.488 -1.47045 -0.650714 0
M  V30 3919 O 372.678 -1.6753 -0.477428 0
M  V30 3920 C 369.81 -3.30751 -0.825622 0
M  V30 3921 H 371.003 -2.85294 0.924516 0
M  V30 3922 H 368.556 -1.47489 0.517376 0
M  V30 3923 H 369.291 -2.79378 -1.64677 0
M  V30 3924 H 369.076 -3.91177 -0.268852 0
M  V30 3925 H 370.566 -3.98249 -1.2565 0
M  V30 3926 N 371.003 -0.499398 -1.49478 0
M  V30 3927 C 372.228 0.044722 -2.07352 0
M  V30 3928 C 372.653 1.30207 -1.35749 0
M  V30 3929 O 372.011 1.76516 -0.413732 0
M  V30 3930 C 372.059 0.283013 -3.59488 0
M  V30 3931 O 371.163 1.35804 -3.89398 0
M  V30 3932 H 370.504 -0.0255147 -0.66351 0
M  V30 3933 H 373.034 -0.698561 -1.92305 0
M  V30 3934 H 373.044 0.515007 -4.04737 0
M  V30 3935 H 371.719 -0.635636 -4.11014 0
M  V30 3936 H 370.296 1.11113 -3.55961 0
M  V30 3937 N 372.481 1.55866 -0.233164 0
M  V30 3938 C 373.428 2.20796 0.67215 0
M  V30 3939 C 374.398 1.16731 1.18166 0
M  V30 3940 O 375.583 1.45129 1.23864 0
M  V30 3941 C 372.723 2.90072 1.86955 0
M  V30 3942 C 371.836 4.08759 1.39786 0
M  V30 3943 C 370.971 4.65787 2.55374 0
M  V30 3944 C 370.01 5.76752 2.04998 0
M  V30 3945 N 369.147 6.28021 3.13901 0
M  V30 3946 H 373.987 2.9779 0.111749 0
M  V30 3947 H 371.524 1.47036 0.0434007 0
M  V30 3948 H 373.482 3.28428 2.57276 0
M  V30 3949 H 372.112 2.15575 2.40265 0
M  V30 3950 H 371.164 3.7581 0.589173 0
M  V30 3951 H 372.476 4.88906 0.98856 0
M  V30 3952 H 371.63 5.06646 3.33758 0
M  V30 3953 H 370.369 3.84828 2.99598 0
M  V30 3954 H 369.374 5.35383 1.25079 0
M  V30 3955 H 370.599 6.59553 1.61759 0
M  V30 3956 H 368.545 5.49971 3.57586 0
M  V30 3957 H 368.462 7.03323 2.7726 0
M  V30 3958 H 369.73 6.73538 3.92386 0
M  V30 3959 N 373.959 -0.0401083 1.57549 0
M  V30 3960 C 374.922 -1.02871 2.04817 0
M  V30 3961 C 375.922 -1.29708 0.950388 0
M  V30 3962 O 377.112 -1.24897 1.21435 0
M  V30 3963 C 374.244 -2.36443 2.45576 0
M  V30 3964 H 375.437 -0.620631 2.93408 0
M  V30 3965 H 372.99 -0.286667 1.53649 0
M  V30 3966 H 373.725 -2.82021 1.60108 0
M  V30 3967 H 373.51 -2.18296 3.25713 0
M  V30 3968 H 375 -3.07441 2.82612 0
M  V30 3969 N 375.437 -1.54477 -0.31217 0
M  V30 3970 C 376.369 -1.81011 -1.40598 0
M  V30 3971 C 377.382 -0.692546 -1.47335 0
M  V30 3972 O 378.571 -0.969847 -1.49854 0
M  V30 3973 C 375.671 -1.92307 -2.79054 0
M  V30 3974 C 374.844 -3.22594 -2.95384 0
M  V30 3975 C 373.903 -3.24448 -4.1427 0
M  V30 3976 O 372.929 -3.98035 -4.06887 0
M  V30 3977 N 374.131 -2.49042 -5.24365 0
M  V30 3978 H 376.896 -2.75408 -1.18196 0
M  V30 3979 H 374.457 -1.53914 -0.502202 0
M  V30 3980 H 376.449 -1.90962 -3.56813 0
M  V30 3981 H 375.019 -1.04955 -2.94454 0
M  V30 3982 H 374.239 -3.36806 -2.04831 0
M  V30 3983 H 375.527 -4.08593 -3.03198 0
M  V30 3984 H 374.925 -1.88867 -5.33241 0
M  V30 3985 H 373.482 -2.53463 -6.005 0
M  V30 3986 N 376.915 0.57481 -1.46744 0
M  V30 3987 C 378.326 1.15695 -1.46532 0
M  V30 3988 C 378.677 1.95068 -0.210425 0
M  V30 3989 O 377.802 2.05241 0.685944 0
M  V30 3990 C 378.397 2.1048 -2.65487 0
M  V30 3991 C 376.956 2.64002 -2.68291 0
M  V30 3992 C 376.103 1.40026 -2.39349 0
M  V30 3993 H 379.054 0.362325 -1.54509 0
M  V30 3994 H 379.075 2.94074 -2.41455 0
M  V30 3995 H 378.587 1.52683 -3.56805 0
M  V30 3996 H 376.688 3.25646 -1.81067 0
M  V30 3997 H 376.801 3.06197 -3.68483 0
M  V30 3998 H 375.165 1.70106 -1.89568 0
M  V30 3999 H 375.948 0.840485 -3.32852 0
M  V30 4000 N 378.394 1.34581 0.820102 0
M  V30 4001 C 379.642 1.26845 1.57336 0
M  V30 4002 C 379.963 -0.160667 1.94337 0
M  V30 4003 O 379.233 -1.09396 1.6251 0
M  V30 4004 H 377.813 0.466514 0.583415 0
M  V30 4005 H 380.475 1.68526 0.979027 0
M  V30 4006 H 379.571 1.87513 2.4949 0
M  V30 4007 N 379.872 -1.04064 1.18357 0
M  V30 4008 C 381.097 -1.81454 1.00445 0
M  V30 4009 C 381.522 -1.82823 -0.442423 0
M  V30 4010 O 380.88 -1.24555 -1.31741 0
M  V30 4011 C 380.928 -3.24925 1.56384 0
M  V30 4012 O 380.032 -4.04856 0.785209 0
M  V30 4013 H 379.373 -0.560604 0.355835 0
M  V30 4014 H 381.903 -1.31059 1.57114 0
M  V30 4015 H 381.913 -3.75702 1.59097 0
M  V30 4016 H 380.588 -3.23244 2.61699 0
M  V30 4017 H 379.165 -3.63537 0.830399 0
M  V30 4018 N 381.35 -0.985608 -1.22978 0
M  V30 4019 C 382.596 -0.65836 -1.91816 0
M  V30 4020 C 382.929 0.806692 -1.76653 0
M  V30 4021 O 382.204 1.58252 -1.13078 0
M  V30 4022 C 382.487 -1.056 -3.44268 0
M  V30 4023 C 382.34 -2.57906 -3.68516 0
M  V30 4024 C 383.659 -0.603781 -4.35939 0
M  V30 4025 H 380.778 -0.24065 -0.696604 0
M  V30 4026 H 383.42 -1.22783 -1.44998 0
M  V30 4027 H 381.57 -0.571445 -3.84274 0
M  V30 4028 H 383.242 -3.13976 -3.3796 0
M  V30 4029 H 381.485 -3.00305 -3.13048 0
M  V30 4030 H 382.156 -2.80779 -4.75255 0
M  V30 4031 H 384.632 -1.01987 -4.03408 0
M  V30 4032 H 383.508 -0.910383 -5.41298 0
M  V30 4033 H 383.769 0.495761 -4.39312 0
M  V30 4034 N 382.828 1.3818 -0.7579 0
M  V30 4035 C 384.077 1.99261 -0.312744 0
M  V30 4036 C 384.39 1.60846 1.11301 0
M  V30 4037 O 385.596 2.14929 1.65885 0
M  V30 4038 C 384.052 3.56294 -0.50821 0
M  V30 4039 C 383.66 4.03657 -1.94333 0
M  V30 4040 C 385.404 4.24313 -0.125982 0
M  V30 4041 C 383.311 5.53347 -2.08712 0
M  V30 4042 H 382.241 0.745456 -0.113185 0
M  V30 4043 H 384.892 1.57889 -0.935056 0
M  V30 4044 H 383.274 3.95575 0.183353 0
M  V30 4045 H 384.448 3.75655 -2.66871 0
M  V30 4046 H 382.763 3.48376 -2.28086 0
M  V30 4047 H 385.36 5.34279 -0.212125 0
M  V30 4048 H 385.703 4.05962 0.921964 0
M  V30 4049 H 386.236 3.90285 -0.769563 0
M  V30 4050 H 382.975 5.76607 -3.11777 0
M  V30 4051 H 382.495 5.83078 -1.4064 0
M  V30 4052 H 384.174 6.19111 -1.87912 0
M  V30 4053 N 384.306 0.507319 1.49211 0
M  V30 4054 C 385.531 -0.033725 2.07373 0
M  V30 4055 C 385.956 -1.29485 1.36437 0
M  V30 4056 O 385.314 -1.76294 0.423087 0
M  V30 4057 C 385.362 -0.263945 3.59633 0
M  V30 4058 O 384.466 -1.33737 3.90113 0
M  V30 4059 H 383.807 0.0290331 0.663365 0
M  V30 4060 H 386.337 0.708749 1.91932 0
M  V30 4061 H 386.347 -0.493536 4.05004 0
M  V30 4062 H 385.022 0.657424 4.10671 0
M  V30 4063 H 383.599 -1.09224 3.56545 0
M  V30 4064 N 385.784 -1.5574 0.241426 0
M  V30 4065 C 387.03 -1.99104 -0.385406 0
M  V30 4066 C 387.363 -1.1293 -1.57988 0
M  V30 4067 O 386.638 -0.191449 -1.93555 0
M  V30 4068 C 386.921 -3.51087 -0.800616 0
M  V30 4069 C 386.774 -4.48028 0.398874 0
M  V30 4070 C 388.093 -4.08015 -1.64959 0
M  V30 4071 H 385.212 -0.723848 -0.138614 0
M  V30 4072 H 387.854 -1.86903 0.341642 0
M  V30 4073 H 386.004 -3.61615 -1.4201 0
M  V30 4074 H 387.676 -4.49487 1.03726 0
M  V30 4075 H 385.919 -4.21077 1.04293 0
M  V30 4076 H 386.59 -5.51962 0.0651056 0
M  V30 4077 H 389.066 -4.00555 -1.12672 0
M  V30 4078 H 387.942 -5.14635 -1.90898 0
M  V30 4079 H 388.203 -3.56131 -2.61961 0
M  V30 4080 N 387.262 0.0317525 -1.57568 0
M  V30 4081 C 388.225 1.01783 -2.0536 0
M  V30 4082 C 389.225 1.29203 -0.957253 0
M  V30 4083 O 390.415 1.24251 -1.22095 0
M  V30 4084 C 387.547 2.35137 -2.46827 0
M  V30 4085 H 388.74 0.605062 -2.93733 0
M  V30 4086 H 386.293 0.278514 -1.53799 0
M  V30 4087 H 387.028 2.81168 -1.61602 0
M  V30 4088 H 386.813 2.16566 -3.26866 0
M  V30 4089 H 388.303 3.05938 -2.84239 0
M  V30 4090 N 388.74 1.54641 0.303973 0
M  V30 4091 C 390.151 1.64811 0.877163 0
M  V30 4092 C 390.502 0.554838 1.88191 0
M  V30 4093 O 389.627 -0.309033 2.14182 0
M  V30 4094 C 390.222 2.9876 1.59775 0
M  V30 4095 C 388.781 3.11061 2.11938 0
M  V30 4096 C 387.928 2.60479 0.951097 0
M  V30 4097 H 390.879 1.58493 0.0810486 0
M  V30 4098 H 390.9 2.90017 2.46314 0
M  V30 4099 H 390.412 3.7831 0.866226 0
M  V30 4100 H 388.513 2.36225 2.88146 0
M  V30 4101 H 388.626 4.17171 2.35595 0
M  V30 4102 H 386.99 2.16859 1.33583 0
M  V30 4103 H 387.773 3.42504 0.233581 0
M  V30 4104 N 390.218 -0.567019 1.47046 0
M  V30 4105 C 391.148 -1.68482 1.61667 0
M  V30 4106 C 392.129 -1.6358 0.466418 0
M  V30 4107 O 393.314 -1.81354 0.694574 0
M  V30 4108 C 390.444 -3.07124 1.62148 0
M  V30 4109 C 389.398 -3.26867 2.76301 0
M  V30 4110 C 388.724 -4.66196 2.61849 0
M  V30 4111 C 390.024 -3.13186 4.17986 0
M  V30 4112 H 391.718 -1.56502 2.5524 0
M  V30 4113 H 389.264 -0.751486 1.22836 0
M  V30 4114 H 391.217 -3.8516 1.70968 0
M  V30 4115 H 389.941 -3.2004 0.651287 0
M  V30 4116 H 388.6 -2.51237 2.66975 0
M  V30 4117 H 388.248 -4.75898 1.62879 0
M  V30 4118 H 387.948 -4.80356 3.38425 0
M  V30 4119 H 389.472 -5.46379 2.72584 0
M  V30 4120 H 390.886 -3.81049 4.2834 0
M  V30 4121 H 389.283 -3.3886 4.95272 0
M  V30 4122 H 390.353 -2.10057 4.3704 0
M  V30 4123 N 391.696 -1.35014 -0.812953 0
M  V30 4124 C 392.626 -1.30069 -1.93919 0
M  V30 4125 C 393.607 -0.176275 -1.69184 0
M  V30 4126 O 394.792 -0.370227 -1.90638 0
M  V30 4127 C 391.922 -1.06547 -3.30552 0
M  V30 4128 C 390.876 -2.15561 -3.69753 0
M  V30 4129 C 390.202 -1.77214 -5.04479 0
M  V30 4130 C 391.502 -3.57476 -3.808 0
M  V30 4131 H 393.196 -2.24303 -1.98314 0
M  V30 4132 H 390.742 -1.07977 -0.952736 0
M  V30 4133 H 392.695 -1.01729 -4.08937 0
M  V30 4134 H 391.419 -0.0875719 -3.26483 0
M  V30 4135 H 390.078 -2.19466 -2.9365 0
M  V30 4136 H 389.726 -0.780589 -4.96906 0
M  V30 4137 H 389.426 -2.50184 -5.31678 0
M  V30 4138 H 390.95 -1.7391 -5.8531 0
M  V30 4139 H 392.364 -3.55929 -4.4943 0
M  V30 4140 H 390.761 -4.29152 -4.19462 0
M  V30 4141 H 391.831 -3.94091 -2.82525 0
M  V30 4142 N 393.175 1.03435 -1.18907 0
M  V30 4143 C 394.424 1.76143 -0.982669 0
M  V30 4144 C 394.737 1.89416 0.487953 0
M  V30 4145 O 395.943 2.59041 0.813036 0
M  V30 4146 C 394.399 3.16722 -1.70924 0
M  V30 4147 C 394.007 3.11522 -3.21959 0
M  V30 4148 C 395.751 3.93764 -1.58588 0
M  V30 4149 C 393.658 4.46999 -3.87228 0
M  V30 4150 H 392.588 0.660292 -0.364047 0
M  V30 4151 H 395.239 1.158 -1.42347 0
M  V30 4152 H 393.621 3.775 -1.19623 0
M  V30 4153 H 394.795 2.60158 -3.80335 0
M  V30 4154 H 393.11 2.47978 -3.34508 0
M  V30 4155 H 395.707 4.93963 -2.04707 0
M  V30 4156 H 396.05 4.12794 -0.539142 0
M  V30 4157 H 396.583 3.39576 -2.07203 0
M  V30 4158 H 393.322 4.33174 -4.91976 0
M  V30 4159 H 392.842 4.98441 -3.33642 0
M  V30 4160 H 394.521 5.15898 -3.90459 0
M  V30 4161 N 394.653 0.992116 1.22453 0
M  V30 4162 C 395.616 0.546883 2.2258 0
M  V30 4163 C 396.616 -0.369829 1.56489 0
M  V30 4164 O 397.806 -0.161896 1.73446 0
M  V30 4165 C 394.938 -0.204659 3.40285 0
M  V30 4166 H 396.131 1.43234 2.63484 0
M  V30 4167 H 393.684 0.779239 1.3549 0
M  V30 4168 H 394.419 -1.10614 3.04853 0
M  V30 4169 H 394.204 0.45354 3.89468 0
M  V30 4170 H 395.694 -0.504358 4.14543 0
M  V30 4171 N 396.131 -1.37776 0.765217 0
M  V30 4172 C 397.371 -2.01691 0.331669 0
M  V30 4173 C 397.735 -1.59432 -1.06983 0
M  V30 4174 O 398.936 -2.15761 -1.60314 0
M  V30 4175 C 397.207 -3.54385 0.463261 0
M  V30 4176 S 398.766 -4.38652 0.114011 0
M  V30 4177 H 395.584 -0.699387 0.127979 0
M  V30 4178 H 398.186 -1.68084 0.998396 0
M  V30 4179 H 396.89 -3.82629 1.48401 0
M  V30 4180 H 396.421 -3.92783 -0.220246 0
M  V30 4181 H 398.436 -4.84021 -1.09261 0
M  V30 4182 N 397.609 -0.515225 -1.4894 0
M  V30 4183 C 398.857 0.0241671 -2.02086 0
M  V30 4184 C 399.178 1.3616 -1.3959 0
M  V30 4185 O 398.448 1.87841 -0.556121 0
M  V30 4186 H 397.028 0.0119203 -0.746905 0
M  V30 4187 H 399.69 -0.675702 -1.82812 0
M  V30 4188 H 398.786 0.143385 -3.1177 0
M  V30 4189 N 399.087 1.5561 -0.249682 0
M  V30 4190 C 400.364 1.90932 0.424761 0
M  V30 4191 C 400.744 1.17078 1.75658 0
M  V30 4192 O 400.092 0.289176 2.26663 0
M  V30 4193 C 400.302 3.43975 0.590109 0
M  V30 4194 C 401.65 4.15281 0.884714 0
M  V30 4195 O 402.674 3.49729 0.67587 0
M  V30 4196 O 401.533 5.31236 1.28259 0
M  V30 4197 H 398.627 0.794815 0.228468 0
M  V30 4198 H 401.173 1.67135 -0.293954 0
M  V30 4199 H 399.945 3.89748 -0.34818 0
M  V30 4200 H 399.568 3.73644 1.35926 0
M  V30 4201 N 400.565 -0.0233959 1.57583 0
M  V30 4202 C 401.813 -0.711654 1.89156 0
M  V30 4203 C 402.134 -1.75591 0.848096 0
M  V30 4204 O 401.404 -1.95547 -0.117566 0
M  V30 4205 H 399.984 -0.265835 0.698098 0
M  V30 4206 H 402.646 0.0119948 1.94896 0
M  V30 4207 H 401.742 -1.19766 2.88206 0
M  V30 4208 N 402.043 -1.548 -0.295768 0
M  V30 4209 C 403.006 -1.85363 -1.34808 0
M  V30 4210 C 404.006 -0.726817 -1.43436 0
M  V30 4211 O 405.196 -0.995088 -1.42981 0
M  V30 4212 C 402.328 -2.03859 -2.73229 0
M  V30 4213 H 403.521 -2.7941 -1.08949 0
M  V30 4214 H 401.074 -1.46942 -0.532702 0
M  V30 4215 H 401.809 -1.12117 -3.04303 0
M  V30 4216 H 401.594 -2.8588 -2.68356 0
M  V30 4217 H 403.084 -2.28857 -3.49305 0
M  V30 4218 N 403.521 0.559213 -1.47345 0
M  V30 4219 C 404.451 1.67622 -1.62558 0
M  V30 4220 C 405.432 1.63331 -0.475087 0
M  V30 4221 O 406.617 1.80983 -0.704182 0
M  V30 4222 C 403.747 3.0626 -1.63774 0
M  V30 4223 C 402.701 3.25397 -2.7803 0
M  V30 4224 C 402.027 4.64801 -2.64318 0
M  V30 4225 C 403.327 3.10965 -4.19641 0
M  V30 4226 H 405.021 1.55146 -2.56067 0
M  V30 4227 H 402.567 0.744961 -1.23233 0
M  V30 4228 H 404.52 3.84247 -1.73008 0
M  V30 4229 H 403.244 3.1969 -0.66825 0
M  V30 4230 H 401.903 2.49817 -2.68304 0
M  V30 4231 H 401.551 4.75028 -1.65401 0
M  V30 4232 H 401.251 4.78555 -3.40968 0
M  V30 4233 H 402.775 5.44926 -2.75478 0
M  V30 4234 H 404.189 3.78772 -4.30354 0
M  V30 4235 H 402.586 3.36229 -4.97062 0
M  V30 4236 H 403.656 2.07736 -4.38148 0
M  V30 4237 N 404.999 1.35443 0.805782 0
M  V30 4238 C 405.909 1.30546 1.94923 0
M  V30 4239 C 406.925 0.210233 1.72725 0
M  V30 4240 O 408.101 0.43975 1.9654 0
M  V30 4241 C 405.166 1.07782 3.29521 0
M  V30 4242 C 404.227 2.26625 3.64609 0
M  V30 4243 C 403.46 2.04938 4.92784 0
M  V30 4244 O 403.683 1.01624 5.61274 0
M  V30 4245 O 402.617 2.9232 5.26149 0
M  V30 4246 H 406.443 2.26779 2.02002 0
M  V30 4247 H 404.028 1.15823 0.943682 0
M  V30 4248 H 405.91 0.969392 4.10098 0
M  V30 4249 H 404.585 0.146003 3.23371 0
M  V30 4250 H 403.492 2.43033 2.84404 0
M  V30 4251 H 404.825 3.18257 3.75464 0
M  V30 4252 N 406.477 -1.02803 1.19454 0
M  V30 4253 C 407.726 -1.7562 0.991996 0
M  V30 4254 C 408.039 -1.89672 -0.477901 0
M  V30 4255 O 409.245 -2.59468 -0.799287 0
M  V30 4256 C 407.701 -3.15812 1.72601 0
M  V30 4257 C 407.309 -3.0981 3.23607 0
M  V30 4258 C 409.053 -3.92918 1.60674 0
M  V30 4259 C 406.96 -4.44939 3.89594 0
M  V30 4260 H 405.89 -0.658352 0.367543 0
M  V30 4261 H 408.541 -1.15044 1.42959 0
M  V30 4262 H 406.923 -3.7686 1.21624 0
M  V30 4263 H 408.097 -2.58138 3.81709 0
M  V30 4264 H 406.412 -2.46201 3.35819 0
M  V30 4265 H 409.009 -4.9287 2.07323 0
M  V30 4266 H 409.352 -4.12502 0.561025 0
M  V30 4267 H 409.885 -3.38472 2.09001 0
M  V30 4268 H 406.624 -4.30559 4.94267 0
M  V30 4269 H 406.144 -4.96664 3.36281 0
M  V30 4270 H 407.823 -5.1382 3.93189 0
M  V30 4271 N 407.956 -0.998596 -1.21925 0
M  V30 4272 C 409.202 -0.678667 -1.91107 0
M  V30 4273 C 409.535 0.78791 -1.77498 0
M  V30 4274 O 408.81 1.57043 -1.1475 0
M  V30 4275 C 409.093 -1.09245 -3.43129 0
M  V30 4276 C 408.946 -2.61801 -3.6576 0
M  V30 4277 C 410.265 -0.649984 -4.35274 0
M  V30 4278 H 407.384 -0.248025 -0.694012 0
M  V30 4279 H 410.026 -1.24314 -1.43688 0
M  V30 4280 H 408.176 -0.612171 -3.83647 0
M  V30 4281 H 409.848 -3.17543 -3.34611 0
M  V30 4282 H 408.091 -3.03609 -3.09845 0
M  V30 4283 H 408.762 -2.85804 -4.7225 0
M  V30 4284 H 411.238 -1.0626 -4.02303 0
M  V30 4285 H 410.114 -0.967743 -5.40302 0
M  V30 4286 H 410.375 0.449139 -4.39813 0
M  V30 4287 N 409.434 1.37368 -0.772513 0
M  V30 4288 C 410.662 2.03942 -0.348588 0
M  V30 4289 C 411.077 1.58264 1.02947 0
M  V30 4290 O 410.434 0.764246 1.65727 0
M  V30 4291 C 410.485 3.5946 -0.38351 0
M  V30 4292 O 410.206 4.03468 -1.70721 0
M  V30 4293 C 411.707 4.4327 0.0519152 0
M  V30 4294 H 408.927 0.654931 -0.145966 0
M  V30 4295 H 411.471 1.75686 -1.04665 0
M  V30 4296 H 409.626 3.86486 0.265978 0
M  V30 4297 H 410.04 4.97991 -1.64636 0
M  V30 4298 H 411.514 5.51995 -0.0236733 0
M  V30 4299 H 411.991 4.2514 1.10238 0
M  V30 4300 H 412.597 4.21471 -0.569415 0
M  V30 4301 N 410.912 0.523116 1.48665 0
M  V30 4302 C 412.16 -0.0134497 2.02096 0
M  V30 4303 C 412.481 -1.35418 1.40311 0
M  V30 4304 O 411.751 -1.87543 0.566074 0
M  V30 4305 H 410.331 -0.00795915 0.746958 0
M  V30 4306 H 412.993 0.685388 1.82451 0
M  V30 4307 H 412.089 -0.126849 3.11842 0
M  V30 4308 N 412.39 -1.55475 0.257931 0
M  V30 4309 C 413.322 -2.19192 -0.669881 0
M  V30 4310 C 414.335 -1.17148 -1.1305 0
M  V30 4311 O 415.524 -1.43959 -1.05537 0
M  V30 4312 C 412.624 -2.79016 -1.92363 0
M  V30 4313 C 411.797 -4.06586 -1.61265 0
M  V30 4314 C 410.856 -4.50622 -2.7171 0
M  V30 4315 O 409.882 -5.16765 -2.38627 0
M  V30 4316 N 411.084 -4.19325 -4.01431 0
M  V30 4317 H 413.849 -2.99441 -0.124635 0
M  V30 4318 H 411.41 -1.6171 0.0783311 0
M  V30 4319 H 413.402 -3.05427 -2.65511 0
M  V30 4320 H 411.972 -2.0286 -2.37837 0
M  V30 4321 H 411.192 -3.87646 -0.715811 0
M  V30 4322 H 412.48 -4.89737 -1.37967 0
M  V30 4323 H 411.878 -3.66247 -4.31138 0
M  V30 4324 H 410.435 -4.50547 -4.7101 0
M  V30 4325 N 413.868 0.0150385 -1.57593 0
M  V30 4326 C 414.831 0.995996 -2.06428 0
M  V30 4327 C 415.831 1.2818 -0.970903 0
M  V30 4328 O 417.021 1.22949 -1.23406 0
M  V30 4329 C 414.153 2.32506 -2.49307 0
M  V30 4330 H 415.346 0.573873 -2.94358 0
M  V30 4331 H 412.899 0.262186 -1.54085 0
M  V30 4332 H 413.634 2.79438 -1.64575 0
M  V30 4333 H 413.419 2.13087 -3.29145 0
M  V30 4334 H 414.909 3.02906 -2.87468 0
M  V30 4335 N 415.346 1.54954 0.287554 0
M  V30 4336 C 416.594 1.74528 1.01904 0
M  V30 4337 C 416.915 0.541349 1.87335 0
M  V30 4338 O 416.185 -0.444108 1.908 0
M  V30 4339 H 414.765 0.643576 0.379235 0
M  V30 4340 H 417.427 1.92333 0.315294 0
M  V30 4341 H 416.523 2.64015 1.6644 0
M  V30 4342 N 416.824 -0.551391 1.4764 0
M  V30 4343 C 418.101 -1.31229 1.45046 0
M  V30 4344 C 418.481 -2.10563 0.150527 0
M  V30 4345 O 417.829 -2.11374 -0.867956 0
M  V30 4346 C 418.039 -2.21189 2.69956 0
M  V30 4347 C 419.387 -2.82021 3.1741 0
M  V30 4348 O 420.411 -2.31488 2.70724 0
M  V30 4349 O 419.27 -3.73885 3.98588 0
M  V30 4350 H 416.364 -0.591193 0.578291 0
M  V30 4351 H 418.91 -0.569813 1.59847 0
M  V30 4352 H 417.682 -1.62207 3.56096 0
M  V30 4353 H 417.305 -3.02722 2.57769 0
M  V30 4354 N 418.302 -1.35869 -0.798587 0
M  V30 4355 C 419.55 -1.29332 -1.55298 0
M  V30 4356 C 419.871 0.129729 -1.94568 0
M  V30 4357 O 419.141 1.06796 -1.6423 0
M  V30 4358 H 417.721 -0.475737 -0.57592 0
M  V30 4359 H 420.383 -1.70062 -0.952093 0
M  V30 4360 H 419.479 -1.91458 -2.46476 0
M  V30 4361 N 419.78 1.02168 -1.19998 0
M  V30 4362 C 421.029 1.75091 -1.0013 0
M  V30 4363 C 421.342 1.89923 0.467835 0
M  V30 4364 O 422.548 2.59888 0.785515 0
M  V30 4365 C 421.004 3.14892 -1.74273 0
M  V30 4366 C 420.612 3.0809 -3.25245 0
M  V30 4367 C 422.356 3.9206 -1.62755 0
M  V30 4368 C 420.263 4.42867 -3.91948 0
M  V30 4369 H 419.193 0.656394 -0.37103 0
M  V30 4370 H 421.844 1.14284 -1.43567 0
M  V30 4371 H 420.226 3.7621 -1.2362 0
M  V30 4372 H 421.4 2.5611 -3.83072 0
M  V30 4373 H 419.715 2.44416 -3.3712 0
M  V30 4374 H 422.312 4.91764 -2.09934 0
M  V30 4375 H 422.655 4.12199 -0.582894 0
M  V30 4376 H 423.188 3.37359 -2.10793 0
M  V30 4377 H 419.927 4.27931 -4.96543 0
M  V30 4378 H 419.447 4.94874 -3.3891 0
M  V30 4379 H 421.126 5.11728 -3.95909 0
M  V30 4380 N 421.258 1.00505 1.21394 0
M  V30 4381 C 422.486 0.706609 1.9446 0
M  V30 4382 C 422.901 -0.73081 1.74082 0
M  V30 4383 O 422.258 -1.49446 1.04747 0
M  V30 4384 C 422.309 1.01824 3.46863 0
M  V30 4385 O 422.03 2.39919 3.66566 0
M  V30 4386 C 423.531 0.739216 4.37093 0
M  V30 4387 H 420.751 0.260394 0.618414 0
M  V30 4388 H 423.295 1.34311 1.54211 0
M  V30 4389 H 421.45 0.427343 3.85036 0
M  V30 4390 H 421.864 2.50784 4.6066 0
M  V30 4391 H 423.338 1.00744 5.42729 0
M  V30 4392 H 423.815 -0.326746 4.37983 0
M  V30 4393 H 424.421 1.31173 4.04566 0
M  V30 4394 N 422.737 -1.36956 0.779787 0
M  V30 4395 C 423.67 -2.27896 0.117681 0
M  V30 4396 C 424.648 -1.46736 -0.700523 0
M  V30 4397 O 425.832 -1.76055 -0.673568 0
M  V30 4398 C 422.959 -3.28136 -0.839296 0
M  V30 4399 C 422.005 -4.26373 -0.10409 0
M  V30 4400 S 422.838 -5.2157 1.21348 0
M  V30 4401 C 423.994 -6.25359 0.260249 0
M  V30 4402 H 424.227 -2.83704 0.888778 0
M  V30 4403 H 421.76 -1.43352 0.57355 0
M  V30 4404 H 423.718 -3.86394 -1.38601 0
M  V30 4405 H 422.379 -2.7126 -1.58356 0
M  V30 4406 H 421.572 -4.97121 -0.82986 0
M  V30 4407 H 421.174 -3.72147 0.371858 0
M  V30 4408 H 423.466 -6.75145 -0.564435 0
M  V30 4409 H 424.409 -7.01885 0.936135 0
M  V30 4410 H 424.817 -5.64345 -0.132127 0
M  V30 4411 N 424.215 -0.530993 -1.48385 0
M  V30 4412 C 425.147 0.268353 -2.27624 0
M  V30 4413 C 426.16 0.903525 -1.35426 0
M  V30 4414 O 427.349 0.781796 -1.60469 0
M  V30 4415 C 424.449 1.39535 -3.08842 0
M  V30 4416 C 423.622 0.861913 -4.28824 0
M  V30 4417 C 422.681 1.87016 -4.91845 0
M  V30 4418 O 421.707 1.4267 -5.5103 0
M  V30 4419 N 422.909 3.20238 -4.84178 0
M  V30 4420 H 425.674 -0.41123 -2.96865 0
M  V30 4421 H 423.235 -0.365387 -1.57723 0
M  V30 4422 H 425.227 2.06803 -3.47871 0
M  V30 4423 H 423.797 1.97859 -2.42014 0
M  V30 4424 H 423.017 0.0132126 -3.94198 0
M  V30 4425 H 424.305 0.484415 -5.06489 0
M  V30 4426 H 423.703 3.58932 -4.37246 0
M  V30 4427 H 422.26 3.83136 -5.27305 0
M  V30 4428 N 425.693 1.55336 -0.266172 0
M  V30 4429 C 426.941 1.99003 0.35246 0
M  V30 4430 C 427.262 1.15591 1.57047 0
M  V30 4431 O 426.532 0.243268 1.94384 0
M  V30 4432 H 425.112 0.735025 0.133217 0
M  V30 4433 H 427.774 1.91367 -0.369434 0
M  V30 4434 H 426.87 3.05289 0.648453 0
M  V30 4435 N 427.171 -0.0066808 1.57599 0
M  V30 4436 C 428.396 -0.707738 1.94951 0
M  V30 4437 C 428.821 -1.66882 0.867868 0
M  V30 4438 O 428.179 -1.80457 -0.17458 0
M  V30 4439 C 428.227 -1.42162 3.31394 0
M  V30 4440 O 427.331 -2.53578 3.25226 0
M  V30 4441 H 426.672 -0.188752 0.636607 0
M  V30 4442 H 429.202 0.0445193 2.04552 0
M  V30 4443 H 429.212 -1.78655 3.66806 0
M  V30 4444 H 427.887 -0.716903 4.09675 0
M  V30 4445 H 426.464 -2.19463 3.01481 0
M  V30 4446 N 428.649 -1.55105 -0.279332 0
M  V30 4447 C 429.581 -1.83952 -1.36727 0
M  V30 4448 C 430.594 -0.723642 -1.45833 0
M  V30 4449 O 431.783 -1.00141 -1.47763 0
M  V30 4450 C 428.883 -1.98183 -2.74912 0
M  V30 4451 C 428.056 -3.28787 -2.88475 0
M  V30 4452 C 427.115 -3.33162 -4.07295 0
M  V30 4453 O 426.141 -4.06576 -3.98353 0
M  V30 4454 N 427.343 -2.60109 -5.18964 0
M  V30 4455 H 430.108 -2.77853 -1.12328 0
M  V30 4456 H 427.669 -1.54945 -0.469442 0
M  V30 4457 H 429.661 -1.98488 -3.52682 0
M  V30 4458 H 428.231 -1.11177 -2.92162 0
M  V30 4459 H 427.451 -3.41075 -1.97641 0
M  V30 4460 H 428.739 -4.14933 -2.94463 0
M  V30 4461 H 428.137 -2.00136 -5.29115 0
M  V30 4462 H 426.694 -2.66143 -5.94988 0
M  V30 4463 N 430.127 0.543554 -1.4793 0
M  V30 4464 C 431.057 1.65888 -1.64327 0
M  V30 4465 C 432.038 1.62818 -0.492383 0
M  V30 4466 O 433.223 1.80226 -0.723338 0
M  V30 4467 C 430.353 3.04506 -1.67013 0
M  V30 4468 C 429.307 3.2243 -2.81466 0
M  V30 4469 C 428.633 4.61972 -2.69233 0
M  V30 4470 C 429.933 3.06496 -4.22915 0
M  V30 4471 H 431.627 1.52421 -2.57698 0
M  V30 4472 H 429.173 0.731849 -1.24016 0
M  V30 4473 H 431.126 3.82391 -1.77074 0
M  V30 4474 H 429.85 3.18964 -0.70212 0
M  V30 4475 H 428.509 2.46957 -2.70938 0
M  V30 4476 H 428.157 4.73247 -1.7043 0
M  V30 4477 H 427.857 4.74911 -3.46025 0
M  V30 4478 H 429.381 5.41974 -2.81242 0
M  V30 4479 H 430.795 3.74186 -4.34348 0
M  V30 4480 H 429.192 3.30938 -5.006 0
M  V30 4481 H 430.262 2.03077 -4.40327 0
M  V30 4482 N 431.605 1.3629 0.791371 0
M  V30 4483 C 432.568 1.30309 1.88553 0
M  V30 4484 C 433.568 0.211204 1.59407 0
M  V30 4485 O 434.758 0.465865 1.67855 0
M  V30 4486 C 431.89 1.01956 3.25297 0
M  V30 4487 H 433.083 2.27614 1.95273 0
M  V30 4488 H 430.636 1.21035 0.988953 0
M  V30 4489 H 431.371 0.050998 3.2426 0
M  V30 4490 H 431.156 1.80968 3.4784 0
M  V30 4491 H 432.646 1.0037 4.05359 0
M  V30 4492 N 433.083 -1.0153 1.20538 0
M  V30 4493 C 434.015 -2.10224 0.913155 0
M  V30 4494 C 435.028 -1.62495 -0.0995998 0
M  V30 4495 O 436.217 -1.78014 0.131582 0
M  V30 4496 C 433.317 -3.37111 0.347717 0
M  V30 4497 C 432.49 -4.13971 1.41233 0
M  V30 4498 C 431.549 -5.19158 0.857976 0
M  V30 4499 O 430.575 -5.48 1.53897 0
M  V30 4500 N 431.777 -5.7955 -0.331966 0
M  V30 4501 H 434.542 -2.35879 1.84881 0
M  V30 4502 H 432.103 -1.17931 1.10923 0
M  V30 4503 H 434.095 -4.04683 -0.0373026 0
M  V30 4504 H 432.665 -3.08696 -0.492527 0
M  V30 4505 H 431.885 -3.41351 1.97163 0
M  V30 4506 H 433.173 -4.62103 2.12928 0
M  V30 4507 H 432.571 -5.58455 -0.902478 0
M  V30 4508 H 431.128 -6.48464 -0.65861 0
M  V30 4509 N 434.561 -1.01147 -1.20859 0
M  V30 4510 C 435.789 -0.716911 -1.94082 0
M  V30 4511 C 436.204 0.721568 -1.74467 0
M  V30 4512 O 435.561 1.48889 -1.05539 0
M  V30 4513 C 435.612 -1.03662 -3.46318 0
M  V30 4514 O 435.333 -2.4186 -3.65288 0
M  V30 4515 C 436.834 -0.762386 -4.36695 0
M  V30 4516 H 434.054 -0.26367 -0.617024 0
M  V30 4517 H 436.598 -1.35127 -1.53496 0
M  V30 4518 H 434.753 -0.447757 -3.84804 0
M  V30 4519 H 435.167 -2.53224 -4.59323 0
M  V30 4520 H 436.641 -1.03621 -5.42187 0
M  V30 4521 H 437.118 0.303514 -4.3815 0
M  V30 4522 H 437.724 -1.33316 -4.03865 0
M  V30 4523 N 436.039 1.36541 -0.78704 0
M  V30 4524 C 436.969 2.32659 -0.197992 0
M  V30 4525 C 437.95 1.56533 0.665697 0
M  V30 4526 O 439.135 1.84698 0.60001 0
M  V30 4527 C 436.265 3.40778 0.669901 0
M  V30 4528 C 435.219 4.27897 -0.0937039 0
M  V30 4529 C 434.545 5.27163 0.894629 0
M  V30 4530 C 435.845 5.06334 -1.28154 0
M  V30 4531 H 437.539 2.82171 -1.00099 0
M  V30 4532 H 435.085 1.35665 -0.482793 0
M  V30 4533 H 437.038 4.07008 1.09191 0
M  V30 4534 H 435.762 2.89827 1.50558 0
M  V30 4535 H 434.421 3.6322 -0.49666 0
M  V30 4536 H 434.069 4.72486 1.72527 0
M  V30 4537 H 433.769 5.86317 0.388149 0
M  V30 4538 H 435.293 5.96266 1.31525 0
M  V30 4539 H 436.707 5.65617 -0.93541 0
M  V30 4540 H 435.104 5.74888 -1.72115 0
M  V30 4541 H 436.174 4.38114 -2.07807 0
M  V30 4542 N 437.518 0.538854 1.48102 0
M  V30 4543 C 438.766 0.00798599 2.02098 0
M  V30 4544 C 439.087 -1.33922 1.41739 0
M  V30 4545 O 438.357 -1.86932 0.585934 0
M  V30 4546 H 436.937 -3.62179e-05 0.747 0
M  V30 4547 H 439.599 0.7047 1.81714 0
M  V30 4548 H 438.695 -0.0937672 3.11959 0
M  V30 4549 N 438.996 -1.55193 0.274407 0
M  V30 4550 C 439.926 -2.25471 -0.607032 0
M  V30 4551 C 440.907 -1.24461 -1.15946 0
M  V30 4552 O 442.092 -1.53179 -1.19373 0
M  V30 4553 C 439.222 -2.97526 -1.79153 0
M  V30 4554 C 438.176 -4.05459 -1.37067 0
M  V30 4555 C 437.502 -4.65084 -2.6382 0
M  V30 4556 C 438.802 -5.19691 -0.521389 0
M  V30 4557 H 440.496 -2.99393 -0.0209343 0
M  V30 4558 H 438.042 -1.43997 -0.00862866 0
M  V30 4559 H 439.995 -3.45402 -2.41404 0
M  V30 4560 H 438.719 -2.21138 -2.40344 0
M  V30 4561 H 437.378 -3.58393 -0.771355 0
M  V30 4562 H 437.026 -3.85365 -3.23268 0
M  V30 4563 H 436.726 -5.37961 -2.36372 0
M  V30 4564 H 438.25 -5.15708 -3.26921 0
M  V30 4565 H 439.664 -5.63623 -1.04889 0
M  V30 4566 H 438.061 -5.99126 -0.341825 0
M  V30 4567 H 439.131 -4.82713 0.46 0
M  V30 4568 N 440.474 -0.00167713 -1.576 0
M  V30 4569 C 441.72 0.683832 -1.90923 0
M  V30 4570 C 442.053 1.7333 -0.875799 0
M  V30 4571 O 441.328 1.94215 0.10525 0
M  V30 4572 C 441.611 1.32543 -3.3482 0
M  V30 4573 C 441.464 0.287387 -4.48881 0
M  V30 4574 C 442.783 2.25114 -3.78169 0
M  V30 4575 H 439.902 0.247125 -0.694333 0
M  V30 4576 H 442.544 -0.0533149 -1.89925 0
M  V30 4577 H 440.694 1.95372 -3.35801 0
M  V30 4578 H 442.366 -0.341346 -4.60035 0
M  V30 4579 H 440.609 -0.39017 -4.32042 0
M  V30 4580 H 441.28 0.775393 -5.46527 0
M  V30 4581 H 443.756 1.723 -3.7875 0
M  V30 4582 H 442.632 2.66971 -4.79602 0
M  V30 4583 H 442.893 3.13092 -3.12131 0
M  V30 4584 N 441.952 1.55251 0.271103 0
M  V30 4585 C 442.884 1.84675 1.35749 0
M  V30 4586 C 443.897 0.731366 1.45447 0
M  V30 4587 O 445.086 1.00924 1.4723 0
M  V30 4588 C 442.186 1.99638 2.73857 0
M  V30 4589 C 441.359 3.30312 2.86727 0
M  V30 4590 C 440.418 3.35318 4.05522 0
M  V30 4591 O 439.444 4.08682 3.96191 0
M  V30 4592 N 440.646 2.62857 5.17577 0
M  V30 4593 H 443.411 2.78445 1.10853 0
M  V30 4594 H 440.972 1.55191 0.461218 0
M  V30 4595 H 442.964 2.00355 3.51625 0
M  V30 4596 H 441.534 1.12725 2.91568 0
M  V30 4597 H 440.754 3.42118 1.95829 0
M  V30 4598 H 442.042 4.16488 2.92258 0
M  V30 4599 H 441.44 2.02939 5.28046 0
M  V30 4600 H 439.997 2.69295 5.93568 0
M  V30 4601 N 443.43 -0.535701 1.48216 0
M  V30 4602 C 444.678 -1.28928 1.55634 0
M  V30 4603 C 444.999 -1.93645 0.229514 0
M  V30 4604 O 444.269 -1.81038 -0.74846 0
M  V30 4605 H 442.849 -0.47884 0.573342 0
M  V30 4606 H 445.511 -0.623853 1.84646 0
M  V30 4607 H 444.607 -2.07157 2.33436 0
M  V30 4608 N 444.908 -1.36708 -0.784132 0
M  V30 4609 C 446.133 -1.34565 -1.5782 0
M  V30 4610 C 446.558 0.0695257 -1.87971 0
M  V30 4611 O 445.916 1.04302 -1.48293 0
M  V30 4612 C 445.964 -2.17952 -2.87279 0
M  V30 4613 O 445.068 -1.57563 -3.81114 0
M  V30 4614 H 444.409 -0.460337 -0.478524 0
M  V30 4615 H 446.939 -1.80064 -0.971495 0
M  V30 4616 H 446.949 -2.30721 -3.365 0
M  V30 4617 H 445.624 -3.20823 -2.64661 0
M  V30 4618 H 444.201 -1.53764 -3.39722 0
M  V30 4619 N 446.386 1.0089 -1.21074 0
M  V30 4620 C 447.802 1.2695 -0.967257 0
M  V30 4621 C 448.002 1.9846 0.348673 0
M  V30 4622 O 447.058 2.28459 1.0753 0
M  V30 4623 C 448.371 2.09697 -2.15517 0
M  V30 4624 C 449.919 2.22937 -2.197 0
M  V30 4625 C 450.394 3.09064 -3.37999 0
M  V30 4626 N 451.885 3.16653 -3.38061 0
M  V30 4627 C 452.62 3.8354 -4.26245 0
M  V30 4628 N 452.116 4.52488 -5.2462 0
M  V30 4629 N 453.909 3.80141 -4.14064 0
M  V30 4630 H 446.06 0.529005 -2.05707 0
M  V30 4631 H 448.323 0.296148 -0.900556 0
M  V30 4632 H 448.029 1.64497 -3.10859 0
M  V30 4633 H 447.903 3.10444 -2.14253 0
M  V30 4634 H 450.29 2.67357 -1.24916 0
M  V30 4635 H 450.371 1.21673 -2.2501 0
M  V30 4636 H 450.015 2.65347 -4.33074 0
M  V30 4637 H 449.945 4.10433 -3.29928 0
M  V30 4638 H 452.436 2.67566 -2.66865 0
M  V30 4639 H 452.749 5.01219 -5.88217 0
M  V30 4640 H 451.094 4.51288 -5.28549 0
M  V30 4641 H 454.285 3.25427 -3.36474 0
M  V30 4642 H 454.458 4.31992 -4.82998 0
M  V30 4643 N 447.864 1.01787 1.20321 0
M  V30 4644 C 448.794 0.609625 2.25401 0
M  V30 4645 C 449.775 -0.375951 1.65893 0
M  V30 4646 O 450.96 -0.261101 1.92437 0
M  V30 4647 C 448.09 -0.0515995 3.47262 0
M  V30 4648 C 447.044 0.855095 4.19371 0
M  V30 4649 C 446.37 0.0595757 5.34667 0
M  V30 4650 C 447.67 2.16374 4.75373 0
M  V30 4651 H 449.364 1.48803 2.59804 0
M  V30 4652 H 446.91 0.716934 1.24884 0
M  V30 4653 H 448.863 -0.348764 4.19954 0
M  V30 4654 H 447.587 -0.964726 3.12027 0
M  V30 4655 H 446.246 1.13628 3.48546 0
M  V30 4656 H 445.894 -0.85524 4.95676 0
M  V30 4657 H 445.594 0.663406 5.83843 0
M  V30 4658 H 447.118 -0.231105 6.10162 0
M  V30 4659 H 448.532 1.92885 5.39878 0
M  V30 4660 H 446.929 2.71853 5.34991 0
M  V30 4661 H 447.999 2.82589 3.94045 0
M  V30 4662 N 449.342 -1.36122 0.79427 0
M  V30 4663 C 450.29 -2.31871 0.184023 0
M  V30 4664 C 451.284 -1.56041 -0.659365 0
M  V30 4665 O 452.49 -1.71266 -0.553906 0
M  V30 4666 H 448.865 -0.750896 0.0407373 0
M  V30 4667 H 450.836 -2.80898 1.00693 0
M  V30 4668 C 449.585 -3.41324 -0.662813 0
M  V30 4669 H 448.908 -3.99793 -0.0231944 0
M  V30 4670 H 450.348 -4.10629 -1.05639 0
M  V30 4671 C 448.807 -2.83308 -1.82313 0
M  V30 4672 O 449.337 -2.75863 -2.91997 0
M  V30 4673 N 447.543 -2.40529 -1.63077 0
M  V30 4674 H 447.09 -2.46785 -0.738591 0
M  V30 4675 H 447.048 -2.02059 -2.40872 0
M  V30 4676 N 450.82 -0.546701 -1.47814 0
M  V30 4677 C 452.045 -0.021268 -2.07389 0
M  V30 4678 C 452.47 1.25822 -1.39822 0
M  V30 4679 O 451.828 1.75111 -0.46968 0
M  V30 4680 C 451.876 0.168502 -3.60206 0
M  V30 4681 O 450.98 1.23347 -3.93522 0
M  V30 4682 H 450.321 -0.0466108 -0.662362 0
M  V30 4683 H 452.851 -0.759387 -1.89985 0
M  V30 4684 H 452.861 0.385982 -4.0617 0
M  V30 4685 H 451.536 -0.766075 -4.08784 0
M  V30 4686 H 450.113 0.997319 -3.59316 0
M  V30 4687 N 452.299 1.55045 -0.282633 0
M  V30 4688 C 453.231 2.2023 0.634924 0
M  V30 4689 C 454.244 1.18931 1.11172 0
M  V30 4690 O 455.433 1.4562 1.03233 0
M  V30 4691 C 452.533 2.82041 1.87899 0
M  V30 4692 C 451.706 4.091 1.54776 0
M  V30 4693 C 450.765 4.54887 2.64507 0
M  V30 4694 O 449.791 5.20496 2.30375 0
M  V30 4695 N 450.993 4.25659 3.94709 0
M  V30 4696 H 453.758 2.99601 0.0769811 0
M  V30 4697 H 451.319 1.61565 -0.104048 0
M  V30 4698 H 453.311 3.09613 2.60619 0
M  V30 4699 H 451.881 2.06618 2.3458 0
M  V30 4700 H 451.101 3.88736 0.654049 0
M  V30 4701 H 452.389 4.9187 1.30158 0
M  V30 4702 H 451.787 3.7306 4.25256 0
M  V30 4703 H 450.344 4.57984 4.63782 0
M  V30 4704 N 453.777 0.010035 1.57597 0
M  V30 4705 C 455.188 -0.531426 1.78977 0
M  V30 4706 C 455.539 -1.73375 0.918454 0
M  V30 4707 O 454.664 -2.16047 0.123635 0
M  V30 4708 C 455.259 -0.97086 3.24592 0
M  V30 4709 C 453.818 -1.45756 3.47033 0
M  V30 4710 C 452.965 -0.413384 2.74201 0
M  V30 4711 H 455.916 0.236166 1.56933 0
M  V30 4712 H 455.937 -1.83633 3.33255 0
M  V30 4713 H 455.449 -0.0955893 3.87982 0
M  V30 4714 H 453.55 -2.35339 2.88871 0
M  V30 4715 H 453.663 -1.4781 4.55729 0
M  V30 4716 H 452.027 -0.877266 2.39115 0
M  V30 4717 H 452.81 0.453092 3.40297 0
M  V30 4718 N 455.255 -1.55392 -0.262866 0
M  V30 4719 C 456.218 -1.88181 -1.30846 0
M  V30 4720 C 457.218 -0.757079 -1.41862 0
M  V30 4721 O 458.408 -1.02519 -1.40838 0
M  V30 4722 C 455.54 -2.09609 -2.68844 0
M  V30 4723 H 456.733 -2.81659 -1.02997 0
M  V30 4724 H 454.286 -1.48039 -0.501414 0
M  V30 4725 H 455.021 -1.18547 -3.01856 0
M  V30 4726 H 454.806 -2.91508 -2.62231 0
M  V30 4727 H 456.296 -2.36215 -3.44372 0
M  V30 4728 N 456.733 0.527833 -1.48498 0
M  V30 4729 C 457.973 1.29401 -1.58224 0
M  V30 4730 C 458.337 1.90348 -0.251327 0
M  V30 4731 O 459.538 2.67868 -0.223588 0
M  V30 4732 C 457.809 2.35266 -2.69044 0
M  V30 4733 S 459.368 3.2158 -2.98549 0
M  V30 4734 H 456.186 0.440138 -0.558391 0
M  V30 4735 H 458.788 0.601079 -1.8603 0
M  V30 4736 H 457.492 1.88975 -3.64303 0
M  V30 4737 H 457.023 3.09263 -2.43146 0
M  V30 4738 H 459.038 4.35391 -2.38011 0
M  V30 4739 N 458.211 1.37122 0.776871 0
M  V30 4740 C 459.439 1.3523 1.5659 0
M  V30 4741 C 459.854 -0.0635518 1.88693 0
M  V30 4742 O 459.211 -1.02394 1.51069 0
M  V30 4743 C 459.262 2.18583 2.8793 0
M  V30 4744 O 458.983 3.5465 2.57206 0
M  V30 4745 C 460.484 2.24612 3.82183 0
M  V30 4746 H 457.704 0.4634 0.485285 0
M  V30 4747 H 460.248 1.80392 0.963266 0
M  V30 4748 H 458.403 1.76943 3.4463 0
M  V30 4749 H 458.817 3.98286 3.41275 0
M  V30 4750 H 460.291 2.87267 4.71361 0
M  V30 4751 H 460.768 1.25309 4.20944 0
M  V30 4752 H 461.374 2.66543 3.31414 0
M  V30 4753 N 459.689 -1.00246 1.21608 0
M  V30 4754 C 460.652 -2.07233 0.979133 0
M  V30 4755 C 461.652 -1.6072 -0.0508219 0
M  V30 4756 O 462.842 -1.73196 0.186712 0
M  V30 4757 C 459.974 -3.37546 0.477016 0
M  V30 4758 H 461.167 -2.29687 1.92831 0
M  V30 4759 H 458.72 -1.17261 1.03342 0
M  V30 4760 H 459.455 -3.20773 -0.476966 0
M  V30 4761 H 459.24 -3.72638 1.21997 0
M  V30 4762 H 460.73 -4.16285 0.331181 0
M  V30 4763 N 461.167 -1.02423 -1.1978 0
M  V30 4764 C 462.583 -0.740459 -1.41384 0
M  V30 4765 C 462.783 0.676827 -1.89793 0
M  V30 4766 O 461.839 1.4435 -2.0717 0
M  V30 4767 C 463.152 -1.77264 -2.42895 0
M  V30 4768 C 464.7 -1.79165 -2.56649 0
M  V30 4769 C 465.175 -2.8133 -3.6141 0
M  V30 4770 N 466.666 -2.80118 -3.68901 0
M  V30 4771 C 467.401 -3.55824 -4.49641 0
M  V30 4772 N 466.897 -4.41231 -5.34123 0
M  V30 4773 N 468.69 -3.44387 -4.44246 0
M  V30 4774 H 460.841 -1.9391 -0.866764 0
M  V30 4775 H 463.104 -0.838074 -0.443098 0
M  V30 4776 H 462.81 -2.7884 -2.14339 0
M  V30 4777 H 462.684 -1.59108 -3.42001 0
M  V30 4778 H 465.071 -0.782702 -2.84531 0
M  V30 4779 H 465.152 -2.01396 -1.57713 0
M  V30 4780 H 464.796 -3.82394 -3.34271 0
M  V30 4781 H 464.726 -2.56359 -4.59986 0
M  V30 4782 H 467.217 -2.1817 -3.08562 0
M  V30 4783 H 467.53 -4.95747 -5.92836 0
M  V30 4784 H 465.875 -4.45306 -5.33599 0
M  V30 4785 H 469.066 -2.7708 -3.77285 0
M  V30 4786 H 469.239 -4.0364 -5.06931 0
M  V30 4787 N 462.645 1.35699 -0.801477 0
M  V30 4788 C 464.061 1.52065 -0.484596 0
M  V30 4789 C 464.261 1.75215 0.995084 0
M  V30 4790 O 463.317 1.79061 1.78026 0
M  V30 4791 C 464.63 2.69908 -1.32552 0
M  V30 4792 C 466.178 2.83784 -1.32044 0
M  V30 4793 C 466.653 4.04646 -2.14536 0
M  V30 4794 N 468.144 4.11814 -2.12046 0
M  V30 4795 C 468.879 5.04437 -2.72636 0
M  V30 4796 N 468.375 6.02426 -3.42133 0
M  V30 4797 N 470.168 4.97144 -2.62305 0
M  V30 4798 H 462.319 1.18928 -1.75983 0
M  V30 4799 H 464.582 0.581455 -0.748741 0
M  V30 4800 H 464.288 2.59363 -2.37537 0
M  V30 4801 H 464.162 3.64376 -0.975181 0
M  V30 4802 H 466.549 2.93783 -0.27846 0
M  V30 4803 H 466.63 1.90188 -1.71062 0
M  V30 4804 H 466.274 3.95407 -3.18772 0
M  V30 4805 H 466.204 4.97413 -1.72882 0
M  V30 4806 H 468.695 3.41664 -1.61476 0
M  V30 4807 H 469.008 6.69688 -3.85666 0
M  V30 4808 H 467.353 6.02615 -3.46237 0
M  V30 4809 H 470.544 4.19546 -2.07603 0
M  V30 4810 H 470.717 5.69138 -3.09815 0
M  V30 4811 N 464.123 0.554532 1.47522 0
M  V30 4812 C 465.539 0.214107 1.58157 0
M  V30 4813 C 465.739 -1.28331 1.55349 0
M  V30 4814 O 464.795 -2.06329 1.45549 0
M  V30 4815 C 466.108 0.838391 2.88776 0
M  V30 4816 C 467.656 0.809374 3.02354 0
M  V30 4817 C 468.131 1.41268 4.35669 0
M  V30 4818 N 469.622 1.37574 4.42298 0
M  V30 4819 C 470.357 1.8122 5.4401 0
M  V30 4820 N 469.853 2.3271 6.52547 0
M  V30 4821 N 471.646 1.72307 5.35039 0
M  V30 4822 H 463.797 1.52744 1.4759 0
M  V30 4823 H 466.06 0.636812 0.702264 0
M  V30 4824 H 465.766 1.89065 2.96559 0
M  V30 4825 H 465.64 0.329847 3.75755 0
M  V30 4826 H 468.027 -0.234187 2.94169 0
M  V30 4827 H 468.108 1.35565 2.16924 0
M  V30 4828 H 467.752 2.45529 4.4461 0
M  V30 4829 H 467.682 0.841871 5.19827 0
M  V30 4830 H 470.173 0.999081 3.64454 0
M  V30 4831 H 470.486 2.63944 7.26329 0
M  V30 4832 H 468.831 2.36719 6.53444 0
M  V30 4833 H 472.022 1.3186 4.49144 0
M  V30 4834 H 472.195 2.06641 6.14169 0
M  V30 4835 N 465.601 -1.54893 0.290851 0
M  V30 4836 C 466.829 -2.04343 -0.324288 0
M  V30 4837 C 467.244 -1.16859 -1.48289 0
M  V30 4838 O 466.601 -0.192018 -1.81487 0
M  V30 4839 C 466.652 -3.52756 -0.79026 0
M  V30 4840 O 466.373 -4.36913 0.322213 0
M  V30 4841 C 467.874 -4.18161 -1.4716 0
M  V30 4842 H 465.094 -0.667135 -0.0719173 0
M  V30 4843 H 467.638 -1.99981 0.427529 0
M  V30 4844 H 465.793 -3.57511 -1.49213 0
M  V30 4845 H 466.207 -5.24486 -0.0387372 0
M  V30 4846 H 467.681 -5.23562 -1.7489 0
M  V30 4847 H 468.158 -3.67282 -2.40834 0
M  V30 4848 H 468.764 -4.17454 -0.813178 0
M  V30 4849 N 467.08 -0.0183926 -1.57589 0
M  V30 4850 C 468.496 0.337897 -1.55982 0
M  V30 4851 C 468.696 1.73604 -1.02294 0
M  V30 4852 O 467.752 2.43589 -0.664895 0
M  V30 4853 C 469.065 0.196305 -3.00059 0
M  V30 4854 C 470.613 0.269875 -3.11834 0
M  V30 4855 C 471.088 0.157197 -4.5773 0
M  V30 4856 N 472.579 0.214521 -4.62703 0
M  V30 4857 C 473.314 0.150955 -5.73201 0
M  V30 4858 N 472.81 0.0369212 -6.9279 0
M  V30 4859 N 474.603 0.204162 -5.61729 0
M  V30 4860 H 466.754 -0.93279 -1.90821 0
M  V30 4861 H 469.017 -0.359253 -0.877292 0
M  V30 4862 H 468.723 -0.766383 -3.43248 0
M  V30 4863 H 468.597 0.970908 -3.6449 0
M  V30 4864 H 470.984 1.22302 -2.68563 0
M  V30 4865 H 471.065 -0.534918 -2.50144 0
M  V30 4866 H 470.709 -0.792479 -5.01679 0
M  V30 4867 H 470.639 0.980717 -5.17387 0
M  V30 4868 H 473.13 0.303238 -3.76681 0
M  V30 4869 H 473.443 -0.00518321 -7.728 0
M  V30 4870 H 471.788 0.0022886 -6.95 0
M  V30 4871 H 474.979 0.291575 -4.67191 0
M  V30 4872 H 475.152 0.15116 -6.47824 0
M  V30 4873 N 468.558 1.5553 0.254621 0
M  V30 4874 C 469.804 1.77262 0.985193 0
M  V30 4875 C 470.137 0.582286 1.85265 0
M  V30 4876 O 469.412 -0.419666 1.89919 0
M  V30 4877 C 469.695 3.0881 1.85225 0
M  V30 4878 C 469.548 4.38233 1.0135 0
M  V30 4879 C 470.867 3.3653 2.83612 0
M  V30 4880 H 467.986 0.644906 0.356742 0
M  V30 4881 H 470.628 1.88264 0.256236 0
M  V30 4882 H 468.778 2.99562 2.47376 0
M  V30 4883 H 470.45 4.59463 0.411269 0
M  V30 4884 H 468.693 4.32636 0.317574 0
M  V30 4885 H 469.364 5.26644 1.65379 0
M  V30 4886 H 471.84 3.45691 2.31596 0
M  V30 4887 H 470.716 4.29805 3.41407 0
M  V30 4888 H 470.977 2.57064 3.59681 0
M  V30 4889 N 470.036 -0.519951 1.48776 0
M  V30 4890 C 470.966 -1.63253 1.66945 0
M  V30 4891 C 471.947 -1.62014 0.518224 0
M  V30 4892 O 473.132 -1.79053 0.751919 0
M  V30 4893 C 470.262 -3.0181 1.71836 0
M  V30 4894 C 469.216 -3.17911 2.8656 0
M  V30 4895 C 468.542 -4.5763 2.76548 0
M  V30 4896 C 469.842 -2.99729 4.27738 0
M  V30 4897 H 471.536 -1.48302 2.6009 0
M  V30 4898 H 469.082 -0.712026 1.25165 0
M  V30 4899 H 471.035 -3.79525 1.83135 0
M  V30 4900 H 469.759 -3.17806 0.752775 0
M  V30 4901 H 468.418 -2.42616 2.74833 0
M  V30 4902 H 468.066 -4.70476 1.77937 0
M  V30 4903 H 467.766 -4.69346 3.53536 0
M  V30 4904 H 469.29 -5.37431 2.89828 0
M  V30 4905 H 470.704 -3.67228 4.40246 0
M  V30 4906 H 469.101 -3.22932 5.05801 0
M  V30 4907 H 470.171 -1.96047 4.43502 0
M  V30 4908 N 471.514 -1.37532 -0.769588 0
M  V30 4909 C 472.763 -1.32183 -1.5235 0
M  V30 4910 C 473.076 0.0906555 -1.9539 0
M  V30 4911 O 474.282 0.266628 -2.70188 0
M  V30 4912 C 472.738 -2.32029 -2.75119 0
M  V30 4913 C 472.346 -3.78816 -2.3917 0
M  V30 4914 C 474.09 -2.35694 -3.53056 0
M  V30 4915 C 471.997 -4.70388 -3.58453 0
M  V30 4916 H 470.927 -0.491275 -0.571984 0
M  V30 4917 H 473.578 -1.63004 -0.842739 0
M  V30 4918 H 471.96 -1.94229 -3.45096 0
M  V30 4919 H 473.134 -4.25466 -1.76962 0
M  V30 4920 H 471.449 -3.78117 -1.74402 0
M  V30 4921 H 474.046 -3.01312 -4.41718 0
M  V30 4922 H 474.389 -1.37117 -3.93071 0
M  V30 4923 H 474.922 -2.72212 -2.90078 0
M  V30 4924 H 471.661 -5.70102 -3.23518 0
M  V30 4925 H 471.181 -4.28442 -4.19758 0
M  V30 4926 H 472.86 -4.87628 -4.25239 0
M  V30 4927 N 472.992 0.995999 -1.22138 0
M  V30 4928 C 473.922 2.10387 -1.01289 0
M  V30 4929 C 474.903 1.69975 0.0651454 0
M  V30 4930 O 476.088 1.9396 -0.0964628 0
M  V30 4931 C 473.218 3.42312 -0.586517 0
M  V30 4932 C 472.172 3.96558 -1.61014 0
M  V30 4933 C 471.498 5.24494 -1.0397 0
M  V30 4934 C 472.798 4.27595 -2.99933 0
M  V30 4935 H 474.492 2.28086 -1.93951 0
M  V30 4936 H 472.038 1.09607 -0.933928 0
M  V30 4937 H 473.991 4.19223 -0.427793 0
M  V30 4938 H 472.715 3.24431 0.375761 0
M  V30 4939 H 471.374 3.21776 -1.75658 0
M  V30 4940 H 471.022 5.02953 -0.0688703 0
M  V30 4941 H 470.722 5.61755 -1.72352 0
M  V30 4942 H 472.246 6.04042 -0.892494 0
M  V30 4943 H 473.66 4.95315 -2.8868 0
M  V30 4944 H 472.057 4.76021 -3.6541 0
M  V30 4945 H 473.127 3.35498 -3.50099 0
M  V30 4946 N 474.47 1.03057 1.19235 0
M  V30 4947 C 475.718 0.726581 1.88587 0
M  V30 4948 C 476.039 -0.747227 1.80115 0
M  V30 4949 O 475.309 -1.53849 1.21274 0
M  V30 4950 H 473.889 0.265768 0.698124 0
M  V30 4951 H 476.551 1.30516 1.44746 0
M  V30 4952 H 475.647 1.0224 2.94879 0
M  V30 4953 N 475.948 -1.35272 0.808662 0
M  V30 4954 C 477.194 -1.99003 0.390581 0
M  V30 4955 C 477.527 -1.63999 -1.0401 0
M  V30 4956 O 476.802 -0.904368 -1.72196 0
M  V30 4957 C 477.085 -3.55454 0.576566 0
M  V30 4958 C 476.938 -4.00249 2.05233 0
M  V30 4959 C 478.257 -4.401 0.00354277 0
M  V30 4960 H 475.376 -0.722917 0.143388 0
M  V30 4961 H 478.018 -1.6039 1.01858 0
M  V30 4962 H 476.168 -3.88477 0.0419766 0
M  V30 4963 H 477.84 -3.77626 2.64946 0
M  V30 4964 H 476.083 -3.51082 2.54801 0
M  V30 4965 H 476.754 -5.0911 2.13333 0
M  V30 4966 H 479.23 -4.13548 0.460117 0
M  V30 4967 H 478.106 -5.48656 0.163575 0
M  V30 4968 H 478.367 -4.28444 -1.09032 0
M  V30 4969 N 477.426 -0.562348 -1.47226 0
M  V30 4970 C 478.374 0.195476 -2.31777 0
M  V30 4971 C 479.368 0.90433 -1.43242 0
M  V30 4972 O 480.574 0.825031 -1.59979 0
M  V30 4973 H 476.949 0.0819095 -0.747526 0
M  V30 4974 H 478.92 -0.536753 -2.93533 0
M  V30 4975 C 477.669 1.20902 -3.26003 0
M  V30 4976 H 476.992 0.672997 -3.94095 0
M  V30 4977 H 478.432 1.71006 -3.87986 0
M  V30 4978 C 476.891 2.25955 -2.49891 0
M  V30 4979 O 477.421 3.32969 -2.2471 0
M  V30 4980 N 475.627 2.00019 -2.1081 0
M  V30 4981 H 475.174 1.13006 -2.31489 0
M  V30 4982 H 475.132 2.70523 -1.60201 0
M  V30 4983 N 478.904 1.54736 -0.299062 0
M  V30 4984 C 480.152 1.99706 0.31017 0
M  V30 4985 C 480.473 1.18896 1.54559 0
M  V30 4986 O 479.743 0.284445 1.93824 0
M  V30 4987 H 478.323 0.737686 0.117596 0
M  V30 4988 H 480.985 1.9054 -0.409943 0
M  V30 4989 H 480.081 3.06596 0.58355 0
M  V30 4990 N 480.382 0.0267497 1.57577 0
M  V30 4991 C 481.629 -0.652404 1.91703 0
M  V30 4992 C 481.957 -1.72271 0.902936 0
M  V30 4993 O 481.212 -1.955 -0.0884843 0
M  V30 4994 C 481.511 -1.30914 3.3256 0
M  V30 4995 C 481.177 -0.369441 4.49384 0
M  V30 4996 C 479.839 -0.110791 4.81072 0
M  V30 4997 C 482.191 0.275971 5.20469 0
M  V30 4998 C 479.519 0.801116 5.81205 0
M  V30 4999 C 481.871 1.17592 6.21575 0
M  V30 5000 C 480.535 1.44348 6.51705 0
M  V30 5001 H 479.805 -0.238732 0.70149 0
M  V30 5002 H 482.452 0.0880091 1.91298 0
M  V30 5003 H 480.757 -2.12425 3.29216 0
M  V30 5004 H 482.454 -1.84115 3.56234 0
M  V30 5005 H 479.044 -0.581211 4.24641 0
M  V30 5006 H 483.228 0.0892 4.9622 0
M  V30 5007 H 478.484 1.01614 6.02897 0
M  V30 5008 H 482.658 1.68223 6.75777 0
M  V30 5009 H 480.285 2.15176 7.29111 0
M  V30 5010 N 481.861 -1.55662 -0.24637 0
M  V30 5011 C 483.11 -1.7672 -0.972254 0
M  V30 5012 C 483.423 -0.59078 -1.86465 0
M  V30 5013 O 484.629 -0.684391 -2.62732 0
M  V30 5014 C 483.085 -3.12869 -1.7788 0
M  V30 5015 C 482.693 -4.38161 -0.933768 0
M  V30 5016 C 484.437 -3.43265 -2.49738 0
M  V30 5017 C 482.344 -5.6534 -1.73623 0
M  V30 5018 H 481.274 -0.658795 -0.366749 0
M  V30 5019 H 483.925 -1.82092 -0.226902 0
M  V30 5020 H 482.307 -3.01606 -2.56612 0
M  V30 5021 H 483.481 -4.60413 -0.188736 0
M  V30 5022 H 481.796 -4.15102 -0.328488 0
M  V30 5023 H 484.393 -4.35501 -3.10231 0
M  V30 5024 H 484.736 -2.64614 -3.2138 0
M  V30 5025 H 485.269 -3.55746 -1.78016 0
M  V30 5026 H 482.008 -6.46814 -1.06354 0
M  V30 5027 H 481.528 -5.47188 -2.45653 0
M  V30 5028 H 483.207 -6.04616 -2.30323 0
M  V30 5029 N 483.339 0.512053 -1.4905 0
M  V30 5030 C 484.587 1.26436 -1.57665 0
M  V30 5031 C 484.908 1.93255 -0.260293 0
M  V30 5032 O 484.178 1.82206 0.719564 0
M  V30 5033 H 482.758 0.469658 -0.580888 0
M  V30 5034 H 485.42 0.594398 -1.85615 0
M  V30 5035 H 484.516 2.03417 -2.36702 0
M  V30 5036 N 484.817 1.37938 0.762283 0
M  V30 5037 C 485.765 1.34569 1.89721 0
M  V30 5038 C 486.759 0.232929 1.67791 0
M  V30 5039 O 487.965 0.401485 1.75465 0
M  V30 5040 H 484.34 0.419594 0.624055 0
M  V30 5041 H 486.311 2.30357 1.8968 0
M  V30 5042 C 485.06 1.17898 3.27101 0
M  V30 5043 H 484.383 2.02781 3.44558 0
M  V30 5044 H 485.823 1.19593 4.06784 0
M  V30 5045 C 484.282 -0.114728 3.36705 0
M  V30 5046 O 484.812 -1.0949 3.8649 0
M  V30 5047 N 483.018 -0.16863 2.9011 0
M  V30 5048 H 482.565 0.62967 2.49786 0
M  V30 5049 H 482.523 -1.03383 2.96916 0
M  V30 5050 N 486.295 -0.989507 1.22664 0
M  V30 5051 C 487.245 -2.06478 0.967005 0
M  V30 5052 C 488.229 -1.60682 -0.0836374 0
M  V30 5053 O 489.421 -1.76541 0.127322 0
M  V30 5054 C 486.55 -3.38861 0.550313 0
M  V30 5055 C 485.636 -3.9128 1.63587 0
M  V30 5056 N 486.027 -4.16884 2.86429 0
M  V30 5057 C 484.325 -4.1972 1.50834 0
M  V30 5058 C 485.026 -4.5954 3.56648 0
M  V30 5059 N 484.002 -4.63434 2.84131 0
M  V30 5060 H 487.804 -2.24219 1.90008 0
M  V30 5061 H 485.318 -1.17153 1.12467 0
M  V30 5062 H 487.315 -4.15465 0.345612 0
M  V30 5063 H 485.975 -3.22518 -0.375822 0
M  V30 5064 H 486.986 -4.04976 3.22823 0
M  V30 5065 H 483.663 -4.1243 0.648643 0
M  V30 5066 H 485.053 -4.87944 4.61909 0
M  V30 5067 N 487.773 -1.03688 -1.18687 0
M  V30 5068 C 488.703 -0.645407 -2.24403 0
M  V30 5069 C 489.684 0.349511 -1.66471 0
M  V30 5070 O 490.869 0.230453 -1.92828 0
M  V30 5071 C 487.999 -0.00365337 -3.473 0
M  V30 5072 C 486.953 -0.921705 -4.17958 0
M  V30 5073 C 486.279 -0.144629 -5.34504 0
M  V30 5074 C 487.579 -2.23909 -4.71871 0
M  V30 5075 H 489.273 -1.52917 -2.57404 0
M  V30 5076 H 486.819 -0.736711 -1.23728 0
M  V30 5077 H 488.772 0.281908 -4.20456 0
M  V30 5078 H 487.496 0.914963 -3.13522 0
M  V30 5079 H 486.155 -1.19159 -3.46694 0
M  V30 5080 H 485.803 0.776274 -4.96974 0
M  V30 5081 H 485.503 -0.756206 -5.82714 0
M  V30 5082 H 487.027 0.134004 -6.10453 0
M  V30 5083 H 488.441 -2.0145 -5.36741 0
M  V30 5084 H 486.838 -2.8033 -5.30599 0
M  V30 5085 H 487.908 -2.88822 -3.895 0
M  V30 5086 N 489.251 1.34841 -0.815825 0
M  V30 5087 C 490.479 2.0273 -0.413294 0
M  V30 5088 C 490.894 1.61459 0.978599 0
M  V30 5089 O 490.251 0.816584 1.63212 0
M  V30 5090 C 490.302 3.58058 -0.497676 0
M  V30 5091 O 490.023 3.97832 -1.8347 0
M  V30 5092 C 491.524 4.4321 -0.0891339 0
M  V30 5093 H 488.744 0.649956 -0.166728 0
M  V30 5094 H 491.288 1.72267 -1.10201 0
M  V30 5095 H 489.443 3.87136 0.142886 0
M  V30 5096 H 489.857 4.92501 -1.80396 0
M  V30 5097 H 491.331 5.5164 -0.199274 0
M  V30 5098 H 491.808 4.28432 0.966571 0
M  V30 5099 H 492.414 4.19446 -0.703214 0
M  V30 5100 N 490.729 0.570148 1.46925 0
M  V30 5101 C 491.639 -0.173061 2.33961 0
M  V30 5102 C 492.655 -0.898825 1.48987 0
M  V30 5103 O 493.831 -0.864825 1.81887 0
M  V30 5104 C 490.896 -1.18177 3.25937 0
M  V30 5105 C 489.957 -0.462041 4.26806 0
M  V30 5106 C 489.19 -1.4227 5.14388 0
M  V30 5107 O 489.413 -2.65842 5.04662 0
M  V30 5108 O 488.347 -0.940127 5.94513 0
M  V30 5109 H 492.173 0.541216 2.98839 0
M  V30 5110 H 489.758 0.330647 1.45695 0
M  V30 5111 H 491.64 -1.76372 3.82715 0
M  V30 5112 H 490.315 -1.87774 2.63671 0
M  V30 5113 H 489.222 0.161429 3.73752 0
M  V30 5114 H 490.555 0.192719 4.91823 0
M  V30 5115 N 492.207 -1.54576 0.307264 0
M  V30 5116 C 493.623 -1.59534 -0.0459251 0
M  V30 5117 C 493.823 -1.32414 -1.51884 0
M  V30 5118 O 492.879 -1.1006 -2.27251 0
M  V30 5119 C 494.192 -2.98566 0.357649 0
M  V30 5120 C 495.74 -3.11491 0.306937 0
M  V30 5121 C 496.215 -4.52842 0.685427 0
M  V30 5122 N 497.706 -4.58782 0.638203 0
M  V30 5123 C 498.441 -5.66238 0.903458 0
M  V30 5124 N 497.937 -6.81703 1.23501 0
M  V30 5125 N 499.73 -5.55937 0.830102 0
M  V30 5126 H 491.881 -1.70464 1.26712 0
M  V30 5127 H 494.144 -0.79647 0.514139 0
M  V30 5128 H 493.85 -3.23356 1.38325 0
M  V30 5129 H 493.724 -3.76117 -0.285565 0
M  V30 5130 H 496.111 -2.86446 -0.709424 0
M  V30 5131 H 496.192 -2.36081 0.984861 0
M  V30 5132 H 495.836 -4.78618 1.69963 0
M  V30 5133 H 495.766 -5.26598 -0.0146346 0
M  V30 5134 H 498.257 -3.75849 0.393138 0
M  V30 5135 H 498.57 -7.59582 1.42322 0
M  V30 5136 H 496.915 -6.8324 1.27311 0
M  V30 5137 H 500.106 -4.64608 0.570693 0
M  V30 5138 H 500.279 -6.39597 1.04019 0
M  V30 5139 N 493.685 -0.035106 -1.57561 0
M  V30 5140 C 494.615 0.942993 -2.13612 0
M  V30 5141 C 495.596 1.33531 -1.05373 0
M  V30 5142 O 496.781 1.41287 -1.33235 0
M  V30 5143 C 493.911 2.22332 -2.66807 0
M  V30 5144 C 492.865 1.97156 -3.79886 0
M  V30 5145 C 492.191 3.31506 -4.19533 0
M  V30 5146 C 493.491 1.30596 -5.05709 0
M  V30 5147 H 495.185 0.476179 -2.95589 0
M  V30 5148 H 492.731 0.227602 -1.4219 0
M  V30 5149 H 494.684 2.91142 -3.04654 0
M  V30 5150 H 493.408 2.7119 -1.81999 0
M  V30 5151 H 492.067 1.30763 -3.42486 0
M  V30 5152 H 491.715 3.78134 -3.31698 0
M  V30 5153 H 491.415 3.15465 -4.95738 0
M  V30 5154 H 492.939 4.01574 -4.59968 0
M  V30 5155 H 494.353 1.89416 -5.41105 0
M  V30 5156 H 492.75 1.24934 -5.86951 0
M  V30 5157 H 493.82 0.279742 -4.84092 0
M  V30 5158 N 495.163 1.55791 0.238111 0
M  V30 5159 C 496.093 1.94068 1.29846 0
M  V30 5160 C 497.074 0.806726 1.49753 0
M  V30 5161 O 498.259 1.06772 1.62214 0
M  V30 5162 C 495.389 2.24302 2.65153 0
M  V30 5163 C 494.343 3.40032 2.59927 0
M  V30 5164 C 493.669 3.55829 3.99111 0
M  V30 5165 C 494.969 4.75476 2.16148 0
M  V30 5166 H 496.663 2.82887 0.980563 0
M  V30 5167 H 494.209 1.36105 0.470253 0
M  V30 5168 H 496.162 2.4967 3.39475 0
M  V30 5169 H 494.886 1.32318 2.98596 0
M  V30 5170 H 493.545 3.14687 1.88063 0
M  V30 5171 H 493.193 2.6125 4.29834 0
M  V30 5172 H 492.893 4.3366 3.96501 0
M  V30 5173 H 494.417 3.83528 4.7512 0
M  V30 5174 H 495.831 5.00158 2.80205 0
M  V30 5175 H 494.228 5.56472 2.24631 0
M  V30 5176 H 495.298 4.71946 1.11333 0
M  V30 5177 N 496.642 -0.504142 1.49319 0
M  V30 5178 C 498.058 -0.835039 1.36012 0
M  V30 5179 C 498.258 -1.97674 0.390808 0
M  V30 5180 O 497.314 -2.51867 -0.178655 0
M  V30 5181 C 498.627 -1.17821 2.76656 0
M  V30 5182 C 500.175 -1.2866 2.85334 0
M  V30 5183 C 500.65 -1.66307 4.26739 0
M  V30 5184 N 502.141 -1.73362 4.29534 0
M  V30 5185 C 502.876 -2.0393 5.35911 0
M  V30 5186 N 502.372 -2.32744 6.52535 0
M  V30 5187 N 504.165 -2.05155 5.23324 0
M  V30 5188 H 496.316 0.248764 2.10938 0
M  V30 5189 H 498.579 0.0486962 0.946748 0
M  V30 5190 H 498.285 -0.412682 3.4927 0
M  V30 5191 H 498.159 -2.12239 3.11825 0
M  V30 5192 H 500.546 -2.04285 2.1296 0
M  V30 5193 H 500.627 -0.323004 2.53752 0
M  V30 5194 H 500.271 -0.91234 4.99639 0
M  V30 5195 H 500.201 -2.63761 4.55782 0
M  V30 5196 H 502.692 -1.53268 3.45424 0
M  V30 5197 H 503.005 -2.55248 7.2943 0
M  V30 5198 H 501.35 -2.30207 6.55767 0
M  V30 5199 H 504.541 -1.82119 4.3122 0
M  V30 5200 H 504.714 -2.28644 6.06322 0
M  V30 5201 N 498.12 -1.38341 -0.754957 0
M  V30 5202 C 499.03 -1.3769 -1.89944 0
M  V30 5203 C 500.046 -0.274194 -1.71826 0
M  V30 5204 O 501.222 -0.512391 -1.94773 0
M  V30 5205 C 498.287 -1.19938 -3.25293 0
M  V30 5206 C 497.348 -2.40001 -3.55946 0
M  V30 5207 C 496.581 -2.23087 -4.84838 0
M  V30 5208 O 496.804 -1.22386 -5.57116 0
M  V30 5209 O 495.738 -3.11646 -5.14937 0
M  V30 5210 H 499.564 -2.3412 -1.93446 0
M  V30 5211 H 497.149 -1.19246 -0.900044 0
M  V30 5212 H 499.031 -1.12093 -4.06218 0
M  V30 5213 H 497.706 -0.265919 -3.22606 0
M  V30 5214 H 496.613 -2.53421 -2.75188 0
M  V30 5215 H 497.946 -3.31973 -3.63394 0
M  V30 5216 N 499.598 0.982988 -1.23187 0
M  V30 5217 C 500.875 1.69814 -0.970707 0
M  V30 5218 C 501.255 2.04811 0.511424 0
M  V30 5219 O 500.603 1.73924 1.48198 0
M  V30 5220 C 500.813 2.94143 -1.87831 0
M  V30 5221 C 502.161 3.66712 -2.14026 0
M  V30 5222 O 503.185 3.04171 -1.8536 0
M  V30 5223 O 502.044 4.79258 -2.62629 0
M  V30 5224 H 499.138 0.741659 -0.365884 0
M  V30 5225 H 501.684 1.03844 -1.34218 0
M  V30 5226 H 500.456 2.64858 -2.88038 0
M  V30 5227 H 500.079 3.6785 -1.50905 0
M  V30 5228 N 501.076 1.04316 1.18135 0
M  V30 5229 C 502.026 0.606731 2.19779 0
M  V30 5230 C 503.01 -0.352144 1.56999 0
M  V30 5231 O 504.202 -0.170795 1.76174 0
M  V30 5232 C 501.331 -0.0262443 3.4329 0
M  V30 5233 C 500.417 0.955928 4.13186 0
M  V30 5234 N 500.808 2.12395 4.59045 0
M  V30 5235 C 499.106 0.782473 4.39082 0
M  V30 5236 C 499.807 2.74458 5.12882 0
M  V30 5237 N 498.783 2.02316 5.04548 0
M  V30 5238 H 502.585 1.49679 2.5293 0
M  V30 5239 H 500.099 0.912088 1.34368 0
M  V30 5240 H 502.096 -0.356617 4.15372 0
M  V30 5241 H 500.756 -0.911811 3.11635 0
M  V30 5242 H 501.767 2.50272 4.53414 0
M  V30 5243 H 498.444 -0.0527906 4.17467 0
M  V30 5244 H 499.834 3.73459 5.5855 0
M  V30 5245 N 502.554 -1.34406 0.822964 0
M  V30 5246 C 503.784 -2.02214 0.423424 0
M  V30 5247 C 504.192 -1.62124 -0.975322 0
M  V30 5248 O 503.535 -0.822452 -1.6426 0
M  V30 5249 C 503.597 -3.56721 0.446107 0
M  V30 5250 C 503.261 -4.20136 1.79819 0
M  V30 5251 C 504.258 -4.4065 2.75904 0
M  V30 5252 C 501.943 -4.56906 2.08669 0
M  V30 5253 C 503.937 -4.9706 3.99012 0
M  V30 5254 C 501.624 -5.13026 3.32036 0
M  V30 5255 C 502.622 -5.33047 4.27024 0
M  V30 5256 O 502.31 -5.87979 5.48211 0
M  V30 5257 H 502.042 -0.654748 0.168169 0
M  V30 5258 H 504.596 -1.72659 1.11257 0
M  V30 5259 H 502.826 -3.85537 -0.299734 0
M  V30 5260 H 504.515 -4.05845 0.0666114 0
M  V30 5261 H 505.281 -4.12607 2.54912 0
M  V30 5262 H 501.16 -4.40626 1.35535 0
M  V30 5263 H 504.704 -5.12603 4.73164 0
M  V30 5264 H 500.601 -5.40498 3.52891 0
M  V30 5265 H 501.369 -6.06413 5.49732 0
M  V30 5266 N 504.032 -0.577932 -1.46621 0
M  V30 5267 C 504.942 0.160651 -2.34049 0
M  V30 5268 C 505.958 0.890911 -1.49462 0
M  V30 5269 O 507.134 0.855166 -1.82343 0
M  V30 5270 C 504.199 1.16447 -3.26559 0
M  V30 5271 C 503.26 0.4394 -4.27045 0
M  V30 5272 C 502.493 1.3954 -5.15135 0
M  V30 5273 O 502.716 2.63162 -5.06065 0
M  V30 5274 O 501.65 0.908585 -5.95003 0
M  V30 5275 H 505.476 -0.557057 -2.98547 0
M  V30 5276 H 503.061 -0.338369 -1.45518 0
M  V30 5277 H 504.943 1.7434 -3.83645 0
M  V30 5278 H 503.618 1.86373 -2.64663 0
M  V30 5279 H 502.525 -0.181247 -3.73661 0
M  V30 5280 H 503.858 -0.218799 -4.91713 0
M  V30 5281 N 505.51 1.54411 -0.315457 0
M  V30 5282 C 506.756 2.00716 0.289972 0
M  V30 5283 C 507.089 1.2034 1.5242 0
M  V30 5284 O 506.364 0.283579 1.92422 0
M  V30 5285 C 506.647 3.54507 0.632196 0
M  V30 5286 C 506.5 4.45615 -0.61218 0
M  V30 5287 C 507.819 4.15421 1.45305 0
M  V30 5288 H 504.938 0.729637 0.10392 0
M  V30 5289 H 507.58 1.8506 -0.430427 0
M  V30 5290 H 505.73 3.67979 1.24595 0
M  V30 5291 H 507.402 4.44026 -1.25053 0
M  V30 5292 H 505.645 4.15621 -1.24264 0
M  V30 5293 H 506.316 5.51022 -0.328379 0
M  V30 5294 H 508.792 4.05474 0.934331 0
M  V30 5295 H 507.668 5.23157 1.66127 0
M  V30 5296 H 507.929 3.68223 2.44671 0
M  V30 5297 N 506.988 0.0434614 1.5754 0
M  V30 5298 C 508.218 -0.640905 1.96408 0
M  V30 5299 C 508.626 -1.65365 0.919297 0
M  V30 5300 O 507.969 -1.83395 -0.105795 0
M  V30 5301 C 508.031 -1.39141 3.31482 0
M  V30 5302 C 507.695 -0.535375 4.53853 0
M  V30 5303 C 508.692 0.195335 5.19533 0
M  V30 5304 C 506.377 -0.468564 5.0011 0
M  V30 5305 C 508.371 0.981377 6.298 0
M  V30 5306 C 506.058 0.321171 6.10255 0
M  V30 5307 C 507.056 1.04484 6.74961 0
M  V30 5308 O 506.744 1.8216 7.8299 0
M  V30 5309 H 506.476 -0.180584 0.651433 0
M  V30 5310 H 509.03 0.103848 2.05137 0
M  V30 5311 H 507.26 -2.18162 3.19284 0
M  V30 5312 H 508.949 -1.96526 3.55151 0
M  V30 5313 H 509.715 0.15314 4.84758 0
M  V30 5314 H 505.594 -1.02142 4.49542 0
M  V30 5315 H 509.138 1.54674 6.80237 0
M  V30 5316 H 505.035 0.365032 6.44467 0
M  V30 5317 H 505.803 1.74289 7.99728 0
M  V30 5318 N 508.466 -1.55915 -0.229846 0
M  V30 5319 C 509.714 -1.7819 -0.953565 0
M  V30 5320 C 510.035 -0.610504 -1.85197 0
M  V30 5321 O 509.305 0.372988 -1.92316 0
M  V30 5322 H 507.885 -0.657208 -0.355087 0
M  V30 5323 H 510.547 -1.9337 -0.243693 0
M  V30 5324 H 509.643 -2.70011 -1.56527 0
M  V30 5325 N 509.944 0.496216 -1.49584 0
M  V30 5326 C 510.874 1.60576 -1.69521 0
M  V30 5327 C 511.855 1.61169 -0.543933 0
M  V30 5328 O 513.04 1.77834 -0.78031 0
M  V30 5329 C 510.17 2.99038 -1.76616 0
M  V30 5330 C 509.124 3.13312 -2.91581 0
M  V30 5331 C 508.45 4.53172 -2.83794 0
M  V30 5332 C 509.75 2.92886 -4.32452 0
M  V30 5333 H 511.444 1.44146 -2.62416 0
M  V30 5334 H 508.99 0.692024 -1.26282 0
M  V30 5335 H 510.943 3.76564 -1.8915 0
M  V30 5336 H 509.667 3.16568 -0.80324 0
M  V30 5337 H 508.326 2.38213 -2.78658 0
M  V30 5338 H 507.974 4.67585 -1.854 0
M  V30 5339 H 507.674 4.63662 -3.60958 0
M  V30 5340 H 509.198 5.32752 -2.98342 0
M  V30 5341 H 510.612 3.60178 -4.46032 0
M  V30 5342 H 509.009 3.14844 -5.10875 0
M  V30 5343 H 510.079 1.88966 -4.46565 0
M  V30 5344 N 511.423 1.38739 0.74761 0
M  V30 5345 C 512.7 1.25791 1.49786 0
M  V30 5346 C 513.08 -0.138075 2.10648 0
M  V30 5347 O 512.428 -1.14815 1.9756 0
M  V30 5348 C 512.638 2.37265 2.55942 0
M  V30 5349 C 513.986 2.75978 3.22679 0
M  V30 5350 O 515.01 2.36621 2.6625 0
M  V30 5351 O 513.869 3.43867 4.24756 0
M  V30 5352 H 510.963 0.492251 0.664543 0
M  V30 5353 H 513.509 1.50582 0.782511 0
M  V30 5354 H 512.281 3.30644 2.0926 0
M  V30 5355 H 511.904 2.14071 3.35051 0
M  V30 5356 N 512.901 -0.976442 1.23707 0
M  V30 5357 C 514.15 -1.71254 1.06559 0
M  V30 5358 C 514.463 -1.91528 -0.397024 0
M  V30 5359 O 515.669 -2.62625 -0.688518 0
M  V30 5360 C 514.125 -3.08207 1.8584 0
M  V30 5361 C 513.733 -2.95806 3.36456 0
M  V30 5362 C 515.477 -3.85749 1.77194 0
M  V30 5363 C 513.384 -4.28015 4.08114 0
M  V30 5364 H 512.314 -0.642171 0.395136 0
M  V30 5365 H 514.965 -1.08877 1.4771 0
M  V30 5366 H 513.347 -3.71363 1.37498 0
M  V30 5367 H 514.521 -2.41716 3.92314 0
M  V30 5368 H 512.836 -2.31736 3.45959 0
M  V30 5369 H 515.433 -4.83633 2.28041 0
M  V30 5370 H 515.776 -4.09752 0.735477 0
M  V30 5371 H 516.309 -3.29303 2.23169 0
M  V30 5372 H 513.048 -4.09208 5.12083 0
M  V30 5373 H 512.568 -4.81955 3.57043 0
M  V30 5374 H 514.247 -4.96681 4.14629 0
M  V30 5375 N 514.379 -1.04941 -1.1758 0
M  V30 5376 C 515.627 -0.756492 -1.87408 0
M  V30 5377 C 515.948 0.718478 -1.81281 0
M  V30 5378 O 515.218 1.519 -1.23706 0
M  V30 5379 H 513.798 -0.276841 -0.693807 0
M  V30 5380 H 516.46 -1.32803 -1.42652 0
M  V30 5381 H 515.556 -1.06918 -2.93215 0
M  V30 5382 N 515.857 1.33968 -0.830081 0
M  V30 5383 C 517.082 2.02813 -0.433796 0
M  V30 5384 C 517.507 1.62076 0.954614 0
M  V30 5385 O 516.865 0.808955 1.62252 0
M  V30 5386 C 516.913 3.56348 -0.552115 0
M  V30 5387 O 516.017 4.10202 0.425191 0
M  V30 5388 H 515.358 0.639817 -0.177567 0
M  V30 5389 H 517.888 1.7106 -1.12248 0
M  V30 5390 H 517.898 4.05722 -0.430513 0
M  V30 5391 H 516.573 3.85344 -1.56471 0
M  V30 5392 H 515.15 3.71979 0.261878 0
M  V30 5393 N 517.335 0.585699 1.46312 0
M  V30 5394 C 518.612 0.00542031 1.95599 0
M  V30 5395 C 518.992 -1.45619 1.52834 0
M  V30 5396 O 518.34 -2.14759 0.780446 0
M  V30 5397 C 518.55 0.180601 3.48532 0
M  V30 5398 C 519.898 0.049979 4.24571 0
M  V30 5399 O 520.922 0.109589 3.56031 0
M  V30 5400 O 519.781 -0.0832226 5.46437 0
M  V30 5401 H 516.875 -0.0481281 0.825598 0
M  V30 5402 H 519.421 0.654227 1.56582 0
M  V30 5403 H 518.193 1.19657 3.72556 0
M  V30 5404 H 517.816 -0.504498 3.94386 0
M  V30 5405 N 518.813 -1.54241 0.323641 0
M  V30 5406 C 519.776 -2.22997 -0.529602 0
M  V30 5407 C 520.776 -1.22345 -1.04347 0
M  V30 5408 O 521.966 -1.46924 -0.935889 0
M  V30 5409 C 519.098 -2.93409 -1.73562 0
M  V30 5410 H 520.291 -2.99815 0.0714518 0
M  V30 5411 H 517.844 -1.56121 0.0747258 0
M  V30 5412 H 518.579 -2.20729 -2.37591 0
M  V30 5413 H 518.364 -3.67217 -1.37456 0
M  V30 5414 H 519.854 -3.45794 -2.34128 0
M  V30 5415 N 520.291 -0.0518155 -1.57515 0
M  V30 5416 C 521.54 0.621286 -1.91893 0
M  V30 5417 C 521.853 1.71966 -0.932052 0
M  V30 5418 O 523.059 2.45096 -1.16791 0
M  V30 5419 C 521.515 1.15641 -3.40816 0
M  V30 5420 C 521.123 0.0901146 -4.47909 0
M  V30 5421 C 522.867 1.80472 -3.84227 0
M  V30 5422 C 520.774 0.638154 -5.87947 0
M  V30 5423 H 519.704 0.235835 -0.716169 0
M  V30 5424 H 522.355 -0.120809 -1.83102 0
M  V30 5425 H 520.737 1.95084 -3.44613 0
M  V30 5426 H 521.911 -0.683525 -4.55702 0
M  V30 5427 H 520.226 -0.460774 -4.13843 0
M  V30 5428 H 522.823 2.22471 -4.86221 0
M  V30 5429 H 523.166 2.65669 -3.20508 0
M  V30 5430 H 523.699 1.07683 -3.82948 0
M  V30 5431 H 520.438 -0.176202 -6.55263 0
M  V30 5432 H 519.958 1.37976 -5.83714 0
M  V30 5433 H 521.637 1.12085 -6.37217 0
M  V30 5434 N 521.769 1.56035 0.221574 0
M  V30 5435 C 522.994 1.83476 0.967026 0
M  V30 5436 C 523.419 0.632139 1.7716 0
M  V30 5437 O 522.777 -0.419082 1.7639 0
M  V30 5438 C 522.825 3.08907 1.86034 0
M  V30 5439 O 521.929 2.876 2.95567 0
M  V30 5440 H 521.27 0.604913 0.273817 0
M  V30 5441 H 523.8 2.03247 0.234893 0
M  V30 5442 H 523.81 3.3901 2.27016 0
M  V30 5443 H 522.485 3.96068 1.26898 0
M  V30 5444 H 521.062 2.6873 2.58532 0
M  V30 5445 N 523.247 -0.488276 1.49845 0
M  V30 5446 C 524.663 -0.820566 1.3689 0
M  V30 5447 C 524.863 -1.97248 0.411752 0
M  V30 5448 O 523.919 -2.52042 -0.151931 0
M  V30 5449 C 525.232 -1.1488 2.77891 0
M  V30 5450 C 526.78 -1.25626 2.86683 0
M  V30 5451 C 527.255 -1.61772 4.28479 0
M  V30 5452 N 528.746 -1.68797 4.31349 0
M  V30 5453 C 529.481 -1.98235 5.38043 0
M  V30 5454 N 528.977 -2.2581 6.54967 0
M  V30 5455 N 530.77 -1.99593 5.2547 0
M  V30 5456 H 522.921 0.271123 2.10662 0
M  V30 5457 H 525.184 0.058735 0.946179 0
M  V30 5458 H 524.89 -0.375614 3.49688 0
M  V30 5459 H 524.764 -2.08919 3.14058 0
M  V30 5460 H 527.151 -2.02014 2.15114 0
M  V30 5461 H 527.232 -0.296072 2.54081 0
M  V30 5462 H 526.876 -0.859295 5.00578 0
M  V30 5463 H 526.806 -2.58912 4.58554 0
M  V30 5464 H 529.297 -1.49595 3.4703 0
M  V30 5465 H 529.61 -2.47497 7.32096 0
M  V30 5466 H 527.955 -2.23239 6.58171 0
M  V30 5467 H 531.146 -1.77535 4.33127 0
M  V30 5468 H 531.319 -2.222 6.08713 0
M  V30 5469 N 524.725 -1.39134 -0.740242 0
M  V30 5470 C 525.972 -1.36071 -1.49969 0
M  V30 5471 C 526.3 0.0450245 -1.94448 0
M  V30 5472 O 525.555 1.02482 -1.66721 0
M  V30 5473 C 525.854 -2.27457 -2.75678 0
M  V30 5474 C 525.52 -3.75185 -2.50094 0
M  V30 5475 C 524.182 -4.15439 -2.42825 0
M  V30 5476 C 526.534 -4.68643 -2.28086 0
M  V30 5477 C 523.862 -5.4722 -2.11584 0
M  V30 5478 C 526.214 -6.00695 -1.98363 0
M  V30 5479 C 524.878 -6.40018 -1.8956 0
M  V30 5480 H 524.148 -0.497921 -0.548777 0
M  V30 5481 H 526.795 -1.71599 -0.85007 0
M  V30 5482 H 525.1 -1.8503 -3.45356 0
M  V30 5483 H 526.797 -2.22384 -3.33686 0
M  V30 5484 H 523.387 -3.43279 -2.56627 0
M  V30 5485 H 527.571 -4.3838 -2.32672 0
M  V30 5486 H 522.827 -5.76615 -2.03287 0
M  V30 5487 H 527.001 -6.72644 -1.80341 0
M  V30 5488 H 524.628 -7.42051 -1.65117 0
M  V30 5489 N 526.204 0.969867 -1.24223 0
M  V30 5490 C 527.134 2.08191 -1.05729 0
M  V30 5491 C 528.115 1.70075 0.0290765 0
M  V30 5492 O 529.3 1.93712 -0.137583 0
M  V30 5493 C 526.43 3.40991 -0.658995 0
M  V30 5494 C 525.384 3.93054 -1.69389 0
M  V30 5495 C 524.71 5.22171 -1.15072 0
M  V30 5496 C 526.01 4.21137 -3.08935 0
M  V30 5497 H 527.704 2.23921 -1.98746 0
M  V30 5498 H 525.25 1.07602 -0.956967 0
M  V30 5499 H 527.203 4.18221 -0.51662 0
M  V30 5500 H 525.927 3.25155 0.30686 0
M  V30 5501 H 524.586 3.17977 -1.82444 0
M  V30 5502 H 524.234 5.02694 -0.175539 0
M  V30 5503 H 523.934 5.57973 -1.84229 0
M  V30 5504 H 525.458 6.02013 -1.02042 0
M  V30 5505 H 526.872 4.8908 -2.99121 0
M  V30 5506 H 525.269 4.68163 -3.75425 0
M  V30 5507 H 526.339 3.27996 -3.57137 0
M  V30 5508 N 527.682 1.05563 1.17022 0
M  V30 5509 C 528.63 0.653887 2.2322 0
M  V30 5510 C 529.624 -0.326642 1.66221 0
M  V30 5511 O 530.83 -0.192301 1.7897 0
M  V30 5512 H 527.205 0.193297 0.726733 0
M  V30 5513 H 529.176 1.5596 2.54399 0
M  V30 5514 C 527.925 0.0485434 3.47666 0
M  V30 5515 H 527.248 0.79413 3.91834 0
M  V30 5516 H 528.688 -0.195133 4.23551 0
M  V30 5517 C 527.147 -1.20583 3.14581 0
M  V30 5518 O 527.677 -2.29475 3.29703 0
M  V30 5519 N 525.883 -1.10493 2.68774 0
M  V30 5520 H 525.43 -0.218795 2.56669 0
M  V30 5521 H 525.388 -1.94507 2.47011 0
M  V30 5522 N 529.16 -1.33526 0.837174 0
M  V30 5523 C 530.11 -2.2672 0.241269 0
M  V30 5524 C 531.094 -1.49183 -0.602756 0
M  V30 5525 O 532.286 -1.71052 -0.455002 0
M  V30 5526 C 529.415 -3.38294 -0.584125 0
M  V30 5527 C 528.501 -4.23231 0.271315 0
M  V30 5528 N 528.892 -4.87473 1.34922 0
M  V30 5529 C 527.19 -4.45962 0.0580589 0
M  V30 5530 C 527.891 -5.50685 1.87405 0
M  V30 5531 N 526.867 -5.30732 1.17578 0
M  V30 5532 H 530.669 -2.73903 1.06558 0
M  V30 5533 H 528.183 -1.47411 0.68145 0
M  V30 5534 H 530.18 -4.04044 -1.02731 0
M  V30 5535 H 528.84 -2.9266 -1.40643 0
M  V30 5536 H 529.851 -4.88077 1.7321 0
M  V30 5537 H 526.528 -4.11052 -0.730938 0
M  V30 5538 H 527.918 -6.11845 2.77661 0
M  V30 5539 N 530.638 -0.59345 -1.46 0
M  V30 5540 C 532.049 -0.169801 -1.85926 0
M  V30 5541 C 532.4 1.26984 -1.49565 0
M  V30 5542 O 531.525 1.96076 -0.915602 0
M  V30 5543 C 532.12 -0.301385 -3.37457 0
M  V30 5544 C 530.679 0.0674684 -3.7634 0
M  V30 5545 C 529.826 -0.632383 -2.69993 0
M  V30 5546 H 532.777 -0.801014 -1.37002 0
M  V30 5547 H 532.798 0.470331 -3.77582 0
M  V30 5548 H 532.31 -1.34927 -3.63891 0
M  V30 5549 H 530.411 1.11507 -3.55523 0
M  V30 5550 H 530.524 -0.316332 -4.78055 0
M  V30 5551 H 528.888 -0.0714961 -2.546 0
M  V30 5552 H 529.671 -1.68212 -2.99265 0
M  V30 5553 N 532.116 1.54067 -0.331816 0
M  V30 5554 C 533.066 2.21363 0.546101 0
M  V30 5555 C 534.05 1.19698 1.07523 0
M  V30 5556 O 535.242 1.45293 1.01088 0
M  V30 5557 C 532.371 2.98115 1.70242 0
M  V30 5558 C 531.457 4.07127 1.18779 0
M  V30 5559 N 531.848 5.04267 0.393465 0
M  V30 5560 C 530.146 4.21226 1.46576 0
M  V30 5561 C 530.847 5.81585 0.115572 0
M  V30 5562 N 529.823 5.39022 0.703987 0
M  V30 5563 H 533.625 2.93821 -0.0679751 0
M  V30 5564 H 531.139 1.61812 -0.138085 0
M  V30 5565 H 533.136 3.44818 2.34321 0
M  V30 5566 H 531.796 2.27181 2.31989 0
M  V30 5567 H 532.807 5.17888 0.0355757 0
M  V30 5568 H 529.484 3.61509 2.08848 0
M  V30 5569 H 530.874 6.6985 -0.524426 0
M  V30 5570 N 533.594 0.0601682 1.57485 0
M  V30 5571 C 534.841 -0.611594 1.93043 0
M  V30 5572 C 535.169 -1.70317 0.939274 0
M  V30 5573 O 534.424 -1.95644 -0.046996 0
M  V30 5574 C 534.723 -1.23831 3.35262 0
M  V30 5575 C 534.389 -0.274037 4.50066 0
M  V30 5576 C 533.051 -0.00872394 4.81199 0
M  V30 5577 C 535.403 0.386308 5.19766 0
M  V30 5578 C 532.731 0.924218 5.79375 0
M  V30 5579 C 535.083 1.3075 6.1894 0
M  V30 5580 C 533.747 1.58139 6.48497 0
M  V30 5581 H 533.017 -0.223798 0.706396 0
M  V30 5582 H 535.664 0.128566 1.91068 0
M  V30 5583 H 533.969 -2.05394 3.33647 0
M  V30 5584 H 535.666 -1.76517 3.60059 0
M  V30 5585 H 532.256 -0.491008 4.25778 0
M  V30 5586 H 536.44 0.194436 4.95919 0
M  V30 5587 H 531.696 1.1438 6.00606 0
M  V30 5588 H 535.87 1.82519 6.72056 0
M  V30 5589 H 533.497 2.30593 7.24383 0
M  V30 5590 N 535.072 -1.5615 -0.213296 0
M  V30 5591 C 536.022 -1.89485 -1.26804 0
M  V30 5592 C 537.006 -0.758713 -1.41889 0
M  V30 5593 O 538.198 -1.02127 -1.44565 0
M  V30 5594 C 535.327 -2.22219 -2.61675 0
M  V30 5595 C 534.413 -3.42245 -2.50458 0
M  V30 5596 N 534.804 -4.60645 -2.089 0
M  V30 5597 C 533.102 -3.46023 -2.81397 0
M  V30 5598 C 533.803 -5.42805 -2.09135 0
M  V30 5599 N 532.779 -4.82732 -2.49941 0
M  V30 5600 H 536.581 -2.78537 -0.937771 0
M  V30 5601 H 534.095 -1.56826 -0.421824 0
M  V30 5602 H 536.092 -2.44278 -3.37837 0
M  V30 5603 H 534.752 -1.34484 -2.95541 0
M  V30 5604 H 535.763 -4.85651 -1.79899 0
M  V30 5605 H 532.44 -2.68654 -3.1958 0
M  V30 5606 H 533.83 -6.47601 -1.79059 0
M  V30 5607 N 536.55 0.480323 -1.50102 0
M  V30 5608 C 537.797 1.23307 -1.60629 0
M  V30 5609 C 538.125 1.92135 -0.302375 0
M  V30 5610 O 537.38 1.82321 0.711154 0
M  V30 5611 C 537.679 2.30708 -2.72963 0
M  V30 5612 C 537.345 1.79195 -4.13763 0
M  V30 5613 C 536.007 1.64867 -4.52076 0
M  V30 5614 C 538.359 1.40878 -5.018 0
M  V30 5615 C 535.687 1.10631 -5.76175 0
M  V30 5616 C 538.039 0.880872 -6.26437 0
M  V30 5617 C 536.703 0.724146 -6.6356 0
M  V30 5618 H 535.973 0.451211 -0.587784 0
M  V30 5619 H 538.62 0.53051 -1.84005 0
M  V30 5620 H 536.925 3.06834 -2.43639 0
M  V30 5621 H 538.622 2.88692 -2.78313 0
M  V30 5622 H 535.212 1.91313 -3.83533 0
M  V30 5623 H 539.396 1.50786 -4.7284 0
M  V30 5624 H 534.652 0.972263 -6.0362 0
M  V30 5625 H 538.826 0.575269 -6.9402 0
M  V30 5626 H 536.453 0.301722 -7.59601 0
M  V30 5627 N 538.028 1.39524 0.732853 0
M  V30 5628 C 539.274 1.37068 1.49467 0
M  V30 5629 C 539.607 -0.0327166 1.94172 0
M  V30 5630 O 538.882 -0.998071 1.66939 0
M  V30 5631 C 539.165 2.34494 2.73285 0
M  V30 5632 C 539.018 3.83784 2.34585 0
M  V30 5633 C 540.337 2.29717 3.75391 0
M  V30 5634 H 537.456 0.499206 0.542183 0
M  V30 5635 H 540.098 1.70532 0.837783 0
M  V30 5636 H 538.248 2.06087 3.29333 0
M  V30 5637 H 539.92 4.22949 1.84151 0
M  V30 5638 H 538.163 4.00455 1.66787 0
M  V30 5639 H 538.834 4.47444 3.23262 0
M  V30 5640 H 541.31 2.54839 3.28932 0
M  V30 5641 H 540.186 2.99962 4.59689 0
M  V30 5642 H 540.447 1.30291 4.22465 0
M  V30 5643 N 539.506 -0.963266 1.24736 0
M  V30 5644 C 540.416 -2.09246 1.06082 0
M  V30 5645 C 541.432 -1.74 0.000363101 0
M  V30 5646 O 542.608 -2.0041 0.199479 0
M  V30 5647 C 539.673 -3.40115 0.672498 0
M  V30 5648 C 538.734 -3.89282 1.80993 0
M  V30 5649 C 537.967 -5.13905 1.44004 0
M  V30 5650 O 538.19 -5.69434 0.331835 0
M  V30 5651 O 537.124 -5.57566 2.26723 0
M  V30 5652 H 540.95 -2.27881 2.00759 0
M  V30 5653 H 538.535 -1.07649 1.03595 0
M  V30 5654 H 540.417 -4.18797 0.467668 0
M  V30 5655 H 539.092 -3.22771 -0.245102 0
M  V30 5656 H 537.999 -3.11642 2.06955 0
M  V30 5657 H 539.332 -4.1111 2.70646 0
M  V30 5658 N 540.985 -1.06182 -1.16461 0
M  V30 5659 C 542.233 -0.776326 -1.86595 0
M  V30 5660 C 542.554 0.69921 -1.82033 0
M  V30 5661 O 541.824 1.50579 -1.2531 0
M  V30 5662 H 540.404 -0.284184 -0.690832 0
M  V30 5663 H 543.066 -1.34308 -1.41235 0
M  V30 5664 H 542.162 -1.10022 -2.92064 0
M  V30 5665 N 542.463 1.3308 -0.844243 0
M  V30 5666 C 543.74 1.92178 -0.364261 0
M  V30 5667 C 544.12 1.76961 1.15101 0
M  V30 5668 O 543.468 1.16128 1.9679 0
M  V30 5669 C 543.678 3.393 -0.817106 0
M  V30 5670 C 545.026 4.16444 -0.828236 0
M  V30 5671 O 546.05 3.47975 -0.761062 0
M  V30 5672 O 544.909 5.38685 -0.920926 0
M  V30 5673 H 542.003 0.820411 -0.10419 0
M  V30 5674 H 544.549 1.41918 -0.930453 0
M  V30 5675 H 543.321 3.44272 -1.85991 0
M  V30 5676 H 542.944 3.96947 -0.227785 0
M  V30 5677 N 543.941 0.601185 1.45683 0
M  V30 5678 C 545.19 0.0914953 2.01492 0
M  V30 5679 C 545.503 -1.28331 1.47616 0
M  V30 5680 O 546.709 -1.88537 1.95362 0
M  V30 5681 C 545.165 0.11291 3.59723 0
M  V30 5682 C 544.773 1.48717 4.22596 0
M  V30 5683 C 546.517 -0.341871 4.23121 0
M  V30 5684 C 544.424 1.46531 5.7296 0
M  V30 5685 H 543.354 0.0304365 0.753385 0
M  V30 5686 H 546.005 0.755568 1.67223 0
M  V30 5687 H 544.387 -0.617692 3.91153 0
M  V30 5688 H 545.561 2.23897 4.02749 0
M  V30 5689 H 543.876 1.88351 3.71366 0
M  V30 5690 H 546.473 -0.377304 5.33367 0
M  V30 5691 H 546.816 -1.36325 3.93346 0
M  V30 5692 H 547.349 0.335256 3.96385 0
M  V30 5693 H 544.088 2.46408 6.07423 0
M  V30 5694 H 543.608 0.755997 5.95017 0
M  V30 5695 H 545.287 1.18618 6.36034 0
M  V30 5696 N 545.419 -1.53889 0.339982 0
M  V30 5697 C 546.644 -2.05741 -0.261798 0
M  V30 5698 C 547.069 -1.21354 -1.43718 0
M  V30 5699 O 546.427 -0.22645 -1.7988 0
M  V30 5700 C 546.475 -3.54542 -0.658228 0
M  V30 5701 O 545.579 -3.7302 -1.75869 0
M  V30 5702 H 544.92 -0.662529 -0.0441672 0
M  V30 5703 H 547.45 -1.98568 0.493161 0
M  V30 5704 H 547.46 -3.9711 -0.936368 0
M  V30 5705 H 546.135 -4.15412 0.201358 0
M  V30 5706 H 544.712 -3.42355 -1.47809 0
M  V30 5707 N 546.897 -0.0685191 -1.57451 0
M  V30 5708 C 548.146 0.600898 -1.92541 0
M  V30 5709 C 548.459 1.70967 -0.950239 0
M  V30 5710 O 549.665 2.43844 -1.19384 0
M  V30 5711 C 548.121 1.12019 -3.42023 0
M  V30 5712 C 547.729 0.0426028 -4.4798 0
M  V30 5713 C 549.473 1.76386 -3.86119 0
M  V30 5714 C 547.38 0.575759 -5.88591 0
M  V30 5715 H 546.31 0.228225 -0.71863 0
M  V30 5716 H 548.961 -0.140223 -1.82963 0
M  V30 5717 H 547.343 1.91418 -3.46663 0
M  V30 5718 H 548.517 -0.73182 -4.54952 0
M  V30 5719 H 546.832 -0.504642 -4.13331 0
M  V30 5720 H 549.429 2.17302 -4.88553 0
M  V30 5721 H 549.772 2.62255 -3.23308 0
M  V30 5722 H 550.305 1.03615 -3.84069 0
M  V30 5723 H 547.044 -0.245691 -6.55039 0
M  V30 5724 H 546.564 1.31778 -5.85145 0
M  V30 5725 H 548.243 1.0532 -6.3837 0
M  V30 5726 N 548.375 1.56261 0.205012 0
M  V30 5727 C 549.325 1.90155 1.25798 0
M  V30 5728 C 550.309 0.766227 1.41484 0
M  V30 5729 O 551.501 1.02893 1.44021 0
M  V30 5730 C 548.63 2.23603 2.60493 0
M  V30 5731 C 547.716 3.43568 2.48639 0
M  V30 5732 N 548.107 4.61747 2.06455 0
M  V30 5733 C 546.405 3.4751 2.79558 0
M  V30 5734 C 547.106 5.43907 2.06253 0
M  V30 5735 N 546.082 4.84051 2.47377 0
M  V30 5736 H 549.884 2.79031 0.922986 0
M  V30 5737 H 547.398 1.57048 0.413501 0
M  V30 5738 H 549.395 2.46067 3.36537 0
M  V30 5739 H 548.055 1.36049 2.94823 0
M  V30 5740 H 549.066 4.86598 1.77321 0
M  V30 5741 H 545.743 2.70345 3.18151 0
M  V30 5742 H 547.133 6.48542 1.75622 0
M  V30 5743 N 549.853 -0.472356 1.50355 0
M  V30 5744 C 551.078 -1.25251 1.65309 0
M  V30 5745 C 551.503 -1.85081 0.335643 0
M  V30 5746 O 550.861 -1.67227 -0.700335 0
M  V30 5747 C 550.909 -2.3379 2.74544 0
M  V30 5748 O 550.013 -3.38401 2.35709 0
M  V30 5749 H 549.354 -0.368539 0.552336 0
M  V30 5750 H 551.884 -0.562271 1.96722 0
M  V30 5751 H 551.894 -2.79121 2.97583 0
M  V30 5752 H 550.569 -1.89614 3.70161 0
M  V30 5753 H 549.146 -2.9879 2.23112 0
M  V30 5754 N 551.331 -1.39911 -0.725443 0
M  V30 5755 C 552.241 -1.41688 -1.8698 0
M  V30 5756 C 553.257 -0.310579 -1.71206 0
M  V30 5757 O 554.433 -0.55359 -1.93642 0
M  V30 5758 C 551.498 -1.26811 -3.22676 0
M  V30 5759 C 550.559 -2.47497 -3.50776 0
M  V30 5760 C 549.792 -2.3332 -4.79997 0
M  V30 5761 O 550.015 -1.34175 -5.54394 0
M  V30 5762 O 548.949 -3.22498 -5.08211 0
M  V30 5763 H 552.775 -2.38171 -1.88436 0
M  V30 5764 H 550.36 -1.21128 -0.874548 0
M  V30 5765 H 552.242 -1.20684 -4.03749 0
M  V30 5766 H 550.917 -0.334289 -3.21969 0
M  V30 5767 H 549.824 -2.59201 -2.69751 0
M  V30 5768 H 551.157 -3.39606 -3.5627 0
M  V30 5769 N 552.809 0.956637 -1.25245 0
M  V30 5770 C 554.055 1.70413 -1.11044 0
M  V30 5771 C 554.41 1.89275 0.345377 0
M  V30 5772 O 553.703 1.45116 1.25107 0
M  V30 5773 C 553.897 3.08996 -1.79601 0
M  V30 5774 C 553.726 3.03654 -3.317 0
M  V30 5775 C 552.496 3.07521 -4.00947 0
M  V30 5776 C 554.694 2.84975 -4.28128 0
M  V30 5777 N 552.676 2.92316 -5.39838 0
M  V30 5778 C 554.047 2.7818 -5.5409 0
M  V30 5779 C 556.102 2.6964 -4.18568 0
M  V30 5780 C 554.805 2.57616 -6.71585 0
M  V30 5781 C 556.831 2.50447 -5.35752 0
M  V30 5782 C 556.193 2.4437 -6.60653 0
M  V30 5783 H 552.292 0.631642 -0.461035 0
M  V30 5784 H 554.876 1.13331 -1.58317 0
M  V30 5785 H 553.047 3.64248 -1.34826 0
M  V30 5786 H 554.779 3.72515 -1.58161 0
M  V30 5787 H 551.534 3.16635 -3.52192 0
M  V30 5788 H 551.958 2.87923 -6.12723 0
M  V30 5789 H 556.6 2.73113 -3.22752 0
M  V30 5790 H 554.318 2.52885 -7.67512 0
M  V30 5791 H 557.904 2.39509 -5.30214 0
M  V30 5792 H 556.784 2.29712 -7.49801 0
M  V30 5793 N 554.287 1.06798 1.15896 0
M  V30 5794 C 555.536 0.782796 1.8589 0
M  V30 5795 C 555.849 -0.693498 1.82893 0
M  V30 5796 O 557.055 -1.09325 2.48516 0
M  V30 5797 C 555.511 1.3502 3.33613 0
M  V30 5798 C 555.119 2.8571 3.45071 0
M  V30 5799 C 556.863 1.14278 4.08829 0
M  V30 5800 C 554.77 3.35669 4.86909 0
M  V30 5801 H 553.7 0.289149 0.696354 0
M  V30 5802 H 556.351 1.28734 1.30766 0
M  V30 5803 H 554.733 0.773407 3.88374 0
M  V30 5804 H 555.907 3.49385 3.00445 0
M  V30 5805 H 554.222 3.05178 2.83294 0
M  V30 5806 H 556.819 1.49087 5.13495 0
M  V30 5807 H 557.162 0.0814575 4.1622 0
M  V30 5808 H 557.695 1.68563 3.60321 0
M  V30 5809 H 554.434 4.41302 4.84698 0
M  V30 5810 H 553.954 2.76745 5.32139 0
M  V30 5811 H 555.633 3.31296 5.55745 0
M  V30 5812 N 555.766 -1.3263 0.851289 0
M  V30 5813 C 556.676 -2.32722 0.296268 0
M  V30 5814 C 557.692 -1.63901 -0.584162 0
M  V30 5815 O 558.868 -1.95465 -0.485334 0
M  V30 5816 C 555.933 -3.42942 -0.509103 0
M  V30 5817 C 554.994 -4.2746 0.397069 0
M  V30 5818 C 554.227 -5.32416 -0.36996 0
M  V30 5819 O 554.45 -5.47491 -1.6003 0
M  V30 5820 O 553.384 -6.01327 0.262493 0
M  V30 5821 H 557.21 -2.82078 1.12543 0
M  V30 5822 H 554.795 -1.36194 0.614135 0
M  V30 5823 H 556.677 -4.1017 -0.96634 0
M  V30 5824 H 555.352 -2.95781 -1.31512 0
M  V30 5825 H 554.259 -3.63053 0.902411 0
M  V30 5826 H 555.592 -4.78136 1.16818 0
M  V30 5827 N 557.244 -0.608902 -1.45362 0
M  V30 5828 C 558.474 -0.110852 -2.06302 0
M  V30 5829 C 558.882 1.21062 -1.45398 0
M  V30 5830 O 558.225 1.74861 -0.562976 0
M  V30 5831 C 558.287 0.101793 -3.59356 0
M  V30 5832 C 557.951 -1.13808 -4.42602 0
M  V30 5833 C 558.948 -2.05653 -4.77496 0
M  V30 5834 C 556.633 -1.36727 -4.83333 0
M  V30 5835 C 558.627 -3.18745 -5.51978 0
M  V30 5836 C 556.314 -2.5012 -5.57569 0
M  V30 5837 C 557.312 -3.40957 -5.91809 0
M  V30 5838 O 557 -4.52376 -6.64538 0
M  V30 5839 H 556.732 -0.0666001 -0.672711 0
M  V30 5840 H 559.286 -0.836942 -1.87575 0
M  V30 5841 H 557.516 0.88279 -3.76489 0
M  V30 5842 H 559.205 0.551607 -4.02134 0
M  V30 5843 H 559.971 -1.89172 -4.46586 0
M  V30 5844 H 555.85 -0.669216 -4.56117 0
M  V30 5845 H 559.394 -3.8967 -5.78622 0
M  V30 5846 H 555.291 -2.66553 -5.87894 0
M  V30 5847 H 556.059 -4.51075 -6.82989 0
M  V30 5848 N 558.722 1.53707 -0.348139 0
M  V30 5849 C 559.672 2.2193 0.522592 0
M  V30 5850 C 560.656 1.20831 1.06248 0
M  V30 5851 O 561.848 1.46357 0.995415 0
M  V30 5852 C 558.977 2.99904 1.6707 0
M  V30 5853 C 558.063 4.08364 1.14454 0
M  V30 5854 N 558.454 5.04656 0.339958 0
M  V30 5855 C 556.752 4.22757 1.421 0
M  V30 5856 C 557.453 5.81675 0.0538806 0
M  V30 5857 N 556.429 5.39739 0.646776 0
M  V30 5858 H 560.231 2.93733 -0.099135 0
M  V30 5859 H 557.745 1.61656 -0.15524 0
M  V30 5860 H 559.742 3.47284 2.30651 0
M  V30 5861 H 558.402 2.29629 2.29566 0
M  V30 5862 H 559.413 5.17896 -0.0193552 0
M  V30 5863 H 556.09 3.63704 2.05002 0
M  V30 5864 H 557.48 6.69256 -0.595443 0
M  V30 5865 N 560.2 0.0768682 1.57412 0
M  V30 5866 C 561.446 -0.591961 1.93968 0
M  V30 5867 C 561.779 -1.68954 0.9575 0
M  V30 5868 O 561.054 -1.94496 -0.0124675 0
M  V30 5869 C 561.337 -1.16418 3.40762 0
M  V30 5870 C 561.19 -0.0728933 4.49741 0
M  V30 5871 C 562.509 -2.06814 3.88479 0
M  V30 5872 H 559.628 -0.213716 0.705333 0
M  V30 5873 H 562.27 0.14387 1.89455 0
M  V30 5874 H 560.42 -1.79128 3.4474 0
M  V30 5875 H 562.092 0.560446 4.57883 0
M  V30 5876 H 560.335 0.595859 4.29688 0
M  V30 5877 H 561.006 -0.513755 5.49604 0
M  V30 5878 H 563.482 -1.54033 3.8654 0
M  V30 5879 H 562.358 -2.43785 4.91793 0
M  V30 5880 H 562.619 -2.97844 3.26713 0
M  V30 5881 N 561.678 -1.56367 -0.196722 0
M  V30 5882 C 562.625 -1.94417 -1.24382 0
M  V30 5883 C 563.595 -0.804543 -1.45315 0
M  V30 5884 O 564.78 -1.06256 -1.58475 0
M  V30 5885 C 561.92 -2.28757 -2.58388 0
M  V30 5886 C 561.033 -3.55775 -2.45047 0
M  V30 5887 C 560.168 -3.79445 -3.71746 0
M  V30 5888 C 559.207 -4.99894 -3.53231 0
M  V30 5889 N 558.344 -5.19826 -4.71938 0
M  V30 5890 H 563.184 -2.83691 -0.912338 0
M  V30 5891 H 560.721 -1.40392 -0.439135 0
M  V30 5892 H 562.679 -2.46682 -3.36457 0
M  V30 5893 H 561.309 -1.42625 -2.89582 0
M  V30 5894 H 560.361 -3.45905 -1.58284 0
M  V30 5895 H 561.673 -4.44 -2.27299 0
M  V30 5896 H 560.827 -3.97601 -4.58256 0
M  V30 5897 H 559.566 -2.89546 -3.92446 0
M  V30 5898 H 558.571 -4.81662 -2.65107 0
M  V30 5899 H 559.796 -5.913 -3.33978 0
M  V30 5900 H 557.742 -4.32875 -4.92905 0
M  V30 5901 H 557.659 -6.02228 -4.57009 0
M  V30 5902 H 558.927 -5.42439 -5.59803 0
M  V30 5903 N 563.156 0.464375 -1.50603 0
M  V30 5904 C 564.103 1.56152 -1.69956 0
M  V30 5905 C 565.073 1.57046 -0.54091 0
M  V30 5906 O 566.258 1.74473 -0.772258 0
M  V30 5907 C 563.398 2.94079 -1.80586 0
M  V30 5908 C 562.511 3.02923 -3.07996 0
M  V30 5909 C 561.646 4.31806 -3.09382 0
M  V30 5910 C 560.685 4.34417 -4.31218 0
M  V30 5911 N 559.822 5.54782 -4.30304 0
M  V30 5912 H 564.662 1.38955 -2.6362 0
M  V30 5913 H 562.199 0.675482 -1.30674 0
M  V30 5914 H 564.157 3.74073 -1.8473 0
M  V30 5915 H 562.787 3.09896 -0.903556 0
M  V30 5916 H 561.839 2.1576 -3.13292 0
M  V30 5917 H 563.151 3.00712 -3.97962 0
M  V30 5918 H 562.305 5.20153 -3.12292 0
M  V30 5919 H 561.044 4.36636 -2.17257 0
M  V30 5920 H 560.049 3.44467 -4.28512 0
M  V30 5921 H 561.274 4.31273 -5.24576 0
M  V30 5922 H 559.22 5.60384 -3.41037 0
M  V30 5923 H 559.137 5.54339 -5.14047 0
M  V30 5924 H 560.405 6.45235 -4.3737 0
M  V30 5925 N 564.634 1.40294 0.718013 0
M  V30 5926 C 565.874 1.39888 1.49032 0
M  V30 5927 C 566.238 -0.000462935 1.92 0
M  V30 5928 O 567.439 -0.129622 2.68487 0
M  V30 5929 C 565.71 2.35868 2.68516 0
M  V30 5930 S 567.269 2.53799 3.57954 0
M  V30 5931 H 564.087 0.495849 0.509563 0
M  V30 5932 H 566.689 1.76541 0.839846 0
M  V30 5933 H 565.393 3.36375 2.35117 0
M  V30 5934 H 564.924 2.0049 3.38478 0
M  V30 5935 H 566.939 1.78859 4.62843 0
M  V30 5936 N 566.112 -0.949982 1.2575 0
M  V30 5937 C 567.389 -1.6718 1.01539 0
M  V30 5938 C 567.769 -2.06095 -0.456942 0
M  V30 5939 O 567.117 -1.77792 -1.43534 0
M  V30 5940 C 567.327 -2.8906 1.95564 0
M  V30 5941 C 568.675 -3.60909 2.23673 0
M  V30 5942 O 569.699 -2.9915 1.9336 0
M  V30 5943 O 568.558 -4.72127 2.75243 0
M  V30 5944 H 565.652 -0.731697 0.385419 0
M  V30 5945 H 568.198 -1.00249 1.36924 0
M  V30 5946 H 566.97 -2.57128 2.94959 0
M  V30 5947 H 566.593 -3.63719 1.60605 0
M  V30 5948 N 567.59 -1.07411 -1.15328 0
M  V30 5949 C 568.836 -0.798831 -1.86404 0
M  V30 5950 C 569.169 0.673433 -1.8215 0
M  V30 5951 O 568.444 1.49428 -1.24505 0
M  V30 5952 C 568.727 -1.30846 -3.35487 0
M  V30 5953 C 568.58 -2.84532 -3.4837 0
M  V30 5954 C 569.899 -0.925486 -4.30259 0
M  V30 5955 H 567.018 -0.291659 -0.676834 0
M  V30 5956 H 569.66 -1.332 -1.35491 0
M  V30 5957 H 567.81 -0.854916 -3.78977 0
M  V30 5958 H 569.482 -3.3818 -3.13739 0
M  V30 5959 H 567.725 -3.22699 -2.8991 0
M  V30 5960 H 568.396 -3.15259 -4.53118 0
M  V30 5961 H 570.872 -1.3163 -3.94731 0
M  V30 5962 H 569.748 -1.3094 -5.33053 0
M  V30 5963 H 570.009 0.168525 -4.41779 0
M  V30 5964 N 569.068 1.32177 -0.85831 0
M  V30 5965 C 570.314 1.97417 -0.46417 0
M  V30 5966 C 570.647 1.67746 0.978514 0
M  V30 5967 O 569.922 0.967654 1.68721 0
M  V30 5968 C 570.205 3.53069 -0.708094 0
M  V30 5969 C 570.058 3.92357 -2.19946 0
M  V30 5970 C 571.377 4.39783 -0.166881 0
M  V30 5971 H 568.496 0.717097 -0.17012 0
M  V30 5972 H 571.138 1.56499 -1.07741 0
M  V30 5973 H 569.288 3.88054 -0.186128 0
M  V30 5974 H 570.96 3.67533 -2.78779 0
M  V30 5975 H 569.203 3.41384 -2.67656 0
M  V30 5976 H 569.874 5.00841 -2.32082 0
M  V30 5977 H 572.35 4.11556 -0.613285 0
M  V30 5978 H 571.226 5.47671 -0.367093 0
M  V30 5979 H 571.487 4.32196 0.930559 0
M  V30 5980 N 570.547 0.616602 1.45037 0
M  V30 5981 C 571.477 -0.0840787 2.33349 0
M  V30 5982 C 572.458 -0.849641 1.4736 0
M  V30 5983 O 573.643 -0.818407 1.76113 0
M  V30 5984 C 570.773 -1.07604 3.3021 0
M  V30 5985 C 569.727 -0.423096 4.25904 0
M  V30 5986 C 569.053 -1.52394 5.12523 0
M  V30 5987 C 570.353 0.661457 5.18095 0
M  V30 5988 H 572.047 0.653333 2.92185 0
M  V30 5989 H 569.593 0.315634 1.40498 0
M  V30 5990 H 571.546 -1.57485 3.90866 0
M  V30 5991 H 570.27 -1.84416 2.69552 0
M  V30 5992 H 568.929 0.05493 3.66559 0
M  V30 5993 H 568.577 -2.28257 4.48227 0
M  V30 5994 H 568.277 -1.09251 5.77354 0
M  V30 5995 H 569.801 -2.02485 5.76049 0
M  V30 5996 H 571.215 0.246353 5.7277 0
M  V30 5997 H 569.612 1.01517 5.91451 0
M  V30 5998 H 570.682 1.53446 4.59981 0
M  V30 5999 N 572.025 -1.5352 0.356285 0
M  V30 6000 C 573.436 -1.86282 -0.12492 0
M  V30 6001 C 573.787 -1.27717 -1.48939 0
M  V30 6002 O 572.912 -0.595614 -2.08042 0
M  V30 6003 C 573.507 -3.37995 -0.23345 0
M  V30 6004 C 572.066 -3.70588 -0.658899 0
M  V30 6005 C 571.213 -2.76581 0.199596 0
M  V30 6006 H 574.164 -1.47901 0.575423 0
M  V30 6007 H 574.185 -3.65475 -1.0587 0
M  V30 6008 H 573.697 -3.8059 0.759776 0
M  V30 6009 H 571.798 -3.33544 -1.66069 0
M  V30 6010 H 571.911 -4.77076 -0.439957 0
M  V30 6011 H 570.275 -2.52552 -0.330076 0
M  V30 6012 H 571.058 -3.22008 1.19019 0
M  V30 6013 N 573.503 -0.0852151 -1.57369 0
M  V30 6014 C 574.433 0.874556 -2.16503 0
M  V30 6015 C 575.414 1.30111 -1.09568 0
M  V30 6016 O 576.599 1.36977 -1.37662 0
M  V30 6017 C 573.729 2.13731 -2.73745 0
M  V30 6018 C 572.683 1.84971 -3.85966 0
M  V30 6019 C 572.009 3.17991 -4.29867 0
M  V30 6020 C 573.309 1.14442 -5.09608 0
M  V30 6021 H 575.003 0.381899 -2.96954 0
M  V30 6022 H 572.549 0.18225 -1.42842 0
M  V30 6023 H 574.502 2.81302 -3.13763 0
M  V30 6024 H 573.226 2.65263 -1.90534 0
M  V30 6025 H 571.885 1.19801 -3.46473 0
M  V30 6026 H 571.533 3.6739 -3.4356 0
M  V30 6027 H 571.233 2.99534 -5.05523 0
M  V30 6028 H 572.757 3.86737 -4.72511 0
M  V30 6029 H 574.171 1.72105 -5.46857 0
M  V30 6030 H 572.568 1.06197 -5.90629 0
M  V30 6031 H 573.638 0.12559 -4.84737 0
M  V30 6032 N 574.981 1.5647 0.188427 0
M  V30 6033 C 576.227 1.81281 0.909124 0
M  V30 6034 C 576.56 0.66034 1.82628 0
M  V30 6035 O 575.835 -0.338737 1.91528 0
M  V30 6036 C 576.118 3.16388 1.7196 0
M  V30 6037 C 575.971 4.42137 0.826714 0
M  V30 6038 C 577.29 3.48256 2.69083 0
M  V30 6039 H 574.409 0.659457 0.329068 0
M  V30 6040 H 577.051 1.89182 0.176156 0
M  V30 6041 H 575.201 3.09784 2.34448 0
M  V30 6042 H 576.873 4.60794 0.216025 0
M  V30 6043 H 575.116 4.33594 0.133792 0
M  V30 6044 H 575.787 5.33184 1.42893 0
M  V30 6045 H 578.263 3.55203 2.16726 0
M  V30 6046 H 577.139 4.43899 3.2287 0
M  V30 6047 H 577.4 2.72088 3.48455 0
M  V30 6048 N 576.459 -0.456382 1.50847 0
M  V30 6049 C 577.422 -1.53493 1.70213 0
M  V30 6050 C 578.422 -1.50264 0.572481 0
M  V30 6051 O 579.612 -1.52623 0.839751 0
M  V30 6052 C 576.744 -2.93091 1.741 0
M  V30 6053 H 577.937 -1.37633 2.66453 0
M  V30 6054 H 575.49 -0.683776 1.4055 0
M  V30 6055 H 576.225 -3.14378 0.796063 0
M  V30 6056 H 576.01 -2.9684 2.5618 0
M  V30 6057 H 577.5 -3.71368 1.90987 0
M  V30 6058 N 577.937 -1.40673 -0.710563 0
M  V30 6059 C 579.186 -1.38525 -1.46607 0
M  V30 6060 C 579.499 0.0077024 -1.95598 0
M  V30 6061 O 580.705 0.151792 -2.71075 0
M  V30 6062 C 579.161 -2.43489 -2.6503 0
M  V30 6063 C 578.769 -3.88619 -2.22888 0
M  V30 6064 C 580.513 -2.50456 -3.42742 0
M  V30 6065 C 578.42 -4.85168 -3.3818 0
M  V30 6066 H 577.35 -0.515092 -0.550632 0
M  V30 6067 H 580.001 -1.66431 -0.772846 0
M  V30 6068 H 578.383 -2.0869 -3.36548 0
M  V30 6069 H 579.557 -4.32588 -1.58758 0
M  V30 6070 H 577.872 -3.85174 -1.58208 0
M  V30 6071 H 580.469 -3.19776 -4.28541 0
M  V30 6072 H 580.812 -1.53665 -3.86902 0
M  V30 6073 H 581.345 -2.84271 -2.78271 0
M  V30 6074 H 578.084 -5.8331 -2.99047 0
M  V30 6075 H 577.604 -4.4586 -4.01209 0
M  V30 6076 H 579.283 -5.05225 -4.04174 0
M  V30 6077 N 579.415 0.9433 -1.26252 0
M  V30 6078 C 580.378 2.02326 -1.07689 0
M  V30 6079 C 581.378 1.60779 -0.0259174 0
M  V30 6080 O 582.568 1.72108 -0.269134 0
M  V30 6081 C 579.7 3.34886 -0.63752 0
M  V30 6082 H 580.893 2.20225 -2.0357 0
M  V30 6083 H 578.446 1.12197 -1.08819 0
M  V30 6084 H 579.181 3.22684 0.323377 0
M  V30 6085 H 578.966 3.66393 -1.39637 0
M  V30 6086 H 580.456 4.14231 -0.529418 0
M  V30 6087 N 580.893 1.08022 1.14757 0
M  V30 6088 C 582.121 0.828847 1.89572 0
M  V30 6089 C 582.536 -0.618621 1.78377 0
M  V30 6090 O 581.893 -1.42482 1.1404 0
M  V30 6091 C 581.944 1.23677 3.39685 0
M  V30 6092 O 581.665 2.62746 3.50566 0
M  V30 6093 C 583.166 1.01569 4.31507 0
M  V30 6094 H 580.386 0.299196 0.600602 0
M  V30 6095 H 582.93 1.43846 1.45357 0
M  V30 6096 H 581.085 0.671347 3.81539 0
M  V30 6097 H 581.499 2.79573 4.43778 0
M  V30 6098 H 582.973 1.35055 5.35223 0
M  V30 6099 H 583.45 -0.0475433 4.39174 0
M  V30 6100 H 584.056 1.56636 3.95405 0
M  V30 6101 N 582.371 -1.3172 0.865308 0
M  V30 6102 C 583.782 -1.79104 0.527126 0
M  V30 6103 C 584.133 -1.7135 -0.955695 0
M  V30 6104 O 583.258 -1.27845 -1.74598 0
M  V30 6105 C 583.853 -3.25207 0.950061 0
M  V30 6106 C 582.412 -3.70504 0.663611 0
M  V30 6107 C 581.559 -2.52605 1.14395 0
M  V30 6108 H 584.51 -1.18868 1.05148 0
M  V30 6109 H 584.531 -3.79535 0.270805 0
M  V30 6110 H 584.043 -3.30818 2.02931 0
M  V30 6111 H 582.144 -3.70398 -0.404474 0
M  V30 6112 H 582.257 -4.62845 1.23737 0
M  V30 6113 H 580.621 -2.4838 0.563859 0
M  V30 6114 H 581.404 -2.60964 2.23053 0
M  V30 6115 N 583.85 -0.624285 -1.44708 0
M  V30 6116 C 585.099 -0.123539 -2.01321 0
M  V30 6117 C 585.412 1.25966 -1.49639 0
M  V30 6118 O 586.618 1.85405 -1.98336 0
M  V30 6119 C 585.074 -0.170124 -3.59498 0
M  V30 6120 C 584.682 -1.55421 -4.20176 0
M  V30 6121 C 586.426 0.274513 -4.23611 0
M  V30 6122 C 584.332 -1.55628 -5.70556 0
M  V30 6123 H 583.263 -0.0424183 -0.752806 0
M  V30 6124 H 585.913 -0.782076 -1.65999 0
M  V30 6125 H 584.296 0.555385 -3.92086 0
M  V30 6126 H 585.47 -2.30276 -3.99136 0
M  V30 6127 H 583.784 -1.94235 -3.68323 0
M  V30 6128 H 586.382 0.292402 -5.339 0
M  V30 6129 H 586.725 1.3005 -3.95465 0
M  V30 6130 H 587.258 -0.398275 -3.95801 0
M  V30 6131 H 583.997 -2.56041 -6.03426 0
M  V30 6132 H 583.517 -0.850563 -5.93739 0
M  V30 6133 H 585.196 -1.28721 -6.34066 0
M  V30 6134 N 585.328 1.53329 -0.364422 0
M  V30 6135 C 586.238 2.29414 0.490552 0
M  V30 6136 C 587.254 1.35335 1.09363 0
M  V30 6137 O 588.43 1.68391 1.10483 0
M  V30 6138 C 585.495 3.06772 1.61529 0
M  V30 6139 C 584.556 4.16516 1.03986 0
M  V30 6140 C 583.789 4.90176 2.111 0
M  V30 6141 O 584.012 4.63687 3.32191 0
M  V30 6142 O 582.946 5.76134 1.74222 0
M  V30 6143 H 586.772 3.03428 -0.12856 0
M  V30 6144 H 584.357 1.48843 -0.128837 0
M  V30 6145 H 586.239 3.55082 2.26924 0
M  V30 6146 H 584.914 2.35596 2.21983 0
M  V30 6147 H 583.821 3.7246 0.349856 0
M  V30 6148 H 585.154 4.89855 0.4799 0
M  V30 6149 N 586.806 0.0935595 1.57322 0
M  V30 6150 C 588.036 -0.578095 1.98347 0
M  V30 6151 C 588.444 -1.62357 0.971441 0
M  V30 6152 O 587.787 -1.83639 -0.0473959 0
M  V30 6153 C 587.849 -1.28525 3.3574 0
M  V30 6154 C 587.513 -0.390714 4.55327 0
M  V30 6155 C 588.51 0.360522 5.18648 0
M  V30 6156 C 586.195 -0.309221 5.01347 0
M  V30 6157 C 588.189 1.18125 6.26359 0
M  V30 6158 C 585.876 0.515157 6.08925 0
M  V30 6159 C 586.874 1.25904 6.71295 0
M  V30 6160 O 586.562 2.06978 7.76798 0
M  V30 6161 H 586.294 -0.159767 0.656849 0
M  V30 6162 H 588.848 0.169058 2.04703 0
M  V30 6163 H 587.078 -2.07894 3.26063 0
M  V30 6164 H 588.767 -1.85128 3.61223 0
M  V30 6165 H 589.533 0.307285 4.84026 0
M  V30 6166 H 585.412 -0.877881 4.52564 0
M  V30 6167 H 588.956 1.76236 6.74971 0
M  V30 6168 H 584.853 0.56988 6.42979 0
M  V30 6169 H 585.621 1.99644 7.93779 0
M  V30 6170 N 588.284 -1.56567 -0.180126 0
M  V30 6171 C 589.512 -1.85618 -0.913972 0
M  V30 6172 C 589.927 -0.677892 -1.7621 0
M  V30 6173 O 589.284 0.353171 -1.7905 0
M  V30 6174 C 589.335 -3.13619 -1.79793 0
M  V30 6175 O 589.056 -4.26906 -0.98402 0
M  V30 6176 C 590.557 -3.55954 -2.64219 0
M  V30 6177 H 587.777 -0.616043 -0.265954 0
M  V30 6178 H 590.321 -2.03681 -0.182872 0
M  V30 6179 H 588.476 -2.97409 -2.48247 0
M  V30 6180 H 588.89 -4.9989 -1.58776 0
M  V30 6181 H 590.364 -4.48444 -3.21873 0
M  V30 6182 H 590.841 -2.79653 -3.38661 0
M  V30 6183 H 591.447 -3.74746 -2.01111 0
M  V30 6184 N 589.762 0.448376 -1.51087 0
M  V30 6185 C 591.178 0.783984 -1.39017 0
M  V30 6186 C 591.378 1.96087 -0.463904 0
M  V30 6187 O 590.434 2.52357 0.0850534 0
M  V30 6188 C 591.747 1.07471 -2.80839 0
M  V30 6189 C 593.295 1.17981 -2.89913 0
M  V30 6190 C 593.77 1.50354 -4.32617 0
M  V30 6191 N 595.261 1.57301 -4.35673 0
M  V30 6192 C 595.996 1.839 -5.4311 0
M  V30 6193 N 595.492 2.08365 -6.60724 0
M  V30 6194 N 597.285 1.8559 -5.30578 0
M  V30 6195 H 589.436 -0.326881 -2.0987 0
M  V30 6196 H 591.699 -0.0838006 -0.944289 0
M  V30 6197 H 591.405 0.282768 -3.50561 0
M  V30 6198 H 591.279 2.00519 -3.19487 0
M  V30 6199 H 593.666 1.9624 -2.20395 0
M  V30 6200 H 593.747 0.228603 -2.54776 0
M  V30 6201 H 593.391 0.726273 -5.0268 0
M  V30 6202 H 593.321 2.46663 -4.65258 0
M  V30 6203 H 595.812 1.40342 -3.50874 0
M  V30 6204 H 596.125 2.27999 -7.38401 0
M  V30 6205 H 594.47 2.0571 -6.63859 0
M  V30 6206 H 597.661 1.65989 -4.37682 0
M  V30 6207 H 597.834 2.05983 -6.1439 0
M  V30 6208 N 591.24 1.41047 0.703093 0
M  V30 6209 C 592.188 1.42494 1.83843 0
M  V30 6210 C 593.182 0.303885 1.66652 0
M  V30 6211 O 594.388 0.475544 1.73605 0
M  V30 6212 H 590.763 0.445685 0.605697 0
M  V30 6213 H 592.734 2.38194 1.79739 0
M  V30 6214 C 591.483 1.31666 3.21807 0
M  V30 6215 H 590.806 2.17212 3.35647 0
M  V30 6216 H 592.246 1.36738 4.01346 0
M  V30 6217 C 590.705 0.0281828 3.36888 0
M  V30 6218 O 591.235 -0.929995 3.90786 0
M  V30 6219 N 589.441 -0.0454322 2.90564 0
M  V30 6220 H 588.988 0.735046 2.4689 0
M  V30 6221 H 588.946 -0.906968 3.01034 0
M  V30 6222 N 592.718 -0.936591 1.26751 0
M  V30 6223 C 594.129 -1.49816 1.1141 0
M  V30 6224 C 594.48 -1.9383 -0.304015 0
M  V30 6225 O 593.605 -1.80346 -1.196 0
M  V30 6226 C 594.2 -2.72271 2.01629 0
M  V30 6227 C 592.759 -3.2468 1.9042 0
M  V30 6228 C 591.906 -1.97444 1.94708 0
M  V30 6229 H 594.857 -0.751604 1.39773 0
M  V30 6230 H 594.878 -3.46741 1.56688 0
M  V30 6231 H 594.39 -2.40205 3.04833 0
M  V30 6232 H 592.491 -3.61525 0.901674 0
M  V30 6233 H 592.604 -3.91476 2.76195 0
M  V30 6234 H 590.968 -2.13545 1.38818 0
M  V30 6235 H 591.751 -1.67703 2.9955 0
M  V30 6236 N 594.196 -1.08629 -1.14182 0
M  V30 6237 C 595.126 -0.740003 -2.21464 0
M  V30 6238 C 596.107 0.278591 -1.67803 0
M  V30 6239 O 597.292 0.148461 -1.93632 0
M  V30 6240 C 594.422 -0.150952 -3.46972 0
M  V30 6241 C 593.376 -1.09815 -4.13672 0
M  V30 6242 C 592.702 -0.3712 -5.3341 0
M  V30 6243 C 594.002 -2.43722 -4.61949 0
M  V30 6244 H 595.696 -1.63697 -2.50686 0
M  V30 6245 H 593.242 -0.788526 -1.20492 0
M  V30 6246 H 595.195 0.103325 -4.21273 0
M  V30 6247 H 593.919 0.781164 -3.1712 0
M  V30 6248 H 592.578 -1.33756 -3.41328 0
M  V30 6249 H 592.226 0.564792 -4.99819 0
M  V30 6250 H 591.926 -1.00267 -5.78982 0
M  V30 6251 H 593.45 -0.12503 -6.10472 0
M  V30 6252 H 594.864 -2.24034 -5.27714 0
M  V30 6253 H 593.261 -3.02582 -5.18232 0
M  V30 6254 H 594.331 -3.05082 -3.76899 0
M  V30 6255 N 595.674 1.31259 -0.872281 0
M  V30 6256 C 597.09 1.49283 -0.564521 0
M  V30 6257 C 597.29 1.80243 0.900807 0
M  V30 6258 O 596.346 1.88246 1.68284 0
M  V30 6259 C 597.659 2.62503 -1.46673 0
M  V30 6260 C 599.207 2.76386 -1.46901 0
M  V30 6261 C 599.682 3.92705 -2.35684 0
M  V30 6262 N 601.173 3.99995 -2.33577 0
M  V30 6263 C 601.908 4.89276 -2.98992 0
M  V30 6264 N 601.404 5.83443 -3.73585 0
M  V30 6265 N 603.197 4.82541 -2.88289 0
M  V30 6266 H 595.348 1.09432 -1.82039 0
M  V30 6267 H 597.611 0.540949 -0.77851 0
M  V30 6268 H 597.317 2.46407 -2.50951 0
M  V30 6269 H 597.191 3.58695 -1.16696 0
M  V30 6270 H 599.578 2.91894 -0.433796 0
M  V30 6271 H 599.659 1.80853 -1.80903 0
M  V30 6272 H 599.303 3.77954 -3.39283 0
M  V30 6273 H 599.233 4.87549 -1.99006 0
M  V30 6274 H 601.724 3.32624 -1.7936 0
M  V30 6275 H 602.037 6.48303 -4.20622 0
M  V30 6276 H 600.382 5.83415 -3.77694 0
M  V30 6277 H 603.573 4.07951 -2.2955 0
M  V30 6278 H 603.746 5.51916 -3.39549 0
M  V30 6279 N 597.152 0.631951 1.44375 0
M  V30 6280 C 598.398 0.13697 2.02337 0
M  V30 6281 C 598.731 -1.23826 1.49602 0
M  V30 6282 O 598.006 -1.8221 0.680415 0
M  V30 6283 C 598.289 0.124536 3.59885 0
M  V30 6284 C 598.142 1.53217 4.229 0
M  V30 6285 C 599.461 -0.550481 4.36644 0
M  V30 6286 H 596.58 0.051247 0.735216 0
M  V30 6287 H 599.222 0.808581 1.71936 0
M  V30 6288 H 597.372 -0.44737 3.85916 0
M  V30 6289 H 599.044 2.15303 4.07973 0
M  V30 6290 H 597.287 2.0858 3.80364 0
M  V30 6291 H 597.958 1.4755 5.31914 0
M  V30 6292 H 600.434 -0.0641154 4.16051 0
M  V30 6293 H 599.31 -0.528371 5.46351 0
M  V30 6294 H 599.571 -1.62097 4.11311 0
M  V30 6295 N 598.631 -1.53133 0.372548 0
M  V30 6296 C 599.878 -2.01356 -0.214959 0
M  V30 6297 C 600.206 -1.2596 -1.48204 0
M  V30 6298 O 599.461 -0.343511 -1.92662 0
M  V30 6299 C 599.76 -3.53206 -0.545938 0
M  V30 6300 C 599.426 -4.46511 0.627624 0
M  V30 6301 C 598.088 -4.71737 0.949615 0
M  V30 6302 C 600.44 -5.01666 1.41353 0
M  V30 6303 C 597.768 -5.4937 2.05936 0
M  V30 6304 C 600.12 -5.80511 2.51375 0
M  V30 6305 C 598.784 -6.04022 2.84101 0
M  V30 6306 H 598.054 -0.736813 -0.078659 0
M  V30 6307 H 600.701 -1.84682 0.506447 0
M  V30 6308 H 599.006 -3.67864 -1.34845 0
M  V30 6309 H 600.703 -3.87997 -1.01287 0
M  V30 6310 H 597.293 -4.27029 0.366635 0
M  V30 6311 H 601.477 -4.82117 1.17802 0
M  V30 6312 H 596.733 -5.65803 2.31682 0
M  V30 6313 H 600.907 -6.22255 3.12684 0
M  V30 6314 H 598.534 -6.63962 3.70214 0
M  V30 6315 N 600.109 -0.101901 -1.5727 0
M  V30 6316 C 601.019 0.868647 -2.17926 0
M  V30 6317 C 602.035 1.30527 -1.1506 0
M  V30 6318 O 603.211 1.37178 -1.47459 0
M  V30 6319 C 600.276 2.10727 -2.75309 0
M  V30 6320 C 599.337 1.7242 -3.93154 0
M  V30 6321 C 598.57 2.90377 -4.47791 0
M  V30 6322 O 598.793 4.05305 -4.01353 0
M  V30 6323 O 597.727 2.6845 -5.38719 0
M  V30 6324 H 601.553 0.382544 -3.01281 0
M  V30 6325 H 599.138 0.122812 -1.48894 0
M  V30 6326 H 601.02 2.83303 -3.11958 0
M  V30 6327 H 599.695 2.58376 -1.94996 0
M  V30 6328 H 598.602 0.970039 -3.61305 0
M  V30 6329 H 599.935 1.29528 -4.74851 0
M  V30 6330 N 601.587 1.56661 0.17182 0
M  V30 6331 C 602.517 1.99401 1.21498 0
M  V30 6332 C 603.498 0.869516 1.46197 0
M  V30 6333 O 604.683 1.13556 1.57539 0
M  V30 6334 C 601.813 2.35346 2.55401 0
M  V30 6335 C 600.767 3.5075 2.45272 0
M  V30 6336 C 600.093 3.72437 3.8366 0
M  V30 6337 C 601.393 4.84216 1.95787 0
M  V30 6338 H 603.087 2.86792 0.859699 0
M  V30 6339 H 600.633 1.37977 0.412103 0
M  V30 6340 H 602.586 2.63843 3.2858 0
M  V30 6341 H 601.31 1.44864 2.92715 0
M  V30 6342 H 599.969 3.2238 1.74547 0
M  V30 6343 H 599.617 2.79246 4.18367 0
M  V30 6344 H 599.317 4.50087 3.77751 0
M  V30 6345 H 600.841 4.03334 4.58426 0
M  V30 6346 H 602.255 5.11592 2.5874 0
M  V30 6347 H 600.652 5.65498 2.00827 0
M  V30 6348 H 601.722 4.76243 0.912159 0
M  V30 6349 N 603.065 -0.440357 1.51323 0
M  V30 6350 C 604.342 -1.20109 1.5438 0
M  V30 6351 C 604.722 -2.08866 0.306303 0
M  V30 6352 O 604.07 -2.1723 -0.708773 0
M  V30 6353 C 604.28 -2.00555 2.8562 0
M  V30 6354 C 605.628 -2.577 3.37455 0
M  V30 6355 O 606.652 -2.10769 2.8715 0
M  V30 6356 O 605.511 -3.43289 4.25224 0
M  V30 6357 H 602.605 -0.546668 0.620551 0
M  V30 6358 H 605.151 -0.449672 1.63634 0
M  V30 6359 H 603.923 -1.35346 3.67147 0
M  V30 6360 H 603.546 -2.82768 2.79514 0
M  V30 6361 N 604.543 -1.41418 -0.695603 0
M  V30 6362 C 605.79 -1.40774 -1.45564 0
M  V30 6363 C 606.118 -0.0168604 -1.94493 0
M  V30 6364 O 605.373 0.971259 -1.69897 0
M  V30 6365 C 605.672 -2.36112 -2.68302 0
M  V30 6366 C 605.338 -3.82952 -2.38031 0
M  V30 6367 C 604 -4.22954 -2.29486 0
M  V30 6368 C 606.352 -4.75662 -2.13061 0
M  V30 6369 C 603.68 -5.53674 -1.94067 0
M  V30 6370 C 606.032 -6.06702 -1.79151 0
M  V30 6371 C 604.696 -6.45725 -1.69102 0
M  V30 6372 H 603.966 -0.515128 -0.532658 0
M  V30 6373 H 606.613 -1.74216 -0.795047 0
M  V30 6374 H 604.918 -1.95924 -3.39295 0
M  V30 6375 H 606.615 -2.32887 -3.26442 0
M  V30 6376 H 603.205 -3.5127 -2.45576 0
M  V30 6377 H 607.389 -4.45561 -2.18608 0
M  V30 6378 H 602.645 -5.8279 -1.8484 0
M  V30 6379 H 606.819 -6.78041 -1.5885 0
M  V30 6380 H 604.446 -7.46929 -1.41426 0
M  V30 6381 N 606.021 0.929856 -1.27246 0
M  V30 6382 C 606.931 2.0636 -1.11592 0
M  V30 6383 C 607.947 1.73938 -0.046496 0
M  V30 6384 O 609.123 1.9981 -0.252544 0
M  V30 6385 C 606.188 3.38213 -0.762437 0
M  V30 6386 C 605.249 3.84346 -1.9125 0
M  V30 6387 C 604.482 5.09906 -1.57579 0
M  V30 6388 O 604.705 5.68354 -0.482694 0
M  V30 6389 O 603.639 5.51359 -2.41426 0
M  V30 6390 H 607.465 2.22478 -2.0673 0
M  V30 6391 H 605.05 1.04865 -1.06413 0
M  V30 6392 H 606.932 4.1741 -0.57854 0
M  V30 6393 H 605.607 3.23307 0.159439 0
M  V30 6394 H 604.514 3.06045 -2.15144 0
M  V30 6395 H 605.847 4.0379 -2.81451 0
M  V30 6396 N 607.499 1.09233 1.13605 0
M  V30 6397 C 608.409 0.741939 2.22559 0
M  V30 6398 C 609.425 -0.255236 1.72118 0
M  V30 6399 O 610.601 -0.0970747 2.01166 0
M  V30 6400 C 607.666 0.165595 3.46304 0
M  V30 6401 C 606.727 1.21846 4.11645 0
M  V30 6402 C 605.96 0.669526 5.29484 0
M  V30 6403 O 606.183 -0.508228 5.68131 0
M  V30 6404 O 605.117 1.42361 5.84822 0
M  V30 6405 H 608.943 1.65107 2.54899 0
M  V30 6406 H 606.528 0.866584 1.21699 0
M  V30 6407 H 608.41 -0.152592 4.21124 0
M  V30 6408 H 607.085 -0.716573 3.15669 0
M  V30 6409 H 605.992 1.58931 3.38662 0
M  V30 6410 H 607.325 2.07321 4.46407 0
M  V30 6411 N 608.977 -1.30795 0.87923 0
M  V30 6412 C 609.925 -2.30231 0.331112 0
M  V30 6413 C 610.919 -1.59918 -0.558794 0
M  V30 6414 O 612.125 -1.74441 -0.443866 0
M  V30 6415 H 608.5 -0.746785 0.088409 0
M  V30 6416 H 610.471 -2.73925 1.18353 0
M  V30 6417 C 609.22 -3.44848 -0.444401 0
M  V30 6418 H 608.543 -3.99131 0.231106 0
M  V30 6419 H 609.983 -4.16516 -0.793109 0
M  V30 6420 C 608.442 -2.94329 -1.63926 0
M  V30 6421 O 608.972 -2.93875 -2.73862 0
M  V30 6422 N 607.178 -2.50413 -1.4745 0
M  V30 6423 H 606.725 -2.50982 -0.58015 0
M  V30 6424 H 606.683 -2.16969 -2.27534 0
M  V30 6425 N 610.455 -0.639598 -1.44038 0
M  V30 6426 C 611.385 0.0469443 -2.33453 0
M  V30 6427 C 612.366 0.82609 -1.48694 0
M  V30 6428 O 613.551 0.790285 -1.77393 0
M  V30 6429 C 610.681 1.02338 -3.3188 0
M  V30 6430 C 609.635 0.355284 -4.26523 0
M  V30 6431 C 608.961 1.44221 -5.14883 0
M  V30 6432 C 610.261 -0.743798 -5.16977 0
M  V30 6433 H 611.955 -0.699735 -2.91108 0
M  V30 6434 H 609.501 -0.337946 -1.39978 0
M  V30 6435 H 611.454 1.51247 -3.93322 0
M  V30 6436 H 610.178 1.80105 -2.72451 0
M  V30 6437 H 608.837 -0.113239 -3.66425 0
M  V30 6438 H 608.485 2.21097 -4.51802 0
M  V30 6439 H 608.185 1.00052 -5.79019 0
M  V30 6440 H 609.709 1.93295 -5.79197 0
M  V30 6441 H 611.123 -0.337444 -5.72306 0
M  V30 6442 H 609.52 -1.10914 -5.89761 0
M  V30 6443 H 610.59 -1.60745 -4.57481 0
M  V30 6444 N 611.933 1.52934 -0.380664 0
M  V30 6445 C 613.349 1.59571 -0.0302429 0
M  V30 6446 C 613.549 1.39509 1.45394 0
M  V30 6447 O 612.605 1.20777 2.21741 0
M  V30 6448 C 613.918 2.96519 -0.499691 0
M  V30 6449 C 615.466 3.09672 -0.455204 0
M  V30 6450 C 615.941 4.49056 -0.900703 0
M  V30 6451 N 617.432 4.55215 -0.856367 0
M  V30 6452 C 618.167 5.61282 -1.17259 0
M  V30 6453 N 617.663 6.75035 -1.55885 0
M  V30 6454 N 619.456 5.51343 -1.0944 0
M  V30 6455 H 611.607 1.64224 -1.347 0
M  V30 6456 H 613.87 0.771033 -0.551554 0
M  V30 6457 H 613.576 3.16388 -1.53595 0
M  V30 6458 H 613.45 3.77052 0.105789 0
M  V30 6459 H 615.837 2.89504 0.571949 0
M  V30 6460 H 615.918 2.31113 -1.09638 0
M  V30 6461 H 615.562 4.69964 -1.92604 0
M  V30 6462 H 615.492 5.26068 -0.236629 0
M  V30 6463 H 617.983 3.73546 -0.572013 0
M  V30 6464 H 618.296 7.51926 -1.784 0
M  V30 6465 H 616.641 6.76388 -1.59764 0
M  V30 6466 H 619.832 4.61356 -0.791713 0
M  V30 6467 H 620.005 6.33905 -1.34417 0
M  V30 6468 N 613.412 0.11024 1.57214 0
M  V30 6469 C 614.661 -0.549638 1.94067 0
M  V30 6470 C 614.974 -1.68388 0.995234 0
M  V30 6471 O 616.18 -2.40593 1.25807 0
M  V30 6472 C 614.636 -1.02912 3.44873 0
M  V30 6473 C 614.244 0.0761861 4.47935 0
M  V30 6474 C 615.988 -1.66087 3.9066 0
M  V30 6475 C 613.895 -0.419502 5.8991 0
M  V30 6476 H 612.825 -0.209092 0.724428 0
M  V30 6477 H 615.476 0.188683 1.82527 0
M  V30 6478 H 613.858 -1.82159 3.51616 0
M  V30 6479 H 615.032 0.852185 4.52851 0
M  V30 6480 H 613.347 0.614052 4.11847 0
M  V30 6481 H 615.944 -2.04272 4.94143 0
M  V30 6482 H 616.287 -2.53591 3.30148 0
M  V30 6483 H 616.82 -0.933959 3.86681 0
M  V30 6484 H 613.559 0.419277 6.54158 0
M  V30 6485 H 613.079 -1.16217 5.88433 0
M  V30 6486 H 614.758 -0.883577 6.40938 0
M  V30 6487 N 614.89 -1.56749 -0.16351 0
M  V30 6488 C 616.139 -1.81626 -0.877211 0
M  V30 6489 C 616.452 -0.688791 -1.83071 0
M  V30 6490 O 617.658 -0.822697 -2.58735 0
M  V30 6491 C 616.114 -3.21858 -1.61045 0
M  V30 6492 C 615.722 -4.42494 -0.700195 0
M  V30 6493 C 617.466 -3.56021 -2.31192 0
M  V30 6494 C 615.373 -5.73748 -1.43412 0
M  V30 6495 H 614.303 -0.67731 -0.331312 0
M  V30 6496 H 616.954 -1.83039 -0.13006 0
M  V30 6497 H 615.336 -3.14784 -2.40264 0
M  V30 6498 H 616.51 -4.60766 0.0555849 0
M  V30 6499 H 614.825 -4.1626 -0.10799 0
M  V30 6500 H 617.422 -4.51333 -2.8671 0
M  V30 6501 H 617.765 -2.81277 -3.06902 0
M  V30 6502 H 618.298 -3.64682 -1.58909 0
M  V30 6503 H 615.037 -6.51543 -0.719186 0
M  V30 6504 H 614.557 -5.5944 -2.16302 0
M  V30 6505 H 616.236 -6.15975 -1.9795 0
M  V30 6506 N 616.368 0.432326 -1.51554 0
M  V30 6507 C 617.784 0.769195 -1.39841 0
M  V30 6508 C 617.984 1.95584 -0.484675 0
M  V30 6509 O 617.04 2.52433 0.0582829 0
M  V30 6510 C 618.353 1.04487 -2.81963 0
M  V30 6511 C 619.901 1.149 -2.91148 0
M  V30 6512 C 620.376 1.45758 -4.34187 0
M  V30 6513 N 621.867 1.52671 -4.37317 0
M  V30 6514 C 622.602 1.78129 -5.4503 0
M  V30 6515 N 622.098 2.01345 -6.62897 0
M  V30 6516 N 623.891 1.79953 -5.32516 0
M  V30 6517 H 616.042 -0.349122 -2.09511 0
M  V30 6518 H 618.305 -0.0938113 -0.943347 0
M  V30 6519 H 618.011 0.24557 -3.50842 0
M  V30 6520 H 617.885 1.97119 -3.21596 0
M  V30 6521 H 620.272 1.93891 -2.22464 0
M  V30 6522 H 620.353 0.201568 -2.55005 0
M  V30 6523 H 619.997 0.672917 -5.03423 0
M  V30 6524 H 619.927 2.41715 -4.67848 0
M  V30 6525 H 622.418 1.36612 -3.52343 0
M  V30 6526 H 622.731 2.20155 -7.40778 0
M  V30 6527 H 621.076 1.98657 -6.66003 0
M  V30 6528 H 624.267 1.61337 -4.39418 0
M  V30 6529 H 624.44 1.99455 -6.1654 0
M  V30 6530 N 617.846 1.41785 0.688094 0
M  V30 6531 C 619.076 1.44705 1.47459 0
M  V30 6532 C 619.484 0.052916 1.89126 0
M  V30 6533 O 618.827 -0.939781 1.57841 0
M  V30 6534 C 618.889 2.29935 2.76352 0
M  V30 6535 C 618.553 3.77996 2.56843 0
M  V30 6536 C 619.55 4.69976 2.22304 0
M  V30 6537 C 617.235 4.2212 2.7225 0
M  V30 6538 C 619.229 6.04068 2.03421 0
M  V30 6539 C 616.916 5.56275 2.52985 0
M  V30 6540 C 617.914 6.47065 2.18621 0
M  V30 6541 O 617.602 7.78744 1.9953 0
M  V30 6542 H 617.334 0.494703 0.460701 0
M  V30 6543 H 619.888 1.86802 0.854057 0
M  V30 6544 H 618.118 1.82664 3.40839 0
M  V30 6545 H 619.807 2.24467 3.38186 0
M  V30 6546 H 620.573 4.37175 2.10008 0
M  V30 6547 H 616.452 3.51752 2.97979 0
M  V30 6548 H 619.996 6.74897 1.76523 0
M  V30 6549 H 615.893 5.88653 2.64873 0
M  V30 6550 H 616.661 7.89966 2.14234 0
M  V30 6551 N 619.324 -0.923095 1.27737 0
M  V30 6552 C 620.564 -1.6858 1.15586 0
M  V30 6553 C 620.928 -1.89758 -0.292562 0
M  V30 6554 O 622.129 -2.6339 -0.536583 0
M  V30 6555 C 620.4 -3.01275 1.92271 0
M  V30 6556 S 621.959 -3.924 1.96387 0
M  V30 6557 H 618.777 -0.579069 0.412554 0
M  V30 6558 H 621.379 -1.09866 1.61709 0
M  V30 6559 H 620.083 -2.83556 2.96689 0
M  V30 6560 H 619.614 -3.6504 1.46661 0
M  V30 6561 H 621.629 -4.84667 1.06361 0
M  V30 6562 N 620.802 -1.09834 -1.13024 0
M  V30 6563 C 622.048 -0.83819 -1.84668 0
M  V30 6564 C 622.381 0.634645 -1.83537 0
M  V30 6565 O 621.656 1.46753 -1.27647 0
M  V30 6566 C 621.939 -1.37933 -3.32636 0
M  V30 6567 C 621.792 -2.91857 -3.42257 0
M  V30 6568 C 623.111 -1.01654 -4.28199 0
M  V30 6569 H 620.23 -0.30595 -0.670495 0
M  V30 6570 H 622.872 -1.36044 -1.32635 0
M  V30 6571 H 621.022 -0.935111 -3.77078 0
M  V30 6572 H 622.694 -3.44759 -3.06495 0
M  V30 6573 H 620.937 -3.28776 -2.83 0
M  V30 6574 H 621.608 -3.24799 -4.46329 0
M  V30 6575 H 624.084 -1.39973 -3.9185 0
M  V30 6576 H 622.96 -1.42217 -5.30156 0
M  V30 6577 H 623.221 0.0747794 -4.42037 0
M  V30 6578 N 622.28 1.30327 -0.886154 0
M  V30 6579 C 623.227 2.28099 -0.352069 0
M  V30 6580 C 624.197 1.56433 0.558397 0
M  V30 6581 O 625.382 1.84492 0.486561 0
M  V30 6582 C 622.522 3.42456 0.426346 0
M  V30 6583 C 621.635 4.28938 -0.513472 0
M  V30 6584 C 620.77 5.30458 0.280657 0
M  V30 6585 C 619.809 6.0859 -0.654556 0
M  V30 6586 N 618.946 7.02022 0.104322 0
M  V30 6587 H 623.786 2.73166 -1.19097 0
M  V30 6588 H 621.323 1.34367 -0.598662 0
M  V30 6589 H 623.281 4.07518 0.893587 0
M  V30 6590 H 621.911 2.98455 1.22981 0
M  V30 6591 H 620.963 3.64173 -1.09921 0
M  V30 6592 H 622.275 4.83399 -1.2299 0
M  V30 6593 H 621.429 6.01273 0.8097 0
M  V30 6594 H 620.168 4.76693 1.03029 0
M  V30 6595 H 619.173 5.36651 -1.19522 0
M  V30 6596 H 620.398 6.64443 -1.4033 0
M  V30 6597 H 618.344 6.50645 0.836472 0
M  V30 6598 H 618.261 7.53979 -0.552453 0
M  V30 6599 H 619.529 7.77077 0.614069 0
M  V30 6600 N 623.758 0.647228 1.43697 0
M  V30 6601 C 624.988 0.16551 2.05936 0
M  V30 6602 C 625.396 -1.17164 1.48557 0
M  V30 6603 O 624.739 -1.73307 0.60914 0
M  V30 6604 C 624.801 -0.00648082 3.59499 0
M  V30 6605 C 624.465 1.25503 4.39429 0
M  V30 6606 C 625.462 2.18241 4.71876 0
M  V30 6607 C 623.147 1.49494 4.79538 0
M  V30 6608 C 625.141 3.33268 5.43333 0
M  V30 6609 C 622.828 2.64815 5.50742 0
M  V30 6610 C 623.826 3.56528 5.82561 0
M  V30 6611 O 623.514 4.69836 6.52311 0
M  V30 6612 H 623.246 0.0844124 0.670709 0
M  V30 6613 H 625.8 0.88638 1.8529 0
M  V30 6614 H 624.03 -0.782661 3.78697 0
M  V30 6615 H 625.719 -0.444794 4.03456 0
M  V30 6616 H 626.485 2.00946 4.41413 0
M  V30 6617 H 622.364 0.789912 4.54182 0
M  V30 6618 H 625.908 4.04874 5.68087 0
M  V30 6619 H 621.805 2.82047 5.8062 0
M  V30 6620 H 622.573 4.69024 6.70789 0
M  V30 6621 N 625.236 -1.5273 0.388769 0
M  V30 6622 C 626.652 -1.59553 0.0387049 0
M  V30 6623 C 626.852 -1.40278 -1.44652 0
M  V30 6624 O 625.908 -1.21951 -2.21098 0
M  V30 6625 C 627.221 -2.9625 0.515409 0
M  V30 6626 C 628.769 -3.09426 0.471621 0
M  V30 6627 C 629.244 -4.48572 0.924505 0
M  V30 6628 N 630.735 -4.54754 0.880496 0
M  V30 6629 C 631.47 -5.60653 1.20234 0
M  V30 6630 N 630.966 -6.74198 1.59463 0
M  V30 6631 N 632.759 -5.50755 1.12363 0
M  V30 6632 H 624.91 -1.63508 1.35569 0
M  V30 6633 H 627.173 -0.768097 0.555636 0
M  V30 6634 H 626.879 -3.15569 1.5527 0
M  V30 6635 H 626.753 -3.77102 -0.085792 0
M  V30 6636 H 629.14 -2.89804 -0.556588 0
M  V30 6637 H 629.221 -2.30528 1.10862 0
M  V30 6638 H 628.865 -4.68936 1.95094 0
M  V30 6639 H 628.795 -5.25935 0.264524 0
M  V30 6640 H 631.286 -3.73237 0.591815 0
M  V30 6641 H 631.599 -7.5097 1.82385 0
M  V30 6642 H 629.944 -6.75531 1.63349 0
M  V30 6643 H 633.135 -4.6093 0.816169 0
M  V30 6644 H 633.308 -6.33184 1.37777 0
M  V30 6645 N 626.714 -0.118576 -1.57153 0
M  V30 6646 C 627.661 0.831789 -2.1529 0
M  V30 6647 C 628.631 1.26385 -1.07778 0
M  V30 6648 O 629.816 1.34144 -1.35684 0
M  V30 6649 C 626.956 2.07664 -2.75626 0
M  V30 6650 C 626.069 1.69298 -3.97444 0
M  V30 6651 C 625.204 2.88747 -4.45868 0
M  V30 6652 C 624.243 2.46619 -5.60219 0
M  V30 6653 N 623.38 3.5898 -6.03389 0
M  V30 6654 H 628.22 0.329183 -2.96176 0
M  V30 6655 H 625.757 0.150792 -1.46325 0
M  V30 6656 H 627.715 2.80601 -3.08738 0
M  V30 6657 H 626.345 2.55384 -1.97431 0
M  V30 6658 H 625.397 0.862374 -3.70496 0
M  V30 6659 H 626.709 1.34338 -4.80369 0
M  V30 6660 H 625.863 3.69909 -4.80887 0
M  V30 6661 H 624.602 3.26933 -3.61892 0
M  V30 6662 H 623.607 1.63889 -5.24805 0
M  V30 6663 H 624.832 2.0955 -6.45961 0
M  V30 6664 H 622.778 3.9684 -5.22354 0
M  V30 6665 H 622.695 3.27942 -6.81168 0
M  V30 6666 H 623.963 4.40583 -6.43045 0
M  V30 6667 N 628.193 1.56834 0.155195 0
M  V30 6668 C 629.609 1.51315 0.50755 0
M  V30 6669 C 629.809 0.825614 1.83809 0
M  V30 6670 O 628.865 0.39271 2.49427 0
M  V30 6671 C 630.178 2.96074 0.52542 0
M  V30 6672 C 631.726 3.06968 0.611505 0
M  V30 6673 C 632.201 4.53218 0.660115 0
M  V30 6674 N 633.692 4.5753 0.722564 0
M  V30 6675 C 634.427 5.68056 0.781023 0
M  V30 6676 N 633.923 6.88173 0.799327 0
M  V30 6677 N 635.716 5.56068 0.821278 0
M  V30 6678 H 627.867 1.9993 -0.717063 0
M  V30 6679 H 630.13 0.911507 -0.260496 0
M  V30 6680 H 629.836 3.49599 -0.383875 0
M  V30 6681 H 629.71 3.51587 1.36624 0
M  V30 6682 H 632.097 2.53468 1.51122 0
M  V30 6683 H 632.178 2.54513 -0.256306 0
M  V30 6684 H 631.822 5.07354 -0.23541 0
M  V30 6685 H 631.752 5.03447 1.5443 0
M  V30 6686 H 634.243 3.71054 0.716049 0
M  V30 6687 H 634.556 7.6816 0.845553 0
M  V30 6688 H 632.901 6.90751 0.767337 0
M  V30 6689 H 636.092 4.61142 0.804091 0
M  V30 6690 H 636.265 6.42223 0.863372 0
M  V30 6691 N 629.671 -0.424282 1.51781 0
M  V30 6692 C 630.92 -1.16961 1.64326 0
M  V30 6693 C 631.233 -1.92035 0.371749 0
M  V30 6694 O 632.439 -2.68873 0.37676 0
M  V30 6695 C 630.895 -2.12782 2.90262 0
M  V30 6696 C 630.503 -1.43295 4.24465 0
M  V30 6697 C 632.247 -2.87667 3.12166 0
M  V30 6698 C 630.154 -2.37676 5.41538 0
M  V30 6699 H 629.084 -0.440293 0.612093 0
M  V30 6700 H 631.735 -0.435431 1.78259 0
M  V30 6701 H 630.117 -2.8969 2.69992 0
M  V30 6702 H 631.291 -0.718564 4.55163 0
M  V30 6703 H 629.606 -0.805118 4.08542 0
M  V30 6704 H 632.203 -3.58395 3.96808 0
M  V30 6705 H 632.546 -3.49758 2.25776 0
M  V30 6706 H 633.079 -2.17863 3.32837 0
M  V30 6707 H 629.818 -1.80255 6.30229 0
M  V30 6708 H 629.338 -3.07132 5.15199 0
M  V30 6709 H 631.017 -2.98529 5.74012 0
M  V30 6710 N 631.149 -1.42148 -0.680565 0
M  V30 6711 C 632.398 -1.41604 -1.43636 0
M  V30 6712 C 632.711 -0.0337887 -1.95571 0
M  V30 6713 O 633.917 0.0942588 -2.71336 0
M  V30 6714 C 632.373 -2.49056 -2.59806 0
M  V30 6715 C 631.981 -3.9326 -2.14594 0
M  V30 6716 C 633.725 -2.5767 -3.37352 0
M  V30 6717 C 631.632 -4.92232 -3.27813 0
M  V30 6718 H 630.562 -0.526656 -0.539583 0
M  V30 6719 H 633.213 -1.68033 -0.737369 0
M  V30 6720 H 631.595 -2.15782 -3.32045 0
M  V30 6721 H 632.769 -4.35858 -1.49546 0
M  V30 6722 H 631.084 -3.88443 -1.50002 0
M  V30 6723 H 633.681 -3.28794 -4.21662 0
M  V30 6724 H 634.024 -1.61837 -3.83555 0
M  V30 6725 H 634.557 -2.90109 -2.72179 0
M  V30 6726 H 631.296 -5.89522 -2.86607 0
M  V30 6727 H 630.816 -4.5427 -3.91661 0
M  V30 6728 H 632.495 -5.13684 -3.93367 0
M  V30 6729 N 632.627 0.916307 -1.28225 0
M  V30 6730 C 633.874 1.66518 -1.1523 0
M  V30 6731 C 634.202 1.92178 0.299632 0
M  V30 6732 O 633.457 1.51842 1.2346 0
M  V30 6733 C 633.756 3.03125 -1.8934 0
M  V30 6734 C 633.422 2.97135 -3.39148 0
M  V30 6735 C 632.084 2.95208 -3.80007 0
M  V30 6736 C 634.436 2.87574 -4.34685 0
M  V30 6737 C 631.764 2.81518 -5.14747 0
M  V30 6738 C 634.116 2.75424 -5.69495 0
M  V30 6739 C 632.78 2.71854 -6.09632 0
M  V30 6740 H 632.05 0.609334 -0.421655 0
M  V30 6741 H 634.697 1.06776 -1.58969 0
M  V30 6742 H 633.002 3.66639 -1.38143 0
M  V30 6743 H 634.699 3.59968 -1.76704 0
M  V30 6744 H 631.289 2.99428 -3.06661 0
M  V30 6745 H 635.473 2.88152 -4.04082 0
M  V30 6746 H 630.729 2.77148 -5.44976 0
M  V30 6747 H 634.903 2.66993 -6.43185 0
M  V30 6748 H 632.53 2.61003 -7.1399 0
M  V30 6749 N 634.105 1.10431 1.1244 0
M  V30 6750 C 635.516 0.864439 1.65482 0
M  V30 6751 C 635.867 -0.60527 1.8663 0
M  V30 6752 O 634.992 -1.46492 1.59276 0
M  V30 6753 C 635.587 1.56267 3.0061 0
M  V30 6754 C 634.146 1.3695 3.50602 0
M  V30 6755 C 633.293 1.61209 2.25626 0
M  V30 6756 H 636.244 1.26203 0.962209 0
M  V30 6757 H 636.265 1.00166 3.67079 0
M  V30 6758 H 635.777 2.63231 2.85186 0
M  V30 6759 H 633.878 0.321481 3.71211 0
M  V30 6760 H 633.991 2.11143 4.30064 0
M  V30 6761 H 632.355 1.03482 2.32731 0
M  V30 6762 H 633.138 2.69425 2.12756 0
M  V30 6763 N 635.583 -1.29855 0.893053 0
M  V30 6764 C 636.808 -2.00512 0.530066 0
M  V30 6765 C 637.233 -1.66446 -0.876199 0
M  V30 6766 O 636.591 -0.885446 -1.58207 0
M  V30 6767 C 636.639 -3.53308 0.721505 0
M  V30 6768 O 635.743 -4.11764 -0.228994 0
M  V30 6769 H 635.084 -0.630617 0.207891 0
M  V30 6770 H 637.614 -1.6551 1.20282 0
M  V30 6771 H 637.624 -4.03206 0.623599 0
M  V30 6772 H 636.299 -3.77439 1.74678 0
M  V30 6773 H 634.876 -3.72805 -0.0841034 0
M  V30 6774 N 637.061 -0.65484 -1.43351 0
M  V30 6775 C 638.289 -0.176685 -2.06144 0
M  V30 6776 C 638.704 1.15831 -1.49093 0
M  V30 6777 O 638.061 1.71542 -0.622868 0
M  V30 6778 C 638.112 -0.0813326 -3.61408 0
M  V30 6779 O 637.833 -1.36355 -4.1634 0
M  V30 6780 C 639.334 0.422706 -4.4128 0
M  V30 6781 H 636.554 -0.0906429 -0.66485 0
M  V30 6782 H 639.098 -0.895945 -1.83829 0
M  V30 6783 H 637.253 0.588496 -3.82904 0
M  V30 6784 H 637.667 -1.22381 -5.10023 0
M  V30 6785 H 639.141 0.438375 -5.50257 0
M  V30 6786 H 639.618 1.45432 -4.14423 0
M  V30 6787 H 640.224 -0.214687 -4.24758 0
M  V30 6788 N 638.539 1.52521 -0.396863 0
M  V30 6789 C 639.764 2.06571 0.185258 0
M  V30 6790 C 640.189 1.26605 1.39115 0
M  V30 6791 O 639.547 0.293055 1.78916 0
M  V30 6792 C 639.595 3.5674 0.526189 0
M  V30 6793 O 638.699 3.7929 1.61903 0
M  V30 6794 H 638.04 0.663712 0.0195474 0
M  V30 6795 H 640.57 1.966 -0.566519 0
M  V30 6796 H 640.58 4.00311 0.788338 0
M  V30 6797 H 639.255 4.14379 -0.355397 0
M  V30 6798 H 637.832 3.47605 1.35 0
M  V30 6799 N 640.017 0.126909 1.57088 0
M  V30 6800 C 640.927 -0.833867 2.1928 0
M  V30 6801 C 641.943 -1.2868 1.17122 0
M  V30 6802 O 643.119 -1.34815 1.49622 0
M  V30 6803 C 640.184 -2.0632 2.78627 0
M  V30 6804 C 639.245 -1.66143 3.95847 0
M  V30 6805 C 638.478 -2.83217 4.52354 0
M  V30 6806 O 638.701 -3.98868 4.0775 0
M  V30 6807 O 637.635 -2.59846 5.42922 0
M  V30 6808 H 641.461 -0.334564 3.01852 0
M  V30 6809 H 639.046 -0.0991091 1.49071 0
M  V30 6810 H 640.928 -2.78304 3.16425 0
M  V30 6811 H 639.603 -2.55242 1.99082 0
M  V30 6812 H 638.51 -0.912435 3.62802 0
M  V30 6813 H 639.843 -1.21957 4.76852 0
M  V30 6814 N 641.495 -1.56914 -0.146875 0
M  V30 6815 C 642.741 -1.83628 -0.860741 0
M  V30 6816 C 643.074 -0.708528 -1.80813 0
M  V30 6817 O 642.349 0.287838 -1.92358 0
M  V30 6818 C 642.632 -3.20836 -1.63511 0
M  V30 6819 C 642.485 -4.44174 -0.709199 0
M  V30 6820 C 643.804 -3.55268 -2.59756 0
M  V30 6821 H 640.923 -0.667949 -0.311468 0
M  V30 6822 H 643.565 -1.89582 -0.125936 0
M  V30 6823 H 641.715 -3.15891 -2.26153 0
M  V30 6824 H 643.387 -4.61205 -0.0937781 0
M  V30 6825 H 641.63 -4.33796 -0.0187856 0
M  V30 6826 H 642.301 -5.36785 -1.28707 0
M  V30 6827 H 644.777 -3.60824 -2.07232 0
M  V30 6828 H 643.653 -4.52303 -3.10987 0
M  V30 6829 H 643.914 -2.81231 -3.41118 0
M  V30 6830 N 642.974 0.416227 -1.52004 0
M  V30 6831 C 644.204 1.18401 -1.69307 0
M  V30 6832 C 644.612 1.84943 -0.399072 0
M  V30 6833 O 643.955 1.72406 0.634177 0
M  V30 6834 C 644.017 2.29465 -2.76742 0
M  V30 6835 C 643.681 1.83117 -4.18709 0
M  V30 6836 C 644.678 1.32286 -5.02789 0
M  V30 6837 C 642.363 1.90167 -4.64911 0
M  V30 6838 C 644.357 0.891178 -6.31139 0
M  V30 6839 C 642.044 1.4661 -5.93253 0
M  V30 6840 C 643.042 0.961696 -6.76196 0
M  V30 6841 O 642.73 0.532388 -8.02135 0
M  V30 6842 H 642.462 0.362098 -0.570843 0
M  V30 6843 H 645.016 0.496764 -1.99302 0
M  V30 6844 H 643.246 3.01531 -2.42107 0
M  V30 6845 H 644.935 2.91252 -2.82713 0
M  V30 6846 H 645.701 1.26218 -4.68288 0
M  V30 6847 H 641.58 2.28371 -4.00459 0
M  V30 6848 H 645.124 0.496788 -6.95829 0
M  V30 6849 H 641.021 1.52355 -6.27263 0
M  V30 6850 H 641.789 0.656339 -8.15864 0
M  V30 6851 N 644.452 1.42507 0.673017 0
M  V30 6852 C 645.7 1.42789 1.43023 0
M  V30 6853 C 646.021 0.0459738 1.94946 0
M  V30 6854 O 645.291 -0.915765 1.73178 0
M  V30 6855 H 643.871 0.525657 0.530748 0
M  V30 6856 H 646.533 1.77944 0.795113 0
M  V30 6857 H 645.629 2.12872 2.28237 0
M  V30 6858 N 645.93 -0.909495 1.28709 0
M  V30 6859 C 646.863 -2.01388 1.07323 0
M  V30 6860 C 647.841 -1.62596 -0.0119757 0
M  V30 6861 O 649.025 -1.88003 0.136796 0
M  V30 6862 C 646.152 -3.32755 0.631797 0
M  V30 6863 C 645.198 -3.90532 1.71428 0
M  V30 6864 S 646.031 -4.20853 3.31124 0
M  V30 6865 C 647.187 -5.55276 2.88825 0
M  V30 6866 H 647.42 -2.19219 2.00824 0
M  V30 6867 H 644.953 -1.05489 1.12745 0
M  V30 6868 H 646.911 -4.08702 0.38381 0
M  V30 6869 H 645.572 -3.12818 -0.283451 0
M  V30 6870 H 644.765 -4.85385 1.35712 0
M  V30 6871 H 644.367 -3.21237 1.91528 0
M  V30 6872 H 646.659 -6.35341 2.3526 0
M  V30 6873 H 647.602 -5.95907 3.82492 0
M  V30 6874 H 648.01 -5.16666 2.27412 0
M  V30 6875 N 647.408 -1.11026 -1.11852 0
M  V30 6876 C 648.648 -0.866348 -1.85132 0
M  V30 6877 C 649.012 0.597236 -1.82475 0
M  V30 6878 O 650.213 0.957744 -2.51159 0
M  V30 6879 C 648.484 -1.40721 -3.28531 0
M  V30 6880 S 650.043 -1.29964 -4.19112 0
M  V30 6881 H 646.861 -0.312899 -0.638447 0
M  V30 6882 H 649.463 -1.41691 -1.34699 0
M  V30 6883 H 648.167 -2.46631 -3.28027 0
M  V30 6884 H 647.698 -0.85349 -3.8403 0
M  V30 6885 H 649.713 -0.261333 -4.95511 0
M  V30 6886 N 648.886 1.2938 -0.899927 0
M  V30 6887 C 650.111 2.00228 -0.540692 0
M  V30 6888 C 650.536 1.66909 0.867359 0
M  V30 6889 O 649.894 0.893824 1.57735 0
M  V30 6890 C 649.942 3.52921 -0.740232 0
M  V30 6891 O 649.046 4.11879 0.207154 0
M  V30 6892 H 648.387 0.629505 -0.211233 0
M  V30 6893 H 650.917 1.6487 -1.21158 0
M  V30 6894 H 650.927 4.0287 -0.644973 0
M  V30 6895 H 649.602 3.76508 -1.76677 0
M  V30 6896 H 648.179 3.72845 0.0643315 0
M  V30 6897 N 650.364 0.662433 1.43002 0
M  V30 6898 C 651.641 0.109096 1.95296 0
M  V30 6899 C 652.021 -1.37313 1.60338 0
M  V30 6900 O 651.369 -2.1032 0.893187 0
M  V30 6901 C 651.579 0.365096 3.47085 0
M  V30 6902 C 652.927 0.274964 4.23709 0
M  V30 6903 O 653.951 0.29816 3.5495 0
M  V30 6904 O 652.81 0.206549 5.4611 0
M  V30 6905 H 649.904 -0.00429724 0.826989 0
M  V30 6906 H 652.45 0.736308 1.52894 0
M  V30 6907 H 651.222 1.39237 3.65689 0
M  V30 6908 H 650.845 -0.294733 3.96506 0
M  V30 6909 N 651.842 -1.52309 0.404946 0
M  V30 6910 C 652.789 -2.26898 -0.422597 0
M  V30 6911 C 653.759 -1.2914 -1.04461 0
M  V30 6912 O 654.944 -1.57996 -1.06967 0
M  V30 6913 C 652.084 -3.09053 -1.53559 0
M  V30 6914 C 651.197 -4.21762 -0.934908 0
M  V30 6915 C 650.332 -4.91283 -2.02025 0
M  V30 6916 C 649.371 -5.95962 -1.39628 0
M  V30 6917 N 648.508 -6.59017 -2.42159 0
M  V30 6918 H 653.348 -2.97188 0.219903 0
M  V30 6919 H 650.885 -1.46607 0.120282 0
M  V30 6920 H 652.843 -3.54987 -2.19181 0
M  V30 6921 H 651.473 -2.40942 -2.14818 0
M  V30 6922 H 650.525 -3.80029 -0.167854 0
M  V30 6923 H 651.837 -4.96864 -0.439073 0
M  V30 6924 H 650.991 -5.40601 -2.75383 0
M  V30 6925 H 649.73 -4.15741 -2.54973 0
M  V30 6926 H 648.735 -5.45968 -0.648023 0
M  V30 6927 H 649.96 -6.73445 -0.874553 0
M  V30 6928 H 647.906 -5.86306 -2.94247 0
M  V30 6929 H 647.823 -7.2978 -1.97376 0
M  V30 6930 H 649.091 -7.12974 -3.15099 0
M  V30 6931 N 653.32 -0.135238 -1.57019 0
M  V30 6932 C 654.55 0.525303 -1.9981 0
M  V30 6933 C 654.958 1.59724 -1.01415 0
M  V30 6934 O 654.301 1.837 -0.00130938 0
M  V30 6935 C 654.363 1.19578 -3.3903 0
M  V30 6936 C 654.027 0.269855 -4.56203 0
M  V30 6937 C 655.024 -0.497905 -5.1751 0
M  V30 6938 C 652.709 0.176188 -5.01991 0
M  V30 6939 C 654.703 -1.3469 -6.23007 0
M  V30 6940 C 652.39 -0.676422 -6.07345 0
M  V30 6941 C 653.388 -1.43658 -6.67721 0
M  V30 6942 O 653.076 -2.27501 -7.71037 0
M  V30 6943 H 652.808 0.142296 -0.660854 0
M  V30 6944 H 655.362 -0.223272 -2.04183 0
M  V30 6945 H 653.592 1.99176 -3.3146 0
M  V30 6946 H 655.281 1.75486 -3.66005 0
M  V30 6947 H 656.047 -0.435507 -4.83041 0
M  V30 6948 H 651.926 0.757583 -4.54733 0
M  V30 6949 H 655.47 -1.9407 -6.70062 0
M  V30 6950 H 651.367 -0.740154 -6.41243 0
M  V30 6951 H 652.135 -2.20619 -7.88206 0
M  V30 6952 N 654.798 1.5699 0.138552 0
M  V30 6953 C 656.045 1.83809 0.849732 0
M  V30 6954 C 656.373 0.717409 1.80786 0
M  V30 6955 O 655.628 -0.292897 1.93496 0
M  V30 6956 C 655.927 3.17007 1.65049 0
M  V30 6957 C 655.593 4.43037 0.838398 0
M  V30 6958 C 654.255 4.77262 0.614385 0
M  V30 6959 C 656.607 5.20495 0.271044 0
M  V30 6960 C 653.935 5.864 -0.187552 0
M  V30 6961 C 656.287 6.30476 -0.517979 0
M  V30 6962 C 654.951 6.63245 -0.75249 0
M  V30 6963 H 654.221 0.672605 0.310939 0
M  V30 6964 H 656.868 1.91166 0.112971 0
M  V30 6965 H 655.173 3.05138 2.4576 0
M  V30 6966 H 656.87 3.34975 2.20437 0
M  V30 6967 H 653.46 4.16211 1.02307 0
M  V30 6968 H 657.644 4.94422 0.431371 0
M  V30 6969 H 652.9 6.10226 -0.378659 0
M  V30 6970 H 657.074 6.89686 -0.964694 0
M  V30 6971 H 654.701 7.47648 -1.37573 0
M  V30 6972 N 656.276 -0.40816 1.52223 0
M  V30 6973 C 657.553 -1.16807 1.56893 0
M  V30 6974 C 657.933 -2.08169 0.350537 0
M  V30 6975 O 657.281 -2.18684 -0.662536 0
M  V30 6976 C 657.491 -1.94451 2.8981 0
M  V30 6977 C 658.839 -2.50484 3.42845 0
M  V30 6978 O 659.863 -2.0463 2.91556 0
M  V30 6979 O 658.722 -3.34192 4.3241 0
M  V30 6980 H 655.816 -0.533382 0.632007 0
M  V30 6981 H 658.362 -0.414862 1.64551 0
M  V30 6982 H 657.134 -1.27527 3.69936 0
M  V30 6983 H 656.757 -2.76775 2.85449 0
M  V30 6984 N 657.755 -1.42862 -0.66545 0
M  V30 6985 C 658.665 -1.49491 -1.80803 0
M  V30 6986 C 659.681 -0.382914 -1.69734 0
M  V30 6987 O 660.857 -0.635223 -1.9112 0
M  V30 6988 C 657.922 -1.40383 -3.17007 0
M  V30 6989 C 656.983 -2.62152 -3.39963 0
M  V30 6990 C 656.216 -2.53469 -4.69669 0
M  V30 6991 O 656.439 -1.57568 -5.48205 0
M  V30 6992 O 655.373 -3.43763 -4.94075 0
M  V30 6993 H 659.199 -2.45949 -1.78165 0
M  V30 6994 H 656.784 -1.24728 -0.822387 0
M  V30 6995 H 658.666 -1.377 -3.98267 0
M  V30 6996 H 657.341 -0.470546 -3.20262 0
M  V30 6997 H 656.248 -2.70409 -2.58515 0
M  V30 6998 H 657.581 -3.54411 -3.41546 0
M  V30 6999 N 659.233 0.902656 -1.29189 0
M  V30 7000 C 660.51 1.63296 -1.07674 0
M  V30 7001 C 660.89 2.07649 0.380137 0
M  V30 7002 O 660.238 1.82997 1.36837 0
M  V30 7003 C 660.448 2.81603 -2.06158 0
M  V30 7004 C 661.796 3.52359 -2.36914 0
M  V30 7005 O 662.82 2.91767 -2.04329 0
M  V30 7006 O 661.679 4.61586 -2.92576 0
M  V30 7007 H 658.773 0.716889 -0.41231 0
M  V30 7008 H 661.319 0.950984 -1.4055 0
M  V30 7009 H 660.091 2.46004 -3.04299 0
M  V30 7010 H 659.714 3.57508 -1.73993 0
M  V30 7011 N 660.711 1.11618 1.11262 0
M  V30 7012 C 661.661 0.745274 2.15475 0
M  V30 7013 C 662.645 -0.251585 1.58921 0
M  V30 7014 O 663.837 -0.0584093 1.76904 0
M  V30 7015 C 660.966 0.192128 3.42762 0
M  V30 7016 C 660.052 1.21676 4.0627 0
M  V30 7017 N 660.443 2.41158 4.44608 0
M  V30 7018 C 658.741 1.06013 4.33217 0
M  V30 7019 C 659.442 3.0652 4.94389 0
M  V30 7020 N 658.418 2.33994 4.9066 0
M  V30 7021 H 662.22 1.65462 2.42898 0
M  V30 7022 H 659.734 0.995695 1.28295 0
M  V30 7023 H 661.731 -0.0917339 4.16799 0
M  V30 7024 H 660.391 -0.711778 3.16802 0
M  V30 7025 H 661.402 2.786 4.3658 0
M  V30 7026 H 658.079 0.212809 4.16957 0
M  V30 7027 H 659.469 4.08225 5.33669 0
M  V30 7028 N 662.189 -1.289 0.906776 0
M  V30 7029 C 663.414 -1.99939 0.551303 0
M  V30 7030 C 663.839 -1.67366 -0.858496 0
M  V30 7031 O 663.197 -0.902176 -1.57259 0
M  V30 7032 C 663.245 -3.52523 0.758937 0
M  V30 7033 O 662.349 -4.11983 -0.185308 0
M  V30 7034 H 661.69 -0.628376 0.214568 0
M  V30 7035 H 664.22 -1.64225 1.2203 0
M  V30 7036 H 664.23 -4.02522 0.666329 0
M  V30 7037 H 662.905 -3.75566 1.78671 0
M  V30 7038 H 661.482 -3.72873 -0.0445577 0
M  V30 7039 N 663.667 -0.670007 -1.42649 0
M  V30 7040 C 664.615 0.0230106 -2.32589 0
M  V30 7041 C 665.609 0.795585 -1.49555 0
M  V30 7042 O 666.815 0.70409 -1.65658 0
M  V30 7043 H 663.19 0.0262342 -0.751542 0
M  V30 7044 H 665.161 -0.753009 -2.88743 0
M  V30 7045 C 663.91 0.963872 -3.34073 0
M  V30 7046 H 663.233 0.378813 -3.98001 0
M  V30 7047 H 664.673 1.41755 -3.99602 0
M  V30 7048 C 663.132 2.06797 -2.65964 0
M  V30 7049 O 663.662 3.15383 -2.48789 0
M  V30 7050 N 661.868 1.83831 -2.25066 0
M  V30 7051 H 661.415 0.955235 -2.39234 0
M  V30 7052 H 661.373 2.57895 -1.79827 0
M  V30 7053 N 665.145 1.52092 -0.413018 0
M  V30 7054 C 666.075 2.30021 0.401567 0
M  V30 7055 C 667.056 1.34395 1.04269 0
M  V30 7056 O 668.241 1.63304 1.05097 0
M  V30 7057 C 665.371 3.12447 1.51638 0
M  V30 7058 C 664.325 4.16153 1.00005 0
M  V30 7059 C 663.651 4.86948 2.20875 0
M  V30 7060 C 664.951 5.22275 0.0513757 0
M  V30 7061 H 666.645 2.98365 -0.248704 0
M  V30 7062 H 664.191 1.4349 -0.121052 0
M  V30 7063 H 666.144 3.65733 2.09326 0
M  V30 7064 H 664.868 2.41879 2.19458 0
M  V30 7065 H 663.527 3.63882 0.445549 0
M  V30 7066 H 663.175 4.12905 2.8726 0
M  V30 7067 H 662.875 5.57057 1.86978 0
M  V30 7068 H 664.399 5.43048 2.79162 0
M  V30 7069 H 665.813 5.70778 0.537176 0
M  V30 7070 H 664.21 5.9977 -0.198977 0
M  V30 7071 H 665.28 4.76611 -0.892736 0
M  V30 7072 N 666.623 0.143563 1.56945 0
M  V30 7073 C 667.872 -0.50835 1.95189 0
M  V30 7074 C 668.185 -1.66239 1.03073 0
M  V30 7075 O 669.391 -2.3787 1.30882 0
M  V30 7076 C 667.847 -0.955735 3.46978 0
M  V30 7077 C 667.455 0.171183 4.47673 0
M  V30 7078 C 669.199 -1.57763 3.94095 0
M  V30 7079 C 667.106 -0.294279 5.90667 0
M  V30 7080 H 666.036 -0.193679 0.728701 0
M  V30 7081 H 668.687 0.227357 1.82086 0
M  V30 7082 H 667.069 -1.7466 3.55401 0
M  V30 7083 H 668.243 0.948049 4.50942 0
M  V30 7084 H 666.558 0.701273 4.10452 0
M  V30 7085 H 669.155 -1.93745 4.98364 0
M  V30 7086 H 669.498 -2.46531 3.35452 0
M  V30 7087 H 670.031 -0.851728 3.88575 0
M  V30 7088 H 666.77 0.557939 6.53121 0
M  V30 7089 H 666.29 -1.0371 5.90766 0
M  V30 7090 H 667.969 -0.747426 6.42668 0
M  V30 7091 N 668.101 -1.57061 -0.130224 0
M  V30 7092 C 669.347 -1.8453 -0.841216 0
M  V30 7093 C 669.68 -0.727666 -1.80052 0
M  V30 7094 O 668.955 0.267419 -1.92653 0
M  V30 7095 C 669.238 -3.22553 -1.60099 0
M  V30 7096 C 669.091 -4.44901 -0.662048 0
M  V30 7097 C 670.41 -3.58003 -2.55973 0
M  V30 7098 H 667.529 -0.671215 -0.304366 0
M  V30 7099 H 670.171 -1.89705 -0.105821 0
M  V30 7100 H 668.321 -3.18272 -2.22789 0
M  V30 7101 H 669.993 -4.61278 -0.0448559 0
M  V30 7102 H 668.236 -4.33791 0.0272253 0
M  V30 7103 H 668.907 -5.3812 -1.23006 0
M  V30 7104 H 671.383 -3.63002 -2.03393 0
M  V30 7105 H 670.259 -4.55576 -3.06172 0
M  V30 7106 H 670.52 -2.84833 -3.38116 0
M  V30 7107 N 669.579 0.400081 -1.52437 0
M  V30 7108 C 670.827 1.14392 -1.6661 0
M  V30 7109 C 671.148 1.90792 -0.402927 0
M  V30 7110 O 670.418 1.87042 0.582425 0
M  V30 7111 H 668.998 0.425275 -0.614125 0
M  V30 7112 H 671.66 0.455076 -1.89513 0
M  V30 7113 H 670.756 1.85298 -2.51139 0
M  V30 7114 N 671.057 1.43213 0.657864 0
M  V30 7115 C 672.468 1.39669 1.23893 0
M  V30 7116 C 672.819 0.0984217 1.95953 0
M  V30 7117 O 671.944 -0.8023 2.00978 0
M  V30 7118 C 672.539 2.53004 2.25332 0
M  V30 7119 C 671.098 2.5274 2.78926 0
M  V30 7120 C 670.245 2.30941 1.53497 0
M  V30 7121 H 673.196 1.52181 0.450172 0
M  V30 7122 H 673.217 2.24226 3.07413 0
M  V30 7123 H 672.729 3.4748 1.72856 0
M  V30 7124 H 670.83 1.6213 3.35477 0
M  V30 7125 H 670.943 3.50352 3.26787 0
M  V30 7126 H 669.307 1.7952 1.80678 0
M  V30 7127 H 670.09 3.27496 1.02963 0
M  V30 7128 N 672.536 -0.895792 1.29666 0
M  V30 7129 C 673.782 -1.64908 1.18039 0
M  V30 7130 C 674.115 -1.9236 -0.266682 0
M  V30 7131 O 673.39 -1.53682 -1.19214 0
M  V30 7132 C 673.673 -2.99574 1.99819 0
M  V30 7133 C 673.526 -2.79163 3.52687 0
M  V30 7134 C 674.845 -4.00358 1.82761 0
M  V30 7135 H 671.964 -0.598437 0.430165 0
M  V30 7136 H 674.606 -1.03736 1.59182 0
M  V30 7137 H 672.756 -3.51786 1.64859 0
M  V30 7138 H 674.428 -2.33821 3.9765 0
M  V30 7139 H 672.671 -2.13871 3.77414 0
M  V30 7140 H 673.342 -3.74871 4.05186 0
M  V30 7141 H 675.818 -3.57268 2.13304 0
M  V30 7142 H 674.694 -4.92514 2.42325 0
M  V30 7143 H 674.955 -4.35096 0.783839 0
M  V30 7144 N 674.014 -1.12206 -1.10668 0
M  V30 7145 C 674.962 -0.782918 -2.19028 0
M  V30 7146 C 675.956 0.229175 -1.67843 0
M  V30 7147 O 677.162 0.0876295 -1.79787 0
M  V30 7148 H 673.537 -0.235339 -0.714227 0
M  V30 7149 H 675.508 -1.70527 -2.44874 0
M  V30 7150 C 674.257 -0.25116 -3.46792 0
M  V30 7151 H 673.58 -1.02123 -3.86537 0
M  V30 7152 H 675.02 -0.0521409 -4.23968 0
M  V30 7153 C 673.479 1.02037 -3.21076 0
M  V30 7154 O 674.009 2.09862 -3.42522 0
M  V30 7155 N 672.215 0.946348 -2.74759 0
M  V30 7156 H 671.762 0.068777 -2.57508 0
M  V30 7157 H 671.72 1.79775 -2.57931 0
M  V30 7158 N 675.492 1.28418 -0.913599 0
M  V30 7159 C 676.439 2.27301 -0.400373 0
M  V30 7160 C 677.409 1.57582 0.52509 0
M  V30 7161 O 678.594 1.85482 0.447318 0
M  V30 7162 C 675.734 3.43284 0.35361 0
M  V30 7163 C 674.847 4.27752 -0.604341 0
M  V30 7164 C 673.982 5.30934 0.168075 0
M  V30 7165 C 673.021 6.07065 -0.783499 0
M  V30 7166 N 672.158 7.02086 -0.0446112 0
M  V30 7167 H 676.998 2.70579 -1.24865 0
M  V30 7168 H 674.535 1.33067 -0.627028 0
M  V30 7169 H 676.493 4.09322 0.806945 0
M  V30 7170 H 675.123 3.00997 1.16623 0
M  V30 7171 H 674.175 3.61759 -1.17621 0
M  V30 7172 H 675.487 4.80682 -1.33216 0
M  V30 7173 H 674.641 6.02855 0.681979 0
M  V30 7174 H 673.38 4.78771 0.928947 0
M  V30 7175 H 672.385 5.33995 -1.30878 0
M  V30 7176 H 673.61 6.61317 -1.54392 0
M  V30 7177 H 671.556 6.52273 0.698272 0
M  V30 7178 H 671.473 7.52637 -0.712258 0
M  V30 7179 H 672.741 7.78205 0.449102 0
M  V30 7180 N 676.97 0.677563 1.42291 0
M  V30 7181 C 678.381 0.277912 1.8462 0
M  V30 7182 C 678.732 -1.18048 1.56714 0
M  V30 7183 O 677.857 -1.90404 1.02836 0
M  V30 7184 C 678.452 0.497619 3.35126 0
M  V30 7185 C 677.011 0.152063 3.76093 0
M  V30 7186 C 676.158 0.78872 2.65847 0
M  V30 7187 H 679.109 0.879527 1.32098 0
M  V30 7188 H 679.13 -0.24939 3.79682 0
M  V30 7189 H 678.642 1.55913 3.55405 0
M  V30 7190 H 676.743 -0.905896 3.6142 0
M  V30 7191 H 676.856 0.594514 4.75397 0
M  V30 7192 H 675.22 0.219813 2.5375 0
M  V30 7193 H 676.003 1.85374 2.88949 0
M  V30 7194 N 678.448 -1.51871 0.421078 0
M  V30 7195 C 679.864 -1.59435 0.0725398 0
M  V30 7196 C 680.064 -1.43315 -1.41644 0
M  V30 7197 O 679.12 -1.26614 -2.18461 0
M  V30 7198 C 680.433 -2.9509 0.578132 0
M  V30 7199 C 681.981 -3.08356 0.537149 0
M  V30 7200 C 682.456 -4.4651 1.01945 0
M  V30 7201 N 683.947 -4.52784 0.976758 0
M  V30 7202 C 684.682 -5.57976 1.32099 0
M  V30 7203 N 684.178 -6.70664 1.73727 0
M  V30 7204 N 685.971 -5.48248 1.2402 0
M  V30 7205 H 678.122 -1.60595 1.39007 0
M  V30 7206 H 680.385 -0.756138 0.571803 0
M  V30 7207 H 680.091 -3.12205 1.61929 0
M  V30 7208 H 679.965 -3.772 -0.00578374 0
M  V30 7209 H 682.352 -2.90919 -0.494991 0
M  V30 7210 H 682.433 -2.28125 1.15727 0
M  V30 7211 H 682.077 -4.64692 2.04997 0
M  V30 7212 H 682.007 -5.25256 0.376023 0
M  V30 7213 H 684.498 -3.71898 0.670851 0
M  V30 7214 H 684.811 -7.46932 1.98274 0
M  V30 7215 H 683.156 -6.71914 1.77641 0
M  V30 7216 H 686.347 -4.59095 0.913756 0
M  V30 7217 H 686.52 -6.30119 1.51176 0
M  V30 7218 N 679.926 -0.151884 -1.56866 0
M  V30 7219 C 681.172 0.492327 -1.97352 0
M  V30 7220 C 681.527 1.62156 -1.03553 0
M  V30 7221 O 680.82 1.91467 -0.0714872 0
M  V30 7222 C 681.014 1.04074 -3.41911 0
M  V30 7223 C 680.843 -0.0338306 -4.49687 0
M  V30 7224 C 679.613 -0.476914 -5.03044 0
M  V30 7225 C 681.811 -0.827105 -5.07606 0
M  V30 7226 N 679.793 -1.53382 -5.9443 0
M  V30 7227 C 681.164 -1.73439 -5.95247 0
M  V30 7228 C 683.219 -0.874351 -4.90163 0
M  V30 7229 C 681.922 -2.68488 -6.67313 0
M  V30 7230 C 683.948 -1.81269 -5.62935 0
M  V30 7231 C 683.31 -2.70749 -6.50288 0
M  V30 7232 H 679.409 0.148822 -0.767708 0
M  V30 7233 H 681.993 -0.247615 -1.93119 0
M  V30 7234 H 680.164 1.75027 -3.46728 0
M  V30 7235 H 681.896 1.65197 -3.69448 0
M  V30 7236 H 678.651 -0.0782493 -4.73535 0
M  V30 7237 H 679.075 -2.06217 -6.44828 0
M  V30 7238 H 683.717 -0.196628 -4.22343 0
M  V30 7239 H 681.435 -3.37257 -7.34359 0
M  V30 7240 H 685.021 -1.85511 -5.51432 0
M  V30 7241 H 683.901 -3.42175 -7.0561 0
M  V30 7242 N 681.404 1.57128 0.121893 0
M  V30 7243 C 682.653 1.83888 0.828748 0
M  V30 7244 C 682.966 0.737087 1.81181 0
M  V30 7245 O 684.172 0.891007 2.56463 0
M  V30 7246 C 682.628 3.26014 1.52455 0
M  V30 7247 C 682.236 4.44195 0.58263 0
M  V30 7248 C 683.98 3.62025 2.21671 0
M  V30 7249 C 681.887 5.77349 1.28149 0
M  V30 7250 H 680.817 0.685856 0.313238 0
M  V30 7251 H 683.468 1.83319 0.0814851 0
M  V30 7252 H 681.85 3.21044 2.31834 0
M  V30 7253 H 683.024 4.60457 -0.177729 0
M  V30 7254 H 681.339 4.164 -0.00241228 0
M  V30 7255 H 683.936 4.58776 2.74643 0
M  V30 7256 H 684.279 2.89315 2.99337 0
M  V30 7257 H 684.812 3.68767 1.49184 0
M  V30 7258 H 681.551 6.53221 0.546189 0
M  V30 7259 H 681.071 5.64978 2.01394 0
M  V30 7260 H 682.75 6.21006 1.81549 0
M  V30 7261 N 682.882 -0.391992 1.52647 0
M  V30 7262 C 684.112 -1.15692 1.71169 0
M  V30 7263 C 684.52 -1.84285 0.428444 0
M  V30 7264 O 683.863 -1.73393 -0.606669 0
M  V30 7265 C 683.925 -2.25033 2.80357 0
M  V30 7266 C 683.589 -1.76433 4.21569 0
M  V30 7267 C 684.586 -1.2427 5.0483 0
M  V30 7268 C 682.271 -1.82746 4.67877 0
M  V30 7269 C 684.265 -0.790657 6.32477 0
M  V30 7270 C 681.952 -1.37153 5.9551 0
M  V30 7271 C 682.95 -0.853997 6.7764 0
M  V30 7272 O 682.638 -0.404708 8.02881 0
M  V30 7273 H 682.37 -0.35297 0.576531 0
M  V30 7274 H 684.924 -0.464994 2.00067 0
M  V30 7275 H 683.154 -2.97641 2.46874 0
M  V30 7276 H 684.843 -2.86718 2.87311 0
M  V30 7277 H 685.609 -1.18752 4.70237 0
M  V30 7278 H 681.488 -2.21971 4.04042 0
M  V30 7279 H 685.032 -0.386024 6.96531 0
M  V30 7280 H 680.929 -1.42356 6.29607 0
M  V30 7281 H 681.697 -0.526459 8.16805 0
M  V30 7282 N 684.36 -1.4356 -0.65026 0
M  V30 7283 C 685.585 -1.48995 -1.44275 0
M  V30 7284 C 686.01 -0.109954 -1.87778 0
M  V30 7285 O 685.368 0.896926 -1.57559 0
M  V30 7286 C 685.416 -2.44341 -2.65198 0
M  V30 7287 O 684.52 -1.93172 -3.6436 0
M  V30 7288 H 683.861 -0.503852 -0.432469 0
M  V30 7289 H 686.391 -1.88504 -0.795446 0
M  V30 7290 H 686.401 -2.61743 -3.12977 0
M  V30 7291 H 685.076 -3.44588 -2.32877 0
M  V30 7292 H 683.653 -1.85445 -3.23519 0
M  V30 7293 N 685.838 0.888903 -1.30139 0
M  V30 7294 C 687.084 1.6428 -1.18912 0
M  V30 7295 C 687.417 1.92499 0.256477 0
M  V30 7296 O 686.692 1.54312 1.18397 0
M  V30 7297 C 686.975 2.9851 -2.01405 0
M  V30 7298 C 686.828 2.77288 -3.54163 0
M  V30 7299 C 688.147 3.99383 -1.84882 0
M  V30 7300 H 685.266 0.596148 -0.433333 0
M  V30 7301 H 687.908 1.0289 -1.5973 0
M  V30 7302 H 686.058 3.50907 -1.66722 0
M  V30 7303 H 687.73 2.31709 -3.98884 0
M  V30 7304 H 685.973 2.11867 -3.78543 0
M  V30 7305 H 686.644 3.72717 -4.07168 0
M  V30 7306 H 689.12 3.56132 -2.15196 0
M  V30 7307 H 687.996 4.91222 -2.44934 0
M  V30 7308 H 688.257 4.34674 -0.806902 0
M  V30 7309 N 687.317 1.12792 1.10072 0
M  V30 7310 C 688.542 0.908838 1.86427 0
M  V30 7311 C 688.967 -0.536793 1.80278 0
M  V30 7312 O 688.325 -1.38033 1.17543 0
M  V30 7313 C 688.373 1.39295 3.3261 0
M  V30 7314 O 687.477 0.573846 4.08388 0
M  V30 7315 H 686.818 0.326234 0.578331 0
M  V30 7316 H 689.348 1.50094 1.39043 0
M  V30 7317 H 689.358 1.39366 3.83459 0
M  V30 7318 H 688.033 2.44555 3.36401 0
M  V30 7319 H 686.61 0.640438 3.67359 0
M  V30 7320 N 688.795 -1.27931 0.920396 0
M  V30 7321 C 689.742 -2.27085 0.412422 0
M  V30 7322 C 690.712 -1.57858 -0.516725 0
M  V30 7323 O 691.897 -1.85717 -0.437475 0
M  V30 7324 C 689.037 -3.43466 -0.335399 0
M  V30 7325 C 688.15 -4.27425 0.627017 0
M  V30 7326 C 687.285 -5.31016 -0.139916 0
M  V30 7327 C 686.324 -6.06641 0.815683 0
M  V30 7328 N 685.461 -7.02052 0.0818439 0
M  V30 7329 H 690.301 -2.69913 1.26298 0
M  V30 7330 H 687.838 -1.32732 0.634076 0
M  V30 7331 H 689.796 -4.09744 -0.785226 0
M  V30 7332 H 688.426 -3.01611 -1.15025 0
M  V30 7333 H 687.478 -3.6113 1.19537 0
M  V30 7334 H 688.79 -4.79969 1.35763 0
M  V30 7335 H 687.944 -6.03208 -0.649998 0
M  V30 7336 H 686.683 -4.79257 -0.903543 0
M  V30 7337 H 685.688 -5.33294 1.33708 0
M  V30 7338 H 686.913 -6.60489 1.57897 0
M  V30 7339 H 684.859 -6.52634 -0.663671 0
M  V30 7340 H 684.776 -7.52249 0.752163 0
M  V30 7341 H 686.044 -7.78432 -0.407825 0
M  V30 7342 N 690.273 -0.685099 -1.4193 0
M  V30 7343 C 691.205 0.0258679 -2.29185 0
M  V30 7344 C 692.218 0.755076 -1.44231 0
M  V30 7345 O 693.407 0.60752 -1.67844 0
M  V30 7346 C 690.507 1.06055 -3.21878 0
M  V30 7347 C 689.68 0.403088 -4.35539 0
M  V30 7348 C 688.739 1.33895 -5.0888 0
M  V30 7349 O 687.765 0.835326 -5.63037 0
M  V30 7350 N 688.967 2.6718 -5.15359 0
M  V30 7351 H 691.732 -0.723201 -2.90843 0
M  V30 7352 H 689.293 -0.53031 -1.52968 0
M  V30 7353 H 691.285 1.68813 -3.6781 0
M  V30 7354 H 689.855 1.71126 -2.616 0
M  V30 7355 H 689.075 -0.404185 -3.92122 0
M  V30 7356 H 690.363 -0.0545098 -5.08771 0
M  V30 7357 H 689.761 3.10626 -4.72788 0
M  V30 7358 H 688.318 3.25159 -5.64903 0
M  V30 7359 N 691.751 1.51645 -0.429126 0
M  V30 7360 C 692.681 2.30434 0.377148 0
M  V30 7361 C 693.662 1.35493 1.02838 0
M  V30 7362 O 694.847 1.6441 1.03359 0
M  V30 7363 C 691.977 3.14038 1.48315 0
M  V30 7364 C 690.931 4.1719 0.955855 0
M  V30 7365 C 690.257 4.89263 2.15698 0
M  V30 7366 C 691.557 5.223 -0.00402136 0
M  V30 7367 H 693.251 2.98085 -0.280336 0
M  V30 7368 H 690.797 1.43354 -0.136265 0
M  V30 7369 H 692.75 3.67933 2.05435 0
M  V30 7370 H 691.474 2.44193 2.16881 0
M  V30 7371 H 690.133 3.64335 0.406929 0
M  V30 7372 H 689.781 4.15929 2.82864 0
M  V30 7373 H 689.481 5.59009 1.81059 0
M  V30 7374 H 691.005 5.45978 2.73387 0
M  V30 7375 H 692.419 5.71315 0.476607 0
M  V30 7376 H 690.816 5.99525 -0.26258 0
M  V30 7377 H 691.886 4.75638 -0.943236 0
M  V30 7378 N 693.229 0.160201 1.56784 0
M  V30 7379 C 694.159 -0.770264 2.2043 0
M  V30 7380 C 695.14 -1.24736 1.15651 0
M  V30 7381 O 696.325 -1.30253 1.44041 0
M  V30 7382 C 693.455 -2.00427 2.83631 0
M  V30 7383 C 692.409 -1.66345 3.94352 0
M  V30 7384 C 691.735 -2.97119 4.4455 0
M  V30 7385 C 693.035 -0.899972 5.14488 0
M  V30 7386 H 694.729 -0.239783 2.98438 0
M  V30 7387 H 692.275 -0.113891 1.43549 0
M  V30 7388 H 694.228 -2.66012 3.26827 0
M  V30 7389 H 692.952 -2.5587 2.02973 0
M  V30 7390 H 691.611 -1.03133 3.51794 0
M  V30 7391 H 691.259 -3.5058 3.60698 0
M  V30 7392 H 690.959 -2.75073 5.19238 0
M  V30 7393 H 692.483 -3.63753 4.90425 0
M  V30 7394 H 693.897 -1.45818 5.54446 0
M  V30 7395 H 692.294 -0.778968 5.95023 0
M  V30 7396 H 693.364 0.105827 4.84785 0
M  V30 7397 N 694.707 -1.5719 -0.113559 0
M  V30 7398 C 695.984 -1.76117 -0.850999 0
M  V30 7399 C 696.364 -0.737085 -1.97814 0
M  V30 7400 O 695.712 0.237942 -2.27258 0
M  V30 7401 C 695.922 -3.21298 -1.36266 0
M  V30 7402 C 697.27 -3.83955 -1.81283 0
M  V30 7403 O 698.294 -3.24934 -1.45933 0
M  V30 7404 O 697.153 -4.87707 -2.46585 0
M  V30 7405 H 694.247 -0.721308 -0.404529 0
M  V30 7406 H 696.793 -1.69423 -0.0968756 0
M  V30 7407 H 695.565 -3.87355 -0.554235 0
M  V30 7408 H 695.188 -3.32552 -2.17933 0
M  V30 7409 N 696.185 0.383891 -1.52853 0
M  V30 7410 C 697.601 0.724316 -1.42218 0
M  V30 7411 C 697.801 1.93943 -0.546654 0
M  V30 7412 O 696.857 2.5249 -0.0220562 0
M  V30 7413 C 698.17 0.954635 -2.85144 0
M  V30 7414 C 699.718 1.05579 -2.94656 0
M  V30 7415 C 700.193 1.3187 -4.38605 0
M  V30 7416 N 701.684 1.38681 -4.41952 0
M  V30 7417 C 702.419 1.60699 -5.50421 0
M  V30 7418 N 701.915 1.80154 -6.68967 0
M  V30 7419 N 703.708 1.6292 -5.37972 0
M  V30 7420 H 695.859 -0.4156 -2.08294 0
M  V30 7421 H 698.122 -0.123776 -0.939885 0
M  V30 7422 H 697.828 0.133829 -3.51445 0
M  V30 7423 H 697.702 1.86788 -3.27704 0
M  V30 7424 H 700.089 1.86716 -2.2852 0
M  V30 7425 H 700.17 0.120338 -2.55517 0
M  V30 7426 H 699.814 0.512416 -5.05309 0
M  V30 7427 H 699.744 2.26708 -4.75301 0
M  V30 7428 H 702.235 1.25334 -3.56511 0
M  V30 7429 H 702.548 1.96476 -7.47407 0
M  V30 7430 H 700.893 1.77368 -6.71986 0
M  V30 7431 H 704.084 1.47276 -4.44328 0
M  V30 7432 H 704.257 1.79739 -6.22574 0
M  V30 7433 N 697.663 1.43903 0.642637 0
M  V30 7434 C 698.909 1.46296 1.40447 0
M  V30 7435 C 699.242 0.0908361 1.93987 0
M  V30 7436 O 698.517 -0.889884 1.72949 0
M  V30 7437 C 698.8 2.51399 2.57819 0
M  V30 7438 C 698.653 3.97926 2.09702 0
M  V30 7439 C 699.972 2.53125 3.60022 0
M  V30 7440 H 697.091 0.532676 0.509338 0
M  V30 7441 H 699.733 1.75515 0.727635 0
M  V30 7442 H 697.883 2.26614 3.1556 0
M  V30 7443 H 699.555 4.33804 1.5688 0
M  V30 7444 H 697.798 4.10252 1.40982 0
M  V30 7445 H 698.469 4.67096 2.94152 0
M  V30 7446 H 700.945 2.75242 3.12059 0
M  V30 7447 H 699.821 3.28589 4.39682 0
M  V30 7448 H 700.082 1.56895 4.13324 0
M  V30 7449 N 699.141 -0.881989 1.30609 0
M  V30 7450 C 700.39 -1.62878 1.18969 0
M  V30 7451 C 700.703 -1.93946 -0.253859 0
M  V30 7452 O 701.909 -2.67008 -0.491813 0
M  V30 7453 C 700.365 -2.93573 2.0819 0
M  V30 7454 C 699.973 -2.70034 3.57471 0
M  V30 7455 C 701.717 -3.71543 2.0532 0
M  V30 7456 C 699.624 -3.96563 4.38739 0
M  V30 7457 H 698.554 -0.611092 0.441682 0
M  V30 7458 H 701.205 -0.976201 1.55379 0
M  V30 7459 H 699.587 -3.6014 1.64666 0
M  V30 7460 H 700.761 -2.11949 4.09163 0
M  V30 7461 H 699.076 -2.05435 3.62195 0
M  V30 7462 H 701.673 -4.65386 2.63288 0
M  V30 7463 H 702.016 -4.03167 1.03739 0
M  V30 7464 H 702.549 -3.11842 2.46981 0
M  V30 7465 H 699.288 -3.70095 5.41027 0
M  V30 7466 H 698.808 -4.54142 3.9181 0
M  V30 7467 H 700.487 -4.64557 4.50329 0
M  V30 7468 N 700.619 -1.13374 -1.09472 0
M  V30 7469 C 701.865 -0.906459 -1.82085 0
M  V30 7470 C 702.22 0.5614 -1.84027 0
M  V30 7471 O 701.513 1.41012 -1.29716 0
M  V30 7472 C 701.707 -1.42759 -3.2765 0
M  V30 7473 C 701.536 -2.94459 -3.39888 0
M  V30 7474 C 700.306 -3.62798 -3.51718 0
M  V30 7475 C 702.504 -3.92398 -3.32457 0
M  V30 7476 N 700.486 -5.02516 -3.52635 0
M  V30 7477 C 701.857 -5.18304 -3.40237 0
M  V30 7478 C 703.912 -3.84671 -3.16122 0
M  V30 7479 C 702.615 -6.37386 -3.33364 0
M  V30 7480 C 704.641 -5.03287 -3.10574 0
M  V30 7481 C 704.003 -6.28055 -3.18945 0
M  V30 7482 H 700.102 -0.385097 -0.680606 0
M  V30 7483 H 702.686 -1.44187 -1.30836 0
M  V30 7484 H 700.857 -0.919102 -3.77369 0
M  V30 7485 H 702.589 -1.14136 -3.88272 0
M  V30 7486 H 699.344 -3.13317 -3.55147 0
M  V30 7487 H 699.768 -5.75421 -3.56679 0
M  V30 7488 H 704.41 -2.89094 -3.0852 0
M  V30 7489 H 702.128 -7.33219 -3.3973 0
M  V30 7490 H 705.714 -4.99047 -2.9907 0
M  V30 7491 H 704.594 -7.18299 -3.14668 0
M  V30 7492 N 702.098 1.27442 -0.927168 0
M  V30 7493 C 703.061 2.2512 -0.430525 0
M  V30 7494 C 704.061 1.54357 0.450619 0
M  V30 7495 O 705.251 1.72371 0.251774 0
M  V30 7496 C 702.383 3.38763 0.381144 0
M  V30 7497 H 703.576 2.70569 -1.29354 0
M  V30 7498 H 701.129 1.39355 -0.707806 0
M  V30 7499 H 701.864 2.98695 1.263 0
M  V30 7500 H 701.649 3.91298 -0.250618 0
M  V30 7501 H 703.139 4.11364 0.719012 0
M  V30 7502 N 703.576 0.692616 1.41565 0
M  V30 7503 C 704.806 0.230943 2.05305 0
M  V30 7504 C 705.214 -1.12379 1.52209 0
M  V30 7505 O 704.557 -1.71281 0.663968 0
M  V30 7506 C 704.619 0.107894 3.59338 0
M  V30 7507 C 704.283 1.39419 4.35214 0
M  V30 7508 C 705.28 2.33143 4.64694 0
M  V30 7509 C 702.965 1.64674 4.74539 0
M  V30 7510 C 704.959 3.50385 5.32456 0
M  V30 7511 C 702.646 2.82202 5.42038 0
M  V30 7512 C 703.644 3.74881 5.70923 0
M  V30 7513 O 703.332 4.90351 6.37033 0
M  V30 7514 H 703.064 0.105708 0.667684 0
M  V30 7515 H 705.618 0.94488 1.82376 0
M  V30 7516 H 703.848 -0.661785 3.80995 0
M  V30 7517 H 705.537 -0.316213 4.04666 0
M  V30 7518 H 706.303 2.14887 4.34797 0
M  V30 7519 H 702.182 0.934007 4.51439 0
M  V30 7520 H 705.726 4.22743 5.54918 0
M  V30 7521 H 701.623 3.00376 5.71353 0
M  V30 7522 H 702.391 4.90128 6.55528 0
M  V30 7523 N 705.054 -1.51416 0.437162 0
M  V30 7524 C 706.302 -2.01687 -0.129108 0
M  V30 7525 C 706.623 -1.32329 -1.43227 0
M  V30 7526 O 705.893 -0.457796 -1.90476 0
M  V30 7527 H 704.473 -0.745277 -0.0507023 0
M  V30 7528 H 707.135 -1.86075 0.579828 0
M  V30 7529 H 706.231 -3.10605 -0.305141 0
M  V30 7530 N 706.532 -0.168513 -1.56696 0
M  V30 7531 C 707.442 0.775435 -2.21414 0
M  V30 7532 C 708.458 1.25529 -1.20492 0
M  V30 7533 O 709.634 1.30801 -1.53144 0
M  V30 7534 C 706.699 1.9886 -2.83999 0
M  V30 7535 C 705.76 1.5559 -4.00113 0
M  V30 7536 C 704.993 2.71124 -4.59704 0
M  V30 7537 O 705.216 3.87917 -4.18182 0
M  V30 7538 O 704.15 2.4536 -5.4962 0
M  V30 7539 H 707.976 0.254416 -3.02632 0
M  V30 7540 H 705.561 0.0595507 -1.49281 0
M  V30 7541 H 707.443 2.69816 -3.23693 0
M  V30 7542 H 706.118 2.49874 -2.05779 0
M  V30 7543 H 705.025 0.815924 -3.65094 0
M  V30 7544 H 706.358 1.09271 -4.79917 0
M  V30 7545 N 708.01 1.57248 0.105221 0
M  V30 7546 C 708.957 2.01338 1.12835 0
M  V30 7547 C 709.927 0.887897 1.40377 0
M  V30 7548 O 711.112 1.15315 1.5201 0
M  V30 7549 C 708.252 2.43432 2.44611 0
M  V30 7550 C 707.365 3.69457 2.23888 0
M  V30 7551 C 706.5 4.00473 3.48991 0
M  V30 7552 C 705.539 5.19638 3.23485 0
M  V30 7553 N 704.676 5.46457 4.40828 0
M  V30 7554 H 709.516 2.88527 0.745386 0
M  V30 7555 H 707.053 1.42714 0.356535 0
M  V30 7556 H 709.011 2.65879 3.21503 0
M  V30 7557 H 707.641 1.59266 2.80774 0
M  V30 7558 H 706.693 3.54545 1.37847 0
M  V30 7559 H 708.005 4.56497 2.01026 0
M  V30 7560 H 707.159 4.23642 4.34295 0
M  V30 7561 H 705.898 3.11935 3.74897 0
M  V30 7562 H 704.903 4.96299 2.36574 0
M  V30 7563 H 706.128 6.09766 2.98935 0
M  V30 7564 H 704.074 4.60876 4.66829 0
M  V30 7565 H 703.991 6.27849 4.2112 0
M  V30 7566 H 705.259 5.74155 5.27225 0
M  V30 7567 N 709.488 -0.375779 1.53054 0
M  V30 7568 C 710.398 -1.48381 1.81715 0
M  V30 7569 C 711.414 -1.59087 0.704795 0
M  V30 7570 O 712.59 -1.75174 0.993785 0
M  V30 7571 C 709.655 -2.83767 1.99192 0
M  V30 7572 C 708.716 -2.82673 3.23102 0
M  V30 7573 C 707.949 -4.11601 3.39736 0
M  V30 7574 O 708.172 -5.07243 2.60885 0
M  V30 7575 O 707.106 -4.18034 4.33049 0
M  V30 7576 H 710.932 -1.27089 2.7583 0
M  V30 7577 H 708.517 -0.564902 1.38308 0
M  V30 7578 H 710.399 -3.64004 2.12318 0
M  V30 7579 H 709.074 -3.05057 1.08267 0
M  V30 7580 H 707.981 -2.0117 3.15407 0
M  V30 7581 H 709.314 -2.66335 4.13916 0
M  V30 7582 N 710.966 -1.44241 -0.634997 0
M  V30 7583 C 712.214 -1.46531 -1.39187 0
M  V30 7584 C 712.535 -0.0976441 -1.94755 0
M  V30 7585 O 711.805 0.869528 -1.75545 0
M  V30 7586 H 710.385 -0.539544 -0.516625 0
M  V30 7587 H 713.047 -1.79989 -0.747655 0
M  V30 7588 H 712.143 -2.18848 -2.22513 0
M  V30 7589 N 712.444 0.87505 -1.31075 0
M  V30 7590 C 713.374 1.99775 -1.20881 0
M  V30 7591 C 714.355 1.69822 -0.0971612 0
M  V30 7592 O 715.54 1.92158 -0.280895 0
M  V30 7593 C 712.67 3.35163 -0.910118 0
M  V30 7594 C 711.624 3.79406 -1.98078 0
M  V30 7595 C 710.95 5.12197 -1.53488 0
M  V30 7596 C 712.25 3.97061 -3.39323 0
M  V30 7597 H 713.944 2.08562 -2.14808 0
M  V30 7598 H 711.49 1.00207 -1.03415 0
M  V30 7599 H 713.443 4.13237 -0.825423 0
M  V30 7600 H 712.167 3.26536 0.064822 0
M  V30 7601 H 710.826 3.03568 -2.05528 0
M  V30 7602 H 710.474 5.00007 -0.547941 0
M  V30 7603 H 710.174 5.4277 -2.2511 0
M  V30 7604 H 711.698 5.92785 -1.46417 0
M  V30 7605 H 713.112 4.65545 -3.34576 0
M  V30 7606 H 711.509 4.39025 -4.09118 0
M  V30 7607 H 712.579 3.00601 -3.80483 0
M  V30 7608 N 713.922 1.13953 1.08869 0
M  V30 7609 C 714.854 0.779906 2.15523 0
M  V30 7610 C 715.867 -0.20102 1.61554 0
M  V30 7611 O 717.056 0.0200049 1.78489 0
M  V30 7612 C 714.156 0.136226 3.38626 0
M  V30 7613 C 713.329 1.15069 4.21993 0
M  V30 7614 C 712.388 0.531645 5.23507 0
M  V30 7615 O 711.414 1.19327 5.56552 0
M  V30 7616 N 712.616 -0.693734 5.7634 0
M  V30 7617 H 715.381 1.69769 2.46979 0
M  V30 7618 H 712.942 1.03331 1.24637 0
M  V30 7619 H 714.934 -0.290295 4.03658 0
M  V30 7620 H 713.504 -0.684603 3.05011 0
M  V30 7621 H 712.724 1.75431 3.53012 0
M  V30 7622 H 714.012 1.83614 4.74514 0
M  V30 7623 H 713.41 -1.24994 5.51718 0
M  V30 7624 H 711.967 -1.06283 6.43076 0
M  V30 7625 N 715.4 -1.26948 0.933913 0
M  V30 7626 C 716.647 -1.94087 0.577625 0
M  V30 7627 C 716.975 -1.73345 -0.88214 0
M  V30 7628 O 716.23 -1.05945 -1.64542 0
M  V30 7629 C 716.529 -3.46963 0.857406 0
M  V30 7630 C 716.195 -3.87834 2.2999 0
M  V30 7631 C 714.857 -3.98704 2.69423 0
M  V30 7632 C 717.209 -4.08442 3.23766 0
M  V30 7633 C 714.537 -4.27573 4.01744 0
M  V30 7634 C 716.889 -4.38798 4.55675 0
M  V30 7635 C 715.553 -4.47881 4.94934 0
M  V30 7636 H 714.823 -0.710215 0.211368 0
M  V30 7637 H 717.47 -1.50899 1.17905 0
M  V30 7638 H 715.775 -3.91416 0.173369 0
M  V30 7639 H 717.472 -3.97062 0.560615 0
M  V30 7640 H 714.062 -3.79916 1.98399 0
M  V30 7641 H 718.246 -3.99479 2.94499 0
M  V30 7642 H 713.502 -4.32815 4.31834 0
M  V30 7643 H 717.676 -4.5369 5.28335 0
M  V30 7644 H 715.303 -4.70005 5.97495 0
M  V30 7645 N 716.879 -0.700114 -1.41195 0
M  V30 7646 C 718.107 -0.242179 -2.05478 0
M  V30 7647 C 718.522 1.11029 -1.52702 0
M  V30 7648 O 717.879 1.69473 -0.677127 0
M  V30 7649 C 717.93 -0.196271 -3.60967 0
M  V30 7650 O 717.651 -1.49532 -4.11791 0
M  V30 7651 C 719.152 0.282102 -4.42401 0
M  V30 7652 H 716.372 -0.111749 -0.661629 0
M  V30 7653 H 718.916 -0.953975 -1.80885 0
M  V30 7654 H 717.071 0.46638 -3.84582 0
M  V30 7655 H 717.485 -1.38545 -5.05871 0
M  V30 7656 H 718.959 0.263093 -5.51373 0
M  V30 7657 H 719.436 1.32174 -4.1884 0
M  V30 7658 H 720.042 -0.349712 -4.2386 0
M  V30 7659 N 718.357 1.51182 -0.445186 0
M  V30 7660 C 719.287 2.30821 0.352686 0
M  V30 7661 C 720.268 1.36576 1.01395 0
M  V30 7662 O 721.453 1.65497 1.01609 0
M  V30 7663 C 718.583 3.15593 1.44976 0
M  V30 7664 C 717.537 4.1818 0.911553 0
M  V30 7665 C 716.863 4.91523 2.10497 0
M  V30 7666 C 718.163 5.22266 -0.059418 0
M  V30 7667 H 719.857 2.97771 -0.311936 0
M  V30 7668 H 717.403 1.43201 -0.151461 0
M  V30 7669 H 719.356 3.70091 2.01521 0
M  V30 7670 H 718.08 2.4648 2.14278 0
M  V30 7671 H 716.739 3.64746 0.368264 0
M  V30 7672 H 716.387 4.18906 2.78437 0
M  V30 7673 H 716.087 5.60898 1.7512 0
M  V30 7674 H 717.611 5.48847 2.6758 0
M  V30 7675 H 719.025 5.71789 0.415985 0
M  V30 7676 H 717.422 5.99213 -0.326152 0
M  V30 7677 H 718.492 4.7461 -0.993631 0
M  V30 7678 N 719.835 0.176821 1.56605 0
M  V30 7679 C 721.082 -0.466715 1.97048 0
M  V30 7680 C 721.41 -1.6288 1.06302 0
M  V30 7681 O 720.665 -1.95453 0.0982571 0
M  V30 7682 C 720.964 -0.986208 3.43524 0
M  V30 7683 C 720.63 0.0605667 4.50859 0
M  V30 7684 C 719.292 0.348242 4.79938 0
M  V30 7685 C 721.644 0.770794 5.15469 0
M  V30 7686 C 718.972 1.35144 5.70923 0
M  V30 7687 C 721.324 1.76301 6.07537 0
M  V30 7688 C 719.988 2.05808 6.3498 0
M  V30 7689 H 719.258 -0.170783 0.721051 0
M  V30 7690 H 721.905 0.269942 1.89588 0
M  V30 7691 H 720.21 -1.80079 3.47964 0
M  V30 7692 H 721.907 -1.49323 3.72161 0
M  V30 7693 H 718.497 -0.173823 4.28247 0
M  V30 7694 H 722.681 0.56176 4.9311 0
M  V30 7695 H 717.937 1.58616 5.90467 0
M  V30 7696 H 722.111 2.31868 6.56666 0
M  V30 7697 H 719.738 2.8369 7.05283 0
M  V30 7698 N 721.313 -1.57302 -0.09688 0
M  V30 7699 C 722.729 -1.53094 -0.451041 0
M  V30 7700 C 722.929 -0.893265 -1.80618 0
M  V30 7701 O 721.985 -0.485013 -2.47798 0
M  V30 7702 C 723.298 -2.9782 -0.415172 0
M  V30 7703 C 724.846 -3.09026 -0.497155 0
M  V30 7704 C 725.321 -4.55356 -0.491452 0
M  V30 7705 N 726.812 -4.59896 -0.552258 0
M  V30 7706 C 727.547 -5.70563 -0.569654 0
M  V30 7707 N 727.043 -6.90666 -0.543365 0
M  V30 7708 N 728.836 -5.58733 -0.614331 0
M  V30 7709 H 720.987 -1.97131 0.790771 0
M  V30 7710 H 723.25 -0.901211 0.294147 0
M  V30 7711 H 722.956 -3.47933 0.513362 0
M  V30 7712 H 722.83 -3.56416 -1.23481 0
M  V30 7713 H 725.217 -2.58902 -1.41611 0
M  V30 7714 H 725.298 -2.53386 0.35059 0
M  V30 7715 H 724.942 -5.06131 0.423549 0
M  V30 7716 H 724.872 -5.08832 -1.35639 0
M  V30 7717 H 727.363 -3.73456 -0.577842 0
M  V30 7718 H 727.676 -7.70769 -0.559873 0
M  V30 7719 H 726.021 -6.93123 -0.510441 0
M  V30 7720 H 729.212 -4.63809 -0.632387 0
M  V30 7721 H 729.385 -6.44984 -0.62442 0
M  V30 7722 N 722.791 0.367657 -1.53252 0
M  V30 7723 C 724.202 0.944563 -1.61043 0
M  V30 7724 C 724.553 1.90325 -0.476546 0
M  V30 7725 O 723.678 2.12721 0.397333 0
M  V30 7726 C 724.273 1.71992 -2.91898 0
M  V30 7727 C 722.832 2.2462 -3.02031 0
M  V30 7728 C 721.979 1.05799 -2.56324 0
M  V30 7729 H 724.93 0.146516 -1.58022 0
M  V30 7730 H 724.951 2.58095 -2.79584 0
M  V30 7731 H 724.463 1.02192 -3.74404 0
M  V30 7732 H 722.564 2.97668 -2.24108 0
M  V30 7733 H 722.677 2.52644 -4.07073 0
M  V30 7734 H 721.041 1.42435 -2.1115 0
M  V30 7735 H 721.824 0.375008 -3.41246 0
M  V30 7736 N 724.269 1.44576 0.627338 0
M  V30 7737 C 725.516 1.47558 1.38682 0
M  V30 7738 C 725.844 0.109636 1.94191 0
M  V30 7739 O 725.099 -0.889092 1.74338 0
M  V30 7740 C 725.398 2.48644 2.56731 0
M  V30 7741 C 725.064 3.93873 2.19489 0
M  V30 7742 C 723.726 4.33421 2.09045 0
M  V30 7743 C 726.078 4.85286 1.90124 0
M  V30 7744 C 723.406 5.62303 1.6743 0
M  V30 7745 C 725.758 6.14559 1.50001 0
M  V30 7746 C 724.422 6.53058 1.38101 0
M  V30 7747 H 723.692 0.539955 0.507474 0
M  V30 7748 H 726.339 1.77811 0.711021 0
M  V30 7749 H 724.644 2.11889 3.29561 0
M  V30 7750 H 726.341 2.48197 3.14959 0
M  V30 7751 H 722.931 3.62587 2.28537 0
M  V30 7752 H 727.115 4.55483 1.971 0
M  V30 7753 H 722.371 5.90945 1.56823 0
M  V30 7754 H 726.545 6.84848 1.26319 0
M  V30 7755 H 724.172 7.52826 1.05628 0
M  V30 7756 N 725.747 -0.868086 1.31537 0
M  V30 7757 C 726.695 -1.99688 1.1928 0
M  V30 7758 C 727.689 -1.69101 0.100656 0
M  V30 7759 O 728.895 -1.78073 0.262677 0
M  V30 7760 H 725.27 -0.655032 0.369374 0
M  V30 7761 H 727.241 -2.07157 2.14776 0
M  V30 7762 C 725.99 -3.35338 0.918892 0
M  V30 7763 H 725.313 -3.59396 1.75142 0
M  V30 7764 H 726.753 -4.14909 0.873311 0
M  V30 7765 C 725.212 -3.34769 -0.378366 0
M  V30 7766 O 725.742 -3.76716 -1.39456 0
M  V30 7767 N 723.948 -2.87895 -0.39557 0
M  V30 7768 H 723.495 -2.53954 0.431889 0
M  V30 7769 H 723.453 -2.87897 -1.26344 0
M  V30 7770 N 727.225 -1.14528 -1.08264 0
M  V30 7771 C 728.471 -0.925721 -1.81113 0
M  V30 7772 C 728.826 0.54185 -1.84612 0
M  V30 7773 O 728.119 1.39628 -1.31205 0
M  V30 7774 C 728.313 -1.46226 -3.26117 0
M  V30 7775 C 728.142 -2.98047 -3.36746 0
M  V30 7776 C 726.912 -3.66508 -3.4785 0
M  V30 7777 C 729.11 -3.95903 -3.28277 0
M  V30 7778 N 727.092 -5.06227 -3.47285 0
M  V30 7779 C 728.463 -5.21883 -3.34721 0
M  V30 7780 C 730.518 -3.88002 -3.12024 0
M  V30 7781 C 729.221 -6.40886 -3.26585 0
M  V30 7782 C 731.247 -5.06553 -3.05219 0
M  V30 7783 C 730.609 -6.31403 -3.12266 0
M  V30 7784 H 726.708 -0.392294 -0.676483 0
M  V30 7785 H 729.292 -1.45567 -1.293 0
M  V30 7786 H 727.463 -0.959076 -3.76373 0
M  V30 7787 H 729.195 -1.18247 -3.8704 0
M  V30 7788 H 725.95 -3.17067 -3.51804 0
M  V30 7789 H 726.374 -5.79172 -3.50555 0
M  V30 7790 H 731.016 -2.9235 -3.05436 0
M  V30 7791 H 728.734 -7.36781 -3.31934 0
M  V30 7792 H 732.32 -5.02191 -2.93761 0
M  V30 7793 H 731.2 -7.21596 -3.07032 0
M  V30 7794 N 728.703 1.26451 -0.940633 0
M  V30 7795 C 729.636 2.24771 -0.394094 0
M  V30 7796 C 730.614 1.54169 0.516781 0
M  V30 7797 O 731.798 1.82942 0.454352 0
M  V30 7798 C 728.925 3.3591 0.433807 0
M  V30 7799 C 727.971 4.24472 -0.415464 0
M  V30 7800 S 728.804 5.0293 -1.83907 0
M  V30 7801 C 729.96 6.17546 -1.01921 0
M  V30 7802 H 730.193 2.70782 -1.22737 0
M  V30 7803 H 727.726 1.35308 -0.743709 0
M  V30 7804 H 729.684 4.00387 0.905576 0
M  V30 7805 H 728.345 2.88512 1.24175 0
M  V30 7806 H 727.538 5.03525 0.218833 0
M  V30 7807 H 727.14 3.64857 -0.821897 0
M  V30 7808 H 729.432 6.76996 -0.261227 0
M  V30 7809 H 730.375 6.8528 -1.78318 0
M  V30 7810 H 730.783 5.6176 -0.555511 0
M  V30 7811 N 730.181 0.707592 1.40822 0
M  V30 7812 C 731.429 0.243189 2.00632 0
M  V30 7813 C 731.75 -1.16512 1.56365 0
M  V30 7814 O 731.02 -1.78841 0.799553 0
M  V30 7815 H 729.6 0.0869203 0.741926 0
M  V30 7816 H 732.262 0.911438 1.72275 0
M  V30 7817 H 731.358 0.270014 3.1093 0
M  V30 7818 N 731.66 -1.50943 0.453197 0
M  V30 7819 C 733.071 -1.86699 -0.00619892 0
M  V30 7820 C 733.422 -1.3693 -1.40515 0
M  V30 7821 O 732.547 -0.726715 -2.03833 0
M  V30 7822 C 733.142 -3.38795 -0.018025 0
M  V30 7823 C 731.701 -3.74028 -0.421885 0
M  V30 7824 C 730.848 -2.74752 0.375087 0
M  V30 7825 H 733.799 -1.43942 0.668317 0
M  V30 7826 H 733.82 -3.71468 -0.824125 0
M  V30 7827 H 733.332 -3.74988 1.00028 0
M  V30 7828 H 731.433 -3.43431 -1.44521 0
M  V30 7829 H 731.546 -4.78908 -0.135664 0
M  V30 7830 H 729.91 -2.5414 -0.168794 0
M  V30 7831 H 730.693 -3.13787 1.39256 0
M  V30 7832 N 733.138 -0.185124 -1.56509 0
M  V30 7833 C 734.554 0.170865 -1.58683 0
M  V30 7834 C 734.754 1.61799 -1.20098 0
M  V30 7835 O 733.81 2.35181 -0.919038 0
M  V30 7836 C 735.123 -0.122459 -3.00451 0
M  V30 7837 C 736.671 -0.0617699 -3.12939 0
M  V30 7838 C 737.146 -0.328269 -4.56822 0
M  V30 7839 N 738.637 -0.276533 -4.62374 0
M  V30 7840 C 739.372 -0.456722 -5.71578 0
M  V30 7841 N 738.868 -0.69672 -6.89288 0
M  V30 7842 N 740.661 -0.391669 -5.60734 0
M  V30 7843 H 732.812 -1.12956 -1.79874 0
M  V30 7844 H 735.075 -0.45011 -0.834329 0
M  V30 7845 H 734.781 -1.12546 -3.33206 0
M  V30 7846 H 734.655 0.579578 -3.72721 0
M  V30 7847 H 737.042 0.931826 -2.80002 0
M  V30 7848 H 737.123 -0.796732 -2.43076 0
M  V30 7849 H 736.767 -1.31914 -4.9047 0
M  V30 7850 H 736.697 0.427465 -5.24862 0
M  V30 7851 H 739.188 -0.0972458 -3.77775 0
M  V30 7852 H 739.501 -0.823291 -7.68402 0
M  V30 7853 H 737.846 -0.733497 -6.91119 0
M  V30 7854 H 741.037 -0.204663 -4.67652 0
M  V30 7855 H 741.21 -0.535518 -6.45783 0
M  V30 7856 N 734.616 1.57351 0.0885366 0
M  V30 7857 C 735.546 2.05561 1.10757 0
M  V30 7858 C 736.527 0.945789 1.41382 0
M  V30 7859 O 737.712 1.21747 1.51299 0
M  V30 7860 C 734.842 2.48554 2.42566 0
M  V30 7861 C 733.796 3.63259 2.26334 0
M  V30 7862 C 733.122 3.9225 3.63378 0
M  V30 7863 C 734.422 4.93913 1.69844 0
M  V30 7864 H 736.116 2.90946 0.706468 0
M  V30 7865 H 733.662 1.39968 0.338385 0
M  V30 7866 H 735.615 2.8089 3.14132 0
M  V30 7867 H 734.339 1.60176 2.84625 0
M  V30 7868 H 732.998 3.31179 1.57213 0
M  V30 7869 H 732.646 3.0103 4.02976 0
M  V30 7870 H 732.346 4.69478 3.53362 0
M  V30 7871 H 733.87 4.27067 4.36401 0
M  V30 7872 H 735.284 5.24588 2.31258 0
M  V30 7873 H 733.681 5.75349 1.70569 0
M  V30 7874 H 734.751 4.80409 0.65843 0
M  V30 7875 N 736.094 -0.359525 1.53444 0
M  V30 7876 C 737.371 -1.11756 1.6053 0
M  V30 7877 C 737.751 -2.06949 0.416587 0
M  V30 7878 O 737.099 -2.20681 -0.592628 0
M  V30 7879 C 737.309 -1.85133 2.95849 0
M  V30 7880 C 738.657 -2.3945 3.50641 0
M  V30 7881 O 739.681 -1.95251 2.97918 0
M  V30 7882 O 738.54 -3.20266 4.42823 0
M  V30 7883 H 735.634 -0.513005 0.648656 0
M  V30 7884 H 738.18 -0.362301 1.65787 0
M  V30 7885 H 736.952 -1.15694 3.73806 0
M  V30 7886 H 736.575 -2.67554 2.9411 0
M  V30 7887 N 737.572 -1.44907 -0.619662 0
M  V30 7888 C 738.52 -1.52971 -1.75222 0
M  V30 7889 C 739.514 -0.400531 -1.64597 0
M  V30 7890 O 740.72 -0.575952 -1.70537 0
M  V30 7891 H 737.095 -0.480241 -0.578682 0
M  V30 7892 H 739.066 -2.48269 -1.65545 0
M  V30 7893 C 737.815 -1.50204 -3.13583 0
M  V30 7894 H 737.138 -2.36412 -3.22412 0
M  V30 7895 H 738.578 -1.59905 -3.92691 0
M  V30 7896 C 737.037 -0.22455 -3.36151 0
M  V30 7897 O 737.567 0.700574 -3.95544 0
M  V30 7898 N 735.773 -0.124052 -2.90335 0
M  V30 7899 H 735.32 -0.87774 -2.42185 0
M  V30 7900 H 735.278 0.729914 -3.0581 0
M  V30 7901 N 739.05 0.861098 -1.31996 0
M  V30 7902 C 739.98 1.98482 -1.22993 0
M  V30 7903 C 740.961 1.6971 -0.115168 0
M  V30 7904 O 742.146 1.91849 -0.30126 0
M  V30 7905 C 739.276 3.34179 -0.945615 0
M  V30 7906 C 738.23 3.77284 -2.02091 0
M  V30 7907 C 737.556 5.1054 -1.58912 0
M  V30 7908 C 738.856 3.93439 -3.43515 0
M  V30 7909 H 740.55 2.06271 -2.17008 0
M  V30 7910 H 738.096 0.991043 -1.04472 0
M  V30 7911 H 740.049 4.12338 -0.869206 0
M  V30 7912 H 738.773 3.26586 0.0301849 0
M  V30 7913 H 737.432 3.01371 -2.08737 0
M  V30 7914 H 737.08 4.99397 -0.600942 0
M  V30 7915 H 736.78 5.40352 -2.30854 0
M  V30 7916 H 738.304 5.91199 -1.52696 0
M  V30 7917 H 739.718 4.6197 -3.39495 0
M  V30 7918 H 738.115 4.34661 -4.13751 0
M  V30 7919 H 739.185 2.96548 -3.8365 0
M  V30 7920 N 740.528 1.15101 1.07655 0
M  V30 7921 C 741.476 0.840714 2.16875 0
M  V30 7922 C 742.47 -0.184594 1.68391 0
M  V30 7923 O 743.676 -0.0399315 1.79956 0
M  V30 7924 H 740.051 0.254192 0.707736 0
M  V30 7925 H 742.022 1.76959 2.40266 0
M  V30 7926 C 740.771 0.343018 3.46004 0
M  V30 7927 H 740.094 1.12335 3.83694 0
M  V30 7928 H 741.534 0.16453 4.23681 0
M  V30 7929 C 739.993 -0.934881 3.23669 0
M  V30 7930 O 740.523 -2.00706 3.47965 0
M  V30 7931 N 738.729 -0.873167 2.77172 0
M  V30 7932 H 738.276 -0.000479072 2.576 0
M  V30 7933 H 738.234 -1.72873 2.62607 0
M  V30 7934 N 742.006 -1.2595 0.947325 0
M  V30 7935 C 742.969 -2.24407 0.466285 0
M  V30 7936 C 743.969 -1.55054 -0.426005 0
M  V30 7937 O 745.159 -1.7275 -0.224319 0
M  V30 7938 C 742.291 -3.39326 -0.327201 0
M  V30 7939 H 743.484 -2.68477 1.33642 0
M  V30 7940 H 741.037 -1.38211 0.729887 0
M  V30 7941 H 741.772 -3.00667 -1.21532 0
M  V30 7942 H 741.557 -3.9085 0.312839 0
M  V30 7943 H 743.047 -4.12455 -0.653477 0
M  V30 7944 N 743.484 -0.715051 -1.40445 0
M  V30 7945 C 744.447 -0.0708726 -2.2909 0
M  V30 7946 C 745.447 0.687926 -1.45342 0
M  V30 7947 O 746.637 0.519908 -1.66261 0
M  V30 7948 C 743.769 0.909528 -3.28543 0
M  V30 7949 H 744.962 -0.851611 -2.87555 0
M  V30 7950 H 742.515 -0.479674 -1.48758 0
M  V30 7951 H 743.25 1.71734 -2.75096 0
M  V30 7952 H 743.035 0.368318 -3.90366 0
M  V30 7953 H 744.525 1.35744 -3.94922 0
M  V30 7954 N 744.962 1.50701 -0.461195 0
M  V30 7955 C 746.378 1.59187 -0.114786 0
M  V30 7956 C 746.578 1.4702 1.37794 0
M  V30 7957 O 745.634 1.32361 2.15027 0
M  V30 7958 C 746.947 2.93453 -0.656167 0
M  V30 7959 C 748.495 3.06824 -0.618715 0
M  V30 7960 C 748.97 4.4365 -1.13747 0
M  V30 7961 N 750.461 4.50035 -1.09646 0
M  V30 7962 C 751.196 5.54278 -1.46846 0
M  V30 7963 N 750.692 6.65822 -1.91448 0
M  V30 7964 N 752.485 5.44767 -1.38512 0
M  V30 7965 H 744.636 1.56853 -1.43216 0
M  V30 7966 H 746.899 0.740712 -0.59165 0
M  V30 7967 H 746.605 3.07802 -1.7015 0
M  V30 7968 H 746.479 3.77082 -0.0942261 0
M  V30 7969 H 748.866 2.92129 0.417685 0
M  V30 7970 H 748.947 2.24976 -1.21734 0
M  V30 7971 H 748.591 4.59093 -2.17245 0
M  V30 7972 H 748.521 5.24074 -0.515153 0
M  V30 7973 H 751.012 3.69988 -0.769217 0
M  V30 7974 H 751.325 7.41413 -2.18007 0
M  V30 7975 H 749.67 6.66968 -1.95393 0
M  V30 7976 H 752.861 4.56511 -1.03516 0
M  V30 7977 H 753.034 6.25889 -1.6783 0
M  V30 7978 N 746.441 0.193421 1.56409 0
M  V30 7979 C 747.69 -0.445995 1.96707 0
M  V30 7980 C 748.003 -1.62876 1.08309 0
M  V30 7981 O 749.209 -2.33586 1.38383 0
M  V30 7982 C 747.665 -0.844863 3.49843 0
M  V30 7983 C 747.273 0.31352 4.46902 0
M  V30 7984 C 749.017 -1.45146 3.98915 0
M  V30 7985 C 746.924 -0.106214 5.91305 0
M  V30 7986 H 745.854 -0.170398 0.734493 0
M  V30 7987 H 748.505 0.285172 1.81271 0
M  V30 7988 H 746.887 -1.63265 3.60778 0
M  V30 7989 H 748.061 1.09103 4.47698 0
M  V30 7990 H 746.376 0.8315 4.08014 0
M  V30 7991 H 748.973 -1.77792 5.04276 0
M  V30 7992 H 749.316 -2.35734 3.43126 0
M  V30 7993 H 749.849 -0.727675 3.91088 0
M  V30 7994 H 746.588 0.765442 6.51016 0
M  V30 7995 H 746.108 -0.848623 5.93766 0
M  V30 7996 H 747.787 -0.542588 6.44721 0
M  V30 7997 N 747.919 -1.57396 -0.0801906 0
M  V30 7998 C 749.167 -1.86467 -0.779384 0
M  V30 7999 C 749.488 -0.784243 -1.78535 0
M  V30 8000 O 748.758 0.187986 -1.94996 0
M  V30 8001 H 747.338 -0.68806 -0.29083 0
M  V30 8002 H 750 -1.94813 -0.0582749 0
M  V30 8003 H 749.096 -2.83701 -1.30078 0
M  V30 8004 N 749.397 0.351382 -1.53633 0
M  V30 8005 C 750.622 1.11718 -1.74739 0
M  V30 8006 C 751.047 1.81829 -0.481657 0
M  V30 8007 O 750.405 1.72264 0.565233 0
M  V30 8008 C 750.453 2.11234 -2.92254 0
M  V30 8009 O 749.557 3.186 -2.61855 0
M  V30 8010 H 748.898 0.323482 -0.579875 0
M  V30 8011 H 751.428 0.404167 -2.00568 0
M  V30 8012 H 751.438 2.54591 -3.18822 0
M  V30 8013 H 750.113 1.59599 -3.84058 0
M  V30 8014 H 748.69 2.80115 -2.4615 0
M  V30 8015 N 750.875 1.45233 0.611969 0
M  V30 8016 C 752.1 1.52767 1.40274 0
M  V30 8017 C 752.525 0.159701 1.87421 0
M  V30 8018 O 751.883 -0.854837 1.59882 0
M  V30 8019 C 751.931 2.51286 2.58626 0
M  V30 8020 O 751.035 2.02764 3.59111 0
M  V30 8021 H 750.376 0.515141 0.418958 0
M  V30 8022 H 752.906 1.90547 0.745188 0
M  V30 8023 H 752.916 2.69949 3.05927 0
M  V30 8024 H 751.591 3.50641 2.23659 0
M  V30 8025 H 750.168 1.93957 3.18489 0
M  V30 8026 N 752.353 -0.854086 1.3245 0
M  V30 8027 C 753.769 -1.14238 1.11453 0
M  V30 8028 C 753.969 -2.01228 -0.10461 0
M  V30 8029 O 753.025 -2.39845 -0.789339 0
M  V30 8030 C 754.338 -1.81916 2.39431 0
M  V30 8031 C 755.886 -1.94549 2.45193 0
M  V30 8032 C 756.361 -2.65642 3.73093 0
M  V30 8033 N 757.852 -2.73167 3.74078 0
M  V30 8034 C 758.587 -3.28828 4.69744 0
M  V30 8035 N 758.083 -3.85295 5.75778 0
M  V30 8036 N 759.876 -3.26936 4.57241 0
M  V30 8037 H 752.027 -0.274786 2.10615 0
M  V30 8038 H 754.29 -0.184375 0.929898 0
M  V30 8039 H 753.996 -1.25452 3.28565 0
M  V30 8040 H 753.87 -2.82068 2.50434 0
M  V30 8041 H 756.257 -2.50172 1.56518 0
M  V30 8042 H 756.338 -0.933914 2.38142 0
M  V30 8043 H 755.982 -2.10683 4.62142 0
M  V30 8044 H 755.912 -3.6724 3.77415 0
M  V30 8045 H 758.403 -2.33108 2.97438 0
M  V30 8046 H 758.716 -4.25925 6.44832 0
M  V30 8047 H 757.061 -3.83625 5.79531 0
M  V30 8048 H 760.252 -2.8207 3.7357 0
M  V30 8049 H 760.425 -3.70014 5.31971 0
M  V30 8050 N 753.831 -1.1567 -1.07043 0
M  V30 8051 C 754.794 -0.858906 -2.12498 0
M  V30 8052 C 755.794 0.142735 -1.60165 0
M  V30 8053 O 756.984 -0.0872678 -1.73981 0
M  V30 8054 C 754.116 -0.283021 -3.39723 0
M  V30 8055 H 755.309 -1.79368 -2.40348 0
M  V30 8056 H 752.862 -0.964608 -1.22984 0
M  V30 8057 H 753.597 0.659796 -3.17517 0
M  V30 8058 H 753.382 -1.00467 -3.7901 0
M  V30 8059 H 754.872 -0.0923543 -4.17498 0
M  V30 8060 N 755.309 1.25446 -0.953992 0
M  V30 8061 C 756.558 1.92441 -0.604101 0
M  V30 8062 C 756.871 1.75543 0.862796 0
M  V30 8063 O 758.077 2.37106 1.32262 0
M  V30 8064 C 756.533 3.44854 -1.02974 0
M  V30 8065 C 756.141 3.70464 -2.51914 0
M  V30 8066 C 757.885 4.1778 -0.752352 0
M  V30 8067 C 755.792 5.1638 -2.88281 0
M  V30 8068 H 754.722 0.720508 -0.222227 0
M  V30 8069 H 757.373 1.42318 -1.15836 0
M  V30 8070 H 755.755 3.93935 -0.403904 0
M  V30 8071 H 756.929 3.32038 -3.19511 0
M  V30 8072 H 755.244 3.10797 -2.77117 0
M  V30 8073 H 757.841 5.25261 -1.00024 0
M  V30 8074 H 758.184 4.15135 0.311212 0
M  V30 8075 H 758.717 3.74605 -1.33851 0
M  V30 8076 H 755.456 5.24135 -3.93653 0
M  V30 8077 H 754.976 5.55855 -2.25357 0
M  V30 8078 H 756.655 5.84497 -2.77439 0
M  V30 8079 N 756.787 0.722489 1.40064 0
M  V30 8080 C 758.015 0.274838 2.05066 0
M  V30 8081 C 758.43 -1.08586 1.54449 0
M  V30 8082 O 757.787 -1.68375 0.704003 0
M  V30 8083 C 757.838 0.253673 3.60609 0
M  V30 8084 O 757.559 1.56064 4.0936 0
M  V30 8085 C 759.06 -0.211684 4.42794 0
M  V30 8086 H 756.28 0.12226 0.659768 0
M  V30 8087 H 758.824 0.982632 1.79345 0
M  V30 8088 H 756.979 -0.405137 3.85276 0
M  V30 8089 H 757.393 1.46576 5.03603 0
M  V30 8090 H 758.867 -0.175341 5.51721 0
M  V30 8091 H 759.344 -1.25493 4.2089 0
M  V30 8092 H 759.95 0.4171 4.2325 0
M  V30 8093 N 758.265 -1.50454 0.469181 0
M  V30 8094 C 759.197 -2.26319 -0.362247 0
M  V30 8095 C 760.21 -1.31574 -0.958751 0
M  V30 8096 O 761.399 -1.57099 -0.847482 0
M  V30 8097 C 758.499 -3.02808 -1.52187 0
M  V30 8098 C 757.672 -4.24893 -1.03849 0
M  V30 8099 C 756.731 -4.83691 -2.07194 0
M  V30 8100 O 755.757 -5.44659 -1.65333 0
M  V30 8101 N 756.959 -4.70522 -3.39985 0
M  V30 8102 H 759.724 -2.98312 0.288124 0
M  V30 8103 H 757.285 -1.59099 0.299856 0
M  V30 8104 H 759.277 -3.39023 -2.21011 0
M  V30 8105 H 757.847 -2.33625 -2.07697 0
M  V30 8106 H 757.067 -3.93806 -0.176203 0
M  V30 8107 H 758.355 -5.04053 -0.693435 0
M  V30 8108 H 757.753 -4.2203 -3.76706 0
M  V30 8109 H 756.31 -5.11011 -4.04612 0
M  V30 8110 N 759.743 -0.201713 -1.56304 0
M  V30 8111 C 760.673 0.71155 -2.22394 0
M  V30 8112 C 761.654 1.21625 -1.18917 0
M  V30 8113 O 762.839 1.26388 -1.47444 0
M  V30 8114 C 759.969 1.92837 -2.88845 0
M  V30 8115 C 758.923 1.55831 -3.98623 0
M  V30 8116 C 758.249 2.85228 -4.52271 0
M  V30 8117 C 759.549 0.763249 -5.16693 0
M  V30 8118 H 761.243 0.160573 -2.98969 0
M  V30 8119 H 758.789 0.0757916 -1.438 0
M  V30 8120 H 760.742 2.57253 -3.33764 0
M  V30 8121 H 759.466 2.50398 -2.09686 0
M  V30 8122 H 758.125 0.9377 -3.54405 0
M  V30 8123 H 757.773 3.40893 -3.69866 0
M  V30 8124 H 757.473 2.6121 -5.26349 0
M  V30 8125 H 758.997 3.50622 -4.99897 0
M  V30 8126 H 760.411 1.31066 -5.58117 0
M  V30 8127 H 758.808 0.620935 -5.96879 0
M  V30 8128 H 759.878 -0.234322 -4.84334 0
M  V30 8129 N 761.222 1.57436 0.0718424 0
M  V30 8130 C 762.471 1.86431 0.769826 0
M  V30 8131 C 762.784 0.794355 1.78744 0
M  V30 8132 O 763.99 0.972148 2.53499 0
M  V30 8133 C 762.446 3.307 1.42006 0
M  V30 8134 C 762.054 4.45824 0.441017 0
M  V30 8135 C 763.798 3.68894 2.10041 0
M  V30 8136 C 761.705 5.81134 1.09717 0
M  V30 8137 H 760.635 0.695474 0.291259 0
M  V30 8138 H 763.286 1.83485 0.0231224 0
M  V30 8139 H 761.668 3.28257 2.21502 0
M  V30 8140 H 762.842 4.59659 -0.32413 0
M  V30 8141 H 761.157 4.16181 -0.134886 0
M  V30 8142 H 763.754 4.67281 2.59908 0
M  V30 8143 H 764.097 2.98692 2.89981 0
M  V30 8144 H 764.63 3.73326 1.37376 0
M  V30 8145 H 761.369 6.54628 0.338095 0
M  V30 8146 H 760.889 5.711 1.83317 0
M  V30 8147 H 762.568 6.26468 1.617 0
M  V30 8148 N 762.7 -0.34323 1.53817 0
M  V30 8149 C 763.63 -1.42709 1.84814 0
M  V30 8150 C 764.611 -1.5488 0.703297 0
M  V30 8151 O 765.796 -1.69082 0.955237 0
M  V30 8152 C 762.926 -2.79756 2.05801 0
M  V30 8153 C 761.88 -2.82392 3.21619 0
M  V30 8154 C 761.206 -4.22326 3.2794 0
M  V30 8155 C 762.506 -2.479 4.59721 0
M  V30 8156 H 764.2 -1.17018 2.75585 0
M  V30 8157 H 761.746 -0.561485 1.32602 0
M  V30 8158 H 763.699 -3.55627 2.26069 0
M  V30 8159 H 762.423 -3.06883 1.11761 0
M  V30 8160 H 761.082 -2.08974 3.01207 0
M  V30 8161 H 760.73 -4.46564 2.31494 0
M  V30 8162 H 760.43 -4.25001 4.05768 0
M  V30 8163 H 761.954 -5.00039 3.50419 0
M  V30 8164 H 763.368 -3.13484 4.80001 0
M  V30 8165 H 761.765 -2.61857 5.39954 0
M  V30 8166 H 762.835 -1.43087 4.63308 0
M  V30 8167 N 764.178 -1.45556 -0.604258 0
M  V30 8168 C 765.126 -1.5482 -1.7359 0
M  V30 8169 C 766.12 -0.417966 -1.64163 0
M  V30 8170 O 767.326 -0.594007 -1.69916 0
M  V30 8171 H 763.701 -0.486352 -0.573556 0
M  V30 8172 H 765.672 -2.5001 -1.62903 0
M  V30 8173 C 764.421 -1.53521 -3.11972 0
M  V30 8174 H 763.744 -2.39818 -3.19886 0
M  V30 8175 H 765.184 -1.64061 -3.90973 0
M  V30 8176 C 763.643 -0.260191 -3.35894 0
M  V30 8177 O 764.173 0.658582 -3.96265 0
M  V30 8178 N 762.379 -0.154839 -2.90187 0
M  V30 8179 H 761.926 -0.903378 -2.4124 0
M  V30 8180 H 761.884 0.697437 -3.06567 0
M  V30 8181 N 765.656 0.84705 -1.32902 0
M  V30 8182 C 766.586 1.97166 -1.25091 0
M  V30 8183 C 767.567 1.69578 -0.133161 0
M  V30 8184 O 768.752 1.91519 -0.321591 0
M  V30 8185 C 765.882 3.33157 -0.981006 0
M  V30 8186 C 764.836 3.75119 -2.06082 0
M  V30 8187 C 764.162 5.08826 -1.64318 0
M  V30 8188 C 765.462 3.89774 -3.47669 0
M  V30 8189 H 767.156 2.03958 -2.19184 0
M  V30 8190 H 764.702 0.979907 -1.05517 0
M  V30 8191 H 766.655 4.11393 -0.912891 0
M  V30 8192 H 765.379 3.266 -0.00445559 0
M  V30 8193 H 764.038 2.9914 -2.11921 0
M  V30 8194 H 763.686 4.98732 -0.653876 0
M  V30 8195 H 763.386 5.37873 -2.36572 0
M  V30 8196 H 764.91 5.89546 -1.58958 0
M  V30 8197 H 766.324 4.58343 -3.44376 0
M  V30 8198 H 764.721 4.30248 -4.18338 0
M  V30 8199 H 765.791 2.92463 -3.86773 0
M  V30 8200 N 767.134 1.16236 1.06428 0
M  V30 8201 C 768.38 0.944431 1.79467 0
M  V30 8202 C 768.713 -0.526558 1.86925 0
M  V30 8203 O 767.988 -1.39061 1.35986 0
M  V30 8204 C 768.271 1.57092 3.24028 0
M  V30 8205 C 768.124 3.11315 3.24658 0
M  V30 8206 C 769.443 1.26447 4.21544 0
M  V30 8207 H 766.562 0.344521 0.651517 0
M  V30 8208 H 769.204 1.43545 1.24478 0
M  V30 8209 H 767.354 1.15337 3.70985 0
M  V30 8210 H 769.026 3.62042 2.85873 0
M  V30 8211 H 767.269 3.44716 2.6335 0
M  V30 8212 H 767.94 3.50269 4.26633 0
M  V30 8213 H 770.416 1.62581 3.83023 0
M  V30 8214 H 769.292 1.72885 5.20963 0
M  V30 8215 H 769.553 0.183068 4.41721 0
M  V30 8216 N 768.612 -1.24939 0.960631 0
M  V30 8217 C 769.522 -2.29374 0.492435 0
M  V30 8218 C 770.538 -1.68262 -0.443154 0
M  V30 8219 O 771.714 -1.98875 -0.31793 0
M  V30 8220 C 768.779 -3.46023 -0.216626 0
M  V30 8221 C 767.84 -4.22557 0.757915 0
M  V30 8222 C 767.073 -5.33636 0.0825969 0
M  V30 8223 O 767.296 -5.59084 -1.13054 0
M  V30 8224 O 766.23 -5.96939 0.771177 0
M  V30 8225 H 770.056 -2.71525 1.36044 0
M  V30 8226 H 767.641 -1.30499 0.72735 0
M  V30 8227 H 769.523 -4.16885 -0.615241 0
M  V30 8228 H 768.198 -3.05862 -1.05971 0
M  V30 8229 H 767.105 -3.54099 1.20685 0
M  V30 8230 H 768.438 -4.66516 1.5692 0
M  V30 8231 N 770.09 -0.729906 -1.39679 0
M  V30 8232 C 771.338 -0.275077 -2.00219 0
M  V30 8233 C 771.659 1.1401 -1.58199 0
M  V30 8234 O 770.929 1.77546 -0.827904 0
M  V30 8235 H 769.509 -0.0987127 -0.740449 0
M  V30 8236 H 772.171 -0.93873 -1.70804 0
M  V30 8237 H 771.267 -0.319446 -3.10461 0
M  V30 8238 N 771.568 1.50203 -0.477153 0
M  V30 8239 C 772.793 2.07263 0.0754986 0
M  V30 8240 C 773.218 1.33801 1.32208 0
M  V30 8241 O 772.576 0.387482 1.77111 0
M  V30 8242 C 772.624 3.59028 0.336348 0
M  V30 8243 O 771.728 3.87339 1.4157 0
M  V30 8244 H 771.069 0.663815 -0.015662 0
M  V30 8245 H 773.599 1.93321 -0.669936 0
M  V30 8246 H 773.609 4.03927 0.575034 0
M  V30 8247 H 772.284 4.11912 -0.574551 0
M  V30 8248 H 770.861 3.54272 1.16385 0
M  V30 8249 N 773.046 0.209999 1.56195 0
M  V30 8250 C 774.457 -0.299943 1.84275 0
M  V30 8251 C 774.808 -1.60314 1.1311 0
M  V30 8252 O 773.933 -2.1273 0.396874 0
M  V30 8253 C 774.528 -0.550986 3.3429 0
M  V30 8254 C 773.087 -1.00526 3.62728 0
M  V30 8255 C 772.234 -0.0619828 2.77231 0
M  V30 8256 H 775.185 0.433458 1.52666 0
M  V30 8257 H 775.206 -1.39846 3.53869 0
M  V30 8258 H 774.718 0.397669 3.86057 0
M  V30 8259 H 772.819 -1.96768 3.16407 0
M  V30 8260 H 772.932 -0.887664 4.70805 0
M  V30 8261 H 771.296 -0.566648 2.48317 0
M  V30 8262 H 772.079 0.881383 3.31793 0
M  V30 8263 N 774.524 -1.57472 -0.0634922 0
M  V30 8264 C 775.773 -1.86837 -0.759928 0
M  V30 8265 C 776.086 -0.803823 -1.7832 0
M  V30 8266 O 777.292 -0.985578 -2.52979 0
M  V30 8267 C 775.748 -3.31448 -1.4025 0
M  V30 8268 C 775.356 -4.46052 -0.417368 0
M  V30 8269 C 777.1 -3.70003 -2.08082 0
M  V30 8270 C 775.007 -5.81707 -1.06633 0
M  V30 8271 H 773.937 -0.697009 -0.287567 0
M  V30 8272 H 776.588 -1.83495 -0.0133914 0
M  V30 8273 H 774.97 -3.29427 -2.19759 0
M  V30 8274 H 776.144 -4.5948 0.348503 0
M  V30 8275 H 774.459 -4.16104 0.156955 0
M  V30 8276 H 777.056 -4.68653 -2.57426 0
M  V30 8277 H 777.399 -3.00226 -2.88393 0
M  V30 8278 H 777.932 -3.7405 -1.35394 0
M  V30 8279 H 774.671 -6.54798 -0.303374 0
M  V30 8280 H 774.191 -5.72064 -1.80286 0
M  V30 8281 H 775.87 -6.27317 -1.58376 0
M  V30 8282 N 776.003 0.335068 -1.53997 0
M  V30 8283 C 776.95 1.41187 -1.82579 0
M  V30 8284 C 777.92 1.51897 -0.672061 0
M  V30 8285 O 779.105 1.673 -0.917346 0
M  V30 8286 C 776.245 2.77717 -2.0486 0
M  V30 8287 C 775.358 2.7573 -3.32561 0
M  V30 8288 C 774.493 4.04032 -3.44864 0
M  V30 8289 C 773.532 3.96308 -4.66483 0
M  V30 8290 N 772.669 5.16317 -4.75774 0
M  V30 8291 H 777.509 1.16113 -2.74448 0
M  V30 8292 H 775.046 0.562305 -1.35928 0
M  V30 8293 H 777.004 3.57071 -2.15768 0
M  V30 8294 H 775.634 3.01124 -1.16294 0
M  V30 8295 H 774.686 1.88432 -3.3045 0
M  V30 8296 H 775.998 2.65902 -4.22016 0
M  V30 8297 H 775.152 4.91814 -3.55251 0
M  V30 8298 H 773.891 4.16652 -2.53481 0
M  V30 8299 H 772.896 3.06911 -4.56164 0
M  V30 8300 H 774.121 3.85263 -5.5924 0
M  V30 8301 H 772.067 5.29464 -3.87303 0
M  V30 8302 H 771.984 5.08779 -5.59178 0
M  V30 8303 H 773.252 6.05846 -4.9048 0
M  V30 8304 N 777.481 1.45874 0.596531 0
M  V30 8305 C 778.411 1.5824 1.71705 0
M  V30 8306 C 779.392 0.433366 1.64487 0
M  V30 8307 O 780.577 0.657895 1.82717 0
M  V30 8308 C 777.707 1.55927 3.10329 0
M  V30 8309 C 776.661 2.69659 3.32367 0
M  V30 8310 C 775.987 2.52403 4.71377 0
M  V30 8311 C 777.287 4.11591 3.21544 0
M  V30 8312 H 778.981 2.52035 1.61613 0
M  V30 8313 H 776.527 1.21297 0.776082 0
M  V30 8314 H 778.48 1.63173 3.88526 0
M  V30 8315 H 777.204 0.586674 3.21288 0
M  V30 8316 H 775.863 2.61859 2.56564 0
M  V30 8317 H 775.511 1.53258 4.79083 0
M  V30 8318 H 775.211 3.28679 4.87077 0
M  V30 8319 H 776.735 2.6152 5.5176 0
M  V30 8320 H 778.149 4.20576 3.89601 0
M  V30 8321 H 776.546 4.88344 3.4877 0
M  V30 8322 H 777.616 4.32719 2.1882 0
M  V30 8323 N 778.959 -0.83999 1.33349 0
M  V30 8324 C 780.208 -1.59011 1.2409 0
M  V30 8325 C 780.521 -1.94655 -0.192029 0
M  V30 8326 O 781.727 -2.68438 -0.406617 0
M  V30 8327 C 780.183 -2.86801 2.17425 0
M  V30 8328 C 779.791 -2.58525 3.65881 0
M  V30 8329 C 781.535 -3.64823 2.17036 0
M  V30 8330 C 779.442 -3.82404 4.51133 0
M  V30 8331 H 778.372 -0.596731 0.460899 0
M  V30 8332 H 781.023 -0.926274 1.58406 0
M  V30 8333 H 779.405 -3.54719 1.7604 0
M  V30 8334 H 780.579 -1.98824 4.15699 0
M  V30 8335 H 778.894 -1.93808 3.68548 0
M  V30 8336 H 781.491 -4.56774 2.7796 0
M  V30 8337 H 781.834 -3.99663 1.16513 0
M  V30 8338 H 782.367 -3.03826 2.56777 0
M  V30 8339 H 779.106 -3.52696 5.52527 0
M  V30 8340 H 778.626 -4.41447 4.0606 0
M  V30 8341 H 780.305 -4.49995 4.6488 0
M  V30 8342 N 780.437 -1.16799 -1.0581 0
M  V30 8343 C 781.714 -0.862616 -1.75551 0
M  V30 8344 C 782.094 0.6385 -2.01212 0
M  V30 8345 O 781.442 1.58784 -1.64317 0
M  V30 8346 C 781.652 -1.6907 -3.05314 0
M  V30 8347 C 783 -1.90675 -3.79379 0
M  V30 8348 O 784.024 -1.65976 -3.15167 0
M  V30 8349 O 782.883 -2.32145 -4.94743 0
M  V30 8350 H 779.977 -0.318789 -0.763088 0
M  V30 8351 H 782.523 -1.27461 -1.12034 0
M  V30 8352 H 781.295 -2.70912 -2.82352 0
M  V30 8353 H 780.918 -1.27606 -3.76567 0
M  V30 8354 N 781.915 1.24427 -0.967243 0
M  V30 8355 C 783.163 1.92107 -0.627638 0
M  V30 8356 C 783.484 1.75991 0.83978 0
M  V30 8357 O 782.754 1.13118 1.59941 0
M  V30 8358 H 781.334 0.710986 -0.229145 0
M  V30 8359 H 783.996 1.51331 -1.22821 0
M  V30 8360 H 783.092 2.99791 -0.867844 0
M  V30 8361 N 783.393 0.737304 1.3929 0
M  V30 8362 C 784.641 0.285691 2.00071 0
M  V30 8363 C 784.962 -1.13169 1.58801 0
M  V30 8364 O 784.232 -1.77104 0.837308 0
M  V30 8365 H 782.812 0.102638 0.739915 0
M  V30 8366 H 785.474 0.947775 1.70303 0
M  V30 8367 H 784.57 0.335906 3.10287 0
M  V30 8368 N 784.871 -1.49948 0.485112 0
M  V30 8369 C 785.818 -2.28819 -0.301729 0
M  V30 8370 C 786.788 -1.34496 -0.974683 0
M  V30 8371 O 787.973 -1.63444 -0.984418 0
M  V30 8372 C 785.113 -3.16758 -1.36961 0
M  V30 8373 C 784.226 -4.26125 -0.710027 0
M  V30 8374 C 783.361 -5.01302 -1.75699 0
M  V30 8375 C 782.4 -6.02525 -1.07841 0
M  V30 8376 N 781.537 -6.70927 -2.06886 0
M  V30 8377 H 786.377 -2.95604 0.377127 0
M  V30 8378 H 783.914 -1.45764 0.197826 0
M  V30 8379 H 785.872 -3.66106 -2.00056 0
M  V30 8380 H 784.502 -2.51991 -2.01744 0
M  V30 8381 H 783.554 -3.80385 0.0338278 0
M  V30 8382 H 784.866 -4.98493 -0.175079 0
M  V30 8383 H 784.02 -5.54438 -2.46339 0
M  V30 8384 H 782.759 -4.28672 -2.32577 0
M  V30 8385 H 781.764 -5.48635 -0.357706 0
M  V30 8386 H 782.989 -6.77134 -0.516345 0
M  V30 8387 H 780.935 -6.01079 -2.62755 0
M  V30 8388 H 780.852 -7.39216 -1.58414 0
M  V30 8389 H 782.12 -7.28675 -2.76863 0
M  V30 8390 N 786.349 -0.21828 -1.56081 0
M  V30 8391 C 787.281 0.725447 -2.17416 0
M  V30 8392 C 788.294 1.15995 -1.14233 0
M  V30 8393 O 789.483 1.09166 -1.41227 0
M  V30 8394 C 786.583 1.99401 -2.7403 0
M  V30 8395 C 785.756 1.7156 -4.02351 0
M  V30 8396 C 784.815 2.8309 -4.43561 0
M  V30 8397 O 783.841 2.51701 -5.10525 0
M  V30 8398 N 785.043 4.11972 -4.08973 0
M  V30 8399 H 787.808 0.200801 -2.99027 0
M  V30 8400 H 785.369 -0.0371514 -1.61857 0
M  V30 8401 H 787.361 2.73198 -2.98571 0
M  V30 8402 H 785.931 2.42923 -1.96742 0
M  V30 8403 H 785.151 0.814233 -3.85699 0
M  V30 8404 H 786.439 1.50385 -4.86068 0
M  V30 8405 H 785.837 4.40319 -3.55156 0
M  V30 8406 H 784.394 4.82323 -4.38415 0
M  V30 8407 N 787.827 1.57504 0.0551401 0
M  V30 8408 C 788.774 2.04825 1.06373 0
M  V30 8409 C 789.744 0.932108 1.37481 0
M  V30 8410 O 790.929 1.20093 1.48265 0
M  V30 8411 C 788.069 2.51091 2.36743 0
M  V30 8412 C 787.182 3.76392 2.12021 0
M  V30 8413 C 786.317 4.11373 3.36074 0
M  V30 8414 C 785.356 5.29666 3.0679 0
M  V30 8415 N 784.493 5.60205 4.2322 0
M  V30 8416 H 789.333 2.90753 0.653216 0
M  V30 8417 H 786.87 1.43776 0.310951 0
M  V30 8418 H 788.828 2.75973 3.12881 0
M  V30 8419 H 787.458 1.68118 2.75565 0
M  V30 8420 H 786.51 3.58751 1.26498 0
M  V30 8421 H 787.822 4.62662 1.86401 0
M  V30 8422 H 786.976 4.37245 4.20597 0
M  V30 8423 H 785.715 3.23704 3.64784 0
M  V30 8424 H 784.72 5.03574 2.20664 0
M  V30 8425 H 785.945 6.18968 2.79385 0
M  V30 8426 H 783.891 4.75495 4.5193 0
M  V30 8427 H 783.808 6.40928 4.00933 0
M  V30 8428 H 785.076 5.90637 5.08692 0
M  V30 8429 N 789.305 -0.326896 1.54172 0
M  V30 8430 C 790.721 -0.671034 1.44808 0
M  V30 8431 C 790.921 -1.91781 0.618258 0
M  V30 8432 O 789.977 -2.52235 0.115751 0
M  V30 8433 C 791.29 -0.848147 2.88491 0
M  V30 8434 C 792.838 -0.945702 2.98371 0
M  V30 8435 C 793.313 -1.15501 4.43197 0
M  V30 8436 N 794.804 -1.22183 4.46795 0
M  V30 8437 C 795.539 -1.4016 5.56006 0
M  V30 8438 N 795.035 -1.55202 6.75192 0
M  V30 8439 N 796.828 -1.42841 5.43648 0
M  V30 8440 H 788.979 0.49262 2.06608 0
M  V30 8441 H 791.242 0.158574 0.934643 0
M  V30 8442 H 790.948 -0.00329969 3.517 0
M  V30 8443 H 790.822 -1.74497 3.34411 0
M  V30 8444 H 793.209 -1.78106 2.35292 0
M  V30 8445 H 793.29 -0.0254215 2.55787 0
M  V30 8446 H 792.934 -0.324521 5.06862 0
M  V30 8447 H 792.864 -2.08911 4.83388 0
M  V30 8448 H 795.355 -1.12016 3.60917 0
M  V30 8449 H 795.668 -1.68601 7.54184 0
M  V30 8450 H 794.013 -1.52306 6.78106 0
M  V30 8451 H 797.204 -1.30683 4.49488 0
M  V30 8452 H 797.377 -1.56509 6.28816 0
M  V30 8453 N 790.784 -1.46188 -0.588786 0
M  V30 8454 C 792.024 -1.52738 -1.35833 0
M  V30 8455 C 792.388 -0.172403 -1.91224 0
M  V30 8456 O 793.589 -0.112633 -2.68564 0
M  V30 8457 C 791.86 -2.59085 -2.4619 0
M  V30 8458 S 793.419 -2.84997 -3.3365 0
M  V30 8459 H 790.237 -0.539713 -0.462851 0
M  V30 8460 H 792.839 -1.83386 -0.677489 0
M  V30 8461 H 791.543 -3.56177 -2.03878 0
M  V30 8462 H 791.074 -2.3015 -3.19053 0
M  V30 8463 H 793.089 -2.19804 -4.4486 0
M  V30 8464 N 792.262 0.832906 -1.33792 0
M  V30 8465 C 793.509 1.58853 -1.25586 0
M  V30 8466 C 793.837 1.93695 0.176807 0
M  V30 8467 O 793.092 1.59386 1.13554 0
M  V30 8468 C 793.391 2.9047 -2.08235 0
M  V30 8469 C 793.057 2.74965 -3.57358 0
M  V30 8470 C 791.719 2.70444 -3.98012 0
M  V30 8471 C 794.071 2.59347 -4.52093 0
M  V30 8472 C 791.399 2.48212 -5.31608 0
M  V30 8473 C 793.751 2.38649 -5.85858 0
M  V30 8474 C 792.415 2.32533 -6.25687 0
M  V30 8475 H 791.685 0.581285 -0.459553 0
M  V30 8476 H 794.332 0.964501 -1.65438 0
M  V30 8477 H 792.637 3.57111 -1.6118 0
M  V30 8478 H 794.334 3.48001 -1.99239 0
M  V30 8479 H 790.924 2.79319 -3.25083 0
M  V30 8480 H 795.108 2.6187 -4.2159 0
M  V30 8481 H 790.364 2.41929 -5.61498 0
M  V30 8482 H 794.538 2.25549 -6.58863 0
M  V30 8483 H 792.165 2.15067 -7.29143 0
M  V30 8484 N 793.74 1.17359 1.05189 0
M  V30 8485 C 794.968 0.986529 1.81866 0
M  V30 8486 C 795.383 -0.46522 1.82979 0
M  V30 8487 O 794.74 -1.32305 1.25705 0
M  V30 8488 C 794.791 1.52021 3.27982 0
M  V30 8489 O 794.512 2.91511 3.27037 0
M  V30 8490 C 796.013 1.37774 4.21347 0
M  V30 8491 H 793.233 0.349021 0.573084 0
M  V30 8492 H 795.777 1.55648 1.32643 0
M  V30 8493 H 793.932 0.992287 3.74476 0
M  V30 8494 H 794.346 3.16178 4.18488 0
M  V30 8495 H 795.82 1.7993 5.21852 0
M  V30 8496 H 796.297 0.32483 4.37997 0
M  V30 8497 H 796.903 1.89583 3.80708 0
M  V30 8498 N 795.218 -1.23913 0.973828 0
M  V30 8499 C 796.495 -1.87539 0.555729 0
M  V30 8500 C 796.875 -1.87641 -0.967162 0
M  V30 8501 O 796.223 -1.35335 -1.84111 0
M  V30 8502 C 796.433 -3.29359 1.15427 0
M  V30 8503 C 797.781 -4.06 1.24294 0
M  V30 8504 O 798.805 -3.38554 1.10723 0
M  V30 8505 O 797.664 -5.26689 1.45813 0
M  V30 8506 H 794.758 -0.805769 0.186188 0
M  V30 8507 H 797.304 -1.31838 1.06849 0
M  V30 8508 H 796.076 -3.23817 2.19678 0
M  V30 8509 H 795.699 -3.92642 0.625925 0
M  V30 8510 N 796.696 -0.74468 -1.38897 0
M  V30 8511 C 797.945 -0.293716 -1.9955 0
M  V30 8512 C 798.258 1.12831 -1.59777 0
M  V30 8513 O 799.464 1.67929 -2.13336 0
M  V30 8514 C 797.92 -0.474188 -3.56762 0
M  V30 8515 C 797.528 -1.90472 -4.05493 0
M  V30 8516 C 799.272 -0.0854875 -4.24414 0
M  V30 8517 C 797.179 -2.03423 -5.55314 0
M  V30 8518 H 796.109 -0.106066 -0.746502 0
M  V30 8519 H 798.76 -0.919948 -1.58774 0
M  V30 8520 H 797.142 0.221092 -3.95382 0
M  V30 8521 H 798.316 -2.63274 -3.78184 0
M  V30 8522 H 796.631 -2.24752 -3.50536 0
M  V30 8523 H 799.228 -0.161133 -5.34457 0
M  V30 8524 H 799.571 0.96066 -4.05064 0
M  V30 8525 H 800.104 -0.732286 -3.91002 0
M  V30 8526 H 796.843 -3.0626 -5.79556 0
M  V30 8527 H 796.363 -1.3507 -5.84394 0
M  V30 8528 H 798.042 -1.81996 -6.20876 0
M  V30 8529 N 798.174 1.49689 -0.493057 0
M  V30 8530 C 799.59 1.58907 -0.148526 0
M  V30 8531 C 799.79 1.4991 1.34645 0
M  V30 8532 O 798.846 1.36893 2.12171 0
M  V30 8533 C 800.159 2.91996 -0.718265 0
M  V30 8534 C 801.707 3.05443 -0.683658 0
M  V30 8535 C 802.182 4.41138 -1.23132 0
M  V30 8536 N 803.673 4.47608 -1.19167 0
M  V30 8537 C 804.408 5.51038 -1.5857 0
M  V30 8538 N 803.904 6.61612 -2.05528 0
M  V30 8539 N 805.697 5.41706 -1.50036 0
M  V30 8540 H 797.848 1.5378 -1.46511 0
M  V30 8541 H 800.111 0.727996 -0.607228 0
M  V30 8542 H 799.817 3.04123 -1.7664 0
M  V30 8543 H 799.691 3.76798 -0.17419 0
M  V30 8544 H 802.078 2.92949 0.355626 0
M  V30 8545 H 802.159 2.22344 -1.26479 0
M  V30 8546 H 801.803 4.54382 -2.26935 0
M  V30 8547 H 801.733 5.22864 -0.626201 0
M  V30 8548 H 804.224 3.68274 -0.847524 0
M  V30 8549 H 804.537 7.36622 -2.33685 0
M  V30 8550 H 802.882 6.62674 -2.09497 0
M  V30 8551 H 806.073 4.54212 -1.13176 0
M  V30 8552 H 806.246 6.22188 -1.81068 0
M  V30 8553 N 799.652 0.226554 1.55963 0
M  V30 8554 C 800.929 -0.453058 1.90281 0
M  V30 8555 C 801.309 -1.77377 1.14458 0
M  V30 8556 O 800.657 -2.27067 0.255496 0
M  V30 8557 C 800.867 -0.641108 3.43061 0
M  V30 8558 C 802.215 -0.946265 4.13921 0
M  V30 8559 O 803.239 -0.727713 3.48687 0
M  V30 8560 O 802.098 -1.36131 5.29274 0
M  V30 8561 H 799.192 -0.240242 0.791336 0
M  V30 8562 H 801.738 0.26911 1.67553 0
M  V30 8563 H 800.51 0.290283 3.90222 0
M  V30 8564 H 800.133 -1.41458 3.71585 0
M  V30 8565 N 801.13 -1.57531 -0.0467866 0
M  V30 8566 C 802.378 -1.88078 -0.739656 0
M  V30 8567 C 802.699 -0.821936 -1.76831 0
M  V30 8568 O 801.969 0.146582 -1.95351 0
M  V30 8569 H 800.549 -0.694075 -0.276169 0
M  V30 8570 H 803.211 -1.94893 -0.0169391 0
M  V30 8571 H 802.307 -2.86396 -1.24031 0
M  V30 8572 N 802.608 0.318715 -1.54344 0
M  V30 8573 C 803.857 1.05363 -1.71993 0
M  V30 8574 C 804.17 1.89018 -0.503155 0
M  V30 8575 O 805.376 2.65639 -0.561085 0
M  V30 8576 C 803.832 1.92281 -3.0423 0
M  V30 8577 C 803.44 1.13715 -4.33328 0
M  V30 8578 C 805.184 2.65479 -3.31242 0
M  V30 8579 C 803.091 1.99806 -5.56625 0
M  V30 8580 H 802.021 0.397081 -0.64097 0
M  V30 8581 H 804.672 0.311598 -1.80835 0
M  V30 8582 H 803.054 2.70402 -2.89307 0
M  V30 8583 H 804.228 0.403305 -4.59032 0
M  V30 8584 H 802.543 0.521769 -4.13118 0
M  V30 8585 H 805.14 3.30209 -4.20555 0
M  V30 8586 H 805.483 3.33374 -2.49334 0
M  V30 8587 H 806.016 1.94417 -3.47054 0
M  V30 8588 H 802.755 1.36411 -6.41149 0
M  V30 8589 H 802.275 2.70911 -5.35133 0
M  V30 8590 H 803.954 2.58277 -5.93213 0
M  V30 8591 N 804.086 1.46499 0.581025 0
M  V30 8592 C 804.996 1.59778 1.71779 0
M  V30 8593 C 806.012 0.481223 1.67213 0
M  V30 8594 O 807.188 0.74557 1.87091 0
M  V30 8595 C 804.253 1.58626 3.08283 0
M  V30 8596 C 803.314 2.81527 3.241 0
M  V30 8597 C 802.547 2.80421 4.54092 0
M  V30 8598 O 802.77 1.89262 5.38085 0
M  V30 8599 O 801.704 3.71984 4.73193 0
M  V30 8600 H 805.53 2.55918 1.63523 0
M  V30 8601 H 803.115 1.29311 0.748267 0
M  V30 8602 H 804.997 1.60686 3.89561 0
M  V30 8603 H 803.672 0.656467 3.16973 0
M  V30 8604 H 802.579 2.85021 2.42309 0
M  V30 8605 H 803.912 3.73721 3.20302 0
M  V30 8606 N 805.565 -0.825799 1.34232 0
M  V30 8607 C 806.528 -1.91808 1.25468 0
M  V30 8608 C 807.528 -1.59893 0.170567 0
M  V30 8609 O 808.718 -1.68986 0.422996 0
M  V30 8610 C 805.85 -3.27786 0.93644 0
M  V30 8611 H 807.043 -2.01003 2.22571 0
M  V30 8612 H 804.596 -1.01944 1.18479 0
M  V30 8613 H 805.331 -3.24285 -0.0315408 0
M  V30 8614 H 805.116 -3.52333 1.72057 0
M  V30 8615 H 806.606 -4.07782 0.900214 0
M  V30 8616 N 807.043 -1.17915 -1.04565 0
M  V30 8617 C 807.973 -0.925033 -2.14395 0
M  V30 8618 C 808.954 0.135375 -1.6956 0
M  V30 8619 O 810.139 -0.0161774 -1.94193 0
M  V30 8620 C 807.269 -0.444469 -3.44444 0
M  V30 8621 C 806.223 -1.44478 -4.02877 0
M  V30 8622 C 805.549 -0.821933 -5.28345 0
M  V30 8623 C 806.849 -2.81995 -4.39632 0
M  V30 8624 H 808.543 -1.84354 -2.35911 0
M  V30 8625 H 806.089 -0.887806 -1.13375 0
M  V30 8626 H 808.042 -0.254078 -4.20633 0
M  V30 8627 H 806.766 0.509592 -3.226 0
M  V30 8628 H 805.425 -1.62203 -3.28764 0
M  V30 8629 H 805.073 0.139161 -5.02807 0
M  V30 8630 H 804.773 -1.48976 -5.68401 0
M  V30 8631 H 806.297 -0.641959 -6.07216 0
M  V30 8632 H 807.711 -2.67952 -5.06828 0
M  V30 8633 H 806.108 -3.45414 -4.90723 0
M  V30 8634 H 807.178 -3.35927 -3.49687 0
M  V30 8635 N 808.521 1.23394 -0.980386 0
M  V30 8636 C 809.751 1.9556 -0.666319 0
M  V30 8637 C 810.159 1.72786 0.770815 0
M  V30 8638 O 809.502 1.0162 1.53033 0
M  V30 8639 C 809.564 3.48643 -0.876825 0
M  V30 8640 C 809.228 3.95135 -2.29602 0
M  V30 8641 C 810.225 4.03806 -3.2747 0
M  V30 8642 C 807.91 4.28122 -2.62711 0
M  V30 8643 C 809.904 4.44818 -4.56526 0
M  V30 8644 C 807.591 4.68814 -3.9199 0
M  V30 8645 C 808.589 4.77129 -4.88709 0
M  V30 8646 O 808.277 5.16908 -6.15679 0
M  V30 8647 H 808.009 0.629422 -0.246585 0
M  V30 8648 H 810.563 1.57839 -1.31438 0
M  V30 8649 H 808.793 3.86319 -0.171587 0
M  V30 8650 H 810.482 4.0202 -0.55992 0
M  V30 8651 H 811.248 3.78526 -3.03222 0
M  V30 8652 H 807.127 4.20861 -1.8814 0
M  V30 8653 H 810.671 4.51223 -5.32018 0
M  V30 8654 H 806.568 4.93545 -4.16033 0
M  V30 8655 H 807.336 5.3502 -6.19432 0
M  V30 8656 N 809.999 0.752036 1.385 0
M  V30 8657 C 811.415 0.42946 1.53713 0
M  V30 8658 C 811.615 -1.0576 1.71514 0
M  V30 8659 O 810.671 -1.84366 1.72527 0
M  V30 8660 C 811.984 1.22735 2.74511 0
M  V30 8661 C 813.532 1.21727 2.8836 0
M  V30 8662 C 814.007 1.99809 4.12117 0
M  V30 8663 N 815.498 1.97062 4.19191 0
M  V30 8664 C 816.233 2.54274 5.13938 0
M  V30 8665 N 815.729 3.20193 6.14368 0
M  V30 8666 N 817.522 2.44212 5.06277 0
M  V30 8667 H 809.673 1.71581 1.25195 0
M  V30 8668 H 811.936 0.727293 0.60807 0
M  V30 8669 H 811.642 2.28032 2.67758 0
M  V30 8670 H 811.516 0.843186 3.67655 0
M  V30 8671 H 813.903 0.172367 2.94596 0
M  V30 8672 H 813.984 1.64094 1.96232 0
M  V30 8673 H 813.628 3.0431 4.06642 0
M  V30 8674 H 813.558 1.54837 5.03322 0
M  V30 8675 H 816.049 1.49054 3.47263 0
M  V30 8676 H 816.362 3.61272 6.83156 0
M  V30 8677 H 814.707 3.24287 6.14705 0
M  V30 8678 H 817.898 1.92343 4.26757 0
M  V30 8679 H 818.071 2.89096 5.79937 0
M  V30 8680 N 811.477 -1.49425 0.500989 0
M  V30 8681 C 812.726 -2.01649 -0.04538 0
M  V30 8682 C 813.039 -1.38572 -1.38047 0
M  V30 8683 O 814.245 -1.82124 -2.01353 0
M  V30 8684 C 812.701 -3.5966 -0.131337 0
M  V30 8685 C 812.309 -4.3171 1.19711 0
M  V30 8686 C 814.053 -4.19828 -0.628071 0
M  V30 8687 C 811.96 -5.81579 1.07332 0
M  V30 8688 H 810.89 -0.753715 -0.0207329 0
M  V30 8689 H 813.541 -1.71962 0.640407 0
M  V30 8690 H 811.923 -3.86063 -0.881574 0
M  V30 8691 H 813.097 -4.17008 1.96064 0
M  V30 8692 H 811.412 -3.83286 1.62729 0
M  V30 8693 H 814.009 -5.2958 -0.738198 0
M  V30 8694 H 814.352 -3.83194 -1.6269 0
M  V30 8695 H 814.885 -3.97746 0.0656314 0
M  V30 8696 H 811.624 -6.22738 2.04642 0
M  V30 8697 H 811.144 -5.98774 0.350679 0
M  V30 8698 H 812.823 -6.42614 0.752047 0
M  V30 8699 N 812.955 -0.234822 -1.55841 0
M  V30 8700 C 814.204 0.393685 -1.97821 0
M  V30 8701 C 814.517 1.59947 -1.1259 0
M  V30 8702 O 815.723 2.29835 -1.44528 0
M  V30 8703 C 814.179 0.751811 -3.5196 0
M  V30 8704 C 813.787 -0.431898 -4.45913 0
M  V30 8705 C 815.531 1.34518 -4.02623 0
M  V30 8706 C 813.438 -0.0505976 -5.91378 0
M  V30 8707 H 812.368 0.150864 -0.738753 0
M  V30 8708 H 815.019 -0.333132 -1.80451 0
M  V30 8709 H 813.401 1.53642 -3.6498 0
M  V30 8710 H 814.575 -1.20935 -4.44647 0
M  V30 8711 H 812.89 -0.939385 -4.05666 0
M  V30 8712 H 815.487 1.64359 -5.08813 0
M  V30 8713 H 815.83 2.26554 -3.49255 0
M  V30 8714 H 816.363 0.623729 -3.9288 0
M  V30 8715 H 813.102 -0.937779 -6.48757 0
M  V30 8716 H 812.622 0.690898 -5.95808 0
M  V30 8717 H 814.301 0.37146 -6.45933 0
M  V30 8718 N 814.433 1.57553 0.0384317 0
M  V30 8719 C 815.343 2.09333 1.0591 0
M  V30 8720 C 816.359 1.0299 1.40247 0
M  V30 8721 O 817.535 1.34669 1.49754 0
M  V30 8722 C 814.6 2.55468 2.34386 0
M  V30 8723 C 813.661 3.76254 2.06716 0
M  V30 8724 C 812.894 4.20179 3.29067 0
M  V30 8725 O 813.117 3.637 4.39407 0
M  V30 8726 O 812.051 5.12697 3.15317 0
M  V30 8727 H 815.877 2.96683 0.649087 0
M  V30 8728 H 813.462 1.47211 0.254802 0
M  V30 8729 H 815.344 2.85514 3.09935 0
M  V30 8730 H 814.019 1.71234 2.74701 0
M  V30 8731 H 812.926 3.51241 1.28766 0
M  V30 8732 H 814.259 4.61443 1.71263 0
M  V30 8733 N 815.911 -0.310526 1.54511 0
M  V30 8734 C 816.859 -1.40272 1.85544 0
M  V30 8735 C 817.853 -1.52941 0.728377 0
M  V30 8736 O 819.059 -1.55172 0.912234 0
M  V30 8737 H 815.434 -0.468355 0.588343 0
M  V30 8738 H 817.405 -1.11329 2.76855 0
M  V30 8739 C 816.154 -2.76279 2.11105 0
M  V30 8740 H 815.477 -2.67308 2.97298 0
M  V30 8741 H 816.917 -3.51736 2.36765 0
M  V30 8742 C 815.376 -3.24472 0.906618 0
M  V30 8743 O 815.906 -4.01514 0.122358 0
M  V30 8744 N 814.112 -2.81676 0.714632 0
M  V30 8745 H 813.659 -2.19143 1.35404 0
M  V30 8746 H 813.617 -3.14272 -0.089703 0
M  V30 8747 N 817.389 -1.46805 -0.573248 0
M  V30 8748 C 818.352 -1.57655 -1.66366 0
M  V30 8749 C 819.352 -0.452905 -1.5429 0
M  V30 8750 O 820.542 -0.717502 -1.58737 0
M  V30 8751 C 817.674 -1.50584 -3.05839 0
M  V30 8752 H 818.867 -2.54842 -1.581 0
M  V30 8753 H 816.42 -1.34756 -0.791868 0
M  V30 8754 H 817.155 -0.547127 -3.19651 0
M  V30 8755 H 816.94 -2.32118 -3.16012 0
M  V30 8756 H 818.43 -1.61282 -3.85199 0
M  V30 8757 N 818.867 0.818669 -1.34668 0
M  V30 8758 C 820.115 1.57201 -1.27013 0
M  V30 8759 C 820.436 1.94354 0.158599 0
M  V30 8760 O 819.706 1.62626 1.09223 0
M  V30 8761 H 818.286 0.582919 -0.467135 0
M  V30 8762 H 820.948 0.977234 -1.6863 0
M  V30 8763 H 820.044 2.49291 -1.87778 0
M  V30 8764 N 820.346 1.18468 1.03938 0
M  V30 8765 C 821.294 0.909286 2.14091 0
M  V30 8766 C 822.288 -0.130928 1.68893 0
M  V30 8767 O 823.494 0.0173403 1.79992 0
M  V30 8768 H 819.869 0.27658 0.699291 0
M  V30 8769 H 821.84 1.84514 2.34515 0
M  V30 8770 C 820.589 0.452922 3.44737 0
M  V30 8771 H 819.912 1.24485 3.79926 0
M  V30 8772 H 821.352 0.299238 4.22943 0
M  V30 8773 C 819.811 -0.831435 3.26479 0
M  V30 8774 O 820.341 -1.89535 3.54174 0
M  V30 8775 N 818.547 -0.784545 2.79809 0
M  V30 8776 H 818.094 0.0814746 2.57471 0
M  V30 8777 H 818.052 -1.64431 2.67973 0
M  V30 8778 N 821.824 -1.22873 0.986916 0
M  V30 8779 C 823.24 -1.43594 0.696633 0
M  V30 8780 C 823.44 -1.87622 -0.734869 0
M  V30 8781 O 822.496 -2.02633 -1.50652 0
M  V30 8782 C 823.809 -2.48231 1.69711 0
M  V30 8783 C 825.357 -2.62037 1.71188 0
M  V30 8784 C 825.832 -3.6989 2.70084 0
M  V30 8785 N 827.323 -3.77341 2.68641 0
M  V30 8786 C 828.058 -4.6037 3.41829 0
M  V30 8787 N 827.554 -5.47438 4.24598 0
M  V30 8788 N 829.347 -4.54626 3.30563 0
M  V30 8789 H 821.498 -0.925982 1.91153 0
M  V30 8790 H 823.761 -0.46866 0.824052 0
M  V30 8791 H 823.467 -2.22812 2.72117 0
M  V30 8792 H 823.341 -3.46731 1.48516 0
M  V30 8793 H 825.728 -2.86803 0.694837 0
M  V30 8794 H 825.809 -1.63831 1.96451 0
M  V30 8795 H 825.453 -3.45872 3.71934 0
M  V30 8796 H 825.383 -4.67652 2.42093 0
M  V30 8797 H 827.874 -3.15124 2.08578 0
M  V30 8798 H 828.187 -6.078 4.77283 0
M  V30 8799 H 826.532 -5.4704 4.28687 0
M  V30 8800 H 829.723 -3.85627 2.65347 0
M  V30 8801 H 829.896 -5.19103 3.8786 0
M  V30 8802 N 823.302 -0.75937 -1.38099 0
M  V30 8803 C 824.542 -0.323116 -2.0183 0
M  V30 8804 C 824.906 1.07658 -1.58977 0
M  V30 8805 O 826.107 1.61227 -2.1508 0
M  V30 8806 C 824.378 -0.448234 -3.54578 0
M  V30 8807 S 825.937 -0.0954152 -4.38696 0
M  V30 8808 H 822.755 -0.125013 -0.699923 0
M  V30 8809 H 825.357 -0.991262 -1.68506 0
M  V30 8810 H 824.061 -1.46778 -3.83255 0
M  V30 8811 H 823.592 0.236895 -3.92686 0
M  V30 8812 H 825.607 1.11312 -4.83554 0
M  V30 8813 N 824.78 1.49157 -0.508906 0
M  V30 8814 C 826.057 1.95363 0.0961913 0
M  V30 8815 C 826.437 1.45064 1.53362 0
M  V30 8816 O 825.785 0.667835 2.18523 0
M  V30 8817 C 825.995 3.49 0.000688881 0
M  V30 8818 C 827.343 4.24257 0.170632 0
M  V30 8819 O 828.367 3.5612 0.0754994 0
M  V30 8820 O 827.226 5.45267 0.366957 0
M  V30 8821 H 824.32 0.821984 0.0909489 0
M  V30 8822 H 826.866 1.59769 -0.572007 0
M  V30 8823 H 825.638 3.78269 -1.00143 0
M  V30 8824 H 825.261 3.91233 0.708682 0
M  V30 8825 N 826.258 0.243083 1.55714 0
M  V30 8826 C 827.506 -0.381964 1.98458 0
M  V30 8827 C 827.827 -1.58745 1.13247 0
M  V30 8828 O 827.097 -1.94723 0.214384 0
M  V30 8829 H 825.677 -0.144114 0.732967 0
M  V30 8830 H 828.339 0.340985 1.91894 0
M  V30 8831 H 827.435 -0.693702 3.04293 0
M  V30 8832 N 827.736 -1.57571 -0.0300757 0
M  V30 8833 C 828.646 -2.09892 -1.04798 0
M  V30 8834 C 829.662 -1.03732 -1.39698 0
M  V30 8835 O 830.838 -1.35461 -1.49038 0
M  V30 8836 C 827.903 -2.56707 -2.33028 0
M  V30 8837 C 826.964 -3.77345 -2.04718 0
M  V30 8838 C 826.197 -4.21918 -3.26834 0
M  V30 8839 O 826.42 -3.66025 -4.37472 0
M  V30 8840 O 825.354 -5.14362 -3.12594 0
M  V30 8841 H 829.18 -2.97023 -0.633344 0
M  V30 8842 H 826.765 -1.47344 -0.246991 0
M  V30 8843 H 828.647 -2.87154 -3.08417 0
M  V30 8844 H 827.322 -1.72688 -2.73789 0
M  V30 8845 H 826.229 -3.51919 -1.26901 0
M  V30 8846 H 827.562 -4.62345 -1.68813 0
M  V30 8847 N 829.214 0.302327 -1.54673 0
M  V30 8848 C 830.463 1.03533 -1.73101 0
M  V30 8849 C 830.776 1.88473 -0.523174 0
M  V30 8850 O 831.982 2.65029 -0.589229 0
M  V30 8851 C 830.438 1.89043 -3.06252 0
M  V30 8852 C 830.046 1.09112 -4.3451 0
M  V30 8853 C 831.79 2.61951 -3.34039 0
M  V30 8854 C 829.697 1.93891 -5.58713 0
M  V30 8855 H 828.627 0.390261 -0.645145 0
M  V30 8856 H 831.278 0.2924 -1.81155 0
M  V30 8857 H 829.66 2.67319 -2.92159 0
M  V30 8858 H 830.834 0.354596 -4.59434 0
M  V30 8859 H 829.149 0.477923 -4.13648 0
M  V30 8860 H 831.746 3.25729 -4.24033 0
M  V30 8861 H 832.089 3.30711 -2.52855 0
M  V30 8862 H 832.622 1.90725 -3.49097 0
M  V30 8863 H 829.361 1.29604 -6.4256 0
M  V30 8864 H 828.881 2.6522 -5.37976 0
M  V30 8865 H 830.56 2.51971 -5.95919 0
M  V30 8866 N 830.692 1.47107 0.565454 0
M  V30 8867 C 831.941 1.5257 1.31929 0
M  V30 8868 C 832.254 0.189092 1.94684 0
M  V30 8869 O 833.46 0.121657 2.71227 0
M  V30 8870 C 831.916 2.68914 2.39193 0
M  V30 8871 C 831.524 4.09069 1.82665 0
M  V30 8872 C 833.268 2.83663 3.1581 0
M  V30 8873 C 831.175 5.16726 2.87661 0
M  V30 8874 H 830.105 0.567869 0.496025 0
M  V30 8875 H 832.756 1.73361 0.60151 0
M  V30 8876 H 831.138 2.41486 3.13848 0
M  V30 8877 H 832.312 4.46364 1.14438 0
M  V30 8878 H 830.627 3.99135 1.1866 0
M  V30 8879 H 833.224 3.61261 3.94201 0
M  V30 8880 H 833.567 1.91804 3.69482 0
M  V30 8881 H 834.1 3.10821 2.48265 0
M  V30 8882 H 830.839 6.10433 2.38854 0
M  V30 8883 H 830.359 4.83957 3.54324 0
M  V30 8884 H 832.038 5.43319 3.51303 0
M  V30 8885 N 832.17 -0.811516 1.35101 0
M  V30 8886 C 833.118 -1.94449 1.27642 0
M  V30 8887 C 834.112 -1.68522 0.172287 0
M  V30 8888 O 835.318 -1.76799 0.337967 0
M  V30 8889 H 831.693 -0.638776 0.396824 0
M  V30 8890 H 833.664 -1.97861 2.23369 0
M  V30 8891 C 832.413 -3.31139 1.06029 0
M  V30 8892 H 831.736 -3.51644 1.90227 0
M  V30 8893 H 833.176 -4.10831 1.0485 0
M  V30 8894 C 831.635 -3.36072 -0.236039 0
M  V30 8895 O 832.165 -3.82292 -1.23353 0
M  V30 8896 N 830.371 -2.89314 -0.273107 0
M  V30 8897 H 829.918 -2.51893 0.539211 0
M  V30 8898 H 829.876 -2.92996 -1.1402 0
M  V30 8899 N 833.648 -1.19017 -1.03309 0
M  V30 8900 C 834.897 -0.984542 -1.76039 0
M  V30 8901 C 835.21 0.485937 -1.89468 0
M  V30 8902 O 836.416 0.810278 -2.59127 0
M  V30 8903 C 834.872 -1.71261 -3.1654 0
M  V30 8904 C 834.48 -3.22291 -3.11179 0
M  V30 8905 C 836.224 -1.59007 -3.93595 0
M  V30 8906 C 834.131 -3.87704 -4.46587 0
M  V30 8907 H 833.061 -0.364749 -0.659905 0
M  V30 8908 H 835.712 -1.4247 -1.15649 0
M  V30 8909 H 834.094 -1.20025 -3.77373 0
M  V30 8910 H 835.268 -3.80611 -2.59753 0
M  V30 8911 H 833.583 -3.34772 -2.47622 0
M  V30 8912 H 836.18 -2.05232 -4.93745 0
M  V30 8913 H 836.523 -0.543534 -4.12736 0
M  V30 8914 H 837.056 -2.07564 -3.39355 0
M  V30 8915 H 833.795 -4.92437 -4.3265 0
M  V30 8916 H 833.315 -3.34172 -4.98085 0
M  V30 8917 H 834.994 -3.91008 -5.15482 0
M  V30 8918 N 835.127 1.22348 -0.993418 0
M  V30 8919 C 836.375 1.90733 -0.668246 0
M  V30 8920 C 836.696 1.77732 0.802261 0
M  V30 8921 O 835.966 1.16486 1.57505 0
M  V30 8922 H 834.546 0.705966 -0.244174 0
M  V30 8923 H 837.208 1.48691 -1.26004 0
M  V30 8924 H 836.304 2.97883 -0.931239 0
M  V30 8925 N 836.605 0.766683 1.37694 0
M  V30 8926 C 837.553 0.137269 2.32195 0
M  V30 8927 C 838.547 -0.69067 1.54681 0
M  V30 8928 O 839.753 -0.588299 1.70115 0
M  V30 8929 H 836.128 0.0256003 0.751564 0
M  V30 8930 H 838.099 0.950129 2.82869 0
M  V30 8931 C 836.848 -0.731446 3.39919 0
M  V30 8932 H 836.171 -0.103738 3.99665 0
M  V30 8933 H 837.611 -1.13891 4.08417 0
M  V30 8934 C 836.07 -1.87984 2.79578 0
M  V30 8935 O 836.6 -2.97496 2.69924 0
M  V30 8936 N 834.806 -1.6789 2.37195 0
M  V30 8937 H 834.353 -0.788162 2.45246 0
M  V30 8938 H 834.311 -2.44894 1.97165 0
M  V30 8939 N 838.083 -1.48885 0.516809 0
M  V30 8940 C 839.494 -1.86557 0.0729921 0
M  V30 8941 C 839.845 -1.42767 -1.34581 0
M  V30 8942 O 838.97 -0.812514 -2.00567 0
M  V30 8943 C 839.565 -3.38567 0.125686 0
M  V30 8944 C 838.124 -3.75481 -0.262867 0
M  V30 8945 C 837.271 -2.72913 0.491281 0
M  V30 8946 H 840.222 -1.40978 0.728767 0
M  V30 8947 H 840.243 -3.74629 -0.665831 0
M  V30 8948 H 839.755 -3.70408 1.15842 0
M  V30 8949 H 837.856 -3.49251 -1.29824 0
M  V30 8950 H 837.969 -4.79052 0.067579 0
M  V30 8951 H 836.333 -2.54627 -0.0608525 0
M  V30 8952 H 837.116 -3.07599 1.5244 0
M  V30 8953 N 839.561 -0.251338 -1.55583 0
M  V30 8954 C 840.471 0.656978 -2.25213 0
M  V30 8955 C 841.487 1.18966 -1.26977 0
M  V30 8956 O 842.663 1.22499 -1.59862 0
M  V30 8957 C 839.728 1.83527 -2.94141 0
M  V30 8958 C 838.789 1.34162 -4.07798 0
M  V30 8959 C 838.022 2.46375 -4.73429 0
M  V30 8960 O 838.245 3.65205 -4.38157 0
M  V30 8961 O 837.179 2.15881 -5.61853 0
M  V30 8962 H 841.005 0.0936395 -3.03556 0
M  V30 8963 H 838.59 -0.0196638 -1.49387 0
M  V30 8964 H 840.472 2.52279 -3.3754 0
M  V30 8965 H 839.147 2.38614 -2.18735 0
M  V30 8966 H 838.054 0.621249 -3.68906 0
M  V30 8967 H 839.387 0.836779 -4.85035 0
M  V30 8968 N 841.039 1.57585 0.0217189 0
M  V30 8969 C 841.987 2.08134 1.03842 0
M  V30 8970 C 842.981 0.996662 1.36978 0
M  V30 8971 O 844.187 1.18149 1.35797 0
M  V30 8972 H 840.562 0.664298 0.352438 0
M  V30 8973 H 842.533 2.92583 0.58634 0
M  V30 8974 C 841.282 2.58218 2.32849 0
M  V30 8975 H 840.605 3.41302 2.08214 0
M  V30 8976 H 842.045 2.97289 3.02316 0
M  V30 8977 C 840.504 1.48664 3.02325 0
M  V30 8978 O 841.034 0.857075 3.9245 0
M  V30 8979 N 839.24 1.21938 2.63779 0
M  V30 8980 H 838.787 1.73319 1.90574 0
M  V30 8981 H 838.745 0.488523 3.10581 0
M  V30 8982 N 842.517 -0.29412 1.54831 0
M  V30 8983 C 843.427 -1.3854 1.89325 0
M  V30 8984 C 844.443 -1.55127 0.788133 0
M  V30 8985 O 845.619 -1.6966 1.08524 0
M  V30 8986 C 842.684 -2.72809 2.13954 0
M  V30 8987 C 841.745 -2.65148 3.37631 0
M  V30 8988 C 840.978 -3.93014 3.61076 0
M  V30 8989 O 841.201 -4.927 2.87406 0
M  V30 8990 O 840.135 -3.94491 4.54599 0
M  V30 8991 H 843.961 -1.12289 2.82179 0
M  V30 8992 H 841.546 -0.490793 1.41108 0
M  V30 8993 H 843.428 -3.52238 2.31315 0
M  V30 8994 H 842.103 -2.9889 1.24285 0
M  V30 8995 H 841.01 -1.84168 3.25627 0
M  V30 8996 H 842.343 -2.4402 4.27452 0
M  V30 8997 N 843.995 -1.47404 -0.557645 0
M  V30 8998 C 844.958 -1.59411 -1.64684 0
M  V30 8999 C 845.958 -0.469244 -1.53801 0
M  V30 9000 O 847.148 -0.734298 -1.57967 0
M  V30 9001 C 844.28 -1.5382 -3.04224 0
M  V30 9002 H 845.473 -2.56504 -1.55389 0
M  V30 9003 H 843.026 -1.35588 -0.777531 0
M  V30 9004 H 843.761 -0.581 -3.19053 0
M  V30 9005 H 843.546 -2.35456 -3.13533 0
M  V30 9006 H 845.036 -1.65358 -3.83466 0
M  V30 9007 N 845.473 0.80434 -1.35529 0
M  V30 9008 C 846.698 1.598 -1.32207 0
M  V30 9009 C 847.123 1.87848 0.0974226 0
M  V30 9010 O 846.481 1.46728 1.06492 0
M  V30 9011 C 846.529 2.90483 -2.13663 0
M  V30 9012 O 845.633 3.83411 -1.51888 0
M  V30 9013 H 844.974 0.485305 -0.453183 0
M  V30 9014 H 847.504 0.998119 -1.78602 0
M  V30 9015 H 847.514 3.39888 -2.257 0
M  V30 9016 H 846.189 2.69395 -3.16859 0
M  V30 9017 H 844.766 3.41967 -1.48704 0
M  V30 9018 N 846.951 1.19563 1.02676 0
M  V30 9019 C 848.2 0.993864 1.75514 0
M  V30 9020 C 848.513 -0.475882 1.89723 0
M  V30 9021 O 849.719 -0.796525 2.59553 0
M  V30 9022 C 848.175 1.72937 3.15628 0
M  V30 9023 C 847.783 3.23937 3.09466 0
M  V30 9024 C 849.527 1.61092 3.92746 0
M  V30 9025 C 847.434 3.90067 4.44524 0
M  V30 9026 H 846.364 0.368244 0.657961 0
M  V30 9027 H 849.015 1.43081 1.14891 0
M  V30 9028 H 847.397 1.22025 3.76731 0
M  V30 9029 H 848.571 3.81983 2.57731 0
M  V30 9030 H 846.886 3.3608 2.45843 0
M  V30 9031 H 849.483 2.07848 4.92649 0
M  V30 9032 H 849.826 0.565415 4.12442 0
M  V30 9033 H 850.359 2.09361 3.3825 0
M  V30 9034 H 847.098 4.94725 4.30032 0
M  V30 9035 H 846.618 3.36809 4.96306 0
M  V30 9036 H 848.297 3.93736 5.13401 0
M  V30 9037 N 848.429 -1.21819 0.999893 0
M  V30 9038 C 849.339 -2.27691 0.565159 0
M  V30 9039 C 850.355 -1.69587 -0.389398 0
M  V30 9040 O 851.531 -1.99786 -0.254499 0
M  V30 9041 C 848.596 -3.46537 -0.106432 0
M  V30 9042 C 847.657 -4.19932 0.891964 0
M  V30 9043 C 846.89 -5.33103 0.252327 0
M  V30 9044 O 847.113 -5.62398 -0.952103 0
M  V30 9045 O 846.047 -5.94184 0.960698 0
M  V30 9046 H 849.873 -2.67059 1.44613 0
M  V30 9047 H 847.458 -1.28119 0.768499 0
M  V30 9048 H 849.34 -4.18631 -0.482301 0
M  V30 9049 H 848.015 -3.09079 -0.961865 0
M  V30 9050 H 846.922 -3.5008 1.3189 0
M  V30 9051 H 848.255 -4.61287 1.71682 0
M  V30 9052 N 849.908 -0.773975 -1.37286 0
M  V30 9053 C 850.818 -0.162571 -2.34036 0
M  V30 9054 C 851.834 0.677022 -1.60289 0
M  V30 9055 O 853.01 0.596423 -1.92366 0
M  V30 9056 C 850.075 0.70457 -3.39465 0
M  V30 9057 C 849.136 -0.151738 -4.29032 0
M  V30 9058 C 848.369 0.674111 -5.29426 0
M  V30 9059 O 848.592 1.91107 -5.37433 0
M  V30 9060 O 847.526 0.0821398 -6.01844 0
M  V30 9061 H 851.352 -0.962119 -2.88057 0
M  V30 9062 H 848.937 -0.53517 -1.39486 0
M  V30 9063 H 850.819 1.19954 -4.03967 0
M  V30 9064 H 849.494 1.48227 -2.87768 0
M  V30 9065 H 848.401 -0.693118 -3.67623 0
M  V30 9066 H 849.734 -0.892575 -4.84039 0
M  V30 9067 N 851.386 1.48609 -0.524698 0
M  V30 9068 C 852.316 2.32366 0.229837 0
M  V30 9069 C 853.297 1.41759 0.940129 0
M  V30 9070 O 854.482 1.7065 0.926936 0
M  V30 9071 C 851.612 3.22835 1.28043 0
M  V30 9072 C 850.566 4.22424 0.688603 0
M  V30 9073 C 849.892 5.0199 1.84146 0
M  V30 9074 C 851.192 5.21217 -0.336176 0
M  V30 9075 H 852.886 2.95698 -0.469339 0
M  V30 9076 H 850.432 1.42197 -0.227156 0
M  V30 9077 H 852.385 3.80253 1.8162 0
M  V30 9078 H 851.109 2.57492 2.00912 0
M  V30 9079 H 849.768 3.66185 0.174402 0
M  V30 9080 H 849.416 4.33076 2.5584 0
M  V30 9081 H 849.116 5.69392 1.45142 0
M  V30 9082 H 850.64 5.62259 2.38111 0
M  V30 9083 H 852.054 5.7319 0.112307 0
M  V30 9084 H 850.451 5.96642 -0.643324 0
M  V30 9085 H 851.521 4.68676 -1.24381 0
M  V30 9086 N 852.864 0.259585 1.55447 0
M  V30 9087 C 854.112 -0.360893 1.98852 0
M  V30 9088 C 854.433 -1.57535 1.14924 0
M  V30 9089 O 853.703 -1.94485 0.235025 0
M  V30 9090 H 852.283 -0.136332 0.734454 0
M  V30 9091 H 854.945 0.361319 1.91522 0
M  V30 9092 H 854.041 -0.661388 3.05012 0
M  V30 9093 N 854.342 -1.57594 -0.0133615 0
M  V30 9094 C 855.252 -2.10991 -1.02566 0
M  V30 9095 C 856.268 -1.05208 -1.3859 0
M  V30 9096 O 857.444 -1.37034 -1.47593 0
M  V30 9097 C 854.509 -2.59165 -2.30292 0
M  V30 9098 C 853.57 -3.79495 -2.00704 0
M  V30 9099 C 852.803 -4.25361 -3.22341 0
M  V30 9100 O 853.026 -3.70645 -4.33565 0
M  V30 9101 O 851.96 -5.17649 -3.07121 0
M  V30 9102 H 855.786 -2.97678 -0.601806 0
M  V30 9103 H 853.371 -1.47598 -0.23135 0
M  V30 9104 H 855.253 -2.90409 -3.05354 0
M  V30 9105 H 853.928 -1.75582 -2.71942 0
M  V30 9106 H 852.835 -3.53245 -1.23161 0
M  V30 9107 H 854.168 -4.64109 -1.639 0
M  V30 9108 N 855.82 0.285905 -1.54985 0
M  V30 9109 C 856.753 1.37817 -1.81884 0
M  V30 9110 C 857.731 1.4811 -0.670988 0
M  V30 9111 O 858.915 1.64936 -0.912595 0
M  V30 9112 C 856.042 2.75587 -1.969 0
M  V30 9113 C 855.088 2.82643 -3.19398 0
M  V30 9114 S 855.921 2.43199 -4.7709 0
M  V30 9115 C 857.077 3.82969 -4.95061 0
M  V30 9116 H 857.31 1.14794 -2.74244 0
M  V30 9117 H 854.843 0.484843 -1.4659 0
M  V30 9118 H 856.801 3.54932 -2.06236 0
M  V30 9119 H 855.462 2.9587 -1.05451 0
M  V30 9120 H 854.655 3.8373 -3.26753 0
M  V30 9121 H 854.257 2.11306 -3.08586 0
M  V30 9122 H 856.549 4.78117 -4.80011 0
M  V30 9123 H 857.492 3.80575 -5.97133 0
M  V30 9124 H 857.9 3.73673 -4.23118 0
M  V30 9125 N 857.298 1.47698 0.54982 0
M  V30 9126 C 858.228 1.63622 1.66583 0
M  V30 9127 C 859.209 0.485477 1.63025 0
M  V30 9128 O 860.394 0.715692 1.80531 0
M  V30 9129 C 857.524 1.65721 3.05211 0
M  V30 9130 C 856.478 2.80097 3.2362 0
M  V30 9131 C 855.804 2.67272 4.63109 0
M  V30 9132 C 857.104 4.21612 3.08286 0
M  V30 9133 H 858.798 2.57049 1.53512 0
M  V30 9134 H 856.344 1.23705 0.737099 0
M  V30 9135 H 858.297 1.75451 3.83138 0
M  V30 9136 H 857.021 0.688593 3.19258 0
M  V30 9137 H 855.68 2.69889 2.48104 0
M  V30 9138 H 855.328 1.68422 4.73965 0
M  V30 9139 H 855.028 3.44008 4.76374 0
M  V30 9140 H 856.552 2.78942 5.43161 0
M  V30 9141 H 857.966 4.32758 3.76024 0
M  V30 9142 H 856.363 4.99193 3.33057 0
M  V30 9143 H 857.433 4.39462 2.04942 0
M  V30 9144 N 858.776 -0.797141 1.35954 0
M  V30 9145 C 859.706 -1.92387 1.32323 0
M  V30 9146 C 860.687 -1.68967 0.196007 0
M  V30 9147 O 861.872 -1.90193 0.39245 0
M  V30 9148 C 859.002 -3.29286 1.10398 0
M  V30 9149 C 857.956 -3.67212 2.19862 0
M  V30 9150 C 857.282 -5.02377 1.8309 0
M  V30 9151 C 858.582 -3.76602 3.61896 0
M  V30 9152 H 860.276 -1.95683 2.26602 0
M  V30 9153 H 857.822 -0.94007 1.09081 0
M  V30 9154 H 859.775 -4.07721 1.06495 0
M  V30 9155 H 858.499 -3.26358 0.125668 0
M  V30 9156 H 857.158 -2.91069 2.22878 0
M  V30 9157 H 856.806 -4.95961 0.838527 0
M  V30 9158 H 856.506 -5.28722 2.56372 0
M  V30 9159 H 858.03 -5.8324 1.80729 0
M  V30 9160 H 859.444 -4.45246 3.6115 0
M  V30 9161 H 857.841 -4.14425 4.34018 0
M  V30 9162 H 858.911 -2.77906 3.97361 0
M  V30 9163 N 860.254 -1.20106 -1.0204 0
M  V30 9164 C 861.217 -0.948261 -2.08664 0
M  V30 9165 C 862.217 0.0746753 -1.60627 0
M  V30 9166 O 863.407 -0.160981 -1.73455 0
M  V30 9167 C 860.539 -0.426854 -3.38217 0
M  V30 9168 H 861.732 -1.894 -2.32524 0
M  V30 9169 H 859.285 -1.0159 -1.18782 0
M  V30 9170 H 860.02 0.524532 -3.2003 0
M  V30 9171 H 859.805 -1.16451 -3.74408 0
M  V30 9172 H 861.295 -0.269346 -4.1673 0
M  V30 9173 N 861.732 1.21287 -1.00634 0
M  V30 9174 C 862.957 1.94925 -0.708441 0
M  V30 9175 C 863.382 1.73659 0.722783 0
M  V30 9176 O 862.74 1.02429 1.49593 0
M  V30 9177 C 862.788 3.45377 -1.03667 0
M  V30 9178 O 861.892 4.12153 -0.142661 0
M  V30 9179 H 861.233 0.609338 -0.263824 0
M  V30 9180 H 863.763 1.54008 -1.34695 0
M  V30 9181 H 863.773 3.95954 -0.984086 0
M  V30 9182 H 862.448 3.6018 -2.0795 0
M  V30 9183 H 861.025 3.72048 -0.251888 0
M  V30 9184 N 863.21 0.781244 1.36873 0
M  V30 9185 C 864.457 0.349889 1.99454 0
M  V30 9186 C 864.785 -1.07621 1.62013 0
M  V30 9187 O 864.04 -1.75665 0.86258 0
M  V30 9188 C 864.339 0.45146 3.54537 0
M  V30 9189 C 864.005 1.83718 4.11775 0
M  V30 9190 C 862.667 2.21634 4.2712 0
M  V30 9191 C 865.019 2.7449 4.43063 0
M  V30 9192 C 862.347 3.49742 4.7106 0
M  V30 9193 C 864.699 4.02017 4.88431 0
M  V30 9194 C 863.363 4.39967 5.01982 0
M  V30 9195 H 862.633 0.128033 0.729855 0
M  V30 9196 H 865.28 0.997117 1.63493 0
M  V30 9197 H 863.585 -0.279288 3.90803 0
M  V30 9198 H 865.282 0.0988609 4.00878 0
M  V30 9199 H 861.872 1.53251 4.00265 0
M  V30 9200 H 866.056 2.46453 4.30783 0
M  V30 9201 H 861.312 3.79026 4.79738 0
M  V30 9202 H 865.486 4.72475 5.11605 0
M  V30 9203 H 863.113 5.39291 5.35788 0
M  V30 9204 N 864.689 -1.48329 0.532571 0
M  V30 9205 C 865.599 -2.33445 -0.232546 0
M  V30 9206 C 866.615 -1.46651 -0.93645 0
M  V30 9207 O 867.791 -1.79627 -0.910834 0
M  V30 9208 C 864.856 -3.22824 -1.26434 0
M  V30 9209 C 863.917 -4.25492 -0.570511 0
M  V30 9210 C 863.15 -5.10601 -1.55315 0
M  V30 9211 O 863.373 -4.97733 -2.78599 0
M  V30 9212 O 862.307 -5.91927 -1.09112 0
M  V30 9213 H 866.133 -3.00119 0.464988 0
M  V30 9214 H 863.718 -1.46489 0.293462 0
M  V30 9215 H 865.6 -3.78103 -1.86055 0
M  V30 9216 H 864.275 -2.58807 -1.94424 0
M  V30 9217 H 863.182 -3.74041 0.0662587 0
M  V30 9218 H 864.515 -4.92154 0.0674904 0
M  V30 9219 N 866.167 -0.267825 -1.55308 0
M  V30 9220 C 867.114 0.6228 -2.22238 0
M  V30 9221 C 868.084 1.15536 -1.19334 0
M  V30 9222 O 869.269 1.206 -1.47852 0
M  V30 9223 C 866.409 1.80447 -2.94164 0
M  V30 9224 C 865.522 1.30646 -4.11771 0
M  V30 9225 C 864.657 2.44935 -4.7136 0
M  V30 9226 C 863.696 1.92099 -5.81175 0
M  V30 9227 N 862.833 2.99834 -6.34857 0
M  V30 9228 H 867.673 0.0453874 -2.97965 0
M  V30 9229 H 865.21 0.0106371 -1.47096 0
M  V30 9230 H 867.168 2.49896 -3.34078 0
M  V30 9231 H 865.798 2.35403 -2.20874 0
M  V30 9232 H 864.85 0.505314 -3.77029 0
M  V30 9233 H 866.162 0.879409 -4.90987 0
M  V30 9234 H 865.316 3.2239 -5.13955 0
M  V30 9235 H 864.055 2.90951 -3.91406 0
M  V30 9236 H 863.06 1.13122 -5.38037 0
M  V30 9237 H 864.285 1.47027 -6.62993 0
M  V30 9238 H 862.231 3.45246 -5.578 0
M  V30 9239 H 862.148 2.61524 -7.09324 0
M  V30 9240 H 863.416 3.77286 -6.82111 0
M  V30 9241 N 867.645 1.57599 0.00500368 0
M  V30 9242 C 868.595 2.04585 1.00643 0
M  V30 9243 C 869.579 0.939622 1.30614 0
M  V30 9244 O 870.771 1.20342 1.29796 0
M  V30 9245 C 867.9 2.5486 2.30002 0
M  V30 9246 C 866.986 3.7235 2.03017 0
M  V30 9247 N 867.377 4.84218 1.46173 0
M  V30 9248 C 865.675 3.80185 2.33185 0
M  V30 9249 C 866.376 5.65688 1.35544 0
M  V30 9250 N 865.352 5.11536 1.83933 0
M  V30 9251 H 869.154 2.8849 0.561332 0
M  V30 9252 H 866.668 1.61026 0.210808 0
M  V30 9253 H 868.665 2.86794 3.0258 0
M  V30 9254 H 867.325 1.72372 2.75169 0
M  V30 9255 H 868.336 5.0517 1.1412 0
M  V30 9256 H 865.013 3.08543 2.81261 0
M  V30 9257 H 866.403 6.65588 0.918791 0
M  V30 9258 N 869.123 -0.277682 1.55134 0
M  V30 9259 C 870.534 -0.849063 1.66276 0
M  V30 9260 C 870.885 -1.87223 0.5867 0
M  V30 9261 O 870.01 -2.14676 -0.272635 0
M  V30 9262 C 870.605 -1.54681 3.01429 0
M  V30 9263 C 869.164 -2.06628 3.14614 0
M  V30 9264 C 868.311 -0.906748 2.62056 0
M  V30 9265 H 871.262 -0.0541357 1.58608 0
M  V30 9266 H 871.283 -2.41356 2.94156 0
M  V30 9267 H 870.795 -0.80189 3.79725 0
M  V30 9268 H 868.896 -2.84095 2.41082 0
M  V30 9269 H 869.009 -2.2848 4.2111 0
M  V30 9270 H 867.373 -1.29882 2.19095 0
M  V30 9271 H 868.156 -0.175414 3.42852 0
M  V30 9272 N 870.601 -1.47988 -0.541979 0
M  V30 9273 C 871.531 -1.64503 -1.65713 0
M  V30 9274 C 872.512 -0.494116 -1.62765 0
M  V30 9275 O 873.697 -0.725256 -1.80149 0
M  V30 9276 C 870.827 -1.67337 -3.04328 0
M  V30 9277 C 869.781 -2.81809 -3.2213 0
M  V30 9278 C 869.107 -2.69724 -4.61685 0
M  V30 9279 C 870.407 -4.23241 -3.06046 0
M  V30 9280 H 872.101 -2.5786 -1.52147 0
M  V30 9281 H 869.647 -1.24094 -0.730529 0
M  V30 9282 H 871.6 -1.77481 -3.82202 0
M  V30 9283 H 870.324 -0.705514 -3.18889 0
M  V30 9284 H 868.983 -2.71201 -2.46669 0
M  V30 9285 H 868.631 -1.70934 -4.73065 0
M  V30 9286 H 868.331 -3.4653 -4.74543 0
M  V30 9287 H 869.855 -2.81818 -5.41674 0
M  V30 9288 H 871.269 -4.34746 -3.73723 0
M  V30 9289 H 869.666 -5.00952 -3.30405 0
M  V30 9290 H 870.736 -4.40543 -2.02609 0
M  V30 9291 N 872.079 0.78992 -1.36375 0
M  V30 9292 C 873.495 1.0879 -1.16777 0
M  V30 9293 C 873.695 2.01498 0.00848236 0
M  V30 9294 O 872.751 2.43338 0.674007 0
M  V30 9295 C 874.064 1.70285 -2.47837 0
M  V30 9296 C 875.612 1.82629 -2.54196 0
M  V30 9297 C 876.087 2.47539 -3.85342 0
M  V30 9298 N 877.578 2.55008 -3.86685 0
M  V30 9299 C 878.313 3.06041 -4.84898 0
M  V30 9300 N 877.809 3.57385 -5.93505 0
M  V30 9301 N 879.602 3.04748 -4.72319 0
M  V30 9302 H 871.753 0.173985 -2.11686 0
M  V30 9303 H 874.016 0.139798 -0.937636 0
M  V30 9304 H 873.722 1.09633 -3.34176 0
M  V30 9305 H 873.596 2.69799 -2.63607 0
M  V30 9306 H 875.983 2.42419 -1.68276 0
M  V30 9307 H 876.064 0.81923 -2.42327 0
M  V30 9308 H 875.708 1.88393 -4.71668 0
M  V30 9309 H 875.638 3.48815 -3.94507 0
M  V30 9310 H 878.129 2.18651 -3.08221 0
M  V30 9311 H 878.442 3.94674 -6.64419 0
M  V30 9312 H 876.787 3.55538 -5.97175 0
M  V30 9313 H 879.978 2.63925 -3.86602 0
M  V30 9314 H 880.151 3.44212 -5.49019 0
M  V30 9315 N 873.557 1.20646 1.01402 0
M  V30 9316 C 874.507 0.925209 2.08384 0
M  V30 9317 C 875.491 -0.115994 1.60481 0
M  V30 9318 O 876.683 0.0917276 1.76762 0
M  V30 9319 C 873.812 0.48193 3.399 0
M  V30 9320 C 872.898 1.5567 3.94497 0
M  V30 9321 N 873.289 2.77971 4.2257 0
M  V30 9322 C 871.587 1.42347 4.22674 0
M  V30 9323 C 872.288 3.47317 4.66632 0
M  V30 9324 N 871.264 2.74736 4.69064 0
M  V30 9325 H 875.066 1.85452 2.28002 0
M  V30 9326 H 872.58 1.10084 1.19395 0
M  V30 9327 H 874.577 0.261835 4.16077 0
M  V30 9328 H 873.237 -0.440725 3.21695 0
M  V30 9329 H 874.248 3.14598 4.11398 0
M  V30 9330 H 870.925 0.565417 4.13654 0
M  V30 9331 H 872.315 4.51985 4.97151 0
M  V30 9332 N 875.035 -1.20752 1.01276 0
M  V30 9333 C 875.985 -2.21252 0.550602 0
M  V30 9334 C 876.969 -1.56052 -0.391985 0
M  V30 9335 O 878.161 -1.75682 -0.215575 0
M  V30 9336 C 875.29 -3.43112 -0.113601 0
M  V30 9337 C 874.376 -4.15485 0.850465 0
M  V30 9338 N 874.767 -4.64301 2.00643 0
M  V30 9339 C 873.065 -4.40932 0.670476 0
M  V30 9340 C 873.766 -5.197 2.61317 0
M  V30 9341 N 872.742 -5.09534 1.8941 0
M  V30 9342 H 876.544 -2.56657 1.43194 0
M  V30 9343 H 874.058 -1.36646 0.877597 0
M  V30 9344 H 876.055 -4.1433 -0.462211 0
M  V30 9345 H 874.715 -3.09213 -0.990825 0
M  V30 9346 H 875.726 -4.59637 2.38651 0
M  V30 9347 H 872.403 -4.17197 -0.159016 0
M  V30 9348 H 873.793 -5.67873 3.59123 0
M  V30 9349 N 876.513 -0.788492 -1.36457 0
M  V30 9350 C 877.76 -0.360461 -1.99266 0
M  V30 9351 C 878.088 1.0676 -1.62581 0
M  V30 9352 O 877.343 1.75205 -0.871884 0
M  V30 9353 C 877.642 -0.470255 -3.54293 0
M  V30 9354 C 877.308 -1.85899 -4.10795 0
M  V30 9355 C 875.97 -2.23896 -4.25939 0
M  V30 9356 C 878.322 -2.76836 -4.41601 0
M  V30 9357 C 875.65 -3.52235 -4.69199 0
M  V30 9358 C 878.002 -4.04602 -4.86292 0
M  V30 9359 C 876.666 -4.42623 -4.99641 0
M  V30 9360 H 875.936 -0.131902 -0.729166 0
M  V30 9361 H 878.583 -1.00577 -1.62962 0
M  V30 9362 H 876.888 0.258559 -3.90946 0
M  V30 9363 H 878.585 -0.120119 -4.0082 0
M  V30 9364 H 875.175 -1.55372 -3.99447 0
M  V30 9365 H 879.359 -2.48735 -4.2947 0
M  V30 9366 H 874.615 -3.81565 -4.77722 0
M  V30 9367 H 878.789 -4.75182 -5.09092 0
M  V30 9368 H 876.416 -5.42125 -5.32921 0
M  V30 9369 N 877.991 1.48044 -0.54043 0
M  V30 9370 C 879.402 1.86418 -0.102662 0
M  V30 9371 C 879.753 1.4489 1.32293 0
M  V30 9372 O 878.878 0.844319 1.99249 0
M  V30 9373 C 879.473 3.38324 -0.179533 0
M  V30 9374 C 878.032 3.75852 0.203098 0
M  V30 9375 C 877.179 2.72097 -0.534637 0
M  V30 9376 H 880.13 1.398 -0.751103 0
M  V30 9377 H 880.151 3.75641 0.606147 0
M  V30 9378 H 879.663 3.68518 -1.21721 0
M  V30 9379 H 877.764 3.51272 1.24252 0
M  V30 9380 H 877.877 4.78884 -0.143784 0
M  V30 9381 H 876.241 2.54692 0.0203358 0
M  V30 9382 H 877.024 3.05135 -1.57314 0
M  V30 9383 N 879.47 0.276058 1.55163 0
M  V30 9384 C 880.881 -0.221516 1.85381 0
M  V30 9385 C 881.232 -1.55372 1.19808 0
M  V30 9386 O 880.357 -2.10855 0.486742 0
M  V30 9387 C 880.952 -0.408706 3.36326 0
M  V30 9388 C 879.511 -0.850512 3.66665 0
M  V30 9389 C 878.658 0.055656 2.77244 0
M  V30 9390 H 881.609 0.497819 1.5069 0
M  V30 9391 H 881.63 -1.24711 3.59482 0
M  V30 9392 H 881.142 0.561052 3.84023 0
M  V30 9393 H 879.243 -1.83171 3.24468 0
M  V30 9394 H 879.356 -0.687181 4.74146 0
M  V30 9395 H 877.72 -0.460819 2.50497 0
M  V30 9396 H 878.503 1.02131 3.27756 0
M  V30 9397 N 880.948 -1.576 0.00335426 0
M  V30 9398 C 882.195 -1.90713 -0.680791 0
M  V30 9399 C 882.523 -0.877263 -1.73592 0
M  V30 9400 O 881.778 0.117497 -1.95347 0
M  V30 9401 C 882.077 -3.3058 -1.35837 0
M  V30 9402 C 881.743 -4.48786 -0.436111 0
M  V30 9403 C 880.405 -4.80855 -0.182195 0
M  V30 9404 C 882.757 -5.20821 0.198677 0
M  V30 9405 C 880.085 -5.8233 0.714747 0
M  V30 9406 C 882.437 -6.23252 1.08351 0
M  V30 9407 C 881.101 -6.53776 1.34658 0
M  V30 9408 H 880.371 -0.697869 -0.249119 0
M  V30 9409 H 883.018 -1.91407 0.0596011 0
M  V30 9410 H 881.323 -3.26026 -2.17289 0
M  V30 9411 H 883.02 -3.53462 -1.89383 0
M  V30 9412 H 879.61 -4.23731 -0.644186 0
M  V30 9413 H 883.794 -4.96298 0.0155259 0
M  V30 9414 H 879.05 -6.04339 0.926529 0
M  V30 9415 H 883.224 -6.78199 1.58172 0
M  V30 9416 H 880.851 -7.32225 2.04328 0
M  V30 9417 N 882.426 0.269451 -1.5528 0
M  V30 9418 C 883.389 1.31642 -1.87625 0
M  V30 9419 C 884.389 1.42182 -0.751058 0
M  V30 9420 O 885.579 1.41272 -1.01921 0
M  V30 9421 C 882.711 2.6973 -2.08467 0
M  V30 9422 H 883.904 1.0419 -2.81219 0
M  V30 9423 H 881.457 0.507685 -1.47825 0
M  V30 9424 H 882.192 3.02356 -1.17266 0
M  V30 9425 H 881.977 2.63465 -2.90394 0
M  V30 9426 H 883.467 3.4537 -2.34753 0
M  V30 9427 N 883.904 1.48273 0.534124 0
M  V30 9428 C 885.152 1.55771 1.28762 0
M  V30 9429 C 885.473 0.231575 1.9362 0
M  V30 9430 O 884.743 -0.746533 1.81118 0
M  V30 9431 H 883.323 0.573851 0.47823 0
M  V30 9432 H 885.985 1.84712 0.621888 0
M  V30 9433 H 885.081 2.33657 2.06908 0
M  V30 9434 N 885.382 -0.782676 1.36792 0
M  V30 9435 C 886.629 -1.54083 1.31395 0
M  V30 9436 C 886.957 -1.94217 -0.104797 0
M  V30 9437 O 886.212 -1.63491 -1.0756 0
M  V30 9438 C 886.511 -2.82542 2.18872 0
M  V30 9439 C 886.177 -2.61512 3.67317 0
M  V30 9440 C 884.839 -2.55486 4.07775 0
M  V30 9441 C 887.191 -2.42389 4.61407 0
M  V30 9442 C 884.519 -2.28311 5.40454 0
M  V30 9443 C 886.871 -2.1674 5.94312 0
M  V30 9444 C 885.535 -2.09151 6.33887 0
M  V30 9445 H 884.805 -0.563829 0.48081 0
M  V30 9446 H 887.452 -0.902436 1.68903 0
M  V30 9447 H 885.757 -3.50883 1.74323 0
M  V30 9448 H 887.454 -3.40367 2.12017 0
M  V30 9449 H 884.044 -2.67062 3.35225 0
M  V30 9450 H 888.228 -2.46043 4.31018 0
M  V30 9451 H 883.484 -2.20922 5.70091 0
M  V30 9452 H 887.658 -2.0094 6.6678 0
M  V30 9453 H 885.285 -1.87857 7.36623 0
M  V30 9454 N 886.86 -1.21182 -1.00761 0
M  V30 9455 C 888.276 -0.968607 -1.26847 0
M  V30 9456 C 888.476 0.346561 -1.98497 0
M  V30 9457 O 887.532 1.07287 -2.28573 0
M  V30 9458 C 888.845 -2.1574 -2.09467 0
M  V30 9459 C 890.393 -2.19937 -2.22703 0
M  V30 9460 C 890.868 -3.38328 -3.08704 0
M  V30 9461 N 892.359 -3.38398 -3.16293 0
M  V30 9462 C 893.094 -4.26653 -3.83086 0
M  V30 9463 N 892.59 -5.25101 -4.5193 0
M  V30 9464 N 894.383 -4.14469 -3.797 0
M  V30 9465 H 886.534 -2.05763 -0.526816 0
M  V30 9466 H 888.797 -0.90087 -0.29519 0
M  V30 9467 H 888.503 -3.11034 -1.64167 0
M  V30 9468 H 888.377 -2.14584 -3.10216 0
M  V30 9469 H 890.764 -1.25201 -2.67224 0
M  V30 9470 H 890.845 -2.25139 -1.21433 0
M  V30 9471 H 890.489 -4.33356 -2.64886 0
M  V30 9472 H 890.419 -3.30364 -4.10082 0
M  V30 9473 H 892.91 -2.67149 -2.67282 0
M  V30 9474 H 893.223 -5.8875 -5.00592 0
M  V30 9475 H 891.568 -5.29029 -4.50726 0
M  V30 9476 H 894.759 -3.3682 -3.25069 0
M  V30 9477 H 894.932 -4.83458 -4.31477 0
M  V30 9478 N 888.338 1.20213 -1.01915 0
M  V30 9479 C 889.584 1.89928 -0.711007 0
M  V30 9480 C 889.917 1.7881 0.75767 0
M  V30 9481 O 889.192 1.17399 1.55073 0
M  V30 9482 C 889.475 3.41225 -1.15053 0
M  V30 9483 C 889.328 3.61264 -2.67971 0
M  V30 9484 C 890.647 4.34108 -0.72377 0
M  V30 9485 H 887.766 0.689702 -0.259768 0
M  V30 9486 H 890.408 1.41557 -1.26734 0
M  V30 9487 H 888.558 3.82552 -0.677199 0
M  V30 9488 H 890.23 3.29173 -3.23176 0
M  V30 9489 H 888.473 3.04647 -3.08824 0
M  V30 9490 H 889.144 4.67331 -2.93779 0
M  V30 9491 H 891.62 4.00442 -1.13073 0
M  V30 9492 H 890.496 5.38581 -1.05931 0
M  V30 9493 H 890.757 4.40512 0.374424 0
M  V30 9494 N 889.816 0.795718 1.36037 0
M  V30 9495 C 891.062 0.371574 1.99367 0
M  V30 9496 C 891.395 -1.0557 1.62999 0
M  V30 9497 O 890.67 -1.73051 0.887895 0
M  V30 9498 C 890.953 0.542622 3.55988 0
M  V30 9499 C 890.806 2.01404 4.0219 0
M  V30 9500 C 892.125 -0.0384527 4.40083 0
M  V30 9501 H 889.244 0.136483 0.724252 0
M  V30 9502 H 891.886 1.00323 1.61355 0
M  V30 9503 H 890.036 0.0049053 3.885 0
M  V30 9504 H 891.708 2.6133 3.80137 0
M  V30 9505 H 889.951 2.51439 3.53498 0
M  V30 9506 H 890.622 2.08466 5.11122 0
M  V30 9507 H 893.098 0.420634 4.13968 0
M  V30 9508 H 891.974 0.111214 5.48787 0
M  V30 9509 H 892.235 -1.13116 4.27384 0
M  V30 9510 N 891.294 -1.47756 0.548274 0
M  V30 9511 C 892.204 -2.33678 -0.207773 0
M  V30 9512 C 893.22 -1.47636 -0.920843 0
M  V30 9513 O 894.396 -1.80583 -0.89173 0
M  V30 9514 C 891.461 -3.24147 -1.23003 0
M  V30 9515 C 890.522 -4.26073 -0.52535 0
M  V30 9516 C 889.755 -5.12219 -1.4989 0
M  V30 9517 O 889.978 -5.0066 -2.73305 0
M  V30 9518 O 888.912 -5.93051 -1.02828 0
M  V30 9519 H 892.738 -2.99609 0.496794 0
M  V30 9520 H 890.323 -1.4617 0.308982 0
M  V30 9521 H 892.205 -3.80055 -1.82034 0
M  V30 9522 H 890.88 -2.60855 -1.91668 0
M  V30 9523 H 889.787 -3.7395 0.105927 0
M  V30 9524 H 891.12 -4.92054 0.119686 0
M  V30 9525 N 892.772 -0.284283 -1.55015 0
M  V30 9526 C 893.997 0.335799 -2.04664 0
M  V30 9527 C 894.422 1.47999 -1.16094 0
M  V30 9528 O 893.78 1.8058 -0.161454 0
M  V30 9529 C 893.828 0.785615 -3.51938 0
M  V30 9530 O 892.932 1.89202 -3.66437 0
M  V30 9531 H 892.273 0.0680233 -0.660506 0
M  V30 9532 H 894.803 -0.421255 -2.00216 0
M  V30 9533 H 894.813 1.07892 -3.93476 0
M  V30 9534 H 893.488 -0.0514675 -4.15868 0
M  V30 9535 H 892.065 1.60055 -3.36804 0
M  V30 9536 N 894.251 1.57596 -0.0117121 0
M  V30 9537 C 895.476 1.95764 0.684938 0
M  V30 9538 C 895.901 0.887285 1.65858 0
M  V30 9539 O 895.259 -0.153508 1.80649 0
M  V30 9540 C 895.307 3.33031 1.38285 0
M  V30 9541 O 894.411 3.28163 2.49765 0
M  V30 9542 H 893.752 0.638767 0.181309 0
M  V30 9543 H 896.282 2.04486 -0.0683883 0
M  V30 9544 H 896.292 3.68866 1.74362 0
M  V30 9545 H 894.967 4.10483 0.669043 0
M  V30 9546 H 893.544 3.04021 2.15929 0
M  V30 9547 N 895.729 -0.261212 1.5542 0
M  V30 9548 C 896.954 -1.01341 1.80955 0
M  V30 9549 C 897.379 -1.78711 0.586849 0
M  V30 9550 O 896.737 -1.75266 -0.463837 0
M  V30 9551 C 896.785 -1.93835 3.04073 0
M  V30 9552 O 895.889 -3.02791 2.79985 0
M  V30 9553 H 895.23 -0.289123 0.597749 0
M  V30 9554 H 897.76 -0.286543 2.02584 0
M  V30 9555 H 897.77 -2.3557 3.33123 0
M  V30 9556 H 896.445 -1.36936 3.9271 0
M  V30 9557 H 895.022 -2.65287 2.62063 0
M  V30 9558 N 897.207 -1.48554 -0.526253 0
M  V30 9559 C 898.437 -1.60197 -1.30463 0
M  V30 9560 C 898.845 -0.26278 -1.87366 0
M  V30 9561 O 898.188 0.758537 -1.67308 0
M  V30 9562 C 898.25 -2.59223 -2.49085 0
M  V30 9563 C 897.914 -4.04199 -2.13241 0
M  V30 9564 C 898.911 -4.91771 -1.68694 0
M  V30 9565 C 896.596 -4.49762 -2.2365 0
M  V30 9566 C 898.59 -6.22934 -1.35026 0
M  V30 9567 C 896.277 -5.80945 -1.89594 0
M  V30 9568 C 897.275 -6.67354 -1.45353 0
M  V30 9569 O 896.963 -7.96096 -1.11745 0
M  V30 9570 H 896.695 -0.54284 -0.402866 0
M  V30 9571 H 899.249 -1.95137 -0.641157 0
M  V30 9572 H 897.479 -2.19412 -3.18426 0
M  V30 9573 H 899.168 -2.60661 -3.11144 0
M  V30 9574 H 899.934 -4.57806 -1.6012 0
M  V30 9575 H 895.813 -3.8269 -2.5704 0
M  V30 9576 H 899.357 -6.90334 -1.00422 0
M  V30 9577 H 895.254 -6.14444 -1.9781 0
M  V30 9578 H 896.022 -8.08882 -1.25111 0
M  V30 9579 N 898.685 0.775411 -1.37205 0
M  V30 9580 C 899.915 1.56219 -1.352 0
M  V30 9581 C 900.323 1.89087 0.065456 0
M  V30 9582 O 899.666 1.51655 1.03665 0
M  V30 9583 C 899.728 2.9019 -2.12203 0
M  V30 9584 C 899.392 2.79978 -3.61195 0
M  V30 9585 C 900.389 2.51258 -4.55154 0
M  V30 9586 C 898.074 2.98115 -4.04268 0
M  V30 9587 C 900.068 2.40798 -5.90165 0
M  V30 9588 C 897.755 2.87276 -5.39366 0
M  V30 9589 C 898.753 2.58657 -6.32128 0
M  V30 9590 O 898.441 2.47838 -7.64743 0
M  V30 9591 H 898.173 0.490735 -0.464925 0
M  V30 9592 H 900.727 0.969201 -1.81096 0
M  V30 9593 H 898.957 3.51594 -1.60992 0
M  V30 9594 H 900.646 3.51561 -2.02879 0
M  V30 9595 H 901.412 2.36935 -4.23186 0
M  V30 9596 H 897.291 3.19392 -3.3243 0
M  V30 9597 H 900.835 2.18381 -6.62537 0
M  V30 9598 H 896.732 3.01166 -5.70937 0
M  V30 9599 H 897.5 2.63215 -7.75023 0
M  V30 9600 N 900.163 1.21714 1.00117 0
M  V30 9601 C 901.411 1.03465 1.73607 0
M  V30 9602 C 901.732 -0.432295 1.90148 0
M  V30 9603 O 901.002 -1.31157 1.45515 0
M  V30 9604 H 899.582 0.379857 0.643209 0
M  V30 9605 H 902.244 1.53088 1.20624 0
M  V30 9606 H 901.34 1.50574 2.73375 0
M  V30 9607 N 901.641 -1.19671 1.02551 0
M  V30 9608 C 902.588 -2.22773 0.603394 0
M  V30 9609 C 903.558 -1.61669 -0.381081 0
M  V30 9610 O 904.743 -1.88756 -0.278505 0
M  V30 9611 C 901.883 -3.45073 -0.0431034 0
M  V30 9612 C 900.996 -4.20574 0.987006 0
M  V30 9613 C 900.131 -5.30291 0.310626 0
M  V30 9614 C 899.17 -5.97545 1.32688 0
M  V30 9615 N 898.307 -6.98833 0.676542 0
M  V30 9616 H 903.147 -2.58238 1.48719 0
M  V30 9617 H 900.684 -1.26881 0.744286 0
M  V30 9618 H 902.642 -4.14925 -0.435141 0
M  V30 9619 H 901.272 -3.10274 -0.890495 0
M  V30 9620 H 900.324 -3.497 1.49713 0
M  V30 9621 H 901.636 -4.66736 1.75952 0
M  V30 9622 H 900.79 -6.06547 -0.136438 0
M  V30 9623 H 899.529 -4.8519 -0.49412 0
M  V30 9624 H 898.534 -5.20043 1.78424 0
M  V30 9625 H 899.759 -6.4473 2.13306 0
M  V30 9626 H 897.705 -6.55911 -0.108172 0
M  V30 9627 H 897.622 -7.43168 1.38699 0
M  V30 9628 H 898.89 -7.79088 0.253367 0
M  V30 9629 N 903.119 -0.802921 -1.35613 0
M  V30 9630 C 904.367 -0.380822 -1.9848 0
M  V30 9631 C 904.688 1.05464 -1.6402 0
M  V30 9632 O 903.958 1.72908 -0.920854 0
M  V30 9633 H 902.538 -0.137824 -0.734176 0
M  V30 9634 H 905.2 -1.02795 -1.65587 0
M  V30 9635 H 904.296 -0.483565 -3.08331 0
M  V30 9636 N 904.597 1.47463 -0.556102 0
M  V30 9637 C 905.827 2.06568 -0.0364056 0
M  V30 9638 C 906.235 1.40939 1.26225 0
M  V30 9639 O 905.578 0.499572 1.76777 0
M  V30 9640 C 905.64 3.58755 0.231278 0
M  V30 9641 C 905.304 4.46417 -0.977776 0
M  V30 9642 C 906.301 4.846 -1.88305 0
M  V30 9643 C 903.986 4.87948 -1.19214 0
M  V30 9644 C 905.98 5.63111 -2.98639 0
M  V30 9645 C 903.667 5.66224 -2.29857 0
M  V30 9646 C 904.665 6.03716 -3.194 0
M  V30 9647 O 904.353 6.80415 -4.28125 0
M  V30 9648 H 904.085 0.674675 -0.042305 0
M  V30 9649 H 906.639 1.9047 -0.768775 0
M  V30 9650 H 904.869 3.73061 1.01794 0
M  V30 9651 H 906.558 3.99884 0.696221 0
M  V30 9652 H 907.324 4.53115 -1.72949 0
M  V30 9653 H 903.203 4.58233 -0.504347 0
M  V30 9654 H 906.747 5.92293 -3.68557 0
M  V30 9655 H 902.644 5.97121 -2.45186 0
M  V30 9656 H 903.412 6.98807 -4.26159 0
M  V30 9657 N 906.075 0.2925 1.54862 0
M  V30 9658 C 907.007 -0.620889 2.2063 0
M  V30 9659 C 908.02 -1.10412 1.19637 0
M  V30 9660 O 909.209 -1.02304 1.46274 0
M  V30 9661 C 906.309 -1.861 2.83232 0
M  V30 9662 C 905.482 -1.52168 4.10078 0
M  V30 9663 C 904.541 -2.61605 4.56562 0
M  V30 9664 O 903.567 -2.27056 5.21952 0
M  V30 9665 N 904.769 -3.9199 4.28163 0
M  V30 9666 H 907.534 -0.0579028 2.99644 0
M  V30 9667 H 905.095 0.114333 1.61496 0
M  V30 9668 H 907.087 -2.58642 3.11266 0
M  V30 9669 H 905.657 -2.33259 2.08108 0
M  V30 9670 H 904.877 -0.629283 3.89145 0
M  V30 9671 H 906.165 -1.27023 4.92689 0
M  V30 9672 H 905.563 -4.22872 3.7576 0
M  V30 9673 H 904.12 -4.60857 4.60928 0
M  V30 9674 N 907.553 -1.57587 0.0200696 0
M  V30 9675 C 908.83 -1.82696 -0.698677 0
M  V30 9676 C 909.21 -0.902082 -1.90855 0
M  V30 9677 O 908.558 0.0444834 -2.28457 0
M  V30 9678 C 908.768 -3.31691 -1.08546 0
M  V30 9679 C 910.116 -3.97938 -1.4809 0
M  V30 9680 O 911.14 -3.36133 -1.17869 0
M  V30 9681 O 909.999 -5.06851 -2.04364 0
M  V30 9682 H 907.093 -0.752997 -0.341942 0
M  V30 9683 H 909.639 -1.69635 0.04706 0
M  V30 9684 H 908.411 -3.90659 -0.223956 0
M  V30 9685 H 908.034 -3.49825 -1.88965 0
M  V30 9686 N 909.032 0.252966 -1.55557 0
M  V30 9687 C 910.278 0.983306 -1.77367 0
M  V30 9688 C 910.611 1.85203 -0.584258 0
M  V30 9689 O 909.886 1.89963 0.417644 0
M  V30 9690 C 910.169 1.84896 -3.09007 0
M  V30 9691 C 910.022 1.00883 -4.38341 0
M  V30 9692 C 911.341 2.83254 -3.36831 0
M  V30 9693 H 908.46 0.356056 -0.645286 0
M  V30 9694 H 911.102 0.254232 -1.88291 0
M  V30 9695 H 909.252 2.47058 -2.99825 0
M  V30 9696 H 910.924 0.40638 -4.59507 0
M  V30 9697 H 909.167 0.31297 -4.3267 0
M  V30 9698 H 909.838 1.64818 -5.2682 0
M  V30 9699 H 912.314 2.31228 -3.45937 0
M  V30 9700 H 911.19 3.40949 -4.30169 0
M  V30 9701 H 911.451 3.59407 -2.57447 0
M  V30 9702 N 910.51 1.48831 0.518367 0
M  V30 9703 C 911.42 1.6692 1.64848 0
M  V30 9704 C 912.436 0.551711 1.65022 0
M  V30 9705 O 913.612 0.824251 1.83761 0
M  V30 9706 C 910.677 1.71559 3.01278 0
M  V30 9707 C 909.738 2.9502 3.11868 0
M  V30 9708 C 908.971 2.99428 4.4179 0
M  V30 9709 O 909.194 2.11914 5.29574 0
M  V30 9710 O 908.128 3.91719 4.5699 0
M  V30 9711 H 911.954 2.62623 1.52521 0
M  V30 9712 H 909.539 1.32368 0.692749 0
M  V30 9713 H 911.421 1.77064 3.82396 0
M  V30 9714 H 910.096 0.790316 3.13904 0
M  V30 9715 H 909.003 2.95042 2.30003 0
M  V30 9716 H 910.336 3.8697 3.04163 0
M  V30 9717 N 911.988 -0.768124 1.37614 0
M  V30 9718 C 912.938 -1.8718 1.30184 0
M  V30 9719 C 913.922 -1.59787 0.188943 0
M  V30 9720 O 915.114 -1.71855 0.423656 0
M  V30 9721 C 912.243 -3.24698 1.11471 0
M  V30 9722 C 911.329 -3.58031 2.27321 0
M  V30 9723 N 911.72 -3.6252 3.52722 0
M  V30 9724 C 910.018 -3.88216 2.19554 0
M  V30 9725 C 910.719 -3.92704 4.29137 0
M  V30 9726 N 909.695 -4.08789 3.58319 0
M  V30 9727 H 913.497 -1.88907 2.25147 0
M  V30 9728 H 911.011 -0.964753 1.30638 0
M  V30 9729 H 913.008 -4.0366 1.04233 0
M  V30 9730 H 911.668 -3.24232 0.174281 0
M  V30 9731 H 912.679 -3.44636 3.86583 0
M  V30 9732 H 909.356 -3.95551 1.33588 0
M  V30 9733 H 910.746 -4.02922 5.37683 0
M  V30 9734 N 913.466 -1.22244 -0.994698 0
M  V30 9735 C 914.882 -0.982006 -1.25813 0
M  V30 9736 C 915.082 0.325488 -1.98854 0
M  V30 9737 O 914.138 1.04857 -2.29698 0
M  V30 9738 C 915.451 -2.1795 -2.07167 0
M  V30 9739 C 916.999 -2.22287 -2.20358 0
M  V30 9740 C 917.474 -3.41583 -3.05098 0
M  V30 9741 N 918.965 -3.41734 -3.12686 0
M  V30 9742 C 919.7 -4.30692 -3.78539 0
M  V30 9743 N 919.196 -5.29865 -4.46335 0
M  V30 9744 N 920.989 -4.18473 -3.75283 0
M  V30 9745 H 913.14 -2.0631 -0.504963 0
M  V30 9746 H 915.403 -0.90395 -0.285618 0
M  V30 9747 H 915.109 -3.12758 -1.60858 0
M  V30 9748 H 914.983 -2.17862 -3.07922 0
M  V30 9749 H 917.37 -1.28028 -2.65881 0
M  V30 9750 H 917.451 -2.26414 -1.19039 0
M  V30 9751 H 917.095 -4.36141 -2.60275 0
M  V30 9752 H 917.025 -3.34695 -4.06555 0
M  V30 9753 H 919.516 -2.69969 -2.64433 0
M  V30 9754 H 919.829 -5.94027 -4.9432 0
M  V30 9755 H 918.174 -5.3378 -4.45089 0
M  V30 9756 H 921.365 -3.40249 -3.21478 0
M  V30 9757 H 921.538 -4.88007 -4.26326 0
M  V30 9758 N 914.944 1.19125 -1.03184 0
M  V30 9759 C 915.891 2.2245 -0.6152 0
M  V30 9760 C 916.861 1.61869 0.372502 0
M  V30 9761 O 918.046 1.88901 0.268491 0
M  V30 9762 C 915.186 3.45091 0.0248027 0
M  V30 9763 C 914.299 4.20044 -1.0093 0
M  V30 9764 C 913.434 5.30119 -0.338744 0
M  V30 9765 C 912.473 5.96833 -1.35855 0
M  V30 9766 N 911.61 6.98464 -0.713594 0
M  V30 9767 H 916.45 2.57445 -1.50086 0
M  V30 9768 H 913.987 1.26485 -0.751005 0
M  V30 9769 H 915.945 4.15149 0.413131 0
M  V30 9770 H 914.575 3.10742 0.874028 0
M  V30 9771 H 913.627 3.48901 -1.51566 0
M  V30 9772 H 914.939 4.65796 -1.78425 0
M  V30 9773 H 914.093 6.0661 0.104269 0
M  V30 9774 H 912.832 4.85446 0.468382 0
M  V30 9775 H 911.837 5.1909 -1.81179 0
M  V30 9776 H 913.062 6.4359 -2.16722 0
M  V30 9777 H 911.008 6.55959 0.0733863 0
M  V30 9778 H 910.925 7.42422 -1.42638 0
M  V30 9779 H 912.193 7.78943 -0.294681 0
M  V30 9780 N 916.422 0.810101 1.35185 0
M  V30 9781 C 917.833 0.452616 1.81131 0
M  V30 9782 C 918.184 -1.02573 1.67252 0
M  V30 9783 O 917.309 -1.79735 1.20516 0
M  V30 9784 C 917.904 0.814775 3.28857 0
M  V30 9785 C 916.463 0.509839 3.72931 0
M  V30 9786 C 915.61 1.03852 2.57119 0
M  V30 9787 H 918.561 1.00143 1.23114 0
M  V30 9788 H 918.582 0.113635 3.8033 0
M  V30 9789 H 918.094 1.89078 3.38926 0
M  V30 9790 H 916.195 -0.557289 3.68409 0
M  V30 9791 H 916.308 1.04493 4.67566 0
M  V30 9792 H 914.672 0.460671 2.50499 0
M  V30 9793 H 915.455 2.12071 2.69964 0
M  V30 9794 N 917.9 -1.47166 0.563914 0
M  V30 9795 C 919.125 -2.0735 0.0454698 0
M  V30 9796 C 919.55 -1.41281 -1.24182 0
M  V30 9797 O 918.908 -0.490084 -1.7455 0
M  V30 9798 C 918.956 -3.60378 -0.126453 0
M  V30 9799 O 918.06 -3.94934 -1.18746 0
M  V30 9800 H 917.401 -0.661773 0.0543377 0
M  V30 9801 H 919.931 -1.89086 0.781508 0
M  V30 9802 H 919.941 -4.06593 -0.338554 0
M  V30 9803 H 918.616 -4.07862 0.81373 0
M  V30 9804 H 917.193 -3.60455 -0.955318 0
M  V30 9805 N 919.378 -0.300708 -1.54705 0
M  V30 9806 C 920.627 0.309428 -1.99312 0
M  V30 9807 C 920.94 1.55027 -1.19272 0
M  V30 9808 O 922.146 2.23498 -1.54146 0
M  V30 9809 C 920.602 0.601856 -3.54832 0
M  V30 9810 C 920.21 -0.620636 -4.4368 0
M  V30 9811 C 921.954 1.1732 -4.07966 0
M  V30 9812 C 919.861 -0.301376 -5.90632 0
M  V30 9813 H 918.791 0.119395 -0.744487 0
M  V30 9814 H 921.442 -0.409368 -1.78875 0
M  V30 9815 H 919.824 1.38024 -3.71168 0
M  V30 9816 H 920.998 -1.39685 -4.39118 0
M  V30 9817 H 919.313 -1.1106 -4.01316 0
M  V30 9818 H 921.91 1.42631 -5.15326 0
M  V30 9819 H 922.253 2.11537 -3.5855 0
M  V30 9820 H 922.786 0.456534 -3.95172 0
M  V30 9821 H 919.525 -1.21209 -6.44196 0
M  V30 9822 H 919.045 0.437574 -5.98202 0
M  V30 9823 H 920.724 0.097164 -6.46927 0
M  V30 9824 N 920.856 1.57574 -0.0284266 0
M  V30 9825 C 922.272 1.56194 0.327958 0
M  V30 9826 C 922.472 1.03397 1.72949 0
M  V30 9827 O 921.528 0.680392 2.4316 0
M  V30 9828 C 922.841 3.00177 0.177196 0
M  V30 9829 C 924.389 3.12 0.250014 0
M  V30 9830 C 924.864 4.57821 0.128049 0
M  V30 9831 N 926.355 4.6283 0.185054 0
M  V30 9832 C 927.09 5.73286 0.114454 0
M  V30 9833 N 926.586 6.928 -0.00719225 0
M  V30 9834 N 928.379 5.61848 0.16839 0
M  V30 9835 H 920.53 1.90224 -0.944921 0
M  V30 9836 H 922.793 0.874987 -0.364832 0
M  V30 9837 H 922.499 3.42753 -0.788224 0
M  V30 9838 H 922.373 3.65101 0.94768 0
M  V30 9839 H 924.76 2.69337 1.20589 0
M  V30 9840 H 924.841 2.49799 -0.550835 0
M  V30 9841 H 924.485 5.01165 -0.824407 0
M  V30 9842 H 924.415 5.18001 0.947753 0
M  V30 9843 H 926.906 3.76867 0.279247 0
M  V30 9844 H 927.219 7.72781 -0.0543903 0
M  V30 9845 H 925.564 6.94987 -0.0419648 0
M  V30 9846 H 928.755 4.67367 0.261821 0
M  V30 9847 H 928.928 6.47907 0.109908 0
M  V30 9848 N 922.334 -0.244713 1.55689 0
M  V30 9849 C 923.282 -1.32276 1.91326 0
M  V30 9850 C 924.276 -1.49714 0.792589 0
M  V30 9851 O 925.482 -1.51163 0.977227 0
M  V30 9852 H 921.857 -0.442979 0.607679 0
M  V30 9853 H 923.828 -0.99486 2.81327 0
M  V30 9854 C 922.577 -2.67077 2.22633 0
M  V30 9855 H 921.9 -2.54458 3.08368 0
M  V30 9856 H 923.34 -3.41378 2.5147 0
M  V30 9857 C 921.799 -3.20335 1.04342 0
M  V30 9858 O 922.329 -4.00633 0.292543 0
M  V30 9859 N 920.535 -2.78392 0.833457 0
M  V30 9860 H 920.082 -2.13202 1.44577 0
M  V30 9861 H 920.04 -3.1437 0.0436713 0
M  V30 9862 N 923.813 -1.49104 -0.510467 0
M  V30 9863 C 924.776 -1.64569 -1.59529 0
M  V30 9864 C 925.776 -0.517937 -1.5223 0
M  V30 9865 O 926.966 -0.784183 -1.55551 0
M  V30 9866 C 924.098 -1.6342 -2.99177 0
M  V30 9867 H 925.291 -2.61318 -1.4715 0
M  V30 9868 H 922.844 -1.37993 -0.734001 0
M  V30 9869 H 923.579 -0.68221 -3.17043 0
M  V30 9870 H 923.364 -2.45312 -3.05883 0
M  V30 9871 H 924.854 -1.77474 -3.78011 0
M  V30 9872 N 925.291 0.760815 -1.38019 0
M  V30 9873 C 926.241 1.86487 -1.31174 0
M  V30 9874 C 927.225 1.59684 -0.197414 0
M  V30 9875 O 928.417 1.71628 -0.432764 0
M  V30 9876 C 925.546 3.24103 -1.13192 0
M  V30 9877 C 924.632 3.5682 -2.29216 0
M  V30 9878 N 925.023 3.60644 -3.5464 0
M  V30 9879 C 923.321 3.87047 -2.2161 0
M  V30 9880 C 924.022 3.90423 -4.31214 0
M  V30 9881 N 922.998 4.06883 -3.60482 0
M  V30 9882 H 926.8 1.87711 -2.26146 0
M  V30 9883 H 924.314 0.957811 -1.31148 0
M  V30 9884 H 926.311 4.03101 -1.06372 0
M  V30 9885 H 924.971 3.24135 -0.191473 0
M  V30 9886 H 925.982 3.42581 -3.88405 0
M  V30 9887 H 922.659 3.94837 -1.35684 0
M  V30 9888 H 924.049 4.00065 -5.39812 0
M  V30 9889 N 926.769 1.22769 0.988202 0
M  V30 9890 C 928.185 0.988665 1.2529 0
M  V30 9891 C 928.385 -0.314938 1.99024 0
M  V30 9892 O 927.441 -1.03637 2.30251 0
M  V30 9893 C 928.754 2.19046 2.06009 0
M  V30 9894 C 930.302 2.23452 2.19176 0
M  V30 9895 C 930.777 3.43196 3.03283 0
M  V30 9896 N 932.268 3.43387 3.10869 0
M  V30 9897 C 933.003 4.32693 3.7625 0
M  V30 9898 N 932.499 5.32224 4.43519 0
M  V30 9899 N 934.292 4.20457 3.73058 0
M  V30 9900 H 926.443 2.06575 0.494014 0
M  V30 9901 H 928.706 0.905452 0.28082 0
M  V30 9902 H 928.412 3.13607 1.59197 0
M  V30 9903 H 928.286 2.19492 3.06763 0
M  V30 9904 H 930.673 1.29436 2.65199 0
M  V30 9905 H 930.754 2.27042 1.17836 0
M  V30 9906 H 930.398 4.37515 2.57959 0
M  V30 9907 H 930.328 3.36847 4.04774 0
M  V30 9908 H 932.819 2.71368 2.62998 0
M  V30 9909 H 933.132 5.9664 4.91163 0
M  V30 9910 H 931.477 5.36133 4.42252 0
M  V30 9911 H 934.668 3.41949 3.19669 0
M  V30 9912 H 934.841 4.90261 4.23731 0
M  V30 9913 N 928.247 -1.18576 1.03814 0
M  V30 9914 C 929.487 -1.90187 0.748882 0
M  V30 9915 C 929.851 -1.78383 -0.710177 0
M  V30 9916 O 931.052 -2.44678 -1.11293 0
M  V30 9917 C 929.323 -3.36688 1.19901 0
M  V30 9918 S 930.882 -4.26419 1.03501 0
M  V30 9919 H 927.7 -0.656765 0.272362 0
M  V30 9920 H 930.302 -1.43296 1.32991 0
M  V30 9921 H 929.006 -3.42808 2.25635 0
M  V30 9922 H 928.537 -3.88616 0.611669 0
M  V30 9923 H 930.552 -4.96176 -0.0490431 0
M  V30 9924 N 929.725 -0.817259 -1.34754 0
M  V30 9925 C 930.655 -0.249769 -2.3216 0
M  V30 9926 C 931.636 0.630663 -1.57977 0
M  V30 9927 O 932.821 0.558719 -1.85989 0
M  V30 9928 C 929.951 0.593825 -3.42186 0
M  V30 9929 C 928.905 -0.188997 -4.27583 0
M  V30 9930 C 928.231 0.776979 -5.29025 0
M  V30 9931 C 929.531 -1.39401 -5.03354 0
M  V30 9932 H 931.225 -1.06359 -2.79872 0
M  V30 9933 H 928.771 -0.512894 -1.34556 0
M  V30 9934 H 930.724 1.00097 -4.09339 0
M  V30 9935 H 929.448 1.44064 -2.93109 0
M  V30 9936 H 928.107 -0.577445 -3.62024 0
M  V30 9937 H 927.755 1.61959 -4.76212 0
M  V30 9938 H 927.455 0.257448 -5.87036 0
M  V30 9939 H 928.979 1.18211 -5.99048 0
M  V30 9940 H 930.393 -1.06117 -5.63393 0
M  V30 9941 H 928.79 -1.84878 -5.70912 0
M  V30 9942 H 929.86 -2.17515 -4.33377 0
M  V30 9943 N 931.203 1.46865 -0.571711 0
M  V30 9944 C 932.48 1.95596 0.0132445 0
M  V30 9945 C 932.86 1.51438 1.47071 0
M  V30 9946 O 932.208 0.759917 2.15494 0
M  V30 9947 C 932.418 3.48689 -0.147335 0
M  V30 9948 C 933.766 4.24599 -0.00946329 0
M  V30 9949 O 934.79 3.5612 -0.0756112 0
M  V30 9950 O 933.649 5.46332 0.135361 0
M  V30 9951 H 930.743 0.825102 0.0560039 0
M  V30 9952 H 933.289 1.57199 -0.639256 0
M  V30 9953 H 932.061 3.73681 -1.16096 0
M  V30 9954 H 931.684 3.93887 0.542109 0
M  V30 9955 N 932.681 0.308908 1.54543 0
M  V30 9956 C 933.927 -0.291311 2.01303 0
M  V30 9957 C 934.282 -1.50917 1.19339 0
M  V30 9958 O 933.575 -1.89776 0.263724 0
M  V30 9959 C 933.769 -0.691522 3.50646 0
M  V30 9960 C 933.598 0.486007 4.47066 0
M  V30 9961 C 932.368 0.980515 4.95695 0
M  V30 9962 C 934.566 1.33352 4.96711 0
M  V30 9963 N 932.548 2.12398 5.75986 0
M  V30 9964 C 933.919 2.32436 5.74781 0
M  V30 9965 C 935.974 1.36298 4.78881 0
M  V30 9966 C 934.677 3.34252 6.36921 0
M  V30 9967 C 936.703 2.36976 5.41845 0
M  V30 9968 C 936.065 3.34789 6.19755 0
M  V30 9969 H 932.164 -0.0708418 0.778785 0
M  V30 9970 H 934.748 0.440621 1.89649 0
M  V30 9971 H 932.919 -1.39261 3.62575 0
M  V30 9972 H 934.651 -1.27196 3.84192 0
M  V30 9973 H 931.406 0.55419 4.70346 0
M  V30 9974 H 931.83 2.70036 6.20814 0
M  V30 9975 H 936.472 0.620472 4.18222 0
M  V30 9976 H 934.19 4.09417 6.96709 0
M  V30 9977 H 937.776 2.40039 5.29974 0
M  V30 9978 H 936.656 4.11418 6.67611 0
M  V30 9979 N 934.159 -1.57557 0.0367827 0
M  V30 9980 C 935.069 -2.14148 -0.958017 0
M  V30 9981 C 936.085 -1.09564 -1.35173 0
M  V30 9982 O 937.261 -1.4166 -1.43158 0
M  V30 9983 C 934.326 -2.6636 -2.21931 0
M  V30 9984 C 933.387 -3.85688 -1.8853 0
M  V30 9985 C 932.62 -4.35401 -3.08645 0
M  V30 9986 O 932.843 -3.8425 -4.21554 0
M  V30 9987 O 931.777 -5.27158 -2.90497 0
M  V30 9988 H 935.603 -2.99442 -0.506797 0
M  V30 9989 H 933.188 -1.48259 -0.184275 0
M  V30 9990 H 935.07 -2.99976 -2.9596 0
M  V30 9991 H 933.745 -1.84145 -2.66219 0
M  V30 9992 H 932.652 -3.56985 -1.11861 0
M  V30 9993 H 933.985 -4.69089 -1.49052 0
M  V30 9994 N 935.637 0.236453 -1.55816 0
M  V30 9995 C 937.048 0.80468 -1.68469 0
M  V30 9996 C 937.399 1.85601 -0.636133 0
M  V30 9997 O 936.524 2.15323 0.215622 0
M  V30 9998 C 937.119 1.46634 -3.05424 0
M  V30 9999 C 935.678 1.98214 -3.19981 0
M  V30 10000 C 934.825 0.83695 -2.64368 0
M  V30 10001 H 937.776 0.0120647 -1.58695 0
M  V30 10002 H 937.797 2.33472 -3.00451 0
M  V30 10003 H 937.309 0.700931 -3.81718 0
M  V30 10004 H 935.41 2.77604 -2.4853 0
M  V30 10005 H 935.523 2.17235 -4.2702 0
M  V30 10006 H 933.887 1.24028 -2.22462 0
M  V30 10007 H 934.67 0.084451 -3.43196 0
M  V30 10008 N 937.115 1.49373 0.502552 0
M  V30 10009 C 938.062 1.65927 1.60427 0
M  V30 10010 C 939.032 0.500768 1.58371 0
M  V30 10011 O 940.217 0.727606 1.76382 0
M  V30 10012 C 937.357 1.73043 2.9858 0
M  V30 10013 C 936.47 3.00187 3.10663 0
M  V30 10014 C 935.605 2.98292 4.3954 0
M  V30 10015 C 934.644 4.20022 4.4525 0
M  V30 10016 N 933.781 4.16046 5.65553 0
M  V30 10017 H 938.621 2.59998 1.45619 0
M  V30 10018 H 936.158 1.28912 0.708519 0
M  V30 10019 H 938.116 1.7515 3.78653 0
M  V30 10020 H 936.746 0.824397 3.12095 0
M  V30 10021 H 935.798 3.07699 2.23663 0
M  V30 10022 H 937.11 3.9018 3.10742 0
M  V30 10023 H 936.264 2.98953 5.27932 0
M  V30 10024 H 935.003 2.06075 4.42023 0
M  V30 10025 H 934.008 4.19607 3.5526 0
M  V30 10026 H 935.233 5.13431 4.44484 0
M  V30 10027 H 933.179 3.26665 5.68881 0
M  V30 10028 H 933.096 4.99773 5.67242 0
M  V30 10029 H 934.364 4.20807 6.56156 0
M  V30 10030 N 938.594 -0.753485 1.38421 0
M  V30 10031 C 939.843 -1.50797 1.33952 0
M  V30 10032 C 940.156 -1.95482 -0.0678464 0
M  V30 10033 O 941.362 -2.7048 -0.235078 0
M  V30 10034 C 939.818 -2.72393 2.35224 0
M  V30 10035 C 939.426 -2.34733 3.81582 0
M  V30 10036 C 941.17 -3.50281 2.39798 0
M  V30 10037 C 939.077 -3.52939 4.7454 0
M  V30 10038 H 938.007 -0.566211 0.497916 0
M  V30 10039 H 940.658 -0.823659 1.63976 0
M  V30 10040 H 939.04 -3.42806 1.98243 0
M  V30 10041 H 940.214 -1.71985 4.27502 0
M  V30 10042 H 938.529 -1.69978 3.80127 0
M  V30 10043 H 941.126 -4.38172 3.06447 0
M  V30 10044 H 941.469 -3.91444 1.41695 0
M  V30 10045 H 942.002 -2.86881 2.75579 0
M  V30 10046 H 938.741 -3.16843 5.73839 0
M  V30 10047 H 938.261 -4.1473 4.33312 0
M  V30 10048 H 939.94 -4.19519 4.92557 0
M  V30 10049 N 940.072 -1.23292 -0.981677 0
M  V30 10050 C 941.349 -0.972514 -1.6971 0
M  V30 10051 C 941.729 0.509244 -2.04866 0
M  V30 10052 O 941.077 1.48013 -1.74082 0
M  V30 10053 C 941.287 -1.88144 -2.93943 0
M  V30 10054 C 942.635 -2.14416 -3.66485 0
M  V30 10055 O 943.659 -1.85684 -3.03974 0
M  V30 10056 O 942.518 -2.63139 -4.78978 0
M  V30 10057 H 939.612 -0.366673 -0.741269 0
M  V30 10058 H 942.158 -1.34328 -1.03701 0
M  V30 10059 H 940.93 -2.8832 -2.64551 0
M  V30 10060 H 940.553 -1.51296 -3.67689 0
M  V30 10061 N 941.55 1.18024 -1.04442 0
M  V30 10062 C 942.483 2.20623 -0.583171 0
M  V30 10063 C 943.461 1.57994 0.384262 0
M  V30 10064 O 944.645 1.86135 0.297673 0
M  V30 10065 C 941.772 3.38378 0.147561 0
M  V30 10066 C 940.818 4.19423 -0.773711 0
M  V30 10067 S 941.651 4.85534 -2.25869 0
M  V30 10068 C 942.807 6.06686 -1.53891 0
M  V30 10069 H 943.04 2.59406 -1.45244 0
M  V30 10070 H 940.573 1.28518 -0.855708 0
M  V30 10071 H 942.531 4.06621 0.562988 0
M  V30 10072 H 941.192 2.97998 0.992765 0
M  V30 10073 H 940.385 5.03568 -0.208694 0
M  V30 10074 H 939.987 3.56579 -1.12816 0
M  V30 10075 H 942.279 6.72347 -0.834045 0
M  V30 10076 H 943.222 6.67702 -2.35755 0
M  V30 10077 H 943.63 5.55031 -1.02961 0
M  V30 10078 N 943.028 0.824394 1.34319 0
M  V30 10079 C 943.96 0.204805 2.28283 0
M  V30 10080 C 944.973 -0.606162 1.51094 0
M  V30 10081 O 946.162 -0.435602 1.73103 0
M  V30 10082 C 943.262 -0.73139 3.30914 0
M  V30 10083 C 942.435 0.0370723 4.37384 0
M  V30 10084 C 941.494 -0.820272 5.19767 0
M  V30 10085 O 940.52 -0.264721 5.68584 0
M  V30 10086 N 941.722 -2.13984 5.39621 0
M  V30 10087 H 944.487 1.0121 2.82093 0
M  V30 10088 H 942.048 0.681494 1.46858 0
M  V30 10089 H 944.04 -1.30958 3.82926 0
M  V30 10090 H 942.61 -1.43943 2.77487 0
M  V30 10091 H 941.83 0.796578 3.86068 0
M  V30 10092 H 943.118 0.566014 5.05642 0
M  V30 10093 H 942.516 -2.61492 5.01636 0
M  V30 10094 H 941.073 -2.66685 5.94746 0
M  V30 10095 N 944.506 -1.46559 0.579492 0
M  V30 10096 C 945.416 -2.34066 -0.15816 0
M  V30 10097 C 946.432 -1.49556 -0.88932 0
M  V30 10098 O 947.608 -1.82434 -0.853226 0
M  V30 10099 C 944.673 -3.26683 -1.161 0
M  V30 10100 C 943.734 -4.27092 -0.434855 0
M  V30 10101 C 942.967 -5.15283 -1.38992 0
M  V30 10102 O 943.19 -5.06345 -2.62623 0
M  V30 10103 O 942.124 -5.95099 -0.902253 0
M  V30 10104 H 945.95 -2.98488 0.560234 0
M  V30 10105 H 943.535 -1.45482 0.339918 0
M  V30 10106 H 945.417 -3.8383 -1.73932 0
M  V30 10107 H 944.092 -2.64862 -1.86091 0
M  V30 10108 H 942.999 -3.73641 0.185224 0
M  V30 10109 H 944.332 -4.9169 0.224031 0
M  V30 10110 N 945.984 -0.3171 -1.54377 0
M  V30 10111 C 947.212 0.289558 -2.04864 0
M  V30 10112 C 947.627 1.46284 -1.19359 0
M  V30 10113 O 946.984 1.81135 -0.222795 0
M  V30 10114 C 947.035 0.730273 -3.54047 0
M  V30 10115 O 946.756 -0.396325 -4.36304 0
M  V30 10116 C 948.257 1.40041 -4.20599 0
M  V30 10117 H 945.477 0.0605836 -0.668259 0
M  V30 10118 H 948.021 -0.461411 -1.99227 0
M  V30 10119 H 946.176 1.43123 -3.59992 0
M  V30 10120 H 946.59 -0.0502901 -5.24476 0
M  V30 10121 H 948.064 1.65979 -5.26455 0
M  V30 10122 H 948.541 2.34565 -3.71316 0
M  V30 10123 H 949.147 0.742206 -4.18774 0
M  V30 10124 N 947.462 1.57535 -0.0451378 0
M  V30 10125 C 948.711 1.91628 0.629415 0
M  V30 10126 C 949.024 0.924754 1.72359 0
M  V30 10127 O 950.23 1.15751 2.45589 0
M  V30 10128 C 948.686 3.40322 1.17084 0
M  V30 10129 C 948.294 4.47867 0.109101 0
M  V30 10130 C 950.038 3.83458 1.82099 0
M  V30 10131 C 947.945 5.87671 0.663072 0
M  V30 10132 H 946.875 0.715163 0.238868 0
M  V30 10133 H 949.526 1.83151 -0.113046 0
M  V30 10134 H 947.908 3.43783 1.96543 0
M  V30 10135 H 949.082 4.55988 -0.664201 0
M  V30 10136 H 947.397 4.14034 -0.443227 0
M  V30 10137 H 949.994 4.85273 2.2453 0
M  V30 10138 H 950.337 3.19379 2.67026 0
M  V30 10139 H 950.87 3.82488 1.09305 0
M  V30 10140 H 947.609 6.55332 -0.148423 0
M  V30 10141 H 947.129 5.83124 1.4045 0
M  V30 10142 H 948.808 6.36737 1.14785 0
M  V30 10143 N 948.94 -0.228186 1.55939 0
M  V30 10144 C 950.217 -0.977492 1.69424 0
M  V30 10145 C 950.597 -2.02674 0.590479 0
M  V30 10146 O 949.945 -2.2491 -0.403467 0
M  V30 10147 C 950.155 -1.59394 3.10475 0
M  V30 10148 C 951.503 -2.08871 3.69673 0
M  V30 10149 O 952.527 -1.693 3.13394 0
M  V30 10150 O 951.386 -2.81584 4.68372 0
M  V30 10151 H 948.48 -0.456185 0.6898 0
M  V30 10152 H 951.026 -0.220492 1.68261 0
M  V30 10153 H 949.798 -0.835971 3.82266 0
M  V30 10154 H 949.421 -2.41665 3.15727 0
M  V30 10155 N 950.418 -1.49637 -0.494624 0
M  V30 10156 C 951.328 -1.69522 -1.62172 0
M  V30 10157 C 952.344 -0.577894 -1.64123 0
M  V30 10158 O 953.52 -0.853382 -1.82426 0
M  V30 10159 C 950.585 -1.7633 -2.9851 0
M  V30 10160 C 949.646 -2.99944 -3.07135 0
M  V30 10161 C 948.879 -3.06419 -4.36971 0
M  V30 10162 O 949.102 -2.20312 -5.26136 0
M  V30 10163 O 948.036 -3.9894 -4.507 0
M  V30 10164 H 951.862 -2.65017 -1.48324 0
M  V30 10165 H 949.447 -1.33454 -0.671603 0
M  V30 10166 H 951.329 -1.83125 -3.7953 0
M  V30 10167 H 950.004 -0.840155 -3.12607 0
M  V30 10168 H 948.911 -2.98664 -2.2528 0
M  V30 10169 H 950.244 -3.9176 -2.97968 0
M  V30 10170 N 951.896 0.746133 -1.38819 0
M  V30 10171 C 953.124 1.53539 -1.38685 0
M  V30 10172 C 953.539 1.88788 0.0215039 0
M  V30 10173 O 952.896 1.53312 0.990031 0
M  V30 10174 C 952.947 2.8299 -2.24942 0
M  V30 10175 O 952.668 2.49242 -3.60292 0
M  V30 10176 C 954.169 3.77085 -2.3307 0
M  V30 10177 H 951.389 0.474842 -0.474095 0
M  V30 10178 H 953.933 0.922844 -1.82493 0
M  V30 10179 H 952.088 3.40603 -1.84576 0
M  V30 10180 H 952.502 3.32319 -4.05789 0
M  V30 10181 H 953.976 4.64845 -2.97696 0
M  V30 10182 H 954.453 4.18049 -1.34655 0
M  V30 10183 H 955.059 3.25394 -2.73859 0
M  V30 10184 N 953.375 1.23811 0.975125 0
M  V30 10185 C 954.305 1.04846 2.08638 0
M  V30 10186 C 955.286 -0.0362859 1.70061 0
M  V30 10187 O 956.471 0.12937 1.93769 0
M  V30 10188 C 953.601 0.644534 3.41267 0
M  V30 10189 C 952.555 1.67722 3.93768 0
M  V30 10190 C 951.881 1.12857 5.22654 0
M  V30 10191 C 953.181 3.07147 4.22443 0
M  V30 10192 H 954.875 1.97795 2.24761 0
M  V30 10193 H 952.421 0.952397 1.08006 0
M  V30 10194 H 954.374 0.498887 4.18436 0
M  V30 10195 H 953.098 -0.320641 3.25022 0
M  V30 10196 H 951.757 1.81095 3.18748 0
M  V30 10197 H 951.405 0.154227 5.02764 0
M  V30 10198 H 951.105 1.81862 5.58749 0
M  V30 10199 H 952.629 0.994891 6.0244 0
M  V30 10200 H 954.043 2.97045 4.90344 0
M  V30 10201 H 952.44 3.73437 4.6975 0
M  V30 10202 H 953.51 3.55743 3.29507 0
M  V30 10203 N 954.853 -1.17469 1.05066 0
M  V30 10204 C 956.13 -1.83625 0.673872 0
M  V30 10205 C 956.51 -1.93412 -0.845871 0
M  V30 10206 O 955.858 -1.4677 -1.75131 0
M  V30 10207 C 956.068 -3.21352 1.36139 0
M  V30 10208 C 957.416 -3.97274 1.49863 0
M  V30 10209 O 958.44 -3.30827 1.3203 0
M  V30 10210 O 957.299 -5.16349 1.79013 0
M  V30 10211 H 954.393 -0.792297 0.237055 0
M  V30 10212 H 956.939 -1.24776 1.15017 0
M  V30 10213 H 955.711 -3.0919 2.39827 0
M  V30 10214 H 955.334 -3.87867 0.874364 0
M  V30 10215 N 956.331 -0.831506 -1.3388 0
M  V30 10216 C 957.578 -0.423674 -1.98018 0
M  V30 10217 C 957.906 1.01533 -1.65895 0
M  V30 10218 O 957.161 1.72342 -0.927183 0
M  V30 10219 C 957.46 -0.582733 -3.52617 0
M  V30 10220 C 957.126 -1.98874 -4.04673 0
M  V30 10221 C 955.788 -2.37334 -4.186 0
M  V30 10222 C 958.14 -2.90745 -4.3257 0
M  V30 10223 C 955.468 -3.66984 -4.57755 0
M  V30 10224 C 957.82 -4.19868 -4.73174 0
M  V30 10225 C 956.484 -4.58294 -4.85307 0
M  V30 10226 H 955.754 -0.155033 -0.7246 0
M  V30 10227 H 958.401 -1.05711 -1.59679 0
M  V30 10228 H 956.706 0.134052 -3.91571 0
M  V30 10229 H 958.403 -0.247576 -4.00235 0
M  V30 10230 H 954.993 -1.68001 -3.94301 0
M  V30 10231 H 959.177 -2.62272 -4.2134 0
M  V30 10232 H 954.433 -3.9657 -4.65341 0
M  V30 10233 H 958.607 -4.91138 -4.93717 0
M  V30 10234 H 956.234 -5.58805 -5.15404 0
M  V30 10235 N 957.809 1.4625 -0.587256 0
M  V30 10236 C 959.056 2.02363 -0.0745746 0
M  V30 10237 C 959.384 1.4582 1.28712 0
M  V30 10238 O 958.639 0.614922 1.85788 0
M  V30 10239 C 958.938 3.57382 0.036328 0
M  V30 10240 C 958.604 4.32985 -1.25837 0
M  V30 10241 C 957.266 4.53358 -1.61306 0
M  V30 10242 C 959.618 4.76361 -2.11494 0
M  V30 10243 C 956.946 5.14361 -2.82223 0
M  V30 10244 C 959.298 5.38699 -3.31641 0
M  V30 10245 C 957.962 5.57299 -3.67388 0
M  V30 10246 H 957.232 0.740497 -0.0272888 0
M  V30 10247 H 959.879 1.75565 -0.764804 0
M  V30 10248 H 958.184 3.83342 0.809712 0
M  V30 10249 H 959.881 3.9848 0.448838 0
M  V30 10250 H 956.471 4.17427 -0.972251 0
M  V30 10251 H 960.655 4.60372 -1.85394 0
M  V30 10252 H 955.911 5.26952 -3.10051 0
M  V30 10253 H 960.085 5.71267 -3.9828 0
M  V30 10254 H 957.712 6.04338 -4.61173 0
M  V30 10255 N 959.287 0.325282 1.54207 0
M  V30 10256 C 960.217 -0.532574 2.27345 0
M  V30 10257 C 961.198 -1.11791 1.28206 0
M  V30 10258 O 962.383 -1.14272 1.57021 0
M  V30 10259 C 959.513 -1.69274 3.03255 0
M  V30 10260 C 958.467 -1.23662 4.09746 0
M  V30 10261 C 957.793 -2.48386 4.73506 0
M  V30 10262 C 959.093 -0.350244 5.21124 0
M  V30 10263 H 960.787 0.0775108 2.993 0
M  V30 10264 H 958.333 0.0387193 1.43948 0
M  V30 10265 H 960.286 -2.29917 3.53152 0
M  V30 10266 H 959.01 -2.32944 2.28921 0
M  V30 10267 H 957.669 -0.653106 3.60735 0
M  V30 10268 H 957.317 -3.10424 3.95786 0
M  V30 10269 H 957.017 -2.18558 5.45441 0
M  V30 10270 H 958.541 -3.09789 5.26178 0
M  V30 10271 H 959.955 -0.863011 5.66767 0
M  V30 10272 H 958.352 -0.14466 5.99926 0
M  V30 10273 H 959.422 0.618457 4.8094 0
M  V30 10274 N 960.765 -1.57509 0.0534917 0
M  V30 10275 C 962.181 -1.56696 -0.303067 0
M  V30 10276 C 962.381 -1.06135 -1.71282 0
M  V30 10277 O 961.437 -0.71899 -2.42047 0
M  V30 10278 C 962.75 -3.00421 -0.129418 0
M  V30 10279 C 964.298 -3.12358 -0.200346 0
M  V30 10280 C 964.773 -4.57967 -0.0551971 0
M  V30 10281 N 966.264 -4.63066 -0.111398 0
M  V30 10282 C 966.999 -5.73395 -0.0232344 0
M  V30 10283 N 966.495 -6.92701 0.11741 0
M  V30 10284 N 968.288 -5.62045 -0.078984 0
M  V30 10285 H 960.439 -1.88696 0.975064 0
M  V30 10286 H 962.702 -0.869072 0.378706 0
M  V30 10287 H 962.408 -3.41456 0.842653 0
M  V30 10288 H 962.282 -3.66563 -0.889476 0
M  V30 10289 H 964.669 -2.71221 -1.16289 0
M  V30 10290 H 964.75 -2.48891 0.590506 0
M  V30 10291 H 964.394 -4.9979 0.904034 0
M  V30 10292 H 964.324 -5.19443 -0.865223 0
M  V30 10293 H 966.815 -3.77263 -0.219256 0
M  V30 10294 H 967.128 -7.72597 0.177326 0
M  V30 10295 H 965.473 -6.94833 0.152526 0
M  V30 10296 H 968.664 -4.67725 -0.187434 0
M  V30 10297 H 968.837 -6.48 -0.00681731 0
M  V30 10298 N 962.243 0.219913 -1.56058 0
M  V30 10299 C 963.471 0.960915 -1.83232 0
M  V30 10300 C 963.886 1.77878 -0.632828 0
M  V30 10301 O 963.243 1.78093 0.398624 0
M  V30 10302 C 963.294 1.87716 -3.08942 0
M  V30 10303 O 963.015 1.09235 -4.24263 0
M  V30 10304 C 964.516 2.73192 -3.49115 0
M  V30 10305 H 961.736 0.281546 -0.609075 0
M  V30 10306 H 964.28 0.234648 -2.03149 0
M  V30 10307 H 962.435 2.55736 -2.90995 0
M  V30 10308 H 962.849 1.71446 -4.95688 0
M  V30 10309 H 964.323 3.33181 -4.40107 0
M  V30 10310 H 964.8 3.45668 -2.70943 0
M  V30 10311 H 965.406 2.10583 -3.69506 0
M  V30 10312 N 963.721 1.49897 0.486681 0
M  V30 10313 C 964.967 1.60342 1.2417 0
M  V30 10314 C 965.3 0.295694 1.91936 0
M  V30 10315 O 964.575 -0.701788 1.81398 0
M  V30 10316 C 964.858 2.77281 2.29755 0
M  V30 10317 C 964.711 4.1789 1.66397 0
M  V30 10318 C 966.03 2.89817 3.31201 0
M  V30 10319 H 963.149 0.583605 0.450083 0
M  V30 10320 H 965.791 1.82232 0.537734 0
M  V30 10321 H 963.941 2.58748 2.89796 0
M  V30 10322 H 965.613 4.47975 1.10073 0
M  V30 10323 H 963.856 4.22872 0.967579 0
M  V30 10324 H 964.527 4.95612 2.43049 0
M  V30 10325 H 967.003 3.06732 2.81167 0
M  V30 10326 H 965.879 3.7329 4.02425 0
M  V30 10327 H 966.14 1.9977 3.94391 0
M  V30 10328 N 965.199 -0.738761 1.39212 0
M  V30 10329 C 966.476 -1.48982 1.26742 0
M  V30 10330 C 966.856 -2.10732 -0.12466 0
M  V30 10331 O 966.204 -1.98287 -1.13554 0
M  V30 10332 C 966.414 -2.54427 2.38889 0
M  V30 10333 C 967.762 -3.20915 2.78027 0
M  V30 10334 O 968.786 -2.64738 2.38311 0
M  V30 10335 O 967.645 -4.22558 3.46565 0
M  V30 10336 H 964.739 -0.661395 0.496473 0
M  V30 10337 H 967.285 -0.772907 1.51077 0
M  V30 10338 H 966.057 -2.07151 3.3197 0
M  V30 10339 H 965.68 -3.33682 2.162 0
M  V30 10340 N 966.677 -1.24326 -0.968545 0
M  V30 10341 C 967.607 -1.05951 -2.08079 0
M  V30 10342 C 968.588 0.0272666 -1.70078 0
M  V30 10343 O 969.773 -0.139644 -1.93697 0
M  V30 10344 C 966.903 -0.662623 -3.4092 0
M  V30 10345 C 965.857 -1.69807 -3.92873 0
M  V30 10346 C 965.183 -1.15628 -5.22048 0
M  V30 10347 C 966.483 -3.09383 -4.20808 0
M  V30 10348 H 968.177 -1.98984 -2.23709 0
M  V30 10349 H 965.723 -0.958112 -1.075 0
M  V30 10350 H 967.676 -0.521071 -4.18166 0
M  V30 10351 H 966.4 0.303399 -3.25188 0
M  V30 10352 H 965.059 -1.82783 -3.17783 0
M  V30 10353 H 964.707 -0.180888 -5.02675 0
M  V30 10354 H 964.407 -1.84822 -5.57776 0
M  V30 10355 H 965.931 -1.02683 -6.01904 0
M  V30 10356 H 967.345 -2.99642 -4.88761 0
M  V30 10357 H 965.742 -3.75923 -4.67763 0
M  V30 10358 H 966.812 -3.57486 -3.27616 0
M  V30 10359 N 968.156 1.1691 -1.05688 0
M  V30 10360 C 969.384 1.91204 -0.790485 0
M  V30 10361 C 969.799 1.77095 0.654434 0
M  V30 10362 O 969.156 1.11146 1.44751 0
M  V30 10363 C 969.207 3.42108 -1.16808 0
M  V30 10364 O 968.928 3.55788 -2.55629 0
M  V30 10365 C 970.429 4.33466 -0.92855 0
M  V30 10366 H 967.649 0.606508 -0.287035 0
M  V30 10367 H 970.193 1.48225 -1.40888 0
M  V30 10368 H 968.348 3.82814 -0.59434 0
M  V30 10369 H 968.762 4.49321 -2.70575 0
M  V30 10370 H 970.236 5.37836 -1.24245 0
M  V30 10371 H 970.713 4.38989 0.136016 0
M  V30 10372 H 971.319 3.98481 -1.48638 0
M  V30 10373 N 969.634 0.838594 1.33437 0
M  V30 10374 C 970.911 0.356112 1.92331 0
M  V30 10375 C 971.291 -1.1585 1.76471 0
M  V30 10376 O 970.639 -1.97281 1.15293 0
M  V30 10377 C 970.849 0.802715 3.39643 0
M  V30 10378 C 972.197 0.810575 4.16791 0
M  V30 10379 O 973.221 0.746304 3.48294 0
M  V30 10380 O 972.08 0.898082 5.3907 0
M  V30 10381 H 969.174 0.100711 0.820845 0
M  V30 10382 H 971.72 0.924428 1.42311 0
M  V30 10383 H 970.492 1.84529 3.45057 0
M  V30 10384 H 970.115 0.210956 3.9704 0
M  V30 10385 N 971.112 -1.45937 0.595003 0
M  V30 10386 C 972.059 -2.30427 -0.131165 0
M  V30 10387 C 973.029 -1.41355 -0.872232 0
M  V30 10388 O 974.214 -1.70296 -0.860467 0
M  V30 10389 C 971.354 -3.26045 -1.13087 0
M  V30 10390 C 970.467 -4.30218 -0.391982 0
M  V30 10391 C 969.602 -5.12953 -1.3803 0
M  V30 10392 C 968.641 -6.08865 -0.628505 0
M  V30 10393 N 967.778 -6.84425 -1.56548 0
M  V30 10394 H 972.618 -2.91992 0.595359 0
M  V30 10395 H 970.155 -1.43895 0.305405 0
M  V30 10396 H 972.113 -3.79937 -1.72348 0
M  V30 10397 H 970.743 -2.66261 -1.82496 0
M  V30 10398 H 969.795 -3.79086 0.315895 0
M  V30 10399 H 971.107 -4.98418 0.195173 0
M  V30 10400 H 970.261 -5.71184 -2.04534 0
M  V30 10401 H 969 -4.44743 -2.00138 0
M  V30 10402 H 968.005 -5.49777 0.0502431 0
M  V30 10403 H 969.23 -6.79099 -0.012641 0
M  V30 10404 H 967.176 -6.18913 -2.17444 0
M  V30 10405 H 967.093 -7.48931 -1.03145 0
M  V30 10406 H 968.361 -7.47204 -2.22049 0
M  V30 10407 N 972.59 -0.333456 -1.54032 0
M  V30 10408 C 974.001 0.15256 -1.86076 0
M  V30 10409 C 974.352 1.50819 -1.25492 0
M  V30 10410 O 973.477 2.08903 -0.564665 0
M  V30 10411 C 974.072 0.283599 -3.37611 0
M  V30 10412 C 972.631 0.713841 -3.69569 0
M  V30 10413 C 971.778 -0.158515 -2.76847 0
M  V30 10414 H 974.729 -0.553404 -1.48738 0
M  V30 10415 H 974.75 1.11284 -3.63863 0
M  V30 10416 H 974.262 -0.703193 -3.81676 0
M  V30 10417 H 972.363 1.71002 -3.31042 0
M  V30 10418 H 972.476 0.510731 -4.7637 0
M  V30 10419 H 970.84 0.367531 -2.52034 0
M  V30 10420 H 971.623 -1.14226 -3.2374 0
M  V30 10421 N 974.068 1.57479 -0.061844 0
M  V30 10422 C 975.293 1.97843 0.622311 0
M  V30 10423 C 975.718 0.939602 1.62951 0
M  V30 10424 O 975.076 -0.095958 1.81046 0
M  V30 10425 C 975.124 3.37262 1.2762 0
M  V30 10426 O 974.228 3.35943 2.39199 0
M  V30 10427 H 973.569 0.644212 0.160896 0
M  V30 10428 H 976.099 2.04165 -0.133409 0
M  V30 10429 H 976.109 3.74226 1.62539 0
M  V30 10430 H 974.784 4.12404 0.538112 0
M  V30 10431 H 973.361 3.10737 2.06148 0
M  V30 10432 O 975.585 -0.0790267 1.61307 0
M  V30 10433 H 976.276 -0.705778 1.80384 0
M  V30 END ATOM
M  V30 BEGIN BOND
M  V30 END BOND
M  V30 END CTAB
M  END
$$$$
