drugbank_target|P00807 Beta-lactamase (DB02642; DB04133; DB09324)
 OpenBabel12092119283D

  0  0  0     0  0            999 V3000
M  V30 BEGIN CTAB
M  V30 COUNTS 4523 4555 0 0 0
M  V30 BEGIN ATOM
M  V30 1 H -0.908 1.98254 -0.117106 0
M  V30 2 N 0 1.576 0 0
M  V30 3 C 0.933 2.03868 1.02534 0
M  V30 4 C 1.911 0.928543 1.3348 0
M  V30 5 O 3.095 1.19667 1.45644 0
M  V30 6 C 0.222 2.43627 2.35294 0
M  V30 7 C -0.732 3.65373 2.2001 0
M  V30 8 S 0.101 5.13292 1.52614 0
M  V30 9 C 1.257 5.56322 2.86805 0
M  V30 10 H 1.49 2.90518 0.631377 0
M  V30 11 H -0.977 1.52953 0.210867 0
M  V30 12 H 0.981 2.67203 3.11629 0
M  V30 13 H -0.358 1.57376 2.7183 0
M  V30 14 H -1.165 3.90944 3.18086 0
M  V30 15 H -1.563 3.418 1.51819 0
M  V30 16 H 0.729 5.58782 3.83104 0
M  V30 17 H 1.672 6.56266 2.65933 0
M  V30 18 H 2.08 4.83886 2.90714 0
M  V30 19 N 1.4781 -0.272755 1.55222 0
M  V30 20 C 2.4251 -1.33716 1.88119 0
M  V30 21 C 3.3951 -1.49066 0.73271 0
M  V30 22 O 4.5801 -1.63469 0.984002 0
M  V30 23 C 1.7201 -2.69238 2.15882 0
M  V30 24 C 0.8331 -2.62108 3.43399 0
M  V30 25 C -0.0319 -3.89811 3.60861 0
M  V30 26 C -0.9929 -3.77193 4.8207 0
M  V30 27 N -1.8559 -4.9673 4.96189 0
M  V30 28 H 2.9841 -1.04962 2.78903 0
M  V30 29 H 0.5211 -0.507088 1.38083 0
M  V30 30 H 2.4791 -3.48089 2.29978 0
M  V30 31 H 1.1091 -2.96194 1.28331 0
M  V30 32 H 0.1611 -1.74967 3.37773 0
M  V30 33 H 1.4731 -2.48685 4.32386 0
M  V30 34 H 0.6271 -4.77103 3.74777 0
M  V30 35 H -0.6339 -4.06102 2.7006 0
M  V30 36 H -1.6289 -2.88284 4.68159 0
M  V30 37 H -0.4039 -3.62421 5.74307 0
M  V30 38 H -2.4579 -5.13431 4.08319 0
M  V30 39 H -2.5409 -4.85839 5.79221 0
M  V30 40 H -1.2729 -5.85594 5.1449 0
M  V30 41 N 2.9562 -1.48159 -0.537278 0
M  V30 42 C 3.9032 -1.62138 -1.64256 0
M  V30 43 C 4.8732 -0.463668 -1.59497 0
M  V30 44 O 6.0582 -0.686241 -1.78032 0
M  V30 45 C 3.1982 -1.66028 -3.02537 0
M  V30 46 C 2.3112 -2.92855 -3.17585 0
M  V30 47 C 1.4462 -2.87952 -4.46382 0
M  V30 48 C 0.4852 -4.09516 -4.54932 0
M  V30 49 N -0.3778 -4.02733 -5.75109 0
M  V30 50 H 4.4622 -2.56529 -1.51647 0
M  V30 51 H 1.9992 -1.27224 -0.738414 0
M  V30 52 H 3.9572 -1.66265 -3.82638 0
M  V30 53 H 2.5872 -0.751331 -3.13934 0
M  V30 54 H 1.6392 -3.02395 -2.30784 0
M  V30 55 H 2.9512 -3.82822 -3.19764 0
M  V30 56 H 2.1052 -2.8655 -5.34765 0
M  V30 57 H 0.8442 -1.95702 -4.46712 0
M  V30 58 H -0.1508 -4.11201 -3.64957 0
M  V30 59 H 1.0742 -5.02917 -4.56346 0
M  V30 60 H -0.9798 -3.13299 -5.76351 0
M  V30 61 H -1.0628 -4.86397 -5.78752 0
M  V30 62 H 0.2052 -4.05379 -6.65799 0
M  V30 63 N 4.4343 0.785586 -1.36625 0
M  V30 64 C 5.3643 1.91259 -1.33949 0
M  V30 65 C 6.3453 1.68795 -0.210325 0
M  V30 66 O 7.5303 1.89854 -0.408561 0
M  V30 67 C 4.6603 3.28339 -1.13186 0
M  V30 68 C 3.6143 3.65335 -2.22967 0
M  V30 69 C 2.9403 5.00806 -1.87342 0
M  V30 70 C 4.2403 3.7352 -3.65075 0
M  V30 71 H 5.9343 1.93755 -2.28253 0
M  V30 72 H 3.4803 0.930788 -1.09874 0
M  V30 73 H 5.4333 4.06804 -1.09948 0
M  V30 74 H 4.1573 3.2624 -0.153332 0
M  V30 75 H 2.8163 2.89169 -2.25337 0
M  V30 76 H 2.4643 4.95233 -0.880545 0
M  V30 77 H 2.1643 5.26529 -2.60846 0
M  V30 78 H 3.6883 5.81687 -1.85667 0
M  V30 79 H 5.1023 4.42168 -3.64911 0
M  V30 80 H 3.4993 4.10731 -4.37516 0
M  V30 81 H 4.5693 2.74527 -3.99703 0
M  V30 82 N 5.9124 1.20967 1.01018 0
M  V30 83 C 7.1614 1.01796 1.74128 0
M  V30 84 C 7.4744 -0.449691 1.90361 0
M  V30 85 O 8.6804 -0.76068 2.60626 0
M  V30 86 C 7.1364 1.7727 3.13215 0
M  V30 87 C 6.7444 3.28171 3.04972 0
M  V30 88 C 8.4884 1.66489 3.90489 0
M  V30 89 C 6.3954 3.96156 4.39107 0
M  V30 90 H 5.3254 0.377276 0.652824 0
M  V30 91 H 7.9764 1.44651 1.12909 0
M  V30 92 H 6.3584 1.27205 3.75013 0
M  V30 93 H 7.5324 3.85499 2.52443 0
M  V30 94 H 5.8474 3.39437 2.41188 0
M  V30 95 H 8.4444 2.14617 4.89738 0
M  V30 96 H 8.7874 0.6222 4.11624 0
M  V30 97 H 9.3204 2.14003 3.35332 0
M  V30 98 H 6.0594 5.00604 4.23174 0
M  V30 99 H 5.5794 3.43617 4.91617 0
M  V30 100 H 7.2584 4.00774 5.07926 0
M  V30 101 N 7.3905 -1.2043 1.01659 0
M  V30 102 C 8.6375 -1.89797 0.705917 0
M  V30 103 C 8.9655 -1.78848 -0.764439 0
M  V30 104 O 8.2205 -1.16694 -1.57102 0
M  V30 105 C 8.5195 -3.40464 1.08714 0
M  V30 106 C 8.1855 -3.71614 2.5537 0
M  V30 107 C 6.8475 -3.79826 2.95441 0
M  V30 108 C 9.1995 -3.85915 3.50313 0
M  V30 109 C 6.5275 -3.99797 4.29394 0
M  V30 110 C 8.8795 -4.07396 4.83954 0
M  V30 111 C 7.5435 -4.13837 5.23732 0
M  V30 112 H 6.8135 -0.694518 0.258313 0
M  V30 113 H 9.4605 -1.42691 1.27717 0
M  V30 114 H 7.7655 -3.89385 0.434309 0
M  V30 115 H 9.4625 -3.92433 0.824461 0
M  V30 116 H 6.0525 -3.65822 2.23321 0
M  V30 117 H 10.2365 -3.78926 3.20513 0
M  V30 118 H 5.4925 -4.03018 4.59768 0
M  V30 119 H 9.6665 -4.17404 5.57447 0
M  V30 120 H 7.2935 -4.29064 6.27541 0
M  V30 121 N 8.8686 -0.792821 -1.36206 0
M  V30 122 C 9.7986 -0.207853 -2.32573 0
M  V30 123 C 10.7796 0.659055 -1.56813 0
M  V30 124 O 11.9646 0.592176 -1.84951 0
M  V30 125 C 9.0946 0.655449 -3.41059 0
M  V30 126 C 8.0486 -0.111842 -4.27854 0
M  V30 127 C 7.3746 0.872274 -5.27537 0
M  V30 128 C 8.6746 -1.30299 -5.05786 0
M  V30 129 H 10.3686 -1.01294 -2.81744 0
M  V30 130 H 7.9146 -0.48854 -1.3546 0
M  V30 131 H 9.8676 1.07464 -4.07467 0
M  V30 132 H 8.5916 1.49328 -2.90463 0
M  V30 133 H 7.2506 -0.512053 -3.63006 0
M  V30 134 H 6.8986 1.70523 -4.73214 0
M  V30 135 H 6.5986 0.363291 -5.86476 0
M  V30 136 H 8.1226 1.28996 -5.96818 0
M  V30 137 H 9.5366 -0.959379 -5.65216 0
M  V30 138 H 7.9336 -1.7455 -5.74154 0
M  V30 139 H 9.0036 -2.09663 -4.37229 0
M  V30 140 N 10.3467 1.47872 -0.545128 0
M  V30 141 C 11.5957 2.01695 -0.0145033 0
M  V30 142 C 11.9087 1.42609 1.33873 0
M  V30 143 O 13.1147 1.88021 1.95858 0
M  V30 144 C 11.5707 3.59892 0.0245068 0
M  V30 145 C 11.1787 4.27966 -1.32475 0
M  V30 146 C 12.9227 4.21507 0.50316 0
M  V30 147 C 10.8297 5.78136 -1.2455 0
M  V30 148 H 9.7597 0.753998 -0.00165172 0
M  V30 149 H 12.4107 1.69985 -0.691175 0
M  V30 150 H 10.7927 3.88509 0.766575 0
M  V30 151 H 11.9667 4.11003 -2.08357 0
M  V30 152 H 10.2817 3.78286 -1.74036 0
M  V30 153 H 12.8787 5.31538 0.580656 0
M  V30 154 H 13.2217 3.87855 1.51243 0
M  V30 155 H 13.7547 3.97376 -0.183681 0
M  V30 156 H 10.4937 6.16388 -2.23039 0
M  V30 157 H 10.0137 5.97469 -0.528282 0
M  V30 158 H 11.6927 6.40099 -0.942488 0
M  V30 159 N 11.8248 0.280983 1.55075 0
M  V30 160 C 13.0708 -0.33461 2.00021 0
M  V30 161 C 13.4038 -1.55063 1.16915 0
M  V30 162 O 12.6788 -1.93006 0.240646 0
M  V30 163 C 12.9618 -0.711007 3.53011 0
M  V30 164 C 12.8148 0.512766 4.46868 0
M  V30 165 C 14.1338 -1.54522 4.12081 0
M  V30 166 H 11.2528 -0.120147 0.727141 0
M  V30 167 H 13.8948 0.389097 1.85973 0
M  V30 168 H 12.0448 -1.32761 3.65112 0
M  V30 169 H 13.7168 1.15131 4.46702 0
M  V30 170 H 11.9598 1.14975 4.18286 0
M  V30 171 H 12.6308 0.205556 5.51617 0
M  V30 172 H 15.1068 -1.02442 4.03293 0
M  V30 173 H 13.9828 -1.77739 5.19327 0
M  V30 174 H 14.2438 -2.52813 3.62682 0
M  V30 175 N 13.3029 -1.57598 0.00835791 0
M  V30 176 C 14.5519 -1.90107 -0.673968 0
M  V30 177 C 14.8649 -0.884275 -1.7447 0
M  V30 178 O 16.0709 -1.09987 -2.48224 0
M  V30 179 C 14.5269 -3.37497 -1.24995 0
M  V30 180 C 14.1349 -4.47491 -0.2136 0
M  V30 181 C 15.8789 -3.79104 -1.90999 0
M  V30 182 C 13.7859 -5.85963 -0.80005 0
M  V30 183 H 12.7159 -0.709393 -0.255495 0
M  V30 184 H 15.3669 -1.83365 0.0702693 0
M  V30 185 H 13.7489 -3.39102 -2.04513 0
M  V30 186 H 14.9229 -4.57414 0.557596 0
M  V30 187 H 13.2379 -4.14956 0.346474 0
M  V30 188 H 15.8349 -4.79901 -2.35795 0
M  V30 189 H 16.1779 -3.1306 -2.74407 0
M  V30 190 H 16.7109 -3.79833 -1.18203 0
M  V30 191 H 13.4499 -6.555 -0.00456708 0
M  V30 192 H 12.9699 -5.79687 -1.54021 0
M  V30 193 H 14.6489 -6.33884 -1.29615 0
M  V30 194 N 14.781 0.264519 -1.55364 0
M  V30 195 C 15.744 1.31046 -1.88042 0
M  V30 196 C 16.744 1.41943 -0.755569 0
M  V30 197 O 17.934 1.40947 -1.02369 0
M  V30 198 C 15.066 2.69067 -2.09323 0
M  V30 199 H 16.259 1.03297 -2.81549 0
M  V30 200 H 13.812 0.502989 -1.47986 0
M  V30 201 H 14.547 3.01982 -1.18226 0
M  V30 202 H 14.332 2.62542 -2.91229 0
M  V30 203 H 15.822 3.44623 -2.35848 0
M  V30 204 N 16.2591 1.48442 0.529413 0
M  V30 205 C 17.1891 1.65902 1.64313 0
M  V30 206 C 18.1701 0.507897 1.6234 0
M  V30 207 O 19.3551 0.740503 1.79528 0
M  V30 208 C 16.4851 1.69911 3.02898 0
M  V30 209 C 15.4391 2.8453 3.19729 0
M  V30 210 C 14.7651 2.73629 4.59381 0
M  V30 211 C 16.0651 4.25821 3.02447 0
M  V30 212 H 17.7591 2.5914 1.49955 0
M  V30 213 H 15.3051 1.24709 0.719982 0
M  V30 214 H 17.2581 1.80715 3.80684 0
M  V30 215 H 15.9821 0.732524 3.18279 0
M  V30 216 H 14.6411 2.73283 2.44361 0
M  V30 217 H 14.2891 1.74938 4.71599 0
M  V30 218 H 13.9891 3.50541 4.71588 0
M  V30 219 H 15.5131 2.86401 5.39265 0
M  V30 220 H 16.9271 4.37898 3.70024 0
M  V30 221 H 15.3241 5.03735 3.26146 0
M  V30 222 H 16.3941 4.42244 1.98867 0
M  V30 223 N 17.7372 -0.778329 1.37039 0
M  V30 224 C 18.9832 -1.53892 1.32079 0
M  V30 225 C 19.3162 -1.9396 -0.0965386 0
M  V30 226 O 18.5912 -1.63568 -1.05242 0
M  V30 227 C 18.8742 -2.80847 2.25382 0
M  V30 228 C 18.7272 -2.47076 3.75864 0
M  V30 229 C 20.0462 -3.82741 2.1725 0
M  V30 230 H 17.1652 -0.558303 0.48111 0
M  V30 231 H 19.8072 -0.893397 1.67685 0
M  V30 232 H 17.9572 -3.35931 1.95148 0
M  V30 233 H 19.6292 -1.97957 4.16666 0
M  V30 234 H 17.8722 -1.79863 3.94755 0
M  V30 235 H 18.5432 -3.37798 4.36574 0
M  V30 236 H 21.0192 -3.37133 2.43887 0
M  V30 237 H 19.8952 -4.69303 2.84686 0
M  V30 238 H 20.1562 -4.2652 1.16331 0
M  V30 239 N 19.2153 -1.21501 -1.00376 0
M  V30 240 C 20.1453 -0.999478 -2.11028 0
M  V30 241 C 21.1263 0.0759671 -1.6993 0
M  V30 242 O 22.3113 -0.0841106 -1.94018 0
M  V30 243 C 19.4413 -0.564709 -3.42678 0
M  V30 244 C 18.3953 -1.58486 -3.97576 0
M  V30 245 C 17.7213 -1.00628 -5.25146 0
M  V30 246 C 19.0213 -2.97204 -4.29496 0
M  V30 247 H 20.7153 -1.92495 -2.29317 0
M  V30 248 H 18.2613 -0.92693 -1.102 0
M  V30 249 H 20.2143 -0.401091 -4.19487 0
M  V30 250 H 18.9383 0.396411 -3.24185 0
M  V30 251 H 17.5973 -1.73606 -3.22888 0
M  V30 252 H 17.2453 -0.0368439 -5.02987 0
M  V30 253 H 16.9453 -1.68771 -5.62841 0
M  V30 254 H 18.4693 -0.854015 -6.04598 0
M  V30 255 H 19.8833 -2.8552 -4.97143 0
M  V30 256 H 18.2803 -3.62372 -4.78338 0
M  V30 257 H 19.3503 -3.47956 -3.3772 0
M  V30 258 N 20.6934 1.19889 -1.02296 0
M  V30 259 C 21.9184 1.9393 -0.735237 0
M  V30 260 C 22.3434 1.74639 0.698782 0
M  V30 261 O 21.7014 1.04481 1.48167 0
M  V30 262 C 21.7494 3.43916 -1.08417 0
M  V30 263 O 20.8534 4.11917 -0.199446 0
M  V30 264 H 20.1944 0.605645 -0.272196 0
M  V30 265 H 22.7244 1.52137 -1.36804 0
M  V30 266 H 22.7344 3.9456 -1.03856 0
M  V30 267 H 21.4094 3.5728 -2.12894 0
M  V30 268 H 19.9864 3.71666 -0.303136 0
M  V30 269 N 22.1715 0.800033 1.35784 0
M  V30 270 C 23.1345 0.211565 2.28221 0
M  V30 271 C 24.1345 -0.59728 1.49296 0
M  V30 272 O 25.3245 -0.416721 1.69142 0
M  V30 273 C 22.4565 -0.705846 3.33513 0
M  V30 274 H 23.6495 1.02677 2.81776 0
M  V30 275 H 21.2025 0.570211 1.45528 0
M  V30 276 H 21.9375 -1.54498 2.85133 0
M  V30 277 H 21.7225 -0.127655 3.91892 0
M  V30 278 H 23.2125 -1.11211 4.02519 0
M  V30 279 N 23.6496 -1.47581 0.552962 0
M  V30 280 C 24.8896 -2.04379 0.0296245 0
M  V30 281 C 25.2536 -1.4185 -1.29393 0
M  V30 282 O 26.4546 -1.89669 -1.90471 0
M  V30 283 C 24.7256 -3.57339 -0.0661371 0
M  V30 284 S 26.2846 -4.35511 -0.536213 0
M  V30 285 H 23.1026 -0.710625 0.0230991 0
M  V30 286 H 25.7046 -1.81005 0.738734 0
M  V30 287 H 24.4086 -4.00374 0.901596 0
M  V30 288 H 23.9396 -3.85202 -0.798931 0
M  V30 289 H 25.9546 -4.6253 -1.79668 0
M  V30 290 N 25.1277 -0.289203 -1.54924 0
M  V30 291 C 26.0757 0.607966 -2.24514 0
M  V30 292 C 27.0697 1.14655 -1.24702 0
M  V30 293 O 28.2757 1.09856 -1.4259 0
M  V30 294 H 24.6507 0.21464 -0.720718 0
M  V30 295 H 26.6217 -0.00164182 -2.984 0
M  V30 296 C 25.3707 1.77406 -2.99036 0
M  V30 297 H 24.6937 1.36884 -3.75637 0
M  V30 298 H 26.1337 2.37814 -3.51028 0
M  V30 299 C 24.5927 2.67107 -2.05318 0
M  V30 300 O 25.1227 3.6787 -1.61353 0
M  V30 301 N 23.3287 2.34582 -1.71521 0
M  V30 302 H 22.8757 1.52688 -2.07471 0
M  V30 303 H 22.8337 2.94867 -1.0909 0
M  V30 304 N 26.6058 1.57591 -0.0167156 0
M  V30 305 C 27.8308 1.9598 0.67872 0
M  V30 306 C 28.2558 0.892546 1.65575 0
M  V30 307 O 27.6138 -0.147772 1.80697 0
M  V30 308 C 27.6618 3.33468 1.37227 0
M  V30 309 O 26.7658 3.28954 2.48722 0
M  V30 310 H 26.1068 0.639339 0.17928 0
M  V30 311 H 28.6368 2.04463 -0.0748802 0
M  V30 312 H 28.6468 3.69417 1.7319 0
M  V30 313 H 27.3218 4.10694 0.656007 0
M  V30 314 H 25.8988 3.04705 2.14963 0
M  V30 315 N 28.0839 -0.256276 1.55502 0
M  V30 316 C 29.0319 -1.33694 1.90338 0
M  V30 317 C 30.0259 -1.50299 0.781441 0
M  V30 318 O 31.2319 -1.51885 0.965966 0
M  V30 319 H 27.6069 -0.447483 0.60437 0
M  V30 320 H 29.5779 -1.01574 2.8058 0
M  V30 321 C 28.3269 -2.68724 2.20642 0
M  V30 322 H 27.6499 -2.56743 3.06469 0
M  V30 323 H 29.0899 -3.43237 2.48926 0
M  V30 324 C 27.5489 -3.21101 1.01959 0
M  V30 325 O 28.0789 -4.0084 0.262762 0
M  V30 326 N 26.2849 -2.79003 0.812746 0
M  V30 327 H 25.8319 -2.14271 1.42989 0
M  V30 328 H 25.7899 -3.14393 0.0203076 0
M  V30 329 N 29.562 -1.4872 -0.521534 0
M  V30 330 C 30.787 -1.61101 -1.30618 0
M  V30 331 C 31.212 -0.274611 -1.86085 0
M  V30 332 O 30.57 0.754937 -1.64834 0
M  V30 333 C 30.618 -2.66709 -2.4269 0
M  V30 334 O 29.722 -2.24456 -3.45967 0
M  V30 335 H 29.063 -0.539921 -0.386499 0
M  V30 336 H 31.593 -1.94767 -0.626645 0
M  V30 337 H 31.603 -2.88245 -2.88754 0
M  V30 338 H 30.278 -3.63727 -2.01682 0
M  V30 339 H 28.855 -2.13168 -3.05964 0
M  V30 340 N 31.0401 0.771051 -1.3745 0
M  V30 341 C 32.2651 1.56529 -1.36065 0
M  V30 342 C 32.6901 1.88029 0.0515859 0
M  V30 343 O 32.0481 1.49282 1.02882 0
M  V30 344 C 32.0961 2.85187 -2.20683 0
M  V30 345 O 31.2001 3.79593 -1.61193 0
M  V30 346 H 30.5411 0.47411 -0.464883 0
M  V30 347 H 33.0711 0.954269 -1.80983 0
M  V30 348 H 33.0811 3.34283 -2.33921 0
M  V30 349 H 31.7561 2.61588 -3.23334 0
M  V30 350 H 30.3331 3.38239 -1.56999 0
M  V30 351 N 32.5182 1.22032 0.997298 0
M  V30 352 C 33.4682 0.953838 2.07089 0
M  V30 353 C 34.4522 -0.0938669 1.60626 0
M  V30 354 O 35.6442 0.116078 1.76619 0
M  V30 355 C 32.7732 0.528726 3.39204 0
M  V30 356 C 31.8592 1.61092 3.92314 0
M  V30 357 N 32.2502 2.83768 4.18699 0
M  V30 358 C 30.5482 1.48158 4.20672 0
M  V30 359 C 31.2492 3.53715 4.61802 0
M  V30 360 N 30.2252 2.81174 4.65233 0
M  V30 361 H 34.0272 1.88577 2.25424 0
M  V30 362 H 31.5412 1.11719 1.17867 0
M  V30 363 H 33.5382 0.31915 4.15677 0
M  V30 364 H 32.1982 -0.39635 3.22272 0
M  V30 365 H 33.2092 3.20238 4.07023 0
M  V30 366 H 29.8862 0.622369 4.12835 0
M  V30 367 H 31.2762 4.58793 4.90875 0
M  V30 368 N 33.9963 -1.19345 1.0293 0
M  V30 369 C 34.9593 -2.20793 0.615069 0
M  V30 370 C 35.9593 -1.57553 -0.321533 0
M  V30 371 O 37.1493 -1.73862 -0.108483 0
M  V30 372 C 34.2813 -3.40754 -0.0999222 0
M  V30 373 H 35.4743 -2.58955 1.51269 0
M  V30 374 H 33.0273 -1.3303 0.820534 0
M  V30 375 H 33.7623 -3.0811 -1.01187 0
M  V30 376 H 33.5473 -3.87889 0.57309 0
M  V30 377 H 35.0373 -4.15898 -0.376645 0
M  V30 378 N 35.4744 -0.807222 -1.35358 0
M  V30 379 C 36.4214 -0.216037 -2.29787 0
M  V30 380 C 37.3914 0.650278 -1.52842 0
M  V30 381 O 38.5764 0.595227 -1.81278 0
M  V30 382 C 35.7164 0.628893 -3.39321 0
M  V30 383 C 34.8294 -0.257927 -4.31229 0
M  V30 384 C 33.9644 0.595069 -5.27856 0
M  V30 385 C 33.0034 -0.292111 -6.11403 0
M  V30 386 N 32.1404 0.520895 -7.00165 0
M  V30 387 H 36.9804 -1.02671 -2.79755 0
M  V30 388 H 34.5174 -0.517839 -1.37684 0
M  V30 389 H 36.4754 1.13393 -4.01494 0
M  V30 390 H 35.1054 1.40482 -2.90628 0
M  V30 391 H 34.1574 -0.881076 -3.70056 0
M  V30 392 H 35.4694 -0.940759 -4.89848 0
M  V30 393 H 34.6234 1.16522 -5.95405 0
M  V30 394 H 33.3624 1.31146 -4.69736 0
M  V30 395 H 32.3674 -0.874525 -5.428 0
M  V30 396 H 33.5924 -1.00638 -6.71602 0
M  V30 397 H 31.5384 1.22125 -6.44532 0
M  V30 398 H 31.4554 -0.103877 -7.55929 0
M  V30 399 H 32.7234 1.0743 -7.72062 0
M  V30 400 N 36.9525 1.47285 -0.560781 0
M  V30 401 C 37.8625 2.33846 0.187954 0
M  V30 402 C 38.8785 1.48412 0.908293 0
M  V30 403 O 40.0545 1.81332 0.876388 0
M  V30 404 C 37.1195 3.25178 1.2025 0
M  V30 405 C 36.1805 4.26504 0.489208 0
M  V30 406 C 35.4135 5.13472 1.45542 0
M  V30 407 O 35.6365 5.02959 2.6905 0
M  V30 408 O 34.5705 5.93902 0.977963 0
M  V30 409 H 38.3965 2.99177 -0.522177 0
M  V30 410 H 35.9815 1.45903 -0.321364 0
M  V30 411 H 37.8635 3.81584 1.78805 0
M  V30 412 H 36.5385 2.6247 1.89449 0
M  V30 413 H 35.4455 3.73847 -0.137627 0
M  V30 414 H 36.7785 4.91935 -0.161399 0
M  V30 415 N 38.4306 0.297415 1.54768 0
M  V30 416 C 39.3606 -0.573494 2.26348 0
M  V30 417 C 40.3416 -1.14085 1.26169 0
M  V30 418 O 41.5266 -1.17086 1.54934 0
M  V30 419 C 38.6566 -1.74716 3.00153 0
M  V30 420 C 37.6106 -1.31032 4.07449 0
M  V30 421 C 36.9366 -2.56887 4.68949 0
M  V30 422 C 38.2366 -0.444183 5.20408 0
M  V30 423 H 39.9306 0.0235131 2.99391 0
M  V30 424 H 37.4766 0.0127488 1.43994 0
M  V30 425 H 39.4296 -2.3625 3.48947 0
M  V30 426 H 38.1536 -2.37035 2.24682 0
M  V30 427 H 36.8126 -0.718066 3.59499 0
M  V30 428 H 36.4606 -3.17512 3.90122 0
M  V30 429 H 36.1606 -2.2836 5.41411 0
M  V30 430 H 37.6846 -3.19229 5.20505 0
M  V30 431 H 39.0986 -0.9651 5.65118 0
M  V30 432 H 37.4956 -0.252846 5.99567 0
M  V30 433 H 38.5656 0.531609 4.81977 0
M  V30 434 N 39.9087 -1.5758 0.0250728 0
M  V30 435 C 40.8567 -2.11125 -0.97617 0
M  V30 436 C 41.8507 -1.03689 -1.33959 0
M  V30 437 O 43.0567 -1.22128 -1.3223 0
M  V30 438 H 39.4317 -0.674468 -0.332561 0
M  V30 439 H 41.4027 -2.94194 -0.499223 0
M  V30 440 C 40.1517 -2.65017 -2.2508 0
M  V30 441 H 39.4747 -3.47333 -1.9799 0
M  V30 442 H 40.9147 -3.06133 -2.93357 0
M  V30 443 C 39.3737 -1.57574 -2.97779 0
M  V30 444 O 39.9037 -0.973203 -3.89733 0
M  V30 445 N 38.1097 -1.29716 -2.60043 0
M  V30 446 H 37.6567 -1.789 -1.85345 0
M  V30 447 H 37.6147 -0.58051 -3.08994 0
M  V30 448 N 41.3868 0.248026 -1.55636 0
M  V30 449 C 42.6638 0.998988 -1.68165 0
M  V30 450 C 43.0438 2.03409 -0.564621 0
M  V30 451 O 42.3918 2.24378 0.432076 0
M  V30 452 C 42.6018 1.63334 -3.0842 0
M  V30 453 C 43.9498 2.13562 -3.66983 0
M  V30 454 O 44.9738 1.73277 -3.11213 0
M  V30 455 O 43.8328 2.87526 -4.64749 0
M  V30 456 H 40.9268 0.464933 -0.683935 0
M  V30 457 H 43.4728 0.241902 -1.67967 0
M  V30 458 H 42.2448 0.884583 -3.8117 0
M  V30 459 H 41.8678 2.45666 -3.12624 0
M  V30 460 N 42.8649 1.48995 0.513639 0
M  V30 461 C 43.7949 1.67636 1.62544 0
M  V30 462 C 44.7759 0.525087 1.61793 0
M  V30 463 O 45.9609 0.759502 1.78732 0
M  V30 464 C 43.0909 1.73114 3.01079 0
M  V30 465 C 42.0449 2.87905 3.16693 0
M  V30 466 C 41.3709 2.78486 4.56453 0
M  V30 467 C 42.6709 4.29005 2.97913 0
M  V30 468 H 44.3649 2.60716 1.47198 0
M  V30 469 H 41.9109 1.25465 0.706714 0
M  V30 470 H 43.8639 1.84742 3.78746 0
M  V30 471 H 42.5879 0.766241 3.17484 0
M  V30 472 H 41.2469 2.75859 2.41448 0
M  V30 473 H 40.8949 1.7993 4.69717 0
M  V30 474 H 40.5949 3.55523 4.67843 0
M  V30 475 H 42.1189 2.92104 5.36197 0
M  V30 476 H 43.5329 4.41798 3.65359 0
M  V30 477 H 41.9299 5.07166 3.20785 0
M  V30 478 H 42.9999 4.44329 1.94165 0
M  V30 479 N 44.343 -0.763751 1.37857 0
M  V30 480 C 45.253 -1.90817 1.36478 0
M  V30 481 C 46.269 -1.71997 0.263248 0
M  V30 482 O 47.445 -1.95095 0.499979 0
M  V30 483 C 44.51 -3.2605 1.17864 0
M  V30 484 C 43.571 -3.57467 2.3773 0
M  V30 485 C 42.804 -4.86249 2.19995 0
M  V30 486 O 43.027 -5.57884 1.18836 0
M  V30 487 O 41.961 -5.16911 3.08361 0
M  V30 488 H 45.787 -1.94933 2.32884 0
M  V30 489 H 43.372 -0.907619 1.1867 0
M  V30 490 H 45.254 -4.06924 1.09504 0
M  V30 491 H 43.929 -3.22769 0.245372 0
M  V30 492 H 42.836 -2.76796 2.51664 0
M  V30 493 H 44.169 -3.655 3.29652 0
M  V30 494 N 45.8211 -1.22559 -0.990812 0
M  V30 495 C 46.7681 -0.997519 -2.0813 0
M  V30 496 C 47.7381 0.0814702 -1.659 0
M  V30 497 O 48.9231 -0.0685424 -1.90677 0
M  V30 498 C 46.0631 -0.583615 -3.40129 0
M  V30 499 C 45.1761 -1.7336 -3.9569 0
M  V30 500 C 44.3111 -1.26748 -5.15857 0
M  V30 501 C 43.3501 -2.38888 -5.63559 0
M  V30 502 N 42.4871 -1.93308 -6.74964 0
M  V30 503 H 47.3271 -1.93099 -2.26973 0
M  V30 504 H 44.8641 -0.962114 -1.11273 0
M  V30 505 H 46.8221 -0.324801 -4.15934 0
M  V30 506 H 45.4521 0.312845 -3.2128 0
M  V30 507 H 44.5041 -2.10669 -3.16738 0
M  V30 508 H 45.8161 -2.57704 -4.27071 0
M  V30 509 H 44.9701 -0.966173 -5.98957 0
M  V30 510 H 43.7091 -0.394272 -4.86104 0
M  V30 511 H 42.7141 -2.69805 -4.79046 0
M  V30 512 H 43.9391 -3.26728 -5.95336 0
M  V30 513 H 41.8851 -1.08352 -6.4699 0
M  V30 514 H 41.8021 -2.71217 -7.05675 0
M  V30 515 H 43.0701 -1.66252 -7.61564 0
M  V30 516 N 47.2992 1.18797 -1.03562 0
M  V30 517 C 48.2462 2.22253 -0.622259 0
M  V30 518 C 49.2162 1.61987 0.36736 0
M  V30 519 O 50.4012 1.88986 0.262492 0
M  V30 520 C 47.5412 3.45097 0.0138462 0
M  V30 521 C 46.6542 4.19722 -1.02263 0
M  V30 522 C 45.7892 5.30009 -0.355573 0
M  V30 523 C 44.8282 5.96399 -1.37749 0
M  V30 524 N 43.9652 6.98234 -0.735766 0
M  V30 525 H 48.8052 2.56968 -1.50903 0
M  V30 526 H 46.3422 1.26245 -0.755017 0
M  V30 527 H 48.3002 4.15279 0.399948 0
M  V30 528 H 46.9302 3.11018 0.864158 0
M  V30 529 H 45.9822 3.48418 -1.52673 0
M  V30 530 H 47.2942 4.65227 -1.79903 0
M  V30 531 H 46.4482 6.0664 0.0850095 0
M  V30 532 H 45.1872 4.85592 0.452967 0
M  V30 533 H 44.1922 5.18512 -1.82826 0
M  V30 534 H 45.4172 6.42899 -2.18764 0
M  V30 535 H 43.3632 6.55979 0.0525597 0
M  V30 536 H 43.2802 7.41965 -1.44995 0
M  V30 537 H 44.5482 7.78845 -0.31941 0
M  V30 538 N 48.7773 0.814389 1.34928 0
M  V30 539 C 50.0073 0.41054 2.0248 0
M  V30 540 C 50.4153 -0.985625 1.61499 0
M  V30 541 O 49.7583 -1.64781 0.811976 0
M  V30 542 C 49.8203 0.423384 3.56998 0
M  V30 543 C 49.4843 1.77141 4.21272 0
M  V30 544 C 50.4813 2.73093 4.42398 0
M  V30 545 C 48.1663 2.05755 4.58225 0
M  V30 546 C 50.1603 3.95838 4.9959 0
M  V30 547 C 47.8473 3.28762 5.1513 0
M  V30 548 C 48.8453 4.23621 5.35755 0
M  V30 549 O 48.5333 5.44456 5.91458 0
M  V30 550 H 48.2653 0.163997 0.655806 0
M  V30 551 H 50.8193 1.10155 1.73364 0
M  V30 552 H 49.0493 -0.324276 3.85338 0
M  V30 553 H 50.7383 0.0407683 4.0588 0
M  V30 554 H 51.5043 2.5228 4.14222 0
M  V30 555 H 47.3833 1.32727 4.4148 0
M  V30 556 H 50.9273 4.69891 5.15605 0
M  V30 557 H 46.8243 3.49443 5.42734 0
M  V30 558 H 47.5923 5.4586 6.09901 0
M  V30 559 N 50.2554 -1.46986 0.568584 0
M  V30 560 C 51.2034 -2.31858 -0.185649 0
M  V30 561 C 52.1974 -1.43624 -0.898249 0
M  V30 562 O 53.4034 -1.60327 -0.818242 0
M  V30 563 H 49.7784 -0.747866 -0.0787399 0
M  V30 564 H 51.7494 -2.93303 0.549191 0
M  V30 565 C 50.4984 -3.26513 -1.19519 0
M  V30 566 H 49.8214 -3.94377 -0.656285 0
M  V30 567 H 51.2614 -3.88707 -1.6936 0
M  V30 568 C 49.7204 -2.50847 -2.24894 0
M  V30 569 O 50.2504 -2.26119 -3.32014 0
M  V30 570 N 48.4564 -2.11656 -1.99124 0
M  V30 571 H 48.0034 -2.31966 -1.12024 0
M  V30 572 H 47.9614 -1.61347 -2.69842 0
M  V30 573 N 51.7335 -0.305618 -1.54608 0
M  V30 574 C 52.6965 0.555591 -2.22364 0
M  V30 575 C 53.6965 1.05768 -1.21119 0
M  V30 576 O 54.8865 0.952972 -1.45822 0
M  V30 577 C 52.0185 1.76974 -2.91364 0
M  V30 578 H 53.2115 -0.0364572 -2.99878 0
M  V30 579 H 50.7645 -0.0565007 -1.56198 0
M  V30 580 H 51.4995 2.40151 -2.17941 0
M  V30 581 H 51.2845 1.41732 -3.65588 0
M  V30 582 H 52.7745 2.38148 -3.43038 0
M  V30 583 N 53.2116 1.57565 -0.0334293 0
M  V30 584 C 54.1616 2.06978 0.956237 0
M  V30 585 C 55.1456 0.971193 1.28283 0
M  V30 586 O 56.3376 1.23471 1.26822 0
M  V30 587 C 53.4666 2.60393 2.23719 0
M  V30 588 C 52.5526 3.7719 1.93877 0
M  V30 589 N 52.9436 4.87639 1.34321 0
M  V30 590 C 51.2416 3.85758 2.23845 0
M  V30 591 C 51.9426 5.68825 1.21709 0
M  V30 592 N 50.9186 5.1587 1.71404 0
M  V30 593 H 54.7206 2.89773 0.490815 0
M  V30 594 H 52.2346 1.61492 0.171478 0
M  V30 595 H 54.2316 2.94088 2.95496 0
M  V30 596 H 52.8916 1.79031 2.70884 0
M  V30 597 H 53.9026 5.07803 1.01767 0
M  V30 598 H 50.5796 3.1531 2.73653 0
M  V30 599 H 51.9696 6.67631 0.75621 0
M  V30 600 N 54.6897 -0.239769 1.55765 0
M  V30 601 C 55.9387 -0.964754 1.77131 0
M  V30 602 C 56.2517 -1.86213 0.59868 0
M  V30 603 O 57.4577 -2.6244 0.695522 0
M  V30 604 C 55.9137 -1.76552 3.1362 0
M  V30 605 C 55.5217 -0.915185 4.38553 0
M  V30 606 C 57.2657 -2.48281 3.44321 0
M  V30 607 C 55.1727 -1.71225 5.66071 0
M  V30 608 H 54.1027 -0.363953 0.660344 0
M  V30 609 H 56.7537 -0.219181 1.82186 0
M  V30 610 H 55.1357 -2.55331 3.02691 0
M  V30 611 H 56.3097 -0.169217 4.60489 0
M  V30 612 H 54.6247 -0.310889 4.15238 0
M  V30 613 H 57.2217 -3.08382 4.36812 0
M  V30 614 H 57.5647 -3.20256 2.65973 0
M  V30 615 H 58.0977 -1.76507 3.56497 0
M  V30 616 H 54.8367 -1.03612 6.4726 0
M  V30 617 H 54.3567 -2.43331 5.48224 0
M  V30 618 H 56.0357 -2.27758 6.05587 0
M  V30 619 N 56.1678 -1.49265 -0.50573 0
M  V30 620 C 57.4158 -1.582 -1.25766 0
M  V30 621 C 57.7368 -0.268482 -1.93143 0
M  V30 622 O 57.0068 0.711833 -1.8251 0
M  V30 623 H 55.5868 -0.582873 -0.467191 0
M  V30 624 H 58.2488 -1.85865 -0.586525 0
M  V30 625 H 57.3448 -2.37563 -2.02412 0
M  V30 626 N 57.6459 0.756429 -1.3826 0
M  V30 627 C 58.8919 1.51772 -1.34511 0
M  V30 628 C 59.2249 1.94089 0.0656691 0
M  V30 629 O 58.4999 1.65221 1.02626 0
M  V30 630 C 58.7829 2.77226 -2.29821 0
M  V30 631 C 58.6359 2.41065 -3.79747 0
M  V30 632 C 59.9549 3.79236 -2.23312 0
M  V30 633 H 57.0739 0.550578 -0.489931 0
M  V30 634 H 59.7159 0.866607 -1.69086 0
M  V30 635 H 57.8659 3.32784 -2.00467 0
M  V30 636 H 59.5379 1.91303 -4.19763 0
M  V30 637 H 57.7809 1.7356 -3.97567 0
M  V30 638 H 58.4519 3.3081 -4.41892 0
M  V30 639 H 60.9279 3.3321 -2.49219 0
M  V30 640 H 59.8039 4.64714 -2.92116 0
M  V30 641 H 60.0649 4.24615 -1.23102 0
M  V30 642 N 59.124 1.23083 0.984299 0
M  V30 643 C 60.354 1.08556 1.75781 0
M  V30 644 C 60.762 -0.366171 1.85623 0
M  V30 645 O 60.105 -1.26524 1.33182 0
M  V30 646 C 60.167 1.63208 3.20318 0
M  V30 647 C 59.831 3.11922 3.33997 0
M  V30 648 C 60.828 4.09259 3.2063 0
M  V30 649 C 58.513 3.51552 3.58771 0
M  V30 650 C 60.507 5.4421 3.31835 0
M  V30 651 C 58.194 4.86649 3.69616 0
M  V30 652 C 59.192 5.82787 3.56157 0
M  V30 653 O 58.88 7.15431 3.66626 0
M  V30 654 H 58.612 0.380713 0.5586 0
M  V30 655 H 61.166 1.63321 1.2456 0
M  V30 656 H 59.396 1.0286 3.72769 0
M  V30 657 H 61.085 1.44216 3.79416 0
M  V30 658 H 61.851 3.79984 3.01392 0
M  V30 659 H 57.73 2.77239 3.6832 0
M  V30 660 H 61.274 6.1923 3.21247 0
M  V30 661 H 57.171 5.15601 3.88363 0
M  V30 662 H 57.939 7.23127 3.83445 0
M  V30 663 N 60.6021 -1.18246 1.0419 0
M  V30 664 C 61.5651 -2.20128 0.638452 0
M  V30 665 C 62.5651 -1.57885 -0.304805 0
M  V30 666 O 63.7551 -1.73967 -0.0900369 0
M  V30 667 C 60.8871 -3.4084 -0.0637751 0
M  V30 668 H 62.0801 -2.57336 1.54007 0
M  V30 669 H 59.6331 -1.32152 0.834598 0
M  V30 670 H 60.3681 -3.09166 -0.979136 0
M  V30 671 H 60.1531 -3.8726 0.614198 0
M  V30 672 H 61.6431 -4.16274 -0.332512 0
M  V30 673 N 62.0802 -0.821533 -1.34494 0
M  V30 674 C 63.0102 -0.257138 -2.3208 0
M  V30 675 C 63.9912 0.625645 -1.58176 0
M  V30 676 O 65.1762 0.552811 -1.86166 0
M  V30 677 C 62.3062 0.582958 -3.42372 0
M  V30 678 C 61.2602 -0.202571 -4.2752 0
M  V30 679 C 60.5862 0.760179 -5.29269 0
M  V30 680 C 61.8862 -1.40998 -5.02908 0
M  V30 681 H 63.5802 -1.07247 -2.79532 0
M  V30 682 H 61.1262 -0.517163 -1.34393 0
M  V30 683 H 63.0792 0.987972 -4.09655 0
M  V30 684 H 61.8032 1.43133 -2.93565 0
M  V30 685 H 60.4622 -0.588936 -3.61838 0
M  V30 686 H 60.1102 1.60447 -4.76724 0
M  V30 687 H 59.8102 0.238809 -5.87115 0
M  V30 688 H 61.3342 1.16308 -5.9942 0
M  V30 689 H 62.7482 -1.07905 -5.63054 0
M  V30 690 H 61.1452 -1.86689 -5.70322 0
M  V30 691 H 62.2152 -2.1889 -4.32684 0
M  V30 692 N 63.5583 1.46682 -0.576371 0
M  V30 693 C 64.8353 1.95599 0.00703437 0
M  V30 694 C 65.2153 1.51904 1.46589 0
M  V30 695 O 64.5633 0.766755 2.15251 0
M  V30 696 C 64.7733 3.4864 -0.158404 0
M  V30 697 C 66.1213 4.24594 -0.0229439 0
M  V30 698 O 67.1453 3.56094 -0.0869173 0
M  V30 699 O 66.0043 5.46373 0.118015 0
M  V30 700 H 63.0983 0.825275 0.053384 0
M  V30 701 H 65.6443 1.56996 -0.644244 0
M  V30 702 H 64.4163 3.7331 -1.17282 0
M  V30 703 H 64.0393 3.94057 0.5296 0
M  V30 704 N 65.0364 0.313813 1.54444 0
M  V30 705 C 66.2644 -0.293918 2.04802 0
M  V30 706 C 66.6794 -1.46537 1.19047 0
M  V30 707 O 66.0364 -1.81182 0.218939 0
M  V30 708 C 66.0874 -0.737806 3.53891 0
M  V30 709 O 65.8084 0.387038 4.36387 0
M  V30 710 C 67.3094 -1.40936 4.203 0
M  V30 711 H 64.5294 -0.0620057 0.668129 0
M  V30 712 H 67.0734 0.457169 1.99324 0
M  V30 713 H 65.2284 -1.43889 3.59687 0
M  V30 714 H 65.6424 0.0391274 5.24485 0
M  V30 715 H 67.1164 -1.67099 5.26101 0
M  V30 716 H 67.5934 -2.35355 3.70816 0
M  V30 717 H 68.1994 -0.751117 4.18615 0
M  V30 718 N 66.5145 -1.57545 0.0417849 0
M  V30 719 C 67.4615 -2.10977 -0.935805 0
M  V30 720 C 68.4315 -1.01486 -1.31491 0
M  V30 721 O 69.6165 -1.2898 -1.40602 0
M  V30 722 C 66.7565 -2.65169 -2.2086 0
M  V30 723 C 65.8695 -3.88714 -1.88482 0
M  V30 724 C 65.0045 -4.31254 -3.1015 0
M  V30 725 C 64.0435 -5.47524 -2.7365 0
M  V30 726 N 63.1805 -5.85162 -3.87982 0
M  V30 727 H 68.0205 -2.94218 -0.473249 0
M  V30 728 H 65.5575 -1.45415 -0.221981 0
M  V30 729 H 67.5155 -2.94685 -2.95325 0
M  V30 730 H 66.1455 -1.8474 -2.64709 0
M  V30 731 H 65.1975 -3.65849 -1.04205 0
M  V30 732 H 66.5095 -4.73245 -1.57608 0
M  V30 733 H 65.6635 -4.62273 -3.92923 0
M  V30 734 H 64.4025 -3.45516 -3.44195 0
M  V30 735 H 63.4075 -5.16187 -1.89291 0
M  V30 736 H 64.6325 -6.34971 -2.40807 0
M  V30 737 H 62.5785 -5.02377 -4.21846 0
M  V30 738 H 62.4955 -6.64362 -3.60775 0
M  V30 739 H 63.7635 -6.20791 -4.71422 0
M  V30 740 N 67.9926 0.231505 -1.5589 0
M  V30 741 C 69.2176 0.978689 -1.82856 0
M  V30 742 C 69.6426 1.77559 -0.620846 0
M  V30 743 O 69.0006 1.76119 0.430305 0
M  V30 744 C 69.0486 1.87997 -3.07716 0
M  V30 745 O 68.1526 2.97393 -2.85712 0
M  V30 746 H 67.4936 0.277663 -0.603158 0
M  V30 747 H 70.0236 0.24783 -2.03093 0
M  V30 748 H 70.0336 2.2917 -3.37558 0
M  V30 749 H 68.7086 1.29417 -3.95252 0
M  V30 750 H 67.2856 2.60238 -2.67078 0
M  V30 751 N 69.4707 1.49531 0.497807 0
M  V30 752 C 70.7187 1.58865 1.24926 0
M  V30 753 C 71.0397 0.278721 1.92998 0
M  V30 754 O 70.3097 -0.702144 1.82885 0
M  V30 755 H 68.8897 0.585343 0.464094 0
M  V30 756 H 71.5517 1.86174 0.57666 0
M  V30 757 H 70.6477 2.38633 2.01149 0
M  V30 758 N 70.9488 -0.749086 1.3866 0
M  V30 759 C 71.8958 -1.86291 1.36251 0
M  V30 760 C 72.8658 -1.64578 0.224347 0
M  V30 761 O 74.0508 -1.86181 0.417279 0
M  V30 762 C 71.1908 -3.23644 1.19786 0
M  V30 763 C 70.3038 -3.57158 2.43027 0
M  V30 764 C 69.4388 -4.83838 2.19258 0
M  V30 765 C 68.4778 -5.10152 3.38247 0
M  V30 766 N 67.6148 -6.28029 3.13884 0
M  V30 767 H 72.4548 -1.87685 2.3147 0
M  V30 768 H 69.9918 -0.917287 1.14997 0
M  V30 769 H 71.9498 -4.0291 1.08254 0
M  V30 770 H 70.5798 -3.21566 0.282031 0
M  V30 771 H 69.6318 -2.72701 2.65214 0
M  V30 772 H 70.9438 -3.7253 3.31697 0
M  V30 773 H 70.0978 -5.71057 2.04888 0
M  V30 774 H 68.8368 -4.70614 1.2796 0
M  V30 775 H 67.8418 -4.21401 3.53131 0
M  V30 776 H 69.0668 -5.25271 4.30427 0
M  V30 777 H 67.0128 -6.1612 2.25238 0
M  V30 778 H 66.9298 -6.43922 3.96106 0
M  V30 779 H 68.1978 -7.18124 3.03179 0
M  V30 780 N 72.4269 -1.23603 -0.977757 0
M  V30 781 C 73.3369 -1.03632 -2.1047 0
M  V30 782 C 74.3529 0.0199435 -1.73989 0
M  V30 783 O 75.5289 -0.176076 -2.00629 0
M  V30 784 C 72.5939 -0.63276 -3.40877 0
M  V30 785 C 71.6549 -1.76437 -3.91367 0
M  V30 786 C 70.8879 -1.37997 -5.15551 0
M  V30 787 O 71.1109 -0.265357 -5.69782 0
M  V30 788 O 70.0449 -2.20201 -5.60174 0
M  V30 789 H 73.8709 -1.98086 -2.30208 0
M  V30 790 H 71.4559 -1.02332 -1.08851 0
M  V30 791 H 73.3379 -0.418761 -4.19314 0
M  V30 792 H 72.0129 0.282754 -3.22463 0
M  V30 793 H 70.9199 -2.03304 -3.14036 0
M  V30 794 H 72.2529 -2.6583 -4.14241 0
M  V30 795 N 73.905 1.17692 -1.04816 0
M  V30 796 C 75.151 1.88137 -0.75711 0
M  V30 797 C 75.484 1.80604 0.713841 0
M  V30 798 O 74.759 1.21146 1.52164 0
M  V30 799 C 75.042 3.38318 -1.2334 0
M  V30 800 C 74.895 3.54622 -2.76701 0
M  V30 801 C 76.214 4.32214 -0.829415 0
M  V30 802 H 73.333 0.683163 -0.27651 0
M  V30 803 H 75.975 1.38424 -1.30149 0
M  V30 804 H 74.125 3.80787 -0.770286 0
M  V30 805 H 75.797 3.21194 -3.31107 0
M  V30 806 H 74.04 2.97026 -3.16161 0
M  V30 807 H 74.711 4.60028 -3.05088 0
M  V30 808 H 77.187 3.97565 -1.22805 0
M  V30 809 H 76.063 5.35838 -1.19033 0
M  V30 810 H 76.324 4.41294 0.266891 0
M  V30 811 N 75.3831 0.828654 1.34056 0
M  V30 812 C 76.3301 0.252567 2.29414 0
M  V30 813 C 77.3001 -0.62588 1.53857 0
M  V30 814 O 78.4851 -0.566312 1.82202 0
M  V30 815 C 75.6251 -0.574831 3.40279 0
M  V30 816 C 74.7381 0.326499 4.30764 0
M  V30 817 C 73.8731 -0.511016 5.28736 0
M  V30 818 C 72.9121 0.389342 6.1086 0
M  V30 819 N 72.0491 -0.409439 7.00905 0
M  V30 820 H 76.8891 1.07108 2.78086 0
M  V30 821 H 74.4261 0.539677 1.36843 0
M  V30 822 H 76.3841 -1.06992 4.03248 0
M  V30 823 H 75.0141 -1.35841 2.92826 0
M  V30 824 H 74.0661 0.939837 3.68607 0
M  V30 825 H 75.3781 1.01857 4.88289 0
M  V30 826 H 74.5321 -1.07035 5.97184 0
M  V30 827 H 73.2711 -1.23657 4.71763 0
M  V30 828 H 72.2761 0.960769 5.4134 0
M  V30 829 H 73.5011 1.1131 6.69916 0
M  V30 830 H 71.4471 -1.11856 6.46393 0
M  V30 831 H 71.3641 0.224126 7.55668 0
M  V30 832 H 72.6321 -0.951336 7.73673 0
M  V30 833 N 76.8612 -1.46375 0.584142 0
M  V30 834 C 78.1082 -2.02378 0.0702675 0
M  V30 835 C 78.4362 -1.45545 -1.29023 0
M  V30 836 O 77.6912 -0.610967 -1.85918 0
M  V30 837 C 77.9902 -3.57373 -0.0439342 0
M  V30 838 C 77.6562 -4.33252 1.24915 0
M  V30 839 C 76.3182 -4.53701 1.60341 0
M  V30 840 C 78.6702 -4.7681 2.1048 0
M  V30 841 C 75.9982 -5.1496 2.81128 0
M  V30 842 C 78.3502 -5.39404 3.30494 0
M  V30 843 C 77.0142 -5.5808 3.66201 0
M  V30 844 H 76.2842 -0.740554 0.0257127 0
M  V30 845 H 78.9312 -1.75727 0.761065 0
M  V30 846 H 77.2362 -3.83169 -0.817869 0
M  V30 847 H 78.9332 -3.98384 -0.457318 0
M  V30 848 H 75.5232 -4.17633 0.963364 0
M  V30 849 H 79.7072 -4.60766 1.84414 0
M  V30 850 H 74.9632 -5.27611 3.08928 0
M  V30 851 H 79.1372 -5.72114 3.97063 0
M  V30 852 H 76.7642 -6.05318 4.59885 0
M  V30 853 N 78.3393 -0.321999 -1.54275 0
M  V30 854 C 79.2873 0.560206 -2.25753 0
M  V30 855 C 80.2813 1.11984 -1.27106 0
M  V30 856 O 81.4873 1.06806 -1.44888 0
M  V30 857 H 77.8623 0.199304 -0.725108 0
M  V30 858 H 79.8333 -0.0649365 -2.98329 0
M  V30 859 C 78.5823 1.71023 -3.02731 0
M  V30 860 H 77.9053 1.28885 -3.78456 0
M  V30 861 H 79.3453 2.30314 -3.55993 0
M  V30 862 C 77.8043 2.62692 -2.10938 0
M  V30 863 O 78.3343 3.64364 -1.6912 0
M  V30 864 N 76.5403 2.30891 -1.76459 0
M  V30 865 H 76.0873 1.48253 -2.10663 0
M  V30 866 H 76.0453 2.92487 -1.1532 0
M  V30 867 N 79.8174 1.5752 -0.0501392 0
M  V30 868 C 81.0424 1.97376 0.636997 0
M  V30 869 C 81.4674 0.927466 1.63645 0
M  V30 870 O 80.8254 -0.10941 1.8097 0
M  V30 871 C 80.8734 3.36304 1.30123 0
M  V30 872 O 79.9774 3.34156 2.41689 0
M  V30 873 H 79.3184 0.642998 0.165679 0
M  V30 874 H 81.8484 2.04258 -0.118233 0
M  V30 875 H 81.8584 3.73008 1.65315 0
M  V30 876 H 80.5334 4.11993 0.568746 0
M  V30 877 H 79.1104 3.09196 2.08451 0
M  V30 878 N 81.2955 -0.223234 1.56011 0
M  V30 879 C 82.5725 -0.972108 1.69733 0
M  V30 880 C 82.9525 -2.02485 0.59691 0
M  V30 881 O 82.3005 -2.25037 -0.396324 0
M  V30 882 C 82.5105 -1.58407 3.10979 0
M  V30 883 C 83.8585 -2.07696 3.70334 0
M  V30 884 O 84.8825 -1.68304 3.1393 0
M  V30 885 O 83.7415 -2.80096 4.69264 0
M  V30 886 H 80.8355 -0.453993 0.691245 0
M  V30 887 H 83.3815 -0.215149 1.68331 0
M  V30 888 H 82.1535 -0.823831 3.82529 0
M  V30 889 H 81.7765 -2.40661 3.16493 0
M  V30 890 N 82.7736 -1.49793 -0.48987 0
M  V30 891 C 83.7206 -1.67281 -1.59014 0
M  V30 892 C 84.6906 -0.514177 -1.57941 0
M  V30 893 O 85.8756 -0.742533 -1.75759 0
M  V30 894 C 83.0156 -1.75569 -2.97102 0
M  V30 895 C 82.1286 -3.0281 -3.08107 0
M  V30 896 C 81.2636 -3.02008 -4.36995 0
M  V30 897 C 80.3026 -4.23782 -4.41673 0
M  V30 898 N 79.4396 -4.20826 -5.62005 0
M  V30 899 H 84.2796 -2.61224 -1.43409 0
M  V30 900 H 81.8166 -1.29508 -0.697565 0
M  V30 901 H 83.7746 -1.78354 -3.77155 0
M  V30 902 H 82.4046 -0.850827 -3.11385 0
M  V30 903 H 81.4566 -3.09584 -2.21047 0
M  V30 904 H 82.7686 -3.92801 -3.07423 0
M  V30 905 H 81.9226 -3.03418 -5.25378 0
M  V30 906 H 80.6616 -2.09815 -4.4026 0
M  V30 907 H 79.6666 -4.22604 -3.5169 0
M  V30 908 H 80.8916 -5.17181 -4.40115 0
M  V30 909 H 78.8376 -3.31476 -5.66091 0
M  V30 910 H 78.7546 -5.04564 -5.62984 0
M  V30 911 H 80.0226 -4.26355 -6.52565 0
M  V30 912 N 84.2517 0.741722 -1.39055 0
M  V30 913 C 85.6677 1.04638 -1.20512 0
M  V30 914 C 85.8677 2.01405 -0.0620218 0
M  V30 915 O 84.9237 2.45547 0.588457 0
M  V30 916 C 86.2367 1.6151 -2.53643 0
M  V30 917 C 87.7847 1.73623 -2.6043 0
M  V30 918 C 88.2597 2.33906 -3.93767 0
M  V30 919 N 89.7507 2.41323 -3.9537 0
M  V30 920 C 90.4857 2.88888 -4.95309 0
M  V30 921 N 89.9817 3.36401 -6.05645 0
M  V30 922 N 91.7747 2.88037 -4.82692 0
M  V30 923 H 83.9257 0.0998155 -2.12165 0
M  V30 924 H 86.1887 0.106907 -0.941953 0
M  V30 925 H 85.8947 0.978739 -3.37807 0
M  V30 926 H 85.7687 2.60411 -2.72885 0
M  V30 927 H 88.1557 2.36384 -1.76655 0
M  V30 928 H 88.2367 0.733945 -2.45045 0
M  V30 929 H 87.8807 1.71776 -4.7797 0
M  V30 930 H 87.8107 3.34799 -4.06469 0
M  V30 931 H 90.3017 2.07734 -3.15682 0
M  V30 932 H 90.6147 3.71186 -6.77821 0
M  V30 933 H 88.9597 3.34427 -6.09248 0
M  V30 934 H 92.1507 2.50237 -3.95599 0
M  V30 935 H 92.3237 3.24792 -5.60726 0
M  V30 936 N 85.7298 1.2412 0.971189 0
M  V30 937 C 86.9768 1.07881 1.71371 0
M  V30 938 C 87.3048 -0.382901 1.90694 0
M  V30 939 O 86.5598 -1.29945 1.46331 0
M  V30 940 C 86.8588 1.75983 3.11071 0
M  V30 941 C 86.5248 3.25909 3.11599 0
M  V30 942 C 85.1868 3.66813 3.11451 0
M  V30 943 C 87.5388 4.21771 3.062 0
M  V30 944 C 84.8668 5.02021 3.03631 0
M  V30 945 C 87.2188 5.56982 2.99923 0
M  V30 946 C 85.8828 5.97237 2.98102 0
M  V30 947 H 85.1528 0.394764 0.62709 0
M  V30 948 H 87.7998 1.54176 1.13587 0
M  V30 949 H 86.1048 1.22072 3.72298 0
M  V30 950 H 87.8018 1.60887 3.6731 0
M  V30 951 H 84.3918 2.93353 3.12477 0
M  V30 952 H 88.5758 3.91172 3.05447 0
M  V30 953 H 83.8318 5.32411 3.0058 0
M  V30 954 H 88.0058 6.30969 2.94704 0
M  V30 955 H 85.6328 7.01967 2.91798 0
M  V30 956 N 87.2079 -1.17134 1.05439 0
M  V30 957 C 88.1709 -2.19439 0.661764 0
M  V30 958 C 89.1709 -1.58199 -0.288042 0
M  V30 959 O 90.3609 -1.74053 -0.0715803 0
M  V30 960 C 87.4929 -3.40889 -0.0276209 0
M  V30 961 H 88.6859 -2.55688 1.56728 0
M  V30 962 H 86.2389 -1.31259 0.848567 0
M  V30 963 H 86.9739 -3.10187 -0.94629 0
M  V30 964 H 86.7589 -3.86586 0.655238 0
M  V30 965 H 88.2489 -4.16603 -0.288342 0
M  V30 966 N 88.686 -0.835752 -1.33615 0
M  V30 967 C 89.916 -0.442701 -2.01801 0
M  V30 968 C 90.324 0.959807 -1.63047 0
M  V30 969 O 89.667 1.63468 -0.838088 0
M  V30 970 C 89.729 -0.480125 -3.56279 0
M  V30 971 C 89.393 -1.8382 -4.18401 0
M  V30 972 C 90.39 -2.80097 -4.37998 0
M  V30 973 C 88.075 -2.13019 -4.54894 0
M  V30 974 C 90.069 -4.03736 -4.9323 0
M  V30 975 C 87.756 -3.36916 -5.09834 0
M  V30 976 C 88.754 -4.32091 -5.28948 0
M  V30 977 O 88.442 -5.53797 -5.82721 0
M  V30 978 H 88.174 -0.17441 -0.653114 0
M  V30 979 H 90.728 -1.129 -1.71589 0
M  V30 980 H 88.958 0.262931 -3.85805 0
M  V30 981 H 90.647 -0.105335 -4.05763 0
M  V30 982 H 91.413 -2.58838 -4.10156 0
M  V30 983 H 87.292 -1.39733 -4.39313 0
M  V30 984 H 90.836 -4.78034 -5.08064 0
M  V30 985 H 86.733 -3.58033 -5.37106 0
M  V30 986 H 87.501 -5.55494 -6.0114 0
M  V30 987 N 90.1641 1.46063 -0.591896 0
M  V30 988 C 91.1271 2.28854 0.125973 0
M  V30 989 C 92.1271 1.38903 0.810107 0
M  V30 990 O 93.3171 1.61186 0.66066 0
M  V30 991 C 90.4491 3.19526 1.1881 0
M  V30 992 H 91.6421 2.93802 -0.601717 0
M  V30 993 H 89.1951 1.52325 -0.350254 0
M  V30 994 H 89.9301 2.59345 1.94707 0
M  V30 995 H 89.7151 3.85766 0.701936 0
M  V30 996 H 91.2051 3.81817 1.69132 0
M  V30 997 N 91.6422 0.330177 1.54103 0
M  V30 998 C 92.8672 -0.274893 2.0557 0
M  V30 999 C 93.2922 -1.44487 1.20437 0
M  V30 1000 O 92.6502 -1.80021 0.214991 0
M  V30 1001 C 92.6982 -0.68079 3.54115 0
M  V30 1002 O 91.8022 -1.7824 3.71893 0
M  V30 1003 H 91.1432 -0.0483849 0.662235 0
M  V30 1004 H 93.6732 0.480508 1.98878 0
M  V30 1005 H 93.6832 -0.961635 3.96505 0
M  V30 1006 H 92.3582 0.174903 4.15532 0
M  V30 1007 H 90.9352 -1.49985 3.41407 0
M  V30 1008 N 93.1203 -1.57491 0.0584922 0
M  V30 1009 C 94.3483 -1.97296 -0.623037 0
M  V30 1010 C 94.7633 -0.936338 -1.63946 0
M  V30 1011 O 94.1203 0.0785981 -1.82331 0
M  V30 1012 C 94.1713 -3.37183 -1.30345 0
M  V30 1013 O 93.8923 -4.36872 -0.32773 0
M  V30 1014 C 95.3933 -3.91788 -2.07406 0
M  V30 1015 H 92.6133 -0.649153 -0.169826 0
M  V30 1016 H 95.1573 -2.04106 0.12696 0
M  V30 1017 H 93.3123 -3.31502 -2.00463 0
M  V30 1018 H 93.7263 -5.18141 -0.814269 0
M  V30 1019 H 95.2003 -4.91926 -2.50425 0
M  V30 1020 H 95.6773 -3.27609 -2.92521 0
M  V30 1021 H 96.2833 -4.00829 -1.42184 0
M  V30 1022 N 94.5984 0.214957 -1.56127 0
M  V30 1023 C 95.8234 0.95924 -1.83884 0
M  V30 1024 C 96.2484 1.7689 -0.639644 0
M  V30 1025 O 95.6064 1.76566 0.411601 0
M  V30 1026 C 95.6544 1.84723 -3.09693 0
M  V30 1027 O 94.7584 2.94346 -2.8885 0
M  V30 1028 H 94.0994 0.27125 -0.606069 0
M  V30 1029 H 96.6294 0.226276 -2.03345 0
M  V30 1030 H 96.6394 2.25576 -3.39969 0
M  V30 1031 H 95.3144 1.25218 -3.96602 0
M  V30 1032 H 93.8914 2.57391 -2.69823 0
M  V30 1033 N 96.0765 1.50051 0.48192 0
M  V30 1034 C 97.0235 1.68122 1.58125 0
M  V30 1035 C 97.9935 0.522545 1.57666 0
M  V30 1036 O 99.1785 0.751844 1.75362 0
M  V30 1037 C 96.3185 1.77142 2.96167 0
M  V30 1038 C 95.4315 3.0444 3.06497 0
M  V30 1039 C 94.5665 3.04321 4.35387 0
M  V30 1040 C 93.6055 4.26118 4.3942 0
M  V30 1041 N 92.7425 4.238 5.59766 0
M  V30 1042 H 97.5825 2.6198 1.42022 0
M  V30 1043 H 95.1195 1.29877 0.690687 0
M  V30 1044 H 97.0775 1.80352 3.76203 0
M  V30 1045 H 95.7075 0.867329 3.1093 0
M  V30 1046 H 94.7595 3.10752 2.19402 0
M  V30 1047 H 96.0715 3.94426 3.05336 0
M  V30 1048 H 95.2255 3.062 5.23762 0
M  V30 1049 H 93.9645 2.12147 4.39141 0
M  V30 1050 H 92.9695 4.24463 3.49444 0
M  V30 1051 H 94.1945 5.19507 4.37366 0
M  V30 1052 H 92.1405 3.34474 5.64326 0
M  V30 1053 H 92.0575 5.07542 5.60301 0
M  V30 1054 H 93.3255 4.2981 6.50295 0
M  V30 1055 N 97.5546 -0.734337 1.39446 0
M  V30 1056 C 98.5176 -1.83004 1.37994 0
M  V30 1057 C 99.5176 -1.58397 0.276938 0
M  V30 1058 O 100.708 -1.65785 0.534875 0
M  V30 1059 C 97.8396 -3.20802 1.1532 0
M  V30 1060 H 99.0326 -1.85694 2.35494 0
M  V30 1061 H 96.5856 -0.938059 1.25021 0
M  V30 1062 H 97.3206 -3.23772 0.185036 0
M  V30 1063 H 97.1056 -3.4006 1.95197 0
M  V30 1064 H 98.5956 -4.00862 1.17046 0
M  V30 1065 N 99.0327 -1.24633 -0.964593 0
M  V30 1066 C 100.282 -1.08188 -1.7023 0
M  V30 1067 C 100.595 0.37873 -1.91898 0
M  V30 1068 O 101.801 0.663427 -2.6327 0
M  V30 1069 C 100.257 -1.88773 -3.06419 0
M  V30 1070 C 99.8647 -3.39263 -2.92582 0
M  V30 1071 C 101.609 -1.80867 -3.84041 0
M  V30 1072 C 99.5157 -4.1218 -4.24101 0
M  V30 1073 H 98.4457 -0.401245 -0.638372 0
M  V30 1074 H 101.097 -1.48742 -1.07462 0
M  V30 1075 H 99.4787 -1.41035 -3.70034 0
M  V30 1076 H 100.653 -3.94603 -2.37961 0
M  V30 1077 H 98.9677 -3.48154 -2.28424 0
M  V30 1078 H 101.565 -2.32646 -4.81435 0
M  V30 1079 H 101.908 -0.774543 -4.09031 0
M  V30 1080 H 102.441 -2.26301 -3.27159 0
M  V30 1081 H 99.1797 -5.15965 -4.04303 0
M  V30 1082 H 98.6997 -3.61626 -4.78526 0
M  V30 1083 H 100.379 -4.19349 -4.92702 0
M  V30 1084 N 100.511 1.16574 -1.06058 0
M  V30 1085 C 101.459 2.22941 -0.663343 0
M  V30 1086 C 102.453 1.66358 0.319593 0
M  V30 1087 O 103.659 1.7905 0.184713 0
M  V30 1088 H 100.034 0.725907 -0.196376 0
M  V30 1089 H 102.005 2.53736 -1.57037 0
M  V30 1090 C 100.754 3.47642 -0.0632808 0
M  V30 1091 H 100.077 3.91493 -0.810733 0
M  V30 1092 H 101.517 4.2363 0.177177 0
M  V30 1093 C 99.9758 3.1509 1.19248 0
M  V30 1094 O 100.506 3.30673 2.28075 0
M  V30 1095 N 98.7118 2.6924 1.09353 0
M  V30 1096 H 98.2588 2.5676 0.207912 0
M  V30 1097 H 98.2168 2.47833 1.93458 0
M  V30 1098 N 101.989 0.842826 1.3317 0
M  V30 1099 C 103.214 0.453129 2.02389 0
M  V30 1100 C 103.639 -0.939105 1.6298 0
M  V30 1101 O 102.997 -1.61472 0.8244 0
M  V30 1102 C 103.045 0.586094 3.55805 0
M  V30 1103 O 102.149 -0.386029 4.10589 0
M  V30 1104 H 101.49 0.183664 0.638094 0
M  V30 1105 H 104.02 1.13875 1.69981 0
M  V30 1106 H 104.03 0.469209 4.05293 0
M  V30 1107 H 102.705 1.6014 3.83833 0
M  V30 1108 H 101.282 -0.226371 3.72212 0
M  V30 1109 N 103.467 -1.45747 0.599634 0
M  V30 1110 C 104.43 -2.28917 -0.113835 0
M  V30 1111 C 105.43 -1.3933 -0.802729 0
M  V30 1112 O 106.62 -1.61534 -0.652103 0
M  V30 1113 C 103.752 -3.20152 -1.17114 0
M  V30 1114 H 104.945 -2.93478 0.617289 0
M  V30 1115 H 102.498 -1.52137 0.358327 0
M  V30 1116 H 103.233 -2.60374 -1.93329 0
M  V30 1117 H 103.018 -3.86133 -0.681468 0
M  V30 1118 H 104.508 -3.82708 -1.67105 0
M  V30 1119 N 104.945 -0.338344 -1.53925 0
M  V30 1120 C 106.194 0.260732 -2.00008 0
M  V30 1121 C 106.507 1.52073 -1.23017 0
M  V30 1122 O 107.713 2.19672 -1.5955 0
M  V30 1123 C 106.169 0.51515 -3.56194 0
M  V30 1124 C 105.777 -0.728645 -4.42035 0
M  V30 1125 C 107.521 1.07337 -4.10706 0
M  V30 1126 C 105.428 -0.445315 -5.89721 0
M  V30 1127 H 104.358 0.101205 -0.747177 0
M  V30 1128 H 107.009 -0.452866 -1.77824 0
M  V30 1129 H 105.391 1.28932 -3.74423 0
M  V30 1130 H 106.565 -1.50352 -4.35581 0
M  V30 1131 H 104.88 -1.20813 -3.98489 0
M  V30 1132 H 107.477 1.30022 -5.18651 0
M  V30 1133 H 107.82 2.0273 -3.63602 0
M  V30 1134 H 108.353 0.360034 -3.96167 0
M  V30 1135 H 105.092 -1.36883 -6.41049 0
M  V30 1136 H 104.612 0.291569 -5.99091 0
M  V30 1137 H 106.291 -0.0606218 -6.46972 0
M  V30 1138 N 106.423 1.57458 -0.0668435 0
M  V30 1139 C 107.353 2.15468 0.899764 0
M  V30 1140 C 108.334 1.08042 1.31381 0
M  V30 1141 O 109.519 1.36054 1.38574 0
M  V30 1142 C 106.649 2.71232 2.16911 0
M  V30 1143 C 105.603 3.83781 1.89463 0
M  V30 1144 C 104.929 4.26127 3.22986 0
M  V30 1145 C 106.229 5.08238 1.20381 0
M  V30 1146 H 107.923 2.96488 0.416529 0
M  V30 1147 H 105.469 1.4262 0.198908 0
M  V30 1148 H 107.422 3.10458 2.84945 0
M  V30 1149 H 106.146 1.87426 2.67468 0
M  V30 1150 H 104.805 3.45051 1.23836 0
M  V30 1151 H 104.453 3.39249 3.71374 0
M  V30 1152 H 104.153 5.01993 3.05413 0
M  V30 1153 H 105.677 4.67966 3.92225 0
M  V30 1154 H 107.091 5.44811 1.78475 0
M  V30 1155 H 105.488 5.89349 1.13083 0
M  V30 1156 H 106.558 4.84558 0.182153 0
M  V30 1157 N 107.901 -0.206675 1.56239 0
M  V30 1158 C 108.831 -1.25909 1.96645 0
M  V30 1159 C 109.812 -1.48097 0.836734 0
M  V30 1160 O 110.997 -1.6003 1.10019 0
M  V30 1161 C 108.127 -2.6058 2.29599 0
M  V30 1162 C 107.081 -2.53024 3.452 0
M  V30 1163 C 106.407 -3.91861 3.63798 0
M  V30 1164 C 107.707 -2.06524 4.79734 0
M  V30 1165 H 109.401 -0.923369 2.84806 0
M  V30 1166 H 106.947 -0.442735 1.37025 0
M  V30 1167 H 108.9 -3.34375 2.56459 0
M  V30 1168 H 107.624 -2.95869 1.38307 0
M  V30 1169 H 106.283 -1.81684 3.18412 0
M  V30 1170 H 105.931 -4.24483 2.69857 0
M  V30 1171 H 105.631 -3.87683 4.4156 0
M  V30 1172 H 107.155 -4.67296 3.93022 0
M  V30 1173 H 108.569 -2.70072 5.05702 0
M  V30 1174 H 106.966 -2.13374 5.60885 0
M  V30 1175 H 108.036 -1.01802 4.74093 0
M  V30 1176 N 109.379 -1.50304 -0.473955 0
M  V30 1177 C 110.289 -1.7174 -1.5982 0
M  V30 1178 C 111.305 -0.600457 -1.63311 0
M  V30 1179 O 112.481 -0.878441 -1.81233 0
M  V30 1180 C 109.546 -1.80427 -2.96052 0
M  V30 1181 C 108.607 -3.04148 -3.02972 0
M  V30 1182 C 107.84 -3.12411 -4.32706 0
M  V30 1183 O 108.063 -2.27542 -5.23049 0
M  V30 1184 O 106.997 -4.05113 -4.45159 0
M  V30 1185 H 110.823 -2.67035 -1.44657 0
M  V30 1186 H 108.408 -1.34366 -0.653148 0
M  V30 1187 H 110.29 -1.88338 -3.7697 0
M  V30 1188 H 108.965 -0.883156 -3.11419 0
M  V30 1189 H 107.872 -3.0174 -2.21142 0
M  V30 1190 H 109.205 -3.95829 -2.92541 0
M  V30 1191 N 110.857 0.726932 -1.39834 0
M  V30 1192 C 111.789 1.85147 -1.35104 0
M  V30 1193 C 112.802 1.60736 -0.258392 0
M  V30 1194 O 113.991 1.70821 -0.517931 0
M  V30 1195 C 111.091 3.21332 -1.07697 0
M  V30 1196 C 110.264 3.73033 -2.28396 0
M  V30 1197 C 109.323 4.87802 -1.97322 0
M  V30 1198 O 108.349 5.01043 -2.70083 0
M  V30 1199 N 109.551 5.72768 -0.944273 0
M  V30 1200 H 112.316 1.89706 -2.32017 0
M  V30 1201 H 109.877 0.908006 -1.3404 0
M  V30 1202 H 111.869 3.95691 -0.849144 0
M  V30 1203 H 110.439 3.11992 -0.194909 0
M  V30 1204 H 109.659 2.89934 -2.6708 0
M  V30 1205 H 110.947 4.0431 -3.08887 0
M  V30 1206 H 110.345 5.64669 -0.341427 0
M  V30 1207 H 108.902 6.4716 -0.776346 0
M  V30 1208 N 112.336 1.25143 0.95797 0
M  V30 1209 C 113.582 1.09855 1.70469 0
M  V30 1210 C 113.915 -0.360187 1.90831 0
M  V30 1211 O 113.19 -1.26568 1.47685 0
M  V30 1212 C 113.473 1.8497 3.08963 0
M  V30 1213 C 113.326 3.38652 2.96032 0
M  V30 1214 C 114.645 1.63016 4.08795 0
M  V30 1215 H 111.764 0.400465 0.618706 0
M  V30 1216 H 114.406 1.53933 1.11376 0
M  V30 1217 H 112.556 1.47505 3.59409 0
M  V30 1218 H 114.228 3.85772 2.52938 0
M  V30 1219 H 112.471 3.66534 2.32025 0
M  V30 1220 H 113.142 3.8642 3.94187 0
M  V30 1221 H 115.618 1.95625 3.67247 0
M  V30 1222 H 114.494 2.18015 5.03747 0
M  V30 1223 H 114.755 0.570692 4.38401 0
M  V30 1224 N 113.814 -1.1601 1.06675 0
M  V30 1225 C 115.225 -1.68235 0.809565 0
M  V30 1226 C 115.576 -1.8454 -0.666303 0
M  V30 1227 O 114.701 -1.54374 -1.5165 0
M  V30 1228 C 115.296 -3.05585 1.46299 0
M  V30 1229 C 113.855 -3.54915 1.25349 0
M  V30 1230 C 113.002 -2.30804 1.53703 0
M  V30 1231 H 115.953 -1.00318 1.22971 0
M  V30 1232 H 115.974 -3.70174 0.880431 0
M  V30 1233 H 115.486 -2.93686 2.53713 0
M  V30 1234 H 113.587 -3.72067 0.199261 0
M  V30 1235 H 113.7 -4.36774 1.9689 0
M  V30 1236 H 112.064 -2.36007 0.957739 0
M  V30 1237 H 112.847 -2.21499 2.62284 0
M  V30 1238 N 115.292 -0.849877 -1.32721 0
M  V30 1239 C 116.522 -0.46408 -2.0132 0
M  V30 1240 C 116.93 0.94246 -1.64056 0
M  V30 1241 O 116.273 1.6257 -0.855379 0
M  V30 1242 C 116.335 -0.517887 -3.5575 0
M  V30 1243 C 115.999 -1.88248 -4.16427 0
M  V30 1244 C 116.996 -2.84726 -4.35002 0
M  V30 1245 C 114.681 -2.17832 -4.52609 0
M  V30 1246 C 116.675 -4.08945 -4.8892 0
M  V30 1247 C 114.362 -3.42304 -5.06232 0
M  V30 1248 C 115.36 -4.37677 -5.24335 0
M  V30 1249 O 115.048 -5.59946 -5.76815 0
M  V30 1250 H 114.78 -0.181327 -0.651227 0
M  V30 1251 H 117.334 -1.14713 -1.70382 0
M  V30 1252 H 115.564 0.221997 -3.86062 0
M  V30 1253 H 117.253 -0.148366 -4.05629 0
M  V30 1254 H 118.019 -2.63174 -4.07388 0
M  V30 1255 H 113.898 -1.44385 -4.37806 0
M  V30 1256 H 117.442 -4.83396 -5.02966 0
M  V30 1257 H 113.339 -3.63709 -5.33278 0
M  V30 1258 H 114.107 -5.61838 -5.95214 0
M  V30 1259 N 116.77 1.45427 -0.607355 0
M  V30 1260 C 117.718 2.32269 0.12411 0
M  V30 1261 C 118.712 1.45955 0.859854 0
M  V30 1262 O 119.918 1.6244 0.775447 0
M  V30 1263 H 116.293 0.749691 0.0588839 0
M  V30 1264 H 118.264 2.91743 -0.626762 0
M  V30 1265 C 117.013 3.29567 1.1082 0
M  V30 1266 H 116.336 3.95978 0.551492 0
M  V30 1267 H 117.776 3.93061 1.58995 0
M  V30 1268 C 116.235 2.56722 2.18164 0
M  V30 1269 O 116.765 2.34842 3.25902 0
M  V30 1270 N 114.971 2.16861 1.93442 0
M  V30 1271 H 114.518 2.34855 1.05834 0
M  V30 1272 H 114.476 1.68444 2.65469 0
M  V30 1273 N 118.248 0.346503 1.53744 0
M  V30 1274 C 119.195 -0.508914 2.25119 0
M  V30 1275 C 120.165 -1.09315 1.25058 0
M  V30 1276 O 121.35 -1.12921 1.53797 0
M  V30 1277 C 118.49 -1.65246 3.02965 0
M  V30 1278 C 117.603 -1.09525 4.17886 0
M  V30 1279 C 116.738 -2.20634 4.83212 0
M  V30 1280 C 115.777 -1.62279 5.90196 0
M  V30 1281 N 114.914 -2.67143 6.49291 0
M  V30 1282 H 119.754 0.106283 2.9781 0
M  V30 1283 H 117.291 0.0642227 1.4696 0
M  V30 1284 H 119.249 -2.32574 3.4636 0
M  V30 1285 H 117.879 -2.2386 2.32565 0
M  V30 1286 H 116.931 -0.312818 3.79112 0
M  V30 1287 H 118.243 -0.628444 4.94825 0
M  V30 1288 H 117.397 -2.95821 5.29693 0
M  V30 1289 H 116.136 -2.70659 4.05703 0
M  V30 1290 H 115.141 -0.855989 5.43096 0
M  V30 1291 H 116.366 -1.13102 6.69615 0
M  V30 1292 H 114.312 -3.16417 5.74645 0
M  V30 1293 H 114.229 -2.25093 7.21713 0
M  V30 1294 H 115.497 -3.4209 7.00425 0
M  V30 1295 N 119.726 -1.57421 0.075193 0
M  V30 1296 C 120.656 -2.15942 -0.888324 0
M  V30 1297 C 121.637 -1.08737 -1.30806 0
M  V30 1298 O 122.822 -1.36787 -1.37851 0
M  V30 1299 C 119.952 -2.72379 -2.1547 0
M  V30 1300 C 118.906 -3.8478 -1.87425 0
M  V30 1301 C 118.232 -4.27834 -3.20721 0
M  V30 1302 C 119.532 -5.08869 -1.17684 0
M  V30 1303 H 121.226 -2.96705 -0.400799 0
M  V30 1304 H 118.772 -1.42723 -0.191342 0
M  V30 1305 H 120.725 -3.11965 -2.83295 0
M  V30 1306 H 119.449 -1.88841 -2.6647 0
M  V30 1307 H 118.108 -3.45703 -1.22004 0
M  V30 1308 H 117.756 -3.41214 -3.6957 0
M  V30 1309 H 117.456 -5.03605 -3.02746 0
M  V30 1310 H 118.98 -4.70039 -3.89738 0
M  V30 1311 H 120.394 -5.4575 -1.75584 0
M  V30 1312 H 118.791 -5.8994 -1.09956 0
M  V30 1313 H 119.861 -4.84648 -0.156453 0
M  V30 1314 N 121.204 0.198386 -1.56346 0
M  V30 1315 C 122.152 1.26538 -1.95169 0
M  V30 1316 C 123.146 1.47295 -0.836685 0
M  V30 1317 O 124.352 1.48195 -1.02167 0
M  V30 1318 H 120.727 0.424744 -0.620561 0
M  V30 1319 H 122.698 0.910904 -2.84157 0
M  V30 1320 C 121.447 2.6035 -2.30463 0
M  V30 1321 H 120.77 2.45192 -3.15786 0
M  V30 1322 H 122.21 3.33762 -2.61494 0
M  V30 1323 C 120.669 3.17096 -1.13806 0
M  V30 1324 O 121.199 3.99588 -0.41135 0
M  V30 1325 N 119.405 2.75795 -0.915736 0
M  V30 1326 H 118.952 2.08816 -1.50843 0
M  V30 1327 H 118.91 3.14101 -0.136979 0
M  V30 1328 N 122.682 1.50554 0.465978 0
M  V30 1329 C 123.629 1.6979 1.56333 0
M  V30 1330 C 124.599 0.539239 1.57103 0
M  V30 1331 O 125.784 0.770401 1.74555 0
M  V30 1332 C 122.924 1.80273 2.94271 0
M  V30 1333 C 122.037 3.07674 3.0325 0
M  V30 1334 C 121.172 3.08922 4.32135 0
M  V30 1335 C 120.211 4.30755 4.34875 0
M  V30 1336 N 119.348 4.29714 5.55239 0
M  V30 1337 H 124.188 2.63472 1.39235 0
M  V30 1338 H 121.725 1.30602 0.676873 0
M  V30 1339 H 123.683 1.84332 3.74269 0
M  V30 1340 H 122.313 0.900258 3.09992 0
M  V30 1341 H 121.365 3.13062 2.16094 0
M  V30 1342 H 122.677 3.97642 3.01135 0
M  V30 1343 H 121.831 3.11738 5.20485 0
M  V30 1344 H 120.57 2.16792 4.36866 0
M  V30 1345 H 119.575 4.28146 3.44922 0
M  V30 1346 H 120.8 5.24117 4.31831 0
M  V30 1347 H 118.746 3.4044 5.60746 0
M  V30 1348 H 118.663 5.13456 5.54886 0
M  V30 1349 H 119.931 4.36683 6.457 0
M  V30 1350 N 124.16 -0.719506 1.40217 0
M  V30 1351 C 125.107 -1.83359 1.40172 0
M  V30 1352 C 126.077 -1.64065 0.259206 0
M  V30 1353 O 127.262 -1.85254 0.456677 0
M  V30 1354 C 124.402 -3.2103 1.26624 0
M  V30 1355 C 123.515 -3.51923 2.50548 0
M  V30 1356 C 122.65 -4.79079 2.29471 0
M  V30 1357 C 121.689 -5.02863 3.48992 0
M  V30 1358 N 120.826 -6.2123 3.27135 0
M  V30 1359 H 125.666 -1.82733 2.35399 0
M  V30 1360 H 123.203 -0.892688 1.16917 0
M  V30 1361 H 125.161 -4.00524 1.16776 0
M  V30 1362 H 123.791 -3.20895 0.350176 0
M  V30 1363 H 122.843 -2.67014 2.70939 0
M  V30 1364 H 124.155 -3.6541 3.39525 0
M  V30 1365 H 123.309 -5.66582 2.16955 0
M  V30 1366 H 122.048 -4.67794 1.37913 0
M  V30 1367 H 121.053 -4.13816 3.6199 0
M  V30 1368 H 122.278 -5.16023 4.41472 0
M  V30 1369 H 120.224 -6.11204 2.38256 0
M  V30 1370 H 120.141 -6.35375 4.09675 0
M  V30 1371 H 121.409 -7.11532 3.18344 0
M  V30 1372 N 125.638 -1.25649 -0.95132 0
M  V30 1373 C 126.884 -1.10757 -1.69884 0
M  V30 1374 C 127.217 0.350061 -1.91019 0
M  V30 1375 O 126.492 1.25783 -1.48354 0
M  V30 1376 C 126.775 -1.86606 -3.07978 0
M  V30 1377 C 126.628 -3.40217 -2.94232 0
M  V30 1378 C 127.947 -1.65182 -4.07925 0
M  V30 1379 H 125.066 -0.40374 -0.616574 0
M  V30 1380 H 127.708 -1.54521 -1.10558 0
M  V30 1381 H 125.858 -1.49409 -3.58621 0
M  V30 1382 H 127.53 -3.87108 -2.50889 0
M  V30 1383 H 125.773 -3.67759 -2.30078 0
M  V30 1384 H 126.444 -3.88505 -3.92133 0
M  V30 1385 H 128.92 -1.9757 -3.66204 0
M  V30 1386 H 127.796 -2.20683 -5.02583 0
M  V30 1387 H 128.057 -0.593933 -4.38092 0
M  V30 1388 N 127.117 1.15442 -1.07289 0
M  V30 1389 C 128.067 2.18164 -0.662467 0
M  V30 1390 C 129.051 1.57845 0.312074 0
M  V30 1391 O 130.243 1.76552 0.125905 0
M  V30 1392 C 127.372 3.43246 -0.0611295 0
M  V30 1393 C 126.458 4.1062 -1.06077 0
M  V30 1394 N 126.849 4.53491 -2.24008 0
M  V30 1395 C 125.147 4.36949 -0.893964 0
M  V30 1396 C 125.848 5.05731 -2.87422 0
M  V30 1397 N 124.824 4.99236 -2.15091 0
M  V30 1398 H 128.626 2.49038 -1.56068 0
M  V30 1399 H 126.14 1.32003 -0.945988 0
M  V30 1400 H 128.137 4.16145 0.250792 0
M  V30 1401 H 126.797 3.13854 0.832207 0
M  V30 1402 H 127.808 4.46898 -2.6173 0
M  V30 1403 H 124.485 4.17466 -0.0534693 0
M  V30 1404 H 125.875 5.48865 -3.87553 0
M  V30 1405 N 128.595 0.856903 1.32268 0
M  V30 1406 C 129.844 0.457599 1.96441 0
M  V30 1407 C 130.157 -0.992426 1.68553 0
M  V30 1408 O 131.363 -1.49727 2.26482 0
M  V30 1409 C 129.819 0.767358 3.51624 0
M  V30 1410 C 129.427 2.23326 3.88367 0
M  V30 1411 C 131.171 0.435887 4.22256 0
M  V30 1412 C 129.078 2.48613 5.36606 0
M  V30 1413 H 128.008 0.167387 0.735185 0
M  V30 1414 H 130.659 1.048 1.5063 0
M  V30 1415 H 129.041 0.106367 3.95857 0
M  V30 1416 H 130.215 2.93623 3.55137 0
M  V30 1417 H 128.53 2.52948 3.30766 0
M  V30 1418 H 131.127 0.602202 5.31298 0
M  V30 1419 H 131.47 -0.622672 4.11617 0
M  V30 1420 H 132.003 1.05286 3.83614 0
M  V30 1421 H 128.742 3.53101 5.52268 0
M  V30 1422 H 128.262 1.82896 5.71235 0
M  V30 1423 H 129.941 2.32676 6.03714 0
M  V30 1424 N 130.073 -1.45103 0.615059 0
M  V30 1425 C 131.021 -2.32331 -0.111791 0
M  V30 1426 C 132.015 -1.46409 -0.852102 0
M  V30 1427 O 133.221 -1.62849 -0.766821 0
M  V30 1428 H 129.596 -0.749993 -0.0549072 0
M  V30 1429 H 131.567 -2.91407 0.642225 0
M  V30 1430 C 130.316 -3.3015 -1.09071 0
M  V30 1431 H 129.639 -3.96265 -0.530485 0
M  V30 1432 H 131.079 -3.93898 -1.56908 0
M  V30 1433 C 129.538 -2.57875 -2.168 0
M  V30 1434 O 130.068 -2.36567 -3.24652 0
M  V30 1435 N 128.274 -2.17884 -1.92289 0
M  V30 1436 H 127.821 -2.35413 -1.04587 0
M  V30 1437 H 127.779 -1.6985 -2.64572 0
M  V30 1438 N 131.551 -0.354651 -1.53558 0
M  V30 1439 C 132.498 0.496968 -2.25386 0
M  V30 1440 C 133.468 1.0865 -1.25636 0
M  V30 1441 O 134.653 1.12104 -1.54394 0
M  V30 1442 C 131.793 1.63637 -3.03837 0
M  V30 1443 C 130.906 1.07307 -4.18461 0
M  V30 1444 C 130.041 2.18068 -4.84376 0
M  V30 1445 C 129.08 1.59147 -5.91049 0
M  V30 1446 N 128.217 2.63695 -6.50699 0
M  V30 1447 H 133.057 -0.122075 -2.9775 0
M  V30 1448 H 130.594 -0.0720154 -1.46924 0
M  V30 1449 H 132.552 2.30734 -3.47589 0
M  V30 1450 H 131.182 2.22623 -2.33749 0
M  V30 1451 H 130.234 0.292708 -3.79272 0
M  V30 1452 H 131.546 0.602193 -4.95152 0
M  V30 1453 H 130.7 2.93007 -5.31255 0
M  V30 1454 H 129.439 2.68504 -4.07133 0
M  V30 1455 H 128.444 0.827175 -5.43542 0
M  V30 1456 H 129.669 1.09549 -6.70206 0
M  V30 1457 H 127.615 3.13365 -5.76315 0
M  V30 1458 H 127.532 2.21263 -7.22896 0
M  V30 1459 H 128.8 3.3837 -7.02229 0
M  V30 1460 N 133.029 1.57378 -0.0835403 0
M  V30 1461 C 134.306 1.85363 0.624507 0
M  V30 1462 C 134.686 0.978239 1.87066 0
M  V30 1463 O 134.034 0.0475908 2.2845 0
M  V30 1464 C 134.244 3.35795 0.950947 0
M  V30 1465 C 135.592 4.03581 1.31939 0
M  V30 1466 O 136.616 3.40609 1.04232 0
M  V30 1467 O 135.475 5.14672 1.83779 0
M  V30 1468 H 132.569 0.766162 0.311329 0
M  V30 1469 H 135.115 1.69307 -0.115362 0
M  V30 1470 H 133.887 3.91244 0.0663899 0
M  V30 1471 H 133.51 3.57154 1.74719 0
M  V30 1472 N 134.507 -0.190092 1.56449 0
M  V30 1473 C 135.784 -0.935886 1.71757 0
M  V30 1474 C 136.164 -2.01173 0.639726 0
M  V30 1475 O 135.512 -2.25827 -0.348502 0
M  V30 1476 C 135.722 -1.51775 3.1427 0
M  V30 1477 C 137.07 -1.99794 3.74656 0
M  V30 1478 O 138.094 -1.61607 3.1743 0
M  V30 1479 O 136.953 -2.70079 4.751 0
M  V30 1480 H 134.047 -0.439229 0.700719 0
M  V30 1481 H 136.593 -0.179395 1.68749 0
M  V30 1482 H 135.365 -0.742505 3.84191 0
M  V30 1483 H 134.988 -2.33894 3.21527 0
M  V30 1484 N 135.985 -1.50799 -0.457987 0
M  V30 1485 C 137.234 -1.6168 -1.20593 0
M  V30 1486 C 137.547 -0.32888 -1.92815 0
M  V30 1487 O 138.753 -0.316773 -2.69646 0
M  V30 1488 C 137.209 -2.8545 -2.19195 0
M  V30 1489 C 136.817 -4.21168 -1.52715 0
M  V30 1490 C 138.561 -3.05681 -2.94549 0
M  V30 1491 C 136.468 -5.3611 -2.4968 0
M  V30 1492 H 135.398 -0.602134 -0.453818 0
M  V30 1493 H 138.049 -1.77245 -0.475031 0
M  V30 1494 H 136.431 -2.63472 -2.95632 0
M  V30 1495 H 137.605 -4.53449 -0.819775 0
M  V30 1496 H 135.92 -4.06648 -0.895922 0
M  V30 1497 H 138.517 -3.88727 -3.67145 0
M  V30 1498 H 138.86 -2.17929 -3.54701 0
M  V30 1499 H 139.393 -3.27901 -2.25223 0
M  V30 1500 H 136.132 -6.26057 -1.94249 0
M  V30 1501 H 135.652 -5.0823 -3.18532 0
M  V30 1502 H 137.331 -5.6722 -3.11241 0
M  V30 1503 N 137.463 0.71206 -1.40597 0
M  V30 1504 C 138.709 1.47416 -1.39271 0
M  V30 1505 C 139.042 1.942 0.00388791 0
M  V30 1506 O 138.317 1.68403 0.973179 0
M  V30 1507 C 138.6 2.69774 -2.38525 0
M  V30 1508 C 138.453 2.28861 -3.87224 0
M  V30 1509 C 139.772 3.71939 -2.35264 0
M  V30 1510 H 136.891 0.534713 -0.5072 0
M  V30 1511 H 139.533 0.812375 -1.71757 0
M  V30 1512 H 137.683 3.26238 -2.10953 0
M  V30 1513 H 139.355 1.77852 -4.25636 0
M  V30 1514 H 137.598 1.60824 -4.02887 0
M  V30 1515 H 138.269 3.16584 -4.52193 0
M  V30 1516 H 140.745 3.25113 -2.59694 0
M  V30 1517 H 139.621 4.55186 -3.06753 0
M  V30 1518 H 139.882 4.20484 -1.36549 0
M  V30 1519 N 138.941 1.26152 0.944643 0
M  V30 1520 C 139.904 1.07474 2.0244 0
M  V30 1521 C 140.904 0.0242064 1.60782 0
M  V30 1522 O 142.094 0.267302 1.72137 0
M  V30 1523 C 139.226 0.633956 3.34953 0
M  V30 1524 H 140.419 2.03336 2.20442 0
M  V30 1525 H 137.972 1.087 1.12312 0
M  V30 1526 H 138.707 -0.326811 3.22649 0
M  V30 1527 H 138.492 1.39247 3.66542 0
M  V30 1528 H 139.982 0.52501 4.14287 0
M  V30 1529 N 140.419 -1.14872 1.07899 0
M  V30 1530 C 141.649 -1.89386 0.825631 0
M  V30 1531 C 142.057 -1.78565 -0.625406 0
M  V30 1532 O 141.4 -1.13918 -1.44113 0
M  V30 1533 C 141.462 -3.40206 1.16191 0
M  V30 1534 C 141.126 -3.74812 2.61467 0
M  V30 1535 C 142.123 -3.75367 3.59716 0
M  V30 1536 C 139.808 -4.0495 2.97189 0
M  V30 1537 C 141.802 -4.05574 4.9172 0
M  V30 1538 C 139.489 -4.34821 4.29388 0
M  V30 1539 C 140.487 -4.35116 5.26463 0
M  V30 1540 O 140.175 -4.64267 6.56286 0
M  V30 1541 H 139.907 -0.606894 0.297751 0
M  V30 1542 H 142.461 -1.46438 1.44031 0
M  V30 1543 H 140.691 -3.8358 0.490214 0
M  V30 1544 H 142.38 -3.96018 0.890193 0
M  V30 1545 H 143.146 -3.52176 3.33462 0
M  V30 1546 H 139.025 -4.03876 2.22273 0
M  V30 1547 H 142.569 -4.05719 5.67484 0
M  V30 1548 H 138.466 -4.5748 4.55392 0
M  V30 1549 H 139.234 -4.82007 6.61522 0
M  V30 1550 N 141.898 -0.863906 -1.31812 0
M  V30 1551 C 143.123 -0.48527 -2.01643 0
M  V30 1552 C 143.548 0.913058 -1.64453 0
M  V30 1553 O 142.906 1.6014 -0.849985 0
M  V30 1554 C 142.954 -0.642625 -3.54828 0
M  V30 1555 O 142.058 0.320659 -4.11151 0
M  V30 1556 H 141.399 -0.193793 -0.635091 0
M  V30 1557 H 143.929 -1.16565 -1.68148 0
M  V30 1558 H 143.939 -0.533628 -4.04495 0
M  V30 1559 H 142.614 -1.66227 -3.81237 0
M  V30 1560 H 141.191 0.167126 -3.72525 0
M  V30 1561 N 143.376 1.44774 -0.622745 0
M  V30 1562 C 144.787 1.85546 -0.207226 0
M  V30 1563 C 145.138 1.52093 1.23944 0
M  V30 1564 O 144.263 0.95492 1.94191 0
M  V30 1565 C 144.858 3.36781 -0.369313 0
M  V30 1566 C 143.417 3.76399 -0.00836847 0
M  V30 1567 C 142.564 2.68664 -0.686651 0
M  V30 1568 H 145.515 1.3536 -0.828454 0
M  V30 1569 H 145.536 3.78453 0.394162 0
M  V30 1570 H 145.048 3.61098 -1.42231 0
M  V30 1571 H 143.149 3.57698 1.04322 0
M  V30 1572 H 143.262 4.7732 -0.412584 0
M  V30 1573 H 141.626 2.54404 -0.122777 0
M  V30 1574 H 142.409 2.95815 -1.74208 0
M  V30 1575 N 144.854 0.36279 1.53368 0
M  V30 1576 C 146.103 -0.22888 2.00397 0
M  V30 1577 C 146.416 -1.50096 1.25421 0
M  V30 1578 O 147.622 -2.17106 1.63025 0
M  V30 1579 C 146.078 -0.458417 3.56969 0
M  V30 1580 C 145.686 0.798877 4.4082 0
M  V30 1581 C 147.43 -1.00789 4.12361 0
M  V30 1582 C 145.337 0.539078 5.88938 0
M  V30 1583 H 144.267 -0.089305 0.748693 0
M  V30 1584 H 146.918 0.481099 1.77081 0
M  V30 1585 H 145.3 -1.22959 3.76427 0
M  V30 1586 H 146.474 1.57262 4.33134 0
M  V30 1587 H 144.789 1.27137 3.96516 0
M  V30 1588 H 147.386 -1.21754 5.20653 0
M  V30 1589 H 147.729 -1.9692 3.66781 0
M  V30 1590 H 148.262 -0.296961 3.9669 0
M  V30 1591 H 145.001 1.47064 6.3879 0
M  V30 1592 H 144.521 -0.196222 5.99479 0
M  V30 1593 H 146.2 0.163542 6.46793 0
M  V30 1594 N 146.332 -1.57332 0.0918853 0
M  V30 1595 C 147.262 -2.16872 -0.865371 0
M  V30 1596 C 148.243 -1.10118 -1.29646 0
M  V30 1597 O 149.428 -1.38242 -1.36392 0
M  V30 1598 C 146.558 -2.74649 -2.12569 0
M  V30 1599 C 145.512 -3.86747 -1.83333 0
M  V30 1600 C 144.838 -4.31212 -3.16166 0
M  V30 1601 C 146.138 -5.10089 -1.1228 0
M  V30 1602 H 147.832 -2.97114 -0.369307 0
M  V30 1603 H 145.378 -1.42918 -0.176194 0
M  V30 1604 H 147.331 -3.14952 -2.7997 0
M  V30 1605 H 146.055 -1.91657 -2.64452 0
M  V30 1606 H 144.714 -3.46978 -1.18331 0
M  V30 1607 H 144.362 -3.45115 -3.6593 0
M  V30 1608 H 144.062 -5.06788 -2.97388 0
M  V30 1609 H 145.586 -4.74146 -3.84731 0
M  V30 1610 H 147 -5.47582 -1.69785 0
M  V30 1611 H 145.397 -5.91073 -1.03693 0
M  V30 1612 H 146.467 -4.84786 -0.105041 0
M  V30 1613 N 147.81 0.181792 -1.56548 0
M  V30 1614 C 148.72 1.24538 -1.98815 0
M  V30 1615 C 149.736 1.49045 -0.897861 0
M  V30 1616 O 150.912 1.61399 -1.20467 0
M  V30 1617 C 147.977 2.56683 -2.33055 0
M  V30 1618 C 147.038 2.40131 -3.55859 0
M  V30 1619 C 146.271 3.65975 -3.88456 0
M  V30 1620 O 146.494 4.70711 -3.22161 0
M  V30 1621 O 145.428 3.6071 -4.81842 0
M  V30 1622 H 149.254 0.916647 -2.89536 0
M  V30 1623 H 146.839 0.387842 -1.44278 0
M  V30 1624 H 148.721 3.34655 -2.56094 0
M  V30 1625 H 147.396 2.89157 -1.45498 0
M  V30 1626 H 146.303 1.60226 -3.38051 0
M  V30 1627 H 147.636 2.12585 -4.43924 0
M  V30 1628 N 149.288 1.51039 0.449983 0
M  V30 1629 C 150.235 1.71439 1.54523 0
M  V30 1630 C 151.205 0.555871 1.56522 0
M  V30 1631 O 152.39 0.788871 1.73728 0
M  V30 1632 C 149.53 1.83384 2.92343 0
M  V30 1633 C 148.643 3.10873 2.9997 0
M  V30 1634 C 147.778 3.13488 4.28834 0
M  V30 1635 C 146.817 4.35343 4.30282 0
M  V30 1636 N 145.954 4.35579 5.5065 0
M  V30 1637 H 150.794 2.64934 1.36433 0
M  V30 1638 H 148.331 1.31312 0.662982 0
M  V30 1639 H 150.289 1.88291 3.72293 0
M  V30 1640 H 148.919 0.933086 3.0902 0
M  V30 1641 H 147.971 3.15336 2.12761 0
M  V30 1642 H 149.283 4.00814 2.96901 0
M  V30 1643 H 148.437 3.17241 5.17149 0
M  V30 1644 H 147.176 2.21414 4.34543 0
M  V30 1645 H 146.181 4.3178 3.40362 0
M  V30 1646 H 147.406 5.28668 4.26248 0
M  V30 1647 H 145.352 3.46369 5.57104 0
M  V30 1648 H 145.269 5.19313 5.49409 0
M  V30 1649 H 146.537 4.43507 6.41032 0
M  V30 1650 N 150.766 -0.704594 1.40972 0
M  V30 1651 C 151.996 -1.49138 1.42974 0
M  V30 1652 C 152.404 -1.89175 0.0308406 0
M  V30 1653 O 151.747 -1.56734 -0.958138 0
M  V30 1654 C 151.809 -2.79016 2.26694 0
M  V30 1655 C 151.473 -2.61236 3.74973 0
M  V30 1656 C 152.47 -2.27773 4.67349 0
M  V30 1657 C 150.155 -2.77158 4.18914 0
M  V30 1658 C 152.149 -2.10457 6.01653 0
M  V30 1659 C 149.836 -2.59459 5.53285 0
M  V30 1660 C 150.834 -2.26158 6.4447 0
M  V30 1661 O 150.522 -2.08605 7.76363 0
M  V30 1662 H 150.254 -0.466443 0.489292 0
M  V30 1663 H 152.808 -0.8758 1.85793 0
M  V30 1664 H 151.038 -3.42947 1.78673 0
M  V30 1665 H 152.727 -3.40782 2.20504 0
M  V30 1666 H 153.493 -2.15095 4.34694 0
M  V30 1667 H 149.372 -3.02064 3.48251 0
M  V30 1668 H 152.916 -1.84387 6.72791 0
M  V30 1669 H 148.813 -2.71725 5.85522 0
M  V30 1670 H 149.581 -2.23439 7.87412 0
M  V30 1671 N 152.244 -1.26651 -0.937939 0
M  V30 1672 C 153.49 -1.12553 -1.687 0
M  V30 1673 C 153.823 0.329782 -1.91379 0
M  V30 1674 O 153.098 1.24202 -1.4968 0
M  V30 1675 C 153.381 -1.89862 -3.05981 0
M  V30 1676 C 153.234 -3.43318 -2.90607 0
M  V30 1677 C 154.553 -1.69499 -4.0615 0
M  V30 1678 H 151.672 -0.410257 -0.612257 0
M  V30 1679 H 154.314 -1.55685 -1.08913 0
M  V30 1680 H 152.464 -1.53204 -3.57017 0
M  V30 1681 H 154.136 -3.89747 -2.46769 0
M  V30 1682 H 152.379 -3.70179 -2.26164 0
M  V30 1683 H 153.05 -3.92642 -3.8799 0
M  V30 1684 H 155.526 -2.01442 -3.64088 0
M  V30 1685 H 154.402 -2.26002 -5.00214 0
M  V30 1686 H 154.663 -0.640365 -4.37438 0
M  V30 1687 N 153.722 1.14298 -1.08507 0
M  V30 1688 C 154.97 1.84993 -0.813763 0
M  V30 1689 C 155.291 1.83405 0.662393 0
M  V30 1690 O 154.561 1.28319 1.48024 0
M  V30 1691 H 153.141 0.684966 -0.298045 0
M  V30 1692 H 155.803 1.385 -1.37126 0
M  V30 1693 H 154.899 2.89788 -1.15884 0
M  V30 1694 N 155.201 0.870884 1.31352 0
M  V30 1695 C 156.148 0.325425 2.28494 0
M  V30 1696 C 157.118 -0.576615 1.5577 0
M  V30 1697 O 158.303 -0.508059 1.83911 0
M  V30 1698 C 155.443 -0.466283 3.41935 0
M  V30 1699 C 154.556 0.463378 4.29508 0
M  V30 1700 C 153.691 -0.342544 5.30094 0
M  V30 1701 C 152.73 0.583486 6.09313 0
M  V30 1702 N 151.867 -0.186244 7.01853 0
M  V30 1703 H 156.707 1.15901 2.74538 0
M  V30 1704 H 154.244 0.58294 1.35056 0
M  V30 1705 H 156.202 -0.941085 4.06447 0
M  V30 1706 H 154.832 -1.26456 2.97 0
M  V30 1707 H 153.884 1.05663 3.65431 0
M  V30 1708 H 155.196 1.1734 4.84802 0
M  V30 1709 H 154.35 -0.879816 6.00287 0
M  V30 1710 H 153.089 -1.08585 4.75458 0
M  V30 1711 H 152.094 1.13251 5.3801 0
M  V30 1712 H 153.319 1.32566 6.66035 0
M  V30 1713 H 151.265 -0.912348 6.49625 0
M  V30 1714 H 151.182 0.464422 7.54572 0
M  V30 1715 H 152.45 -0.704716 7.76308 0
M  V30 1716 N 156.679 -1.44442 0.630414 0
M  V30 1717 C 157.956 -1.9549 0.0655657 0
M  V30 1718 C 158.336 -1.5724 -1.40851 0
M  V30 1719 O 157.684 -0.846116 -2.12257 0
M  V30 1720 C 157.894 -3.47812 0.287691 0
M  V30 1721 C 159.242 -4.24216 0.180513 0
M  V30 1722 O 160.266 -3.55526 0.219019 0
M  V30 1723 O 159.125 -5.46434 0.0848493 0
M  V30 1724 H 156.219 -0.826688 -0.0227177 0
M  V30 1725 H 158.765 -1.54496 0.702068 0
M  V30 1726 H 157.537 -3.687 1.31056 0
M  V30 1727 H 157.16 -3.95751 -0.382984 0
M  V30 1728 N 158.157 -0.370918 -1.53173 0
M  V30 1729 C 159.406 0.218249 -2.00516 0
M  V30 1730 C 159.719 1.49429 -1.26215 0
M  V30 1731 O 160.925 2.16239 -1.64174 0
M  V30 1732 C 159.381 0.43948 -3.57207 0
M  V30 1733 C 158.989 -0.822244 -4.4039 0
M  V30 1734 C 160.733 0.986012 -4.1289 0
M  V30 1735 C 158.64 -0.570304 -5.88644 0
M  V30 1736 H 157.57 0.0853333 -0.749156 0
M  V30 1737 H 160.221 -0.490483 -1.76823 0
M  V30 1738 H 158.603 1.20961 -3.77074 0
M  V30 1739 H 159.777 -1.59557 -4.32294 0
M  V30 1740 H 158.092 -1.29238 -3.95836 0
M  V30 1741 H 160.689 1.18991 -5.21292 0
M  V30 1742 H 161.032 1.94972 -3.6782 0
M  V30 1743 H 161.565 0.27592 -3.96842 0
M  V30 1744 H 158.304 -1.50449 -6.38001 0
M  V30 1745 H 157.824 0.164427 -5.99575 0
M  V30 1746 H 159.503 -0.19784 -6.46697 0
M  V30 1747 N 159.635 1.57281 -0.100228 0
M  V30 1748 C 160.863 1.98879 0.570509 0
M  V30 1749 C 161.278 0.979476 1.61405 0
M  V30 1750 O 160.635 -0.0302288 1.82475 0
M  V30 1751 C 160.686 3.4052 1.2136 0
M  V30 1752 O 160.407 4.37588 0.211786 0
M  V30 1753 C 161.908 3.97149 1.96945 0
M  V30 1754 H 159.128 0.653428 0.152555 0
M  V30 1755 H 161.672 2.03697 -0.18103 0
M  V30 1756 H 159.827 3.367 1.91603 0
M  V30 1757 H 160.241 5.20118 0.676607 0
M  V30 1758 H 161.715 4.98393 2.37294 0
M  V30 1759 H 162.192 3.3525 2.83733 0
M  V30 1760 H 162.798 4.04458 1.31506 0
M  V30 1761 N 161.113 -0.173488 1.56642 0
M  V30 1762 C 162.043 -1.2171 1.99271 0
M  V30 1763 C 163.024 -1.46289 0.867959 0
M  V30 1764 O 164.209 -1.5766 1.13388 0
M  V30 1765 C 161.339 -2.55651 2.35074 0
M  V30 1766 C 160.293 -2.45645 3.50489 0
M  V30 1767 C 159.619 -3.84056 3.72028 0
M  V30 1768 C 160.919 -1.96302 4.84007 0
M  V30 1769 H 162.613 -0.86275 2.867 0
M  V30 1770 H 160.159 -0.413571 1.37933 0
M  V30 1771 H 162.112 -3.2886 2.63494 0
M  V30 1772 H 160.836 -2.92869 1.44552 0
M  V30 1773 H 159.495 -1.7489 3.22194 0
M  V30 1774 H 159.143 -4.18664 2.788 0
M  V30 1775 H 158.843 -3.7823 4.49684 0
M  V30 1776 H 160.367 -4.58854 4.02846 0
M  V30 1777 H 161.781 -2.59284 5.11317 0
M  V30 1778 H 160.178 -2.01429 5.65284 0
M  V30 1779 H 161.248 -0.917226 4.76146 0
M  V30 1780 N 162.591 -1.51276 -0.441967 0
M  V30 1781 C 163.538 -1.72256 -1.53612 0
M  V30 1782 C 164.508 -0.564164 -1.56225 0
M  V30 1783 O 165.693 -0.798074 -1.73307 0
M  V30 1784 C 162.833 -1.84932 -2.91366 0
M  V30 1785 C 161.946 -3.12459 -2.98317 0
M  V30 1786 C 161.081 -3.15758 -4.27166 0
M  V30 1787 C 160.12 -4.37619 -4.27967 0
M  V30 1788 N 159.257 -4.38493 -5.48333 0
M  V30 1789 H 164.097 -2.65654 -1.35026 0
M  V30 1790 H 161.634 -1.31662 -0.656009 0
M  V30 1791 H 163.592 -1.90263 -3.7129 0
M  V30 1792 H 162.222 -0.949461 -3.08521 0
M  V30 1793 H 161.274 -3.1646 -2.11086 0
M  V30 1794 H 162.586 -4.02382 -2.94771 0
M  V30 1795 H 161.74 -3.19979 -5.15459 0
M  V30 1796 H 160.479 -2.23715 -4.33362 0
M  V30 1797 H 159.484 -4.33579 -3.38067 0
M  V30 1798 H 160.709 -5.30921 -4.23438 0
M  V30 1799 H 158.655 -3.49318 -5.55259 0
M  V30 1800 H 158.572 -5.22219 -5.46647 0
M  V30 1801 H 159.84 -4.469 -6.38671 0
M  V30 1802 N 164.069 0.697108 -1.41344 0
M  V30 1803 C 165.032 1.79281 -1.42797 0
M  V30 1804 C 166.032 1.57607 -0.318837 0
M  V30 1805 O 167.222 1.64309 -0.578642 0
M  V30 1806 C 164.354 3.17632 -1.23785 0
M  V30 1807 H 165.547 1.79385 -2.40335 0
M  V30 1808 H 163.1 0.904582 -1.27464 0
M  V30 1809 H 163.835 3.23167 -0.270814 0
M  V30 1810 H 163.62 3.34765 -2.04144 0
M  V30 1811 H 165.11 3.97617 -1.27633 0
M  V30 1812 N 165.547 1.27147 0.931209 0
M  V30 1813 C 166.477 1.12081 2.04842 0
M  V30 1814 C 167.458 0.0232364 1.70084 0
M  V30 1815 O 168.643 0.197085 1.93197 0
M  V30 1816 C 165.773 0.76354 3.38803 0
M  V30 1817 C 164.727 1.81396 3.87659 0
M  V30 1818 C 164.053 1.31075 5.18385 0
M  V30 1819 C 165.353 3.21739 4.11438 0
M  V30 1820 H 167.047 2.05537 2.17703 0
M  V30 1821 H 164.593 0.989603 1.04608 0
M  V30 1822 H 166.546 0.644982 4.16435 0
M  V30 1823 H 165.27 -0.206727 3.25945 0
M  V30 1824 H 163.929 1.92136 3.12217 0
M  V30 1825 H 163.577 0.330037 5.01916 0
M  V30 1826 H 163.277 2.013 5.52044 0
M  V30 1827 H 164.801 1.20506 5.98591 0
M  V30 1828 H 166.215 3.14019 4.79651 0
M  V30 1829 H 164.612 3.89644 4.56397 0
M  V30 1830 H 165.682 3.67054 3.16859 0
M  V30 1831 N 167.025 -1.13721 1.09112 0
M  V30 1832 C 168.274 -1.84275 0.82009 0
M  V30 1833 C 168.587 -1.84253 -0.656509 0
M  V30 1834 O 169.793 -2.50668 -1.04296 0
M  V30 1835 C 168.249 -3.30825 1.41714 0
M  V30 1836 C 167.857 -3.39244 2.92605 0
M  V30 1837 C 169.601 -4.06443 1.22492 0
M  V30 1838 C 167.508 -4.80047 3.45411 0
M  V30 1839 H 166.438 -0.690387 0.30312 0
M  V30 1840 H 169.089 -1.28146 1.31343 0
M  V30 1841 H 167.471 -3.86737 0.851498 0
M  V30 1842 H 168.645 -2.93344 3.55367 0
M  V30 1843 H 166.96 -2.77088 3.10823 0
M  V30 1844 H 169.557 -5.10387 1.59402 0
M  V30 1845 H 169.9 -4.15972 0.165299 0
M  V30 1846 H 170.433 -3.56852 1.75788 0
M  V30 1847 H 167.172 -4.75709 4.50978 0
M  V30 1848 H 166.692 -5.26455 2.87411 0
M  V30 1849 H 168.371 -5.48957 3.42425 0
M  V30 1850 N 168.503 -0.877838 -1.30888 0
M  V30 1851 C 169.413 -0.343096 -2.32078 0
M  V30 1852 C 170.429 0.551022 -1.65045 0
M  V30 1853 O 171.605 0.445854 -1.96403 0
M  V30 1854 C 168.67 0.439905 -3.43898 0
M  V30 1855 C 167.731 -0.483111 -4.26573 0
M  V30 1856 C 166.964 0.262616 -5.33053 0
M  V30 1857 O 167.187 1.48967 -5.50604 0
M  V30 1858 O 166.121 -0.383593 -6.00676 0
M  V30 1859 H 169.947 -1.18203 -2.79753 0
M  V30 1860 H 167.532 -0.64145 -1.34929 0
M  V30 1861 H 169.414 0.883504 -4.12034 0
M  V30 1862 H 168.089 1.25526 -2.98371 0
M  V30 1863 H 166.996 -0.975374 -3.61161 0
M  V30 1864 H 168.329 -1.26427 -4.75686 0
M  V30 1865 N 169.982 1.44106 -0.638065 0
M  V30 1866 C 170.945 2.29138 0.0531013 0
M  V30 1867 C 171.945 1.41409 0.765506 0
M  V30 1868 O 173.135 1.63206 0.609046 0
M  V30 1869 C 170.267 3.23144 1.08584 0
M  V30 1870 H 171.46 2.91739 -0.694883 0
M  V30 1871 H 169.013 1.51134 -0.398538 0
M  V30 1872 H 169.748 2.65408 1.86357 0
M  V30 1873 H 169.533 3.87804 0.578852 0
M  V30 1874 H 171.023 3.87004 1.56899 0
M  V30 1875 N 171.46 0.379036 1.52974 0
M  V30 1876 C 172.685 -0.209353 2.06341 0
M  V30 1877 C 173.11 -1.40583 1.24972 0
M  V30 1878 O 172.468 -1.79246 0.272155 0
M  V30 1879 C 172.516 -0.567786 3.56102 0
M  V30 1880 O 171.62 -1.66318 3.77375 0
M  V30 1881 H 170.961 -0.0272919 0.663439 0
M  V30 1882 H 173.491 0.543536 1.97248 0
M  V30 1883 H 173.501 -0.835003 3.99364 0
M  V30 1884 H 172.176 0.307013 4.14765 0
M  V30 1885 H 170.753 -1.39048 3.46006 0
M  V30 1886 N 172.938 -1.57226 0.108567 0
M  V30 1887 C 173.871 -2.10447 -0.882464 0
M  V30 1888 C 174.849 -1.01829 -1.26766 0
M  V30 1889 O 176.033 -1.29415 -1.37054 0
M  V30 1890 C 173.16 -2.59258 -2.17952 0
M  V30 1891 C 172.206 -3.79662 -1.94318 0
M  V30 1892 S 173.039 -5.22586 -1.16892 0
M  V30 1893 C 174.195 -5.74758 -2.47799 0
M  V30 1894 H 174.428 -2.94178 -0.429745 0
M  V30 1895 H 171.961 -1.54043 -0.105 0
M  V30 1896 H 173.919 -2.88036 -2.92482 0
M  V30 1897 H 172.58 -1.75728 -2.60343 0
M  V30 1898 H 171.773 -4.11928 -2.90399 0
M  V30 1899 H 171.375 -3.51446 -1.27913 0
M  V30 1900 H 173.667 -5.83846 -3.43701 0
M  V30 1901 H 174.61 -6.73027 -2.20093 0
M  V30 1902 H 175.018 -5.02763 -2.56689 0
M  V30 1903 N 174.416 0.165178 -1.56732 0
M  V30 1904 C 175.644 0.896218 -1.86482 0
M  V30 1905 C 176.059 1.75555 -0.694675 0
M  V30 1906 O 175.416 1.79379 0.33607 0
M  V30 1907 C 175.467 1.76792 -3.1532 0
M  V30 1908 O 175.188 0.943239 -4.27825 0
M  V30 1909 C 176.689 2.6081 -3.58459 0
M  V30 1910 H 173.909 0.260064 -0.618553 0
M  V30 1911 H 176.453 0.163428 -2.03846 0
M  V30 1912 H 174.608 2.45398 -2.99764 0
M  V30 1913 H 175.022 1.53998 -5.01383 0
M  V30 1914 H 176.496 3.17579 -4.51495 0
M  V30 1915 H 176.973 3.35977 -2.82872 0
M  V30 1916 H 177.579 1.97526 -3.76648 0
M  V30 1917 N 175.894 1.51508 0.433938 0
M  V30 1918 C 177.124 1.67914 1.20369 0
M  V30 1919 C 177.532 0.377461 1.85397 0
M  V30 1920 O 176.875 -0.654255 1.71654 0
M  V30 1921 C 176.937 2.74045 2.32679 0
M  V30 1922 C 176.601 4.16543 1.87991 0
M  V30 1923 C 177.598 5.01211 1.38145 0
M  V30 1924 C 175.283 4.6266 1.95579 0
M  V30 1925 C 177.277 6.30056 0.964774 0
M  V30 1926 C 174.964 5.91501 1.53523 0
M  V30 1927 C 175.962 6.75027 1.04055 0
M  V30 1928 O 175.65 8.01459 0.625964 0
M  V30 1929 H 175.382 0.566578 0.368735 0
M  V30 1930 H 177.936 1.98709 0.51999 0
M  V30 1931 H 176.166 2.38572 3.04336 0
M  V30 1932 H 177.855 2.79295 2.94532 0
M  V30 1933 H 178.621 4.66783 1.31675 0
M  V30 1934 H 174.5 3.97767 2.33029 0
M  V30 1935 H 178.044 6.95202 0.57796 0
M  V30 1936 H 173.941 6.25442 1.59665 0
M  V30 1937 H 174.709 8.15043 0.751509 0
M  V30 1938 N 177.372 -0.689602 1.41712 0
M  V30 1939 C 178.597 -1.48329 1.44959 0
M  V30 1940 C 179.022 -1.8801 0.0581283 0
M  V30 1941 O 178.38 -1.55026 -0.940035 0
M  V30 1942 C 178.428 -2.71835 2.36935 0
M  V30 1943 O 177.532 -3.69549 1.8305 0
M  V30 1944 H 176.873 -0.446199 0.491734 0
M  V30 1945 H 179.403 -0.847127 1.86239 0
M  V30 1946 H 179.413 -3.20076 2.53013 0
M  V30 1947 H 178.088 -2.42291 3.38035 0
M  V30 1948 H 176.665 -3.2851 1.76452 0
M  V30 1949 N 178.85 -1.27639 -0.924453 0
M  V30 1950 C 180.127 -1.04887 -1.651 0
M  V30 1951 C 180.507 0.415327 -2.06974 0
M  V30 1952 O 179.855 1.39923 -1.80648 0
M  V30 1953 C 180.065 -2.01348 -2.85061 0
M  V30 1954 C 181.413 -2.30899 -3.56329 0
M  V30 1955 O 182.437 -1.99348 -2.95193 0
M  V30 1956 O 181.296 -2.84699 -4.66485 0
M  V30 1957 H 178.39 -0.400083 -0.723784 0
M  V30 1958 H 180.936 -1.38916 -0.974703 0
M  V30 1959 H 179.708 -3.0008 -2.51133 0
M  V30 1960 H 179.331 -1.679 -3.6041 0
M  V30 1961 N 180.328 1.1314 -1.09713 0
M  V30 1962 C 181.276 2.20717 -0.733934 0
M  V30 1963 C 182.27 1.6729 0.266506 0
M  V30 1964 O 183.476 1.79547 0.127656 0
M  V30 1965 H 179.851 0.719292 -0.21937 0
M  V30 1966 H 181.822 2.48611 -1.6503 0
M  V30 1967 C 180.571 3.47265 -0.173849 0
M  V30 1968 H 179.894 3.88716 -0.934873 0
M  V30 1969 H 181.334 4.23979 0.0423126 0
M  V30 1970 C 179.793 3.18724 1.09164 0
M  V30 1971 O 180.323 3.37762 2.17439 0
M  V30 1972 N 178.529 2.72583 1.00732 0
M  V30 1973 H 178.076 2.57291 0.126121 0
M  V30 1974 H 178.034 2.53862 1.85476 0
M  V30 1975 N 181.806 0.884767 1.30421 0
M  V30 1976 C 183.034 0.518044 2.0031 0
M  V30 1977 C 183.449 -0.893408 1.66324 0
M  V30 1978 O 182.806 -1.5875 0.900262 0
M  V30 1979 C 182.857 0.682997 3.54989 0
M  V30 1980 O 182.578 2.03888 3.87764 0
M  V30 1981 C 184.079 0.31924 4.42149 0
M  V30 1982 H 181.299 0.200265 0.640418 0
M  V30 1983 H 183.843 1.19001 1.6631 0
M  V30 1984 H 181.998 0.0584052 3.87356 0
M  V30 1985 H 182.412 2.05735 4.82466 0
M  V30 1986 H 183.886 0.485555 5.4986 0
M  V30 1987 H 184.363 -0.742717 4.32875 0
M  V30 1988 H 184.969 0.920147 4.15227 0
M  V30 1989 N 183.284 -1.43765 0.645699 0
M  V30 1990 C 184.247 -2.29163 -0.0409488 0
M  V30 1991 C 185.247 -1.41813 -0.757996 0
M  V30 1992 O 186.437 -1.63527 -0.600382 0
M  V30 1993 C 183.569 -3.23716 -1.06869 0
M  V30 1994 H 184.762 -2.91366 0.710345 0
M  V30 1995 H 182.315 -1.5092 0.406547 0
M  V30 1996 H 183.05 -2.66393 -1.84947 0
M  V30 1997 H 182.835 -3.88105 -0.558277 0
M  V30 1998 H 184.325 -3.87831 -1.54845 0
M  V30 1999 N 184.763 -0.387143 -1.52771 0
M  V30 2000 C 185.711 0.463953 -2.27926 0
M  V30 2001 C 186.705 1.06493 -1.31741 0
M  V30 2002 O 187.911 1.00565 -1.49287 0
M  V30 2003 H 184.286 0.16837 -0.732909 0
M  V30 2004 H 186.257 -0.19141 -2.97785 0
M  V30 2005 C 185.006 1.5803 -3.09713 0
M  V30 2006 H 184.329 1.12718 -3.83581 0
M  V30 2007 H 185.769 2.15008 -3.65442 0
M  V30 2008 C 184.228 2.53509 -2.2189 0
M  V30 2009 O 184.758 3.56863 -1.84422 0
M  V30 2010 N 182.964 2.23199 -1.86093 0
M  V30 2011 H 182.511 1.39185 -2.16761 0
M  V30 2012 H 182.469 2.87333 -1.27621 0
M  V30 2013 N 186.241 1.57166 -0.116904 0
M  V30 2014 C 187.189 2.16457 0.851418 0
M  V30 2015 C 188.183 1.11323 1.27686 0
M  V30 2016 O 189.389 1.2963 1.24884 0
M  V30 2017 H 185.764 0.69271 0.292672 0
M  V30 2018 H 187.735 2.96605 0.32685 0
M  V30 2019 C 186.484 2.77689 2.09246 0
M  V30 2020 H 185.807 3.58285 1.77402 0
M  V30 2021 H 187.247 3.22716 2.7501 0
M  V30 2022 C 185.706 1.74667 2.88085 0
M  V30 2023 O 186.236 1.19877 3.83396 0
M  V30 2024 N 184.442 1.44656 2.52038 0
M  V30 2025 H 183.989 1.89402 1.74599 0
M  V30 2026 H 183.947 0.759675 3.05084 0
M  V30 2027 N 187.719 -0.156864 1.56817 0
M  V30 2028 C 188.666 -1.19394 1.97519 0
M  V30 2029 C 189.636 -1.4322 0.841265 0
M  V30 2030 O 190.821 -1.55719 1.10255 0
M  V30 2031 C 187.961 -2.52483 2.35258 0
M  V30 2032 C 187.074 -2.35914 3.61896 0
M  V30 2033 C 186.209 -3.61969 3.88782 0
M  V30 2034 C 185.248 -3.40395 5.08722 0
M  V30 2035 N 184.385 -4.58556 5.31668 0
M  V30 2036 H 189.225 -0.839845 2.85921 0
M  V30 2037 H 186.762 -0.403264 1.41464 0
M  V30 2038 H 188.72 -3.30071 2.55165 0
M  V30 2039 H 187.35 -2.85859 1.49949 0
M  V30 2040 H 186.402 -1.49429 3.49821 0
M  V30 2041 H 187.714 -2.15926 4.49641 0
M  V30 2042 H 186.868 -4.47989 4.09135 0
M  V30 2043 H 185.607 -3.84951 2.9944 0
M  V30 2044 H 184.612 -2.52763 4.88253 0
M  V30 2045 H 185.837 -3.18822 5.99608 0
M  V30 2046 H 183.783 -4.81729 4.45279 0
M  V30 2047 H 183.7 -4.41535 6.13664 0
M  V30 2048 H 184.968 -5.45817 5.5651 0
M  V30 2049 N 189.197 -1.51736 -0.425897 0
M  V30 2050 C 190.446 -1.64201 -1.17136 0
M  V30 2051 C 190.759 -0.369705 -1.92074 0
M  V30 2052 O 191.965 -0.373898 -2.68913 0
M  V30 2053 C 190.421 -2.90035 -2.13091 0
M  V30 2054 C 190.029 -4.24312 -1.43747 0
M  V30 2055 C 191.773 -3.1186 -2.87999 0
M  V30 2056 C 189.68 -5.41285 -2.38253 0
M  V30 2057 H 188.61 -0.611624 -0.440944 0
M  V30 2058 H 191.261 -1.78212 -0.437328 0
M  V30 2059 H 189.643 -2.69684 -2.89977 0
M  V30 2060 H 190.817 -4.55086 -0.723408 0
M  V30 2061 H 189.132 -4.08456 -0.809465 0
M  V30 2062 H 191.729 -3.96427 -3.58817 0
M  V30 2063 H 192.072 -2.25403 -3.49999 0
M  V30 2064 H 192.605 -3.32605 -2.18217 0
M  V30 2065 H 189.344 -6.30037 -1.80925 0
M  V30 2066 H 188.864 -5.14872 -3.0768 0
M  V30 2067 H 190.543 -5.73694 -2.99139 0
M  V30 2068 N 190.675 0.682077 -1.42076 0
M  V30 2069 C 191.924 1.43786 -1.41451 0
M  V30 2070 C 192.237 1.95574 -0.0317074 0
M  V30 2071 O 193.443 2.71326 0.0971462 0
M  V30 2072 C 191.899 2.60071 -2.48779 0
M  V30 2073 C 191.507 2.15013 -3.93031 0
M  V30 2074 C 193.251 3.37626 -2.57311 0
M  V30 2075 C 191.158 3.28336 -4.91883 0
M  V30 2076 H 190.088 0.540143 -0.526082 0
M  V30 2077 H 192.739 0.739157 -1.67955 0
M  V30 2078 H 191.121 3.32275 -2.15429 0
M  V30 2079 H 192.295 1.5001 -4.35699 0
M  V30 2080 H 190.61 1.50416 -3.88284 0
M  V30 2081 H 193.207 4.22012 -3.28345 0
M  V30 2082 H 193.55 3.83727 -1.61429 0
M  V30 2083 H 194.083 2.72488 -2.89819 0
M  V30 2084 H 190.822 2.87234 -5.89217 0
M  V30 2085 H 190.342 3.92145 -4.53853 0
M  V30 2086 H 192.021 3.93913 -5.13265 0
M  V30 2087 N 192.153 1.28127 0.917671 0
M  V30 2088 C 193.1 1.11717 2.0196 0
M  V30 2089 C 194.07 0.0153929 1.66093 0
M  V30 2090 O 195.255 0.179596 1.89953 0
M  V30 2091 C 192.395 0.780927 3.36148 0
M  V30 2092 C 191.508 1.96135 3.84909 0
M  V30 2093 C 190.643 1.56609 5.0759 0
M  V30 2094 C 189.682 2.71339 5.48673 0
M  V30 2095 N 188.819 2.32332 6.62545 0
M  V30 2096 H 193.659 2.06003 2.15329 0
M  V30 2097 H 191.196 1.02535 1.05475 0
M  V30 2098 H 193.154 0.56675 4.13333 0
M  V30 2099 H 191.784 -0.124998 3.22558 0
M  V30 2100 H 190.836 2.28777 3.03916 0
M  V30 2101 H 192.148 2.82165 4.1132 0
M  V30 2102 H 191.302 1.31374 5.92305 0
M  V30 2103 H 190.041 0.677014 4.82978 0
M  V30 2104 H 189.046 2.97276 4.62501 0
M  V30 2105 H 190.271 3.60882 5.75274 0
M  V30 2106 H 188.217 1.45889 6.39572 0
M  V30 2107 H 188.134 3.11899 6.88662 0
M  V30 2108 H 189.402 2.10371 7.50576 0
M  V30 2109 N 193.631 -1.12557 1.10312 0
M  V30 2110 C 194.541 -2.21841 0.763142 0
M  V30 2111 C 195.557 -1.72354 -0.238801 0
M  V30 2112 O 196.733 -2.01249 -0.0778746 0
M  V30 2113 C 193.798 -3.46131 0.198632 0
M  V30 2114 C 192.859 -4.10464 1.25769 0
M  V30 2115 C 192.092 -5.28821 0.72002 0
M  V30 2116 O 192.315 -5.6859 -0.453993 0
M  V30 2117 O 191.249 -5.83437 1.47935 0
M  V30 2118 H 195.075 -2.53312 1.67532 0
M  V30 2119 H 192.66 -1.20867 0.878157 0
M  V30 2120 H 194.542 -4.2125 -0.112401 0
M  V30 2121 H 193.217 -3.16338 -0.686419 0
M  V30 2122 H 192.124 -3.3713 1.62156 0
M  V30 2123 H 193.457 -4.44408 2.11571 0
M  V30 2124 N 195.109 -0.891671 -1.2995 0
M  V30 2125 C 196.358 -0.509521 -1.95158 0
M  V30 2126 C 196.671 0.947388 -1.71125 0
M  V30 2127 O 197.877 1.43669 -2.30372 0
M  V30 2128 C 196.333 -0.860315 -3.49466 0
M  V30 2129 C 195.941 -2.33545 -3.8231 0
M  V30 2130 C 197.685 -0.547687 -4.20952 0
M  V30 2131 C 195.592 -2.62752 -5.29826 0
M  V30 2132 H 194.522 -0.18682 -0.730489 0
M  V30 2133 H 197.173 -1.08756 -1.47798 0
M  V30 2134 H 195.555 -0.211285 -3.95436 0
M  V30 2135 H 196.729 -3.02936 -3.47227 0
M  V30 2136 H 195.044 -2.61629 -3.23944 0
M  V30 2137 H 197.641 -0.742854 -5.29515 0
M  V30 2138 H 197.984 0.51332 -4.13123 0
M  V30 2139 H 198.517 -1.1542 -3.80688 0
M  V30 2140 H 195.256 -3.6762 -5.42712 0
M  V30 2141 H 194.776 -1.97977 -5.66185 0
M  V30 2142 H 196.455 -2.48601 -5.97333 0
M  V30 2143 N 196.587 1.43421 -0.653314 0
M  V30 2144 C 197.835 2.01414 -0.166415 0
M  V30 2145 C 198.156 1.51803 1.22397 0
M  V30 2146 O 197.426 0.730693 1.81763 0
M  V30 2147 H 196.006 0.744703 -0.0585319 0
M  V30 2148 H 198.668 1.75629 -0.845003 0
M  V30 2149 H 197.764 3.11734 -0.151111 0
M  V30 2150 N 198.065 0.39524 1.52563 0
M  V30 2151 C 199.313 -0.184678 2.01254 0
M  V30 2152 C 199.634 -1.46822 1.28329 0
M  V30 2153 O 198.904 -1.91666 0.405094 0
M  V30 2154 H 197.484 -0.0712355 0.743596 0
M  V30 2155 H 200.146 0.528293 1.87603 0
M  V30 2156 H 199.242 -0.390681 3.09645 0
M  V30 2157 N 199.544 -1.57102 0.125237 0
M  V30 2158 C 200.793 -1.94582 -0.531095 0
M  V30 2159 C 201.106 -1.01126 -1.6743 0
M  V30 2160 O 202.312 -1.28097 -2.39381 0
M  V30 2161 C 200.768 -3.45839 -0.996164 0
M  V30 2162 C 200.376 -4.47842 0.118926 0
M  V30 2163 C 202.12 -3.92227 -1.62352 0
M  V30 2164 C 200.027 -5.90284 -0.363192 0
M  V30 2165 H 198.957 -0.726391 -0.20217 0
M  V30 2166 H 201.608 -1.82339 0.206092 0
M  V30 2167 H 199.99 -3.53338 -1.78796 0
M  V30 2168 H 201.164 -4.52018 0.895358 0
M  V30 2169 H 199.479 -4.11243 0.653324 0
M  V30 2170 H 202.076 -4.96069 -1.99548 0
M  V30 2171 H 202.419 -3.32552 -2.50429 0
M  V30 2172 H 202.952 -3.87554 -0.897019 0
M  V30 2173 H 199.691 -6.53728 0.481679 0
M  V30 2174 H 199.211 -5.89515 -1.10597 0
M  V30 2175 H 200.89 -6.41752 -0.822377 0
M  V30 2176 N 201.022 0.148545 -1.56898 0
M  V30 2177 C 201.969 1.18345 -1.98149 0
M  V30 2178 C 202.939 1.42772 -0.848848 0
M  V30 2179 O 204.124 1.55132 -1.11079 0
M  V30 2180 C 201.264 2.51231 -2.36594 0
M  V30 2181 C 200.377 2.33991 -3.63142 0
M  V30 2182 C 199.512 3.59902 -3.90697 0
M  V30 2183 C 198.551 3.37692 -5.1052 0
M  V30 2184 N 197.688 4.5573 -5.34092 0
M  V30 2185 H 202.528 0.82467 -2.86362 0
M  V30 2186 H 200.065 0.395756 -1.41676 0
M  V30 2187 H 202.023 3.28713 -2.56912 0
M  V30 2188 H 200.653 2.85059 -1.51463 0
M  V30 2189 H 199.705 1.47572 -3.50609 0
M  V30 2190 H 201.017 2.13539 -4.5078 0
M  V30 2191 H 200.171 4.45813 -4.11505 0
M  V30 2192 H 198.91 3.83357 -3.01477 0
M  V30 2193 H 197.915 2.5017 -4.89587 0
M  V30 2194 H 199.14 3.15637 -6.0129 0
M  V30 2195 H 197.086 4.79361 -4.47827 0
M  V30 2196 H 197.003 4.38274 -6.15996 0
M  V30 2197 H 198.271 5.42858 -5.59397 0
M  V30 2198 N 202.5 1.5196 0.417844 0
M  V30 2199 C 203.447 1.74678 1.50852 0
M  V30 2200 C 204.417 0.588947 1.55308 0
M  V30 2201 O 205.602 0.825544 1.72016 0
M  V30 2202 C 202.742 1.89544 2.88387 0
M  V30 2203 C 201.855 3.17166 2.93309 0
M  V30 2204 C 200.99 3.22513 4.22088 0
M  V30 2205 C 200.029 4.44372 4.20951 0
M  V30 2206 N 199.166 4.47161 5.41287 0
M  V30 2207 H 204.006 2.67768 1.30783 0
M  V30 2208 H 201.543 1.32689 0.63498 0
M  V30 2209 H 203.501 1.96146 3.68216 0
M  V30 2210 H 202.131 0.998424 3.06971 0
M  V30 2211 H 201.183 3.19778 2.06024 0
M  V30 2212 H 202.495 4.07021 2.88332 0
M  V30 2213 H 201.649 3.28139 5.10303 0
M  V30 2214 H 200.388 2.30581 4.29748 0
M  V30 2215 H 199.393 4.38902 3.31127 0
M  V30 2216 H 200.618 5.3759 4.14938 0
M  V30 2217 H 198.564 3.58108 5.49632 0
M  V30 2218 H 198.481 5.3085 5.3827 0
M  V30 2219 H 199.749 4.57005 6.3148 0
M  V30 2220 N 203.978 -0.674533 1.42435 0
M  V30 2221 C 205.224 -1.43671 1.43131 0
M  V30 2222 C 205.557 -1.94142 0.0476021 0
M  V30 2223 O 204.832 -1.70924 -0.928188 0
M  V30 2224 C 205.115 -2.63355 2.45594 0
M  V30 2225 C 204.968 -2.18514 3.93156 0
M  V30 2226 C 206.287 -3.65571 2.45043 0
M  V30 2227 H 203.406 -0.521077 0.521198 0
M  V30 2228 H 206.048 -0.766551 1.7385 0
M  V30 2229 H 204.198 -3.2053 2.19528 0
M  V30 2230 H 205.87 -1.66504 4.30202 0
M  V30 2231 H 204.113 -1.50086 4.07009 0
M  V30 2232 H 204.784 -3.04484 4.60428 0
M  V30 2233 H 207.26 -3.18113 2.68223 0
M  V30 2234 H 206.136 -4.46893 3.18713 0
M  V30 2235 H 206.397 -4.16716 1.47649 0
M  V30 2236 N 205.456 -1.28612 -0.910864 0
M  V30 2237 C 206.403 -1.12786 -2.01365 0
M  V30 2238 C 207.373 -0.024201 -1.66082 0
M  V30 2239 O 208.558 -0.189667 -1.89855 0
M  V30 2240 C 205.698 -0.798743 -3.35729 0
M  V30 2241 C 204.811 -1.98173 -3.83864 0
M  V30 2242 C 203.946 -1.59298 -5.06752 0
M  V30 2243 C 202.985 -2.74245 -5.47226 0
M  V30 2244 N 202.122 -2.35842 -6.61304 0
M  V30 2245 H 206.962 -2.07142 -2.14234 0
M  V30 2246 H 204.499 -1.03093 -1.0493 0
M  V30 2247 H 206.457 -0.588662 -4.13026 0
M  V30 2248 H 205.087 0.10789 -3.2262 0
M  V30 2249 H 204.139 -2.30386 -3.02699 0
M  V30 2250 H 205.451 -2.84343 -4.09818 0
M  V30 2251 H 204.605 -1.34513 -5.916 0
M  V30 2252 H 203.344 -0.702618 -4.82612 0
M  V30 2253 H 202.349 -2.99725 -4.60918 0
M  V30 2254 H 203.574 -3.63928 -5.73353 0
M  V30 2255 H 201.52 -1.49279 -6.38789 0
M  V30 2256 H 201.437 -3.15546 -6.86998 0
M  V30 2257 H 202.705 -2.14348 -7.4945 0
M  V30 2258 N 206.934 1.1197 -1.10907 0
M  V30 2259 C 207.866 2.17592 -0.720175 0
M  V30 2260 C 208.879 1.60938 0.245495 0
M  V30 2261 O 210.068 1.78476 0.0292245 0
M  V30 2262 C 207.168 3.38873 -0.0427917 0
M  V30 2263 C 206.341 4.25006 -1.03388 0
M  V30 2264 C 205.4 5.24774 -0.387075 0
M  V30 2265 O 204.426 5.59631 -1.03934 0
M  V30 2266 N 205.628 5.74208 0.852407 0
M  V30 2267 H 208.393 2.51567 -1.62893 0
M  V30 2268 H 205.954 1.27439 -0.998543 0
M  V30 2269 H 207.946 4.02703 0.401501 0
M  V30 2270 H 206.516 3.03007 0.768456 0
M  V30 2271 H 205.736 3.57716 -1.65629 0
M  V30 2272 H 207.024 4.79397 -1.70458 0
M  V30 2273 H 206.422 5.48062 1.40161 0
M  V30 2274 H 204.979 6.39901 1.23977 0
M  V30 2275 N 208.412 0.89855 1.29475 0
M  V30 2276 C 209.828 0.594483 1.48115 0
M  V30 2277 C 210.028 -0.86431 1.82022 0
M  V30 2278 O 209.084 -1.64457 1.91599 0
M  V30 2279 C 210.397 1.51932 2.59494 0
M  V30 2280 C 211.945 1.5244 2.7337 0
M  V30 2281 C 212.42 2.43548 3.87877 0
M  V30 2282 N 213.911 2.41589 3.95208 0
M  V30 2283 C 214.646 3.08789 4.83153 0
M  V30 2284 N 214.142 3.85265 5.75798 0
M  V30 2285 N 215.935 2.97952 4.76635 0
M  V30 2286 H 208.086 1.84207 1.05742 0
M  V30 2287 H 210.349 0.789251 0.525154 0
M  V30 2288 H 210.055 2.55865 2.41301 0
M  V30 2289 H 209.929 1.23899 3.56271 0
M  V30 2290 H 212.316 0.492518 2.90961 0
M  V30 2291 H 212.397 1.8451 1.77172 0
M  V30 2292 H 212.041 3.46829 3.71041 0
M  V30 2293 H 211.971 2.08788 4.83441 0
M  V30 2294 H 214.462 1.86025 3.28943 0
M  V30 2295 H 214.775 4.33598 6.39697 0
M  V30 2296 H 213.12 3.89371 5.75687 0
M  V30 2297 H 216.311 2.37723 4.03244 0
M  V30 2298 H 216.484 3.50599 5.44962 0
M  V30 2299 N 209.89 -1.43072 0.660911 0
M  V30 2300 C 210.82 -2.33497 -0.0122829 0
M  V30 2301 C 211.801 -1.49903 -0.803925 0
M  V30 2302 O 212.986 -1.78546 -0.763864 0
M  V30 2303 C 210.116 -3.33363 -0.973994 0
M  V30 2304 C 209.07 -4.27003 -0.291928 0
M  V30 2305 C 208.396 -5.16967 -1.36562 0
M  V30 2306 C 209.696 -5.15816 0.820462 0
M  V30 2307 H 211.39 -2.90038 0.742873 0
M  V30 2308 H 208.936 -1.39461 0.358688 0
M  V30 2309 H 210.889 -3.95524 -1.45392 0
M  V30 2310 H 209.613 -2.75095 -1.7604 0
M  V30 2311 H 208.272 -3.66217 0.167623 0
M  V30 2312 H 207.92 -4.55034 -2.14366 0
M  V30 2313 H 207.62 -5.80441 -0.914454 0
M  V30 2314 H 209.144 -5.82003 -1.84675 0
M  V30 2315 H 210.558 -5.71742 0.422366 0
M  V30 2316 H 208.955 -5.8805 1.19656 0
M  V30 2317 H 210.025 -4.55045 1.67518 0
M  V30 2318 N 211.368 -0.403325 -1.52352 0
M  V30 2319 C 212.315 0.425011 -2.26853 0
M  V30 2320 C 213.285 1.04598 -1.29029 0
M  V30 2321 O 214.47 1.07135 -1.57882 0
M  V30 2322 C 211.61 1.53888 -3.08889 0
M  V30 2323 C 210.723 0.939396 -4.21663 0
M  V30 2324 C 209.858 2.02547 -4.91068 0
M  V30 2325 C 208.897 1.40263 -5.95813 0
M  V30 2326 N 208.034 2.4286 -6.58759 0
M  V30 2327 H 212.874 -0.21674 -2.97211 0
M  V30 2328 H 210.411 -0.118722 -1.4662 0
M  V30 2329 H 212.369 2.19558 -3.54753 0
M  V30 2330 H 210.999 2.15074 -2.40714 0
M  V30 2331 H 210.051 0.171898 -3.80011 0
M  V30 2332 H 211.363 0.44436 -4.96817 0
M  V30 2333 H 210.517 2.75958 -5.40308 0
M  V30 2334 H 209.256 2.55415 -4.15469 0
M  V30 2335 H 208.261 0.653833 -5.45898 0
M  V30 2336 H 209.486 0.881719 -6.73352 0
M  V30 2337 H 207.432 2.94871 -5.85992 0
M  V30 2338 H 207.349 1.98152 -7.2957 0
M  V30 2339 H 208.617 3.15858 -7.12639 0
M  V30 2340 N 212.846 1.57033 -0.133567 0
M  V30 2341 C 213.756 2.19632 0.824564 0
M  V30 2342 C 214.772 1.17666 1.28182 0
M  V30 2343 O 215.948 1.50193 1.3418 0
M  V30 2344 C 213.013 2.79499 2.05137 0
M  V30 2345 C 212.074 3.96548 1.64464 0
M  V30 2346 C 211.307 4.5355 2.81297 0
M  V30 2347 O 211.53 4.09438 3.97136 0
M  V30 2348 O 210.464 5.44018 2.57542 0
M  V30 2349 H 214.29 3.01991 0.321766 0
M  V30 2350 H 211.875 1.49112 0.0927889 0
M  V30 2351 H 213.757 3.17602 2.7696 0
M  V30 2352 H 212.432 2.00162 2.54395 0
M  V30 2353 H 211.339 3.63186 0.897048 0
M  V30 2354 H 212.672 4.77364 1.19934 0
M  V30 2355 N 214.325 -0.140222 1.56975 0
M  V30 2356 C 215.255 -1.17456 2.01808 0
M  V30 2357 C 216.236 -1.44415 0.898794 0
M  V30 2358 O 217.421 -1.5522 1.16707 0
M  V30 2359 C 214.551 -2.50607 2.40444 0
M  V30 2360 C 213.505 -2.38155 3.55621 0
M  V30 2361 C 212.831 -3.76078 3.80091 0
M  V30 2362 C 214.131 -1.85991 4.88062 0
M  V30 2363 H 215.825 -0.801743 2.88466 0
M  V30 2364 H 213.371 -0.38422 1.38779 0
M  V30 2365 H 215.324 -3.23197 2.7041 0
M  V30 2366 H 214.048 -2.89737 1.50732 0
M  V30 2367 H 212.707 -1.68016 3.25832 0
M  V30 2368 H 212.355 -4.12656 2.87618 0
M  V30 2369 H 212.055 -3.68606 4.57606 0
M  V30 2370 H 213.579 -4.50206 4.12488 0
M  V30 2371 H 214.993 -2.4838 5.16701 0
M  V30 2372 H 213.39 -1.89393 5.6943 0
M  V30 2373 H 214.46 -0.816023 4.77984 0
M  V30 2374 N 215.803 -1.52179 -0.40978 0
M  V30 2375 C 217.051 -1.65878 -1.15451 0
M  V30 2376 C 217.372 -0.390771 -1.91044 0
M  V30 2377 O 216.642 0.594323 -1.86667 0
M  V30 2378 H 215.222 -0.611405 -0.429177 0
M  V30 2379 H 217.884 -1.89219 -0.467134 0
M  V30 2380 H 216.98 -2.49954 -1.86894 0
M  V30 2381 N 217.281 0.66697 -1.42791 0
M  V30 2382 C 218.558 1.4234 -1.34159 0
M  V30 2383 C 218.938 2.11093 0.0172729 0
M  V30 2384 O 218.286 2.03808 1.03318 0
M  V30 2385 C 218.496 2.41942 -2.51526 0
M  V30 2386 C 219.844 3.06353 -2.93995 0
M  V30 2387 O 220.868 2.52269 -2.51473 0
M  V30 2388 O 219.727 4.04376 -3.67617 0
M  V30 2389 H 216.821 0.635277 -0.529483 0
M  V30 2390 H 219.367 0.695034 -1.54814 0
M  V30 2391 H 218.139 1.89991 -3.42081 0
M  V30 2392 H 217.762 3.22249 -2.32898 0
M  V30 2393 N 218.759 1.29093 0.90403 0
M  V30 2394 C 219.706 1.13853 2.00764 0
M  V30 2395 C 220.676 0.0330084 1.66067 0
M  V30 2396 O 221.861 0.199733 1.89752 0
M  V30 2397 C 219.001 0.816537 3.35301 0
M  V30 2398 C 218.114 2.00206 3.82807 0
M  V30 2399 C 217.249 1.61983 5.059 0
M  V30 2400 C 216.288 2.77143 5.45764 0
M  V30 2401 N 215.425 2.39346 6.60044 0
M  V30 2402 H 220.265 2.08276 2.13132 0
M  V30 2403 H 217.802 1.03648 1.04381 0
M  V30 2404 H 219.76 0.610557 4.12708 0
M  V30 2405 H 218.39 -0.090779 3.22672 0
M  V30 2406 H 217.442 2.31988 3.01473 0
M  V30 2407 H 218.754 2.86512 4.08304 0
M  V30 2408 H 217.908 1.37649 5.90879 0
M  V30 2409 H 216.647 0.728202 4.82233 0
M  V30 2410 H 215.652 3.02165 4.59322 0
M  V30 2411 H 216.877 3.66964 5.71414 0
M  V30 2412 H 214.823 1.52665 6.37989 0
M  V30 2413 H 214.74 3.19185 6.85315 0
M  V30 2414 H 216.008 2.1832 7.48303 0
M  V30 2415 N 220.237 -1.11381 1.11499 0
M  V30 2416 C 221.483 -1.83403 0.865512 0
M  V30 2417 C 221.816 -1.84459 -0.607329 0
M  V30 2418 O 221.091 -1.29811 -1.44842 0
M  V30 2419 C 221.374 -3.30552 1.42855 0
M  V30 2420 C 221.227 -3.37886 2.96906 0
M  V30 2421 C 222.546 -4.26643 1.08 0
M  V30 2422 H 219.665 -0.665879 0.31587 0
M  V30 2423 H 222.307 -1.30601 1.37998 0
M  V30 2424 H 220.457 -3.75648 0.990985 0
M  V30 2425 H 222.129 -3.01343 3.49271 0
M  V30 2426 H 220.372 -2.78088 3.32941 0
M  V30 2427 H 221.043 -4.41458 3.31389 0
M  V30 2428 H 223.519 -3.89729 1.45775 0
M  V30 2429 H 222.395 -5.27986 1.50072 0
M  V30 2430 H 222.656 -4.42099 -0.00915037 0
M  V30 2431 N 221.715 -0.905404 -1.28997 0
M  V30 2432 C 222.943 -0.549846 -1.9946 0
M  V30 2433 C 223.358 0.866834 -1.67724 0
M  V30 2434 O 222.715 1.57298 -0.925404 0
M  V30 2435 C 222.766 -0.739387 -3.53858 0
M  V30 2436 O 222.487 -2.10031 -3.84472 0
M  V30 2437 C 223.988 -0.389541 -4.41585 0
M  V30 2438 H 221.208 -0.210429 -0.637151 0
M  V30 2439 H 223.752 -1.21632 -1.64396 0
M  V30 2440 H 221.907 -0.120023 -3.87214 0
M  V30 2441 H 222.321 -2.13385 -4.79132 0
M  V30 2442 H 223.795 -0.572972 -5.49018 0
M  V30 2443 H 224.272 0.673756 -4.34001 0
M  V30 2444 H 224.878 -0.986089 -4.1371 0
M  V30 2445 N 223.193 1.4272 -0.668489 0
M  V30 2446 C 224.141 2.32586 0.0254857 0
M  V30 2447 C 225.135 1.49471 0.797176 0
M  V30 2448 O 226.341 1.65583 0.705853 0
M  V30 2449 H 222.716 0.751514 0.0270339 0
M  V30 2450 H 224.687 2.88823 -0.749936 0
M  V30 2451 C 223.436 3.3397 0.967427 0
M  V30 2452 H 222.759 3.97961 0.383048 0
M  V30 2453 H 224.199 3.9945 1.42181 0
M  V30 2454 C 222.658 2.65744 2.0708 0
M  V30 2455 O 223.188 2.48454 3.15648 0
M  V30 2456 N 221.394 2.2487 1.8407 0
M  V30 2457 H 220.941 2.39132 0.95778 0
M  V30 2458 H 220.899 1.79552 2.58086 0
M  V30 2459 N 224.671 0.411399 1.52136 0
M  V30 2460 C 226.082 -0.0576826 1.86611 0
M  V30 2461 C 226.433 -1.44238 1.33003 0
M  V30 2462 O 225.558 -2.05759 0.670228 0
M  V30 2463 C 226.153 -0.111448 3.38617 0
M  V30 2464 C 224.712 -0.52487 3.72723 0
M  V30 2465 C 223.859 0.299176 2.75681 0
M  V30 2466 H 226.81 0.628368 1.4573 0
M  V30 2467 H 226.831 -0.926252 3.69054 0
M  V30 2468 H 226.343 0.896488 3.77604 0
M  V30 2469 H 224.444 -1.53936 3.39315 0
M  V30 2470 H 224.557 -0.267681 4.78352 0
M  V30 2471 H 222.921 -0.238814 2.53578 0
M  V30 2472 H 223.704 1.3055 3.17508 0
M  V30 2473 N 226.149 -1.5696 0.141893 0
M  V30 2474 C 227.395 -1.9625 -0.511248 0
M  V30 2475 C 227.728 -1.02654 -1.64851 0
M  V30 2476 O 227.003 -0.0679676 -1.94381 0
M  V30 2477 C 227.286 -3.45285 -1.02227 0
M  V30 2478 C 227.139 -4.49658 0.113138 0
M  V30 2479 C 228.458 -3.96698 -1.90574 0
M  V30 2480 H 225.577 -0.713567 -0.184367 0
M  V30 2481 H 228.219 -1.88698 0.222087 0
M  V30 2482 H 226.369 -3.51852 -1.64719 0
M  V30 2483 H 228.041 -4.55174 0.749302 0
M  V30 2484 H 226.284 -4.26857 0.773026 0
M  V30 2485 H 226.955 -5.51258 -0.286053 0
M  V30 2486 H 229.431 -3.92578 -1.37918 0
M  V30 2487 H 228.307 -5.01453 -2.2324 0
M  V30 2488 H 228.568 -3.3875 -2.84079 0
M  V30 2489 N 227.627 0.131896 -1.57047 0
M  V30 2490 C 229.043 0.485031 -1.52051 0
M  V30 2491 C 229.243 1.82563 -0.85281 0
M  V30 2492 O 228.299 2.48817 -0.429694 0
M  V30 2493 C 229.612 0.481409 -2.96821 0
M  V30 2494 C 231.16 0.565868 -3.07842 0
M  V30 2495 C 231.635 0.592762 -4.54148 0
M  V30 2496 N 233.126 0.654564 -4.58552 0
M  V30 2497 C 233.861 0.696608 -5.69153 0
M  V30 2498 N 233.357 0.697078 -6.89284 0
M  V30 2499 N 235.15 0.738639 -5.57226 0
M  V30 2500 H 227.301 -0.746664 -1.98843 0
M  V30 2501 H 229.564 -0.273999 -0.90754 0
M  V30 2502 H 229.27 -0.435731 -3.4899 0
M  V30 2503 H 229.144 1.3139 -3.53577 0
M  V30 2504 H 231.531 1.47343 -2.55684 0
M  V30 2505 H 231.612 -0.29406 -2.54104 0
M  V30 2506 H 231.256 -0.310701 -5.06949 0
M  V30 2507 H 231.186 1.46939 -5.05684 0
M  V30 2508 H 233.677 0.660887 -3.72076 0
M  V30 2509 H 233.99 0.731426 -7.69331 0
M  V30 2510 H 232.335 0.66471 -6.91814 0
M  V30 2511 H 235.526 0.735545 -4.62285 0
M  V30 2512 H 235.699 0.767938 -6.43434 0
M  V30 2513 N 229.106 1.52395 0.401703 0
M  V30 2514 C 230.336 1.70429 1.1678 0
M  V30 2515 C 230.744 0.416702 1.84554 0
M  V30 2516 O 230.087 -0.617697 1.73003 0
M  V30 2517 C 230.149 2.78919 2.26814 0
M  V30 2518 C 229.813 4.20437 1.79113 0
M  V30 2519 C 230.81 5.04028 1.27482 0
M  V30 2520 C 228.495 4.66704 1.85722 0
M  V30 2521 C 230.489 6.31961 0.830913 0
M  V30 2522 C 228.176 5.94625 1.40942 0
M  V30 2523 C 229.174 6.77082 0.897128 0
M  V30 2524 O 228.862 8.02607 0.455822 0
M  V30 2525 H 228.594 0.574272 0.356634 0
M  V30 2526 H 231.148 1.99767 0.477724 0
M  V30 2527 H 229.378 2.44973 2.99207 0
M  V30 2528 H 231.067 2.8548 2.88541 0
M  V30 2529 H 231.833 4.69471 1.21744 0
M  V30 2530 H 227.712 4.0262 2.24539 0
M  V30 2531 H 231.256 6.96271 0.430368 0
M  V30 2532 H 227.153 6.28688 1.46362 0
M  V30 2533 H 227.921 8.16453 0.578457 0
M  V30 2534 N 230.584 -0.659388 1.43143 0
M  V30 2535 C 231.494 -1.80167 1.50256 0
M  V30 2536 C 232.51 -1.69571 0.390106 0
M  V30 2537 O 233.686 -1.90849 0.643319 0
M  V30 2538 C 230.751 -3.16409 1.41725 0
M  V30 2539 C 229.812 -3.38848 2.63591 0
M  V30 2540 C 229.045 -4.68591 2.55458 0
M  V30 2541 O 229.268 -5.47532 1.59891 0
M  V30 2542 O 228.202 -4.92614 3.45854 0
M  V30 2543 H 232.028 -1.77121 2.46702 0
M  V30 2544 H 229.613 -0.817092 1.25076 0
M  V30 2545 H 231.495 -3.9768 1.39387 0
M  V30 2546 H 230.17 -3.20059 0.484118 0
M  V30 2547 H 229.077 -2.57366 2.71502 0
M  V30 2548 H 230.41 -3.4004 3.55856 0
M  V30 2549 N 232.062 -1.29571 -0.897171 0
M  V30 2550 C 233.311 -1.1706 -1.64256 0
M  V30 2551 C 233.624 0.276476 -1.93636 0
M  V30 2552 O 234.83 0.52294 -2.66416 0
M  V30 2553 C 233.286 -2.0475 -2.95982 0
M  V30 2554 C 232.894 -3.54295 -2.74187 0
M  V30 2555 C 234.638 -2.0097 -3.73914 0
M  V30 2556 C 232.545 -4.34081 -4.01656 0
M  V30 2557 H 231.475 -0.43452 -0.616205 0
M  V30 2558 H 234.126 -1.54229 -0.994268 0
M  V30 2559 H 232.508 -1.60452 -3.62038 0
M  V30 2560 H 233.682 -4.06662 -2.1671 0
M  V30 2561 H 231.997 -3.59773 -2.09648 0
M  V30 2562 H 234.594 -2.57838 -4.68427 0
M  V30 2563 H 234.937 -0.990273 -4.0435 0
M  V30 2564 H 235.47 -2.43325 -3.14703 0
M  V30 2565 H 232.209 -5.36671 -3.76384 0
M  V30 2566 H 231.729 -3.86483 -4.58684 0
M  V30 2567 H 233.408 -4.44877 -4.69781 0
M  V30 2568 N 233.54 1.10788 -1.12088 0
M  V30 2569 C 234.45 2.20599 -0.798338 0
M  V30 2570 C 235.466 1.72712 0.21135 0
M  V30 2571 O 236.642 2.01348 0.0458477 0
M  V30 2572 C 233.707 3.45771 -0.253674 0
M  V30 2573 C 232.768 4.08411 -1.32283 0
M  V30 2574 C 232.001 5.27608 -0.80406 0
M  V30 2575 O 232.224 5.69241 0.363478 0
M  V30 2576 O 231.158 5.8101 -1.57198 0
M  V30 2577 H 234.984 2.50614 -1.7154 0
M  V30 2578 H 232.569 1.19454 -0.897275 0
M  V30 2579 H 234.451 4.21376 0.0453691 0
M  V30 2580 H 233.126 3.1739 0.636005 0
M  V30 2581 H 232.033 3.34507 -1.67499 0
M  V30 2582 H 233.366 4.40986 -2.18614 0
M  V30 2583 N 235.018 0.912232 1.28515 0
M  V30 2584 C 235.948 0.416403 2.29757 0
M  V30 2585 C 236.929 -0.515194 1.6211 0
M  V30 2586 O 238.114 -0.423253 1.89532 0
M  V30 2587 C 235.244 -0.34572 3.45575 0
M  V30 2588 C 234.198 0.496599 4.25109 0
M  V30 2589 C 233.524 -0.393771 5.33248 0
M  V30 2590 C 234.824 1.75307 4.92001 0
M  V30 2591 H 236.518 1.26249 2.7148 0
M  V30 2592 H 234.064 0.608515 1.30511 0
M  V30 2593 H 236.017 -0.703422 4.15488 0
M  V30 2594 H 234.741 -1.2257 3.02728 0
M  V30 2595 H 233.4 0.8368 3.56922 0
M  V30 2596 H 233.048 -1.27225 4.86644 0
M  V30 2597 H 232.748 0.166209 5.87365 0
M  V30 2598 H 234.272 -0.747389 6.06009 0
M  V30 2599 H 235.686 1.46437 5.54283 0
M  V30 2600 H 234.083 2.25534 5.56106 0
M  V30 2601 H 235.153 2.48176 4.16577 0
M  V30 2602 N 236.496 -1.42363 0.676048 0
M  V30 2603 C 237.444 -2.32596 -0.0131507 0
M  V30 2604 C 238.438 -1.49891 -0.789238 0
M  V30 2605 O 239.644 -1.65955 -0.697061 0
M  V30 2606 H 236.019 -0.751647 -0.0230481 0
M  V30 2607 H 237.99 -2.88421 0.765243 0
M  V30 2608 C 236.739 -3.34479 -0.949702 0
M  V30 2609 H 236.062 -3.98158 -0.361938 0
M  V30 2610 H 237.502 -4.00199 -1.4006 0
M  V30 2611 C 235.961 -2.66838 -2.05667 0
M  V30 2612 O 236.491 -2.50124 -3.14326 0
M  V30 2613 N 234.697 -2.25843 -1.82875 0
M  V30 2614 H 234.244 -2.39637 -0.945085 0
M  V30 2615 H 234.202 -1.80918 -2.5713 0
M  V30 2616 N 237.974 -0.419461 -1.51915 0
M  V30 2617 C 239.204 0.151915 -2.06041 0
M  V30 2618 C 239.612 1.38539 -1.28855 0
M  V30 2619 O 238.955 1.80592 -0.336463 0
M  V30 2620 C 239.017 0.557119 -3.55157 0
M  V30 2621 C 238.681 -0.567054 -4.53468 0
M  V30 2622 C 239.678 -1.43379 -4.99738 0
M  V30 2623 C 237.363 -0.742693 -4.96779 0
M  V30 2624 C 239.357 -2.46102 -5.87973 0
M  V30 2625 C 237.044 -1.77322 -5.84808 0
M  V30 2626 C 238.042 -2.63078 -6.30301 0
M  V30 2627 O 237.73 -3.64364 -7.16585 0
M  V30 2628 H 237.462 0.0193293 -0.675724 0
M  V30 2629 H 240.016 -0.592073 -1.96682 0
M  V30 2630 H 238.246 1.35355 -3.62238 0
M  V30 2631 H 239.935 1.05759 -3.9188 0
M  V30 2632 H 240.701 -1.30954 -4.66986 0
M  V30 2633 H 236.58 -0.0848307 -4.60922 0
M  V30 2634 H 240.124 -3.13071 -6.23404 0
M  V30 2635 H 236.021 -1.89773 -6.16974 0
M  V30 2636 H 236.789 -3.60731 -7.34721 0
M  V30 2637 N 239.452 1.56882 -0.150215 0
M  V30 2638 C 240.682 2.00302 0.506213 0
M  V30 2639 C 241.09 1.02934 1.58749 0
M  V30 2640 O 240.433 0.0188384 1.8369 0
M  V30 2641 C 240.495 3.40156 1.16337 0
M  V30 2642 C 240.159 4.56439 0.226311 0
M  V30 2643 C 241.156 5.17012 -0.547265 0
M  V30 2644 C 238.841 5.02136 0.128279 0
M  V30 2645 C 240.835 6.21693 -1.40629 0
M  V30 2646 C 238.522 6.06672 -0.734345 0
M  V30 2647 C 239.52 6.6632 -1.50023 0
M  V30 2648 O 239.208 7.68831 -2.34848 0
M  V30 2649 H 238.94 0.662182 0.135984 0
M  V30 2650 H 241.494 2.03961 -0.242746 0
M  V30 2651 H 239.724 3.33346 1.96004 0
M  V30 2652 H 241.413 3.67663 1.71985 0
M  V30 2653 H 242.179 4.82603 -0.48158 0
M  V30 2654 H 238.058 4.55435 0.714157 0
M  V30 2655 H 241.602 6.68179 -2.00455 0
M  V30 2656 H 237.499 6.40507 -0.801309 0
M  V30 2657 H 238.267 7.86065 -2.28131 0
M  V30 2658 N 240.93 -0.123565 1.57115 0
M  V30 2659 C 242.155 -0.850398 1.89164 0
M  V30 2660 C 242.58 -1.7286 0.741688 0
M  V30 2661 O 241.938 -1.78665 -0.307958 0
M  V30 2662 C 241.986 -1.66353 3.19936 0
M  V30 2663 O 241.09 -2.77004 3.0552 0
M  V30 2664 H 240.431 -0.235454 0.620852 0
M  V30 2665 H 242.961 -0.107335 2.04318 0
M  V30 2666 H 242.971 -2.05372 3.52543 0
M  V30 2667 H 241.646 -1.01881 4.03228 0
M  V30 2668 H 240.223 -2.41221 2.84371 0
M  V30 2669 N 242.408 -1.52605 -0.393616 0
M  V30 2670 C 243.819 -1.59417 -0.971761 0
M  V30 2671 C 244.17 -0.444173 -1.91106 0
M  V30 2672 O 243.295 0.433382 -2.12016 0
M  V30 2673 C 243.89 -2.88936 -1.76921 0
M  V30 2674 C 242.449 -2.98175 -2.29714 0
M  V30 2675 C 241.596 -2.54491 -1.10135 0
M  V30 2676 H 244.547 -1.57751 -0.173317 0
M  V30 2677 H 244.568 -2.75163 -2.62804 0
M  V30 2678 H 244.08 -3.72616 -1.08532 0
M  V30 2679 H 242.181 -2.19024 -3.01429 0
M  V30 2680 H 242.294 -4.02726 -2.59517 0
M  V30 2681 H 240.658 -2.08702 -1.45999 0
M  V30 2682 H 241.441 -3.4056 -0.432874 0
M  V30 2683 N 243.887 0.651787 -1.4349 0
M  V30 2684 C 244.834 1.76462 -1.4876 0
M  V30 2685 C 245.804 1.62641 -0.337189 0
M  V30 2686 O 246.989 1.82864 -0.544544 0
M  V30 2687 C 244.129 3.14623 -1.41796 0
M  V30 2688 C 243.242 3.39568 -2.67053 0
M  V30 2689 C 242.377 4.67585 -2.52068 0
M  V30 2690 C 241.416 4.85639 -3.72587 0
M  V30 2691 N 240.553 6.04915 -3.56402 0
M  V30 2692 H 245.393 1.71293 -2.43849 0
M  V30 2693 H 242.93 0.835889 -1.21043 0
M  V30 2694 H 244.888 3.94496 -1.35753 0
M  V30 2695 H 243.518 3.18859 -0.50288 0
M  V30 2696 H 242.57 2.53783 -2.8337 0
M  V30 2697 H 243.882 3.48795 -3.56572 0
M  V30 2698 H 243.036 5.55586 -2.4374 0
M  V30 2699 H 241.775 4.60681 -1.60075 0
M  V30 2700 H 240.78 3.96073 -3.81321 0
M  V30 2701 H 242.005 4.94372 -4.65589 0
M  V30 2702 H 239.951 5.9914 -2.67146 0
M  V30 2703 H 239.868 6.15106 -4.39524 0
M  V30 2704 H 241.136 6.95533 -3.51929 0
M  V30 2705 N 245.365 1.30045 0.890287 0
M  V30 2706 C 246.59 1.21598 1.68014 0
M  V30 2707 C 247.015 -0.218678 1.86825 0
M  V30 2708 O 246.373 -1.15756 1.39536 0
M  V30 2709 C 246.421 1.94434 3.03691 0
M  V30 2710 O 245.525 1.2678 3.92429 0
M  V30 2711 H 244.866 0.420856 0.513592 0
M  V30 2712 H 247.396 1.71775 1.11151 0
M  V30 2713 H 247.406 2.03251 3.5377 0
M  V30 2714 H 246.081 2.98777 2.89318 0
M  V30 2715 H 244.658 1.26282 3.50866 0
M  V30 2716 N 246.843 -1.10192 1.12674 0
M  V30 2717 C 247.79 -2.16606 0.796906 0
M  V30 2718 C 248.76 -1.64394 -0.237476 0
M  V30 2719 O 249.945 -1.90474 -0.111484 0
M  V30 2720 C 247.085 -3.44116 0.26043 0
M  V30 2721 C 246.198 -4.10268 1.35293 0
M  V30 2722 C 245.333 -5.25507 0.775621 0
M  V30 2723 C 244.372 -5.83567 1.84706 0
M  V30 2724 N 243.509 -6.90179 1.28829 0
M  V30 2725 H 248.349 -2.44163 1.70846 0
M  V30 2726 H 245.886 -1.19846 0.85295 0
M  V30 2727 H 247.844 -4.17143 -0.0686814 0
M  V30 2728 H 246.474 -3.16901 -0.614274 0
M  V30 2729 H 245.526 -3.35184 1.79877 0
M  V30 2730 H 246.838 -4.4946 2.16303 0
M  V30 2731 H 245.992 -6.05398 0.397327 0
M  V30 2732 H 244.731 -4.87656 -0.0656581 0
M  V30 2733 H 243.736 -5.02344 2.23452 0
M  V30 2734 H 244.961 -6.23482 2.69161 0
M  V30 2735 H 242.907 -6.54322 0.468881 0
M  V30 2736 H 242.824 -7.28097 2.03497 0
M  V30 2737 H 244.092 -7.73844 0.937311 0
M  V30 2738 N 248.321 -0.919034 -1.28029 0
M  V30 2739 C 249.268 -0.410005 -2.27129 0
M  V30 2740 C 250.238 0.518405 -1.57803 0
M  V30 2741 O 251.423 0.439451 -1.8567 0
M  V30 2742 C 248.563 0.339054 -3.4343 0
M  V30 2743 C 247.676 -0.622468 -4.27492 0
M  V30 2744 C 246.811 0.145567 -5.31001 0
M  V30 2745 C 245.85 -0.809226 -6.06727 0
M  V30 2746 N 244.987 -0.0743728 -7.02061 0
M  V30 2747 H 249.827 -1.26011 -2.70047 0
M  V30 2748 H 247.364 -0.632663 -1.328 0
M  V30 2749 H 249.322 0.789586 -4.0966 0
M  V30 2750 H 247.952 1.15346 -3.01488 0
M  V30 2751 H 247.004 -1.19153 -3.61257 0
M  V30 2752 H 248.316 -1.35252 -4.80113 0
M  V30 2753 H 247.47 0.656417 -6.03139 0
M  V30 2754 H 246.209 0.908643 -4.79161 0
M  V30 2755 H 245.214 -1.3314 -5.33436 0
M  V30 2756 H 246.439 -1.57194 -6.60656 0
M  V30 2757 H 244.385 0.670616 -6.52563 0
M  V30 2758 H 244.302 -0.744157 -7.52329 0
M  V30 2759 H 245.57 0.416109 -7.78389 0
M  V30 2760 N 249.799 1.42003 -0.683588 0
M  V30 2761 C 251.076 1.95112 -0.138075 0
M  V30 2762 C 251.456 1.62359 1.34918 0
M  V30 2763 O 250.804 0.924311 2.08971 0
M  V30 2764 C 251.014 3.46505 -0.416581 0
M  V30 2765 C 252.362 4.23254 -0.337834 0
M  V30 2766 O 253.386 3.54468 -0.35082 0
M  V30 2767 O 252.245 5.45743 -0.287596 0
M  V30 2768 H 249.339 0.826961 -0.00797996 0
M  V30 2769 H 251.885 1.51784 -0.758924 0
M  V30 2770 H 250.657 3.63582 -1.4465 0
M  V30 2771 H 250.28 3.969 0.235839 0
M  V30 2772 N 251.277 0.427512 1.51691 0
M  V30 2773 C 252.505 -0.141191 2.06418 0
M  V30 2774 C 252.92 -1.37303 1.29589 0
M  V30 2775 O 252.277 -1.79059 0.352732 0
M  V30 2776 C 252.328 -0.473266 3.58389 0
M  V30 2777 O 252.049 0.709673 4.32314 0
M  V30 2778 C 253.55 -1.09371 4.29596 0
M  V30 2779 H 250.77 -0.0122747 0.670888 0
M  V30 2780 H 253.314 0.603764 1.95384 0
M  V30 2781 H 251.469 -1.16812 3.69369 0
M  V30 2782 H 251.883 0.42807 5.2275 0
M  V30 2783 H 253.357 -1.27613 5.37046 0
M  V30 2784 H 253.834 -2.072 3.87253 0
M  V30 2785 H 254.44 -0.43853 4.23033 0
M  V30 2786 N 252.755 -1.56801 0.158532 0
M  V30 2787 C 253.98 -2.01295 -0.499516 0
M  V30 2788 C 254.405 -1.03799 -1.56867 0
M  V30 2789 O 253.763 -0.0155162 -1.81293 0
M  V30 2790 C 253.811 -3.44469 -1.06647 0
M  V30 2791 O 252.915 -3.50012 -2.18095 0
M  V30 2792 H 252.256 -0.652884 -0.12099 0
M  V30 2793 H 254.786 -2.02958 0.258661 0
M  V30 2794 H 254.796 -3.8351 -1.39227 0
M  V30 2795 H 253.471 -4.14932 -0.283581 0
M  V30 2796 H 252.048 -3.22822 -1.86656 0
M  V30 2797 N 254.233 0.115231 -1.57178 0
M  V30 2798 C 255.461 0.836437 -1.89239 0
M  V30 2799 C 255.876 1.73256 -0.750175 0
M  V30 2800 O 255.233 1.80357 0.278832 0
M  V30 2801 C 255.284 1.66671 -3.20785 0
M  V30 2802 O 255.005 0.806652 -4.3061 0
M  V30 2803 C 256.506 2.49274 -3.66575 0
M  V30 2804 H 253.726 0.240253 -0.626514 0
M  V30 2805 H 256.27 0.0984932 -2.04263 0
M  V30 2806 H 254.425 2.35737 -3.0742 0
M  V30 2807 H 254.839 1.37969 -5.06028 0
M  V30 2808 H 256.313 3.03055 -4.6137 0
M  V30 2809 H 256.79 3.26807 -2.93417 0
M  V30 2810 H 257.396 1.85443 -3.82741 0
M  V30 2811 N 255.711 1.52812 0.385517 0
M  V30 2812 C 257.122 1.5993 0.963293 0
M  V30 2813 C 257.473 0.454302 1.90868 0
M  V30 2814 O 256.598 -0.422132 2.12243 0
M  V30 2815 C 257.193 2.89871 1.75387 0
M  V30 2816 C 255.752 2.99389 2.28129 0
M  V30 2817 C 254.899 2.55071 1.08783 0
M  V30 2818 H 257.85 1.5784 0.164948 0
M  V30 2819 H 257.871 2.76553 2.61341 0
M  V30 2820 H 257.383 3.73186 1.06554 0
M  V30 2821 H 255.484 2.20619 3.00263 0
M  V30 2822 H 255.597 4.04096 2.57377 0
M  V30 2823 H 253.961 2.09473 1.4489 0
M  V30 2824 H 254.744 3.40785 0.414807 0
M  V30 2825 N 257.189 -0.644168 1.43834 0
M  V30 2826 C 258.152 -1.73857 1.49353 0
M  V30 2827 C 259.152 -1.56315 0.377112 0
M  V30 2828 O 260.342 -1.62048 0.639226 0
M  V30 2829 C 257.474 -3.12819 1.35488 0
M  V30 2830 H 258.667 -1.70342 2.46827 0
M  V30 2831 H 256.22 -0.856652 1.30733 0
M  V30 2832 H 256.955 -3.2194 0.390569 0
M  V30 2833 H 256.74 -3.26958 2.16428 0
M  V30 2834 H 258.23 -3.92606 1.42302 0
M  V30 2835 N 258.668 -1.30515 -0.883378 0
M  V30 2836 C 259.631 -1.1701 -1.97082 0
M  V30 2837 C 260.631 -0.10089 -1.60483 0
M  V30 2838 O 261.821 -0.349127 -1.70666 0
M  V30 2839 C 258.953 -0.793045 -3.31547 0
M  V30 2840 H 260.146 -2.13622 -2.10489 0
M  V30 2841 H 257.699 -1.13935 -1.06998 0
M  V30 2842 H 258.434 0.172499 -3.23841 0
M  V30 2843 H 258.219 -1.56576 -3.5948 0
M  V30 2844 H 259.709 -0.722073 -4.1131 0
M  V30 2845 N 260.146 1.09593 -1.13257 0
M  V30 2846 C 261.393 1.81734 -0.893257 0
M  V30 2847 C 261.721 1.8563 0.580656 0
M  V30 2848 O 260.976 1.31906 1.44566 0
M  V30 2849 C 261.275 3.27802 -1.42411 0
M  V30 2850 C 260.941 3.44041 -2.91456 0
M  V30 2851 C 259.603 3.48181 -3.3215 0
M  V30 2852 C 261.955 3.48719 -3.87356 0
M  V30 2853 C 259.283 3.54575 -4.67433 0
M  V30 2854 C 261.635 3.56648 -5.2248 0
M  V30 2855 C 260.299 3.59055 -5.62704 0
M  V30 2856 H 259.569 0.665011 -0.326866 0
M  V30 2857 H 262.216 1.2912 -1.41422 0
M  V30 2858 H 260.521 3.83042 -0.823795 0
M  V30 2859 H 262.218 3.82149 -1.21503 0
M  V30 2860 H 258.808 3.41502 -2.58987 0
M  V30 2861 H 262.992 3.44763 -3.57004 0
M  V30 2862 H 258.248 3.54725 -4.97976 0
M  V30 2863 H 262.422 3.59212 -5.96607 0
M  V30 2864 H 260.049 3.63763 -6.67518 0
M  V30 2865 N 261.624 0.925811 1.2754 0
M  V30 2866 C 262.872 0.564138 1.94067 0
M  V30 2867 C 263.193 -0.897188 1.73134 0
M  V30 2868 O 262.463 -1.63573 1.07799 0
M  V30 2869 H 261.043 0.205645 0.718136 0
M  V30 2870 H 263.705 1.1778 1.55287 0
M  V30 2871 H 262.801 0.76881 3.02483 0
M  V30 2872 N 263.102 -1.41638 0.69111 0
M  V30 2873 C 264.049 -2.30789 0.0229705 0
M  V30 2874 C 265.019 -1.46863 -0.775911 0
M  V30 2875 O 266.204 -1.75661 -0.74485 0
M  V30 2876 C 263.344 -3.32868 -0.910666 0
M  V30 2877 C 262.457 -4.31875 -0.103874 0
M  V30 2878 C 261.592 -5.21024 -1.03475 0
M  V30 2879 C 260.631 -6.11702 -0.220598 0
M  V30 2880 N 259.768 -6.93349 -1.10504 0
M  V30 2881 H 264.608 -2.87366 0.788978 0
M  V30 2882 H 262.145 -1.41535 0.400794 0
M  V30 2883 H 264.103 -3.90596 -1.46597 0
M  V30 2884 H 262.733 -2.77851 -1.64312 0
M  V30 2885 H 261.785 -3.76131 0.568285 0
M  V30 2886 H 263.097 -4.96003 0.527504 0
M  V30 2887 H 262.251 -5.83565 -1.65943 0
M  V30 2888 H 260.99 -4.57112 -1.69999 0
M  V30 2889 H 259.995 -5.48215 0.417187 0
M  V30 2890 H 261.22 -6.77668 0.440784 0
M  V30 2891 H 259.166 -6.3205 -1.75638 0
M  V30 2892 H 259.083 -7.54146 -0.529125 0
M  V30 2893 H 260.351 -7.60362 -1.71667 0
M  V30 2894 N 264.58 -0.43555 -1.51462 0
M  V30 2895 C 265.808 0.130242 -2.0649 0
M  V30 2896 C 266.223 1.36614 -1.30315 0
M  V30 2897 O 265.58 1.78869 -0.362223 0
M  V30 2898 C 265.631 0.454253 -3.58635 0
M  V30 2899 O 265.352 -0.73259 -4.31931 0
M  V30 2900 C 266.853 1.07091 -4.3017 0
M  V30 2901 H 264.073 0.00871669 -0.670943 0
M  V30 2902 H 266.617 -0.614117 -1.95061 0
M  V30 2903 H 264.772 1.14851 -3.69984 0
M  V30 2904 H 265.186 -0.455787 -5.22516 0
M  V30 2905 H 266.66 1.24764 -5.37716 0
M  V30 2906 H 267.137 2.05144 -3.88346 0
M  V30 2907 H 267.743 0.416089 -4.2326 0
M  V30 2908 N 266.058 1.56714 -0.166846 0
M  V30 2909 C 266.988 2.20754 0.760913 0
M  V30 2910 C 267.969 1.16178 1.24244 0
M  V30 2911 O 269.154 1.44592 1.29641 0
M  V30 2912 C 266.284 2.84478 1.99223 0
M  V30 2913 C 265.238 3.95053 1.64672 0
M  V30 2914 C 264.564 4.45805 2.95232 0
M  V30 2915 C 265.864 5.14865 0.878155 0
M  V30 2916 H 267.558 2.98537 0.22713 0
M  V30 2917 H 265.104 1.43596 0.107805 0
M  V30 2918 H 267.057 3.27951 2.64624 0
M  V30 2919 H 265.781 2.04056 2.55007 0
M  V30 2920 H 264.44 3.52228 1.01641 0
M  V30 2921 H 264.088 3.62181 3.49047 0
M  V30 2922 H 263.788 5.204 2.7287 0
M  V30 2923 H 265.312 4.91962 3.6167 0
M  V30 2924 H 266.726 5.55059 1.43466 0
M  V30 2925 H 265.123 5.95348 0.753738 0
M  V30 2926 H 266.193 4.84735 -0.126377 0
M  V30 2927 N 267.536 -0.106894 1.57237 0
M  V30 2928 C 268.484 -1.14944 2.02215 0
M  V30 2929 C 269.478 -1.42167 0.92114 0
M  V30 2930 O 270.684 -1.41987 1.10634 0
M  V30 2931 H 267.059 -0.387841 0.64427 0
M  V30 2932 H 269.03 -0.743683 2.88984 0
M  V30 2933 C 267.779 -2.4647 2.4525 0
M  V30 2934 H 267.102 -2.26363 3.29545 0
M  V30 2935 H 268.542 -3.17948 2.80508 0
M  V30 2936 C 267.001 -3.09921 1.321 0
M  V30 2937 O 267.531 -3.9651 0.643622 0
M  V30 2938 N 265.737 -2.69986 1.07497 0
M  V30 2939 H 265.284 -1.99667 1.62761 0
M  V30 2940 H 265.242 -3.12769 0.319876 0
M  V30 2941 N 269.014 -1.53014 -0.377408 0
M  V30 2942 C 269.961 -1.78616 -1.46168 0
M  V30 2943 C 270.931 -0.629917 -1.53692 0
M  V30 2944 O 272.116 -0.870861 -1.69766 0
M  V30 2945 C 269.256 -1.97123 -2.8326 0
M  V30 2946 C 268.369 -3.24831 -2.84796 0
M  V30 2947 C 267.504 -3.33591 -4.13389 0
M  V30 2948 C 266.543 -4.55377 -4.09021 0
M  V30 2949 N 265.68 -4.61355 -5.29241 0
M  V30 2950 H 270.52 -2.71142 -1.23637 0
M  V30 2951 H 268.057 -1.34326 -0.599577 0
M  V30 2952 H 270.015 -2.05839 -3.62886 0
M  V30 2953 H 268.645 -1.07946 -3.04216 0
M  V30 2954 H 267.697 -3.25128 -1.97474 0
M  V30 2955 H 269.009 -4.14523 -2.77439 0
M  V30 2956 H 268.163 -3.41554 -5.01424 0
M  V30 2957 H 266.902 -2.41894 -4.23484 0
M  V30 2958 H 265.907 -4.47527 -3.19373 0
M  V30 2959 H 267.132 -5.48402 -4.00539 0
M  V30 2960 H 265.078 -3.72554 -5.39944 0
M  V30 2961 H 264.995 -5.44935 -5.24006 0
M  V30 2962 H 266.263 -4.73586 -6.19141 0
M  V30 2963 N 270.492 0.636531 -1.44174 0
M  V30 2964 C 271.422 1.76003 -1.53444 0
M  V30 2965 C 272.403 1.65619 -0.387841 0
M  V30 2966 O 273.588 1.84461 -0.607257 0
M  V30 2967 C 270.718 3.14511 -1.4731 0
M  V30 2968 C 269.672 3.39677 -2.60391 0
M  V30 2969 C 268.998 4.78159 -2.39308 0
M  V30 2970 C 270.298 3.32772 -4.02567 0
M  V30 2971 H 271.992 1.68501 -2.47483 0
M  V30 2972 H 269.538 0.809237 -1.19111 0
M  V30 2973 H 271.491 3.92878 -1.52397 0
M  V30 2974 H 270.215 3.22783 -0.49785 0
M  V30 2975 H 268.874 2.63688 -2.54684 0
M  V30 2976 H 268.522 4.83128 -1.39988 0
M  V30 2977 H 268.222 4.95956 -3.15122 0
M  V30 2978 H 269.746 5.58762 -2.46205 0
M  V30 2979 H 271.16 4.01051 -4.09672 0
M  V30 2980 H 269.557 3.62104 -4.7854 0
M  V30 2981 H 270.627 2.30669 -4.2652 0
M  V30 2982 N 271.97 1.30982 0.876444 0
M  V30 2983 C 273.219 1.19658 1.62373 0
M  V30 2984 C 273.532 -0.245636 1.94052 0
M  V30 2985 O 274.738 -0.48049 2.67214 0
M  V30 2986 C 273.194 2.09433 2.92687 0
M  V30 2987 C 272.802 3.58613 2.68516 0
M  V30 2988 C 274.546 2.06893 3.70669 0
M  V30 2989 C 272.453 4.40416 3.94699 0
M  V30 2990 H 271.383 0.444268 0.609214 0
M  V30 2991 H 274.034 1.55791 0.969605 0
M  V30 2992 H 272.416 1.66191 3.59439 0
M  V30 2993 H 273.59 4.10058 2.10212 0
M  V30 2994 H 271.905 3.63063 2.03898 0
M  V30 2995 H 274.502 2.65258 4.64265 0
M  V30 2996 H 274.845 1.05448 4.02724 0
M  V30 2997 H 275.378 2.48301 3.10792 0
M  V30 2998 H 272.117 5.42591 3.67798 0
M  V30 2999 H 271.637 3.93731 4.52477 0
M  V30 3000 H 273.316 4.52294 4.62644 0
M  V30 3001 N 273.449 -1.08991 1.13837 0
M  V30 3002 C 274.412 -2.13925 0.822715 0
M  V30 3003 C 275.412 -1.599 -0.1699 0
M  V30 3004 O 276.602 -1.74104 0.0577251 0
M  V30 3005 C 273.734 -3.40155 0.225318 0
M  V30 3006 H 274.927 -2.43358 1.75262 0
M  V30 3007 H 272.48 -1.24603 0.943594 0
M  V30 3008 H 273.215 -3.16352 -0.713594 0
M  V30 3009 H 273 -3.80661 0.940193 0
M  V30 3010 H 274.49 -4.17594 0.0214784 0
M  V30 3011 N 274.927 -0.932562 -1.27047 0
M  V30 3012 C 275.875 -0.42603 -2.28665 0
M  V30 3013 C 276.869 0.49219 -1.62092 0
M  V30 3014 O 278.075 0.371355 -1.76128 0
M  V30 3015 H 274.45 -0.119213 -0.742491 0
M  V30 3016 H 276.421 -1.29579 -2.68797 0
M  V30 3017 C 275.17 0.301426 -3.46391 0
M  V30 3018 H 274.493 -0.39595 -3.97834 0
M  V30 3019 H 275.933 0.6202 -4.1944 0
M  V30 3020 C 274.392 1.51616 -3.00856 0
M  V30 3021 O 274.922 2.61476 -3.04948 0
M  V30 3022 N 273.128 1.36969 -2.56296 0
M  V30 3023 H 272.675 0.475873 -2.53166 0
M  V30 3024 H 272.633 2.18368 -2.26192 0
M  V30 3025 N 276.405 1.4127 -0.698611 0
M  V30 3026 C 277.653 2.00782 -0.230409 0
M  V30 3027 C 277.974 1.5562 1.17505 0
M  V30 3028 O 277.244 0.78815 1.79346 0
M  V30 3029 H 275.824 0.742464 -0.0821944 0
M  V30 3030 H 278.486 1.72852 -0.90045 0
M  V30 3031 H 277.582 3.11095 -0.25021 0
M  V30 3032 N 277.883 0.443576 1.51229 0
M  V30 3033 C 278.83 -0.364716 2.279 0
M  V30 3034 C 279.8 -1.0114 1.31757 0
M  V30 3035 O 280.985 -1.02912 1.60667 0
M  V30 3036 C 278.125 -1.45644 3.12861 0
M  V30 3037 C 277.238 -0.827269 4.24005 0
M  V30 3038 C 276.373 -1.89456 4.96266 0
M  V30 3039 C 275.412 -1.24416 5.99322 0
M  V30 3040 N 274.549 -2.25309 6.64966 0
M  V30 3041 H 279.389 0.295464 2.96532 0
M  V30 3042 H 276.926 0.157554 1.46254 0
M  V30 3043 H 278.884 -2.10076 3.6045 0
M  V30 3044 H 277.514 -2.08616 2.46331 0
M  V30 3045 H 276.566 -0.0710839 3.80334 0
M  V30 3046 H 277.878 -0.312481 4.9782 0
M  V30 3047 H 277.032 -2.61535 5.47434 0
M  V30 3048 H 275.771 -2.4431 4.22095 0
M  V30 3049 H 274.776 -0.508868 5.4744 0
M  V30 3050 H 276.001 -0.702882 6.75453 0
M  V30 3051 H 273.947 -2.79231 5.93604 0
M  V30 3052 H 273.864 -1.78739 7.34567 0
M  V30 3053 H 275.132 -2.96853 7.20763 0
M  V30 3054 N 279.361 -1.56624 0.175154 0
M  V30 3055 C 280.291 -2.21155 -0.749195 0
M  V30 3056 C 281.272 -1.16836 -1.23626 0
M  V30 3057 O 282.457 -1.45277 -1.28873 0
M  V30 3058 C 279.587 -2.8553 -1.97711 0
M  V30 3059 C 278.541 -3.95921 -1.62575 0
M  V30 3060 C 277.867 -4.47365 -2.92864 0
M  V30 3061 C 279.167 -5.15323 -0.850838 0
M  V30 3062 H 280.861 -2.98653 -0.211295 0
M  V30 3063 H 278.407 -1.43651 -0.100188 0
M  V30 3064 H 280.36 -3.2935 -2.62881 0
M  V30 3065 H 279.084 -2.05406 -2.53921 0
M  V30 3066 H 277.743 -3.52762 -0.997719 0
M  V30 3067 H 277.391 -3.64027 -3.47122 0
M  V30 3068 H 277.091 -5.21839 -2.70106 0
M  V30 3069 H 278.615 -4.93873 -3.59056 0
M  V30 3070 H 280.029 -5.55812 -1.40521 0
M  V30 3071 H 278.426 -5.95739 -0.722154 0
M  V30 3072 H 279.496 -4.84661 0.152082 0
M  V30 3073 N 280.839 0.0985539 -1.57292 0
M  V30 3074 C 282.064 0.820196 -1.90493 0
M  V30 3075 C 282.489 1.71658 -0.769094 0
M  V30 3076 O 281.847 1.79133 0.279495 0
M  V30 3077 C 281.895 1.61242 -3.22542 0
M  V30 3078 O 280.999 2.72108 -3.09888 0
M  V30 3079 H 280.34 0.225547 -0.62452 0
M  V30 3080 H 282.87 0.0748159 -2.04463 0
M  V30 3081 H 282.88 1.99737 -3.55766 0
M  V30 3082 H 281.555 0.954535 -4.04798 0
M  V30 3083 H 280.132 2.36667 -2.88172 0
M  V30 3084 N 282.317 1.53212 0.369288 0
M  V30 3085 C 283.264 1.79388 1.45219 0
M  V30 3086 C 284.234 0.638059 1.53356 0
M  V30 3087 O 285.419 0.879852 1.69302 0
M  V30 3088 C 282.559 1.98623 2.82211 0
M  V30 3089 C 281.672 3.26337 2.8307 0
M  V30 3090 C 280.807 3.35779 4.11614 0
M  V30 3091 C 279.846 4.5754 4.06601 0
M  V30 3092 N 278.983 4.64155 5.26787 0
M  V30 3093 H 283.823 2.71794 1.22198 0
M  V30 3094 H 281.36 1.34642 0.592444 0
M  V30 3095 H 283.318 2.07761 3.61789 0
M  V30 3096 H 281.948 1.09558 3.03639 0
M  V30 3097 H 281 3.26171 1.95747 0
M  V30 3098 H 282.312 4.15988 2.75237 0
M  V30 3099 H 281.466 3.44208 4.99606 0
M  V30 3100 H 280.205 2.44137 4.22195 0
M  V30 3101 H 279.21 4.49215 3.16996 0
M  V30 3102 H 280.435 5.50519 3.97625 0
M  V30 3103 H 278.381 3.75413 5.3796 0
M  V30 3104 H 278.298 5.47706 5.21109 0
M  V30 3105 H 279.566 4.76863 6.16621 0
M  V30 3106 N 283.795 -0.628877 1.44509 0
M  V30 3107 C 284.705 -1.7694 1.54044 0
M  V30 3108 C 285.721 -1.68705 0.425987 0
M  V30 3109 O 286.897 -1.89442 0.683656 0
M  V30 3110 C 283.962 -3.13332 1.48405 0
M  V30 3111 C 283.023 -3.33181 2.70719 0
M  V30 3112 C 282.256 -4.63067 2.6534 0
M  V30 3113 O 282.479 -5.44017 1.71469 0
M  V30 3114 O 281.413 -4.85167 3.56226 0
M  V30 3115 H 285.239 -1.71848 2.50403 0
M  V30 3116 H 282.824 -0.790378 1.26781 0
M  V30 3117 H 284.706 -3.94634 1.47791 0
M  V30 3118 H 283.381 -3.1896 0.551898 0
M  V30 3119 H 282.288 -2.51549 2.769 0
M  V30 3120 H 283.621 -3.32416 3.62988 0
M  V30 3121 N 285.273 -1.31445 -0.869486 0
M  V30 3122 C 286.221 -1.19067 -1.99814 0
M  V30 3123 C 287.215 -0.0988569 -1.69111 0
M  V30 3124 O 288.421 -0.260781 -1.78101 0
M  V30 3125 H 284.796 -0.368677 -0.655425 0
M  V30 3126 H 286.767 -2.14555 -2.07385 0
M  V30 3127 C 285.516 -0.915323 -3.35436 0
M  V30 3128 H 284.839 -1.74759 -3.59582 0
M  V30 3129 H 286.279 -0.868895 -4.15001 0
M  V30 3130 C 284.738 0.381928 -3.34728 0
M  V30 3131 O 285.268 1.39857 -3.76567 0
M  V30 3132 N 283.474 0.398633 -2.87853 0
M  V30 3133 H 283.021 -0.429186 -2.54 0
M  V30 3134 H 282.979 1.26651 -2.87762 0
M  V30 3135 N 286.751 1.08385 -1.14413 0
M  V30 3136 C 287.698 2.15311 -0.831265 0
M  V30 3137 C 288.668 1.64751 0.211292 0
M  V30 3138 O 289.853 1.90627 0.0811674 0
M  V30 3139 C 286.993 3.43658 -0.315143 0
M  V30 3140 C 286.106 4.08064 -1.41802 0
M  V30 3141 C 285.241 5.24207 -0.859126 0
M  V30 3142 C 284.28 5.80554 -1.93967 0
M  V30 3143 N 283.417 6.88042 -1.39793 0
M  V30 3144 H 288.257 2.41415 -1.74708 0
M  V30 3145 H 285.794 1.18474 -0.871909 0
M  V30 3146 H 287.752 4.172 0.00230884 0
M  V30 3147 H 286.382 3.17839 0.56378 0
M  V30 3148 H 285.434 3.3228 -1.85187 0
M  V30 3149 H 286.746 4.45962 -2.23427 0
M  V30 3150 H 285.9 6.04689 -0.49359 0
M  V30 3151 H 284.639 4.87699 -0.011932 0
M  V30 3152 H 283.644 4.98725 -2.31415 0
M  V30 3153 H 284.869 6.19121 -2.79046 0
M  V30 3154 H 282.815 6.53493 -0.572919 0
M  V30 3155 H 282.732 7.24767 -2.15054 0
M  V30 3156 H 284 7.72255 -1.0603 0
M  V30 3157 N 288.23 0.939286 1.26551 0
M  V30 3158 C 289.177 0.446088 2.26448 0
M  V30 3159 C 290.147 -0.493234 1.58608 0
M  V30 3160 O 291.332 -0.409857 1.86346 0
M  V30 3161 C 288.472 -0.284375 3.43926 0
M  V30 3162 C 287.585 0.690399 4.26448 0
M  V30 3163 C 286.72 -0.0610712 5.31165 0
M  V30 3164 C 285.759 0.905649 6.05363 0
M  V30 3165 N 284.896 0.186055 7.01853 0
M  V30 3166 H 289.736 1.30291 2.68008 0
M  V30 3167 H 287.273 0.65371 1.31776 0
M  V30 3168 H 289.231 -0.724313 4.10864 0
M  V30 3169 H 287.861 -1.10535 3.03285 0
M  V30 3170 H 286.913 1.24885 3.59316 0
M  V30 3171 H 288.225 1.42873 4.779 0
M  V30 3172 H 287.379 -0.56038 6.04106 0
M  V30 3173 H 286.118 -0.832297 4.80546 0
M  V30 3174 H 285.123 1.4161 5.3125 0
M  V30 3175 H 286.348 1.67685 6.58072 0
M  V30 3176 H 284.294 -0.566714 6.53548 0
M  V30 3177 H 284.211 0.863752 7.51049 0
M  V30 3178 H 285.479 -0.292221 7.78952 0
M  V30 3179 N 289.708 -1.40897 0.706093 0
M  V30 3180 C 290.955 -2.01054 0.241531 0
M  V30 3181 C 291.283 -1.55956 -1.16223 0
M  V30 3182 O 290.538 -0.766336 -1.80072 0
M  V30 3183 C 290.837 -3.5646 0.259099 0
M  V30 3184 C 290.503 -4.21106 1.61184 0
M  V30 3185 C 289.165 -4.38479 1.98216 0
M  V30 3186 C 291.517 -4.57256 2.50132 0
M  V30 3187 C 288.845 -4.89282 3.2376 0
M  V30 3188 C 291.197 -5.09454 3.7502 0
M  V30 3189 C 289.861 -5.25037 4.12181 0
M  V30 3190 H 289.131 -0.73571 0.0883825 0
M  V30 3191 H 291.778 -1.68645 0.907257 0
M  V30 3192 H 290.083 -3.88721 -0.490189 0
M  V30 3193 H 291.78 -4.00826 -0.11804 0
M  V30 3194 H 288.37 -4.07966 1.31384 0
M  V30 3195 H 292.554 -4.43479 2.228 0
M  V30 3196 H 287.81 -4.99531 3.52532 0
M  V30 3197 H 291.984 -5.36404 4.44121 0
M  V30 3198 H 289.611 -5.64164 5.09532 0
M  V30 3199 N 291.186 -0.45159 -1.50991 0
M  V30 3200 C 292.116 0.342898 -2.30969 0
M  V30 3201 C 293.097 1.00815 -1.37005 0
M  V30 3202 O 294.282 1.00907 -1.65926 0
M  V30 3203 C 291.412 1.43637 -3.16205 0
M  V30 3204 C 290.366 0.893818 -4.18563 0
M  V30 3205 C 289.692 2.08411 -4.92411 0
M  V30 3206 C 290.992 -0.0815568 -5.22236 0
M  V30 3207 H 292.686 -0.324556 -2.97636 0
M  V30 3208 H 290.232 -0.157531 -1.43136 0
M  V30 3209 H 292.185 1.9995 -3.70942 0
M  V30 3210 H 290.909 2.13232 -2.47386 0
M  V30 3211 H 289.568 0.352798 -3.64898 0
M  V30 3212 H 289.216 2.76658 -4.20082 0
M  V30 3213 H 288.916 1.72741 -5.61636 0
M  V30 3214 H 290.44 2.65251 -5.49976 0
M  V30 3215 H 291.854 0.391742 -5.7196 0
M  V30 3216 H 290.251 -0.351551 -5.99069 0
M  V30 3217 H 291.321 -1.01374 -4.74185 0
M  V30 3218 N 292.664 1.56529 -0.183458 0
M  V30 3219 C 293.594 2.21549 0.737456 0
M  V30 3220 C 294.575 1.17489 1.23005 0
M  V30 3221 O 295.76 1.45959 1.281 0
M  V30 3222 C 292.89 2.86575 1.96194 0
M  V30 3223 C 291.844 3.96778 1.60473 0
M  V30 3224 C 291.17 4.48911 2.90487 0
M  V30 3225 C 292.47 5.15767 0.823497 0
M  V30 3226 H 294.164 2.98761 0.195453 0
M  V30 3227 H 291.71 1.43702 0.0925686 0
M  V30 3228 H 293.663 3.30739 2.61131 0
M  V30 3229 H 292.387 2.06749 2.52828 0
M  V30 3230 H 291.046 3.53286 0.978997 0
M  V30 3231 H 290.694 3.65862 3.45186 0
M  V30 3232 H 290.394 5.23265 2.67335 0
M  V30 3233 H 291.918 4.95771 3.56432 0
M  V30 3234 H 293.332 5.56549 1.37571 0
M  V30 3235 H 291.729 5.96114 0.690551 0
M  V30 3236 H 292.799 4.84574 -0.177782 0
M  V30 3237 N 294.142 -0.090211 1.57342 0
M  V30 3238 C 295.419 -0.824761 1.77361 0
M  V30 3239 C 295.799 -1.96698 0.76637 0
M  V30 3240 O 295.147 -2.27586 -0.204179 0
M  V30 3241 C 295.357 -1.31481 3.23286 0
M  V30 3242 C 296.705 -1.75563 3.86604 0
M  V30 3243 O 297.729 -1.41093 3.27065 0
M  V30 3244 O 296.588 -2.39317 4.91314 0
M  V30 3245 H 293.682 -0.393776 0.727234 0
M  V30 3246 H 296.228 -0.0717138 1.69548 0
M  V30 3247 H 295 -0.496671 3.88135 0
M  V30 3248 H 294.623 -2.12973 3.35751 0
M  V30 3249 N 295.62 -1.53406 -0.361157 0
M  V30 3250 C 296.55 -1.83136 -1.44857 0
M  V30 3251 C 297.531 -0.685174 -1.5569 0
M  V30 3252 O 298.716 -0.93544 -1.70186 0
M  V30 3253 C 295.846 -2.02522 -2.82138 0
M  V30 3254 C 294.8 -3.18302 -2.86126 0
M  V30 3255 C 294.126 -3.22989 -4.26125 0
M  V30 3256 C 295.426 -4.56796 -2.53248 0
M  V30 3257 H 297.12 -2.74201 -1.20226 0
M  V30 3258 H 294.666 -1.31938 -0.576922 0
M  V30 3259 H 296.619 -2.21904 -3.58241 0
M  V30 3260 H 295.343 -1.08172 -3.08166 0
M  V30 3261 H 294.002 -2.98747 -2.12475 0
M  V30 3262 H 293.65 -2.26267 -4.49235 0
M  V30 3263 H 293.35 -4.00781 -4.29708 0
M  V30 3264 H 294.874 -3.44559 -5.04094 0
M  V30 3265 H 296.288 -4.7631 -3.19064 0
M  V30 3266 H 294.685 -5.36862 -2.68141 0
M  V30 3267 H 295.755 -4.61606 -1.48484 0
M  V30 3268 N 297.098 0.621204 -1.44841 0
M  V30 3269 C 298.031 1.7459 -1.46947 0
M  V30 3270 C 299.009 1.59273 -0.327238 0
M  V30 3271 O 300.193 1.81021 -0.525706 0
M  V30 3272 C 297.32 3.12274 -1.31159 0
M  V30 3273 C 296.366 3.46216 -2.49072 0
M  V30 3274 S 297.199 3.4258 -4.11581 0
M  V30 3275 C 298.355 4.82867 -3.98233 0
M  V30 3276 H 298.588 1.72538 -2.42111 0
M  V30 3277 H 296.121 0.796683 -1.32259 0
M  V30 3278 H 298.079 3.91722 -1.22737 0
M  V30 3279 H 296.74 3.11855 -0.374885 0
M  V30 3280 H 295.933 4.4643 -2.33915 0
M  V30 3281 H 295.535 2.74253 -2.54286 0
M  V30 3282 H 297.827 5.7234 -3.62537 0
M  V30 3283 H 298.77 5.0308 -4.98313 0
M  V30 3284 H 299.178 4.57908 -3.30121 0
M  V30 3285 N 298.576 1.31904 0.862503 0
M  V30 3286 C 299.506 1.22782 1.98612 0
M  V30 3287 C 300.487 0.113362 1.69722 0
M  V30 3288 O 301.672 0.299218 1.91881 0
M  V30 3289 C 298.802 0.942058 3.34279 0
M  V30 3290 C 297.756 2.0169 3.77499 0
M  V30 3291 C 297.082 1.58369 5.10709 0
M  V30 3292 C 298.382 3.43096 3.93805 0
M  V30 3293 H 300.076 2.16788 2.06502 0
M  V30 3294 H 297.622 1.04366 0.992154 0
M  V30 3295 H 299.575 0.864818 4.1243 0
M  V30 3296 H 298.299 -0.0336603 3.26583 0
M  V30 3297 H 296.958 2.08416 3.01593 0
M  V30 3298 H 296.606 0.595628 4.99461 0
M  V30 3299 H 296.306 2.30279 5.40597 0
M  V30 3300 H 297.83 1.52067 5.91361 0
M  V30 3301 H 299.244 3.39003 4.62331 0
M  V30 3302 H 297.641 4.13288 4.35101 0
M  V30 3303 H 298.711 3.83334 2.96957 0
M  V30 3304 N 300.054 -1.07777 1.14986 0
M  V30 3305 C 301.002 -2.16964 0.838406 0
M  V30 3306 C 301.996 -1.68372 -0.186386 0
M  V30 3307 O 303.202 -1.79951 -0.0418465 0
M  V30 3308 H 299.577 -0.708006 0.253439 0
M  V30 3309 H 301.548 -2.40454 1.76704 0
M  V30 3310 C 300.297 -3.4604 0.339335 0
M  V30 3311 H 299.62 -3.83813 1.11927 0
M  V30 3312 H 301.06 -4.23698 0.160021 0
M  V30 3313 C 299.519 -3.23569 -0.938325 0
M  V30 3314 O 300.049 -3.47752 -2.01077 0
M  V30 3315 N 298.255 -2.77079 -0.876117 0
M  V30 3316 H 297.802 -2.576 -0.00322037 0
M  V30 3317 H 297.76 -2.62422 -1.73153 0
M  V30 3318 N 301.532 -0.945985 -1.26051 0
M  V30 3319 C 302.48 -0.450259 -2.282 0
M  V30 3320 C 303.474 0.47497 -1.62605 0
M  V30 3321 O 304.68 0.352653 -1.76512 0
M  V30 3322 H 301.055 -0.127081 -0.741184 0
M  V30 3323 H 303.026 -1.32422 -2.67408 0
M  V30 3324 C 301.775 0.26467 -3.46691 0
M  V30 3325 H 301.098 -0.438123 -3.97392 0
M  V30 3326 H 302.538 0.575678 -4.20074 0
M  V30 3327 C 300.997 1.48416 -3.02447 0
M  V30 3328 O 301.527 2.58227 -3.07704 0
M  V30 3329 N 299.733 1.34243 -2.57735 0
M  V30 3330 H 299.28 0.448994 -2.53657 0
M  V30 3331 H 299.238 2.15957 -2.28495 0
M  V30 3332 N 303.011 1.40521 -0.713556 0
M  V30 3333 C 303.958 2.30723 -0.059684 0
M  V30 3334 C 304.928 1.48079 0.752448 0
M  V30 3335 O 306.113 1.76823 0.71681 0
M  V30 3336 C 303.253 3.34274 0.857594 0
M  V30 3337 C 302.366 4.31986 0.0351536 0
M  V30 3338 C 301.501 5.22605 0.951724 0
M  V30 3339 C 300.54 6.11976 0.123253 0
M  V30 3340 N 299.677 6.9502 0.99459 0
M  V30 3341 H 304.517 2.86074 -0.834596 0
M  V30 3342 H 302.054 1.40879 -0.42326 0
M  V30 3343 H 304.012 3.92879 1.40364 0
M  V30 3344 H 302.642 2.8043 1.59871 0
M  V30 3345 H 301.694 3.7518 -0.628052 0
M  V30 3346 H 303.006 4.95101 -0.606347 0
M  V30 3347 H 302.16 5.86131 1.56638 0
M  V30 3348 H 300.899 4.59759 1.62705 0
M  V30 3349 H 299.904 5.47482 -0.50435 0
M  V30 3350 H 301.129 6.76881 -0.548539 0
M  V30 3351 H 299.075 6.34764 1.6556 0
M  V30 3352 H 298.992 7.54892 0.40908 0
M  V30 3353 H 300.26 7.62997 1.59549 0
M  V30 3354 N 304.489 0.459591 1.5075 0
M  V30 3355 C 305.714 -0.0996819 2.0716 0
M  V30 3356 C 306.139 -1.33761 1.32249 0
M  V30 3357 O 305.497 -1.77551 0.366786 0
M  V30 3358 C 305.545 -0.378226 3.58611 0
M  V30 3359 O 304.649 -1.46081 3.85661 0
M  V30 3360 H 303.99 0.00791392 0.663953 0
M  V30 3361 H 306.52 0.647329 1.9409 0
M  V30 3362 H 306.53 -0.622135 4.03229 0
M  V30 3363 H 305.205 0.526439 4.12555 0
M  V30 3364 H 303.782 -1.20511 3.5289 0
M  V30 3365 N 305.967 -1.56429 0.191757 0
M  V30 3366 C 307.215 -1.97095 -0.447006 0
M  V30 3367 C 307.536 -1.07967 -1.62383 0
M  V30 3368 O 306.806 -0.150248 -1.95323 0
M  V30 3369 H 305.386 -0.727832 -0.168135 0
M  V30 3370 H 308.048 -1.92911 0.27771 0
M  V30 3371 H 307.144 -3.01848 -0.793371 0
M  V30 3372 N 307.445 0.0818655 -1.57387 0
M  V30 3373 C 308.722 0.815343 -1.77796 0
M  V30 3374 C 309.102 1.96289 -0.77679 0
M  V30 3375 O 308.45 2.27691 0.192106 0
M  V30 3376 C 308.66 1.29765 -3.23978 0
M  V30 3377 C 310.008 1.7351 -3.8753 0
M  V30 3378 O 311.032 1.39356 -3.27808 0
M  V30 3379 O 309.891 2.36708 -4.92576 0
M  V30 3380 H 306.985 0.389914 -0.729312 0
M  V30 3381 H 309.531 0.0627213 -1.69584 0
M  V30 3382 H 308.303 0.47608 -3.88393 0
M  V30 3383 H 307.926 2.11189 -3.36875 0
M  V30 3384 N 308.923 1.53595 0.353017 0
M  V30 3385 C 310.151 1.74311 1.1146 0
M  V30 3386 C 310.566 0.477854 1.82653 0
M  V30 3387 O 309.923 -0.549977 1.74016 0
M  V30 3388 C 309.974 2.91694 2.13534 0
M  V30 3389 O 309.695 4.13325 1.45238 0
M  V30 3390 C 311.196 3.24384 3.02142 0
M  V30 3391 H 308.416 0.582669 0.332773 0
M  V30 3392 H 310.96 2.00386 0.408107 0
M  V30 3393 H 309.115 2.67977 2.79763 0
M  V30 3394 H 309.529 4.79148 2.13349 0
M  V30 3395 H 311.003 4.09893 3.69718 0
M  V30 3396 H 311.48 2.40282 3.67643 0
M  V30 3397 H 312.086 3.50073 2.41514 0
M  V30 3398 N 310.401 -0.613514 1.45168 0
M  V30 3399 C 311.331 -1.7354 1.56225 0
M  V30 3400 C 312.312 -1.64981 0.41414 0
M  V30 3401 O 313.497 -1.83472 0.636526 0
M  V30 3402 C 310.627 -3.12128 1.52295 0
M  V30 3403 C 309.581 -3.35491 2.65762 0
M  V30 3404 C 308.907 -4.74291 2.46885 0
M  V30 3405 C 310.207 -3.26325 4.0781 0
M  V30 3406 H 311.901 -1.64543 2.50132 0
M  V30 3407 H 309.447 -0.790185 1.20383 0
M  V30 3408 H 311.4 -3.90404 1.58628 0
M  V30 3409 H 310.124 -3.2195 0.549139 0
M  V30 3410 H 308.783 -2.59603 2.58847 0
M  V30 3411 H 308.431 -4.80839 1.47657 0
M  V30 3412 H 308.131 -4.9088 3.22972 0
M  V30 3413 H 309.655 -5.54775 2.55063 0
M  V30 3414 H 311.069 -3.94483 4.16 0
M  V30 3415 H 309.466 -3.54445 4.8424 0
M  V30 3416 H 310.536 -2.23855 4.30136 0
M  V30 3417 N 311.879 -1.3236 -0.855495 0
M  V30 3418 C 313.128 -1.22226 -1.60448 0
M  V30 3419 C 313.441 0.214733 -1.94418 0
M  V30 3420 O 314.647 0.437917 -2.67945 0
M  V30 3421 C 313.103 -2.14063 -2.89318 0
M  V30 3422 C 312.711 -3.62839 -2.62777 0
M  V30 3423 C 314.455 -2.12764 -3.67331 0
M  V30 3424 C 312.362 -4.4664 -3.87643 0
M  V30 3425 H 311.292 -0.453904 -0.602069 0
M  V30 3426 H 313.943 -1.57314 -0.944698 0
M  V30 3427 H 312.325 -1.71889 -3.5675 0
M  V30 3428 H 313.499 -4.1335 -2.03662 0
M  V30 3429 H 311.814 -3.66261 -1.98096 0
M  V30 3430 H 314.411 -2.72611 -4.59987 0
M  V30 3431 H 314.754 -1.11841 -4.00995 0
M  V30 3432 H 315.287 -2.53214 -3.06802 0
M  V30 3433 H 312.026 -5.48373 -3.5912 0
M  V30 3434 H 311.546 -4.0088 -4.46156 0
M  V30 3435 H 313.225 -4.59597 -4.55389 0
M  V30 3436 N 313.357 1.07166 -1.15556 0
M  V30 3437 C 314.304 2.14417 -0.854055 0
M  V30 3438 C 315.274 1.64965 0.193806 0
M  V30 3439 O 316.459 1.90703 0.0609443 0
M  V30 3440 C 313.599 3.43304 -0.351574 0
M  V30 3441 C 312.712 4.06537 -1.46123 0
M  V30 3442 C 311.847 5.23266 -0.914677 0
M  V30 3443 C 310.886 5.78464 -2.00114 0
M  V30 3444 N 310.023 6.86521 -1.47083 0
M  V30 3445 H 314.863 2.39548 -1.77259 0
M  V30 3446 H 312.4 1.17543 -0.884425 0
M  V30 3447 H 314.358 4.17179 -0.0419409 0
M  V30 3448 H 312.988 3.18419 0.530037 0
M  V30 3449 H 312.04 3.30297 -1.88701 0
M  V30 3450 H 313.352 4.43567 -2.28144 0
M  V30 3451 H 312.506 6.04131 -0.557698 0
M  V30 3452 H 311.245 4.87658 -0.0636583 0
M  V30 3453 H 310.25 4.96243 -2.36692 0
M  V30 3454 H 311.475 6.16126 -2.85597 0
M  V30 3455 H 309.421 6.52849 -0.642198 0
M  V30 3456 H 309.338 7.22446 -2.22729 0
M  V30 3457 H 310.606 7.71087 -1.14215 0
M  V30 3458 N 314.835 0.952656 1.25548 0
M  V30 3459 C 316.112 0.523818 1.88456 0
M  V30 3460 C 316.492 -0.998871 1.85973 0
M  V30 3461 O 315.84 -1.86381 1.3219 0
M  V30 3462 C 316.05 1.0982 3.31271 0
M  V30 3463 C 317.398 1.17385 4.08051 0
M  V30 3464 O 318.422 1.04961 3.40384 0
M  V30 3465 O 317.281 1.36852 5.29088 0
M  V30 3466 H 314.375 0.172485 0.808813 0
M  V30 3467 H 316.921 1.04596 1.33633 0
M  V30 3468 H 315.693 2.1415 3.27499 0
M  V30 3469 H 315.316 0.559191 3.93648 0
M  V30 3470 N 316.313 -1.40141 0.720998 0
M  V30 3471 C 317.561 -2.0039 0.262323 0
M  V30 3472 C 317.882 -1.57469 -1.15015 0
M  V30 3473 O 317.152 -0.816582 -1.78069 0
M  V30 3474 H 315.732 -0.741063 0.093996 0
M  V30 3475 H 318.394 -1.71398 0.927835 0
M  V30 3476 H 317.49 -3.10658 0.299671 0
M  V30 3477 N 317.792 -0.46758 -1.50504 0
M  V30 3478 C 319.038 0.0887532 -2.02606 0
M  V30 3479 C 319.371 1.39686 -1.34913 0
M  V30 3480 O 318.646 1.88644 -0.473694 0
M  V30 3481 C 318.929 0.276206 -3.59039 0
M  V30 3482 C 318.782 -1.05267 -4.37309 0
M  V30 3483 C 320.101 1.03235 -4.27821 0
M  V30 3484 H 317.22 0.0307814 -0.736357 0
M  V30 3485 H 319.862 -0.612485 -1.79857 0
M  V30 3486 H 318.012 0.8735 -3.78553 0
M  V30 3487 H 319.684 -1.68628 -4.29374 0
M  V30 3488 H 317.927 -1.65015 -4.01189 0
M  V30 3489 H 318.598 -0.875197 -5.45018 0
M  V30 3490 H 321.074 0.526111 -4.12761 0
M  V30 3491 H 319.95 1.1323 -5.37094 0
M  V30 3492 H 320.211 2.06806 -3.90748 0
M  V30 3493 N 319.27 1.56325 -0.20005 0
M  V30 3494 C 320.681 1.8408 0.31167 0
M  V30 3495 C 321.032 1.12087 1.61031 0
M  V30 3496 O 320.157 0.38332 2.12978 0
M  V30 3497 C 320.752 3.33932 0.57226 0
M  V30 3498 C 319.311 3.6208 1.02834 0
M  V30 3499 C 318.458 2.77186 0.079634 0
M  V30 3500 H 321.409 1.52939 -0.423729 0
M  V30 3501 H 321.43 3.52971 1.42096 0
M  V30 3502 H 320.942 3.86303 -0.37308 0
M  V30 3503 H 319.043 3.15147 1.98778 0
M  V30 3504 H 319.156 4.7023 0.917624 0
M  V30 3505 H 317.52 2.47951 0.582448 0
M  V30 3506 H 318.303 3.32347 -0.860238 0
M  V30 3507 N 320.748 -0.0735177 1.57428 0
M  V30 3508 C 321.695 -1.08756 2.0357 0
M  V30 3509 C 322.665 -1.38559 0.916 0
M  V30 3510 O 323.85 -1.49656 1.18354 0
M  V30 3511 C 320.99 -2.39657 2.48311 0
M  V30 3512 C 320.103 -2.16399 3.73892 0
M  V30 3513 C 319.238 -3.40852 4.07423 0
M  V30 3514 C 318.277 -3.1295 5.2605 0
M  V30 3515 N 317.414 -4.29729 5.55228 0
M  V30 3516 H 322.254 -0.687104 2.8997 0
M  V30 3517 H 319.791 -0.327709 1.43403 0
M  V30 3518 H 321.749 -3.16081 2.72303 0
M  V30 3519 H 320.379 -2.77508 1.64891 0
M  V30 3520 H 319.431 -1.30676 3.57251 0
M  V30 3521 H 320.743 -1.91788 4.60455 0
M  V30 3522 H 319.897 -4.25671 4.32306 0
M  V30 3523 H 318.636 -3.68537 3.19425 0
M  V30 3524 H 317.641 -2.26526 5.00965 0
M  V30 3525 H 318.866 -2.86589 6.15665 0
M  V30 3526 H 316.812 -4.57448 4.70188 0
M  V30 3527 H 316.729 -4.08385 6.36206 0
M  V30 3528 H 317.997 -5.1555 5.84661 0
M  V30 3529 N 322.226 -1.5378 -0.344866 0
M  V30 3530 C 323.503 -1.61589 -1.10219 0
M  V30 3531 C 323.883 -0.436316 -2.06542 0
M  V30 3532 O 323.231 0.571543 -2.21237 0
M  V30 3533 C 323.441 -2.97602 -1.82301 0
M  V30 3534 C 324.789 -3.5291 -2.36093 0
M  V30 3535 O 325.813 -2.99768 -1.924 0
M  V30 3536 O 324.672 -4.45859 -3.16026 0
M  V30 3537 H 321.766 -0.653522 -0.506792 0
M  V30 3538 H 324.312 -1.66126 -0.346465 0
M  V30 3539 H 323.084 -3.74893 -1.12121 0
M  V30 3540 H 322.707 -2.9665 -2.64735 0
M  V30 3541 N 323.704 0.605807 -1.45491 0
M  V30 3542 C 324.934 1.38934 -1.52908 0
M  V30 3543 C 325.342 1.88513 -0.161086 0
M  V30 3544 O 324.685 1.62962 0.847891 0
M  V30 3545 C 324.747 2.62737 -2.45376 0
M  V30 3546 C 324.411 2.34785 -3.92078 0
M  V30 3547 C 325.408 1.95038 -4.8193 0
M  V30 3548 C 323.093 2.47642 -4.37011 0
M  V30 3549 C 325.087 1.68511 -6.14722 0
M  V30 3550 C 322.774 2.20728 -5.69844 0
M  V30 3551 C 323.772 1.81225 -6.58519 0
M  V30 3552 O 323.46 1.54627 -7.88889 0
M  V30 3553 H 323.192 0.431629 -0.520262 0
M  V30 3554 H 325.746 0.74573 -1.91384 0
M  V30 3555 H 323.976 3.29824 -2.01874 0
M  V30 3556 H 325.665 3.24783 -2.43456 0
M  V30 3557 H 326.431 1.84639 -4.48479 0
M  V30 3558 H 322.31 2.77356 -3.68232 0
M  V30 3559 H 325.854 1.37602 -6.83894 0
M  V30 3560 H 321.751 2.30744 -6.02849 0
M  V30 3561 H 322.519 1.68665 -8.00933 0
M  V30 3562 N 325.182 1.32811 0.848464 0
M  V30 3563 C 326.129 1.22265 1.95755 0
M  V30 3564 C 327.099 0.103413 1.65778 0
M  V30 3565 O 328.284 0.280033 1.88734 0
M  V30 3566 C 325.424 0.958014 3.31536 0
M  V30 3567 C 324.537 2.16262 3.73971 0
M  V30 3568 C 323.672 1.83295 4.98575 0
M  V30 3569 C 322.711 3.00041 5.33518 0
M  V30 3570 N 321.848 2.67125 6.49299 0
M  V30 3571 H 326.688 2.17128 2.04107 0
M  V30 3572 H 324.225 1.07982 0.998913 0
M  V30 3573 H 326.183 0.785052 4.09747 0
M  V30 3574 H 324.813 0.046159 3.22767 0
M  V30 3575 H 323.865 2.44565 2.91362 0
M  V30 3576 H 325.177 3.03572 3.95785 0
M  V30 3577 H 324.331 1.62586 5.84509 0
M  V30 3578 H 323.07 0.932078 4.7871 0
M  V30 3579 H 322.075 3.21374 4.46093 0
M  V30 3580 H 323.3 3.90869 5.55336 0
M  V30 3581 H 321.246 1.79586 6.3094 0
M  V30 3582 H 321.163 3.47965 6.71161 0
M  V30 3583 H 322.431 2.49861 7.3837 0
M  V30 3584 N 326.66 -1.06551 1.16123 0
M  V30 3585 C 327.906 -1.79567 0.94252 0
M  V30 3586 C 328.239 -1.86869 -0.528547 0
M  V30 3587 O 327.514 -1.35838 -1.39206 0
M  V30 3588 C 327.797 -3.24195 1.56747 0
M  V30 3589 C 327.65 -3.24989 3.10969 0
M  V30 3590 C 328.969 -4.21678 1.25998 0
M  V30 3591 H 326.088 -0.651883 0.343828 0
M  V30 3592 H 328.73 -1.2463 1.43413 0
M  V30 3593 H 326.88 -3.71107 1.14942 0
M  V30 3594 H 328.552 -2.86258 3.61737 0
M  V30 3595 H 326.795 -2.63716 3.44436 0
M  V30 3596 H 327.466 -4.27005 3.49815 0
M  V30 3597 H 329.942 -3.83196 1.62174 0
M  V30 3598 H 328.818 -5.21146 1.7233 0
M  V30 3599 H 329.079 -4.4174 0.178367 0
M  V30 3600 N 328.138 -0.959301 -1.25041 0
M  V30 3601 C 329.101 -0.487677 -2.23952 0
M  V30 3602 C 330.101 0.41119 -1.55454 0
M  V30 3603 O 331.291 0.207825 -1.72956 0
M  V30 3604 C 328.423 0.294807 -3.39623 0
M  V30 3605 H 329.616 -1.36198 -2.67189 0
M  V30 3606 H 327.169 -0.743042 -1.37508 0
M  V30 3607 H 327.904 1.18658 -3.01813 0
M  V30 3608 H 327.689 -0.35012 -3.90534 0
M  V30 3609 H 329.179 0.614089 -4.1306 0
M  V30 3610 N 329.616 1.39756 -0.72842 0
M  V30 3611 C 330.893 1.94574 -0.200079 0
M  V30 3612 C 331.273 1.66569 1.29684 0
M  V30 3613 O 330.621 0.990326 2.05924 0
M  V30 3614 C 330.831 3.45004 -0.526608 0
M  V30 3615 C 332.179 4.21965 -0.472318 0
M  V30 3616 O 333.203 3.53173 -0.463413 0
M  V30 3617 O 332.062 5.44552 -0.461075 0
M  V30 3618 H 329.156 0.826289 -0.0342851 0
M  V30 3619 H 331.702 1.49293 -0.806829 0
M  V30 3620 H 330.474 3.58796 -1.56144 0
M  V30 3621 H 330.097 3.97449 0.109449 0
M  V30 3622 N 331.094 0.475555 1.50254 0
M  V30 3623 C 332.041 -0.316293 2.28622 0
M  V30 3624 C 333.011 -0.983227 1.33873 0
M  V30 3625 O 334.196 -0.994805 1.62814 0
M  V30 3626 C 331.336 -1.38975 3.1588 0
M  V30 3627 C 330.449 -0.737146 4.25664 0
M  V30 3628 C 329.584 -1.78887 5.00173 0
M  V30 3629 C 328.623 -1.11676 6.01826 0
M  V30 3630 N 327.76 -2.11154 6.69596 0
M  V30 3631 H 332.6 0.358297 2.95838 0
M  V30 3632 H 330.137 0.188541 1.45887 0
M  V30 3633 H 332.095 -2.02383 3.64825 0
M  V30 3634 H 330.725 -2.03344 2.50701 0
M  V30 3635 H 329.777 0.0096065 3.80399 0
M  V30 3636 H 331.089 -0.206816 4.98371 0
M  V30 3637 H 330.243 -2.49865 5.52859 0
M  V30 3638 H 328.982 -2.35302 4.27182 0
M  V30 3639 H 327.987 -0.392633 5.48396 0
M  V30 3640 H 329.212 -0.55945 6.76792 0
M  V30 3641 H 327.158 -2.66577 5.99394 0
M  V30 3642 H 327.075 -1.63118 7.38193 0
M  V30 3643 H 328.343 -2.81497 7.26897 0
M  V30 3644 N 332.573 -1.56217 0.208337 0
M  V30 3645 C 333.798 -2.02782 -0.435222 0
M  V30 3646 C 334.223 -1.08738 -1.53485 0
M  V30 3647 O 333.581 -0.0731855 -1.81152 0
M  V30 3648 C 333.629 -3.47687 -0.956335 0
M  V30 3649 O 332.733 -3.56773 -2.06849 0
M  V30 3650 H 332.074 -0.656403 -0.100158 0
M  V30 3651 H 334.604 -2.02033 0.3231 0
M  V30 3652 H 334.614 -3.87745 -1.26955 0
M  V30 3653 H 333.289 -4.15624 -0.15143 0
M  V30 3654 H 331.866 -3.28597 -1.76292 0
M  V30 3655 N 334.051 0.0651679 -1.57465 0
M  V30 3656 C 335.299 0.761555 -1.87202 0
M  V30 3657 C 335.62 1.77778 -0.801243 0
M  V30 3658 O 334.89 1.95166 0.16937 0
M  V30 3659 H 333.47 0.284251 -0.690804 0
M  V30 3660 H 336.132 0.0396827 -1.9486 0
M  V30 3661 H 335.228 1.27365 -2.84929 0
M  V30 3662 N 335.529 1.53961 0.336706 0
M  V30 3663 C 336.461 1.78751 1.4346 0
M  V30 3664 C 337.474 0.669019 1.48418 0
M  V30 3665 O 338.663 0.945884 1.51378 0
M  V30 3666 C 335.763 1.87844 2.82078 0
M  V30 3667 C 334.936 3.17854 3.00479 0
M  V30 3668 C 333.995 3.17816 4.19379 0
M  V30 3669 O 333.021 3.91511 4.13168 0
M  V30 3670 N 334.223 2.40669 5.2826 0
M  V30 3671 H 336.988 2.73493 1.22563 0
M  V30 3672 H 334.549 1.53096 0.526625 0
M  V30 3673 H 336.541 1.85261 3.59806 0
M  V30 3674 H 335.111 1.00257 2.96086 0
M  V30 3675 H 334.331 3.33504 2.10163 0
M  V30 3676 H 335.619 4.03718 3.0966 0
M  V30 3677 H 335.017 1.8036 5.36178 0
M  V30 3678 H 333.574 2.43877 6.04456 0
M  V30 3679 N 337.007 -0.598083 1.45811 0
M  V30 3680 C 337.97 -1.69018 1.54808 0
M  V30 3681 C 338.97 -1.55037 0.426652 0
M  V30 3682 O 340.16 -1.59932 0.690456 0
M  V30 3683 C 337.292 -3.0835 1.45371 0
M  V30 3684 H 338.485 -1.62403 2.52121 0
M  V30 3685 H 336.038 -0.814626 1.33392 0
M  V30 3686 H 336.773 -3.20534 0.492793 0
M  V30 3687 H 336.558 -3.19907 2.26721 0
M  V30 3688 H 338.048 -3.8788 1.54721 0
M  V30 3689 N 338.485 -1.33259 -0.841409 0
M  V30 3690 C 339.734 -1.23921 -1.59143 0
M  V30 3691 C 340.047 0.1941 -1.94635 0
M  V30 3692 O 341.253 0.409474 -2.68394 0
M  V30 3693 C 339.709 -2.17119 -2.87032 0
M  V30 3694 C 339.317 -3.65606 -2.58914 0
M  V30 3695 C 341.061 -2.16648 -3.65053 0
M  V30 3696 C 338.968 -4.50726 -3.82884 0
M  V30 3697 H 337.898 -0.460264 -0.597221 0
M  V30 3698 H 340.549 -1.58307 -0.927959 0
M  V30 3699 H 338.931 -1.75663 -3.54906 0
M  V30 3700 H 340.105 -4.15487 -1.99267 0
M  V30 3701 H 338.42 -3.68341 -1.942 0
M  V30 3702 H 341.017 -2.77474 -4.57069 0
M  V30 3703 H 341.36 -1.16088 -3.99787 0
M  V30 3704 H 341.893 -2.56453 -3.041 0
M  V30 3705 H 338.632 -5.52151 -3.53283 0
M  V30 3706 H 338.152 -4.0559 -4.41879 0
M  V30 3707 H 339.831 -4.64401 -4.50489 0
M  V30 3708 N 339.963 1.05934 -1.16686 0
M  V30 3709 C 341.191 1.8249 -0.974929 0
M  V30 3710 C 341.606 1.82679 0.476861 0
M  V30 3711 O 340.963 1.2486 1.33103 0
M  V30 3712 C 341.014 3.28943 -1.49929 0
M  V30 3713 O 340.735 3.28886 -2.89423 0
M  V30 3714 C 342.236 4.22215 -1.35089 0
M  V30 3715 H 339.456 0.575295 -0.345365 0
M  V30 3716 H 342 1.33631 -1.548 0
M  V30 3717 H 340.155 3.751 -0.968423 0
M  V30 3718 H 340.569 4.20493 -3.13506 0
M  V30 3719 H 342.043 5.22987 -1.76603 0
M  V30 3720 H 342.52 4.38195 -0.296935 0
M  V30 3721 H 343.126 3.81907 -1.87155 0
M  V30 3722 N 341.441 0.965919 1.2453 0
M  V30 3723 C 342.671 0.643451 1.96324 0
M  V30 3724 C 343.079 -0.790927 1.71875 0
M  V30 3725 O 342.422 -1.54208 0.998273 0
M  V30 3726 C 342.484 0.836078 3.49643 0
M  V30 3727 C 342.148 2.24975 3.97788 0
M  V30 3728 C 343.145 3.22735 4.07601 0
M  V30 3729 C 340.83 2.57697 4.31158 0
M  V30 3730 C 342.824 4.51303 4.50116 0
M  V30 3731 C 340.511 3.86492 4.73357 0
M  V30 3732 C 341.509 4.83107 4.828 0
M  V30 3733 O 341.197 6.09605 5.24058 0
M  V30 3734 H 340.929 0.239223 0.632257 0
M  V30 3735 H 343.483 1.29587 1.59362 0
M  V30 3736 H 341.713 0.12649 3.86493 0
M  V30 3737 H 343.402 0.512965 4.02646 0
M  V30 3738 H 344.168 2.98783 3.82039 0
M  V30 3739 H 340.047 1.83216 4.23028 0
M  V30 3740 H 343.591 5.26716 4.57401 0
M  V30 3741 H 339.488 4.10245 4.98366 0
M  V30 3742 H 340.256 6.13146 5.42213 0
M  V30 3743 N 342.919 -1.39368 0.735821 0
M  V30 3744 C 343.882 -2.2896 0.104874 0
M  V30 3745 C 344.882 -1.46347 -0.666274 0
M  V30 3746 O 346.072 -1.67014 -0.49517 0
M  V30 3747 C 343.204 -3.29857 -0.860656 0
M  V30 3748 H 344.397 -2.86259 0.894205 0
M  V30 3749 H 341.95 -1.48029 0.501704 0
M  V30 3750 H 342.685 -2.77615 -1.67631 0
M  V30 3751 H 342.47 -3.9087 -0.310327 0
M  V30 3752 H 343.96 -3.96893 -1.29867 0
M  V30 3753 N 344.397 -0.483516 -1.5 0
M  V30 3754 C 345.622 0.0667119 -2.07293 0
M  V30 3755 C 346.047 1.3164 -1.3436 0
M  V30 3756 O 345.405 1.76945 -0.394987 0
M  V30 3757 C 345.453 0.321126 -3.59167 0
M  V30 3758 O 344.557 1.39927 -3.87936 0
M  V30 3759 H 343.898 -0.0184758 -0.663743 0
M  V30 3760 H 346.428 -0.678125 -1.93035 0
M  V30 3761 H 346.438 0.557906 -4.04168 0
M  V30 3762 H 345.113 -0.592007 -4.11665 0
M  V30 3763 H 343.69 1.14882 -3.54763 0
M  V30 3764 N 345.875 1.56104 -0.216619 0
M  V30 3765 C 347.291 1.58995 0.13886 0
M  V30 3766 C 347.491 1.23333 1.59346 0
M  V30 3767 O 346.547 0.966234 2.33281 0
M  V30 3768 C 347.86 3.00143 -0.182968 0
M  V30 3769 C 349.408 3.12751 -0.124807 0
M  V30 3770 C 349.883 4.56068 -0.420241 0
M  V30 3771 N 351.374 4.61723 -0.369634 0
M  V30 3772 C 352.109 5.70542 -0.571789 0
M  V30 3773 N 351.605 6.87744 -0.835453 0
M  V30 3774 N 353.398 5.59831 -0.504563 0
M  V30 3775 H 345.549 1.77562 -1.16557 0
M  V30 3776 H 347.812 0.825091 -0.466828 0
M  V30 3777 H 347.518 3.30871 -1.19237 0
M  V30 3778 H 347.392 3.73813 0.504367 0
M  V30 3779 H 349.779 2.81822 0.875223 0
M  V30 3780 H 349.86 2.41421 -0.845544 0
M  V30 3781 H 349.504 4.87713 -1.41769 0
M  V30 3782 H 349.434 5.25617 0.321631 0
M  V30 3783 H 351.925 3.77502 -0.173338 0
M  V30 3784 H 352.238 7.66587 -0.977938 0
M  V30 3785 H 350.583 6.895 -0.872592 0
M  V30 3786 H 353.774 4.67145 -0.298842 0
M  V30 3787 H 353.947 6.44573 -0.665519 0
M  V30 3788 N 347.353 -0.0568162 1.57498 0
M  V30 3789 C 348.301 -1.08452 2.05769 0
M  V30 3790 C 349.295 -1.39164 0.965903 0
M  V30 3791 O 350.501 -1.38395 1.15095 0
M  V30 3792 H 346.876 -0.367148 0.656282 0
M  V30 3793 H 348.847 -0.651368 2.91204 0
M  V30 3794 C 347.596 -2.38543 2.52968 0
M  V30 3795 H 346.919 -2.15765 3.36579 0
M  V30 3796 H 348.359 -3.08863 2.90481 0
M  V30 3797 C 346.818 -3.05562 1.41893 0
M  V30 3798 O 347.348 -3.94262 0.769442 0
M  V30 3799 N 345.554 -2.6643 1.16032 0
M  V30 3800 H 345.101 -1.94387 1.6903 0
M  V30 3801 H 345.059 -3.11593 0.419219 0
M  V30 3802 N 348.832 -1.54138 -0.328536 0
M  V30 3803 C 350.109 -1.62749 -1.08499 0
M  V30 3804 C 350.489 -0.458198 -2.06067 0
M  V30 3805 O 349.837 0.548046 -2.2183 0
M  V30 3806 C 350.047 -2.99519 -1.79135 0
M  V30 3807 C 351.395 -3.55394 -2.32337 0
M  V30 3808 O 352.419 -3.01792 -1.89209 0
M  V30 3809 O 351.278 -4.49186 -3.11279 0
M  V30 3810 H 348.372 -0.65886 -0.499832 0
M  V30 3811 H 350.918 -1.66484 -0.328826 0
M  V30 3812 H 349.69 -3.76061 -1.08139 0
M  V30 3813 H 349.313 -2.99441 -2.61574 0
M  V30 3814 N 350.31 0.590341 -1.46126 0
M  V30 3815 C 351.556 1.35082 -1.51264 0
M  V30 3816 C 351.889 1.93534 -0.160711 0
M  V30 3817 O 351.164 1.76045 0.826956 0
M  V30 3818 C 351.447 2.48588 -2.6053 0
M  V30 3819 C 351.3 1.95221 -4.05227 0
M  V30 3820 C 352.619 3.50662 -2.6594 0
M  V30 3821 H 349.738 0.489803 -0.550692 0
M  V30 3822 H 352.38 0.663887 -1.78024 0
M  V30 3823 H 350.53 3.07186 -2.37843 0
M  V30 3824 H 352.202 1.41139 -4.39178 0
M  V30 3825 H 350.445 1.26101 -4.15068 0
M  V30 3826 H 351.116 2.77121 -4.77397 0
M  V30 3827 H 353.592 3.01934 -2.86313 0
M  V30 3828 H 352.468 4.27551 -3.44226 0
M  V30 3829 H 352.729 4.07399 -1.71694 0
M  V30 3830 N 351.788 1.33704 0.83433 0
M  V30 3831 C 352.751 1.24244 1.92603 0
M  V30 3832 C 353.751 0.160383 1.59998 0
M  V30 3833 O 354.941 0.412228 1.69252 0
M  V30 3834 C 352.073 0.91555 3.28376 0
M  V30 3835 H 353.266 2.21287 2.02416 0
M  V30 3836 H 350.819 1.17827 1.02696 0
M  V30 3837 H 351.554 -0.0521886 3.24258 0
M  V30 3838 H 351.339 1.69811 3.53422 0
M  V30 3839 H 352.829 0.874231 4.08347 0
M  V30 3840 N 353.266 -1.05314 1.17247 0
M  V30 3841 C 354.513 -1.78293 0.960091 0
M  V30 3842 C 354.841 -1.87658 -0.51136 0
M  V30 3843 O 354.096 -1.3718 -1.39571 0
M  V30 3844 C 354.395 -3.2229 1.54479 0
M  V30 3845 C 354.061 -3.32987 3.04024 0
M  V30 3846 C 352.723 -3.35613 3.44844 0
M  V30 3847 C 355.075 -3.34102 4.00031 0
M  V30 3848 C 352.403 -3.36982 4.8027 0
M  V30 3849 C 354.755 -3.3701 5.35357 0
M  V30 3850 C 353.419 -3.37923 5.75642 0
M  V30 3851 H 352.689 -0.652422 0.351322 0
M  V30 3852 H 355.336 -1.23782 1.46117 0
M  V30 3853 H 353.641 -3.7972 0.965391 0
M  V30 3854 H 355.338 -3.77376 1.35603 0
M  V30 3855 H 351.928 -3.31655 2.71483 0
M  V30 3856 H 356.112 -3.31276 3.69554 0
M  V30 3857 H 351.368 -3.35999 5.10798 0
M  V30 3858 H 355.542 -3.36822 6.09528 0
M  V30 3859 H 353.169 -3.38738 6.80559 0
M  V30 3860 N 354.744 -0.972509 -1.24016 0
M  V30 3861 C 355.99 -0.637978 -1.92504 0
M  V30 3862 C 356.323 0.825383 -1.75787 0
M  V30 3863 O 355.598 1.59442 -1.11393 0
M  V30 3864 C 355.881 -1.01942 -3.45369 0
M  V30 3865 C 355.734 -2.53983 -3.71231 0
M  V30 3866 C 357.053 -0.55751 -4.36555 0
M  V30 3867 H 354.172 -0.233248 -0.699117 0
M  V30 3868 H 356.814 -1.21238 -1.46292 0
M  V30 3869 H 354.964 -0.530656 -3.84859 0
M  V30 3870 H 356.636 -3.10374 -3.41271 0
M  V30 3871 H 354.879 -2.96968 -3.16216 0
M  V30 3872 H 355.55 -2.75723 -4.78206 0
M  V30 3873 H 358.026 -0.977029 -4.04467 0
M  V30 3874 H 356.902 -0.85292 -5.42233 0
M  V30 3875 H 357.163 0.542328 -4.38761 0
M  V30 3876 N 356.222 1.38976 -0.743202 0
M  V30 3877 C 357.452 2.04339 -0.304807 0
M  V30 3878 C 357.86 1.56162 1.06819 0
M  V30 3879 O 357.203 0.725284 1.68776 0
M  V30 3880 C 357.265 3.58716 -0.237369 0
M  V30 3881 C 356.929 4.29905 -1.55018 0
M  V30 3882 C 357.926 4.55987 -2.49744 0
M  V30 3883 C 355.611 4.68294 -1.81675 0
M  V30 3884 C 357.605 5.19478 -3.69353 0
M  V30 3885 C 355.292 5.31512 -3.0156 0
M  V30 3886 C 356.29 5.57037 -3.9522 0
M  V30 3887 O 355.978 6.18941 -5.12998 0
M  V30 3888 H 355.71 0.663439 -0.12971 0
M  V30 3889 H 358.264 1.78852 -1.01001 0
M  V30 3890 H 356.494 3.83133 0.524003 0
M  V30 3891 H 358.183 4.05543 0.170121 0
M  V30 3892 H 358.949 4.26767 -2.30423 0
M  V30 3893 H 354.828 4.47779 -1.09615 0
M  V30 3894 H 358.372 5.39318 -4.42473 0
M  V30 3895 H 354.269 5.60153 -3.20778 0
M  V30 3896 H 355.037 6.37433 -5.13441 0
M  V30 3897 N 357.7 0.491464 1.49741 0
M  V30 3898 C 359.111 0.0413169 1.86654 0
M  V30 3899 C 359.462 -1.36985 1.40462 0
M  V30 3900 O 358.587 -2.01917 0.778354 0
M  V30 3901 C 359.182 0.0682023 3.38731 0
M  V30 3902 C 357.741 -0.32656 3.74981 0
M  V30 3903 C 356.888 0.444888 2.73708 0
M  V30 3904 H 359.839 0.704733 1.42194 0
M  V30 3905 H 359.86 -0.729322 3.73445 0
M  V30 3906 H 359.372 1.09539 3.72321 0
M  V30 3907 H 357.473 -1.35734 3.46997 0
M  V30 3908 H 357.586 -0.013741 4.79098 0
M  V30 3909 H 355.95 -0.104062 2.54487 0
M  V30 3910 H 356.733 1.47197 3.10142 0
M  V30 3911 N 359.178 -1.55987 0.224894 0
M  V30 3912 C 360.125 -2.20436 -0.68385 0
M  V30 3913 C 361.095 -1.16102 -1.18783 0
M  V30 3914 O 362.28 -1.4447 -1.24632 0
M  V30 3915 C 359.42 -2.89076 -1.88491 0
M  V30 3916 C 358.533 -4.08012 -1.41951 0
M  V30 3917 C 357.668 -4.64426 -2.5784 0
M  V30 3918 C 356.707 -5.75656 -2.08053 0
M  V30 3919 N 355.844 -6.26347 -3.17227 0
M  V30 3920 H 360.684 -2.97727 -0.12754 0
M  V30 3921 H 358.221 -1.47011 -0.0511978 0
M  V30 3922 H 360.179 -3.27059 -2.59014 0
M  V30 3923 H 358.809 -2.14298 -2.41405 0
M  V30 3924 H 357.861 -3.75492 -0.609095 0
M  V30 3925 H 359.173 -4.88375 -1.01447 0
M  V30 3926 H 358.327 -5.04869 -3.3644 0
M  V30 3927 H 357.066 -3.83233 -3.01635 0
M  V30 3928 H 356.071 -5.34712 -1.27916 0
M  V30 3929 H 357.296 -6.58686 -1.65255 0
M  V30 3930 H 355.242 -5.48067 -3.60497 0
M  V30 3931 H 355.159 -7.01843 -2.80986 0
M  V30 3932 H 356.427 -6.71447 -3.95953 0
M  V30 3933 N 360.656 0.0484629 -1.57525 0
M  V30 3934 C 361.904 0.741657 -1.88 0
M  V30 3935 C 362.225 1.76918 -0.820054 0
M  V30 3936 O 361.495 1.95335 0.148661 0
M  V30 3937 H 360.075 0.276908 -0.69378 0
M  V30 3938 H 362.737 0.019013 -1.94891 0
M  V30 3939 H 361.833 1.24336 -2.86264 0
M  V30 3940 N 362.134 1.5431 0.320358 0
M  V30 3941 C 363.066 1.80262 1.41556 0
M  V30 3942 C 364.079 0.684723 1.477 0
M  V30 3943 O 365.268 0.961886 1.50366 0
M  V30 3944 C 362.368 1.90825 2.8007 0
M  V30 3945 C 361.541 3.21023 2.97091 0
M  V30 3946 C 360.6 3.22247 4.15985 0
M  V30 3947 O 359.626 3.95871 4.08992 0
M  V30 3948 N 360.828 2.46258 5.25678 0
M  V30 3949 H 363.593 2.74778 1.19655 0
M  V30 3950 H 361.154 1.53646 0.510358 0
M  V30 3951 H 363.146 1.89067 3.57821 0
M  V30 3952 H 361.716 1.03392 2.95006 0
M  V30 3953 H 360.936 3.35715 2.06614 0
M  V30 3954 H 362.224 4.0698 3.05361 0
M  V30 3955 H 361.622 1.86037 5.34235 0
M  V30 3956 H 360.179 2.50275 6.01835 0
M  V30 3957 N 363.613 -0.582584 1.46437 0
M  V30 3958 C 364.838 -1.37168 1.55563 0
M  V30 3959 C 365.263 -1.87061 0.19743 0
M  V30 3960 O 364.621 -1.61572 -0.822451 0
M  V30 3961 C 364.669 -2.53511 2.56446 0
M  V30 3962 O 363.773 -3.54953 2.09958 0
M  V30 3963 H 363.114 -0.408494 0.523477 0
M  V30 3964 H 365.644 -0.706646 1.9201 0
M  V30 3965 H 365.654 -3.00426 2.76058 0
M  V30 3966 H 364.329 -2.16549 3.55076 0
M  V30 3967 H 362.906 -3.14516 2.00334 0
M  V30 3968 N 365.091 -1.34144 -0.827227 0
M  V30 3969 C 366.001 -1.27428 -1.96975 0
M  V30 3970 C 367.017 -0.182728 -1.73038 0
M  V30 3971 O 368.193 -0.408426 -1.97215 0
M  V30 3972 C 365.258 -1.02526 -3.31194 0
M  V30 3973 C 364.319 -2.20796 -3.68168 0
M  V30 3974 C 363.552 -1.97073 -4.95982 0
M  V30 3975 O 363.775 -0.926822 -5.6282 0
M  V30 3976 O 362.709 -2.83912 -5.30733 0
M  V30 3977 H 366.535 -2.23537 -2.05584 0
M  V30 3978 H 364.12 -1.14307 -0.961989 0
M  V30 3979 H 366.002 -0.904026 -4.11589 0
M  V30 3980 H 364.677 -0.0945389 -3.23562 0
M  V30 3981 H 363.584 -2.38477 -2.88235 0
M  V30 3982 H 364.917 -3.12243 -3.8048 0
M  V30 3983 N 366.569 1.04691 -1.17803 0
M  V30 3984 C 367.98 1.59238 -0.974689 0
M  V30 3985 C 368.331 1.90306 0.477292 0
M  V30 3986 O 367.456 1.68846 1.35352 0
M  V30 3987 C 368.051 2.89318 -1.76296 0
M  V30 3988 C 366.61 3.40506 -1.60414 0
M  V30 3989 C 365.757 2.14172 -1.76141 0
M  V30 3990 H 368.708 0.874395 -1.32439 0
M  V30 3991 H 368.729 3.5944 -1.24833 0
M  V30 3992 H 368.241 2.66675 -2.81968 0
M  V30 3993 H 366.342 3.68175 -0.572519 0
M  V30 3994 H 366.455 4.14753 -2.39827 0
M  V30 3995 H 364.819 2.25176 -1.19028 0
M  V30 3996 H 365.602 1.93992 -2.83235 0
M  V30 3997 N 368.047 0.979072 1.23499 0
M  V30 3998 C 369.296 0.642751 1.91185 0
M  V30 3999 C 369.609 -0.827253 1.77245 0
M  V30 4000 O 370.815 -1.27458 2.39722 0
M  V30 4001 C 369.271 1.09901 3.42709 0
M  V30 4002 C 368.879 2.59327 3.65313 0
M  V30 4003 C 370.623 0.836371 4.16179 0
M  V30 4004 C 368.53 2.98627 5.10467 0
M  V30 4005 H 367.46 0.236698 0.715884 0
M  V30 4006 H 370.111 1.1868 1.39955 0
M  V30 4007 H 368.493 0.48319 3.93041 0
M  V30 4008 H 369.667 3.26136 3.25533 0
M  V30 4009 H 367.982 2.83323 3.05151 0
M  V30 4010 H 370.579 1.10586 5.23139 0
M  V30 4011 H 370.922 -0.227509 4.15678 0
M  V30 4012 H 371.455 1.41371 3.71832 0
M  V30 4013 H 368.194 4.04133 5.16098 0
M  V30 4014 H 367.714 2.3651 5.51201 0
M  V30 4015 H 369.393 2.89159 5.78788 0
M  V30 4016 N 369.525 -1.3858 0.750561 0
M  V30 4017 C 370.771 -2.00481 0.305825 0
M  V30 4018 C 371.104 -1.5944 -1.10872 0
M  V30 4019 O 370.379 -0.83052 -1.75877 0
M  V30 4020 C 370.662 -3.5758 0.425287 0
M  V30 4021 C 370.515 -4.08594 1.88072 0
M  V30 4022 C 371.834 -4.39719 -0.183122 0
M  V30 4023 H 368.953 -0.728348 0.112598 0
M  V30 4024 H 371.595 -1.64566 0.949638 0
M  V30 4025 H 369.745 -3.88306 -0.122828 0
M  V30 4026 H 371.417 -3.88523 2.48691 0
M  V30 4027 H 369.66 -3.61574 2.39681 0
M  V30 4028 H 370.331 -5.177 1.91548 0
M  V30 4029 H 372.807 -4.15128 0.284303 0
M  V30 4030 H 371.683 -5.48856 -0.0692757 0
M  V30 4031 H 371.944 -4.23434 -1.27106 0
M  V30 4032 N 371.003 -0.499398 -1.49478 0
M  V30 4033 C 371.933 0.269244 -2.31943 0
M  V30 4034 C 372.914 0.964054 -1.40143 0
M  V30 4035 O 374.099 0.955767 -1.69052 0
M  V30 4036 C 371.229 1.33504 -3.20615 0
M  V30 4037 C 370.183 0.760202 -4.21195 0
M  V30 4038 C 369.509 1.9264 -4.98792 0
M  V30 4039 C 370.809 -0.247661 -5.21712 0
M  V30 4040 H 372.503 -0.419082 -2.96452 0
M  V30 4041 H 370.049 -0.202988 -1.42562 0
M  V30 4042 H 372.002 1.88048 -3.77115 0
M  V30 4043 H 370.726 2.05253 -2.54045 0
M  V30 4044 H 369.385 0.23653 -3.65836 0
M  V30 4045 H 369.033 2.63154 -4.28671 0
M  V30 4046 H 368.733 1.54785 -5.66847 0
M  V30 4047 H 370.257 2.4762 -5.58137 0
M  V30 4048 H 371.671 0.209579 -5.72917 0
M  V30 4049 H 370.068 -0.541962 -5.97648 0
M  V30 4050 H 371.138 -1.16409 -4.7072 0
M  V30 4051 N 372.481 1.55866 -0.233164 0
M  V30 4052 C 373.727 1.98897 0.395959 0
M  V30 4053 C 374.06 1.12091 1.58585 0
M  V30 4054 O 373.335 0.181182 1.93654 0
M  V30 4055 C 373.618 3.50658 0.819224 0
M  V30 4056 C 373.471 4.48233 -0.375109 0
M  V30 4057 C 374.79 4.07135 1.67121 0
M  V30 4058 H 371.909 0.723102 0.142451 0
M  V30 4059 H 374.551 1.87082 -0.331725 0
M  V30 4060 H 372.701 3.60857 1.43925 0
M  V30 4061 H 374.373 4.50031 -1.01341 0
M  V30 4062 H 372.616 4.21624 -1.02058 0
M  V30 4063 H 373.287 5.51988 -0.0358328 0
M  V30 4064 H 375.763 3.99952 1.14795 0
M  V30 4065 H 374.639 5.13615 1.93625 0
M  V30 4066 H 374.9 3.54736 2.63846 0
M  V30 4067 N 373.959 -0.0401083 1.57549 0
M  V30 4068 C 375.208 -0.732108 1.87944 0
M  V30 4069 C 375.521 -1.77107 0.830206 0
M  V30 4070 O 376.727 -2.51488 1.02302 0
M  V30 4071 C 375.183 -1.35315 3.33494 0
M  V30 4072 C 374.791 -0.351105 4.46622 0
M  V30 4073 C 376.535 -2.02566 3.73051 0
M  V30 4074 C 374.442 -0.979859 5.83226 0
M  V30 4075 H 373.372 -0.277188 0.701201 0
M  V30 4076 H 376.023 0.0138501 1.83495 0
M  V30 4077 H 374.405 -2.14844 3.32653 0
M  V30 4078 H 375.579 0.416674 4.58912 0
M  V30 4079 H 373.894 0.218708 4.15825 0
M  V30 4080 H 376.491 -2.50441 4.72423 0
M  V30 4081 H 376.834 -2.83904 3.04474 0
M  V30 4082 H 377.367 -1.29827 3.76018 0
M  V30 4083 H 374.106 -0.206135 6.55176 0
M  V30 4084 H 373.626 -1.71774 5.74677 0
M  V30 4085 H 375.305 -1.49046 6.29599 0
M  V30 4086 N 375.437 -1.54477 -0.31217 0
M  V30 4087 C 376.684 -1.73227 -1.04875 0
M  V30 4088 C 377.012 -0.512042 -1.87639 0
M  V30 4089 O 376.267 0.506131 -1.89042 0
M  V30 4090 C 376.566 -2.967 -1.99258 0
M  V30 4091 C 376.232 -4.30974 -1.32559 0
M  V30 4092 C 374.894 -4.67477 -1.141 0
M  V30 4093 C 377.246 -5.14258 -0.847835 0
M  V30 4094 C 374.574 -5.84852 -0.465326 0
M  V30 4095 C 376.926 -6.32327 -0.185931 0
M  V30 4096 C 375.59 -6.67499 0.0107077 0
M  V30 4097 H 374.86 -0.633881 -0.383765 0
M  V30 4098 H 377.507 -1.88727 -0.324731 0
M  V30 4099 H 375.812 -2.75935 -2.7815 0
M  V30 4100 H 377.509 -3.08401 -2.563 0
M  V30 4101 H 374.099 -4.02262 -1.4793 0
M  V30 4102 H 378.283 -4.86565 -0.978192 0
M  V30 4103 H 373.539 -6.10654 -0.301883 0
M  V30 4104 H 377.713 -6.96135 0.192211 0
M  V30 4105 H 375.34 -7.58306 0.536287 0
M  V30 4106 N 376.915 0.57481 -1.46744 0
M  V30 4107 C 378.143 1.35856 -1.56047 0
M  V30 4108 C 378.558 1.87691 -0.204365 0
M  V30 4109 O 377.915 1.64049 0.79963 0
M  V30 4110 C 377.966 2.54066 -2.57163 0
M  V30 4111 O 377.687 2.04377 -3.87507 0
M  V30 4112 C 379.188 3.46514 -2.76483 0
M  V30 4113 H 376.408 0.414754 -0.527466 0
M  V30 4114 H 378.952 0.698035 -1.92218 0
M  V30 4115 H 377.107 3.16092 -2.23974 0
M  V30 4116 H 377.521 2.81419 -4.4261 0
M  V30 4117 H 378.995 4.25919 -3.51137 0
M  V30 4118 H 379.472 3.98951 -1.83671 0
M  V30 4119 H 380.078 2.90318 -3.10799 0
M  V30 4120 N 378.394 1.34581 0.820102 0
M  V30 4121 C 379.342 1.26401 1.95258 0
M  V30 4122 C 380.336 0.161553 1.68628 0
M  V30 4123 O 381.542 0.326703 1.7701 0
M  V30 4124 H 377.917 0.392749 0.64129 0
M  V30 4125 H 379.888 2.22105 1.99279 0
M  V30 4126 C 378.637 1.03919 3.31807 0
M  V30 4127 H 377.96 1.87984 3.52848 0
M  V30 4128 H 379.4 1.02232 4.11491 0
M  V30 4129 C 377.859 -0.257433 3.35915 0
M  V30 4130 O 378.389 -1.25784 3.81499 0
M  V30 4131 N 376.595 -0.291524 2.89134 0
M  V30 4132 H 376.142 0.523161 2.52232 0
M  V30 4133 H 376.1 -1.15883 2.92264 0
M  V30 4134 N 379.872 -1.04064 1.18357 0
M  V30 4135 C 380.819 -2.12077 0.910603 0
M  V30 4136 C 381.789 -1.65421 -0.15 0
M  V30 4137 O 382.974 -1.90797 -0.0103614 0
M  V30 4138 C 380.114 -3.42252 0.442472 0
M  V30 4139 C 379.227 -4.0252 1.5685 0
M  V30 4140 C 378.362 -5.20657 1.05309 0
M  V30 4141 C 377.401 -5.72955 2.1538 0
M  V30 4142 N 376.538 -6.8238 1.65233 0
M  V30 4143 H 381.378 -2.34764 1.83548 0
M  V30 4144 H 378.915 -1.15157 0.915279 0
M  V30 4145 H 380.873 -4.16921 0.152534 0
M  V30 4146 H 379.503 -3.19712 -0.445428 0
M  V30 4147 H 378.555 -3.25178 1.97391 0
M  V30 4148 H 379.867 -4.37362 2.39824 0
M  V30 4149 H 379.021 -6.0244 0.717677 0
M  V30 4150 H 377.76 -4.87318 0.19293 0
M  V30 4151 H 376.765 -4.89793 2.49766 0
M  V30 4152 H 377.99 -6.08337 3.01832 0
M  V30 4153 H 375.936 -6.50917 0.815064 0
M  V30 4154 H 375.853 -7.16286 2.41805 0
M  V30 4155 H 377.121 -7.67788 1.34619 0
M  V30 4156 N 381.35 -0.985608 -1.22978 0
M  V30 4157 C 382.627 -0.573599 -1.87001 0
M  V30 4158 C 383.007 0.949213 -1.88555 0
M  V30 4159 O 382.355 1.82811 -1.37086 0
M  V30 4160 C 382.565 -1.18564 -3.28243 0
M  V30 4161 C 383.913 -1.28163 -4.04796 0
M  V30 4162 O 384.937 -1.13949 -3.37482 0
M  V30 4163 O 383.796 -1.50832 -5.25273 0
M  V30 4164 H 380.89 -0.193868 -0.803955 0
M  V30 4165 H 383.436 -1.08102 -1.30813 0
M  V30 4166 H 382.208 -2.22758 -3.21706 0
M  V30 4167 H 381.831 -0.663363 -3.92027 0
M  V30 4168 N 382.828 1.3818 -0.7579 0
M  V30 4169 C 383.776 2.32277 -0.122482 0
M  V30 4170 C 384.77 1.54238 0.700505 0
M  V30 4171 O 385.976 1.69737 0.599119 0
M  V30 4172 H 382.351 0.751712 -0.0208143 0
M  V30 4173 H 384.322 2.83469 -0.932099 0
M  V30 4174 C 383.071 3.39447 0.753076 0
M  V30 4175 H 382.394 3.99591 0.129184 0
M  V30 4176 H 383.834 4.07684 1.16489 0
M  V30 4177 C 382.293 2.78375 1.8976 0
M  V30 4178 O 382.823 2.68025 2.99208 0
M  V30 4179 N 381.029 2.36121 1.69397 0
M  V30 4180 H 380.576 2.4474 0.803762 0
M  V30 4181 H 380.534 1.95602 2.46145 0
M  V30 4182 N 384.306 0.507319 1.49211 0
M  V30 4183 C 385.253 -0.267728 2.29242 0
M  V30 4184 C 386.223 -0.954609 1.35928 0
M  V30 4185 O 387.408 -0.960046 1.64887 0
M  V30 4186 C 384.548 -1.32243 3.18756 0
M  V30 4187 C 383.661 -0.64669 4.27132 0
M  V30 4188 C 382.796 -1.68238 5.03855 0
M  V30 4189 C 381.835 -0.98885 6.0406 0
M  V30 4190 N 380.972 -1.96903 6.73924 0
M  V30 4191 H 385.812 0.420968 2.95012 0
M  V30 4192 H 383.349 0.219443 1.45454 0
M  V30 4193 H 385.307 -1.94599 3.69036 0
M  V30 4194 H 383.937 -1.97981 2.54958 0
M  V30 4195 H 382.989 0.0902926 3.80293 0
M  V30 4196 H 384.301 -0.101058 4.98698 0
M  V30 4197 H 383.455 -2.38081 5.58034 0
M  V30 4198 H 382.194 -2.26187 4.32077 0
M  V30 4199 H 381.199 -0.276222 5.49106 0
M  V30 4200 H 382.424 -0.415767 6.77826 0
M  V30 4201 H 380.37 -2.53803 6.04913 0
M  V30 4202 H 380.287 -1.47423 7.41487 0
M  V30 4203 H 381.555 -2.66015 7.32705 0
M  V30 4204 N 385.784 -1.5574 0.241426 0
M  V30 4205 C 387.009 -2.0366 -0.392111 0
M  V30 4206 C 387.434 -1.11969 -1.51144 0
M  V30 4207 O 386.792 -0.111594 -1.80956 0
M  V30 4208 C 386.84 -3.49638 -0.882371 0
M  V30 4209 O 385.944 -3.6108 -1.99235 0
M  V30 4210 H 385.285 -0.658379 -0.0862122 0
M  V30 4211 H 387.815 -2.01302 0.365881 0
M  V30 4212 H 387.825 -3.90351 -1.18702 0
M  V30 4213 H 386.5 -4.15852 -0.0632361 0
M  V30 4214 H 385.077 -3.32262 -1.69282 0
M  V30 4215 N 387.262 0.0317525 -1.57568 0
M  V30 4216 C 388.539 0.758366 -1.803 0
M  V30 4217 C 388.919 1.93718 -0.838845 0
M  V30 4218 O 388.267 2.28187 0.119571 0
M  V30 4219 C 388.477 1.19392 -3.27943 0
M  V30 4220 C 389.825 1.61094 -3.92854 0
M  V30 4221 O 390.849 1.28857 -3.32076 0
M  V30 4222 O 389.708 2.20918 -4.99858 0
M  V30 4223 H 386.802 0.366514 -0.741348 0
M  V30 4224 H 389.348 0.00873765 -1.69698 0
M  V30 4225 H 388.12 0.352275 -3.89711 0
M  V30 4226 H 387.743 2.00365 -3.43424 0
M  V30 4227 N 388.74 1.54641 0.303973 0
M  V30 4228 C 389.687 1.85386 1.37479 0
M  V30 4229 C 390.657 0.702528 1.50512 0
M  V30 4230 O 391.842 0.950867 1.65418 0
M  V30 4231 C 388.982 2.10413 2.73533 0
M  V30 4232 C 388.095 3.38049 2.68974 0
M  V30 4233 C 387.23 3.52934 3.97002 0
M  V30 4234 C 386.269 4.74373 3.86829 0
M  V30 4235 N 385.406 4.8608 5.06627 0
M  V30 4236 H 390.246 2.76732 1.1056 0
M  V30 4237 H 387.783 1.37034 0.534805 0
M  V30 4238 H 389.741 2.22919 3.52652 0
M  V30 4239 H 388.371 1.22338 2.98719 0
M  V30 4240 H 387.423 3.3418 1.81736 0
M  V30 4241 H 388.735 4.27288 2.57346 0
M  V30 4242 H 387.889 3.65088 4.84557 0
M  V30 4243 H 386.628 2.61824 4.1146 0
M  V30 4244 H 385.633 4.62255 2.97658 0
M  V30 4245 H 386.858 5.66888 3.73918 0
M  V30 4246 H 384.804 3.97891 5.21554 0
M  V30 4247 H 384.721 5.69315 4.9741 0
M  V30 4248 H 385.989 5.02587 5.95841 0
M  V30 4249 N 390.218 -0.567019 1.47046 0
M  V30 4250 C 391.629 -1.14916 1.47143 0
M  V30 4251 C 391.98 -1.94954 0.220767 0
M  V30 4252 O 391.105 -2.05602 -0.67505 0
M  V30 4253 C 391.7 -2.09069 2.666 0
M  V30 4254 C 390.259 -2.62575 2.69687 0
M  V30 4255 C 389.406 -1.38755 2.40088 0
M  V30 4256 H 392.357 -0.354126 1.54699 0
M  V30 4257 H 392.378 -2.92789 2.43011 0
M  V30 4258 H 391.89 -1.50789 3.57609 0
M  V30 4259 H 389.991 -3.24681 1.82792 0
M  V30 4260 H 390.104 -3.04239 3.70102 0
M  V30 4261 H 388.468 -1.69098 1.90468 0
M  V30 4262 H 389.251 -0.822822 3.33293 0
M  V30 4263 N 391.696 -1.35014 -0.812953 0
M  V30 4264 C 392.644 -1.27435 -1.94585 0
M  V30 4265 C 393.638 -0.170494 -1.6854 0
M  V30 4266 O 394.844 -0.336085 -1.76835 0
M  V30 4267 H 391.219 -0.396144 -0.639198 0
M  V30 4268 H 393.19 -2.23158 -1.98098 0
M  V30 4269 C 391.939 -1.05677 -3.31252 0
M  V30 4270 H 391.262 -1.89853 -3.51846 0
M  V30 4271 H 392.702 -1.04413 -4.10943 0
M  V30 4272 C 391.161 0.239615 -3.36047 0
M  V30 4273 O 391.691 1.23759 -3.8216 0
M  V30 4274 N 389.897 0.276186 -2.89285 0
M  V30 4275 H 389.444 -0.53653 -2.51951 0
M  V30 4276 H 389.402 1.14332 -2.92875 0
M  V30 4277 N 393.175 1.03435 -1.18907 0
M  V30 4278 C 394.452 1.73778 -0.89781 0
M  V30 4279 C 394.832 2.02458 0.597832 0
M  V30 4280 O 394.18 1.67482 1.55441 0
M  V30 4281 C 394.39 3.01845 -1.75187 0
M  V30 4282 C 395.738 3.7546 -1.9828 0
M  V30 4283 O 396.762 3.11759 -1.72293 0
M  V30 4284 O 395.621 4.89966 -2.42065 0
M  V30 4285 H 392.715 0.75651 -0.334098 0
M  V30 4286 H 395.261 1.09444 -1.29693 0
M  V30 4287 H 394.033 2.76836 -2.76545 0
M  V30 4288 H 393.656 3.73919 -1.35167 0
M  V30 4289 N 394.653 0.992116 1.22453 0
M  V30 4290 C 395.6 0.541731 2.24352 0
M  V30 4291 C 396.57 -0.425519 1.60557 0
M  V30 4292 O 397.755 -0.330453 1.87917 0
M  V30 4293 C 394.895 -0.138248 3.44823 0
M  V30 4294 C 394.008 0.870649 4.23136 0
M  V30 4295 C 393.143 0.164269 5.30946 0
M  V30 4296 C 392.182 1.16159 6.00977 0
M  V30 4297 N 391.319 0.483568 7.00433 0
M  V30 4298 H 396.159 1.41541 2.62241 0
M  V30 4299 H 393.696 0.709013 1.28885 0
M  V30 4300 H 395.654 -0.5494 4.13567 0
M  V30 4301 H 394.284 -0.975721 3.077 0
M  V30 4302 H 393.336 1.40013 3.53696 0
M  V30 4303 H 394.648 1.63014 4.7141 0
M  V30 4304 H 393.802 -0.303653 6.0594 0
M  V30 4305 H 392.541 -0.627733 4.83643 0
M  V30 4306 H 391.546 1.64015 5.24766 0
M  V30 4307 H 392.771 1.95445 6.50368 0
M  V30 4308 H 390.717 -0.289012 6.55363 0
M  V30 4309 H 390.634 1.18152 7.4671 0
M  V30 4310 H 391.902 0.0384219 7.79491 0
M  V30 4311 N 396.131 -1.37776 0.765217 0
M  V30 4312 C 397.061 -2.32945 0.160953 0
M  V30 4313 C 398.042 -1.55454 -0.690516 0
M  V30 4314 O 399.227 -1.83721 -0.629318 0
M  V30 4315 C 396.357 -3.39669 -0.724031 0
M  V30 4316 C 395.311 -4.27992 0.0256173 0
M  V30 4317 C 394.637 -5.25673 -0.978383 0
M  V30 4318 C 395.937 -5.08309 1.20082 0
M  V30 4319 H 397.631 -2.83728 0.955969 0
M  V30 4320 H 395.177 -1.36416 0.461149 0
M  V30 4321 H 397.13 -4.05219 -1.15652 0
M  V30 4322 H 395.854 -2.87396 -1.5515 0
M  V30 4323 H 394.513 -3.63964 0.438812 0
M  V30 4324 H 394.161 -4.69682 -1.80022 0
M  V30 4325 H 393.861 -5.85625 -0.481378 0
M  V30 4326 H 395.385 -5.94098 -1.40995 0
M  V30 4327 H 396.799 -5.67034 0.845307 0
M  V30 4328 H 395.196 -5.77554 1.62947 0
M  V30 4329 H 396.266 -4.41365 2.00811 0
M  V30 4330 N 397.609 -0.515225 -1.4894 0
M  V30 4331 C 398.858 0.0261361 -2.01683 0
M  V30 4332 C 399.171 1.36719 -1.39883 0
M  V30 4333 O 400.377 1.99606 -1.84037 0
M  V30 4334 C 398.833 0.0970111 -3.59769 0
M  V30 4335 C 398.441 -1.23825 -4.30548 0
M  V30 4336 C 400.185 0.587981 -4.20408 0
M  V30 4337 C 398.092 -1.12877 -5.80528 0
M  V30 4338 H 397.022 0.0135398 -0.753878 0
M  V30 4339 H 399.673 -0.656787 -1.71343 0
M  V30 4340 H 398.055 0.844694 -3.86886 0
M  V30 4341 H 399.229 -2.00034 -4.15118 0
M  V30 4342 H 397.544 -1.66379 -3.81716 0
M  V30 4343 H 400.141 0.68763 -5.3026 0
M  V30 4344 H 400.484 1.59026 -3.84729 0
M  V30 4345 H 401.017 -0.103582 -3.97665 0
M  V30 4346 H 397.756 -2.10575 -6.20756 0
M  V30 4347 H 397.276 -0.407799 -5.98412 0
M  V30 4348 H 398.955 -0.813332 -6.41868 0
M  V30 4349 N 399.087 1.5561 -0.249682 0
M  V30 4350 C 400.312 2.03865 0.381305 0
M  V30 4351 C 400.737 1.12769 1.50548 0
M  V30 4352 O 400.095 0.121189 1.80895 0
M  V30 4353 C 400.143 3.50101 0.863816 0
M  V30 4354 O 399.247 3.62132 1.97318 0
M  V30 4355 H 398.588 0.658827 0.0827194 0
M  V30 4356 H 401.118 2.01105 -0.376552 0
M  V30 4357 H 401.128 3.90975 1.1663 0
M  V30 4358 H 399.803 4.1588 0.0411816 0
M  V30 4359 H 398.38 3.33155 1.67517 0
M  V30 4360 N 400.565 -0.0233959 1.57583 0
M  V30 4361 C 401.475 -1.03907 2.10334 0
M  V30 4362 C 402.491 -1.39257 1.04323 0
M  V30 4363 O 403.667 -1.48462 1.36091 0
M  V30 4364 C 400.732 -2.31938 2.57693 0
M  V30 4365 C 399.793 -2.03117 3.78209 0
M  V30 4366 C 399.026 -3.25043 4.233 0
M  V30 4367 O 399.249 -4.35916 3.67876 0
M  V30 4368 O 398.183 -3.10411 5.15683 0
M  V30 4369 H 402.009 -0.620748 2.97288 0
M  V30 4370 H 399.594 -0.240743 1.47448 0
M  V30 4371 H 401.476 -3.07196 2.88458 0
M  V30 4372 H 400.151 -2.73055 1.73847 0
M  V30 4373 H 399.058 -1.25408 3.52454 0
M  V30 4374 H 400.391 -1.66852 4.63056 0
M  V30 4375 N 402.043 -1.548 -0.295768 0
M  V30 4376 C 403.271 -1.78327 -1.04914 0
M  V30 4377 C 403.686 -0.545316 -1.80753 0
M  V30 4378 O 403.043 0.485013 -1.75937 0
M  V30 4379 C 403.094 -2.99418 -2.02561 0
M  V30 4380 O 402.815 -4.18431 -1.29798 0
M  V30 4381 C 404.316 -3.35375 -2.89895 0
M  V30 4382 H 401.536 -0.594618 -0.310918 0
M  V30 4383 H 404.08 -2.01763 -0.333454 0
M  V30 4384 H 402.235 -2.78175 -2.69624 0
M  V30 4385 H 402.649 -4.86736 -1.95419 0
M  V30 4386 H 404.123 -4.23332 -3.54251 0
M  V30 4387 H 404.6 -2.53761 -3.58472 0
M  V30 4388 H 405.206 -3.58796 -2.28355 0
M  V30 4389 N 403.521 0.559213 -1.47345 0
M  V30 4390 C 404.484 1.64854 -1.59235 0
M  V30 4391 C 405.484 1.53851 -0.467607 0
M  V30 4392 O 406.674 1.58045 -0.732617 0
M  V30 4393 C 403.806 3.04388 -1.53496 0
M  V30 4394 H 404.999 1.55662 -2.56339 0
M  V30 4395 H 402.552 0.778973 -1.35505 0
M  V30 4396 H 403.287 3.19115 -0.577604 0
M  V30 4397 H 403.072 3.13783 -2.35123 0
M  V30 4398 H 404.562 3.83642 -1.6495 0
M  V30 4399 N 404.999 1.35443 0.805782 0
M  V30 4400 C 405.946 1.28431 1.91766 0
M  V30 4401 C 406.916 0.156102 1.65365 0
M  V30 4402 O 408.101 0.339936 1.87747 0
M  V30 4403 C 405.241 1.06301 3.2832 0
M  V30 4404 C 404.354 2.2805 3.66902 0
M  V30 4405 C 403.489 1.99064 4.92491 0
M  V30 4406 C 402.528 3.16863 5.23703 0
M  V30 4407 N 401.665 2.87647 6.40471 0
M  V30 4408 H 406.505 2.23511 1.97096 0
M  V30 4409 H 404.042 1.11105 0.964054 0
M  V30 4410 H 406 0.915012 4.07042 0
M  V30 4411 H 404.63 0.148822 3.22457 0
M  V30 4412 H 403.682 2.53711 2.83434 0
M  V30 4413 H 404.994 3.1601 3.85927 0
M  V30 4414 H 404.148 1.81099 5.7904 0
M  V30 4415 H 402.887 1.0839 4.75503 0
M  V30 4416 H 401.892 3.35404 4.35642 0
M  V30 4417 H 403.117 4.08339 5.4262 0
M  V30 4418 H 401.063 1.99568 6.24907 0
M  V30 4419 H 400.98 3.69141 6.59751 0
M  V30 4420 H 402.248 2.73226 7.30047 0
M  V30 4421 N 406.477 -1.02803 1.19454 0
M  V30 4422 C 407.702 -1.80378 1.02364 0
M  V30 4423 C 408.127 -1.83282 -0.423007 0
M  V30 4424 O 407.485 -1.25945 -1.30413 0
M  V30 4425 C 407.533 -3.23248 1.59821 0
M  V30 4426 O 406.637 -4.04 0.828105 0
M  V30 4427 H 405.978 -0.556799 0.361761 0
M  V30 4428 H 408.508 -1.29385 1.58495 0
M  V30 4429 H 408.518 -3.73994 1.63073 0
M  V30 4430 H 407.193 -3.2045 2.65113 0
M  V30 4431 H 405.77 -3.62635 0.86891 0
M  V30 4432 N 407.956 -0.998596 -1.21925 0
M  V30 4433 C 409.202 -0.678667 -1.91107 0
M  V30 4434 C 409.535 0.78791 -1.77498 0
M  V30 4435 O 408.81 1.57043 -1.1475 0
M  V30 4436 C 409.093 -1.09245 -3.43129 0
M  V30 4437 C 408.946 -2.61801 -3.6576 0
M  V30 4438 C 410.265 -0.649984 -4.35274 0
M  V30 4439 H 407.384 -0.248025 -0.694012 0
M  V30 4440 H 410.026 -1.24314 -1.43688 0
M  V30 4441 H 408.176 -0.612171 -3.83647 0
M  V30 4442 H 409.848 -3.17543 -3.34611 0
M  V30 4443 H 408.091 -3.03609 -3.09845 0
M  V30 4444 H 408.762 -2.85804 -4.7225 0
M  V30 4445 H 411.238 -1.0626 -4.02303 0
M  V30 4446 H 410.114 -0.967743 -5.40302 0
M  V30 4447 H 410.375 0.449139 -4.39813 0
M  V30 4448 N 409.434 1.37368 -0.772513 0
M  V30 4449 C 410.367 2.27956 -0.105593 0
M  V30 4450 C 411.345 1.46362 0.708295 0
M  V30 4451 O 412.529 1.75695 0.682895 0
M  V30 4452 C 409.656 3.27687 0.856686 0
M  V30 4453 C 408.702 4.26312 0.1267 0
M  V30 4454 S 409.535 5.22206 -1.1858 0
M  V30 4455 C 410.691 6.25488 -0.227081 0
M  V30 4456 H 410.924 2.84171 -0.87372 0
M  V30 4457 H 408.457 1.43654 -0.565939 0
M  V30 4458 H 410.415 3.85653 1.40648 0
M  V30 4459 H 409.076 2.70417 1.59793 0
M  V30 4460 H 408.269 4.96674 0.856212 0
M  V30 4461 H 407.871 3.72339 -0.352117 0
M  V30 4462 H 410.163 6.74836 0.600231 0
M  V30 4463 H 411.106 7.02371 -0.898899 0
M  V30 4464 H 411.514 5.64267 0.162053 0
M  V30 4465 N 410.912 0.523116 1.48665 0
M  V30 4466 C 411.859 -0.243398 2.29513 0
M  V30 4467 C 412.829 -0.940139 1.36933 0
M  V30 4468 O 414.014 -0.942503 1.65896 0
M  V30 4469 C 411.154 -1.28855 3.20141 0
M  V30 4470 C 410.267 -0.60135 4.27794 0
M  V30 4471 C 409.402 -1.62884 5.05611 0
M  V30 4472 C 408.441 -0.924726 6.05075 0
M  V30 4473 N 407.578 -1.89744 6.75975 0
M  V30 4474 H 412.418 0.452234 2.94549 0
M  V30 4475 H 409.955 0.234858 1.45213 0
M  V30 4476 H 411.913 -1.90674 3.71079 0
M  V30 4477 H 410.543 -1.95266 2.57043 0
M  V30 4478 H 409.595 0.130623 3.80176 0
M  V30 4479 H 410.907 -0.0481585 4.98777 0
M  V30 4480 H 410.061 -2.32149 5.60528 0
M  V30 4481 H 408.8 -2.21592 4.34452 0
M  V30 4482 H 407.805 -0.217966 5.49368 0
M  V30 4483 H 409.03 -0.343851 6.78229 0
M  V30 4484 H 406.976 -2.47373 6.07571 0
M  V30 4485 H 406.893 -1.3955 7.43009 0
M  V30 4486 H 408.161 -2.58229 7.35485 0
M  V30 4487 N 412.39 -1.55475 0.257931 0
M  V30 4488 C 413.3 -2.2549 -0.647425 0
M  V30 4489 C 414.316 -1.2748 -1.18427 0
M  V30 4490 O 415.492 -1.6038 -1.2182 0
M  V30 4491 C 412.557 -2.94916 -1.82278 0
M  V30 4492 C 411.618 -4.08363 -1.32432 0
M  V30 4493 C 410.851 -4.74469 -2.44366 0
M  V30 4494 O 411.074 -4.39701 -3.63344 0
M  V30 4495 O 410.008 -5.62763 -2.13497 0
M  V30 4496 H 413.834 -3.03593 -0.0807707 0
M  V30 4497 H 411.419 -1.49377 0.0259962 0
M  V30 4498 H 413.301 -3.38606 -2.50846 0
M  V30 4499 H 411.976 -2.19744 -2.37685 0
M  V30 4500 H 410.883 -3.69166 -0.605605 0
M  V30 4501 H 412.216 -4.85385 -0.816211 0
M  V30 4502 N 413.868 0.0150385 -1.57593 0
M  V30 4503 C 415.115 0.703001 -1.89906 0
M  V30 4504 C 415.443 1.74604 -0.856944 0
M  V30 4505 O 414.698 1.95197 0.140287 0
M  V30 4506 C 414.997 1.39686 -3.28972 0
M  V30 4507 C 414.663 0.488457 -4.48246 0
M  V30 4508 C 413.325 0.2383 -4.8061 0
M  V30 4509 C 415.677 -0.137881 -5.21018 0
M  V30 4510 C 413.005 -0.646738 -5.83125 0
M  V30 4511 C 415.357 -1.0107 -6.24474 0
M  V30 4512 C 414.021 -1.27019 -6.55303 0
M  V30 4513 H 413.291 0.257246 -0.694914 0
M  V30 4514 H 415.938 -0.037259 -1.91464 0
M  V30 4515 H 414.243 2.21079 -3.23468 0
M  V30 4516 H 415.94 1.93495 -3.51227 0
M  V30 4517 H 412.53 0.693593 -4.22951 0
M  V30 4518 H 416.714 0.0423953 -4.96282 0
M  V30 4519 H 411.97 -0.855937 -6.05379 0
M  V30 4520 H 416.144 -1.50247 -6.79999 0
M  V30 4521 H 413.771 -1.95769 -7.3456 0
M  V30 4522 O 415.385 1.60729 0.157609 0
M  V30 4523 H 416.076 1.76727 0.792919 0
M  V30 END ATOM
M  V30 BEGIN BOND
M  V30 END BOND
M  V30 END CTAB
M  END
$$$$
