drugbank_target|Q46079 Chondroitinase-B (DB01872; DB02379; DB03389; DB03863; DB04492; DB04515; DB04548)
 OpenBabel12092119523D

  0  0  0     0  0            999 V3000
M  V30 BEGIN CTAB
M  V30 COUNTS 7905 7999 0 0 0
M  V30 BEGIN ATOM
M  V30 1 H -0.908 1.98254 -0.117106 0
M  V30 2 N 0 1.576 0 0
M  V30 3 C 0.933 2.03868 1.02534 0
M  V30 4 C 1.911 0.928543 1.3348 0
M  V30 5 O 3.095 1.19667 1.45644 0
M  V30 6 C 0.222 2.43627 2.35294 0
M  V30 7 C -0.732 3.65373 2.2001 0
M  V30 8 S 0.101 5.13292 1.52614 0
M  V30 9 C 1.257 5.56322 2.86805 0
M  V30 10 H 1.49 2.90518 0.631377 0
M  V30 11 H -0.977 1.52953 0.210867 0
M  V30 12 H 0.981 2.67203 3.11629 0
M  V30 13 H -0.358 1.57376 2.7183 0
M  V30 14 H -1.165 3.90944 3.18086 0
M  V30 15 H -1.563 3.418 1.51819 0
M  V30 16 H 0.729 5.58782 3.83104 0
M  V30 17 H 1.672 6.56266 2.65933 0
M  V30 18 H 2.08 4.83886 2.90714 0
M  V30 19 N 1.4781 -0.272755 1.55222 0
M  V30 20 C 2.4251 -1.33716 1.88119 0
M  V30 21 C 3.3951 -1.49066 0.73271 0
M  V30 22 O 4.5801 -1.63469 0.984002 0
M  V30 23 C 1.7201 -2.69238 2.15882 0
M  V30 24 C 0.8331 -2.62108 3.43399 0
M  V30 25 C -0.0319 -3.89811 3.60861 0
M  V30 26 C -0.9929 -3.77193 4.8207 0
M  V30 27 N -1.8559 -4.9673 4.96189 0
M  V30 28 H 2.9841 -1.04962 2.78903 0
M  V30 29 H 0.5211 -0.507088 1.38083 0
M  V30 30 H 2.4791 -3.48089 2.29978 0
M  V30 31 H 1.1091 -2.96194 1.28331 0
M  V30 32 H 0.1611 -1.74967 3.37773 0
M  V30 33 H 1.4731 -2.48685 4.32386 0
M  V30 34 H 0.6271 -4.77103 3.74777 0
M  V30 35 H -0.6339 -4.06102 2.7006 0
M  V30 36 H -1.6289 -2.88284 4.68159 0
M  V30 37 H -0.4039 -3.62421 5.74307 0
M  V30 38 H -2.4579 -5.13431 4.08319 0
M  V30 39 H -2.5409 -4.85839 5.79221 0
M  V30 40 H -1.2729 -5.85594 5.1449 0
M  V30 41 N 2.9562 -1.48159 -0.537278 0
M  V30 42 C 3.8892 -1.567 -1.65893 0
M  V30 43 C 4.8672 -0.41787 -1.57139 0
M  V30 44 O 6.0512 -0.628461 -1.77715 0
M  V30 45 C 3.1782 -1.48818 -3.04255 0
M  V30 46 C 2.2242 -2.68482 -3.31391 0
M  V30 47 S 3.0572 -4.30516 -3.1846 0
M  V30 48 C 4.2132 -4.2522 -4.59281 0
M  V30 49 H 4.4462 -2.5159 -1.58397 0
M  V30 50 H 1.9792 -1.36602 -0.719672 0
M  V30 51 H 3.9372 -1.44958 -3.84054 0
M  V30 52 H 2.5982 -0.552777 -3.09198 0
M  V30 53 H 1.7912 -2.59085 -4.32309 0
M  V30 54 H 1.3932 -2.69567 -2.59248 0
M  V30 55 H 3.6852 -3.94703 -5.5065 0
M  V30 56 H 4.6282 -5.26292 -4.73732 0
M  V30 57 H 5.0362 -3.55791 -4.38261 0
M  V30 58 N 4.4343 0.785586 -1.36625 0
M  V30 59 C 5.3643 1.91259 -1.33949 0
M  V30 60 C 6.3453 1.68795 -0.210325 0
M  V30 61 O 7.5303 1.89854 -0.408561 0
M  V30 62 C 4.6603 3.28339 -1.13186 0
M  V30 63 C 3.6143 3.65335 -2.22967 0
M  V30 64 C 2.9403 5.00806 -1.87342 0
M  V30 65 C 4.2403 3.7352 -3.65075 0
M  V30 66 H 5.9343 1.93755 -2.28253 0
M  V30 67 H 3.4803 0.930788 -1.09874 0
M  V30 68 H 5.4333 4.06804 -1.09948 0
M  V30 69 H 4.1573 3.2624 -0.153332 0
M  V30 70 H 2.8163 2.89169 -2.25337 0
M  V30 71 H 2.4643 4.95233 -0.880545 0
M  V30 72 H 2.1643 5.26529 -2.60846 0
M  V30 73 H 3.6883 5.81687 -1.85667 0
M  V30 74 H 5.1023 4.42168 -3.64911 0
M  V30 75 H 3.4993 4.10731 -4.37516 0
M  V30 76 H 4.5693 2.74527 -3.99703 0
M  V30 77 N 5.9124 1.20967 1.01018 0
M  V30 78 C 6.8604 0.961223 2.1181 0
M  V30 79 C 7.8544 -0.0897034 1.69162 0
M  V30 80 O 9.0604 0.0612271 1.79896 0
M  V30 81 H 5.4354 0.29355 0.692338 0
M  V30 82 H 7.4064 1.90178 2.29946 0
M  V30 83 C 6.1554 0.536854 3.4353 0
M  V30 84 H 5.4784 1.33713 3.76777 0
M  V30 85 H 6.9184 0.402286 4.22087 0
M  V30 86 C 5.3774 -0.751574 3.2841 0
M  V30 87 O 5.9074 -1.80841 3.58691 0
M  V30 88 N 4.1134 -0.716079 2.81639 0
M  V30 89 H 3.6604 0.144236 2.57196 0
M  V30 90 H 3.6184 -1.57847 2.71904 0
M  V30 91 N 7.3905 -1.2043 1.01659 0
M  V30 92 C 8.3375 -2.23215 0.586822 0
M  V30 93 C 9.3075 -1.61382 -0.393085 0
M  V30 94 O 10.4925 -1.88544 -0.292525 0
M  V30 95 C 7.6325 -3.45032 -0.0687464 0
M  V30 96 C 6.7455 -4.21296 0.955724 0
M  V30 97 C 5.8805 -5.30507 0.271208 0
M  V30 98 C 4.9195 -5.98515 1.28244 0
M  V30 99 N 4.0565 -6.99316 0.62459 0
M  V30 100 H 8.8965 -2.59336 1.46796 0
M  V30 101 H 6.4335 -1.27431 0.734836 0
M  V30 102 H 8.3915 -4.1459 -0.465965 0
M  V30 103 H 7.0215 -3.09604 -0.913529 0
M  V30 104 H 6.0735 -3.50803 1.4711 0
M  V30 105 H 7.3855 -4.6803 1.72479 0
M  V30 106 H 6.5395 -6.06428 -0.18151 0
M  V30 107 H 5.2785 -4.8481 -0.530163 0
M  V30 108 H 4.2835 -5.21355 1.74554 0
M  V30 109 H 5.5085 -6.46298 2.08509 0
M  V30 110 H 3.4545 -6.55812 -0.156914 0
M  V30 111 H 3.3715 -7.44178 1.33172 0
M  V30 112 H 4.6395 -7.79255 0.195462 0
M  V30 113 N 8.8686 -0.792821 -1.36206 0
M  V30 114 C 9.7986 -0.207853 -2.32573 0
M  V30 115 C 10.7796 0.659055 -1.56813 0
M  V30 116 O 11.9646 0.592176 -1.84951 0
M  V30 117 C 9.0946 0.655449 -3.41059 0
M  V30 118 C 8.0486 -0.111842 -4.27854 0
M  V30 119 C 7.3746 0.872274 -5.27537 0
M  V30 120 C 8.6746 -1.30299 -5.05786 0
M  V30 121 H 10.3686 -1.01294 -2.81744 0
M  V30 122 H 7.9146 -0.48854 -1.3546 0
M  V30 123 H 9.8676 1.07464 -4.07467 0
M  V30 124 H 8.5916 1.49328 -2.90463 0
M  V30 125 H 7.2506 -0.512053 -3.63006 0
M  V30 126 H 6.8986 1.70523 -4.73214 0
M  V30 127 H 6.5986 0.363291 -5.86476 0
M  V30 128 H 8.1226 1.28996 -5.96818 0
M  V30 129 H 9.5366 -0.959379 -5.65216 0
M  V30 130 H 7.9336 -1.7455 -5.74154 0
M  V30 131 H 9.0036 -2.09663 -4.37229 0
M  V30 132 N 10.3467 1.47872 -0.545128 0
M  V30 133 C 11.3097 2.28337 0.198717 0
M  V30 134 C 12.3097 1.36255 0.853888 0
M  V30 135 O 13.4997 1.59003 0.711606 0
M  V30 136 C 10.6317 3.15585 1.28915 0
M  V30 137 H 11.8247 2.95567 -0.507941 0
M  V30 138 H 9.3777 1.53362 -0.301616 0
M  V30 139 H 10.1127 2.53019 2.02859 0
M  V30 140 H 9.8977 3.83337 0.824309 0
M  V30 141 H 11.3877 3.76243 1.81194 0
M  V30 142 N 11.8248 0.280983 1.55075 0
M  V30 143 C 13.0728 -0.333455 1.9933 0
M  V30 144 C 13.3938 -1.55937 1.17085 0
M  V30 145 O 12.6638 -1.94143 0.261805 0
M  V30 146 H 11.2438 -0.126197 0.736263 0
M  V30 147 H 13.9058 0.387678 1.91005 0
M  V30 148 H 13.0018 -0.619292 3.05894 0
M  V30 149 N 13.3029 -1.57598 0.00835791 0
M  V30 150 C 14.5329 -1.94931 -0.684496 0
M  V30 151 C 14.9409 -0.882233 -1.67372 0
M  V30 152 O 14.2839 0.146621 -1.83114 0
M  V30 153 C 14.3459 -3.283 -1.4649 0
M  V30 154 C 14.0099 -4.52548 -0.63634 0
M  V30 155 C 15.0069 -5.19839 0.0795586 0
M  V30 156 C 12.6919 -4.98942 -0.579849 0
M  V30 157 C 14.6859 -6.3183 0.840843 0
M  V30 158 C 12.3729 -6.10819 0.185155 0
M  V30 159 C 13.3709 -6.77121 0.894227 0
M  V30 160 O 13.0589 -7.86853 1.64673 0
M  V30 161 H 12.7909 -0.647249 -0.19505 0
M  V30 162 H 15.3449 -2.05318 0.0581272 0
M  V30 163 H 13.5749 -3.14345 -2.2522 0
M  V30 164 H 15.2639 -3.50685 -2.04389 0
M  V30 165 H 16.0299 -4.84979 0.0451202 0
M  V30 166 H 11.9089 -4.47155 -1.1213 0
M  V30 167 H 15.4529 -6.83513 1.39483 0
M  V30 168 H 11.3499 -6.4512 0.221384 0
M  V30 169 H 12.1179 -8.03412 1.56432 0
M  V30 170 N 14.781 0.264519 -1.55364 0
M  V30 171 C 15.711 1.33121 -1.91836 0
M  V30 172 C 16.692 1.51101 -0.781192 0
M  V30 173 O 17.877 1.64003 -1.04003 0
M  V30 174 C 15.007 2.68921 -2.19769 0
M  V30 175 C 13.961 2.65661 -3.35571 0
M  V30 176 C 13.287 4.05093 -3.49004 0
M  V30 177 C 14.587 2.24187 -4.71739 0
M  V30 178 H 16.281 1.02844 -2.81182 0
M  V30 179 H 13.827 0.493286 -1.35287 0
M  V30 180 H 15.78 3.43663 -2.43872 0
M  V30 181 H 14.504 3.00799 -1.27231 0
M  V30 182 H 13.163 1.93377 -3.1145 0
M  V30 183 H 12.811 4.34206 -2.53917 0
M  V30 184 H 12.511 4.03804 -4.26868 0
M  V30 185 H 14.035 4.81561 -3.75408 0
M  V30 186 H 15.449 2.88654 -4.9533 0
M  V30 187 H 13.846 2.34044 -5.52579 0
M  V30 188 H 14.916 1.19327 -4.69988 0
M  V30 189 N 16.2591 1.48442 0.529413 0
M  V30 190 C 17.1891 1.65902 1.64313 0
M  V30 191 C 18.1701 0.507897 1.6234 0
M  V30 192 O 19.3551 0.740503 1.79528 0
M  V30 193 C 16.4851 1.69911 3.02898 0
M  V30 194 C 15.4391 2.8453 3.19729 0
M  V30 195 C 14.7651 2.73629 4.59381 0
M  V30 196 C 16.0651 4.25821 3.02447 0
M  V30 197 H 17.7591 2.5914 1.49955 0
M  V30 198 H 15.3051 1.24709 0.719982 0
M  V30 199 H 17.2581 1.80715 3.80684 0
M  V30 200 H 15.9821 0.732524 3.18279 0
M  V30 201 H 14.6411 2.73283 2.44361 0
M  V30 202 H 14.2891 1.74938 4.71599 0
M  V30 203 H 13.9891 3.50541 4.71588 0
M  V30 204 H 15.5131 2.86401 5.39265 0
M  V30 205 H 16.9271 4.37898 3.70024 0
M  V30 206 H 15.3241 5.03735 3.26146 0
M  V30 207 H 16.3941 4.42244 1.98867 0
M  V30 208 N 17.7372 -0.778329 1.37039 0
M  V30 209 C 19.1482 -1.35421 1.28523 0
M  V30 210 C 19.4992 -1.96075 -0.0700901 0
M  V30 211 O 18.6242 -1.93352 -0.971801 0
M  V30 212 C 19.2192 -2.46211 2.32735 0
M  V30 213 C 17.7782 -2.99585 2.27873 0
M  V30 214 C 16.9252 -1.72748 2.16918 0
M  V30 215 H 19.8762 -0.5791 1.47757 0
M  V30 216 H 19.8972 -3.2552 1.9702 0
M  V30 217 H 19.4092 -2.02036 3.31365 0
M  V30 218 H 17.5102 -3.48152 1.32745 0
M  V30 219 H 17.6232 -3.55646 3.21018 0
M  V30 220 H 15.9872 -1.95416 1.63354 0
M  V30 221 H 16.7702 -1.30686 3.17452 0
M  V30 222 N 19.2153 -1.21501 -1.00376 0
M  V30 223 C 20.4643 -1.02718 -1.73586 0
M  V30 224 C 20.7773 0.439589 -1.90596 0
M  V30 225 O 21.9833 0.746848 -2.61026 0
M  V30 226 C 20.4393 -1.78929 -3.1227 0
M  V30 227 C 20.0473 -3.29783 -3.03228 0
M  V30 228 C 21.7913 -1.68557 -3.89601 0
M  V30 229 C 19.6983 -3.98479 -4.36999 0
M  V30 230 H 18.6283 -0.380733 -0.650814 0
M  V30 231 H 21.2793 -1.45248 -1.1214 0
M  V30 232 H 19.6613 -1.29192 -3.74333 0
M  V30 233 H 20.8353 -3.86832 -2.50395 0
M  V30 234 H 19.1503 -3.40711 -2.39385 0
M  V30 235 H 21.7473 -2.17211 -4.88593 0
M  V30 236 H 22.0903 -0.644021 -4.11288 0
M  V30 237 H 22.6233 -2.15778 -3.34193 0
M  V30 238 H 19.3623 -5.02841 -4.20513 0
M  V30 239 H 18.8823 -3.46219 -4.89788 0
M  V30 240 H 20.5613 -4.03462 -5.05794 0
M  V30 241 N 20.6934 1.19889 -1.02296 0
M  V30 242 C 21.6264 2.21639 -0.543282 0
M  V30 243 C 22.6044 1.57275 0.412698 0
M  V30 244 O 23.7884 1.85568 0.331198 0
M  V30 245 C 20.9154 3.38057 0.208571 0
M  V30 246 C 19.9614 4.20751 -0.697933 0
M  V30 247 S 20.7944 4.89529 -2.17075 0
M  V30 248 C 21.9504 6.09363 -1.42923 0
M  V30 249 H 22.1834 2.61984 -1.40541 0
M  V30 250 H 19.7164 1.30041 -0.832387 0
M  V30 251 H 21.6744 4.05539 0.63624 0
M  V30 252 H 20.3354 2.96159 1.04635 0
M  V30 253 H 19.5284 5.03862 -0.117831 0
M  V30 254 H 19.1304 3.58556 -1.06366 0
M  V30 255 H 21.4224 6.73742 -0.712637 0
M  V30 256 H 22.3654 6.71845 -2.23673 0
M  V30 257 H 22.7734 5.56798 -0.929327 0
M  V30 258 N 22.1715 0.800033 1.35784 0
M  V30 259 C 23.4175 0.377901 1.99248 0
M  V30 260 C 23.7505 -1.05052 1.63333 0
M  V30 261 O 23.0255 -1.72768 0.893385 0
M  V30 262 C 23.3085 0.553922 3.55814 0
M  V30 263 C 23.1615 2.0268 4.01548 0
M  V30 264 C 24.4805 -0.0244802 4.40093 0
M  V30 265 H 21.5995 0.138782 0.723815 0
M  V30 266 H 24.2415 1.00835 1.61035 0
M  V30 267 H 22.3915 0.0172398 3.88496 0
M  V30 268 H 24.0635 2.62536 3.79305 0
M  V30 269 H 22.3065 2.5256 3.52698 0
M  V30 270 H 22.9775 2.10087 5.10458 0
M  V30 271 H 25.4535 0.433775 4.13833 0
M  V30 272 H 24.3295 0.128637 5.48749 0
M  V30 273 H 24.5905 -1.11758 4.27741 0
M  V30 274 N 23.6496 -1.47581 0.552962 0
M  V30 275 C 24.5796 -2.32762 -0.185451 0
M  V30 276 C 25.5606 -1.43527 -0.912905 0
M  V30 277 O 26.7456 -1.72388 -0.894201 0
M  V30 278 C 23.8756 -3.25219 -1.21859 0
M  V30 279 C 22.8296 -4.23661 -0.607864 0
M  V30 280 C 22.1556 -5.05413 -1.74533 0
M  V30 281 C 23.4556 -5.20481 0.435582 0
M  V30 282 H 25.1496 -2.94749 0.525684 0
M  V30 283 H 22.6956 -1.41738 0.254251 0
M  V30 284 H 24.6486 -3.8365 -1.7433 0
M  V30 285 H 23.3726 -2.61279 -1.95961 0
M  V30 286 H 22.0316 -3.66451 -0.104489 0
M  V30 287 H 21.6796 -4.3788 -2.47529 0
M  V30 288 H 21.3796 -5.72059 -1.34249 0
M  V30 289 H 22.9036 -5.66701 -2.27338 0
M  V30 290 H 24.3176 -5.733 -0.00290157 0
M  V30 291 H 22.7146 -5.95305 0.757067 0
M  V30 292 H 23.7846 -4.66217 1.33303 0
M  V30 293 N 25.1277 -0.289203 -1.54924 0
M  V30 294 C 26.0577 0.58549 -2.2604 0
M  V30 295 C 27.0387 1.14753 -1.25562 0
M  V30 296 O 28.2237 1.17906 -1.54311 0
M  V30 297 C 25.3537 1.76305 -2.99222 0
M  V30 298 C 24.3077 1.33191 -4.06748 0
M  V30 299 C 23.6337 2.5937 -4.6758 0
M  V30 300 C 24.9337 0.471775 -5.20165 0
M  V30 301 H 26.6277 -0.00763532 -2.99399 0
M  V30 302 H 24.1737 -0.00511229 -1.43999 0
M  V30 303 H 26.1267 2.38097 -3.47689 0
M  V30 304 H 24.8507 2.38223 -2.23422 0
M  V30 305 H 23.5097 0.737121 -3.59113 0
M  V30 306 H 23.1577 3.19576 -3.88433 0
M  V30 307 H 22.8577 2.31228 -5.40192 0
M  V30 308 H 24.3817 3.21985 -5.18804 0
M  V30 309 H 25.7957 0.995056 -5.64599 0
M  V30 310 H 24.1927 0.284639 -5.99425 0
M  V30 311 H 25.2627 -0.506041 -4.82252 0
M  V30 312 N 26.6058 1.57591 -0.0167156 0
M  V30 313 C 27.5538 2.10604 0.987353 0
M  V30 314 C 28.5478 1.02977 1.34507 0
M  V30 315 O 29.7538 1.21425 1.32875 0
M  V30 316 H 26.1288 0.672695 0.336134 0
M  V30 317 H 28.0998 2.93925 0.514817 0
M  V30 318 C 26.8488 2.6382 2.26483 0
M  V30 319 H 26.1718 3.46278 1.99829 0
M  V30 320 H 27.6118 3.04573 2.94977 0
M  V30 321 C 26.0708 1.55992 2.9861 0
M  V30 322 O 26.6008 0.952521 3.90243 0
M  V30 323 N 24.8068 1.28335 2.60727 0
M  V30 324 H 24.3538 1.77914 1.86291 0
M  V30 325 H 24.3118 0.564115 3.09298 0
M  V30 326 N 28.0839 -0.256276 1.55502 0
M  V30 327 C 29.3299 -0.987079 1.77157 0
M  V30 328 C 29.6629 -1.85327 0.580315 0
M  V30 329 O 28.9379 -1.89874 -0.421686 0
M  V30 330 C 29.2209 -1.85553 3.08613 0
M  V30 331 C 29.0739 -1.01816 4.38125 0
M  V30 332 C 30.3929 -2.8397 3.36228 0
M  V30 333 H 27.5119 -0.357428 0.644526 0
M  V30 334 H 30.1539 -0.258239 1.88237 0
M  V30 335 H 28.3039 -2.47695 2.99298 0
M  V30 336 H 29.9759 -0.416159 4.59419 0
M  V30 337 H 28.2189 -0.322178 4.32602 0
M  V30 338 H 28.8899 -1.65939 5.26468 0
M  V30 339 H 31.3659 -2.31964 3.45445 0
M  V30 340 H 30.2419 -3.41864 4.29442 0
M  V30 341 H 30.5029 -3.59955 2.56681 0
M  V30 342 N 29.562 -1.4872 -0.521534 0
M  V30 343 C 30.525 -1.63379 -1.60748 0
M  V30 344 C 31.525 -0.50661 -1.52611 0
M  V30 345 O 32.715 -0.772601 -1.5613 0
M  V30 346 C 29.847 -1.61192 -3.00383 0
M  V30 347 H 31.04 -2.60217 -1.49087 0
M  V30 348 H 28.593 -1.37444 -0.744235 0
M  V30 349 H 29.328 -0.65863 -3.17541 0
M  V30 350 H 29.113 -2.43032 -3.07698 0
M  V30 351 H 30.603 -1.7466 -3.7932 0
M  V30 352 N 31.0401 0.771051 -1.3745 0
M  V30 353 C 32.4511 1.34737 -1.29239 0
M  V30 354 C 32.8021 1.96109 0.0596908 0
M  V30 355 O 31.9271 1.93865 0.961534 0
M  V30 356 C 32.5221 2.44973 -2.34037 0
M  V30 357 C 31.0811 2.98372 -2.29458 0
M  V30 358 C 30.2281 1.71595 -2.17831 0
M  V30 359 H 33.1791 0.571256 -1.48062 0
M  V30 360 H 33.2001 3.24471 -1.98744 0
M  V30 361 H 32.7121 2.00276 -3.32432 0
M  V30 362 H 30.8131 3.47443 -1.34589 0
M  V30 363 H 30.9261 3.53939 -3.229 0
M  V30 364 H 29.2901 1.94547 -1.64388 0
M  V30 365 H 30.0731 1.29001 -3.18141 0
M  V30 366 N 32.5182 1.22032 0.997298 0
M  V30 367 C 33.7582 1.05375 1.75144 0
M  V30 368 C 34.1222 -0.404696 1.87686 0
M  V30 369 O 35.3232 -0.691998 2.5974 0
M  V30 370 C 33.5942 1.74046 3.12158 0
M  V30 371 S 35.1532 1.72745 4.03366 0
M  V30 372 H 31.9712 0.377449 0.602539 0
M  V30 373 H 34.5732 1.54902 1.19272 0
M  V30 374 H 33.2772 2.79332 3.00669 0
M  V30 375 H 32.8082 1.24731 3.73103 0
M  V30 376 H 34.8232 0.774015 4.90126 0
M  V30 377 N 33.9963 -1.19345 1.0293 0
M  V30 378 C 34.9263 -2.2481 0.631105 0
M  V30 379 C 35.9073 -1.66245 -0.360104 0
M  V30 380 O 37.0923 -1.92677 -0.242726 0
M  V30 381 C 34.2223 -3.47295 -0.0184607 0
M  V30 382 C 33.1763 -4.18536 0.895073 0
M  V30 383 C 32.5023 -5.34586 0.110592 0
M  V30 384 C 33.8023 -4.73287 2.209 0
M  V30 385 H 35.4963 -2.58372 1.51275 0
M  V30 386 H 33.0423 -1.24194 0.728818 0
M  V30 387 H 34.9953 -4.20268 -0.308675 0
M  V30 388 H 33.7193 -3.12933 -0.934907 0
M  V30 389 H 32.3783 -3.47446 1.16949 0
M  V30 390 H 32.0263 -4.96469 -0.807902 0
M  V30 391 H 31.7263 -5.83183 0.719087 0
M  V30 392 H 33.2503 -6.10355 -0.172871 0
M  V30 393 H 34.6643 -5.38013 1.98028 0
M  V30 394 H 33.0613 -5.32373 2.76946 0
M  V30 395 H 34.1313 -3.91331 2.86336 0
M  V30 396 N 35.4744 -0.807222 -1.35358 0
M  V30 397 C 36.7224 -0.387122 -1.98358 0
M  V30 398 C 37.0434 1.04942 -1.64354 0
M  V30 399 O 36.3134 1.72615 -0.926339 0
M  V30 400 H 34.8934 -0.140154 -0.733734 0
M  V30 401 H 37.5554 -1.0332 -1.6526 0
M  V30 402 H 36.6514 -0.493352 -3.08176 0
M  V30 403 N 36.9525 1.47285 -0.560781 0
M  V30 404 C 37.8845 2.28118 0.222438 0
M  V30 405 C 38.8975 1.37219 0.876056 0
M  V30 406 O 40.0865 1.62011 0.749307 0
M  V30 407 C 37.1865 3.1159 1.33285 0
M  V30 408 C 36.3595 4.30473 0.77534 0
M  V30 409 C 35.4185 4.95513 1.77069 0
M  V30 410 O 34.4445 5.53792 1.31539 0
M  V30 411 N 35.6465 4.90531 3.10418 0
M  V30 412 H 38.4115 2.95976 -0.470958 0
M  V30 413 H 35.9725 1.56955 -0.39709 0
M  V30 414 H 37.9645 3.51967 1.99752 0
M  V30 415 H 36.5345 2.45951 1.92943 0
M  V30 416 H 35.7545 3.94144 -0.0662113 0
M  V30 417 H 37.0425 5.07362 0.382272 0
M  V30 418 H 36.4405 4.44389 3.5005 0
M  V30 419 H 34.9975 5.34917 3.72434 0
M  V30 420 N 38.4306 0.297415 1.54768 0
M  V30 421 C 39.6766 -0.313376 2.00364 0
M  V30 422 C 40.0096 -1.53815 1.18553 0
M  V30 423 O 39.2846 -1.92739 0.261103 0
M  V30 424 C 39.5676 -0.673525 3.53745 0
M  V30 425 C 39.4206 0.560133 4.46299 0
M  V30 426 C 40.7396 -1.50143 4.13697 0
M  V30 427 H 37.8586 -0.112428 0.728374 0
M  V30 428 H 40.5006 0.4088 1.8555 0
M  V30 429 H 38.6506 -1.28881 3.665 0
M  V30 430 H 40.3226 1.19863 4.45455 0
M  V30 431 H 38.5656 1.19405 4.17043 0
M  V30 432 H 39.2366 0.26405 5.51368 0
M  V30 433 H 41.7126 -0.981588 4.04356 0
M  V30 434 H 40.5886 -1.72221 5.21182 0
M  V30 435 H 40.8496 -2.48952 3.65343 0
M  V30 436 N 39.9087 -1.5758 0.0250728 0
M  V30 437 C 41.1547 -1.91917 -0.655413 0
M  V30 438 C 41.4877 -0.901433 -1.72011 0
M  V30 439 O 40.7627 0.0764069 -1.9435 0
M  V30 440 C 41.0457 -3.36751 -1.27558 0
M  V30 441 C 40.8987 -4.49258 -0.220719 0
M  V30 442 C 42.2177 -3.81469 -2.19475 0
M  V30 443 H 39.3367 -0.697925 -0.23679 0
M  V30 444 H 41.9787 -1.89825 0.0815036 0
M  V30 445 H 40.1287 -3.38664 -1.90365 0
M  V30 446 H 41.8007 -4.59478 0.409601 0
M  V30 447 H 40.0437 -4.31415 0.454264 0
M  V30 448 H 40.7147 -5.47618 -0.694175 0
M  V30 449 H 43.1907 -3.81266 -1.66659 0
M  V30 450 H 42.0667 -4.83512 -2.59822 0
M  V30 451 H 42.3277 -3.16744 -3.08424 0
M  V30 452 N 41.3868 0.248026 -1.55636 0
M  V30 453 C 42.3498 1.29044 -1.89421 0
M  V30 454 C 43.3498 1.41134 -0.770581 0
M  V30 455 O 44.5398 1.39854 -1.03858 0
M  V30 456 C 41.6718 2.66831 -2.12165 0
M  V30 457 H 42.8648 1.00305 -2.82629 0
M  V30 458 H 40.4178 0.487265 -1.48511 0
M  V30 459 H 41.1528 3.00711 -1.21422 0
M  V30 460 H 40.9378 2.59438 -2.93997 0
M  V30 461 H 42.4278 3.42103 -2.3949 0
M  V30 462 N 42.8649 1.48995 0.513639 0
M  V30 463 C 44.0899 1.61792 1.29762 0
M  V30 464 C 44.5149 0.284475 1.85936 0
M  V30 465 O 43.8729 -0.746185 1.65232 0
M  V30 466 C 43.9209 2.67993 2.41272 0
M  V30 467 O 43.0249 2.26287 3.44772 0
M  V30 468 H 42.3659 0.541963 0.38363 0
M  V30 469 H 44.8959 1.95097 0.616307 0
M  V30 470 H 44.9059 2.89772 2.87221 0
M  V30 471 H 43.5809 3.64791 1.9975 0
M  V30 472 H 42.1579 2.14788 3.04829 0
M  V30 473 N 44.343 -0.763751 1.37857 0
M  V30 474 C 45.291 -1.89864 1.34367 0
M  V30 475 C 46.285 -1.67816 0.231143 0
M  V30 476 O 47.491 -1.75508 0.399617 0
M  V30 477 H 43.866 -0.624501 0.41893 0
M  V30 478 H 45.837 -1.89925 2.30155 0
M  V30 479 C 44.586 -3.27227 1.1755 0
M  V30 480 H 43.909 -3.44773 2.02414 0
M  V30 481 H 45.349 -4.06911 1.1916 0
M  V30 482 C 43.808 -3.36692 -0.118311 0
M  V30 483 O 44.338 -3.86374 -1.09902 0
M  V30 484 N 42.544 -2.90092 -0.171717 0
M  V30 485 H 42.091 -2.49853 0.627012 0
M  V30 486 H 42.049 -2.96806 -1.03699 0
M  V30 487 N 45.8211 -1.22559 -0.990812 0
M  V30 488 C 46.7311 -1.01394 -2.11557 0
M  V30 489 C 47.7471 0.0383962 -1.73958 0
M  V30 490 O 48.9231 -0.154787 -2.00804 0
M  V30 491 C 45.9881 -0.596569 -3.41529 0
M  V30 492 C 45.0491 -1.72276 -3.93217 0
M  V30 493 C 44.2821 -1.32521 -5.16985 0
M  V30 494 O 44.5051 -0.204909 -5.70032 0
M  V30 495 O 43.4391 -2.14247 -5.62478 0
M  V30 496 H 47.2651 -1.95633 -2.32296 0
M  V30 497 H 44.8501 -1.01172 -1.0993 0
M  V30 498 H 46.7321 -0.374263 -4.19735 0
M  V30 499 H 45.4071 0.316939 -3.22145 0
M  V30 500 H 44.3141 -1.99961 -3.16174 0
M  V30 501 H 45.6471 -2.61421 -4.17037 0
M  V30 502 N 47.2992 1.18797 -1.03562 0
M  V30 503 C 48.5272 1.92599 -0.755869 0
M  V30 504 C 48.9422 1.75886 0.686271 0
M  V30 505 O 48.2992 1.08517 1.46732 0
M  V30 506 C 48.3502 3.44159 -1.10619 0
M  V30 507 O 48.0712 3.60341 -2.4917 0
M  V30 508 C 49.5722 4.3507 -0.850214 0
M  V30 509 H 46.7922 0.611587 -0.276048 0
M  V30 510 H 49.3362 1.50742 -1.38192 0
M  V30 511 H 47.4912 3.83823 -0.525194 0
M  V30 512 H 47.9052 4.54128 -2.62427 0
M  V30 513 H 49.3792 5.39989 -1.14523 0
M  V30 514 H 49.8562 4.38673 0.215176 0
M  V30 515 H 50.4622 4.01097 -1.41426 0
M  V30 516 N 48.7773 0.814389 1.34928 0
M  V30 517 C 49.7073 0.244827 2.32213 0
M  V30 518 C 50.6883 -0.634024 1.57842 0
M  V30 519 O 51.8733 -0.562676 1.8587 0
M  V30 520 C 49.0033 -0.601106 3.42058 0
M  V30 521 C 47.9573 0.179896 4.27622 0
M  V30 522 C 47.2833 -0.788237 5.28858 0
M  V30 523 C 48.5833 1.38329 5.03649 0
M  V30 524 H 50.2773 1.05763 2.80097 0
M  V30 525 H 47.8233 0.510029 1.34665 0
M  V30 526 H 49.7763 -1.00968 4.09125 0
M  V30 527 H 48.5003 -1.44688 2.92802 0
M  V30 528 H 47.1593 0.569739 3.62146 0
M  V30 529 H 46.8073 -1.62973 4.75866 0
M  V30 530 H 46.5073 -0.269942 5.8698 0
M  V30 531 H 48.0313 -1.19485 5.98795 0
M  V30 532 H 49.4453 1.04918 5.63618 0
M  V30 533 H 47.8423 1.83662 5.71304 0
M  V30 534 H 48.9123 2.16592 4.33839 0
M  V30 535 N 50.2554 -1.46986 0.568584 0
M  V30 536 C 51.4854 -2.0653 0.0539173 0
M  V30 537 C 51.8934 -1.42004 -1.25026 0
M  V30 538 O 51.2364 -0.514541 -1.76347 0
M  V30 539 C 51.2984 -3.58938 -0.200854 0
M  V30 540 C 50.9624 -4.45572 1.01559 0
M  V30 541 C 51.9594 -4.82986 1.92407 0
M  V30 542 C 49.6444 -4.8692 1.23346 0
M  V30 543 C 51.6384 -5.60559 3.03402 0
M  V30 544 C 49.3254 -5.64255 2.34649 0
M  V30 545 C 50.3234 -6.00986 3.24507 0
M  V30 546 O 50.0114 -6.76761 4.33878 0
M  V30 547 H 49.7434 -0.674292 0.0480234 0
M  V30 548 H 52.2974 -1.89812 0.784896 0
M  V30 549 H 50.5274 -3.73911 -0.986279 0
M  V30 550 H 52.2164 -4.0046 -0.662294 0
M  V30 551 H 52.9824 -4.51633 1.76785 0
M  V30 552 H 48.8614 -4.57789 0.543178 0
M  V30 553 H 52.4054 -5.89147 3.73565 0
M  V30 554 H 48.3024 -5.95021 2.5024 0
M  V30 555 H 49.0704 -6.95168 4.32068 0
M  V30 556 N 51.7335 -0.305618 -1.54608 0
M  V30 557 C 52.6655 0.602161 -2.21149 0
M  V30 558 C 53.6785 1.09394 -1.20569 0
M  V30 559 O 54.8675 1.0106 -1.47136 0
M  V30 560 C 51.9675 1.83692 -2.84799 0
M  V30 561 C 51.1405 1.48686 -4.11353 0
M  V30 562 C 50.1995 2.57725 -4.58764 0
M  V30 563 O 49.2255 2.22623 -5.23858 0
M  V30 564 N 50.4275 3.88346 -4.31471 0
M  V30 565 H 53.1925 0.0324966 -2.99682 0
M  V30 566 H 50.7535 -0.128021 -1.61393 0
M  V30 567 H 52.7455 2.55994 -3.13448 0
M  V30 568 H 51.3155 2.31486 -2.10078 0
M  V30 569 H 50.5355 0.596269 -3.89664 0
M  V30 570 H 51.8235 1.22842 -4.93748 0
M  V30 571 H 51.2215 4.19671 -3.79331 0
M  V30 572 H 49.7785 4.56932 -4.64818 0
M  V30 573 N 53.2116 1.57565 -0.0334293 0
M  V30 574 C 54.4576 1.92262 0.645226 0
M  V30 575 C 54.7906 0.910543 1.71531 0
M  V30 576 O 54.0656 -0.066099 1.94388 0
M  V30 577 C 54.3486 3.37422 1.2577 0
M  V30 578 C 54.2016 4.49369 0.196891 0
M  V30 579 C 55.5206 3.82628 2.17449 0
M  V30 580 H 52.6396 0.699171 0.233085 0
M  V30 581 H 55.2816 1.89779 -0.0915694 0
M  V30 582 H 53.4316 3.39669 1.88566 0
M  V30 583 H 55.1036 4.59254 -0.433962 0
M  V30 584 H 53.3466 4.31168 -0.477137 0
M  V30 585 H 54.0176 5.47978 0.665124 0
M  V30 586 H 56.4936 3.82145 1.64634 0
M  V30 587 H 55.3696 4.84883 2.57254 0
M  V30 588 H 55.6306 3.18376 3.0674 0
M  V30 589 N 54.6897 -0.239769 1.55765 0
M  V30 590 C 55.9357 -0.968234 1.78194 0
M  V30 591 C 56.2687 -1.84701 0.599938 0
M  V30 592 O 55.5437 -1.9031 -0.401524 0
M  V30 593 C 55.8267 -1.8227 3.10564 0
M  V30 594 C 55.6797 -0.971633 4.3918 0
M  V30 595 C 56.9987 -2.80388 3.39221 0
M  V30 596 H 54.1177 -0.350572 0.648281 0
M  V30 597 H 56.7597 -0.238259 1.885 0
M  V30 598 H 54.9097 -2.44507 3.01908 0
M  V30 599 H 56.5817 -0.367408 4.59835 0
M  V30 600 H 54.8247 -0.276276 4.32919 0
M  V30 601 H 55.4957 -1.60346 5.28198 0
M  V30 602 H 57.9717 -2.28287 3.47885 0
M  V30 603 H 56.8477 -3.3729 4.33044 0
M  V30 604 H 57.1087 -3.57212 2.60484 0
M  V30 605 N 56.1678 -1.49265 -0.50573 0
M  V30 606 C 57.1148 -1.65585 -1.6078 0
M  V30 607 C 58.0848 -0.497396 -1.58478 0
M  V30 608 O 59.2698 -0.72385 -1.76536 0
M  V30 609 C 56.4098 -1.72408 -2.98948 0
M  V30 610 C 55.5228 -2.99525 -3.11301 0
M  V30 611 C 54.6578 -2.97356 -4.40174 0
M  V30 612 C 53.6968 -4.19074 -4.46143 0
M  V30 613 N 52.8338 -4.14841 -5.66437 0
M  V30 614 H 57.6738 -2.59688 -1.46172 0
M  V30 615 H 55.2108 -1.28761 -0.711261 0
M  V30 616 H 57.1688 -1.74344 -3.79025 0
M  V30 617 H 55.7988 -0.817753 -3.1227 0
M  V30 618 H 54.8508 -3.07222 -2.24318 0
M  V30 619 H 56.1628 -3.89518 -3.11572 0
M  V30 620 H 55.3168 -2.97829 -5.28567 0
M  V30 621 H 54.0558 -2.05133 -4.42461 0
M  V30 622 H 53.0608 -4.1885 -3.56153 0
M  V30 623 H 54.2858 -5.12483 -4.45575 0
M  V30 624 H 52.2318 -3.25453 -5.69575 0
M  V30 625 H 52.1488 -4.98564 -5.68304 0
M  V30 626 H 53.4168 -4.1941 -6.57051 0
M  V30 627 N 57.6459 0.756429 -1.3826 0
M  V30 628 C 58.5559 1.9009 -1.37488 0
M  V30 629 C 59.5719 1.71855 -0.272366 0
M  V30 630 O 60.7479 1.94827 -0.510318 0
M  V30 631 C 57.8129 3.25421 -1.19592 0
M  V30 632 C 56.8739 3.56202 -2.39622 0
M  V30 633 C 56.1069 4.85075 -2.2257 0
M  V30 634 O 56.3299 5.57246 -1.21793 0
M  V30 635 O 55.2639 5.15269 -3.11098 0
M  V30 636 H 59.0899 1.93695 -2.33914 0
M  V30 637 H 56.6749 0.901313 -1.1915 0
M  V30 638 H 58.5569 4.06337 -1.11661 0
M  V30 639 H 57.2319 3.22634 -0.262486 0
M  V30 640 H 56.1389 2.75458 -2.53128 0
M  V30 641 H 57.4719 3.63747 -3.31586 0
M  V30 642 N 59.124 1.23083 0.984299 0
M  V30 643 C 60.37 1.06214 1.72761 0
M  V30 644 C 60.703 -0.400584 1.90024 0
M  V30 645 O 59.978 -1.29672 1.44967 0
M  V30 646 C 60.261 1.78375 3.12817 0
M  V30 647 C 60.114 3.32296 3.03149 0
M  V30 648 C 61.433 1.54309 4.12161 0
M  V30 649 H 58.552 0.387251 0.627061 0
M  V30 650 H 61.194 1.51536 1.14616 0
M  V30 651 H 59.344 1.39848 3.62457 0
M  V30 652 H 61.016 3.8032 2.61064 0
M  V30 653 H 59.259 3.6153 2.39747 0
M  V30 654 H 59.93 3.77972 4.02295 0
M  V30 655 H 62.406 1.87791 3.71314 0
M  V30 656 H 61.282 2.07281 5.08258 0
M  V30 657 H 61.543 0.477572 4.39513 0
M  V30 658 N 60.6021 -1.18246 1.0419 0
M  V30 659 C 61.5491 -2.2192 0.634037 0
M  V30 660 C 62.5191 -1.62179 -0.358765 0
M  V30 661 O 63.7041 -1.89122 -0.252466 0
M  V30 662 C 60.8441 -3.451 0.00445535 0
M  V30 663 C 59.9571 -4.19174 1.04487 0
M  V30 664 C 59.0921 -5.29813 0.383676 0
M  V30 665 C 58.1311 -5.9566 1.4091 0
M  V30 666 N 57.2681 -6.97834 0.772784 0
M  V30 667 H 62.1081 -2.56164 1.52263 0
M  V30 668 H 59.6451 -1.25843 0.761701 0
M  V30 669 H 61.6031 -4.15485 -0.377919 0
M  V30 670 H 60.2331 -3.11472 -0.847652 0
M  V30 671 H 59.2851 -3.47604 1.54518 0
M  V30 672 H 60.5971 -4.64267 1.82368 0
M  V30 673 H 59.7511 -6.06677 -0.0528366 0
M  V30 674 H 58.4901 -4.85825 -0.427208 0
M  V30 675 H 57.4951 -5.17535 1.85574 0
M  V30 676 H 58.7201 -6.4173 2.22171 0
M  V30 677 H 56.6661 -6.55998 -0.0177708 0
M  V30 678 H 56.5831 -7.41186 1.48928 0
M  V30 679 H 57.8511 -7.78665 0.36071 0
M  V30 680 N 62.0802 -0.821533 -1.34494 0
M  V30 681 C 63.4912 -0.467956 -1.8074 0
M  V30 682 C 63.8422 1.01151 -1.68116 0
M  V30 683 O 62.9672 1.78707 -1.22036 0
M  V30 684 C 63.5622 -0.842627 -3.28154 0
M  V30 685 C 62.1212 -0.541439 -3.72485 0
M  V30 686 C 61.2682 -1.06028 -2.56229 0
M  V30 687 H 64.2192 -1.01183 -1.22261 0
M  V30 688 H 64.2402 -0.145876 -3.8022 0
M  V30 689 H 63.7522 -1.91945 -3.37311 0
M  V30 690 H 61.8532 0.526034 -3.68868 0
M  V30 691 H 61.9662 -1.08453 -4.66663 0
M  V30 692 H 60.3302 -0.481892 -2.501 0
M  V30 693 H 61.1132 -2.14352 -2.68157 0
M  V30 694 N 63.5583 1.46682 -0.576371 0
M  V30 695 C 64.8063 2.02013 -0.0594163 0
M  V30 696 C 65.1273 1.45101 1.30271 0
M  V30 697 O 64.3973 0.633317 1.8538 0
M  V30 698 H 62.9773 0.746759 -0.0189745 0
M  V30 699 H 65.6393 1.79862 -0.750717 0
M  V30 700 H 64.7353 3.12097 0.014345 0
M  V30 701 N 65.0364 0.313813 1.54444 0
M  V30 702 C 66.2844 -0.291099 1.99993 0
M  V30 703 C 66.6054 -1.53418 1.20366 0
M  V30 704 O 65.8754 -1.93544 0.302927 0
M  V30 705 H 64.4554 -0.110552 0.738774 0
M  V30 706 H 67.1174 0.428106 1.9014 0
M  V30 707 H 66.2134 -0.554268 3.07139 0
M  V30 708 N 66.5145 -1.57545 0.0417849 0
M  V30 709 C 67.4445 -2.14009 -0.933929 0
M  V30 710 C 68.4255 -1.05938 -1.33083 0
M  V30 711 O 69.6105 -1.33833 -1.40721 0
M  V30 712 C 66.7405 -2.67747 -2.21199 0
M  V30 713 C 65.6945 -3.80718 -1.95544 0
M  V30 714 C 65.0205 -4.20935 -3.29724 0
M  V30 715 C 66.3205 -5.06258 -1.28452 0
M  V30 716 H 68.0145 -2.95788 -0.463645 0
M  V30 717 H 65.5605 -1.42285 -0.221573 0
M  V30 718 H 67.5135 -3.05886 -2.89848 0
M  V30 719 H 66.2375 -1.83147 -2.70416 0
M  V30 720 H 64.8965 -3.43037 -1.2931 0
M  V30 721 H 64.5445 -3.33298 -3.76724 0
M  V30 722 H 64.2445 -4.9707 -3.13361 0
M  V30 723 H 65.7685 -4.61666 -3.9962 0
M  V30 724 H 67.1825 -5.41903 -1.8712 0
M  V30 725 H 65.5795 -5.87475 -1.22445 0
M  V30 726 H 66.6495 -4.84207 -0.259219 0
M  V30 727 N 67.9926 0.231505 -1.5589 0
M  V30 728 C 69.2386 0.95877 -1.78705 0
M  V30 729 C 69.5716 1.8438 -0.609725 0
M  V30 730 O 68.8466 1.90521 0.391426 0
M  V30 731 C 69.1296 1.8062 -3.11526 0
M  V30 732 C 68.9826 0.948328 -4.39689 0
M  V30 733 C 70.3016 2.78585 -3.40703 0
M  V30 734 H 67.4206 0.347129 -0.650131 0
M  V30 735 H 70.0626 0.228259 -1.88624 0
M  V30 736 H 68.2126 2.42902 -3.03201 0
M  V30 737 H 69.8846 0.343016 -4.60023 0
M  V30 738 H 68.1276 0.253314 -4.3306 0
M  V30 739 H 68.7986 1.57543 -5.29041 0
M  V30 740 H 71.2746 2.26439 -3.49091 0
M  V30 741 H 70.1506 3.34988 -4.34826 0
M  V30 742 H 70.4116 3.55825 -2.62375 0
M  V30 743 N 69.4707 1.49531 0.497807 0
M  V30 744 C 70.4027 1.62559 1.61578 0
M  V30 745 C 71.4157 0.508134 1.54667 0
M  V30 746 O 72.6047 0.780309 1.60541 0
M  V30 747 C 69.7047 1.56925 3.00379 0
M  V30 748 C 68.8777 2.84257 3.3244 0
M  V30 749 C 67.9367 2.71632 4.50669 0
M  V30 750 O 66.9627 3.4557 4.52294 0
M  V30 751 N 68.1647 1.83391 5.5077 0
M  V30 752 H 70.9297 2.58981 1.50828 0
M  V30 753 H 68.4907 1.4666 0.685743 0
M  V30 754 H 70.4827 1.46129 3.77397 0
M  V30 755 H 69.0527 0.683483 3.05037 0
M  V30 756 H 68.2727 3.09381 2.44289 0
M  V30 757 H 69.5607 3.68666 3.5066 0
M  V30 758 H 68.9587 1.22583 5.52259 0
M  V30 759 H 67.5157 1.78515 6.26878 0
M  V30 760 N 70.9488 -0.749086 1.3866 0
M  V30 761 C 72.1978 -1.50371 1.3443 0
M  V30 762 C 72.5108 -1.95503 -0.0616397 0
M  V30 763 O 73.7168 -2.70554 -0.226489 0
M  V30 764 C 72.1728 -2.71644 2.36088 0
M  V30 765 C 71.7808 -2.3352 3.82325 0
M  V30 766 C 73.5248 -3.49518 2.40909 0
M  V30 767 C 71.4318 -3.51431 4.75658 0
M  V30 768 H 70.3618 -0.564628 0.499712 0
M  V30 769 H 73.0128 -0.818449 1.64237 0
M  V30 770 H 71.3948 -3.42175 1.9933 0
M  V30 771 H 72.5688 -1.70627 4.28046 0
M  V30 772 H 70.8838 -1.6877 3.80665 0
M  V30 773 H 73.4808 -4.37197 3.07836 0
M  V30 774 H 73.8238 -3.90992 1.42937 0
M  V30 775 H 74.3568 -2.86005 2.76489 0
M  V30 776 H 71.0958 -3.15019 5.74842 0
M  V30 777 H 70.6158 -4.13352 4.34627 0
M  V30 778 H 72.2948 -4.17953 4.93887 0
M  V30 779 N 72.4269 -1.23603 -0.977757 0
M  V30 780 C 73.3899 -1.02069 -2.05218 0
M  V30 781 C 74.3899 0.0184305 -1.60789 0
M  V30 782 O 75.5799 -0.221569 -1.72785 0
M  V30 783 C 72.7119 -0.544926 -3.36517 0
M  V30 784 H 73.9049 -1.9742 -2.25755 0
M  V30 785 H 71.4579 -1.05684 -1.15155 0
M  V30 786 H 72.1929 0.412241 -3.21669 0
M  V30 787 H 71.9779 -1.2948 -3.70105 0
M  V30 788 H 73.4679 -0.414985 -4.15533 0
M  V30 789 N 73.905 1.17692 -1.04816 0
M  V30 790 C 75.182 1.83768 -0.669963 0
M  V30 791 C 75.562 1.93232 0.849986 0
M  V30 792 O 74.91 1.46397 1.75443 0
M  V30 793 C 75.12 3.21641 -1.35455 0
M  V30 794 C 76.468 3.97592 -1.49017 0
M  V30 795 O 77.492 3.31107 -1.31326 0
M  V30 796 O 76.351 5.16729 -1.77914 0
M  V30 797 H 73.445 0.792799 -0.235368 0
M  V30 798 H 75.991 1.25021 -1.14751 0
M  V30 799 H 74.763 3.097 -2.39168 0
M  V30 800 H 74.386 3.88052 -0.866107 0
M  V30 801 N 75.3831 0.828654 1.34056 0
M  V30 802 C 76.6311 0.41863 1.97717 0
M  V30 803 C 76.9521 -1.02314 1.66002 0
M  V30 804 O 76.2221 -1.71119 0.953683 0
M  V30 805 H 74.8021 0.151809 0.731412 0
M  V30 806 H 77.4641 1.05936 1.63596 0
M  V30 807 H 76.5601 0.542318 3.07352 0
M  V30 808 N 76.8612 -1.46375 0.584142 0
M  V30 809 C 78.0892 -2.06761 0.0759296 0
M  V30 810 C 78.5042 -1.43266 -1.22965 0
M  V30 811 O 77.8612 -0.538458 -1.74376 0
M  V30 812 C 77.9122 -3.61375 -0.0950384 0
M  V30 813 O 77.6332 -4.22495 1.15887 0
M  V30 814 C 79.1342 -4.38693 -0.637434 0
M  V30 815 H 76.3542 -0.668479 0.0581075 0
M  V30 816 H 78.8982 -1.8798 0.805218 0
M  V30 817 H 77.0532 -3.79578 -0.774554 0
M  V30 818 H 77.4672 -5.15385 0.973598 0
M  V30 819 H 78.9412 -5.47464 -0.706237 0
M  V30 820 H 79.4182 -4.06836 -1.65472 0
M  V30 821 H 80.0242 -4.25299 0.00725967 0
M  V30 822 N 78.3393 -0.321999 -1.54275 0
M  V30 823 C 79.5693 0.282642 -2.04658 0
M  V30 824 C 79.9773 1.46453 -1.19784 0
M  V30 825 O 79.3203 1.82367 -0.220932 0
M  V30 826 C 79.3823 0.781857 -3.50895 0
M  V30 827 C 79.0463 -0.277517 -4.56157 0
M  V30 828 C 80.0433 -1.11307 -5.07845 0
M  V30 829 C 77.7283 -0.425256 -5.00497 0
M  V30 830 C 79.7223 -2.08211 -6.02434 0
M  V30 831 C 77.4093 -1.39771 -5.94901 0
M  V30 832 C 78.4073 -2.2246 -6.45756 0
M  V30 833 O 78.0953 -3.18054 -7.38307 0
M  V30 834 H 77.8273 0.0622636 -0.673126 0
M  V30 835 H 80.3813 -0.465792 -2.00049 0
M  V30 836 H 78.6113 1.58118 -3.52896 0
M  V30 837 H 80.3003 1.30467 -3.84361 0
M  V30 838 H 81.0663 -1.00991 -4.74369 0
M  V30 839 H 76.9453 0.20847 -4.60528 0
M  V30 840 H 80.4893 -2.72791 -6.42052 0
M  V30 841 H 76.3863 -1.50152 -6.27794 0
M  V30 842 H 77.1543 -3.13275 -7.56175 0
M  V30 843 N 79.8174 1.5752 -0.0501392 0
M  V30 844 C 80.7644 2.1147 0.924603 0
M  V30 845 C 81.7344 1.02182 1.30951 0
M  V30 846 O 82.9194 1.29723 1.39916 0
M  V30 847 C 80.0594 2.66337 2.19451 0
M  V30 848 C 79.1724 3.89708 1.86418 0
M  V30 849 C 78.3074 4.32893 3.07859 0
M  V30 850 C 77.3464 5.48967 2.70742 0
M  V30 851 N 76.4834 5.87211 3.84874 0
M  V30 852 H 81.3234 2.94465 0.457639 0
M  V30 853 H 78.8604 1.45531 0.214266 0
M  V30 854 H 80.8184 2.96247 2.93758 0
M  V30 855 H 79.4484 1.86141 2.63726 0
M  V30 856 H 78.5004 3.66396 1.02264 0
M  V30 857 H 79.8124 4.74074 1.55096 0
M  V30 858 H 78.9664 4.6435 3.90466 0
M  V30 859 H 77.7054 3.47336 3.42358 0
M  V30 860 H 76.7104 5.17183 1.86551 0
M  V30 861 H 77.9354 6.3624 2.37436 0
M  V30 862 H 75.8814 5.04607 4.19175 0
M  V30 863 H 75.7984 6.66266 3.57247 0
M  V30 864 H 77.0664 6.23282 4.68123 0
M  V30 865 N 81.2955 -0.223234 1.56011 0
M  V30 866 C 82.5725 -0.972108 1.69733 0
M  V30 867 C 82.9525 -2.02485 0.59691 0
M  V30 868 O 82.3005 -2.25037 -0.396324 0
M  V30 869 C 82.5105 -1.58407 3.10979 0
M  V30 870 C 83.8585 -2.07696 3.70334 0
M  V30 871 O 84.8825 -1.68304 3.1393 0
M  V30 872 O 83.7415 -2.80096 4.69264 0
M  V30 873 H 80.8355 -0.453993 0.691245 0
M  V30 874 H 83.3815 -0.215149 1.68331 0
M  V30 875 H 82.1535 -0.823831 3.82529 0
M  V30 876 H 81.7765 -2.40661 3.16493 0
M  V30 877 N 82.7736 -1.49793 -0.48987 0
M  V30 878 C 84.0196 -1.60078 -1.24511 0
M  V30 879 C 84.3526 -0.291608 -1.91998 0
M  V30 880 O 83.6276 0.705647 -1.81248 0
M  V30 881 C 83.9106 -2.76791 -2.30345 0
M  V30 882 C 83.7636 -4.17535 -1.67286 0
M  V30 883 C 85.0826 -2.89111 -3.31817 0
M  V30 884 H 82.2016 -0.582645 -0.451324 0
M  V30 885 H 84.8436 -1.82117 -0.541612 0
M  V30 886 H 82.9936 -2.5813 -2.90346 0
M  V30 887 H 84.6656 -4.4774 -1.11026 0
M  V30 888 H 82.9086 -4.22665 -0.976577 0
M  V30 889 H 83.5796 -4.95094 -2.44103 0
M  V30 890 H 86.0556 -3.06133 -2.81819 0
M  V30 891 H 84.9316 -3.72433 -4.03219 0
M  V30 892 H 85.1926 -1.9893 -3.94815 0
M  V30 893 N 84.2517 0.741722 -1.39055 0
M  V30 894 C 85.1837 1.8657 -1.33133 0
M  V30 895 C 86.1967 1.61001 -0.241329 0
M  V30 896 O 87.3857 1.7136 -0.499784 0
M  V30 897 C 84.4857 3.22457 -1.04283 0
M  V30 898 C 83.6587 3.75435 -2.24427 0
M  V30 899 C 82.7177 4.89867 -1.92138 0
M  V30 900 O 81.7437 5.03879 -2.64754 0
M  V30 901 N 82.9457 5.73738 -0.88347 0
M  V30 902 H 85.7107 1.92156 -2.29991 0
M  V30 903 H 83.2717 0.922172 -1.3307 0
M  V30 904 H 85.2637 3.9657 -0.807128 0
M  V30 905 H 83.8337 3.12181 -0.161807 0
M  V30 906 H 83.0537 2.92751 -2.6399 0
M  V30 907 H 84.3417 4.07563 -3.04581 0
M  V30 908 H 83.7397 5.64999 -0.281517 0
M  V30 909 H 82.2967 6.47947 -0.707662 0
M  V30 910 N 85.7298 1.2412 0.971189 0
M  V30 911 C 86.6598 1.05508 2.08304 0
M  V30 912 C 87.6408 -0.0308864 1.70072 0
M  V30 913 O 88.8258 0.135521 1.93727 0
M  V30 914 C 85.9558 0.655365 3.4106 0
M  V30 915 C 84.9098 1.68971 3.93234 0
M  V30 916 C 84.2358 1.14516 5.22293 0
M  V30 917 C 85.5358 3.08487 4.21465 0
M  V30 918 H 87.2298 1.98507 2.24132 0
M  V30 919 H 84.7758 0.955821 1.07704 0
M  V30 920 H 86.7288 0.51217 4.18276 0
M  V30 921 H 85.4528 -0.31032 3.25122 0
M  V30 922 H 84.1118 1.82106 3.18171 0
M  V30 923 H 83.7598 0.170189 5.02712 0
M  V30 924 H 83.4598 1.83635 5.58168 0
M  V30 925 H 84.9838 1.01401 6.02121 0
M  V30 926 H 86.3978 2.98601 4.89398 0
M  V30 927 H 84.7948 3.74926 4.68562 0
M  V30 928 H 85.8648 3.56787 3.28376 0
M  V30 929 N 87.2079 -1.17134 1.05439 0
M  V30 930 C 88.4569 -1.86791 0.761049 0
M  V30 931 C 88.7699 -1.82072 -0.714795 0
M  V30 932 O 89.9759 -2.47223 -1.12218 0
M  V30 933 C 88.4319 -3.35166 1.31117 0
M  V30 934 C 88.0399 -3.48381 2.81664 0
M  V30 935 C 89.7839 -4.10134 1.09499 0
M  V30 936 C 87.6909 -4.90793 3.29964 0
M  V30 937 H 86.6209 -0.699681 0.281002 0
M  V30 938 H 89.2719 -1.3226 1.27199 0
M  V30 939 H 87.6539 -3.8925 0.72803 0
M  V30 940 H 88.8279 -3.04502 3.45855 0
M  V30 941 H 87.1429 -2.86836 3.01851 0
M  V30 942 H 89.7399 -5.152 1.43084 0
M  V30 943 H 90.0829 -4.16287 0.0328772 0
M  V30 944 H 90.6159 -3.62264 1.64346 0
M  V30 945 H 87.3549 -4.89816 4.35616 0
M  V30 946 H 86.8749 -5.35333 2.70516 0
M  V30 947 H 88.5539 -5.59573 3.24787 0
M  V30 948 N 88.686 -0.835752 -1.33615 0
M  V30 949 C 89.932 -0.430596 -1.98176 0
M  V30 950 C 90.265 1.00684 -1.66061 0
M  V30 951 O 89.54 1.70339 -0.938877 0
M  V30 952 C 89.823 -0.648065 -3.5422 0
M  V30 953 C 89.676 -2.13255 -3.96033 0
M  V30 954 C 90.995 -0.0922113 -4.40003 0
M  V30 955 H 88.114 -0.157924 -0.719881 0
M  V30 956 H 90.756 -1.05069 -1.58305 0
M  V30 957 H 88.906 -0.120237 -3.88314 0
M  V30 958 H 90.578 -2.725 -3.72211 0
M  V30 959 H 88.821 -2.61823 -3.45878 0
M  V30 960 H 89.492 -2.23547 -5.04708 0
M  V30 961 H 91.968 -0.543343 -4.12537 0
M  V30 962 H 90.844 -0.274083 -5.48215 0
M  V30 963 H 91.105 1.00378 -4.30554 0
M  V30 964 N 90.1641 1.46063 -0.591896 0
M  V30 965 C 91.3891 2.07226 -0.0850314 0
M  V30 966 C 91.8141 1.43625 1.21463 0
M  V30 967 O 91.1721 0.523305 1.73583 0
M  V30 968 C 91.2201 3.60554 0.0576567 0
M  V30 969 O 90.3241 3.97128 1.11188 0
M  V30 970 H 89.6651 0.660615 -0.0669568 0
M  V30 971 H 92.1951 1.8756 -0.81745 0
M  V30 972 H 92.2051 4.07165 0.2609 0
M  V30 973 H 90.8801 4.06235 -0.891416 0
M  V30 974 H 89.4571 3.62213 0.886356 0
M  V30 975 N 91.6422 0.330177 1.54103 0
M  V30 976 C 92.5902 -0.548226 2.26047 0
M  V30 977 C 93.5842 -1.11309 1.27698 0
M  V30 978 O 94.7902 -1.06036 1.45452 0
M  V30 979 H 91.1652 -0.195456 0.726155 0
M  V30 980 H 93.1362 0.0807567 2.98291 0
M  V30 981 C 91.8852 -1.69415 3.03634 0
M  V30 982 H 91.2082 -1.26876 3.79134 0
M  V30 983 H 92.6482 -2.28423 3.5721 0
M  V30 984 C 91.1072 -2.61569 2.12328 0
M  V30 985 O 91.6372 -3.63462 1.7105 0
M  V30 986 N 89.8432 -2.29952 1.77681 0
M  V30 987 H 89.3902 -1.47134 2.11446 0
M  V30 988 H 89.3482 -2.91871 1.16869 0
M  V30 989 N 93.1203 -1.57491 0.0584922 0
M  V30 990 C 94.3453 -1.97711 -0.62652 0
M  V30 991 C 94.7703 -0.936132 -1.63151 0
M  V30 992 O 94.1283 0.099811 -1.81025 0
M  V30 993 C 94.1763 -3.36989 -1.28338 0
M  V30 994 O 93.2803 -3.35433 -2.39913 0
M  V30 995 H 92.6213 -0.643868 -0.162266 0
M  V30 996 H 95.1513 -2.04193 0.129064 0
M  V30 997 H 95.1613 -3.73879 -1.63335 0
M  V30 998 H 93.8363 -4.12289 -0.546889 0
M  V30 999 H 92.4133 -3.10298 -2.06809 0
M  V30 1000 N 94.5984 0.214957 -1.56127 0
M  V30 1001 C 95.8464 0.936518 -1.79091 0
M  V30 1002 C 96.1674 1.84606 -0.628148 0
M  V30 1003 O 95.4374 1.92664 0.35462 0
M  V30 1004 H 94.0174 0.3488 -0.660566 0
M  V30 1005 H 96.6794 0.22523 -1.93594 0
M  V30 1006 H 95.7754 1.53943 -2.71492 0
M  V30 1007 N 96.0765 1.50051 0.48192 0
M  V30 1008 C 97.0235 1.68122 1.58125 0
M  V30 1009 C 97.9935 0.522545 1.57666 0
M  V30 1010 O 99.1785 0.751844 1.75362 0
M  V30 1011 C 96.3185 1.77142 2.96167 0
M  V30 1012 C 95.4315 3.0444 3.06497 0
M  V30 1013 C 94.5665 3.04321 4.35387 0
M  V30 1014 C 93.6055 4.26118 4.3942 0
M  V30 1015 N 92.7425 4.238 5.59766 0
M  V30 1016 H 97.5825 2.6198 1.42022 0
M  V30 1017 H 95.1195 1.29877 0.690687 0
M  V30 1018 H 97.0775 1.80352 3.76203 0
M  V30 1019 H 95.7075 0.867329 3.1093 0
M  V30 1020 H 94.7595 3.10752 2.19402 0
M  V30 1021 H 96.0715 3.94426 3.05336 0
M  V30 1022 H 95.2255 3.062 5.23762 0
M  V30 1023 H 93.9645 2.12147 4.39141 0
M  V30 1024 H 92.9695 4.24463 3.49444 0
M  V30 1025 H 94.1945 5.19507 4.37366 0
M  V30 1026 H 92.1405 3.34474 5.64326 0
M  V30 1027 H 92.0575 5.07542 5.60301 0
M  V30 1028 H 93.3255 4.2981 6.50295 0
M  V30 1029 N 97.5546 -0.734337 1.39446 0
M  V30 1030 C 98.7796 -1.52866 1.40167 0
M  V30 1031 C 99.2046 -1.881 -0.00171513 0
M  V30 1032 O 98.5626 -1.51957 -0.988879 0
M  V30 1033 C 98.6106 -2.79235 2.28167 0
M  V30 1034 O 97.7146 -3.75185 1.71201 0
M  V30 1035 H 97.0556 -0.461618 0.477289 0
M  V30 1036 H 99.5856 -0.905949 1.8345 0
M  V30 1037 H 99.5956 -3.27963 2.42702 0
M  V30 1038 H 98.2706 -2.52923 3.30156 0
M  V30 1039 H 96.8476 -3.33958 1.65912 0
M  V30 1040 N 99.0327 -1.24633 -0.964593 0
M  V30 1041 C 100.281 -1.08573 -1.70459 0
M  V30 1042 C 100.602 0.375655 -1.91347 0
M  V30 1043 O 99.8717 1.26779 -1.49345 0
M  V30 1044 H 98.4517 -0.398784 -0.631649 0
M  V30 1045 H 101.114 -1.56601 -1.16026 0
M  V30 1046 H 100.21 -1.58623 -2.68785 0
M  V30 1047 N 100.511 1.16574 -1.06058 0
M  V30 1048 C 101.441 2.23057 -0.690488 0
M  V30 1049 C 102.422 1.67141 0.315901 0
M  V30 1050 O 103.607 1.93253 0.191556 0
M  V30 1051 C 100.737 3.47222 -0.073625 0
M  V30 1052 C 99.6908 4.16016 -1.00573 0
M  V30 1053 C 99.0168 5.34104 -0.252289 0
M  V30 1054 C 100.317 4.67264 -2.33371 0
M  V30 1055 H 102.011 2.54271 -1.58072 0
M  V30 1056 H 99.5568 1.22218 -0.76149 0
M  V30 1057 H 101.51 4.20939 0.19714 0
M  V30 1058 H 100.234 3.15302 0.85161 0
M  V30 1059 H 98.8928 3.44223 -1.2612 0
M  V30 1060 H 98.5408 4.98437 0.675988 0
M  V30 1061 H 98.2408 5.81072 -0.873455 0
M  V30 1062 H 99.7648 6.10599 0.0109857 0
M  V30 1063 H 101.179 5.32573 -2.12223 0
M  V30 1064 H 99.5758 5.24843 -2.90963 0
M  V30 1065 H 100.646 3.83602 -2.96611 0
M  V30 1066 N 101.989 0.842826 1.3317 0
M  V30 1067 C 103.4 0.496651 1.79973 0
M  V30 1068 C 103.751 -0.984641 1.69703 0
M  V30 1069 O 102.876 -1.76743 1.24863 0
M  V30 1070 C 103.471 0.894727 3.26772 0
M  V30 1071 C 102.03 0.600629 3.71577 0
M  V30 1072 C 101.177 1.10091 2.5451 0
M  V30 1073 H 104.128 1.03116 1.20635 0
M  V30 1074 H 104.149 0.206347 3.7994 0
M  V30 1075 H 103.661 1.97287 3.34215 0
M  V30 1076 H 101.762 -0.467284 3.69658 0
M  V30 1077 H 101.875 1.15863 4.64879 0
M  V30 1078 H 100.239 0.52162 2.49301 0
M  V30 1079 H 101.022 2.18591 2.64713 0
M  V30 1080 N 103.467 -1.45747 0.599634 0
M  V30 1081 C 104.716 -2.01502 0.0893511 0
M  V30 1082 C 105.029 -1.4748 -1.28488 0
M  V30 1083 O 106.235 -1.95161 -1.88745 0
M  V30 1084 C 104.691 -3.59735 0.109082 0
M  V30 1085 C 104.299 -4.22754 1.48267 0
M  V30 1086 C 106.043 -4.23085 -0.346374 0
M  V30 1087 C 103.95 -5.73115 1.45921 0
M  V30 1088 H 102.88 -0.753417 0.0296347 0
M  V30 1089 H 105.531 -1.67303 0.753788 0
M  V30 1090 H 103.913 -3.91087 -0.621854 0
M  V30 1091 H 105.087 -4.02987 2.23468 0
M  V30 1092 H 103.402 -3.71567 1.87955 0
M  V30 1093 H 105.999 -5.33327 -0.38298 0
M  V30 1094 H 106.342 -3.93201 -1.36743 0
M  V30 1095 H 106.875 -3.9642 0.331038 0
M  V30 1096 H 103.614 -6.07685 2.45762 0
M  V30 1097 H 103.134 -5.95097 0.749665 0
M  V30 1098 H 104.813 -6.3616 1.17941 0
M  V30 1099 N 104.945 -0.338344 -1.53925 0
M  V30 1100 C 106.173 0.261298 -2.05243 0
M  V30 1101 C 106.588 1.44625 -1.21363 0
M  V30 1102 O 105.945 1.80811 -0.247736 0
M  V30 1103 C 105.996 0.681412 -3.5502 0
M  V30 1104 O 105.717 -0.456414 -4.35716 0
M  V30 1105 C 107.218 1.34232 -4.22489 0
M  V30 1106 H 104.438 0.0513685 -0.669031 0
M  V30 1107 H 106.982 -0.488822 -1.98572 0
M  V30 1108 H 105.137 1.38148 -3.61931 0
M  V30 1109 H 105.551 -0.122564 -5.24357 0
M  V30 1110 H 107.025 1.58708 -5.28693 0
M  V30 1111 H 107.502 2.29426 -3.74514 0
M  V30 1112 H 108.108 0.684424 -4.19757 0
M  V30 1113 N 106.423 1.57458 -0.0668435 0
M  V30 1114 C 107.672 1.92477 0.602947 0
M  V30 1115 C 107.985 0.948419 1.71068 0
M  V30 1116 O 109.191 1.19124 2.43971 0
M  V30 1117 C 107.647 3.41903 1.12383 0
M  V30 1118 C 107.255 4.47975 0.04737 0
M  V30 1119 C 108.999 3.85931 1.76797 0
M  V30 1120 C 106.906 5.88529 0.582022 0
M  V30 1121 H 105.836 0.718387 0.22899 0
M  V30 1122 H 108.487 1.82978 -0.138276 0
M  V30 1123 H 106.869 3.46459 1.91787 0
M  V30 1124 H 108.043 4.55029 -0.726978 0
M  V30 1125 H 106.358 4.13384 -0.500243 0
M  V30 1126 H 108.955 4.88322 2.17821 0
M  V30 1127 H 109.298 3.23029 2.62599 0
M  V30 1128 H 109.831 3.83958 1.04024 0
M  V30 1129 H 106.57 6.55065 -0.238721 0
M  V30 1130 H 106.09 5.85004 1.324 0
M  V30 1131 H 107.769 6.38258 1.05999 0
M  V30 1132 N 107.901 -0.206675 1.56239 0
M  V30 1133 C 108.848 -1.25617 1.93621 0
M  V30 1134 C 109.818 -1.45824 0.795274 0
M  V30 1135 O 111.003 -1.59148 1.05245 0
M  V30 1136 C 108.143 -2.59839 2.27107 0
M  V30 1137 C 107.256 -2.47308 3.54207 0
M  V30 1138 C 106.391 -3.74155 3.7707 0
M  V30 1139 C 105.43 -3.56407 4.97635 0
M  V30 1140 N 104.567 -4.75238 5.1681 0
M  V30 1141 H 109.407 -0.930383 2.83104 0
M  V30 1142 H 106.944 -0.448065 1.4011 0
M  V30 1143 H 108.902 -3.38021 2.44535 0
M  V30 1144 H 107.532 -2.90485 1.40778 0
M  V30 1145 H 106.584 -1.60483 3.4489 0
M  V30 1146 H 107.896 -2.30122 4.42544 0
M  V30 1147 H 107.05 -4.60778 3.94675 0
M  V30 1148 H 105.789 -3.94282 2.87042 0
M  V30 1149 H 104.794 -2.68168 4.79964 0
M  V30 1150 H 106.019 -3.37736 5.89161 0
M  V30 1151 H 103.965 -4.95651 4.29728 0
M  V30 1152 H 103.882 -4.60835 5.99306 0
M  V30 1153 H 105.15 -5.63246 5.38864 0
M  V30 1154 N 109.379 -1.50304 -0.473955 0
M  V30 1155 C 110.342 -1.6841 -1.55469 0
M  V30 1156 C 111.342 -0.554905 -1.50922 0
M  V30 1157 O 112.532 -0.821882 -1.53593 0
M  V30 1158 C 109.664 -1.70667 -2.95102 0
M  V30 1159 H 110.857 -2.64828 -1.40733 0
M  V30 1160 H 108.41 -1.39742 -0.700132 0
M  V30 1161 H 109.145 -0.75932 -3.15285 0
M  V30 1162 H 108.93 -2.52698 -2.9981 0
M  V30 1163 H 110.42 -1.8664 -3.73571 0
M  V30 1164 N 110.857 0.726932 -1.39834 0
M  V30 1165 C 111.787 1.85405 -1.41941 0
M  V30 1166 C 112.768 1.67751 -0.281728 0
M  V30 1167 O 113.953 1.8795 -0.488717 0
M  V30 1168 C 111.083 3.23243 -1.2701 0
M  V30 1169 C 110.037 3.55549 -2.38262 0
M  V30 1170 C 109.363 4.9241 -2.08415 0
M  V30 1171 C 110.663 3.577 -3.80589 0
M  V30 1172 H 112.357 1.83899 -2.36266 0
M  V30 1173 H 109.903 0.883349 -1.13723 0
M  V30 1174 H 111.856 4.01775 -1.27103 0
M  V30 1175 H 110.58 3.25296 -0.291564 0
M  V30 1176 H 109.239 2.79351 -2.37399 0
M  V30 1177 H 108.887 4.91052 -1.0898 0
M  V30 1178 H 108.587 5.14992 -2.82943 0
M  V30 1179 H 110.111 5.73289 -2.10171 0
M  V30 1180 H 111.525 4.26293 -3.83337 0
M  V30 1181 H 109.922 3.91804 -4.54543 0
M  V30 1182 H 110.992 2.57328 -4.10987 0
M  V30 1183 N 112.336 1.25143 0.95797 0
M  V30 1184 C 113.284 1.05019 2.07542 0
M  V30 1185 C 114.278 -0.0178751 1.69391 0
M  V30 1186 O 115.484 0.137472 1.79474 0
M  V30 1187 H 111.859 0.32265 0.679265 0
M  V30 1188 H 113.83 1.99759 2.21673 0
M  V30 1189 C 112.579 0.682074 3.40944 0
M  V30 1190 H 111.902 1.49573 3.70767 0
M  V30 1191 H 113.342 0.580945 4.20001 0
M  V30 1192 C 111.801 -0.611608 3.31302 0
M  V30 1193 O 112.331 -1.65465 3.66038 0
M  V30 1194 N 110.537 -0.595982 2.84423 0
M  V30 1195 H 110.084 0.253192 2.56353 0
M  V30 1196 H 110.042 -1.46173 2.78354 0
M  V30 1197 N 113.814 -1.1601 1.06675 0
M  V30 1198 C 115.225 -1.68235 0.809565 0
M  V30 1199 C 115.576 -1.8454 -0.666303 0
M  V30 1200 O 114.701 -1.54374 -1.5165 0
M  V30 1201 C 115.296 -3.05585 1.46299 0
M  V30 1202 C 113.855 -3.54915 1.25349 0
M  V30 1203 C 113.002 -2.30804 1.53703 0
M  V30 1204 H 115.953 -1.00318 1.22971 0
M  V30 1205 H 115.974 -3.70174 0.880431 0
M  V30 1206 H 115.486 -2.93686 2.53713 0
M  V30 1207 H 113.587 -3.72067 0.199261 0
M  V30 1208 H 113.7 -4.36774 1.9689 0
M  V30 1209 H 112.064 -2.36007 0.957739 0
M  V30 1210 H 112.847 -2.21499 2.62284 0
M  V30 1211 N 115.292 -0.849877 -1.32721 0
M  V30 1212 C 116.54 -0.450032 -1.97026 0
M  V30 1213 C 116.861 0.996604 -1.67609 0
M  V30 1214 O 116.131 1.6958 -0.980786 0
M  V30 1215 H 114.711 -0.163426 -0.728904 0
M  V30 1216 H 117.373 -1.08526 -1.6189 0
M  V30 1217 H 116.469 -0.591146 -3.0645 0
M  V30 1218 N 116.77 1.45427 -0.607355 0
M  V30 1219 C 117.717 2.3053 0.111625 0
M  V30 1220 C 118.687 1.4209 0.860216 0
M  V30 1221 O 119.872 1.71019 0.845998 0
M  V30 1222 C 117.012 3.26992 1.10319 0
M  V30 1223 C 116.125 4.30535 0.355493 0
M  V30 1224 C 115.26 5.14105 1.33676 0
M  V30 1225 C 114.299 6.09376 0.576862 0
M  V30 1226 N 113.436 6.85727 1.5074 0
M  V30 1227 H 118.276 2.91477 -0.620093 0
M  V30 1228 H 115.813 1.43631 -0.317594 0
M  V30 1229 H 117.771 3.81385 1.6912 0
M  V30 1230 H 116.401 2.67799 1.80232 0
M  V30 1231 H 115.453 3.78805 -0.348023 0
M  V30 1232 H 116.765 4.98235 -0.237423 0
M  V30 1233 H 115.919 5.72897 1.99684 0
M  V30 1234 H 114.658 4.46423 1.9636 0
M  V30 1235 H 113.663 5.49715 -0.0968519 0
M  V30 1236 H 114.888 6.79085 -0.0449341 0
M  V30 1237 H 112.834 6.20735 2.12189 0
M  V30 1238 H 112.751 7.49778 0.967913 0
M  V30 1239 H 114.019 7.4906 2.15706 0
M  V30 1240 N 118.248 0.346503 1.53744 0
M  V30 1241 C 119.494 -0.249473 2.0126 0
M  V30 1242 C 119.827 -1.49965 1.23386 0
M  V30 1243 O 119.102 -1.91811 0.32229 0
M  V30 1244 C 119.385 -0.560643 3.55709 0
M  V30 1245 C 119.238 0.701836 4.44291 0
M  V30 1246 C 120.557 -1.36905 4.18264 0
M  V30 1247 H 117.676 -0.0891987 0.731582 0
M  V30 1248 H 120.318 0.467624 1.84156 0
M  V30 1249 H 118.468 -1.17156 3.70414 0
M  V30 1250 H 120.14 1.33974 4.41417 0
M  V30 1251 H 118.383 1.32612 4.13033 0
M  V30 1252 H 119.054 0.43933 5.50249 0
M  V30 1253 H 121.53 -0.852448 4.07275 0
M  V30 1254 H 120.406 -1.55553 5.26398 0
M  V30 1255 H 120.667 -2.37203 3.73078 0
M  V30 1256 N 119.726 -1.57421 0.075193 0
M  V30 1257 C 120.973 -1.93618 -0.593146 0
M  V30 1258 C 121.301 -0.955484 -1.69413 0
M  V30 1259 O 120.556 0.0283251 -1.9568 0
M  V30 1260 C 120.855 -3.36428 -1.20626 0
M  V30 1261 C 120.521 -4.50307 -0.231078 0
M  V30 1262 C 119.183 -4.81186 0.0371936 0
M  V30 1263 C 121.535 -5.19374 0.435888 0
M  V30 1264 C 118.863 -5.78466 0.979461 0
M  V30 1265 C 121.215 -6.17665 1.3665 0
M  V30 1266 C 119.879 -6.46958 1.6432 0
M  V30 1267 H 119.149 -0.708499 -0.217047 0
M  V30 1268 H 121.796 -1.90937 0.146793 0
M  V30 1269 H 120.101 -3.35592 -2.02201 0
M  V30 1270 H 121.798 -3.61727 -1.73073 0
M  V30 1271 H 118.388 -4.26227 -0.450357 0
M  V30 1272 H 122.572 -4.95711 0.241748 0
M  V30 1273 H 117.828 -5.99487 1.20106 0
M  V30 1274 H 122.002 -6.70284 1.88924 0
M  V30 1275 H 119.629 -7.2215 2.37494 0
M  V30 1276 N 121.204 0.198386 -1.56346 0
M  V30 1277 C 122.451 0.919286 -1.80431 0
M  V30 1278 C 122.779 1.83393 -0.647866 0
M  V30 1279 O 122.034 1.92236 0.366556 0
M  V30 1280 C 122.333 1.77031 -3.10475 0
M  V30 1281 C 121.999 1.00693 -4.39513 0
M  V30 1282 C 120.661 0.796145 -4.74568 0
M  V30 1283 C 123.013 0.469559 -5.19081 0
M  V30 1284 C 120.341 0.0364588 -5.86689 0
M  V30 1285 C 122.693 -0.2769 -6.31994 0
M  V30 1286 C 121.357 -0.49873 -6.65634 0
M  V30 1287 H 120.627 0.336391 -0.660244 0
M  V30 1288 H 123.274 0.185872 -1.90596 0
M  V30 1289 H 121.579 2.5723 -2.95533 0
M  V30 1290 H 123.276 2.33065 -3.26315 0
M  V30 1291 H 119.866 1.18122 -4.12001 0
M  V30 1292 H 124.05 0.619816 -4.92414 0
M  V30 1293 H 119.306 -0.145412 -6.11227 0
M  V30 1294 H 123.48 -0.700684 -6.92866 0
M  V30 1295 H 121.107 -1.0893 -7.52355 0
M  V30 1296 N 122.682 1.50554 0.465978 0
M  V30 1297 C 123.91 1.65563 1.24083 0
M  V30 1298 C 124.325 0.341051 1.85694 0
M  V30 1299 O 123.682 -0.677543 1.69457 0
M  V30 1300 C 123.733 2.75051 2.34583 0
M  V30 1301 O 123.454 4.01413 1.75497 0
M  V30 1302 C 124.955 3.01078 3.25372 0
M  V30 1303 H 122.175 0.55638 0.375077 0
M  V30 1304 H 124.719 1.96807 0.555624 0
M  V30 1305 H 122.874 2.46486 2.9887 0
M  V30 1306 H 123.288 4.62002 2.48303 0
M  V30 1307 H 124.762 3.81339 3.99105 0
M  V30 1308 H 125.239 2.12349 3.84453 0
M  V30 1309 H 125.845 3.31194 2.66816 0
M  V30 1310 N 124.16 -0.719506 1.40217 0
M  V30 1311 C 125.408 -1.47641 1.3801 0
M  V30 1312 C 125.729 -1.94992 -0.018145 0
M  V30 1313 O 124.999 -1.70073 -0.972207 0
M  V30 1314 H 123.579 -0.547744 0.507923 0
M  V30 1315 H 126.241 -0.853187 1.75233 0
M  V30 1316 H 125.337 -2.35112 2.05253 0
M  V30 1317 N 125.638 -1.25649 -0.95132 0
M  V30 1318 C 126.915 -1.01361 -1.67288 0
M  V30 1319 C 127.295 0.459135 -2.06046 0
M  V30 1320 O 126.643 1.43723 -1.7764 0
M  V30 1321 C 126.853 -1.95256 -2.89268 0
M  V30 1322 C 128.201 -2.23289 -3.61147 0
M  V30 1323 O 129.225 -1.93041 -2.99355 0
M  V30 1324 O 128.084 -2.74741 -4.72419 0
M  V30 1325 H 125.178 -0.38464 -0.732107 0
M  V30 1326 H 127.724 -1.36817 -1.00395 0
M  V30 1327 H 126.496 -2.94685 -2.57442 0
M  V30 1328 H 126.119 -1.60218 -3.6389 0
M  V30 1329 N 127.117 1.15442 -1.07289 0
M  V30 1330 C 128.08 2.18358 -0.696591 0
M  V30 1331 C 129.08 1.58637 0.262837 0
M  V30 1332 O 130.27 1.74145 0.0438809 0
M  V30 1333 C 127.402 3.4089 -0.0266151 0
M  V30 1334 H 128.595 2.53162 -1.60776 0
M  V30 1335 H 126.148 1.29893 -0.869342 0
M  V30 1336 H 126.883 3.11653 0.896822 0
M  V30 1337 H 126.668 3.85495 -0.716657 0
M  V30 1338 H 128.158 4.17009 0.222028 0
M  V30 1339 N 128.595 0.856903 1.32268 0
M  V30 1340 C 129.542 0.301172 2.28827 0
M  V30 1341 C 130.512 -0.593104 1.5515 0
M  V30 1342 O 131.697 -0.527537 1.83362 0
M  V30 1343 C 128.837 -0.502523 3.41422 0
M  V30 1344 C 127.95 0.417797 4.29975 0
M  V30 1345 C 127.085 -0.398749 5.29701 0
M  V30 1346 C 126.124 0.518827 6.09897 0
M  V30 1347 N 125.261 -0.260674 7.01616 0
M  V30 1348 H 130.101 1.12983 2.75751 0
M  V30 1349 H 127.638 0.568582 1.35667 0
M  V30 1350 H 129.596 -0.984141 4.05426 0
M  V30 1351 H 128.226 -1.29599 2.95642 0
M  V30 1352 H 127.278 1.01781 3.66531 0
M  V30 1353 H 128.59 1.12191 4.86019 0
M  V30 1354 H 127.744 -0.943435 5.9932 0
M  V30 1355 H 126.483 -1.13622 4.7428 0
M  V30 1356 H 125.488 1.07538 5.39181 0
M  V30 1357 H 126.713 1.25495 6.67404 0
M  V30 1358 H 124.659 -0.981198 6.4862 0
M  V30 1359 H 124.576 0.384364 7.55022 0
M  V30 1360 H 125.844 -0.787014 7.75517 0
M  V30 1361 N 130.073 -1.45103 0.615059 0
M  V30 1362 C 131.319 -2.02483 0.113347 0
M  V30 1363 C 131.652 -1.48146 -1.25564 0
M  V30 1364 O 130.927 -0.659104 -1.82992 0
M  V30 1365 C 131.21 -3.60005 0.0825278 0
M  V30 1366 C 131.063 -4.2466 1.48271 0
M  V30 1367 C 132.382 -4.35972 -0.601401 0
M  V30 1368 H 129.501 -0.735764 0.0426632 0
M  V30 1369 H 132.143 -1.72868 0.788461 0
M  V30 1370 H 130.293 -3.85367 -0.492378 0
M  V30 1371 H 131.965 -4.10458 2.10527 0
M  V30 1372 H 130.208 -3.82772 2.04127 0
M  V30 1373 H 130.879 -5.336 1.41332 0
M  V30 1374 H 133.355 -4.15947 -0.112666 0
M  V30 1375 H 132.231 -5.45697 -0.592097 0
M  V30 1376 H 132.492 -4.09391 -1.66887 0
M  V30 1377 N 131.551 -0.354651 -1.53558 0
M  V30 1378 C 132.461 0.50515 -2.29097 0
M  V30 1379 C 133.477 1.10223 -1.34636 0
M  V30 1380 O 134.653 1.11553 -1.67684 0
M  V30 1381 C 131.718 1.63479 -3.05738 0
M  V30 1382 C 130.779 1.06636 -4.15845 0
M  V30 1383 C 130.012 2.14217 -4.88822 0
M  V30 1384 O 130.235 3.35137 -4.61562 0
M  V30 1385 O 129.169 1.77887 -5.75013 0
M  V30 1386 H 132.995 -0.109237 -3.03503 0
M  V30 1387 H 130.58 -0.119357 -1.48922 0
M  V30 1388 H 132.462 2.2918 -3.5363 0
M  V30 1389 H 131.137 2.23478 -2.34178 0
M  V30 1390 H 130.044 0.373565 -3.7223 0
M  V30 1391 H 131.377 0.511081 -4.89539 0
M  V30 1392 N 133.029 1.57378 -0.0835403 0
M  V30 1393 C 133.959 2.1641 0.87686 0
M  V30 1394 C 134.94 1.09429 1.30228 0
M  V30 1395 O 136.125 1.37516 1.37124 0
M  V30 1396 C 133.255 2.73517 2.14022 0
M  V30 1397 C 132.209 3.85769 1.85381 0
M  V30 1398 C 131.535 4.29529 3.18448 0
M  V30 1399 C 132.835 5.09486 1.14984 0
M  V30 1400 H 134.529 2.96914 0.385059 0
M  V30 1401 H 132.075 1.42823 0.18377 0
M  V30 1402 H 134.028 3.13463 2.81636 0
M  V30 1403 H 132.752 1.90252 2.65465 0
M  V30 1404 H 131.411 3.46345 1.20169 0
M  V30 1405 H 131.059 3.43169 3.67755 0
M  V30 1406 H 130.759 5.05204 3.00071 0
M  V30 1407 H 132.283 4.72099 3.8724 0
M  V30 1408 H 133.697 5.46674 1.72687 0
M  V30 1409 H 132.094 5.90515 1.06826 0
M  V30 1410 H 133.164 4.84724 0.130749 0
M  V30 1411 N 134.507 -0.190092 1.56449 0
M  V30 1412 C 135.923 -0.54113 1.50146 0
M  V30 1413 C 136.123 -1.85603 0.784465 0
M  V30 1414 O 135.179 -2.5024 0.337051 0
M  V30 1415 C 136.492 -0.591241 2.9483 0
M  V30 1416 C 138.04 -0.679732 3.0553 0
M  V30 1417 C 138.515 -0.760908 4.51635 0
M  V30 1418 N 140.006 -0.824302 4.55806 0
M  V30 1419 C 140.741 -0.907365 5.66175 0
M  V30 1420 N 140.237 -0.952422 6.86222 0
M  V30 1421 N 142.03 -0.94494 5.541 0
M  V30 1422 H 134.181 0.67235 2.01478 0
M  V30 1423 H 136.444 0.240127 0.917084 0
M  V30 1424 H 136.15 0.305905 3.50367 0
M  V30 1425 H 136.024 -1.44422 3.48457 0
M  V30 1426 H 138.411 -1.56731 2.50039 0
M  V30 1427 H 138.492 0.199549 2.5502 0
M  V30 1428 H 138.136 0.122336 5.07753 0
M  V30 1429 H 138.066 -1.65606 4.99882 0
M  V30 1430 H 140.557 -0.798526 3.69367 0
M  V30 1431 H 140.87 -1.01645 7.66086 0
M  V30 1432 H 139.215 -0.921014 6.8887 0
M  V30 1433 H 142.406 -0.906612 4.59236 0
M  V30 1434 H 142.579 -1.00622 6.4014 0
M  V30 1435 N 135.985 -1.50799 -0.457987 0
M  V30 1436 C 137.233 -1.62121 -1.2067 0
M  V30 1437 C 137.554 -0.329793 -1.92191 0
M  V30 1438 O 136.824 0.653409 -1.84682 0
M  V30 1439 H 135.404 -0.597441 -0.448411 0
M  V30 1440 H 138.066 -1.87637 -0.527096 0
M  V30 1441 H 137.162 -2.43882 -1.94751 0
M  V30 1442 N 137.463 0.71206 -1.40597 0
M  V30 1443 C 138.373 1.8562 -1.43466 0
M  V30 1444 C 139.389 1.70902 -0.326902 0
M  V30 1445 O 140.565 1.93105 -0.572043 0
M  V30 1446 C 137.63 3.21451 -1.29884 0
M  V30 1447 C 136.691 3.48398 -2.50833 0
M  V30 1448 C 135.924 4.77749 -2.3789 0
M  V30 1449 O 136.147 5.53089 -1.39459 0
M  V30 1450 O 135.081 5.05111 -3.27333 0
M  V30 1451 H 138.907 1.86155 -2.39958 0
M  V30 1452 H 136.492 0.86295 -1.21957 0
M  V30 1453 H 138.374 4.02579 -1.24531 0
M  V30 1454 H 137.049 3.21636 -0.364997 0
M  V30 1455 H 135.956 2.67265 -2.61763 0
M  V30 1456 H 137.289 3.53014 -3.4299 0
M  V30 1457 N 138.941 1.26152 0.944643 0
M  V30 1458 C 139.891 1.04081 2.02857 0
M  V30 1459 C 140.875 -0.0256555 1.6088 0
M  V30 1460 O 142.067 0.190884 1.75968 0
M  V30 1461 C 139.196 0.672118 3.36656 0
M  V30 1462 C 138.282 1.77586 3.85128 0
M  V30 1463 N 138.673 3.01272 4.06287 0
M  V30 1464 C 136.971 1.65867 4.1401 0
M  V30 1465 C 137.672 3.72983 4.46384 0
M  V30 1466 N 136.648 3.00653 4.52889 0
M  V30 1467 H 140.45 1.97968 2.17223 0
M  V30 1468 H 137.964 1.16618 1.13022 0
M  V30 1469 H 139.961 0.495166 4.13949 0
M  V30 1470 H 138.621 -0.259307 3.23663 0
M  V30 1471 H 139.632 3.37213 3.93075 0
M  V30 1472 H 136.309 0.796907 4.09824 0
M  V30 1473 H 137.699 4.792 4.70975 0
M  V30 1474 N 140.419 -1.14872 1.07899 0
M  V30 1475 C 141.349 -2.2193 0.725887 0
M  V30 1476 C 142.33 -1.67622 -0.28927 0
M  V30 1477 O 143.515 -1.93533 -0.160787 0
M  V30 1478 C 140.645 -3.47061 0.128856 0
M  V30 1479 C 139.599 -4.14363 1.07178 0
M  V30 1480 C 138.925 -5.33636 0.337229 0
M  V30 1481 C 140.225 -4.63492 2.40775 0
M  V30 1482 H 141.919 -2.51724 1.62097 0
M  V30 1483 H 139.465 -1.20991 0.780838 0
M  V30 1484 H 141.418 -4.21199 -0.130147 0
M  V30 1485 H 140.142 -3.16617 -0.80134 0
M  V30 1486 H 138.801 -3.42173 1.3158 0
M  V30 1487 H 138.449 -4.99449 -0.596606 0
M  V30 1488 H 138.149 -5.79609 0.965788 0
M  V30 1489 H 139.673 -6.10539 0.0861567 0
M  V30 1490 H 141.087 -5.2913 2.20669 0
M  V30 1491 H 139.484 -5.20148 2.99276 0
M  V30 1492 H 140.554 -3.78834 3.02676 0
M  V30 1493 N 141.898 -0.863906 -1.31812 0
M  V30 1494 C 143.147 -0.46801 -1.96195 0
M  V30 1495 C 143.46 0.983474 -1.69077 0
M  V30 1496 O 144.666 1.48523 -2.27273 0
M  V30 1497 C 143.122 -0.785995 -3.51212 0
M  V30 1498 C 142.73 -2.25383 -3.87178 0
M  V30 1499 C 144.474 -0.458274 -4.22019 0
M  V30 1500 C 142.381 -2.51455 -5.3528 0
M  V30 1501 H 141.311 -0.171283 -0.734287 0
M  V30 1502 H 143.962 -1.05597 -1.50072 0
M  V30 1503 H 142.344 -0.127359 -3.95795 0
M  V30 1504 H 143.518 -2.95502 -3.53575 0
M  V30 1505 H 141.833 -2.54698 -3.2942 0
M  V30 1506 H 144.43 -0.630369 -5.30971 0
M  V30 1507 H 144.773 0.600834 -4.11941 0
M  V30 1508 H 145.306 -1.07319 -3.8305 0
M  V30 1509 H 142.045 -3.56025 -5.50387 0
M  V30 1510 H 141.565 -1.85923 -5.70257 0
M  V30 1511 H 143.244 -2.35874 -6.02472 0
M  V30 1512 N 143.376 1.44774 -0.622745 0
M  V30 1513 C 144.306 2.33382 0.0741861 0
M  V30 1514 C 145.287 1.47719 0.843387 0
M  V30 1515 O 146.472 1.76458 0.810934 0
M  V30 1516 C 143.602 3.30663 1.06204 0
M  V30 1517 C 142.556 4.26079 0.405037 0
M  V30 1518 C 141.882 5.13165 1.5022 0
M  V30 1519 C 143.182 5.1781 -0.683414 0
M  V30 1520 H 144.876 2.91905 -0.665713 0
M  V30 1521 H 142.422 1.40363 -0.321587 0
M  V30 1522 H 144.375 3.9153 1.55827 0
M  V30 1523 H 143.099 2.70331 1.83272 0
M  V30 1524 H 141.758 3.66532 -0.0704683 0
M  V30 1525 H 141.406 4.49191 2.26355 0
M  V30 1526 H 141.106 5.77812 1.06803 0
M  V30 1527 H 142.63 5.76902 2.00041 0
M  V30 1528 H 144.044 5.72661 -0.270631 0
M  V30 1529 H 142.441 5.91015 -1.04023 0
M  V30 1530 H 143.511 4.59326 -1.55395 0
M  V30 1531 N 144.854 0.36279 1.53368 0
M  V30 1532 C 145.764 -0.492994 2.29362 0
M  V30 1533 C 146.78 -1.09507 1.35219 0
M  V30 1534 O 147.956 -1.10662 1.68273 0
M  V30 1535 C 145.021 -1.61855 3.066 0
M  V30 1536 C 144.082 -1.04429 4.16405 0
M  V30 1537 C 143.315 -2.11621 4.89951 0
M  V30 1538 O 143.538 -3.32684 4.63333 0
M  V30 1539 O 142.472 -1.74835 5.75948 0
M  V30 1540 H 146.298 0.125331 3.03441 0
M  V30 1541 H 143.883 0.127253 1.48857 0
M  V30 1542 H 145.765 -2.27302 3.54841 0
M  V30 1543 H 144.44 -2.22233 2.3536 0
M  V30 1544 H 143.347 -0.353819 3.72423 0
M  V30 1545 H 144.68 -0.485113 4.89804 0
M  V30 1546 N 146.332 -1.57332 0.0918853 0
M  V30 1547 C 147.58 -1.93853 -0.571446 0
M  V30 1548 C 147.901 -0.974212 -1.6892 0
M  V30 1549 O 147.171 -0.0257254 -1.95883 0
M  V30 1550 H 145.751 -0.715666 -0.214082 0
M  V30 1551 H 148.413 -1.94287 0.154464 0
M  V30 1552 H 147.509 -2.96191 -0.983729 0
M  V30 1553 N 147.81 0.181792 -1.56548 0
M  V30 1554 C 149.059 0.898348 -1.8059 0
M  V30 1555 C 149.372 1.83862 -0.667379 0
M  V30 1556 O 150.578 2.59678 -0.792446 0
M  V30 1557 C 149.034 1.64791 -3.19956 0
M  V30 1558 C 148.642 0.751789 -4.41647 0
M  V30 1559 C 150.386 2.35331 -3.53298 0
M  V30 1560 C 148.293 1.50098 -5.72035 0
M  V30 1561 H 147.223 0.339194 -0.673397 0
M  V30 1562 H 149.874 0.151413 -1.82874 0
M  V30 1563 H 148.256 2.43921 -3.11959 0
M  V30 1564 H 149.43 -0.0018076 -4.608 0
M  V30 1565 H 147.745 0.156562 -4.16106 0
M  V30 1566 H 150.342 2.91958 -4.47956 0
M  V30 1567 H 150.685 3.10164 -2.77676 0
M  V30 1568 H 151.218 1.63154 -3.62803 0
M  V30 1569 H 147.957 0.795175 -6.50659 0
M  V30 1570 H 147.477 2.22817 -5.56878 0
M  V30 1571 H 149.156 2.05125 -6.13622 0
M  V30 1572 N 149.288 1.51039 0.449983 0
M  V30 1573 C 150.534 1.64287 1.19923 0
M  V30 1574 C 150.889 0.348701 1.89214 0
M  V30 1575 O 150.182 -0.654751 1.80065 0
M  V30 1576 C 150.376 2.77556 2.25161 0
M  V30 1577 C 150.205 4.17862 1.66198 0
M  V30 1578 C 148.975 4.83976 1.45243 0
M  V30 1579 C 151.173 5.01388 1.14519 0
M  V30 1580 N 149.155 6.08433 0.817437 0
M  V30 1581 C 150.526 6.16743 0.634705 0
M  V30 1582 C 152.581 4.87008 1.03574 0
M  V30 1583 C 151.284 7.19295 0.0255452 0
M  V30 1584 C 153.31 5.89757 0.440489 0
M  V30 1585 C 152.672 7.04375 -0.0595112 0
M  V30 1586 H 148.771 0.655161 0.426952 0
M  V30 1587 H 151.355 1.88228 0.49781 0
M  V30 1588 H 149.526 2.553 2.92706 0
M  V30 1589 H 151.258 2.80049 2.92155 0
M  V30 1590 H 148.013 4.41627 1.71063 0
M  V30 1591 H 148.437 6.75017 0.517747 0
M  V30 1592 H 153.079 3.9866 1.4082 0
M  V30 1593 H 150.797 8.07302 -0.359071 0
M  V30 1594 H 154.383 5.80698 0.35788 0
M  V30 1595 H 153.263 7.82521 -0.512882 0
M  V30 1596 N 150.766 -0.704594 1.40972 0
M  V30 1597 C 152.013 -1.46458 1.39844 0
M  V30 1598 C 152.341 -1.94499 0.00447594 0
M  V30 1599 O 151.596 -1.69275 -0.982057 0
M  V30 1600 C 151.895 -2.698 2.34399 0
M  V30 1601 C 151.561 -2.40464 3.81429 0
M  V30 1602 C 150.223 -2.32174 4.21484 0
M  V30 1603 C 152.575 -2.16086 4.74296 0
M  V30 1604 C 149.903 -1.97589 5.52427 0
M  V30 1605 C 152.255 -1.83011 6.05549 0
M  V30 1606 C 150.919 -1.7321 6.44635 0
M  V30 1607 H 150.189 -0.535927 0.511725 0
M  V30 1608 H 152.836 -0.806124 1.73706 0
M  V30 1609 H 151.141 -3.40536 1.93759 0
M  V30 1610 H 152.838 -3.27919 2.30804 0
M  V30 1611 H 149.428 -2.47808 3.49699 0
M  V30 1612 H 153.612 -2.2144 4.4416 0
M  V30 1613 H 148.868 -1.88547 5.81601 0
M  V30 1614 H 153.042 -1.63164 6.77016 0
M  V30 1615 H 150.669 -1.46179 7.46013 0
M  V30 1616 N 152.244 -1.26651 -0.937939 0
M  V30 1617 C 153.191 -1.0849 -2.03712 0
M  V30 1618 C 154.161 0.011033 -1.66096 0
M  V30 1619 O 155.346 -0.149353 -1.90215 0
M  V30 1620 C 152.486 -0.72735 -3.37348 0
M  V30 1621 C 151.599 -1.89986 -3.87981 0
M  V30 1622 C 150.734 -1.48513 -5.10017 0
M  V30 1623 C 149.773 -2.62575 -5.5292 0
M  V30 1624 N 148.91 -2.21762 -6.66158 0
M  V30 1625 H 153.75 -2.02551 -2.18579 0
M  V30 1626 H 151.287 -1.00844 -1.07093 0
M  V30 1627 H 153.245 -0.50092 -4.14182 0
M  V30 1628 H 151.875 0.176298 -3.22318 0
M  V30 1629 H 150.927 -2.23913 -3.07518 0
M  V30 1630 H 152.239 -2.75586 -4.15757 0
M  V30 1631 H 151.393 -1.21934 -5.94321 0
M  V30 1632 H 150.132 -0.60009 -4.83994 0
M  V30 1633 H 149.137 -2.8988 -4.67172 0
M  V30 1634 H 150.362 -3.51685 -5.80943 0
M  V30 1635 H 148.308 -1.35696 -6.41812 0
M  V30 1636 H 148.225 -3.00903 -6.93537 0
M  V30 1637 H 149.493 -1.98403 -7.53828 0
M  V30 1638 N 153.722 1.14298 -1.08507 0
M  V30 1639 C 154.999 1.81544 -0.728088 0
M  V30 1640 C 155.379 1.95838 0.78808 0
M  V30 1641 O 154.727 1.51904 1.70697 0
M  V30 1642 C 154.937 3.17169 -1.45619 0
M  V30 1643 C 156.285 3.9265 -1.61591 0
M  V30 1644 O 157.309 3.26762 -1.41793 0
M  V30 1645 O 156.168 5.10807 -1.94263 0
M  V30 1646 H 153.262 0.78491 -0.260471 0
M  V30 1647 H 155.808 1.21307 -1.18671 0
M  V30 1648 H 154.58 3.01934 -2.489 0
M  V30 1649 H 154.203 3.851 -0.989124 0
M  V30 1650 N 155.201 0.870884 1.31352 0
M  V30 1651 C 156.449 0.48132 1.96285 0
M  V30 1652 C 156.77 -0.969813 1.69173 0
M  V30 1653 O 156.04 -1.67998 1.00764 0
M  V30 1654 H 154.62 0.175002 0.726212 0
M  V30 1655 H 157.282 1.11087 1.60143 0
M  V30 1656 H 156.378 0.639825 3.05471 0
M  V30 1657 N 156.679 -1.44442 0.630414 0
M  V30 1658 C 157.627 -2.32437 -0.0871428 0
M  V30 1659 C 158.621 -1.47304 -0.836525 0
M  V30 1660 O 159.827 -1.63653 -0.749506 0
M  V30 1661 H 156.202 -0.750533 -0.0469495 0
M  V30 1662 H 158.173 -2.90709 0.673096 0
M  V30 1663 C 156.922 -3.31288 -1.05563 0
M  V30 1664 H 156.245 -3.96805 -0.488426 0
M  V30 1665 H 157.685 -3.9554 -1.52721 0
M  V30 1666 C 156.144 -2.6016 -2.14052 0
M  V30 1667 O 156.674 -2.39997 -3.22124 0
M  V30 1668 N 154.88 -2.19911 -1.89967 0
M  V30 1669 H 154.427 -2.36509 -1.02085 0
M  V30 1670 H 154.385 -1.72646 -2.62756 0
M  V30 1671 N 158.157 -0.370918 -1.53173 0
M  V30 1672 C 159.573 -0.0200818 -1.59587 0
M  V30 1673 C 159.773 1.46279 -1.38581 0
M  V30 1674 O 158.829 2.22506 -1.19363 0
M  V30 1675 C 160.142 -0.4808 -2.96831 0
M  V30 1676 C 161.69 -0.435477 -3.09956 0
M  V30 1677 C 162.165 -0.872092 -4.4962 0
M  V30 1678 N 163.656 -0.827364 -4.55751 0
M  V30 1679 C 164.391 -1.13683 -5.62018 0
M  V30 1680 N 163.887 -1.51584 -6.76014 0
M  V30 1681 N 165.68 -1.05927 -5.52029 0
M  V30 1682 H 157.831 -1.33652 -1.65079 0
M  V30 1683 H 160.094 -0.546634 -0.774529 0
M  V30 1684 H 159.8 -1.51577 -3.1736 0
M  V30 1685 H 159.674 0.129796 -3.76977 0
M  V30 1686 H 162.061 0.590371 -2.89134 0
M  V30 1687 H 162.142 -1.08164 -2.31806 0
M  V30 1688 H 161.786 -1.89608 -4.71181 0
M  V30 1689 H 161.716 -0.203127 -5.26208 0
M  V30 1690 H 164.207 -0.548216 -3.73902 0
M  V30 1691 H 164.52 -1.73609 -7.53047 0
M  V30 1692 H 162.865 -1.55454 -6.77391 0
M  V30 1693 H 166.056 -0.762321 -4.61851 0
M  V30 1694 H 166.229 -1.30378 -6.34749 0
M  V30 1695 N 159.635 1.57281 -0.100228 0
M  V30 1696 C 160.598 2.13158 0.842398 0
M  V30 1697 C 161.598 1.06202 1.20738 0
M  V30 1698 O 162.788 1.32066 1.13597 0
M  V30 1699 C 159.92 2.65639 2.13655 0
M  V30 1700 H 161.113 2.97766 0.357114 0
M  V30 1701 H 158.666 1.5559 0.148823 0
M  V30 1702 H 159.401 1.84566 2.66657 0
M  V30 1703 H 159.186 3.43844 1.88451 0
M  V30 1704 H 160.676 3.08846 2.81077 0
M  V30 1705 N 161.113 -0.173488 1.56642 0
M  V30 1706 C 162.362 -0.888758 1.81063 0
M  V30 1707 C 162.675 -1.83506 0.67712 0
M  V30 1708 O 163.881 -2.59254 0.806206 0
M  V30 1709 C 162.337 -1.63091 3.20826 0
M  V30 1710 C 161.945 -0.728357 4.4204 0
M  V30 1711 C 163.689 -2.33454 3.54541 0
M  V30 1712 C 161.596 -1.47062 5.72823 0
M  V30 1713 H 160.526 -0.335618 0.675186 0
M  V30 1714 H 163.177 -0.141712 1.82952 0
M  V30 1715 H 161.559 -2.42263 3.13248 0
M  V30 1716 H 162.733 0.0262449 4.60793 0
M  V30 1717 H 161.048 -0.134492 4.16183 0
M  V30 1718 H 163.645 -2.89578 4.49498 0
M  V30 1719 H 163.988 -3.08687 2.79317 0
M  V30 1720 H 164.521 -1.61227 3.63663 0
M  V30 1721 H 161.26 -0.760658 6.51072 0
M  V30 1722 H 160.78 -2.1986 5.58052 0
M  V30 1723 H 162.459 -2.01868 6.14702 0
M  V30 1724 N 162.591 -1.51276 -0.441967 0
M  V30 1725 C 163.523 -1.68444 -1.55433 0
M  V30 1726 C 164.536 -0.565187 -1.52674 0
M  V30 1727 O 165.725 -0.839356 -1.57534 0
M  V30 1728 C 162.825 -1.67966 -2.94348 0
M  V30 1729 C 161.998 -2.964 -3.21661 0
M  V30 1730 C 161.057 -2.88171 -4.40277 0
M  V30 1731 O 160.083 -3.62119 -4.39157 0
M  V30 1732 N 161.285 -2.03706 -5.43584 0
M  V30 1733 H 164.05 -2.644 -1.41112 0
M  V30 1734 H 161.611 -1.49104 -0.630838 0
M  V30 1735 H 163.603 -1.60035 -3.71713 0
M  V30 1736 H 162.173 -0.796225 -3.0229 0
M  V30 1737 H 161.393 -3.18234 -2.32638 0
M  V30 1738 H 162.681 -3.81427 -3.36736 0
M  V30 1739 H 162.079 -1.42995 -5.47329 0
M  V30 1740 H 160.636 -2.01658 -6.1982 0
M  V30 1741 N 164.069 0.697108 -1.41344 0
M  V30 1742 C 165.032 1.79281 -1.42797 0
M  V30 1743 C 166.032 1.57607 -0.318837 0
M  V30 1744 O 167.222 1.64309 -0.578642 0
M  V30 1745 C 164.354 3.17632 -1.23785 0
M  V30 1746 H 165.547 1.79385 -2.40335 0
M  V30 1747 H 163.1 0.904582 -1.27464 0
M  V30 1748 H 163.835 3.23167 -0.270814 0
M  V30 1749 H 163.62 3.34765 -2.04144 0
M  V30 1750 H 165.11 3.97617 -1.27633 0
M  V30 1751 N 165.547 1.27147 0.931209 0
M  V30 1752 C 166.793 1.14455 1.68141 0
M  V30 1753 C 167.148 -0.307172 1.89932 0
M  V30 1754 O 166.441 -1.22158 1.47607 0
M  V30 1755 C 166.635 1.8579 3.05314 0
M  V30 1756 C 166.464 3.3775 2.96909 0
M  V30 1757 C 165.234 4.07062 2.99381 0
M  V30 1758 C 167.432 4.33783 2.76291 0
M  V30 1759 N 165.414 5.45618 2.8138 0
M  V30 1760 C 166.785 5.59582 2.6696 0
M  V30 1761 C 168.84 4.23915 2.61152 0
M  V30 1762 C 167.543 6.76639 2.44033 0
M  V30 1763 C 169.569 5.40689 2.39602 0
M  V30 1764 C 168.931 6.65443 2.3101 0
M  V30 1765 H 165.03 0.473667 0.622225 0
M  V30 1766 H 167.614 1.60568 1.10118 0
M  V30 1767 H 165.785 1.42138 3.61457 0
M  V30 1768 H 167.517 1.65634 3.69253 0
M  V30 1769 H 164.272 3.585 3.09475 0
M  V30 1770 H 164.696 6.184 2.75519 0
M  V30 1771 H 169.338 3.28189 2.66555 0
M  V30 1772 H 167.056 7.72451 2.3737 0
M  V30 1773 H 170.642 5.34932 2.28778 0
M  V30 1774 H 169.522 7.54277 2.14558 0
M  V30 1775 N 167.025 -1.13721 1.09112 0
M  V30 1776 C 167.972 -2.19031 0.727591 0
M  V30 1777 C 168.942 -1.63555 -0.289656 0
M  V30 1778 O 170.127 -1.90023 -0.172026 0
M  V30 1779 C 167.267 -3.4477 0.15082 0
M  V30 1780 C 166.38 -4.14365 1.22172 0
M  V30 1781 C 165.515 -5.27709 0.608042 0
M  V30 1782 C 164.554 -5.89147 1.66047 0
M  V30 1783 N 163.691 -6.93929 1.06806 0
M  V30 1784 H 168.531 -2.49475 1.62991 0
M  V30 1785 H 166.068 -1.22499 0.81439 0
M  V30 1786 H 168.026 -4.16714 -0.201358 0
M  V30 1787 H 166.656 -3.14787 -0.714783 0
M  V30 1788 H 165.708 -3.40737 1.69122 0
M  V30 1789 H 167.02 -4.56114 2.01895 0
M  V30 1790 H 166.174 -6.06355 0.204523 0
M  V30 1791 H 164.913 -4.872 -0.220769 0
M  V30 1792 H 163.918 -5.09198 2.07357 0
M  V30 1793 H 165.143 -6.31729 2.49189 0
M  V30 1794 H 163.089 -6.55483 0.260476 0
M  V30 1795 H 163.006 -7.34202 1.8023 0
M  V30 1796 H 164.274 -7.76434 0.690644 0
M  V30 1797 N 168.503 -0.877838 -1.30888 0
M  V30 1798 C 169.728 -0.506629 -2.01117 0
M  V30 1799 C 170.153 0.895564 -1.65412 0
M  V30 1800 O 169.511 1.5923 -0.866922 0
M  V30 1801 C 169.559 -0.680223 -3.54126 0
M  V30 1802 O 168.663 0.277033 -4.11468 0
M  V30 1803 H 168.004 -0.200518 -0.633 0
M  V30 1804 H 170.534 -1.18342 -1.66902 0
M  V30 1805 H 170.544 -0.5765 -4.03907 0
M  V30 1806 H 169.219 -1.70261 -3.79452 0
M  V30 1807 H 167.796 0.127606 -3.72682 0
M  V30 1808 N 169.982 1.44106 -0.638065 0
M  V30 1809 C 170.932 2.27843 0.0847285 0
M  V30 1810 C 171.916 1.39055 0.809471 0
M  V30 1811 O 173.108 1.62808 0.694435 0
M  V30 1812 C 170.237 3.26497 1.06089 0
M  V30 1813 C 169.323 4.22772 0.33541 0
M  V30 1814 N 169.714 5.01737 -0.639787 0
M  V30 1815 C 168.012 4.42227 0.578921 0
M  V30 1816 C 168.713 5.71792 -1.06904 0
M  V30 1817 N 167.689 5.42079 -0.406395 0
M  V30 1818 H 171.491 2.86305 -0.663814 0
M  V30 1819 H 169.005 1.55627 -0.464122 0
M  V30 1820 H 171.002 3.8525 1.59337 0
M  V30 1821 H 169.662 2.69595 1.80966 0
M  V30 1822 H 170.673 5.07799 -1.01789 0
M  V30 1823 H 167.35 3.96415 1.31003 0
M  V30 1824 H 168.74 6.45205 -1.8751 0
M  V30 1825 N 171.46 0.379036 1.52974 0
M  V30 1826 C 172.708 -0.206014 2.01047 0
M  V30 1827 C 173.029 -1.48175 1.26765 0
M  V30 1828 O 172.299 -1.92085 0.384743 0
M  V30 1829 H 170.879 -0.0791184 0.742798 0
M  V30 1830 H 173.541 0.508366 1.88153 0
M  V30 1831 H 172.637 -0.423501 3.09213 0
M  V30 1832 N 172.938 -1.57226 0.108567 0
M  V30 1833 C 174.349 -1.8195 -0.418464 0
M  V30 1834 C 174.7 -1.02508 -1.67292 0
M  V30 1835 O 173.825 -0.258496 -2.14851 0
M  V30 1836 C 174.42 -3.30028 -0.765979 0
M  V30 1837 C 172.979 -3.55469 -1.23769 0
M  V30 1838 C 172.126 -2.7625 -0.241106 0
M  V30 1839 H 175.077 -1.55149 0.33384 0
M  V30 1840 H 175.098 -3.44086 -1.62434 0
M  V30 1841 H 174.61 -3.87821 0.147219 0
M  V30 1842 H 172.711 -3.03022 -2.16814 0
M  V30 1843 H 172.824 -4.6408 -1.19022 0
M  V30 1844 H 171.188 -2.44133 -0.72602 0
M  V30 1845 H 171.971 -3.36797 0.665007 0
M  V30 1846 N 174.416 0.165178 -1.56732 0
M  V30 1847 C 175.664 0.879068 -1.8198 0
M  V30 1848 C 175.985 1.82514 -0.686561 0
M  V30 1849 O 175.255 1.93694 0.293146 0
M  V30 1850 H 173.835 0.327608 -0.671329 0
M  V30 1851 H 176.497 0.163526 -1.94213 0
M  V30 1852 H 175.593 1.45228 -2.76252 0
M  V30 1853 N 175.894 1.51508 0.433938 0
M  V30 1854 C 176.824 1.76016 1.53429 0
M  V30 1855 C 177.805 0.610112 1.58782 0
M  V30 1856 O 178.99 0.853177 1.74455 0
M  V30 1857 C 176.12 1.88831 2.9148 0
M  V30 1858 C 175.074 3.04288 3.00987 0
M  V30 1859 C 174.4 3.0229 4.4105 0
M  V30 1860 C 175.7 4.44193 2.74754 0
M  V30 1861 H 177.394 2.68152 1.33171 0
M  V30 1862 H 174.94 1.29035 0.639214 0
M  V30 1863 H 176.893 2.04559 3.6842 0
M  V30 1864 H 175.617 0.933455 3.12976 0
M  V30 1865 H 174.276 2.8827 2.26486 0
M  V30 1866 H 173.924 2.04576 4.59519 0
M  V30 1867 H 173.624 3.79822 4.4834 0
M  V30 1868 H 175.148 3.20116 5.1996 0
M  V30 1869 H 176.562 4.60544 3.41426 0
M  V30 1870 H 174.959 5.23457 2.9345 0
M  V30 1871 H 176.029 4.53996 1.70339 0
M  V30 1872 N 177.372 -0.689602 1.41712 0
M  V30 1873 C 178.618 -1.45181 1.41599 0
M  V30 1874 C 178.951 -1.94181 0.0270081 0
M  V30 1875 O 178.226 -1.6993 -0.946265 0
M  V30 1876 C 178.509 -2.65945 2.42787 0
M  V30 1877 C 178.362 -2.22672 3.90816 0
M  V30 1878 C 179.681 -3.68149 2.41151 0
M  V30 1879 H 176.8 -0.526576 0.515642 0
M  V30 1880 H 179.442 -0.784947 1.73028 0
M  V30 1881 H 177.592 -3.2284 2.16116 0
M  V30 1882 H 179.264 -1.71058 4.28412 0
M  V30 1883 H 177.507 -1.54394 4.05395 0
M  V30 1884 H 178.178 -3.0935 4.57172 0
M  V30 1885 H 180.654 -3.2094 2.64834 0
M  V30 1886 H 179.53 -4.50248 3.13955 0
M  V30 1887 H 179.791 -4.18259 1.43221 0
M  V30 1888 N 178.85 -1.27639 -0.924453 0
M  V30 1889 C 179.813 -1.10681 -2.00705 0
M  V30 1890 C 180.813 -0.0497823 -1.60723 0
M  V30 1891 O 182.003 -0.294654 -1.7169 0
M  V30 1892 C 179.135 -0.687164 -3.33902 0
M  V30 1893 H 180.328 -2.06817 -2.17179 0
M  V30 1894 H 177.881 -1.10473 -1.10569 0
M  V30 1895 H 178.616 0.275439 -3.23128 0
M  V30 1896 H 178.401 -1.45061 -3.6428 0
M  V30 1897 H 179.891 -0.590853 -4.13399 0
M  V30 1898 N 180.328 1.1314 -1.09713 0
M  V30 1899 C 181.577 1.83838 -0.829851 0
M  V30 1900 C 181.89 1.84599 0.646728 0
M  V30 1901 O 183.096 2.51218 1.02965 0
M  V30 1902 C 181.552 3.30069 -1.43466 0
M  V30 1903 C 181.16 3.37688 -2.94399 0
M  V30 1904 C 182.904 4.05788 -1.24645 0
M  V30 1905 C 180.811 4.78209 -3.47952 0
M  V30 1906 H 179.741 0.68877 -0.306777 0
M  V30 1907 H 182.392 1.27448 -1.3202 0
M  V30 1908 H 180.774 3.8628 -0.871996 0
M  V30 1909 H 181.948 2.91456 -3.56918 0
M  V30 1910 H 180.263 2.75436 -3.12289 0
M  V30 1911 H 182.86 5.09535 -1.62107 0
M  V30 1912 H 183.203 4.15878 -0.187357 0
M  V30 1913 H 183.736 3.55915 -1.77678 0
M  V30 1914 H 180.475 4.73311 -4.53495 0
M  V30 1915 H 179.995 5.24924 -2.90198 0
M  V30 1916 H 181.674 5.47133 -3.45332 0
M  V30 1917 N 181.806 0.884767 1.30421 0
M  V30 1918 C 183.036 0.517293 2.00019 0
M  V30 1919 C 183.444 -0.898632 1.66497 0
M  V30 1920 O 182.787 -1.60245 0.898181 0
M  V30 1921 C 182.849 0.612025 3.54252 0
M  V30 1922 C 182.513 1.99222 4.1129 0
M  V30 1923 C 183.51 2.9616 4.273 0
M  V30 1924 C 181.195 2.29755 4.46674 0
M  V30 1925 C 183.189 4.21764 4.77906 0
M  V30 1926 C 180.876 3.55606 4.96979 0
M  V30 1927 C 181.874 4.51425 5.12547 0
M  V30 1928 O 181.562 5.75043 5.61766 0
M  V30 1929 H 181.294 0.198529 0.64619 0
M  V30 1930 H 183.848 1.1919 1.67281 0
M  V30 1931 H 182.078 -0.119561 3.86515 0
M  V30 1932 H 183.767 0.255859 4.05093 0
M  V30 1933 H 184.533 2.73882 4.00267 0
M  V30 1934 H 180.412 1.55942 4.33824 0
M  V30 1935 H 183.956 4.96561 4.89972 0
M  V30 1936 H 179.853 3.7772 5.23448 0
M  V30 1937 H 180.621 5.77422 5.80109 0
M  V30 1938 N 183.284 -1.43765 0.645699 0
M  V30 1939 C 184.532 -2.01499 0.155731 0
M  V30 1940 C 184.853 -1.51151 -1.232 0
M  V30 1941 O 184.123 -0.721044 -1.82148 0
M  V30 1942 H 182.703 -0.745003 0.0545817 0
M  V30 1943 H 185.365 -1.76075 0.835677 0
M  V30 1944 H 184.461 -3.1181 0.134577 0
M  V30 1945 N 184.763 -0.387143 -1.52771 0
M  V30 1946 C 185.988 0.198407 -2.06449 0
M  V30 1947 C 186.413 1.39918 -1.25716 0
M  V30 1948 O 185.771 1.79099 -0.281657 0
M  V30 1949 C 185.819 0.548893 -3.56398 0
M  V30 1950 O 184.923 1.64315 -3.78252 0
M  V30 1951 H 184.264 0.0237731 -0.663574 0
M  V30 1952 H 186.794 -0.553989 -1.96957 0
M  V30 1953 H 186.804 0.813812 -3.99801 0
M  V30 1954 H 185.479 -0.329005 -4.14597 0
M  V30 1955 H 184.056 1.37211 -3.46738 0
M  V30 1956 N 186.241 1.57166 -0.116904 0
M  V30 1957 C 187.471 1.99184 0.548586 0
M  V30 1958 C 187.879 0.995436 1.60897 0
M  V30 1959 O 187.222 -0.0201293 1.83689 0
M  V30 1960 C 187.284 3.37611 1.23526 0
M  V30 1961 C 186.948 4.55857 0.323077 0
M  V30 1962 C 187.945 5.18056 -0.437476 0
M  V30 1963 C 185.63 5.01751 0.234761 0
M  V30 1964 C 187.624 6.24536 -1.2741 0
M  V30 1965 C 185.311 6.08093 -0.605496 0
M  V30 1966 C 186.309 6.69352 -1.35856 0
M  V30 1967 O 185.997 7.7364 -2.18487 0
M  V30 1968 H 185.729 0.659148 0.149999 0
M  V30 1969 H 188.283 2.0443 -0.199428 0
M  V30 1970 H 186.513 3.29113 2.0303 0
M  V30 1971 H 188.202 3.63932 1.79745 0
M  V30 1972 H 188.968 4.83516 -0.379105 0
M  V30 1973 H 184.847 4.53817 0.810601 0
M  V30 1974 H 188.391 6.72281 -1.86237 0
M  V30 1975 H 184.288 6.42063 -0.665268 0
M  V30 1976 H 185.056 7.90727 -2.11406 0
M  V30 1977 N 187.719 -0.156864 1.56817 0
M  V30 1978 C 188.667 -1.21319 1.98455 0
M  V30 1979 C 189.661 -1.45025 0.875444 0
M  V30 1980 O 190.867 -1.45435 1.0606 0
M  V30 1981 H 187.242 -0.408142 0.631605 0
M  V30 1982 H 189.213 -0.835244 2.86472 0
M  V30 1983 C 187.962 -2.54148 2.37285 0
M  V30 1984 H 187.285 -2.36733 3.22176 0
M  V30 1985 H 188.725 -3.26712 2.70251 0
M  V30 1986 C 187.184 -3.13967 1.22173 0
M  V30 1987 O 187.714 -3.98357 0.517149 0
M  V30 1988 N 185.92 -2.7327 0.988536 0
M  V30 1989 H 185.467 -2.04744 1.56326 0
M  V30 1990 H 185.425 -3.13628 0.220209 0
M  V30 1991 N 189.197 -1.51736 -0.425897 0
M  V30 1992 C 190.613 -1.40166 -0.76326 0
M  V30 1993 C 190.813 -0.492962 -1.95377 0
M  V30 1994 O 189.869 0.0475815 -2.52455 0
M  V30 1995 C 191.182 -2.82403 -1.03291 0
M  V30 1996 C 192.73 -2.91632 -1.13665 0
M  V30 1997 C 193.205 -4.34801 -1.43916 0
M  V30 1998 N 194.696 -4.3796 -1.50816 0
M  V30 1999 C 195.431 -5.4578 -1.75817 0
M  V30 2000 N 194.927 -6.63744 -1.98534 0
M  V30 2001 N 196.72 -5.33274 -1.77694 0
M  V30 2002 H 188.871 -2.09361 0.358 0
M  V30 2003 H 191.134 -0.942941 0.0978094 0
M  V30 2004 H 190.84 -3.50943 -0.230696 0
M  V30 2005 H 190.714 -3.22428 -1.95754 0
M  V30 2006 H 193.101 -2.23284 -1.92947 0
M  V30 2007 H 193.182 -2.55088 -0.190756 0
M  V30 2008 H 192.826 -5.03703 -0.65157 0
M  V30 2009 H 192.756 -4.68868 -2.39729 0
M  V30 2010 H 195.247 -3.52919 -1.35118 0
M  V30 2011 H 195.56 -7.41704 -2.17013 0
M  V30 2012 H 193.905 -6.66839 -1.95832 0
M  V30 2013 H 197.096 -4.40098 -1.59473 0
M  V30 2014 H 197.269 -6.1738 -1.9684 0
M  V30 2015 N 190.675 0.682077 -1.42076 0
M  V30 2016 C 191.924 1.43786 -1.41451 0
M  V30 2017 C 192.237 1.95574 -0.0317074 0
M  V30 2018 O 193.443 2.71326 0.0971462 0
M  V30 2019 C 191.899 2.60071 -2.48779 0
M  V30 2020 C 191.507 2.15013 -3.93031 0
M  V30 2021 C 193.251 3.37626 -2.57311 0
M  V30 2022 C 191.158 3.28336 -4.91883 0
M  V30 2023 H 190.088 0.540143 -0.526082 0
M  V30 2024 H 192.739 0.739157 -1.67955 0
M  V30 2025 H 191.121 3.32275 -2.15429 0
M  V30 2026 H 192.295 1.5001 -4.35699 0
M  V30 2027 H 190.61 1.50416 -3.88284 0
M  V30 2028 H 193.207 4.22012 -3.28345 0
M  V30 2029 H 193.55 3.83727 -1.61429 0
M  V30 2030 H 194.083 2.72488 -2.89819 0
M  V30 2031 H 190.822 2.87234 -5.89217 0
M  V30 2032 H 190.342 3.92145 -4.53853 0
M  V30 2033 H 192.021 3.93913 -5.13265 0
M  V30 2034 N 192.153 1.28127 0.917671 0
M  V30 2035 C 193.381 1.17892 1.70026 0
M  V30 2036 C 193.796 -0.262958 1.8696 0
M  V30 2037 O 193.153 -1.17811 1.3938 0
M  V30 2038 C 193.204 1.86872 3.09453 0
M  V30 2039 O 192.925 3.25428 2.93306 0
M  V30 2040 C 194.426 1.8289 4.03815 0
M  V30 2041 H 191.646 0.40942 0.531617 0
M  V30 2042 H 194.19 1.69181 1.14883 0
M  V30 2043 H 192.345 1.39464 3.61426 0
M  V30 2044 H 192.759 3.59918 3.81523 0
M  V30 2045 H 194.233 2.35751 4.99125 0
M  V30 2046 H 194.71 0.800412 4.31845 0
M  V30 2047 H 195.316 2.29959 3.57769 0
M  V30 2048 N 193.631 -1.12557 1.10312 0
M  V30 2049 C 194.594 -2.16434 0.75424 0
M  V30 2050 C 195.594 -1.59278 -0.220685 0
M  V30 2051 O 196.784 -1.742 0.00230591 0
M  V30 2052 C 193.916 -3.40699 0.116987 0
M  V30 2053 H 195.109 -2.48811 1.67431 0
M  V30 2054 H 192.662 -1.27542 0.903475 0
M  V30 2055 H 193.397 -3.13921 -0.813877 0
M  V30 2056 H 193.182 -3.83459 0.818613 0
M  V30 2057 H 194.672 -4.17451 -0.111387 0
M  V30 2058 N 195.109 -0.891671 -1.2995 0
M  V30 2059 C 196.349 -0.520296 -1.97667 0
M  V30 2060 C 196.713 0.914797 -1.68806 0
M  V30 2061 O 197.914 1.39263 -2.29911 0
M  V30 2062 C 196.185 -0.795222 -3.48441 0
M  V30 2063 S 197.744 -0.526953 -4.35624 0
M  V30 2064 H 194.562 -0.19333 -0.684211 0
M  V30 2065 H 197.164 -1.15238 -1.57926 0
M  V30 2066 H 195.868 -1.83805 -3.66938 0
M  V30 2067 H 195.399 -0.15095 -3.9311 0
M  V30 2068 H 197.414 0.631533 -4.92165 0
M  V30 2069 N 196.587 1.43421 -0.653314 0
M  V30 2070 C 197.833 2.02111 -0.166992 0
M  V30 2071 C 198.166 1.51423 1.21592 0
M  V30 2072 O 197.441 0.707389 1.8118 0
M  V30 2073 C 197.724 3.5966 -0.177948 0
M  V30 2074 C 197.577 4.20579 -1.59478 0
M  V30 2075 C 198.896 4.37413 0.4856 0
M  V30 2076 H 196.015 0.734374 -0.0621557 0
M  V30 2077 H 198.657 1.70717 -0.834016 0
M  V30 2078 H 196.807 3.86537 0.390032 0
M  V30 2079 H 198.479 4.04732 -2.21336 0
M  V30 2080 H 196.722 3.77226 -2.14204 0
M  V30 2081 H 197.393 5.29665 -1.5543 0
M  V30 2082 H 199.869 4.161 0.00234528 0
M  V30 2083 H 198.745 5.47075 0.447207 0
M  V30 2084 H 199.006 4.13672 1.55974 0
M  V30 2085 N 198.065 0.39524 1.52563 0
M  V30 2086 C 199.312 -0.185044 2.01653 0
M  V30 2087 C 199.64 -1.46317 1.28146 0
M  V30 2088 O 198.895 -1.9213 0.372074 0
M  V30 2089 C 199.194 -0.493444 3.53977 0
M  V30 2090 C 198.86 0.69384 4.4553 0
M  V30 2091 C 197.522 1.01954 4.70275 0
M  V30 2092 C 199.874 1.48785 4.99512 0
M  V30 2093 C 197.202 2.14069 5.46252 0
M  V30 2094 C 199.554 2.59965 5.76716 0
M  V30 2095 C 198.218 2.93037 5.99738 0
M  V30 2096 H 197.488 -0.0677123 0.7379 0
M  V30 2097 H 200.135 0.533807 1.8391 0
M  V30 2098 H 198.44 -1.29369 3.69825 0
M  V30 2099 H 200.137 -0.955163 3.89458 0
M  V30 2100 H 196.727 0.429987 4.26438 0
M  V30 2101 H 200.911 1.24946 4.80315 0
M  V30 2102 H 196.167 2.40056 5.62302 0
M  V30 2103 H 200.341 3.21887 6.17545 0
M  V30 2104 H 197.968 3.8003 6.58393 0
M  V30 2105 N 199.544 -1.57102 0.125237 0
M  V30 2106 C 200.821 -1.86953 -0.575142 0
M  V30 2107 C 201.201 -1.02749 -1.84407 0
M  V30 2108 O 200.549 -0.108144 -2.28244 0
M  V30 2109 C 200.759 -3.38198 -0.861583 0
M  V30 2110 C 202.107 -4.06937 -1.21192 0
M  V30 2111 O 203.131 -3.43252 -0.951645 0
M  V30 2112 O 201.99 -5.19364 -1.70068 0
M  V30 2113 H 199.084 -0.774147 -0.290906 0
M  V30 2114 H 201.63 -1.68942 0.160211 0
M  V30 2115 H 200.402 -3.91282 0.0373647 0
M  V30 2116 H 200.025 -3.61661 -1.65188 0
M  V30 2117 N 201.022 0.148545 -1.56898 0
M  V30 2118 C 202.262 0.86765 -1.85071 0
M  V30 2119 C 202.626 1.78417 -0.709317 0
M  V30 2120 O 203.827 2.54261 -0.872049 0
M  V30 2121 C 202.098 1.62306 -3.1842 0
M  V30 2122 S 203.657 2.3878 -3.68143 0
M  V30 2123 H 200.475 0.290174 -0.649092 0
M  V30 2124 H 203.077 0.127755 -1.95082 0
M  V30 2125 H 201.781 0.941192 -3.99462 0
M  V30 2126 H 201.312 2.4039 -3.1141 0
M  V30 2127 H 203.327 3.63942 -3.37285 0
M  V30 2128 N 202.5 1.5196 0.417844 0
M  V30 2129 C 203.747 1.65591 1.16559 0
M  V30 2130 C 204.075 0.381565 1.90721 0
M  V30 2131 O 203.33 -0.635156 1.85106 0
M  V30 2132 C 203.629 2.82269 2.19223 0
M  V30 2133 C 203.295 4.20819 1.61933 0
M  V30 2134 C 201.957 4.58506 1.46033 0
M  V30 2135 C 204.309 5.07196 1.20008 0
M  V30 2136 C 201.637 5.80257 0.867113 0
M  V30 2137 C 203.989 6.29544 0.621086 0
M  V30 2138 C 202.653 6.65987 0.449144 0
M  V30 2139 H 201.923 0.605939 0.42652 0
M  V30 2140 H 204.57 1.86041 0.45397 0
M  V30 2141 H 202.875 2.56118 2.96498 0
M  V30 2142 H 204.572 2.90012 2.76936 0
M  V30 2143 H 201.162 3.91116 1.7529 0
M  V30 2144 H 205.346 4.7867 1.31105 0
M  V30 2145 H 200.602 6.07124 0.721833 0
M  V30 2146 H 204.776 6.95805 0.287798 0
M  V30 2147 H 202.403 7.60199 -0.012632 0
M  V30 2148 N 203.978 -0.674533 1.42435 0
M  V30 2149 C 205.255 -1.4305 1.33402 0
M  V30 2150 C 205.635 -2.11081 -0.0284674 0
M  V30 2151 O 204.983 -2.03257 -1.04397 0
M  V30 2152 C 205.193 -2.43272 2.50239 0
M  V30 2153 C 206.541 -3.07907 2.92367 0
M  V30 2154 O 207.565 -2.53599 2.50132 0
M  V30 2155 O 206.424 -4.0632 3.65467 0
M  V30 2156 H 203.518 -0.638076 0.526106 0
M  V30 2157 H 206.064 -0.703235 1.54443 0
M  V30 2158 H 204.836 -1.91803 3.41068 0
M  V30 2159 H 204.459 -3.23479 2.31186 0
M  V30 2160 N 205.456 -1.28612 -0.910864 0
M  V30 2161 C 206.366 -1.14643 -2.0468 0
M  V30 2162 C 207.382 -0.0723121 -1.7385 0
M  V30 2163 O 208.558 -0.282178 -1.99413 0
M  V30 2164 C 205.623 -0.812561 -3.37044 0
M  V30 2165 C 204.684 -1.96935 -3.81465 0
M  V30 2166 C 203.917 -1.65131 -5.07511 0
M  V30 2167 O 204.14 -0.567013 -5.67575 0
M  V30 2168 O 203.074 -2.49585 -5.47714 0
M  V30 2169 H 206.9 -2.1001 -2.19384 0
M  V30 2170 H 204.485 -1.07958 -1.03274 0
M  V30 2171 H 206.367 -0.640441 -4.16505 0
M  V30 2172 H 205.042 0.111426 -3.23508 0
M  V30 2173 H 203.949 -2.19664 -3.02818 0
M  V30 2174 H 205.282 -2.87414 -3.99567 0
M  V30 2175 N 206.934 1.1197 -1.10907 0
M  V30 2176 C 207.897 2.16031 -0.765707 0
M  V30 2177 C 208.897 1.59393 0.212235 0
M  V30 2178 O 210.087 1.74196 -0.0115441 0
M  V30 2179 C 207.219 3.40632 -0.135053 0
M  V30 2180 H 208.412 2.47919 -1.68748 0
M  V30 2181 H 205.965 1.27061 -0.910226 0
M  V30 2182 H 206.7 3.14348 0.797218 0
M  V30 2183 H 206.485 3.8302 -0.838937 0
M  V30 2184 H 207.975 4.17505 0.0892469 0
M  V30 2185 N 208.412 0.89855 1.29475 0
M  V30 2186 C 209.36 0.365253 2.29714 0
M  V30 2187 C 210.354 -0.534993 1.6073 0
M  V30 2188 O 211.56 -0.417921 1.75081 0
M  V30 2189 H 207.935 0.0994853 0.74539 0
M  V30 2190 H 209.906 1.22406 2.72138 0
M  V30 2191 C 208.655 -0.393159 3.4547 0
M  V30 2192 H 207.978 0.290332 3.98744 0
M  V30 2193 H 209.418 -0.731189 4.17648 0
M  V30 2194 C 207.877 -1.59539 2.9673 0
M  V30 2195 O 208.407 -2.69469 2.97908 0
M  V30 2196 N 206.613 -1.43716 2.52575 0
M  V30 2197 H 206.16 -0.542828 2.51816 0
M  V30 2198 H 206.118 -2.24288 2.20323 0
M  V30 2199 N 209.89 -1.43072 0.660911 0
M  V30 2200 C 211.115 -2.06584 0.183805 0
M  V30 2201 C 211.54 -1.49257 -1.14472 0
M  V30 2202 O 210.898 -0.605528 -1.70889 0
M  V30 2203 C 210.946 -3.60418 0.114434 0
M  V30 2204 O 210.05 -4.01981 -0.921137 0
M  V30 2205 H 209.391 -0.656669 0.0983994 0
M  V30 2206 H 211.921 -1.83447 0.906006 0
M  V30 2207 H 211.931 -4.07946 -0.0663394 0
M  V30 2208 H 210.606 -4.01519 1.08422 0
M  V30 2209 H 209.183 -3.66029 -0.71253 0
M  V30 2210 N 211.368 -0.403325 -1.52352 0
M  V30 2211 C 212.331 0.413051 -2.25447 0
M  V30 2212 C 213.331 0.978513 -1.276 0
M  V30 2213 O 214.521 0.858305 -1.51587 0
M  V30 2214 C 211.653 1.58087 -3.02029 0
M  V30 2215 H 212.846 -0.227094 -2.99039 0
M  V30 2216 H 210.399 -0.155722 -1.55522 0
M  V30 2217 H 211.134 2.25804 -2.32772 0
M  V30 2218 H 210.919 1.18195 -3.73861 0
M  V30 2219 H 212.409 2.1585 -3.57489 0
M  V30 2220 N 212.846 1.57033 -0.133567 0
M  V30 2221 C 214.076 1.99754 0.527429 0
M  V30 2222 C 214.484 1.01245 1.59832 0
M  V30 2223 O 213.827 -0.000645496 1.837 0
M  V30 2224 C 213.889 3.38903 1.19939 0
M  V30 2225 C 213.553 4.56174 0.274709 0
M  V30 2226 C 214.55 5.17563 -0.492398 0
M  V30 2227 C 212.235 5.01972 0.18153 0
M  V30 2228 C 214.229 6.2315 -1.34027 0
M  V30 2229 C 211.916 6.07416 -0.669958 0
M  V30 2230 C 212.914 6.67874 -1.42947 0
M  V30 2231 O 212.602 7.71279 -2.2668 0
M  V30 2232 H 212.334 0.660702 0.142999 0
M  V30 2233 H 214.888 2.04207 -0.221099 0
M  V30 2234 H 213.118 3.31248 1.99528 0
M  V30 2235 H 214.807 3.65818 1.75875 0
M  V30 2236 H 215.573 4.83087 -0.430367 0
M  V30 2237 H 211.452 4.54652 0.762422 0
M  V30 2238 H 214.996 6.70268 -1.93357 0
M  V30 2239 H 210.893 6.41321 -0.73333 0
M  V30 2240 H 211.661 7.88441 -2.1978 0
M  V30 2241 N 214.325 -0.140222 1.56975 0
M  V30 2242 C 215.574 -0.850152 1.82908 0
M  V30 2243 C 215.887 -1.82028 0.715892 0
M  V30 2244 O 217.093 -2.57485 0.861016 0
M  V30 2245 C 215.549 -1.5625 3.24213 0
M  V30 2246 C 215.157 -0.63443 4.43485 0
M  V30 2247 C 216.901 -2.25881 3.59413 0
M  V30 2248 C 214.808 -1.34879 5.75814 0
M  V30 2249 H 213.738 -0.321221 0.682153 0
M  V30 2250 H 216.389 -0.102874 1.83211 0
M  V30 2251 H 214.771 -2.35565 3.18316 0
M  V30 2252 H 215.945 0.12398 4.60633 0
M  V30 2253 H 214.26 -0.0461836 4.16374 0
M  V30 2254 H 216.857 -2.79978 4.5554 0
M  V30 2255 H 217.2 -3.02693 2.85802 0
M  V30 2256 H 217.733 -1.53477 3.67001 0
M  V30 2257 H 214.472 -0.622385 6.52539 0
M  V30 2258 H 213.992 -2.07974 5.6259 0
M  V30 2259 H 215.671 -1.88784 6.18845 0
M  V30 2260 N 215.803 -1.52179 -0.40978 0
M  V30 2261 C 217.031 -1.70054 -1.17853 0
M  V30 2262 C 217.446 -0.409735 -1.843 0
M  V30 2263 O 216.803 0.614183 -1.71855 0
M  V30 2264 C 216.854 -2.83568 -2.24213 0
M  V30 2265 O 216.575 -4.0765 -1.60478 0
M  V30 2266 C 218.076 -3.12947 -3.13973 0
M  V30 2267 H 215.296 -0.569917 -0.354169 0
M  V30 2268 H 217.84 -1.98734 -0.482198 0
M  V30 2269 H 215.995 -2.57409 -2.89516 0
M  V30 2270 H 216.409 -4.70899 -2.30986 0
M  V30 2271 H 217.883 -3.95889 -3.84677 0
M  V30 2272 H 218.36 -2.26472 -3.76307 0
M  V30 2273 H 218.966 -3.40868 -2.5434 0
M  V30 2274 N 217.281 0.66697 -1.42791 0
M  V30 2275 C 218.509 1.45505 -1.47091 0
M  V30 2276 C 218.924 1.8861 -0.0845873 0
M  V30 2277 O 218.281 1.58632 0.90234 0
M  V30 2278 C 218.332 2.69906 -2.40485 0
M  V30 2279 O 218.053 2.28608 -3.73725 0
M  V30 2280 C 219.554 3.63396 -2.53886 0
M  V30 2281 H 216.774 0.447459 -0.500022 0
M  V30 2282 H 219.318 0.818866 -1.8739 0
M  V30 2283 H 217.473 3.29696 -2.03419 0
M  V30 2284 H 217.887 3.08997 -4.23817 0
M  V30 2285 H 219.361 4.47387 -3.2334 0
M  V30 2286 H 219.838 4.09824 -1.57927 0
M  V30 2287 H 220.444 3.09495 -2.91706 0
M  V30 2288 N 218.759 1.29093 0.90403 0
M  V30 2289 C 219.984 1.19809 1.69294 0
M  V30 2290 C 220.409 -0.238481 1.86582 0
M  V30 2291 O 219.767 -1.1723 1.383 0
M  V30 2292 C 219.815 1.91202 3.05736 0
M  V30 2293 O 218.919 1.22611 3.93752 0
M  V30 2294 H 218.26 0.415385 0.518027 0
M  V30 2295 H 220.79 1.70586 1.12967 0
M  V30 2296 H 220.8 1.99487 3.55906 0
M  V30 2297 H 219.475 2.95692 2.92471 0
M  V30 2298 H 218.052 1.22554 3.52186 0
M  V30 2299 N 220.237 -1.11381 1.11499 0
M  V30 2300 C 221.167 -2.19509 0.796125 0
M  V30 2301 C 222.148 -1.68458 -0.235796 0
M  V30 2302 O 223.333 -1.93947 -0.0991344 0
M  V30 2303 C 220.463 -3.46475 0.239205 0
M  V30 2304 C 219.417 -4.10744 1.20307 0
M  V30 2305 C 218.743 -5.32293 0.50683 0
M  V30 2306 C 220.043 -4.55597 2.55399 0
M  V30 2307 H 221.737 -2.46439 1.70024 0
M  V30 2308 H 219.283 -1.18446 0.818935 0
M  V30 2309 H 221.236 -4.214 0.00392006 0
M  V30 2310 H 219.96 -3.19006 -0.700206 0
M  V30 2311 H 218.619 -3.37813 1.42399 0
M  V30 2312 H 218.267 -5.01095 -0.437408 0
M  V30 2313 H 217.967 -5.76243 1.1497 0
M  V30 2314 H 219.491 -6.09956 0.280351 0
M  V30 2315 H 220.905 -5.21841 2.37391 0
M  V30 2316 H 219.302 -5.10363 3.15673 0
M  V30 2317 H 220.372 -3.69013 3.14575 0
M  V30 2318 N 221.715 -0.905404 -1.28997 0
M  V30 2319 C 222.943 -0.549846 -1.9946 0
M  V30 2320 C 223.358 0.866834 -1.67724 0
M  V30 2321 O 222.715 1.57298 -0.925404 0
M  V30 2322 C 222.766 -0.739387 -3.53858 0
M  V30 2323 O 222.487 -2.10031 -3.84472 0
M  V30 2324 C 223.988 -0.389541 -4.41585 0
M  V30 2325 H 221.208 -0.210429 -0.637151 0
M  V30 2326 H 223.752 -1.21632 -1.64396 0
M  V30 2327 H 221.907 -0.120023 -3.87214 0
M  V30 2328 H 222.321 -2.13385 -4.79132 0
M  V30 2329 H 223.795 -0.572972 -5.49018 0
M  V30 2330 H 224.272 0.673756 -4.34001 0
M  V30 2331 H 224.878 -0.986089 -4.1371 0
M  V30 2332 N 223.193 1.4272 -0.668489 0
M  V30 2333 C 224.103 2.34596 0.0139753 0
M  V30 2334 C 225.119 1.5474 0.795703 0
M  V30 2335 O 226.295 1.87334 0.739466 0
M  V30 2336 C 223.36 3.33202 0.957982 0
M  V30 2337 C 222.421 4.28957 0.17149 0
M  V30 2338 C 221.654 5.22853 1.07053 0
M  V30 2339 O 221.877 5.21531 2.31001 0
M  V30 2340 O 220.811 5.9952 0.534727 0
M  V30 2341 H 224.637 2.9448 -0.742661 0
M  V30 2342 H 222.222 1.43117 -0.428705 0
M  V30 2343 H 224.104 3.93796 1.50008 0
M  V30 2344 H 222.779 2.758 1.69458 0
M  V30 2345 H 221.686 3.71796 -0.414558 0
M  V30 2346 H 223.019 4.89383 -0.52586 0
M  V30 2347 N 224.671 0.411399 1.52136 0
M  V30 2348 C 225.948 -0.222308 1.94333 0
M  V30 2349 C 226.328 -1.6242 1.34844 0
M  V30 2350 O 225.676 -2.22384 0.525145 0
M  V30 2351 C 225.886 -0.226345 3.48265 0
M  V30 2352 C 227.234 -0.444592 4.22266 0
M  V30 2353 O 228.258 -0.305602 3.54887 0
M  V30 2354 O 227.117 -0.718749 5.41753 0
M  V30 2355 H 224.211 -0.143907 0.814383 0
M  V30 2356 H 226.757 0.467506 1.63133 0
M  V30 2357 H 225.529 0.75475 3.83952 0
M  V30 2358 H 225.152 -0.960163 3.85832 0
M  V30 2359 N 226.149 -1.5696 0.141893 0
M  V30 2360 C 227.397 -1.95573 -0.509484 0
M  V30 2361 C 227.718 -1.02746 -1.65736 0
M  V30 2362 O 226.988 -0.0880311 -1.95702 0
M  V30 2363 H 225.568 -0.722115 -0.191205 0
M  V30 2364 H 228.23 -1.93697 0.216196 0
M  V30 2365 H 227.326 -2.99171 -0.889 0
M  V30 2366 N 227.627 0.131896 -1.57047 0
M  V30 2367 C 228.574 1.16236 -1.99393 0
M  V30 2368 C 229.544 1.41863 -0.863943 0
M  V30 2369 O 230.729 1.53946 -1.12718 0
M  V30 2370 C 227.869 2.48708 -2.39245 0
M  V30 2371 C 226.982 2.30127 -3.65603 0
M  V30 2372 C 226.117 3.55738 -3.94492 0
M  V30 2373 C 225.156 3.32259 -5.14073 0
M  V30 2374 N 224.293 4.50039 -5.38896 0
M  V30 2375 H 229.133 0.794251 -2.87221 0
M  V30 2376 H 226.67 0.380707 -1.42088 0
M  V30 2377 H 228.628 3.25969 -2.60384 0
M  V30 2378 H 227.258 2.83437 -1.54478 0
M  V30 2379 H 226.31 1.43845 -3.52154 0
M  V30 2380 H 227.622 2.08746 -4.5302 0
M  V30 2381 H 226.776 4.41423 -4.1621 0
M  V30 2382 H 225.515 3.80138 -3.05526 0
M  V30 2383 H 224.52 2.44963 -4.92212 0
M  V30 2384 H 225.745 3.09242 -6.04604 0
M  V30 2385 H 223.691 4.74584 -4.52886 0
M  V30 2386 H 223.608 4.31716 -6.2061 0
M  V30 2387 H 224.876 5.36895 -5.65123 0
M  V30 2388 N 229.106 1.52395 0.401703 0
M  V30 2389 C 230.352 1.67065 1.14966 0
M  V30 2390 C 230.685 0.403052 1.89971 0
M  V30 2391 O 229.96 -0.598774 1.85054 0
M  V30 2392 C 230.243 2.8975 2.13815 0
M  V30 2393 C 230.096 4.26578 1.42658 0
M  V30 2394 C 231.415 3.07965 3.14397 0
M  V30 2395 H 228.534 0.607968 0.416587 0
M  V30 2396 H 231.176 1.84965 0.434511 0
M  V30 2397 H 229.326 2.74619 2.74803 0
M  V30 2398 H 230.998 4.53451 0.847329 0
M  V30 2399 H 229.241 4.27639 0.72849 0
M  V30 2400 H 229.912 5.08483 2.14823 0
M  V30 2401 H 232.388 3.22043 2.63491 0
M  V30 2402 H 231.264 3.95308 3.80819 0
M  V30 2403 H 231.525 2.21611 3.82545 0
M  V30 2404 N 230.584 -0.659388 1.43143 0
M  V30 2405 C 231.995 -1.24041 1.39537 0
M  V30 2406 C 232.346 -1.95963 0.0963364 0
M  V30 2407 O 231.471 -2.00892 -0.804438 0
M  V30 2408 C 232.066 -2.25601 2.52764 0
M  V30 2409 C 230.625 -2.79195 2.52443 0
M  V30 2410 C 229.772 -1.53743 2.30778 0
M  V30 2411 H 232.723 -0.451792 1.52133 0
M  V30 2412 H 232.744 -3.07651 2.23899 0
M  V30 2413 H 232.256 -1.73226 3.47296 0
M  V30 2414 H 230.357 -3.35649 1.61773 0
M  V30 2415 H 230.47 -3.2716 3.50004 0
M  V30 2416 H 228.834 -1.80869 1.79328 0
M  V30 2417 H 229.617 -1.03312 3.27386 0
M  V30 2418 N 232.062 -1.29571 -0.897171 0
M  V30 2419 C 232.994 -1.10724 -2.00681 0
M  V30 2420 C 234.007 -0.0540026 -1.6271 0
M  V30 2421 O 235.196 -0.298783 -1.75982 0
M  V30 2422 C 232.296 -0.663912 -3.32333 0
M  V30 2423 C 231.469 -1.79622 -3.98816 0
M  V30 2424 C 230.528 -1.34349 -5.0876 0
M  V30 2425 O 229.554 -2.04864 -5.31055 0
M  V30 2426 N 230.756 -0.215764 -5.80099 0
M  V30 2427 H 233.521 -2.06291 -2.17403 0
M  V30 2428 H 231.082 -1.21544 -1.06951 0
M  V30 2429 H 233.074 -0.344295 -4.03233 0
M  V30 2430 H 231.644 0.199375 -3.11964 0
M  V30 2431 H 230.864 -2.28459 -3.21248 0
M  V30 2432 H 232.152 -2.55535 -4.39976 0
M  V30 2433 H 231.55 0.372091 -5.64475 0
M  V30 2434 H 230.107 0.0444707 -6.51785 0
M  V30 2435 N 233.54 1.10788 -1.12088 0
M  V30 2436 C 234.49 2.15158 -0.754401 0
M  V30 2437 C 235.474 1.59026 0.244846 0
M  V30 2438 O 236.666 1.76927 0.0509097 0
M  V30 2439 C 233.795 3.42677 -0.206657 0
M  V30 2440 C 232.881 4.05751 -1.23398 0
M  V30 2441 N 233.272 4.43582 -2.43041 0
M  V30 2442 C 231.57 4.32764 -1.07848 0
M  V30 2443 C 232.271 4.93085 -3.08613 0
M  V30 2444 N 231.247 4.89664 -2.36072 0
M  V30 2445 H 235.049 2.42195 -1.6649 0
M  V30 2446 H 232.563 1.27872 -1.00112 0
M  V30 2447 H 234.56 4.16834 0.0740646 0
M  V30 2448 H 233.22 3.17101 0.698342 0
M  V30 2449 H 234.231 4.35395 -2.80449 0
M  V30 2450 H 230.908 4.16863 -0.230483 0
M  V30 2451 H 232.298 5.31933 -4.10483 0
M  V30 2452 N 235.018 0.912232 1.28515 0
M  V30 2453 C 236.258 0.551677 1.96814 0
M  V30 2454 C 236.622 -0.887825 1.7024 0
M  V30 2455 O 237.823 -1.35588 2.32098 0
M  V30 2456 C 236.094 0.850555 3.47132 0
M  V30 2457 S 237.653 0.59619 4.34731 0
M  V30 2458 H 234.471 0.204191 0.681049 0
M  V30 2459 H 237.073 1.17736 1.56072 0
M  V30 2460 H 235.777 1.8962 3.63968 0
M  V30 2461 H 235.308 0.213471 3.9282 0
M  V30 2462 H 237.323 -0.553154 4.93107 0
M  V30 2463 N 236.496 -1.42363 0.676048 0
M  V30 2464 C 237.912 -1.55811 0.345718 0
M  V30 2465 C 238.112 -1.65544 -1.14879 0
M  V30 2466 O 237.168 -1.62306 -1.93424 0
M  V30 2467 C 238.481 -2.80746 1.07713 0
M  V30 2468 C 240.029 -2.9452 1.05958 0
M  V30 2469 C 240.504 -4.22318 1.77233 0
M  V30 2470 N 241.995 -4.29233 1.74108 0
M  V30 2471 C 242.73 -5.26935 2.26113 0
M  V30 2472 N 242.226 -6.30783 2.86505 0
M  V30 2473 N 244.019 -5.18741 2.1648 0
M  V30 2474 H 236.17 -1.34289 1.6456 0
M  V30 2475 H 238.433 -0.646506 0.69335 0
M  V30 2476 H 238.139 -2.79696 2.13221 0
M  V30 2477 H 238.013 -3.71676 0.64316 0
M  V30 2478 H 240.4 -2.95097 0.0128255 0
M  V30 2479 H 240.481 -2.04817 1.53244 0
M  V30 2480 H 240.125 -4.22502 2.81877 0
M  V30 2481 H 240.055 -5.10958 1.27396 0
M  V30 2482 H 242.546 -3.54814 1.30059 0
M  V30 2483 H 242.859 -7.01691 3.23805 0
M  V30 2484 H 241.204 -6.31341 2.90575 0
M  V30 2485 H 244.395 -4.36533 1.68987 0
M  V30 2486 H 244.568 -5.94721 2.57316 0
M  V30 2487 N 237.974 -0.419461 -1.51915 0
M  V30 2488 C 239.223 0.154346 -2.01109 0
M  V30 2489 C 239.536 1.45338 -1.30905 0
M  V30 2490 O 240.742 2.10906 -1.7097 0
M  V30 2491 C 239.198 0.325615 -3.58424 0
M  V30 2492 C 238.806 -0.961934 -4.37551 0
M  V30 2493 C 240.55 0.854155 -4.15818 0
M  V30 2494 C 238.457 -0.757287 -5.86531 0
M  V30 2495 H 237.387 0.0614563 -0.751491 0
M  V30 2496 H 240.038 -0.54649 -1.75173 0
M  V30 2497 H 238.42 1.08903 -3.80731 0
M  V30 2498 H 239.594 -1.7323 -4.26999 0
M  V30 2499 H 237.909 -1.41766 -3.91524 0
M  V30 2500 H 240.506 1.02346 -5.24814 0
M  V30 2501 H 240.849 1.83172 -3.73837 0
M  V30 2502 H 241.382 0.149528 -3.97519 0
M  V30 2503 H 238.121 -1.70671 -6.32892 0
M  V30 2504 H 237.641 -0.0264061 -5.99794 0
M  V30 2505 H 239.32 -0.403482 -6.45741 0
M  V30 2506 N 239.452 1.56882 -0.150215 0
M  V30 2507 C 240.729 1.87844 0.545327 0
M  V30 2508 C 241.109 1.0567 1.82749 0
M  V30 2509 O 240.457 0.144442 2.28043 0
M  V30 2510 C 240.667 3.39526 0.80767 0
M  V30 2511 C 242.015 4.08814 1.14703 0
M  V30 2512 O 243.039 3.44723 0.896917 0
M  V30 2513 O 241.898 5.22004 1.61784 0
M  V30 2514 H 238.992 0.778677 0.278553 0
M  V30 2515 H 241.538 1.68666 -0.187068 0
M  V30 2516 H 240.31 3.91173 -0.0996096 0
M  V30 2517 H 239.933 3.64243 1.59413 0
M  V30 2518 N 240.93 -0.123565 1.57115 0
M  V30 2519 C 241.88 -1.1575 1.96433 0
M  V30 2520 C 242.864 -1.37313 0.838686 0
M  V30 2521 O 244.056 -1.38482 1.10235 0
M  V30 2522 C 241.185 -2.48526 2.36833 0
M  V30 2523 C 240.271 -2.30457 3.5602 0
M  V30 2524 N 240.662 -1.8219 4.71848 0
M  V30 2525 C 238.96 -2.61129 3.61563 0
M  V30 2526 C 239.661 -1.77721 5.53886 0
M  V30 2527 N 238.637 -2.21899 4.96248 0
M  V30 2528 H 242.439 -0.776797 2.83449 0
M  V30 2529 H 239.953 -0.331364 1.58983 0
M  V30 2530 H 241.95 -3.233 2.63216 0
M  V30 2531 H 240.61 -2.87358 1.5118 0
M  V30 2532 H 241.621 -1.51805 4.95152 0
M  V30 2533 H 238.298 -3.03678 2.86507 0
M  V30 2534 H 239.688 -1.41697 6.56789 0
M  V30 2535 N 242.408 -1.52605 -0.393616 0
M  V30 2536 C 243.648 -1.6911 -1.1481 0
M  V30 2537 C 244.012 -0.41969 -1.87357 0
M  V30 2538 O 245.213 -0.461034 -2.64817 0
M  V30 2539 C 243.484 -2.88909 -2.10395 0
M  V30 2540 S 245.043 -3.25977 -2.93742 0
M  V30 2541 H 241.861 -0.595337 -0.38871 0
M  V30 2542 H 244.463 -1.90641 -0.433178 0
M  V30 2543 H 243.167 -3.79672 -1.55812 0
M  V30 2544 H 242.698 -2.69698 -2.86403 0
M  V30 2545 H 244.713 -2.75806 -4.12487 0
M  V30 2546 N 243.887 0.651787 -1.4349 0
M  V30 2547 C 245.112 1.44434 -1.48841 0
M  V30 2548 C 245.537 1.8779 -0.107955 0
M  V30 2549 O 244.895 1.57464 0.898602 0
M  V30 2550 C 244.943 2.65458 -2.44059 0
M  V30 2551 O 244.047 3.64566 -1.92784 0
M  V30 2552 H 243.388 0.433005 -0.503391 0
M  V30 2553 H 245.918 0.797451 -1.88419 0
M  V30 2554 H 245.928 3.13255 -2.6141 0
M  V30 2555 H 244.603 2.33244 -3.4434 0
M  V30 2556 H 243.18 3.23716 -1.851 0
M  V30 2557 N 245.365 1.30045 0.890287 0
M  V30 2558 C 246.612 1.18561 1.64163 0
M  V30 2559 C 246.94 -0.260852 1.92743 0
M  V30 2560 O 246.195 -1.20376 1.54299 0
M  V30 2561 C 246.494 1.95409 2.99249 0
M  V30 2562 C 246.16 3.45066 2.90242 0
M  V30 2563 C 244.822 3.85878 2.87492 0
M  V30 2564 C 247.174 4.4039 2.78758 0
M  V30 2565 C 244.502 5.20314 2.7109 0
M  V30 2566 C 246.854 5.74928 2.63894 0
M  V30 2567 C 245.518 6.14986 2.59516 0
M  V30 2568 H 244.788 0.433846 0.600715 0
M  V30 2569 H 247.435 1.61088 1.03552 0
M  V30 2570 H 245.74 1.45501 3.63781 0
M  V30 2571 H 247.437 1.8392 3.56334 0
M  V30 2572 H 244.027 3.12631 2.93189 0
M  V30 2573 H 248.211 4.09806 2.79952 0
M  V30 2574 H 243.467 5.50449 2.66112 0
M  V30 2575 H 247.641 6.48434 2.53981 0
M  V30 2576 H 245.268 7.19104 2.46565 0
M  V30 2577 N 246.843 -1.10192 1.12674 0
M  V30 2578 C 248.071 -1.85983 0.906527 0
M  V30 2579 C 248.486 -1.80783 -0.544333 0
M  V30 2580 O 247.843 -1.19834 -1.37645 0
M  V30 2581 C 247.894 -3.34281 1.37618 0
M  V30 2582 O 247.615 -3.39401 2.77017 0
M  V30 2583 C 249.116 -4.26938 1.19325 0
M  V30 2584 H 246.336 -0.587716 0.323775 0
M  V30 2585 H 248.88 -1.39284 1.49734 0
M  V30 2586 H 247.035 -3.78436 0.828539 0
M  V30 2587 H 247.449 -4.31838 2.97684 0
M  V30 2588 H 248.923 -5.29181 1.57071 0
M  V30 2589 H 249.4 -4.38995 0.134097 0
M  V30 2590 H 250.006 -3.8859 1.72852 0
M  V30 2591 N 248.321 -0.919034 -1.28029 0
M  V30 2592 C 249.598 -0.473668 -1.89778 0
M  V30 2593 C 249.978 1.04783 -1.83259 0
M  V30 2594 O 249.326 1.8982 -1.27202 0
M  V30 2595 C 249.536 -1.00998 -3.34066 0
M  V30 2596 C 250.884 -1.06525 -4.1102 0
M  V30 2597 O 251.908 -0.958996 -3.43048 0
M  V30 2598 O 250.767 -1.22776 -5.3253 0
M  V30 2599 H 247.861 -0.15098 -0.813101 0
M  V30 2600 H 250.407 -1.01016 -1.36359 0
M  V30 2601 H 249.179 -2.05392 -3.33061 0
M  V30 2602 H 248.802 -0.454626 -3.94992 0
M  V30 2603 N 249.799 1.42003 -0.683588 0
M  V30 2604 C 250.746 2.30798 -0.0107309 0
M  V30 2605 C 251.716 1.4645 0.783688 0
M  V30 2606 O 252.901 1.75263 0.754156 0
M  V30 2607 C 250.041 3.3238 0.928306 0
M  V30 2608 C 249.154 4.31814 0.126776 0
M  V30 2609 C 248.289 5.20468 1.06236 0
M  V30 2610 C 247.328 6.11577 0.253035 0
M  V30 2611 N 246.465 6.92754 1.14179 0
M  V30 2612 H 251.305 2.8778 -0.773727 0
M  V30 2613 H 248.842 1.41745 -0.393283 0
M  V30 2614 H 250.8 3.89813 1.48666 0
M  V30 2615 H 249.43 2.76976 1.65783 0
M  V30 2616 H 248.482 3.76427 -0.54833 0
M  V30 2617 H 249.794 4.96276 -0.501192 0
M  V30 2618 H 248.948 5.82677 1.69035 0
M  V30 2619 H 247.687 4.56204 1.7242 0
M  V30 2620 H 246.692 5.48428 -0.388108 0
M  V30 2621 H 247.917 6.77892 -0.404839 0
M  V30 2622 H 245.863 6.3111 1.78987 0
M  V30 2623 H 245.78 7.53855 0.569111 0
M  V30 2624 H 247.048 7.59441 1.75697 0
M  V30 2625 N 251.277 0.427512 1.51691 0
M  V30 2626 C 252.526 -0.143679 2.01188 0
M  V30 2627 C 252.839 -1.44642 1.31674 0
M  V30 2628 O 254.045 -2.09997 1.72086 0
M  V30 2629 C 252.501 -0.306602 3.58592 0
M  V30 2630 C 252.109 0.985125 4.37035 0
M  V30 2631 C 253.853 -0.832091 4.16265 0
M  V30 2632 C 251.76 0.788382 5.86122 0
M  V30 2633 H 250.69 -0.0574701 0.751807 0
M  V30 2634 H 253.341 0.555772 1.74881 0
M  V30 2635 H 251.723 -1.06882 3.81303 0
M  V30 2636 H 252.897 1.75492 4.26074 0
M  V30 2637 H 251.212 1.4384 3.90767 0
M  V30 2638 H 253.809 -0.995617 5.25349 0
M  V30 2639 H 254.152 -1.81186 3.74803 0
M  V30 2640 H 254.685 -0.128444 3.97593 0
M  V30 2641 H 251.424 1.74025 6.31978 0
M  V30 2642 H 250.944 0.0582143 5.99772 0
M  V30 2643 H 252.623 0.437722 6.45518 0
M  V30 2644 N 252.755 -1.56801 0.158532 0
M  V30 2645 C 253.983 -2.00859 -0.496303 0
M  V30 2646 C 254.398 -1.03871 -1.57659 0
M  V30 2647 O 253.755 -0.0375165 -1.82461 0
M  V30 2648 C 253.806 -3.4479 -1.08638 0
M  V30 2649 O 253.527 -4.38072 -0.0492322 0
M  V30 2650 C 255.028 -4.04185 -1.8207 0
M  V30 2651 H 252.248 -0.65864 -0.128199 0
M  V30 2652 H 254.792 -2.02885 0.256506 0
M  V30 2653 H 252.947 -3.43579 -1.78975 0
M  V30 2654 H 253.361 -5.2227 -0.483102 0
M  V30 2655 H 254.835 -5.06857 -2.18633 0
M  V30 2656 H 255.312 -3.45549 -2.71095 0
M  V30 2657 H 255.918 -4.0906 -1.16405 0
M  V30 2658 N 254.233 0.115231 -1.57178 0
M  V30 2659 C 255.48 0.822351 -1.8505 0
M  V30 2660 C 255.808 1.79701 -0.744168 0
M  V30 2661 O 255.063 1.93909 0.26414 0
M  V30 2662 C 255.362 1.60324 -3.19423 0
M  V30 2663 C 255.028 0.772536 -4.44233 0
M  V30 2664 C 253.69 0.543468 -4.78121 0
M  V30 2665 C 256.042 0.193746 -5.2084 0
M  V30 2666 C 253.37 -0.274583 -5.86057 0
M  V30 2667 C 255.722 -0.611517 -6.29637 0
M  V30 2668 C 254.386 -0.850867 -6.62055 0
M  V30 2669 H 253.656 0.30092 -0.677147 0
M  V30 2670 H 256.303 0.0845802 -1.91313 0
M  V30 2671 H 254.608 2.41203 -3.08753 0
M  V30 2672 H 256.305 2.1544 -3.38211 0
M  V30 2673 H 252.895 0.96117 -4.17683 0
M  V30 2674 H 257.079 0.357926 -4.95008 0
M  V30 2675 H 252.335 -0.469206 -6.09597 0
M  V30 2676 H 256.509 -1.06697 -6.88178 0
M  V30 2677 H 254.136 -1.48657 -7.45523 0
M  V30 2678 N 255.711 1.52812 0.385517 0
M  V30 2679 C 256.988 1.5861 1.14465 0
M  V30 2680 C 257.368 0.381402 2.07626 0
M  V30 2681 O 256.716 -0.629999 2.19643 0
M  V30 2682 C 256.926 2.92664 1.90128 0
M  V30 2683 C 258.274 3.46526 2.45367 0
M  V30 2684 O 259.298 2.94562 2.0028 0
M  V30 2685 O 258.157 4.37323 3.27736 0
M  V30 2686 H 255.251 0.639855 0.523941 0
M  V30 2687 H 257.797 1.65149 0.390389 0
M  V30 2688 H 256.569 3.71788 1.22022 0
M  V30 2689 H 256.192 2.89527 2.72507 0
M  V30 2690 N 257.189 -0.644168 1.43834 0
M  V30 2691 C 258.121 -1.76955 1.45669 0
M  V30 2692 C 259.134 -1.58956 0.351666 0
M  V30 2693 O 260.323 -1.6751 0.616644 0
M  V30 2694 C 257.423 -3.14507 1.26248 0
M  V30 2695 C 256.596 -3.59083 2.49757 0
M  V30 2696 C 255.655 -4.75467 2.25427 0
M  V30 2697 O 254.681 -4.84444 2.98836 0
M  V30 2698 N 255.883 -5.66289 1.27661 0
M  V30 2699 H 258.648 -1.75856 2.42682 0
M  V30 2700 H 256.209 -0.828312 1.39106 0
M  V30 2701 H 258.201 -3.90067 1.0784 0
M  V30 2702 H 256.771 -3.10325 0.376478 0
M  V30 2703 H 255.991 -2.7387 2.8353 0
M  V30 2704 H 257.279 -3.85613 3.31934 0
M  V30 2705 H 256.677 -5.61718 0.670064 0
M  V30 2706 H 255.234 -6.41533 1.15234 0
M  V30 2707 N 258.668 -1.30515 -0.883378 0
M  V30 2708 C 259.914 -1.19607 -1.63774 0
M  V30 2709 C 260.247 0.248314 -1.92606 0
M  V30 2710 O 259.522 1.17742 -1.54813 0
M  V30 2711 C 259.805 -2.02669 -2.97653 0
M  V30 2712 C 259.658 -3.55335 -2.75784 0
M  V30 2713 C 260.977 -1.86573 -3.98596 0
M  V30 2714 H 258.096 -0.435856 -0.594305 0
M  V30 2715 H 260.738 -1.60165 -1.02212 0
M  V30 2716 H 258.888 -1.68208 -3.50197 0
M  V30 2717 H 260.56 -3.99863 -2.30016 0
M  V30 2718 H 258.803 -3.79438 -2.1026 0
M  V30 2719 H 259.474 -4.08745 -3.70988 0
M  V30 2720 H 261.95 -2.16703 -3.55217 0
M  V30 2721 H 260.826 -2.47014 -4.90179 0
M  V30 2722 H 261.087 -0.825321 -4.34328 0
M  V30 2723 N 260.146 1.09593 -1.13257 0
M  V30 2724 C 261.395 1.81105 -0.887917 0
M  V30 2725 C 261.708 1.86563 0.587672 0
M  V30 2726 O 262.914 2.54367 0.949204 0
M  V30 2727 C 261.37 3.25338 -1.53895 0
M  V30 2728 C 260.978 3.28151 -3.04994 0
M  V30 2729 C 262.722 4.01617 -1.37492 0
M  V30 2730 C 260.629 4.66897 -3.6299 0
M  V30 2731 H 259.559 0.678661 -0.328534 0
M  V30 2732 H 262.21 1.23183 -1.36008 0
M  V30 2733 H 260.592 3.8331 -0.994446 0
M  V30 2734 H 261.766 2.79953 -3.66009 0
M  V30 2735 H 260.081 2.65361 -3.20893 0
M  V30 2736 H 262.678 5.04119 -1.78235 0
M  V30 2737 H 263.021 4.15072 -0.31957 0
M  V30 2738 H 263.554 3.50082 -1.88912 0
M  V30 2739 H 260.293 4.58643 -4.68323 0
M  V30 2740 H 259.813 5.15426 -3.06752 0
M  V30 2741 H 261.492 5.3587 -3.62563 0
M  V30 2742 N 261.624 0.925811 1.2754 0
M  V30 2743 C 262.572 0.413897 2.28888 0
M  V30 2744 C 263.566 -0.500779 1.61829 0
M  V30 2745 O 264.772 -0.38069 1.75928 0
M  V30 2746 H 261.147 0.115274 0.743112 0
M  V30 2747 H 263.118 1.28151 2.69481 0
M  V30 2748 C 261.867 -0.319792 3.46226 0
M  V30 2749 H 261.19 0.374846 3.98039 0
M  V30 2750 H 262.63 -0.642435 4.19105 0
M  V30 2751 C 261.089 -1.53209 3.00048 0
M  V30 2752 O 261.619 -2.6309 3.03557 0
M  V30 2753 N 259.825 -1.38326 2.55566 0
M  V30 2754 H 259.372 -0.489292 2.5291 0
M  V30 2755 H 259.33 -2.19564 2.25031 0
M  V30 2756 N 263.102 -1.41638 0.69111 0
M  V30 2757 C 264.032 -2.3347 0.037248 0
M  V30 2758 C 265.013 -1.51575 -0.771947 0
M  V30 2759 O 266.198 -1.80126 -0.72582 0
M  V30 2760 C 263.328 -3.35354 -0.903064 0
M  V30 2761 C 262.282 -4.27526 -0.201288 0
M  V30 2762 C 261.608 -5.19747 -1.25565 0
M  V30 2763 C 262.908 -5.13959 0.929689 0
M  V30 2764 H 264.602 -2.88397 0.804227 0
M  V30 2765 H 262.148 -1.38669 0.388189 0
M  V30 2766 H 264.101 -3.98519 -1.36969 0
M  V30 2767 H 262.825 -2.78767 -1.70166 0
M  V30 2768 H 261.484 -3.65779 0.245265 0
M  V30 2769 H 261.132 -4.59479 -2.04666 0
M  V30 2770 H 260.832 -5.8225 -0.791128 0
M  V30 2771 H 262.356 -5.85789 -1.72288 0
M  V30 2772 H 263.77 -5.70718 0.543546 0
M  V30 2773 H 262.167 -5.85379 1.32103 0
M  V30 2774 H 263.237 -4.51389 1.77133 0
M  V30 2775 N 264.58 -0.43555 -1.51462 0
M  V30 2776 C 265.528 0.391205 -2.29287 0
M  V30 2777 C 266.522 1.02247 -1.35062 0
M  V30 2778 O 267.728 0.957646 -1.52411 0
M  V30 2779 H 264.103 0.144968 -0.737895 0
M  V30 2780 H 266.074 -0.286051 -2.97026 0
M  V30 2781 C 264.823 1.48096 -3.14583 0
M  V30 2782 H 264.146 1.00457 -3.86973 0
M  V30 2783 H 265.586 2.03273 -3.72097 0
M  V30 2784 C 264.045 2.46321 -2.29843 0
M  V30 2785 O 264.575 3.50815 -1.95682 0
M  V30 2786 N 262.781 2.17166 -1.931 0
M  V30 2787 H 262.328 1.32218 -2.21079 0
M  V30 2788 H 262.286 2.83127 -1.36698 0
M  V30 2789 N 266.058 1.56714 -0.166846 0
M  V30 2790 C 267.006 2.19056 0.782123 0
M  V30 2791 C 268 1.15328 1.24079 0
M  V30 2792 O 269.206 1.33537 1.20697 0
M  V30 2793 H 265.581 0.70167 0.270486 0
M  V30 2794 H 267.552 2.97494 0.232322 0
M  V30 2795 C 266.301 2.84206 2.00306 0
M  V30 2796 H 265.624 3.63748 1.65914 0
M  V30 2797 H 267.064 3.31302 2.64604 0
M  V30 2798 C 265.523 1.83744 2.82382 0
M  V30 2799 O 266.053 1.32014 3.79388 0
M  V30 2800 N 264.259 1.52601 2.47308 0
M  V30 2801 H 263.806 1.9486 1.68485 0
M  V30 2802 H 263.764 0.856351 3.02513 0
M  V30 2803 N 267.536 -0.106894 1.57237 0
M  V30 2804 C 268.764 -0.826389 1.8968 0
M  V30 2805 C 269.179 -1.72856 0.759353 0
M  V30 2806 O 268.536 -1.80503 -0.269263 0
M  V30 2807 C 268.587 -1.64967 3.21665 0
M  V30 2808 O 268.308 -0.783804 4.31031 0
M  V30 2809 C 269.809 -2.47326 3.67892 0
M  V30 2810 H 267.029 -0.236927 0.627779 0
M  V30 2811 H 269.573 -0.0876593 2.04312 0
M  V30 2812 H 267.728 -2.34103 3.08666 0
M  V30 2813 H 268.142 -1.35284 5.06753 0
M  V30 2814 H 269.616 -3.00604 4.6297 0
M  V30 2815 H 270.093 -3.25247 2.95146 0
M  V30 2816 H 270.699 -1.83411 3.83719 0
M  V30 2817 N 269.014 -1.53014 -0.377408 0
M  V30 2818 C 269.977 -1.77957 -1.44444 0
M  V30 2819 C 270.977 -0.649763 -1.47087 0
M  V30 2820 O 272.167 -0.917897 -1.48055 0
M  V30 2821 C 269.299 -1.89089 -2.83651 0
M  V30 2822 H 270.492 -2.73243 -1.23606 0
M  V30 2823 H 268.045 -1.43912 -0.609844 0
M  V30 2824 H 268.78 -0.958293 -3.09818 0
M  V30 2825 H 268.565 -2.71254 -2.83132 0
M  V30 2826 H 270.055 -2.1002 -3.60945 0
M  V30 2827 N 270.492 0.636531 -1.44174 0
M  V30 2828 C 271.908 0.954104 -1.27941 0
M  V30 2829 C 272.108 2.0039 -0.211248 0
M  V30 2830 O 271.164 2.49236 0.404695 0
M  V30 2831 C 272.477 1.4225 -2.64925 0
M  V30 2832 C 274.025 1.53827 -2.72592 0
M  V30 2833 C 274.5 2.04053 -4.10032 0
M  V30 2834 N 275.991 2.11331 -4.12182 0
M  V30 2835 C 276.726 2.51352 -5.15374 0
M  V30 2836 N 276.222 2.90549 -6.2893 0
M  V30 2837 N 278.015 2.51438 -5.02728 0
M  V30 2838 H 270.166 -0.0578386 -2.12321 0
M  V30 2839 H 272.429 0.0367406 -0.947288 0
M  V30 2840 H 272.135 0.725466 -3.44136 0
M  V30 2841 H 272.009 2.39451 -2.9145 0
M  V30 2842 H 274.396 2.22628 -1.93702 0
M  V30 2843 H 274.477 0.550154 -2.49814 0
M  V30 2844 H 274.121 1.35848 -4.89395 0
M  V30 2845 H 274.051 3.03726 -4.30184 0
M  V30 2846 H 276.542 1.83745 -3.30222 0
M  V30 2847 H 276.855 3.19884 -7.03487 0
M  V30 2848 H 275.2 2.88313 -6.32377 0
M  V30 2849 H 278.391 2.20203 -4.13072 0
M  V30 2850 H 278.564 2.82304 -5.83274 0
M  V30 2851 N 271.97 1.30982 0.876444 0
M  V30 2852 C 272.933 1.18054 1.96459 0
M  V30 2853 C 273.933 0.109399 1.60427 0
M  V30 2854 O 275.123 0.358173 1.70478 0
M  V30 2855 C 272.255 0.810616 3.31122 0
M  V30 2856 H 273.448 2.14735 2.09354 0
M  V30 2857 H 271.001 1.145 1.06392 0
M  V30 2858 H 271.736 -0.155322 3.23928 0
M  V30 2859 H 271.521 1.58481 3.58645 0
M  V30 2860 H 273.011 0.743876 4.10921 0
M  V30 2861 N 273.449 -1.08991 1.13837 0
M  V30 2862 C 274.698 -1.80631 0.897509 0
M  V30 2863 C 275.011 -1.86872 -0.57777 0
M  V30 2864 O 276.217 -2.54866 -0.935701 0
M  V30 2865 C 274.673 -3.24517 1.55618 0
M  V30 2866 C 274.281 -3.26529 3.0673 0
M  V30 2867 C 276.025 -4.00882 1.3962 0
M  V30 2868 C 273.932 -4.64965 3.65461 0
M  V30 2869 H 272.862 -0.67691 0.332129 0
M  V30 2870 H 275.513 -1.2246 1.3666 0
M  V30 2871 H 273.895 -3.82778 1.01476 0
M  V30 2872 H 275.069 -2.78008 3.67489 0
M  V30 2873 H 273.384 -2.63656 3.22296 0
M  V30 2874 H 275.981 -5.03167 1.80906 0
M  V30 2875 H 276.324 -4.14896 0.341578 0
M  V30 2876 H 276.857 -3.49075 1.90766 0
M  V30 2877 H 273.596 -4.56153 4.70749 0
M  V30 2878 H 273.116 -5.13792 3.09481 0
M  V30 2879 H 274.795 -5.3394 3.654 0
M  V30 2880 N 274.927 -0.932562 -1.27047 0
M  V30 2881 C 275.874 -0.434072 -2.26681 0
M  V30 2882 C 276.844 0.501639 -1.58344 0
M  V30 2883 O 278.029 0.419734 -1.86126 0
M  V30 2884 C 275.169 0.30261 -3.43771 0
M  V30 2885 C 274.282 -0.667774 -4.26808 0
M  V30 2886 C 273.417 0.0892393 -5.31125 0
M  V30 2887 C 272.456 -0.873532 -6.05835 0
M  V30 2888 N 271.593 -0.148832 -7.01942 0
M  V30 2889 H 276.433 -1.28868 -2.68695 0
M  V30 2890 H 273.97 -0.646713 -1.32121 0
M  V30 2891 H 275.928 0.746092 -4.10474 0
M  V30 2892 H 274.558 1.12142 -3.02695 0
M  V30 2893 H 273.61 -1.22978 -3.59973 0
M  V30 2894 H 274.922 -1.40337 -4.78651 0
M  V30 2895 H 274.076 0.592409 -6.03801 0
M  V30 2896 H 272.815 0.85777 -4.80097 0
M  V30 2897 H 271.82 -1.38791 -5.31994 0
M  V30 2898 H 273.045 -1.64193 -6.58952 0
M  V30 2899 H 270.991 0.601365 -6.53238 0
M  V30 2900 H 270.908 -0.82391 -7.51497 0
M  V30 2901 H 272.176 0.333527 -7.78786 0
M  V30 2902 N 276.405 1.4127 -0.698611 0
M  V30 2903 C 277.682 1.94955 -0.158762 0
M  V30 2904 C 278.062 1.63781 1.33188 0
M  V30 2905 O 277.41 0.946423 2.07979 0
M  V30 2906 C 277.62 3.46044 -0.453309 0
M  V30 2907 C 278.968 4.22872 -0.382707 0
M  V30 2908 O 279.992 3.54076 -0.388396 0
M  V30 2909 O 278.851 5.45407 -0.345463 0
M  V30 2910 H 275.945 0.82683 -0.0167505 0
M  V30 2911 H 278.491 1.50971 -0.77498 0
M  V30 2912 H 277.263 3.62028 -1.48498 0
M  V30 2913 H 276.886 3.97128 0.19373 0
M  V30 2914 N 277.883 0.443576 1.51229 0
M  V30 2915 C 279.131 -0.120557 2.0174 0
M  V30 2916 C 279.452 -1.42665 1.32935 0
M  V30 2917 O 278.722 -1.9028 0.465866 0
M  V30 2918 H 277.302 -0.0475426 0.745486 0
M  V30 2919 H 279.964 0.587711 1.85828 0
M  V30 2920 H 279.06 -0.291972 3.10731 0
M  V30 2921 N 279.361 -1.56624 0.175154 0
M  V30 2922 C 280.586 -2.01813 -0.478137 0
M  V30 2923 C 281.011 -1.05457 -1.55757 0
M  V30 2924 O 280.369 -0.0347439 -1.81267 0
M  V30 2925 C 280.417 -3.45581 -1.02987 0
M  V30 2926 O 279.521 -3.52305 -2.14371 0
M  V30 2927 H 278.862 -0.65413 -0.114059 0
M  V30 2928 H 281.392 -2.02673 0.280173 0
M  V30 2929 H 281.402 -3.84965 -1.35151 0
M  V30 2930 H 280.077 -4.1521 -0.239556 0
M  V30 2931 H 278.654 -3.24783 -1.83222 0
M  V30 2932 N 280.839 0.0985539 -1.57292 0
M  V30 2933 C 282.085 0.803867 -1.86188 0
M  V30 2934 C 282.418 1.78549 -0.763794 0
M  V30 2935 O 281.693 1.93153 0.22855 0
M  V30 2936 C 281.976 1.53568 -3.25713 0
M  V30 2937 C 281.829 0.572277 -4.46145 0
M  V30 2938 C 283.148 2.48708 -3.63087 0
M  V30 2939 H 280.267 0.290781 -0.677211 0
M  V30 2940 H 282.909 0.0675783 -1.8988 0
M  V30 2941 H 281.059 2.16332 -3.22696 0
M  V30 2942 H 282.731 -0.0480894 -4.61275 0
M  V30 2943 H 280.974 -0.114618 -4.33649 0
M  V30 2944 H 281.645 1.12139 -5.40489 0
M  V30 2945 H 284.121 1.96039 -3.67026 0
M  V30 2946 H 282.997 2.96932 -4.61652 0
M  V30 2947 H 283.258 3.32309 -2.91588 0
M  V30 2948 N 282.317 1.53212 0.369288 0
M  V30 2949 C 283.565 1.68881 1.11012 0
M  V30 2950 C 283.886 0.441285 1.89941 0
M  V30 2951 O 283.156 -0.544623 1.88177 0
M  V30 2952 H 281.736 0.622569 0.412816 0
M  V30 2953 H 284.398 1.90391 0.416802 0
M  V30 2954 H 283.494 2.54822 1.80201 0
M  V30 2955 N 283.795 -0.628877 1.44509 0
M  V30 2956 C 285.043 -1.38565 1.4712 0
M  V30 2957 C 285.364 -1.94712 0.105899 0
M  V30 2958 O 284.634 -1.75912 -0.862079 0
M  V30 2959 H 283.214 -0.514333 0.541729 0
M  V30 2960 H 285.876 -0.740018 1.80305 0
M  V30 2961 H 284.972 -2.21583 2.19789 0
M  V30 2962 N 285.273 -1.31445 -0.869486 0
M  V30 2963 C 286.684 -1.19042 -1.43826 0
M  V30 2964 C 287.035 0.202919 -1.95148 0
M  V30 2965 O 286.16 1.10071 -1.86315 0
M  V30 2966 C 286.755 -2.15499 -2.6143 0
M  V30 2967 C 285.314 -2.07028 -3.14351 0
M  V30 2968 C 284.461 -2.04701 -1.87063 0
M  V30 2969 H 287.412 -1.43489 -0.677984 0
M  V30 2970 H 287.433 -1.74488 -3.38134 0
M  V30 2971 H 286.945 -3.16899 -2.24046 0
M  V30 2972 H 285.046 -1.08825 -3.56354 0
M  V30 2973 H 285.159 -2.96157 -3.766 0
M  V30 2974 H 283.523 -1.49724 -2.06046 0
M  V30 2975 H 284.306 -3.07857 -1.51917 0
M  V30 2976 N 286.751 1.08385 -1.14413 0
M  V30 2977 C 287.714 2.13486 -0.834048 0
M  V30 2978 C 288.714 1.59988 0.161418 0
M  V30 2979 O 289.904 1.74071 -0.0669575 0
M  V30 2980 C 287.036 3.4003 -0.243354 0
M  V30 2981 H 288.229 2.42425 -1.7655 0
M  V30 2982 H 285.782 1.24101 -0.950189 0
M  V30 2983 H 286.517 3.16726 0.696807 0
M  V30 2984 H 286.302 3.80157 -0.960367 0
M  V30 2985 H 287.792 4.17577 -0.0436242 0
M  V30 2986 N 288.23 0.939286 1.26551 0
M  V30 2987 C 289.163 0.391702 2.24813 0
M  V30 2988 C 290.141 -0.518421 1.54114 0
M  V30 2989 O 291.325 -0.456299 1.82894 0
M  V30 2990 C 288.452 -0.437382 3.35864 0
M  V30 2991 C 287.498 0.410946 4.24516 0
M  V30 2992 S 288.331 1.83372 5.03125 0
M  V30 2993 C 289.487 1.01264 6.17654 0
M  V30 2994 H 289.72 1.22448 2.70913 0
M  V30 2995 H 287.253 0.742269 1.35387 0
M  V30 2996 H 289.211 -0.909837 4.0029 0
M  V30 2997 H 287.872 -1.24482 2.8838 0
M  V30 2998 H 287.065 -0.224191 5.03501 0
M  V30 2999 H 286.667 0.818014 3.64945 0
M  V30 3000 H 288.959 0.254023 6.77024 0
M  V30 3001 H 289.902 1.77589 6.85469 0
M  V30 3002 H 290.31 0.549532 5.61819 0
M  V30 3003 N 289.708 -1.40897 0.706093 0
M  V30 3004 C 290.938 -2.05075 0.250523 0
M  V30 3005 C 291.346 -1.53275 -1.10921 0
M  V30 3006 O 290.689 -0.680281 -1.7064 0
M  V30 3007 C 290.751 -3.59219 0.142178 0
M  V30 3008 C 290.415 -4.33864 1.43566 0
M  V30 3009 C 291.412 -4.62448 2.37566 0
M  V30 3010 C 289.097 -4.72946 1.69195 0
M  V30 3011 C 291.091 -5.29088 3.5545 0
M  V30 3012 C 288.778 -5.3932 2.87362 0
M  V30 3013 C 289.776 -5.6732 3.80312 0
M  V30 3014 O 289.464 -6.32325 4.96408 0
M  V30 3015 H 289.196 -0.666645 0.112074 0
M  V30 3016 H 291.75 -1.81467 0.962239 0
M  V30 3017 H 289.98 -3.81609 -0.6254 0
M  V30 3018 H 291.669 -4.0495 -0.277584 0
M  V30 3019 H 292.435 -4.32727 2.19027 0
M  V30 3020 H 288.314 -4.50527 0.977042 0
M  V30 3021 H 291.858 -5.50859 4.28018 0
M  V30 3022 H 287.755 -5.68461 3.05814 0
M  V30 3023 H 288.523 -6.50821 4.9636 0
M  V30 3024 N 291.186 -0.45159 -1.50991 0
M  V30 3025 C 292.136 0.370861 -2.24964 0
M  V30 3026 C 293.12 0.978074 -1.2776 0
M  V30 3027 O 294.312 0.893854 -1.52772 0
M  V30 3028 C 291.441 1.46344 -3.10545 0
M  V30 3029 C 290.527 0.864924 -4.15187 0
M  V30 3030 N 290.918 -0.00311354 -5.058 0
M  V30 3031 C 289.216 1.13099 -4.31422 0
M  V30 3032 C 289.917 -0.340772 -5.80701 0
M  V30 3033 N 288.893 0.279203 -5.42883 0
M  V30 3034 H 292.695 -0.298134 -2.92384 0
M  V30 3035 H 290.209 -0.264528 -1.60231 0
M  V30 3036 H 292.206 2.06565 -3.62128 0
M  V30 3037 H 290.866 2.13463 -2.4467 0
M  V30 3038 H 291.877 -0.37058 -5.16572 0
M  V30 3039 H 288.554 1.79861 -3.76771 0
M  V30 3040 H 289.944 -1.048 -6.63677 0
M  V30 3041 N 292.664 1.56529 -0.183458 0
M  V30 3042 C 294.08 1.58664 0.172554 0
M  V30 3043 C 294.28 1.19925 1.61926 0
M  V30 3044 O 293.336 0.916534 2.35278 0
M  V30 3045 C 294.649 3.00463 -0.119262 0
M  V30 3046 C 296.197 3.12945 -0.0584396 0
M  V30 3047 C 296.672 4.56857 -0.323408 0
M  V30 3048 N 298.163 4.62403 -0.271612 0
M  V30 3049 C 298.898 5.71626 -0.450639 0
M  V30 3050 N 298.394 6.89362 -0.689384 0
M  V30 3051 N 300.187 5.60775 -0.385701 0
M  V30 3052 H 292.338 1.79994 -1.12765 0
M  V30 3053 H 294.601 0.834808 -0.449222 0
M  V30 3054 H 294.307 3.33326 -1.12192 0
M  V30 3055 H 294.181 3.72659 0.583544 0
M  V30 3056 H 296.568 2.79902 0.934805 0
M  V30 3057 H 296.649 2.4316 -0.794144 0
M  V30 3058 H 296.293 4.9061 -1.31392 0
M  V30 3059 H 296.223 5.24816 0.43305 0
M  V30 3060 H 298.714 3.77785 -0.0932256 0
M  V30 3061 H 299.027 7.68489 -0.815113 0
M  V30 3062 H 297.372 6.91196 -0.726142 0
M  V30 3063 H 300.563 4.67674 -0.199687 0
M  V30 3064 H 300.736 6.4584 -0.528646 0
M  V30 3065 N 294.142 -0.090211 1.57342 0
M  V30 3066 C 295.388 -0.793982 1.86611 0
M  V30 3067 C 295.721 -1.78142 0.773252 0
M  V30 3068 O 294.996 -1.93271 -0.218304 0
M  V30 3069 C 295.279 -1.51839 3.26523 0
M  V30 3070 C 295.132 -0.548609 4.46442 0
M  V30 3071 C 296.451 -2.46779 3.64401 0
M  V30 3072 H 293.57 -0.287186 0.678744 0
M  V30 3073 H 296.212 -0.0575076 1.89913 0
M  V30 3074 H 294.362 -2.14617 3.23839 0
M  V30 3075 H 296.034 0.0725513 4.61243 0
M  V30 3076 H 294.277 0.137614 4.33582 0
M  V30 3077 H 294.948 -1.09271 5.41076 0
M  V30 3078 H 297.424 -1.94089 3.68061 0
M  V30 3079 H 296.3 -2.94479 4.63221 0
M  V30 3080 H 296.561 -3.30758 2.93346 0
M  V30 3081 N 295.62 -1.53406 -0.361157 0
M  V30 3082 C 296.897 -1.60411 -1.11927 0
M  V30 3083 C 297.277 -0.414385 -2.06993 0
M  V30 3084 O 296.625 0.594976 -2.20618 0
M  V30 3085 C 296.835 -2.95652 -1.85448 0
M  V30 3086 C 298.183 -3.50386 -2.39823 0
M  V30 3087 O 299.207 -2.97711 -1.95568 0
M  V30 3088 O 298.066 -4.42482 -3.20737 0
M  V30 3089 H 295.16 -0.64811 -0.513695 0
M  V30 3090 H 297.706 -1.65749 -0.364065 0
M  V30 3091 H 296.478 -3.73682 -1.16091 0
M  V30 3092 H 296.101 -2.93825 -2.67866 0
M  V30 3093 N 297.098 0.621204 -1.44841 0
M  V30 3094 C 298.048 1.72663 -1.48901 0
M  V30 3095 C 299.032 1.56964 -0.353702 0
M  V30 3096 O 300.224 1.66532 -0.599669 0
M  V30 3097 C 297.353 3.11381 -1.44557 0
M  V30 3098 C 296.439 3.32514 -2.6324 0
M  V30 3099 N 296.83 3.23969 -3.8843 0
M  V30 3100 C 295.128 3.63343 -2.58647 0
M  V30 3101 C 295.829 3.46062 -4.67564 0
M  V30 3102 N 294.805 3.69407 -3.98797 0
M  V30 3103 H 298.607 1.64529 -2.43531 0
M  V30 3104 H 296.121 0.82401 -1.39942 0
M  V30 3105 H 298.118 3.90667 -1.4555 0
M  V30 3106 H 296.778 3.20674 -0.509731 0
M  V30 3107 H 297.789 3.02669 -4.20252 0
M  V30 3108 H 294.466 3.79556 -1.73906 0
M  V30 3109 H 295.856 3.44963 -5.76585 0
M  V30 3110 N 298.576 1.31904 0.862503 0
M  V30 3111 C 299.816 1.23324 1.63004 0
M  V30 3112 C 300.18 -0.203724 1.90916 0
M  V30 3113 O 301.381 -0.413132 2.65606 0
M  V30 3114 C 299.652 2.06116 2.91978 0
M  V30 3115 S 301.211 2.14478 3.82812 0
M  V30 3116 H 298.029 0.439117 0.559193 0
M  V30 3117 H 300.631 1.66658 1.02202 0
M  V30 3118 H 299.335 3.09593 2.69407 0
M  V30 3119 H 298.866 1.6353 3.57801 0
M  V30 3120 H 300.881 1.28855 4.79177 0
M  V30 3121 N 300.054 -1.07777 1.14986 0
M  V30 3122 C 301.301 -1.8029 0.922056 0
M  V30 3123 C 301.629 -1.86531 -0.55105 0
M  V30 3124 O 300.884 -1.34189 -1.42449 0
M  V30 3125 C 301.183 -3.25495 1.47608 0
M  V30 3126 C 300.849 -3.39361 2.96893 0
M  V30 3127 C 299.511 -3.42852 3.37647 0
M  V30 3128 C 301.863 -3.42512 3.92854 0
M  V30 3129 C 299.191 -3.47094 4.73015 0
M  V30 3130 C 301.543 -3.4829 5.28088 0
M  V30 3131 C 300.207 -3.50058 5.68345 0
M  V30 3132 H 299.477 -0.659727 0.337404 0
M  V30 3133 H 302.124 -1.26854 1.43459 0
M  V30 3134 H 300.429 -3.81683 0.88463 0
M  V30 3135 H 302.126 -3.80168 1.27568 0
M  V30 3136 H 298.716 -3.37339 2.64387 0
M  V30 3137 H 302.9 -3.3904 3.62444 0
M  V30 3138 H 298.156 -3.46758 5.03556 0
M  V30 3139 H 302.33 -3.49675 6.02246 0
M  V30 3140 H 299.957 -3.53097 6.73221 0
M  V30 3141 N 301.532 -0.945985 -1.26051 0
M  V30 3142 C 302.779 -0.596118 -1.93527 0
M  V30 3143 C 303.107 0.865559 -1.74179 0
M  V30 3144 O 302.362 1.63524 -1.0751 0
M  V30 3145 C 302.661 -0.890475 -3.46129 0
M  V30 3146 C 302.327 -2.3368 -3.85622 0
M  V30 3147 C 300.989 -2.73216 -3.96114 0
M  V30 3148 C 303.341 -3.27648 -4.05334 0
M  V30 3149 C 300.669 -4.05806 -4.2372 0
M  V30 3150 C 303.021 -4.59841 -4.3443 0
M  V30 3151 C 301.685 -4.99185 -4.43137 0
M  V30 3152 H 300.955 -0.218135 -0.708165 0
M  V30 3153 H 303.602 -1.1934 -1.49768 0
M  V30 3154 H 301.907 -0.210711 -3.91233 0
M  V30 3155 H 303.604 -0.598478 -3.96509 0
M  V30 3156 H 300.194 -2.02015 -3.78005 0
M  V30 3157 H 304.378 -2.98298 -3.96651 0
M  V30 3158 H 299.634 -4.35945 -4.28675 0
M  V30 3159 H 303.808 -5.32641 -4.48628 0
M  V30 3160 H 301.435 -6.01952 -4.64282 0
M  V30 3161 N 303.011 1.40521 -0.713556 0
M  V30 3162 C 304.236 2.05759 -0.26035 0
M  V30 3163 C 304.661 1.53403 1.08854 0
M  V30 3164 O 304.019 0.668535 1.68524 0
M  V30 3165 C 304.067 3.59745 -0.248122 0
M  V30 3166 O 303.171 4.05123 0.77131 0
M  V30 3167 H 302.512 0.652564 -0.122703 0
M  V30 3168 H 305.042 1.79958 -0.973467 0
M  V30 3169 H 305.052 4.07911 -0.0851129 0
M  V30 3170 H 303.727 3.97218 -1.2325 0
M  V30 3171 H 302.304 3.68422 0.57619 0
M  V30 3172 N 304.489 0.459591 1.5075 0
M  V30 3173 C 305.437 -0.354678 2.2988 0
M  V30 3174 C 306.431 -1.00086 1.36672 0
M  V30 3175 O 307.637 -0.933277 1.53915 0
M  V30 3176 H 304.012 -0.13321 0.740107 0
M  V30 3177 H 305.983 0.333269 2.96533 0
M  V30 3178 C 304.732 -1.43073 3.169 0
M  V30 3179 H 304.055 -0.942882 3.88523 0
M  V30 3180 H 305.495 -1.97328 3.75284 0
M  V30 3181 C 303.954 -2.42633 2.33732 0
M  V30 3182 O 304.484 -3.47658 2.01238 0
M  V30 3183 N 302.69 -2.14066 1.9653 0
M  V30 3184 H 302.237 -1.28685 2.23155 0
M  V30 3185 H 302.195 -2.80917 1.41185 0
M  V30 3186 N 305.967 -1.56429 0.191757 0
M  V30 3187 C 307.378 -1.83912 -0.321428 0
M  V30 3188 C 307.729 -1.11231 -1.61623 0
M  V30 3189 O 306.854 -0.37202 -2.13178 0
M  V30 3190 C 307.449 -3.33624 -0.589961 0
M  V30 3191 C 306.008 -3.6153 -1.04753 0
M  V30 3192 C 305.155 -2.7714 -0.0943327 0
M  V30 3193 H 308.106 -1.53161 0.415612 0
M  V30 3194 H 308.127 -3.52213 -1.43966 0
M  V30 3195 H 307.639 -3.86495 0.352588 0
M  V30 3196 H 305.74 -3.14089 -2.00447 0
M  V30 3197 H 305.853 -4.69737 -0.942549 0
M  V30 3198 H 304.217 -2.47638 -0.595589 0
M  V30 3199 H 305 -3.32799 0.842601 0
M  V30 3200 N 307.445 0.0818655 -1.57387 0
M  V30 3201 C 308.377 1.12484 -1.997 0
M  V30 3202 C 309.39 1.35564 -0.90146 0
M  V30 3203 O 310.579 1.33982 -1.17945 0
M  V30 3204 C 307.679 2.47778 -2.31213 0
M  V30 3205 C 306.852 2.44793 -3.62485 0
M  V30 3206 C 305.911 3.62117 -3.81782 0
M  V30 3207 O 304.937 3.44005 -4.53486 0
M  V30 3208 N 306.139 4.82094 -3.23367 0
M  V30 3209 H 308.904 0.764585 -2.89783 0
M  V30 3210 H 306.465 0.270664 -1.59621 0
M  V30 3211 H 308.457 3.24891 -2.41304 0
M  V30 3212 H 307.027 2.75843 -1.4707 0
M  V30 3213 H 306.247 1.53134 -3.6324 0
M  V30 3214 H 307.535 2.39889 -4.48699 0
M  V30 3215 H 306.933 4.99713 -2.65148 0
M  V30 3216 H 305.49 5.56753 -3.38923 0
M  V30 3217 N 308.923 1.53595 0.353017 0
M  V30 3218 C 309.87 1.80919 1.43308 0
M  V30 3219 C 310.84 0.654288 1.5267 0
M  V30 3220 O 312.025 0.897759 1.6836 0
M  V30 3221 C 309.165 2.01605 2.80089 0
M  V30 3222 C 308.278 3.29321 2.79593 0
M  V30 3223 C 307.413 3.40125 4.0803 0
M  V30 3224 C 306.452 4.61826 4.01725 0
M  V30 3225 N 305.589 4.69716 5.21834 0
M  V30 3226 H 310.429 2.73074 1.19308 0
M  V30 3227 H 307.966 1.35263 0.578131 0
M  V30 3228 H 309.924 2.11586 3.59565 0
M  V30 3229 H 308.554 1.12772 3.0246 0
M  V30 3230 H 307.606 3.28229 1.92276 0
M  V30 3231 H 308.918 4.18884 2.70809 0
M  V30 3232 H 308.072 3.49488 4.95927 0
M  V30 3233 H 306.811 2.48601 4.19582 0
M  V30 3234 H 305.816 4.52552 3.12213 0
M  V30 3235 H 307.041 5.54705 3.91764 0
M  V30 3236 H 304.987 3.81097 5.33948 0
M  V30 3237 H 304.904 5.53202 5.1527 0
M  V30 3238 H 306.172 4.83376 6.11529 0
M  V30 3239 N 310.401 -0.613514 1.45168 0
M  V30 3240 C 311.812 -1.19539 1.43413 0
M  V30 3241 C 312.163 -1.95558 0.158632 0
M  V30 3242 O 311.288 -2.0335 -0.740119 0
M  V30 3243 C 311.883 -2.17445 2.59813 0
M  V30 3244 C 310.442 -2.71022 2.61197 0
M  V30 3245 C 309.589 -1.46323 2.35552 0
M  V30 3246 H 312.54 -0.403163 1.53494 0
M  V30 3247 H 312.561 -3.00373 2.33574 0
M  V30 3248 H 312.073 -1.62089 3.52631 0
M  V30 3249 H 310.174 -3.30332 1.7237 0
M  V30 3250 H 310.287 -3.15859 3.60236 0
M  V30 3251 H 308.651 -1.75072 1.84992 0
M  V30 3252 H 309.434 -0.92844 3.30507 0
M  V30 3253 N 311.879 -1.3236 -0.855495 0
M  V30 3254 C 313.127 -1.22629 -1.60644 0
M  V30 3255 C 313.448 0.212136 -1.93843 0
M  V30 3256 O 312.718 1.13666 -1.59552 0
M  V30 3257 H 311.298 -0.450882 -0.595579 0
M  V30 3258 H 313.96 -1.65871 -1.02337 0
M  V30 3259 H 313.056 -1.80832 -2.54374 0
M  V30 3260 N 313.357 1.07166 -1.15556 0
M  V30 3261 C 314.305 2.16517 -0.8499 0
M  V30 3262 C 315.299 1.68468 0.177454 0
M  V30 3263 O 316.505 1.79971 0.0323026 0
M  V30 3264 H 312.88 0.706652 -0.25719 0
M  V30 3265 H 314.851 2.39514 -1.77976 0
M  V30 3266 C 313.6 3.45855 -0.357682 0
M  V30 3267 H 312.923 3.83214 -1.13961 0
M  V30 3268 H 314.363 4.23607 -0.182489 0
M  V30 3269 C 312.822 3.24062 0.921152 0
M  V30 3270 O 313.352 3.48813 1.9923 0
M  V30 3271 N 311.558 2.77539 0.86141 0
M  V30 3272 H 311.105 2.57598 -0.0104408 0
M  V30 3273 H 311.063 2.63337 1.71758 0
M  V30 3274 N 314.835 0.952656 1.25548 0
M  V30 3275 C 315.798 0.475794 2.24207 0
M  V30 3276 C 316.798 -0.419428 1.55234 0
M  V30 3277 O 317.988 -0.216994 1.72843 0
M  V30 3278 C 315.12 -0.312814 3.39462 0
M  V30 3279 H 316.313 1.34779 2.67908 0
M  V30 3280 H 313.866 0.735739 1.37901 0
M  V30 3281 H 314.601 -1.20257 3.01179 0
M  V30 3282 H 314.386 0.329404 3.90714 0
M  V30 3283 H 315.876 -0.635986 4.12729 0
M  V30 3284 N 316.313 -1.40141 0.720998 0
M  V30 3285 C 317.561 -2.0039 0.262323 0
M  V30 3286 C 317.882 -1.57469 -1.15015 0
M  V30 3287 O 317.152 -0.816582 -1.78069 0
M  V30 3288 H 315.732 -0.741063 0.093996 0
M  V30 3289 H 318.394 -1.71398 0.927835 0
M  V30 3290 H 317.49 -3.10658 0.299671 0
M  V30 3291 N 317.792 -0.46758 -1.50504 0
M  V30 3292 C 319.04 0.0884469 -2.01906 0
M  V30 3293 C 319.361 1.40532 -1.35188 0
M  V30 3294 O 318.631 1.89515 -0.496079 0
M  V30 3295 H 317.211 0.0356765 -0.746148 0
M  V30 3296 H 319.873 -0.6172 -1.84869 0
M  V30 3297 H 318.969 0.2425 -3.11156 0
M  V30 3298 N 319.27 1.56325 -0.20005 0
M  V30 3299 C 320.518 1.97329 0.436547 0
M  V30 3300 C 320.839 1.08826 1.61808 0
M  V30 3301 O 320.109 0.160604 1.95241 0
M  V30 3302 H 318.689 0.728714 0.164272 0
M  V30 3303 H 321.351 1.92761 -0.287937 0
M  V30 3304 H 320.447 3.02264 0.777353 0
M  V30 3305 N 320.748 -0.0735177 1.57428 0
M  V30 3306 C 321.997 -0.771809 1.86349 0
M  V30 3307 C 322.31 -1.78828 0.792452 0
M  V30 3308 O 323.516 -2.53602 0.96945 0
M  V30 3309 C 321.972 -1.42358 3.30548 0
M  V30 3310 C 321.58 -0.445761 4.45777 0
M  V30 3311 C 323.324 -2.10434 3.6867 0
M  V30 3312 C 321.231 -1.10335 5.81016 0
M  V30 3313 H 320.161 -0.291999 0.695164 0
M  V30 3314 H 322.812 -0.0250749 1.83483 0
M  V30 3315 H 321.194 -2.21852 3.28021 0
M  V30 3316 H 322.368 0.319239 4.59693 0
M  V30 3317 H 320.683 0.130457 4.16196 0
M  V30 3318 H 323.28 -2.60405 4.67004 0
M  V30 3319 H 323.623 -2.90298 2.98383 0
M  V30 3320 H 324.156 -1.37773 3.7318 0
M  V30 3321 H 320.895 -0.345061 6.54591 0
M  V30 3322 H 320.415 -1.83925 5.70904 0
M  V30 3323 H 322.094 -1.62367 6.26295 0
M  V30 3324 N 322.226 -1.5378 -0.344866 0
M  V30 3325 C 323.642 -1.44015 -0.687888 0
M  V30 3326 C 323.842 -0.595834 -1.92489 0
M  V30 3327 O 322.898 -0.0863064 -2.52352 0
M  V30 3328 C 324.211 -2.87481 -0.881758 0
M  V30 3329 C 325.759 -2.97247 -0.980459 0
M  V30 3330 C 326.234 -4.41819 -1.20665 0
M  V30 3331 N 327.725 -4.45339 -1.27389 0
M  V30 3332 C 328.46 -5.54333 -1.46639 0
M  V30 3333 N 327.956 -6.73335 -1.63071 0
M  V30 3334 N 329.749 -5.41944 -1.49176 0
M  V30 3335 H 321.9 -2.07169 0.468475 0
M  V30 3336 H 324.163 -0.93643 0.147655 0
M  V30 3337 H 323.869 -3.51672 -0.0443444 0
M  V30 3338 H 323.743 -3.32352 -1.78388 0
M  V30 3339 H 326.13 -2.33197 -1.8084 0
M  V30 3340 H 326.211 -2.5574 -0.0552713 0
M  V30 3341 H 325.855 -5.06449 -0.383652 0
M  V30 3342 H 325.785 -4.80917 -2.14539 0
M  V30 3343 H 328.276 -3.59585 -1.1622 0
M  V30 3344 H 328.589 -7.52165 -1.77391 0
M  V30 3345 H 326.934 -6.76282 -1.60209 0
M  V30 3346 H 330.125 -4.47932 -1.3592 0
M  V30 3347 H 330.298 -6.26946 -1.63837 0
M  V30 3348 N 323.704 0.605807 -1.45491 0
M  V30 3349 C 324.953 1.36086 -1.48874 0
M  V30 3350 C 325.266 1.95131 -0.135333 0
M  V30 3351 O 326.472 2.7146 -0.0468144 0
M  V30 3352 C 324.928 2.46518 -2.62215 0
M  V30 3353 C 324.536 1.93877 -4.03876 0
M  V30 3354 C 326.28 3.23512 -2.74846 0
M  V30 3355 C 324.187 3.01801 -5.08596 0
M  V30 3356 H 323.117 0.511497 -0.553974 0
M  V30 3357 H 325.768 0.649089 -1.71636 0
M  V30 3358 H 324.15 3.20388 -2.32739 0
M  V30 3359 H 325.324 1.26704 -4.43038 0
M  V30 3360 H 323.639 1.29622 -3.95711 0
M  V30 3361 H 326.236 4.04013 -3.50253 0
M  V30 3362 H 326.579 3.74631 -1.81542 0
M  V30 3363 H 327.112 2.56742 -3.03856 0
M  V30 3364 H 323.851 2.55597 -6.03614 0
M  V30 3365 H 323.371 3.67535 -4.74002 0
M  V30 3366 H 325.05 3.66152 -5.33424 0
M  V30 3367 N 325.182 1.32811 0.848464 0
M  V30 3368 C 326.43 1.23479 1.59991 0
M  V30 3369 C 326.751 -0.201853 1.93952 0
M  V30 3370 O 326.021 -1.12818 1.60153 0
M  V30 3371 H 324.601 0.454034 0.593179 0
M  V30 3372 H 327.263 1.66412 1.01455 0
M  V30 3373 H 326.359 1.82178 2.53412 0
M  V30 3374 N 326.66 -1.06551 1.16123 0
M  V30 3375 C 327.89 -1.8274 0.963838 0
M  V30 3376 C 328.298 -1.82712 -0.491228 0
M  V30 3377 O 327.641 -1.24294 -1.35265 0
M  V30 3378 C 327.703 -3.3065 1.41106 0
M  V30 3379 C 327.367 -3.54384 2.88549 0
M  V30 3380 C 328.364 -3.4765 3.86569 0
M  V30 3381 C 326.049 -3.81789 3.26408 0
M  V30 3382 C 328.043 -3.67982 5.2045 0
M  V30 3383 C 325.73 -4.01772 4.60459 0
M  V30 3384 C 326.728 -3.94866 5.57288 0
M  V30 3385 O 326.416 -4.14306 6.88916 0
M  V30 3386 H 326.148 -0.583136 0.341948 0
M  V30 3387 H 328.702 -1.35351 1.54497 0
M  V30 3388 H 326.932 -3.78887 0.773394 0
M  V30 3389 H 328.621 -3.88324 1.1815 0
M  V30 3390 H 329.387 -3.2647 3.58667 0
M  V30 3391 H 325.266 -3.86276 2.51619 0
M  V30 3392 H 328.81 -3.62507 5.96015 0
M  V30 3393 H 324.707 -4.2244 4.88072 0
M  V30 3394 H 325.475 -4.31609 6.95454 0
M  V30 3395 N 328.138 -0.959301 -1.25041 0
M  V30 3396 C 329.368 -0.63303 -1.96663 0
M  V30 3397 C 329.776 0.800031 -1.71453 0
M  V30 3398 O 329.119 1.54736 -0.99008 0
M  V30 3399 C 329.181 -0.817523 -3.50081 0
M  V30 3400 C 328.845 -2.22863 -3.98975 0
M  V30 3401 C 329.842 -3.20569 -4.09306 0
M  V30 3402 C 327.527 -2.55407 -4.32519 0
M  V30 3403 C 329.521 -4.4891 -4.52503 0
M  V30 3404 C 327.208 -3.83976 -4.754 0
M  V30 3405 C 328.206 -4.8054 -4.85356 0
M  V30 3406 O 327.894 -6.06817 -5.27284 0
M  V30 3407 H 327.626 -0.235866 -0.633516 0
M  V30 3408 H 330.18 -1.2874 -1.60047 0
M  V30 3409 H 328.41 -0.105992 -3.86555 0
M  V30 3410 H 330.099 -0.491604 -4.02912 0
M  V30 3411 H 330.865 -2.96753 -3.83618 0
M  V30 3412 H 326.744 -1.8097 -4.23994 0
M  V30 3413 H 330.288 -5.24283 -4.60188 0
M  V30 3414 H 326.185 -4.07596 -5.00535 0
M  V30 3415 H 326.953 -6.10262 -5.45457 0
M  V30 3416 N 329.616 1.39756 -0.72842 0
M  V30 3417 C 331.032 1.5442 -0.403308 0
M  V30 3418 C 331.232 1.69694 1.08656 0
M  V30 3419 O 330.288 1.69373 1.87267 0
M  V30 3420 C 331.601 2.76555 -1.18058 0
M  V30 3421 C 333.149 2.90384 -1.16815 0
M  V30 3422 C 333.624 4.15449 -1.92785 0
M  V30 3423 N 335.115 4.22475 -1.89918 0
M  V30 3424 C 335.85 5.1818 -2.45514 0
M  V30 3425 N 335.346 6.19714 -3.09719 0
M  V30 3426 N 337.139 5.1035 -2.35584 0
M  V30 3427 H 329.29 1.28089 -1.69431 0
M  V30 3428 H 331.553 0.620327 -0.716867 0
M  V30 3429 H 331.259 2.7159 -2.23455 0
M  V30 3430 H 331.133 3.69033 -0.780662 0
M  V30 3431 H 333.52 2.94846 -0.12234 0
M  V30 3432 H 333.601 1.98988 -1.6074 0
M  V30 3433 H 333.245 4.11749 -2.97364 0
M  V30 3434 H 333.175 5.05877 -1.46272 0
M  V30 3435 H 335.666 3.49743 -1.43138 0
M  V30 3436 H 335.979 6.8919 -3.49625 0
M  V30 3437 H 334.324 6.20121 -3.13807 0
M  V30 3438 H 337.515 4.2996 -1.85072 0
M  V30 3439 H 337.688 5.84761 -2.79211 0
M  V30 3440 N 331.094 0.475555 1.50254 0
M  V30 3441 C 332.042 -0.330276 2.30243 0
M  V30 3442 C 333.036 -0.986306 1.37726 0
M  V30 3443 O 334.242 -0.9169 1.54897 0
M  V30 3444 H 330.617 -0.125353 0.741479 0
M  V30 3445 H 332.588 0.364702 2.96163 0
M  V30 3446 C 331.337 -1.39704 3.18399 0
M  V30 3447 H 330.66 -0.901621 3.89501 0
M  V30 3448 H 332.1 -1.93336 3.77355 0
M  V30 3449 C 330.559 -2.4014 2.36293 0
M  V30 3450 O 331.089 -3.45504 2.04914 0
M  V30 3451 N 329.295 -2.1197 1.98789 0
M  V30 3452 H 328.842 -1.2631 2.24507 0
M  V30 3453 H 328.8 -2.79403 1.44157 0
M  V30 3454 N 332.573 -1.56217 0.208337 0
M  V30 3455 C 333.85 -1.89739 -0.475234 0
M  V30 3456 C 334.23 -1.1238 -1.78701 0
M  V30 3457 O 333.578 -0.228979 -2.2735 0
M  V30 3458 C 333.788 -3.42289 -0.681101 0
M  V30 3459 C 335.136 -4.12789 -0.994507 0
M  V30 3460 O 336.16 -3.47814 -0.768357 0
M  V30 3461 O 335.019 -5.27649 -1.42299 0
M  V30 3462 H 332.113 -0.788478 -0.249461 0
M  V30 3463 H 334.659 -1.67855 0.249538 0
M  V30 3464 H 333.431 -3.90534 0.244722 0
M  V30 3465 H 333.054 -3.69909 -1.45785 0
M  V30 3466 N 334.051 0.0651679 -1.57465 0
M  V30 3467 C 335.3 0.761916 -1.86756 0
M  V30 3468 C 335.613 1.78406 -0.801925 0
M  V30 3469 O 336.819 2.53084 -0.982885 0
M  V30 3470 C 335.275 1.40603 -3.31299 0
M  V30 3471 C 334.883 0.422115 -4.46007 0
M  V30 3472 C 336.627 2.08476 -3.69781 0
M  V30 3473 C 334.534 1.07252 -5.81593 0
M  V30 3474 H 333.464 0.288308 -0.696702 0
M  V30 3475 H 336.115 0.015344 -1.83494 0
M  V30 3476 H 334.497 2.20109 -3.29193 0
M  V30 3477 H 335.671 -0.343613 -4.59517 0
M  V30 3478 H 333.986 -0.152527 -4.16121 0
M  V30 3479 H 336.583 2.57925 -4.68379 0
M  V30 3480 H 336.926 2.88712 -2.99919 0
M  V30 3481 H 337.459 1.35792 -3.73905 0
M  V30 3482 H 334.198 0.310342 -6.54765 0
M  V30 3483 H 333.718 1.80895 -5.71872 0
M  V30 3484 H 335.397 1.59043 -6.27148 0
M  V30 3485 N 335.529 1.53961 0.336706 0
M  V30 3486 C 336.777 1.71197 1.07405 0
M  V30 3487 C 337.098 0.481475 1.88962 0
M  V30 3488 O 336.368 -0.504585 1.8929 0
M  V30 3489 H 334.948 0.631185 0.399517 0
M  V30 3490 H 337.61 1.91232 0.376323 0
M  V30 3491 H 336.706 2.58587 1.74755 0
M  V30 3492 N 337.007 -0.598083 1.45811 0
M  V30 3493 C 338.423 -0.919847 1.30426 0
M  V30 3494 C 338.623 -1.99759 0.264303 0
M  V30 3495 O 337.679 -2.50221 -0.338472 0
M  V30 3496 C 338.992 -1.35176 2.68603 0
M  V30 3497 C 340.54 -1.46546 2.76574 0
M  V30 3498 C 341.015 -1.9311 4.15298 0
M  V30 3499 N 342.506 -2.00328 4.1764 0
M  V30 3500 C 343.241 -2.37599 5.21856 0
M  V30 3501 N 342.737 -2.73771 6.36413 0
M  V30 3502 N 344.53 -2.38021 5.09218 0
M  V30 3503 H 336.681 0.114111 2.12093 0
M  V30 3504 H 338.944 -0.0116121 0.947929 0
M  V30 3505 H 338.65 -0.633969 3.45939 0
M  V30 3506 H 338.524 -2.3164 2.97696 0
M  V30 3507 H 340.911 -2.17415 1.99537 0
M  V30 3508 H 340.992 -0.483727 2.51185 0
M  V30 3509 H 340.636 -1.22824 4.92825 0
M  V30 3510 H 340.566 -2.92213 4.38086 0
M  V30 3511 H 343.057 -1.74925 3.34977 0
M  V30 3512 H 343.37 -3.0112 7.11721 0
M  V30 3513 H 341.715 -2.71445 6.39799 0
M  V30 3514 H 344.906 -2.09174 4.18765 0
M  V30 3515 H 345.079 -2.66741 5.90554 0
M  V30 3516 N 338.485 -1.33259 -0.841409 0
M  V30 3517 C 339.725 -1.25902 -1.61022 0
M  V30 3518 C 340.089 0.173325 -1.91216 0
M  V30 3519 O 341.29 0.370824 -2.6623 0
M  V30 3520 C 339.561 -2.10735 -2.88662 0
M  V30 3521 S 341.12 -2.20541 -3.79351 0
M  V30 3522 H 337.938 -0.447958 -0.552137 0
M  V30 3523 H 340.54 -1.68263 -0.995382 0
M  V30 3524 H 339.244 -3.1384 -2.64448 0
M  V30 3525 H 338.775 -1.69201 -3.55154 0
M  V30 3526 H 340.79 -1.36462 -4.77067 0
M  V30 3527 N 339.963 1.05934 -1.16686 0
M  V30 3528 C 340.893 2.1546 -0.899949 0
M  V30 3529 C 341.874 1.69391 0.155154 0
M  V30 3530 O 343.059 1.94199 0.00648693 0
M  V30 3531 C 340.189 3.44939 -0.404241 0
M  V30 3532 C 339.143 4.04536 -1.39767 0
M  V30 3533 C 338.469 5.29268 -0.760216 0
M  V30 3534 C 339.769 4.42893 -2.76845 0
M  V30 3535 H 341.463 2.38046 -1.81588 0
M  V30 3536 H 339.009 1.14404 -0.874514 0
M  V30 3537 H 340.962 4.20901 -0.204971 0
M  V30 3538 H 339.686 3.21983 0.547206 0
M  V30 3539 H 338.345 3.30635 -1.58355 0
M  V30 3540 H 337.993 5.02611 0.197831 0
M  V30 3541 H 337.693 5.70101 -1.42332 0
M  V30 3542 H 339.217 6.07924 -0.57105 0
M  V30 3543 H 340.631 5.09921 -2.62019 0
M  V30 3544 H 339.028 4.94721 -3.39663 0
M  V30 3545 H 340.098 3.53584 -3.31823 0
M  V30 3546 N 341.441 0.965919 1.2453 0
M  V30 3547 C 342.687 0.62776 1.92839 0
M  V30 3548 C 343.02 -0.834694 1.75347 0
M  V30 3549 O 342.295 -1.60031 1.10546 0
M  V30 3550 C 342.578 1.00109 3.45905 0
M  V30 3551 C 342.431 2.52011 3.72573 0
M  V30 3552 C 343.75 0.53435 4.36844 0
M  V30 3553 H 340.869 0.229537 0.700344 0
M  V30 3554 H 343.511 1.2046 1.46933 0
M  V30 3555 H 341.661 0.510238 3.85135 0
M  V30 3556 H 343.333 3.08559 3.42912 0
M  V30 3557 H 341.576 2.95287 3.17786 0
M  V30 3558 H 342.247 2.73183 4.79661 0
M  V30 3559 H 344.723 0.955565 4.04979 0
M  V30 3560 H 343.599 0.824152 5.42678 0
M  V30 3561 H 343.86 -0.565589 4.38467 0
M  V30 3562 N 342.919 -1.39368 0.735821 0
M  V30 3563 C 344.196 -1.94465 0.210395 0
M  V30 3564 C 344.576 -1.67254 -1.28799 0
M  V30 3565 O 343.924 -1.00123 -2.05396 0
M  V30 3566 C 344.134 -3.4472 0.544897 0
M  V30 3567 C 345.482 -4.21708 0.494689 0
M  V30 3568 O 346.506 -3.52922 0.482136 0
M  V30 3569 O 345.365 -5.44299 0.489947 0
M  V30 3570 H 342.459 -0.826096 0.0386666 0
M  V30 3571 H 345.005 -1.48863 0.814735 0
M  V30 3572 H 343.777 -3.57963 1.58045 0
M  V30 3573 H 343.4 -3.97502 -0.08837 0
M  V30 3574 N 344.397 -0.483516 -1.5 0
M  V30 3575 C 345.622 0.0667119 -2.07293 0
M  V30 3576 C 346.047 1.3164 -1.3436 0
M  V30 3577 O 345.405 1.76945 -0.394987 0
M  V30 3578 C 345.453 0.321126 -3.59167 0
M  V30 3579 O 344.557 1.39927 -3.87936 0
M  V30 3580 H 343.898 -0.0184758 -0.663743 0
M  V30 3581 H 346.428 -0.678125 -1.93035 0
M  V30 3582 H 346.438 0.557906 -4.04168 0
M  V30 3583 H 345.113 -0.592007 -4.11665 0
M  V30 3584 H 343.69 1.14882 -3.54763 0
M  V30 3585 N 345.875 1.56104 -0.216619 0
M  V30 3586 C 346.823 2.21434 0.712036 0
M  V30 3587 C 347.817 1.19218 1.20348 0
M  V30 3588 O 349.023 1.3731 1.16387 0
M  V30 3589 H 345.398 0.70992 0.248026 0
M  V30 3590 H 347.369 2.98083 0.137558 0
M  V30 3591 C 346.118 2.90434 1.91163 0
M  V30 3592 H 345.441 3.68842 1.54258 0
M  V30 3593 H 346.881 3.39552 2.5393 0
M  V30 3594 C 345.34 1.92635 2.76394 0
M  V30 3595 O 345.87 1.44017 3.74996 0
M  V30 3596 N 344.076 1.60392 2.42328 0
M  V30 3597 H 343.623 2.00122 1.622 0
M  V30 3598 H 343.581 0.952159 2.99635 0
M  V30 3599 N 347.353 -0.0568162 1.57498 0
M  V30 3600 C 348.283 -1.06593 2.0775 0
M  V30 3601 C 349.264 -1.39448 0.974082 0
M  V30 3602 O 350.449 -1.48815 1.24771 0
M  V30 3603 C 347.579 -2.37509 2.5339 0
M  V30 3604 C 346.533 -2.1897 3.67745 0
M  V30 3605 C 345.859 -3.55402 3.99492 0
M  V30 3606 C 347.159 -1.59859 4.97235 0
M  V30 3607 H 348.853 -0.647706 2.9231 0
M  V30 3608 H 346.399 -0.310116 1.40621 0
M  V30 3609 H 348.352 -3.08409 2.87162 0
M  V30 3610 H 347.076 -2.8134 1.65878 0
M  V30 3611 H 345.735 -1.50508 3.3428 0
M  V30 3612 H 345.383 -3.9683 3.09088 0
M  V30 3613 H 345.083 -3.43831 4.76502 0
M  V30 3614 H 346.607 -4.27708 4.35773 0
M  V30 3615 H 348.021 -2.20642 5.29141 0
M  V30 3616 H 346.418 -1.58942 5.78669 0
M  V30 3617 H 347.488 -0.561506 4.81638 0
M  V30 3618 N 348.832 -1.54138 -0.328536 0
M  V30 3619 C 350.079 -1.72105 -1.06706 0
M  V30 3620 C 350.407 -0.492111 -1.88171 0
M  V30 3621 O 349.662 0.526153 -1.88494 0
M  V30 3622 C 349.961 -2.9457 -2.02393 0
M  V30 3623 C 349.627 -4.29544 -1.37122 0
M  V30 3624 C 348.289 -4.6624 -1.19052 0
M  V30 3625 C 350.641 -5.1333 -0.902331 0
M  V30 3626 C 347.969 -5.84325 -0.527331 0
M  V30 3627 C 350.321 -6.32094 -0.252988 0
M  V30 3628 C 348.985 -6.67473 -0.0600901 0
M  V30 3629 H 348.255 -0.629775 -0.390466 0
M  V30 3630 H 350.902 -1.88372 -0.34473 0
M  V30 3631 H 349.207 -2.72969 -2.81061 0
M  V30 3632 H 350.904 -3.05665 -2.59557 0
M  V30 3633 H 347.494 -4.0067 -1.52188 0
M  V30 3634 H 351.678 -4.855 -1.02974 0
M  V30 3635 H 346.934 -6.103 -0.366634 0
M  V30 3636 H 351.108 -6.96299 0.118366 0
M  V30 3637 H 348.735 -7.58832 0.455828 0
M  V30 3638 N 350.31 0.590341 -1.46126 0
M  V30 3639 C 351.243 1.71434 -1.50617 0
M  V30 3640 C 352.221 1.58543 -0.360948 0
M  V30 3641 O 353.405 1.79865 -0.563985 0
M  V30 3642 C 350.532 3.09422 -1.37753 0
M  V30 3643 C 349.578 3.40854 -2.5636 0
M  V30 3644 S 350.411 3.33773 -4.18755 0
M  V30 3645 C 351.567 4.74312 -4.08386 0
M  V30 3646 H 351.8 1.67364 -2.45717 0
M  V30 3647 H 349.333 0.76845 -1.33919 0
M  V30 3648 H 351.291 3.8903 -1.31018 0
M  V30 3649 H 349.952 3.10989 -0.440949 0
M  V30 3650 H 349.145 4.41368 -2.43332 0
M  V30 3651 H 348.747 2.68798 -2.60046 0
M  V30 3652 H 351.039 5.64522 -3.74595 0
M  V30 3653 H 351.982 4.92397 -5.08872 0
M  V30 3654 H 352.39 4.50803 -3.3976 0
M  V30 3655 N 351.788 1.33704 0.83433 0
M  V30 3656 C 353.204 1.13137 1.12571 0
M  V30 3657 C 353.404 -0.0747261 2.01361 0
M  V30 3658 O 352.46 -0.753647 2.4099 0
M  V30 3659 C 353.773 2.42105 1.78342 0
M  V30 3660 C 355.321 2.48054 1.90888 0
M  V30 3661 C 355.796 3.76995 2.60075 0
M  V30 3662 N 357.287 3.78092 2.67584 0
M  V30 3663 C 358.022 4.74574 3.21818 0
M  V30 3664 N 357.518 5.81434 3.76705 0
M  V30 3665 N 359.311 4.62044 3.20112 0
M  V30 3666 H 351.462 2.11 0.243489 0
M  V30 3667 H 353.725 0.932532 0.17055 0
M  V30 3668 H 353.431 3.30391 1.20561 0
M  V30 3669 H 353.305 2.54594 2.7832 0
M  V30 3670 H 355.692 1.60215 2.47821 0
M  V30 3671 H 355.773 2.39502 0.898459 0
M  V30 3672 H 355.417 4.65219 2.03799 0
M  V30 3673 H 355.347 3.82825 3.61597 0
M  V30 3674 H 357.838 3.00865 2.28667 0
M  V30 3675 H 358.151 6.51084 4.16305 0
M  V30 3676 H 356.496 5.85163 3.7498 0
M  V30 3677 H 359.687 3.77716 2.76493 0
M  V30 3678 H 359.86 5.37406 3.62076 0
M  V30 3679 N 353.266 -1.05314 1.17247 0
M  V30 3680 C 354.198 -2.13023 0.845812 0
M  V30 3681 C 355.211 -1.62096 -0.151246 0
M  V30 3682 O 356.4 -1.78343 0.0748818 0
M  V30 3683 C 353.5 -3.38047 0.240292 0
M  V30 3684 C 352.673 -4.18255 1.27991 0
M  V30 3685 C 351.732 -5.21625 0.692375 0
M  V30 3686 O 350.758 -5.52619 1.36385 0
M  V30 3687 N 351.96 -5.78201 -0.516178 0
M  V30 3688 H 354.725 -2.41642 1.77283 0
M  V30 3689 H 352.286 -1.21401 1.07115 0
M  V30 3690 H 354.278 -4.04359 -0.16603 0
M  V30 3691 H 352.848 -3.06972 -0.590487 0
M  V30 3692 H 352.068 -3.47451 1.86203 0
M  V30 3693 H 353.356 -4.68643 1.98119 0
M  V30 3694 H 352.754 -5.55301 -1.07969 0
M  V30 3695 H 351.311 -6.4604 -0.86458 0
M  V30 3696 N 354.744 -0.972509 -1.24016 0
M  V30 3697 C 356.021 -0.553733 -1.87598 0
M  V30 3698 C 356.401 0.969158 -1.87538 0
M  V30 3699 O 355.749 1.84255 -1.35139 0
M  V30 3700 C 355.959 -1.15076 -3.29482 0
M  V30 3701 C 357.307 -1.23862 -4.06132 0
M  V30 3702 O 358.331 -1.10363 -3.38672 0
M  V30 3703 O 357.19 -1.45252 -5.26844 0
M  V30 3704 H 354.284 -0.185331 -0.805966 0
M  V30 3705 H 356.83 -1.06709 -1.31952 0
M  V30 3706 H 355.602 -2.19333 -3.2405 0
M  V30 3707 H 355.225 -0.621746 -3.92709 0
M  V30 3708 N 356.222 1.38976 -0.743202 0
M  V30 3709 C 357.447 2.05161 -0.303936 0
M  V30 3710 C 357.872 1.55677 1.05576 0
M  V30 3711 O 357.23 0.704131 1.67068 0
M  V30 3712 C 357.278 3.59138 -0.324373 0
M  V30 3713 O 356.382 4.06668 0.685204 0
M  V30 3714 H 355.723 0.649815 -0.136518 0
M  V30 3715 H 358.253 1.77852 -1.01142 0
M  V30 3716 H 358.263 4.07639 -0.171618 0
M  V30 3717 H 356.938 3.94515 -1.31647 0
M  V30 3718 H 355.515 3.69561 0.497913 0
M  V30 3719 N 357.7 0.491464 1.49741 0
M  V30 3720 C 358.61 -0.296835 2.32715 0
M  V30 3721 C 359.626 -0.976536 1.44013 0
M  V30 3722 O 360.802 -0.960023 1.77047 0
M  V30 3723 C 357.867 -1.35288 3.19215 0
M  V30 3724 C 356.928 -0.687632 4.23757 0
M  V30 3725 C 356.161 -1.69336 5.06123 0
M  V30 3726 O 356.384 -2.92219 4.89861 0
M  V30 3727 O 355.318 -1.25394 5.88693 0
M  V30 3728 H 359.144 0.382048 3.01287 0
M  V30 3729 H 356.729 0.252953 1.47243 0
M  V30 3730 H 358.611 -1.96411 3.72828 0
M  V30 3731 H 357.286 -2.01487 2.53347 0
M  V30 3732 H 356.193 -0.0369159 3.74082 0
M  V30 3733 H 357.526 -0.0682566 4.92153 0
M  V30 3734 N 359.178 -1.55987 0.224894 0
M  V30 3735 C 360.141 -2.19178 -0.670348 0
M  V30 3736 C 361.141 -1.15461 -1.11917 0
M  V30 3737 O 362.331 -1.40675 -1.02743 0
M  V30 3738 C 359.463 -2.81777 -1.9187 0
M  V30 3739 H 360.656 -2.99662 -0.119364 0
M  V30 3740 H 358.209 -1.5628 -0.0247128 0
M  V30 3741 H 358.944 -2.05172 -2.51147 0
M  V30 3742 H 358.729 -3.57732 -1.60531 0
M  V30 3743 H 360.219 -3.30205 -2.55645 0
M  V30 3744 N 360.656 0.0484629 -1.57525 0
M  V30 3745 C 361.566 1.07241 -2.08654 0
M  V30 3746 C 362.582 1.409 -1.02095 0
M  V30 3747 O 363.758 1.50609 -1.33712 0
M  V30 3748 C 360.823 2.36008 -2.5397 0
M  V30 3749 C 359.884 2.09108 -3.7493 0
M  V30 3750 C 359.117 3.31736 -4.18075 0
M  V30 3751 O 359.34 4.41714 -3.60895 0
M  V30 3752 O 358.274 3.18576 -5.10679 0
M  V30 3753 H 362.1 0.667965 -2.96263 0
M  V30 3754 H 359.685 0.26417 -1.47046 0
M  V30 3755 H 361.567 3.11747 -2.83535 0
M  V30 3756 H 360.242 2.75786 -1.69481 0
M  V30 3757 H 359.149 1.31 -3.50414 0
M  V30 3758 H 360.482 1.74198 -4.60343 0
M  V30 3759 N 362.134 1.5431 0.320358 0
M  V30 3760 C 363.383 1.7188 1.05546 0
M  V30 3761 C 363.696 0.501143 1.89071 0
M  V30 3762 O 364.902 0.558258 2.65699 0
M  V30 3763 C 363.358 3.04025 1.92605 0
M  V30 3764 C 362.966 4.33207 1.14176 0
M  V30 3765 C 364.71 3.30959 2.65832 0
M  V30 3766 C 362.617 5.56412 2.00399 0
M  V30 3767 H 361.547 0.640547 0.397763 0
M  V30 3768 H 364.198 1.80802 0.313522 0
M  V30 3769 H 362.58 2.89019 2.7071 0
M  V30 3770 H 363.754 4.58989 0.40819 0
M  V30 3771 H 362.069 4.13062 0.526165 0
M  V30 3772 H 364.666 4.20203 3.30656 0
M  V30 3773 H 365.009 2.48979 3.33639 0
M  V30 3774 H 365.542 3.46847 1.94787 0
M  V30 3775 H 362.281 6.41004 1.37094 0
M  V30 3776 H 361.801 5.34844 2.7148 0
M  V30 3777 H 363.48 5.92938 2.58908 0
M  V30 3778 N 363.613 -0.582584 1.46437 0
M  V30 3779 C 364.862 -1.337 1.5102 0
M  V30 3780 C 365.175 -1.94891 0.166359 0
M  V30 3781 O 366.381 -2.71351 0.0899954 0
M  V30 3782 C 364.837 -2.42315 2.66104 0
M  V30 3783 C 364.445 -1.87427 4.06909 0
M  V30 3784 C 366.189 -3.19099 2.79958 0
M  V30 3785 C 364.096 -2.93672 5.13333 0
M  V30 3786 H 363.026 -0.502619 0.562041 0
M  V30 3787 H 365.677 -0.621701 1.72647 0
M  V30 3788 H 364.059 -3.16645 2.37807 0
M  V30 3789 H 365.233 -1.19639 4.44998 0
M  V30 3790 H 363.548 -1.2331 3.97723 0
M  V30 3791 H 366.145 -3.9839 3.56636 0
M  V30 3792 H 366.488 -3.71695 1.87479 0
M  V30 3793 H 367.021 -2.51875 3.07902 0
M  V30 3794 H 363.76 -2.45962 6.07604 0
M  V30 3795 H 363.28 -3.59948 4.79789 0
M  V30 3796 H 364.959 -3.5762 5.39182 0
M  V30 3797 N 365.091 -1.34144 -0.827227 0
M  V30 3798 C 366.319 -1.29325 -1.61501 0
M  V30 3799 C 366.734 0.13354 -1.88327 0
M  V30 3800 O 366.091 1.0793 -1.47164 0
M  V30 3801 C 366.142 -2.07746 -2.95844 0
M  V30 3802 O 365.863 -3.4486 -2.70191 0
M  V30 3803 C 367.364 -2.10273 -3.90256 0
M  V30 3804 H 364.584 -0.445069 -0.50215 0
M  V30 3805 H 367.128 -1.76693 -1.02955 0
M  V30 3806 H 365.283 -1.6403 -3.5096 0
M  V30 3807 H 365.697 -3.85345 -3.55822 0
M  V30 3808 H 367.171 -2.69575 -4.81698 0
M  V30 3809 H 367.648 -1.096 -4.25305 0
M  V30 3810 H 368.254 -2.54059 -3.41078 0
M  V30 3811 N 366.569 1.04691 -1.17803 0
M  V30 3812 C 367.794 1.81984 -0.994813 0
M  V30 3813 C 368.219 1.82586 0.452112 0
M  V30 3814 O 367.577 1.23854 1.324 0
M  V30 3815 C 367.625 3.2575 -1.54659 0
M  V30 3816 O 366.729 4.05267 -0.763728 0
M  V30 3817 H 366.07 0.562483 -0.352857 0
M  V30 3818 H 368.6 1.3189 -1.56417 0
M  V30 3819 H 368.61 3.76541 -1.57102 0
M  V30 3820 H 367.285 3.24627 -2.59981 0
M  V30 3821 H 365.862 3.63972 -0.811108 0
M  V30 3822 N 368.047 0.979072 1.23499 0
M  V30 3823 C 368.994 0.517904 2.24914 0
M  V30 3824 C 369.964 -0.442525 1.60097 0
M  V30 3825 O 371.149 -0.350365 1.87556 0
M  V30 3826 C 368.289 -0.174813 3.44657 0
M  V30 3827 C 367.402 0.825721 4.24035 0
M  V30 3828 C 366.537 0.107946 5.3109 0
M  V30 3829 C 365.576 1.09778 6.02175 0
M  V30 3830 N 364.713 0.40925 7.00906 0
M  V30 3831 H 369.553 1.38751 2.63727 0
M  V30 3832 H 367.09 0.695303 1.2963 0
M  V30 3833 H 369.048 -0.593233 4.12961 0
M  V30 3834 H 367.678 -1.0083 3.06648 0
M  V30 3835 H 366.73 1.36253 3.55161 0
M  V30 3836 H 368.042 1.58005 4.73113 0
M  V30 3837 H 367.196 -0.367904 6.05583 0
M  V30 3838 H 365.935 -0.678994 4.8295 0
M  V30 3839 H 364.94 1.5844 5.26476 0
M  V30 3840 H 366.165 1.88536 6.52404 0
M  V30 3841 H 364.111 -0.358506 6.5502 0
M  V30 3842 H 364.028 1.10226 7.47921 0
M  V30 3843 H 365.296 -0.0442557 7.79487 0
M  V30 3844 N 369.525 -1.3858 0.750561 0
M  V30 3845 C 370.75 -2.04997 0.314812 0
M  V30 3846 C 371.175 -1.56235 -1.04749 0
M  V30 3847 O 370.533 -0.712981 -1.66692 0
M  V30 3848 C 370.581 -3.58961 0.343415 0
M  V30 3849 O 369.685 -4.07025 -0.663628 0
M  V30 3850 H 369.026 -0.649081 0.139962 0
M  V30 3851 H 371.556 -1.77313 1.02084 0
M  V30 3852 H 371.566 -4.07542 0.193233 0
M  V30 3853 H 370.241 -3.93811 1.33738 0
M  V30 3854 H 368.818 -3.6982 -0.478307 0
M  V30 3855 N 371.003 -0.499398 -1.49478 0
M  V30 3856 C 371.935 0.316575 -2.27003 0
M  V30 3857 C 372.948 0.932047 -1.33479 0
M  V30 3858 O 374.137 0.815658 -1.58774 0
M  V30 3859 C 371.237 1.46055 -3.05812 0
M  V30 3860 C 370.41 0.952679 -4.26899 0
M  V30 3861 C 369.469 1.97407 -4.87767 0
M  V30 3862 O 368.495 1.54326 -5.4788 0
M  V30 3863 N 369.697 3.30436 -4.77276 0
M  V30 3864 H 372.462 -0.348168 -2.97671 0
M  V30 3865 H 370.023 -0.33185 -1.58463 0
M  V30 3866 H 372.015 2.14135 -3.43407 0
M  V30 3867 H 370.585 2.02948 -2.37762 0
M  V30 3868 H 369.805 0.0968248 -3.94081 0
M  V30 3869 H 371.093 0.59174 -5.05347 0
M  V30 3870 H 370.491 3.68126 -4.29534 0
M  V30 3871 H 369.048 3.94235 -5.19059 0
M  V30 3872 N 372.481 1.55866 -0.233164 0
M  V30 3873 C 373.391 2.24431 0.683217 0
M  V30 3874 C 374.407 1.2558 1.2044 0
M  V30 3875 O 375.583 1.58422 1.24356 0
M  V30 3876 C 372.648 2.91979 1.86947 0
M  V30 3877 C 371.709 4.06204 1.38912 0
M  V30 3878 C 370.942 4.70522 2.51883 0
M  V30 3879 O 371.165 4.33865 3.70293 0
M  V30 3880 O 370.099 5.59296 2.22423 0
M  V30 3881 H 373.925 3.03426 0.129059 0
M  V30 3882 H 371.51 1.494 -0.0022283 0
M  V30 3883 H 373.392 3.34573 2.56201 0
M  V30 3884 H 372.067 2.15935 2.41151 0
M  V30 3885 H 370.974 3.68155 0.664259 0
M  V30 3886 H 372.307 4.84025 0.893328 0
M  V30 3887 N 373.959 -0.0401083 1.57549 0
M  V30 3888 C 374.907 -1.06264 2.06908 0
M  V30 3889 C 375.901 -1.38132 0.980608 0
M  V30 3890 O 377.107 -1.37167 1.16556 0
M  V30 3891 H 373.482 -0.360166 0.660139 0
M  V30 3892 H 375.453 -0.620445 2.91878 0
M  V30 3893 C 374.202 -2.35846 2.55483 0
M  V30 3894 H 373.525 -2.12183 3.38849 0
M  V30 3895 H 374.965 -3.05765 2.93741 0
M  V30 3896 C 373.424 -3.0404 1.45126 0
M  V30 3897 O 373.954 -3.93424 0.811216 0
M  V30 3898 N 372.16 -2.65184 1.18852 0
M  V30 3899 H 371.707 -1.92584 1.71083 0
M  V30 3900 H 371.665 -3.1113 0.452244 0
M  V30 3901 N 375.437 -1.54477 -0.31217 0
M  V30 3902 C 376.683 -1.73483 -1.0503 0
M  V30 3903 C 377.016 -0.513125 -1.87298 0
M  V30 3904 O 376.291 0.489864 -1.8823 0
M  V30 3905 C 376.574 -3.01723 -1.96558 0
M  V30 3906 C 376.427 -4.3417 -1.17545 0
M  V30 3907 C 377.746 -3.25772 -2.95907 0
M  V30 3908 H 374.865 -0.631222 -0.380432 0
M  V30 3909 H 377.507 -1.87184 -0.325932 0
M  V30 3910 H 375.657 -2.90174 -2.58324 0
M  V30 3911 H 377.329 -4.5762 -0.581513 0
M  V30 3912 H 375.572 -4.31159 -0.477925 0
M  V30 3913 H 376.243 -5.20143 -1.84811 0
M  V30 3914 H 378.719 -3.36857 -2.44267 0
M  V30 3915 H 377.595 -4.16838 -3.57123 0
M  V30 3916 H 377.856 -2.43537 -3.68974 0
M  V30 3917 N 376.915 0.57481 -1.46744 0
M  V30 3918 C 378.145 1.35659 -1.55821 0
M  V30 3919 C 378.553 1.88129 -0.201036 0
M  V30 3920 O 377.896 1.64723 0.813134 0
M  V30 3921 C 377.958 2.57473 -2.50894 0
M  V30 3922 C 377.622 2.26415 -3.9697 0
M  V30 3923 C 378.619 1.84771 -4.85958 0
M  V30 3924 C 376.304 2.38316 -4.42166 0
M  V30 3925 C 378.298 1.55434 -6.18158 0
M  V30 3926 C 375.985 2.08591 -5.74398 0
M  V30 3927 C 376.983 1.67216 -6.62214 0
M  V30 3928 O 376.671 1.37859 -7.91991 0
M  V30 3929 H 376.403 0.420496 -0.529301 0
M  V30 3930 H 378.957 0.704967 -1.92923 0
M  V30 3931 H 377.187 3.25468 -2.08824 0
M  V30 3932 H 378.876 3.19546 -2.50291 0
M  V30 3933 H 379.642 1.75085 -4.52295 0
M  V30 3934 H 375.521 2.69483 -3.74032 0
M  V30 3935 H 379.065 1.23065 -6.86659 0
M  V30 3936 H 374.962 2.17905 -6.07608 0
M  V30 3937 H 375.73 1.51638 -8.04331 0
M  V30 3938 N 378.394 1.34581 0.820102 0
M  V30 3939 C 379.624 1.29991 1.6058 0
M  V30 3940 C 380.032 -0.127588 1.88769 0
M  V30 3941 O 379.375 -1.08595 1.48165 0
M  V30 3942 C 379.437 2.02548 2.9701 0
M  V30 3943 C 379.101 3.51794 2.91701 0
M  V30 3944 C 380.098 4.46647 2.66087 0
M  V30 3945 C 377.783 3.94249 3.11245 0
M  V30 3946 C 379.777 5.81929 2.60071 0
M  V30 3947 C 377.464 5.2963 3.04853 0
M  V30 3948 C 378.462 6.23282 2.793 0
M  V30 3949 O 378.15 7.56181 2.72847 0
M  V30 3950 H 377.882 0.448539 0.505756 0
M  V30 3951 H 380.436 1.77811 1.02822 0
M  V30 3952 H 378.666 1.49345 3.56697 0
M  V30 3953 H 380.355 1.91211 3.58041 0
M  V30 3954 H 381.121 4.15168 2.5072 0
M  V30 3955 H 377 3.21749 3.30149 0
M  V30 3956 H 380.544 6.54999 2.40046 0
M  V30 3957 H 376.441 5.60727 3.19774 0
M  V30 3958 H 377.209 7.6595 2.88553 0
M  V30 3959 N 379.872 -1.04064 1.18357 0
M  V30 3960 C 381.12 -1.76915 0.977013 0
M  V30 3961 C 381.441 -1.88624 -0.494577 0
M  V30 3962 O 380.711 -1.41125 -1.3587 0
M  V30 3963 H 379.291 -0.65535 0.358504 0
M  V30 3964 H 381.953 -1.25592 1.49039 0
M  V30 3965 H 381.049 -2.78178 1.41504 0
M  V30 3966 N 381.35 -0.985608 -1.22978 0
M  V30 3967 C 382.298 -0.522631 -2.26652 0
M  V30 3968 C 383.292 0.422998 -1.64034 0
M  V30 3969 O 384.498 0.296319 -1.77544 0
M  V30 3970 H 380.873 -0.150597 -0.736766 0
M  V30 3971 H 382.844 -1.40863 -2.63059 0
M  V30 3972 C 381.593 0.154238 -3.47358 0
M  V30 3973 H 380.916 -0.564329 -3.95797 0
M  V30 3974 H 382.356 0.441744 -4.21693 0
M  V30 3975 C 380.815 1.38719 -3.07016 0
M  V30 3976 O 381.345 2.48307 -3.15764 0
M  V30 3977 N 379.551 1.25975 -2.61875 0
M  V30 3978 H 379.098 0.368068 -2.54957 0
M  V30 3979 H 379.056 2.08578 -2.3525 0
M  V30 3980 N 382.828 1.3818 -0.7579 0
M  V30 3981 C 384.056 2.04301 -0.326937 0
M  V30 3982 C 384.471 1.57163 1.0462 0
M  V30 3983 O 383.828 0.746626 1.66529 0
M  V30 3984 C 383.879 3.59846 -0.345363 0
M  V30 3985 O 383.6 4.05256 -1.66432 0
M  V30 3986 C 385.101 4.4319 0.098927 0
M  V30 3987 H 382.321 0.656443 -0.139012 0
M  V30 3988 H 384.865 1.76786 -1.02796 0
M  V30 3989 H 383.02 3.86182 0.306955 0
M  V30 3990 H 383.434 4.99709 -1.59345 0
M  V30 3991 H 384.908 5.51989 0.0348745 0
M  V30 3992 H 385.385 4.23947 1.14741 0
M  V30 3993 H 385.991 4.22051 -0.52468 0
M  V30 3994 N 384.306 0.507319 1.49211 0
M  V30 3995 C 385.536 -0.0315292 2.06576 0
M  V30 3996 C 385.944 -1.30791 1.36713 0
M  V30 3997 O 385.287 -1.78324 0.441181 0
M  V30 3998 C 385.349 -0.349104 3.57801 0
M  V30 3999 C 385.013 0.830475 4.49391 0
M  V30 4000 C 386.01 1.72271 4.90529 0
M  V30 4001 C 383.695 1.03107 4.91604 0
M  V30 4002 C 385.689 2.79964 5.72625 0
M  V30 4003 C 383.376 2.11116 5.73475 0
M  V30 4004 C 384.374 2.99379 6.1389 0
M  V30 4005 O 384.062 4.05523 6.94123 0
M  V30 4006 H 383.794 0.0201002 0.675701 0
M  V30 4007 H 386.348 0.705737 1.92895 0
M  V30 4008 H 384.578 -1.14005 3.69513 0
M  V30 4009 H 386.267 -0.827319 3.97379 0
M  V30 4010 H 387.033 1.57958 4.58557 0
M  V30 4011 H 382.912 0.353417 4.59643 0
M  V30 4012 H 386.456 3.48884 6.04091 0
M  V30 4013 H 382.353 2.25421 6.0486 0
M  V30 4014 H 383.121 4.02953 7.1244 0
M  V30 4015 N 385.784 -1.5574 0.241426 0
M  V30 4016 C 386.714 -2.24133 -0.654722 0
M  V30 4017 C 387.695 -1.21974 -1.1856 0
M  V30 4018 O 388.88 -1.50612 -1.22595 0
M  V30 4019 C 386.01 -2.93659 -1.85423 0
M  V30 4020 C 384.964 -4.0246 -1.45636 0
M  V30 4021 C 384.29 -4.59383 -2.73626 0
M  V30 4022 C 385.59 -5.18468 -0.631506 0
M  V30 4023 H 387.284 -2.99281 -0.0844353 0
M  V30 4024 H 384.83 -1.43947 -0.0391707 0
M  V30 4025 H 386.783 -3.40203 -2.48676 0
M  V30 4026 H 385.507 -2.15991 -2.44981 0
M  V30 4027 H 384.166 -3.56676 -0.847202 0
M  V30 4028 H 383.814 -3.78422 -3.3137 0
M  V30 4029 H 383.514 -5.32826 -2.4773 0
M  V30 4030 H 385.038 -5.08658 -3.37786 0
M  V30 4031 H 386.452 -5.61272 -1.1682 0
M  V30 4032 H 384.849 -5.98266 -0.468831 0
M  V30 4033 H 385.919 -4.8358 0.357506 0
M  V30 4034 N 387.262 0.0317525 -1.57568 0
M  V30 4035 C 388.21 1.05165 -2.07468 0
M  V30 4036 C 389.204 1.3761 -0.98792 0
M  V30 4037 O 390.41 1.36546 -1.17282 0
M  V30 4038 H 386.785 0.35666 -0.66204 0
M  V30 4039 H 388.756 0.604958 -2.92203 0
M  V30 4040 C 387.505 2.34488 -2.56731 0
M  V30 4041 H 386.828 2.10383 -3.39969 0
M  V30 4042 H 388.268 3.04203 -2.95358 0
M  V30 4043 C 386.727 3.03266 -1.46736 0
M  V30 4044 O 387.257 3.92988 -0.832069 0
M  V30 4045 N 385.463 2.6455 -1.20256 0
M  V30 4046 H 385.01 1.91674 -1.72102 0
M  V30 4047 H 384.968 3.10886 -0.468737 0
M  V30 4048 N 388.74 1.54641 0.303973 0
M  V30 4049 C 389.98 1.75516 1.04755 0
M  V30 4050 C 390.344 0.528211 1.84591 0
M  V30 4051 O 391.545 0.614645 2.61678 0
M  V30 4052 C 389.816 3.00685 1.93193 0
M  V30 4053 S 391.375 3.42549 2.74237 0
M  V30 4054 H 388.193 0.616987 0.353339 0
M  V30 4055 H 390.795 1.92842 0.321292 0
M  V30 4056 H 389.499 3.8811 1.33411 0
M  V30 4057 H 389.03 2.85937 2.70191 0
M  V30 4058 H 391.045 2.99386 3.95705 0
M  V30 4059 N 390.218 -0.567019 1.47046 0
M  V30 4060 C 391.15 -1.68985 1.54844 0
M  V30 4061 C 392.163 -1.56869 0.435431 0
M  V30 4062 O 393.352 -1.64006 0.70457 0
M  V30 4063 C 390.452 -3.07373 1.42742 0
M  V30 4064 C 389.625 -3.45339 2.6844 0
M  V30 4065 C 388.684 -4.62849 2.50314 0
M  V30 4066 O 387.71 -4.67922 3.24095 0
M  V30 4067 N 388.912 -5.58726 1.57499 0
M  V30 4068 H 391.677 -1.62745 2.51663 0
M  V30 4069 H 389.238 -0.753411 1.43302 0
M  V30 4070 H 391.23 -3.83803 1.28365 0
M  V30 4071 H 389.8 -3.07893 0.540445 0
M  V30 4072 H 389.02 -2.58455 2.97648 0
M  V30 4073 H 390.308 -3.67476 3.51907 0
M  V30 4074 H 389.706 -5.57376 0.966876 0
M  V30 4075 H 388.263 -6.34523 1.49078 0
M  V30 4076 N 391.696 -1.35014 -0.812953 0
M  V30 4077 C 392.944 -1.27678 -1.56661 0
M  V30 4078 C 393.265 0.150359 -1.94419 0
M  V30 4079 O 392.535 1.08532 -1.63088 0
M  V30 4080 H 391.115 -0.469602 -0.580933 0
M  V30 4081 H 393.777 -1.69043 -0.970076 0
M  V30 4082 H 392.873 -1.88833 -2.48492 0
M  V30 4083 N 393.175 1.03435 -1.18907 0
M  V30 4084 C 394.403 1.80381 -1.01342 0
M  V30 4085 C 394.818 1.83649 0.438005 0
M  V30 4086 O 394.175 1.27655 1.30424 0
M  V30 4087 C 394.226 3.25689 -1.56873 0
M  V30 4088 O 393.947 3.22673 -2.96334 0
M  V30 4089 C 395.448 4.19255 -1.44014 0
M  V30 4090 H 392.668 0.56784 -0.35749 0
M  V30 4091 H 395.212 1.30317 -1.576 0
M  V30 4092 H 393.367 3.72962 -1.04777 0
M  V30 4093 H 393.781 4.13748 -3.22355 0
M  V30 4094 H 395.255 5.19123 -1.87657 0
M  V30 4095 H 395.732 4.37467 -0.389815 0
M  V30 4096 H 396.338 3.77851 -1.95214 0
M  V30 4097 N 394.653 0.992116 1.22453 0
M  V30 4098 C 395.586 0.486701 2.22949 0
M  V30 4099 C 396.564 -0.45259 1.56174 0
M  V30 4100 O 397.748 -0.378317 1.84665 0
M  V30 4101 C 394.875 -0.294537 3.37417 0
M  V30 4102 C 393.921 0.590628 4.22391 0
M  V30 4103 S 394.754 2.04546 4.94895 0
M  V30 4104 C 395.91 1.27369 6.12803 0
M  V30 4105 H 396.143 1.33828 2.65475 0
M  V30 4106 H 393.676 0.799023 1.32117 0
M  V30 4107 H 395.634 -0.739241 4.03789 0
M  V30 4108 H 394.295 -1.12139 2.934 0
M  V30 4109 H 393.488 -0.0104375 5.03999 0
M  V30 4110 H 393.09 0.972064 3.61147 0
M  V30 4111 H 395.382 0.540943 6.75337 0
M  V30 4112 H 396.325 2.06502 6.7732 0
M  V30 4113 H 396.733 0.787324 5.58983 0
M  V30 4114 N 396.131 -1.37776 0.765217 0
M  V30 4115 C 397.079 -2.32209 0.134798 0
M  V30 4116 C 398.073 -1.54607 -0.692315 0
M  V30 4117 O 399.279 -1.70052 -0.590109 0
M  V30 4118 H 395.654 -0.751591 0.0248005 0
M  V30 4119 H 397.625 -2.8297 0.947119 0
M  V30 4120 C 396.374 -3.39841 -0.735063 0
M  V30 4121 H 395.697 -3.99654 -0.107991 0
M  V30 4122 H 397.137 -4.08296 -1.14326 0
M  V30 4123 C 395.596 -2.79378 -1.88281 0
M  V30 4124 O 396.126 -2.69608 -2.97783 0
M  V30 4125 N 394.332 -2.37016 -1.68142 0
M  V30 4126 H 393.879 -2.45162 -0.790772 0
M  V30 4127 H 393.837 -1.96905 -2.45104 0
M  V30 4128 N 397.609 -0.515225 -1.4894 0
M  V30 4129 C 398.856 0.024215 -2.02486 0
M  V30 4130 C 399.184 1.35671 -1.39368 0
M  V30 4131 O 398.439 1.88566 -0.523574 0
M  V30 4132 C 398.738 0.210595 -3.56779 0
M  V30 4133 C 398.404 -1.04569 -4.38607 0
M  V30 4134 C 397.066 -1.39002 -4.60686 0
M  V30 4135 C 399.418 -1.88008 -4.86109 0
M  V30 4136 C 396.746 -2.568 -5.27514 0
M  V30 4137 C 399.098 -3.04972 -5.54234 0
M  V30 4138 C 397.762 -3.39768 -5.74555 0
M  V30 4139 H 397.032 0.00886088 -0.740947 0
M  V30 4140 H 399.679 -0.678263 -1.79086 0
M  V30 4141 H 397.984 0.99572 -3.78936 0
M  V30 4142 H 399.681 0.642659 -3.95817 0
M  V30 4143 H 396.271 -0.767497 -4.21672 0
M  V30 4144 H 400.455 -1.62719 -4.68867 0
M  V30 4145 H 395.711 -2.8398 -5.41447 0
M  V30 4146 H 399.885 -3.69943 -5.90013 0
M  V30 4147 H 397.512 -4.31148 -6.26112 0
M  V30 4148 N 399.087 1.5561 -0.249682 0
M  V30 4149 C 400.503 1.59254 0.105103 0
M  V30 4150 C 400.703 1.26685 1.56694 0
M  V30 4151 O 399.759 1.0155 2.31179 0
M  V30 4152 C 401.072 2.99687 -0.246592 0
M  V30 4153 C 402.62 3.12416 -0.191118 0
M  V30 4154 C 403.095 4.55074 -0.516885 0
M  V30 4155 N 404.586 4.60835 -0.467489 0
M  V30 4156 C 405.321 5.69201 -0.69268 0
M  V30 4157 N 404.817 6.85817 -0.981146 0
M  V30 4158 N 406.61 5.58635 -0.623198 0
M  V30 4159 H 398.761 1.75049 -1.20298 0
M  V30 4160 H 401.024 0.815003 -0.484225 0
M  V30 4161 H 400.73 3.28267 -1.26228 0
M  V30 4162 H 400.604 3.74798 0.424962 0
M  V30 4163 H 402.991 2.83615 0.815247 0
M  V30 4164 H 403.072 2.39573 -0.896563 0
M  V30 4165 H 402.716 4.84596 -1.52082 0
M  V30 4166 H 402.646 5.26181 0.210068 0
M  V30 4167 H 405.137 3.7705 -0.253373 0
M  V30 4168 H 405.45 7.64341 -1.14032 0
M  V30 4169 H 403.795 6.87494 -1.01865 0
M  V30 4170 H 406.986 4.66406 -0.397863 0
M  V30 4171 H 407.159 6.43017 -0.802093 0
M  V30 4172 N 400.565 -0.0233959 1.57583 0
M  V30 4173 C 401.515 -1.03023 2.03397 0
M  V30 4174 C 402.499 -1.31701 0.924315 0
M  V30 4175 O 403.691 -1.31191 1.18819 0
M  V30 4176 C 400.82 -2.32961 2.52159 0
M  V30 4177 C 399.906 -2.07349 3.69956 0
M  V30 4178 N 400.297 -1.51814 4.82479 0
M  V30 4179 C 398.595 -2.37606 3.77438 0
M  V30 4180 C 399.296 -1.42136 5.64068 0
M  V30 4181 N 398.272 -1.89891 5.09355 0
M  V30 4182 H 402.074 -0.594962 2.87815 0
M  V30 4183 H 399.588 -0.229586 1.60769 0
M  V30 4184 H 401.585 -3.05906 2.83244 0
M  V30 4185 H 400.245 -2.77162 1.69149 0
M  V30 4186 H 401.256 -1.20008 5.03804 0
M  V30 4187 H 397.933 -2.84842 3.05239 0
M  V30 4188 H 399.323 -0.996405 6.64471 0
M  V30 4189 N 402.043 -1.548 -0.295768 0
M  V30 4190 C 403.291 -1.73985 -1.02828 0
M  V30 4191 C 403.612 -0.531406 -1.87619 0
M  V30 4192 O 402.882 0.454221 -1.90561 0
M  V30 4193 H 401.462 -0.641556 -0.382642 0
M  V30 4194 H 404.124 -1.92163 -0.325489 0
M  V30 4195 H 403.22 -2.63129 -1.67838 0
M  V30 4196 N 403.521 0.559213 -1.47345 0
M  V30 4197 C 404.798 1.31997 -1.44348 0
M  V30 4198 C 405.178 2.1064 -0.139358 0
M  V30 4199 O 404.526 2.1091 0.879153 0
M  V30 4200 C 404.736 2.22618 -2.68779 0
M  V30 4201 C 406.084 2.83701 -3.1591 0
M  V30 4202 O 407.108 2.32921 -2.69493 0
M  V30 4203 O 405.967 3.75993 -3.966 0
M  V30 4204 H 403.061 0.594251 -0.575147 0
M  V30 4205 H 405.607 0.578282 -1.59543 0
M  V30 4206 H 404.379 1.64093 -3.55231 0
M  V30 4207 H 404.002 3.04085 -2.5616 0
M  V30 4208 N 404.999 1.35443 0.805782 0
M  V30 4209 C 405.949 1.24972 1.90699 0
M  V30 4210 C 406.933 0.144806 1.60247 0
M  V30 4211 O 408.125 0.376102 1.72958 0
M  V30 4212 C 405.254 1.02475 3.27649 0
M  V30 4213 C 404.34 2.17361 3.64164 0
M  V30 4214 N 404.731 3.42591 3.72109 0
M  V30 4215 C 403.029 2.08765 3.94123 0
M  V30 4216 C 403.73 4.18144 4.04389 0
M  V30 4217 N 402.706 3.4691 4.18515 0
M  V30 4218 H 406.508 2.19852 1.95044 0
M  V30 4219 H 404.022 1.27928 1.00041 0
M  V30 4220 H 406.019 0.930617 4.06381 0
M  V30 4221 H 404.679 0.0848009 3.24589 0
M  V30 4222 H 405.69 3.76932 3.55166 0
M  V30 4223 H 402.367 1.22629 3.99084 0
M  V30 4224 H 403.757 5.26367 4.17597 0
M  V30 4225 N 406.477 -1.02803 1.19454 0
M  V30 4226 C 407.409 -2.11181 0.890807 0
M  V30 4227 C 408.422 -1.6238 -0.116829 0
M  V30 4228 O 409.611 -1.78144 0.112694 0
M  V30 4229 C 406.711 -3.37461 0.311942 0
M  V30 4230 C 405.884 -4.15446 1.36834 0
M  V30 4231 C 404.943 -5.20039 0.802864 0
M  V30 4232 O 403.969 -5.49602 1.48077 0
M  V30 4233 N 405.171 -5.79165 -0.393417 0
M  V30 4234 H 407.936 -2.37827 1.82369 0
M  V30 4235 H 405.497 -1.19101 1.09666 0
M  V30 4236 H 407.489 -4.0462 -0.0802225 0
M  V30 4237 H 406.059 -3.08156 -0.52524 0
M  V30 4238 H 405.279 -3.43423 1.93531 0
M  V30 4239 H 406.567 -4.64335 2.08015 0
M  V30 4240 H 405.965 -5.57466 -0.961658 0
M  V30 4241 H 404.522 -6.47729 -0.727351 0
M  V30 4242 N 407.956 -0.998596 -1.21925 0
M  V30 4243 C 409.202 -0.678667 -1.91107 0
M  V30 4244 C 409.535 0.78791 -1.77498 0
M  V30 4245 O 408.81 1.57043 -1.1475 0
M  V30 4246 C 409.093 -1.09245 -3.43129 0
M  V30 4247 C 408.946 -2.61801 -3.6576 0
M  V30 4248 C 410.265 -0.649984 -4.35274 0
M  V30 4249 H 407.384 -0.248025 -0.694012 0
M  V30 4250 H 410.026 -1.24314 -1.43688 0
M  V30 4251 H 408.176 -0.612171 -3.83647 0
M  V30 4252 H 409.848 -3.17543 -3.34611 0
M  V30 4253 H 408.091 -3.03609 -3.09845 0
M  V30 4254 H 408.762 -2.85804 -4.7225 0
M  V30 4255 H 411.238 -1.0626 -4.02303 0
M  V30 4256 H 410.114 -0.967743 -5.40302 0
M  V30 4257 H 410.375 0.449139 -4.39813 0
M  V30 4258 N 409.434 1.37368 -0.772513 0
M  V30 4259 C 410.397 2.28601 -0.165541 0
M  V30 4260 C 411.397 1.48062 0.627238 0
M  V30 4261 O 412.587 1.68268 0.450715 0
M  V30 4262 C 409.719 3.32023 0.772897 0
M  V30 4263 H 410.912 2.83787 -0.969787 0
M  V30 4264 H 408.465 1.46647 -0.540775 0
M  V30 4265 H 409.2 2.81962 1.60212 0
M  V30 4266 H 408.985 3.91555 0.206585 0
M  V30 4267 H 410.475 4.00197 1.19298 0
M  V30 4268 N 410.912 0.523116 1.48665 0
M  V30 4269 C 412.161 -0.01544 2.01694 0
M  V30 4270 C 412.474 -1.35975 1.40606 0
M  V30 4271 O 413.68 -1.98627 1.85093 0
M  V30 4272 C 412.136 -0.0779303 3.59816 0
M  V30 4273 C 411.744 1.26107 4.29885 0
M  V30 4274 C 413.488 -0.565678 4.20714 0
M  V30 4275 C 411.395 1.15954 5.79921 0
M  V30 4276 H 410.325 -0.00954163 0.75394 0
M  V30 4277 H 412.976 0.665865 1.70993 0
M  V30 4278 H 411.358 -0.824165 3.87329 0
M  V30 4279 H 412.532 2.02233 4.14051 0
M  V30 4280 H 410.847 1.68401 3.80828 0
M  V30 4281 H 413.444 -0.6595 5.30617 0
M  V30 4282 H 413.787 -1.56984 3.85567 0
M  V30 4283 H 414.32 0.12467 3.97605 0
M  V30 4284 H 411.059 2.13864 6.19631 0
M  V30 4285 H 410.579 0.439529 5.98187 0
M  V30 4286 H 412.258 0.847361 6.41427 0
M  V30 4287 N 412.39 -1.55475 0.257931 0
M  V30 4288 C 413.338 -2.23244 -0.653076 0
M  V30 4289 C 414.332 -1.22366 -1.17144 0
M  V30 4290 O 415.538 -1.40347 -1.12706 0
M  V30 4291 H 411.913 -0.716247 -0.229117 0
M  V30 4292 H 413.884 -2.98343 -0.0584788 0
M  V30 4293 C 412.633 -2.95401 -1.83395 0
M  V30 4294 H 411.956 -3.72802 -1.44424 0
M  V30 4295 H 413.396 -3.46165 -2.44838 0
M  V30 4296 C 411.855 -1.99895 -2.71189 0
M  V30 4297 O 412.385 -1.53909 -3.71046 0
M  V30 4298 N 410.591 -1.6676 -2.3799 0
M  V30 4299 H 410.138 -2.04352 -1.56837 0
M  V30 4300 H 410.096 -1.03127 -2.97005 0
M  V30 4301 N 413.868 0.0150385 -1.57593 0
M  V30 4302 C 414.816 1.02958 -2.08572 0
M  V30 4303 C 415.81 1.36554 -1.00246 0
M  V30 4304 O 417.016 1.35295 -1.18724 0
M  V30 4305 H 413.391 0.349619 -0.665786 0
M  V30 4306 H 415.362 0.573932 -2.92829 0
M  V30 4307 C 414.111 2.31752 -2.59203 0
M  V30 4308 H 413.434 2.06765 -3.42182 0
M  V30 4309 H 414.874 3.01053 -2.98568 0
M  V30 4310 C 413.333 3.01692 -1.49945 0
M  V30 4311 O 413.863 3.92083 -0.873704 0
M  V30 4312 N 412.069 2.6326 -1.23056 0
M  V30 4313 H 411.616 1.89838 -1.74125 0
M  V30 4314 H 411.574 3.10372 -0.501685 0
M  V30 4315 N 415.346 1.54954 0.287554 0
M  V30 4316 C 416.593 1.74873 1.02106 0
M  V30 4317 C 416.921 0.541829 1.86801 0
M  V30 4318 O 416.176 -0.475992 1.89823 0
M  V30 4319 C 416.475 2.99833 1.94512 0
M  V30 4320 C 416.141 4.33029 1.25686 0
M  V30 4321 C 414.803 4.69233 1.06649 0
M  V30 4322 C 417.155 5.15542 0.765913 0
M  V30 4323 C 414.483 5.85518 0.372222 0
M  V30 4324 C 416.835 6.32542 0.0853101 0
M  V30 4325 C 415.499 6.67398 -0.1169 0
M  V30 4326 H 414.769 0.639906 0.373632 0
M  V30 4327 H 417.416 1.89219 0.294665 0
M  V30 4328 H 415.721 2.80325 2.73725 0
M  V30 4329 H 417.418 3.1244 2.51361 0
M  V30 4330 H 414.008 4.04564 1.41512 0
M  V30 4331 H 418.192 4.88059 0.90066 0
M  V30 4332 H 413.448 6.11057 0.204695 0
M  V30 4333 H 417.622 6.95741 -0.302936 0
M  V30 4334 H 415.249 7.57357 -0.656859 0
M  V30 4335 N 416.824 -0.551391 1.4764 0
M  V30 4336 C 418.054 -1.33163 1.57959 0
M  V30 4337 C 418.462 -1.87785 0.23094 0
M  V30 4338 O 417.805 -1.65996 -0.786825 0
M  V30 4339 C 417.867 -2.53449 2.54958 0
M  V30 4340 C 417.531 -2.20071 4.00522 0
M  V30 4341 C 418.528 -1.77017 4.88836 0
M  V30 4342 C 416.213 -2.31252 4.45901 0
M  V30 4343 C 418.207 -1.4558 6.20552 0
M  V30 4344 C 415.894 -1.99427 5.77644 0
M  V30 4345 C 416.892 -1.56659 6.64791 0
M  V30 4346 O 416.58 -1.25242 7.94084 0
M  V30 4347 H 416.312 -0.412022 0.535923 0
M  V30 4348 H 418.866 -0.674186 1.9402 0
M  V30 4349 H 417.096 -3.22104 2.13976 0
M  V30 4350 H 418.785 -3.15523 2.55343 0
M  V30 4351 H 419.551 -1.67867 4.55023 0
M  V30 4352 H 415.43 -2.63498 3.78272 0
M  V30 4353 H 418.974 -1.12125 6.8853 0
M  V30 4354 H 414.871 -2.08211 6.10998 0
M  V30 4355 H 415.639 -1.38822 8.06642 0
M  V30 4356 N 418.302 -1.35869 -0.798587 0
M  V30 4357 C 419.551 -1.28921 -1.5512 0
M  V30 4358 C 419.864 0.13208 -1.95154 0
M  V30 4359 O 421.07 0.323879 -2.69561 0
M  V30 4360 C 419.526 -2.26141 -2.79979 0
M  V30 4361 C 419.134 -3.73658 -2.47151 0
M  V30 4362 C 420.878 -2.28152 -3.57976 0
M  V30 4363 C 418.785 -4.62679 -3.6835 0
M  V30 4364 H 417.715 -0.479031 -0.582276 0
M  V30 4365 H 420.366 -1.61179 -0.877125 0
M  V30 4366 H 418.748 -1.86865 -3.49138 0
M  V30 4367 H 419.922 -4.21616 -1.85947 0
M  V30 4368 H 418.237 -3.74333 -1.82383 0
M  V30 4369 H 420.834 -2.91875 -4.4801 0
M  V30 4370 H 421.177 -1.28748 -3.95891 0
M  V30 4371 H 421.71 -2.65998 -2.95787 0
M  V30 4372 H 418.449 -5.63111 -3.35538 0
M  V30 4373 H 417.969 -4.19442 -4.28752 0
M  V30 4374 H 419.648 -4.78498 -4.35487 0
M  V30 4375 N 419.78 1.02168 -1.19998 0
M  V30 4376 C 421.028 1.75338 -1.00504 0
M  V30 4377 C 421.349 1.89387 0.464506 0
M  V30 4378 O 420.619 1.43268 1.33608 0
M  V30 4379 H 419.199 0.649564 -0.368885 0
M  V30 4380 H 421.861 1.23205 -1.51018 0
M  V30 4381 H 420.957 2.75892 -1.45912 0
M  V30 4382 N 421.258 1.00505 1.21394 0
M  V30 4383 C 422.206 0.558623 2.25792 0
M  V30 4384 C 423.2 -0.396848 1.64686 0
M  V30 4385 O 424.406 -0.268035 1.77993 0
M  V30 4386 H 420.781 0.1623 0.734277 0
M  V30 4387 H 422.752 1.4503 2.60785 0
M  V30 4388 C 421.501 -0.0989574 3.47559 0
M  V30 4389 H 420.824 0.627225 3.94849 0
M  V30 4390 H 422.264 -0.3746 4.22342 0
M  V30 4391 C 420.723 -1.33817 3.09184 0
M  V30 4392 O 421.253 -2.43252 3.19674 0
M  V30 4393 N 419.459 -1.21793 2.63846 0
M  V30 4394 H 419.006 -0.32746 2.5551 0
M  V30 4395 H 418.964 -2.04809 2.38539 0
M  V30 4396 N 422.737 -1.36956 0.779787 0
M  V30 4397 C 424.014 -1.93697 0.272156 0
M  V30 4398 C 424.394 -1.71267 -1.23413 0
M  V30 4399 O 423.742 -1.06607 -2.02107 0
M  V30 4400 C 423.952 -3.42812 0.654291 0
M  V30 4401 C 425.3 -4.19921 0.628602 0
M  V30 4402 O 426.324 -3.51209 0.594172 0
M  V30 4403 O 425.183 -5.42465 0.662864 0
M  V30 4404 H 422.277 -0.824447 0.0649286 0
M  V30 4405 H 424.823 -1.46196 0.861682 0
M  V30 4406 H 423.595 -3.52754 1.69353 0
M  V30 4407 H 423.218 -3.97582 0.0381369 0
M  V30 4408 N 424.215 -0.530993 -1.48385 0
M  V30 4409 C 425.147 0.268353 -2.27624 0
M  V30 4410 C 426.16 0.903525 -1.35426 0
M  V30 4411 O 427.349 0.781796 -1.60469 0
M  V30 4412 C 424.449 1.39535 -3.08842 0
M  V30 4413 C 423.622 0.861913 -4.28824 0
M  V30 4414 C 422.681 1.87016 -4.91845 0
M  V30 4415 O 421.707 1.4267 -5.5103 0
M  V30 4416 N 422.909 3.20238 -4.84178 0
M  V30 4417 H 425.674 -0.41123 -2.96865 0
M  V30 4418 H 423.235 -0.365387 -1.57723 0
M  V30 4419 H 425.227 2.06803 -3.47871 0
M  V30 4420 H 423.797 1.97859 -2.42014 0
M  V30 4421 H 423.017 0.0132126 -3.94198 0
M  V30 4422 H 424.305 0.484415 -5.06489 0
M  V30 4423 H 423.703 3.58932 -4.37246 0
M  V30 4424 H 422.26 3.83136 -5.27305 0
M  V30 4425 N 425.693 1.55336 -0.266172 0
M  V30 4426 C 427.109 1.59356 0.0882065 0
M  V30 4427 C 427.309 1.2834 1.55342 0
M  V30 4428 O 426.365 1.03996 2.30089 0
M  V30 4429 C 427.678 2.99409 -0.278364 0
M  V30 4430 C 429.226 3.12196 -0.224243 0
M  V30 4431 C 429.701 4.545 -0.565123 0
M  V30 4432 N 431.192 4.60313 -0.51634 0
M  V30 4433 C 431.927 5.68434 -0.753013 0
M  V30 4434 N 431.423 6.84738 -1.05383 0
M  V30 4435 N 433.216 5.57942 -0.682414 0
M  V30 4436 H 425.367 1.73764 -1.22147 0
M  V30 4437 H 427.63 0.809822 -0.492841 0
M  V30 4438 H 427.336 3.2691 -1.29703 0
M  V30 4439 H 427.21 3.75228 0.385186 0
M  V30 4440 H 429.597 2.84464 0.78512 0
M  V30 4441 H 429.678 2.38609 -0.921922 0
M  V30 4442 H 429.322 4.82956 -1.57213 0
M  V30 4443 H 429.252 5.26374 0.154248 0
M  V30 4444 H 431.743 3.7676 -0.29335 0
M  V30 4445 H 432.056 7.63088 -1.22133 0
M  V30 4446 H 430.401 6.86375 -1.09151 0
M  V30 4447 H 433.592 4.65958 -0.44731 0
M  V30 4448 H 433.765 6.4213 -0.870248 0
M  V30 4449 N 427.171 -0.0066808 1.57599 0
M  V30 4450 C 428.418 -0.69292 1.90276 0
M  V30 4451 C 428.746 -1.74148 0.866192 0
M  V30 4452 O 428.001 -1.95268 -0.129933 0
M  V30 4453 C 428.3 -1.37939 3.29708 0
M  V30 4454 C 427.966 -0.464679 4.48499 0
M  V30 4455 C 426.628 -0.212809 4.80729 0
M  V30 4456 C 428.98 0.16551 5.20937 0
M  V30 4457 C 426.308 0.677653 5.82773 0
M  V30 4458 C 428.66 1.04381 6.23929 0
M  V30 4459 C 427.324 1.30492 6.54621 0
M  V30 4460 H 426.594 -0.253558 0.696268 0
M  V30 4461 H 429.241 0.0474123 1.91441 0
M  V30 4462 H 427.546 -2.1936 3.24636 0
M  V30 4463 H 429.243 -1.9163 3.52249 0
M  V30 4464 H 425.833 -0.671153 4.23313 0
M  V30 4465 H 430.017 -0.0160756 4.96297 0
M  V30 4466 H 425.273 0.88803 6.04917 0
M  V30 4467 H 429.447 1.53851 6.79193 0
M  V30 4468 H 427.074 1.99662 7.33512 0
M  V30 4469 N 428.649 -1.55105 -0.279332 0
M  V30 4470 C 429.897 -1.75066 -1.00977 0
M  V30 4471 C 430.218 -0.551276 -1.87045 0
M  V30 4472 O 429.488 0.433984 -1.91032 0
M  V30 4473 H 428.068 -0.645578 -0.375816 0
M  V30 4474 H 430.73 -1.92497 -0.305089 0
M  V30 4475 H 429.826 -2.64894 -1.65038 0
M  V30 4476 N 430.127 0.543554 -1.4793 0
M  V30 4477 C 431.357 1.32324 -1.58663 0
M  V30 4478 C 431.765 1.8766 -0.240896 0
M  V30 4479 O 431.108 1.66411 0.778011 0
M  V30 4480 C 431.17 2.52094 -2.56299 0
M  V30 4481 C 430.834 2.17944 -4.01683 0
M  V30 4482 C 431.831 1.74422 -4.89768 0
M  V30 4483 C 429.516 2.28884 -4.47121 0
M  V30 4484 C 431.51 1.42287 -6.21316 0
M  V30 4485 C 429.197 1.96361 -5.78693 0
M  V30 4486 C 430.195 1.53132 -6.65612 0
M  V30 4487 O 429.883 1.21029 -7.94737 0
M  V30 4488 H 429.615 0.409174 -0.538101 0
M  V30 4489 H 432.169 0.663887 -1.94375 0
M  V30 4490 H 430.399 3.20965 -2.15681 0
M  V30 4491 H 432.088 3.14165 -2.57012 0
M  V30 4492 H 432.854 1.65452 -4.55907 0
M  V30 4493 H 428.733 2.61488 -3.79664 0
M  V30 4494 H 432.277 1.08472 -6.89115 0
M  V30 4495 H 428.174 2.04967 -6.12094 0
M  V30 4496 H 428.942 1.34543 -8.07366 0
M  V30 4497 N 431.605 1.3629 0.791371 0
M  V30 4498 C 432.853 1.30154 1.5461 0
M  V30 4499 C 433.174 -0.119409 1.94634 0
M  V30 4500 O 432.444 -1.05924 1.64794 0
M  V30 4501 H 431.024 0.478784 0.573389 0
M  V30 4502 H 433.686 1.70565 0.94306 0
M  V30 4503 H 432.782 1.92762 2.45457 0
M  V30 4504 N 433.083 -1.0153 1.20538 0
M  V30 4505 C 434.331 -1.74803 1.01432 0
M  V30 4506 C 434.652 -1.8963 -0.454456 0
M  V30 4507 O 433.922 -1.43975 -1.32846 0
M  V30 4508 H 432.502 -0.647598 0.372324 0
M  V30 4509 H 435.164 -1.22402 1.5167 0
M  V30 4510 H 434.26 -2.75114 1.47373 0
M  V30 4511 N 434.561 -1.01147 -1.20859 0
M  V30 4512 C 435.494 -0.522108 -2.22147 0
M  V30 4513 C 436.472 0.427686 -1.56874 0
M  V30 4514 O 437.656 0.34889 -1.85243 0
M  V30 4515 C 434.783 0.240819 -3.37843 0
M  V30 4516 C 433.829 -0.657752 -4.21398 0
M  V30 4517 S 434.662 -2.12393 -4.91578 0
M  V30 4518 C 435.818 -1.37102 -6.10699 0
M  V30 4519 H 436.051 -1.38035 -2.63313 0
M  V30 4520 H 433.584 -0.819941 -1.30829 0
M  V30 4521 H 435.542 0.674908 -4.04914 0
M  V30 4522 H 434.203 1.07457 -2.95147 0
M  V30 4523 H 433.396 -0.0697456 -5.03952 0
M  V30 4524 H 432.998 -1.0294 -3.59555 0
M  V30 4525 H 435.29 -0.648315 -6.74391 0
M  V30 4526 H 436.233 -2.17252 -6.73949 0
M  V30 4527 H 436.641 -0.876154 -5.57659 0
M  V30 4528 N 436.039 1.36541 -0.78704 0
M  V30 4529 C 437.286 1.99304 -0.358341 0
M  V30 4530 C 437.614 1.62467 1.06933 0
M  V30 4531 O 436.869 0.870019 1.75297 0
M  V30 4532 C 437.168 3.54343 -0.466485 0
M  V30 4533 C 436.834 4.10993 -1.85461 0
M  V30 4534 C 435.496 4.26177 -2.23443 0
M  V30 4535 C 437.848 4.41895 -2.76366 0
M  V30 4536 C 435.176 4.69573 -3.51736 0
M  V30 4537 C 437.528 4.86722 -4.04084 0
M  V30 4538 C 436.192 5.00112 -4.42091 0
M  V30 4539 H 435.462 0.729306 -0.131126 0
M  V30 4540 H 438.109 1.63068 -1.00404 0
M  V30 4541 H 436.414 3.90918 0.262719 0
M  V30 4542 H 438.111 4.00833 -0.115854 0
M  V30 4543 H 434.701 3.99612 -1.54946 0
M  V30 4544 H 438.885 4.29735 -2.48277 0
M  V30 4545 H 434.141 4.78127 -3.81057 0
M  V30 4546 H 438.315 5.09598 -4.7464 0
M  V30 4547 H 435.942 5.33498 -5.41557 0
M  V30 4548 N 437.518 0.538854 1.48102 0
M  V30 4549 C 438.764 0.00801365 2.02798 0
M  V30 4550 C 439.097 -1.3309 1.41424 0
M  V30 4551 O 438.372 -1.86169 0.563158 0
M  V30 4552 C 438.655 -0.104589 3.59948 0
M  V30 4553 C 438.508 1.26012 4.31788 0
M  V30 4554 C 439.827 -0.827055 4.32259 0
M  V30 4555 H 436.946 0.00438624 0.736987 0
M  V30 4556 H 439.588 0.6976 1.7673 0
M  V30 4557 H 437.738 -0.691893 3.82289 0
M  V30 4558 H 439.41 1.88922 4.2084 0
M  V30 4559 H 437.653 1.83968 3.92859 0
M  V30 4560 H 438.324 1.13424 5.40221 0
M  V30 4561 H 440.8 -0.328578 4.14801 0
M  V30 4562 H 439.676 -0.87476 5.41885 0
M  V30 4563 H 439.937 -1.87927 4.0017 0
M  V30 4564 N 438.996 -1.55193 0.274407 0
M  V30 4565 C 440.242 -2.00604 -0.33608 0
M  V30 4566 C 440.597 -1.15948 -1.53538 0
M  V30 4567 O 439.89 -0.221385 -1.90317 0
M  V30 4568 C 440.084 -3.49019 -0.769458 0
M  V30 4569 C 439.913 -4.48038 0.386301 0
M  V30 4570 C 438.683 -4.97757 0.869854 0
M  V30 4571 C 440.881 -4.99558 1.22254 0
M  V30 4572 N 438.863 -5.80575 1.99515 0
M  V30 4573 C 440.234 -5.79816 2.19575 0
M  V30 4574 C 442.289 -4.81799 1.25597 0
M  V30 4575 C 440.992 -6.44208 3.19981 0
M  V30 4576 C 443.018 -5.46989 2.24848 0
M  V30 4577 C 442.38 -6.27058 3.20901 0
M  V30 4578 H 438.479 -0.777013 -0.088172 0
M  V30 4579 H 441.063 -1.90583 0.398266 0
M  V30 4580 H 439.234 -3.59383 -1.47303 0
M  V30 4581 H 440.966 -3.81263 -1.35722 0
M  V30 4582 H 437.721 -4.71464 0.449281 0
M  V30 4583 H 438.145 -6.26675 2.5614 0
M  V30 4584 H 442.787 -4.19501 0.527158 0
M  V30 4585 H 440.505 -7.05656 3.93796 0
M  V30 4586 H 444.091 -5.35189 2.28174 0
M  V30 4587 H 442.971 -6.7661 3.96445 0
M  V30 4588 N 440.474 -0.00167713 -1.576 0
M  V30 4589 C 441.722 0.681471 -1.90264 0
M  V30 4590 C 442.043 1.7422 -0.875924 0
M  V30 4591 O 441.313 1.95709 0.0864412 0
M  V30 4592 H 439.893 0.254696 -0.702239 0
M  V30 4593 H 442.555 -0.0429996 -1.94853 0
M  V30 4594 H 441.651 1.15166 -2.90075 0
M  V30 4595 N 441.952 1.55251 0.271103 0
M  V30 4596 C 443.177 1.80306 1.02491 0
M  V30 4597 C 443.602 0.575457 1.79081 0
M  V30 4598 O 442.96 -0.474987 1.74967 0
M  V30 4599 C 443.008 3.02832 1.95768 0
M  V30 4600 O 442.112 2.78051 3.04568 0
M  V30 4601 H 441.453 0.595896 0.292923 0
M  V30 4602 H 443.983 2.02397 0.299436 0
M  V30 4603 H 443.993 3.31616 2.37686 0
M  V30 4604 H 442.668 3.9183 1.39434 0
M  V30 4605 H 441.245 2.60369 2.66951 0
M  V30 4606 N 443.43 -0.535701 1.48216 0
M  V30 4607 C 444.846 -0.863701 1.3421 0
M  V30 4608 C 445.046 -1.98458 0.34879 0
M  V30 4609 O 444.102 -2.51432 -0.23204 0
M  V30 4610 C 445.415 -1.23662 2.74095 0
M  V30 4611 C 446.963 -1.34683 2.82541 0
M  V30 4612 C 447.438 -1.75322 4.23115 0
M  V30 4613 N 448.929 -1.82434 4.2576 0
M  V30 4614 C 449.664 -2.15252 5.31464 0
M  V30 4615 N 449.16 -2.46533 6.47452 0
M  V30 4616 N 450.953 -2.16209 5.18855 0
M  V30 4617 H 443.104 0.203965 2.11418 0
M  V30 4618 H 445.367 0.0286033 0.947568 0
M  V30 4619 H 445.073 -0.486674 3.48316 0
M  V30 4620 H 444.947 -2.18805 3.07253 0
M  V30 4621 H 447.334 -2.08756 2.08579 0
M  V30 4622 H 447.415 -0.376756 2.5301 0
M  V30 4623 H 447.059 -1.01812 4.97591 0
M  V30 4624 H 446.989 -2.7337 4.50085 0
M  V30 4625 H 449.48 -1.6056 3.42095 0
M  V30 4626 H 449.793 -2.70662 7.23852 0
M  V30 4627 H 448.138 -2.44065 6.50736 0
M  V30 4628 H 451.329 -1.91224 4.2726 0
M  V30 4629 H 451.502 -2.41453 6.01335 0
M  V30 4630 N 444.908 -1.36708 -0.784132 0
M  V30 4631 C 445.858 -1.2799 -1.88686 0
M  V30 4632 C 446.842 -0.170282 -1.59996 0
M  V30 4633 O 448.034 -0.403571 -1.72338 0
M  V30 4634 C 445.163 -1.07674 -3.25977 0
M  V30 4635 C 444.249 -2.23127 -3.60659 0
M  V30 4636 N 444.64 -3.48467 -3.66612 0
M  V30 4637 C 442.938 -2.15009 -3.90752 0
M  V30 4638 C 443.639 -4.24525 -3.97685 0
M  V30 4639 N 442.615 -3.53524 -4.12943 0
M  V30 4640 H 446.417 -2.22927 -1.91522 0
M  V30 4641 H 443.931 -1.29503 -0.979933 0
M  V30 4642 H 445.928 -0.995151 -4.04849 0
M  V30 4643 H 444.588 -0.13643 -3.24413 0
M  V30 4644 H 445.599 -3.82534 -3.49125 0
M  V30 4645 H 442.276 -1.28963 -3.97083 0
M  V30 4646 H 443.666 -5.32944 -4.0917 0
M  V30 4647 N 446.386 1.0089 -1.21074 0
M  V30 4648 C 447.632 1.74866 -1.02712 0
M  V30 4649 C 447.965 1.89178 0.438787 0
M  V30 4650 O 447.24 1.42325 1.32567 0
M  V30 4651 C 447.523 3.16347 -1.72036 0
M  V30 4652 C 447.376 3.09782 -3.26121 0
M  V30 4653 C 448.695 4.15187 -1.45973 0
M  V30 4654 H 445.814 0.634736 -0.374539 0
M  V30 4655 H 448.456 1.17646 -1.49196 0
M  V30 4656 H 446.606 3.65201 -1.32517 0
M  V30 4657 H 448.278 2.68673 -3.74983 0
M  V30 4658 H 446.521 2.46982 -3.56626 0
M  V30 4659 H 447.192 4.09829 -3.6979 0
M  V30 4660 H 449.668 3.75022 -1.80272 0
M  V30 4661 H 448.544 5.12331 -1.96999 0
M  V30 4662 H 448.805 4.40386 -0.388924 0
M  V30 4663 N 447.864 1.01787 1.20321 0
M  V30 4664 C 449.113 0.703249 1.89043 0
M  V30 4665 C 449.426 -0.770445 1.79787 0
M  V30 4666 O 450.632 -1.19767 2.43656 0
M  V30 4667 C 449.088 1.20749 3.3904 0
M  V30 4668 C 448.696 2.70817 3.56878 0
M  V30 4669 C 450.44 0.968352 4.13308 0
M  V30 4670 C 448.347 3.14716 5.00708 0
M  V30 4671 H 447.277 0.259354 0.707991 0
M  V30 4672 H 449.928 1.23072 1.36108 0
M  V30 4673 H 448.31 0.607989 3.91305 0
M  V30 4674 H 449.484 3.36327 3.14993 0
M  V30 4675 H 447.799 2.92888 2.95983 0
M  V30 4676 H 450.396 1.27173 5.19356 0
M  V30 4677 H 450.739 -0.095149 4.16191 0
M  V30 4678 H 451.272 1.53129 3.67146 0
M  V30 4679 H 448.011 4.20347 5.02979 0
M  V30 4680 H 447.531 2.53927 5.43398 0
M  V30 4681 H 449.21 3.07426 5.69296 0
M  V30 4682 N 449.342 -1.36122 0.79427 0
M  V30 4683 C 450.305 -2.28309 0.201889 0
M  V30 4684 C 451.305 -1.49041 -0.603603 0
M  V30 4685 O 452.495 -1.68964 -0.423888 0
M  V30 4686 C 449.627 -3.3321 -0.719978 0
M  V30 4687 H 450.82 -2.82208 1.01481 0
M  V30 4688 H 448.373 -1.45768 0.564037 0
M  V30 4689 H 449.108 -2.84475 -1.55706 0
M  V30 4690 H 448.893 -3.91835 -0.144266 0
M  V30 4691 H 450.383 -4.02044 -1.12916 0
M  V30 4692 N 450.82 -0.546701 -1.47814 0
M  V30 4693 C 452.06 -0.0209604 -2.04389 0
M  V30 4694 C 452.424 1.29993 -1.413 0
M  V30 4695 O 453.625 1.91273 -1.8886 0
M  V30 4696 C 451.896 0.0812844 -3.57308 0
M  V30 4697 S 453.455 0.55467 -4.3528 0
M  V30 4698 H 450.273 -0.0200865 -0.710716 0
M  V30 4699 H 452.875 -0.731055 -1.81317 0
M  V30 4700 H 451.579 -0.884616 -4.00753 0
M  V30 4701 H 451.11 0.815253 -3.8486 0
M  V30 4702 H 453.125 1.81627 -4.61764 0
M  V30 4703 N 452.299 1.55045 -0.282633 0
M  V30 4704 C 453.247 2.24254 0.617478 0
M  V30 4705 C 454.241 1.24215 1.15183 0
M  V30 4706 O 455.447 1.42123 1.10459 0
M  V30 4707 H 451.822 0.719801 0.217693 0
M  V30 4708 H 453.793 2.98398 0.0110076 0
M  V30 4709 C 452.542 2.98281 1.78672 0
M  V30 4710 H 451.865 3.75053 1.38475 0
M  V30 4711 H 453.305 3.50017 2.393 0
M  V30 4712 C 451.764 2.04184 2.67975 0
M  V30 4713 O 452.294 1.59792 3.6855 0
M  V30 4714 N 450.5 1.70526 2.35307 0
M  V30 4715 H 450.047 2.06821 1.53567 0
M  V30 4716 H 450.005 1.07839 2.95327 0
M  V30 4717 N 453.777 0.010035 1.57597 0
M  V30 4718 C 455.007 -0.682422 1.95004 0
M  V30 4719 C 455.415 -1.67278 0.884014 0
M  V30 4720 O 454.758 -1.83129 -0.144672 0
M  V30 4721 C 454.82 -1.46141 3.28456 0
M  V30 4722 C 454.484 -0.631523 4.52615 0
M  V30 4723 C 455.481 0.0850905 5.1983 0
M  V30 4724 C 453.166 -0.574539 4.99003 0
M  V30 4725 C 455.16 0.847566 6.3174 0
M  V30 4726 C 452.847 0.191655 6.10799 0
M  V30 4727 C 453.845 0.901432 6.77025 0
M  V30 4728 O 453.533 1.65511 7.86677 0
M  V30 4729 H 453.265 -0.194361 0.647456 0
M  V30 4730 H 455.819 0.060312 2.05311 0
M  V30 4731 H 454.049 -2.24885 3.14585 0
M  V30 4732 H 455.738 -2.04016 3.50902 0
M  V30 4733 H 456.504 0.0502812 4.84974 0
M  V30 4734 H 452.383 -1.11654 4.47274 0
M  V30 4735 H 455.927 1.4021 6.83364 0
M  V30 4736 H 451.824 0.228249 6.45096 0
M  V30 4737 H 452.592 1.57287 8.03245 0
M  V30 4738 N 455.255 -1.55392 -0.262866 0
M  V30 4739 C 456.502 -1.76476 -0.993109 0
M  V30 4740 C 456.83 -0.571479 -1.85915 0
M  V30 4741 O 456.085 0.445733 -1.90556 0
M  V30 4742 C 456.384 -3.02889 -1.89718 0
M  V30 4743 C 456.05 -4.34974 -1.18781 0
M  V30 4744 C 454.712 -4.7087 -0.991699 0
M  V30 4745 C 457.064 -5.16695 -0.683798 0
M  V30 4746 C 454.392 -5.86036 -0.279024 0
M  V30 4747 C 456.744 -6.32598 0.0153327 0
M  V30 4748 C 455.408 -6.67127 0.223062 0
M  V30 4749 H 454.678 -0.64577 -0.363404 0
M  V30 4750 H 457.325 -1.89664 -0.264525 0
M  V30 4751 H 455.63 -2.84644 -2.6923 0
M  V30 4752 H 457.327 -3.16399 -2.46359 0
M  V30 4753 H 453.917 -4.06765 -1.35058 0
M  V30 4754 H 458.101 -4.8943 -0.8229 0
M  V30 4755 H 453.357 -6.11306 -0.107456 0
M  V30 4756 H 457.531 -6.95171 0.413584 0
M  V30 4757 H 455.158 -7.56216 0.777265 0
M  V30 4758 N 456.733 0.527833 -1.48498 0
M  V30 4759 C 457.643 1.65907 -1.65867 0
M  V30 4760 C 458.659 1.6537 -0.541192 0
M  V30 4761 O 459.835 1.84282 -0.812534 0
M  V30 4762 C 456.9 3.02364 -1.69637 0
M  V30 4763 C 455.961 3.1374 -2.93028 0
M  V30 4764 C 455.194 4.43688 -2.96609 0
M  V30 4765 O 455.417 5.30913 -2.08538 0
M  V30 4766 O 454.351 4.59475 -3.88802 0
M  V30 4767 H 458.177 1.5419 -2.61647 0
M  V30 4768 H 455.762 0.701163 -1.31924 0
M  V30 4769 H 457.644 3.83515 -1.74625 0
M  V30 4770 H 456.319 3.14401 -0.770312 0
M  V30 4771 H 455.226 2.31877 -2.93571 0
M  V30 4772 H 456.559 3.06621 -3.85026 0
M  V30 4773 N 458.211 1.37122 0.776871 0
M  V30 4774 C 459.141 1.35164 1.90402 0
M  V30 4775 C 460.122 0.221069 1.68657 0
M  V30 4776 O 461.307 0.420642 1.8959 0
M  V30 4777 C 458.437 1.15274 3.27611 0
M  V30 4778 C 457.391 2.25289 3.63908 0
M  V30 4779 C 456.717 1.90527 4.99603 0
M  V30 4780 C 458.017 3.67446 3.71188 0
M  V30 4781 H 459.711 2.29482 1.92297 0
M  V30 4782 H 457.257 1.10465 0.923773 0
M  V30 4783 H 459.21 1.12536 4.06096 0
M  V30 4784 H 457.934 0.174102 3.26136 0
M  V30 4785 H 456.593 2.27174 2.87728 0
M  V30 4786 H 456.241 0.91206 4.94662 0
M  V30 4787 H 455.941 2.64193 5.24858 0
M  V30 4788 H 457.465 1.89367 5.80493 0
M  V30 4789 H 458.879 3.67719 4.39836 0
M  V30 4790 H 457.276 4.40123 4.07936 0
M  V30 4791 H 458.346 4.01443 2.71977 0
M  V30 4792 N 459.689 -1.00246 1.21608 0
M  V30 4793 C 460.914 -1.78167 1.06167 0
M  V30 4794 C 461.339 -1.84138 -0.384035 0
M  V30 4795 O 460.697 -1.28683 -1.27712 0
M  V30 4796 C 460.745 -3.19786 1.66642 0
M  V30 4797 O 459.849 -4.02153 0.913613 0
M  V30 4798 H 459.19 -0.549 0.37349 0
M  V30 4799 H 461.72 -1.25994 1.61204 0
M  V30 4800 H 461.73 -3.70451 1.70969 0
M  V30 4801 H 460.405 -3.14754 2.7185 0
M  V30 4802 H 458.982 -3.60711 0.945635 0
M  V30 4803 N 461.167 -1.02423 -1.1978 0
M  V30 4804 C 462.077 -0.610919 -2.26506 0
M  V30 4805 C 463.093 0.355152 -1.70337 0
M  V30 4806 O 464.269 0.214195 -2.00258 0
M  V30 4807 C 461.334 0.0365921 -3.46681 0
M  V30 4808 C 460.395 -0.976389 -4.18049 0
M  V30 4809 C 459.628 -0.359683 -5.32487 0
M  V30 4810 O 459.851 0.838601 -5.64202 0
M  V30 4811 O 458.785 -1.08022 -5.92127 0
M  V30 4812 H 462.611 -1.49965 -2.64091 0
M  V30 4813 H 460.196 -0.794156 -1.26545 0
M  V30 4814 H 462.078 0.39786 -4.19518 0
M  V30 4815 H 460.753 0.899398 -3.10954 0
M  V30 4816 H 459.66 -1.38916 -3.47352 0
M  V30 4817 H 460.993 -1.80941 -4.57735 0
M  V30 4818 N 462.645 1.35699 -0.801477 0
M  V30 4819 C 463.873 2.03157 -0.391768 0
M  V30 4820 C 464.288 1.60412 0.995668 0
M  V30 4821 O 463.645 0.799228 1.64069 0
M  V30 4822 C 463.696 3.58566 -0.459671 0
M  V30 4823 O 463.417 3.99756 -1.7924 0
M  V30 4824 C 464.918 4.4328 -0.0421205 0
M  V30 4825 H 462.138 0.651688 -0.159825 0
M  V30 4826 H 464.682 1.73426 -1.08368 0
M  V30 4827 H 462.837 3.86963 0.183939 0
M  V30 4828 H 463.251 4.94387 -1.75162 0
M  V30 4829 H 464.725 5.51821 -0.140754 0
M  V30 4830 H 465.202 4.27383 1.01196 0
M  V30 4831 H 465.808 4.20168 -0.658687 0
M  V30 4832 N 464.123 0.554532 1.47522 0
M  V30 4833 C 465.372 0.0273458 2.01681 0
M  V30 4834 C 465.685 -1.32962 1.43459 0
M  V30 4835 O 466.891 -1.94657 1.89265 0
M  V30 4836 C 465.347 -0.00159057 3.599 0
M  V30 4837 C 464.955 1.35197 4.27113 0
M  V30 4838 C 466.699 -0.476311 4.21819 0
M  V30 4839 C 464.606 1.28229 5.77331 0
M  V30 4840 H 463.536 0.00645269 0.753972 0
M  V30 4841 H 466.187 0.701985 1.69542 0
M  V30 4842 H 464.569 -0.741821 3.8899 0
M  V30 4843 H 465.743 2.1097 4.09668 0
M  V30 4844 H 464.058 1.76441 3.77171 0
M  V30 4845 H 466.655 -0.5468 5.31897 0
M  V30 4846 H 466.998 -1.4877 3.8881 0
M  V30 4847 H 467.531 0.20898 3.97251 0
M  V30 4848 H 464.27 2.26959 6.14955 0
M  V30 4849 H 463.79 0.566314 5.97121 0
M  V30 4850 H 465.469 0.983226 6.39485 0
M  V30 4851 N 465.601 -1.54893 0.290851 0
M  V30 4852 C 466.548 -2.23138 -0.58974 0
M  V30 4853 C 467.518 -1.21036 -1.13752 0
M  V30 4854 O 468.703 -1.49626 -1.18392 0
M  V30 4855 C 465.843 -2.96811 -1.76061 0
M  V30 4856 C 464.956 -4.13665 -1.24519 0
M  V30 4857 C 464.091 -4.74944 -2.3791 0
M  V30 4858 C 463.13 -5.83963 -1.83451 0
M  V30 4859 N 462.267 -6.39239 -2.90376 0
M  V30 4860 H 467.107 -2.98 -0.00114915 0
M  V30 4861 H 464.644 -1.47096 0.0112006 0
M  V30 4862 H 466.602 -3.37751 -2.44909 0
M  V30 4863 H 465.232 -2.24344 -2.32098 0
M  V30 4864 H 464.284 -3.77737 -0.449288 0
M  V30 4865 H 465.596 -4.92238 -0.806424 0
M  V30 4866 H 464.75 -5.18684 -3.14724 0
M  V30 4867 H 463.489 -3.95682 -2.85109 0
M  V30 4868 H 462.494 -5.39657 -1.05122 0
M  V30 4869 H 463.719 -6.65103 -1.37169 0
M  V30 4870 H 461.665 -5.62864 -3.36927 0
M  V30 4871 H 461.582 -7.13129 -2.50965 0
M  V30 4872 H 462.85 -6.87637 -3.67118 0
M  V30 4873 N 467.08 -0.0183926 -1.57589 0
M  V30 4874 C 468.305 0.676634 -1.96052 0
M  V30 4875 C 468.73 1.6548 -0.894307 0
M  V30 4876 O 468.088 1.80712 0.145849 0
M  V30 4877 C 468.136 1.36872 -3.33614 0
M  V30 4878 O 467.24 2.48372 -3.29219 0
M  V30 4879 H 466.581 0.1786 -0.63953 0
M  V30 4880 H 469.111 -0.077056 -2.04455 0
M  V30 4881 H 469.121 1.72797 -3.69601 0
M  V30 4882 H 467.796 0.651636 -4.10763 0
M  V30 4883 H 466.373 2.14639 -3.04934 0
M  V30 4884 N 468.558 1.5553 0.254621 0
M  V30 4885 C 469.974 1.4778 0.602753 0
M  V30 4886 C 470.174 0.707047 1.88688 0
M  V30 4887 O 469.23 0.233288 2.5142 0
M  V30 4888 C 470.543 2.92133 0.712648 0
M  V30 4889 C 472.091 3.02458 0.805488 0
M  V30 4890 C 472.566 4.48102 0.947009 0
M  V30 4891 N 474.057 4.52008 1.01207 0
M  V30 4892 C 474.792 5.61939 1.1407 0
M  V30 4893 N 474.288 6.81697 1.23536 0
M  V30 4894 N 476.081 5.49719 1.17325 0
M  V30 4895 H 468.232 2.04085 -0.588463 0
M  V30 4896 H 470.495 0.926229 -0.202001 0
M  V30 4897 H 470.201 3.51332 -0.160766 0
M  V30 4898 H 470.075 3.42187 1.58707 0
M  V30 4899 H 472.462 2.43344 1.66936 0
M  V30 4900 H 472.543 2.55627 -0.0939266 0
M  V30 4901 H 472.187 5.07824 0.087725 0
M  V30 4902 H 472.117 4.92607 1.86135 0
M  V30 4903 H 474.608 3.65749 0.950577 0
M  V30 4904 H 474.921 7.61228 1.33236 0
M  V30 4905 H 473.266 6.84473 1.20508 0
M  V30 4906 H 476.457 4.55095 1.09573 0
M  V30 4907 H 476.63 6.35432 1.27005 0
M  V30 4908 N 470.036 -0.519951 1.48776 0
M  V30 4909 C 471.284 -1.2727 1.56993 0
M  V30 4910 C 471.605 -1.9339 0.25004 0
M  V30 4911 O 470.875 -1.81822 -0.729216 0
M  V30 4912 H 469.455 -0.472732 0.578389 0
M  V30 4913 H 472.117 -0.604234 1.85297 0
M  V30 4914 H 471.213 -2.04669 2.3562 0
M  V30 4915 N 471.514 -1.37532 -0.769588 0
M  V30 4916 C 472.462 -1.33561 -1.90432 0
M  V30 4917 C 473.456 -0.224027 -1.67912 0
M  V30 4918 O 474.662 -0.392174 -1.75676 0
M  V30 4919 H 471.037 -0.416279 -0.626271 0
M  V30 4920 H 473.008 -2.29348 -1.90899 0
M  V30 4921 C 471.757 -1.16162 -3.27722 0
M  V30 4922 H 471.08 -2.00951 -3.45628 0
M  V30 4923 H 472.52 -1.17434 -4.07413 0
M  V30 4924 C 470.979 0.132583 -3.36639 0
M  V30 4925 O 471.509 1.11539 -3.85904 0
M  V30 4926 N 469.715 0.184013 -2.90017 0
M  V30 4927 H 469.262 -0.616415 -2.50116 0
M  V30 4928 H 469.22 1.04956 -2.96364 0
M  V30 4929 N 472.992 0.995999 -1.22138 0
M  V30 4930 C 473.955 2.06711 -0.990109 0
M  V30 4931 C 474.955 1.60744 0.0422978 0
M  V30 4932 O 476.145 1.73095 -0.195895 0
M  V30 4933 C 473.277 3.37288 -0.49491 0
M  V30 4934 H 474.47 2.28661 -1.94047 0
M  V30 4935 H 472.023 1.16711 -1.03963 0
M  V30 4936 H 472.758 3.21022 0.459948 0
M  V30 4937 H 472.543 3.71986 -1.23971 0
M  V30 4938 H 474.033 4.16103 -0.353253 0
M  V30 4939 N 474.47 1.03057 1.19235 0
M  V30 4940 C 475.433 0.617418 2.20727 0
M  V30 4941 C 476.433 -0.319856 1.57587 0
M  V30 4942 O 477.623 -0.106633 1.73873 0
M  V30 4943 C 474.755 -0.096296 3.40764 0
M  V30 4944 H 475.948 1.51544 2.58794 0
M  V30 4945 H 473.501 0.821949 1.32942 0
M  V30 4946 H 474.236 -1.00859 3.08217 0
M  V30 4947 H 474.021 0.577217 3.87828 0
M  V30 4948 H 475.511 -0.372219 4.15938 0
M  V30 4949 N 475.948 -1.35272 0.808662 0
M  V30 4950 C 476.878 -2.32315 0.234981 0
M  V30 4951 C 477.859 -1.57572 -0.64071 0
M  V30 4952 O 479.044 -1.8563 -0.570551 0
M  V30 4953 C 476.174 -3.41801 -0.615601 0
M  V30 4954 C 475.128 -4.27694 0.161767 0
M  V30 4955 C 474.454 -5.28519 -0.810649 0
M  V30 4956 C 475.754 -5.04231 1.36193 0
M  V30 4957 H 477.448 -2.80543 1.04575 0
M  V30 4958 H 474.994 -1.3488 0.504315 0
M  V30 4959 H 476.947 -4.08693 -1.02702 0
M  V30 4960 H 475.671 -2.92186 -1.45928 0
M  V30 4961 H 474.33 -3.62384 0.554382 0
M  V30 4962 H 473.978 -4.75171 -1.64988 0
M  V30 4963 H 473.678 -5.8686 -0.294822 0
M  V30 4964 H 475.202 -5.98283 -1.22023 0
M  V30 4965 H 476.616 -5.64058 1.02528 0
M  V30 4966 H 475.013 -5.72077 1.81239 0
M  V30 4967 H 476.083 -4.34753 2.14751 0
M  V30 4968 N 477.426 -0.562348 -1.47226 0
M  V30 4969 C 478.656 -0.0451619 -2.06551 0
M  V30 4970 C 479.064 1.25626 -1.41473 0
M  V30 4971 O 478.407 1.76563 -0.507061 0
M  V30 4972 C 478.469 0.216068 -3.5885 0
M  V30 4973 C 478.133 -0.996691 -4.45999 0
M  V30 4974 C 479.13 -1.90358 -4.83797 0
M  V30 4975 C 476.815 -1.21281 -4.87438 0
M  V30 4976 C 478.809 -3.01023 -5.6184 0
M  V30 4977 C 476.496 -2.32255 -5.65244 0
M  V30 4978 C 477.494 -3.21956 -6.02356 0
M  V30 4979 O 477.182 -4.31005 -6.78594 0
M  V30 4980 H 476.914 -0.0451646 -0.67449 0
M  V30 4981 H 479.468 -0.776842 -1.90143 0
M  V30 4982 H 477.698 1.00212 -3.7349 0
M  V30 4983 H 479.387 0.679264 -4.00176 0
M  V30 4984 H 480.153 -1.74868 -4.52378 0
M  V30 4985 H 476.032 -0.523767 -4.58015 0
M  V30 4986 H 479.576 -3.71064 -5.90726 0
M  V30 4987 H 475.473 -2.47715 -5.96077 0
M  V30 4988 H 476.241 -4.29118 -6.96994 0
M  V30 4989 N 478.904 1.54736 -0.299062 0
M  V30 4990 C 479.834 2.26409 0.571085 0
M  V30 4991 C 480.815 1.2629 1.13951 0
M  V30 4992 O 482 1.55059 1.16921 0
M  V30 4993 C 479.13 3.00338 1.74396 0
M  V30 4994 C 478.084 4.07588 1.30599 0
M  V30 4995 C 477.41 4.69222 2.56387 0
M  V30 4996 C 478.71 5.20455 0.438645 0
M  V30 4997 H 480.404 2.99388 -0.0266991 0
M  V30 4998 H 477.95 1.43993 -0.0142812 0
M  V30 4999 H 479.903 3.49198 2.35878 0
M  V30 5000 H 478.627 2.24934 2.36796 0
M  V30 5001 H 477.286 3.59575 0.71424 0
M  V30 5002 H 476.934 3.9046 3.17097 0
M  V30 5003 H 476.634 5.41653 2.27784 0
M  V30 5004 H 478.158 5.20844 3.18675 0
M  V30 5005 H 479.572 5.65221 0.959085 0
M  V30 5006 H 477.969 5.99594 0.246466 0
M  V30 5007 H 479.039 4.8192 -0.536738 0
M  V30 5008 N 480.382 0.0267497 1.57577 0
M  V30 5009 C 481.33 -0.973923 2.11229 0
M  V30 5010 C 482.324 -1.33849 1.03831 0
M  V30 5011 O 483.53 -1.321 1.22269 0
M  V30 5012 H 479.905 -0.331844 0.674821 0
M  V30 5013 H 481.876 -0.496092 2.94247 0
M  V30 5014 C 480.625 -2.24798 2.65257 0
M  V30 5015 H 479.948 -1.9762 3.47543 0
M  V30 5016 H 481.388 -2.93031 3.06445 0
M  V30 5017 C 479.847 -2.97611 1.57891 0
M  V30 5018 O 480.377 -3.89629 0.97735 0
M  V30 5019 N 478.583 -2.59905 1.29992 0
M  V30 5020 H 478.13 -1.85154 1.79097 0
M  V30 5021 H 478.088 -3.08932 0.583798 0
M  V30 5022 N 481.861 -1.55662 -0.24637 0
M  V30 5023 C 483.272 -1.67953 -0.81539 0
M  V30 5024 C 483.623 -0.624302 -1.86002 0
M  V30 5025 O 482.748 0.229328 -2.15181 0
M  V30 5026 C 483.343 -3.04484 -1.48576 0
M  V30 5027 C 481.902 -3.18713 -2.00248 0
M  V30 5028 C 481.049 -2.6383 -0.853766 0
M  V30 5029 H 484 -1.58685 -0.0221692 0
M  V30 5030 H 484.021 -2.98959 -2.3538 0
M  V30 5031 H 483.533 -3.81264 -0.725222 0
M  V30 5032 H 481.634 -2.46757 -2.79181 0
M  V30 5033 H 481.747 -4.25628 -2.1995 0
M  V30 5034 H 480.111 -2.21667 -1.25442 0
M  V30 5035 H 480.894 -3.43135 -0.106302 0
M  V30 5036 N 483.339 0.512053 -1.4905 0
M  V30 5037 C 484.587 1.26436 -1.57665 0
M  V30 5038 C 484.908 1.93255 -0.260293 0
M  V30 5039 O 484.178 1.82206 0.719564 0
M  V30 5040 H 482.758 0.469658 -0.580888 0
M  V30 5041 H 485.42 0.594398 -1.85615 0
M  V30 5042 H 484.516 2.03417 -2.36702 0
M  V30 5043 N 484.817 1.37938 0.762283 0
M  V30 5044 C 485.78 1.34279 1.85747 0
M  V30 5045 C 486.78 0.244969 1.58923 0
M  V30 5046 O 487.97 0.501365 1.66829 0
M  V30 5047 C 485.102 1.08833 3.23061 0
M  V30 5048 H 486.295 2.31705 1.90401 0
M  V30 5049 H 483.848 1.23105 0.963057 0
M  V30 5050 H 484.583 0.119767 3.24079 0
M  V30 5051 H 484.368 1.88306 3.43923 0
M  V30 5052 H 485.858 1.08946 4.03138 0
M  V30 5053 N 486.295 -0.989507 1.22664 0
M  V30 5054 C 487.228 -2.07805 0.942985 0
M  V30 5055 C 488.206 -1.6219 -0.115356 0
M  V30 5056 O 489.39 -1.88492 0.0169565 0
M  V30 5057 C 486.517 -3.361 0.418898 0
M  V30 5058 C 485.563 -4.00643 1.46244 0
M  V30 5059 S 486.396 -4.41059 3.03689 0
M  V30 5060 C 487.552 -5.7252 2.52927 0
M  V30 5061 H 487.785 -2.31547 1.86476 0
M  V30 5062 H 485.318 -1.12446 1.05808 0
M  V30 5063 H 487.276 -4.10315 0.123114 0
M  V30 5064 H 485.937 -3.10383 -0.481818 0
M  V30 5065 H 485.13 -4.93033 1.04569 0
M  V30 5066 H 484.732 -3.32767 1.7071 0
M  V30 5067 H 487.024 -6.49017 1.94379 0
M  V30 5068 H 487.967 -6.19026 3.4382 0
M  V30 5069 H 488.375 -5.30083 1.94094 0
M  V30 5070 N 487.773 -1.03688 -1.18687 0
M  V30 5071 C 488.736 -0.629115 -2.20397 0
M  V30 5072 C 489.736 0.311495 -1.57754 0
M  V30 5073 O 490.926 0.0974107 -1.73927 0
M  V30 5074 C 488.058 0.0782231 -3.4081 0
M  V30 5075 H 489.251 -1.52915 -2.57987 0
M  V30 5076 H 486.804 -0.828988 -1.32505 0
M  V30 5077 H 487.539 0.992233 -3.08748 0
M  V30 5078 H 487.324 -0.597776 -3.87517 0
M  V30 5079 H 488.814 0.350156 -4.16129 0
M  V30 5080 N 489.251 1.34841 -0.815825 0
M  V30 5081 C 490.476 2.03261 -0.41226 0
M  V30 5082 C 490.901 1.61055 0.971751 0
M  V30 5083 O 490.259 0.7917 1.63101 0
M  V30 5084 C 490.307 3.56914 -0.514289 0
M  V30 5085 O 489.411 4.09728 0.468675 0
M  V30 5086 H 488.752 0.641664 -0.170771 0
M  V30 5087 H 491.282 1.72241 -1.10427 0
M  V30 5088 H 491.292 4.06156 -0.387457 0
M  V30 5089 H 489.967 3.86982 -1.52375 0
M  V30 5090 H 488.544 3.71681 0.301316 0
M  V30 5091 N 490.729 0.570148 1.46925 0
M  V30 5092 C 491.639 -0.173061 2.33961 0
M  V30 5093 C 492.655 -0.898825 1.48987 0
M  V30 5094 O 493.831 -0.864825 1.81887 0
M  V30 5095 C 490.896 -1.18177 3.25937 0
M  V30 5096 C 489.957 -0.462041 4.26806 0
M  V30 5097 C 489.19 -1.4227 5.14388 0
M  V30 5098 O 489.413 -2.65842 5.04662 0
M  V30 5099 O 488.347 -0.940127 5.94513 0
M  V30 5100 H 492.173 0.541216 2.98839 0
M  V30 5101 H 489.758 0.330647 1.45695 0
M  V30 5102 H 491.64 -1.76372 3.82715 0
M  V30 5103 H 490.315 -1.87774 2.63671 0
M  V30 5104 H 489.222 0.161429 3.73752 0
M  V30 5105 H 490.555 0.192719 4.91823 0
M  V30 5106 N 492.207 -1.54576 0.307264 0
M  V30 5107 C 493.157 -2.20467 -0.581249 0
M  V30 5108 C 494.141 -1.17972 -1.09414 0
M  V30 5109 O 495.333 -1.43667 -1.03387 0
M  V30 5110 C 492.462 -2.95369 -1.74963 0
M  V30 5111 C 491.548 -4.05186 -1.25241 0
M  V30 5112 N 491.939 -5.03577 -0.47364 0
M  V30 5113 C 490.237 -4.18841 -1.53259 0
M  V30 5114 C 490.938 -5.81328 -0.208083 0
M  V30 5115 N 489.914 -5.37834 -0.789651 0
M  V30 5116 H 493.716 -2.93892 0.0212221 0
M  V30 5117 H 491.23 -1.62011 0.112325 0
M  V30 5118 H 493.227 -3.41046 -2.39777 0
M  V30 5119 H 491.887 -2.23461 -2.35574 0
M  V30 5120 H 492.898 -5.17766 -0.117963 0
M  V30 5121 H 489.575 -3.58141 -2.14573 0
M  V30 5122 H 490.965 -6.706 0.417793 0
M  V30 5123 N 493.685 -0.035106 -1.57561 0
M  V30 5124 C 494.648 0.929819 -2.09492 0
M  V30 5125 C 495.648 1.25026 -1.01119 0
M  V30 5126 O 496.838 1.18961 -1.27255 0
M  V30 5127 C 493.97 2.24457 -2.56577 0
M  V30 5128 H 495.163 0.479935 -2.96035 0
M  V30 5129 H 492.716 0.213033 -1.54841 0
M  V30 5130 H 493.451 2.74061 -1.73382 0
M  V30 5131 H 493.236 2.02508 -3.35757 0
M  V30 5132 H 494.726 2.93607 -2.96959 0
M  V30 5133 N 495.163 1.55791 0.238111 0
M  V30 5134 C 496.093 1.94068 1.29846 0
M  V30 5135 C 497.074 0.806726 1.49753 0
M  V30 5136 O 498.259 1.06772 1.62214 0
M  V30 5137 C 495.389 2.24302 2.65153 0
M  V30 5138 C 494.343 3.40032 2.59927 0
M  V30 5139 C 493.669 3.55829 3.99111 0
M  V30 5140 C 494.969 4.75476 2.16148 0
M  V30 5141 H 496.663 2.82887 0.980563 0
M  V30 5142 H 494.209 1.36105 0.470253 0
M  V30 5143 H 496.162 2.4967 3.39475 0
M  V30 5144 H 494.886 1.32318 2.98596 0
M  V30 5145 H 493.545 3.14687 1.88063 0
M  V30 5146 H 493.193 2.6125 4.29834 0
M  V30 5147 H 492.893 4.3366 3.96501 0
M  V30 5148 H 494.417 3.83528 4.7512 0
M  V30 5149 H 495.831 5.00158 2.80205 0
M  V30 5150 H 494.228 5.56472 2.24631 0
M  V30 5151 H 495.298 4.71946 1.11333 0
M  V30 5152 N 496.642 -0.504142 1.49319 0
M  V30 5153 C 497.605 -1.5883 1.65244 0
M  V30 5154 C 498.605 -1.52009 0.524386 0
M  V30 5155 O 499.795 -1.55218 0.79077 0
M  V30 5156 C 496.927 -2.98481 1.64687 0
M  V30 5157 H 498.12 -1.4604 2.61939 0
M  V30 5158 H 495.673 -0.728144 1.38303 0
M  V30 5159 H 496.408 -3.16751 0.695644 0
M  V30 5160 H 496.193 -3.0484 2.46607 0
M  V30 5161 H 497.683 -3.77256 1.79075 0
M  V30 5162 N 498.12 -1.38341 -0.754957 0
M  V30 5163 C 499.367 -1.34473 -1.51404 0
M  V30 5164 C 499.695 0.0656458 -1.94389 0
M  V30 5165 O 498.95 1.04244 -1.65625 0
M  V30 5166 C 499.249 -2.2452 -2.78075 0
M  V30 5167 C 498.915 -3.72512 -2.54059 0
M  V30 5168 C 497.577 -4.1284 -2.47218 0
M  V30 5169 C 499.929 -4.66197 -2.33044 0
M  V30 5170 C 497.257 -5.44945 -2.17376 0
M  V30 5171 C 499.609 -5.98558 -2.04723 0
M  V30 5172 C 498.273 -6.37972 -1.96337 0
M  V30 5173 H 497.543 -0.492072 -0.554027 0
M  V30 5174 H 500.19 -1.70687 -0.868223 0
M  V30 5175 H 498.495 -1.81357 -3.473 0
M  V30 5176 H 500.192 -2.18832 -3.36026 0
M  V30 5177 H 496.782 -3.40538 -2.60253 0
M  V30 5178 H 500.966 -4.35888 -2.37309 0
M  V30 5179 H 496.222 -5.74426 -2.09391 0
M  V30 5180 H 500.396 -6.70693 -1.87465 0
M  V30 5181 H 498.023 -7.40258 -1.72978 0
M  V30 5182 N 499.598 0.982988 -1.23187 0
M  V30 5183 C 500.875 1.69814 -0.970707 0
M  V30 5184 C 501.255 2.04811 0.511424 0
M  V30 5185 O 500.603 1.73924 1.48198 0
M  V30 5186 C 500.813 2.94143 -1.87831 0
M  V30 5187 C 502.161 3.66712 -2.14026 0
M  V30 5188 O 503.185 3.04171 -1.8536 0
M  V30 5189 O 502.044 4.79258 -2.62629 0
M  V30 5190 H 499.138 0.741659 -0.365884 0
M  V30 5191 H 501.684 1.03844 -1.34218 0
M  V30 5192 H 500.456 2.64858 -2.88038 0
M  V30 5193 H 500.079 3.6785 -1.50905 0
M  V30 5194 N 501.076 1.04316 1.18135 0
M  V30 5195 C 502.009 0.580823 2.20685 0
M  V30 5196 C 502.987 -0.385943 1.57953 0
M  V30 5197 O 504.171 -0.299654 1.86103 0
M  V30 5198 C 501.298 -0.151162 3.38363 0
M  V30 5199 C 500.344 0.769247 4.19505 0
M  V30 5200 S 501.177 2.25352 4.85774 0
M  V30 5201 C 502.333 1.53246 6.0685 0
M  V30 5202 H 502.566 1.44968 2.5956 0
M  V30 5203 H 500.099 0.85434 1.28609 0
M  V30 5204 H 502.057 -0.567315 4.06561 0
M  V30 5205 H 500.718 -0.995936 2.97892 0
M  V30 5206 H 499.911 0.203335 5.0359 0
M  V30 5207 H 499.513 1.12436 3.56699 0
M  V30 5208 H 501.805 0.82689 6.72435 0
M  V30 5209 H 502.748 2.35044 6.67952 0
M  V30 5210 H 503.156 1.0237 5.5514 0
M  V30 5211 N 502.554 -1.34406 0.822964 0
M  V30 5212 C 503.484 -2.32052 0.259608 0
M  V30 5213 C 504.465 -1.58243 -0.623961 0
M  V30 5214 O 505.65 -1.86224 -0.55083 0
M  V30 5215 C 502.78 -3.42434 -0.579314 0
M  V30 5216 C 501.734 -4.27499 0.20712 0
M  V30 5217 C 501.06 -5.29349 -0.754547 0
M  V30 5218 C 502.36 -5.02758 1.41533 0
M  V30 5219 H 504.054 -2.79418 1.07545 0
M  V30 5220 H 501.6 -1.34338 0.518593 0
M  V30 5221 H 503.553 -4.0976 -0.983612 0
M  V30 5222 H 502.277 -2.93717 -1.4282 0
M  V30 5223 H 500.936 -3.61776 0.592787 0
M  V30 5224 H 500.584 -4.76895 -1.59939 0
M  V30 5225 H 500.284 -5.8714 -0.232561 0
M  V30 5226 H 501.808 -5.99544 -1.1567 0
M  V30 5227 H 503.222 -5.62938 1.08504 0
M  V30 5228 H 501.619 -5.70123 1.87296 0
M  V30 5229 H 502.689 -4.32451 2.1935 0
M  V30 5230 N 504.032 -0.577932 -1.46621 0
M  V30 5231 C 505.281 -0.0594281 -2.01612 0
M  V30 5232 C 505.594 1.30663 -1.45556 0
M  V30 5233 O 506.8 1.91621 -1.92337 0
M  V30 5234 C 505.256 -0.0556666 -3.59857 0
M  V30 5235 C 504.864 -1.41975 -4.24908 0
M  V30 5236 C 506.608 0.409143 -4.22524 0
M  V30 5237 C 504.515 -1.37397 -5.75218 0
M  V30 5238 H 503.445 -0.0184469 -0.753774 0
M  V30 5239 H 506.096 -0.728869 -1.68404 0
M  V30 5240 H 504.478 0.679843 -3.90121 0
M  V30 5241 H 505.652 -2.17461 -4.0626 0
M  V30 5242 H 503.967 -1.82419 -3.74316 0
M  V30 5243 H 506.564 0.46211 -5.32699 0
M  V30 5244 H 506.907 1.42565 -3.91128 0
M  V30 5245 H 507.44 -0.272152 -3.96868 0
M  V30 5246 H 504.179 -2.36714 -6.11267 0
M  V30 5247 H 503.699 -0.661239 -5.96144 0
M  V30 5248 H 505.378 -1.08484 -6.3784 0
M  V30 5249 N 505.51 1.54411 -0.315457 0
M  V30 5250 C 506.473 2.22713 0.54142 0
M  V30 5251 C 507.473 1.2179 1.04995 0
M  V30 5252 O 508.663 1.46426 0.943667 0
M  V30 5253 C 505.795 2.92485 1.75116 0
M  V30 5254 H 506.988 2.99849 -0.0555508 0
M  V30 5255 H 504.541 1.56159 -0.0664453 0
M  V30 5256 H 505.276 2.19466 2.38758 0
M  V30 5257 H 505.061 3.66483 1.39401 0
M  V30 5258 H 506.551 3.44548 2.35959 0
M  V30 5259 N 506.988 0.0434614 1.5754 0
M  V30 5260 C 507.936 -0.951465 2.1225 0
M  V30 5261 C 508.93 -1.3274 1.05245 0
M  V30 5262 O 510.136 -1.30795 1.23663 0
M  V30 5263 H 506.511 -0.324667 0.678303 0
M  V30 5264 H 508.482 -0.464855 2.94757 0
M  V30 5265 C 507.231 -2.21972 2.67626 0
M  V30 5266 H 506.554 -1.93923 3.4962 0
M  V30 5267 H 507.994 -2.89765 3.09536 0
M  V30 5268 C 506.453 -2.95919 1.61038 0
M  V30 5269 O 506.983 -3.8857 1.01862 0
M  V30 5270 N 505.189 -2.58511 1.32741 0
M  V30 5271 H 504.736 -1.83244 1.81051 0
M  V30 5272 H 504.694 -3.08296 0.616531 0
M  V30 5273 N 508.466 -1.55915 -0.229846 0
M  V30 5274 C 509.414 -1.9258 -1.30444 0
M  V30 5275 C 510.408 -0.806839 -1.48951 0
M  V30 5276 O 511.614 -0.991606 -1.50224 0
M  V30 5277 H 507.989 -0.611878 -0.437161 0
M  V30 5278 H 509.96 -2.82264 -0.96797 0
M  V30 5279 C 508.709 -2.25171 -2.6494 0
M  V30 5280 H 508.032 -3.10782 -2.51504 0
M  V30 5281 H 509.472 -2.54716 -3.38963 0
M  V30 5282 C 507.931 -1.07394 -3.19324 0
M  V30 5283 O 508.461 -0.330759 -4.00336 0
M  V30 5284 N 506.667 -0.859984 -2.77584 0
M  V30 5285 H 506.214 -1.46605 -2.11813 0
M  V30 5286 H 506.172 -0.0736671 -3.14314 0
M  V30 5287 N 509.944 0.496216 -1.49584 0
M  V30 5288 C 510.907 1.57952 -1.66084 0
M  V30 5289 C 511.907 1.51729 -0.53244 0
M  V30 5290 O 513.097 1.54796 -0.79899 0
M  V30 5291 C 510.229 2.97604 -1.66268 0
M  V30 5292 H 511.422 1.44649 -2.6271 0
M  V30 5293 H 508.975 0.7208 -1.38687 0
M  V30 5294 H 509.71 3.16378 -0.712432 0
M  V30 5295 H 509.495 3.03528 -2.4822 0
M  V30 5296 H 510.985 3.76301 -1.81073 0
M  V30 5297 N 511.423 1.38739 0.74761 0
M  V30 5298 C 512.67 1.35274 1.50689 0
M  V30 5299 C 512.998 -0.0553359 1.94421 0
M  V30 5300 O 512.253 -1.03365 1.66175 0
M  V30 5301 C 512.552 2.25992 2.7688 0
M  V30 5302 C 512.218 3.73854 2.5208 0
M  V30 5303 C 510.88 4.14145 2.45025 0
M  V30 5304 C 513.232 4.67427 2.30568 0
M  V30 5305 C 510.56 5.4609 2.14483 0
M  V30 5306 C 512.912 5.99635 2.01545 0
M  V30 5307 C 511.576 6.39004 1.92951 0
M  V30 5308 H 510.846 0.495003 0.55141 0
M  V30 5309 H 513.493 1.71145 0.859158 0
M  V30 5310 H 511.798 1.83196 3.46333 0
M  V30 5311 H 513.495 2.20611 3.34861 0
M  V30 5312 H 510.085 3.41913 2.58444 0
M  V30 5313 H 514.269 4.3714 2.34994 0
M  V30 5314 H 509.525 5.75528 2.06342 0
M  V30 5315 H 513.699 6.71678 1.83906 0
M  V30 5316 H 511.326 7.41165 1.6905 0
M  V30 5317 N 512.901 -0.976442 1.23707 0
M  V30 5318 C 514.15 -1.71254 1.06559 0
M  V30 5319 C 514.463 -1.91528 -0.397024 0
M  V30 5320 O 515.669 -2.62625 -0.688518 0
M  V30 5321 C 514.125 -3.08207 1.8584 0
M  V30 5322 C 513.733 -2.95806 3.36456 0
M  V30 5323 C 515.477 -3.85749 1.77194 0
M  V30 5324 C 513.384 -4.28015 4.08114 0
M  V30 5325 H 512.314 -0.642171 0.395136 0
M  V30 5326 H 514.965 -1.08877 1.4771 0
M  V30 5327 H 513.347 -3.71363 1.37498 0
M  V30 5328 H 514.521 -2.41716 3.92314 0
M  V30 5329 H 512.836 -2.31736 3.45959 0
M  V30 5330 H 515.433 -4.83633 2.28041 0
M  V30 5331 H 515.776 -4.09752 0.735477 0
M  V30 5332 H 516.309 -3.29303 2.23169 0
M  V30 5333 H 513.048 -4.09208 5.12083 0
M  V30 5334 H 512.568 -4.81955 3.57043 0
M  V30 5335 H 514.247 -4.96681 4.14629 0
M  V30 5336 N 514.379 -1.04941 -1.1758 0
M  V30 5337 C 515.327 -0.64204 -2.23563 0
M  V30 5338 C 516.321 0.335453 -1.66045 0
M  V30 5339 O 517.527 0.20179 -1.78865 0
M  V30 5340 H 513.902 -0.18944 -0.727748 0
M  V30 5341 H 515.873 -1.54609 -2.55223 0
M  V30 5342 C 514.622 -0.0301051 -3.47687 0
M  V30 5343 H 513.945 -0.773339 -3.92249 0
M  V30 5344 H 515.385 0.217592 -4.23441 0
M  V30 5345 C 513.844 1.2225 -3.13937 0
M  V30 5346 O 514.374 2.3122 -3.28482 0
M  V30 5347 N 512.58 1.11917 -2.68185 0
M  V30 5348 H 512.127 0.232403 -2.5655 0
M  V30 5349 H 512.085 1.95814 -2.45976 0
M  V30 5350 N 515.857 1.33968 -0.830081 0
M  V30 5351 C 517.103 1.98357 -0.422191 0
M  V30 5352 C 517.436 1.65633 1.01387 0
M  V30 5353 O 516.711 0.931648 1.70735 0
M  V30 5354 C 516.994 3.54492 -0.633043 0
M  V30 5355 C 516.847 3.96934 -2.11574 0
M  V30 5356 C 518.166 4.40039 -0.0735584 0
M  V30 5357 H 515.285 0.720544 -0.154871 0
M  V30 5358 H 517.927 1.58749 -1.04397 0
M  V30 5359 H 516.077 3.88361 -0.103775 0
M  V30 5360 H 517.749 3.73363 -2.7092 0
M  V30 5361 H 515.992 3.46984 -2.60354 0
M  V30 5362 H 516.663 5.05651 -2.21406 0
M  V30 5363 H 519.139 4.12764 -0.52585 0
M  V30 5364 H 518.015 5.48327 -0.250841 0
M  V30 5365 H 518.276 4.30124 1.02202 0
M  V30 5366 N 517.335 0.585699 1.46312 0
M  V30 5367 C 518.283 -0.158577 2.32059 0
M  V30 5368 C 519.277 -0.881427 1.44662 0
M  V30 5369 O 520.483 -0.799476 1.61271 0
M  V30 5370 H 516.858 -0.0700066 0.748734 0
M  V30 5371 H 518.829 0.583383 2.92642 0
M  V30 5372 C 517.578 -1.15701 3.27885 0
M  V30 5373 H 516.901 -0.610215 3.95116 0
M  V30 5374 H 518.341 -1.64812 3.90657 0
M  V30 5375 C 516.8 -2.21951 2.53455 0
M  V30 5376 O 517.33 -3.29352 2.29978 0
M  V30 5377 N 515.536 -1.9664 2.13965 0
M  V30 5378 H 515.083 -1.09309 2.33258 0
M  V30 5379 H 515.041 -2.6794 1.64485 0
M  V30 5380 N 518.813 -1.54241 0.323641 0
M  V30 5381 C 520.061 -2.00174 -0.278359 0
M  V30 5382 C 520.382 -1.2134 -1.52648 0
M  V30 5383 O 519.652 -0.315244 -1.93347 0
M  V30 5384 H 518.232 -0.739463 -0.105845 0
M  V30 5385 H 520.894 -1.89864 0.440204 0
M  V30 5386 H 519.99 -3.07486 -0.5347 0
M  V30 5387 N 520.291 -0.0518155 -1.57515 0
M  V30 5388 C 521.521 0.63048 -1.96745 0
M  V30 5389 C 521.929 1.64875 -0.928054 0
M  V30 5390 O 521.272 1.83449 0.0960678 0
M  V30 5391 C 521.334 1.37381 -3.32215 0
M  V30 5392 C 520.998 0.511298 -4.54131 0
M  V30 5393 C 521.995 -0.222884 -5.19422 0
M  V30 5394 C 519.68 0.442035 -5.00351 0
M  V30 5395 C 521.674 -1.01476 -6.2927 0
M  V30 5396 C 519.361 -0.35353 -6.10077 0
M  V30 5397 C 520.359 -1.08062 -6.74397 0
M  V30 5398 O 520.047 -1.8631 -7.82013 0
M  V30 5399 H 519.779 0.177126 -0.652382 0
M  V30 5400 H 522.333 -0.114726 -2.05079 0
M  V30 5401 H 520.563 2.16466 -3.20436 0
M  V30 5402 H 522.252 1.9464 -3.56188 0
M  V30 5403 H 523.018 -0.178846 -4.8467 0
M  V30 5404 H 518.897 0.997562 -4.50077 0
M  V30 5405 H 522.441 -1.58279 -6.79407 0
M  V30 5406 H 518.338 -0.399205 -6.44264 0
M  V30 5407 H 519.106 -1.78528 -7.98793 0
M  V30 5408 N 521.769 1.56035 0.221574 0
M  V30 5409 C 522.732 1.91584 1.2581 0
M  V30 5410 C 523.732 0.794425 1.39805 0
M  V30 5411 O 524.922 1.06217 1.38071 0
M  V30 5412 C 522.054 2.16663 2.63192 0
M  V30 5413 H 523.247 2.8429 0.954935 0
M  V30 5414 H 520.8 1.49316 0.461988 0
M  V30 5415 H 521.535 1.26508 2.98607 0
M  V30 5416 H 521.32 2.98358 2.5441 0
M  V30 5417 H 522.81 2.45262 3.37988 0
M  V30 5418 N 523.247 -0.488276 1.49845 0
M  V30 5419 C 524.496 -1.23826 1.59217 0
M  V30 5420 C 524.809 -1.93439 0.289966 0
M  V30 5421 O 526.015 -2.70229 0.262382 0
M  V30 5422 C 524.471 -2.24902 2.80976 0
M  V30 5423 C 524.079 -1.6117 4.18005 0
M  V30 5424 C 525.823 -3.00648 2.99685 0
M  V30 5425 C 523.73 -2.60431 5.3097 0
M  V30 5426 H 522.66 -0.465858 0.592868 0
M  V30 5427 H 525.311 -0.510645 1.76252 0
M  V30 5428 H 523.693 -3.0088 2.57463 0
M  V30 5429 H 524.867 -0.910968 4.51706 0
M  V30 5430 H 523.182 -0.97767 4.0476 0
M  V30 5431 H 525.779 -3.74903 3.81251 0
M  V30 5432 H 526.122 -3.5902 2.10738 0
M  V30 5433 H 526.655 -2.31784 3.23297 0
M  V30 5434 H 523.394 -2.06823 6.22017 0
M  V30 5435 H 522.914 -3.28707 5.01709 0
M  V30 5436 H 524.593 -3.22606 5.60834 0
M  V30 5437 N 524.725 -1.39134 -0.740242 0
M  V30 5438 C 525.675 -1.33928 -1.84519 0
M  V30 5439 C 526.659 -0.221097 -1.59374 0
M  V30 5440 O 527.851 -0.458195 -1.70967 0
M  V30 5441 C 524.98 -1.17991 -3.22387 0
M  V30 5442 C 524.066 -2.34488 -3.53378 0
M  V30 5443 N 524.457 -3.59954 -3.5534 0
M  V30 5444 C 522.755 -2.27331 -3.83714 0
M  V30 5445 C 523.456 -4.36962 -3.83978 0
M  V30 5446 N 522.432 -3.66482 -4.01487 0
M  V30 5447 H 526.234 -2.28907 -1.84333 0
M  V30 5448 H 523.748 -1.32555 -0.938237 0
M  V30 5449 H 525.745 -1.12345 -4.01478 0
M  V30 5450 H 524.405 -0.23957 -3.23815 0
M  V30 5451 H 525.416 -3.93448 -3.36778 0
M  V30 5452 H 522.093 -1.41531 -3.92779 0
M  V30 5453 H 523.483 -5.45692 -3.92008 0
M  V30 5454 N 526.204 0.969867 -1.24223 0
M  V30 5455 C 527.451 1.71256 -1.08063 0
M  V30 5456 C 527.779 1.90734 0.380872 0
M  V30 5457 O 527.034 1.46469 1.29789 0
M  V30 5458 C 527.333 3.10883 -1.76314 0
M  V30 5459 C 526.999 3.11252 -3.26241 0
M  V30 5460 C 525.661 3.1106 -3.67144 0
M  V30 5461 C 528.013 3.05751 -4.22097 0
M  V30 5462 C 525.341 3.03097 -5.02344 0
M  V30 5463 C 527.693 2.9933 -5.57301 0
M  V30 5464 C 526.357 2.97466 -5.97554 0
M  V30 5465 H 525.627 0.62667 -0.395431 0
M  V30 5466 H 528.274 1.13422 -1.54297 0
M  V30 5467 H 526.579 3.72168 -1.22468 0
M  V30 5468 H 528.276 3.67138 -1.61277 0
M  V30 5469 H 524.866 3.12165 -2.93685 0
M  V30 5470 H 529.05 3.05031 -3.91497 0
M  V30 5471 H 524.306 3.00013 -5.32731 0
M  V30 5472 H 528.48 2.94033 -6.31283 0
M  V30 5473 H 526.107 2.91051 -7.02277 0
M  V30 5474 N 527.682 1.05563 1.17022 0
M  V30 5475 C 528.63 0.653887 2.2322 0
M  V30 5476 C 529.624 -0.326642 1.66221 0
M  V30 5477 O 530.83 -0.192301 1.7897 0
M  V30 5478 H 527.205 0.193297 0.726733 0
M  V30 5479 H 529.176 1.5596 2.54399 0
M  V30 5480 C 527.925 0.0485434 3.47666 0
M  V30 5481 H 527.248 0.79413 3.91834 0
M  V30 5482 H 528.688 -0.195133 4.23551 0
M  V30 5483 C 527.147 -1.20583 3.14581 0
M  V30 5484 O 527.677 -2.29475 3.29703 0
M  V30 5485 N 525.883 -1.10493 2.68774 0
M  V30 5486 H 525.43 -0.218795 2.56669 0
M  V30 5487 H 525.388 -1.94507 2.47011 0
M  V30 5488 N 529.16 -1.33526 0.837174 0
M  V30 5489 C 530.571 -1.80182 0.489017 0
M  V30 5490 C 530.922 -1.69285 -0.991826 0
M  V30 5491 O 530.047 -1.24113 -1.77271 0
M  V30 5492 C 530.642 -3.27149 0.880866 0
M  V30 5493 C 529.201 -3.71828 0.584872 0
M  V30 5494 C 528.348 -2.54974 1.09011 0
M  V30 5495 H 531.299 -1.21071 1.02603 0
M  V30 5496 H 531.32 -3.80024 0.190239 0
M  V30 5497 H 530.832 -3.35048 1.95869 0
M  V30 5498 H 528.933 -3.69457 -0.48295 0
M  V30 5499 H 529.046 -4.65366 1.13892 0
M  V30 5500 H 527.41 -2.4952 0.511047 0
M  V30 5501 H 528.193 -2.65637 2.17467 0
M  V30 5502 N 530.638 -0.59345 -1.46 0
M  V30 5503 C 531.568 0.121192 -2.33185 0
M  V30 5504 C 532.549 0.872977 -1.4599 0
M  V30 5505 O 533.734 0.846321 -1.74789 0
M  V30 5506 C 530.864 1.12844 -3.28456 0
M  V30 5507 C 529.818 0.4908 -4.25177 0
M  V30 5508 C 529.144 1.60529 -5.10034 0
M  V30 5509 C 530.444 -0.578949 -5.19081 0
M  V30 5510 H 532.138 -0.606767 -2.93187 0
M  V30 5511 H 529.684 -0.293242 -1.40983 0
M  V30 5512 H 531.637 1.63684 -3.88311 0
M  V30 5513 H 530.361 1.88681 -2.66584 0
M  V30 5514 H 529.02 0.00339328 -3.666 0
M  V30 5515 H 528.668 2.35359 -4.44539 0
M  V30 5516 H 528.368 1.18422 -5.75543 0
M  V30 5517 H 529.892 2.11623 -5.72755 0
M  V30 5518 H 531.306 -0.155199 -5.7309 0
M  V30 5519 H 529.703 -0.920947 -5.92991 0
M  V30 5520 H 530.773 -1.46109 -4.62364 0
M  V30 5521 N 532.116 1.54067 -0.331816 0
M  V30 5522 C 533.393 1.92915 0.322955 0
M  V30 5523 C 533.773 1.26225 1.69205 0
M  V30 5524 O 533.121 0.408919 2.24811 0
M  V30 5525 C 533.331 3.46619 0.406946 0
M  V30 5526 C 534.679 4.19386 0.663339 0
M  V30 5527 O 535.703 3.5282 0.489536 0
M  V30 5528 O 534.562 5.37288 0.999193 0
M  V30 5529 H 531.656 0.805808 0.186016 0
M  V30 5530 H 534.202 1.65342 -0.382135 0
M  V30 5531 H 532.974 3.87354 -0.554287 0
M  V30 5532 H 532.597 3.80324 1.15929 0
M  V30 5533 N 533.594 0.0601682 1.57485 0
M  V30 5534 C 534.504 -0.926121 2.15546 0
M  V30 5535 C 535.52 -1.33532 1.11558 0
M  V30 5536 O 536.696 -1.4104 1.4377 0
M  V30 5537 C 533.761 -2.17952 2.69625 0
M  V30 5538 C 532.822 -1.82783 3.88444 0
M  V30 5539 C 532.055 -3.02148 4.39935 0
M  V30 5540 O 532.278 -4.15803 3.90466 0
M  V30 5541 O 531.212 -2.82639 5.31412 0
M  V30 5542 H 535.038 -0.462289 3.00161 0
M  V30 5543 H 532.623 -0.162246 1.48516 0
M  V30 5544 H 534.505 -2.91474 3.04337 0
M  V30 5545 H 533.18 -2.63456 1.88077 0
M  V30 5546 H 532.087 -1.06549 3.58606 0
M  V30 5547 H 533.42 -1.42072 4.7125 0
M  V30 5548 N 535.072 -1.5615 -0.213296 0
M  V30 5549 C 536.488 -1.49327 -0.56336 0
M  V30 5550 C 536.688 -0.756826 -1.86747 0
M  V30 5551 O 535.744 -0.299866 -2.50713 0
M  V30 5552 C 537.057 -2.9392 -0.634944 0
M  V30 5553 C 538.605 -3.04487 -0.725013 0
M  V30 5554 C 539.08 -4.50456 -0.82787 0
M  V30 5555 N 540.571 -4.54533 -0.891876 0
M  V30 5556 C 541.306 -5.64766 -0.991315 0
M  V30 5557 N 540.802 -6.84733 -1.05419 0
M  V30 5558 N 542.595 -5.52637 -1.02709 0
M  V30 5559 H 534.746 -2.02453 0.642366 0
M  V30 5560 H 537.009 -0.920548 0.226487 0
M  V30 5561 H 536.715 -3.50783 0.253859 0
M  V30 5562 H 536.589 -3.46274 -1.49579 0
M  V30 5563 H 538.976 -2.47685 -1.60425 0
M  V30 5564 H 539.057 -2.55289 0.161669 0
M  V30 5565 H 538.701 -5.07878 0.0469464 0
M  V30 5566 H 538.631 -4.97369 -1.73009 0
M  V30 5567 H 541.122 -3.68141 -0.85327 0
M  V30 5568 H 541.435 -7.64493 -1.13007 0
M  V30 5569 H 539.78 -6.87427 -1.02318 0
M  V30 5570 H 542.971 -4.5784 -0.974687 0
M  V30 5571 H 543.144 -6.38576 -1.10113 0
M  V30 5572 N 536.55 0.480323 -1.50102 0
M  V30 5573 C 537.966 0.813295 -1.37323 0
M  V30 5574 C 538.166 1.97027 -0.422206 0
M  V30 5575 O 537.222 2.5212 0.138563 0
M  V30 5576 C 538.535 1.13404 -2.78496 0
M  V30 5577 C 540.083 1.24104 -2.87345 0
M  V30 5578 C 540.558 1.59497 -4.29331 0
M  V30 5579 N 542.049 1.66507 -4.32238 0
M  V30 5580 C 542.784 1.95378 -5.39087 0
M  V30 5581 N 542.28 2.22333 -6.56155 0
M  V30 5582 N 544.073 1.96803 -5.26522 0
M  V30 5583 H 536.224 -0.282291 -2.10516 0
M  V30 5584 H 538.487 -0.063752 -0.945854 0
M  V30 5585 H 538.193 0.357064 -3.49883 0
M  V30 5586 H 538.067 2.07251 -3.15162 0
M  V30 5587 H 540.454 2.00871 -2.16183 0
M  V30 5588 H 540.535 0.282593 -2.54234 0
M  V30 5589 H 540.179 0.832736 -5.01027 0
M  V30 5590 H 540.109 2.56477 -4.59921 0
M  V30 5591 H 542.6 1.47753 -3.47818 0
M  V30 5592 H 542.913 2.43611 -7.33399 0
M  V30 5593 H 541.258 2.19745 -6.59346 0
M  V30 5594 H 544.449 1.75235 -4.34062 0
M  V30 5595 H 544.622 2.18969 -6.09883 0
M  V30 5596 N 538.028 1.39524 0.732853 0
M  V30 5597 C 538.975 1.38416 1.84688 0
M  V30 5598 C 539.945 0.243539 1.64305 0
M  V30 5599 O 541.13 0.438979 1.85681 0
M  V30 5600 C 538.27 1.23555 3.22224 0
M  V30 5601 C 537.383 2.47179 3.54298 0
M  V30 5602 C 536.518 2.2489 4.81246 0
M  V30 5603 C 535.557 3.44178 5.0617 0
M  V30 5604 N 534.694 3.21192 6.24323 0
M  V30 5605 H 539.534 2.33645 1.84971 0
M  V30 5606 H 537.071 1.16059 0.903804 0
M  V30 5607 H 539.029 1.12949 4.0162 0
M  V30 5608 H 537.659 0.31954 3.21215 0
M  V30 5609 H 536.711 2.68379 2.69587 0
M  V30 5610 H 538.023 3.36022 3.68633 0
M  V30 5611 H 537.177 2.11538 5.68627 0
M  V30 5612 H 535.916 1.33443 4.69089 0
M  V30 5613 H 534.921 3.58025 4.17251 0
M  V30 5614 H 536.146 4.36528 5.20212 0
M  V30 5615 H 534.092 2.32413 6.1345 0
M  V30 5616 H 534.009 4.03594 6.39256 0
M  V30 5617 H 535.277 3.1154 7.14537 0
M  V30 5618 N 539.506 -0.963266 1.24736 0
M  V30 5619 C 540.416 -2.09246 1.06082 0
M  V30 5620 C 541.432 -1.74 0.000363101 0
M  V30 5621 O 542.608 -2.0041 0.199479 0
M  V30 5622 C 539.673 -3.40115 0.672498 0
M  V30 5623 C 538.734 -3.89282 1.80993 0
M  V30 5624 C 537.967 -5.13905 1.44004 0
M  V30 5625 O 538.19 -5.69434 0.331835 0
M  V30 5626 O 537.124 -5.57566 2.26723 0
M  V30 5627 H 540.95 -2.27881 2.00759 0
M  V30 5628 H 538.535 -1.07649 1.03595 0
M  V30 5629 H 540.417 -4.18797 0.467668 0
M  V30 5630 H 539.092 -3.22771 -0.245102 0
M  V30 5631 H 537.999 -3.11642 2.06955 0
M  V30 5632 H 539.332 -4.1111 2.70646 0
M  V30 5633 N 540.985 -1.06182 -1.16461 0
M  V30 5634 C 542.215 -0.797425 -1.9059 0
M  V30 5635 C 542.623 0.651845 -1.77616 0
M  V30 5636 O 541.966 1.45788 -1.11766 0
M  V30 5637 C 542.028 -1.11128 -3.41893 0
M  V30 5638 C 541.692 -2.55874 -3.78652 0
M  V30 5639 C 542.689 -3.54104 -3.80665 0
M  V30 5640 C 540.374 -2.91144 -4.09317 0
M  V30 5641 C 542.368 -4.85645 -4.12829 0
M  V30 5642 C 540.055 -4.22885 -4.41148 0
M  V30 5643 C 541.053 -5.19945 -4.42883 0
M  V30 5644 O 540.741 -6.49322 -4.73959 0
M  V30 5645 H 540.473 -0.288709 -0.611247 0
M  V30 5646 H 543.027 -1.41841 -1.4856 0
M  V30 5647 H 541.257 -0.433217 -3.84266 0
M  V30 5648 H 542.946 -0.831306 -3.97296 0
M  V30 5649 H 543.712 -3.28197 -3.57088 0
M  V30 5650 H 539.591 -2.16252 -4.07131 0
M  V30 5651 H 543.135 -5.61398 -4.14099 0
M  V30 5652 H 539.032 -4.48551 -4.6419 0
M  V30 5653 H 539.8 -6.54294 -4.91774 0
M  V30 5654 N 542.463 1.3308 -0.844243 0
M  V30 5655 C 543.703 1.99414 -0.448697 0
M  V30 5656 C 544.067 1.65398 0.975058 0
M  V30 5657 O 545.268 2.24741 1.47461 0
M  V30 5658 C 543.539 3.51081 -0.669089 0
M  V30 5659 S 545.098 4.37241 -0.369564 0
M  V30 5660 H 541.916 0.690736 -0.168538 0
M  V30 5661 H 544.518 1.61977 -1.0947 0
M  V30 5662 H 543.222 3.73326 -1.70457 0
M  V30 5663 H 542.753 3.93399 -0.00913211 0
M  V30 5664 H 544.768 4.89568 0.808552 0
M  V30 5665 N 543.941 0.601185 1.45683 0
M  V30 5666 C 544.904 -0.111398 2.28929 0
M  V30 5667 C 545.904 -0.801246 1.39416 0
M  V30 5668 O 547.094 -0.650383 1.61603 0
M  V30 5669 C 544.226 -1.16773 3.20276 0
M  V30 5670 H 545.419 0.620412 2.93413 0
M  V30 5671 H 542.972 0.359946 1.52099 0
M  V30 5672 H 543.707 -1.93051 2.60579 0
M  V30 5673 H 543.492 -0.677358 3.86205 0
M  V30 5674 H 544.982 -1.66698 3.82886 0
M  V30 5675 N 545.419 -1.53889 0.339982 0
M  V30 5676 C 546.382 -2.23547 -0.50592 0
M  V30 5677 C 547.382 -1.23445 -1.03044 0
M  V30 5678 O 548.572 -1.47909 -0.920253 0
M  V30 5679 C 545.704 -2.95234 -1.7044 0
M  V30 5680 H 546.897 -2.99722 0.103247 0
M  V30 5681 H 544.45 -1.56033 0.0912804 0
M  V30 5682 H 545.185 -2.23236 -2.35236 0
M  V30 5683 H 544.97 -3.68654 -1.33553 0
M  V30 5684 H 546.46 -3.48258 -2.30447 0
M  V30 5685 N 546.897 -0.0685191 -1.57451 0
M  V30 5686 C 547.845 0.917577 -2.13736 0
M  V30 5687 C 548.839 1.31049 -1.07344 0
M  V30 5688 O 550.045 1.28811 -1.25728 0
M  V30 5689 H 546.42 0.313835 -0.683382 0
M  V30 5690 H 548.391 0.417903 -2.95459 0
M  V30 5691 C 547.14 2.17686 -2.71123 0
M  V30 5692 H 546.463 1.88336 -3.52661 0
M  V30 5693 H 547.903 2.84803 -3.14107 0
M  V30 5694 C 546.362 2.9332 -1.65726 0
M  V30 5695 O 546.892 3.86901 -1.08031 0
M  V30 5696 N 545.098 2.56367 -1.36837 0
M  V30 5697 H 544.645 1.80341 -1.83943 0
M  V30 5698 H 544.603 3.07276 -0.665501 0
M  V30 5699 N 548.375 1.56261 0.205012 0
M  V30 5700 C 549.791 1.49623 0.555433 0
M  V30 5701 C 549.991 0.766719 1.86343 0
M  V30 5702 O 549.047 0.313158 2.50551 0
M  V30 5703 C 550.36 2.94253 0.619347 0
M  V30 5704 C 551.908 3.04868 0.708855 0
M  V30 5705 C 552.383 4.50888 0.803969 0
M  V30 5706 N 553.874 4.54999 0.867758 0
M  V30 5707 C 554.609 5.65284 0.96135 0
M  V30 5708 N 554.105 6.85282 1.01786 0
M  V30 5709 N 555.898 5.53174 0.997771 0
M  V30 5710 H 548.049 2.0211 -0.653094 0
M  V30 5711 H 550.312 0.919333 -0.231366 0
M  V30 5712 H 550.018 3.50643 -0.272458 0
M  V30 5713 H 549.892 3.47063 1.47741 0
M  V30 5714 H 552.279 2.48532 1.5911 0
M  V30 5715 H 552.36 2.55199 -0.175205 0
M  V30 5716 H 552.004 5.07846 -0.0738798 0
M  V30 5717 H 551.934 4.98279 1.70369 0
M  V30 5718 H 554.425 3.68588 0.833735 0
M  V30 5719 H 554.738 7.65081 1.08951 0
M  V30 5720 H 553.083 6.8796 0.986706 0
M  V30 5721 H 556.274 4.5835 0.950392 0
M  V30 5722 H 556.447 6.39151 1.06725 0
M  V30 5723 N 549.853 -0.472356 1.50355 0
M  V30 5724 C 550.783 -1.57859 1.72055 0
M  V30 5725 C 551.764 -1.60283 0.569505 0
M  V30 5726 O 552.949 -1.7657 0.808503 0
M  V30 5727 C 550.079 -2.96191 1.81351 0
M  V30 5728 C 549.033 -3.08633 2.96529 0
M  V30 5729 C 548.359 -4.486 2.90968 0
M  V30 5730 C 549.659 -2.85969 4.37057 0
M  V30 5731 H 551.353 -1.39953 2.64676 0
M  V30 5732 H 548.899 -0.671846 1.27367 0
M  V30 5733 H 550.852 -3.73507 1.95117 0
M  V30 5734 H 549.576 -3.15251 0.853502 0
M  V30 5735 H 548.235 -2.33749 2.82413 0
M  V30 5736 H 547.883 -4.64577 1.92815 0
M  V30 5737 H 547.583 -4.57861 3.68289 0
M  V30 5738 H 549.107 -5.27938 3.0678 0
M  V30 5739 H 550.521 -3.53036 4.51706 0
M  V30 5740 H 548.918 -3.06677 5.15819 0
M  V30 5741 H 549.988 -1.81838 4.49514 0
M  V30 5742 N 551.331 -1.39911 -0.725443 0
M  V30 5743 C 552.278 -1.39393 -1.83952 0
M  V30 5744 C 553.248 -0.252249 -1.64173 0
M  V30 5745 O 554.433 -0.44882 -1.85446 0
M  V30 5746 C 551.573 -1.25262 -3.21564 0
M  V30 5747 C 550.686 -2.49054 -3.52982 0
M  V30 5748 C 549.821 -2.27439 -4.80047 0
M  V30 5749 C 548.86 -3.46857 -5.04338 0
M  V30 5750 N 547.997 -3.24499 -6.22611 0
M  V30 5751 H 552.837 -2.34622 -1.83729 0
M  V30 5752 H 550.374 -1.16537 -0.897636 0
M  V30 5753 H 552.332 -1.15077 -4.01015 0
M  V30 5754 H 550.962 -0.33657 -3.21041 0
M  V30 5755 H 550.014 -2.69805 -2.6816 0
M  V30 5756 H 551.326 -3.37973 -3.66846 0
M  V30 5757 H 550.48 -2.14551 -5.67497 0
M  V30 5758 H 549.219 -1.35929 -4.68374 0
M  V30 5759 H 548.224 -3.60232 -4.15346 0
M  V30 5760 H 549.449 -4.3928 -5.17889 0
M  V30 5761 H 547.395 -2.35663 -6.12208 0
M  V30 5762 H 547.312 -4.06978 -6.37106 0
M  V30 5763 H 548.58 -3.15325 -7.12875 0
M  V30 5764 N 552.809 0.956637 -1.25245 0
M  V30 5765 C 554.056 1.701 -1.09874 0
M  V30 5766 C 554.384 1.91128 0.36062 0
M  V30 5767 O 553.639 1.47837 1.28229 0
M  V30 5768 C 553.938 3.08996 -1.79601 0
M  V30 5769 C 553.604 3.07774 -3.29523 0
M  V30 5770 C 552.266 3.07149 -3.70423 0
M  V30 5771 C 554.618 3.01257 -4.25316 0
M  V30 5772 C 551.946 2.97752 -5.0553 0
M  V30 5773 C 554.298 2.93403 -5.60444 0
M  V30 5774 C 552.962 2.91111 -6.00675 0
M  V30 5775 H 552.232 0.62244 -0.402056 0
M  V30 5776 H 554.879 1.1178 -1.55491 0
M  V30 5777 H 553.184 3.70848 -1.26408 0
M  V30 5778 H 554.881 3.65407 -1.65162 0
M  V30 5779 H 551.471 3.09032 -2.9698 0
M  V30 5780 H 555.655 3.00861 -3.9471 0
M  V30 5781 H 550.911 2.94346 -5.35883 0
M  V30 5782 H 555.085 2.87321 -6.34366 0
M  V30 5783 H 552.712 2.83586 -7.05325 0
M  V30 5784 N 554.287 1.06798 1.15896 0
M  V30 5785 C 555.197 0.694564 2.24083 0
M  V30 5786 C 556.213 -0.291687 1.71538 0
M  V30 5787 O 557.389 -0.139723 2.00915 0
M  V30 5788 C 554.454 0.0921014 3.46578 0
M  V30 5789 C 553.515 1.13087 4.14137 0
M  V30 5790 C 552.748 0.557064 5.30785 0
M  V30 5791 O 552.971 -0.628623 5.66925 0
M  V30 5792 O 551.905 1.29924 5.8771 0
M  V30 5793 H 555.731 1.59663 2.58344 0
M  V30 5794 H 553.316 0.840575 1.2351 0
M  V30 5795 H 555.198 -0.241884 4.20705 0
M  V30 5796 H 553.873 -0.78337 3.14078 0
M  V30 5797 H 552.78 1.51712 3.41957 0
M  V30 5798 H 554.113 1.97805 4.50704 0
M  V30 5799 N 555.766 -1.3263 0.851289 0
M  V30 5800 C 556.994 -2.01563 0.466899 0
M  V30 5801 C 557.409 -1.63996 -0.935447 0
M  V30 5802 O 556.766 -0.85957 -1.6099 0
M  V30 5803 C 556.817 -3.56613 0.592433 0
M  V30 5804 O 556.538 -3.92828 1.93954 0
M  V30 5805 C 558.039 -4.42818 0.206612 0
M  V30 5806 H 555.259 -0.645307 0.183902 0
M  V30 5807 H 557.803 -1.69285 1.1473 0
M  V30 5808 H 555.958 -3.87379 -0.0401936 0
M  V30 5809 H 556.372 -4.87545 1.9339 0
M  V30 5810 H 557.846 -5.50918 0.345462 0
M  V30 5811 H 558.323 -4.30844 -0.85264 0
M  V30 5812 H 558.929 -4.17434 0.814176 0
M  V30 5813 N 557.244 -0.608902 -1.45362 0
M  V30 5814 C 558.655 -0.189511 -1.85736 0
M  V30 5815 C 559.006 1.2539 -1.50903 0
M  V30 5816 O 558.131 1.95094 -0.936347 0
M  V30 5817 C 558.726 -0.33716 -3.37118 0
M  V30 5818 C 557.285 0.0275487 -3.7639 0
M  V30 5819 C 556.432 -0.660983 -2.69307 0
M  V30 5820 H 559.383 -0.815499 -1.36144 0
M  V30 5821 H 559.404 0.430257 -3.7806 0
M  V30 5822 H 558.916 -1.38779 -3.62439 0
M  V30 5823 H 557.017 1.0773 -3.56686 0
M  V30 5824 H 557.13 -0.367018 -4.77692 0
M  V30 5825 H 555.494 -0.0984958 -2.54509 0
M  V30 5826 H 556.277 -1.71377 -2.97464 0
M  V30 5827 N 558.722 1.53707 -0.348139 0
M  V30 5828 C 559.672 2.2193 0.522592 0
M  V30 5829 C 560.656 1.20831 1.06248 0
M  V30 5830 O 561.848 1.46357 0.995415 0
M  V30 5831 C 558.977 2.99904 1.6707 0
M  V30 5832 C 558.063 4.08364 1.14454 0
M  V30 5833 N 558.454 5.04656 0.339958 0
M  V30 5834 C 556.752 4.22757 1.421 0
M  V30 5835 C 557.453 5.81675 0.0538806 0
M  V30 5836 N 556.429 5.39739 0.646776 0
M  V30 5837 H 560.231 2.93733 -0.099135 0
M  V30 5838 H 557.745 1.61656 -0.15524 0
M  V30 5839 H 559.742 3.47284 2.30651 0
M  V30 5840 H 558.402 2.29629 2.29566 0
M  V30 5841 H 559.413 5.17896 -0.0193552 0
M  V30 5842 H 556.09 3.63704 2.05002 0
M  V30 5843 H 557.48 6.69256 -0.595443 0
M  V30 5844 N 560.2 0.0768682 1.57412 0
M  V30 5845 C 561.132 -0.918248 2.10002 0
M  V30 5846 C 562.145 -1.25808 1.03325 0
M  V30 5847 O 563.334 -1.21438 1.30824 0
M  V30 5848 C 560.434 -2.23263 2.54964 0
M  V30 5849 C 559.607 -2.07088 3.8527 0
M  V30 5850 C 558.666 -3.21876 4.16272 0
M  V30 5851 O 557.692 -2.96643 4.8579 0
M  V30 5852 N 558.894 -4.4712 3.70221 0
M  V30 5853 H 561.659 -0.469209 2.96004 0
M  V30 5854 H 559.22 -0.108725 1.61535 0
M  V30 5855 H 561.212 -2.9897 2.72762 0
M  V30 5856 H 559.782 -2.59649 1.74072 0
M  V30 5857 H 559.002 -1.15818 3.76802 0
M  V30 5858 H 560.29 -1.93537 4.70554 0
M  V30 5859 H 559.688 -4.70506 3.1407 0
M  V30 5860 H 558.245 -5.19837 3.93209 0
M  V30 5861 N 561.678 -1.56367 -0.196722 0
M  V30 5862 C 562.608 -1.97442 -1.24655 0
M  V30 5863 C 563.589 -0.846147 -1.47561 0
M  V30 5864 O 564.774 -1.11035 -1.59326 0
M  V30 5865 C 561.904 -2.31253 -2.59112 0
M  V30 5866 C 560.858 -3.46804 -2.50821 0
M  V30 5867 C 560.184 -3.66286 -3.89536 0
M  V30 5868 C 561.484 -4.8104 -2.03465 0
M  V30 5869 H 563.178 -2.85388 -0.905216 0
M  V30 5870 H 560.724 -1.37304 -0.434002 0
M  V30 5871 H 562.677 -2.58583 -3.32736 0
M  V30 5872 H 561.401 -1.40188 -2.94983 0
M  V30 5873 H 560.06 -3.19563 -1.79653 0
M  V30 5874 H 559.708 -2.72555 -4.22756 0
M  V30 5875 H 559.408 -4.4402 -3.84864 0
M  V30 5876 H 560.932 -3.9599 -4.64784 0
M  V30 5877 H 562.346 -5.07411 -2.66846 0
M  V30 5878 H 560.743 -5.62232 -2.09798 0
M  V30 5879 H 561.813 -4.74732 -0.98781 0
M  V30 5880 N 563.156 0.464375 -1.50603 0
M  V30 5881 C 564.089 1.58052 -1.64605 0
M  V30 5882 C 565.067 1.54914 -0.494016 0
M  V30 5883 O 566.251 1.74438 -0.714393 0
M  V30 5884 C 563.378 2.96634 -1.63481 0
M  V30 5885 C 562.424 3.17901 -2.84325 0
M  V30 5886 S 563.257 2.97083 -4.45536 0
M  V30 5887 C 564.413 4.37994 -4.47115 0
M  V30 5888 H 564.646 1.45937 -2.59017 0
M  V30 5889 H 562.179 0.652189 -1.39949 0
M  V30 5890 H 564.137 3.76527 -1.63517 0
M  V30 5891 H 562.798 3.06134 -0.702928 0
M  V30 5892 H 561.991 4.19158 -2.79862 0
M  V30 5893 H 561.593 2.45792 -2.81891 0
M  V30 5894 H 563.885 5.30743 -4.21091 0
M  V30 5895 H 564.828 4.47499 -5.48772 0
M  V30 5896 H 565.236 4.20386 -3.76743 0
M  V30 5897 N 564.634 1.40294 0.718013 0
M  V30 5898 C 565.564 1.43118 1.84498 0
M  V30 5899 C 566.545 0.292403 1.67568 0
M  V30 5900 O 567.73 0.500675 1.87635 0
M  V30 5901 C 564.86 1.29065 3.22427 0
M  V30 5902 C 563.814 2.40521 3.54025 0
M  V30 5903 C 563.14 2.11546 4.91073 0
M  V30 5904 C 564.44 3.82859 3.55269 0
M  V30 5905 H 566.134 2.37432 1.82391 0
M  V30 5906 H 563.68 1.14283 0.87609 0
M  V30 5907 H 565.633 1.29658 4.00957 0
M  V30 5908 H 564.357 0.312271 3.25104 0
M  V30 5909 H 563.016 2.39173 2.77834 0
M  V30 5910 H 562.664 1.12104 4.90348 0
M  V30 5911 H 562.364 2.86216 5.1318 0
M  V30 5912 H 563.888 2.13817 5.71939 0
M  V30 5913 H 565.302 3.86044 4.23843 0
M  V30 5914 H 563.699 4.57029 3.88902 0
M  V30 5915 H 564.769 4.12617 2.54706 0
M  V30 5916 N 566.112 -0.949982 1.2575 0
M  V30 5917 C 567.059 -2.04738 1.06541 0
M  V30 5918 C 568.029 -1.66078 -0.0268818 0
M  V30 5919 O 569.214 -1.90348 0.131196 0
M  V30 5920 C 566.354 -3.38027 0.695127 0
M  V30 5921 C 565.467 -3.89776 1.86276 0
M  V30 5922 C 564.602 -5.11411 1.4364 0
M  V30 5923 C 563.641 -5.554 2.57287 0
M  V30 5924 N 562.778 -6.68244 2.15395 0
M  V30 5925 H 567.618 -2.20502 2.00457 0
M  V30 5926 H 565.155 -1.0805 0.998178 0
M  V30 5927 H 567.113 -4.14641 0.461375 0
M  V30 5928 H 565.743 -3.22135 -0.207046 0
M  V30 5929 H 564.795 -3.0964 2.20969 0
M  V30 5930 H 566.107 -4.18368 2.71606 0
M  V30 5931 H 565.261 -5.95457 1.16257 0
M  V30 5932 H 564 -4.84545 0.553879 0
M  V30 5933 H 563.005 -4.69916 2.85409 0
M  V30 5934 H 564.23 -5.84272 3.46125 0
M  V30 5935 H 562.176 -6.43078 1.29565 0
M  V30 5936 H 562.093 -6.96377 2.94272 0
M  V30 5937 H 563.361 -7.55687 1.91201 0
M  V30 5938 N 567.59 -1.07411 -1.15328 0
M  V30 5939 C 568.838 -0.796073 -1.85761 0
M  V30 5940 C 569.159 0.679864 -1.82764 0
M  V30 5941 O 568.429 1.49242 -1.269 0
M  V30 5942 H 567.009 -0.291495 -0.687779 0
M  V30 5943 H 569.671 -1.35799 -1.39802 0
M  V30 5944 H 568.767 -1.13114 -2.90881 0
M  V30 5945 N 569.068 1.32177 -0.85831 0
M  V30 5946 C 570.016 2.30729 -0.294442 0
M  V30 5947 C 571.01 1.59009 0.584165 0
M  V30 5948 O 572.216 1.73713 0.471562 0
M  V30 5949 H 568.591 0.748097 -0.0765171 0
M  V30 5950 H 570.562 2.75774 -1.1398 0
M  V30 5951 C 569.311 3.44098 0.499208 0
M  V30 5952 H 568.634 3.99449 -0.167579 0
M  V30 5953 H 570.074 4.15202 0.859273 0
M  V30 5954 C 568.533 2.91684 1.68588 0
M  V30 5955 O 569.063 2.89481 2.78503 0
M  V30 5956 N 567.269 2.48036 1.51415 0
M  V30 5957 H 566.816 2.50027 0.620006 0
M  V30 5958 H 566.774 2.13322 2.30957 0
M  V30 5959 N 570.547 0.616602 1.45037 0
M  V30 5960 C 571.477 -0.0840787 2.33349 0
M  V30 5961 C 572.458 -0.849641 1.4736 0
M  V30 5962 O 573.643 -0.818407 1.76113 0
M  V30 5963 C 570.773 -1.07604 3.3021 0
M  V30 5964 C 569.727 -0.423096 4.25904 0
M  V30 5965 C 569.053 -1.52394 5.12523 0
M  V30 5966 C 570.353 0.661457 5.18095 0
M  V30 5967 H 572.047 0.653333 2.92185 0
M  V30 5968 H 569.593 0.315634 1.40498 0
M  V30 5969 H 571.546 -1.57485 3.90866 0
M  V30 5970 H 570.27 -1.84416 2.69552 0
M  V30 5971 H 568.929 0.05493 3.66559 0
M  V30 5972 H 568.577 -2.28257 4.48227 0
M  V30 5973 H 568.277 -1.09251 5.77354 0
M  V30 5974 H 569.801 -2.02485 5.76049 0
M  V30 5975 H 571.215 0.246353 5.7277 0
M  V30 5976 H 569.612 1.01517 5.91451 0
M  V30 5977 H 570.682 1.53446 4.59981 0
M  V30 5978 N 572.025 -1.5352 0.356285 0
M  V30 5979 C 573.272 -2.01117 -0.236303 0
M  V30 5980 C 573.6 -1.24381 -1.49531 0
M  V30 5981 O 572.855 -0.323057 -1.93015 0
M  V30 5982 C 573.154 -3.52607 -0.583369 0
M  V30 5983 C 572.82 -4.47151 0.58023 0
M  V30 5984 C 571.482 -4.72718 0.899528 0
M  V30 5985 C 573.834 -5.03137 1.36024 0
M  V30 5986 C 571.162 -5.51523 2.00098 0
M  V30 5987 C 573.514 -5.83145 2.45204 0
M  V30 5988 C 572.178 -6.07001 2.77679 0
M  V30 5989 H 571.448 -0.735938 -0.0864695 0
M  V30 5990 H 574.095 -1.85209 0.48683 0
M  V30 5991 H 572.4 -3.66413 -1.38739 0
M  V30 5992 H 574.097 -3.86901 -1.05397 0
M  V30 5993 H 570.687 -4.27394 0.321322 0
M  V30 5994 H 574.871 -4.83339 1.12682 0
M  V30 5995 H 570.127 -5.68229 2.25668 0
M  V30 5996 H 574.301 -6.25537 3.06067 0
M  V30 5997 H 571.928 -6.67851 3.63151 0
M  V30 5998 N 573.503 -0.0852151 -1.57369 0
M  V30 5999 C 574.75 0.580806 -1.93992 0
M  V30 6000 C 575.078 1.68801 -0.966252 0
M  V30 6001 O 574.333 1.95694 0.0158649 0
M  V30 6002 C 574.632 1.18482 -3.3719 0
M  V30 6003 C 574.298 0.2024 -4.50446 0
M  V30 6004 C 572.96 -0.0678318 -4.81152 0
M  V30 6005 C 575.312 -0.46895 -5.19086 0
M  V30 6006 C 572.64 -1.01627 -5.77831 0
M  V30 6007 C 574.992 -1.4058 -6.16782 0
M  V30 6008 C 573.656 -1.68436 -6.45899 0
M  V30 6009 H 572.926 0.212532 -0.709867 0
M  V30 6010 H 575.573 -0.158947 -1.90839 0
M  V30 6011 H 573.878 2.0006 -3.36873 0
M  V30 6012 H 575.575 1.70767 -3.62822 0
M  V30 6013 H 572.165 0.423208 -4.26505 0
M  V30 6014 H 576.349 -0.273307 -4.95547 0
M  V30 6015 H 571.605 -1.2392 -5.9871 0
M  V30 6016 H 575.779 -1.93188 -6.69068 0
M  V30 6017 H 573.406 -2.42088 -7.20623 0
M  V30 6018 N 574.981 1.5647 0.188427 0
M  V30 6019 C 575.928 1.95073 1.23349 0
M  V30 6020 C 576.898 0.812238 1.44886 0
M  V30 6021 O 578.083 1.07095 1.57909 0
M  V30 6022 C 575.223 2.30124 2.57171 0
M  V30 6023 C 574.336 3.57069 2.43157 0
M  V30 6024 C 573.471 3.81411 3.69729 0
M  V30 6025 C 572.51 5.0176 3.50575 0
M  V30 6026 N 571.647 5.22321 4.69175 0
M  V30 6027 H 576.487 2.84171 0.89728 0
M  V30 6028 H 574.024 1.40623 0.431683 0
M  V30 6029 H 575.982 2.48463 3.35145 0
M  V30 6030 H 574.612 1.44159 2.88822 0
M  V30 6031 H 573.664 3.4674 1.56447 0
M  V30 6032 H 574.976 4.452 2.24942 0
M  V30 6033 H 574.13 4.00026 4.56141 0
M  V30 6034 H 572.869 2.91624 3.90905 0
M  V30 6035 H 571.874 4.83061 2.62549 0
M  V30 6036 H 573.099 5.93063 3.30837 0
M  V30 6037 H 571.045 4.35483 4.90602 0
M  V30 6038 H 570.962 6.04643 4.53809 0
M  V30 6039 H 572.23 5.45401 5.56919 0
M  V30 6040 N 576.459 -0.456382 1.50847 0
M  V30 6041 C 577.736 -1.21739 1.53098 0
M  V30 6042 C 578.116 -2.09179 0.284132 0
M  V30 6043 O 577.464 -2.16466 -0.731773 0
M  V30 6044 C 577.674 -2.03573 2.83477 0
M  V30 6045 C 579.022 -2.61264 3.34703 0
M  V30 6046 O 580.046 -2.13802 2.84898 0
M  V30 6047 O 578.905 -3.47779 4.21559 0
M  V30 6048 H 575.999 -0.553219 0.614718 0
M  V30 6049 H 578.545 -0.467003 1.63148 0
M  V30 6050 H 577.317 -1.39232 3.65691 0
M  V30 6051 H 576.94 -2.85716 2.76499 0
M  V30 6052 N 577.937 -1.40673 -0.710563 0
M  V30 6053 C 578.884 -1.41336 -1.82463 0
M  V30 6054 C 579.854 -0.269648 -1.63897 0
M  V30 6055 O 581.039 -0.468463 -1.8496 0
M  V30 6056 C 578.179 -1.28665 -3.20218 0
M  V30 6057 C 577.292 -2.52784 -3.5032 0
M  V30 6058 C 576.427 -2.32517 -4.77608 0
M  V30 6059 C 575.466 -3.52187 -5.0063 0
M  V30 6060 N 574.603 -3.31084 -6.19135 0
M  V30 6061 H 579.443 -2.36558 -1.8123 0
M  V30 6062 H 576.98 -1.17483 -0.885226 0
M  V30 6063 H 578.938 -1.19324 -3.99772 0
M  V30 6064 H 577.568 -0.370602 -3.20666 0
M  V30 6065 H 576.62 -2.72634 -2.65283 0
M  V30 6066 H 577.932 -3.41845 -3.63241 0
M  V30 6067 H 577.086 -2.20558 -5.65189 0
M  V30 6068 H 575.825 -1.40889 -4.66906 0
M  V30 6069 H 574.83 -3.64617 -4.11502 0
M  V30 6070 H 576.055 -4.44749 -5.13201 0
M  V30 6071 H 574.001 -2.42143 -6.09674 0
M  V30 6072 H 573.918 -4.13713 -6.32754 0
M  V30 6073 H 575.186 -3.22868 -7.0949 0
M  V30 6074 N 579.415 0.9433 -1.26252 0
M  V30 6075 C 580.826 1.50404 -1.10614 0
M  V30 6076 C 581.177 1.93666 0.31429 0
M  V30 6077 O 580.302 1.79709 1.20555 0
M  V30 6078 C 580.897 2.73336 -2.00182 0
M  V30 6079 C 579.456 3.25686 -1.88695 0
M  V30 6080 C 578.603 1.98474 -1.93658 0
M  V30 6081 H 581.554 0.759006 -1.39373 0
M  V30 6082 H 581.575 3.47567 -1.54847 0
M  V30 6083 H 581.087 2.41818 -3.03555 0
M  V30 6084 H 579.188 3.61998 -0.882489 0
M  V30 6085 H 579.301 3.92935 -2.74115 0
M  V30 6086 H 577.665 2.14278 -1.37684 0
M  V30 6087 H 578.448 1.6929 -2.98657 0
M  V30 6088 N 580.893 1.08022 1.14757 0
M  V30 6089 C 582.123 0.827646 1.89298 0
M  V30 6090 C 582.531 -0.623506 1.78631 0
M  V30 6091 O 581.874 -1.43991 1.14071 0
M  V30 6092 C 581.936 1.16553 3.40082 0
M  V30 6093 C 581.6 2.61866 3.74533 0
M  V30 6094 C 582.597 3.60116 3.74984 0
M  V30 6095 C 580.282 2.97619 4.04633 0
M  V30 6096 C 582.276 4.92151 4.05051 0
M  V30 6097 C 579.963 4.2985 4.34364 0
M  V30 6098 C 580.961 5.26926 4.34555 0
M  V30 6099 O 580.649 6.5678 4.63568 0
M  V30 6100 H 580.381 0.298396 0.606577 0
M  V30 6101 H 582.935 1.44187 1.46285 0
M  V30 6102 H 581.165 0.494296 3.83528 0
M  V30 6103 H 582.854 0.894407 3.95923 0
M  V30 6104 H 583.62 3.33837 3.51821 0
M  V30 6105 H 579.499 2.22702 4.03639 0
M  V30 6106 H 583.043 5.67915 4.05115 0
M  V30 6107 H 578.94 4.55879 4.56995 0
M  V30 6108 H 579.708 6.62035 4.81303 0
M  V30 6109 N 582.371 -1.3172 0.865308 0
M  V30 6110 C 583.617 -1.97168 0.474633 0
M  V30 6111 C 583.95 -1.68263 -0.969604 0
M  V30 6112 O 583.225 -0.976588 -1.68205 0
M  V30 6113 C 583.508 -3.52689 0.726808 0
M  V30 6114 C 583.361 -3.91185 2.22024 0
M  V30 6115 C 584.68 -4.39689 0.190201 0
M  V30 6116 H 581.799 -0.716185 0.17392 0
M  V30 6117 H 584.441 -1.55925 1.08569 0
M  V30 6118 H 582.591 -3.8795 0.206705 0
M  V30 6119 H 584.263 -3.66049 2.80724 0
M  V30 6120 H 582.506 -3.3996 2.69462 0
M  V30 6121 H 583.177 -4.99604 2.34735 0
M  V30 6122 H 585.653 -4.11225 0.635103 0
M  V30 6123 H 584.529 -5.47469 0.396132 0
M  V30 6124 H 584.79 -4.32683 -0.907625 0
M  V30 6125 N 583.85 -0.624285 -1.44708 0
M  V30 6126 C 585.08 -0.132726 -2.06173 0
M  V30 6127 C 585.488 1.19513 -1.46674 0
M  V30 6128 O 584.831 1.74254 -0.581491 0
M  V30 6129 C 584.893 0.0636732 -3.59444 0
M  V30 6130 C 584.557 -1.18496 -4.4137 0
M  V30 6131 C 585.553 -2.10706 -4.75288 0
M  V30 6132 C 583.239 -1.41846 -4.81856 0
M  V30 6133 C 585.233 -3.24582 -5.48567 0
M  V30 6134 C 582.92 -2.5602 -5.54885 0
M  V30 6135 C 583.918 -3.47215 -5.88159 0
M  V30 6136 O 583.606 -4.59399 -6.59703 0
M  V30 6137 H 583.338 -0.0737313 -0.671967 0
M  V30 6138 H 585.892 -0.856789 -1.86677 0
M  V30 6139 H 584.122 0.842809 -3.77404 0
M  V30 6140 H 585.811 0.508924 -4.02697 0
M  V30 6141 H 586.577 -1.93898 -4.44554 0
M  V30 6142 H 582.456 -0.717556 -4.55381 0
M  V30 6143 H 586 -3.95785 -5.74456 0
M  V30 6144 H 581.897 -2.72774 -5.85034 0
M  V30 6145 H 582.665 -4.58293 -6.78166 0
M  V30 6146 N 585.328 1.53329 -0.364422 0
M  V30 6147 C 586.739 1.86345 0.115039 0
M  V30 6148 C 587.09 1.28505 1.4826 0
M  V30 6149 O 586.215 0.606639 2.07723 0
M  V30 6150 C 586.81 3.38114 0.215522 0
M  V30 6151 C 585.369 3.70932 0.639237 0
M  V30 6152 C 584.516 2.76471 -0.214261 0
M  V30 6153 H 587.467 1.47593 -0.583258 0
M  V30 6154 H 587.488 3.66031 1.0393 0
M  V30 6155 H 587 3.80182 -0.779948 0
M  V30 6156 H 585.101 3.3442 1.64298 0
M  V30 6157 H 585.214 4.77302 0.41465 0
M  V30 6158 H 583.578 2.52724 0.316678 0
M  V30 6159 H 584.361 3.21373 -1.20725 0
M  V30 6160 N 586.806 0.0935595 1.57322 0
M  V30 6161 C 588.053 -0.570509 1.94297 0
M  V30 6162 C 588.381 -1.68286 0.97519 0
M  V30 6163 O 587.636 -1.95699 -0.00548655 0
M  V30 6164 C 587.935 -1.16692 3.37813 0
M  V30 6165 C 587.601 -0.178509 4.50547 0
M  V30 6166 C 586.263 0.0933475 4.81109 0
M  V30 6167 C 588.615 0.496472 5.1883 0
M  V30 6168 C 585.943 1.0469 5.77284 0
M  V30 6169 C 588.295 1.43849 6.16028 0
M  V30 6170 C 586.959 1.71859 6.44997 0
M  V30 6171 H 586.229 -0.208764 0.710984 0
M  V30 6172 H 588.876 0.169066 1.90752 0
M  V30 6173 H 587.181 -1.98271 3.37929 0
M  V30 6174 H 588.878 -1.6884 3.63722 0
M  V30 6175 H 585.468 -0.400584 4.26724 0
M  V30 6176 H 589.652 0.299584 4.95395 0
M  V30 6177 H 584.908 1.27094 5.98044 0
M  V30 6178 H 589.082 1.96734 6.68034 0
M  V30 6179 H 586.709 2.45906 7.19329 0
M  V30 6180 N 588.284 -1.56567 -0.180126 0
M  V30 6181 C 589.531 -1.81492 -0.898167 0
M  V30 6182 C 589.859 -0.669225 -1.82624 0
M  V30 6183 O 589.114 0.344096 -1.92651 0
M  V30 6184 C 589.413 -3.1252 -1.73395 0
M  V30 6185 C 589.079 -4.40658 -0.955567 0
M  V30 6186 C 587.741 -4.75465 -0.740707 0
M  V30 6187 C 590.093 -5.19593 -0.408948 0
M  V30 6188 C 587.421 -5.86691 0.0320128 0
M  V30 6189 C 589.773 -6.31627 0.350638 0
M  V30 6190 C 588.437 -6.65007 0.576378 0
M  V30 6191 H 587.707 -0.664125 -0.328662 0
M  V30 6192 H 590.354 -1.908 -0.163616 0
M  V30 6193 H 588.659 -2.98515 -2.53763 0
M  V30 6194 H 590.356 -3.29013 -2.29241 0
M  V30 6195 H 586.946 -4.13352 -1.13306 0
M  V30 6196 H 591.13 -4.93104 -0.562307 0
M  V30 6197 H 586.386 -6.11016 0.216735 0
M  V30 6198 H 590.56 -6.92001 0.781497 0
M  V30 6199 H 588.187 -7.51033 1.17703 0
M  V30 6200 N 589.762 0.448376 -1.51087 0
M  V30 6201 C 590.709 1.54341 -1.71603 0
M  V30 6202 C 591.679 1.56463 -0.557536 0
M  V30 6203 O 592.864 1.73644 -0.79072 0
M  V30 6204 C 590.004 2.92148 -1.83695 0
M  V30 6205 C 589.117 2.99639 -3.11192 0
M  V30 6206 C 588.252 4.285 -3.13944 0
M  V30 6207 C 587.291 4.29819 -4.35801 0
M  V30 6208 N 586.428 5.50186 -4.36164 0
M  V30 6209 H 591.268 1.36151 -2.65079 0
M  V30 6210 H 588.805 0.661585 -1.31383 0
M  V30 6211 H 590.763 3.72093 -1.88687 0
M  V30 6212 H 589.393 3.0892 -0.936374 0
M  V30 6213 H 588.445 2.12425 -3.15562 0
M  V30 6214 H 589.757 2.96474 -4.01129 0
M  V30 6215 H 588.911 5.16811 -3.17791 0
M  V30 6216 H 587.65 4.34307 -2.21876 0
M  V30 6217 H 586.655 3.39902 -4.32142 0
M  V30 6218 H 587.88 4.25685 -5.29121 0
M  V30 6219 H 585.826 5.56735 -3.46961 0
M  V30 6220 H 585.743 5.48856 -5.19897 0
M  V30 6221 H 587.011 6.40559 -4.44189 0
M  V30 6222 N 591.24 1.41047 0.703093 0
M  V30 6223 C 592.517 1.30493 1.45708 0
M  V30 6224 C 592.897 -0.0709892 2.10981 0
M  V30 6225 O 592.245 -1.08471 2.01113 0
M  V30 6226 C 592.455 2.45287 2.48265 0
M  V30 6227 C 593.803 2.86104 3.13735 0
M  V30 6228 O 594.827 2.44971 2.58587 0
M  V30 6229 O 593.686 3.57206 4.13601 0
M  V30 6230 H 590.78 0.513144 0.648546 0
M  V30 6231 H 593.326 1.52995 0.734208 0
M  V30 6232 H 592.098 3.37135 1.98635 0
M  V30 6233 H 591.721 2.24622 3.28071 0
M  V30 6234 N 592.718 -0.936591 1.26751 0
M  V30 6235 C 593.995 -1.66094 1.03306 0
M  V30 6236 C 594.375 -2.06568 -0.435058 0
M  V30 6237 O 593.723 -1.79305 -1.41641 0
M  V30 6238 C 593.933 -2.86969 1.98619 0
M  V30 6239 C 595.281 -3.58516 2.27489 0
M  V30 6240 O 596.305 -2.97082 1.96522 0
M  V30 6241 O 595.164 -4.69181 2.80235 0
M  V30 6242 H 592.258 -0.727568 0.393158 0
M  V30 6243 H 594.804 -0.987914 1.3798 0
M  V30 6244 H 593.576 -2.53985 2.9767 0
M  V30 6245 H 593.199 -3.61996 1.64454 0
M  V30 6246 N 594.196 -1.08629 -1.14182 0
M  V30 6247 C 595.426 -0.837673 -1.88856 0
M  V30 6248 C 595.834 0.614024 -1.78959 0
M  V30 6249 O 595.177 1.43384 -1.14833 0
M  V30 6250 C 595.239 -1.18355 -3.39459 0
M  V30 6251 C 594.903 -2.63848 -3.73139 0
M  V30 6252 C 595.9 -3.62099 -3.73069 0
M  V30 6253 C 593.585 -2.99761 -4.03049 0
M  V30 6254 C 595.579 -4.94292 -4.02435 0
M  V30 6255 C 593.266 -4.32147 -4.32078 0
M  V30 6256 C 594.264 -5.29223 -4.31755 0
M  V30 6257 O 593.952 -6.59229 -4.60079 0
M  V30 6258 H 593.684 -0.301609 -0.604986 0
M  V30 6259 H 596.238 -1.44961 -1.45518 0
M  V30 6260 H 594.468 -0.514628 -3.8326 0
M  V30 6261 H 596.157 -0.915391 -3.95443 0
M  V30 6262 H 596.923 -3.35698 -3.50046 0
M  V30 6263 H 592.802 -2.2484 -4.02453 0
M  V30 6264 H 596.346 -5.70055 -4.02098 0
M  V30 6265 H 592.243 -4.58296 -4.54571 0
M  V30 6266 H 593.011 -6.64578 -4.77785 0
M  V30 6267 N 595.674 1.31259 -0.872281 0
M  V30 6268 C 596.921 1.96622 -0.484365 0
M  V30 6269 C 597.249 1.68939 0.963841 0
M  V30 6270 O 596.504 0.97974 1.6941 0
M  V30 6271 C 596.803 3.50659 -0.690889 0
M  V30 6272 C 596.469 3.98366 -2.11224 0
M  V30 6273 C 595.131 4.11104 -2.50094 0
M  V30 6274 C 597.483 4.23425 -3.0391 0
M  V30 6275 C 594.811 4.46254 -3.80887 0
M  V30 6276 C 597.163 4.60039 -4.3422 0
M  V30 6277 C 595.827 4.70984 -4.73001 0
M  V30 6278 H 595.097 0.71949 -0.177242 0
M  V30 6279 H 597.744 1.56353 -1.10571 0
M  V30 6280 H 596.049 3.91798 0.0135782 0
M  V30 6281 H 597.746 3.99284 -0.370534 0
M  V30 6282 H 594.336 3.88949 -1.80047 0
M  V30 6283 H 598.52 4.13075 -2.75104 0
M  V30 6284 H 593.776 4.52926 -4.10692 0
M  V30 6285 H 597.95 4.78381 -5.06088 0
M  V30 6286 H 595.577 4.97977 -5.7439 0
M  V30 6287 N 597.152 0.631951 1.44375 0
M  V30 6288 C 598.401 0.134214 2.01253 0
M  V30 6289 C 598.714 -1.25171 1.50305 0
M  V30 6290 O 599.92 -1.8435 1.99317 0
M  V30 6291 C 598.376 0.189187 3.59402 0
M  V30 6292 C 597.984 1.57647 4.19346 0
M  V30 6293 C 599.728 -0.252044 4.23751 0
M  V30 6294 C 597.635 1.58651 5.69722 0
M  V30 6295 H 596.565 0.0464101 0.75257 0
M  V30 6296 H 599.216 0.790868 1.65582 0
M  V30 6297 H 597.598 -0.534584 3.92375 0
M  V30 6298 H 598.772 2.32389 3.97909 0
M  V30 6299 H 597.087 1.96186 3.67288 0
M  V30 6300 H 599.684 -0.264084 5.34047 0
M  V30 6301 H 600.027 -1.27951 3.96149 0
M  V30 6302 H 600.56 0.41926 3.95584 0
M  V30 6303 H 597.299 2.59237 6.0206 0
M  V30 6304 H 596.819 0.882039 5.93279 0
M  V30 6305 H 598.498 1.32082 6.33375 0
M  V30 6306 N 598.631 -1.53133 0.372548 0
M  V30 6307 C 599.594 -2.24569 -0.458389 0
M  V30 6308 C 600.594 -1.25603 -1.00402 0
M  V30 6309 O 601.784 -1.49827 -0.888672 0
M  V30 6310 C 598.916 -2.98783 -1.6414 0
M  V30 6311 H 600.109 -2.99436 0.166799 0
M  V30 6312 H 597.662 -1.55805 0.124357 0
M  V30 6313 H 598.397 -2.28176 -2.30448 0
M  V30 6314 H 598.182 -3.71404 -1.25704 0
M  V30 6315 H 599.672 -3.53068 -2.23008 0
M  V30 6316 N 600.109 -0.101901 -1.5727 0
M  V30 6317 C 601.357 0.559091 -1.94213 0
M  V30 6318 C 601.678 1.68297 -0.984948 0
M  V30 6319 O 600.948 1.95863 -0.0381975 0
M  V30 6320 H 599.528 0.20952 -0.717015 0
M  V30 6321 H 602.19 -0.166831 -1.94185 0
M  V30 6322 H 601.286 0.96485 -2.96811 0
M  V30 6323 N 601.587 1.56661 0.17182 0
M  V30 6324 C 602.534 1.96371 1.21273 0
M  V30 6325 C 603.504 0.82756 1.44016 0
M  V30 6326 O 604.689 1.08764 1.56764 0
M  V30 6327 C 601.829 2.32838 2.54716 0
M  V30 6328 C 600.942 3.59628 2.39356 0
M  V30 6329 C 600.077 3.85311 3.65662 0
M  V30 6330 C 599.116 5.0545 3.45234 0
M  V30 6331 N 598.253 5.27268 4.63608 0
M  V30 6332 H 603.093 2.85106 0.86709 0
M  V30 6333 H 600.63 1.41073 0.416744 0
M  V30 6334 H 602.588 2.52004 3.3249 0
M  V30 6335 H 601.218 1.47214 2.87277 0
M  V30 6336 H 600.27 3.4838 1.52761 0
M  V30 6337 H 601.582 4.4756 2.20207 0
M  V30 6338 H 600.736 4.04841 4.51872 0
M  V30 6339 H 599.475 2.95753 3.8779 0
M  V30 6340 H 598.48 4.85819 2.5741 0
M  V30 6341 H 599.705 5.96538 3.24529 0
M  V30 6342 H 597.651 4.40662 4.85956 0
M  V30 6343 H 597.568 6.09422 4.4737 0
M  V30 6344 H 598.836 5.51277 5.51103 0
M  V30 6345 N 603.065 -0.440357 1.51323 0
M  V30 6346 C 604.013 -1.55492 1.72988 0
M  V30 6347 C 605.007 -1.58564 0.596138 0
M  V30 6348 O 606.213 -1.62345 0.777443 0
M  V30 6349 H 602.588 -0.516532 0.546533 0
M  V30 6350 H 604.559 -1.34392 2.66423 0
M  V30 6351 C 603.308 -2.93176 1.86931 0
M  V30 6352 H 602.631 -2.91543 2.73574 0
M  V30 6353 H 604.071 -3.70537 2.06103 0
M  V30 6354 C 602.53 -3.30988 0.628365 0
M  V30 6355 O 603.06 -4.01106 -0.218367 0
M  V30 6356 N 601.266 -2.86719 0.473339 0
M  V30 6357 H 600.813 -2.2983 1.16345 0
M  V30 6358 H 600.771 -3.12381 -0.355727 0
M  V30 6359 N 604.543 -1.41418 -0.695603 0
M  V30 6360 C 605.768 -1.44329 -1.48942 0
M  V30 6361 C 606.193 -0.0501579 -1.88033 0
M  V30 6362 O 605.551 0.946598 -1.54626 0
M  V30 6363 C 605.599 -2.3578 -2.72837 0
M  V30 6364 O 604.703 -1.81482 -3.70322 0
M  V30 6365 H 604.044 -0.489838 -0.44828 0
M  V30 6366 H 606.574 -1.85878 -0.855014 0
M  V30 6367 H 606.584 -2.51654 -3.21145 0
M  V30 6368 H 605.259 -3.37005 -2.43722 0
M  V30 6369 H 603.836 -1.75058 -3.29255 0
M  V30 6370 N 606.021 0.929856 -1.27246 0
M  V30 6371 C 607.267 1.6802 -1.14634 0
M  V30 6372 C 607.622 1.89965 0.305151 0
M  V30 6373 O 606.915 1.47737 1.22001 0
M  V30 6374 C 607.109 3.05116 -1.86115 0
M  V30 6375 C 606.938 2.96549 -3.38066 0
M  V30 6376 C 605.708 2.98947 -4.0738 0
M  V30 6377 C 607.906 2.7583 -4.34077 0
M  V30 6378 N 605.888 2.80799 -5.45917 0
M  V30 6379 C 607.259 2.66364 -5.59866 0
M  V30 6380 C 609.314 2.60701 -4.24193 0
M  V30 6381 C 608.017 2.43313 -6.76898 0
M  V30 6382 C 610.043 2.39026 -5.40944 0
M  V30 6383 C 609.405 2.30302 -6.65688 0
M  V30 6384 H 605.504 0.62172 -0.474329 0
M  V30 6385 H 608.088 1.09947 -1.60685 0
M  V30 6386 H 606.259 3.61306 -1.42522 0
M  V30 6387 H 607.991 3.69076 -1.66027 0
M  V30 6388 H 604.746 3.09093 -3.58829 0
M  V30 6389 H 605.17 2.74861 -6.18692 0
M  V30 6390 H 609.812 2.66206 -3.28473 0
M  V30 6391 H 607.53 2.36548 -7.72704 0
M  V30 6392 H 611.116 2.28208 -5.35175 0
M  V30 6393 H 609.996 2.13756 -7.54505 0
M  V30 6394 N 607.499 1.09233 1.13605 0
M  V30 6395 C 608.727 0.848908 1.88683 0
M  V30 6396 C 609.142 -0.599667 1.79024 0
M  V30 6397 O 608.499 -1.41265 1.15544 0
M  V30 6398 C 608.55 1.27273 3.38355 0
M  V30 6399 O 608.271 2.66449 3.47759 0
M  V30 6400 C 609.772 1.0614 4.30406 0
M  V30 6401 H 606.992 0.305549 0.597395 0
M  V30 6402 H 609.536 1.4538 1.43823 0
M  V30 6403 H 607.691 0.711776 3.80805 0
M  V30 6404 H 608.105 2.84264 4.40788 0
M  V30 6405 H 609.579 1.40725 5.33761 0
M  V30 6406 H 610.056 -0.000960332 4.392 0
M  V30 6407 H 610.662 1.60821 3.93722 0
M  V30 6408 N 608.977 -1.30795 0.87923 0
M  V30 6409 C 610.225 -1.95974 0.493809 0
M  V30 6410 C 610.546 -1.69787 -0.959021 0
M  V30 6411 O 609.816 -1.01832 -1.67353 0
M  V30 6412 H 608.396 -0.725083 0.179622 0
M  V30 6413 H 611.058 -1.59432 1.12105 0
M  V30 6414 H 610.154 -3.05058 0.659263 0
M  V30 6415 N 610.455 -0.639598 -1.44038 0
M  V30 6416 C 611.403 0.0723409 -2.32487 0
M  V30 6417 C 612.397 0.827129 -1.47834 0
M  V30 6418 O 613.603 0.73907 -1.64127 0
M  V30 6419 H 609.978 0.0421696 -0.750817 0
M  V30 6420 H 611.949 -0.691593 -2.90275 0
M  V30 6421 C 610.698 1.03452 -3.31953 0
M  V30 6422 H 610.021 0.46315 -3.97108 0
M  V30 6423 H 611.461 1.502 -3.96505 0
M  V30 6424 C 609.92 2.12392 -2.61518 0
M  V30 6425 O 610.45 3.2059 -2.42044 0
M  V30 6426 N 608.656 1.88563 -2.21116 0
M  V30 6427 H 608.203 1.00577 -2.37154 0
M  V30 6428 H 608.161 2.61651 -1.74316 0
M  V30 6429 N 611.933 1.52934 -0.380664 0
M  V30 6430 C 613.179 2.01765 0.20458 0
M  V30 6431 C 613.512 1.26696 1.47179 0
M  V30 6432 O 612.787 0.364936 1.91046 0
M  V30 6433 C 613.07 3.56869 0.481269 0
M  V30 6434 C 612.923 4.42617 -0.800629 0
M  V30 6435 C 614.242 4.2121 1.27554 0
M  V30 6436 H 611.361 0.733388 0.0728803 0
M  V30 6437 H 614.003 1.83068 -0.50853 0
M  V30 6438 H 612.153 3.72932 1.08875 0
M  V30 6439 H 613.825 4.38323 -1.43773 0
M  V30 6440 H 612.068 4.09977 -1.4178 0
M  V30 6441 H 612.739 5.49134 -0.561791 0
M  V30 6442 H 615.215 4.09072 0.761514 0
M  V30 6443 H 614.091 5.29732 1.43788 0
M  V30 6444 H 614.352 3.78269 2.28833 0
M  V30 6445 N 613.412 0.11024 1.57214 0
M  V30 6446 C 614.375 -0.828808 2.1369 0
M  V30 6447 C 615.375 -1.20059 1.06969 0
M  V30 6448 O 616.565 -1.12754 1.32786 0
M  V30 6449 C 613.697 -2.11959 2.66994 0
M  V30 6450 H 614.89 -0.338146 2.97988 0
M  V30 6451 H 612.443 -0.138913 1.55681 0
M  V30 6452 H 613.178 -2.65476 1.8626 0
M  V30 6453 H 612.963 -1.86258 3.45037 0
M  V30 6454 H 614.453 -2.79105 3.10629 0
M  V30 6455 N 614.89 -1.56749 -0.16351 0
M  V30 6456 C 615.82 -2.00042 -1.20438 0
M  V30 6457 C 616.801 -0.877256 -1.45733 0
M  V30 6458 O 617.986 -1.1439 -1.56935 0
M  V30 6459 C 615.116 -2.36697 -2.54149 0
M  V30 6460 C 614.07 -3.52046 -2.43408 0
M  V30 6461 C 613.396 -3.74466 -3.81679 0
M  V30 6462 C 614.696 -4.85247 -1.93216 0
M  V30 6463 H 616.39 -2.87244 -0.844477 0
M  V30 6464 H 613.936 -1.38194 -0.40478 0
M  V30 6465 H 615.889 -2.65582 -3.27176 0
M  V30 6466 H 614.613 -1.46414 -2.91943 0
M  V30 6467 H 613.272 -3.23301 -1.72834 0
M  V30 6468 H 612.92 -2.81461 -4.1688 0
M  V30 6469 H 612.62 -4.52084 -3.75359 0
M  V30 6470 H 614.144 -4.0576 -4.5628 0
M  V30 6471 H 615.558 -5.12957 -2.56023 0
M  V30 6472 H 613.955 -5.66556 -1.97825 0
M  V30 6473 H 615.025 -4.7672 -0.88689 0
M  V30 6474 N 616.368 0.432326 -1.51554 0
M  V30 6475 C 617.616 1.17901 -1.64146 0
M  V30 6476 C 617.937 1.91604 -0.362367 0
M  V30 6477 O 617.207 1.85764 0.621968 0
M  V30 6478 H 615.787 0.438206 -0.604966 0
M  V30 6479 H 618.449 0.495172 -1.88505 0
M  V30 6480 H 617.545 1.90584 -2.47152 0
M  V30 6481 N 617.846 1.41785 0.688094 0
M  V30 6482 C 619.092 1.41753 1.4503 0
M  V30 6483 C 619.425 0.0290745 1.94178 0
M  V30 6484 O 618.7 -0.944456 1.7003 0
M  V30 6485 C 618.983 2.43069 2.65686 0
M  V30 6486 C 618.836 3.91053 2.22256 0
M  V30 6487 C 620.155 2.41543 3.67893 0
M  V30 6488 H 617.274 0.516202 0.526027 0
M  V30 6489 H 619.916 1.73111 0.783105 0
M  V30 6490 H 618.066 2.1646 3.2261 0
M  V30 6491 H 619.738 4.28594 1.70602 0
M  V30 6492 H 617.981 4.05559 1.53963 0
M  V30 6493 H 618.652 4.57501 3.08863 0
M  V30 6494 H 621.128 2.65175 3.20658 0
M  V30 6495 H 620.004 3.14434 4.49914 0
M  V30 6496 H 620.265 1.43666 4.18106 0
M  V30 6497 N 619.324 -0.923095 1.27737 0
M  V30 6498 C 620.234 -2.05765 1.12685 0
M  V30 6499 C 621.25 -1.73911 0.0557197 0
M  V30 6500 O 622.426 -1.99674 0.263137 0
M  V30 6501 C 619.491 -3.37804 0.780363 0
M  V30 6502 C 618.552 -3.83326 1.93286 0
M  V30 6503 C 617.785 -5.09064 1.60281 0
M  V30 6504 O 618.008 -5.6809 0.512828 0
M  V30 6505 O 616.942 -5.50071 2.44347 0
M  V30 6506 H 620.768 -2.21378 2.07907 0
M  V30 6507 H 618.353 -1.04299 1.06968 0
M  V30 6508 H 620.235 -4.17097 0.600668 0
M  V30 6509 H 618.91 -3.23387 -0.142291 0
M  V30 6510 H 617.817 -3.049 2.16764 0
M  V30 6511 H 619.15 -4.02292 2.83588 0
M  V30 6512 N 620.802 -1.09834 -1.13024 0
M  V30 6513 C 621.749 -0.741522 -2.18564 0
M  V30 6514 C 622.719 0.279236 -1.63736 0
M  V30 6515 O 623.904 0.159923 -1.90129 0
M  V30 6516 C 621.044 -0.17277 -3.44667 0
M  V30 6517 C 620.157 -1.24808 -4.13578 0
M  V30 6518 C 619.292 -0.641631 -5.27311 0
M  V30 6519 C 618.331 -1.69795 -5.88078 0
M  V30 6520 N 617.468 -1.11223 -6.93234 0
M  V30 6521 H 622.308 -1.64576 -2.48432 0
M  V30 6522 H 619.845 -0.822174 -1.21978 0
M  V30 6523 H 621.803 0.17482 -4.16834 0
M  V30 6524 H 620.433 0.694725 -3.15235 0
M  V30 6525 H 619.485 -1.71288 -3.39653 0
M  V30 6526 H 620.797 -2.04795 -4.54819 0
M  V30 6527 H 619.951 -0.243128 -6.06213 0
M  V30 6528 H 618.69 0.189742 -4.87331 0
M  V30 6529 H 617.695 -2.10595 -5.07868 0
M  V30 6530 H 618.92 -2.53206 -6.3013 0
M  V30 6531 H 616.866 -0.302208 -6.55304 0
M  V30 6532 H 616.783 -1.84901 -7.3304 0
M  V30 6533 H 618.051 -0.740068 -7.75979 0
M  V30 6534 N 622.28 1.30327 -0.886154 0
M  V30 6535 C 623.528 1.9571 -0.504195 0
M  V30 6536 C 623.849 1.70294 0.950003 0
M  V30 6537 O 623.119 1.02718 1.66811 0
M  V30 6538 H 621.699 0.72412 -0.183465 0
M  V30 6539 H 624.361 1.58835 -1.12949 0
M  V30 6540 H 623.457 3.04704 -0.675431 0
M  V30 6541 N 623.758 0.647228 1.43697 0
M  V30 6542 C 625.007 0.155552 2.01099 0
M  V30 6543 C 625.32 -1.23569 1.51624 0
M  V30 6544 O 626.526 -1.82226 2.01261 0
M  V30 6545 C 624.982 0.227296 3.59182 0
M  V30 6546 C 624.59 1.62086 4.17651 0
M  V30 6547 C 626.334 -0.207085 4.23995 0
M  V30 6548 C 624.241 1.64685 5.68008 0
M  V30 6549 H 623.171 0.0543895 0.752036 0
M  V30 6550 H 625.822 0.808386 1.64734 0
M  V30 6551 H 624.204 -0.492937 3.9292 0
M  V30 6552 H 625.378 2.36597 3.95422 0
M  V30 6553 H 623.693 2.0007 3.65186 0
M  V30 6554 H 626.29 -0.207426 5.34298 0
M  V30 6555 H 626.633 -1.23742 3.97484 0
M  V30 6556 H 627.166 0.461193 3.95118 0
M  V30 6557 H 623.905 2.65608 5.99277 0
M  V30 6558 H 623.425 0.944914 5.9231 0
M  V30 6559 H 625.104 1.38792 6.31938 0
M  V30 6560 N 625.236 -1.5273 0.388769 0
M  V30 6561 C 626.647 -1.86505 -0.0853788 0
M  V30 6562 C 626.998 -1.30847 -1.46197 0
M  V30 6563 O 626.123 -0.639609 -2.06732 0
M  V30 6564 C 626.718 -3.38414 -0.161703 0
M  V30 6565 C 625.277 -3.71902 -0.580144 0
M  V30 6566 C 624.424 -2.76095 0.258218 0
M  V30 6567 H 627.375 -1.46647 0.606665 0
M  V30 6568 H 627.396 -3.67638 -0.980936 0
M  V30 6569 H 626.908 -3.78893 0.840333 0
M  V30 6570 H 625.009 -3.36992 -1.58957 0
M  V30 6571 H 625.122 -4.77902 -0.338663 0
M  V30 6572 H 623.486 -2.53195 -0.276432 0
M  V30 6573 H 624.269 -3.19411 1.25822 0
M  V30 6574 N 626.714 -0.118576 -1.57153 0
M  V30 6575 C 627.96 0.540326 -1.95469 0
M  V30 6576 C 628.293 1.66356 -1.00196 0
M  V30 6577 O 627.568 1.94461 -0.039104 0
M  V30 6578 C 627.851 1.07342 -3.43729 0
M  V30 6579 C 627.704 -0.0463732 -4.49776 0
M  V30 6580 C 629.023 1.96442 -3.93826 0
M  V30 6581 H 626.142 0.19494 -0.710751 0
M  V30 6582 H 628.784 -0.19405 -1.89006 0
M  V30 6583 H 626.934 1.69925 -3.49368 0
M  V30 6584 H 628.606 -0.681648 -4.56236 0
M  V30 6585 H 626.849 -0.709574 -4.27957 0
M  V30 6586 H 627.52 0.367856 -5.50773 0
M  V30 6587 H 629.996 1.43731 -3.90488 0
M  V30 6588 H 628.872 2.3066 -4.98084 0
M  V30 6589 H 629.133 2.89077 -3.34495 0
M  V30 6590 N 628.193 1.56834 0.155195 0
M  V30 6591 C 629.141 1.98584 1.21107 0
M  V30 6592 C 630.135 0.876987 1.44932 0
M  V30 6593 O 631.341 1.06215 1.45322 0
M  V30 6594 H 627.716 0.632039 0.407469 0
M  V30 6595 H 629.687 2.86561 0.832195 0
M  V30 6596 C 628.436 2.37555 2.53895 0
M  V30 6597 H 627.759 3.22428 2.3639 0
M  V30 6598 H 629.199 2.70598 3.26424 0
M  V30 6599 C 627.658 1.22507 3.13837 0
M  V30 6600 O 628.188 0.521388 3.98302 0
M  V30 6601 N 626.394 0.991444 2.73164 0
M  V30 6602 H 625.941 1.56544 2.04577 0
M  V30 6603 H 625.899 0.223546 3.13604 0
M  V30 6604 N 629.671 -0.424282 1.51781 0
M  V30 6605 C 630.92 -1.16961 1.64326 0
M  V30 6606 C 631.233 -1.92035 0.371749 0
M  V30 6607 O 632.439 -2.68873 0.37676 0
M  V30 6608 C 630.895 -2.12782 2.90262 0
M  V30 6609 C 630.503 -1.43295 4.24465 0
M  V30 6610 C 632.247 -2.87667 3.12166 0
M  V30 6611 C 630.154 -2.37676 5.41538 0
M  V30 6612 H 629.084 -0.440293 0.612093 0
M  V30 6613 H 631.735 -0.435431 1.78259 0
M  V30 6614 H 630.117 -2.8969 2.69992 0
M  V30 6615 H 631.291 -0.718564 4.55163 0
M  V30 6616 H 629.606 -0.805118 4.08542 0
M  V30 6617 H 632.203 -3.58395 3.96808 0
M  V30 6618 H 632.546 -3.49758 2.25776 0
M  V30 6619 H 633.079 -2.17863 3.32837 0
M  V30 6620 H 629.818 -1.80255 6.30229 0
M  V30 6621 H 629.338 -3.07132 5.15199 0
M  V30 6622 H 631.017 -2.98529 5.74012 0
M  V30 6623 N 631.149 -1.42148 -0.680565 0
M  V30 6624 C 632.374 -1.45901 -1.47403 0
M  V30 6625 C 632.799 -0.0700985 -1.87969 0
M  V30 6626 O 632.157 0.930145 -1.55621 0
M  V30 6627 C 632.205 -2.38661 -2.70321 0
M  V30 6628 O 631.309 -1.85399 -3.68376 0
M  V30 6629 H 630.65 -0.494565 -0.443059 0
M  V30 6630 H 633.18 -1.86774 -0.835251 0
M  V30 6631 H 633.19 -2.55046 -3.18458 0
M  V30 6632 H 631.865 -3.39571 -2.40134 0
M  V30 6633 H 630.442 -1.78541 -3.2738 0
M  V30 6634 N 632.627 0.916307 -1.28225 0
M  V30 6635 C 633.59 1.99996 -1.11957 0
M  V30 6636 C 634.59 1.60688 -0.0600152 0
M  V30 6637 O 635.78 1.71499 -0.30558 0
M  V30 6638 C 632.912 3.33458 -0.708411 0
M  V30 6639 H 634.105 2.15858 -2.08196 0
M  V30 6640 H 631.658 1.09863 -1.11175 0
M  V30 6641 H 632.393 3.23297 0.254859 0
M  V30 6642 H 632.178 3.63349 -1.47377 0
M  V30 6643 H 633.668 4.13014 -0.617164 0
M  V30 6644 N 634.105 1.10431 1.1244 0
M  V30 6645 C 635.053 0.747974 2.20246 0
M  V30 6646 C 636.047 -0.255848 1.67457 0
M  V30 6647 O 637.253 -0.116221 1.79624 0
M  V30 6648 H 633.628 0.223946 0.71788 0
M  V30 6649 H 635.599 1.6661 2.47556 0
M  V30 6650 C 634.348 0.195957 3.47147 0
M  V30 6651 H 633.671 0.959606 3.88113 0
M  V30 6652 H 635.111 -0.0153154 4.23997 0
M  V30 6653 C 633.57 -1.07132 3.19413 0
M  V30 6654 O 634.1 -2.15284 3.3914 0
M  V30 6655 N 632.306 -0.98994 2.73219 0
M  V30 6656 H 631.853 -0.109736 2.57366 0
M  V30 6657 H 631.811 -1.83856 2.55038 0
M  V30 6658 N 635.583 -1.29855 0.893053 0
M  V30 6659 C 636.999 -1.48366 0.588199 0
M  V30 6660 C 637.199 -1.81654 -0.872018 0
M  V30 6661 O 636.255 -1.909 -1.65268 0
M  V30 6662 C 637.568 -2.60136 1.5083 0
M  V30 6663 C 639.116 -2.74014 1.51279 0
M  V30 6664 C 639.591 -3.88905 2.41902 0
M  V30 6665 N 641.082 -3.96228 2.39911 0
M  V30 6666 C 641.817 -4.84458 3.06738 0
M  V30 6667 N 641.313 -5.77426 3.8282 0
M  V30 6668 N 643.106 -4.77894 2.95929 0
M  V30 6669 H 635.257 -1.06522 1.83757 0
M  V30 6670 H 637.52 -0.528495 0.787018 0
M  V30 6671 H 637.226 -2.42383 2.54839 0
M  V30 6672 H 637.1 -3.56793 1.22388 0
M  V30 6673 H 639.487 -2.91167 0.480179 0
M  V30 6674 H 639.568 -1.77952 1.83757 0
M  V30 6675 H 639.212 -3.72508 3.45253 0
M  V30 6676 H 639.142 -4.84322 2.06737 0
M  V30 6677 H 641.633 -3.29728 1.84629 0
M  V30 6678 H 641.946 -6.41529 4.30883 0
M  V30 6679 H 640.291 -5.77332 3.86927 0
M  V30 6680 H 643.482 -4.04248 2.36012 0
M  V30 6681 H 643.655 -5.46444 3.48286 0
M  V30 6682 N 637.061 -0.65484 -1.43351 0
M  V30 6683 C 638.286 -0.175046 -2.0666 0
M  V30 6684 C 638.711 1.15104 -1.4877 0
M  V30 6685 O 638.069 1.71144 -0.598279 0
M  V30 6686 C 638.117 -0.0991544 -3.60464 0
M  V30 6687 O 637.221 0.938169 -4.01587 0
M  V30 6688 H 636.562 -0.0956148 -0.65708 0
M  V30 6689 H 639.092 -0.898222 -1.83829 0
M  V30 6690 H 639.102 0.083632 -4.07914 0
M  V30 6691 H 637.777 -1.06719 -4.01975 0
M  V30 6692 H 636.354 0.72804 -3.65724 0
M  V30 6693 N 638.539 1.52521 -0.396863 0
M  V30 6694 C 639.502 2.2527 0.422604 0
M  V30 6695 C 640.502 1.27184 0.983913 0
M  V30 6696 O 641.692 1.51222 0.864723 0
M  V30 6697 C 638.824 3.01356 1.59365 0
M  V30 6698 H 640.017 2.99133 -0.214416 0
M  V30 6699 H 637.57 1.55587 -0.149128 0
M  V30 6700 H 638.305 2.31813 2.26789 0
M  V30 6701 H 638.09 3.73357 1.19779 0
M  V30 6702 H 639.58 3.56571 2.17363 0
M  V30 6703 N 640.017 0.126909 1.57088 0
M  V30 6704 C 641.247 -0.535892 1.99529 0
M  V30 6705 C 641.655 -1.60259 1.00566 0
M  V30 6706 O 640.998 -1.83698 -0.00843269 0
M  V30 6707 C 641.06 -1.21374 3.38391 0
M  V30 6708 C 640.724 -0.294044 4.56053 0
M  V30 6709 C 641.721 0.470454 5.17767 0
M  V30 6710 C 639.406 -0.202808 5.0189 0
M  V30 6711 C 641.4 1.31384 6.23712 0
M  V30 6712 C 639.087 0.644203 6.07695 0
M  V30 6713 C 640.085 1.40115 6.68473 0
M  V30 6714 O 639.773 2.23408 7.72233 0
M  V30 6715 H 639.505 -0.145799 0.66009 0
M  V30 6716 H 642.059 0.212441 2.04298 0
M  V30 6717 H 640.289 -2.00931 3.30399 0
M  V30 6718 H 641.978 -1.77424 3.65069 0
M  V30 6719 H 642.744 0.409884 4.83265 0
M  V30 6720 H 638.623 -0.781688 4.54324 0
M  V30 6721 H 642.167 1.90514 6.71081 0
M  V30 6722 H 638.064 0.706137 6.41626 0
M  V30 6723 H 638.832 2.16436 7.89365 0
M  V30 6724 N 641.495 -1.56914 -0.146875 0
M  V30 6725 C 642.442 -1.98275 -1.18134 0
M  V30 6726 C 643.412 -0.850367 -1.42681 0
M  V30 6727 O 644.597 -1.11244 -1.55014 0
M  V30 6728 C 641.737 -2.36861 -2.5098 0
M  V30 6729 C 640.85 -3.63391 -2.33605 0
M  V30 6730 C 639.985 -3.91079 -3.59486 0
M  V30 6731 C 639.024 -5.10879 -3.37149 0
M  V30 6732 N 638.161 -5.34577 -4.55161 0
M  V30 6733 H 643.001 -2.8645 -0.821622 0
M  V30 6734 H 640.538 -1.41718 -0.394248 0
M  V30 6735 H 642.496 -2.57262 -3.28439 0
M  V30 6736 H 641.126 -1.51766 -2.84898 0
M  V30 6737 H 640.178 -3.50766 -1.47199 0
M  V30 6738 H 641.49 -4.51007 -2.13059 0
M  V30 6739 H 640.644 -4.11979 -4.45374 0
M  V30 6740 H 639.383 -3.01885 -3.83036 0
M  V30 6741 H 638.388 -4.89853 -2.49649 0
M  V30 6742 H 639.613 -6.01626 -3.14997 0
M  V30 6743 H 637.559 -4.48337 -4.78884 0
M  V30 6744 H 637.476 -6.16463 -4.37618 0
M  V30 6745 H 638.744 -5.59975 -5.42263 0
M  V30 6746 N 642.974 0.416227 -1.52004 0
M  V30 6747 C 644.385 0.995319 -1.57957 0
M  V30 6748 C 644.736 1.91744 -0.415754 0
M  V30 6749 O 643.861 2.11349 0.464808 0
M  V30 6750 C 644.456 1.81191 -2.86278 0
M  V30 6751 C 643.015 2.34115 -2.94732 0
M  V30 6752 C 642.162 1.139 -2.52828 0
M  V30 6753 H 645.113 0.196716 -1.57476 0
M  V30 6754 H 645.134 2.66859 -2.71231 0
M  V30 6755 H 644.646 1.14051 -3.70963 0
M  V30 6756 H 642.747 3.04647 -2.14525 0
M  V30 6757 H 642.86 2.65466 -3.98829 0
M  V30 6758 H 641.224 1.49081 -2.06511 0
M  V30 6759 H 642.007 0.483383 -3.3988 0
M  V30 6760 N 644.452 1.42507 0.673017 0
M  V30 6761 C 645.698 1.43284 1.43519 0
M  V30 6762 C 646.031 0.049668 1.94136 0
M  V30 6763 O 645.306 -0.926369 1.71022 0
M  V30 6764 C 645.589 2.45874 2.63093 0
M  V30 6765 C 645.442 3.93388 2.18096 0
M  V30 6766 C 646.761 2.45431 3.6531 0
M  V30 6767 H 643.88 0.521752 0.520522 0
M  V30 6768 H 646.522 1.73932 0.764701 0
M  V30 6769 H 644.672 2.19869 3.20296 0
M  V30 6770 H 646.344 4.30379 1.66046 0
M  V30 6771 H 644.587 4.07169 1.49652 0
M  V30 6772 H 645.258 4.60752 3.03993 0
M  V30 6773 H 647.734 2.68561 3.17827 0
M  V30 6774 H 646.61 3.19189 4.46553 0
M  V30 6775 H 646.871 1.48092 4.16559 0
M  V30 6776 N 645.93 -0.909495 1.28709 0
M  V30 6777 C 646.877 -2.01245 1.13 0
M  V30 6778 C 647.847 -1.6608 0.0259684 0
M  V30 6779 O 649.032 -1.89835 0.191687 0
M  V30 6780 C 646.172 -3.35644 0.802315 0
M  V30 6781 C 645.285 -3.83653 1.98582 0
M  V30 6782 C 644.42 -5.06582 1.59837 0
M  V30 6783 C 643.459 -5.46934 2.74827 0
M  V30 6784 N 642.596 -6.61053 2.36546 0
M  V30 6785 H 647.436 -2.14013 2.0737 0
M  V30 6786 H 644.973 -1.0482 1.03205 0
M  V30 6787 H 646.931 -4.12963 0.593057 0
M  V30 6788 H 645.561 -3.22631 -0.104457 0
M  V30 6789 H 644.613 -3.02454 2.30708 0
M  V30 6790 H 645.925 -4.09515 2.84779 0
M  V30 6791 H 645.079 -5.91457 1.35143 0
M  V30 6792 H 643.818 -4.82537 0.707753 0
M  V30 6793 H 642.823 -4.60599 3.00215 0
M  V30 6794 H 644.048 -5.72965 3.64538 0
M  V30 6795 H 641.994 -6.3863 1.49959 0
M  V30 6796 H 641.911 -6.86662 3.16277 0
M  V30 6797 H 643.179 -7.49221 2.15146 0
M  V30 6798 N 647.408 -1.11026 -1.11852 0
M  V30 6799 C 648.657 -0.851249 -1.82857 0
M  V30 6800 C 648.97 0.62514 -1.85341 0
M  V30 6801 O 650.176 1.00026 -2.52403 0
M  V30 6802 C 648.632 -1.47309 -3.28372 0
M  V30 6803 C 648.24 -2.9832 -3.34229 0
M  V30 6804 C 649.984 -1.29373 -4.04306 0
M  V30 6805 C 647.891 -3.53509 -4.74115 0
M  V30 6806 H 646.821 -0.314794 -0.685143 0
M  V30 6807 H 649.472 -1.33499 -1.25898 0
M  V30 6808 H 647.854 -0.917017 -3.85236 0
M  V30 6809 H 649.028 -3.60295 -2.87271 0
M  V30 6810 H 647.343 -3.15482 -2.71772 0
M  V30 6811 H 649.94 -1.68042 -5.07608 0
M  V30 6812 H 650.283 -0.235879 -4.15631 0
M  V30 6813 H 650.816 -1.8182 -3.53817 0
M  V30 6814 H 647.555 -4.58987 -4.67986 0
M  V30 6815 H 647.075 -2.96305 -5.21501 0
M  V30 6816 H 648.754 -3.51693 -5.43066 0
M  V30 6817 N 648.886 1.2938 -0.899927 0
M  V30 6818 C 649.833 2.27713 -0.376243 0
M  V30 6819 C 650.803 1.57016 0.541774 0
M  V30 6820 O 651.988 1.84997 0.466966 0
M  V30 6821 C 649.128 3.42889 0.39 0
M  V30 6822 C 648.241 4.28369 -0.558938 0
M  V30 6823 C 647.376 5.30726 0.224379 0
M  V30 6824 C 646.415 6.07862 -0.719068 0
M  V30 6825 N 645.552 7.02094 0.0298569 0
M  V30 6826 H 650.392 2.71888 -1.21988 0
M  V30 6827 H 647.929 1.33724 -0.612879 0
M  V30 6828 H 649.887 4.08443 0.850314 0
M  V30 6829 H 648.517 2.99743 1.19809 0
M  V30 6830 H 647.569 3.62986 -1.13777 0
M  V30 6831 H 648.881 4.82068 -1.2811 0
M  V30 6832 H 648.035 6.02098 0.745881 0
M  V30 6833 H 646.774 4.77759 0.979674 0
M  V30 6834 H 645.779 5.35353 -1.25207 0
M  V30 6835 H 647.004 6.62917 -1.4737 0
M  V30 6836 H 644.95 6.51496 0.767415 0
M  V30 6837 H 644.867 7.5335 -0.632391 0
M  V30 6838 H 646.135 7.77685 0.531615 0
M  V30 6839 N 650.364 0.662433 1.43002 0
M  V30 6840 C 651.641 0.109096 1.95296 0
M  V30 6841 C 652.021 -1.37313 1.60338 0
M  V30 6842 O 651.369 -2.1032 0.893187 0
M  V30 6843 C 651.579 0.365096 3.47085 0
M  V30 6844 C 652.927 0.274964 4.23709 0
M  V30 6845 O 653.951 0.29816 3.5495 0
M  V30 6846 O 652.81 0.206549 5.4611 0
M  V30 6847 H 649.904 -0.00429724 0.826989 0
M  V30 6848 H 652.45 0.736308 1.52894 0
M  V30 6849 H 651.222 1.39237 3.65689 0
M  V30 6850 H 650.845 -0.294733 3.96506 0
M  V30 6851 N 651.842 -1.52309 0.404946 0
M  V30 6852 C 653.091 -2.00952 -0.173529 0
M  V30 6853 C 653.404 -1.29512 -1.46581 0
M  V30 6854 O 654.61 -1.6895 -2.12528 0
M  V30 6855 C 653.066 -3.58097 -0.359801 0
M  V30 6856 C 652.674 -4.38449 0.920138 0
M  V30 6857 C 654.418 -4.14984 -0.893794 0
M  V30 6858 C 652.325 -5.87227 0.701285 0
M  V30 6859 H 651.255 -0.750871 -0.0686244 0
M  V30 6860 H 653.906 -1.75687 0.529749 0
M  V30 6861 H 652.288 -3.79675 -1.12531 0
M  V30 6862 H 653.462 -4.28633 1.69147 0
M  V30 6863 H 651.777 -3.92859 1.38024 0
M  V30 6864 H 654.374 -5.23813 -1.0735 0
M  V30 6865 H 654.717 -3.72072 -1.8673 0
M  V30 6866 H 655.25 -3.97358 -0.187453 0
M  V30 6867 H 651.989 -6.34491 1.64624 0
M  V30 6868 H 651.509 -5.99792 -0.0308288 0
M  V30 6869 H 653.188 -6.46096 0.341846 0
M  V30 6870 N 653.32 -0.135238 -1.57019 0
M  V30 6871 C 654.252 0.839675 -2.13265 0
M  V30 6872 C 655.265 1.21887 -1.07923 0
M  V30 6873 O 656.454 1.16499 -1.35241 0
M  V30 6874 C 653.554 2.13647 -2.63075 0
M  V30 6875 C 652.727 1.92646 -3.92691 0
M  V30 6876 C 651.786 3.06205 -4.27931 0
M  V30 6877 O 650.812 2.78409 -4.96465 0
M  V30 6878 N 652.014 4.33072 -3.86561 0
M  V30 6879 H 654.779 0.359026 -2.97542 0
M  V30 6880 H 652.34 0.0486979 -1.61827 0
M  V30 6881 H 654.332 2.88641 -2.8367 0
M  V30 6882 H 652.902 2.5301 -1.83588 0
M  V30 6883 H 652.122 1.01754 -3.80841 0
M  V30 6884 H 653.41 1.75939 -4.77413 0
M  V30 6885 H 652.808 4.58526 -3.31316 0
M  V30 6886 H 651.365 5.04885 -4.12231 0
M  V30 6887 N 654.798 1.5699 0.138552 0
M  V30 6888 C 656.209 1.73171 0.697754 0
M  V30 6889 C 656.56 0.750952 1.8126 0
M  V30 6890 O 655.685 -0.080549 2.1625 0
M  V30 6891 C 656.28 3.13996 1.27248 0
M  V30 6892 C 654.839 3.3175 1.77816 0
M  V30 6893 C 653.986 2.69084 0.669991 0
M  V30 6894 H 656.937 1.5846 -0.0871979 0
M  V30 6895 H 656.958 3.14463 2.14227 0
M  V30 6896 H 656.47 3.85354 0.460855 0
M  V30 6897 H 654.571 2.65403 2.61519 0
M  V30 6898 H 654.684 4.39768 1.90107 0
M  V30 6899 H 653.048 2.29782 1.09874 0
M  V30 6900 H 653.831 3.43053 -0.130329 0
M  V30 6901 N 656.276 -0.40816 1.52223 0
M  V30 6902 C 657.525 -1.15212 1.65557 0
M  V30 6903 C 657.838 -1.9163 0.392096 0
M  V30 6904 O 659.044 -2.68458 0.405256 0
M  V30 6905 C 657.5 -2.09691 2.92502 0
M  V30 6906 C 657.108 -1.38785 4.25961 0
M  V30 6907 C 658.852 -2.8434 3.152 0
M  V30 6908 C 656.759 -2.31919 5.44029 0
M  V30 6909 H 655.689 -0.433776 0.616729 0
M  V30 6910 H 658.34 -0.4165 1.78711 0
M  V30 6911 H 656.722 -2.8681 2.7305 0
M  V30 6912 H 657.896 -0.670248 4.55899 0
M  V30 6913 H 656.211 -0.761741 4.09373 0
M  V30 6914 H 658.808 -3.54166 4.00587 0
M  V30 6915 H 659.151 -3.47344 2.29473 0
M  V30 6916 H 659.684 -2.14321 3.35129 0
M  V30 6917 H 656.423 -1.7356 6.32105 0
M  V30 6918 H 655.943 -3.0165 5.18428 0
M  V30 6919 H 657.622 -2.92424 5.77146 0
M  V30 6920 N 657.755 -1.42862 -0.66545 0
M  V30 6921 C 658.665 -1.49491 -1.80803 0
M  V30 6922 C 659.681 -0.382914 -1.69734 0
M  V30 6923 O 660.857 -0.635223 -1.9112 0
M  V30 6924 C 657.922 -1.40383 -3.17007 0
M  V30 6925 C 656.983 -2.62152 -3.39963 0
M  V30 6926 C 656.216 -2.53469 -4.69669 0
M  V30 6927 O 656.439 -1.57568 -5.48205 0
M  V30 6928 O 655.373 -3.43763 -4.94075 0
M  V30 6929 H 659.199 -2.45949 -1.78165 0
M  V30 6930 H 656.784 -1.24728 -0.822387 0
M  V30 6931 H 658.666 -1.377 -3.98267 0
M  V30 6932 H 657.341 -0.470546 -3.20262 0
M  V30 6933 H 656.248 -2.70409 -2.58515 0
M  V30 6934 H 657.581 -3.54411 -3.41546 0
M  V30 6935 N 659.233 0.902656 -1.29189 0
M  V30 6936 C 660.481 1.6496 -1.16758 0
M  V30 6937 C 660.802 1.92952 0.28188 0
M  V30 6938 O 660.072 1.55351 1.19344 0
M  V30 6939 H 658.652 0.611447 -0.429118 0
M  V30 6940 H 661.314 1.0825 -1.62074 0
M  V30 6941 H 660.41 2.60728 -1.71544 0
M  V30 6942 N 660.711 1.11618 1.11262 0
M  V30 6943 C 661.96 0.860934 1.82403 0
M  V30 6944 C 662.273 -0.615303 1.8567 0
M  V30 6945 O 663.479 -0.986861 2.52929 0
M  V30 6946 C 661.935 1.49048 3.27586 0
M  V30 6947 C 661.543 3.00089 3.32642 0
M  V30 6948 C 663.287 1.31515 4.03614 0
M  V30 6949 C 661.194 3.56019 4.72234 0
M  V30 6950 H 660.124 0.318423 0.683464 0
M  V30 6951 H 662.775 1.34165 1.25188 0
M  V30 6952 H 661.157 0.937434 3.84744 0
M  V30 6953 H 662.331 3.61813 2.85356 0
M  V30 6954 H 660.646 3.16919 2.70096 0
M  V30 6955 H 663.243 1.70732 5.0671 0
M  V30 6956 H 663.586 0.257917 4.155 0
M  V30 6957 H 664.119 1.83694 3.52848 0
M  V30 6958 H 660.858 4.61463 4.65545 0
M  V30 6959 H 660.378 2.99066 5.19923 0
M  V30 6960 H 662.057 3.54568 5.41193 0
M  V30 6961 N 662.189 -1.289 0.906776 0
M  V30 6962 C 663.152 -2.25777 0.394656 0
M  V30 6963 C 664.152 -1.53621 -0.475119 0
M  V30 6964 O 665.342 -1.71949 -0.279165 0
M  V30 6965 C 662.474 -3.38113 -0.43499 0
M  V30 6966 H 663.667 -2.72592 1.25033 0
M  V30 6967 H 661.22 -1.40463 0.685547 0
M  V30 6968 H 661.955 -2.96648 -1.31036 0
M  V30 6969 H 661.74 -3.91647 0.188334 0
M  V30 6970 H 663.23 -4.10168 -0.784365 0
M  V30 6971 N 663.667 -0.670007 -1.42649 0
M  V30 6972 C 664.597 -0.00258501 -2.335 0
M  V30 6973 C 665.578 0.794364 -1.50412 0
M  V30 6974 O 666.763 0.75248 -1.79029 0
M  V30 6975 C 663.893 0.952748 -3.33976 0
M  V30 6976 C 662.847 0.264733 -4.2718 0
M  V30 6977 C 662.173 1.33267 -5.17826 0
M  V30 6978 C 663.473 -0.853289 -5.15283 0
M  V30 6979 H 665.167 -0.761326 -2.89559 0
M  V30 6980 H 662.713 -0.367561 -1.3923 0
M  V30 6981 H 664.666 1.4287 -3.96442 0
M  V30 6982 H 663.39 1.74285 -2.7621 0
M  V30 6983 H 662.049 -0.190938 -3.66102 0
M  V30 6984 H 661.697 2.11464 -4.5639 0
M  V30 6985 H 661.397 0.877476 -5.81011 0
M  V30 6986 H 662.921 1.80965 -5.83167 0
M  V30 6987 H 664.335 -0.458763 -5.71462 0
M  V30 6988 H 662.732 -1.23398 -5.87276 0
M  V30 6989 H 663.802 -1.70412 -4.53969 0
M  V30 6990 N 665.145 1.52092 -0.413018 0
M  V30 6991 C 666.422 1.94356 0.22024 0
M  V30 6992 C 666.802 1.35017 1.62277 0
M  V30 6993 O 666.15 0.527511 2.22328 0
M  V30 6994 C 666.36 3.48289 0.222638 0
M  V30 6995 C 667.708 4.22313 0.440098 0
M  V30 6996 O 668.732 3.54919 0.301826 0
M  V30 6997 O 667.591 5.41829 0.712984 0
M  V30 6998 H 664.685 0.814536 0.14304 0
M  V30 6999 H 667.231 1.63083 -0.469242 0
M  V30 7000 H 666.003 3.83872 -0.758836 0
M  V30 7001 H 665.626 3.85934 0.956057 0
M  V30 7002 N 666.623 0.143563 1.56945 0
M  V30 7003 C 667.553 -0.7936 2.196 0
M  V30 7004 C 668.534 -1.25955 1.14321 0
M  V30 7005 O 669.719 -1.31773 1.42651 0
M  V30 7006 C 666.849 -2.03424 2.81489 0
M  V30 7007 C 665.803 -1.70519 3.92565 0
M  V30 7008 C 665.129 -3.01817 4.41373 0
M  V30 7009 C 666.429 -0.95449 5.13504 0
M  V30 7010 H 668.123 -0.271423 2.98167 0
M  V30 7011 H 665.669 -0.12911 1.4342 0
M  V30 7012 H 667.622 -2.69463 3.23987 0
M  V30 7013 H 666.346 -2.58008 2.00248 0
M  V30 7014 H 665.005 -1.06859 3.5068 0
M  V30 7015 H 664.653 -3.54386 3.56959 0
M  V30 7016 H 664.353 -2.80565 5.16292 0
M  V30 7017 H 665.877 -3.68934 4.86539 0
M  V30 7018 H 667.291 -1.5169 5.52868 0
M  V30 7019 H 665.688 -0.842035 5.94163 0
M  V30 7020 H 666.758 0.0544033 4.84869 0
M  V30 7021 N 668.101 -1.57061 -0.130224 0
M  V30 7022 C 669.049 -2.00486 -1.17933 0
M  V30 7023 C 670.043 -0.899933 -1.43519 0
M  V30 7024 O 671.249 -1.08514 -1.43613 0
M  V30 7025 H 667.624 -0.638441 -0.397363 0
M  V30 7026 H 669.595 -2.87848 -0.786501 0
M  V30 7027 C 668.344 -2.41565 -2.50084 0
M  V30 7028 H 667.667 -3.26148 -2.31231 0
M  V30 7029 H 669.107 -2.75757 -3.22078 0
M  V30 7030 C 667.566 -1.27485 -3.11848 0
M  V30 7031 O 668.096 -0.584688 -3.97422 0
M  V30 7032 N 666.302 -1.03478 -2.71552 0
M  V30 7033 H 665.849 -1.59779 -2.02061 0
M  V30 7034 H 665.807 -0.27341 -3.13209 0
M  V30 7035 N 669.579 0.400081 -1.52437 0
M  V30 7036 C 670.542 1.4707 -1.75793 0
M  V30 7037 C 671.542 1.48036 -0.627856 0
M  V30 7038 O 672.732 1.49401 -0.895817 0
M  V30 7039 C 669.864 2.86427 -1.84858 0
M  V30 7040 H 671.057 1.27649 -2.71377 0
M  V30 7041 H 668.61 0.631141 -1.42991 0
M  V30 7042 H 669.345 3.11207 -0.912194 0
M  V30 7043 H 669.13 2.87128 -2.6702 0
M  V30 7044 H 670.62 3.64023 -2.04638 0
M  V30 7045 N 671.057 1.43213 0.657864 0
M  V30 7046 C 671.987 1.50815 1.78262 0
M  V30 7047 C 672.968 0.363211 1.66177 0
M  V30 7048 O 674.153 0.579806 1.85343 0
M  V30 7049 C 671.283 1.42625 3.16663 0
M  V30 7050 C 670.237 2.5532 3.43505 0
M  V30 7051 C 669.563 2.32184 4.81658 0
M  V30 7052 C 670.863 3.97583 3.38711 0
M  V30 7053 H 672.557 2.44954 1.72157 0
M  V30 7054 H 670.103 1.17896 0.82683 0
M  V30 7055 H 672.056 1.46548 3.95097 0
M  V30 7056 H 670.78 0.449877 3.23487 0
M  V30 7057 H 669.439 2.50742 2.6744 0
M  V30 7058 H 669.087 1.32801 4.85153 0
M  V30 7059 H 668.787 3.07724 5.00579 0
M  V30 7060 H 670.311 2.37883 5.62356 0
M  V30 7061 H 671.725 4.03673 4.07089 0
M  V30 7062 H 670.122 4.73112 3.69168 0
M  V30 7063 H 671.192 4.23049 2.36976 0
M  V30 7064 N 672.536 -0.895792 1.29666 0
M  V30 7065 C 673.785 -1.64131 1.17234 0
M  V30 7066 C 674.098 -1.93665 -0.274416 0
M  V30 7067 O 675.304 -2.66472 -0.520105 0
M  V30 7068 C 673.76 -2.95764 2.05065 0
M  V30 7069 C 673.368 -2.7381 3.54587 0
M  V30 7070 C 675.112 -3.737 2.01367 0
M  V30 7071 C 673.019 -4.01194 4.34508 0
M  V30 7072 H 671.949 -0.615742 0.435175 0
M  V30 7073 H 674.6 -0.992626 1.54335 0
M  V30 7074 H 672.982 -3.61867 1.60837 0
M  V30 7075 H 674.156 -2.16277 4.06892 0
M  V30 7076 H 672.471 -2.09265 3.59996 0
M  V30 7077 H 675.068 -4.68152 2.58337 0
M  V30 7078 H 675.411 -4.04245 0.994575 0
M  V30 7079 H 675.944 -3.14444 2.43659 0
M  V30 7080 H 672.683 -3.75813 5.37071 0
M  V30 7081 H 672.203 -4.58272 3.86971 0
M  V30 7082 H 673.882 -4.69307 4.45376 0
M  V30 7083 N 674.014 -1.12206 -1.10668 0
M  V30 7084 C 675.239 -0.898938 -1.86906 0
M  V30 7085 C 675.664 0.546346 -1.79991 0
M  V30 7086 O 675.022 1.38655 -1.1681 0
M  V30 7087 C 675.07 -1.37529 -3.33344 0
M  V30 7088 O 674.174 -0.55218 -4.08687 0
M  V30 7089 H 673.515 -0.323163 -0.580053 0
M  V30 7090 H 676.045 -1.49355 -1.39837 0
M  V30 7091 H 676.055 -1.3733 -3.84193 0
M  V30 7092 H 674.73 -2.42767 -3.37693 0
M  V30 7093 H 673.307 -0.620947 -3.67694 0
M  V30 7094 N 675.492 1.28418 -0.913599 0
M  V30 7095 C 676.439 2.27301 -0.400373 0
M  V30 7096 C 677.409 1.57582 0.52509 0
M  V30 7097 O 678.594 1.85482 0.447318 0
M  V30 7098 C 675.734 3.43284 0.35361 0
M  V30 7099 C 674.847 4.27752 -0.604341 0
M  V30 7100 C 673.982 5.30934 0.168075 0
M  V30 7101 C 673.021 6.07065 -0.783499 0
M  V30 7102 N 672.158 7.02086 -0.0446112 0
M  V30 7103 H 676.998 2.70579 -1.24865 0
M  V30 7104 H 674.535 1.33067 -0.627028 0
M  V30 7105 H 676.493 4.09322 0.806945 0
M  V30 7106 H 675.123 3.00997 1.16623 0
M  V30 7107 H 674.175 3.61759 -1.17621 0
M  V30 7108 H 675.487 4.80682 -1.33216 0
M  V30 7109 H 674.641 6.02855 0.681979 0
M  V30 7110 H 673.38 4.78771 0.928947 0
M  V30 7111 H 672.385 5.33995 -1.30878 0
M  V30 7112 H 673.61 6.61317 -1.54392 0
M  V30 7113 H 671.556 6.52273 0.698272 0
M  V30 7114 H 671.473 7.52637 -0.712258 0
M  V30 7115 H 672.741 7.78205 0.449102 0
M  V30 7116 N 676.97 0.677563 1.42291 0
M  V30 7117 C 678.218 0.200578 2.01102 0
M  V30 7118 C 678.539 -1.19803 1.53858 0
M  V30 7119 O 677.809 -1.80496 0.761439 0
M  V30 7120 H 676.389 0.0711634 0.743603 0
M  V30 7121 H 679.051 0.874691 1.7417 0
M  V30 7122 H 678.147 0.204 3.11433 0
M  V30 7123 N 678.448 -1.51871 0.421078 0
M  V30 7124 C 679.697 -2.01125 -0.152206 0
M  V30 7125 C 680.01 -1.3106 -1.45199 0
M  V30 7126 O 681.216 -1.71195 -2.10724 0
M  V30 7127 C 679.672 -3.58458 -0.3218 0
M  V30 7128 C 679.28 -4.37448 0.96659 0
M  V30 7129 C 681.024 -4.15908 -0.84973 0
M  V30 7130 C 678.931 -5.86451 0.763529 0
M  V30 7131 H 677.861 -0.751556 -0.0606565 0
M  V30 7132 H 680.512 -1.75115 0.548354 0
M  V30 7133 H 678.894 -3.80847 -1.08498 0
M  V30 7134 H 680.068 -4.26814 1.73684 0
M  V30 7135 H 678.383 -3.91373 1.42183 0
M  V30 7136 H 680.98 -5.24922 -1.01788 0
M  V30 7137 H 681.323 -3.74031 -1.82774 0
M  V30 7138 H 681.856 -3.97535 -0.145297 0
M  V30 7139 H 678.595 -6.3271 1.71344 0
M  V30 7140 H 678.115 -5.99791 0.0327889 0
M  V30 7141 H 679.794 -6.45697 0.410354 0
M  V30 7142 N 679.926 -0.151884 -1.56866 0
M  V30 7143 C 681.154 0.504813 -2.00647 0
M  V30 7144 C 681.569 1.58098 -1.03201 0
M  V30 7145 O 680.926 1.82476 -0.0297814 0
M  V30 7146 C 680.977 1.10099 -3.44326 0
M  V30 7147 O 680.698 0.0678021 -4.38048 0
M  V30 7148 C 682.199 1.83782 -4.03409 0
M  V30 7149 H 679.419 0.130989 -0.65809 0
M  V30 7150 H 681.963 -0.247903 -2.02992 0
M  V30 7151 H 680.118 1.8043 -3.42817 0
M  V30 7152 H 680.532 0.505237 -5.22061 0
M  V30 7153 H 682.006 2.2078 -5.05925 0
M  V30 7154 H 682.483 2.72557 -3.44397 0
M  V30 7155 H 683.089 1.18138 -4.08563 0
M  V30 7156 N 681.404 1.57128 0.121893 0
M  V30 7157 C 682.652 1.84335 0.828548 0
M  V30 7158 C 682.973 0.736632 1.80551 0
M  V30 7159 O 682.243 -0.23962 1.94429 0
M  V30 7160 H 680.823 0.680108 0.30897 0
M  V30 7161 H 683.485 1.9459 0.109906 0
M  V30 7162 H 682.581 2.80152 1.37554 0
M  V30 7163 N 682.882 -0.391992 1.52647 0
M  V30 7164 C 683.829 -1.47866 1.77213 0
M  V30 7165 C 684.799 -1.54286 0.615223 0
M  V30 7166 O 685.984 -1.7059 0.854622 0
M  V30 7167 C 683.124 -2.85129 1.94411 0
M  V30 7168 C 682.237 -2.87883 3.22098 0
M  V30 7169 C 681.372 -4.16553 3.29631 0
M  V30 7170 C 680.411 -4.13348 4.51453 0
M  V30 7171 N 679.548 -5.33619 4.56284 0
M  V30 7172 H 684.388 -1.26219 2.6995 0
M  V30 7173 H 681.925 -0.612367 1.33748 0
M  V30 7174 H 683.883 -3.64833 2.02367 0
M  V30 7175 H 682.513 -3.05232 1.05038 0
M  V30 7176 H 681.565 -2.00567 3.23229 0
M  V30 7177 H 682.877 -2.81382 4.11856 0
M  V30 7178 H 682.031 -5.0466 3.36753 0
M  V30 7179 H 680.77 -4.25773 2.37842 0
M  V30 7180 H 679.775 -3.23629 4.44459 0
M  V30 7181 H 681 -4.05754 5.44555 0
M  V30 7182 H 678.946 -5.43474 3.67385 0
M  V30 7183 H 678.863 -5.29182 5.3991 0
M  V30 7184 H 680.131 -6.23632 4.67657 0
M  V30 7185 N 684.36 -1.4356 -0.65026 0
M  V30 7186 C 685.771 -1.40324 -1.2315 0
M  V30 7187 C 686.122 -0.108812 -1.95898 0
M  V30 7188 O 685.247 0.79163 -2.01401 0
M  V30 7189 C 685.842 -2.54195 -2.23987 0
M  V30 7190 C 684.401 -2.54215 -2.77582 0
M  V30 7191 C 683.548 -2.31752 -1.5227 0
M  V30 7192 H 686.499 -1.52418 -0.442095 0
M  V30 7193 H 686.52 -2.25854 -3.0622 0
M  V30 7194 H 686.032 -3.48392 -1.71011 0
M  V30 7195 H 684.133 -1.63907 -3.34612 0
M  V30 7196 H 684.246 -3.52081 -3.24925 0
M  V30 7197 H 682.61 -1.80476 -1.79723 0
M  V30 7198 H 683.393 -3.28037 -1.01225 0
M  V30 7199 N 685.838 0.888903 -1.30139 0
M  V30 7200 C 686.768 2.01046 -1.18755 0
M  V30 7201 C 687.749 1.69916 -0.0791438 0
M  V30 7202 O 688.934 1.92445 -0.260498 0
M  V30 7203 C 686.064 3.36109 -0.874518 0
M  V30 7204 C 685.018 3.81486 -1.94043 0
M  V30 7205 C 684.344 5.13796 -1.48047 0
M  V30 7206 C 685.644 4.00637 -3.35093 0
M  V30 7207 H 687.338 2.10828 -2.12584 0
M  V30 7208 H 684.884 1.01298 -1.02346 0
M  V30 7209 H 686.837 4.14089 -0.781548 0
M  V30 7210 H 685.561 3.26449 0.0994519 0
M  V30 7211 H 684.22 3.05731 -2.02297 0
M  V30 7212 H 683.868 5.0056 -0.494878 0
M  V30 7213 H 683.568 5.45127 -2.19341 0
M  V30 7214 H 685.092 5.94305 -1.40121 0
M  V30 7215 H 686.506 4.69067 -3.2962 0
M  V30 7216 H 684.903 4.43339 -4.04438 0
M  V30 7217 H 685.973 3.0462 -3.77273 0
M  V30 7218 N 687.317 1.12792 1.10072 0
M  V30 7219 C 688.542 0.908838 1.86427 0
M  V30 7220 C 688.967 -0.536793 1.80278 0
M  V30 7221 O 688.325 -1.38033 1.17543 0
M  V30 7222 C 688.373 1.39295 3.3261 0
M  V30 7223 O 687.477 0.573846 4.08388 0
M  V30 7224 H 686.818 0.326234 0.578331 0
M  V30 7225 H 689.348 1.50094 1.39043 0
M  V30 7226 H 689.358 1.39366 3.83459 0
M  V30 7227 H 688.033 2.44555 3.36401 0
M  V30 7228 H 686.61 0.640438 3.67359 0
M  V30 7229 N 688.795 -1.27931 0.920396 0
M  V30 7230 C 690.041 -1.95329 0.5673 0
M  V30 7231 C 690.396 -1.7107 -0.880506 0
M  V30 7232 O 689.689 -1.02497 -1.61879 0
M  V30 7233 C 689.883 -3.47853 0.820558 0
M  V30 7234 C 689.712 -3.86941 2.29143 0
M  V30 7235 C 688.482 -4.10766 2.94278 0
M  V30 7236 C 690.68 -3.97091 3.26838 0
M  V30 7237 N 688.662 -4.36578 4.31594 0
M  V30 7238 C 690.033 -4.27194 4.49339 0
M  V30 7239 C 692.088 -3.79639 3.22147 0
M  V30 7240 C 690.791 -4.41662 5.67739 0
M  V30 7241 C 692.817 -3.95328 4.39852 0
M  V30 7242 C 692.179 -4.2581 5.61128 0
M  V30 7243 H 688.278 -0.73836 0.257583 0
M  V30 7244 H 690.862 -1.54447 1.1855 0
M  V30 7245 H 689.033 -3.87709 0.231571 0
M  V30 7246 H 690.765 -4.024 0.430824 0
M  V30 7247 H 687.52 -4.05318 2.44979 0
M  V30 7248 H 687.944 -4.53555 5.0261 0
M  V30 7249 H 692.586 -3.55119 2.29457 0
M  V30 7250 H 690.304 -4.65011 6.60901 0
M  V30 7251 H 693.89 -3.83253 4.37731 0
M  V30 7252 H 692.77 -4.37691 6.50689 0
M  V30 7253 N 690.273 -0.685099 -1.4193 0
M  V30 7254 C 691.55 -0.140152 -1.95097 0
M  V30 7255 C 691.93 1.34745 -1.62502 0
M  V30 7256 O 691.278 2.08872 -0.926534 0
M  V30 7257 C 691.488 -0.420268 -3.4646 0
M  V30 7258 C 692.836 -0.342338 -4.23218 0
M  V30 7259 O 693.86 -0.354592 -3.54431 0
M  V30 7260 O 692.719 -0.293404 -5.45712 0
M  V30 7261 H 689.813 -0.00885998 -0.826953 0
M  V30 7262 H 692.359 -0.760539 -1.51703 0
M  V30 7263 H 691.131 -1.45037 -3.63428 0
M  V30 7264 H 690.754 0.231616 -3.96925 0
M  V30 7265 N 691.751 1.51645 -0.429126 0
M  V30 7266 C 692.661 2.31288 0.392809 0
M  V30 7267 C 693.677 1.39852 1.03525 0
M  V30 7268 O 694.853 1.72926 1.03241 0
M  V30 7269 C 691.918 3.13347 1.48372 0
M  V30 7270 C 690.979 4.20551 0.862268 0
M  V30 7271 C 690.212 4.98688 1.9012 0
M  V30 7272 O 690.435 4.77359 3.12225 0
M  V30 7273 O 689.369 5.83005 1.4963 0
M  V30 7274 H 693.195 3.02609 -0.257138 0
M  V30 7275 H 690.78 1.48163 -0.191851 0
M  V30 7276 H 692.662 3.64387 2.1166 0
M  V30 7277 H 691.337 2.44799 2.1179 0
M  V30 7278 H 690.244 3.73609 0.191568 0
M  V30 7279 H 691.577 4.91449 0.271704 0
M  V30 7280 N 693.229 0.160201 1.56784 0
M  V30 7281 C 694.475 -0.48831 1.96833 0
M  V30 7282 C 694.808 -1.63641 1.04571 0
M  V30 7283 O 694.083 -1.94289 0.0906481 0
M  V30 7284 C 694.366 -0.981908 3.46454 0
M  V30 7285 C 694.219 0.165607 4.49495 0
M  V30 7286 C 695.538 -1.85931 3.98896 0
M  V30 7287 H 692.657 -0.176027 0.71567 0
M  V30 7288 H 695.299 0.244093 1.88426 0
M  V30 7289 H 693.449 -1.60602 3.5375 0
M  V30 7290 H 695.121 0.802372 4.54268 0
M  V30 7291 H 693.364 0.822789 4.25926 0
M  V30 7292 H 694.035 -0.221699 5.51555 0
M  V30 7293 H 696.511 -1.33327 3.94161 0
M  V30 7294 H 695.387 -2.17373 5.04024 0
M  V30 7295 H 695.648 -2.80106 3.42042 0
M  V30 7296 N 694.707 -1.5719 -0.113559 0
M  V30 7297 C 696.123 -1.52607 -0.467253 0
M  V30 7298 C 696.323 -0.874058 -1.81556 0
M  V30 7299 O 695.379 -0.458703 -2.48299 0
M  V30 7300 C 696.692 -2.97363 -0.446736 0
M  V30 7301 C 698.24 -3.08482 -0.529903 0
M  V30 7302 C 698.715 -4.54809 -0.539721 0
M  V30 7303 N 700.206 -4.59284 -0.601005 0
M  V30 7304 C 700.941 -5.69927 -0.630138 0
M  V30 7305 N 700.437 -6.90051 -0.616589 0
M  V30 7306 N 702.23 -5.5805 -0.673558 0
M  V30 7307 H 694.381 -1.97958 0.769819 0
M  V30 7308 H 696.644 -0.90428 0.284572 0
M  V30 7309 H 696.35 -3.48458 0.47643 0
M  V30 7310 H 696.224 -3.55086 -1.27254 0
M  V30 7311 H 698.611 -2.57386 -1.44349 0
M  V30 7312 H 698.692 -2.53744 0.323695 0
M  V30 7313 H 698.336 -5.06552 0.369843 0
M  V30 7314 H 698.266 -5.07364 -1.41028 0
M  V30 7315 H 700.757 -3.72822 -0.617419 0
M  V30 7316 H 701.07 -7.70132 -0.641592 0
M  V30 7317 H 699.415 -6.92543 -0.583927 0
M  V30 7318 H 702.606 -4.63112 -0.681544 0
M  V30 7319 H 702.779 -6.44286 -0.692794 0
M  V30 7320 N 696.185 0.383891 -1.52853 0
M  V30 7321 C 697.596 0.961591 -1.60032 0
M  V30 7322 C 697.947 1.90819 -0.456333 0
M  V30 7323 O 697.072 2.12288 0.419873 0
M  V30 7324 C 697.667 1.75078 -2.90057 0
M  V30 7325 C 696.226 2.2781 -2.99632 0
M  V30 7326 C 695.373 1.08512 -2.55187 0
M  V30 7327 H 698.324 0.163269 -1.57858 0
M  V30 7328 H 698.345 2.61046 -2.7683 0
M  V30 7329 H 697.857 1.06157 -3.73299 0
M  V30 7330 H 695.958 3.00028 -2.20939 0
M  V30 7331 H 696.071 2.56947 -4.0437 0
M  V30 7332 H 694.435 1.44667 -2.09627 0
M  V30 7333 H 695.218 0.41118 -3.40829 0
M  V30 7334 N 697.663 1.43903 0.642637 0
M  V30 7335 C 698.893 1.49323 1.4278 0
M  V30 7336 C 699.301 0.113058 1.88862 0
M  V30 7337 O 698.644 -0.889089 1.60751 0
M  V30 7338 C 698.706 2.3861 2.68897 0
M  V30 7339 C 698.37 3.85976 2.44687 0
M  V30 7340 C 699.367 4.7681 2.07239 0
M  V30 7341 C 697.052 4.30567 2.58683 0
M  V30 7342 C 699.046 6.10234 1.841 0
M  V30 7343 C 696.733 5.64042 2.35159 0
M  V30 7344 C 697.731 6.53693 1.97925 0
M  V30 7345 O 697.419 7.84698 1.74654 0
M  V30 7346 H 697.151 0.509109 0.444729 0
M  V30 7347 H 699.705 1.89425 0.794195 0
M  V30 7348 H 697.935 1.93415 3.34855 0
M  V30 7349 H 699.624 2.35112 3.30873 0
M  V30 7350 H 700.39 4.43635 1.95993 0
M  V30 7351 H 696.269 3.61054 2.86637 0
M  V30 7352 H 699.813 6.80171 1.54962 0
M  V30 7353 H 695.71 5.96782 2.46011 0
M  V30 7354 H 696.478 7.96382 1.88993 0
M  V30 7355 N 699.141 -0.881989 1.30609 0
M  V30 7356 C 700.387 -1.63649 1.20791 0
M  V30 7357 C 700.742 -1.90966 -0.234437 0
M  V30 7358 O 700.035 -1.52163 -1.16434 0
M  V30 7359 C 700.229 -2.97999 1.97311 0
M  V30 7360 C 700.058 -2.83798 3.48839 0
M  V30 7361 C 698.828 -2.83622 4.18195 0
M  V30 7362 C 701.026 -2.59529 4.44015 0
M  V30 7363 N 699.008 -2.60344 5.55962 0
M  V30 7364 C 700.379 -2.45401 5.69366 0
M  V30 7365 C 702.434 -2.44777 4.33576 0
M  V30 7366 C 701.137 -2.18023 6.85462 0
M  V30 7367 C 703.163 -2.18785 5.49443 0
M  V30 7368 C 702.525 -2.05436 6.73777 0
M  V30 7369 H 698.624 -0.603687 0.497077 0
M  V30 7370 H 701.208 -1.03908 1.64655 0
M  V30 7371 H 699.379 -3.55767 1.55834 0
M  V30 7372 H 701.111 -3.6266 1.79611 0
M  V30 7373 H 697.866 -2.95562 3.70054 0
M  V30 7374 H 698.29 -2.51709 6.28468 0
M  V30 7375 H 702.932 -2.53831 3.38126 0
M  V30 7376 H 700.65 -2.07707 7.8095 0
M  V30 7377 H 704.236 -2.08188 5.43276 0
M  V30 7378 H 703.116 -1.85605 7.61919 0
M  V30 7379 N 700.619 -1.13374 -1.09472 0
M  V30 7380 C 701.549 -0.833268 -2.18126 0
M  V30 7381 C 702.53 0.207169 -1.68834 0
M  V30 7382 O 703.715 0.0662012 -1.94087 0
M  V30 7383 C 700.845 -0.297979 -3.46019 0
M  V30 7384 C 699.799 -1.27261 -4.08642 0
M  V30 7385 C 699.125 -0.597104 -5.31356 0
M  V30 7386 C 700.425 -2.63095 -4.51197 0
M  V30 7387 H 702.119 -1.74182 -2.43518 0
M  V30 7388 H 699.665 -0.838921 -1.17039 0
M  V30 7389 H 701.618 -0.0754444 -4.21332 0
M  V30 7390 H 700.342 0.645959 -3.20148 0
M  V30 7391 H 699.001 -1.48113 -3.35348 0
M  V30 7392 H 698.649 0.352293 -5.01765 0
M  V30 7393 H 698.349 -1.24734 -5.74208 0
M  V30 7394 H 699.873 -0.38384 -6.09392 0
M  V30 7395 H 701.287 -2.46214 -5.17737 0
M  V30 7396 H 699.684 -3.2429 -5.04932 0
M  V30 7397 H 700.754 -3.20793 -3.6362 0
M  V30 7398 N 702.098 1.27442 -0.927168 0
M  V30 7399 C 703.045 2.26863 -0.424459 0
M  V30 7400 C 704.015 1.5813 0.508346 0
M  V30 7401 O 705.2 1.85946 0.42762 0
M  V30 7402 C 702.34 3.43639 0.31718 0
M  V30 7403 C 701.453 4.27087 -0.649675 0
M  V30 7404 C 700.588 5.31082 0.111753 0
M  V30 7405 C 699.627 6.062 -0.847843 0
M  V30 7406 N 698.764 7.01999 -0.119074 0
M  V30 7407 H 703.604 2.69239 -1.27728 0
M  V30 7408 H 701.141 1.32394 -0.641106 0
M  V30 7409 H 703.099 4.10155 0.763486 0
M  V30 7410 H 701.729 3.02217 1.13424 0
M  V30 7411 H 700.781 3.60491 -1.21451 0
M  V30 7412 H 702.093 4.79242 -1.38307 0
M  V30 7413 H 701.247 6.03544 0.618 0
M  V30 7414 H 699.986 4.7973 0.878114 0
M  V30 7415 H 698.991 5.32577 -1.36534 0
M  V30 7416 H 700.216 6.59642 -1.61398 0
M  V30 7417 H 698.162 6.52977 0.629051 0
M  V30 7418 H 698.079 7.5184 -0.792046 0
M  V30 7419 H 699.347 7.78638 0.366537 0
M  V30 7420 N 703.576 0.692616 1.41565 0
M  V30 7421 C 704.486 0.0258451 2.34586 0
M  V30 7422 C 705.502 -0.769324 1.56069 0
M  V30 7423 O 706.678 -0.707563 1.88562 0
M  V30 7424 C 703.743 -0.901289 3.3478 0
M  V30 7425 C 702.804 -0.0986579 4.29187 0
M  V30 7426 C 702.037 -0.981634 5.24595 0
M  V30 7427 O 702.26 -2.22115 5.25377 0
M  V30 7428 O 701.194 -0.432892 6.00341 0
M  V30 7429 H 705.02 0.792537 2.93177 0
M  V30 7430 H 702.605 0.452935 1.42369 0
M  V30 7431 H 704.487 -1.43302 3.96286 0
M  V30 7432 H 703.162 -1.64752 2.78637 0
M  V30 7433 H 702.069 0.477604 3.71039 0
M  V30 7434 H 703.402 0.608848 4.8842 0
M  V30 7435 N 705.054 -1.51416 0.437162 0
M  V30 7436 C 705.987 -2.24309 -0.419602 0
M  V30 7437 C 706.965 -1.26236 -1.02485 0
M  V30 7438 O 708.149 -1.5537 -1.06735 0
M  V30 7439 C 705.276 -2.99335 -1.58482 0
M  V30 7440 C 704.322 -4.12064 -1.10027 0
M  V30 7441 S 705.155 -5.35483 -0.0424476 0
M  V30 7442 C 706.311 -6.14047 -1.21234 0
M  V30 7443 H 706.544 -2.96632 0.199259 0
M  V30 7444 H 704.077 -1.528 0.22168 0
M  V30 7445 H 706.035 -3.43159 -2.25282 0
M  V30 7446 H 704.696 -2.26602 -2.17509 0
M  V30 7447 H 703.889 -4.63836 -1.97161 0
M  V30 7448 H 703.491 -3.70499 -0.510507 0
M  V30 7449 H 705.783 -6.43123 -2.13072 0
M  V30 7450 H 706.726 -7.04279 -0.734582 0
M  V30 7451 H 707.134 -5.45538 -1.45082 0
M  V30 7452 N 706.532 -0.168513 -1.56696 0
M  V30 7453 C 707.943 0.348694 -1.83415 0
M  V30 7454 C 708.294 1.63257 -1.0882 0
M  V30 7455 O 707.419 2.13707 -0.340333 0
M  V30 7456 C 708.014 0.639423 -3.32711 0
M  V30 7457 C 706.573 1.10108 -3.59935 0
M  V30 7458 C 705.72 0.135464 -2.76969 0
M  V30 7459 H 708.671 -0.392829 -1.53761 0
M  V30 7460 H 708.692 1.49179 -3.50037 0
M  V30 7461 H 708.204 -0.295173 -3.86976 0
M  V30 7462 H 706.305 2.05088 -3.11079 0
M  V30 7463 H 706.418 1.01218 -4.68286 0
M  V30 7464 H 704.782 0.632286 -2.46727 0
M  V30 7465 H 705.565 -0.793104 -3.34013 0
M  V30 7466 N 708.01 1.57248 0.105221 0
M  V30 7467 C 709.258 1.85204 0.808951 0
M  V30 7468 C 709.579 0.75574 1.7976 0
M  V30 7469 O 708.849 -0.218984 1.94672 0
M  V30 7470 H 707.429 0.683346 0.301739 0
M  V30 7471 H 710.091 1.94695 0.0892605 0
M  V30 7472 H 709.187 2.81595 1.34575 0
M  V30 7473 N 709.488 -0.375779 1.53054 0
M  V30 7474 C 710.716 -1.14036 1.72637 0
M  V30 7475 C 711.131 -1.83342 0.450687 0
M  V30 7476 O 710.488 -1.7318 -0.575749 0
M  V30 7477 C 710.539 -2.17841 2.88492 0
M  V30 7478 O 710.26 -1.51358 4.11123 0
M  V30 7479 C 711.761 -3.06924 3.19863 0
M  V30 7480 H 708.981 -0.341386 0.577665 0
M  V30 7481 H 711.525 -0.437809 1.99759 0
M  V30 7482 H 709.68 -2.8371 2.63794 0
M  V30 7483 H 710.094 -2.20439 4.75928 0
M  V30 7484 H 711.568 -3.75763 4.04359 0
M  V30 7485 H 712.045 -3.71169 2.34798 0
M  V30 7486 H 712.651 -2.46684 3.46449 0
M  V30 7487 N 710.966 -1.44241 -0.634997 0
M  V30 7488 C 712.196 -1.50078 -1.41987 0
M  V30 7489 C 712.604 -0.123072 -1.88799 0
M  V30 7490 O 711.947 0.880552 -1.6122 0
M  V30 7491 C 712.009 -2.40033 -2.67628 0
M  V30 7492 C 711.673 -3.87268 -2.42637 0
M  V30 7493 C 712.67 -4.77902 -2.04708 0
M  V30 7494 C 710.355 -4.31933 -2.56396 0
M  V30 7495 C 712.349 -6.11202 -1.80862 0
M  V30 7496 C 710.036 -5.65281 -2.32164 0
M  V30 7497 C 711.034 -6.54734 -1.94455 0
M  V30 7498 O 710.722 -7.85613 -1.7049 0
M  V30 7499 H 710.454 -0.51146 -0.442023 0
M  V30 7500 H 713.008 -1.89843 -0.784138 0
M  V30 7501 H 711.238 -1.95188 -3.33824 0
M  V30 7502 H 712.927 -2.36863 -3.29622 0
M  V30 7503 H 713.693 -4.44668 -1.93638 0
M  V30 7504 H 709.572 -3.62569 -2.84719 0
M  V30 7505 H 713.116 -6.80983 -1.51353 0
M  V30 7506 H 709.013 -5.98078 -2.42843 0
M  V30 7507 H 709.781 -7.97373 -1.84767 0
M  V30 7508 N 712.444 0.87505 -1.31075 0
M  V30 7509 C 713.407 1.96333 -1.18263 0
M  V30 7510 C 714.407 1.60416 -0.111106 0
M  V30 7511 O 715.597 1.7044 -0.359987 0
M  V30 7512 C 712.729 3.31036 -0.81414 0
M  V30 7513 H 713.922 2.09125 -2.14958 0
M  V30 7514 H 711.475 1.06271 -1.14614 0
M  V30 7515 H 712.21 3.23944 0.151875 0
M  V30 7516 H 711.995 3.58476 -1.58862 0
M  V30 7517 H 713.485 4.10842 -0.748249 0
M  V30 7518 N 713.922 1.13953 1.08869 0
M  V30 7519 C 714.852 0.844824 2.17681 0
M  V30 7520 C 715.833 -0.198213 1.68941 0
M  V30 7521 O 717.018 -0.0559073 1.9412 0
M  V30 7522 C 714.148 0.316325 3.45856 0
M  V30 7523 C 713.102 1.29426 4.07962 0
M  V30 7524 C 712.428 0.625275 5.31031 0
M  V30 7525 C 713.728 2.65484 4.49795 0
M  V30 7526 H 715.422 1.75471 2.42591 0
M  V30 7527 H 712.968 0.845116 1.16592 0
M  V30 7528 H 714.921 0.0977876 4.21287 0
M  V30 7529 H 713.645 -0.628972 3.20486 0
M  V30 7530 H 712.304 1.49889 3.34558 0
M  V30 7531 H 711.952 -0.325678 5.01945 0
M  V30 7532 H 711.652 1.27777 5.73539 0
M  V30 7533 H 713.176 0.416152 6.0918 0
M  V30 7534 H 714.59 2.48957 5.16424 0
M  V30 7535 H 712.987 3.26963 5.03205 0
M  V30 7536 H 714.057 3.22717 3.61914 0
M  V30 7537 N 715.4 -1.26948 0.933913 0
M  V30 7538 C 716.628 -1.98186 0.59414 0
M  V30 7539 C 717.043 -1.69614 -0.829257 0
M  V30 7540 O 716.4 -0.960213 -1.55197 0
M  V30 7541 C 716.451 -3.52123 0.818026 0
M  V30 7542 O 716.172 -3.79698 2.18543 0
M  V30 7543 C 717.673 -4.40608 0.48781 0
M  V30 7544 H 714.893 -0.632305 0.224569 0
M  V30 7545 H 717.437 -1.61646 1.25263 0
M  V30 7546 H 715.592 -3.86851 0.206246 0
M  V30 7547 H 716.006 -4.7426 2.24005 0
M  V30 7548 H 717.48 -5.47606 0.695126 0
M  V30 7549 H 717.957 -4.35394 -0.576913 0
M  V30 7550 H 718.563 -4.11411 1.078 0
M  V30 7551 N 716.879 -0.700114 -1.41195 0
M  V30 7552 C 717.842 -0.0465706 -2.29153 0
M  V30 7553 C 718.842 0.703302 -1.44604 0
M  V30 7554 O 720.032 0.537513 -1.657 0
M  V30 7555 C 717.164 0.944324 -3.2756 0
M  V30 7556 H 718.357 -0.821064 -2.88442 0
M  V30 7557 H 715.91 -0.463869 -1.49258 0
M  V30 7558 H 716.645 1.74642 -2.73259 0
M  V30 7559 H 716.43 0.409701 -3.89954 0
M  V30 7560 H 717.92 1.39925 -3.9346 0
M  V30 7561 N 718.357 1.51182 -0.445186 0
M  V30 7562 C 719.773 1.59299 -0.0978954 0
M  V30 7563 C 719.973 1.4555 1.39346 0
M  V30 7564 O 719.029 1.30073 2.16419 0
M  V30 7565 C 720.342 2.94133 -0.625005 0
M  V30 7566 C 721.89 3.07463 -0.586137 0
M  V30 7567 C 722.365 4.44832 -1.09035 0
M  V30 7568 N 723.856 4.51173 -1.04867 0
M  V30 7569 C 724.591 5.55804 -1.40959 0
M  V30 7570 N 724.087 6.67816 -1.84375 0
M  V30 7571 N 725.88 5.46205 -1.32726 0
M  V30 7572 H 718.031 1.58363 -1.41544 0
M  V30 7573 H 720.294 0.746946 -0.58376 0
M  V30 7574 H 720 3.09589 -1.66876 0
M  V30 7575 H 719.874 3.77161 -0.0542262 0
M  V30 7576 H 722.261 2.9167 0.448646 0
M  V30 7577 H 722.342 2.26255 -1.19341 0
M  V30 7578 H 721.986 4.61372 -2.12364 0
M  V30 7579 H 721.916 5.24591 -0.459539 0
M  V30 7580 H 724.407 3.70783 -0.729932 0
M  V30 7581 H 724.72 7.43683 -2.10131 0
M  V30 7582 H 723.065 6.69003 -1.88308 0
M  V30 7583 H 726.256 4.57583 -0.986678 0
M  V30 7584 H 726.429 6.27634 -1.61182 0
M  V30 7585 N 719.835 0.176821 1.56605 0
M  V30 7586 C 720.765 -0.746841 2.21234 0
M  V30 7587 C 721.746 -1.23502 1.16967 0
M  V30 7588 O 722.931 -1.28718 1.45414 0
M  V30 7589 C 720.061 -1.97407 2.8574 0
M  V30 7590 C 719.015 -1.62153 3.96094 0
M  V30 7591 C 718.341 -2.92387 4.47676 0
M  V30 7592 C 719.641 -0.845353 5.15413 0
M  V30 7593 H 721.335 -0.208116 2.98676 0
M  V30 7594 H 718.881 -0.0986594 1.43662 0
M  V30 7595 H 720.834 -2.62531 3.2963 0
M  V30 7596 H 719.558 -2.53703 2.05676 0
M  V30 7597 H 718.217 -0.993964 3.52868 0
M  V30 7598 H 717.865 -3.46734 3.64396 0
M  V30 7599 H 717.565 -2.69551 5.22127 0
M  V30 7600 H 719.089 -3.5853 4.94255 0
M  V30 7601 H 720.503 -1.39929 5.55961 0
M  V30 7602 H 718.9 -0.715814 5.95815 0
M  V30 7603 H 719.97 0.157239 4.84645 0
M  V30 7604 N 721.313 -1.57302 -0.09688 0
M  V30 7605 C 722.538 -1.9058 -0.818169 0
M  V30 7606 C 722.963 -0.770921 -1.71576 0
M  V30 7607 O 722.321 0.277588 -1.79162 0
M  V30 7608 C 722.369 -3.22714 -1.60898 0
M  V30 7609 O 721.473 -3.10178 -2.71779 0
M  V30 7610 H 720.814 -0.624759 -0.224882 0
M  V30 7611 H 723.344 -2.04471 -0.07264 0
M  V30 7612 H 723.354 -3.55978 -1.99358 0
M  V30 7613 H 722.029 -4.04899 -0.950227 0
M  V30 7614 H 720.606 -2.88424 -2.3636 0
M  V30 7615 N 722.791 0.367657 -1.53252 0
M  V30 7616 C 723.754 1.43308 -1.78873 0
M  V30 7617 C 724.754 1.46671 -0.659115 0
M  V30 7618 O 725.944 1.47468 -0.927306 0
M  V30 7619 C 723.076 2.82442 -1.90892 0
M  V30 7620 H 724.269 1.21864 -2.74024 0
M  V30 7621 H 721.822 0.600668 -1.44297 0
M  V30 7622 H 722.557 3.09202 -0.978 0
M  V30 7623 H 722.342 2.81399 -2.73051 0
M  V30 7624 H 723.832 3.59601 -2.12314 0
M  V30 7625 N 724.269 1.44576 0.627338 0
M  V30 7626 C 725.546 1.38033 1.38586 0
M  V30 7627 C 725.926 0.0409468 2.1106 0
M  V30 7628 O 725.274 -0.976582 2.0658 0
M  V30 7629 C 725.484 2.58102 2.34913 0
M  V30 7630 C 726.832 3.02332 2.98129 0
M  V30 7631 O 727.856 2.58334 2.45238 0
M  V30 7632 O 726.715 3.78628 3.94085 0
M  V30 7633 H 723.809 0.546801 0.620434 0
M  V30 7634 H 726.355 1.56672 0.652077 0
M  V30 7635 H 725.127 3.4719 1.80485 0
M  V30 7636 H 724.75 2.41696 3.15703 0
M  V30 7637 N 725.747 -0.868086 1.31537 0
M  V30 7638 C 727.163 -1.15414 1.10235 0
M  V30 7639 C 727.363 -2.01106 -0.125947 0
M  V30 7640 O 726.419 -2.38994 -0.814734 0
M  V30 7641 C 727.732 -1.84445 2.37488 0
M  V30 7642 C 729.28 -1.97139 2.43116 0
M  V30 7643 C 729.755 -2.69585 3.70254 0
M  V30 7644 N 731.246 -2.77119 3.71159 0
M  V30 7645 C 731.981 -3.33791 4.6623 0
M  V30 7646 N 731.477 -3.9138 5.71659 0
M  V30 7647 N 733.27 -3.31767 4.53747 0
M  V30 7648 H 725.421 -0.297109 2.10312 0
M  V30 7649 H 727.684 -0.194227 0.92789 0
M  V30 7650 H 727.39 -1.2893 3.27215 0
M  V30 7651 H 727.264 -2.84709 2.47428 0
M  V30 7652 H 729.651 -2.51818 1.53856 0
M  V30 7653 H 729.732 -0.95912 2.37138 0
M  V30 7654 H 729.376 -2.15572 4.59881 0
M  V30 7655 H 729.306 -3.71223 3.73499 0
M  V30 7656 H 731.797 -2.3625 2.94948 0
M  V30 7657 H 732.11 -4.3274 6.40278 0
M  V30 7658 H 730.455 -3.8975 5.7543 0
M  V30 7659 H 733.646 -2.86016 3.70557 0
M  V30 7660 H 733.819 -3.75636 5.28017 0
M  V30 7661 N 727.225 -1.14528 -1.08264 0
M  V30 7662 C 728.188 -0.83632 -2.13397 0
M  V30 7663 C 729.188 0.159715 -1.60005 0
M  V30 7664 O 730.378 -0.0688098 -1.74064 0
M  V30 7665 C 727.51 -0.246973 -3.40004 0
M  V30 7666 H 728.703 -1.76808 -2.42237 0
M  V30 7667 H 726.256 -0.951509 -1.24 0
M  V30 7668 H 726.991 0.693436 -3.168 0
M  V30 7669 H 726.776 -0.964412 -3.80055 0
M  V30 7670 H 728.266 -0.0480679 -4.17572 0
M  V30 7671 N 728.703 1.26451 -0.940633 0
M  V30 7672 C 729.666 2.24651 -0.454378 0
M  V30 7673 C 730.666 1.54826 0.434222 0
M  V30 7674 O 731.856 1.72628 0.233477 0
M  V30 7675 C 728.988 3.39148 0.345192 0
M  V30 7676 H 730.181 2.69182 -1.32217 0
M  V30 7677 H 727.734 1.38596 -0.722547 0
M  V30 7678 H 728.469 3.00018 1.23125 0
M  V30 7679 H 728.254 3.9101 -0.292107 0
M  V30 7680 H 729.744 4.12103 0.675341 0
M  V30 7681 N 730.181 0.707592 1.40822 0
M  V30 7682 C 731.128 0.0499029 2.30746 0
M  V30 7683 C 732.098 -0.758718 1.47759 0
M  V30 7684 O 733.283 -0.724299 1.76518 0
M  V30 7685 C 730.423 -0.871756 3.33908 0
M  V30 7686 C 729.536 -0.0534655 4.31967 0
M  V30 7687 C 728.671 -0.973869 5.22197 0
M  V30 7688 C 727.71 -0.149194 6.11918 0
M  V30 7689 N 726.847 -1.02404 6.94592 0
M  V30 7690 H 731.687 0.822461 2.86426 0
M  V30 7691 H 729.224 0.417285 1.41057 0
M  V30 7692 H 731.182 -1.42028 3.9228 0
M  V30 7693 H 729.812 -1.61058 2.7975 0
M  V30 7694 H 728.864 0.612142 3.75442 0
M  V30 7695 H 730.176 0.585354 4.95353 0
M  V30 7696 H 729.33 -1.59121 5.85462 0
M  V30 7697 H 728.069 -1.64652 4.59065 0
M  V30 7698 H 727.074 0.481137 5.47691 0
M  V30 7699 H 728.299 0.519841 6.77107 0
M  V30 7700 H 726.245 -1.6825 6.34057 0
M  V30 7701 H 726.162 -0.441076 7.54712 0
M  V30 7702 H 727.43 -1.62782 7.62314 0
M  V30 7703 N 731.66 -1.50943 0.453197 0
M  V30 7704 C 732.907 -2.02212 -0.107922 0
M  V30 7705 C 733.235 -1.33639 -1.41318 0
M  V30 7706 O 732.49 -0.445154 -1.9057 0
M  V30 7707 C 732.789 -3.55603 -0.357944 0
M  V30 7708 C 732.455 -4.42556 0.863427 0
M  V30 7709 C 731.117 -4.6604 1.19834 0
M  V30 7710 C 733.469 -4.93468 1.67747 0
M  V30 7711 C 730.797 -5.37681 2.34768 0
M  V30 7712 C 733.149 -5.6637 2.81793 0
M  V30 7713 C 731.813 -5.88113 3.1572 0
M  V30 7714 H 731.083 -0.739947 -0.0394916 0
M  V30 7715 H 733.73 -1.81738 0.60363 0
M  V30 7716 H 732.035 -3.74495 -1.15156 0
M  V30 7717 H 733.732 -3.92821 -0.805781 0
M  V30 7718 H 730.322 -4.24485 0.592478 0
M  V30 7719 H 734.506 -4.75194 1.43192 0
M  V30 7720 H 729.762 -5.52727 2.61348 0
M  V30 7721 H 733.936 -6.04806 3.45229 0
M  V30 7722 H 731.563 -6.43404 4.04889 0
M  V30 7723 N 733.138 -0.185124 -1.56509 0
M  V30 7724 C 734.085 0.739729 -2.18624 0
M  V30 7725 C 735.055 1.217 -1.13042 0
M  V30 7726 O 736.24 1.28268 -1.41251 0
M  V30 7727 C 733.38 1.95787 -2.84186 0
M  V30 7728 C 732.493 1.52289 -4.04267 0
M  V30 7729 C 731.628 2.69576 -4.57714 0
M  V30 7730 C 730.667 2.22636 -5.70175 0
M  V30 7731 N 729.804 3.33065 -6.18071 0
M  V30 7732 H 734.644 0.203269 -2.97306 0
M  V30 7733 H 732.181 0.0885946 -1.46833 0
M  V30 7734 H 734.139 2.67253 -3.20361 0
M  V30 7735 H 732.769 2.4678 -2.08085 0
M  V30 7736 H 731.821 0.704458 -3.7382 0
M  V30 7737 H 733.133 1.13843 -4.85635 0
M  V30 7738 H 732.287 3.4918 -4.96143 0
M  V30 7739 H 731.026 3.1129 -3.75433 0
M  V30 7740 H 730.031 1.41483 -5.31284 0
M  V30 7741 H 731.256 1.81964 -6.54267 0
M  V30 7742 H 729.202 3.74328 -5.38715 0
M  V30 7743 H 729.119 2.98756 -6.94464 0
M  V30 7744 H 730.387 4.12912 -6.61153 0
M  V30 7745 N 734.616 1.57351 0.0885366 0
M  V30 7746 C 735.579 2.01557 1.09121 0
M  V30 7747 C 736.579 0.910052 1.3257 0
M  V30 7748 O 737.769 1.17537 1.28572 0
M  V30 7749 C 734.901 2.38189 2.43883 0
M  V30 7750 H 736.094 2.91361 0.710562 0
M  V30 7751 H 733.647 1.52694 0.333779 0
M  V30 7752 H 734.382 1.5136 2.86811 0
M  V30 7753 H 734.167 3.18846 2.28209 0
M  V30 7754 H 735.657 2.73025 3.15986 0
M  V30 7755 N 736.094 -0.359525 1.53444 0
M  V30 7756 C 737.34 -1.10315 1.70172 0
M  V30 7757 C 737.673 -1.88788 0.455287 0
M  V30 7758 O 736.948 -1.86635 -0.547514 0
M  V30 7759 C 737.231 -2.05744 2.95536 0
M  V30 7760 C 737.084 -1.3084 4.3035 0
M  V30 7761 C 738.403 -3.05784 3.16518 0
M  V30 7762 H 735.522 -0.399662 0.619225 0
M  V30 7763 H 738.164 -0.383338 1.86093 0
M  V30 7764 H 736.314 -2.67125 2.82093 0
M  V30 7765 H 737.986 -0.721959 4.55615 0
M  V30 7766 H 736.229 -0.610283 4.29486 0
M  V30 7767 H 736.9 -2.00718 5.14214 0
M  V30 7768 H 739.376 -2.5451 3.29187 0
M  V30 7769 H 738.252 -3.69772 4.05659 0
M  V30 7770 H 738.513 -3.76289 2.32076 0
M  V30 7771 N 737.572 -1.44907 -0.619662 0
M  V30 7772 C 738.821 -1.47569 -1.37501 0
M  V30 7773 C 739.134 -0.116707 -1.95252 0
M  V30 7774 O 740.34 -0.020909 -2.71492 0
M  V30 7775 C 738.796 -2.59851 -2.49009 0
M  V30 7776 C 738.404 -4.02008 -1.97722 0
M  V30 7777 C 740.148 -2.71746 -3.2612 0
M  V30 7778 C 738.055 -5.05693 -3.0664 0
M  V30 7779 H 736.985 -0.549068 -0.51676 0
M  V30 7780 H 739.636 -1.71009 -0.665437 0
M  V30 7781 H 738.018 -2.29671 -3.22594 0
M  V30 7782 H 739.192 -4.41809 -1.30925 0
M  V30 7783 H 737.507 -3.94456 -1.33392 0
M  V30 7784 H 740.104 -3.46382 -4.07337 0
M  V30 7785 H 740.447 -1.77959 -3.76346 0
M  V30 7786 H 740.98 -3.01392 -2.5963 0
M  V30 7787 H 737.719 -6.01148 -2.61345 0
M  V30 7788 H 737.239 -4.70473 -3.72042 0
M  V30 7789 H 738.918 -5.29906 -3.71226 0
M  V30 7790 N 739.05 0.861098 -1.31996 0
M  V30 7791 C 739.997 1.96912 -1.20392 0
M  V30 7792 C 740.967 1.65869 -0.0875899 0
M  V30 7793 O 742.152 1.88992 -0.262011 0
M  V30 7794 C 739.292 3.32435 -0.926335 0
M  V30 7795 C 738.405 3.76018 -2.12684 0
M  V30 7796 C 737.54 5.00301 -1.78529 0
M  V30 7797 C 736.579 5.36357 -2.94937 0
M  V30 7798 N 735.716 6.51818 -2.60917 0
M  V30 7799 H 740.556 2.06169 -2.1517 0
M  V30 7800 H 738.093 1.00917 -1.07024 0
M  V30 7801 H 740.051 4.10478 -0.745917 0
M  V30 7802 H 738.681 3.22796 -0.0153578 0
M  V30 7803 H 737.733 2.93683 -2.41774 0
M  V30 7804 H 739.045 3.98664 -2.99781 0
M  V30 7805 H 738.199 5.86034 -1.57001 0
M  V30 7806 H 736.938 4.79578 -0.886356 0
M  V30 7807 H 735.943 4.49139 -3.17103 0
M  V30 7808 H 737.168 5.59041 -3.85552 0
M  V30 7809 H 735.114 6.32624 -1.73558 0
M  V30 7810 H 735.031 6.7445 -3.41544 0
M  V30 7811 H 736.299 7.4072 -2.42804 0
M  V30 7812 N 740.528 1.15101 1.07655 0
M  V30 7813 C 741.944 0.893004 1.32279 0
M  V30 7814 C 742.144 -0.461701 1.96139 0
M  V30 7815 O 741.2 -1.20431 2.21929 0
M  V30 7816 C 742.513 2.03161 2.21689 0
M  V30 7817 C 744.061 2.06579 2.35147 0
M  V30 7818 C 744.536 3.19754 3.27905 0
M  V30 7819 N 746.027 3.19382 3.35484 0
M  V30 7820 C 746.762 4.03592 4.07309 0
M  V30 7821 N 746.258 4.97859 4.81776 0
M  V30 7822 N 748.051 3.91626 4.03219 0
M  V30 7823 H 740.202 2.02341 0.645886 0
M  V30 7824 H 742.465 0.882127 0.347211 0
M  V30 7825 H 742.171 3.00934 1.82021 0
M  V30 7826 H 742.045 1.96132 3.22199 0
M  V30 7827 H 744.432 1.09408 2.74069 0
M  V30 7828 H 744.513 2.17676 1.34353 0
M  V30 7829 H 744.157 4.17175 2.89702 0
M  V30 7830 H 744.087 3.05893 4.28645 0
M  V30 7831 H 746.578 2.51112 2.82403 0
M  V30 7832 H 746.891 5.58563 5.34067 0
M  V30 7833 H 745.236 5.0185 4.80803 0
M  V30 7834 H 748.427 3.17295 3.44154 0
M  V30 7835 H 748.6 4.57479 4.5893 0
M  V30 7836 N 742.006 -1.2595 0.947325 0
M  V30 7837 C 742.954 -2.28152 0.452687 0
M  V30 7838 C 743.948 -1.62655 -0.473239 0
M  V30 7839 O 745.154 -1.76549 -0.350774 0
M  V30 7840 H 741.529 -0.741049 0.12787 0
M  V30 7841 H 743.5 -2.67267 1.32707 0
M  V30 7842 C 742.249 -3.46719 -0.26098 0
M  V30 7843 H 741.572 -3.97345 0.442352 0
M  V30 7844 H 743.012 -4.20135 -0.571208 0
M  V30 7845 C 741.471 -3.02605 -1.48094 0
M  V30 7846 O 742.001 -3.07979 -2.57899 0
M  V30 7847 N 740.207 -2.57877 -1.33969 0
M  V30 7848 H 739.754 -2.53704 -0.446295 0
M  V30 7849 H 739.712 -2.28725 -2.15713 0
M  V30 7850 N 743.484 -0.715051 -1.40445 0
M  V30 7851 C 744.431 -0.0621393 -2.30716 0
M  V30 7852 C 745.401 0.750871 -1.48159 0
M  V30 7853 O 746.586 0.714928 -1.76899 0
M  V30 7854 C 743.726 0.854036 -3.34365 0
M  V30 7855 C 742.839 0.0305565 -4.31989 0
M  V30 7856 C 741.974 0.946162 -5.22706 0
M  V30 7857 C 741.013 0.116741 -6.11989 0
M  V30 7858 N 740.15 0.987194 -6.95125 0
M  V30 7859 H 744.99 -0.83764 -2.85985 0
M  V30 7860 H 742.527 -0.424759 -1.40834 0
M  V30 7861 H 744.485 1.39946 -3.93028 0
M  V30 7862 H 743.115 1.59572 -2.806 0
M  V30 7863 H 742.167 -0.632044 -3.75112 0
M  V30 7864 H 743.479 -0.611615 -4.95036 0
M  V30 7865 H 742.633 1.56014 -5.86297 0
M  V30 7866 H 741.372 1.62216 -4.59932 0
M  V30 7867 H 740.377 -0.510176 -5.47428 0
M  V30 7868 H 741.602 -0.555742 -6.76822 0
M  V30 7869 H 739.548 1.64885 -6.3494 0
M  V30 7870 H 739.465 0.401046 -7.54936 0
M  V30 7871 H 740.733 1.58737 -7.63166 0
M  V30 7872 N 744.962 1.50701 -0.461195 0
M  V30 7873 C 745.872 2.32069 0.343661 0
M  V30 7874 C 746.888 1.42016 1.00535 0
M  V30 7875 O 748.064 1.75077 0.995498 0
M  V30 7876 C 745.129 3.16424 1.41692 0
M  V30 7877 C 744.19 4.22286 0.772869 0
M  V30 7878 C 743.423 5.02609 1.79499 0
M  V30 7879 O 743.646 4.83874 3.0203 0
M  V30 7880 O 742.58 5.86047 1.3723 0
M  V30 7881 H 746.406 3.01996 -0.321268 0
M  V30 7882 H 743.991 1.47723 -0.223235 0
M  V30 7883 H 745.873 3.68795 2.03883 0
M  V30 7884 H 744.548 2.49236 2.0655 0
M  V30 7885 H 743.455 3.73931 0.112277 0
M  V30 7886 H 744.788 4.91915 0.167399 0
M  V30 7887 N 746.441 0.193421 1.56409 0
M  V30 7888 C 747.391 -0.74089 2.15627 0
M  V30 7889 C 748.375 -1.17747 1.09656 0
M  V30 7890 O 749.567 -1.13615 1.35723 0
M  V30 7891 C 746.696 -1.96091 2.81786 0
M  V30 7892 C 745.782 -1.54531 3.94944 0
M  V30 7893 N 746.173 -0.840569 4.98767 0
M  V30 7894 C 744.471 -1.83473 4.06514 0
M  V30 7895 C 745.172 -0.632571 5.7825 0
M  V30 7896 N 744.148 -1.18078 5.30621 0
M  V30 7897 H 747.95 -0.193718 2.93261 0
M  V30 7898 H 745.464 -0.00643211 1.62399 0
M  V30 7899 H 747.461 -2.64071 3.22602 0
M  V30 7900 H 746.121 -2.51282 2.05639 0
M  V30 7901 H 747.132 -0.496218 5.15517 0
M  V30 7902 H 743.809 -2.40184 3.41493 0
M  V30 7903 H 745.199 -0.0736433 6.7186 0
M  V30 7904 O 747.958 -1.61402 0.0562482 0
M  V30 7905 H 748.649 -1.85658 -0.552338 0
M  V30 END ATOM
M  V30 BEGIN BOND
M  V30 END BOND
M  V30 END CTAB
M  END
$$$$
