drugbank_target|Q13907 Isopentenyl-diphosphate Delta-isomerase 1 (DB01785)
 OpenBabel12092120453D

  0  0  0     0  0            999 V3000
M  V30 BEGIN CTAB
M  V30 COUNTS 3703 3743 0 0 0
M  V30 BEGIN ATOM
M  V30 1 H -0.908 1.98254 -0.117106 0
M  V30 2 N 0 1.576 0 0
M  V30 3 C 0.933 2.03868 1.02534 0
M  V30 4 C 1.911 0.928543 1.3348 0
M  V30 5 O 3.095 1.19667 1.45644 0
M  V30 6 C 0.222 2.43627 2.35294 0
M  V30 7 C -0.732 3.65373 2.2001 0
M  V30 8 S 0.101 5.13292 1.52614 0
M  V30 9 C 1.257 5.56322 2.86805 0
M  V30 10 H 1.49 2.90518 0.631377 0
M  V30 11 H -0.977 1.52953 0.210867 0
M  V30 12 H 0.981 2.67203 3.11629 0
M  V30 13 H -0.358 1.57376 2.7183 0
M  V30 14 H -1.165 3.90944 3.18086 0
M  V30 15 H -1.563 3.418 1.51819 0
M  V30 16 H 0.729 5.58782 3.83104 0
M  V30 17 H 1.672 6.56266 2.65933 0
M  V30 18 H 2.08 4.83886 2.90714 0
M  V30 19 N 1.4781 -0.272755 1.55222 0
M  V30 20 C 2.8891 -0.84378 1.66545 0
M  V30 21 C 3.2401 -1.87035 0.592641 0
M  V30 22 O 2.3651 -2.14761 -0.265818 0
M  V30 23 C 2.9601 -1.53723 3.01918 0
M  V30 24 C 1.5191 -2.05628 3.15268 0
M  V30 25 C 0.6661 -0.898424 2.62343 0
M  V30 26 H 3.6171 -0.0490998 1.58624 0
M  V30 27 H 3.6381 -2.40421 2.94921 0
M  V30 28 H 3.1501 -0.78983 3.79978 0
M  V30 29 H 1.2511 -2.83329 2.41983 0
M  V30 30 H 1.3641 -2.27142 4.21833 0
M  V30 31 H -0.2719 -1.29186 2.19506 0
M  V30 32 H 0.5111 -0.164528 3.42906 0
M  V30 33 N 2.9562 -1.48159 -0.537278 0
M  V30 34 C 3.8662 -1.64807 -1.6696 0
M  V30 35 C 4.8822 -0.530651 -1.65711 0
M  V30 36 O 6.0582 -0.800784 -1.84796 0
M  V30 37 C 3.1232 -1.67708 -3.03438 0
M  V30 38 C 2.1842 -2.91025 -3.156 0
M  V30 39 C 1.4172 -2.93778 -4.45567 0
M  V30 40 O 1.6402 -2.05153 -5.3223 0
M  V30 41 O 0.5742 -3.85868 -4.61941 0
M  V30 42 H 4.4002 -2.6066 -1.55853 0
M  V30 43 H 1.9852 -1.31475 -0.709549 0
M  V30 44 H 3.8672 -1.7218 -3.84619 0
M  V30 45 H 2.5422 -0.750278 -3.14885 0
M  V30 46 H 1.4492 -2.92089 -2.33741 0
M  V30 47 H 2.7822 -3.83065 -3.09066 0
M  V30 48 N 4.4343 0.785586 -1.36625 0
M  V30 49 C 5.6833 1.53883 -1.30396 0
M  V30 50 C 5.9963 1.95271 0.113452 0
M  V30 51 O 7.2023 2.69858 0.298142 0
M  V30 52 C 5.6583 2.77808 -2.28802 0
M  V30 53 C 5.2663 2.43574 -3.75999 0
M  V30 54 C 7.0103 3.55783 -2.31558 0
M  V30 55 C 4.9173 3.63919 -4.66173 0
M  V30 56 H 3.8473 0.577678 -0.484566 0
M  V30 57 H 6.4983 0.861705 -1.62009 0
M  V30 58 H 4.8803 3.47339 -1.90188 0
M  V30 59 H 6.0543 1.81916 -4.23371 0
M  V30 60 H 4.3693 1.78803 -3.76056 0
M  V30 61 H 6.9663 4.45205 -2.96137 0
M  V30 62 H 7.3093 3.94644 -1.3252 0
M  V30 63 H 7.8423 2.93235 -2.68809 0
M  V30 64 H 4.5813 3.3015 -5.66287 0
M  V30 65 H 4.1013 4.2473 -4.23515 0
M  V30 66 H 5.7803 4.30901 -4.82632 0
M  V30 67 N 5.9124 1.20967 1.01018 0
M  V30 68 C 6.8604 0.961223 2.1181 0
M  V30 69 C 7.8544 -0.0897034 1.69162 0
M  V30 70 O 9.0604 0.0612271 1.79896 0
M  V30 71 H 5.4354 0.29355 0.692338 0
M  V30 72 H 7.4064 1.90178 2.29946 0
M  V30 73 C 6.1554 0.536854 3.4353 0
M  V30 74 H 5.4784 1.33713 3.76777 0
M  V30 75 H 6.9184 0.402286 4.22087 0
M  V30 76 C 5.3774 -0.751574 3.2841 0
M  V30 77 O 5.9074 -1.80841 3.58691 0
M  V30 78 N 4.1134 -0.716079 2.81639 0
M  V30 79 H 3.6604 0.144236 2.57196 0
M  V30 80 H 3.6184 -1.57847 2.71904 0
M  V30 81 N 7.3905 -1.2043 1.01659 0
M  V30 82 C 8.6185 -1.93777 0.725132 0
M  V30 83 C 9.0335 -1.74772 -0.714166 0
M  V30 84 O 8.3905 -1.06169 -1.4844 0
M  V30 85 C 8.4415 -3.45876 1.05129 0
M  V30 86 O 8.1625 -3.6426 2.43406 0
M  V30 87 C 9.6635 -4.36368 0.780891 0
M  V30 88 H 6.8835 -0.615901 0.266284 0
M  V30 89 H 9.4275 -1.52922 1.35776 0
M  V30 90 H 7.5825 -3.8461 0.464065 0
M  V30 91 H 7.9965 -4.58246 2.55169 0
M  V30 92 H 9.4705 -5.41743 1.05918 0
M  V30 93 H 9.9475 -4.38275 -0.284937 0
M  V30 94 H 10.5535 -4.03296 1.35027 0
M  V30 95 N 8.8686 -0.792821 -1.36206 0
M  V30 96 C 9.8166 -0.181555 -2.3189 0
M  V30 97 C 10.8106 0.661025 -1.55971 0
M  V30 98 O 12.0166 0.555728 -1.71206 0
M  V30 99 H 8.3916 -0.0399382 -0.750939 0
M  V30 100 H 10.3626 -1.00394 -2.81005 0
M  V30 101 C 9.1116 0.666444 -3.41253 0
M  V30 102 H 8.4346 0.0274489 -3.99791 0
M  V30 103 H 9.8746 1.06076 -4.10517 0
M  V30 104 C 8.3336 1.82614 -2.83114 0
M  V30 105 O 8.8636 2.9229 -2.75553 0
M  V30 106 N 7.0696 1.63333 -2.40356 0
M  V30 107 H 6.6166 0.741217 -2.46706 0
M  V30 108 H 6.5746 2.41087 -2.01803 0
M  V30 109 N 10.3467 1.47872 -0.545128 0
M  V30 110 C 11.2967 2.26842 0.229456 0
M  V30 111 C 12.2807 1.33626 0.896267 0
M  V30 112 O 13.4727 1.58063 0.79657 0
M  V30 113 C 10.6017 3.19089 1.26638 0
M  V30 114 C 9.6877 4.19783 0.603598 0
M  V30 115 N 10.0787 5.0479 -0.319405 0
M  V30 116 C 8.3767 4.3765 0.858989 0
M  V30 117 C 9.0777 5.77433 -0.703241 0
M  V30 118 N 8.0537 5.43566 -0.0608309 0
M  V30 119 H 11.8557 2.89947 -0.480391 0
M  V30 120 H 9.3697 1.58263 -0.364209 0
M  V30 121 H 11.3667 3.74337 1.83515 0
M  V30 122 H 10.0267 2.5754 1.97745 0
M  V30 123 H 11.0377 5.13244 -0.692889 0
M  V30 124 H 7.7147 3.87281 1.55948 0
M  V30 125 H 9.1047 6.55824 -1.46098 0
M  V30 126 N 11.8248 0.280983 1.55075 0
M  V30 127 C 12.7548 -0.597469 2.25727 0
M  V30 128 C 13.7358 -1.15417 1.24952 0
M  V30 129 O 14.9208 -1.18722 1.53684 0
M  V30 130 C 12.0508 -1.7789 2.98283 0
M  V30 131 C 11.0048 -1.35347 4.06036 0
M  V30 132 C 10.3308 -2.61846 4.66198 0
M  V30 133 C 11.6308 -0.499354 5.19907 0
M  V30 134 H 13.3248 -0.00824265 2.99399 0
M  V30 135 H 10.8708 -0.0025244 1.44 0
M  V30 136 H 12.8238 -2.39937 3.46422 0
M  V30 137 H 11.5478 -2.39405 2.22155 0
M  V30 138 H 10.2068 -0.756156 3.58717 0
M  V30 139 H 9.8548 -3.21632 3.86732 0
M  V30 140 H 9.5548 -2.3409 5.38958 0
M  V30 141 H 11.0788 -3.24732 5.1709 0
M  V30 142 H 12.4928 -1.02498 5.64063 0
M  V30 143 H 10.8898 -0.316424 5.99265 0
M  V30 144 H 11.9598 0.480459 4.82514 0
M  V30 145 N 13.3029 -1.57598 0.00835791 0
M  V30 146 C 14.5799 -1.82172 -0.712235 0
M  V30 147 C 14.9599 -0.887873 -1.9152 0
M  V30 148 O 14.3079 0.06146 -2.28417 0
M  V30 149 C 14.5179 -3.30875 -1.11008 0
M  V30 150 C 15.8659 -3.96826 -1.51044 0
M  V30 151 O 16.8899 -3.35248 -1.20364 0
M  V30 152 O 15.7489 -5.05318 -2.08125 0
M  V30 153 H 12.8429 -0.750435 -0.347529 0
M  V30 154 H 15.3889 -1.69665 0.0344523 0
M  V30 155 H 14.1609 -3.90481 -0.252982 0
M  V30 156 H 13.7839 -3.48412 -1.9156 0
M  V30 157 N 14.781 0.264519 -1.55364 0
M  V30 158 C 15.728 1.32717 -1.88825 0
M  V30 159 C 16.698 1.48675 -0.740605 0
M  V30 160 O 17.883 1.62945 -0.992657 0
M  V30 161 C 15.023 2.68089 -2.17307 0
M  V30 162 C 14.136 2.60284 -3.44785 0
M  V30 163 C 13.271 3.87892 -3.62924 0
M  V30 164 C 12.31 3.74631 -4.84064 0
M  V30 165 N 11.447 4.94092 -4.98816 0
M  V30 166 H 16.287 1.03481 -2.79456 0
M  V30 167 H 13.824 0.499757 -1.3835 0
M  V30 168 H 15.782 3.46864 -2.31821 0
M  V30 169 H 14.412 2.95509 -1.299 0
M  V30 170 H 13.464 1.73173 -3.38697 0
M  V30 171 H 14.776 2.46388 -4.33698 0
M  V30 172 H 13.93 4.75109 -3.77302 0
M  V30 173 H 12.669 4.04664 -2.7221 0
M  V30 174 H 11.674 2.85797 -4.69681 0
M  V30 175 H 12.899 3.5937 -5.76221 0
M  V30 176 H 10.845 5.11259 -4.11036 0
M  V30 177 H 10.762 4.8276 -5.81789 0
M  V30 178 H 12.03 5.82857 -5.17588 0
M  V30 179 N 16.2591 1.48442 0.529413 0
M  V30 180 C 17.1911 1.59095 1.64989 0
M  V30 181 C 18.2041 0.475212 1.5571 0
M  V30 182 O 19.3931 0.746081 1.6216 0
M  V30 183 C 16.4931 1.50518 3.0364 0
M  V30 184 C 15.6661 2.77142 3.38395 0
M  V30 185 C 14.7251 2.62012 4.56329 0
M  V30 186 O 13.7511 3.35898 4.59522 0
M  V30 187 N 14.9531 1.71667 5.54536 0
M  V30 188 H 17.7181 2.55723 1.56287 0
M  V30 189 H 15.2791 1.45173 0.716697 0
M  V30 190 H 17.2711 1.38091 3.80412 0
M  V30 191 H 15.8411 0.618627 3.06418 0
M  V30 192 H 15.0611 3.0413 2.50796 0
M  V30 193 H 16.3491 3.61146 3.58401 0
M  V30 194 H 15.7471 1.10841 5.54735 0
M  V30 195 H 14.3041 1.65178 6.30523 0
M  V30 196 N 17.7372 -0.778329 1.37039 0
M  V30 197 C 18.6692 -1.90034 1.2814 0
M  V30 198 C 19.6822 -1.61585 0.198558 0
M  V30 199 O 20.8712 -1.72625 0.454175 0
M  V30 200 C 17.9712 -3.25108 0.956968 0
M  V30 201 C 17.1442 -3.81253 2.14394 0
M  V30 202 C 16.2032 -4.94789 1.79082 0
M  V30 203 O 15.2292 -5.10721 2.51301 0
M  V30 204 N 16.4312 -5.75878 0.731043 0
M  V30 205 H 19.1962 -1.98186 2.24816 0
M  V30 206 H 16.7572 -0.957129 1.30578 0
M  V30 207 H 18.7492 -3.9857 0.701701 0
M  V30 208 H 17.3192 -3.125 0.0789812 0
M  V30 209 H 16.5392 -2.99647 2.56135 0
M  V30 210 H 17.8272 -4.15495 2.93668 0
M  V30 211 H 17.2252 -5.65547 0.131618 0
M  V30 212 H 15.7822 -6.49596 0.535622 0
M  V30 213 N 19.2153 -1.21501 -1.00376 0
M  V30 214 C 20.4613 -1.03452 -1.74429 0
M  V30 215 C 20.7943 0.430764 -1.89362 0
M  V30 216 O 20.0693 1.31962 -1.42886 0
M  V30 217 C 20.3523 -1.73375 -3.15615 0
M  V30 218 C 20.2053 -3.27431 -3.08397 0
M  V30 219 C 21.5243 -1.47732 -4.14564 0
M  V30 220 H 18.6433 -0.377226 -0.633143 0
M  V30 221 H 21.2853 -1.49693 -1.17013 0
M  V30 222 H 19.4353 -1.34064 -3.64636 0
M  V30 223 H 21.1073 -3.76119 -2.67081 0
M  V30 224 H 19.3503 -3.5767 -2.45468 0
M  V30 225 H 20.0213 -3.71524 -4.08258 0
M  V30 226 H 22.4973 -1.8186 -3.74254 0
M  V30 227 H 21.3733 -1.99169 -5.11491 0
M  V30 228 H 21.6343 -0.407589 -4.40217 0
M  V30 229 N 20.6934 1.19889 -1.02296 0
M  V30 230 C 21.6254 2.22334 -0.556787 0
M  V30 231 C 22.6384 1.58674 0.364199 0
M  V30 232 O 23.8274 1.77768 0.161533 0
M  V30 233 C 20.9274 3.38257 0.208694 0
M  V30 234 C 20.1004 4.31504 -0.71577 0
M  V30 235 C 19.1594 5.262 0.00325597 0
M  V30 236 O 18.1854 5.65798 -0.621357 0
M  V30 237 N 19.3874 5.66303 1.27599 0
M  V30 238 H 22.1524 2.62957 -1.43784 0
M  V30 239 H 19.7134 1.34495 -0.901261 0
M  V30 240 H 21.7054 3.98616 0.699111 0
M  V30 241 H 20.2754 2.96472 0.991102 0
M  V30 242 H 19.4954 3.69016 -1.38638 0
M  V30 243 H 20.7834 4.9072 -1.34428 0
M  V30 244 H 20.1814 5.36155 1.80429 0
M  V30 245 H 18.7384 6.28942 1.71102 0
M  V30 246 N 22.1715 0.800033 1.35784 0
M  V30 247 C 23.1015 0.220184 2.3246 0
M  V30 248 C 24.0825 -0.65073 1.57161 0
M  V30 249 O 25.2675 -0.582359 1.85263 0
M  V30 250 C 22.3975 -0.637353 3.41402 0
M  V30 251 C 21.3515 0.134531 4.27789 0
M  V30 252 C 20.6775 -0.844285 5.27992 0
M  V30 253 C 21.9775 1.32979 5.05088 0
M  V30 254 H 23.6715 1.02787 2.81203 0
M  V30 255 H 21.2175 0.495717 1.35199 0
M  V30 256 H 23.1705 -1.05302 4.08031 0
M  V30 257 H 21.8945 -1.47785 2.91251 0
M  V30 258 H 20.5535 0.531296 3.6273 0
M  V30 259 H 20.2015 -1.68011 4.74111 0
M  V30 260 H 19.9015 -0.332184 5.8666 0
M  V30 261 H 21.4255 -1.2583 5.97494 0
M  V30 262 H 22.8395 0.98934 5.64699 0
M  V30 263 H 21.2365 1.77593 5.7322 0
M  V30 264 H 22.3065 2.11978 4.36111 0
M  V30 265 N 23.6496 -1.47581 0.552962 0
M  V30 266 C 24.5796 -2.32762 -0.185451 0
M  V30 267 C 25.5606 -1.43527 -0.912905 0
M  V30 268 O 26.7456 -1.72388 -0.894201 0
M  V30 269 C 23.8756 -3.25219 -1.21859 0
M  V30 270 C 22.8296 -4.23661 -0.607864 0
M  V30 271 C 22.1556 -5.05413 -1.74533 0
M  V30 272 C 23.4556 -5.20481 0.435582 0
M  V30 273 H 25.1496 -2.94749 0.525684 0
M  V30 274 H 22.6956 -1.41738 0.254251 0
M  V30 275 H 24.6486 -3.8365 -1.7433 0
M  V30 276 H 23.3726 -2.61279 -1.95961 0
M  V30 277 H 22.0316 -3.66451 -0.104489 0
M  V30 278 H 21.6796 -4.3788 -2.47529 0
M  V30 279 H 21.3796 -5.72059 -1.34249 0
M  V30 280 H 22.9036 -5.66701 -2.27338 0
M  V30 281 H 24.3176 -5.733 -0.00290157 0
M  V30 282 H 22.7146 -5.95305 0.757067 0
M  V30 283 H 23.7846 -4.66217 1.33303 0
M  V30 284 N 25.1277 -0.289203 -1.54924 0
M  V30 285 C 26.0907 0.579144 -2.21762 0
M  V30 286 C 27.0907 1.07047 -1.1999 0
M  V30 287 O 28.2807 0.968384 -1.44803 0
M  V30 288 C 25.4127 1.80055 -2.8947 0
M  V30 289 H 26.6057 -0.00464908 -2.999 0
M  V30 290 H 24.1587 -0.0399306 -1.56249 0
M  V30 291 H 24.8937 2.42449 -2.15381 0
M  V30 292 H 24.6787 1.45602 -3.64064 0
M  V30 293 H 26.1687 2.41773 -3.40493 0
M  V30 294 N 26.6058 1.57591 -0.0167156 0
M  V30 295 C 27.5158 2.1291 0.98521 0
M  V30 296 C 28.5318 1.07834 1.36557 0
M  V30 297 O 29.7078 1.39826 1.44951 0
M  V30 298 C 26.7728 2.63512 2.25305 0
M  V30 299 C 25.8338 3.83256 1.93426 0
M  V30 300 C 25.0668 4.31435 3.14165 0
M  V30 301 O 25.2898 3.78851 4.26413 0
M  V30 302 O 24.2238 5.23416 2.97186 0
M  V30 303 H 28.0498 2.98772 0.544888 0
M  V30 304 H 25.6348 1.48012 0.203141 0
M  V30 305 H 27.5168 2.96183 2.99756 0
M  V30 306 H 26.1918 1.8074 2.68542 0
M  V30 307 H 25.0988 3.55531 1.16398 0
M  V30 308 H 26.4318 4.67153 1.55013 0
M  V30 309 N 28.0839 -0.256276 1.55502 0
M  V30 310 C 29.0169 -1.34321 1.84481 0
M  V30 311 C 29.9949 -1.46802 0.699131 0
M  V30 312 O 31.1789 -1.63165 0.943904 0
M  V30 313 C 28.3059 -2.71779 2.02123 0
M  V30 314 C 27.3519 -2.76496 3.24734 0
M  V30 315 S 28.1849 -2.3405 4.81644 0
M  V30 316 C 29.3409 -3.73452 5.02279 0
M  V30 317 H 29.5739 -1.09539 2.76385 0
M  V30 318 H 27.1069 -0.45678 1.47489 0
M  V30 319 H 29.0649 -3.50932 2.12972 0
M  V30 320 H 27.7259 -2.93803 1.11078 0
M  V30 321 H 26.9189 -3.77424 3.34016 0
M  V30 322 H 26.5209 -2.05379 3.12563 0
M  V30 323 H 28.8129 -4.6887 4.89047 0
M  V30 324 H 29.7559 -3.6911 6.04287 0
M  V30 325 H 30.1639 -3.6553 4.30172 0
M  V30 326 N 29.562 -1.4872 -0.521534 0
M  V30 327 C 30.802 -1.58771 -1.28729 0
M  V30 328 C 31.166 -0.259394 -1.9024 0
M  V30 329 O 32.367 -0.234942 -2.67771 0
M  V30 330 C 30.638 -2.70039 -2.34124 0
M  V30 331 S 32.197 -2.9991 -3.20312 0
M  V30 332 H 29.015 -0.560251 -0.437767 0
M  V30 333 H 31.617 -1.86283 -0.593188 0
M  V30 334 H 30.321 -3.65101 -1.87429 0
M  V30 335 H 29.852 -2.44455 -3.08229 0
M  V30 336 H 31.867 -2.39855 -4.34378 0
M  V30 337 N 31.0401 0.771051 -1.3745 0
M  V30 338 C 32.2891 1.52491 -1.3202 0
M  V30 339 C 32.6021 1.9538 0.0927347 0
M  V30 340 O 33.8081 2.70159 0.269503 0
M  V30 341 C 32.2641 2.75366 -2.31736 0
M  V30 342 C 31.8721 2.39573 -3.78562 0
M  V30 343 C 33.6161 3.53307 -2.35318 0
M  V30 344 C 31.5231 3.58954 -4.70007 0
M  V30 345 H 30.4531 0.572506 -0.490666 0
M  V30 346 H 33.1041 0.844474 -1.62914 0
M  V30 347 H 31.4861 3.45303 -1.93861 0
M  V30 348 H 32.6601 1.77415 -4.25277 0
M  V30 349 H 30.9751 1.74805 -3.77932 0
M  V30 350 H 33.5721 4.42039 -3.00842 0
M  V30 351 H 33.9151 3.93217 -1.36698 0
M  V30 352 H 34.4481 2.90367 -2.71904 0
M  V30 353 H 31.1871 3.24125 -5.69757 0
M  V30 354 H 30.7071 4.20214 -4.27996 0
M  V30 355 H 32.3861 4.25758 -4.87175 0
M  V30 356 N 32.5182 1.22032 0.997298 0
M  V30 357 C 33.4482 1.01065 2.10495 0
M  V30 358 C 34.4292 -0.0669542 1.69968 0
M  V30 359 O 35.6142 0.0943987 1.9397 0
M  V30 360 C 32.7442 0.582874 3.42374 0
M  V30 361 C 31.6982 1.60592 3.96729 0
M  V30 362 C 31.0242 1.03412 5.24605 0
M  V30 363 C 32.3242 2.99478 4.27914 0
M  V30 364 H 34.0182 1.93708 2.28292 0
M  V30 365 H 31.5642 0.932761 1.09707 0
M  V30 366 H 33.5172 0.423332 4.19268 0
M  V30 367 H 32.2412 -0.379213 3.24391 0
M  V30 368 H 30.9002 1.75316 3.21963 0
M  V30 369 H 30.5482 0.063518 5.0296 0
M  V30 370 H 30.2482 1.71754 5.61938 0
M  V30 371 H 31.7722 0.886066 6.04137 0
M  V30 372 H 33.1862 2.88153 4.95622 0
M  V30 373 H 31.5832 3.64903 4.76409 0
M  V30 374 H 32.6532 3.49742 3.3587 0
M  V30 375 N 33.9963 -1.19345 1.0293 0
M  V30 376 C 35.2453 -1.88363 0.721256 0
M  V30 377 C 35.5583 -1.80514 -0.753254 0
M  V30 378 O 36.7643 -2.44788 -1.17436 0
M  V30 379 C 35.2203 -3.37872 1.23978 0
M  V30 380 C 34.8283 -3.54278 2.74211 0
M  V30 381 C 36.5723 -4.12365 1.00775 0
M  V30 382 C 34.4793 -4.97682 3.19479 0
M  V30 383 H 33.4093 -0.705484 0.266098 0
M  V30 384 H 36.0603 -1.34928 1.24365 0
M  V30 385 H 34.4423 -3.90707 0.6453 0
M  V30 386 H 35.6163 -3.11769 3.39318 0
M  V30 387 H 33.9313 -2.93174 2.95699 0
M  V30 388 H 36.5283 -5.18119 1.32123 0
M  V30 389 H 36.8713 -4.16263 -0.0554308 0
M  V30 390 H 37.4043 -3.65668 1.56625 0
M  V30 391 H 34.1433 -4.98945 4.25128 0
M  V30 392 H 33.6633 -5.4095 2.591 0
M  V30 393 H 35.3423 -5.66337 3.12845 0
M  V30 394 N 35.4744 -0.807222 -1.35358 0
M  V30 395 C 36.7514 -0.311126 -1.9311 0
M  V30 396 C 37.1314 1.19937 -1.73719 0
M  V30 397 O 36.4794 1.99918 -1.10657 0
M  V30 398 C 36.6894 -0.723226 -3.41424 0
M  V30 399 C 38.0374 -0.713078 -4.18569 0
M  V30 400 O 39.0614 -0.664811 -3.49941 0
M  V30 401 O 37.9204 -0.772022 -5.41019 0
M  V30 402 H 35.0144 -0.081526 -0.822972 0
M  V30 403 H 37.5604 -0.890962 -1.4443 0
M  V30 404 H 36.3324 -1.76426 -3.4927 0
M  V30 405 H 35.9554 -0.118232 -3.97424 0
M  V30 406 N 36.9525 1.47285 -0.560781 0
M  V30 407 C 37.8625 2.33846 0.187954 0
M  V30 408 C 38.8785 1.48412 0.908293 0
M  V30 409 O 40.0545 1.81332 0.876388 0
M  V30 410 C 37.1195 3.25178 1.2025 0
M  V30 411 C 36.1805 4.26504 0.489208 0
M  V30 412 C 35.4135 5.13472 1.45542 0
M  V30 413 O 35.6365 5.02959 2.6905 0
M  V30 414 O 34.5705 5.93902 0.977963 0
M  V30 415 H 38.3965 2.99177 -0.522177 0
M  V30 416 H 35.9815 1.45903 -0.321364 0
M  V30 417 H 37.8635 3.81584 1.78805 0
M  V30 418 H 36.5385 2.6247 1.89449 0
M  V30 419 H 35.4455 3.73847 -0.137627 0
M  V30 420 H 36.7785 4.91935 -0.161399 0
M  V30 421 N 38.4306 0.297415 1.54768 0
M  V30 422 C 39.3786 -0.596051 2.24833 0
M  V30 423 C 40.3726 -1.13992 1.25308 0
M  V30 424 O 41.5786 -1.09098 1.4317 0
M  V30 425 H 37.9536 -0.210814 0.721846 0
M  V30 426 H 39.9246 0.0174667 2.98395 0
M  V30 427 C 38.6736 -1.75818 2.99972 0
M  V30 428 H 37.9966 -1.3489 3.76357 0
M  V30 429 H 39.4366 -2.35949 3.52284 0
M  V30 430 C 37.8956 -2.66014 2.06732 0
M  V30 431 O 38.4256 -3.67009 1.63302 0
M  V30 432 N 36.6316 -2.33669 1.72763 0
M  V30 433 H 36.1786 -1.51586 2.08277 0
M  V30 434 H 36.1366 -2.94285 1.10652 0
M  V30 435 N 39.9087 -1.5758 0.0250728 0
M  V30 436 C 41.1857 -1.82917 -0.692873 0
M  V30 437 C 41.5657 -0.908137 -1.90568 0
M  V30 438 O 40.9137 0.0372298 -2.2847 0
M  V30 439 C 41.1237 -3.32034 -1.07492 0
M  V30 440 C 42.4717 -3.98406 -1.46826 0
M  V30 441 O 43.4957 -3.36505 -1.16801 0
M  V30 442 O 42.3547 -5.07497 -2.02754 0
M  V30 443 H 39.4487 -0.754079 -0.33955 0
M  V30 444 H 41.9947 -1.69619 0.0524456 0
M  V30 445 H 40.7667 -3.90728 -0.211552 0
M  V30 446 H 40.3897 -3.50424 -1.87854 0
M  V30 447 N 41.3868 0.248026 -1.55636 0
M  V30 448 C 42.3348 1.32683 -1.91045 0
M  V30 449 C 43.3288 1.49883 -0.789401 0
M  V30 450 O 44.5348 1.51371 -0.974007 0
M  V30 451 H 40.9098 0.444272 -0.606734 0
M  V30 452 H 42.8808 1.00085 -2.81115 0
M  V30 453 C 41.6298 2.6755 -2.22064 0
M  V30 454 H 40.9528 2.55114 -3.07826 0
M  V30 455 H 42.3928 3.41912 -2.50743 0
M  V30 456 C 40.8518 3.20556 -1.0366 0
M  V30 457 O 41.3818 4.00695 -0.284016 0
M  V30 458 N 39.5878 2.78568 -0.82753 0
M  V30 459 H 39.1348 2.1351 -1.44123 0
M  V30 460 H 39.0928 3.14378 -0.0369803 0
M  V30 461 N 42.8649 1.48995 0.513639 0
M  V30 462 C 43.8119 1.6473 1.61656 0
M  V30 463 C 44.7819 0.488984 1.58739 0
M  V30 464 O 45.9669 0.714478 1.76918 0
M  V30 465 C 43.1069 1.7082 2.99858 0
M  V30 466 C 42.2199 2.9787 3.12885 0
M  V30 467 C 41.3549 2.95017 4.41744 0
M  V30 468 C 40.3939 4.16702 4.48359 0
M  V30 469 N 39.5309 4.11832 5.68629 0
M  V30 470 H 44.3709 2.58909 1.47547 0
M  V30 471 H 41.9079 1.28382 0.71808 0
M  V30 472 H 43.8659 1.72331 3.79944 0
M  V30 473 H 42.4959 0.801181 3.12699 0
M  V30 474 H 41.5479 3.06029 2.25944 0
M  V30 475 H 42.8599 3.8786 3.13633 0
M  V30 476 H 42.0139 2.95021 5.30139 0
M  V30 477 H 40.7529 2.02784 4.43542 0
M  V30 478 H 39.7579 4.16955 3.58369 0
M  V30 479 H 40.9829 5.10113 4.48287 0
M  V30 480 H 38.9289 3.22428 5.71293 0
M  V30 481 H 38.8459 4.95543 5.7094 0
M  V30 482 H 40.1139 4.1592 6.59266 0
M  V30 483 N 44.343 -0.763751 1.37857 0
M  V30 484 C 45.592 -1.51789 1.32827 0
M  V30 485 C 45.905 -1.95426 -0.0823719 0
M  V30 486 O 47.111 -2.70298 -0.255172 0
M  V30 487 C 45.567 -2.74133 2.33193 0
M  V30 488 C 45.175 -2.37562 3.79827 0
M  V30 489 C 46.919 -3.52054 2.37188 0
M  V30 490 C 44.826 -3.56456 4.71904 0
M  V30 491 H 43.756 -0.569896 0.493695 0
M  V30 492 H 46.407 -0.835822 1.63359 0
M  V30 493 H 44.789 -3.4427 1.9569 0
M  V30 494 H 45.963 -1.75157 4.26212 0
M  V30 495 H 44.278 -1.72798 3.78853 0
M  V30 496 H 46.875 -4.40437 3.03182 0
M  V30 497 H 47.218 -3.92486 1.38782 0
M  V30 498 H 47.751 -2.88921 2.7344 0
M  V30 499 H 44.49 -3.21099 5.71468 0
M  V30 500 H 44.01 -4.17938 4.30218 0
M  V30 501 H 45.689 -4.23168 4.89426 0
M  V30 502 N 45.8211 -1.22559 -0.990812 0
M  V30 503 C 47.0691 -1.04933 -1.72724 0
M  V30 504 C 47.3901 0.416158 -1.90508 0
M  V30 505 O 46.6601 1.29918 -1.46622 0
M  V30 506 H 45.2401 -0.385296 -0.639965 0
M  V30 507 H 47.9021 -1.54105 -1.19322 0
M  V30 508 H 46.9981 -1.52886 -2.72089 0
M  V30 509 N 47.2992 1.18797 -1.03562 0
M  V30 510 C 48.2622 2.20464 -0.626769 0
M  V30 511 C 49.2622 1.57721 0.313173 0
M  V30 512 O 50.4522 1.73917 0.0992615 0
M  V30 513 C 47.5842 3.40802 0.0818498 0
M  V30 514 H 48.7772 2.58149 -1.5264 0
M  V30 515 H 46.3302 1.32593 -0.827578 0
M  V30 516 H 47.0652 3.08642 0.995518 0
M  V30 517 H 46.8502 3.8758 -0.593652 0
M  V30 518 H 48.3402 4.16092 0.354584 0
M  V30 519 N 48.7773 0.814389 1.34928 0
M  V30 520 C 49.6873 0.231978 2.3345 0
M  V30 521 C 50.7033 -0.629139 1.62228 0
M  V30 522 O 51.8793 -0.539052 1.94052 0
M  V30 523 C 48.9443 -0.603482 3.41407 0
M  V30 524 C 48.0053 0.279037 4.28392 0
M  V30 525 C 47.2383 -0.516643 5.31193 0
M  V30 526 O 47.4613 -1.75068 5.4287 0
M  V30 527 O 46.3953 0.0965652 6.01823 0
M  V30 528 H 50.2213 1.04721 2.85074 0
M  V30 529 H 47.8063 0.576343 1.37836 0
M  V30 530 H 49.6883 -1.07908 4.0735 0
M  V30 531 H 48.3633 -1.39618 2.92042 0
M  V30 532 H 47.2703 0.801948 3.65403 0
M  V30 533 H 48.6033 1.03588 4.81176 0
M  V30 534 N 50.2554 -1.46986 0.568584 0
M  V30 535 C 51.4834 -2.0683 0.0539956 0
M  V30 536 C 51.8984 -1.41953 -1.24478 0
M  V30 537 O 51.2554 -0.519933 -1.74937 0
M  V30 538 C 51.3064 -3.61254 -0.133362 0
M  V30 539 O 51.0274 -4.237 1.11399 0
M  V30 540 C 52.5284 -4.37992 -0.683927 0
M  V30 541 H 49.7484 -0.669058 0.0510141 0
M  V30 542 H 52.2924 -1.88824 0.785234 0
M  V30 543 H 50.4474 -3.78735 -0.81477 0
M  V30 544 H 50.8614 -5.16388 0.91888 0
M  V30 545 H 52.3354 -5.46684 -0.764263 0
M  V30 546 H 52.8124 -4.05058 -1.69778 0
M  V30 547 H 53.4184 -4.25283 -0.0378494 0
M  V30 548 N 51.7335 -0.305618 -1.54608 0
M  V30 549 C 52.6805 0.568421 -2.23691 0
M  V30 550 C 53.6505 1.12592 -1.22116 0
M  V30 551 O 54.8355 1.16959 -1.50749 0
M  V30 552 C 51.9755 1.7322 -2.98477 0
M  V30 553 C 51.0885 1.20566 -4.14835 0
M  V30 554 C 50.2235 2.33368 -4.77193 0
M  V30 555 C 49.2625 1.7787 -5.85686 0
M  V30 556 N 48.3995 2.84263 -6.4198 0
M  V30 557 H 53.2395 -0.0272867 -2.97988 0
M  V30 558 H 50.7765 -0.0252363 -1.47078 0
M  V30 559 H 52.7345 2.41675 -3.40072 0
M  V30 560 H 51.3645 2.29947 -2.26548 0
M  V30 561 H 50.4165 0.413223 -3.78149 0
M  V30 562 H 51.7285 0.759417 -4.92985 0
M  V30 563 H 50.8825 3.09761 -5.21664 0
M  V30 564 H 49.6215 2.8132 -3.98385 0
M  V30 565 H 48.6265 0.99968 -5.40635 0
M  V30 566 H 49.8515 1.30816 -6.66381 0
M  V30 567 H 47.7975 3.31541 -5.66053 0
M  V30 568 H 47.7145 2.44149 -7.15491 0
M  V30 569 H 48.9825 3.6054 -6.91109 0
M  V30 570 N 53.2116 1.57565 -0.0334293 0
M  V30 571 C 54.1586 2.10478 0.946981 0
M  V30 572 C 55.1286 1.00787 1.32027 0
M  V30 573 O 56.3136 1.28232 1.41284 0
M  V30 574 C 53.4536 2.63994 2.22263 0
M  V30 575 C 52.5666 3.87709 1.90541 0
M  V30 576 C 51.7016 4.29604 3.12433 0
M  V30 577 C 50.7406 5.46065 2.76549 0
M  V30 578 N 49.8776 5.83096 3.9108 0
M  V30 579 H 54.7176 2.93963 0.488846 0
M  V30 580 H 52.2546 1.45296 0.22969 0
M  V30 581 H 54.2126 2.93114 2.96884 0
M  V30 582 H 52.8426 1.83333 2.65685 0
M  V30 583 H 51.8946 3.65291 1.06144 0
M  V30 584 H 53.2066 4.72403 1.60116 0
M  V30 585 H 52.3606 4.60182 3.9537 0
M  V30 586 H 51.0996 3.43685 3.46023 0
M  V30 587 H 50.1046 5.15176 1.92026 0
M  V30 588 H 51.3296 6.33685 2.44171 0
M  V30 589 H 49.2756 5.00132 4.24504 0
M  V30 590 H 49.1926 6.6244 3.64293 0
M  V30 591 H 50.4606 6.18282 4.74708 0
M  V30 592 N 54.6897 -0.239769 1.55765 0
M  V30 593 C 55.6377 -1.31668 1.91745 0
M  V30 594 C 56.6317 -1.49462 0.797338 0
M  V30 595 O 57.8377 -1.50852 0.982021 0
M  V30 596 H 54.2127 -0.441048 0.609082 0
M  V30 597 H 56.1837 -0.985923 2.81642 0
M  V30 598 C 54.9327 -2.66368 2.2348 0
M  V30 599 H 54.2557 -2.53478 3.09175 0
M  V30 600 H 55.6957 -3.40578 2.52553 0
M  V30 601 C 54.1547 -3.20002 1.05359 0
M  V30 602 O 54.6847 -4.00538 0.305261 0
M  V30 603 N 52.8907 -2.78126 0.842292 0
M  V30 604 H 52.4377 -2.12742 1.45253 0
M  V30 605 H 52.3957 -3.14354 0.053652 0
M  V30 606 N 56.1678 -1.49265 -0.50573 0
M  V30 607 C 57.4078 -1.60128 -1.27038 0
M  V30 608 C 57.7718 -0.279557 -1.89954 0
M  V30 609 O 58.9728 -0.263329 -2.67507 0
M  V30 610 C 57.2438 -2.72507 -2.31246 0
M  V30 611 S 58.8028 -3.0329 -3.17113 0
M  V30 612 H 55.6208 -0.564863 -0.4318 0
M  V30 613 H 58.2228 -1.86902 -0.573397 0
M  V30 614 H 56.9268 -3.67068 -1.83546 0
M  V30 615 H 56.4578 -2.4771 -3.05619 0
M  V30 616 H 58.4728 -2.44448 -4.31809 0
M  V30 617 N 57.6459 0.756429 -1.3826 0
M  V30 618 C 58.5959 1.86069 -1.31766 0
M  V30 619 C 59.5799 1.59621 -0.202483 0
M  V30 620 O 60.7719 1.7149 -0.438211 0
M  V30 621 C 57.9009 3.23742 -1.1422 0
M  V30 622 C 56.9869 3.56091 -2.30348 0
M  V30 623 N 57.3779 3.59517 -3.55783 0
M  V30 624 C 55.6759 3.86341 -2.22838 0
M  V30 625 C 56.3769 3.89052 -4.32451 0
M  V30 626 N 55.3529 4.05736 -3.61772 0
M  V30 627 H 59.1549 1.86992 -2.26741 0
M  V30 628 H 56.6689 0.953643 -1.31451 0
M  V30 629 H 58.6659 4.02761 -1.07652 0
M  V30 630 H 57.3259 3.24073 -0.201763 0
M  V30 631 H 58.3369 3.41347 -3.89491 0
M  V30 632 H 55.0139 3.94404 -1.36937 0
M  V30 633 H 56.4039 3.98349 -5.4108 0
M  V30 634 N 59.124 1.23083 0.984299 0
M  V30 635 C 60.054 1.03292 2.09411 0
M  V30 636 C 61.035 -0.048923 1.7003 0
M  V30 637 O 62.22 0.114967 1.93859 0
M  V30 638 C 59.35 0.619155 3.41736 0
M  V30 639 C 58.304 1.64791 3.95004 0
M  V30 640 C 57.63 1.0897 5.23478 0
M  V30 641 C 58.93 3.03999 4.24714 0
M  V30 642 H 60.624 1.96119 2.26225 0
M  V30 643 H 58.17 0.944344 1.08711 0
M  V30 644 H 60.123 0.467777 4.18796 0
M  V30 645 H 58.847 -0.344786 3.24775 0
M  V30 646 H 57.506 1.78721 3.20085 0
M  V30 647 H 57.154 0.11686 5.02864 0
M  V30 648 H 56.854 1.77704 5.60085 0
M  V30 649 H 58.378 0.950093 6.03163 0
M  V30 650 H 59.792 2.93393 4.92538 0
M  V30 651 H 58.189 3.69936 4.72512 0
M  V30 652 H 59.259 3.53285 3.32142 0
M  V30 653 N 60.6021 -1.18246 1.0419 0
M  V30 654 C 61.5501 -2.23968 0.627792 0
M  V30 655 C 62.5441 -1.65828 -0.346019 0
M  V30 656 O 63.7501 -1.78733 -0.213175 0
M  V30 657 H 60.1251 -0.728939 0.184802 0
M  V30 658 H 62.0961 -2.56202 1.52981 0
M  V30 659 C 60.8451 -3.47699 0.00796591 0
M  V30 660 H 60.1681 -3.92734 0.748347 0
M  V30 661 H 61.6081 -4.23294 -0.24455 0
M  V30 662 C 60.0671 -3.13153 -1.24246 0
M  V30 663 O 60.5971 -3.27003 -2.33307 0
M  V30 664 N 58.8031 -2.67467 -1.13622 0
M  V30 665 H 58.3501 -2.56396 -0.248734 0
M  V30 666 H 58.3081 -2.44724 -1.97377 0
M  V30 667 N 62.0802 -0.821533 -1.34494 0
M  V30 668 C 62.9902 -0.244355 -2.33324 0
M  V30 669 C 64.0062 0.620527 -1.62559 0
M  V30 670 O 65.1822 0.528754 -1.94335 0
M  V30 671 C 62.2472 0.585368 -3.41723 0
M  V30 672 C 61.3082 -0.301752 -4.28238 0
M  V30 673 C 60.5412 0.488466 -5.3146 0
M  V30 674 O 60.7642 1.72186 -5.4379 0
M  V30 675 O 59.6982 -0.12848 -6.01763 0
M  V30 676 H 63.5242 -1.06231 -2.84515 0
M  V30 677 H 61.1092 -0.583645 -1.37528 0
M  V30 678 H 62.9912 1.05747 -4.07916 0
M  V30 679 H 61.6662 1.38068 -2.92778 0
M  V30 680 H 60.5732 -0.821315 -3.64973 0
M  V30 681 H 61.9062 -1.06138 -4.8062 0
M  V30 682 N 63.5583 1.46682 -0.576371 0
M  V30 683 C 64.5063 2.31953 0.17335 0
M  V30 684 C 65.5003 1.44098 0.89062 0
M  V30 685 O 66.7063 1.60759 0.809728 0
M  V30 686 H 63.0813 0.748273 0.0747727 0
M  V30 687 H 65.0523 2.93007 -0.564738 0
M  V30 688 C 63.8013 3.27142 1.17786 0
M  V30 689 H 63.1243 3.94719 0.635361 0
M  V30 690 H 64.5643 3.896 1.67296 0
M  V30 691 C 63.0233 2.52036 2.23561 0
M  V30 692 O 63.5533 2.27877 3.3081 0
M  V30 693 N 61.7593 2.12709 1.97998 0
M  V30 694 H 61.3063 2.32557 1.10792 0
M  V30 695 H 61.2643 1.62776 2.68982 0
M  V30 696 N 65.0364 0.313813 1.54444 0
M  V30 697 C 66.2854 -0.292519 1.99568 0
M  V30 698 C 66.5984 -1.54011 1.20582 0
M  V30 699 O 67.8044 -2.22183 1.56035 0
M  V30 700 C 66.2604 -0.571752 3.55329 0
M  V30 701 C 65.8684 0.658229 4.43138 0
M  V30 702 C 67.6124 -1.13857 4.08946 0
M  V30 703 C 65.5194 0.351439 5.90355 0
M  V30 704 H 64.4494 -0.113079 0.745472 0
M  V30 705 H 67.1004 0.424518 1.78522 0
M  V30 706 H 65.4824 -1.34872 3.72325 0
M  V30 707 H 66.6564 1.43403 4.37918 0
M  V30 708 H 64.9714 1.14458 4.0036 0
M  V30 709 H 67.5684 -1.38257 5.16516 0
M  V30 710 H 67.9114 -2.08489 3.6033 0
M  V30 711 H 68.4444 -0.423015 3.95544 0
M  V30 712 H 65.1834 1.26667 6.43145 0
M  V30 713 H 64.7034 -0.386842 5.98551 0
M  V30 714 H 66.3824 -0.0423134 6.46986 0
M  V30 715 N 66.5145 -1.57545 0.0417849 0
M  V30 716 C 67.4245 -2.14451 -0.951213 0
M  V30 717 C 68.4405 -1.09992 -1.34825 0
M  V30 718 O 69.6165 -1.42114 -1.42708 0
M  V30 719 C 66.6815 -2.67063 -2.21084 0
M  V30 720 C 65.7425 -3.86284 -1.87304 0
M  V30 721 C 64.9755 -4.36378 -3.07261 0
M  V30 722 O 65.1985 -3.85587 -4.20332 0
M  V30 723 O 64.1325 -5.28077 -2.88822 0
M  V30 724 H 67.9585 -2.99601 -0.497287 0
M  V30 725 H 65.5435 -1.48317 -0.179567 0
M  V30 726 H 67.4255 -3.00914 -2.95006 0
M  V30 727 H 66.1005 -1.84989 -2.65633 0
M  V30 728 H 65.0075 -3.57338 -1.10727 0
M  V30 729 H 66.3405 -4.6956 -1.47562 0
M  V30 730 N 67.9926 0.231505 -1.5589 0
M  V30 731 C 68.9396 1.28682 -1.91598 0
M  V30 732 C 69.9096 1.47071 -0.771974 0
M  V30 733 O 71.0946 1.60802 -1.027 0
M  V30 734 C 68.2346 2.6342 -2.22944 0
M  V30 735 C 67.3476 2.52912 -3.50228 0
M  V30 736 C 66.4826 3.80106 -3.7107 0
M  V30 737 C 65.5216 3.64279 -4.91902 0
M  V30 738 N 64.6586 4.834 -5.09184 0
M  V30 739 H 69.4986 0.975305 -2.81588 0
M  V30 740 H 67.0356 0.470299 -1.39379 0
M  V30 741 H 68.9936 3.41869 -2.39126 0
M  V30 742 H 67.6236 2.92687 -1.36139 0
M  V30 743 H 66.6756 1.6595 -3.42294 0
M  V30 744 H 67.9876 2.37133 -4.38827 0
M  V30 745 H 67.1416 4.66999 -3.87295 0
M  V30 746 H 65.8806 3.98799 -2.80733 0
M  V30 747 H 64.8856 2.7577 -4.75637 0
M  V30 748 H 66.1106 3.47067 -5.83714 0
M  V30 749 H 64.0566 5.02425 -4.21788 0
M  V30 750 H 63.9736 4.70311 -5.91898 0
M  V30 751 H 65.2416 5.71747 -5.29835 0
M  V30 752 N 69.4707 1.49531 0.497807 0
M  V30 753 C 70.7187 1.58865 1.24926 0
M  V30 754 C 71.0397 0.278721 1.92998 0
M  V30 755 O 70.3097 -0.702144 1.82885 0
M  V30 756 H 68.8897 0.585343 0.464094 0
M  V30 757 H 71.5517 1.86174 0.57666 0
M  V30 758 H 70.6477 2.38633 2.01149 0
M  V30 759 N 70.9488 -0.749086 1.3866 0
M  V30 760 C 71.8788 -1.8764 1.38973 0
M  V30 761 C 72.8598 -1.68178 0.255004 0
M  V30 762 O 74.0448 -1.88704 0.458754 0
M  V30 763 C 71.1748 -3.25222 1.21851 0
M  V30 764 C 70.1288 -3.59295 2.32575 0
M  V30 765 C 69.4548 -4.95663 2.00555 0
M  V30 766 C 70.7548 -3.63709 3.7485 0
M  V30 767 H 72.4488 -1.87635 2.3331 0
M  V30 768 H 69.9948 -0.901329 1.12303 0
M  V30 769 H 71.9478 -4.03746 1.20695 0
M  V30 770 H 70.6718 -3.25719 0.239775 0
M  V30 771 H 69.3308 -2.83093 2.32925 0
M  V30 772 H 68.9788 -4.92724 1.01154 0
M  V30 773 H 68.6788 -5.19429 2.74714 0
M  V30 774 H 70.2028 -5.7656 2.01024 0
M  V30 775 H 71.6168 -4.32338 3.76506 0
M  V30 776 H 70.0138 -3.98986 4.48252 0
M  V30 777 H 71.0838 -2.63834 4.06841 0
M  V30 778 N 72.4269 -1.23603 -0.977757 0
M  V30 779 C 73.3569 -1.04401 -2.0886 0
M  V30 780 C 74.3379 0.0399052 -1.70053 0
M  V30 781 O 75.5229 -0.125246 -1.93796 0
M  V30 782 C 72.6529 -0.637269 -3.41403 0
M  V30 783 C 71.6069 -1.66883 -3.94124 0
M  V30 784 C 70.9329 -1.11745 -5.22893 0
M  V30 785 C 72.2329 -3.06247 -4.23096 0
M  V30 786 H 73.9269 -1.97316 -2.25182 0
M  V30 787 H 71.4729 -0.950096 -1.08209 0
M  V30 788 H 73.4259 -0.48998 -4.18542 0
M  V30 789 H 72.1499 0.327557 -3.24953 0
M  V30 790 H 70.8089 -1.80416 -3.19133 0
M  V30 791 H 70.4569 -0.143527 -5.02795 0
M  V30 792 H 70.1569 -1.80672 -5.59134 0
M  V30 793 H 71.6809 -0.982067 -6.02651 0
M  V30 794 H 73.0949 -2.96001 -4.90975 0
M  V30 795 H 71.4919 -3.72436 -4.70544 0
M  V30 796 H 72.5619 -3.55041 -3.30263 0
M  V30 797 N 73.905 1.17692 -1.04816 0
M  V30 798 C 74.855 2.1952 -0.616042 0
M  V30 799 C 75.839 1.57147 0.345485 0
M  V30 800 O 77.031 1.76245 0.163325 0
M  V30 801 C 74.16 3.43298 0.0116917 0
M  V30 802 C 73.246 4.12777 -0.973435 0
M  V30 803 N 73.637 4.5814 -2.14339 0
M  V30 804 C 71.935 4.38747 -0.80108 0
M  V30 805 C 72.636 5.11713 -2.7663 0
M  V30 806 N 71.612 5.03686 -2.04453 0
M  V30 807 H 75.414 2.52293 -1.5075 0
M  V30 808 H 72.928 1.3398 -0.917776 0
M  V30 809 H 74.925 4.15519 0.339006 0
M  V30 810 H 73.585 3.12018 0.898593 0
M  V30 811 H 74.596 4.52349 -2.52191 0
M  V30 812 H 71.273 4.17485 0.0350934 0
M  V30 813 H 72.663 5.56962 -3.75823 0
M  V30 814 N 75.3831 0.828654 1.34056 0
M  V30 815 C 76.7991 0.515135 1.51058 0
M  V30 816 C 76.9991 -0.959581 1.77184 0
M  V30 817 O 76.0551 -1.74382 1.82612 0
M  V30 818 C 77.3681 1.37963 2.67183 0
M  V30 819 C 78.9161 1.37735 2.81066 0
M  V30 820 C 79.3911 2.22645 4.00241 0
M  V30 821 N 80.8821 2.203 4.07458 0
M  V30 822 C 81.6171 2.82744 4.98842 0
M  V30 823 N 81.1131 3.54201 5.9541 0
M  V30 824 N 82.9061 2.72268 4.91759 0
M  V30 825 H 75.0571 1.78343 1.15358 0
M  V30 826 H 77.3201 0.760304 0.566252 0
M  V30 827 H 77.0261 2.42714 2.54525 0
M  V30 828 H 76.9001 1.0484 3.62338 0
M  V30 829 H 79.2871 0.337593 2.93163 0
M  V30 830 H 79.3681 1.74859 1.86703 0
M  V30 831 H 79.0121 3.26674 3.88905 0
M  V30 832 H 78.9421 1.82869 4.93829 0
M  V30 833 H 81.4331 1.68327 3.38341 0
M  V30 834 H 81.7461 3.9908 6.61782 0
M  V30 835 H 80.0911 3.58308 5.95517 0
M  V30 836 H 83.2821 2.16014 4.15278 0
M  V30 837 H 83.4551 3.21219 5.62781 0
M  V30 838 N 76.8612 -1.46375 0.584142 0
M  V30 839 C 77.8242 -2.28784 -0.138108 0
M  V30 840 C 78.8242 -1.38471 -0.817462 0
M  V30 841 O 80.0142 -1.60833 -0.669199 0
M  V30 842 C 77.1462 -3.18892 -1.20503 0
M  V30 843 H 78.3392 -2.94117 0.586127 0
M  V30 844 H 75.8922 -1.52509 0.342171 0
M  V30 845 H 76.6272 -2.58309 -1.96079 0
M  V30 846 H 76.4122 -3.85388 -0.722384 0
M  V30 847 H 77.9022 -3.80914 -1.71155 0
M  V30 848 N 78.3393 -0.321999 -1.54275 0
M  V30 849 C 79.5863 0.281044 -2.0054 0
M  V30 850 C 79.9143 1.52265 -1.21019 0
M  V30 851 O 79.1693 1.93687 -0.279982 0
M  V30 852 C 79.4683 0.661769 -3.5122 0
M  V30 853 C 79.1343 -0.480482 -4.48333 0
M  V30 854 C 77.7963 -0.794005 -4.74604 0
M  V30 855 C 80.1483 -1.24783 -5.06042 0
M  V30 856 C 77.4763 -1.87763 -5.55844 0
M  V30 857 C 79.8283 -2.32153 -5.88462 0
M  V30 858 C 78.4923 -2.64089 -6.13036 0
M  V30 859 H 77.7623 0.102841 -0.733829 0
M  V30 860 H 80.4093 -0.445453 -1.86247 0
M  V30 861 H 78.7143 1.46867 -3.63232 0
M  V30 862 H 80.4113 1.13989 -3.84457 0
M  V30 863 H 77.0013 -0.226039 -4.28004 0
M  V30 864 H 81.1853 -1.01887 -4.85729 0
M  V30 865 H 76.4413 -2.12954 -5.73115 0
M  V30 866 H 80.6153 -2.92057 -6.32199 0
M  V30 867 H 78.2423 -3.48185 -6.75775 0
M  V30 868 N 79.8174 1.5752 -0.0501392 0
M  V30 869 C 81.0424 1.97376 0.636997 0
M  V30 870 C 81.4674 0.927466 1.63645 0
M  V30 871 O 80.8254 -0.10941 1.8097 0
M  V30 872 C 80.8734 3.36304 1.30123 0
M  V30 873 O 79.9774 3.34156 2.41689 0
M  V30 874 H 79.3184 0.642998 0.165679 0
M  V30 875 H 81.8484 2.04258 -0.118233 0
M  V30 876 H 81.8584 3.73008 1.65315 0
M  V30 877 H 80.5334 4.11993 0.568746 0
M  V30 878 H 79.1104 3.09196 2.08451 0
M  V30 879 N 81.2955 -0.223234 1.56011 0
M  V30 880 C 82.5415 -0.949279 1.79211 0
M  V30 881 C 82.8745 -1.84054 0.619494 0
M  V30 882 O 82.1495 -1.90726 -0.381317 0
M  V30 883 C 82.4325 -1.78965 3.12479 0
M  V30 884 C 82.2855 -0.924997 4.40186 0
M  V30 885 C 83.6045 -2.76774 3.42175 0
M  V30 886 H 80.7235 -0.343676 0.651963 0
M  V30 887 H 83.3655 -0.218253 1.88742 0
M  V30 888 H 81.5155 -2.41291 3.04485 0
M  V30 889 H 83.1875 -0.318615 4.60198 0
M  V30 890 H 81.4305 -0.230344 4.33188 0
M  V30 891 H 82.1015 -1.54735 5.29869 0
M  V30 892 H 84.5775 -2.24584 3.50287 0
M  V30 893 H 83.4535 -3.32678 4.36597 0
M  V30 894 H 83.7145 -3.54429 2.64258 0
M  V30 895 N 82.7736 -1.49793 -0.48987 0
M  V30 896 C 84.0206 -1.59841 -1.24327 0
M  V30 897 C 84.3486 -0.290135 -1.92324 0
M  V30 898 O 83.6036 0.722749 -1.81865 0
M  V30 899 C 83.9026 -2.71488 -2.32441 0
M  V30 900 C 83.5686 -4.12614 -1.81826 0
M  V30 901 C 82.2306 -4.51017 -1.67742 0
M  V30 902 C 84.5826 -5.00892 -1.4407 0
M  V30 903 C 81.9106 -5.75459 -1.14297 0
M  V30 904 C 84.2626 -6.25863 -0.920742 0
M  V30 905 C 82.9266 -6.63086 -0.766383 0
M  V30 906 H 82.1966 -0.584899 -0.454944 0
M  V30 907 H 84.8436 -1.83663 -0.542215 0
M  V30 908 H 83.1486 -2.4168 -3.0838 0
M  V30 909 H 84.8456 -2.76469 -2.90458 0
M  V30 910 H 81.4356 -3.82307 -1.93751 0
M  V30 911 H 85.6196 -4.7187 -1.53794 0
M  V30 912 H 80.8756 -6.02989 -1.01068 0
M  V30 913 H 85.0496 -6.9364 -0.619448 0
M  V30 914 H 82.6766 -7.59393 -0.350083 0
M  V30 915 N 84.2517 0.741722 -1.39055 0
M  V30 916 C 85.1817 1.869 -1.39966 0
M  V30 917 C 86.1627 1.6804 -0.26392 0
M  V30 918 O 87.3477 1.88458 -0.468755 0
M  V30 919 C 84.4777 3.24572 -1.23574 0
M  V30 920 C 83.4317 3.58056 -2.34477 0
M  V30 921 C 82.7577 4.94593 -2.0318 0
M  V30 922 C 84.0577 3.61716 -3.76774 0
M  V30 923 H 85.7517 1.86395 -2.34302 0
M  V30 924 H 83.2977 0.895361 -1.1278 0
M  V30 925 H 85.2507 4.031 -1.22834 0
M  V30 926 H 83.9747 3.25587 -0.257045 0
M  V30 927 H 82.6337 2.81854 -2.34423 0
M  V30 928 H 82.2817 4.92181 -1.03765 0
M  V30 929 H 81.9817 5.17964 -2.77465 0
M  V30 930 H 83.5057 5.75486 -2.04079 0
M  V30 931 H 84.9197 4.30335 -3.78794 0
M  V30 932 H 83.3167 3.96603 -4.50362 0
M  V30 933 H 84.3867 2.61672 -4.08235 0
M  V30 934 N 85.7298 1.2412 0.971189 0
M  V30 935 C 86.9768 1.07881 1.71371 0
M  V30 936 C 87.3048 -0.382901 1.90694 0
M  V30 937 O 86.5598 -1.29945 1.46331 0
M  V30 938 C 86.8588 1.75983 3.11071 0
M  V30 939 C 86.5248 3.25909 3.11599 0
M  V30 940 C 85.1868 3.66813 3.11451 0
M  V30 941 C 87.5388 4.21771 3.062 0
M  V30 942 C 84.8668 5.02021 3.03631 0
M  V30 943 C 87.2188 5.56982 2.99923 0
M  V30 944 C 85.8828 5.97237 2.98102 0
M  V30 945 H 85.1528 0.394764 0.62709 0
M  V30 946 H 87.7998 1.54176 1.13587 0
M  V30 947 H 86.1048 1.22072 3.72298 0
M  V30 948 H 87.8018 1.60887 3.6731 0
M  V30 949 H 84.3918 2.93353 3.12477 0
M  V30 950 H 88.5758 3.91172 3.05447 0
M  V30 951 H 83.8318 5.32411 3.0058 0
M  V30 952 H 88.0058 6.30969 2.94704 0
M  V30 953 H 85.6328 7.01967 2.91798 0
M  V30 954 N 87.2079 -1.17134 1.05439 0
M  V30 955 C 88.1559 -2.23289 0.651511 0
M  V30 956 C 89.1499 -1.66186 -0.328411 0
M  V30 957 O 90.3559 -1.78949 -0.194206 0
M  V30 958 H 86.7309 -0.726938 0.192523 0
M  V30 959 H 88.7019 -2.54565 1.55689 0
M  V30 960 C 87.4509 -3.47671 0.0448436 0
M  V30 961 H 86.7739 -3.91918 0.78996 0
M  V30 962 H 88.2139 -4.2353 -0.19964 0
M  V30 963 C 86.6729 -3.14453 -1.20918 0
M  V30 964 O 87.2029 -3.29459 -2.29825 0
M  V30 965 N 85.4089 -2.68657 -1.10779 0
M  V30 966 H 84.9559 -2.56646 -0.221526 0
M  V30 967 H 84.9139 -2.46804 -1.9477 0
M  V30 968 N 88.686 -0.835752 -1.33615 0
M  V30 969 C 89.914 -0.443344 -2.02094 0
M  V30 970 C 90.329 0.954522 -1.62894 0
M  V30 971 O 89.686 1.61982 -0.840723 0
M  V30 972 C 89.737 -0.550775 -3.5728 0
M  V30 973 O 89.458 -1.89356 -3.95065 0
M  V30 974 C 90.959 -0.154919 -4.43029 0
M  V30 975 H 88.179 -0.176359 -0.647409 0
M  V30 976 H 90.723 -1.12746 -1.70612 0
M  V30 977 H 88.878 0.0853997 -3.87306 0
M  V30 978 H 89.292 -1.87687 -4.89769 0
M  V30 979 H 90.766 -0.281144 -5.51284 0
M  V30 980 H 91.243 0.902863 -4.2982 0
M  V30 981 H 91.849 -0.765404 -4.18356 0
M  V30 982 N 90.1641 1.46063 -0.591896 0
M  V30 983 C 91.0741 2.34192 0.13831 0
M  V30 984 C 92.0901 1.50305 0.876608 0
M  V30 985 O 93.2661 1.8315 0.837728 0
M  V30 986 C 90.3311 3.27656 1.13326 0
M  V30 987 C 89.3921 4.27445 0.39863 0
M  V30 988 C 88.6251 5.16443 1.34618 0
M  V30 989 O 88.8481 5.08553 2.58321 0
M  V30 990 O 87.7821 5.95843 0.851768 0
M  V30 991 H 91.6081 2.98002 -0.58552 0
M  V30 992 H 89.1931 1.45188 -0.352239 0
M  V30 993 H 91.0751 3.85291 1.70671 0
M  V30 994 H 89.7501 2.6643 1.83839 0
M  V30 995 H 88.6571 3.73471 -0.216895 0
M  V30 996 H 89.9901 4.91482 -0.265709 0
M  V30 997 N 91.6422 0.330177 1.54103 0
M  V30 998 C 92.5902 -0.548226 2.26047 0
M  V30 999 C 93.5842 -1.11309 1.27698 0
M  V30 1000 O 94.7902 -1.06036 1.45452 0
M  V30 1001 H 91.1652 -0.195456 0.726155 0
M  V30 1002 H 93.1362 0.0807567 2.98291 0
M  V30 1003 C 91.8852 -1.69415 3.03634 0
M  V30 1004 H 91.2082 -1.26876 3.79134 0
M  V30 1005 H 92.6482 -2.28423 3.5721 0
M  V30 1006 C 91.1072 -2.61569 2.12328 0
M  V30 1007 O 91.6372 -3.63462 1.7105 0
M  V30 1008 N 89.8432 -2.29952 1.77681 0
M  V30 1009 H 89.3902 -1.47134 2.11446 0
M  V30 1010 H 89.3482 -2.91871 1.16869 0
M  V30 1011 N 93.1203 -1.57491 0.0584922 0
M  V30 1012 C 94.0673 -2.11958 -0.913376 0
M  V30 1013 C 95.0373 -1.02875 -1.30407 0
M  V30 1014 O 96.2223 -1.30464 -1.39226 0
M  V30 1015 C 93.3623 -2.67497 -2.18035 0
M  V30 1016 C 92.4753 -3.90691 -1.84349 0
M  V30 1017 C 91.6103 -4.3452 -3.05559 0
M  V30 1018 C 90.6493 -5.50395 -2.67827 0
M  V30 1019 N 89.7863 -5.89244 -3.81754 0
M  V30 1020 H 94.6263 -2.94704 -0.442017 0
M  V30 1021 H 92.1633 -1.45643 -0.206545 0
M  V30 1022 H 94.1213 -2.978 -2.92183 0
M  V30 1023 H 92.7513 -1.87537 -2.62735 0
M  V30 1024 H 91.8033 -3.66934 -1.00319 0
M  V30 1025 H 93.1153 -4.7489 -1.5258 0
M  V30 1026 H 92.2693 -4.66414 -3.87998 0
M  V30 1027 H 91.0083 -3.49147 -3.40511 0
M  V30 1028 H 90.0133 -5.18165 -1.83806 0
M  V30 1029 H 91.2383 -6.3749 -2.34059 0
M  V30 1030 H 89.1843 -5.06823 -4.16493 0
M  V30 1031 H 89.1013 -6.68151 -3.53708 0
M  V30 1032 H 90.3693 -6.25756 -4.64811 0
M  V30 1033 N 94.5984 0.214957 -1.56127 0
M  V30 1034 C 95.5284 1.2695 -1.95974 0
M  V30 1035 C 96.5094 1.48539 -0.828868 0
M  V30 1036 O 97.6944 1.60611 -1.09168 0
M  V30 1037 C 94.8244 2.61794 -2.28214 0
M  V30 1038 C 93.7784 2.54851 -3.43853 0
M  V30 1039 C 93.1044 3.93785 -3.61715 0
M  V30 1040 C 94.4044 2.09065 -4.78632 0
M  V30 1041 H 96.0984 0.93846 -2.84312 0
M  V30 1042 H 93.6444 0.449996 -1.36788 0
M  V30 1043 H 95.5974 3.35731 -2.54682 0
M  V30 1044 H 94.3214 2.96599 -1.36736 0
M  V30 1045 H 92.9804 1.8337 -3.17444 0
M  V30 1046 H 92.6284 4.25908 -2.67602 0
M  V30 1047 H 92.3284 3.90019 -4.39498 0
M  V30 1048 H 93.8524 4.69374 -3.90539 0
M  V30 1049 H 95.2664 2.7275 -5.04262 0
M  V30 1050 H 93.6634 2.16346 -5.59745 0
M  V30 1051 H 94.7334 1.04315 -4.73547 0
M  V30 1052 N 96.0765 1.50051 0.48192 0
M  V30 1053 C 97.0065 1.71046 1.58951 0
M  V30 1054 C 97.9875 0.559288 1.60642 0
M  V30 1055 O 99.1725 0.797243 1.77081 0
M  V30 1056 C 96.3025 1.79462 2.97339 0
M  V30 1057 C 95.2565 2.94558 3.10515 0
M  V30 1058 C 94.5825 2.88105 4.50444 0
M  V30 1059 C 95.8825 4.35227 2.88747 0
M  V30 1060 H 97.5765 2.6378 1.41635 0
M  V30 1061 H 95.1225 1.26936 0.679942 0
M  V30 1062 H 97.0755 1.92734 3.74742 0
M  V30 1063 H 95.7995 0.833412 3.15788 0
M  V30 1064 H 94.4585 2.80918 2.35543 0
M  V30 1065 H 94.1065 1.89853 4.65795 0
M  V30 1066 H 93.8065 3.65366 4.60197 0
M  V30 1067 H 95.3305 3.03412 5.29881 0
M  V30 1068 H 96.7445 4.49449 3.55905 0
M  V30 1069 H 95.1415 5.13856 3.09955 0
M  V30 1070 H 96.2115 4.48347 1.84696 0
M  V30 1071 N 97.5546 -0.734337 1.39446 0
M  V30 1072 C 98.4846 -1.86155 1.40955 0
M  V30 1073 C 99.4656 -1.67898 0.272827 0
M  V30 1074 O 100.651 -1.88207 0.478743 0
M  V30 1075 C 97.7806 -3.23912 1.25294 0
M  V30 1076 C 96.7346 -3.56808 2.36373 0
M  V30 1077 C 96.0606 -4.93508 2.058 0
M  V30 1078 C 97.3606 -3.59713 3.78687 0
M  V30 1079 H 99.0546 -1.8515 2.35287 0
M  V30 1080 H 96.6006 -0.889367 1.13253 0
M  V30 1081 H 98.5536 -4.02443 1.2497 0
M  V30 1082 H 97.2776 -3.25446 0.274308 0
M  V30 1083 H 95.9366 -2.80606 2.35914 0
M  V30 1084 H 95.5846 -4.91623 1.06374 0
M  V30 1085 H 95.2846 -5.16486 2.80208 0
M  V30 1086 H 96.8086 -5.74396 2.07128 0
M  V30 1087 H 98.2226 -4.2832 3.81071 0
M  V30 1088 H 96.6196 -3.94209 4.52459 0
M  V30 1089 H 97.6896 -2.59504 4.09617 0
M  V30 1090 N 99.0327 -1.24633 -0.964593 0
M  V30 1091 C 99.9647 -0.999302 -2.06268 0
M  V30 1092 C 100.978 0.0323226 -1.62768 0
M  V30 1093 O 102.167 -0.205079 -1.77318 0
M  V30 1094 C 99.2667 -0.486816 -3.35385 0
M  V30 1095 C 98.4397 -1.5823 -4.07777 0
M  V30 1096 C 97.4987 -1.07191 -5.15166 0
M  V30 1097 O 96.5247 -1.76426 -5.41168 0
M  V30 1098 N 97.7267 0.0920373 -5.80427 0
M  V30 1099 H 100.492 -1.94477 -2.28033 0
M  V30 1100 H 98.0527 -1.15704 -1.13244 0
M  V30 1101 H 100.045 -0.130066 -4.04491 0
M  V30 1102 H 98.6147 0.364459 -3.10468 0
M  V30 1103 H 97.8347 -2.11109 -3.32906 0
M  V30 1104 H 99.1227 -2.31854 -4.52903 0
M  V30 1105 H 98.5207 0.670784 -5.61709 0
M  V30 1106 H 97.0777 0.389905 -6.50633 0
M  V30 1107 N 100.511 1.16574 -1.06058 0
M  V30 1108 C 101.443 2.2045 -0.627239 0
M  V30 1109 C 102.456 1.59752 0.313534 0
M  V30 1110 O 103.645 1.78192 0.104896 0
M  V30 1111 C 100.745 3.3875 0.100974 0
M  V30 1112 C 99.9178 4.29008 -0.852687 0
M  V30 1113 C 98.9768 5.25944 -0.164152 0
M  V30 1114 O 98.0028 5.63535 -0.801047 0
M  V30 1115 N 99.2048 5.70075 1.09518 0
M  V30 1116 H 101.97 2.58249 -1.52077 0
M  V30 1117 H 99.5308 1.3156 -0.943594 0
M  V30 1118 H 101.523 4.00638 0.57194 0
M  V30 1119 H 100.093 2.99476 0.89628 0
M  V30 1120 H 99.3128 3.64419 -1.50308 0
M  V30 1121 H 100.601 4.86195 -1.49972 0
M  V30 1122 H 99.9988 5.41624 1.6328 0
M  V30 1123 H 98.5558 6.34067 1.51006 0
M  V30 1124 N 101.989 0.842826 1.3317 0
M  V30 1125 C 103.405 0.531128 1.50503 0
M  V30 1126 C 103.605 -0.940734 1.78192 0
M  V30 1127 O 102.661 -1.72436 1.84451 0
M  V30 1128 C 103.974 1.40789 2.65705 0
M  V30 1129 C 105.522 1.40708 2.79589 0
M  V30 1130 C 105.997 2.26878 3.97857 0
M  V30 1131 N 107.488 2.24609 4.05099 0
M  V30 1132 C 108.223 2.88019 4.95815 0
M  V30 1133 N 107.719 3.60496 5.9162 0
M  V30 1134 N 109.512 2.77469 4.88843 0
M  V30 1135 H 101.663 1.79557 1.1346 0
M  V30 1136 H 103.926 0.766267 0.558156 0
M  V30 1137 H 103.632 2.454 2.51936 0
M  V30 1138 H 103.506 1.08677 3.61205 0
M  V30 1139 H 105.893 0.368668 2.92788 0
M  V30 1140 H 105.974 1.76829 1.84838 0
M  V30 1141 H 105.618 3.3078 3.85418 0
M  V30 1142 H 105.548 1.88096 4.91861 0
M  V30 1143 H 108.039 1.71906 3.36536 0
M  V30 1144 H 108.352 4.06076 6.57512 0
M  V30 1145 H 106.697 3.64604 5.91683 0
M  V30 1146 H 109.888 2.20406 4.12963 0
M  V30 1147 H 110.061 3.2717 5.59342 0
M  V30 1148 N 103.467 -1.45747 0.599634 0
M  V30 1149 C 104.692 -2.07178 0.0960198 0
M  V30 1150 C 105.117 -1.44268 -1.207 0
M  V30 1151 O 104.475 -0.532503 -1.73303 0
M  V30 1152 C 104.523 -3.60579 -0.0385348 0
M  V30 1153 O 103.627 -3.97713 -1.0908 0
M  V30 1154 H 102.968 -0.660251 0.0704593 0
M  V30 1155 H 105.498 -1.87124 0.827385 0
M  V30 1156 H 105.508 -4.07298 -0.239304 0
M  V30 1157 H 104.183 -4.05756 0.912947 0
M  V30 1158 H 102.76 -3.62678 -0.867135 0
M  V30 1159 N 104.945 -0.338344 -1.53925 0
M  V30 1160 C 106.222 0.314774 -1.93051 0
M  V30 1161 C 106.602 1.68669 -1.26941 0
M  V30 1162 O 105.95 2.24636 -0.418445 0
M  V30 1163 C 106.16 0.392249 -3.46789 0
M  V30 1164 C 107.508 0.645554 -4.19664 0
M  V30 1165 O 108.532 0.474575 -3.53024 0
M  V30 1166 O 107.391 0.976408 -5.37707 0
M  V30 1167 H 104.485 0.182598 -0.80659 0
M  V30 1168 H 107.031 -0.389141 -1.65178 0
M  V30 1169 H 105.803 -0.570702 -3.87116 0
M  V30 1170 H 105.426 1.14316 -3.80812 0
M  V30 1171 N 106.423 1.57458 -0.0668435 0
M  V30 1172 C 107.386 2.11323 0.887422 0
M  V30 1173 C 108.386 1.03618 1.22964 0
M  V30 1174 O 109.576 1.29626 1.16373 0
M  V30 1175 C 106.708 2.61048 2.19242 0
M  V30 1176 H 107.901 2.96942 0.420194 0
M  V30 1177 H 105.454 1.55239 0.181793 0
M  V30 1178 H 106.189 1.78868 2.70512 0
M  V30 1179 H 105.974 3.39769 1.95702 0
M  V30 1180 H 107.464 3.02814 2.87565 0
M  V30 1181 N 107.901 -0.206675 1.56239 0
M  V30 1182 C 108.848 -1.25617 1.93621 0
M  V30 1183 C 109.818 -1.45824 0.795274 0
M  V30 1184 O 111.003 -1.59148 1.05245 0
M  V30 1185 C 108.143 -2.59839 2.27107 0
M  V30 1186 C 107.256 -2.47308 3.54207 0
M  V30 1187 C 106.391 -3.74155 3.7707 0
M  V30 1188 C 105.43 -3.56407 4.97635 0
M  V30 1189 N 104.567 -4.75238 5.1681 0
M  V30 1190 H 109.407 -0.930383 2.83104 0
M  V30 1191 H 106.944 -0.448065 1.4011 0
M  V30 1192 H 108.902 -3.38021 2.44535 0
M  V30 1193 H 107.532 -2.90485 1.40778 0
M  V30 1194 H 106.584 -1.60483 3.4489 0
M  V30 1195 H 107.896 -2.30122 4.42544 0
M  V30 1196 H 107.05 -4.60778 3.94675 0
M  V30 1197 H 105.789 -3.94282 2.87042 0
M  V30 1198 H 104.794 -2.68168 4.79964 0
M  V30 1199 H 106.019 -3.37736 5.89161 0
M  V30 1200 H 103.965 -4.95651 4.29728 0
M  V30 1201 H 103.882 -4.60835 5.99306 0
M  V30 1202 H 105.15 -5.63246 5.38864 0
M  V30 1203 N 109.379 -1.50304 -0.473955 0
M  V30 1204 C 110.628 -1.60392 -1.22301 0
M  V30 1205 C 110.941 -0.308411 -1.93153 0
M  V30 1206 O 112.147 -0.288156 -2.69966 0
M  V30 1207 C 110.603 -2.83109 -2.2221 0
M  V30 1208 C 110.211 -4.19524 -1.57173 0
M  V30 1209 C 111.955 -3.0254 -2.97775 0
M  V30 1210 C 109.862 -5.33431 -2.55353 0
M  V30 1211 H 108.792 -0.597286 -0.460179 0
M  V30 1212 H 111.443 -1.76731 -0.493803 0
M  V30 1213 H 109.825 -2.60322 -2.9841 0
M  V30 1214 H 110.999 -4.52554 -0.867824 0
M  V30 1215 H 109.314 -4.05674 -0.939002 0
M  V30 1216 H 111.911 -3.84811 -3.71248 0
M  V30 1217 H 112.254 -2.14154 -3.56992 0
M  V30 1218 H 112.787 -3.25494 -2.28688 0
M  V30 1219 H 109.526 -6.23962 -2.00878 0
M  V30 1220 H 109.046 -5.04823 -3.23904 0
M  V30 1221 H 110.725 -5.63887 -3.17239 0
M  V30 1222 N 110.857 0.726932 -1.39834 0
M  V30 1223 C 112.085 1.51613 -1.40787 0
M  V30 1224 C 112.5 1.88799 -0.00451505 0
M  V30 1225 O 111.857 1.54662 0.968809 0
M  V30 1226 C 111.908 2.79863 -2.28821 0
M  V30 1227 O 111.629 2.44253 -3.63692 0
M  V30 1228 C 113.13 3.73837 -2.38245 0
M  V30 1229 H 110.35 0.468264 -0.480593 0
M  V30 1230 H 112.894 0.897607 -1.83748 0
M  V30 1231 H 111.049 3.38027 -1.89252 0
M  V30 1232 H 111.463 3.26695 -4.1033 0
M  V30 1233 H 112.937 4.60699 -3.04073 0
M  V30 1234 H 113.414 4.16153 -1.40403 0
M  V30 1235 H 114.02 3.21589 -2.78317 0
M  V30 1236 N 112.336 1.25143 0.95797 0
M  V30 1237 C 113.583 1.09692 1.70217 0
M  V30 1238 C 113.911 -0.362654 1.91089 0
M  V30 1239 O 113.166 -1.28386 1.47701 0
M  V30 1240 C 113.465 1.79272 3.09187 0
M  V30 1241 C 113.131 3.29196 3.08125 0
M  V30 1242 C 111.793 3.70096 3.07543 0
M  V30 1243 C 114.145 4.24995 3.0171 0
M  V30 1244 C 111.473 5.05213 2.9829 0
M  V30 1245 C 113.825 5.60132 2.93999 0
M  V30 1246 C 112.489 6.00365 2.9175 0
M  V30 1247 H 111.759 0.401393 0.622868 0
M  V30 1248 H 114.406 1.55372 1.11945 0
M  V30 1249 H 112.711 1.26014 3.70982 0
M  V30 1250 H 114.408 1.64773 3.65583 0
M  V30 1251 H 110.998 2.96651 3.09348 0
M  V30 1252 H 115.182 3.9439 3.01281 0
M  V30 1253 H 110.438 5.35569 2.94916 0
M  V30 1254 H 114.612 6.3406 2.87996 0
M  V30 1255 H 112.239 7.05023 2.84336 0
M  V30 1256 N 113.814 -1.1601 1.06675 0
M  V30 1257 C 115.225 -1.68235 0.809565 0
M  V30 1258 C 115.576 -1.8454 -0.666303 0
M  V30 1259 O 114.701 -1.54374 -1.5165 0
M  V30 1260 C 115.296 -3.05585 1.46299 0
M  V30 1261 C 113.855 -3.54915 1.25349 0
M  V30 1262 C 113.002 -2.30804 1.53703 0
M  V30 1263 H 115.953 -1.00318 1.22971 0
M  V30 1264 H 115.974 -3.70174 0.880431 0
M  V30 1265 H 115.486 -2.93686 2.53713 0
M  V30 1266 H 113.587 -3.72067 0.199261 0
M  V30 1267 H 113.7 -4.36774 1.9689 0
M  V30 1268 H 112.064 -2.36007 0.957739 0
M  V30 1269 H 112.847 -2.21499 2.62284 0
M  V30 1270 N 115.292 -0.849877 -1.32721 0
M  V30 1271 C 116.54 -0.450032 -1.97026 0
M  V30 1272 C 116.861 0.996604 -1.67609 0
M  V30 1273 O 116.131 1.6958 -0.980786 0
M  V30 1274 H 114.711 -0.163426 -0.728904 0
M  V30 1275 H 117.373 -1.08526 -1.6189 0
M  V30 1276 H 116.469 -0.591146 -3.0645 0
M  V30 1277 N 116.77 1.45427 -0.607355 0
M  V30 1278 C 118.01 2.04128 -0.105458 0
M  V30 1279 C 118.374 1.46555 1.24039 0
M  V30 1280 O 119.575 1.96608 1.833 0
M  V30 1281 C 117.846 3.57338 -0.0665324 0
M  V30 1282 S 119.405 4.37201 0.374207 0
M  V30 1283 H 116.223 0.709278 -0.0494575 0
M  V30 1284 H 118.825 1.78139 -0.805404 0
M  V30 1285 H 117.529 3.96752 -1.04957 0
M  V30 1286 H 117.06 3.87902 0.655415 0
M  V30 1287 H 119.075 4.6888 1.62377 0
M  V30 1288 N 118.248 0.346503 1.53744 0
M  V30 1289 C 119.495 -0.249104 2.00962 0
M  V30 1290 C 119.823 -1.5032 1.23426 0
M  V30 1291 O 119.078 -1.93217 0.310761 0
M  V30 1292 C 119.377 -0.605809 3.52228 0
M  V30 1293 C 119.043 0.551747 4.47512 0
M  V30 1294 C 117.705 0.86941 4.73281 0
M  V30 1295 C 120.057 1.32818 5.03993 0
M  V30 1296 C 117.385 1.96582 5.52786 0
M  V30 1297 C 119.737 2.41486 5.84694 0
M  V30 1298 C 118.401 2.73808 6.08757 0
M  V30 1299 H 117.671 -0.0911538 0.735372 0
M  V30 1300 H 120.318 0.475027 1.85515 0
M  V30 1301 H 118.623 -1.4107 3.65522 0
M  V30 1302 H 120.32 -1.07858 3.86222 0
M  V30 1303 H 116.91 0.294102 4.2759 0
M  V30 1304 H 121.094 1.09602 4.84047 0
M  V30 1305 H 116.35 2.22045 5.69654 0
M  V30 1306 H 120.524 3.02078 6.27473 0
M  V30 1307 H 118.151 3.58892 6.7015 0
M  V30 1308 N 119.726 -1.57421 0.075193 0
M  V30 1309 C 120.954 -1.97946 -0.602076 0
M  V30 1310 C 121.369 -0.953674 -1.62943 0
M  V30 1311 O 120.726 0.0592551 -1.82404 0
M  V30 1312 C 120.777 -3.38546 -1.26762 0
M  V30 1313 O 120.498 -4.37195 -0.281376 0
M  V30 1314 C 121.999 -3.93966 -2.03239 0
M  V30 1315 H 119.219 -0.650918 -0.162931 0
M  V30 1316 H 121.763 -2.03959 0.148601 0
M  V30 1317 H 119.918 -3.33609 -1.96936 0
M  V30 1318 H 120.332 -5.18975 -0.759267 0
M  V30 1319 H 121.806 -4.94555 -2.45193 0
M  V30 1320 H 122.283 -3.30693 -2.8903 0
M  V30 1321 H 122.889 -4.02315 -1.37924 0
M  V30 1322 N 121.204 0.198386 -1.56346 0
M  V30 1323 C 122.152 1.26538 -1.95169 0
M  V30 1324 C 123.146 1.47295 -0.836685 0
M  V30 1325 O 124.352 1.48195 -1.02167 0
M  V30 1326 H 120.727 0.424744 -0.620561 0
M  V30 1327 H 122.698 0.910904 -2.84157 0
M  V30 1328 C 121.447 2.6035 -2.30463 0
M  V30 1329 H 120.77 2.45192 -3.15786 0
M  V30 1330 H 122.21 3.33762 -2.61494 0
M  V30 1331 C 120.669 3.17096 -1.13806 0
M  V30 1332 O 121.199 3.99588 -0.41135 0
M  V30 1333 N 119.405 2.75795 -0.915736 0
M  V30 1334 H 118.952 2.08816 -1.50843 0
M  V30 1335 H 118.91 3.14101 -0.136979 0
M  V30 1336 N 122.682 1.50554 0.465978 0
M  V30 1337 C 123.91 1.65563 1.24083 0
M  V30 1338 C 124.325 0.341051 1.85694 0
M  V30 1339 O 123.682 -0.677543 1.69457 0
M  V30 1340 C 123.733 2.75051 2.34583 0
M  V30 1341 O 123.454 4.01413 1.75497 0
M  V30 1342 C 124.955 3.01078 3.25372 0
M  V30 1343 H 122.175 0.55638 0.375077 0
M  V30 1344 H 124.719 1.96807 0.555624 0
M  V30 1345 H 122.874 2.46486 2.9887 0
M  V30 1346 H 123.288 4.62002 2.48303 0
M  V30 1347 H 124.762 3.81339 3.99105 0
M  V30 1348 H 125.239 2.12349 3.84453 0
M  V30 1349 H 125.845 3.31194 2.66816 0
M  V30 1350 N 124.16 -0.719506 1.40217 0
M  V30 1351 C 125.4 -1.49181 1.39729 0
M  V30 1352 C 125.764 -1.92 -0.00250614 0
M  V30 1353 O 126.965 -2.68473 -0.132479 0
M  V30 1354 C 125.236 -2.68767 2.35582 0
M  V30 1355 S 126.795 -3.58224 2.53418 0
M  V30 1356 H 123.613 -0.510091 0.495307 0
M  V30 1357 H 126.215 -0.841724 1.76452 0
M  V30 1358 H 124.919 -2.35475 3.36124 0
M  V30 1359 H 124.45 -3.38691 2.0013 0
M  V30 1360 H 126.465 -4.63033 1.78367 0
M  V30 1361 N 125.638 -1.25649 -0.95132 0
M  V30 1362 C 126.878 -1.11802 -1.71113 0
M  V30 1363 C 127.242 0.334758 -1.89059 0
M  V30 1364 O 128.443 0.595121 -2.62129 0
M  V30 1365 C 126.714 -1.85512 -3.05483 0
M  V30 1366 S 128.273 -1.87597 -3.96677 0
M  V30 1367 H 125.091 -0.399552 -0.588115 0
M  V30 1368 H 127.693 -1.59222 -1.1344 0
M  V30 1369 H 126.397 -2.90299 -2.90094 0
M  V30 1370 H 125.928 -1.38493 -3.68216 0
M  V30 1371 H 127.943 -0.955389 -4.86916 0
M  V30 1372 N 127.117 1.15442 -1.07289 0
M  V30 1373 C 128.342 1.90638 -0.816828 0
M  V30 1374 C 128.767 1.77445 0.624083 0
M  V30 1375 O 128.125 1.10671 1.43602 0
M  V30 1376 C 128.173 3.39008 -1.22906 0
M  V30 1377 O 127.277 4.10701 -0.373975 0
M  V30 1378 H 126.618 0.593555 -0.297638 0
M  V30 1379 H 129.148 1.46198 -1.43134 0
M  V30 1380 H 129.158 3.89801 -1.20497 0
M  V30 1381 H 127.833 3.47929 -2.27856 0
M  V30 1382 H 126.41 3.70046 -0.460499 0
M  V30 1383 N 128.595 0.856903 1.32268 0
M  V30 1384 C 129.545 0.274899 2.26337 0
M  V30 1385 C 130.529 -0.580543 1.50062 0
M  V30 1386 O 131.721 -0.429559 1.71708 0
M  V30 1387 C 128.85 -0.533841 3.39124 0
M  V30 1388 C 127.936 0.334114 4.22782 0
M  V30 1389 N 128.327 1.42143 4.85416 0
M  V30 1390 C 126.625 0.124256 4.45827 0
M  V30 1391 C 127.326 1.95559 5.47843 0
M  V30 1392 N 126.302 1.25444 5.28928 0
M  V30 1393 H 130.104 1.10612 2.72291 0
M  V30 1394 H 127.618 0.703258 1.46383 0
M  V30 1395 H 129.615 -0.96722 4.05525 0
M  V30 1396 H 128.275 -1.36283 2.94715 0
M  V30 1397 H 129.286 1.80436 4.85451 0
M  V30 1398 H 125.963 -0.669837 4.12092 0
M  V30 1399 H 127.353 2.86714 6.07655 0
M  V30 1400 N 130.073 -1.45103 0.615059 0
M  V30 1401 C 131.484 -1.85654 0.197383 0
M  V30 1402 C 131.835 -1.51433 -1.24749 0
M  V30 1403 O 130.96 -0.944608 -1.94695 0
M  V30 1404 C 131.555 -3.36972 0.351448 0
M  V30 1405 C 130.114 -3.76398 -0.011593 0
M  V30 1406 C 129.261 -2.69024 0.672394 0
M  V30 1407 H 132.212 -1.35797 0.821263 0
M  V30 1408 H 132.233 -3.78239 -0.414227 0
M  V30 1409 H 131.745 -3.61847 1.40314 0
M  V30 1410 H 129.846 -3.5714 -1.06217 0
M  V30 1411 H 129.959 -4.77532 0.387265 0
M  V30 1412 H 128.323 -2.54465 0.109284 0
M  V30 1413 H 129.106 -2.96735 1.72636 0
M  V30 1414 N 131.551 -0.354651 -1.53558 0
M  V30 1415 C 132.481 0.489091 -2.2832 0
M  V30 1416 C 133.462 1.09324 -1.30316 0
M  V30 1417 O 134.647 1.11255 -1.59173 0
M  V30 1418 C 131.777 1.63456 -3.0643 0
M  V30 1419 C 130.731 1.1582 -4.12031 0
M  V30 1420 C 130.057 2.39305 -4.7816 0
M  V30 1421 C 131.357 0.250731 -5.21698 0
M  V30 1422 H 133.051 -0.134614 -2.99097 0
M  V30 1423 H 130.597 -0.0661826 -1.43848 0
M  V30 1424 H 132.55 2.23136 -3.57475 0
M  V30 1425 H 131.274 2.28533 -2.33325 0
M  V30 1426 H 129.933 0.584146 -3.61916 0
M  V30 1427 H 129.581 3.02814 -4.01637 0
M  V30 1428 H 129.281 2.08109 -5.49513 0
M  V30 1429 H 130.805 2.99691 -5.31994 0
M  V30 1430 H 132.219 0.754695 -5.68311 0
M  V30 1431 H 130.616 0.0301468 -6.00092 0
M  V30 1432 H 131.686 -0.710125 -4.79672 0
M  V30 1433 N 133.029 1.57378 -0.0835403 0
M  V30 1434 C 134.254 1.98682 0.594987 0
M  V30 1435 C 134.679 0.961969 1.61641 0
M  V30 1436 O 134.037 -0.0709989 1.81161 0
M  V30 1437 C 134.085 3.38988 1.2296 0
M  V30 1438 O 133.189 3.39208 2.34546 0
M  V30 1439 H 132.53 0.646368 0.152002 0
M  V30 1440 H 135.06 2.03961 -0.161533 0
M  V30 1441 H 135.07 3.76431 1.57366 0
M  V30 1442 H 133.745 4.13107 0.481228 0
M  V30 1443 H 132.322 3.13548 2.01846 0
M  V30 1444 N 134.507 -0.190092 1.56449 0
M  V30 1445 C 135.455 -1.25501 1.95837 0
M  V30 1446 C 136.449 -1.4685 0.844485 0
M  V30 1447 O 137.655 -1.47651 1.02952 0
M  V30 1448 H 134.03 -0.421447 0.622805 0
M  V30 1449 H 136.001 -0.895821 2.84636 0
M  V30 1450 C 134.75 -2.59124 2.31841 0
M  V30 1451 H 134.073 -2.43514 3.17082 0
M  V30 1452 H 135.513 -3.32371 2.6326 0
M  V30 1453 C 133.972 -3.16488 1.15486 0
M  V30 1454 O 134.502 -3.99365 0.432535 0
M  V30 1455 N 132.708 -2.75305 0.930349 0
M  V30 1456 H 132.255 -2.08013 1.51948 0
M  V30 1457 H 132.213 -3.14024 0.153634 0
M  V30 1458 N 135.985 -1.50799 -0.457987 0
M  V30 1459 C 137.396 -1.55152 -1.0385 0
M  V30 1460 C 137.747 -0.362719 -1.92818 0
M  V30 1461 O 136.872 0.522915 -2.09987 0
M  V30 1462 C 137.467 -2.81173 -1.89017 0
M  V30 1463 C 136.026 -2.88164 -2.42154 0
M  V30 1464 C 135.173 -2.49591 -1.20829 0
M  V30 1465 H 138.124 -1.56874 -0.240068 0
M  V30 1466 H 138.145 -2.63769 -2.74238 0
M  V30 1467 H 137.657 -3.67677 -1.24238 0
M  V30 1468 H 135.758 -2.06042 -3.10447 0
M  V30 1469 H 135.871 -3.91356 -2.76364 0
M  V30 1470 H 134.235 -2.02322 -1.54719 0
M  V30 1471 H 135.018 -3.38418 -0.576927 0
M  V30 1472 N 137.463 0.71206 -1.40597 0
M  V30 1473 C 138.426 1.80785 -1.40888 0
M  V30 1474 C 139.426 1.57937 -0.302103 0
M  V30 1475 O 140.616 1.64913 -0.561182 0
M  V30 1476 C 137.748 3.18927 -1.20409 0
M  V30 1477 H 138.941 1.81924 -2.38419 0
M  V30 1478 H 136.494 0.91805 -1.26497 0
M  V30 1479 H 137.229 3.23436 -0.236522 0
M  V30 1480 H 137.014 3.36911 -2.00582 0
M  V30 1481 H 138.504 3.98949 -1.23408 0
M  V30 1482 N 138.941 1.26152 0.944643 0
M  V30 1483 C 139.851 1.09176 2.07648 0
M  V30 1484 C 140.867 0.0261935 1.7398 0
M  V30 1485 O 142.043 0.229208 2.00091 0
M  V30 1486 C 139.108 0.722915 3.39079 0
M  V30 1487 C 138.169 1.86752 3.86552 0
M  V30 1488 C 137.402 1.51617 5.11711 0
M  V30 1489 O 137.625 0.416331 5.68879 0
M  V30 1490 O 136.559 2.34975 5.54139 0
M  V30 1491 H 140.385 2.0412 2.24875 0
M  V30 1492 H 137.97 1.05182 1.061 0
M  V30 1493 H 139.852 0.529787 4.18056 0
M  V30 1494 H 138.527 -0.197159 3.23099 0
M  V30 1495 H 137.434 2.11558 3.08535 0
M  V30 1496 H 138.767 2.76719 4.07047 0
M  V30 1497 N 140.419 -1.14872 1.07899 0
M  V30 1498 C 141.349 -2.2193 0.725887 0
M  V30 1499 C 142.33 -1.67622 -0.28927 0
M  V30 1500 O 143.515 -1.93533 -0.160787 0
M  V30 1501 C 140.645 -3.47061 0.128856 0
M  V30 1502 C 139.599 -4.14363 1.07178 0
M  V30 1503 C 138.925 -5.33636 0.337229 0
M  V30 1504 C 140.225 -4.63492 2.40775 0
M  V30 1505 H 141.919 -2.51724 1.62097 0
M  V30 1506 H 139.465 -1.20991 0.780838 0
M  V30 1507 H 141.418 -4.21199 -0.130147 0
M  V30 1508 H 140.142 -3.16617 -0.80134 0
M  V30 1509 H 138.801 -3.42173 1.3158 0
M  V30 1510 H 138.449 -4.99449 -0.596606 0
M  V30 1511 H 138.149 -5.79609 0.965788 0
M  V30 1512 H 139.673 -6.10539 0.0861567 0
M  V30 1513 H 141.087 -5.2913 2.20669 0
M  V30 1514 H 139.484 -5.20148 2.99276 0
M  V30 1515 H 140.554 -3.78834 3.02676 0
M  V30 1516 N 141.898 -0.863906 -1.31812 0
M  V30 1517 C 142.808 -0.318461 -2.32428 0
M  V30 1518 C 143.824 0.568496 -1.64451 0
M  V30 1519 O 145 0.46666 -1.95919 0
M  V30 1520 C 142.065 0.476355 -3.43412 0
M  V30 1521 C 141.126 -0.43784 -4.27061 0
M  V30 1522 C 140.359 0.319138 -5.32745 0
M  V30 1523 O 140.582 1.54799 -5.48993 0
M  V30 1524 O 139.516 -0.319861 -6.01049 0
M  V30 1525 H 143.342 -1.15229 -2.80991 0
M  V30 1526 H 140.927 -0.627103 -1.35602 0
M  V30 1527 H 142.809 0.927156 -4.11074 0
M  V30 1528 H 141.484 1.28683 -2.97022 0
M  V30 1529 H 140.391 -0.937013 -3.62175 0
M  V30 1530 H 141.724 -1.21375 -4.77 0
M  V30 1531 N 143.376 1.44774 -0.622745 0
M  V30 1532 C 144.286 2.34433 0.0886031 0
M  V30 1533 C 145.302 1.52131 0.844529 0
M  V30 1534 O 146.478 1.84886 0.798691 0
M  V30 1535 C 143.543 3.29986 1.0635 0
M  V30 1536 C 142.604 4.28195 0.307873 0
M  V30 1537 C 141.837 5.19183 1.23633 0
M  V30 1538 O 142.06 5.13918 2.47476 0
M  V30 1539 O 140.994 5.97515 0.725189 0
M  V30 1540 H 144.82 2.96693 -0.648599 0
M  V30 1541 H 142.405 1.44408 -0.382957 0
M  V30 1542 H 144.287 3.88825 1.6246 0
M  V30 1543 H 142.962 2.70269 1.78146 0
M  V30 1544 H 141.869 3.72927 -0.296064 0
M  V30 1545 H 143.202 4.90808 -0.3699 0
M  V30 1546 N 144.854 0.36279 1.53368 0
M  V30 1547 C 146.079 -0.231226 2.06107 0
M  V30 1548 C 146.504 -1.419 1.23474 0
M  V30 1549 O 145.862 -1.79524 0.253128 0
M  V30 1550 C 145.91 -0.605523 3.5548 0
M  V30 1551 O 145.014 -1.70312 3.7559 0
M  V30 1552 H 144.355 -0.034327 0.663112 0
M  V30 1553 H 146.885 0.522584 1.97814 0
M  V30 1554 H 146.895 -0.877314 3.98456 0
M  V30 1555 H 145.57 0.263004 4.15068 0
M  V30 1556 H 144.147 -1.4271 3.44512 0
M  V30 1557 N 146.332 -1.57332 0.0918853 0
M  V30 1558 C 147.609 -1.85691 -0.614668 0
M  V30 1559 C 147.989 -0.988146 -1.86545 0
M  V30 1560 O 147.337 -0.0597055 -2.28422 0
M  V30 1561 C 147.547 -3.36294 -0.933126 0
M  V30 1562 C 148.895 -4.04275 -1.29796 0
M  V30 1563 O 149.919 -3.41157 -1.02424 0
M  V30 1564 O 148.778 -5.1564 -1.81047 0
M  V30 1565 H 145.872 -0.767802 -0.307261 0
M  V30 1566 H 148.418 -1.69244 0.12434 0
M  V30 1567 H 147.19 -3.91273 -0.0456404 0
M  V30 1568 H 146.813 -3.58076 -1.72822 0
M  V30 1569 N 147.81 0.181792 -1.56548 0
M  V30 1570 C 148.773 1.20894 -1.94724 0
M  V30 1571 C 149.773 1.37738 -0.829747 0
M  V30 1572 O 150.963 1.35323 -1.09697 0
M  V30 1573 C 148.095 2.57593 -2.23291 0
M  V30 1574 H 149.288 0.882275 -2.86629 0
M  V30 1575 H 146.841 0.423838 -1.50444 0
M  V30 1576 H 147.576 2.95291 -1.34067 0
M  V30 1577 H 147.361 2.46735 -3.04736 0
M  V30 1578 H 148.851 3.31637 -2.53785 0
M  V30 1579 N 149.288 1.51039 0.449983 0
M  V30 1580 C 150.218 1.74379 1.55288 0
M  V30 1581 C 151.199 0.593236 1.5942 0
M  V30 1582 O 152.384 0.834625 1.7535 0
M  V30 1583 C 149.514 1.85728 2.93466 0
M  V30 1584 C 148.468 3.01078 3.04197 0
M  V30 1585 C 147.794 2.97595 4.44231 0
M  V30 1586 C 149.094 4.41254 2.7945 0
M  V30 1587 H 150.788 2.66725 1.36008 0
M  V30 1588 H 148.334 1.2835 0.652864 0
M  V30 1589 H 150.287 2.0064 3.70569 0
M  V30 1590 H 149.011 0.900207 3.13949 0
M  V30 1591 H 147.67 2.85851 2.29531 0
M  V30 1592 H 147.318 1.99691 4.61663 0
M  V30 1593 H 147.018 3.75046 4.52343 0
M  V30 1594 H 148.542 3.14583 5.23326 0
M  V30 1595 H 149.956 4.56897 3.46292 0
M  V30 1596 H 148.353 5.20315 2.98985 0
M  V30 1597 H 149.423 4.52164 1.75144 0
M  V30 1598 N 150.766 -0.704594 1.40972 0
M  V30 1599 C 152.014 -1.46169 1.39568 0
M  V30 1600 C 152.335 -1.95 0.00253745 0
M  V30 1601 O 151.605 -1.71095 -0.954114 0
M  V30 1602 H 150.185 -0.542326 0.513704 0
M  V30 1603 H 152.847 -0.834553 1.76128 0
M  V30 1604 H 151.943 -2.32922 2.07735 0
M  V30 1605 N 152.244 -1.26651 -0.937939 0
M  V30 1606 C 153.49 -1.12553 -1.687 0
M  V30 1607 C 153.823 0.329782 -1.91379 0
M  V30 1608 O 153.098 1.24202 -1.4968 0
M  V30 1609 C 153.381 -1.89862 -3.05981 0
M  V30 1610 C 153.234 -3.43318 -2.90607 0
M  V30 1611 C 154.553 -1.69499 -4.0615 0
M  V30 1612 H 151.672 -0.410257 -0.612257 0
M  V30 1613 H 154.314 -1.55685 -1.08913 0
M  V30 1614 H 152.464 -1.53204 -3.57017 0
M  V30 1615 H 154.136 -3.89747 -2.46769 0
M  V30 1616 H 152.379 -3.70179 -2.26164 0
M  V30 1617 H 153.05 -3.92642 -3.8799 0
M  V30 1618 H 155.526 -2.01442 -3.64088 0
M  V30 1619 H 154.402 -2.26002 -5.00214 0
M  V30 1620 H 154.663 -0.640365 -4.37438 0
M  V30 1621 N 153.722 1.14298 -1.08507 0
M  V30 1622 C 155.138 1.37347 -0.812901 0
M  V30 1623 C 155.338 1.93052 0.577325 0
M  V30 1624 O 154.394 2.14389 1.33393 0
M  V30 1625 C 155.707 2.33359 -1.89642 0
M  V30 1626 C 157.255 2.46996 -1.92255 0
M  V30 1627 C 157.73 3.46309 -2.99724 0
M  V30 1628 N 159.221 3.53853 -2.98902 0
M  V30 1629 C 159.956 4.3055 -3.787 0
M  V30 1630 N 159.452 5.10482 -4.6838 0
M  V30 1631 N 161.245 4.25757 -3.66998 0
M  V30 1632 H 153.396 0.764867 -1.9815 0
M  V30 1633 H 155.659 0.398966 -0.859959 0
M  V30 1634 H 155.365 1.99565 -2.89597 0
M  V30 1635 H 155.239 3.33274 -1.76659 0
M  V30 1636 H 157.626 2.80081 -0.929445 0
M  V30 1637 H 157.707 1.47039 -2.09316 0
M  V30 1638 H 157.351 3.13957 -3.99241 0
M  V30 1639 H 157.281 4.46049 -2.79907 0
M  V30 1640 H 159.772 2.96812 -2.33904 0
M  V30 1641 H 160.085 5.66284 -5.25873 0
M  V30 1642 H 158.43 5.09747 -4.72422 0
M  V30 1643 H 161.621 3.62383 -2.96304 0
M  V30 1644 H 161.794 4.85279 -4.29427 0
M  V30 1645 N 155.201 0.870884 1.31352 0
M  V30 1646 C 156.617 0.562932 1.49343 0
M  V30 1647 C 156.817 -0.902725 1.80148 0
M  V30 1648 O 155.873 -1.68484 1.88067 0
M  V30 1649 C 157.186 1.46393 2.62659 0
M  V30 1650 C 158.734 1.46607 2.76542 0
M  V30 1651 C 159.209 2.35266 3.92955 0
M  V30 1652 N 160.7 2.33151 4.00243 0
M  V30 1653 C 161.435 2.98471 4.89594 0
M  V30 1654 N 160.931 3.72964 5.8384 0
M  V30 1655 N 162.724 2.87775 4.82848 0
M  V30 1656 H 154.875 1.81923 1.09626 0
M  V30 1657 H 157.138 0.777934 0.541777 0
M  V30 1658 H 156.844 2.50689 2.46674 0
M  V30 1659 H 156.718 1.16314 3.58819 0
M  V30 1660 H 159.105 0.43069 2.9194 0
M  V30 1661 H 159.186 1.8071 1.81046 0
M  V30 1662 H 158.83 3.38881 3.78315 0
M  V30 1663 H 158.76 1.98487 4.87761 0
M  V30 1664 H 161.251 1.79006 3.32814 0
M  V30 1665 H 161.564 4.19932 6.4875 0
M  V30 1666 H 159.909 3.77073 5.83816 0
M  V30 1667 H 163.1 2.29116 4.08195 0
M  V30 1668 H 163.273 3.38961 5.52277 0
M  V30 1669 N 156.679 -1.44442 0.630414 0
M  V30 1670 C 157.642 -2.29107 -0.0652523 0
M  V30 1671 C 158.642 -1.41002 -0.772995 0
M  V30 1672 O 159.832 -1.62881 -0.617692 0
M  V30 1673 C 156.964 -3.22564 -1.10296 0
M  V30 1674 H 158.157 -2.92103 0.679401 0
M  V30 1675 H 155.71 -1.51343 0.390517 0
M  V30 1676 H 156.445 -2.64416 -1.87762 0
M  V30 1677 H 156.23 -3.87491 -0.59941 0
M  V30 1678 H 157.72 -3.86167 -1.5895 0
M  V30 1679 N 158.157 -0.370918 -1.53173 0
M  V30 1680 C 159.12 0.460778 -2.24521 0
M  V30 1681 C 160.12 1.00536 -1.25496 0
M  V30 1682 O 161.31 0.890266 -1.49733 0
M  V30 1683 C 158.442 1.64457 -2.98608 0
M  V30 1684 H 159.635 -0.163613 -2.99453 0
M  V30 1685 H 157.188 -0.122699 -1.55818 0
M  V30 1686 H 157.923 2.30691 -2.2793 0
M  V30 1687 H 157.708 1.26099 -3.7127 0
M  V30 1688 H 159.198 2.23384 -3.5283 0
M  V30 1689 N 159.635 1.57281 -0.100228 0
M  V30 1690 C 160.567 2.11342 0.886972 0
M  V30 1691 C 161.58 1.05182 1.24261 0
M  V30 1692 O 162.769 1.32613 1.19483 0
M  V30 1693 C 159.869 2.5825 2.19454 0
M  V30 1694 C 159.042 3.88302 2.01346 0
M  V30 1695 C 158.101 4.21004 3.15661 0
M  V30 1696 O 157.127 4.9014 2.89398 0
M  V30 1697 N 158.329 3.76818 4.41575 0
M  V30 1698 H 161.094 2.96668 0.425216 0
M  V30 1699 H 158.655 1.61678 0.0847334 0
M  V30 1700 H 160.647 2.7717 2.94888 0
M  V30 1701 H 159.217 1.77907 2.57037 0
M  V30 1702 H 158.437 3.7848 1.10212 0
M  V30 1703 H 159.725 4.73375 1.8653 0
M  V30 1704 H 159.123 3.2102 4.65792 0
M  V30 1705 H 157.68 4.00882 5.13942 0
M  V30 1706 N 161.113 -0.173488 1.56642 0
M  V30 1707 C 162.529 -0.525174 1.50712 0
M  V30 1708 C 162.729 -1.8476 0.804107 0
M  V30 1709 O 161.785 -2.49869 0.363574 0
M  V30 1710 C 163.098 -0.559937 2.95441 0
M  V30 1711 C 164.646 -0.647288 3.06234 0
M  V30 1712 C 165.121 -0.712963 4.52417 0
M  V30 1713 N 166.612 -0.775911 4.56655 0
M  V30 1714 C 167.347 -0.847264 5.67106 0
M  V30 1715 N 166.843 -0.879585 6.87194 0
M  V30 1716 N 168.636 -0.886117 5.55071 0
M  V30 1717 H 160.787 0.693681 2.00753 0
M  V30 1718 H 163.05 0.249841 0.914485 0
M  V30 1719 H 162.756 0.343049 3.50023 0
M  V30 1720 H 162.63 -1.40718 3.49969 0
M  V30 1721 H 165.017 -1.5407 2.51687 0
M  V30 1722 H 165.098 0.226586 2.54794 0
M  V30 1723 H 164.742 0.176183 5.07594 0
M  V30 1724 H 164.672 -1.60295 5.0161 0
M  V30 1725 H 167.163 -0.759304 3.70193 0
M  V30 1726 H 167.476 -0.935144 7.67121 0
M  V30 1727 H 165.821 -0.847898 6.89808 0
M  V30 1728 H 169.012 -0.857853 4.60172 0
M  V30 1729 H 169.185 -0.938263 6.41171 0
M  V30 1730 N 162.591 -1.51276 -0.441967 0
M  V30 1731 C 164.007 -1.39349 -0.778083 0
M  V30 1732 C 164.207 -0.472212 -1.95889 0
M  V30 1733 O 163.263 0.0743551 -2.5239 0
M  V30 1734 C 164.576 -2.81292 -1.0628 0
M  V30 1735 C 166.124 -2.9041 -1.16751 0
M  V30 1736 C 166.599 -4.33251 -1.48519 0
M  V30 1737 N 168.09 -4.36336 -1.55453 0
M  V30 1738 C 168.825 -5.43885 -1.81596 0
M  V30 1739 N 168.321 -6.61601 -2.05562 0
M  V30 1740 N 170.114 -5.3136 -1.8334 0
M  V30 1741 H 162.265 -2.09729 0.335774 0
M  V30 1742 H 164.528 -0.943925 0.0878028 0
M  V30 1743 H 164.234 -3.50678 -0.267905 0
M  V30 1744 H 164.108 -3.20334 -1.99163 0
M  V30 1745 H 166.495 -2.21225 -1.95304 0
M  V30 1746 H 166.576 -2.54871 -0.217801 0
M  V30 1747 H 166.22 -5.02984 -0.704958 0
M  V30 1748 H 166.15 -4.66299 -2.44689 0
M  V30 1749 H 168.641 -3.51466 -1.38853 0
M  V30 1750 H 168.954 -7.39361 -2.24867 0
M  V30 1751 H 167.299 -6.64725 -2.02894 0
M  V30 1752 H 170.49 -4.38382 -1.64132 0
M  V30 1753 H 170.663 -6.15258 -2.03377 0
M  V30 1754 N 164.069 0.697108 -1.41344 0
M  V30 1755 C 164.999 1.82353 -1.45841 0
M  V30 1756 C 165.98 1.67115 -0.317247 0
M  V30 1757 O 167.165 1.86871 -0.528474 0
M  V30 1758 C 164.295 3.20476 -1.33838 0
M  V30 1759 C 163.249 3.50415 -2.4575 0
M  V30 1760 C 162.575 4.87878 -2.18813 0
M  V30 1761 C 163.875 3.49546 -3.88091 0
M  V30 1762 H 165.569 1.78846 -2.40113 0
M  V30 1763 H 163.115 0.859028 -1.15571 0
M  V30 1764 H 165.068 3.98988 -1.35596 0
M  V30 1765 H 163.792 3.24604 -0.360498 0
M  V30 1766 H 162.451 2.74253 -2.43271 0
M  V30 1767 H 162.099 4.8863 -1.19371 0
M  V30 1768 H 161.799 5.08875 -2.93803 0
M  V30 1769 H 163.323 5.68702 -2.22284 0
M  V30 1770 H 164.737 4.18066 -3.92293 0
M  V30 1771 H 163.134 3.82075 -4.62751 0
M  V30 1772 H 164.204 2.48552 -4.16353 0
M  V30 1773 N 165.547 1.27147 0.931209 0
M  V30 1774 C 166.494 1.09568 2.03134 0
M  V30 1775 C 167.464 -0.00222433 1.661 0
M  V30 1776 O 168.649 0.159439 1.90133 0
M  V30 1777 C 165.789 0.745231 3.36957 0
M  V30 1778 C 164.902 1.92041 3.86968 0
M  V30 1779 C 164.037 1.51216 5.09222 0
M  V30 1780 C 163.076 2.65504 5.5152 0
M  V30 1781 N 162.213 2.25291 6.64972 0
M  V30 1782 H 167.053 2.03708 2.17502 0
M  V30 1783 H 164.59 1.01411 1.06556 0
M  V30 1784 H 166.548 0.522878 4.1391 0
M  V30 1785 H 165.178 -0.159202 3.22407 0
M  V30 1786 H 164.23 2.25541 3.06326 0
M  V30 1787 H 165.542 2.77787 4.1429 0
M  V30 1788 H 164.696 1.25084 5.93666 0
M  V30 1789 H 163.435 0.625749 4.83669 0
M  V30 1790 H 162.44 2.92354 4.65628 0
M  V30 1791 H 163.665 3.54761 5.7907 0
M  V30 1792 H 161.611 1.39098 6.41083 0
M  V30 1793 H 161.528 3.04577 6.91931 0
M  V30 1794 H 162.796 2.02398 7.52765 0
M  V30 1795 N 167.025 -1.13721 1.09112 0
M  V30 1796 C 167.988 -2.17222 0.731241 0
M  V30 1797 C 168.988 -1.59035 -0.237566 0
M  V30 1798 O 170.178 -1.74192 -0.0161704 0
M  V30 1799 C 167.31 -3.40804 0.0808443 0
M  V30 1800 H 168.503 -2.50573 1.64783 0
M  V30 1801 H 166.056 -1.28493 0.889897 0
M  V30 1802 H 166.791 -3.1304 -0.847127 0
M  V30 1803 H 166.576 -3.84306 0.777896 0
M  V30 1804 H 168.066 -4.1731 -0.155657 0
M  V30 1805 N 168.503 -0.877838 -1.30888 0
M  V30 1806 C 169.413 -0.343096 -2.32078 0
M  V30 1807 C 170.429 0.551022 -1.65045 0
M  V30 1808 O 171.605 0.445854 -1.96403 0
M  V30 1809 C 168.67 0.439905 -3.43898 0
M  V30 1810 C 167.731 -0.483111 -4.26573 0
M  V30 1811 C 166.964 0.262616 -5.33053 0
M  V30 1812 O 167.187 1.48967 -5.50604 0
M  V30 1813 O 166.121 -0.383593 -6.00676 0
M  V30 1814 H 169.947 -1.18203 -2.79753 0
M  V30 1815 H 167.532 -0.64145 -1.34929 0
M  V30 1816 H 169.414 0.883504 -4.12034 0
M  V30 1817 H 168.089 1.25526 -2.98371 0
M  V30 1818 H 166.996 -0.975374 -3.61161 0
M  V30 1819 H 168.329 -1.26427 -4.75686 0
M  V30 1820 N 169.982 1.44106 -0.638065 0
M  V30 1821 C 170.912 2.33448 0.0494287 0
M  V30 1822 C 171.893 1.48606 0.827672 0
M  V30 1823 O 173.078 1.77308 0.792173 0
M  V30 1824 C 170.208 3.31771 1.02691 0
M  V30 1825 C 169.162 4.26485 0.359823 0
M  V30 1826 C 168.488 5.14729 1.44769 0
M  V30 1827 C 169.788 5.17056 -0.738296 0
M  V30 1828 H 171.482 2.91183 -0.696636 0
M  V30 1829 H 169.028 1.40014 -0.336456 0
M  V30 1830 H 170.981 3.93161 1.51666 0
M  V30 1831 H 169.705 2.7226 1.80395 0
M  V30 1832 H 168.364 3.66437 -0.10934 0
M  V30 1833 H 168.012 4.51566 2.21578 0
M  V30 1834 H 167.712 5.78913 1.00668 0
M  V30 1835 H 169.236 5.78991 1.93911 0
M  V30 1836 H 170.65 5.72342 -0.331354 0
M  V30 1837 H 169.047 5.89879 -1.10286 0
M  V30 1838 H 170.117 4.57652 -1.60258 0
M  V30 1839 N 171.46 0.379036 1.52974 0
M  V30 1840 C 172.708 -0.206014 2.01047 0
M  V30 1841 C 173.029 -1.48175 1.26765 0
M  V30 1842 O 172.299 -1.92085 0.384743 0
M  V30 1843 H 170.879 -0.0791184 0.742798 0
M  V30 1844 H 173.541 0.508366 1.88153 0
M  V30 1845 H 172.637 -0.423501 3.09213 0
M  V30 1846 N 172.938 -1.57226 0.108567 0
M  V30 1847 C 174.187 -1.94008 -0.551703 0
M  V30 1848 C 174.5 -0.993442 -1.68494 0
M  V30 1849 O 175.706 -1.25551 -2.40726 0
M  V30 1850 C 174.162 -3.44763 -1.03279 0
M  V30 1851 C 173.77 -4.47943 0.0714193 0
M  V30 1852 C 175.514 -3.90483 -1.66503 0
M  V30 1853 C 173.421 -5.89865 -0.425779 0
M  V30 1854 H 172.351 -0.724206 -0.209863 0
M  V30 1855 H 175.002 -1.82547 0.186741 0
M  V30 1856 H 173.384 -3.51422 -1.82533 0
M  V30 1857 H 174.558 -4.52942 0.847365 0
M  V30 1858 H 172.873 -4.11913 0.609669 0
M  V30 1859 H 175.47 -4.93925 -2.04798 0
M  V30 1860 H 175.813 -3.29877 -2.53942 0
M  V30 1861 H 176.346 -3.86581 -0.938074 0
M  V30 1862 H 173.085 -6.54202 0.412316 0
M  V30 1863 H 172.605 -5.88309 -1.16843 0
M  V30 1864 H 174.284 -6.40844 -0.890397 0
M  V30 1865 N 174.416 0.165178 -1.56732 0
M  V30 1866 C 175.827 0.727046 -1.71962 0
M  V30 1867 C 176.178 1.82508 -0.720078 0
M  V30 1868 O 175.303 2.16082 0.117242 0
M  V30 1869 C 175.898 1.32559 -3.11791 0
M  V30 1870 C 174.457 1.83422 -3.28684 0
M  V30 1871 C 173.604 0.715567 -2.67908 0
M  V30 1872 H 176.555 -0.0602896 -1.58585 0
M  V30 1873 H 176.576 2.19533 -3.10782 0
M  V30 1874 H 176.088 0.526195 -3.84516 0
M  V30 1875 H 174.189 2.65986 -2.60926 0
M  V30 1876 H 174.302 1.97543 -4.36478 0
M  V30 1877 H 172.666 1.13758 -2.27884 0
M  V30 1878 H 173.449 -0.0720836 -3.43224 0
M  V30 1879 N 175.894 1.51508 0.433938 0
M  V30 1880 C 176.824 1.76016 1.53429 0
M  V30 1881 C 177.805 0.610112 1.58782 0
M  V30 1882 O 178.99 0.853177 1.74455 0
M  V30 1883 C 176.12 1.88831 2.9148 0
M  V30 1884 C 175.074 3.04288 3.00987 0
M  V30 1885 C 174.4 3.0229 4.4105 0
M  V30 1886 C 175.7 4.44193 2.74754 0
M  V30 1887 H 177.394 2.68152 1.33171 0
M  V30 1888 H 174.94 1.29035 0.639214 0
M  V30 1889 H 176.893 2.04559 3.6842 0
M  V30 1890 H 175.617 0.933455 3.12976 0
M  V30 1891 H 174.276 2.8827 2.26486 0
M  V30 1892 H 173.924 2.04576 4.59519 0
M  V30 1893 H 173.624 3.79822 4.4834 0
M  V30 1894 H 175.148 3.20116 5.1996 0
M  V30 1895 H 176.562 4.60544 3.41426 0
M  V30 1896 H 174.959 5.23457 2.9345 0
M  V30 1897 H 176.029 4.53996 1.70339 0
M  V30 1898 N 177.372 -0.689602 1.41712 0
M  V30 1899 C 178.282 -1.83314 1.46401 0
M  V30 1900 C 179.298 -1.7036 0.35405 0
M  V30 1901 O 180.474 -1.92171 0.602692 0
M  V30 1902 C 177.539 -3.19344 1.34982 0
M  V30 1903 C 176.6 -3.44363 2.56344 0
M  V30 1904 C 175.833 -4.73904 2.45461 0
M  V30 1905 O 176.056 -5.508 1.48241 0
M  V30 1906 O 174.99 -4.99839 3.35328 0
M  V30 1907 H 178.816 -1.82314 2.42889 0
M  V30 1908 H 176.401 -0.843438 1.23315 0
M  V30 1909 H 178.283 -4.00547 1.3092 0
M  V30 1910 H 176.958 -3.21014 0.41612 0
M  V30 1911 H 175.865 -2.63067 2.65982 0
M  V30 1912 H 177.198 -3.47512 3.48563 0
M  V30 1913 N 178.85 -1.27639 -0.924453 0
M  V30 1914 C 179.76 -1.12466 -2.05885 0
M  V30 1915 C 180.776 -0.053869 -1.73917 0
M  V30 1916 O 181.952 -0.261012 -1.99702 0
M  V30 1917 C 179.017 -0.776768 -3.37886 0
M  V30 1918 C 178.078 -1.92878 -3.83532 0
M  V30 1919 C 177.311 -1.59739 -5.09234 0
M  V30 1920 O 177.534 -0.506782 -5.68144 0
M  V30 1921 O 176.468 -2.43761 -5.50331 0
M  V30 1922 H 180.294 -2.07671 -2.21599 0
M  V30 1923 H 177.879 -1.06857 -1.04413 0
M  V30 1924 H 179.761 -0.596229 -4.17161 0
M  V30 1925 H 178.436 0.145732 -3.23372 0
M  V30 1926 H 177.343 -2.1644 -3.0513 0
M  V30 1927 H 178.676 -2.8316 -4.02593 0
M  V30 1928 N 180.328 1.1314 -1.09713 0
M  V30 1929 C 181.574 1.84757 -0.836224 0
M  V30 1930 C 181.907 1.8347 0.636598 0
M  V30 1931 O 181.182 1.27491 1.46889 0
M  V30 1932 C 181.465 3.32782 -1.37578 0
M  V30 1933 C 181.318 3.42567 -2.91493 0
M  V30 1934 C 182.637 4.28307 -1.01198 0
M  V30 1935 H 179.756 0.67082 -0.305236 0
M  V30 1936 H 182.398 1.3278 -1.35903 0
M  V30 1937 H 180.548 3.77177 -0.931097 0
M  V30 1938 H 182.22 3.06862 -3.44432 0
M  V30 1939 H 180.463 2.83349 -3.28475 0
M  V30 1940 H 181.134 4.46674 -3.24324 0
M  V30 1941 H 183.61 3.91999 -1.39556 0
M  V30 1942 H 182.486 5.30307 -1.41653 0
M  V30 1943 H 182.747 4.42029 0.0794833 0
M  V30 1944 N 181.806 0.884767 1.30421 0
M  V30 1945 C 183.217 0.553656 1.78302 0
M  V30 1946 C 183.568 -0.930153 1.7275 0
M  V30 1947 O 182.693 -1.72681 1.30423 0
M  V30 1948 C 183.288 0.998234 3.2376 0
M  V30 1949 C 181.847 0.71854 3.69478 0
M  V30 1950 C 180.994 1.18132 2.50879 0
M  V30 1951 H 183.945 1.06901 1.17294 0
M  V30 1952 H 183.966 0.327118 3.79091 0
M  V30 1953 H 183.478 2.0782 3.27769 0
M  V30 1954 H 181.579 -0.349444 3.70958 0
M  V30 1955 H 181.692 1.30595 4.60958 0
M  V30 1956 H 180.056 0.600669 2.47516 0
M  V30 1957 H 180.839 2.26902 2.57624 0
M  V30 1958 N 183.284 -1.43765 0.645699 0
M  V30 1959 C 184.695 -1.85193 0.236719 0
M  V30 1960 C 185.046 -1.54045 -1.21509 0
M  V30 1961 O 184.171 -0.985694 -1.92647 0
M  V30 1962 C 184.766 -3.36151 0.422845 0
M  V30 1963 C 183.325 -3.76338 0.0682492 0
M  V30 1964 C 182.472 -2.67538 0.729306 0
M  V30 1965 H 185.423 -1.34025 0.849883 0
M  V30 1966 H 185.444 -3.79032 -0.333904 0
M  V30 1967 H 184.956 -3.5879 1.47958 0
M  V30 1968 H 183.057 -3.59312 -0.986179 0
M  V30 1969 H 183.17 -4.76603 0.488469 0
M  V30 1970 H 181.534 -2.54176 0.163235 0
M  V30 1971 H 182.317 -2.93006 1.78892 0
M  V30 1972 N 184.763 -0.387143 -1.52771 0
M  V30 1973 C 185.673 0.456442 -2.30117 0
M  V30 1974 C 186.689 1.07342 -1.36944 0
M  V30 1975 O 187.865 1.07971 -1.70013 0
M  V30 1976 C 184.93 1.56957 -3.09136 0
M  V30 1977 C 183.991 0.977916 -4.18014 0
M  V30 1978 C 183.224 2.038 -4.93256 0
M  V30 1979 O 183.447 3.25271 -4.68567 0
M  V30 1980 O 182.381 1.6565 -5.78657 0
M  V30 1981 H 186.207 -0.17359 -3.03203 0
M  V30 1982 H 183.792 -0.150919 -1.48636 0
M  V30 1983 H 185.674 2.21628 -3.58412 0
M  V30 1984 H 184.349 2.18461 -2.38865 0
M  V30 1985 H 183.256 0.294525 -3.72939 0
M  V30 1986 H 184.589 0.407128 -4.90513 0
M  V30 1987 N 186.241 1.57166 -0.116904 0
M  V30 1988 C 187.151 2.18745 0.847812 0
M  V30 1989 C 188.167 1.163 1.29423 0
M  V30 1990 O 189.343 1.48761 1.35765 0
M  V30 1991 C 186.408 2.77307 2.0809 0
M  V30 1992 C 185.469 3.94781 1.68661 0
M  V30 1993 C 184.702 4.50541 2.86091 0
M  V30 1994 O 184.925 4.05202 4.01456 0
M  V30 1995 O 183.859 5.41256 2.63298 0
M  V30 1996 H 187.685 3.01632 0.353778 0
M  V30 1997 H 185.27 1.49005 0.108599 0
M  V30 1998 H 187.152 3.14647 2.80313 0
M  V30 1999 H 185.827 1.97452 2.56504 0
M  V30 2000 H 184.734 3.62214 0.935518 0
M  V30 2001 H 186.067 4.76065 1.24991 0
M  V30 2002 N 187.719 -0.156864 1.56817 0
M  V30 2003 C 188.968 -0.869504 1.81996 0
M  V30 2004 C 189.281 -1.82777 0.696545 0
M  V30 2005 O 190.487 -2.58384 0.833658 0
M  V30 2006 C 188.943 -1.59679 3.22538 0
M  V30 2007 C 188.551 -0.681431 4.42787 0
M  V30 2008 C 190.295 -2.2968 3.56997 0
M  V30 2009 C 188.202 -1.40978 5.74351 0
M  V30 2010 H 187.132 -0.328438 0.678708 0
M  V30 2011 H 189.783 -0.1223 1.83092 0
M  V30 2012 H 188.165 -2.38927 3.158 0
M  V30 2013 H 189.339 0.0751166 4.60739 0
M  V30 2014 H 187.654 -0.0903431 4.16302 0
M  V30 2015 H 190.251 -2.84794 4.52544 0
M  V30 2016 H 190.594 -3.05707 2.82576 0
M  V30 2017 H 191.127 -1.57361 3.65352 0
M  V30 2018 H 187.866 -0.691561 6.51842 0
M  V30 2019 H 187.386 -2.13929 5.60352 0
M  V30 2020 H 189.065 -1.95337 6.16808 0
M  V30 2021 N 189.197 -1.51736 -0.425897 0
M  V30 2022 C 190.145 -1.74464 -1.53834 0
M  V30 2023 C 191.139 -0.611241 -1.57988 0
M  V30 2024 O 192.345 -0.792899 -1.61596 0
M  V30 2025 H 188.72 -0.551437 -0.511293 0
M  V30 2026 H 190.691 -2.67694 -1.31843 0
M  V30 2027 C 189.44 -1.8972 -2.91379 0
M  V30 2028 H 188.763 -2.76344 -2.88919 0
M  V30 2029 H 190.203 -2.09629 -3.68553 0
M  V30 2030 C 188.662 -0.65992 -3.30374 0
M  V30 2031 O 189.192 0.180083 -4.01296 0
M  V30 2032 N 187.398 -0.500677 -2.86254 0
M  V30 2033 H 186.945 -1.18532 -2.28709 0
M  V30 2034 H 186.903 0.325903 -3.12706 0
M  V30 2035 N 190.675 0.682077 -1.42076 0
M  V30 2036 C 191.905 1.46844 -1.45329 0
M  V30 2037 C 192.313 1.89102 -0.0609328 0
M  V30 2038 O 191.656 1.58238 0.933082 0
M  V30 2039 C 191.718 2.75375 -2.31104 0
M  V30 2040 C 191.382 2.55238 -3.79081 0
M  V30 2041 C 192.379 2.20309 -4.70914 0
M  V30 2042 C 190.064 2.70459 -4.2327 0
M  V30 2043 C 192.058 2.00859 -6.04925 0
M  V30 2044 C 189.745 2.50624 -5.57343 0
M  V30 2045 C 190.743 2.15876 -6.47986 0
M  V30 2046 O 190.431 1.96227 -7.79583 0
M  V30 2047 H 190.163 0.4586 -0.496651 0
M  V30 2048 H 192.717 0.846131 -1.87162 0
M  V30 2049 H 190.947 3.40061 -1.84107 0
M  V30 2050 H 192.636 3.37231 -2.25898 0
M  V30 2051 H 193.402 2.08153 -4.38061 0
M  V30 2052 H 189.281 2.96485 -3.53012 0
M  V30 2053 H 192.825 1.7366 -6.75639 0
M  V30 2054 H 188.722 2.62375 -5.89771 0
M  V30 2055 H 189.49 2.10883 -7.90867 0
M  V30 2056 N 192.153 1.28127 0.917671 0
M  V30 2057 C 193.083 1.14248 2.03641 0
M  V30 2058 C 194.064 0.0412748 1.7005 0
M  V30 2059 O 195.249 0.217566 1.92977 0
M  V30 2060 C 192.379 0.799431 3.37974 0
M  V30 2061 C 191.333 1.85497 3.85713 0
M  V30 2062 C 190.659 1.36565 5.16966 0
M  V30 2063 C 191.959 3.26085 4.08002 0
M  V30 2064 H 193.653 2.07835 2.15511 0
M  V30 2065 H 191.199 1.00064 1.03553 0
M  V30 2066 H 193.152 0.689114 4.15727 0
M  V30 2067 H 191.876 -0.172145 3.26146 0
M  V30 2068 H 190.535 1.95437 3.10161 0
M  V30 2069 H 190.183 0.383253 5.01538 0
M  V30 2070 H 189.883 2.07143 5.49878 0
M  V30 2071 H 191.407 1.26848 5.97279 0
M  V30 2072 H 192.821 3.19089 4.76293 0
M  V30 2073 H 191.218 3.94462 4.52238 0
M  V30 2074 H 192.288 3.70394 3.12948 0
M  V30 2075 N 193.631 -1.12557 1.10312 0
M  V30 2076 C 194.859 -1.87864 0.866873 0
M  V30 2077 C 195.274 -1.79588 -0.582557 0
M  V30 2078 O 194.631 -1.16887 -1.40156 0
M  V30 2079 C 194.682 -3.37125 1.30496 0
M  V30 2080 O 194.403 -3.45201 2.69755 0
M  V30 2081 C 195.904 -4.29373 1.10243 0
M  V30 2082 H 193.124 -0.594452 0.311236 0
M  V30 2083 H 195.668 -1.42429 1.46745 0
M  V30 2084 H 193.823 -3.80109 0.748081 0
M  V30 2085 H 194.237 -4.38056 2.88457 0
M  V30 2086 H 195.711 -5.32394 1.45811 0
M  V30 2087 H 196.188 -4.39181 0.0409492 0
M  V30 2088 H 196.794 -3.92169 1.64571 0
M  V30 2089 N 195.109 -0.891671 -1.2995 0
M  V30 2090 C 196.525 -0.58662 -1.48428 0
M  V30 2091 C 196.725 0.873951 -1.81561 0
M  V30 2092 O 195.781 1.65471 -1.90724 0
M  V30 2093 C 197.094 -1.50553 -2.60296 0
M  V30 2094 C 198.642 -1.50988 -2.74175 0
M  V30 2095 C 199.117 -2.41488 -3.89163 0
M  V30 2096 N 200.608 -2.39489 -3.96483 0
M  V30 2097 C 201.343 -3.06223 -4.84784 0
M  V30 2098 N 200.839 -3.82206 -5.77833 0
M  V30 2099 N 202.632 -2.95421 -4.78208 0
M  V30 2100 H 194.783 -1.83644 -1.06718 0
M  V30 2101 H 197.046 -0.786455 -0.529332 0
M  V30 2102 H 196.752 -2.54581 -2.42654 0
M  V30 2103 H 196.626 -1.22008 -3.56923 0
M  V30 2104 H 199.013 -0.47708 -2.91218 0
M  V30 2105 H 199.094 -1.83567 -1.78148 0
M  V30 2106 H 198.738 -3.44857 -3.72876 0
M  V30 2107 H 198.668 -2.06222 -4.84541 0
M  V30 2108 H 201.159 -1.84278 -3.29924 0
M  V30 2109 H 201.472 -4.302 -6.41988 0
M  V30 2110 H 199.817 -3.86313 -5.77743 0
M  V30 2111 H 203.008 -2.35581 -4.04499 0
M  V30 2112 H 203.181 -3.47704 -5.46814 0
M  V30 2113 N 196.587 1.43421 -0.653314 0
M  V30 2114 C 197.836 2.01032 -0.164076 0
M  V30 2115 C 198.149 1.52147 1.22926 0
M  V30 2116 O 199.355 2.02031 1.81371 0
M  V30 2117 C 197.811 3.59082 -0.24252 0
M  V30 2118 C 197.419 4.1696 -1.63855 0
M  V30 2119 C 199.163 4.24079 0.18911 0
M  V30 2120 C 197.07 5.67304 -1.67092 0
M  V30 2121 H 196 0.751798 -0.0575769 0
M  V30 2122 H 198.651 1.6439 -0.815362 0
M  V30 2123 H 197.033 3.93125 0.476276 0
M  V30 2124 H 198.207 3.94416 -2.38271 0
M  V30 2125 H 196.522 3.64335 -2.01616 0
M  V30 2126 H 199.119 5.34381 0.184775 0
M  V30 2127 H 199.462 3.98005 1.22056 0
M  V30 2128 H 199.995 3.94918 -0.477938 0
M  V30 2129 H 196.734 5.98145 -2.68146 0
M  V30 2130 H 196.254 5.91904 -0.970014 0
M  V30 2131 H 197.933 6.31344 -1.4147 0
M  V30 2132 N 198.065 0.39524 1.52563 0
M  V30 2133 C 199.015 -0.4541 2.23432 0
M  V30 2134 C 199.999 -1.02482 1.24042 0
M  V30 2135 O 201.191 -0.949938 1.49349 0
M  V30 2136 C 198.32 -1.57769 3.049 0
M  V30 2137 C 197.406 -1.01842 4.1169 0
M  V30 2138 N 197.797 -0.184613 5.05463 0
M  V30 2139 C 196.095 -1.29033 4.26927 0
M  V30 2140 C 196.796 0.125013 5.81566 0
M  V30 2141 N 195.772 -0.480498 5.41472 0
M  V30 2142 H 199.574 0.189413 2.93289 0
M  V30 2143 H 197.088 0.204877 1.61102 0
M  V30 2144 H 199.085 -2.19862 3.54212 0
M  V30 2145 H 197.745 -2.22397 2.36579 0
M  V30 2146 H 198.756 0.178602 5.17592 0
M  V30 2147 H 195.433 -1.93721 3.69836 0
M  V30 2148 H 196.823 0.800962 6.67109 0
M  V30 2149 N 199.544 -1.57102 0.125237 0
M  V30 2150 C 200.774 -1.99472 -0.538015 0
M  V30 2151 C 201.182 -1.00395 -1.60366 0
M  V30 2152 O 200.525 0.0103875 -1.83697 0
M  V30 2153 C 200.587 -3.38262 -1.21734 0
M  V30 2154 C 200.251 -4.56021 -0.298897 0
M  V30 2155 C 201.248 -5.17817 0.464943 0
M  V30 2156 C 198.933 -5.01869 -0.208149 0
M  V30 2157 C 200.927 -6.23852 1.3072 0
M  V30 2158 C 198.614 -6.07763 0.637736 0
M  V30 2159 C 199.612 -6.68622 1.39403 0
M  V30 2160 O 199.3 -7.7247 2.22586 0
M  V30 2161 H 199.032 -0.659934 -0.146501 0
M  V30 2162 H 201.586 -2.04321 0.210267 0
M  V30 2163 H 199.816 -3.30185 -2.01282 0
M  V30 2164 H 201.505 -3.6488 -1.77813 0
M  V30 2165 H 202.271 -4.83308 0.404741 0
M  V30 2166 H 198.15 -4.54241 -0.786522 0
M  V30 2167 H 201.694 -6.71284 1.898 0
M  V30 2168 H 197.591 -6.41701 0.699309 0
M  V30 2169 H 198.359 -7.89595 2.15596 0
M  V30 2170 N 201.022 0.148545 -1.56898 0
M  V30 2171 C 201.969 1.18345 -1.98149 0
M  V30 2172 C 202.939 1.42772 -0.848848 0
M  V30 2173 O 204.124 1.55132 -1.11079 0
M  V30 2174 C 201.264 2.51231 -2.36594 0
M  V30 2175 C 200.377 2.33991 -3.63142 0
M  V30 2176 C 199.512 3.59902 -3.90697 0
M  V30 2177 C 198.551 3.37692 -5.1052 0
M  V30 2178 N 197.688 4.5573 -5.34092 0
M  V30 2179 H 202.528 0.82467 -2.86362 0
M  V30 2180 H 200.065 0.395756 -1.41676 0
M  V30 2181 H 202.023 3.28713 -2.56912 0
M  V30 2182 H 200.653 2.85059 -1.51463 0
M  V30 2183 H 199.705 1.47572 -3.50609 0
M  V30 2184 H 201.017 2.13539 -4.5078 0
M  V30 2185 H 200.171 4.45813 -4.11505 0
M  V30 2186 H 198.91 3.83357 -3.01477 0
M  V30 2187 H 197.915 2.5017 -4.89587 0
M  V30 2188 H 199.14 3.15637 -6.0129 0
M  V30 2189 H 197.086 4.79361 -4.47827 0
M  V30 2190 H 197.003 4.38274 -6.15996 0
M  V30 2191 H 198.271 5.42858 -5.59397 0
M  V30 2192 N 202.5 1.5196 0.417844 0
M  V30 2193 C 203.463 1.74065 1.49111 0
M  V30 2194 C 204.463 0.610537 1.48758 0
M  V30 2195 O 205.653 0.87832 1.50437 0
M  V30 2196 C 202.785 1.81502 2.88565 0
M  V30 2197 H 203.978 2.69869 1.30807 0
M  V30 2198 H 201.531 1.42244 0.647785 0
M  V30 2199 H 202.266 0.875813 3.1225 0
M  V30 2200 H 202.051 2.63651 2.90225 0
M  V30 2201 H 203.541 2.00376 3.66387 0
M  V30 2202 N 203.978 -0.674533 1.42435 0
M  V30 2203 C 204.91 -1.80005 1.41883 0
M  V30 2204 C 205.923 -1.59667 0.31787 0
M  V30 2205 O 207.112 -1.68781 0.580973 0
M  V30 2206 C 204.212 -3.17114 1.19549 0
M  V30 2207 C 203.385 -3.64299 2.42084 0
M  V30 2208 C 202.444 -4.80142 2.15291 0
M  V30 2209 O 201.47 -4.90673 2.88493 0
M  V30 2210 N 202.672 -5.68869 1.1562 0
M  V30 2211 H 205.437 -1.80964 2.38898 0
M  V30 2212 H 202.998 -0.857633 1.37318 0
M  V30 2213 H 204.99 -3.92267 0.995417 0
M  V30 2214 H 203.56 -3.11053 0.310569 0
M  V30 2215 H 202.78 -2.79822 2.77657 0
M  V30 2216 H 204.068 -3.92567 3.23679 0
M  V30 2217 H 203.466 -5.63012 0.550765 0
M  V30 2218 H 202.023 -6.43833 1.016 0
M  V30 2219 N 205.456 -1.28612 -0.910864 0
M  V30 2220 C 206.681 -1.1891 -1.69927 0
M  V30 2221 C 207.106 0.248372 -1.86453 0
M  V30 2222 O 206.464 1.17961 -1.37676 0
M  V30 2223 C 206.512 -1.89578 -3.06745 0
M  V30 2224 O 205.616 -1.20521 -3.94396 0
M  V30 2225 H 204.957 -0.412632 -0.520222 0
M  V30 2226 H 207.487 -1.69985 -1.1387 0
M  V30 2227 H 207.497 -1.97597 -3.56958 0
M  V30 2228 H 206.172 -2.94136 -2.94035 0
M  V30 2229 H 204.749 -1.20684 -3.52831 0
M  V30 2230 N 206.934 1.1197 -1.10907 0
M  V30 2231 C 208.211 1.79959 -0.766432 0
M  V30 2232 C 208.591 1.97466 0.746363 0
M  V30 2233 O 207.939 1.55491 1.67436 0
M  V30 2234 C 208.149 3.14009 -1.52314 0
M  V30 2235 C 209.497 3.89134 -1.69883 0
M  V30 2236 O 210.521 3.2368 -1.48692 0
M  V30 2237 O 209.38 5.06572 -2.05054 0
M  V30 2238 H 206.474 0.779208 -0.277062 0
M  V30 2239 H 209.02 1.18762 -1.21217 0
M  V30 2240 H 207.792 2.96587 -2.55249 0
M  V30 2241 H 207.415 3.82915 -1.07059 0
M  V30 2242 N 208.412 0.89855 1.29475 0
M  V30 2243 C 209.66 0.522847 1.9522 0
M  V30 2244 C 209.981 -0.93371 1.71192 0
M  V30 2245 O 209.251 -1.65823 1.04305 0
M  V30 2246 H 207.831 0.190366 0.722336 0
M  V30 2247 H 210.493 1.14459 1.5775 0
M  V30 2248 H 209.589 0.704476 3.04045 0
M  V30 2249 N 209.89 -1.43072 0.660911 0
M  V30 2250 C 211.139 -2.00942 0.174735 0
M  V30 2251 C 211.452 -1.52797 -1.22117 0
M  V30 2252 O 212.658 -2.02991 -1.80297 0
M  V30 2253 C 211.114 -3.58948 0.261559 0
M  V30 2254 C 210.722 -4.16085 1.66064 0
M  V30 2255 C 212.466 -4.24173 -0.166617 0
M  V30 2256 C 210.373 -5.6641 1.70098 0
M  V30 2257 H 209.303 -0.751483 0.0615631 0
M  V30 2258 H 211.954 -1.63955 0.824069 0
M  V30 2259 H 210.336 -3.93372 -0.455421 0
M  V30 2260 H 211.51 -3.93147 2.40359 0
M  V30 2261 H 209.825 -3.6326 2.03546 0
M  V30 2262 H 212.422 -5.34471 -0.156433 0
M  V30 2263 H 212.765 -3.98647 -1.19943 0
M  V30 2264 H 213.298 -3.94659 0.498875 0
M  V30 2265 H 210.037 -5.96715 2.71315 0
M  V30 2266 H 209.557 -5.91382 1.00139 0
M  V30 2267 H 211.236 -6.30585 1.44816 0
M  V30 2268 N 211.368 -0.403325 -1.52352 0
M  V30 2269 C 212.614 0.167015 -2.02713 0
M  V30 2270 C 212.969 1.43296 -1.28391 0
M  V30 2271 O 212.262 1.87796 -0.379885 0
M  V30 2272 C 212.456 0.474665 -3.54234 0
M  V30 2273 C 212.285 -0.759909 -4.43233 0
M  V30 2274 C 211.055 -1.28338 -4.88731 0
M  V30 2275 C 213.253 -1.63634 -4.87574 0
M  V30 2276 N 211.235 -2.47404 -5.6184 0
M  V30 2277 C 212.606 -2.67329 -5.59406 0
M  V30 2278 C 214.661 -1.65478 -4.69597 0
M  V30 2279 C 213.364 -3.72773 -6.15169 0
M  V30 2280 C 215.39 -2.69837 -5.26253 0
M  V30 2281 C 214.752 -3.72253 -5.98002 0
M  V30 2282 H 210.851 0.0228343 -0.781667 0
M  V30 2283 H 213.435 -0.556368 -1.86581 0
M  V30 2284 H 211.606 1.16709 -3.7045 0
M  V30 2285 H 213.338 1.03338 -3.91284 0
M  V30 2286 H 210.093 -0.842273 -4.6605 0
M  V30 2287 H 210.517 -3.07688 -6.0304 0
M  V30 2288 H 215.159 -0.876389 -4.13617 0
M  V30 2289 H 212.877 -4.51471 -6.70223 0
M  V30 2290 H 216.463 -2.72164 -5.14216 0
M  V30 2291 H 215.343 -4.51679 -6.41058 0
M  V30 2292 N 212.846 1.57033 -0.133567 0
M  V30 2293 C 214.094 1.953 0.519848 0
M  V30 2294 C 214.415 1.01866 1.66278 0
M  V30 2295 O 213.685 0.0776513 1.95746 0
M  V30 2296 H 212.265 0.721091 0.195032 0
M  V30 2297 H 214.927 1.93809 -0.205921 0
M  V30 2298 H 214.023 2.98695 0.904854 0
M  V30 2299 N 214.325 -0.140222 1.56975 0
M  V30 2300 C 215.235 -1.19223 2.02047 0
M  V30 2301 C 216.251 -1.46612 0.937062 0
M  V30 2302 O 217.427 -1.58148 1.24704 0
M  V30 2303 C 214.492 -2.50414 2.39778 0
M  V30 2304 C 213.553 -2.30612 3.621 0
M  V30 2305 C 212.786 -3.55547 3.98023 0
M  V30 2306 O 213.009 -4.62004 3.34528 0
M  V30 2307 O 211.943 -3.47808 4.91237 0
M  V30 2308 H 215.769 -0.839559 2.91865 0
M  V30 2309 H 213.354 -0.349453 1.45256 0
M  V30 2310 H 215.236 -3.27747 2.64877 0
M  V30 2311 H 213.911 -2.85198 1.53114 0
M  V30 2312 H 212.818 -1.51207 3.4218 0
M  V30 2313 H 214.151 -2.00741 4.49404 0
M  V30 2314 N 215.803 -1.52179 -0.40978 0
M  V30 2315 C 216.753 -1.71857 -1.49831 0
M  V30 2316 C 217.737 -0.572469 -1.50372 0
M  V30 2317 O 218.929 -0.829509 -1.56359 0
M  V30 2318 C 216.058 -1.87206 -2.87765 0
M  V30 2319 C 215.144 -3.07685 -2.91875 0
M  V30 2320 N 215.535 -4.30403 -2.65683 0
M  V30 2321 C 213.833 -3.07505 -3.23043 0
M  V30 2322 C 214.534 -5.11868 -2.76344 0
M  V30 2323 N 213.51 -4.47101 -3.09195 0
M  V30 2324 H 217.312 -2.64381 -1.28375 0
M  V30 2325 H 214.826 -1.50203 -0.617479 0
M  V30 2326 H 216.823 -1.99419 -3.66111 0
M  V30 2327 H 215.483 -0.958814 -3.10221 0
M  V30 2328 H 216.494 -4.58887 -2.4009 0
M  V30 2329 H 213.171 -2.25915 -3.51096 0
M  V30 2330 H 214.561 -6.19634 -2.59814 0
M  V30 2331 N 217.281 0.66697 -1.42791 0
M  V30 2332 C 218.191 1.80962 -1.49299 0
M  V30 2333 C 219.207 1.69775 -0.381108 0
M  V30 2334 O 220.383 1.91188 -0.633188 0
M  V30 2335 C 217.448 3.17156 -1.40045 0
M  V30 2336 C 216.509 3.40242 -2.6179 0
M  V30 2337 C 215.742 4.69939 -2.52969 0
M  V30 2338 O 215.965 5.48372 -1.56985 0
M  V30 2339 O 214.899 4.94441 -3.43237 0
M  V30 2340 H 218.725 1.78427 -2.45759 0
M  V30 2341 H 216.31 0.823713 -1.24641 0
M  V30 2342 H 218.192 3.98413 -1.37276 0
M  V30 2343 H 216.867 3.20312 -0.467138 0
M  V30 2344 H 215.774 2.58802 -2.70134 0
M  V30 2345 H 217.107 3.41923 -3.54047 0
M  V30 2346 N 218.759 1.29093 0.90403 0
M  V30 2347 C 220.008 1.16187 1.64874 0
M  V30 2348 C 220.321 -0.286742 1.93487 0
M  V30 2349 O 221.527 -0.537062 2.66135 0
M  V30 2350 C 219.983 2.03177 2.97064 0
M  V30 2351 C 219.591 3.52836 2.76062 0
M  V30 2352 C 221.335 1.98984 3.74974 0
M  V30 2353 C 219.242 4.31945 4.03952 0
M  V30 2354 H 218.172 0.431246 0.618501 0
M  V30 2355 H 220.823 1.53699 1.00243 0
M  V30 2356 H 219.205 1.5853 3.62883 0
M  V30 2357 H 220.379 4.05507 2.18863 0
M  V30 2358 H 218.694 3.58656 2.11553 0
M  V30 2359 H 221.291 2.55351 4.69787 0
M  V30 2360 H 221.634 0.968815 4.0487 0
M  V30 2361 H 222.167 2.41652 3.15989 0
M  V30 2362 H 218.906 5.34667 3.79225 0
M  V30 2363 H 218.426 3.84045 4.60727 0
M  V30 2364 H 220.105 4.42379 4.72133 0
M  V30 2365 N 220.237 -1.11381 1.11499 0
M  V30 2366 C 221.514 -1.7955 0.775965 0
M  V30 2367 C 221.894 -1.97859 -0.73588 0
M  V30 2368 O 221.242 -1.56376 -1.66609 0
M  V30 2369 C 221.452 -3.13196 1.53977 0
M  V30 2370 C 222.8 -3.88227 1.71944 0
M  V30 2371 O 223.824 -3.22887 1.50407 0
M  V30 2372 O 222.683 -5.05477 2.07738 0
M  V30 2373 H 219.777 -0.777728 0.28119 0
M  V30 2374 H 222.323 -1.18118 1.21845 0
M  V30 2375 H 221.095 -2.95229 2.56818 0
M  V30 2376 H 220.718 -3.82342 1.09088 0
M  V30 2377 N 221.715 -0.905404 -1.28997 0
M  V30 2378 C 222.945 -0.549049 -1.99171 0
M  V30 2379 C 223.353 0.87203 -1.67906 0
M  V30 2380 O 222.696 1.58796 -0.923561 0
M  V30 2381 C 222.758 -0.668306 -3.53234 0
M  V30 2382 C 222.422 -2.0574 -4.08069 0
M  V30 2383 C 223.419 -3.0292 -4.22534 0
M  V30 2384 C 221.104 -2.36833 -4.42962 0
M  V30 2385 C 223.098 -4.29314 -4.71135 0
M  V30 2386 C 220.785 -3.63467 -4.91258 0
M  V30 2387 C 221.783 -4.59522 -5.053 0
M  V30 2388 O 221.471 -5.83907 -5.52546 0
M  V30 2389 H 221.203 -0.208784 -0.64295 0
M  V30 2390 H 223.757 -1.21836 -1.65363 0
M  V30 2391 H 221.987 0.0580547 -3.86656 0
M  V30 2392 H 223.676 -0.320273 -4.04634 0
M  V30 2393 H 224.442 -2.80216 -3.95859 0
M  V30 2394 H 220.321 -1.62824 -4.31288 0
M  V30 2395 H 223.865 -5.04293 -4.8201 0
M  V30 2396 H 219.762 -3.86 -5.17372 0
M  V30 2397 H 220.53 -5.86578 -5.70849 0
M  V30 2398 N 223.193 1.4272 -0.668489 0
M  V30 2399 C 224.442 2.00846 -0.185389 0
M  V30 2400 C 224.755 1.53442 1.21305 0
M  V30 2401 O 225.961 2.03944 1.79218 0
M  V30 2402 C 224.417 3.58805 -0.280591 0
M  V30 2403 C 224.025 4.15198 -1.68268 0
M  V30 2404 C 225.769 4.24255 0.14412 0
M  V30 2405 C 223.676 5.655 -1.73099 0
M  V30 2406 H 222.606 0.751145 -0.0655475 0
M  V30 2407 H 225.257 1.63516 -0.832752 0
M  V30 2408 H 223.639 3.93608 0.434553 0
M  V30 2409 H 224.813 3.91866 -2.42441 0
M  V30 2410 H 223.128 3.62176 -2.05469 0
M  V30 2411 H 225.725 5.34547 0.128086 0
M  V30 2412 H 226.068 3.99277 1.17827 0
M  V30 2413 H 226.601 3.94389 -0.519798 0
M  V30 2414 H 223.34 5.95268 -2.74475 0
M  V30 2415 H 222.86 5.90842 -1.03274 0
M  V30 2416 H 224.539 6.29808 -1.48158 0
M  V30 2417 N 224.671 0.411399 1.52136 0
M  V30 2418 C 225.601 -0.404015 2.29978 0
M  V30 2419 C 226.582 -1.04412 1.34284 0
M  V30 2420 O 227.767 -1.0527 1.63192 0
M  V30 2421 C 224.897 -1.5197 3.12286 0
M  V30 2422 C 223.851 -1.00448 4.16046 0
M  V30 2423 C 223.177 -2.21393 4.86712 0
M  V30 2424 C 224.477 -0.0569336 5.22269 0
M  V30 2425 H 226.171 0.245529 2.98392 0
M  V30 2426 H 223.717 0.119525 1.43503 0
M  V30 2427 H 225.67 -2.09715 3.6551 0
M  V30 2428 H 224.394 -2.19716 2.41646 0
M  V30 2429 H 223.053 -0.449421 3.63835 0
M  V30 2430 H 222.701 -2.87699 4.12599 0
M  V30 2431 H 222.401 -1.87571 5.56858 0
M  V30 2432 H 223.925 -2.7974 5.4275 0
M  V30 2433 H 225.339 -0.54325 5.7072 0
M  V30 2434 H 223.736 0.192594 5.99791 0
M  V30 2435 H 224.806 0.887663 4.76706 0
M  V30 2436 N 226.149 -1.5696 0.141893 0
M  V30 2437 C 227.079 -2.19516 -0.795936 0
M  V30 2438 C 228.06 -1.14187 -1.26077 0
M  V30 2439 O 229.245 -1.42511 -1.31925 0
M  V30 2440 C 226.375 -2.81272 -2.03723 0
M  V30 2441 C 225.329 -3.92384 -1.70936 0
M  V30 2442 C 224.655 -4.41052 -3.02287 0
M  V30 2443 C 225.955 -5.13403 -0.959954 0
M  V30 2444 H 227.649 -2.98138 -0.274596 0
M  V30 2445 H 225.195 -1.43406 -0.130636 0
M  V30 2446 H 227.148 -3.237 -2.69808 0
M  V30 2447 H 225.872 -1.99973 -2.58221 0
M  V30 2448 H 224.531 -3.50566 -1.07232 0
M  V30 2449 H 224.179 -3.56582 -3.54765 0
M  V30 2450 H 223.879 -5.15993 -2.81114 0
M  V30 2451 H 225.403 -4.86146 -3.69451 0
M  V30 2452 H 226.817 -5.52706 -1.52279 0
M  V30 2453 H 225.214 -5.94073 -0.848357 0
M  V30 2454 H 226.284 -4.84875 0.0492434 0
M  V30 2455 N 227.627 0.131896 -1.57047 0
M  V30 2456 C 228.873 0.843179 -1.84441 0
M  V30 2457 C 229.206 1.80129 -0.725749 0
M  V30 2458 O 228.481 1.92624 0.269469 0
M  V30 2459 C 228.764 1.60442 -3.22382 0
M  V30 2460 C 228.617 0.666782 -4.4483 0
M  V30 2461 C 229.936 2.56354 -3.5773 0
M  V30 2462 H 227.055 0.305081 -0.670891 0
M  V30 2463 H 229.697 0.107839 -1.89694 0
M  V30 2464 H 227.847 2.23128 -3.18035 0
M  V30 2465 H 229.519 0.0497646 -4.61273 0
M  V30 2466 H 227.762 -0.022609 -4.33794 0
M  V30 2467 H 228.433 1.23579 -5.37989 0
M  V30 2468 H 230.909 2.0378 -3.62785 0
M  V30 2469 H 229.785 3.06657 -4.5525 0
M  V30 2470 H 230.046 3.38419 -2.84473 0
M  V30 2471 N 229.106 1.52395 0.401703 0
M  V30 2472 C 230.522 1.41363 0.740864 0
M  V30 2473 C 230.722 0.523982 1.94568 0
M  V30 2474 O 229.778 -0.00741204 2.52499 0
M  V30 2475 C 231.091 2.84011 0.987847 0
M  V30 2476 C 232.639 2.93404 1.09011 0
M  V30 2477 C 233.114 4.37036 1.3698 0
M  V30 2478 N 234.605 4.40304 1.43829 0
M  V30 2479 C 235.34 5.48508 1.67112 0
M  V30 2480 N 234.836 6.66819 1.87949 0
M  V30 2481 N 236.629 5.36034 1.69187 0
M  V30 2482 H 228.78 2.08765 -0.391262 0
M  V30 2483 H 231.043 0.941265 -0.112798 0
M  V30 2484 H 230.749 3.51265 0.174835 0
M  V30 2485 H 230.623 3.25502 1.906 0
M  V30 2486 H 233.01 2.26325 1.8937 0
M  V30 2487 H 233.091 2.55359 0.15015 0
M  V30 2488 H 232.735 5.04676 0.571353 0
M  V30 2489 H 232.665 4.72623 2.3224 0
M  V30 2490 H 235.156 3.55024 1.29486 0
M  V30 2491 H 235.469 7.45063 2.05185 0
M  V30 2492 H 233.814 6.6987 1.85199 0
M  V30 2493 H 237.005 4.42579 1.52451 0
M  V30 2494 H 237.178 6.20434 1.86993 0
M  V30 2495 N 230.584 -0.659388 1.43143 0
M  V30 2496 C 231.531 -1.77249 1.47822 0
M  V30 2497 C 232.501 -1.62818 0.328558 0
M  V30 2498 O 233.686 -1.83151 0.534838 0
M  V30 2499 C 230.826 -3.15371 1.40126 0
M  V30 2500 C 229.939 -3.4098 2.65249 0
M  V30 2501 C 229.074 -4.68915 2.49584 0
M  V30 2502 C 228.113 -4.87608 3.70006 0
M  V30 2503 N 227.25 -6.06796 3.53189 0
M  V30 2504 H 232.09 -1.72584 2.42938 0
M  V30 2505 H 229.627 -0.842297 1.20598 0
M  V30 2506 H 231.585 -3.9521 1.33659 0
M  V30 2507 H 230.215 -3.19121 0.485964 0
M  V30 2508 H 229.267 -2.55282 2.8202 0
M  V30 2509 H 230.579 -3.50681 3.54717 0
M  V30 2510 H 229.733 -5.56871 2.4079 0
M  V30 2511 H 228.472 -4.61524 1.5763 0
M  V30 2512 H 227.477 -3.9809 3.79215 0
M  V30 2513 H 228.702 -4.96834 4.62961 0
M  V30 2514 H 226.648 -6.00549 2.63965 0
M  V30 2515 H 226.565 -6.17428 4.36255 0
M  V30 2516 H 227.833 -6.9739 3.48236 0
M  V30 2517 N 232.062 -1.29571 -0.897171 0
M  V30 2518 C 233.01 -1.14802 -2.02295 0
M  V30 2519 C 234.004 -0.0629637 -1.69283 0
M  V30 2520 O 235.21 -0.222945 -1.78614 0
M  V30 2521 H 231.585 -0.354692 -0.663097 0
M  V30 2522 H 233.556 -2.10108 -2.11889 0
M  V30 2523 C 232.305 -0.843966 -3.37302 0
M  V30 2524 H 231.628 -1.67093 -3.63208 0
M  V30 2525 H 233.068 -0.780672 -4.16751 0
M  V30 2526 C 231.527 0.452843 -3.33843 0
M  V30 2527 O 232.057 1.47813 -3.73516 0
M  V30 2528 N 230.263 0.459601 -2.86943 0
M  V30 2529 H 229.81 -0.375213 -2.54853 0
M  V30 2530 H 229.768 1.32726 -2.85011 0
M  V30 2531 N 233.54 1.10788 -1.12088 0
M  V30 2532 C 234.786 1.82942 -0.875226 0
M  V30 2533 C 235.119 1.84779 0.597538 0
M  V30 2534 O 234.394 1.30578 1.44152 0
M  V30 2535 C 234.677 3.29789 -1.44606 0
M  V30 2536 C 234.53 3.36307 -2.98693 0
M  V30 2537 C 235.849 4.26064 -1.10261 0
M  V30 2538 H 232.968 0.664195 -0.319397 0
M  V30 2539 H 235.61 1.29867 -1.38689 0
M  V30 2540 H 233.76 3.75118 -1.01089 0
M  V30 2541 H 235.432 2.99487 -3.50864 0
M  V30 2542 H 233.675 2.76318 -3.34411 0
M  V30 2543 H 234.346 4.39694 -3.33726 0
M  V30 2544 H 236.822 3.88951 -1.4784 0
M  V30 2545 H 235.698 5.27183 -1.52869 0
M  V30 2546 H 235.959 4.42098 -0.0142953 0
M  V30 2547 N 235.018 0.912232 1.28515 0
M  V30 2548 C 236.246 0.560416 1.99166 0
M  V30 2549 C 236.661 -0.857927 1.68182 0
M  V30 2550 O 236.018 -1.56805 0.933733 0
M  V30 2551 C 236.069 0.758142 3.53461 0
M  V30 2552 O 235.79 2.12067 3.83352 0
M  V30 2553 C 237.291 0.412954 4.41372 0
M  V30 2554 H 234.511 0.213805 0.636026 0
M  V30 2555 H 237.055 1.22502 1.63749 0
M  V30 2556 H 235.21 0.140556 3.87145 0
M  V30 2557 H 235.624 2.15923 4.77993 0
M  V30 2558 H 237.098 0.60208 5.48707 0
M  V30 2559 H 237.575 -0.65073 4.34353 0
M  V30 2560 H 238.181 1.00802 4.13182 0
M  V30 2561 N 236.496 -1.42363 0.676048 0
M  V30 2562 C 237.426 -2.33497 0.0124832 0
M  V30 2563 C 238.407 -1.50748 -0.787981 0
M  V30 2564 O 239.592 -1.79346 -0.744884 0
M  V30 2565 C 236.722 -3.34377 -0.938582 0
M  V30 2566 C 235.676 -4.27289 -0.246622 0
M  V30 2567 C 235.002 -5.18386 -1.31071 0
M  V30 2568 C 236.302 -5.14916 0.875125 0
M  V30 2569 H 237.996 -2.89233 0.773593 0
M  V30 2570 H 235.542 -1.39073 0.37346 0
M  V30 2571 H 237.495 -3.97044 -1.41188 0
M  V30 2572 H 236.219 -2.76947 -1.73113 0
M  V30 2573 H 234.878 -3.66018 0.206456 0
M  V30 2574 H 234.526 -4.57282 -2.09528 0
M  V30 2575 H 234.226 -5.81378 -0.852839 0
M  V30 2576 H 235.75 -5.83929 -1.78492 0
M  V30 2577 H 237.164 -5.71262 0.482983 0
M  V30 2578 H 235.561 -5.86747 1.25887 0
M  V30 2579 H 236.631 -4.53242 1.72335 0
M  V30 2580 N 237.974 -0.419461 -1.51915 0
M  V30 2581 C 238.922 0.415502 -2.28859 0
M  V30 2582 C 239.916 1.03674 -1.3397 0
M  V30 2583 O 241.122 0.973757 -1.51387 0
M  V30 2584 H 237.497 0.152786 -0.736315 0
M  V30 2585 H 239.468 -0.254531 -2.97312 0
M  V30 2586 C 238.217 1.51425 -3.12995 0
M  V30 2587 H 237.54 1.04556 -3.85886 0
M  V30 2588 H 238.98 2.07208 -3.6992 0
M  V30 2589 C 237.439 2.48745 -2.27217 0
M  V30 2590 O 237.969 3.52871 -1.9195 0
M  V30 2591 N 236.175 2.19202 -1.90785 0
M  V30 2592 H 235.722 1.34556 -2.19664 0
M  V30 2593 H 235.68 2.84561 -1.33687 0
M  V30 2594 N 239.452 1.56882 -0.150215 0
M  V30 2595 C 240.863 1.82995 0.370076 0
M  V30 2596 C 241.214 1.06907 1.64515 0
M  V30 2597 O 240.339 0.315369 2.1409 0
M  V30 2598 C 240.934 3.31942 0.678208 0
M  V30 2599 C 239.493 3.58625 1.14301 0
M  V30 2600 C 238.64 2.76792 0.167778 0
M  V30 2601 H 241.591 1.54209 -0.374858 0
M  V30 2602 H 241.612 3.48272 1.53254 0
M  V30 2603 H 241.124 3.87294 -0.249991 0
M  V30 2604 H 239.225 3.08664 2.08704 0
M  V30 2605 H 239.338 4.67073 1.06676 0
M  V30 2606 H 237.702 2.45972 0.661037 0
M  V30 2607 H 238.485 3.34916 -0.754069 0
M  V30 2608 N 240.93 -0.123565 1.57115 0
M  V30 2609 C 242.207 -0.862196 1.75572 0
M  V30 2610 C 242.587 -1.98279 0.724475 0
M  V30 2611 O 241.935 -2.27102 -0.252407 0
M  V30 2612 C 242.145 -1.38309 3.20424 0
M  V30 2613 C 243.493 -1.83724 3.82793 0
M  V30 2614 O 244.517 -1.47999 3.23998 0
M  V30 2615 O 243.376 -2.49685 4.86127 0
M  V30 2616 H 240.47 -0.409113 0.718718 0
M  V30 2617 H 243.016 -0.107661 1.69358 0
M  V30 2618 H 241.788 -0.578889 3.86994 0
M  V30 2619 H 241.411 -2.20046 3.31158 0
M  V30 2620 N 242.408 -1.52605 -0.393616 0
M  V30 2621 C 243.819 -1.59417 -0.971761 0
M  V30 2622 C 244.17 -0.444173 -1.91106 0
M  V30 2623 O 243.295 0.433382 -2.12016 0
M  V30 2624 C 243.89 -2.88936 -1.76921 0
M  V30 2625 C 242.449 -2.98175 -2.29714 0
M  V30 2626 C 241.596 -2.54491 -1.10135 0
M  V30 2627 H 244.547 -1.57751 -0.173317 0
M  V30 2628 H 244.568 -2.75163 -2.62804 0
M  V30 2629 H 244.08 -3.72616 -1.08532 0
M  V30 2630 H 242.181 -2.19024 -3.01429 0
M  V30 2631 H 242.294 -4.02726 -2.59517 0
M  V30 2632 H 240.658 -2.08702 -1.45999 0
M  V30 2633 H 241.441 -3.4056 -0.432874 0
M  V30 2634 N 243.887 0.651787 -1.4349 0
M  V30 2635 C 244.835 1.78586 -1.49029 0
M  V30 2636 C 245.829 1.65448 -0.363767 0
M  V30 2637 O 247.035 1.71777 -0.537821 0
M  V30 2638 H 243.41 0.589236 -0.467231 0
M  V30 2639 H 245.381 1.71035 -2.44519 0
M  V30 2640 C 244.13 3.16851 -1.43181 0
M  V30 2641 H 243.453 3.27598 -2.29171 0
M  V30 2642 H 244.893 3.96156 -1.51118 0
M  V30 2643 C 243.352 3.36568 -0.149616 0
M  V30 2644 O 243.882 3.93885 0.788509 0
M  V30 2645 N 242.088 2.90539 -0.0593484 0
M  V30 2646 H 241.635 2.4408 -0.823575 0
M  V30 2647 H 241.593 3.04108 0.797853 0
M  V30 2648 N 245.365 1.30045 0.890287 0
M  V30 2649 C 246.275 1.17885 2.02831 0
M  V30 2650 C 247.291 0.0999609 1.73713 0
M  V30 2651 O 248.467 0.313867 1.98939 0
M  V30 2652 C 245.532 0.866079 3.35708 0
M  V30 2653 C 244.593 2.02979 3.78283 0
M  V30 2654 C 243.826 1.73184 5.0482 0
M  V30 2655 O 244.049 0.657237 5.66601 0
M  V30 2656 O 242.983 2.58267 5.43674 0
M  V30 2657 H 246.809 2.13474 2.16015 0
M  V30 2658 H 244.394 1.09587 1.01543 0
M  V30 2659 H 246.276 0.706623 4.15433 0
M  V30 2660 H 244.951 -0.0599443 3.23644 0
M  V30 2661 H 243.858 2.24454 2.99285 0
M  V30 2662 H 245.191 2.93734 3.94944 0
M  V30 2663 N 246.843 -1.10192 1.12674 0
M  V30 2664 C 248.092 -1.81573 0.8783 0
M  V30 2665 C 248.405 -1.86249 -0.597557 0
M  V30 2666 O 249.611 -2.5386 -0.962681 0
M  V30 2667 C 248.067 -3.26149 1.52167 0
M  V30 2668 C 247.675 -3.29763 3.03249 0
M  V30 2669 C 249.419 -4.0234 1.3536 0
M  V30 2670 C 247.326 -4.68815 3.60508 0
M  V30 2671 H 246.256 -0.680394 0.324931 0
M  V30 2672 H 248.907 -1.23902 1.35353 0
M  V30 2673 H 247.289 -3.83832 0.974104 0
M  V30 2674 H 248.463 -2.8189 3.6452 0
M  V30 2675 H 246.778 -2.67059 3.19481 0
M  V30 2676 H 249.375 -5.05058 1.75559 0
M  V30 2677 H 249.718 -4.15235 0.297554 0
M  V30 2678 H 250.251 -3.51079 1.87052 0
M  V30 2679 H 246.99 -4.61121 4.65884 0
M  V30 2680 H 246.51 -5.17045 3.04014 0
M  V30 2681 H 248.189 -5.37785 3.59717 0
M  V30 2682 N 248.321 -0.919034 -1.28029 0
M  V30 2683 C 249.268 -0.410005 -2.27129 0
M  V30 2684 C 250.238 0.518405 -1.57803 0
M  V30 2685 O 251.423 0.439451 -1.8567 0
M  V30 2686 C 248.563 0.339054 -3.4343 0
M  V30 2687 C 247.676 -0.622468 -4.27492 0
M  V30 2688 C 246.811 0.145567 -5.31001 0
M  V30 2689 C 245.85 -0.809226 -6.06727 0
M  V30 2690 N 244.987 -0.0743728 -7.02061 0
M  V30 2691 H 249.827 -1.26011 -2.70047 0
M  V30 2692 H 247.364 -0.632663 -1.328 0
M  V30 2693 H 249.322 0.789586 -4.0966 0
M  V30 2694 H 247.952 1.15346 -3.01488 0
M  V30 2695 H 247.004 -1.19153 -3.61257 0
M  V30 2696 H 248.316 -1.35252 -4.80113 0
M  V30 2697 H 247.47 0.656417 -6.03139 0
M  V30 2698 H 246.209 0.908643 -4.79161 0
M  V30 2699 H 245.214 -1.3314 -5.33436 0
M  V30 2700 H 246.439 -1.57194 -6.60656 0
M  V30 2701 H 244.385 0.670616 -6.52563 0
M  V30 2702 H 244.302 -0.744157 -7.52329 0
M  V30 2703 H 245.57 0.416109 -7.78389 0
M  V30 2704 N 249.799 1.42003 -0.683588 0
M  V30 2705 C 251.024 2.06265 -0.216647 0
M  V30 2706 C 251.449 1.51059 1.12083 0
M  V30 2707 O 250.807 0.632638 1.69904 0
M  V30 2708 C 250.855 3.60191 -0.171759 0
M  V30 2709 O 249.959 4.03396 0.857069 0
M  V30 2710 H 249.3 0.65502 -0.108834 0
M  V30 2711 H 251.83 1.81982 -0.935077 0
M  V30 2712 H 251.84 4.08 0.0014303 0
M  V30 2713 H 250.515 3.99743 -1.14796 0
M  V30 2714 H 249.092 3.67117 0.654208 0
M  V30 2715 N 251.277 0.427512 1.51691 0
M  V30 2716 C 252.507 -0.140986 2.06118 0
M  V30 2717 C 252.915 -1.37854 1.29588 0
M  V30 2718 O 252.258 -1.80411 0.346036 0
M  V30 2719 C 252.32 -0.538276 3.55447 0
M  V30 2720 C 251.984 0.591095 4.53161 0
M  V30 2721 C 252.981 1.46027 4.98971 0
M  V30 2722 C 250.666 0.769028 4.96378 0
M  V30 2723 C 252.66 2.49216 5.8666 0
M  V30 2724 C 250.347 1.80421 5.83859 0
M  V30 2725 C 251.345 2.66417 6.28897 0
M  V30 2726 O 251.033 3.68159 7.14643 0
M  V30 2727 H 250.765 -0.0157455 0.675817 0
M  V30 2728 H 253.319 0.602495 1.96365 0
M  V30 2729 H 251.549 -1.33432 3.6295 0
M  V30 2730 H 253.238 -1.0368 3.92435 0
M  V30 2731 H 254.004 1.33429 4.66285 0
M  V30 2732 H 249.883 0.109273 4.6087 0
M  V30 2733 H 253.427 3.16372 6.21735 0
M  V30 2734 H 249.324 1.93042 6.15959 0
M  V30 2735 H 250.092 3.64622 7.32798 0
M  V30 2736 N 252.755 -1.56801 0.158532 0
M  V30 2737 C 253.995 -1.98383 -0.49229 0
M  V30 2738 C 254.359 -1.04184 -1.61275 0
M  V30 2739 O 255.56 -1.34856 -2.32524 0
M  V30 2740 C 253.831 -3.4385 -0.974766 0
M  V30 2741 S 255.39 -4.07459 -1.62857 0
M  V30 2742 H 252.208 -0.693041 -0.158794 0
M  V30 2743 H 254.81 -1.93856 0.252974 0
M  V30 2744 H 253.514 -4.10131 -0.148688 0
M  V30 2745 H 253.045 -3.52115 -1.75438 0
M  V30 2746 H 255.06 -4.01458 -2.91627 0
M  V30 2747 N 254.233 0.115231 -1.57178 0
M  V30 2748 C 255.463 0.835224 -1.88964 0
M  V30 2749 C 255.871 1.73774 -0.74829 0
M  V30 2750 O 255.214 1.81401 0.289739 0
M  V30 2751 C 255.276 1.7178 -3.15804 0
M  V30 2752 C 254.94 0.989198 -4.46166 0
M  V30 2753 C 255.937 0.328263 -5.18863 0
M  V30 2754 C 253.622 0.969256 -4.9286 0
M  V30 2755 C 255.616 -0.342873 -6.36477 0
M  V30 2756 C 253.303 0.294324 -6.10391 0
M  V30 2757 C 254.301 -0.360582 -6.82048 0
M  V30 2758 O 253.989 -1.02474 -7.97342 0
M  V30 2759 H 253.721 0.245197 -0.629964 0
M  V30 2760 H 256.275 0.10303 -2.05141 0
M  V30 2761 H 254.505 2.49173 -2.95719 0
M  V30 2762 H 256.194 2.31255 -3.33581 0
M  V30 2763 H 256.96 0.335263 -4.8384 0
M  V30 2764 H 252.839 1.46844 -4.36987 0
M  V30 2765 H 256.383 -0.854629 -6.92345 0
M  V30 2766 H 252.28 0.285099 -6.4487 0
M  V30 2767 H 253.048 -0.929594 -8.13204 0
M  V30 2768 N 255.711 1.52812 0.385517 0
M  V30 2769 C 256.957 1.68275 1.13188 0
M  V30 2770 C 257.29 0.423179 1.89533 0
M  V30 2771 O 256.565 -0.579113 1.85679 0
M  V30 2772 C 256.848 2.92001 2.1073 0
M  V30 2773 C 256.701 4.28067 1.38125 0
M  V30 2774 C 258.02 3.11283 3.11113 0
M  V30 2775 H 255.139 0.612352 0.410115 0
M  V30 2776 H 257.781 1.85415 0.414869 0
M  V30 2777 H 255.931 2.77519 2.71874 0
M  V30 2778 H 257.603 4.54324 0.799187 0
M  V30 2779 H 255.846 4.28388 0.683092 0
M  V30 2780 H 256.517 5.10733 2.09417 0
M  V30 2781 H 258.993 3.2482 2.6006 0
M  V30 2782 H 257.869 3.99325 3.76605 0
M  V30 2783 H 258.13 2.25656 3.80173 0
M  V30 2784 N 257.189 -0.644168 1.43834 0
M  V30 2785 C 258.414 -1.43642 1.49605 0
M  V30 2786 C 258.839 -1.8773 0.117913 0
M  V30 2787 O 258.197 -1.57938 -0.890239 0
M  V30 2788 C 258.245 -2.6416 2.45463 0
M  V30 2789 O 257.349 -3.63538 1.94714 0
M  V30 2790 H 256.69 -0.430329 0.50568 0
M  V30 2791 H 259.22 -0.787448 1.8884 0
M  V30 2792 H 259.23 -3.11864 2.63068 0
M  V30 2793 H 257.905 -2.31414 3.45572 0
M  V30 2794 H 256.482 -3.2273 1.86814 0
M  V30 2795 N 258.668 -1.30515 -0.883378 0
M  V30 2796 C 259.615 -1.17032 -1.98927 0
M  V30 2797 C 260.585 -0.0594241 -1.65994 0
M  V30 2798 O 261.77 -0.229895 -1.8941 0
M  V30 2799 C 258.91 -0.869777 -3.33959 0
M  V30 2800 C 258.023 -2.06271 -3.79574 0
M  V30 2801 C 257.158 -1.70011 -5.03259 0
M  V30 2802 C 256.197 -2.8579 -5.41286 0
M  V30 2803 N 255.334 -2.49816 -6.56153 0
M  V30 2804 H 260.174 -2.1164 -2.09792 0
M  V30 2805 H 257.711 -1.05296 -1.02719 0
M  V30 2806 H 259.669 -0.676138 -4.11685 0
M  V30 2807 H 258.299 0.0394332 -3.22776 0
M  V30 2808 H 257.351 -2.36755 -2.97744 0
M  V30 2809 H 258.663 -2.92971 -4.03694 0
M  V30 2810 H 257.817 -1.47032 -5.88614 0
M  V30 2811 H 256.556 -0.804829 -4.81013 0
M  V30 2812 H 255.561 -3.09434 -4.54456 0
M  V30 2813 H 256.786 -3.76008 -5.65504 0
M  V30 2814 H 254.732 -1.62795 -6.35479 0
M  V30 2815 H 254.649 -3.30048 -6.8015 0
M  V30 2816 H 255.917 -2.30197 -7.44735 0
M  V30 2817 N 260.146 1.09593 -1.13257 0
M  V30 2818 C 261.056 2.19739 -0.821691 0
M  V30 2819 C 262.072 1.72926 0.19302 0
M  V30 2820 O 263.248 2.01385 0.0244895 0
M  V30 2821 C 260.313 3.45482 -0.290333 0
M  V30 2822 C 259.374 4.06985 -1.36607 0
M  V30 2823 C 258.607 5.26726 -0.859975 0
M  V30 2824 O 258.83 5.69594 0.303082 0
M  V30 2825 O 257.764 5.7931 -1.63351 0
M  V30 2826 H 261.59 2.48781 -1.74189 0
M  V30 2827 H 259.175 1.18496 -0.909894 0
M  V30 2828 H 261.057 4.214 0.000674022 0
M  V30 2829 H 259.732 3.18047 0.602306 0
M  V30 2830 H 258.639 3.32712 -1.71037 0
M  V30 2831 H 259.972 4.38643 -2.23279 0
M  V30 2832 N 261.624 0.925811 1.2754 0
M  V30 2833 C 262.534 0.428993 2.30644 0
M  V30 2834 C 263.55 -0.489387 1.66976 0
M  V30 2835 O 264.726 -0.372653 1.97922 0
M  V30 2836 C 261.791 -0.311967 3.45294 0
M  V30 2837 C 260.852 0.641098 4.24486 0
M  V30 2838 C 260.085 -0.0645955 5.33661 0
M  V30 2839 O 260.308 -1.28429 5.55754 0
M  V30 2840 O 259.242 0.606265 5.98839 0
M  V30 2841 H 263.068 1.28504 2.75173 0
M  V30 2842 H 260.653 0.691086 1.32455 0
M  V30 2843 H 262.535 -0.729972 4.15029 0
M  V30 2844 H 261.21 -1.14365 3.02824 0
M  V30 2845 H 260.117 1.10874 3.57292 0
M  V30 2846 H 261.45 1.43995 4.70666 0
M  V30 2847 N 263.102 -1.41638 0.69111 0
M  V30 2848 C 264.032 -2.3347 0.037248 0
M  V30 2849 C 265.013 -1.51575 -0.771947 0
M  V30 2850 O 266.198 -1.80126 -0.72582 0
M  V30 2851 C 263.328 -3.35354 -0.903064 0
M  V30 2852 C 262.282 -4.27526 -0.201288 0
M  V30 2853 C 261.608 -5.19747 -1.25565 0
M  V30 2854 C 262.908 -5.13959 0.929689 0
M  V30 2855 H 264.602 -2.88397 0.804227 0
M  V30 2856 H 262.148 -1.38669 0.388189 0
M  V30 2857 H 264.101 -3.98519 -1.36969 0
M  V30 2858 H 262.825 -2.78767 -1.70166 0
M  V30 2859 H 261.484 -3.65779 0.245265 0
M  V30 2860 H 261.132 -4.59479 -2.04666 0
M  V30 2861 H 260.832 -5.8225 -0.791128 0
M  V30 2862 H 262.356 -5.85789 -1.72288 0
M  V30 2863 H 263.77 -5.70718 0.543546 0
M  V30 2864 H 262.167 -5.85379 1.32103 0
M  V30 2865 H 263.237 -4.51389 1.77133 0
M  V30 2866 N 264.58 -0.43555 -1.51462 0
M  V30 2867 C 265.527 0.376797 -2.27703 0
M  V30 2868 C 266.497 1.01838 -1.31219 0
M  V30 2869 O 267.682 1.03762 -1.60119 0
M  V30 2870 C 264.822 1.47301 -3.12084 0
M  V30 2871 C 263.935 0.849744 -4.2356 0
M  V30 2872 C 263.07 1.92086 -4.95254 0
M  V30 2873 C 262.109 1.27593 -5.98654 0
M  V30 2874 N 261.246 2.28833 -6.63762 0
M  V30 2875 H 266.086 -0.279734 -2.96684 0
M  V30 2876 H 263.623 -0.149795 -1.46335 0
M  V30 2877 H 265.581 2.11984 -3.59331 0
M  V30 2878 H 264.211 2.0992 -2.45221 0
M  V30 2879 H 263.263 0.0912529 -3.80291 0
M  V30 2880 H 264.575 0.338878 -4.97648 0
M  V30 2881 H 263.729 2.64435 -5.46039 0
M  V30 2882 H 262.468 2.46545 -4.20793 0
M  V30 2883 H 261.473 0.537893 -5.47162 0
M  V30 2884 H 262.698 0.738693 -6.7507 0
M  V30 2885 H 260.644 2.82375 -5.92115 0
M  V30 2886 H 260.561 1.82632 -7.33608 0
M  V30 2887 H 261.829 3.00671 -7.19178 0
M  V30 2888 N 266.058 1.56714 -0.166846 0
M  V30 2889 C 266.968 2.21331 0.777791 0
M  V30 2890 C 267.984 1.20358 1.25658 0
M  V30 2891 O 269.16 1.53005 1.30964 0
M  V30 2892 C 266.225 2.83787 1.99163 0
M  V30 2893 C 265.286 3.99947 1.56016 0
M  V30 2894 C 264.519 4.59415 2.71613 0
M  V30 2895 O 264.742 4.17769 3.88362 0
M  V30 2896 O 263.676 5.49359 2.45945 0
M  V30 2897 H 267.502 3.02605 0.257636 0
M  V30 2898 H 265.087 1.49275 0.0611393 0
M  V30 2899 H 266.969 3.23405 2.70161 0
M  V30 2900 H 265.644 2.05513 2.50092 0
M  V30 2901 H 264.551 3.65007 0.819809 0
M  V30 2902 H 265.884 4.79801 1.09782 0
M  V30 2903 N 267.536 -0.106894 1.57237 0
M  V30 2904 C 268.466 -1.13148 2.04254 0
M  V30 2905 C 269.447 -1.42476 0.929224 0
M  V30 2906 O 270.632 -1.52709 1.19973 0
M  V30 2907 C 267.762 -2.4545 2.45706 0
M  V30 2908 C 266.716 -2.30558 3.60592 0
M  V30 2909 C 266.042 -3.67931 3.87983 0
M  V30 2910 C 267.342 -1.75597 4.91897 0
M  V30 2911 H 269.036 -0.740374 2.90101 0
M  V30 2912 H 266.582 -0.354696 1.39563 0
M  V30 2913 H 268.535 -3.17389 2.77205 0
M  V30 2914 H 267.259 -2.86475 1.56843 0
M  V30 2915 H 265.918 -1.61067 3.29322 0
M  V30 2916 H 265.566 -4.06462 2.96306 0
M  V30 2917 H 265.266 -3.58817 4.65322 0
M  V30 2918 H 266.79 -4.41356 4.21945 0
M  V30 2919 H 268.204 -2.37364 5.21854 0
M  V30 2920 H 266.601 -1.77272 5.73319 0
M  V30 2921 H 267.671 -0.714451 4.79608 0
M  V30 2922 N 269.014 -1.53014 -0.377408 0
M  V30 2923 C 269.944 -1.81589 -1.46791 0
M  V30 2924 C 270.925 -0.668622 -1.56408 0
M  V30 2925 O 272.11 -0.917337 -1.71168 0
M  V30 2926 C 269.24 -1.99519 -2.8427 0
M  V30 2927 C 268.194 -3.15249 -2.89486 0
M  V30 2928 C 267.52 -3.18451 -4.29527 0
M  V30 2929 C 268.82 -4.54084 -2.58079 0
M  V30 2930 H 270.514 -2.7291 -1.23127 0
M  V30 2931 H 268.06 -1.31319 -0.590883 0
M  V30 2932 H 270.013 -2.18092 -3.60575 0
M  V30 2933 H 268.737 -1.04897 -3.09296 0
M  V30 2934 H 267.396 -2.96477 -2.15631 0
M  V30 2935 H 267.044 -2.2149 -4.5161 0
M  V30 2936 H 266.744 -3.962 -4.33934 0
M  V30 2937 H 268.268 -3.39193 -5.07721 0
M  V30 2938 H 269.682 -4.72899 -3.24098 0
M  V30 2939 H 268.079 -5.33987 -2.7382 0
M  V30 2940 H 269.149 -4.60006 -1.53372 0
M  V30 2941 N 270.492 0.636531 -1.44174 0
M  V30 2942 C 271.439 1.74875 -1.50624 0
M  V30 2943 C 272.409 1.62275 -0.35442 0
M  V30 2944 O 273.594 1.82276 -0.563908 0
M  V30 2945 C 270.734 3.13102 -1.45125 0
M  V30 2946 C 269.847 3.36717 -2.7064 0
M  V30 2947 C 268.982 4.64885 -2.57013 0
M  V30 2948 C 268.021 4.8166 -3.77717 0
M  V30 2949 N 267.158 6.01101 -3.62798 0
M  V30 2950 H 271.998 1.68697 -2.45653 0
M  V30 2951 H 269.535 0.823004 -1.21922 0
M  V30 2952 H 271.493 3.93034 -1.39929 0
M  V30 2953 H 270.123 3.18308 -0.536671 0
M  V30 2954 H 269.175 2.50763 -2.86046 0
M  V30 2955 H 270.487 3.44993 -3.60252 0
M  V30 2956 H 269.641 5.52969 -2.49619 0
M  V30 2957 H 268.38 4.58957 -1.64953 0
M  V30 2958 H 267.385 3.92007 -3.85501 0
M  V30 2959 H 268.61 4.89406 -4.70807 0
M  V30 2960 H 266.556 5.96273 -2.73486 0
M  V30 2961 H 266.473 6.10409 -4.46023 0
M  V30 2962 H 267.741 6.91761 -3.59286 0
M  V30 2963 N 271.97 1.30982 0.876444 0
M  V30 2964 C 272.917 1.18085 1.98304 0
M  V30 2965 C 273.887 0.0682263 1.6596 0
M  V30 2966 O 275.072 0.239937 1.89285 0
M  V30 2967 C 272.212 0.887475 3.33493 0
M  V30 2968 C 271.325 2.08281 3.78475 0
M  V30 2969 C 270.46 1.72678 5.0235 0
M  V30 2970 C 269.499 2.88657 5.39762 0
M  V30 2971 N 268.636 2.53292 6.54819 0
M  V30 2972 H 273.476 2.1275 2.08666 0
M  V30 2973 H 271.013 1.05839 1.02159 0
M  V30 2974 H 272.971 0.697961 4.1132 0
M  V30 2975 H 271.601 -0.022315 3.22792 0
M  V30 2976 H 270.653 2.3833 2.96484 0
M  V30 2977 H 271.965 2.95108 4.02135 0
M  V30 2978 H 271.119 1.50151 5.87826 0
M  V30 2979 H 269.858 0.830327 4.8058 0
M  V30 2980 H 268.863 3.1184 4.52809 0
M  V30 2981 H 270.088 3.79002 5.63502 0
M  V30 2982 H 268.034 1.66163 6.34607 0
M  V30 2983 H 267.951 3.3365 6.7839 0
M  V30 2984 H 269.219 2.34143 7.43503 0
M  V30 2985 N 273.449 -1.08991 1.13837 0
M  V30 2986 C 274.412 -2.13925 0.822715 0
M  V30 2987 C 275.412 -1.599 -0.1699 0
M  V30 2988 O 276.602 -1.74104 0.0577251 0
M  V30 2989 C 273.734 -3.40155 0.225318 0
M  V30 2990 H 274.927 -2.43358 1.75262 0
M  V30 2991 H 272.48 -1.24603 0.943594 0
M  V30 2992 H 273.215 -3.16352 -0.713594 0
M  V30 2993 H 273 -3.80661 0.940193 0
M  V30 2994 H 274.49 -4.17594 0.0214784 0
M  V30 2995 N 274.927 -0.932562 -1.27047 0
M  V30 2996 C 275.89 -0.440064 -2.24936 0
M  V30 2997 C 276.89 0.444071 -1.54547 0
M  V30 2998 O 278.08 0.244465 -1.72476 0
M  V30 2999 C 275.212 0.36678 -3.38921 0
M  V30 3000 H 276.405 -1.305 -2.70018 0
M  V30 3001 H 273.958 -0.713707 -1.39054 0
M  V30 3002 H 274.693 1.25033 -2.99228 0
M  V30 3003 H 274.478 -0.267204 -3.91188 0
M  V30 3004 H 275.968 0.701567 -4.11665 0
M  V30 3005 N 276.405 1.4127 -0.698611 0
M  V30 3006 C 277.63 2.06024 -0.238512 0
M  V30 3007 C 278.055 1.5224 1.10475 0
M  V30 3008 O 277.413 0.650623 1.69223 0
M  V30 3009 C 277.461 3.59988 -0.209952 0
M  V30 3010 O 276.565 4.04282 0.814235 0
M  V30 3011 H 275.906 0.653829 -0.115775 0
M  V30 3012 H 278.436 1.8098 -0.954326 0
M  V30 3013 H 278.446 4.07979 -0.0418436 0
M  V30 3014 H 277.121 3.98503 -1.1903 0
M  V30 3015 H 275.698 3.6779 0.615234 0
M  V30 3016 N 277.883 0.443576 1.51229 0
M  V30 3017 C 279.131 -0.120557 2.0174 0
M  V30 3018 C 279.452 -1.42665 1.32935 0
M  V30 3019 O 278.722 -1.9028 0.465866 0
M  V30 3020 H 277.302 -0.0475426 0.745486 0
M  V30 3021 H 279.964 0.587711 1.85828 0
M  V30 3022 H 279.06 -0.291972 3.10731 0
M  V30 3023 N 279.361 -1.56624 0.175154 0
M  V30 3024 C 280.271 -2.21741 -0.766042 0
M  V30 3025 C 281.287 -1.21023 -1.25018 0
M  V30 3026 O 282.463 -1.53697 -1.3015 0
M  V30 3027 C 279.528 -2.84839 -1.97655 0
M  V30 3028 C 278.589 -4.00769 -1.53892 0
M  V30 3029 C 277.822 -4.60849 -2.69173 0
M  V30 3030 O 278.045 -4.19823 -3.86141 0
M  V30 3031 O 276.979 -5.50655 -2.43028 0
M  V30 3032 H 280.805 -3.02738 -0.241585 0
M  V30 3033 H 278.39 -1.49305 -0.053222 0
M  V30 3034 H 280.272 -3.24834 -2.68442 0
M  V30 3035 H 278.947 -2.06836 -2.48999 0
M  V30 3036 H 277.854 -3.65436 -0.80044 0
M  V30 3037 H 279.187 -4.80376 -1.07236 0
M  V30 3038 N 280.839 0.0985539 -1.57292 0
M  V30 3039 C 282.088 0.801358 -1.85098 0
M  V30 3040 C 282.401 1.80066 -0.763902 0
M  V30 3041 O 283.607 2.55112 -0.928981 0
M  V30 3042 C 282.063 1.47599 -3.28242 0
M  V30 3043 C 281.671 0.516624 -4.45011 0
M  V30 3044 C 283.415 2.16272 -3.65276 0
M  V30 3045 C 281.322 1.19564 -5.79188 0
M  V30 3046 H 280.252 0.303022 -0.69043 0
M  V30 3047 H 282.903 0.0542623 -1.8342 0
M  V30 3048 H 281.285 2.27042 -3.2445 0
M  V30 3049 H 282.459 -0.246065 -4.60143 0
M  V30 3050 H 280.774 -0.064227 -4.1635 0
M  V30 3051 H 283.371 2.67802 -4.62803 0
M  V30 3052 H 283.714 2.95009 -2.93727 0
M  V30 3053 H 284.247 1.43693 -3.70941 0
M  V30 3054 H 280.986 0.449157 -6.53959 0
M  V30 3055 H 280.506 1.92984 -5.67906 0
M  V30 3056 H 282.185 1.7231 -6.23633 0
M  V30 3057 N 282.317 1.53212 0.369288 0
M  V30 3058 C 283.264 1.79388 1.45219 0
M  V30 3059 C 284.234 0.638059 1.53356 0
M  V30 3060 O 285.419 0.879852 1.69302 0
M  V30 3061 C 282.559 1.98623 2.82211 0
M  V30 3062 C 281.672 3.26337 2.8307 0
M  V30 3063 C 280.807 3.35779 4.11614 0
M  V30 3064 C 279.846 4.5754 4.06601 0
M  V30 3065 N 278.983 4.64155 5.26787 0
M  V30 3066 H 283.823 2.71794 1.22198 0
M  V30 3067 H 281.36 1.34642 0.592444 0
M  V30 3068 H 283.318 2.07761 3.61789 0
M  V30 3069 H 281.948 1.09558 3.03639 0
M  V30 3070 H 281 3.26171 1.95747 0
M  V30 3071 H 282.312 4.15988 2.75237 0
M  V30 3072 H 281.466 3.44208 4.99606 0
M  V30 3073 H 280.205 2.44137 4.22195 0
M  V30 3074 H 279.21 4.49215 3.16996 0
M  V30 3075 H 280.435 5.50519 3.97625 0
M  V30 3076 H 278.381 3.75413 5.3796 0
M  V30 3077 H 278.298 5.47706 5.21109 0
M  V30 3078 H 279.566 4.76863 6.16621 0
M  V30 3079 N 283.795 -0.628877 1.44509 0
M  V30 3080 C 285.044 -1.38437 1.4669 0
M  V30 3081 C 285.357 -1.95322 0.104272 0
M  V30 3082 O 286.563 -2.715 0.00362163 0
M  V30 3083 C 285.019 -2.50659 2.5826 0
M  V30 3084 C 284.627 -2.00277 4.0074 0
M  V30 3085 C 286.371 -3.27844 2.69664 0
M  V30 3086 C 284.278 -3.09854 5.0373 0
M  V30 3087 H 283.208 -0.520245 0.545766 0
M  V30 3088 H 285.859 -0.676313 1.70582 0
M  V30 3089 H 284.241 -3.2405 2.27612 0
M  V30 3090 H 285.415 -1.33736 4.40966 0
M  V30 3091 H 283.73 -1.35901 3.93599 0
M  V30 3092 H 286.327 -4.09534 3.43781 0
M  V30 3093 H 286.67 -3.77471 1.75559 0
M  V30 3094 H 287.203 -2.61543 2.99733 0
M  V30 3095 H 283.942 -2.65168 5.99472 0
M  V30 3096 H 283.462 -3.7503 4.68095 0
M  V30 3097 H 285.141 -3.74592 5.27532 0
M  V30 3098 N 285.273 -1.31445 -0.869486 0
M  V30 3099 C 286.501 -1.24122 -1.65534 0
M  V30 3100 C 286.916 0.193387 -1.87807 0
M  V30 3101 O 286.273 1.12557 -1.43656 0
M  V30 3102 C 286.324 -1.98229 -3.02304 0
M  V30 3103 O 286.045 -3.3609 -2.81026 0
M  V30 3104 C 287.546 -1.97751 -3.96749 0
M  V30 3105 H 284.766 -0.428868 -0.516055 0
M  V30 3106 H 287.31 -1.73328 -1.08525 0
M  V30 3107 H 285.465 -1.52782 -3.56001 0
M  V30 3108 H 285.879 -3.7383 -3.67902 0
M  V30 3109 H 287.353 -2.54114 -4.90031 0
M  V30 3110 H 287.83 -0.960137 -4.28577 0
M  V30 3111 H 288.436 -2.43079 -3.48988 0
M  V30 3112 N 286.751 1.08385 -1.14413 0
M  V30 3113 C 288.162 1.62258 -0.923535 0
M  V30 3114 C 288.513 1.88691 0.537595 0
M  V30 3115 O 287.638 1.64454 1.40655 0
M  V30 3116 C 288.233 2.94781 -1.67002 0
M  V30 3117 C 286.792 3.45437 -1.495 0
M  V30 3118 C 285.939 2.19668 -1.69238 0
M  V30 3119 H 288.89 0.916086 -1.2959 0
M  V30 3120 H 288.911 3.63229 -1.13334 0
M  V30 3121 H 288.423 2.7551 -2.73342 0
M  V30 3122 H 286.524 3.6981 -0.455097 0
M  V30 3123 H 286.637 4.22173 -2.2651 0
M  V30 3124 H 285.001 2.28849 -1.11804 0
M  V30 3125 H 285.784 2.02905 -2.7692 0
M  V30 3126 N 288.23 0.939286 1.26551 0
M  V30 3127 C 289.476 0.596234 1.94465 0
M  V30 3128 C 289.831 -0.855013 1.72358 0
M  V30 3129 O 289.124 -1.6034 1.04889 0
M  V30 3130 C 289.318 0.872106 3.46596 0
M  V30 3131 C 289.147 2.34862 3.83497 0
M  V30 3132 C 287.917 3.00344 4.06352 0
M  V30 3133 C 290.115 3.32697 3.92195 0
M  V30 3134 N 288.097 4.38027 4.30123 0
M  V30 3135 C 289.468 4.55631 4.20476 0
M  V30 3136 C 291.523 3.27747 3.74815 0
M  V30 3137 C 290.226 5.74233 4.33185 0
M  V30 3138 C 292.252 4.45672 3.88755 0
M  V30 3139 C 291.614 5.67388 4.17433 0
M  V30 3140 H 287.713 0.268515 0.734455 0
M  V30 3141 H 290.297 1.2083 1.5267 0
M  V30 3142 H 288.468 0.289102 3.87323 0
M  V30 3143 H 290.2 0.490513 4.01716 0
M  V30 3144 H 286.955 2.50969 4.01636 0
M  V30 3145 H 287.379 5.09288 4.46044 0
M  V30 3146 H 292.021 2.34703 3.51673 0
M  V30 3147 H 289.739 6.67731 4.55149 0
M  V30 3148 H 293.325 4.43372 3.76713 0
M  V30 3149 H 292.205 6.57115 4.27983 0
M  V30 3150 N 289.708 -1.40897 0.706093 0
M  V30 3151 C 290.955 -2.01054 0.241531 0
M  V30 3152 C 291.283 -1.55956 -1.16223 0
M  V30 3153 O 290.538 -0.766336 -1.80072 0
M  V30 3154 C 290.837 -3.5646 0.259099 0
M  V30 3155 C 290.503 -4.21106 1.61184 0
M  V30 3156 C 289.165 -4.38479 1.98216 0
M  V30 3157 C 291.517 -4.57256 2.50132 0
M  V30 3158 C 288.845 -4.89282 3.2376 0
M  V30 3159 C 291.197 -5.09454 3.7502 0
M  V30 3160 C 289.861 -5.25037 4.12181 0
M  V30 3161 H 289.131 -0.73571 0.0883825 0
M  V30 3162 H 291.778 -1.68645 0.907257 0
M  V30 3163 H 290.083 -3.88721 -0.490189 0
M  V30 3164 H 291.78 -4.00826 -0.11804 0
M  V30 3165 H 288.37 -4.07966 1.31384 0
M  V30 3166 H 292.554 -4.43479 2.228 0
M  V30 3167 H 287.81 -4.99531 3.52532 0
M  V30 3168 H 291.984 -5.36404 4.44121 0
M  V30 3169 H 289.611 -5.64164 5.09532 0
M  V30 3170 N 291.186 -0.45159 -1.50991 0
M  V30 3171 C 292.133 0.352625 -2.2809 0
M  V30 3172 C 293.103 1.0044 -1.32291 0
M  V30 3173 O 294.288 1.02058 -1.6121 0
M  V30 3174 C 291.428 1.43983 -3.13629 0
M  V30 3175 C 290.541 0.804772 -4.24438 0
M  V30 3176 C 289.676 1.86822 -4.97263 0
M  V30 3177 C 288.715 1.21236 -5.99973 0
M  V30 3178 N 287.852 2.2178 -6.66152 0
M  V30 3179 H 292.692 -0.311186 -2.96371 0
M  V30 3180 H 290.229 -0.165308 -1.46168 0
M  V30 3181 H 292.187 2.08161 -3.61559 0
M  V30 3182 H 290.817 2.07307 -2.47434 0
M  V30 3183 H 289.869 0.0509129 -3.80366 0
M  V30 3184 H 291.181 0.286076 -4.97979 0
M  V30 3185 H 290.335 2.58628 -5.48813 0
M  V30 3186 H 289.074 2.42068 -4.23385 0
M  V30 3187 H 288.079 0.479828 -5.47702 0
M  V30 3188 H 289.304 0.667051 -6.75816 0
M  V30 3189 H 287.25 2.76079 -5.95077 0
M  V30 3190 H 287.167 1.74841 -7.35504 0
M  V30 3191 H 288.435 2.93026 -7.22327 0
M  V30 3192 N 292.664 1.56529 -0.183458 0
M  V30 3193 C 293.913 1.96419 0.458511 0
M  V30 3194 C 294.226 1.0727 1.63562 0
M  V30 3195 O 295.432 1.36893 2.34462 0
M  V30 3196 C 293.888 3.49298 0.867122 0
M  V30 3197 C 293.496 4.47092 -0.285057 0
M  V30 3198 C 295.24 3.97983 1.47683 0
M  V30 3199 C 293.147 5.91225 0.143862 0
M  V30 3200 H 292.077 0.733394 0.175071 0
M  V30 3201 H 294.728 1.81448 -0.273624 0
M  V30 3202 H 293.11 3.59731 1.65559 0
M  V30 3203 H 294.284 4.48383 -1.0625 0
M  V30 3204 H 292.599 4.08535 -0.805503 0
M  V30 3205 H 295.196 5.03134 1.80999 0
M  V30 3206 H 295.539 3.41618 2.37914 0
M  V30 3207 H 296.072 3.90617 0.752562 0
M  V30 3208 H 292.811 6.5149 -0.723974 0
M  V30 3209 H 292.331 5.93214 0.886413 0
M  V30 3210 H 294.01 6.44362 0.583628 0
M  V30 3211 N 294.142 -0.090211 1.57342 0
M  V30 3212 C 295.391 -0.791531 1.8552 0
M  V30 3213 C 295.704 -1.79659 0.773441 0
M  V30 3214 O 296.91 -2.54616 0.942497 0
M  V30 3215 C 295.366 -1.45856 3.2902 0
M  V30 3216 C 294.974 -0.493017 4.45279 0
M  V30 3217 C 296.718 -2.14332 3.66418 0
M  V30 3218 C 294.625 -1.16491 5.79814 0
M  V30 3219 H 293.555 -0.299356 0.692027 0
M  V30 3220 H 296.206 -0.0445343 1.83446 0
M  V30 3221 H 294.588 -2.25318 3.2565 0
M  V30 3222 H 295.762 0.270464 4.60006 0
M  V30 3223 H 294.077 0.0863061 4.16311 0
M  V30 3224 H 296.674 -2.65344 4.64216 0
M  V30 3225 H 297.017 -2.93447 2.95287 0
M  V30 3226 H 297.55 -1.41724 3.71698 0
M  V30 3227 H 294.289 -0.41447 6.54188 0
M  V30 3228 H 293.809 -1.8997 5.68921 0
M  V30 3229 H 295.488 -1.69001 6.24538 0
M  V30 3230 N 295.62 -1.53406 -0.361157 0
M  V30 3231 C 296.583 -1.79479 -1.42548 0
M  V30 3232 C 297.583 -0.665327 -1.4639 0
M  V30 3233 O 298.773 -0.933549 -1.47073 0
M  V30 3234 C 295.905 -1.92087 -2.8163 0
M  V30 3235 H 297.098 -2.74538 -1.20701 0
M  V30 3236 H 294.651 -1.4455 -0.594546 0
M  V30 3237 H 295.386 -0.991099 -3.08784 0
M  V30 3238 H 295.171 -2.74241 -2.80239 0
M  V30 3239 H 296.661 -2.13836 -3.58697 0
M  V30 3240 N 297.098 0.621204 -1.44841 0
M  V30 3241 C 298.061 1.71459 -1.521 0
M  V30 3242 C 299.061 1.55696 -0.401933 0
M  V30 3243 O 300.251 1.61011 -0.664925 0
M  V30 3244 C 297.383 3.10624 -1.40447 0
M  V30 3245 H 298.576 1.66394 -2.49506 0
M  V30 3246 H 296.129 0.835745 -1.3208 0
M  V30 3247 H 296.864 3.21277 -0.441737 0
M  V30 3248 H 296.649 3.23473 -2.21602 0
M  V30 3249 H 298.139 3.90293 -1.4853 0
M  V30 3250 N 298.576 1.31904 0.862503 0
M  V30 3251 C 299.804 1.24998 1.64873 0
M  V30 3252 C 300.219 -0.183425 1.87907 0
M  V30 3253 O 299.576 -1.11794 1.44251 0
M  V30 3254 C 299.627 1.99829 3.01248 0
M  V30 3255 O 299.348 3.37575 2.79239 0
M  V30 3256 C 300.849 1.99852 3.95694 0
M  V30 3257 H 298.069 0.431599 0.513773 0
M  V30 3258 H 300.613 1.73901 1.07604 0
M  V30 3259 H 298.768 1.54668 3.55185 0
M  V30 3260 H 299.182 3.75776 3.65914 0
M  V30 3261 H 300.656 2.56709 4.88676 0
M  V30 3262 H 301.133 0.982852 4.28062 0
M  V30 3263 H 301.739 2.44926 3.47694 0
M  V30 3264 N 300.054 -1.07777 1.14986 0
M  V30 3265 C 301.301 -1.8029 0.922056 0
M  V30 3266 C 301.629 -1.86531 -0.55105 0
M  V30 3267 O 300.884 -1.34189 -1.42449 0
M  V30 3268 C 301.183 -3.25495 1.47608 0
M  V30 3269 C 300.849 -3.39361 2.96893 0
M  V30 3270 C 299.511 -3.42852 3.37647 0
M  V30 3271 C 301.863 -3.42512 3.92854 0
M  V30 3272 C 299.191 -3.47094 4.73015 0
M  V30 3273 C 301.543 -3.4829 5.28088 0
M  V30 3274 C 300.207 -3.50058 5.68345 0
M  V30 3275 H 299.477 -0.659727 0.337404 0
M  V30 3276 H 302.124 -1.26854 1.43459 0
M  V30 3277 H 300.429 -3.81683 0.88463 0
M  V30 3278 H 302.126 -3.80168 1.27568 0
M  V30 3279 H 298.716 -3.37339 2.64387 0
M  V30 3280 H 302.9 -3.3904 3.62444 0
M  V30 3281 H 298.156 -3.46758 5.03556 0
M  V30 3282 H 302.33 -3.49675 6.02246 0
M  V30 3283 H 299.957 -3.53097 6.73221 0
M  V30 3284 N 301.532 -0.945985 -1.26051 0
M  V30 3285 C 302.462 -0.477172 -2.28572 0
M  V30 3286 C 303.443 0.472032 -1.63419 0
M  V30 3287 O 304.628 0.372853 -1.90587 0
M  V30 3288 C 301.758 0.253975 -3.4637 0
M  V30 3289 C 300.712 -0.609135 -4.23643 0
M  V30 3290 C 300.038 0.252252 -5.34105 0
M  V30 3291 C 301.338 -1.8829 -4.8718 0
M  V30 3292 H 303.032 -1.33402 -2.68038 0
M  V30 3293 H 300.578 -0.642904 -1.28852 0
M  V30 3294 H 302.531 0.593016 -4.17207 0
M  V30 3295 H 301.255 1.145 -3.05871 0
M  V30 3296 H 299.914 -0.931138 -3.54578 0
M  V30 3297 H 299.562 1.14278 -4.89846 0
M  V30 3298 H 299.262 -0.32188 -5.86718 0
M  V30 3299 H 300.786 0.586454 -6.07777 0
M  V30 3300 H 302.2 -1.61081 -5.50205 0
M  V30 3301 H 300.597 -2.40199 -5.49931 0
M  V30 3302 H 301.667 -2.59134 -4.09851 0
M  V30 3303 N 303.011 1.40521 -0.713556 0
M  V30 3304 C 304.258 2.00923 -0.25219 0
M  V30 3305 C 304.586 1.56571 1.15395 0
M  V30 3306 O 303.841 0.775874 1.79663 0
M  V30 3307 C 304.14 3.56317 -0.278 0
M  V30 3308 C 303.806 4.20246 -1.63415 0
M  V30 3309 C 302.468 4.37422 -2.00538 0
M  V30 3310 C 304.82 4.55923 -2.52554 0
M  V30 3311 C 302.148 4.87558 -3.2635 0
M  V30 3312 C 304.5 5.07458 -3.77716 0
M  V30 3313 C 303.164 5.22843 -4.14959 0
M  V30 3314 H 302.434 0.735231 -0.0922829 0
M  V30 3315 H 305.081 1.68161 -0.916188 0
M  V30 3316 H 303.386 3.88976 0.469567 0
M  V30 3317 H 305.083 4.00883 0.0967819 0
M  V30 3318 H 301.673 4.07263 -1.33546 0
M  V30 3319 H 305.857 4.42291 -2.25149 0
M  V30 3320 H 301.113 4.97654 -3.55176 0
M  V30 3321 H 305.287 5.34041 -4.4696 0
M  V30 3322 H 302.914 5.61454 -5.12516 0
M  V30 3323 N 304.489 0.459591 1.5075 0
M  V30 3324 C 305.436 -0.340524 2.28274 0
M  V30 3325 C 306.406 -0.997371 1.32822 0
M  V30 3326 O 307.591 -1.01202 1.61749 0
M  V30 3327 C 304.731 -1.42317 3.14388 0
M  V30 3328 C 303.844 -0.782251 4.24859 0
M  V30 3329 C 302.979 -1.84182 4.98247 0
M  V30 3330 C 302.018 -1.18053 6.00608 0
M  V30 3331 N 301.155 -2.18244 6.67319 0
M  V30 3332 H 305.995 0.326899 2.96202 0
M  V30 3333 H 303.532 0.173057 1.46078 0
M  V30 3334 H 305.49 -2.06241 3.62658 0
M  V30 3335 H 304.12 -2.05992 2.4853 0
M  V30 3336 H 303.172 -0.0307404 3.80388 0
M  V30 3337 H 304.484 -0.259663 4.98124 0
M  V30 3338 H 303.638 -2.55714 5.50177 0
M  V30 3339 H 302.377 -2.39819 4.24662 0
M  V30 3340 H 301.382 -0.450776 5.47949 0
M  V30 3341 H 302.607 -0.631202 6.7616 0
M  V30 3342 H 300.553 -2.72919 5.96533 0
M  V30 3343 H 300.47 -1.70938 7.36421 0
M  V30 3344 H 301.738 -2.89191 7.23871 0
M  V30 3345 N 305.967 -1.56429 0.191757 0
M  V30 3346 C 307.213 -1.98541 -0.441943 0
M  V30 3347 C 307.568 -1.07646 -1.59468 0
M  V30 3348 O 306.861 -0.120191 -1.91223 0
M  V30 3349 C 307.055 -3.44449 -0.953384 0
M  V30 3350 C 306.884 -4.49456 0.148262 0
M  V30 3351 C 305.654 -5.01668 0.604781 0
M  V30 3352 C 307.852 -5.05336 0.95602 0
M  V30 3353 N 305.834 -5.90334 1.6846 0
M  V30 3354 C 307.205 -5.9064 1.88531 0
M  V30 3355 C 309.26 -4.87779 0.998811 0
M  V30 3356 C 307.963 -6.60264 2.85383 0
M  V30 3357 C 309.989 -5.58139 1.95537 0
M  V30 3358 C 309.351 -6.43187 2.8721 0
M  V30 3359 H 305.45 -0.771247 -0.129236 0
M  V30 3360 H 308.034 -1.92426 0.296682 0
M  V30 3361 H 306.205 -3.5107 -1.66146 0
M  V30 3362 H 307.937 -3.73533 -1.55741 0
M  V30 3363 H 304.692 -4.73183 0.198736 0
M  V30 3364 H 305.116 -6.39371 2.22561 0
M  V30 3365 H 309.758 -4.21705 0.304048 0
M  V30 3366 H 307.476 -7.25538 3.55837 0
M  V30 3367 H 311.062 -5.46532 1.99484 0
M  V30 3368 H 309.942 -6.96674 3.60022 0
M  V30 3369 N 307.445 0.0818655 -1.57387 0
M  V30 3370 C 308.691 0.778884 -1.87896 0
M  V30 3371 C 309.046 1.75692 -0.784229 0
M  V30 3372 O 308.339 1.90417 0.212567 0
M  V30 3373 C 308.533 1.53513 -3.22752 0
M  V30 3374 C 308.362 0.631838 -4.45239 0
M  V30 3375 C 307.132 0.272571 -5.04564 0
M  V30 3376 C 309.33 -0.0670191 -5.14256 0
M  V30 3377 N 307.312 -0.637498 -6.10581 0
M  V30 3378 C 308.683 -0.834653 -6.14356 0
M  V30 3379 C 310.738 -0.139551 -4.97704 0
M  V30 3380 C 309.441 -1.66806 -6.99691 0
M  V30 3381 C 311.467 -0.959903 -5.83558 0
M  V30 3382 C 310.829 -1.71561 -6.83188 0
M  V30 3383 H 306.928 0.260764 -0.737242 0
M  V30 3384 H 309.512 0.0408227 -1.94657 0
M  V30 3385 H 307.683 2.24398 -3.17018 0
M  V30 3386 H 309.415 2.18038 -3.40942 0
M  V30 3387 H 306.17 0.62319 -4.69482 0
M  V30 3388 H 306.594 -1.08548 -6.68241 0
M  V30 3389 H 311.236 0.430376 -4.20604 0
M  V30 3390 H 308.954 -2.249 -7.76174 0
M  V30 3391 H 312.54 -1.01887 -5.72809 0
M  V30 3392 H 311.42 -2.34017 -7.48469 0
M  V30 3393 N 308.923 1.53595 0.353017 0
M  V30 3394 C 310.2 1.61002 1.11075 0
M  V30 3395 C 310.58 0.425356 2.0677 0
M  V30 3396 O 309.928 -0.583267 2.2093 0
M  V30 3397 C 310.138 2.96631 1.83877 0
M  V30 3398 C 311.486 3.51653 2.37961 0
M  V30 3399 O 312.51 2.98743 1.93987 0
M  V30 3400 O 311.369 4.44177 3.18386 0
M  V30 3401 H 308.463 0.650825 0.510251 0
M  V30 3402 H 311.009 1.6594 0.35527 0
M  V30 3403 H 309.781 3.74293 1.14108 0
M  V30 3404 H 309.404 2.95242 2.66304 0
M  V30 3405 N 310.401 -0.613514 1.45168 0
M  V30 3406 C 311.349 -1.74572 1.53712 0
M  V30 3407 C 312.343 -1.64426 0.407505 0
M  V30 3408 O 313.549 -1.70291 0.583176 0
M  V30 3409 H 309.924 -0.576641 0.48269 0
M  V30 3410 H 311.895 -1.64492 2.48968 0
M  V30 3411 C 310.644 -3.12943 1.51532 0
M  V30 3412 H 309.967 -3.21407 2.37776 0
M  V30 3413 H 311.407 -3.9201 1.61569 0
M  V30 3414 C 309.866 -3.36053 0.238798 0
M  V30 3415 O 310.396 -3.95837 -0.6838 0
M  V30 3416 N 308.602 -2.9028 0.136359 0
M  V30 3417 H 308.149 -2.41811 0.887999 0
M  V30 3418 H 308.107 -3.06116 -0.716944 0
M  V30 3419 N 311.879 -1.3236 -0.855495 0
M  V30 3420 C 312.809 -1.23833 -1.97958 0
M  V30 3421 C 313.79 -0.122361 -1.69659 0
M  V30 3422 O 314.975 -0.30939 -1.9172 0
M  V30 3423 C 312.105 -0.959772 -3.33775 0
M  V30 3424 C 311.059 -2.03689 -3.76424 0
M  V30 3425 C 310.385 -1.61075 -5.09862 0
M  V30 3426 C 311.685 -3.4518 -3.9198 0
M  V30 3427 H 313.379 -2.1788 -2.0535 0
M  V30 3428 H 310.925 -1.04891 -0.986605 0
M  V30 3429 H 312.878 -0.886678 -4.11966 0
M  V30 3430 H 311.602 0.0163404 -3.26596 0
M  V30 3431 H 310.261 -2.10012 -3.00484 0
M  V30 3432 H 309.909 -0.622107 -4.99138 0
M  V30 3433 H 309.609 -2.33143 -5.39368 0
M  V30 3434 H 311.133 -1.55201 -5.90546 0
M  V30 3435 H 312.547 -3.4145 -4.60526 0
M  V30 3436 H 310.944 -4.1559 -4.32903 0
M  V30 3437 H 312.014 -3.84903 -2.94919 0
M  V30 3438 N 313.357 1.07166 -1.15556 0
M  V30 3439 C 314.305 2.16517 -0.8499 0
M  V30 3440 C 315.299 1.68468 0.177454 0
M  V30 3441 O 316.505 1.79971 0.0323026 0
M  V30 3442 H 312.88 0.706652 -0.25719 0
M  V30 3443 H 314.851 2.39514 -1.77976 0
M  V30 3444 C 313.6 3.45855 -0.357682 0
M  V30 3445 H 312.923 3.83214 -1.13961 0
M  V30 3446 H 314.363 4.23607 -0.182489 0
M  V30 3447 C 312.822 3.24062 0.921152 0
M  V30 3448 O 313.352 3.48813 1.9923 0
M  V30 3449 N 311.558 2.77539 0.86141 0
M  V30 3450 H 311.105 2.57598 -0.0104408 0
M  V30 3451 H 311.063 2.63337 1.71758 0
M  V30 3452 N 314.835 0.952656 1.25548 0
M  V30 3453 C 315.785 0.442033 2.23674 0
M  V30 3454 C 316.769 -0.467632 1.53955 0
M  V30 3455 O 317.961 -0.301006 1.74422 0
M  V30 3456 C 315.09 -0.280816 3.4215 0
M  V30 3457 C 314.176 0.646803 4.19139 0
M  V30 3458 N 314.567 1.77759 4.73535 0
M  V30 3459 C 312.865 0.454617 4.43677 0
M  V30 3460 C 313.566 2.35658 5.31827 0
M  V30 3461 N 312.542 1.64333 5.18166 0
M  V30 3462 H 316.344 1.30505 2.63336 0
M  V30 3463 H 313.858 0.809904 1.40763 0
M  V30 3464 H 315.855 -0.663747 4.11582 0
M  V30 3465 H 314.515 -1.14046 3.04012 0
M  V30 3466 H 315.526 2.15949 4.7073 0
M  V30 3467 H 312.203 -0.362312 4.15925 0
M  V30 3468 H 313.593 3.30998 5.84713 0
M  V30 3469 N 316.313 -1.40141 0.720998 0
M  V30 3470 C 317.243 -2.33339 0.0867621 0
M  V30 3471 C 318.224 -1.53178 -0.739622 0
M  V30 3472 O 319.409 -1.81625 -0.687449 0
M  V30 3473 C 316.539 -3.37194 -0.831728 0
M  V30 3474 C 315.493 -4.27857 -0.110558 0
M  V30 3475 C 314.819 -5.22294 -1.14513 0
M  V30 3476 C 316.119 -5.11872 1.0385 0
M  V30 3477 H 317.813 -2.86626 0.865219 0
M  V30 3478 H 315.359 -1.37814 0.417516 0
M  V30 3479 H 317.312 -4.01335 -1.28485 0
M  V30 3480 H 316.036 -2.82314 -1.64214 0
M  V30 3481 H 314.695 -3.65176 0.322797 0
M  V30 3482 H 314.343 -4.63717 -1.94874 0
M  V30 3483 H 314.043 -5.83797 -0.667446 0
M  V30 3484 H 315.567 -5.89312 -1.59824 0
M  V30 3485 H 316.981 -5.69436 0.664482 0
M  V30 3486 H 315.378 -5.82445 1.4449 0
M  V30 3487 H 316.448 -4.4753 1.86668 0
M  V30 3488 N 317.792 -0.46758 -1.50504 0
M  V30 3489 C 318.74 0.342482 -2.30065 0
M  V30 3490 C 319.734 0.993596 -1.37201 0
M  V30 3491 O 320.94 0.925102 -1.54408 0
M  V30 3492 H 317.315 0.129283 -0.740803 0
M  V30 3493 H 319.286 -0.34899 -2.96352 0
M  V30 3494 C 318.035 1.4139 -3.17654 0
M  V30 3495 H 317.358 0.922264 -3.89017 0
M  V30 3496 H 318.798 1.95335 -3.76325 0
M  V30 3497 C 317.257 2.4139 -2.35016 0
M  V30 3498 O 317.787 3.46586 -2.03079 0
M  V30 3499 N 315.993 2.13021 -1.97662 0
M  V30 3500 H 315.54 1.27499 -2.23834 0
M  V30 3501 H 315.498 2.80164 -1.42673 0
M  V30 3502 N 319.27 1.56325 -0.20005 0
M  V30 3503 C 320.202 2.16555 0.750771 0
M  V30 3504 C 321.215 1.12871 1.1732 0
M  V30 3505 O 322.404 1.39943 1.10807 0
M  V30 3506 C 319.504 2.71684 2.02586 0
M  V30 3507 C 318.677 4.00321 1.76244 0
M  V30 3508 C 317.736 4.40227 2.88248 0
M  V30 3509 O 316.762 5.07552 2.57642 0
M  V30 3510 N 317.964 4.04138 4.16717 0
M  V30 3511 H 320.729 2.98772 0.235685 0
M  V30 3512 H 318.29 1.6189 -0.0182594 0
M  V30 3513 H 320.282 2.95363 2.76664 0
M  V30 3514 H 318.852 1.93893 2.45202 0
M  V30 3515 H 318.072 3.84723 0.85919 0
M  V30 3516 H 319.36 4.84279 1.56048 0
M  V30 3517 H 318.758 3.49993 4.44434 0
M  V30 3518 H 317.315 4.32756 4.87407 0
M  V30 3519 N 320.748 -0.0735177 1.57428 0
M  V30 3520 C 321.995 -0.772999 1.87166 0
M  V30 3521 C 322.323 -1.77665 0.791551 0
M  V30 3522 O 321.578 -1.94541 -0.212636 0
M  V30 3523 C 321.877 -1.51799 3.23561 0
M  V30 3524 C 321.543 -0.654484 4.46125 0
M  V30 3525 C 320.205 -0.416511 4.79394 0
M  V30 3526 C 322.557 -0.0555862 5.2117 0
M  V30 3527 C 319.885 0.429869 5.85123 0
M  V30 3528 C 322.237 0.778239 6.27795 0
M  V30 3529 C 320.901 1.0261 6.59566 0
M  V30 3530 H 320.171 -0.282861 0.684888 0
M  V30 3531 H 322.818 -0.0338272 1.9147 0
M  V30 3532 H 321.123 -2.32932 3.1504 0
M  V30 3533 H 322.82 -2.06397 3.43804 0
M  V30 3534 H 319.41 -0.850091 4.20085 0
M  V30 3535 H 323.594 -0.226558 4.95783 0
M  V30 3536 H 318.85 0.630665 6.08139 0
M  V30 3537 H 323.024 1.24906 6.85107 0
M  V30 3538 H 320.651 1.68371 7.4132 0
M  V30 3539 N 322.226 -1.5378 -0.344866 0
M  V30 3540 C 323.472 -1.71216 -1.08687 0
M  V30 3541 C 323.805 -0.473281 -1.88345 0
M  V30 3542 O 323.08 0.52968 -1.87149 0
M  V30 3543 C 323.363 -2.97486 -2.02914 0
M  V30 3544 C 323.216 -4.31579 -1.26727 0
M  V30 3545 C 324.535 -3.19422 -3.0275 0
M  V30 3546 H 321.654 -0.62301 -0.393735 0
M  V30 3547 H 324.296 -1.8645 -0.365563 0
M  V30 3548 H 322.446 -2.84629 -2.64421 0
M  V30 3549 H 324.118 -4.56284 -0.67845 0
M  V30 3550 H 322.361 -4.30049 -0.569273 0
M  V30 3551 H 323.032 -5.16106 -1.95803 0
M  V30 3552 H 325.508 -3.316 -2.51357 0
M  V30 3553 H 324.384 -4.09169 -3.65885 0
M  V30 3554 H 324.645 -2.35656 -3.74057 0
M  V30 3555 N 323.704 0.605807 -1.45491 0
M  V30 3556 C 324.981 1.36522 -1.40075 0
M  V30 3557 C 325.361 2.10976 -0.0722744 0
M  V30 3558 O 324.709 2.08007 0.945808 0
M  V30 3559 C 324.919 2.31056 -2.61561 0
M  V30 3560 C 326.267 2.93608 -3.06724 0
M  V30 3561 O 327.291 2.41376 -2.61946 0
M  V30 3562 O 326.15 3.88421 -3.84437 0
M  V30 3563 H 323.244 0.612248 -0.555951 0
M  V30 3564 H 325.79 0.628747 -1.57623 0
M  V30 3565 H 324.562 1.75311 -3.49831 0
M  V30 3566 H 324.185 3.12081 -2.46356 0
M  V30 3567 N 325.182 1.32811 0.848464 0
M  V30 3568 C 326.132 1.18842 1.94578 0
M  V30 3569 C 327.116 0.0937517 1.60627 0
M  V30 3570 O 328.308 0.320887 1.74067 0
M  V30 3571 C 325.437 0.91999 3.30743 0
M  V30 3572 C 324.523 2.05665 3.70894 0
M  V30 3573 N 324.914 3.30579 3.8282 0
M  V30 3574 C 323.212 1.9612 4.00566 0
M  V30 3575 C 323.913 4.05067 4.17487 0
M  V30 3576 N 322.889 3.33419 4.2934 0
M  V30 3577 H 326.691 2.13536 2.0194 0
M  V30 3578 H 324.205 1.2468 1.0406 0
M  V30 3579 H 326.202 0.800859 4.09136 0
M  V30 3580 H 324.862 -0.0185076 3.24695 0
M  V30 3581 H 325.873 3.65441 3.66978 0
M  V30 3582 H 322.55 1.09871 4.02784 0
M  V30 3583 H 323.94 5.12815 4.34131 0
M  V30 3584 N 326.66 -1.06551 1.16123 0
M  V30 3585 C 327.57 -2.17484 0.879662 0
M  V30 3586 C 328.586 -1.73377 -0.147104 0
M  V30 3587 O 329.762 -2.01379 0.0289128 0
M  V30 3588 C 326.827 -3.44591 0.381829 0
M  V30 3589 C 325.888 -4.0322 1.4735 0
M  V30 3590 C 325.121 -5.24261 0.999324 0
M  V30 3591 O 325.344 -5.70198 -0.151957 0
M  V30 3592 O 324.278 -5.74775 1.78653 0
M  V30 3593 H 328.104 -2.44075 1.80724 0
M  V30 3594 H 325.689 -1.16042 0.940992 0
M  V30 3595 H 327.571 -4.21254 0.111053 0
M  V30 3596 H 326.246 -3.19532 -0.51777 0
M  V30 3597 H 325.153 -3.2806 1.79798 0
M  V30 3598 H 326.486 -4.32568 2.34831 0
M  V30 3599 N 328.138 -0.959301 -1.25041 0
M  V30 3600 C 329.085 -0.482057 -2.2571 0
M  V30 3601 C 330.055 0.467939 -1.59372 0
M  V30 3602 O 331.24 0.380159 -1.86974 0
M  V30 3603 C 328.38 0.229623 -3.44335 0
M  V30 3604 C 327.493 -0.758156 -4.25295 0
M  V30 3605 C 326.628 -0.0234403 -5.31195 0
M  V30 3606 C 325.667 -1.00184 -6.03846 0
M  V30 3607 N 324.804 -0.29769 -7.01469 0
M  V30 3608 H 329.644 -1.34538 -2.65901 0
M  V30 3609 H 327.181 -0.674592 -1.3072 0
M  V30 3610 H 329.139 0.658856 -4.11965 0
M  V30 3611 H 327.769 1.05696 -3.05005 0
M  V30 3612 H 326.821 -1.30586 -3.57284 0
M  V30 3613 H 328.133 -1.50458 -4.75567 0
M  V30 3614 H 327.287 0.464201 -6.04922 0
M  V30 3615 H 326.026 0.755741 -4.81809 0
M  V30 3616 H 325.031 -1.50044 -5.2893 0
M  V30 3617 H 326.256 -1.78133 -6.55321 0
M  V30 3618 H 324.202 0.462668 -6.54366 0
M  V30 3619 H 324.119 -0.983128 -7.4958 0
M  V30 3620 H 325.387 0.16826 -7.79318 0
M  V30 3621 N 329.616 1.39756 -0.72842 0
M  V30 3622 C 330.865 1.99879 -0.270407 0
M  V30 3623 C 331.178 1.58449 1.14688 0
M  V30 3624 O 332.384 2.11362 1.70407 0
M  V30 3625 C 330.84 3.57292 -0.43252 0
M  V30 3626 C 330.448 4.07688 -1.85727 0
M  V30 3627 C 332.192 4.24485 -0.0359507 0
M  V30 3628 C 330.099 5.5765 -1.96928 0
M  V30 3629 H 329.029 0.747689 -0.0973472 0
M  V30 3630 H 331.68 1.59837 -0.901355 0
M  V30 3631 H 330.062 3.95097 0.267219 0
M  V30 3632 H 331.236 3.81231 -2.58843 0
M  V30 3633 H 329.551 3.53135 -2.20646 0
M  V30 3634 H 332.148 5.34609 -0.0987484 0
M  V30 3635 H 332.491 4.03915 1.00787 0
M  V30 3636 H 333.024 3.9183 -0.686604 0
M  V30 3637 H 329.763 5.8309 -2.99476 0
M  V30 3638 H 329.283 5.8593 -1.28241 0
M  V30 3639 H 330.962 6.22957 -1.74737 0
M  V30 3640 N 331.094 0.475555 1.50254 0
M  V30 3641 C 332.324 -0.0753399 2.06463 0
M  V30 3642 C 332.732 -1.33661 1.33908 0
M  V30 3643 O 332.075 -1.79219 0.403257 0
M  V30 3644 C 332.137 -0.424921 3.5698 0
M  V30 3645 C 331.801 0.734965 4.51051 0
M  V30 3646 C 332.798 1.61827 4.94073 0
M  V30 3647 C 330.483 0.926557 4.9368 0
M  V30 3648 C 332.477 2.67754 5.78434 0
M  V30 3649 C 330.164 1.98904 5.77824 0
M  V30 3650 C 331.162 2.8629 6.20103 0
M  V30 3651 O 330.85 3.90708 7.02568 0
M  V30 3652 H 330.582 0.00576308 0.675975 0
M  V30 3653 H 333.136 0.664662 1.94349 0
M  V30 3654 H 331.366 -1.21817 3.67012 0
M  V30 3655 H 333.055 -0.911422 3.95535 0
M  V30 3656 H 333.821 1.48196 4.61804 0
M  V30 3657 H 329.7 0.25584 4.6029 0
M  V30 3658 H 333.244 3.35992 6.11355 0
M  V30 3659 H 329.141 2.12541 6.09505 0
M  V30 3660 H 329.909 3.87751 7.20827 0
M  V30 3661 N 332.573 -1.56217 0.208337 0
M  V30 3662 C 333.989 -1.58919 -0.14729 0
M  V30 3663 C 334.189 -1.22486 -1.59998 0
M  V30 3664 O 333.245 -0.953849 -2.3379 0
M  V30 3665 C 334.558 -3.00236 0.167048 0
M  V30 3666 C 336.106 -3.12813 0.108219 0
M  V30 3667 C 336.581 -4.56284 0.396049 0
M  V30 3668 N 338.072 -4.61912 0.345142 0
M  V30 3669 C 338.807 -5.70837 0.541523 0
M  V30 3670 N 338.303 -6.88178 0.798968 0
M  V30 3671 N 340.096 -5.60091 0.474867 0
M  V30 3672 H 332.247 -1.78177 1.15614 0
M  V30 3673 H 334.51 -0.827555 0.462446 0
M  V30 3674 H 334.216 -3.31499 1.1748 0
M  V30 3675 H 334.09 -3.7354 -0.524184 0
M  V30 3676 H 336.477 -2.81354 -0.890157 0
M  V30 3677 H 336.558 -2.41866 0.832729 0
M  V30 3678 H 336.202 -4.88458 1.3918 0
M  V30 3679 H 336.132 -5.25439 -0.349502 0
M  V30 3680 H 338.623 -3.77589 0.153316 0
M  V30 3681 H 338.936 -7.67095 0.93727 0
M  V30 3682 H 337.281 -6.89953 0.836013 0
M  V30 3683 H 340.472 -4.67297 0.274064 0
M  V30 3684 H 340.645 -6.44917 0.631326 0
M  V30 3685 N 334.051 0.0651679 -1.57465 0
M  V30 3686 C 334.984 1.10876 -1.99453 0
M  V30 3687 C 335.962 1.37205 -0.872555 0
M  V30 3688 O 337.146 1.50468 -1.13542 0
M  V30 3689 C 334.273 2.45167 -2.3369 0
M  V30 3690 C 333.319 2.3493 -3.55964 0
M  V30 3691 S 334.152 1.73708 -5.06543 0
M  V30 3692 C 335.308 3.09563 -5.43987 0
M  V30 3693 H 335.541 0.750967 -2.87659 0
M  V30 3694 H 333.074 0.273933 -1.51951 0
M  V30 3695 H 335.032 3.22412 -2.54088 0
M  V30 3696 H 333.693 2.78105 -1.46001 0
M  V30 3697 H 332.886 3.3398 -3.77457 0
M  V30 3698 H 332.488 1.65823 -3.3523 0
M  V30 3699 H 334.78 4.05882 -5.42463 0
M  V30 3700 H 335.723 2.92843 -6.44708 0
M  V30 3701 H 336.131 3.10474 -4.71451 0
M  V30 3702 O 335.568 1.60146 0.208664 0
M  V30 3703 H 336.259 1.74115 0.848742 0
M  V30 END ATOM
M  V30 BEGIN BOND
M  V30 END BOND
M  V30 END CTAB
M  END
$$$$
