drugbank_target|Q13464 Rho-associated protein kinase 1 (DB04707; DB07876; DB08162; DB08756; DB13165; DB13931)
 OpenBabel12092119453D

  0  0  0     0  0            999 V3000
M  V30 BEGIN CTAB
M  V30 COUNTS 22111 22272 0 0 0
M  V30 BEGIN ATOM
M  V30 1 H -0.908 1.98254 -0.117106 0
M  V30 2 N 0 1.576 0 0
M  V30 3 C 0.933 2.03868 1.02534 0
M  V30 4 C 1.911 0.928543 1.3348 0
M  V30 5 O 3.095 1.19667 1.45644 0
M  V30 6 C 0.222 2.43627 2.35294 0
M  V30 7 C -0.732 3.65373 2.2001 0
M  V30 8 S 0.101 5.13292 1.52614 0
M  V30 9 C 1.257 5.56322 2.86805 0
M  V30 10 H 1.49 2.90518 0.631377 0
M  V30 11 H -0.977 1.52953 0.210867 0
M  V30 12 H 0.981 2.67203 3.11629 0
M  V30 13 H -0.358 1.57376 2.7183 0
M  V30 14 H -1.165 3.90944 3.18086 0
M  V30 15 H -1.563 3.418 1.51819 0
M  V30 16 H 0.729 5.58782 3.83104 0
M  V30 17 H 1.672 6.56266 2.65933 0
M  V30 18 H 2.08 4.83886 2.90714 0
M  V30 19 N 1.4781 -0.272755 1.55222 0
M  V30 20 C 2.7031 -1.02683 1.80197 0
M  V30 21 C 3.1281 -1.79142 0.573551 0
M  V30 22 O 2.4861 -1.74917 -0.476849 0
M  V30 23 C 2.5341 -1.9609 3.02624 0
M  V30 24 O 1.6381 -3.04863 2.77727 0
M  V30 25 H 0.9791 -0.293557 0.595584 0
M  V30 26 H 3.5091 -0.30159 2.02365 0
M  V30 27 H 3.5191 -2.38039 3.31363 0
M  V30 28 H 2.1941 -1.39851 3.91682 0
M  V30 29 H 0.7711 -2.67228 2.60084 0
M  V30 30 N 2.9562 -1.48159 -0.537278 0
M  V30 31 C 4.1842 -1.59454 -1.31841 0
M  V30 32 C 4.5992 -0.252065 -1.8711 0
M  V30 33 O 3.9562 0.757621 -1.66031 0
M  V30 34 C 4.0072 -2.63546 -2.47439 0
M  V30 35 O 3.7282 -3.92583 -1.94449 0
M  V30 36 C 5.2292 -2.85212 -3.39366 0
M  V30 37 H 2.4492 -0.53785 -0.401196 0
M  V30 38 H 4.9932 -1.93932 -0.648891 0
M  V30 39 H 3.1482 -2.31946 -3.1029 0
M  V30 40 H 3.5622 -4.49629 -2.70063 0
M  V30 41 H 5.0362 -3.61863 -4.16844 0
M  V30 42 H 5.5132 -1.93765 -3.94147 0
M  V30 43 H 6.1192 -3.18086 -2.82314 0
M  V30 44 N 4.4343 0.785586 -1.36625 0
M  V30 45 C 5.6823 1.54057 -1.30808 0
M  V30 46 C 6.0033 1.94683 0.111157 0
M  V30 47 O 5.2733 1.65241 1.05224 0
M  V30 48 H 3.8533 0.571354 -0.481211 0
M  V30 49 H 6.5153 0.935821 -1.70963 0
M  V30 50 H 5.6113 2.44637 -1.93801 0
M  V30 51 N 5.9124 1.20967 1.01018 0
M  V30 52 C 7.1894 0.93264 1.71934 0
M  V30 53 C 7.5694 -0.55692 2.03621 0
M  V30 54 O 6.9174 -1.52035 1.7058 0
M  V30 55 C 7.1274 1.81233 2.98254 0
M  V30 56 C 8.4754 2.05804 3.71389 0
M  V30 57 O 9.4994 1.78539 3.08225 0
M  V30 58 O 8.3584 2.51888 4.84989 0
M  V30 59 H 5.4524 0.349272 0.749625 0
M  V30 60 H 7.9984 1.31871 1.06808 0
M  V30 61 H 6.7704 2.82067 2.71208 0
M  V30 62 H 6.3934 1.42674 3.7112 0
M  V30 63 N 7.3905 -1.2043 1.01659 0
M  V30 64 C 8.6155 -1.94318 0.724942 0
M  V30 65 C 9.0405 -1.74266 -0.708034 0
M  V30 66 O 8.3985 -1.03694 -1.48719 0
M  V30 67 C 8.4465 -3.44486 1.06591 0
M  V30 68 O 7.5505 -4.12017 0.177599 0
M  V30 69 H 6.8915 -0.60708 0.26898 0
M  V30 70 H 9.4215 -1.52861 1.35995 0
M  V30 71 H 9.4315 -3.95106 1.01762 0
M  V30 72 H 8.1065 -3.58404 2.10997 0
M  V30 73 H 6.6835 -3.71821 0.283421 0
M  V30 74 N 8.8686 -0.792821 -1.36206 0
M  V30 75 C 10.1156 -0.366786 -1.99151 0
M  V30 76 C 10.4436 1.06243 -1.62919 0
M  V30 77 O 9.6986 1.74927 -0.877442 0
M  V30 78 C 9.9976 -0.481501 -3.54142 0
M  V30 79 C 9.6636 -1.87202 -4.10203 0
M  V30 80 C 8.3256 -2.25248 -4.25226 0
M  V30 81 C 10.6776 -2.78237 -4.40719 0
M  V30 82 C 8.0056 -3.53723 -4.68078 0
M  V30 83 C 10.3576 -4.06144 -4.85005 0
M  V30 84 C 9.0216 -4.44207 -4.98234 0
M  V30 85 H 8.2916 -0.134217 -0.728743 0
M  V30 86 H 10.9386 -1.01094 -1.62641 0
M  V30 87 H 9.2436 0.246146 -3.91026 0
M  V30 88 H 10.9406 -0.132844 -4.0078 0
M  V30 89 H 7.5306 -1.56639 -3.98951 0
M  V30 90 H 11.7146 -2.50097 -4.28679 0
M  V30 91 H 6.9706 -3.8308 -4.76508 0
M  V30 92 H 11.1446 -4.76796 -5.07581 0
M  V30 93 H 8.7716 -5.43814 -5.31197 0
M  V30 94 N 10.3467 1.47872 -0.545128 0
M  V30 95 C 11.2567 2.33633 0.212746 0
M  V30 96 C 12.2727 1.4744 0.923983 0
M  V30 97 O 13.4487 1.80393 0.895572 0
M  V30 98 C 10.5137 3.23884 1.23693 0
M  V30 99 C 9.5747 4.25961 0.534417 0
M  V30 100 C 8.8077 5.11899 1.5098 0
M  V30 101 O 9.0307 5.00077 2.7437 0
M  V30 102 O 7.9647 5.92831 1.0409 0
M  V30 103 H 11.7907 2.99714 -0.490416 0
M  V30 104 H 9.3757 1.46235 -0.305871 0
M  V30 105 H 11.2577 3.79666 1.82843 0
M  V30 106 H 9.9327 2.60446 1.92222 0
M  V30 107 H 8.8397 3.73972 -0.0979679 0
M  V30 108 H 10.1727 4.92079 -0.109213 0
M  V30 109 N 11.8248 0.280983 1.55075 0
M  V30 110 C 13.0528 -0.337293 2.04132 0
M  V30 111 C 13.4678 -1.4903 1.15912 0
M  V30 112 O 12.8248 -1.81606 0.180459 0
M  V30 113 C 12.8758 -0.812706 3.52246 0
M  V30 114 O 12.5968 0.294387 4.3711 0
M  V30 115 C 14.0978 -1.4982 4.17216 0
M  V30 116 H 11.3178 -0.0761638 0.666663 0
M  V30 117 H 13.8618 0.414787 2.00249 0
M  V30 118 H 12.0168 -1.51486 3.56554 0
M  V30 119 H 12.4308 -0.0721325 5.2445 0
M  V30 120 H 13.9048 -1.7822 5.22438 0
M  V30 121 H 14.3818 -2.43168 3.65741 0
M  V30 122 H 14.9878 -0.839742 4.16927 0
M  V30 123 N 13.3029 -1.57598 0.00835791 0
M  V30 124 C 14.7189 -1.55764 -0.347822 0
M  V30 125 C 14.9189 -1.01186 -1.74252 0
M  V30 126 O 13.9749 -0.649371 -2.44007 0
M  V30 127 C 15.2879 -2.99927 -0.215407 0
M  V30 128 C 16.8359 -3.11656 -0.289725 0
M  V30 129 C 17.3109 -4.57621 -0.18634 0
M  V30 130 N 18.8019 -4.62557 -0.243978 0
M  V30 131 C 19.5369 -5.73094 -0.18745 0
M  V30 132 N 19.0329 -6.92753 -0.0810331 0
M  V30 133 N 20.8259 -5.61588 -0.239925 0
M  V30 134 H 12.9769 -1.91411 0.92062 0
M  V30 135 H 15.2399 -0.879562 0.353659 0
M  V30 136 H 14.9459 -3.43729 0.744512 0
M  V30 137 H 14.8199 -3.63865 -0.994097 0
M  V30 138 H 17.2069 -2.67779 -1.24009 0
M  V30 139 H 17.2879 -2.5048 0.51898 0
M  V30 140 H 16.9319 -5.02174 0.760519 0
M  V30 141 H 16.8619 -5.16752 -1.01364 0
M  V30 142 H 19.3529 -3.76481 -0.327217 0
M  V30 143 H 19.6659 -7.72787 -0.0440241 0
M  V30 144 H 18.0109 -6.94984 -0.0465419 0
M  V30 145 H 21.2019 -4.66996 -0.321317 0
M  V30 146 H 21.3749 -6.47714 -0.192407 0
M  V30 147 N 14.781 0.264519 -1.55364 0
M  V30 148 C 16.028 0.994986 -1.7637 0
M  V30 149 C 16.356 1.85976 -0.5695 0
M  V30 150 O 15.611 1.90509 0.44776 0
M  V30 151 C 15.91 1.9004 -3.02687 0
M  V30 152 C 15.576 1.19243 -4.34847 0
M  V30 153 C 14.238 0.996709 -4.70764 0
M  V30 154 C 16.59 0.689296 -5.16622 0
M  V30 155 C 13.918 0.285261 -5.86006 0
M  V30 156 C 16.27 -0.00860079 -6.32599 0
M  V30 157 C 14.934 -0.215963 -6.67151 0
M  V30 158 H 14.204 0.364091 -0.645383 0
M  V30 159 H 16.851 0.266543 -1.89636 0
M  V30 160 H 15.156 2.69533 -2.84357 0
M  V30 161 H 16.853 2.46695 -3.16137 0
M  V30 162 H 13.443 1.3549 -4.06621 0
M  V30 163 H 17.627 0.828108 -4.89342 0
M  V30 164 H 12.883 0.113961 -6.11294 0
M  V30 165 H 17.057 -0.406186 -6.95214 0
M  V30 166 H 14.684 -0.769217 -7.56298 0
M  V30 167 N 16.2591 1.48442 0.529413 0
M  V30 168 C 17.1691 1.6569 1.66084 0
M  V30 169 C 18.1851 0.539432 1.65427 0
M  V30 170 O 19.3611 0.810572 1.84368 0
M  V30 171 C 16.4261 1.69315 3.02545 0
M  V30 172 C 15.4871 2.92694 3.14052 0
M  V30 173 C 14.7201 2.96137 4.44003 0
M  V30 174 O 14.9431 2.07973 5.31134 0
M  V30 175 O 13.8771 3.88312 4.59888 0
M  V30 176 H 17.7031 2.61483 1.54469 0
M  V30 177 H 15.2881 1.3185 0.702567 0
M  V30 178 H 17.1701 1.74217 3.83701 0
M  V30 179 H 15.8451 0.766966 3.14483 0
M  V30 180 H 14.7521 2.93324 2.32189 0
M  V30 181 H 16.0851 3.84699 3.0703 0
M  V30 182 N 17.7372 -0.778329 1.37039 0
M  V30 183 C 18.6842 -1.89139 1.32269 0
M  V30 184 C 19.6542 -1.65017 0.189387 0
M  V30 185 O 20.8392 -1.87024 0.377693 0
M  V30 186 C 17.9792 -3.26112 1.12894 0
M  V30 187 C 17.0922 -3.62233 2.35396 0
M  V30 188 C 16.2272 -4.8838 2.08946 0
M  V30 189 C 15.2662 -5.17212 3.2735 0
M  V30 190 N 14.4032 -6.34546 3.00492 0
M  V30 191 H 19.2432 -1.92552 2.27437 0
M  V30 192 H 16.7802 -0.941473 1.13025 0
M  V30 193 H 18.7382 -4.05116 0.996835 0
M  V30 194 H 17.3682 -3.22091 0.213758 0
M  V30 195 H 16.4202 -2.78265 2.5937 0
M  V30 196 H 17.7322 -3.79481 3.23721 0
M  V30 197 H 16.8862 -5.75274 1.92729 0
M  V30 198 H 15.6252 -4.73222 1.17949 0
M  V30 199 H 14.6302 -4.28796 3.44113 0
M  V30 200 H 15.8552 -5.34283 4.19188 0
M  V30 201 H 13.8012 -6.20759 2.12118 0
M  V30 202 H 13.7182 -6.52179 3.82358 0
M  V30 203 H 14.9862 -7.24394 2.87879 0
M  V30 204 N 19.2153 -1.21501 -1.00376 0
M  V30 205 C 20.1483 -0.918669 -2.08892 0
M  V30 206 C 21.1263 0.134277 -1.62045 0
M  V30 207 O 22.3103 0.00504255 -1.88499 0
M  V30 208 C 19.4373 -0.379645 -3.36566 0
M  V30 209 C 18.4833 -1.41559 -4.02323 0
M  V30 210 S 19.3163 -2.98521 -4.44574 0
M  V30 211 C 20.4723 -2.46228 -5.75433 0
M  V30 212 H 20.7053 -1.83761 -2.33707 0
M  V30 213 H 18.2383 -1.04489 -1.13673 0
M  V30 214 H 20.1963 -0.0752195 -4.10431 0
M  V30 215 H 18.8573 0.518008 -3.09799 0
M  V30 216 H 18.0503 -0.988076 -4.9422 0
M  V30 217 H 17.6523 -1.66815 -3.34737 0
M  V30 218 H 19.9443 -1.86791 -6.51241 0
M  V30 219 H 20.8873 -3.36572 -6.22997 0
M  V30 220 H 21.2953 -1.87894 -5.32312 0
M  V30 221 N 20.6934 1.19889 -1.02296 0
M  V30 222 C 21.9704 1.85148 -0.630832 0
M  V30 223 C 22.3504 1.91385 0.890782 0
M  V30 224 O 21.6984 1.42642 1.78509 0
M  V30 225 C 21.9084 3.24442 -1.28602 0
M  V30 226 C 23.2564 4.00663 -1.4055 0
M  V30 227 O 24.2804 3.33818 -1.24273 0
M  V30 228 O 23.1394 5.20387 -1.66913 0
M  V30 229 H 20.2334 0.797613 -0.218499 0
M  V30 230 H 22.7794 1.27427 -1.12074 0
M  V30 231 H 21.5514 3.14704 -2.32545 0
M  V30 232 H 21.1744 3.89802 -0.7836 0
M  V30 233 N 22.1715 0.800033 1.35784 0
M  V30 234 C 23.1195 0.193851 2.31791 0
M  V30 235 C 24.1135 -0.652744 1.56319 0
M  V30 236 O 25.3195 -0.546641 1.71499 0
M  V30 237 H 21.6945 0.04392 0.750716 0
M  V30 238 H 23.6655 1.01883 2.80468 0
M  V30 239 C 22.4145 -0.648338 3.41602 0
M  V30 240 H 21.7375 -0.00624665 3.998 0
M  V30 241 H 23.1775 -1.03898 4.11073 0
M  V30 242 C 21.6365 -1.8111 2.84079 0
M  V30 243 O 22.1665 -2.90825 2.77099 0
M  V30 244 N 20.3725 -1.62056 2.41218 0
M  V30 245 H 19.9195 -0.728123 2.47095 0
M  V30 246 H 19.8775 -2.40013 2.03079 0
M  V30 247 N 23.6496 -1.47581 0.552962 0
M  V30 248 C 24.5796 -2.32762 -0.185451 0
M  V30 249 C 25.5606 -1.43527 -0.912905 0
M  V30 250 O 26.7456 -1.72388 -0.894201 0
M  V30 251 C 23.8756 -3.25219 -1.21859 0
M  V30 252 C 22.8296 -4.23661 -0.607864 0
M  V30 253 C 22.1556 -5.05413 -1.74533 0
M  V30 254 C 23.4556 -5.20481 0.435582 0
M  V30 255 H 25.1496 -2.94749 0.525684 0
M  V30 256 H 22.6956 -1.41738 0.254251 0
M  V30 257 H 24.6486 -3.8365 -1.7433 0
M  V30 258 H 23.3726 -2.61279 -1.95961 0
M  V30 259 H 22.0316 -3.66451 -0.104489 0
M  V30 260 H 21.6796 -4.3788 -2.47529 0
M  V30 261 H 21.3796 -5.72059 -1.34249 0
M  V30 262 H 22.9036 -5.66701 -2.27338 0
M  V30 263 H 24.3176 -5.733 -0.00290157 0
M  V30 264 H 22.7146 -5.95305 0.757067 0
M  V30 265 H 23.7846 -4.66217 1.33303 0
M  V30 266 N 25.1277 -0.289203 -1.54924 0
M  V30 267 C 26.0577 0.58549 -2.2604 0
M  V30 268 C 27.0387 1.14753 -1.25562 0
M  V30 269 O 28.2237 1.17906 -1.54311 0
M  V30 270 C 25.3537 1.76305 -2.99222 0
M  V30 271 C 24.3077 1.33191 -4.06748 0
M  V30 272 C 23.6337 2.5937 -4.6758 0
M  V30 273 C 24.9337 0.471775 -5.20165 0
M  V30 274 H 26.6277 -0.00763532 -2.99399 0
M  V30 275 H 24.1737 -0.00511229 -1.43999 0
M  V30 276 H 26.1267 2.38097 -3.47689 0
M  V30 277 H 24.8507 2.38223 -2.23422 0
M  V30 278 H 23.5097 0.737121 -3.59113 0
M  V30 279 H 23.1577 3.19576 -3.88433 0
M  V30 280 H 22.8577 2.31228 -5.40192 0
M  V30 281 H 24.3817 3.21985 -5.18804 0
M  V30 282 H 25.7957 0.995056 -5.64599 0
M  V30 283 H 24.1927 0.284639 -5.99425 0
M  V30 284 H 25.2627 -0.506041 -4.82252 0
M  V30 285 N 26.6058 1.57591 -0.0167156 0
M  V30 286 C 28.0218 1.55946 0.339557 0
M  V30 287 C 28.2218 1.02109 1.73713 0
M  V30 288 O 27.2778 0.662303 2.43659 0
M  V30 289 C 28.5908 3.00037 0.199499 0
M  V30 290 C 30.1388 3.11805 0.273193 0
M  V30 291 C 30.6138 4.57713 0.162068 0
M  V30 292 N 32.1048 4.6268 0.219444 0
M  V30 293 C 32.8398 5.73185 0.157054 0
M  V30 294 N 32.3358 6.92786 0.0442936 0
M  V30 295 N 34.1288 5.61707 0.21014 0
M  V30 296 H 26.2798 1.90921 -0.930758 0
M  V30 297 H 28.5428 0.877674 -0.358319 0
M  V30 298 H 28.2488 3.4333 -0.76273 0
M  V30 299 H 28.1228 3.64387 0.974786 0
M  V30 300 H 30.5098 2.68433 1.22587 0
M  V30 301 H 30.5908 2.50201 -0.532256 0
M  V30 302 H 30.2348 5.01763 -0.78714 0
M  V30 303 H 30.1648 5.17283 0.986222 0
M  V30 304 H 32.6558 3.76649 0.307246 0
M  V30 305 H 32.9688 7.728 0.00304069 0
M  V30 306 H 31.3138 6.94999 0.00968457 0
M  V30 307 H 34.5048 4.6716 0.296546 0
M  V30 308 H 34.6778 6.47807 0.158054 0
M  V30 309 N 28.0839 -0.256276 1.55502 0
M  V30 310 C 29.3609 -1.00789 1.67633 0
M  V30 311 C 29.7409 -2.03706 0.553826 0
M  V30 312 O 29.0889 -2.24145 -0.443969 0
M  V30 313 C 29.2989 -1.64968 3.07549 0
M  V30 314 C 30.6469 -2.15505 3.65845 0
M  V30 315 O 31.6709 -1.74925 3.1029 0
M  V30 316 O 30.5299 -2.89986 4.63217 0
M  V30 317 H 27.6239 -0.468553 0.681459 0
M  V30 318 H 30.1699 -0.250806 1.67836 0
M  V30 319 H 28.9419 -0.904785 3.80696 0
M  V30 320 H 28.5649 -2.47321 3.11317 0
M  V30 321 N 29.562 -1.4872 -0.521534 0
M  V30 322 C 30.973 -1.50607 -1.10337 0
M  V30 323 C 31.324 -0.280612 -1.94183 0
M  V30 324 O 30.449 0.611507 -2.0758 0
M  V30 325 C 31.044 -2.72903 -2.00772 0
M  V30 326 C 29.603 -2.77634 -2.54158 0
M  V30 327 C 28.75 -2.44241 -1.31307 0
M  V30 328 H 31.701 -1.55714 -0.306388 0
M  V30 329 H 31.722 -2.519 -2.85178 0
M  V30 330 H 31.234 -3.62077 -1.39721 0
M  V30 331 H 29.335 -1.92689 -3.18907 0
M  V30 332 H 29.448 -3.79283 -2.92714 0
M  V30 333 H 27.812 -1.95577 -1.63161 0
M  V30 334 H 28.595 -3.35666 -0.719943 0
M  V30 335 N 31.0401 0.771051 -1.3745 0
M  V30 336 C 31.9871 1.88435 -1.3327 0
M  V30 337 C 32.9571 1.64914 -0.198136 0
M  V30 338 O 34.1421 1.86821 -0.387606 0
M  V30 339 C 31.2821 3.25509 -1.14622 0
M  V30 340 C 30.3951 3.60979 -2.37314 0
M  V30 341 C 29.5301 4.87265 -2.11533 0
M  V30 342 C 28.5691 5.15469 -3.30088 0
M  V30 343 N 27.7061 6.32944 -3.03853 0
M  V30 344 H 32.5461 1.91344 -2.28455 0
M  V30 345 H 30.0831 0.935466 -1.13523 0
M  V30 346 H 32.0411 4.04582 -1.01831 0
M  V30 347 H 30.6711 3.21974 -0.230837 0
M  V30 348 H 29.7231 2.76885 -2.60842 0
M  V30 349 H 31.0351 3.77759 -3.25729 0
M  V30 350 H 30.1891 5.74244 -1.95777 0
M  V30 351 H 28.9281 4.7259 -1.20457 0
M  V30 352 H 27.9331 4.26966 -3.46382 0
M  V30 353 H 29.1581 5.32052 -4.22016 0
M  V30 354 H 27.1041 6.19625 -2.15407 0
M  V30 355 H 27.0211 6.50143 -3.85812 0
M  V30 356 H 28.2891 7.22857 -2.91716 0
M  V30 357 N 32.5182 1.22032 0.997298 0
M  V30 358 C 33.7432 1.06921 1.77715 0
M  V30 359 C 34.1682 -0.376226 1.84299 0
M  V30 360 O 33.5262 -1.27165 1.29223 0
M  V30 361 C 33.5742 1.67996 3.19076 0
M  V30 362 O 32.6782 0.930653 4.01762 0
M  V30 363 H 32.0192 0.375814 0.547412 0
M  V30 364 H 34.5492 1.61737 1.25309 0
M  V30 365 H 34.5592 1.72538 3.69723 0
M  V30 366 H 33.2342 2.73182 3.13599 0
M  V30 367 H 31.8112 0.960917 3.60307 0
M  V30 368 N 33.9963 -1.19345 1.0293 0
M  V30 369 C 34.9063 -2.26245 0.620515 0
M  V30 370 C 35.9223 -1.70486 -0.347928 0
M  V30 371 O 37.0983 -2.00347 -0.205704 0
M  V30 372 C 34.1633 -3.46693 -0.0218957 0
M  V30 373 C 33.2243 -4.17632 0.994102 0
M  V30 374 C 32.4573 -5.32329 0.382253 0
M  V30 375 O 32.6803 -5.64552 -0.814676 0
M  V30 376 O 31.6143 -5.91664 1.10531 0
M  V30 377 H 35.4403 -2.63453 1.51083 0
M  V30 378 H 33.0253 -1.26207 0.799513 0
M  V30 379 H 34.9073 -4.19683 -0.380072 0
M  V30 380 H 33.5823 -3.11333 -0.886209 0
M  V30 381 H 32.4893 -3.4676 1.40387 0
M  V30 382 H 33.8223 -4.56964 1.8288 0
M  V30 383 N 35.4744 -0.807222 -1.35358 0
M  V30 384 C 36.7204 -0.388463 -1.99045 0
M  V30 385 C 37.0534 1.04184 -1.63888 0
M  V30 386 O 36.3284 1.72292 -0.902535 0
M  V30 387 C 36.6114 -0.572783 -3.55515 0
M  V30 388 C 36.4644 -2.04807 -4.00468 0
M  V30 389 C 37.7834 0.00114064 -4.401 0
M  V30 390 H 34.9024 -0.142619 -0.723069 0
M  V30 391 H 37.5444 -1.01687 -1.60498 0
M  V30 392 H 35.6944 -0.0378425 -3.88482 0
M  V30 393 H 37.3664 -2.64544 -3.77908 0
M  V30 394 H 35.6094 -2.54427 -3.51353 0
M  V30 395 H 36.2804 -2.12792 -5.09337 0
M  V30 396 H 38.7564 -0.455716 -4.13597 0
M  V30 397 H 37.6324 -0.157737 -5.48673 0
M  V30 398 H 37.8934 1.09488 -4.28328 0
M  V30 399 N 36.9525 1.47285 -0.560781 0
M  V30 400 C 37.9005 2.31756 0.197942 0
M  V30 401 C 38.8945 1.43146 0.905854 0
M  V30 402 O 40.1005 1.59891 0.826733 0
M  V30 403 H 36.4755 0.747438 0.0827049 0
M  V30 404 H 38.4465 2.9359 -0.533629 0
M  V30 405 C 37.1955 3.25874 1.21249 0
M  V30 406 H 36.5185 3.94023 0.67719 0
M  V30 407 H 37.9585 3.87803 1.71419 0
M  V30 408 C 36.4175 2.49651 2.26221 0
M  V30 409 O 36.9475 2.24355 3.33208 0
M  V30 410 N 35.1535 2.10597 2.00243 0
M  V30 411 H 34.7005 2.31369 1.13252 0
M  V30 412 H 34.6585 1.59913 2.70694 0
M  V30 413 N 38.4306 0.297415 1.54768 0
M  V30 414 C 39.6556 -0.318435 2.04941 0
M  V30 415 C 40.0806 -1.4701 1.17345 0
M  V30 416 O 39.4386 -1.80436 0.176758 0
M  V30 417 C 39.4866 -0.755749 3.52592 0
M  V30 418 O 38.5906 -1.86088 3.68028 0
M  V30 419 H 37.9316 -0.062421 0.661059 0
M  V30 420 H 40.4616 0.438215 1.99852 0
M  V30 421 H 40.4716 -1.04552 3.94376 0
M  V30 422 H 39.1466 0.0867233 4.1581 0
M  V30 423 H 37.7236 -1.57193 3.38149 0
M  V30 424 N 39.9087 -1.5758 0.0250728 0
M  V30 425 C 41.1857 -1.82917 -0.692873 0
M  V30 426 C 41.5657 -0.908137 -1.90568 0
M  V30 427 O 40.9137 0.0372298 -2.2847 0
M  V30 428 C 41.1237 -3.32034 -1.07492 0
M  V30 429 C 42.4717 -3.98406 -1.46826 0
M  V30 430 O 43.4957 -3.36505 -1.16801 0
M  V30 431 O 42.3547 -5.07497 -2.02754 0
M  V30 432 H 39.4487 -0.754079 -0.33955 0
M  V30 433 H 41.9947 -1.69619 0.0524456 0
M  V30 434 H 40.7667 -3.90728 -0.211552 0
M  V30 435 H 40.3897 -3.50424 -1.87854 0
M  V30 436 N 41.3868 0.248026 -1.55636 0
M  V30 437 C 42.6268 0.983592 -1.79178 0
M  V30 438 C 42.9908 1.82567 -0.594414 0
M  V30 439 O 44.1918 2.59292 -0.708583 0
M  V30 440 C 42.4628 1.82228 -3.07454 0
M  V30 441 S 44.0218 2.61709 -3.52213 0
M  V30 442 H 40.8398 0.330866 -0.629324 0
M  V30 443 H 43.4418 0.251562 -1.93875 0
M  V30 444 H 42.1458 1.19333 -3.92668 0
M  V30 445 H 41.6768 2.59708 -2.95492 0
M  V30 446 H 43.6918 3.84655 -3.13457 0
M  V30 447 N 42.8649 1.48995 0.513639 0
M  V30 448 C 43.7949 1.67636 1.62544 0
M  V30 449 C 44.7759 0.525087 1.61793 0
M  V30 450 O 45.9609 0.759502 1.78732 0
M  V30 451 C 43.0909 1.73114 3.01079 0
M  V30 452 C 42.0449 2.87905 3.16693 0
M  V30 453 C 41.3709 2.78486 4.56453 0
M  V30 454 C 42.6709 4.29005 2.97913 0
M  V30 455 H 44.3649 2.60716 1.47198 0
M  V30 456 H 41.9109 1.25465 0.706714 0
M  V30 457 H 43.8639 1.84742 3.78746 0
M  V30 458 H 42.5879 0.766241 3.17484 0
M  V30 459 H 41.2469 2.75859 2.41448 0
M  V30 460 H 40.8949 1.7993 4.69717 0
M  V30 461 H 40.5949 3.55523 4.67843 0
M  V30 462 H 42.1189 2.92104 5.36197 0
M  V30 463 H 43.5329 4.41798 3.65359 0
M  V30 464 H 41.9299 5.07166 3.20785 0
M  V30 465 H 42.9999 4.44329 1.94165 0
M  V30 466 N 44.343 -0.763751 1.37857 0
M  V30 467 C 45.273 -1.89103 1.36975 0
M  V30 468 C 46.254 -1.68439 0.237152 0
M  V30 469 O 47.439 -1.8918 0.438713 0
M  V30 470 C 44.569 -3.26496 1.18395 0
M  V30 471 C 43.523 -3.61741 2.28751 0
M  V30 472 C 42.849 -4.97762 1.95286 0
M  V30 473 C 44.149 -3.67665 3.70972 0
M  V30 474 H 45.843 -1.90099 2.31307 0
M  V30 475 H 43.389 -0.91319 1.11341 0
M  V30 476 H 45.342 -4.05003 1.16406 0
M  V30 477 H 44.066 -3.25955 0.205215 0
M  V30 478 H 42.725 -2.85547 2.29909 0
M  V30 479 H 42.373 -4.93769 0.959221 0
M  V30 480 H 42.073 -5.22313 2.69189 0
M  V30 481 H 43.597 -5.7866 1.94898 0
M  V30 482 H 45.011 -4.36307 3.719 0
M  V30 483 H 43.408 -4.03718 4.43995 0
M  V30 484 H 44.478 -2.68134 4.0402 0
M  V30 485 N 45.8211 -1.22559 -0.990812 0
M  V30 486 C 47.0981 -0.959875 -1.70428 0
M  V30 487 C 47.4781 0.524455 -2.04481 0
M  V30 488 O 46.8261 1.49302 -1.72977 0
M  V30 489 C 47.0361 -1.85955 -2.95333 0
M  V30 490 C 48.3841 -2.11687 -3.68068 0
M  V30 491 O 49.4081 -1.8342 -3.05345 0
M  V30 492 O 48.2671 -2.59572 -4.80921 0
M  V30 493 H 45.3611 -0.361154 -0.743974 0
M  V30 494 H 47.9071 -1.33554 -1.04697 0
M  V30 495 H 46.6791 -2.86346 -2.66687 0
M  V30 496 H 46.3021 -1.4856 -3.68803 0
M  V30 497 N 47.2992 1.18797 -1.03562 0
M  V30 498 C 48.5472 1.88278 -0.734569 0
M  V30 499 C 48.8682 1.8043 0.739586 0
M  V30 500 O 48.1382 1.21925 1.53333 0
M  V30 501 H 46.7182 0.696991 -0.268725 0
M  V30 502 H 49.3802 1.44192 -1.31129 0
M  V30 503 H 48.4762 2.94443 -1.03489 0
M  V30 504 N 48.7773 0.814389 1.34928 0
M  V30 505 C 49.7073 0.244827 2.32213 0
M  V30 506 C 50.6883 -0.634024 1.57842 0
M  V30 507 O 51.8733 -0.562676 1.8587 0
M  V30 508 C 49.0033 -0.601106 3.42058 0
M  V30 509 C 47.9573 0.179896 4.27622 0
M  V30 510 C 47.2833 -0.788237 5.28858 0
M  V30 511 C 48.5833 1.38329 5.03649 0
M  V30 512 H 50.2773 1.05763 2.80097 0
M  V30 513 H 47.8233 0.510029 1.34665 0
M  V30 514 H 49.7763 -1.00968 4.09125 0
M  V30 515 H 48.5003 -1.44688 2.92802 0
M  V30 516 H 47.1593 0.569739 3.62146 0
M  V30 517 H 46.8073 -1.62973 4.75866 0
M  V30 518 H 46.5073 -0.269942 5.8698 0
M  V30 519 H 48.0313 -1.19485 5.98795 0
M  V30 520 H 49.4453 1.04918 5.63618 0
M  V30 521 H 47.8423 1.83662 5.71304 0
M  V30 522 H 48.9123 2.16592 4.33839 0
M  V30 523 N 50.2554 -1.46986 0.568584 0
M  V30 524 C 51.5324 -1.95592 -0.0174074 0
M  V30 525 C 51.9124 -1.51124 -1.47393 0
M  V30 526 O 51.2604 -0.755329 -2.15655 0
M  V30 527 C 51.4704 -3.48719 0.139913 0
M  V30 528 C 52.8184 -4.246 0.000426376 0
M  V30 529 O 53.8424 -3.56135 0.0680316 0
M  V30 530 O 52.7014 -5.46302 -0.146988 0
M  V30 531 H 49.7954 -0.82498 -0.0577599 0
M  V30 532 H 52.3414 -1.57335 0.635909 0
M  V30 533 H 51.1134 -3.73927 1.15301 0
M  V30 534 H 50.7364 -3.93771 -0.550491 0
M  V30 535 N 51.7335 -0.305618 -1.54608 0
M  V30 536 C 52.6965 0.555591 -2.22364 0
M  V30 537 C 53.6965 1.05768 -1.21119 0
M  V30 538 O 54.8865 0.952972 -1.45822 0
M  V30 539 C 52.0185 1.76974 -2.91364 0
M  V30 540 H 53.2115 -0.0364572 -2.99878 0
M  V30 541 H 50.7645 -0.0565007 -1.56198 0
M  V30 542 H 51.4995 2.40151 -2.17941 0
M  V30 543 H 51.2845 1.41732 -3.65588 0
M  V30 544 H 52.7745 2.38148 -3.43038 0
M  V30 545 N 53.2116 1.57565 -0.0334293 0
M  V30 546 C 54.1416 2.13511 0.945265 0
M  V30 547 C 55.1226 1.05231 1.33643 0
M  V30 548 O 56.3076 1.33084 1.41429 0
M  V30 549 C 53.4376 2.6657 2.22616 0
M  V30 550 C 52.3916 3.79676 1.97561 0
M  V30 551 C 51.7176 4.1918 3.31952 0
M  V30 552 C 53.0176 5.0557 1.31135 0
M  V30 553 H 54.7116 2.95538 0.479325 0
M  V30 554 H 52.2576 1.42166 0.229115 0
M  V30 555 H 54.2106 3.04344 2.91466 0
M  V30 556 H 52.9346 1.8171 2.71384 0
M  V30 557 H 51.5936 3.42347 1.31127 0
M  V30 558 H 51.2416 3.31296 3.78487 0
M  V30 559 H 50.9416 4.95402 3.15992 0
M  V30 560 H 52.4656 4.59541 4.02063 0
M  V30 561 H 53.8796 5.40903 1.89992 0
M  V30 562 H 52.2766 5.86818 1.25559 0
M  V30 563 H 53.3466 4.84062 0.284894 0
M  V30 564 N 54.6897 -0.239769 1.55765 0
M  V30 565 C 55.9357 -0.968234 1.78194 0
M  V30 566 C 56.2687 -1.84701 0.599938 0
M  V30 567 O 55.5437 -1.9031 -0.401524 0
M  V30 568 C 55.8267 -1.8227 3.10564 0
M  V30 569 C 55.6797 -0.971633 4.3918 0
M  V30 570 C 56.9987 -2.80388 3.39221 0
M  V30 571 H 54.1177 -0.350572 0.648281 0
M  V30 572 H 56.7597 -0.238259 1.885 0
M  V30 573 H 54.9097 -2.44507 3.01908 0
M  V30 574 H 56.5817 -0.367408 4.59835 0
M  V30 575 H 54.8247 -0.276276 4.32919 0
M  V30 576 H 55.4957 -1.60346 5.28198 0
M  V30 577 H 57.9717 -2.28287 3.47885 0
M  V30 578 H 56.8477 -3.3729 4.33044 0
M  V30 579 H 57.1087 -3.57212 2.60484 0
M  V30 580 N 56.1678 -1.49265 -0.50573 0
M  V30 581 C 57.3978 -1.61979 -1.28243 0
M  V30 582 C 57.8058 -0.288576 -1.86986 0
M  V30 583 O 57.1488 0.735408 -1.68337 0
M  V30 584 C 57.2108 -2.62632 -2.45489 0
M  V30 585 C 56.8748 -4.071 -2.07651 0
M  V30 586 C 57.8718 -4.94049 -1.61901 0
M  V30 587 C 55.5568 -4.52801 -2.17431 0
M  V30 588 C 57.5508 -6.24736 -1.26428 0
M  V30 589 C 55.2378 -5.83503 -1.8157 0
M  V30 590 C 56.2358 -6.69294 -1.36142 0
M  V30 591 O 55.9238 -7.9756 -1.00764 0
M  V30 592 H 55.6558 -0.54834 -0.395347 0
M  V30 593 H 58.2098 -1.96002 -0.614204 0
M  V30 594 H 56.4398 -2.2378 -3.15372 0
M  V30 595 H 58.1288 -2.64925 -3.07522 0
M  V30 596 H 58.8948 -4.5997 -1.53795 0
M  V30 597 H 54.7738 -3.86196 -2.51742 0
M  V30 598 H 58.3178 -6.91652 -0.908992 0
M  V30 599 H 54.2148 -6.17112 -1.89324 0
M  V30 600 H 54.9828 -8.10529 -1.13952 0
M  V30 601 N 57.6459 0.756429 -1.3826 0
M  V30 602 C 58.9229 1.50584 -1.24835 0
M  V30 603 C 59.3029 2.10556 0.151485 0
M  V30 604 O 58.6509 1.96825 1.1607 0
M  V30 605 C 58.8609 2.57448 -2.3563 0
M  V30 606 C 60.2089 3.24429 -2.73917 0
M  V30 607 O 61.2329 2.67751 -2.34921 0
M  V30 608 O 60.0919 4.26937 -3.41156 0
M  V30 609 H 57.1859 0.667664 -0.48801 0
M  V30 610 H 59.7319 0.792083 -1.5008 0
M  V30 611 H 58.5039 2.11362 -3.29305 0
M  V30 612 H 58.1269 3.36408 -2.11933 0
M  V30 613 N 59.124 1.23083 0.984299 0
M  V30 614 C 60.054 1.03292 2.09411 0
M  V30 615 C 61.035 -0.048923 1.7003 0
M  V30 616 O 62.22 0.114967 1.93859 0
M  V30 617 C 59.35 0.619155 3.41736 0
M  V30 618 C 58.304 1.64791 3.95004 0
M  V30 619 C 57.63 1.0897 5.23478 0
M  V30 620 C 58.93 3.03999 4.24714 0
M  V30 621 H 60.624 1.96119 2.26225 0
M  V30 622 H 58.17 0.944344 1.08711 0
M  V30 623 H 60.123 0.467777 4.18796 0
M  V30 624 H 58.847 -0.344786 3.24775 0
M  V30 625 H 57.506 1.78721 3.20085 0
M  V30 626 H 57.154 0.11686 5.02864 0
M  V30 627 H 56.854 1.77704 5.60085 0
M  V30 628 H 58.378 0.950093 6.03163 0
M  V30 629 H 59.792 2.93393 4.92538 0
M  V30 630 H 58.189 3.69936 4.72512 0
M  V30 631 H 59.259 3.53285 3.32142 0
M  V30 632 N 60.6021 -1.18246 1.0419 0
M  V30 633 C 61.8791 -1.84121 0.660208 0
M  V30 634 C 62.2591 -1.92778 -0.860221 0
M  V30 635 O 61.6071 -1.45464 -1.76217 0
M  V30 636 C 61.8171 -3.22355 1.33747 0
M  V30 637 C 63.1651 -3.98376 1.46906 0
M  V30 638 O 64.1891 -3.31799 1.29568 0
M  V30 639 O 63.0481 -5.17665 1.75171 0
M  V30 640 H 60.1421 -0.794036 0.231161 0
M  V30 641 H 62.6881 -1.25628 1.14087 0
M  V30 642 H 61.4601 -3.10964 2.37522 0
M  V30 643 H 61.0831 -3.88506 0.845515 0
M  V30 644 N 62.0802 -0.821533 -1.34494 0
M  V30 645 C 63.3272 -0.408946 -1.98328 0
M  V30 646 C 63.6552 1.02764 -1.65136 0
M  V30 647 O 62.9102 1.73026 -0.914349 0
M  V30 648 C 63.2092 -0.556512 -3.53041 0
M  V30 649 C 62.8752 -1.95861 -4.0614 0
M  V30 650 C 61.5372 -2.34217 -4.20352 0
M  V30 651 C 63.8892 -2.87523 -4.34718 0
M  V30 652 C 61.2172 -3.63572 -4.6047 0
M  V30 653 C 63.5692 -4.1634 -4.76281 0
M  V30 654 C 62.2332 -4.54675 -4.88699 0
M  V30 655 H 61.5032 -0.149644 -0.725732 0
M  V30 656 H 64.1502 -1.04521 -1.6046 0
M  V30 657 H 62.4552 0.163148 -3.9146 0
M  V30 658 H 64.1522 -0.217826 -4.00408 0
M  V30 659 H 60.7422 -1.65066 -3.95539 0
M  V30 660 H 64.9262 -2.59133 -4.23277 0
M  V30 661 H 60.1822 -3.93101 -4.68275 0
M  V30 662 H 64.3562 -4.87455 -4.97354 0
M  V30 663 H 61.9832 -5.54959 -5.19542 0
M  V30 664 N 63.5583 1.46682 -0.576371 0
M  V30 665 C 64.9693 1.86112 -0.148091 0
M  V30 666 C 65.3203 1.48073 1.2872 0
M  V30 667 O 64.4453 0.892656 1.97131 0
M  V30 668 C 65.0403 3.37786 -0.261982 0
M  V30 669 C 63.5993 3.76235 0.111384 0
M  V30 670 C 62.7463 2.70713 -0.60083 0
M  V30 671 H 65.6973 1.37927 -0.78497 0
M  V30 672 H 65.7183 3.77007 0.514364 0
M  V30 673 H 65.2303 3.6544 -1.30671 0
M  V30 674 H 63.3313 3.54198 1.15649 0
M  V30 675 H 63.4443 4.78391 -0.26052 0
M  V30 676 H 61.8083 2.54666 -0.0417783 0
M  V30 677 H 62.5913 3.01208 -1.64708 0
M  V30 678 N 65.0364 0.313813 1.54444 0
M  V30 679 C 65.9994 -0.54379 2.22656 0
M  V30 680 C 66.9994 -1.05124 1.21678 0
M  V30 681 O 68.1894 -0.945225 1.46325 0
M  V30 682 C 65.3214 -1.75427 2.92298 0
M  V30 683 H 66.5144 0.0523599 2.99854 0
M  V30 684 H 64.0674 0.0647834 1.56166 0
M  V30 685 H 64.8024 -2.38991 2.19211 0
M  V30 686 H 64.5874 -1.39791 3.66334 0
M  V30 687 H 66.0774 -2.36325 3.44297 0
M  V30 688 N 66.5145 -1.57545 0.0417849 0
M  V30 689 C 67.4445 -2.14009 -0.933929 0
M  V30 690 C 68.4255 -1.05938 -1.33083 0
M  V30 691 O 69.6105 -1.33833 -1.40721 0
M  V30 692 C 66.7405 -2.67747 -2.21199 0
M  V30 693 C 65.6945 -3.80718 -1.95544 0
M  V30 694 C 65.0205 -4.20935 -3.29724 0
M  V30 695 C 66.3205 -5.06258 -1.28452 0
M  V30 696 H 68.0145 -2.95788 -0.463645 0
M  V30 697 H 65.5605 -1.42285 -0.221573 0
M  V30 698 H 67.5135 -3.05886 -2.89848 0
M  V30 699 H 66.2375 -1.83147 -2.70416 0
M  V30 700 H 64.8965 -3.43037 -1.2931 0
M  V30 701 H 64.5445 -3.33298 -3.76724 0
M  V30 702 H 64.2445 -4.9707 -3.13361 0
M  V30 703 H 65.7685 -4.61666 -3.9962 0
M  V30 704 H 67.1825 -5.41903 -1.8712 0
M  V30 705 H 65.5795 -5.87475 -1.22445 0
M  V30 706 H 66.6495 -4.84207 -0.259219 0
M  V30 707 N 67.9926 0.231505 -1.5589 0
M  V30 708 C 69.4086 0.580748 -1.48659 0
M  V30 709 C 69.6086 1.87617 -0.73498 0
M  V30 710 O 68.6646 2.51046 -0.270586 0
M  V30 711 C 69.9776 0.669202 -2.93159 0
M  V30 712 C 71.5256 0.760499 -3.03621 0
M  V30 713 C 72.0006 0.880383 -4.49459 0
M  V30 714 N 73.4916 0.944861 -4.53461 0
M  V30 715 C 74.2266 1.05716 -5.63571 0
M  V30 716 N 73.7226 1.13403 -6.83456 0
M  V30 717 N 75.5156 1.09152 -5.514 0
M  V30 718 H 67.6666 -0.618695 -2.03189 0
M  V30 719 H 69.9296 -0.215728 -0.923128 0
M  V30 720 H 69.6356 -0.212904 -3.51055 0
M  V30 721 H 69.5096 1.5361 -3.44505 0
M  V30 722 H 71.8966 1.63305 -2.45796 0
M  V30 723 H 71.9776 -0.131864 -2.5546 0
M  V30 724 H 71.6216 0.0123284 -5.07899 0
M  V30 725 H 71.5516 1.78802 -4.95316 0
M  V30 726 H 74.0426 0.896176 -3.6712 0
M  V30 727 H 74.3556 1.21921 -7.63122 0
M  V30 728 H 72.7006 1.10333 -6.86186 0
M  V30 729 H 75.8916 1.02805 -4.56671 0
M  V30 730 H 76.0646 1.17558 -6.37247 0
M  V30 731 N 69.4707 1.49531 0.497807 0
M  V30 732 C 70.4177 1.66436 1.59899 0
M  V30 733 C 71.3877 0.505793 1.58212 0
M  V30 734 O 72.5727 0.733202 1.7615 0
M  V30 735 C 69.7127 1.7399 2.98029 0
M  V30 736 C 68.8257 3.01172 3.09708 0
M  V30 737 C 67.9607 2.99686 4.38591 0
M  V30 738 C 66.9997 4.21434 4.43914 0
M  V30 739 N 66.1367 4.1784 5.64229 0
M  V30 740 H 70.9767 2.60459 1.44793 0
M  V30 741 H 68.5137 1.29137 0.704423 0
M  V30 742 H 70.4717 1.76352 3.78095 0
M  V30 743 H 69.1017 0.834301 3.11832 0
M  V30 744 H 68.1537 3.08408 2.22685 0
M  V30 745 H 69.4657 3.91165 3.09502 0
M  V30 746 H 68.6197 3.00628 5.2698 0
M  V30 747 H 67.3587 2.07477 4.41367 0
M  V30 748 H 66.3637 4.20733 3.53926 0
M  V30 749 H 67.5887 5.14839 4.42851 0
M  V30 750 H 65.5347 3.28469 5.67841 0
M  V30 751 H 65.4517 5.01571 5.65652 0
M  V30 752 H 66.7197 4.22889 6.54817 0
M  V30 753 N 70.9488 -0.749086 1.3866 0
M  V30 754 C 71.8968 -1.88428 1.36373 0
M  V30 755 C 72.8908 -1.67561 0.248929 0
M  V30 756 O 74.0968 -1.75074 0.41821 0
M  V30 757 H 70.4718 -0.620023 0.42553 0
M  V30 758 H 72.4428 -1.87473 2.32156 0
M  V30 759 C 71.1918 -3.25961 1.21014 0
M  V30 760 H 70.5148 -3.42607 2.06059 0
M  V30 761 H 71.9548 -4.05625 1.23469 0
M  V30 762 C 70.4138 -3.36799 -0.0825941 0
M  V30 763 O 70.9438 -3.87517 -1.05797 0
M  V30 764 N 69.1498 -2.90258 -0.140939 0
M  V30 765 H 68.6968 -2.49174 0.653477 0
M  V30 766 H 68.6548 -2.97889 -1.00545 0
M  V30 767 N 72.4269 -1.23603 -0.977757 0
M  V30 768 C 73.3739 -1.01954 -2.07061 0
M  V30 769 C 74.3439 0.0638697 -1.65977 0
M  V30 770 O 75.5289 -0.0887624 -1.90593 0
M  V30 771 C 72.6689 -0.619658 -3.39491 0
M  V30 772 C 71.7819 -1.77547 -3.93829 0
M  V30 773 C 70.9169 -1.32212 -5.14484 0
M  V30 774 C 69.9559 -2.44852 -5.60994 0
M  V30 775 N 69.0929 -2.00456 -6.72876 0
M  V30 776 H 73.9329 -1.95495 -2.24913 0
M  V30 777 H 71.4699 -0.973861 -1.10247 0
M  V30 778 H 73.4279 -0.368898 -4.15566 0
M  V30 779 H 72.0579 0.278752 -3.21594 0
M  V30 780 H 71.1099 -2.14016 -3.14486 0
M  V30 781 H 72.4219 -2.62219 -4.24314 0
M  V30 782 H 71.5759 -1.02965 -5.97899 0
M  V30 783 H 70.3149 -0.445808 -4.85658 0
M  V30 784 H 69.3199 -2.74871 -4.76157 0
M  V30 785 H 70.5449 -3.33024 -5.91837 0
M  V30 786 H 68.4909 -1.15208 -6.45804 0
M  V30 787 H 68.4079 -2.78687 -7.02759 0
M  V30 788 H 69.6759 -1.7432 -7.59758 0
M  V30 789 N 73.905 1.17692 -1.04816 0
M  V30 790 C 74.853 2.23632 -0.63966 0
M  V30 791 C 75.847 1.6601 0.337219 0
M  V30 792 O 77.053 1.78844 0.203693 0
M  V30 793 H 73.428 0.727949 -0.188665 0
M  V30 794 H 75.399 2.55387 -1.54337 0
M  V30 795 C 74.148 3.4769 -0.0264051 0
M  V30 796 H 73.471 3.92331 -0.769164 0
M  V30 797 H 74.911 4.23418 0.222098 0
M  V30 798 C 73.37 3.13807 1.22584 0
M  V30 799 O 73.9 3.28236 2.31569 0
M  V30 800 N 72.106 2.68065 1.12202 0
M  V30 801 H 71.653 2.56525 0.235133 0
M  V30 802 H 71.611 2.45767 1.96076 0
M  V30 803 N 75.3831 0.828654 1.34056 0
M  V30 804 C 76.6321 0.415828 1.97367 0
M  V30 805 C 76.9451 -1.02796 1.6641 0
M  V30 806 O 78.1511 -1.54497 2.23255 0
M  V30 807 C 76.6071 0.692601 3.53173 0
M  V30 808 C 76.2151 2.15038 3.93017 0
M  V30 809 C 77.9591 0.346222 4.23086 0
M  V30 810 C 75.8661 2.37174 5.41758 0
M  V30 811 H 74.7961 0.151755 0.738571 0
M  V30 812 H 77.4471 1.01581 1.52819 0
M  V30 813 H 75.8291 0.0223764 3.95994 0
M  V30 814 H 77.0031 2.86024 3.61285 0
M  V30 815 H 75.3181 2.45875 3.36057 0
M  V30 816 H 77.9151 0.48937 5.32456 0
M  V30 817 H 78.2581 -0.709842 4.10204 0
M  V30 818 H 78.7911 0.971258 3.85761 0
M  V30 819 H 75.5301 3.41308 5.59633 0
M  V30 820 H 75.0501 1.70738 5.74986 0
M  V30 821 H 76.7291 2.19818 6.08514 0
M  V30 822 N 76.8612 -1.46375 0.584142 0
M  V30 823 C 78.1382 -1.956 0.0033388 0
M  V30 824 C 78.5182 -1.52679 -1.45782 0
M  V30 825 O 77.8662 -0.77816 -2.14842 0
M  V30 826 C 78.0762 -3.48551 0.176891 0
M  V30 827 C 79.4242 -4.24576 0.0454609 0
M  V30 828 O 80.4482 -3.56043 0.105801 0
M  V30 829 O 79.3072 -5.46427 -0.0890376 0
M  V30 830 H 76.4012 -0.825547 -0.0490066 0
M  V30 831 H 78.9472 -1.56652 0.65256 0
M  V30 832 H 77.7192 -3.72683 1.1926 0
M  V30 833 H 77.3422 -3.94332 -0.508695 0
M  V30 834 N 78.3393 -0.321999 -1.54275 0
M  V30 835 C 79.2873 0.560206 -2.25753 0
M  V30 836 C 80.2813 1.11984 -1.27106 0
M  V30 837 O 81.4873 1.06806 -1.44888 0
M  V30 838 H 77.8623 0.199304 -0.725108 0
M  V30 839 H 79.8333 -0.0649365 -2.98329 0
M  V30 840 C 78.5823 1.71023 -3.02731 0
M  V30 841 H 77.9053 1.28885 -3.78456 0
M  V30 842 H 79.3453 2.30314 -3.55993 0
M  V30 843 C 77.8043 2.62692 -2.10938 0
M  V30 844 O 78.3343 3.64364 -1.6912 0
M  V30 845 N 76.5403 2.30891 -1.76459 0
M  V30 846 H 76.0873 1.48253 -2.10663 0
M  V30 847 H 76.0453 2.92487 -1.1532 0
M  V30 848 N 79.8174 1.5752 -0.0501392 0
M  V30 849 C 81.0644 1.9265 0.623874 0
M  V30 850 C 81.3924 0.928411 1.70912 0
M  V30 851 O 80.6474 -0.0594525 1.9561 0
M  V30 852 C 80.9464 3.34467 1.25963 0
M  V30 853 C 80.6124 4.49883 0.302689 0
M  V30 854 C 79.2744 4.81184 0.0393636 0
M  V30 855 C 81.6264 5.20002 -0.353205 0
M  V30 856 C 78.9544 5.79951 -0.887308 0
M  V30 857 C 81.3064 6.1976 -1.26806 0
M  V30 858 C 79.9704 6.49491 -1.54007 0
M  V30 859 H 79.2404 0.704957 0.228292 0
M  V30 860 H 81.8874 1.91146 -0.116398 0
M  V30 861 H 80.1924 3.32333 2.07514 0
M  V30 862 H 81.8894 3.58928 1.78806 0
M  V30 863 H 78.4794 4.25457 0.518109 0
M  V30 864 H 82.6634 4.96033 -0.162854 0
M  V30 865 H 77.9194 6.01322 -1.10553 0
M  V30 866 H 82.0934 6.73205 -1.78236 0
M  V30 867 H 79.7204 7.25837 -2.25976 0
M  V30 868 N 81.2955 -0.223234 1.56011 0
M  V30 869 C 82.2255 -1.27988 1.95298 0
M  V30 870 C 83.2065 -1.48976 0.820979 0
M  V30 871 O 84.3915 -1.61188 1.08315 0
M  V30 872 C 81.5215 -2.63 2.26822 0
M  V30 873 C 80.4755 -2.56671 3.42497 0
M  V30 874 C 79.8015 -3.95697 3.59622 0
M  V30 875 C 81.1015 -2.11601 4.77517 0
M  V30 876 H 82.7955 -0.953525 2.8381 0
M  V30 877 H 80.3415 -0.457244 1.36548 0
M  V30 878 H 82.2945 -3.37077 2.52898 0
M  V30 879 H 81.0185 -2.9732 1.35161 0
M  V30 880 H 79.6775 -1.85051 3.16467 0
M  V30 881 H 79.3255 -4.27322 2.6534 0
M  V30 882 H 79.0255 -3.92345 4.37424 0
M  V30 883 H 80.5495 -4.71438 3.88044 0
M  V30 884 H 81.9635 -2.7542 5.02809 0
M  V30 885 H 80.3605 -2.19311 5.5859 0
M  V30 886 H 81.4305 -1.06824 4.72987 0
M  V30 887 N 82.7736 -1.49793 -0.48987 0
M  V30 888 C 83.9986 -1.63836 -1.27172 0
M  V30 889 C 84.4236 -0.31402 -1.8546 0
M  V30 890 O 83.7816 0.719803 -1.66399 0
M  V30 891 C 83.8296 -2.71797 -2.36978 0
M  V30 892 O 82.9336 -2.31744 -3.41128 0
M  V30 893 H 82.2746 -0.547997 -0.37496 0
M  V30 894 H 84.8046 -1.96053 -0.585191 0
M  V30 895 H 84.8146 -2.94305 -2.82575 0
M  V30 896 H 83.4896 -3.67923 -1.93921 0
M  V30 897 H 82.0666 -2.1961 -3.01373 0
M  V30 898 N 84.2517 0.741722 -1.39055 0
M  V30 899 C 85.6677 1.04638 -1.20512 0
M  V30 900 C 85.8677 2.01405 -0.0620218 0
M  V30 901 O 84.9237 2.45547 0.588457 0
M  V30 902 C 86.2367 1.6151 -2.53643 0
M  V30 903 C 87.7847 1.73623 -2.6043 0
M  V30 904 C 88.2597 2.33906 -3.93767 0
M  V30 905 N 89.7507 2.41323 -3.9537 0
M  V30 906 C 90.4857 2.88888 -4.95309 0
M  V30 907 N 89.9817 3.36401 -6.05645 0
M  V30 908 N 91.7747 2.88037 -4.82692 0
M  V30 909 H 83.9257 0.0998155 -2.12165 0
M  V30 910 H 86.1887 0.106907 -0.941953 0
M  V30 911 H 85.8947 0.978739 -3.37807 0
M  V30 912 H 85.7687 2.60411 -2.72885 0
M  V30 913 H 88.1557 2.36384 -1.76655 0
M  V30 914 H 88.2367 0.733945 -2.45045 0
M  V30 915 H 87.8807 1.71776 -4.7797 0
M  V30 916 H 87.8107 3.34799 -4.06469 0
M  V30 917 H 90.3017 2.07734 -3.15682 0
M  V30 918 H 90.6147 3.71186 -6.77821 0
M  V30 919 H 88.9597 3.34427 -6.09248 0
M  V30 920 H 92.1507 2.50237 -3.95599 0
M  V30 921 H 92.3237 3.24792 -5.60726 0
M  V30 922 N 85.7298 1.2412 0.971189 0
M  V30 923 C 86.9598 1.10415 1.7462 0
M  V30 924 C 87.3678 -0.346462 1.86001 0
M  V30 925 O 86.7108 -1.25104 1.34517 0
M  V30 926 C 86.7728 1.66596 3.18568 0
M  V30 927 C 86.4368 3.15446 3.3067 0
M  V30 928 C 87.4338 4.12636 3.16271 0
M  V30 929 C 85.1188 3.55337 3.55022 0
M  V30 930 C 87.1128 5.47699 3.26044 0
M  V30 931 C 84.7998 4.90542 3.64434 0
M  V30 932 C 85.7978 5.86532 3.49956 0
M  V30 933 O 85.4858 7.19279 3.59017 0
M  V30 934 H 85.2178 0.386616 0.55453 0
M  V30 935 H 87.7718 1.64633 1.22821 0
M  V30 936 H 86.0018 1.06808 3.71657 0
M  V30 937 H 87.6908 1.48232 3.77865 0
M  V30 938 H 88.4568 3.8316 2.97344 0
M  V30 939 H 84.3358 2.8113 3.65359 0
M  V30 940 H 87.8798 6.22603 3.14661 0
M  V30 941 H 83.7768 5.19691 3.82873 0
M  V30 942 H 84.5448 7.27153 3.75754 0
M  V30 943 N 87.2079 -1.17134 1.05439 0
M  V30 944 C 88.1549 -2.21235 0.657539 0
M  V30 945 C 89.1249 -1.62551 -0.341543 0
M  V30 946 O 90.3099 -1.89379 -0.232393 0
M  V30 947 C 87.4499 -3.45076 0.0410575 0
M  V30 948 C 86.5629 -4.18042 1.08927 0
M  V30 949 C 85.6979 -5.29376 0.439848 0
M  V30 950 C 84.7369 -5.94132 1.4722 0
M  V30 951 N 83.8739 -6.96975 0.846756 0
M  V30 952 H 88.7139 -2.54534 1.54972 0
M  V30 953 H 86.2509 -1.25028 0.775006 0
M  V30 954 H 88.2089 -4.15862 -0.33383 0
M  V30 955 H 86.8389 -3.12353 -0.814568 0
M  V30 956 H 85.8909 -3.45945 1.58196 0
M  V30 957 H 87.2029 -4.62306 1.87282 0
M  V30 958 H 86.3569 -6.06699 0.0115125 0
M  V30 959 H 85.0959 -4.86251 -0.375656 0
M  V30 960 H 84.1009 -5.15538 1.91052 0
M  V30 961 H 85.3259 -6.39337 2.28965 0
M  V30 962 H 83.2719 -6.5598 0.0518075 0
M  V30 963 H 83.1889 -7.39565 1.5678 0
M  V30 964 H 84.4569 -7.78239 0.443277 0
M  V30 965 N 88.686 -0.835752 -1.33615 0
M  V30 966 C 89.963 -0.352017 -1.92406 0
M  V30 967 C 90.343 1.16225 -1.76224 0
M  V30 968 O 89.691 1.97526 -1.14873 0
M  V30 969 C 89.901 -0.795485 -3.39813 0
M  V30 970 C 91.249 -0.801703 -4.16963 0
M  V30 971 O 92.273 -0.738889 -3.48452 0
M  V30 972 O 91.132 -0.886607 -5.3926 0
M  V30 973 H 88.226 -0.0989641 -0.821057 0
M  V30 974 H 90.772 -0.921397 -1.42507 0
M  V30 975 H 89.544 -1.83795 -3.45449 0
M  V30 976 H 89.167 -0.202505 -3.97084 0
M  V30 977 N 90.1641 1.46063 -0.591896 0
M  V30 978 C 91.3921 2.06717 -0.0868936 0
M  V30 979 C 91.8071 1.43916 1.22203 0
M  V30 980 O 91.1641 0.547698 1.74088 0
M  V30 981 C 91.2151 3.6142 0.0758725 0
M  V30 982 O 90.9361 4.21874 -1.18126 0
M  V30 983 C 92.4371 4.39025 0.61416 0
M  V30 984 H 89.6571 0.668162 -0.0616518 0
M  V30 985 H 92.2011 1.8755 -0.815175 0
M  V30 986 H 90.3561 3.79983 0.754413 0
M  V30 987 H 90.7701 5.14861 -1.00092 0
M  V30 988 H 92.2441 5.4783 0.677193 0
M  V30 989 H 92.7211 4.07708 1.63312 0
M  V30 990 H 93.3271 4.2529 -0.0298142 0
M  V30 991 N 91.6422 0.330177 1.54103 0
M  V30 992 C 92.8912 -0.271336 1.99867 0
M  V30 993 C 93.2042 -1.52723 1.22209 0
M  V30 994 O 94.4102 -2.20515 1.58383 0
M  V30 995 C 92.8662 -0.534032 3.55916 0
M  V30 996 C 92.4742 0.705193 4.42415 0
M  V30 997 C 94.2182 -1.09514 4.1013 0
M  V30 998 C 92.1252 0.414035 5.89949 0
M  V30 999 H 91.0552 -0.105166 0.74663 0
M  V30 1000 H 93.7062 0.443429 1.78062 0
M  V30 1001 H 92.0882 -1.30915 3.73734 0
M  V30 1002 H 93.2622 1.4804 4.36372 0
M  V30 1003 H 91.5772 1.18698 3.99124 0
M  V30 1004 H 94.1742 -1.3277 5.17954 0
M  V30 1005 H 94.5172 -2.04656 3.62521 0
M  V30 1006 H 95.0502 -0.381038 3.95971 0
M  V30 1007 H 91.7892 1.33481 6.41766 0
M  V30 1008 H 91.3092 -0.323336 5.98928 0
M  V30 1009 H 92.9882 0.0263105 6.46995 0
M  V30 1010 N 93.1203 -1.57491 0.0584922 0
M  V30 1011 C 94.0683 -2.13148 -0.931168 0
M  V30 1012 C 95.0623 -1.06507 -1.31729 0
M  V30 1013 O 96.2683 -1.24906 -1.29609 0
M  V30 1014 H 92.6433 -0.68137 -0.31818 0
M  V30 1015 H 94.6143 -2.95187 -0.436707 0
M  V30 1016 C 93.3633 -2.69732 -2.19408 0
M  V30 1017 H 92.6863 -3.51454 -1.90578 0
M  V30 1018 H 94.1263 -3.12287 -2.86798 0
M  V30 1019 C 92.5853 -1.63855 -2.94369 0
M  V30 1020 O 93.1153 -1.05565 -3.87581 0
M  V30 1021 N 91.3213 -1.35202 -2.57233 0
M  V30 1022 H 90.8683 -1.82791 -1.81508 0
M  V30 1023 H 90.8263 -0.645922 -3.07693 0
M  V30 1024 N 94.5984 0.214957 -1.56127 0
M  V30 1025 C 95.5454 1.26642 -1.92952 0
M  V30 1026 C 96.5154 1.46244 -0.78753 0
M  V30 1027 O 97.7004 1.59704 -1.04399 0
M  V30 1028 C 94.8404 2.6104 -2.25726 0
M  V30 1029 C 93.9534 2.49183 -3.52891 0
M  V30 1030 C 93.0884 3.76149 -3.7508 0
M  V30 1031 C 92.1274 3.59041 -4.95738 0
M  V30 1032 N 91.2644 4.77972 -5.14283 0
M  V30 1033 H 96.1044 0.945384 -2.82607 0
M  V30 1034 H 93.6414 0.455489 -1.3987 0
M  V30 1035 H 95.5994 3.39313 -2.42739 0
M  V30 1036 H 94.2294 2.91227 -1.39236 0
M  V30 1037 H 93.2814 1.6231 -3.44034 0
M  V30 1038 H 94.5934 2.32466 -4.41318 0
M  V30 1039 H 93.7474 4.62865 -3.92226 0
M  V30 1040 H 92.4864 3.95799 -2.84947 0
M  V30 1041 H 91.4914 2.7071 -4.78535 0
M  V30 1042 H 92.7164 3.40856 -5.87362 0
M  V30 1043 H 90.6624 4.97923 -4.27093 0
M  V30 1044 H 90.5794 4.64006 -5.96853 0
M  V30 1045 H 91.8474 5.66096 -5.35869 0
M  V30 1046 N 96.0765 1.50051 0.48192 0
M  V30 1047 C 97.3255 1.59741 1.23149 0
M  V30 1048 C 97.6385 0.298163 1.93314 0
M  V30 1049 O 98.8445 0.273835 2.70116 0
M  V30 1050 C 97.3005 2.81926 2.23708 0
M  V30 1051 C 96.9085 4.18685 1.59396 0
M  V30 1052 C 98.6525 3.00956 2.99375 0
M  V30 1053 C 96.5595 5.3207 2.58178 0
M  V30 1054 H 95.4895 0.594838 0.46334 0
M  V30 1055 H 98.1405 1.76467 0.503169 0
M  V30 1056 H 96.5225 2.58736 2.99786 0
M  V30 1057 H 97.6965 4.52088 0.891811 0
M  V30 1058 H 96.0115 4.05171 0.960503 0
M  V30 1059 H 98.6085 3.82836 3.73283 0
M  V30 1060 H 98.9515 2.12258 3.58123 0
M  V30 1061 H 99.4845 3.24277 2.30411 0
M  V30 1062 H 96.2235 6.22888 2.04184 0
M  V30 1063 H 95.7435 5.03098 3.26577 0
M  V30 1064 H 97.4225 5.62196 3.20225 0
M  V30 1065 N 97.5546 -0.734337 1.39446 0
M  V30 1066 C 98.9706 -1.03997 1.21065 0
M  V30 1067 C 99.1706 -2.01369 0.0727019 0
M  V30 1068 O 98.2266 -2.45856 -0.575426 0
M  V30 1069 C 99.5396 -1.60163 2.54496 0
M  V30 1070 C 101.088 -1.7224 2.61347 0
M  V30 1071 C 101.563 -2.31814 3.95002 0
M  V30 1072 N 103.054 -2.39223 3.96644 0
M  V30 1073 C 103.789 -2.86258 4.96834 0
M  V30 1074 N 103.285 -3.33184 6.07421 0
M  V30 1075 N 105.078 -2.85473 4.84213 0
M  V30 1076 H 97.2286 -0.0885624 2.12215 0
M  V30 1077 H 99.4916 -0.10191 0.942506 0
M  V30 1078 H 99.1976 -0.960811 3.38321 0
M  V30 1079 H 99.0716 -2.5896 2.74262 0
M  V30 1080 H 101.459 -2.35443 1.77906 0
M  V30 1081 H 101.54 -0.720939 2.4543 0
M  V30 1082 H 101.184 -1.69238 4.78875 0
M  V30 1083 H 101.114 -3.32638 4.08239 0
M  V30 1084 H 103.605 -2.06057 3.16779 0
M  V30 1085 H 103.918 -3.67586 6.7978 0
M  V30 1086 H 102.263 -3.31191 6.11013 0
M  V30 1087 H 105.454 -2.48136 3.96921 0
M  V30 1088 H 105.627 -3.21814 5.62441 0
M  V30 1089 N 99.0327 -1.24633 -0.964593 0
M  V30 1090 C 100.31 -0.995809 -1.68354 0
M  V30 1091 C 100.69 0.480964 -2.05548 0
M  V30 1092 O 100.038 1.45599 -1.76105 0
M  V30 1093 C 100.248 -1.92177 -2.91323 0
M  V30 1094 C 101.596 -2.19446 -3.63495 0
M  V30 1095 O 102.62 -1.89855 -3.01386 0
M  V30 1096 O 101.479 -2.69714 -4.75307 0
M  V30 1097 H 98.5727 -0.376854 -0.736146 0
M  V30 1098 H 101.119 -1.35745 -1.0184 0
M  V30 1099 H 99.8907 -2.91938 -2.60553 0
M  V30 1100 H 99.5137 -1.56349 -3.65569 0
M  V30 1101 N 100.511 1.16574 -1.06058 0
M  V30 1102 C 101.441 2.23057 -0.690488 0
M  V30 1103 C 102.422 1.67141 0.315901 0
M  V30 1104 O 103.607 1.93253 0.191556 0
M  V30 1105 C 100.737 3.47222 -0.073625 0
M  V30 1106 C 99.6908 4.16016 -1.00573 0
M  V30 1107 C 99.0168 5.34104 -0.252289 0
M  V30 1108 C 100.317 4.67264 -2.33371 0
M  V30 1109 H 102.011 2.54271 -1.58072 0
M  V30 1110 H 99.5568 1.22218 -0.76149 0
M  V30 1111 H 101.51 4.20939 0.19714 0
M  V30 1112 H 100.234 3.15302 0.85161 0
M  V30 1113 H 98.8928 3.44223 -1.2612 0
M  V30 1114 H 98.5408 4.98437 0.675988 0
M  V30 1115 H 98.2408 5.81072 -0.873455 0
M  V30 1116 H 99.7648 6.10599 0.0109857 0
M  V30 1117 H 101.179 5.32573 -2.12223 0
M  V30 1118 H 99.5758 5.24843 -2.90963 0
M  V30 1119 H 100.646 3.83602 -2.96611 0
M  V30 1120 N 101.989 0.842826 1.3317 0
M  V30 1121 C 103.405 0.531128 1.50503 0
M  V30 1122 C 103.605 -0.940734 1.78192 0
M  V30 1123 O 102.661 -1.72436 1.84451 0
M  V30 1124 C 103.974 1.40789 2.65705 0
M  V30 1125 C 105.522 1.40708 2.79589 0
M  V30 1126 C 105.997 2.26878 3.97857 0
M  V30 1127 N 107.488 2.24609 4.05099 0
M  V30 1128 C 108.223 2.88019 4.95815 0
M  V30 1129 N 107.719 3.60496 5.9162 0
M  V30 1130 N 109.512 2.77469 4.88843 0
M  V30 1131 H 101.663 1.79557 1.1346 0
M  V30 1132 H 103.926 0.766267 0.558156 0
M  V30 1133 H 103.632 2.454 2.51936 0
M  V30 1134 H 103.506 1.08677 3.61205 0
M  V30 1135 H 105.893 0.368668 2.92788 0
M  V30 1136 H 105.974 1.76829 1.84838 0
M  V30 1137 H 105.618 3.3078 3.85418 0
M  V30 1138 H 105.548 1.88096 4.91861 0
M  V30 1139 H 108.039 1.71906 3.36536 0
M  V30 1140 H 108.352 4.06076 6.57512 0
M  V30 1141 H 106.697 3.64604 5.91683 0
M  V30 1142 H 109.888 2.20406 4.12963 0
M  V30 1143 H 110.061 3.2717 5.59342 0
M  V30 1144 N 103.467 -1.45747 0.599634 0
M  V30 1145 C 104.4 -2.27547 -0.172552 0
M  V30 1146 C 105.378 -1.36657 -0.881116 0
M  V30 1147 O 106.562 -1.66081 -0.891595 0
M  V30 1148 C 103.689 -3.14829 -1.24903 0
M  V30 1149 C 102.735 -4.21603 -0.644465 0
M  V30 1150 S 103.568 -5.32754 0.541606 0
M  V30 1151 C 104.724 -6.23604 -0.535656 0
M  V30 1152 H 104.957 -2.92691 0.521468 0
M  V30 1153 H 102.49 -1.49473 0.386947 0
M  V30 1154 H 104.448 -3.65675 -1.86527 0
M  V30 1155 H 103.109 -2.48965 -1.91508 0
M  V30 1156 H 102.302 -4.82566 -1.45417 0
M  V30 1157 H 101.904 -3.73857 -0.103534 0
M  V30 1158 H 104.196 -6.62519 -1.41686 0
M  V30 1159 H 105.139 -7.0809 0.0376246 0
M  V30 1160 H 105.547 -5.58103 -0.84741 0
M  V30 1161 N 104.945 -0.338344 -1.53925 0
M  V30 1162 C 105.892 0.520845 -2.24846 0
M  V30 1163 C 106.862 1.09976 -1.24477 0
M  V30 1164 O 108.047 1.13735 -1.53196 0
M  V30 1165 C 105.187 1.6685 -3.02084 0
M  V30 1166 C 104.3 1.11739 -4.17299 0
M  V30 1167 C 103.435 2.23193 -4.82036 0
M  V30 1168 C 102.474 1.65407 -5.89328 0
M  V30 1169 N 101.611 2.70582 -6.47866 0
M  V30 1170 H 106.451 -0.0904881 -2.97863 0
M  V30 1171 H 103.988 -0.0564282 -1.46992 0
M  V30 1172 H 105.946 2.34407 -3.45122 0
M  V30 1173 H 104.576 2.2509 -2.31375 0
M  V30 1174 H 103.628 0.332919 -3.7894 0
M  V30 1175 H 104.94 0.654677 -4.94485 0
M  V30 1176 H 104.094 2.98626 -5.28117 0
M  V30 1177 H 102.833 2.72807 -4.04262 0
M  V30 1178 H 101.838 0.884779 -5.42634 0
M  V30 1179 H 103.063 1.16652 -6.69006 0
M  V30 1180 H 101.009 3.1946 -5.72959 0
M  V30 1181 H 100.926 2.28917 -7.20509 0
M  V30 1182 H 102.194 3.45799 -6.98601 0
M  V30 1183 N 106.423 1.57458 -0.0668435 0
M  V30 1184 C 107.386 2.11323 0.887422 0
M  V30 1185 C 108.386 1.03618 1.22964 0
M  V30 1186 O 109.576 1.29626 1.16373 0
M  V30 1187 C 106.708 2.61048 2.19242 0
M  V30 1188 H 107.901 2.96942 0.420194 0
M  V30 1189 H 105.454 1.55239 0.181793 0
M  V30 1190 H 106.189 1.78868 2.70512 0
M  V30 1191 H 105.974 3.39769 1.95702 0
M  V30 1192 H 107.464 3.02814 2.87565 0
M  V30 1193 N 107.901 -0.206675 1.56239 0
M  V30 1194 C 108.811 -1.27686 1.96808 0
M  V30 1195 C 109.827 -1.50455 0.874035 0
M  V30 1196 O 111.003 -1.63295 1.17884 0
M  V30 1197 C 108.068 -2.60358 2.28942 0
M  V30 1198 C 107.129 -2.45762 3.51994 0
M  V30 1199 C 106.362 -3.72108 3.82585 0
M  V30 1200 O 106.585 -4.75776 3.14631 0
M  V30 1201 O 105.519 -3.6833 4.76043 0
M  V30 1202 H 109.345 -0.962593 2.88041 0
M  V30 1203 H 106.93 -0.410746 1.43643 0
M  V30 1204 H 108.812 -3.38687 2.50737 0
M  V30 1205 H 107.487 -2.91435 1.4088 0
M  V30 1206 H 106.394 -1.65584 3.35459 0
M  V30 1207 H 107.727 -2.19621 4.40486 0
M  V30 1208 N 109.379 -1.50304 -0.473955 0
M  V30 1209 C 110.656 -1.51667 -1.23518 0
M  V30 1210 C 111.036 -0.259701 -2.09496 0
M  V30 1211 O 110.384 0.756986 -2.15597 0
M  V30 1212 C 110.594 -2.81082 -2.06868 0
M  V30 1213 C 111.942 -3.31631 -2.65153 0
M  V30 1214 O 112.966 -2.82384 -2.17113 0
M  V30 1215 O 111.825 -4.17471 -3.52675 0
M  V30 1216 H 108.919 -0.60822 -0.560355 0
M  V30 1217 H 111.465 -1.62592 -0.486011 0
M  V30 1218 H 110.237 -3.64041 -1.4349 0
M  V30 1219 H 109.86 -2.73146 -2.88924 0
M  V30 1220 N 110.857 0.726932 -1.39834 0
M  V30 1221 C 112.087 1.51393 -1.40583 0
M  V30 1222 C 112.495 1.892 -0.000740625 0
M  V30 1223 O 111.838 1.55189 0.982951 0
M  V30 1224 C 111.9 2.82588 -2.22226 0
M  V30 1225 C 111.564 2.67169 -3.70769 0
M  V30 1226 C 112.561 2.3518 -4.63666 0
M  V30 1227 C 110.246 2.83788 -4.14451 0
M  V30 1228 C 112.24 2.20002 -5.98229 0
M  V30 1229 C 109.927 2.68229 -5.49087 0
M  V30 1230 C 110.925 2.36382 -6.4079 0
M  V30 1231 O 110.613 2.2093 -7.72946 0
M  V30 1232 H 110.345 0.474168 -0.48181 0
M  V30 1233 H 112.899 0.905247 -1.84376 0
M  V30 1234 H 111.129 3.45746 -1.73195 0
M  V30 1235 H 112.818 3.44247 -2.15055 0
M  V30 1236 H 113.584 2.21984 -4.31217 0
M  V30 1237 H 109.463 3.07566 -3.43401 0
M  V30 1238 H 113.007 1.95067 -6.69772 0
M  V30 1239 H 108.904 2.81006 -5.81125 0
M  V30 1240 H 109.672 2.35937 -7.83757 0
M  V30 1241 N 112.336 1.25143 0.95797 0
M  V30 1242 C 113.246 1.06968 2.08794 0
M  V30 1243 C 114.262 0.00773911 1.73998 0
M  V30 1244 O 115.438 0.207972 2.00323 0
M  V30 1245 C 112.503 0.68691 3.39827 0
M  V30 1246 C 111.564 1.82641 3.88511 0
M  V30 1247 C 110.797 1.46181 5.1329 0
M  V30 1248 O 111.02 0.355971 5.69288 0
M  V30 1249 O 109.954 2.29085 5.566 0
M  V30 1250 H 113.78 2.01723 2.27027 0
M  V30 1251 H 111.365 1.04051 1.07209 0
M  V30 1252 H 113.247 0.485417 4.18595 0
M  V30 1253 H 111.922 -0.231417 3.22872 0
M  V30 1254 H 110.829 2.08274 3.10762 0
M  V30 1255 H 112.162 2.72386 4.09959 0
M  V30 1256 N 113.814 -1.1601 1.06675 0
M  V30 1257 C 115.06 -1.86909 0.786945 0
M  V30 1258 C 115.393 -1.81717 -0.685018 0
M  V30 1259 O 114.668 -1.23551 -1.50218 0
M  V30 1260 C 114.951 -3.36313 1.28707 0
M  V30 1261 C 114.804 -3.50175 2.82308 0
M  V30 1262 C 116.123 -4.3084 0.898071 0
M  V30 1263 H 113.242 -0.678677 0.287343 0
M  V30 1264 H 115.884 -1.36336 1.32334 0
M  V30 1265 H 114.034 -3.79513 0.830768 0
M  V30 1266 H 115.706 -3.15886 3.36175 0
M  V30 1267 H 113.949 -2.91959 3.20847 0
M  V30 1268 H 114.62 -4.55116 3.12368 0
M  V30 1269 H 117.096 -3.95561 1.29114 0
M  V30 1270 H 115.972 -5.33876 1.27543 0
M  V30 1271 H 116.233 -4.41662 -0.196651 0
M  V30 1272 N 115.292 -0.849877 -1.32721 0
M  V30 1273 C 116.538 -0.451591 -1.97708 0
M  V30 1274 C 116.871 0.989175 -1.6712 0
M  V30 1275 O 116.146 1.69334 -0.956891 0
M  V30 1276 C 116.429 -0.685598 -3.53513 0
M  V30 1277 C 116.282 -2.17444 -3.93749 0
M  V30 1278 C 117.601 -0.138874 -4.39881 0
M  V30 1279 H 114.72 -0.16555 -0.718166 0
M  V30 1280 H 117.362 -1.06742 -1.57182 0
M  V30 1281 H 115.512 -0.161416 -3.88165 0
M  V30 1282 H 117.184 -2.76433 -3.693 0
M  V30 1283 H 115.427 -2.65476 -3.43081 0
M  V30 1284 H 116.098 -2.28888 -5.02309 0
M  V30 1285 H 118.574 -0.587068 -4.11938 0
M  V30 1286 H 117.45 -0.332213 -5.47894 0
M  V30 1287 H 117.711 0.95806 -4.31594 0
M  V30 1288 N 116.77 1.45427 -0.607355 0
M  V30 1289 C 117.717 2.3053 0.111625 0
M  V30 1290 C 118.687 1.4209 0.860216 0
M  V30 1291 O 119.872 1.71019 0.845998 0
M  V30 1292 C 117.012 3.26992 1.10319 0
M  V30 1293 C 116.125 4.30535 0.355493 0
M  V30 1294 C 115.26 5.14105 1.33676 0
M  V30 1295 C 114.299 6.09376 0.576862 0
M  V30 1296 N 113.436 6.85727 1.5074 0
M  V30 1297 H 118.276 2.91477 -0.620093 0
M  V30 1298 H 115.813 1.43631 -0.317594 0
M  V30 1299 H 117.771 3.81385 1.6912 0
M  V30 1300 H 116.401 2.67799 1.80232 0
M  V30 1301 H 115.453 3.78805 -0.348023 0
M  V30 1302 H 116.765 4.98235 -0.237423 0
M  V30 1303 H 115.919 5.72897 1.99684 0
M  V30 1304 H 114.658 4.46423 1.9636 0
M  V30 1305 H 113.663 5.49715 -0.0968519 0
M  V30 1306 H 114.888 6.79085 -0.0449341 0
M  V30 1307 H 112.834 6.20735 2.12189 0
M  V30 1308 H 112.751 7.49778 0.967913 0
M  V30 1309 H 114.019 7.4906 2.15706 0
M  V30 1310 N 118.248 0.346503 1.53744 0
M  V30 1311 C 119.494 -0.249473 2.0126 0
M  V30 1312 C 119.827 -1.49965 1.23386 0
M  V30 1313 O 119.102 -1.91811 0.32229 0
M  V30 1314 C 119.385 -0.560643 3.55709 0
M  V30 1315 C 119.238 0.701836 4.44291 0
M  V30 1316 C 120.557 -1.36905 4.18264 0
M  V30 1317 H 117.676 -0.0891987 0.731582 0
M  V30 1318 H 120.318 0.467624 1.84156 0
M  V30 1319 H 118.468 -1.17156 3.70414 0
M  V30 1320 H 120.14 1.33974 4.41417 0
M  V30 1321 H 118.383 1.32612 4.13033 0
M  V30 1322 H 119.054 0.43933 5.50249 0
M  V30 1323 H 121.53 -0.852448 4.07275 0
M  V30 1324 H 120.406 -1.55553 5.26398 0
M  V30 1325 H 120.667 -2.37203 3.73078 0
M  V30 1326 N 119.726 -1.57421 0.075193 0
M  V30 1327 C 120.975 -1.92794 -0.592731 0
M  V30 1328 C 121.288 -0.957478 -1.70563 0
M  V30 1329 O 122.494 -1.20417 -2.43335 0
M  V30 1330 C 120.95 -3.42495 -1.10569 0
M  V30 1331 C 120.558 -4.47994 -0.0236121 0
M  V30 1332 C 122.302 -3.86864 -1.74748 0
M  V30 1333 C 120.209 -5.88829 -0.550803 0
M  V30 1334 H 119.139 -0.719591 -0.225177 0
M  V30 1335 H 121.79 -1.82902 0.147978 0
M  V30 1336 H 120.172 -3.47471 -1.89947 0
M  V30 1337 H 121.346 -4.54637 0.751099 0
M  V30 1338 H 119.661 -4.13113 0.522159 0
M  V30 1339 H 122.258 -4.8947 -2.15229 0
M  V30 1340 H 122.601 -3.24417 -2.60882 0
M  V30 1341 H 123.134 -3.84504 -1.01986 0
M  V30 1342 H 119.873 -6.54929 0.273457 0
M  V30 1343 H 119.393 -5.85698 -1.29296 0
M  V30 1344 H 121.072 -6.38811 -1.02613 0
M  V30 1345 N 121.204 0.198386 -1.56346 0
M  V30 1346 C 122.452 0.91747 -1.80075 0
M  V30 1347 C 122.773 1.83929 -0.647692 0
M  V30 1348 O 122.043 1.93029 0.334166 0
M  V30 1349 H 120.623 0.341774 -0.664228 0
M  V30 1350 H 123.285 0.204684 -1.93822 0
M  V30 1351 H 122.381 1.51055 -2.7311 0
M  V30 1352 N 122.682 1.50554 0.465978 0
M  V30 1353 C 124.098 1.38093 0.800154 0
M  V30 1354 C 124.298 0.440988 1.96615 0
M  V30 1355 O 123.354 -0.114499 2.5224 0
M  V30 1356 C 124.667 2.79565 1.10742 0
M  V30 1357 C 126.215 2.88516 1.21357 0
M  V30 1358 C 126.69 4.30833 1.55393 0
M  V30 1359 N 128.181 4.33807 1.62375 0
M  V30 1360 C 128.916 5.40927 1.90225 0
M  V30 1361 N 128.412 6.58247 2.16062 0
M  V30 1362 N 130.205 5.28376 1.9177 0
M  V30 1363 H 122.356 2.10237 -0.302366 0
M  V30 1364 H 124.619 0.945203 -0.0727746 0
M  V30 1365 H 124.325 3.50208 0.323661 0
M  V30 1366 H 124.199 3.17125 2.04234 0
M  V30 1367 H 126.586 2.1809 1.98799 0
M  V30 1368 H 126.667 2.54492 0.258321 0
M  V30 1369 H 126.311 5.01799 0.784889 0
M  V30 1370 H 126.241 4.62347 2.52076 0
M  V30 1371 H 128.732 3.49212 1.44427 0
M  V30 1372 H 129.045 7.3569 2.36601 0
M  V30 1373 H 127.39 6.61413 2.13444 0
M  V30 1374 H 130.581 4.35715 1.71085 0
M  V30 1375 H 130.754 6.11944 2.13139 0
M  V30 1376 N 124.16 -0.719506 1.40217 0
M  V30 1377 C 125.408 -1.47641 1.3801 0
M  V30 1378 C 125.729 -1.94992 -0.018145 0
M  V30 1379 O 124.999 -1.70073 -0.972207 0
M  V30 1380 H 123.579 -0.547744 0.507923 0
M  V30 1381 H 126.241 -0.853187 1.75233 0
M  V30 1382 H 125.337 -2.35112 2.05253 0
M  V30 1383 N 125.638 -1.25649 -0.95132 0
M  V30 1384 C 126.601 -1.06399 -2.03007 0
M  V30 1385 C 127.601 -0.0156794 -1.60792 0
M  V30 1386 O 128.791 -0.25817 -1.72276 0
M  V30 1387 C 125.923 -0.616184 -3.35285 0
M  V30 1388 H 127.116 -2.02164 -2.21517 0
M  V30 1389 H 124.669 -1.08103 -1.12887 0
M  V30 1390 H 125.404 0.343917 -3.22471 0
M  V30 1391 H 125.189 -1.37301 -3.67275 0
M  V30 1392 H 126.679 -0.503032 -4.14559 0
M  V30 1393 N 127.117 1.15442 -1.07289 0
M  V30 1394 C 128.364 1.86213 -0.795668 0
M  V30 1395 C 128.692 1.82291 0.678238 0
M  V30 1396 O 127.947 1.24057 1.51355 0
M  V30 1397 C 128.246 3.3489 -1.24834 0
M  V30 1398 C 127.912 3.59007 -2.72809 0
M  V30 1399 C 126.574 3.65298 -3.13227 0
M  V30 1400 C 128.926 3.68762 -3.68326 0
M  V30 1401 C 126.254 3.78854 -4.4798 0
M  V30 1402 C 128.606 3.83842 -5.0284 0
M  V30 1403 C 127.27 3.88378 -5.4288 0
M  V30 1404 H 126.54 0.681403 -0.291155 0
M  V30 1405 H 129.187 1.36435 -1.34379 0
M  V30 1406 H 127.492 3.8687 -0.619595 0
M  V30 1407 H 129.189 3.88052 -1.01076 0
M  V30 1408 H 125.779 3.5475 -2.40521 0
M  V30 1409 H 129.963 3.63202 -3.38227 0
M  V30 1410 H 125.219 3.80623 -4.78472 0
M  V30 1411 H 129.393 3.90332 -5.76727 0
M  V30 1412 H 127.02 3.98635 -6.47298 0
M  V30 1413 N 128.595 0.856903 1.32268 0
M  V30 1414 C 129.843 0.460474 1.96784 0
M  V30 1415 C 130.164 -0.987701 1.68135 0
M  V30 1416 O 129.434 -1.69058 0.989765 0
M  V30 1417 H 128.014 0.167289 0.728027 0
M  V30 1418 H 130.676 1.09383 1.61312 0
M  V30 1419 H 129.772 0.60739 3.06133 0
M  V30 1420 N 130.073 -1.45103 0.615059 0
M  V30 1421 C 130.983 -2.34382 -0.101034 0
M  V30 1422 C 131.999 -1.51681 -0.852585 0
M  V30 1423 O 133.175 -1.8446 -0.808484 0
M  V30 1424 C 130.24 -3.29417 -1.08099 0
M  V30 1425 C 129.301 -4.28025 -0.330577 0
M  V30 1426 C 128.534 -5.1852 -1.26385 0
M  V30 1427 O 128.757 -5.12598 -2.50198 0
M  V30 1428 O 127.691 -5.97122 -0.756866 0
M  V30 1429 H 131.517 -2.97033 0.632855 0
M  V30 1430 H 129.102 -1.4461 0.375293 0
M  V30 1431 H 130.984 -3.87958 -1.6452 0
M  V30 1432 H 129.659 -2.69321 -1.79577 0
M  V30 1433 H 128.566 -3.73078 0.276283 0
M  V30 1434 H 129.899 -4.90997 0.343866 0
M  V30 1435 N 131.551 -0.354651 -1.53558 0
M  V30 1436 C 132.797 0.238797 -2.01389 0
M  V30 1437 C 133.13 1.49309 -1.2418 0
M  V30 1438 O 132.405 1.91638 -0.332457 0
M  V30 1439 C 132.688 0.541771 -3.56001 0
M  V30 1440 C 132.541 -0.725388 -4.43912 0
M  V30 1441 C 133.86 1.34685 -4.18984 0
M  V30 1442 H 130.979 0.0853177 -0.732045 0
M  V30 1443 H 133.621 -0.477384 -1.83905 0
M  V30 1444 H 131.771 1.15189 -3.71031 0
M  V30 1445 H 133.443 -1.36313 -4.407 0
M  V30 1446 H 131.686 -1.34801 -4.12324 0
M  V30 1447 H 132.357 -0.468505 -5.50008 0
M  V30 1448 H 134.833 0.830837 -4.07721 0
M  V30 1449 H 133.709 1.52759 -5.27215 0
M  V30 1450 H 133.97 2.35221 -3.74331 0
M  V30 1451 N 133.029 1.57378 -0.0835403 0
M  V30 1452 C 133.961 2.10389 0.909338 0
M  V30 1453 C 134.974 1.03858 1.25369 0
M  V30 1454 O 136.163 1.31338 1.20882 0
M  V30 1455 C 133.263 2.55908 2.2218 0
M  V30 1456 C 132.436 3.86145 2.05453 0
M  V30 1457 C 131.495 4.17633 3.20108 0
M  V30 1458 O 130.521 4.87043 2.94581 0
M  V30 1459 N 131.723 3.72113 4.45547 0
M  V30 1460 H 134.488 2.962 0.456657 0
M  V30 1461 H 132.049 1.61579 0.101877 0
M  V30 1462 H 134.041 2.74027 2.97811 0
M  V30 1463 H 132.611 1.75171 2.58909 0
M  V30 1464 H 131.831 3.7729 1.1422 0
M  V30 1465 H 133.119 4.7137 1.91541 0
M  V30 1466 H 132.517 3.16062 4.69171 0
M  V30 1467 H 131.074 3.95409 5.18165 0
M  V30 1468 N 134.507 -0.190092 1.56449 0
M  V30 1469 C 135.437 -1.23816 1.97969 0
M  V30 1470 C 136.418 -1.47201 0.852395 0
M  V30 1471 O 137.603 -1.58854 1.1171 0
M  V30 1472 C 134.733 -2.5813 2.3235 0
M  V30 1473 C 133.687 -2.49348 3.47864 0
M  V30 1474 C 133.013 -3.8798 3.67934 0
M  V30 1475 C 134.313 -2.01424 4.81898 0
M  V30 1476 H 136.007 -0.89311 2.85769 0
M  V30 1477 H 133.553 -0.428177 1.37487 0
M  V30 1478 H 135.506 -3.31637 2.59991 0
M  V30 1479 H 134.23 -2.94386 1.41438 0
M  V30 1480 H 132.889 -1.78297 3.20321 0
M  V30 1481 H 132.537 -4.21597 2.74344 0
M  V30 1482 H 132.237 -3.82978 4.45648 0
M  V30 1483 H 133.761 -4.63101 3.97957 0
M  V30 1484 H 135.175 -2.64693 5.08538 0
M  V30 1485 H 133.572 -2.07413 5.63116 0
M  V30 1486 H 134.642 -0.967677 4.75146 0
M  V30 1487 N 135.985 -1.50799 -0.457987 0
M  V30 1488 C 137.231 -1.62683 -1.21088 0
M  V30 1489 C 137.564 -0.332268 -1.91336 0
M  V30 1490 O 136.839 0.667043 -1.82704 0
M  V30 1491 C 137.122 -2.81615 -2.24422 0
M  V30 1492 C 136.975 -4.20989 -1.58392 0
M  V30 1493 C 138.294 -2.96085 -3.2561 0
M  V30 1494 H 135.413 -0.592087 -0.438864 0
M  V30 1495 H 138.055 -1.83225 -0.50286 0
M  V30 1496 H 136.205 -2.64231 -2.84806 0
M  V30 1497 H 137.877 -4.49994 -1.01504 0
M  V30 1498 H 136.12 -4.24641 -0.886704 0
M  V30 1499 H 136.791 -5.0016 -2.33547 0
M  V30 1500 H 139.267 -3.12042 -2.75262 0
M  V30 1501 H 138.143 -3.80902 -3.95228 0
M  V30 1502 H 138.404 -2.0726 -3.90507 0
M  V30 1503 N 137.463 0.71206 -1.40597 0
M  V30 1504 C 138.879 1.02058 -1.22704 0
M  V30 1505 C 139.079 2.01228 -0.104729 0
M  V30 1506 O 138.135 2.4674 0.53624 0
M  V30 1507 C 139.448 1.56094 -2.57012 0
M  V30 1508 C 140.996 1.6806 -2.64054 0
M  V30 1509 C 141.471 2.25501 -3.9864 0
M  V30 1510 N 142.962 2.32882 -4.004 0
M  V30 1511 C 143.697 2.78317 -5.01325 0
M  V30 1512 N 143.193 3.23478 -6.12645 0
M  V30 1513 N 144.986 2.77733 -4.88693 0
M  V30 1514 H 137.137 0.0547896 -2.12329 0
M  V30 1515 H 139.4 0.0869027 -0.944008 0
M  V30 1516 H 139.106 0.906865 -3.39807 0
M  V30 1517 H 138.98 2.54564 -2.78347 0
M  V30 1518 H 141.367 2.32583 -1.81629 0
M  V30 1519 H 141.448 0.681802 -2.46546 0
M  V30 1520 H 141.092 1.61598 -4.81506 0
M  V30 1521 H 141.022 3.26102 -4.13479 0
M  V30 1522 H 143.513 2.00991 -3.20017 0
M  V30 1523 H 143.826 3.56725 -6.85542 0
M  V30 1524 H 142.171 3.21429 -6.16205 0
M  V30 1525 H 145.362 2.4179 -4.00818 0
M  V30 1526 H 145.535 3.12826 -5.67489 0
M  V30 1527 N 138.941 1.26152 0.944643 0
M  V30 1528 C 139.891 1.04081 2.02857 0
M  V30 1529 C 140.875 -0.0256555 1.6088 0
M  V30 1530 O 142.067 0.190884 1.75968 0
M  V30 1531 C 139.196 0.672118 3.36656 0
M  V30 1532 C 138.282 1.77586 3.85128 0
M  V30 1533 N 138.673 3.01272 4.06287 0
M  V30 1534 C 136.971 1.65867 4.1401 0
M  V30 1535 C 137.672 3.72983 4.46384 0
M  V30 1536 N 136.648 3.00653 4.52889 0
M  V30 1537 H 140.45 1.97968 2.17223 0
M  V30 1538 H 137.964 1.16618 1.13022 0
M  V30 1539 H 139.961 0.495166 4.13949 0
M  V30 1540 H 138.621 -0.259307 3.23663 0
M  V30 1541 H 139.632 3.37213 3.93075 0
M  V30 1542 H 136.309 0.796907 4.09824 0
M  V30 1543 H 137.699 4.792 4.70975 0
M  V30 1544 N 140.419 -1.14872 1.07899 0
M  V30 1545 C 141.366 -2.19791 0.704319 0
M  V30 1546 C 142.336 -1.63238 -0.306987 0
M  V30 1547 O 143.521 -1.8983 -0.192171 0
M  V30 1548 C 140.661 -3.44911 0.114244 0
M  V30 1549 C 139.774 -4.15637 1.1777 0
M  V30 1550 C 138.909 -5.28324 0.552037 0
M  V30 1551 C 137.948 -5.90875 1.59789 0
M  V30 1552 N 137.085 -6.95022 0.994404 0
M  V30 1553 H 141.925 -2.5119 1.60336 0
M  V30 1554 H 139.462 -1.23356 0.801352 0
M  V30 1555 H 141.42 -4.16477 -0.245544 0
M  V30 1556 H 140.05 -3.14011 -0.74813 0
M  V30 1557 H 139.102 -3.42512 1.65499 0
M  V30 1558 H 140.414 -4.5823 1.97046 0
M  V30 1559 H 139.568 -6.06538 0.1402 0
M  V30 1560 H 138.307 -4.86939 -0.272431 0
M  V30 1561 H 137.312 -5.11369 2.01945 0
M  V30 1562 H 138.537 -6.34337 2.42474 0
M  V30 1563 H 136.483 -6.55722 0.190939 0
M  V30 1564 H 136.4 -7.36073 1.72432 0
M  V30 1565 H 137.668 -7.77123 0.608253 0
M  V30 1566 N 141.898 -0.863906 -1.31812 0
M  V30 1567 C 143.123 -0.48527 -2.01643 0
M  V30 1568 C 143.548 0.913058 -1.64453 0
M  V30 1569 O 142.906 1.6014 -0.849985 0
M  V30 1570 C 142.954 -0.642625 -3.54828 0
M  V30 1571 O 142.058 0.320659 -4.11151 0
M  V30 1572 H 141.399 -0.193793 -0.635091 0
M  V30 1573 H 143.929 -1.16565 -1.68148 0
M  V30 1574 H 143.939 -0.533628 -4.04495 0
M  V30 1575 H 142.614 -1.66227 -3.81237 0
M  V30 1576 H 141.191 0.167126 -3.72525 0
M  V30 1577 N 143.376 1.44774 -0.622745 0
M  V30 1578 C 144.604 2.06487 -0.130722 0
M  V30 1579 C 145.019 1.46476 1.19123 0
M  V30 1580 O 144.376 0.584502 1.72887 0
M  V30 1581 C 144.427 3.615 -0.000807207 0
M  V30 1582 O 144.148 4.19274 -1.27048 0
M  V30 1583 C 145.649 4.40229 0.520898 0
M  V30 1584 H 142.869 0.666704 -0.0758106 0
M  V30 1585 H 145.413 1.85779 -0.854774 0
M  V30 1586 H 143.568 3.81498 0.673643 0
M  V30 1587 H 143.982 5.12622 -1.1099 0
M  V30 1588 H 145.456 5.49144 0.560838 0
M  V30 1589 H 145.933 4.1108 1.54627 0
M  V30 1590 H 146.539 4.25131 -0.120018 0
M  V30 1591 N 144.854 0.36279 1.53368 0
M  V30 1592 C 146.27 0.0116182 1.59596 0
M  V30 1593 C 146.47 -1.47012 1.37803 0
M  V30 1594 O 145.526 -2.23136 1.18181 0
M  V30 1595 C 146.839 0.465052 2.97082 0
M  V30 1596 C 148.387 0.419033 3.10182 0
M  V30 1597 C 148.862 0.848235 4.50077 0
M  V30 1598 N 150.353 0.803183 4.56183 0
M  V30 1599 C 151.088 1.107 5.62613 0
M  V30 1600 N 150.584 1.47996 6.76808 0
M  V30 1601 N 152.377 1.02998 5.52583 0
M  V30 1602 H 144.528 1.32775 1.65785 0
M  V30 1603 H 146.791 0.542518 0.777417 0
M  V30 1604 H 146.497 1.49892 3.18159 0
M  V30 1605 H 146.371 -0.149786 3.76902 0
M  V30 1606 H 148.758 -0.605696 2.88817 0
M  V30 1607 H 148.839 1.06933 2.32377 0
M  V30 1608 H 148.483 1.87107 4.7218 0
M  V30 1609 H 148.413 0.175218 5.26308 0
M  V30 1610 H 150.904 0.52838 3.74188 0
M  V30 1611 H 151.217 1.69613 7.53957 0
M  V30 1612 H 149.562 1.51859 6.78206 0
M  V30 1613 H 152.753 0.737817 4.62249 0
M  V30 1614 H 152.926 1.2701 6.35431 0
M  V30 1615 N 146.332 -1.57332 0.0918853 0
M  V30 1616 C 147.279 -2.13847 -0.868211 0
M  V30 1617 C 148.249 -1.05618 -1.28196 0
M  V30 1618 O 149.434 -1.33387 -1.36427 0
M  V30 1619 C 146.574 -2.72062 -2.12312 0
M  V30 1620 C 145.687 -3.94514 -1.7602 0
M  V30 1621 C 144.822 -4.40903 -2.96273 0
M  V30 1622 C 143.861 -5.55953 -2.56092 0
M  V30 1623 N 142.998 -5.97209 -3.69169 0
M  V30 1624 H 147.838 -2.95575 -0.379406 0
M  V30 1625 H 145.375 -1.46048 -0.175606 0
M  V30 1626 H 147.333 -3.03931 -2.858 0
M  V30 1627 H 145.963 -1.93068 -2.58698 0
M  V30 1628 H 145.015 -3.68979 -0.925135 0
M  V30 1629 H 146.327 -4.7802 -1.42472 0
M  V30 1630 H 145.481 -4.74539 -3.78018 0
M  V30 1631 H 144.22 -3.56291 -3.33029 0
M  V30 1632 H 143.225 -5.21948 -1.72773 0
M  V30 1633 H 144.45 -6.42311 -2.20484 0
M  V30 1634 H 142.396 -5.15543 -4.05649 0
M  V30 1635 H 142.313 -6.75504 -3.39456 0
M  V30 1636 H 143.581 -6.35475 -4.51434 0
M  V30 1637 N 147.81 0.181792 -1.56548 0
M  V30 1638 C 149.056 0.901431 -1.81665 0
M  V30 1639 C 149.389 1.82347 -0.668075 0
M  V30 1640 O 148.664 1.91669 0.330615 0
M  V30 1641 C 148.947 1.70618 -3.17115 0
M  V30 1642 C 148.8 0.807964 -4.42484 0
M  V30 1643 C 150.119 2.67605 -3.49393 0
M  V30 1644 H 147.238 0.32627 -0.660846 0
M  V30 1645 H 149.88 0.168134 -1.89255 0
M  V30 1646 H 148.03 2.33133 -3.10775 0
M  V30 1647 H 149.702 0.19649 -4.60881 0
M  V30 1648 H 147.945 0.115411 -4.33646 0
M  V30 1649 H 148.616 1.40632 -5.33785 0
M  V30 1650 H 151.092 2.15218 -3.56118 0
M  V30 1651 H 149.968 3.20985 -4.45264 0
M  V30 1652 H 150.229 3.47298 -2.73563 0
M  V30 1653 N 149.288 1.51039 0.449983 0
M  V30 1654 C 150.518 1.66627 1.22143 0
M  V30 1655 C 150.926 0.357776 1.85786 0
M  V30 1656 O 150.269 -0.672424 1.70951 0
M  V30 1657 C 150.331 2.71562 2.35573 0
M  V30 1658 C 149.995 4.14526 1.92399 0
M  V30 1659 C 150.992 4.99717 1.43453 0
M  V30 1660 C 148.677 4.60559 2.00475 0
M  V30 1661 C 150.671 6.28998 1.03155 0
M  V30 1662 C 148.358 5.8984 1.59788 0
M  V30 1663 C 149.356 6.73886 1.11208 0
M  V30 1664 O 149.044 8.0075 0.710935 0
M  V30 1665 H 148.776 0.562635 0.374724 0
M  V30 1666 H 151.33 1.98146 0.541036 0
M  V30 1667 H 149.56 2.3533 3.06849 0
M  V30 1668 H 151.249 2.76156 2.97478 0
M  V30 1669 H 152.015 4.65361 1.36618 0
M  V30 1670 H 147.894 3.95273 2.37235 0
M  V30 1671 H 151.438 6.9455 0.651663 0
M  V30 1672 H 147.335 6.23713 1.66289 0
M  V30 1673 H 148.103 8.142 0.837913 0
M  V30 1674 N 150.766 -0.704594 1.40972 0
M  V30 1675 C 151.729 -1.80035 1.41845 0
M  V30 1676 C 152.729 -1.57774 0.310474 0
M  V30 1677 O 153.919 -1.64613 0.56992 0
M  V30 1678 C 151.051 -3.18284 1.22098 0
M  V30 1679 H 152.244 -1.80658 2.3938 0
M  V30 1680 H 149.797 -0.911329 1.26982 0
M  V30 1681 H 150.532 -3.23306 0.253672 0
M  V30 1682 H 150.317 -3.35843 2.02366 0
M  V30 1683 H 151.807 -3.98289 1.25522 0
M  V30 1684 N 152.244 -1.26651 -0.937939 0
M  V30 1685 C 153.177 -1.02811 -2.03728 0
M  V30 1686 C 154.155 0.0481915 -1.62529 0
M  V30 1687 O 155.339 -0.0948839 -1.88261 0
M  V30 1688 C 152.466 -0.557517 -3.3408 0
M  V30 1689 C 151.512 -1.62686 -3.94253 0
M  V30 1690 S 152.345 -3.21667 -4.28125 0
M  V30 1691 C 153.501 -2.76384 -5.61572 0
M  V30 1692 H 153.734 -1.95891 -2.23638 0
M  V30 1693 H 151.267 -1.10367 -1.07974 0
M  V30 1694 H 153.225 -0.292674 -4.09455 0
M  V30 1695 H 151.886 0.353062 -3.12109 0
M  V30 1696 H 151.079 -1.24866 -4.88287 0
M  V30 1697 H 150.681 -1.84324 -3.25424 0
M  V30 1698 H 152.973 -2.2105 -6.40424 0
M  V30 1699 H 153.916 -3.69123 -6.0428 0
M  V30 1700 H 154.324 -2.15847 -5.21604 0
M  V30 1701 N 153.722 1.14298 -1.08507 0
M  V30 1702 C 154.669 2.19414 -0.715965 0
M  V30 1703 C 155.639 1.63399 0.298326 0
M  V30 1704 O 156.824 1.89929 0.182101 0
M  V30 1705 C 153.964 3.44845 -0.132534 0
M  V30 1706 C 153.077 4.15007 -1.19973 0
M  V30 1707 C 152.212 5.28024 -0.580048 0
M  V30 1708 C 151.251 5.9002 -1.62921 0
M  V30 1709 N 150.388 6.94485 -1.03125 0
M  V30 1710 H 155.228 2.50336 -1.61666 0
M  V30 1711 H 152.765 1.2293 -0.807882 0
M  V30 1712 H 154.723 4.16601 0.223454 0
M  V30 1713 H 153.353 3.14403 0.731467 0
M  V30 1714 H 152.405 3.41629 -1.67313 0
M  V30 1715 H 153.717 4.57178 -1.99473 0
M  V30 1716 H 152.871 6.06455 -0.172364 0
M  V30 1717 H 151.61 4.87076 0.246603 0
M  V30 1718 H 150.615 5.10291 -2.04654 0
M  V30 1719 H 151.84 6.33042 -2.45835 0
M  V30 1720 H 149.786 6.55612 -0.225711 0
M  V30 1721 H 149.703 7.35148 -1.76334 0
M  V30 1722 H 150.971 7.7679 -0.649458 0
M  V30 1723 N 155.201 0.870884 1.31352 0
M  V30 1724 C 156.131 0.343096 2.30966 0
M  V30 1725 C 157.112 -0.566507 1.60389 0
M  V30 1726 O 158.297 -0.483336 1.88089 0
M  V30 1727 C 155.427 -0.455487 3.443 0
M  V30 1728 C 154.381 0.361103 4.26474 0
M  V30 1729 C 153.707 -0.563221 5.31725 0
M  V30 1730 C 155.007 1.59566 4.97329 0
M  V30 1731 H 156.701 1.17548 2.75359 0
M  V30 1732 H 154.247 0.566686 1.32381 0
M  V30 1733 H 156.2 -0.83525 4.13039 0
M  V30 1734 H 154.924 -1.32139 2.98675 0
M  V30 1735 H 153.583 0.722825 3.59403 0
M  V30 1736 H 153.231 -1.42643 4.82351 0
M  V30 1737 H 152.931 -0.0207409 5.87596 0
M  V30 1738 H 154.455 -0.939808 6.03324 0
M  V30 1739 H 155.869 1.28728 5.58661 0
M  V30 1740 H 154.266 2.07728 5.63 0
M  V30 1741 H 155.336 2.34798 4.24262 0
M  V30 1742 N 156.679 -1.44442 0.630414 0
M  V30 1743 C 157.609 -2.33418 -0.0618083 0
M  V30 1744 C 158.59 -1.48165 -0.835541 0
M  V30 1745 O 159.775 -1.76886 -0.801564 0
M  V30 1746 C 156.905 -3.31222 -1.04449 0
M  V30 1747 C 155.859 -4.26288 -0.382436 0
M  V30 1748 C 155.185 -5.13954 -1.47497 0
M  V30 1749 C 156.485 -5.1744 0.710865 0
M  V30 1750 H 158.179 -2.91548 0.681184 0
M  V30 1751 H 155.725 -1.40191 0.329026 0
M  V30 1752 H 157.678 -3.92351 -1.53748 0
M  V30 1753 H 156.402 -2.71299 -1.81836 0
M  V30 1754 H 155.061 -3.6649 0.0899054 0
M  V30 1755 H 154.709 -4.50385 -2.2397 0
M  V30 1756 H 154.409 -5.7837 -1.03737 0
M  V30 1757 H 155.933 -5.77955 -1.96979 0
M  V30 1758 H 157.347 -5.72509 0.300996 0
M  V30 1759 H 155.744 -5.90455 1.07156 0
M  V30 1760 H 156.814 -4.58496 1.57829 0
M  V30 1761 N 158.157 -0.370918 -1.53173 0
M  V30 1762 C 159.382 0.220293 -2.06227 0
M  V30 1763 C 159.807 1.41243 -1.24225 0
M  V30 1764 O 159.165 1.79387 -0.262645 0
M  V30 1765 C 159.213 0.586663 -3.55796 0
M  V30 1766 O 158.317 1.68317 -3.76488 0
M  V30 1767 H 157.658 0.0308099 -0.663285 0
M  V30 1768 H 160.188 -0.533068 -1.97534 0
M  V30 1769 H 160.198 0.85617 -3.98916 0
M  V30 1770 H 158.873 -0.285013 -4.14922 0
M  V30 1771 H 157.45 1.40881 -3.45264 0
M  V30 1772 N 159.635 1.57281 -0.100228 0
M  V30 1773 C 160.582 2.14305 0.856858 0
M  V30 1774 C 161.552 1.06296 1.27634 0
M  V30 1775 O 162.737 1.34109 1.35718 0
M  V30 1776 C 159.877 2.73184 2.10866 0
M  V30 1777 C 158.99 3.95442 1.73925 0
M  V30 1778 C 158.125 4.42468 2.93931 0
M  V30 1779 C 157.164 5.57303 2.5314 0
M  V30 1780 N 156.301 5.99158 3.65997 0
M  V30 1781 H 161.141 2.95772 0.363726 0
M  V30 1782 H 158.678 1.46139 0.167858 0
M  V30 1783 H 160.636 3.05442 2.84185 0
M  V30 1784 H 159.266 1.94437 2.57671 0
M  V30 1785 H 158.318 3.69464 0.905554 0
M  V30 1786 H 159.63 4.78769 1.39935 0
M  V30 1787 H 158.784 4.76537 3.75496 0
M  V30 1788 H 157.523 3.58052 3.31134 0
M  V30 1789 H 156.528 5.22857 1.70003 0
M  V30 1790 H 157.753 6.43471 2.17075 0
M  V30 1791 H 155.699 5.17687 4.02909 0
M  V30 1792 H 155.616 6.77295 3.35869 0
M  V30 1793 H 156.884 6.3786 4.48057 0
M  V30 1794 N 161.113 -0.173488 1.56642 0
M  V30 1795 C 162.36 -0.890465 1.81871 0
M  V30 1796 C 162.688 -1.82339 0.67696 0
M  V30 1797 O 161.943 -1.92795 -0.335926 0
M  V30 1798 C 162.242 -1.72069 3.13252 0
M  V30 1799 C 161.908 -0.936878 4.41059 0
M  V30 1800 C 160.57 -0.720545 4.75775 0
M  V30 1801 C 162.922 -0.386919 5.19762 0
M  V30 1802 C 160.25 0.0568829 5.86672 0
M  V30 1803 C 162.602 0.37741 6.31473 0
M  V30 1804 C 161.266 0.604563 6.64757 0
M  V30 1805 H 160.536 -0.325844 0.665512 0
M  V30 1806 H 163.183 -0.155527 1.90867 0
M  V30 1807 H 161.488 -2.52496 2.99588 0
M  V30 1808 H 163.185 -2.27844 3.29982 0
M  V30 1809 H 159.775 -1.11553 4.13828 0
M  V30 1810 H 163.959 -0.541398 4.93338 0
M  V30 1811 H 159.215 0.242635 6.10918 0
M  V30 1812 H 163.389 0.810825 6.91664 0
M  V30 1813 H 161.016 1.20885 7.50527 0
M  V30 1814 N 162.591 -1.51276 -0.441967 0
M  V30 1815 C 163.501 -1.75092 -1.56141 0
M  V30 1816 C 164.517 -0.634963 -1.62001 0
M  V30 1817 O 165.693 -0.916686 -1.79329 0
M  V30 1818 C 162.758 -1.86666 -2.92158 0
M  V30 1819 C 161.819 -3.10506 -2.96453 0
M  V30 1820 C 161.052 -3.21519 -4.25982 0
M  V30 1821 O 161.275 -2.38586 -5.18105 0
M  V30 1822 O 160.209 -4.14465 -4.36466 0
M  V30 1823 H 164.035 -2.70044 -1.38961 0
M  V30 1824 H 161.62 -1.35722 -0.624499 0
M  V30 1825 H 163.502 -1.96292 -3.72891 0
M  V30 1826 H 162.177 -0.949014 -3.09476 0
M  V30 1827 H 161.084 -3.06363 -2.14692 0
M  V30 1828 H 162.417 -4.01945 -2.84079 0
M  V30 1829 N 164.069 0.697108 -1.41344 0
M  V30 1830 C 165.002 1.82134 -1.37486 0
M  V30 1831 C 165.98 1.60784 -0.242351 0
M  V30 1832 O 167.164 1.83553 -0.429012 0
M  V30 1833 C 164.291 3.18788 -1.14421 0
M  V30 1834 C 163.337 3.58932 -2.3037 0
M  V30 1835 S 164.17 3.63916 -3.92843 0
M  V30 1836 C 165.326 5.03298 -3.72078 0
M  V30 1837 H 165.559 1.85129 -2.32625 0
M  V30 1838 H 163.092 0.865671 -1.2785 0
M  V30 1839 H 165.05 3.97677 -1.018 0
M  V30 1840 H 163.711 3.13404 -0.20905 0
M  V30 1841 H 162.904 4.58202 -2.09922 0
M  V30 1842 H 162.506 2.87347 -2.39391 0
M  V30 1843 H 164.798 5.90753 -3.31688 0
M  V30 1844 H 165.741 5.28788 -4.70945 0
M  V30 1845 H 166.149 4.74764 -3.05384 0
M  V30 1846 N 165.547 1.27147 0.931209 0
M  V30 1847 C 166.796 1.12664 1.67302 0
M  V30 1848 C 167.109 -0.327718 1.92835 0
M  V30 1849 O 168.315 -0.593392 2.64936 0
M  V30 1850 C 166.771 1.9683 3.01307 0
M  V30 1851 C 166.379 3.46901 2.83485 0
M  V30 1852 C 168.123 1.90985 3.79111 0
M  V30 1853 C 166.03 4.23279 4.13024 0
M  V30 1854 H 164.96 0.41803 0.627509 0
M  V30 1855 H 167.611 1.51539 1.03481 0
M  V30 1856 H 165.993 1.50797 3.66164 0
M  V30 1857 H 167.167 4.00773 2.27415 0
M  V30 1858 H 165.482 3.54088 2.19113 0
M  V30 1859 H 168.079 2.45328 4.75098 0
M  V30 1860 H 168.422 0.882718 4.06834 0
M  V30 1861 H 168.955 2.34895 3.21044 0
M  V30 1862 H 165.694 5.26503 3.90481 0
M  V30 1863 H 165.214 3.74186 4.6877 0
M  V30 1864 H 166.893 4.32265 4.81411 0
M  V30 1865 N 167.025 -1.13721 1.09112 0
M  V30 1866 C 167.972 -2.19031 0.727591 0
M  V30 1867 C 168.942 -1.63555 -0.289656 0
M  V30 1868 O 170.127 -1.90023 -0.172026 0
M  V30 1869 C 167.267 -3.4477 0.15082 0
M  V30 1870 C 166.38 -4.14365 1.22172 0
M  V30 1871 C 165.515 -5.27709 0.608042 0
M  V30 1872 C 164.554 -5.89147 1.66047 0
M  V30 1873 N 163.691 -6.93929 1.06806 0
M  V30 1874 H 168.531 -2.49475 1.62991 0
M  V30 1875 H 166.068 -1.22499 0.81439 0
M  V30 1876 H 168.026 -4.16714 -0.201358 0
M  V30 1877 H 166.656 -3.14787 -0.714783 0
M  V30 1878 H 165.708 -3.40737 1.69122 0
M  V30 1879 H 167.02 -4.56114 2.01895 0
M  V30 1880 H 166.174 -6.06355 0.204523 0
M  V30 1881 H 164.913 -4.872 -0.220769 0
M  V30 1882 H 163.918 -5.09198 2.07357 0
M  V30 1883 H 165.143 -6.31729 2.49189 0
M  V30 1884 H 163.089 -6.55483 0.260476 0
M  V30 1885 H 163.006 -7.34202 1.8023 0
M  V30 1886 H 164.274 -7.76434 0.690644 0
M  V30 1887 N 168.503 -0.877838 -1.30888 0
M  V30 1888 C 169.919 -0.570844 -1.49042 0
M  V30 1889 C 170.119 0.893159 -1.80624 0
M  V30 1890 O 169.175 1.67485 -1.88958 0
M  V30 1891 C 170.488 -1.47784 -2.61878 0
M  V30 1892 C 172.036 -1.48071 -2.75761 0
M  V30 1893 C 172.511 -2.37347 -3.91702 0
M  V30 1894 N 174.002 -2.35271 -3.99001 0
M  V30 1895 C 174.737 -3.01063 -4.88004 0
M  V30 1896 N 174.233 -3.76055 -5.81854 0
M  V30 1897 N 176.026 -2.90332 -4.81315 0
M  V30 1898 H 168.177 -1.82502 -1.0866 0
M  V30 1899 H 170.44 -0.780797 -0.537644 0
M  V30 1900 H 170.146 -2.51993 -2.45341 0
M  V30 1901 H 170.02 -1.18215 -3.58197 0
M  V30 1902 H 172.407 -0.446166 -2.91708 0
M  V30 1903 H 172.488 -1.81668 -1.80085 0
M  V30 1904 H 172.132 -3.40883 -3.76512 0
M  V30 1905 H 172.062 -2.01071 -4.86701 0
M  V30 1906 H 174.553 -1.80768 -3.3186 0
M  V30 1907 H 174.866 -4.23366 -6.46514 0
M  V30 1908 H 173.211 -3.80163 -5.81808 0
M  V30 1909 H 176.402 -2.31278 -4.06974 0
M  V30 1910 H 176.575 -3.41885 -5.50471 0
M  V30 1911 N 169.982 1.44106 -0.638065 0
M  V30 1912 C 171.207 2.0685 -0.150916 0
M  V30 1913 C 171.632 1.47417 1.16833 0
M  V30 1914 O 170.99 0.578264 1.71831 0
M  V30 1915 C 171.038 3.60555 -0.05708 0
M  V30 1916 O 170.142 4.00465 0.984972 0
M  V30 1917 H 169.483 0.658151 -0.0879399 0
M  V30 1918 H 172.013 1.84865 -0.876707 0
M  V30 1919 H 172.023 4.07789 0.131232 0
M  V30 1920 H 170.698 4.03193 -1.02021 0
M  V30 1921 H 169.275 3.64849 0.770672 0
M  V30 1922 N 171.46 0.379036 1.52974 0
M  V30 1923 C 172.737 -0.263479 1.93817 0
M  V30 1924 C 173.117 -1.65244 1.31368 0
M  V30 1925 O 172.465 -2.23448 0.477856 0
M  V30 1926 C 172.675 -0.300166 3.47707 0
M  V30 1927 C 174.023 -0.534061 4.21228 0
M  V30 1928 O 175.047 -0.38081 3.54159 0
M  V30 1929 O 173.906 -0.833501 5.40106 0
M  V30 1930 H 171 -0.161149 0.811147 0
M  V30 1931 H 173.546 0.432798 1.64088 0
M  V30 1932 H 172.318 0.673138 3.85467 0
M  V30 1933 H 171.941 -1.04179 3.83709 0
M  V30 1934 N 172.938 -1.57226 0.108567 0
M  V30 1935 C 174.163 -1.99604 -0.563303 0
M  V30 1936 C 174.588 -0.987563 -1.6009 0
M  V30 1937 O 173.946 0.0421687 -1.81251 0
M  V30 1938 C 173.994 -3.40902 -1.17552 0
M  V30 1939 O 173.098 -3.42896 -2.2912 0
M  V30 1940 H 172.439 -0.648704 -0.1417 0
M  V30 1941 H 174.969 -2.03679 0.193961 0
M  V30 1942 H 174.979 -3.78886 -1.51357 0
M  V30 1943 H 173.654 -4.1382 -0.415445 0
M  V30 1944 H 172.231 -3.1672 -1.96832 0
M  V30 1945 N 174.416 0.165178 -1.56732 0
M  V30 1946 C 175.379 1.18822 -1.95995 0
M  V30 1947 C 176.379 1.3685 -0.84431 0
M  V30 1948 O 177.569 1.34152 -1.11126 0
M  V30 1949 C 174.701 2.5521 -2.26011 0
M  V30 1950 H 175.894 0.851825 -2.87548 0
M  V30 1951 H 173.447 0.407857 -1.50885 0
M  V30 1952 H 174.182 2.93852 -1.37191 0
M  V30 1953 H 173.967 2.43489 -3.07336 0
M  V30 1954 H 175.457 3.28927 -2.57288 0
M  V30 1955 N 175.894 1.51508 0.433938 0
M  V30 1956 C 177.141 1.64345 1.18309 0
M  V30 1957 C 177.469 0.361315 1.91115 0
M  V30 1958 O 176.724 -0.654753 1.84422 0
M  V30 1959 C 177.023 2.79928 2.22205 0
M  V30 1960 C 176.689 4.19078 1.66387 0
M  V30 1961 C 175.351 4.56932 1.50887 0
M  V30 1962 C 177.703 5.05894 1.25381 0
M  V30 1963 C 175.031 5.79305 0.928608 0
M  V30 1964 C 177.383 6.2885 0.687823 0
M  V30 1965 C 176.047 6.65473 0.519755 0
M  V30 1966 H 175.317 0.601381 0.432923 0
M  V30 1967 H 177.964 1.85549 0.473676 0
M  V30 1968 H 176.269 2.52959 2.99197 0
M  V30 1969 H 177.966 2.87059 2.79997 0
M  V30 1970 H 174.556 3.89234 1.79428 0
M  V30 1971 H 178.74 4.77253 1.36175 0
M  V30 1972 H 173.996 6.06324 0.786186 0
M  V30 1973 H 178.17 6.95461 0.361581 0
M  V30 1974 H 175.797 7.6017 0.0679979 0
M  V30 1975 N 177.372 -0.689602 1.41712 0
M  V30 1976 C 178.619 -1.44966 1.4139 0
M  V30 1977 C 178.947 -1.94484 0.025105 0
M  V30 1978 O 178.202 -1.70307 -0.964048 0
M  V30 1979 C 178.501 -2.67298 2.37247 0
M  V30 1980 C 178.167 -2.36405 3.83958 0
M  V30 1981 C 176.829 -2.27691 4.23923 0
M  V30 1982 C 179.181 -2.11043 4.76561 0
M  V30 1983 C 176.509 -1.91719 5.54492 0
M  V30 1984 C 178.861 -1.76578 6.07456 0
M  V30 1985 C 177.525 -1.66363 6.46436 0
M  V30 1986 H 176.795 -0.53047 0.517381 0
M  V30 1987 H 179.442 -0.787655 1.74552 0
M  V30 1988 H 177.747 -3.38461 1.9736 0
M  V30 1989 H 179.444 -3.25452 2.34269 0
M  V30 1990 H 176.034 -2.44085 3.52308 0
M  V30 1991 H 180.218 -2.16717 4.46483 0
M  V30 1992 H 175.474 -1.82367 5.83568 0
M  V30 1993 H 179.648 -1.55974 6.78708 0
M  V30 1994 H 177.275 -1.38258 7.47522 0
M  V30 1995 N 178.85 -1.27639 -0.924453 0
M  V30 1996 C 180.096 -1.15345 -1.67532 0
M  V30 1997 C 180.451 0.297096 -1.90092 0
M  V30 1998 O 179.744 1.21374 -1.48253 0
M  V30 1999 C 179.938 -1.87407 -3.04325 0
M  V30 2000 C 179.767 -3.3932 -2.95114 0
M  V30 2001 C 178.537 -4.08644 -2.97218 0
M  V30 2002 C 180.735 -4.35242 -2.73987 0
M  V30 2003 N 178.717 -5.47102 -2.78482 0
M  V30 2004 C 180.088 -5.6099 -2.63988 0
M  V30 2005 C 182.143 -4.25294 -2.589 0
M  V30 2006 C 180.846 -6.77924 -2.40442 0
M  V30 2007 C 182.872 -5.41952 -2.36731 0
M  V30 2008 C 182.234 -6.66658 -2.27478 0
M  V30 2009 H 178.333 -0.47696 -0.619704 0
M  V30 2010 H 180.917 -1.6115 -1.09265 0
M  V30 2011 H 179.088 -1.44053 -3.60699 0
M  V30 2012 H 180.82 -1.6759 -3.68369 0
M  V30 2013 H 177.575 -3.60136 -3.07569 0
M  V30 2014 H 177.999 -6.19852 -2.72236 0
M  V30 2015 H 182.641 -3.29598 -2.64811 0
M  V30 2016 H 180.359 -7.73699 -2.3327 0
M  V30 2017 H 183.945 -5.36137 -2.25938 0
M  V30 2018 H 182.825 -7.55405 -2.10555 0
M  V30 2019 N 180.328 1.1314 -1.09713 0
M  V30 2020 C 181.238 2.22242 -0.751367 0
M  V30 2021 C 182.254 1.72224 0.247938 0
M  V30 2022 O 183.43 2.01205 0.0885463 0
M  V30 2023 C 180.495 3.46231 -0.180274 0
M  V30 2024 C 179.556 4.11125 -1.2359 0
M  V30 2025 C 178.789 5.29195 -0.691966 0
M  V30 2026 O 179.012 5.68342 0.48414 0
M  V30 2027 O 177.946 5.84214 -1.44838 0
M  V30 2028 H 181.772 2.54197 -1.66186 0
M  V30 2029 H 179.357 1.21331 -0.871735 0
M  V30 2030 H 181.239 4.21185 0.134739 0
M  V30 2031 H 179.914 3.1597 0.703185 0
M  V30 2032 H 178.821 3.37985 -1.60366 0
M  V30 2033 H 180.154 4.45524 -2.09211 0
M  V30 2034 N 181.806 0.884767 1.30421 0
M  V30 2035 C 182.716 0.355398 2.31892 0
M  V30 2036 C 183.732 -0.542261 1.65335 0
M  V30 2037 O 184.908 -0.435432 1.96637 0
M  V30 2038 C 181.973 -0.421661 3.44126 0
M  V30 2039 C 181.034 0.505727 4.26311 0
M  V30 2040 C 180.267 -0.234343 5.33185 0
M  V30 2041 O 180.49 -1.46045 5.51386 0
M  V30 2042 O 179.424 0.415443 6.00465 0
M  V30 2043 H 183.25 1.19685 2.79122 0
M  V30 2044 H 180.835 0.648596 1.34587 0
M  V30 2045 H 182.717 -0.861641 4.12497 0
M  V30 2046 H 181.392 -1.23942 2.99032 0
M  V30 2047 H 180.299 0.994513 3.60639 0
M  V30 2048 H 181.632 1.28948 4.75009 0
M  V30 2049 N 183.284 -1.43765 0.645699 0
M  V30 2050 C 184.7 -1.56509 0.312591 0
M  V30 2051 C 184.9 -1.6307 -1.18365 0
M  V30 2052 O 183.956 -1.58167 -1.96824 0
M  V30 2053 C 185.269 -2.82968 1.01733 0
M  V30 2054 C 186.817 -2.96701 0.996865 0
M  V30 2055 C 187.292 -4.25982 1.68236 0
M  V30 2056 N 188.783 -4.32829 1.64964 0
M  V30 2057 C 189.518 -5.31613 2.14885 0
M  V30 2058 N 189.014 -6.36718 2.73061 0
M  V30 2059 N 190.807 -5.23217 2.05428 0
M  V30 2060 H 182.958 -1.3775 1.61675 0
M  V30 2061 H 185.221 -0.661067 0.679481 0
M  V30 2062 H 184.927 -2.84156 2.0724 0
M  V30 2063 H 184.801 -3.72957 0.564177 0
M  V30 2064 H 187.188 -2.95058 -0.0497719 0
M  V30 2065 H 187.269 -2.08022 1.48865 0
M  V30 2066 H 186.913 -4.28386 2.72852 0
M  V30 2067 H 186.843 -5.13545 1.16529 0
M  V30 2068 H 189.334 -3.57493 1.22503 0
M  V30 2069 H 189.647 -7.08401 3.08848 0
M  V30 2070 H 187.992 -6.37362 2.77118 0
M  V30 2071 H 191.183 -4.40019 1.59689 0
M  V30 2072 H 191.356 -6.00045 2.44643 0
M  V30 2073 N 184.763 -0.387143 -1.52771 0
M  V30 2074 C 186.04 0.253197 -1.93954 0
M  V30 2075 C 186.42 1.64545 -1.32243 0
M  V30 2076 O 185.768 2.23191 -0.489699 0
M  V30 2077 C 185.978 0.281722 -3.47861 0
M  V30 2078 C 187.326 0.511715 -4.21505 0
M  V30 2079 O 188.35 0.362023 -3.54356 0
M  V30 2080 O 187.209 0.804847 -5.40541 0
M  V30 2081 H 184.303 0.156845 -0.811991 0
M  V30 2082 H 186.849 -0.441494 -1.63856 0
M  V30 2083 H 185.621 -0.693571 -3.85104 0
M  V30 2084 H 185.244 1.02142 -3.84256 0
M  V30 2085 N 186.241 1.57166 -0.116904 0
M  V30 2086 C 187.49 1.94298 0.541407 0
M  V30 2087 C 187.803 1.00236 1.67964 0
M  V30 2088 O 189.009 1.26826 2.40057 0
M  V30 2089 C 187.465 3.45306 1.01449 0
M  V30 2090 C 187.073 4.47899 -0.0951738 0
M  V30 2091 C 188.817 3.91361 1.6443 0
M  V30 2092 C 186.724 5.90083 0.394491 0
M  V30 2093 H 185.654 0.725308 0.206019 0
M  V30 2094 H 188.305 1.82446 -0.196419 0
M  V30 2095 H 186.687 3.52385 1.80667 0
M  V30 2096 H 187.861 4.52486 -0.871374 0
M  V30 2097 H 186.176 4.11583 -0.631505 0
M  V30 2098 H 188.773 4.95004 2.02176 0
M  V30 2099 H 189.116 3.3122 2.52189 0
M  V30 2100 H 189.649 3.87073 0.917559 0
M  V30 2101 H 186.388 6.53974 -0.447004 0
M  V30 2102 H 185.908 5.88921 1.13722 0
M  V30 2103 H 187.587 6.41307 0.856399 0
M  V30 2104 N 187.719 -0.156864 1.56817 0
M  V30 2105 C 188.652 -1.22316 1.9265 0
M  V30 2106 C 189.63 -1.42059 0.791076 0
M  V30 2107 O 190.814 -1.56831 1.04576 0
M  V30 2108 C 187.941 -2.58375 2.18998 0
M  V30 2109 C 186.987 -2.55284 3.41661 0
M  V30 2110 S 187.82 -2.02946 4.95553 0
M  V30 2111 C 188.976 -3.40753 5.25013 0
M  V30 2112 H 189.209 -0.917403 2.82791 0
M  V30 2113 H 186.742 -0.362059 1.50095 0
M  V30 2114 H 188.7 -3.36677 2.34859 0
M  V30 2115 H 187.361 -2.86145 1.29538 0
M  V30 2116 H 186.554 -3.55418 3.57343 0
M  V30 2117 H 186.156 -1.85086 3.24991 0
M  V30 2118 H 188.448 -4.36819 5.17876 0
M  V30 2119 H 189.391 -3.29933 6.26538 0
M  V30 2120 H 189.799 -3.37433 4.52548 0
M  V30 2121 N 189.197 -1.51736 -0.425897 0
M  V30 2122 C 190.16 -1.73271 -1.50032 0
M  V30 2123 C 191.16 -0.602639 -1.4908 0
M  V30 2124 O 192.35 -0.87033 -1.509 0
M  V30 2125 C 189.482 -1.79969 -2.89523 0
M  V30 2126 H 190.675 -2.69172 -1.32237 0
M  V30 2127 H 188.228 -1.41899 -0.65532 0
M  V30 2128 H 188.963 -0.859241 -3.1271 0
M  V30 2129 H 188.748 -2.62109 -2.91619 0
M  V30 2130 H 190.238 -1.9843 -3.67444 0
M  V30 2131 N 190.675 0.682077 -1.42076 0
M  V30 2132 C 191.922 1.44215 -1.42156 0
M  V30 2133 C 192.25 1.94468 -0.0354186 0
M  V30 2134 O 191.505 1.70816 0.955002 0
M  V30 2135 C 191.804 2.66036 -2.38662 0
M  V30 2136 C 191.47 2.34366 -3.85206 0
M  V30 2137 C 190.132 2.25439 -4.25124 0
M  V30 2138 C 192.484 2.08513 -4.77673 0
M  V30 2139 C 189.812 1.88775 -5.55501 0
M  V30 2140 C 192.164 1.73354 -6.08384 0
M  V30 2141 C 190.828 1.62933 -6.47309 0
M  V30 2142 H 190.098 0.527718 -0.520187 0
M  V30 2143 H 192.745 0.778387 -1.74967 0
M  V30 2144 H 191.05 3.3741 -1.99152 0
M  V30 2145 H 192.747 3.24205 -2.35991 0
M  V30 2146 H 189.337 2.42213 -3.53597 0
M  V30 2147 H 193.521 2.14346 -4.47626 0
M  V30 2148 H 188.777 1.7927 -5.84527 0
M  V30 2149 H 192.951 1.52373 -6.79526 0
M  V30 2150 H 190.578 1.34292 -7.48244 0
M  V30 2151 N 192.153 1.28127 0.917671 0
M  V30 2152 C 193.116 1.11744 2.00115 0
M  V30 2153 C 194.116 0.0583052 1.60694 0
M  V30 2154 O 195.306 0.303755 1.71531 0
M  V30 2155 C 192.438 0.704862 3.33533 0
M  V30 2156 H 193.631 2.07966 2.16079 0
M  V30 2157 H 191.184 1.11058 1.09981 0
M  V30 2158 H 191.919 -0.258299 3.2327 0
M  V30 2159 H 191.704 1.4699 3.63505 0
M  V30 2160 H 193.194 0.612768 4.1308 0
M  V30 2161 N 193.631 -1.12557 1.10312 0
M  V30 2162 C 194.579 -2.20325 0.745629 0
M  V30 2163 C 195.573 -1.67429 -0.25763 0
M  V30 2164 O 196.779 -1.79612 -0.118132 0
M  V30 2165 H 193.154 -0.718118 0.223182 0
M  V30 2166 H 195.125 -2.47733 1.66346 0
M  V30 2167 C 193.874 -3.47168 0.192262 0
M  V30 2168 H 193.197 -3.88215 0.955475 0
M  V30 2169 H 194.637 -4.23995 -0.0198274 0
M  V30 2170 C 193.096 -3.19298 -1.07472 0
M  V30 2171 O 193.626 -3.3891 -2.15645 0
M  V30 2172 N 191.832 -2.73113 -0.992847 0
M  V30 2173 H 191.379 -2.57354 -0.112474 0
M  V30 2174 H 191.337 -2.54842 -1.84127 0
M  V30 2175 N 195.109 -0.891671 -1.2995 0
M  V30 2176 C 196.334 -0.527932 -2.00568 0
M  V30 2177 C 196.759 0.877969 -1.66353 0
M  V30 2178 O 196.117 1.58301 -0.883762 0
M  V30 2179 C 196.165 -0.717745 -3.53385 0
M  V30 2180 O 195.269 0.233376 -4.11739 0
M  V30 2181 H 194.61 -0.20722 -0.630837 0
M  V30 2182 H 197.14 -1.20105 -1.65638 0
M  V30 2183 H 197.15 -0.619307 -4.03272 0
M  V30 2184 H 195.825 -1.74276 -3.77625 0
M  V30 2185 H 194.402 0.0880706 -3.72796 0
M  V30 2186 N 196.587 1.43421 -0.653314 0
M  V30 2187 C 197.998 1.85065 -0.246537 0
M  V30 2188 C 198.349 1.54688 1.2069 0
M  V30 2189 O 197.474 0.995896 1.92122 0
M  V30 2190 C 198.069 3.35922 -0.440666 0
M  V30 2191 C 196.628 3.76297 -0.0882064 0
M  V30 2192 C 195.775 2.67147 -0.743484 0
M  V30 2193 H 198.726 1.33572 -0.856979 0
M  V30 2194 H 198.747 3.79204 0.313798 0
M  V30 2195 H 198.259 3.58 -1.49858 0
M  V30 2196 H 196.36 3.5983 0.96711 0
M  V30 2197 H 196.473 4.76338 -0.513738 0
M  V30 2198 H 194.837 2.54086 -0.176712 0
M  V30 2199 H 195.62 2.92053 -1.80443 0
M  V30 2200 N 198.065 0.39524 1.52563 0
M  V30 2201 C 199.311 -0.177763 2.02622 0
M  V30 2202 C 199.666 -1.43974 1.27629 0
M  V30 2203 O 198.959 -1.87995 0.36992 0
M  V30 2204 C 199.153 -0.493444 3.53977 0
M  V30 2205 C 198.982 0.736392 4.4363 0
M  V30 2206 C 197.752 1.25744 4.89404 0
M  V30 2207 C 199.95 1.61046 4.88435 0
M  V30 2208 N 197.932 2.44421 5.63145 0
M  V30 2209 C 199.303 2.64359 5.60816 0
M  V30 2210 C 201.358 1.62985 4.70468 0
M  V30 2211 C 200.061 3.69505 6.17137 0
M  V30 2212 C 202.087 2.67042 5.27677 0
M  V30 2213 C 201.449 3.69077 5.99968 0
M  V30 2214 H 197.548 -0.0269794 0.781534 0
M  V30 2215 H 200.132 0.546466 1.86874 0
M  V30 2216 H 198.303 -1.18672 3.69826 0
M  V30 2217 H 200.035 -1.05412 3.90731 0
M  V30 2218 H 196.79 0.817546 4.6649 0
M  V30 2219 H 197.214 3.04485 6.04663 0
M  V30 2220 H 201.856 0.854442 4.14076 0
M  V30 2221 H 199.574 4.4791 6.72608 0
M  V30 2222 H 203.16 2.69433 5.15652 0
M  V30 2223 H 202.04 4.48273 6.43444 0
M  V30 2224 N 199.544 -1.57102 0.125237 0
M  V30 2225 C 200.79 -1.95697 -0.532035 0
M  V30 2226 C 201.123 -1.009 -1.6593 0
M  V30 2227 O 200.398 -0.047347 -1.94442 0
M  V30 2228 C 200.681 -3.44181 -1.05884 0
M  V30 2229 C 200.534 -4.49752 0.0654392 0
M  V30 2230 C 201.853 -3.94655 -1.9477 0
M  V30 2231 H 198.972 -0.711571 -0.191925 0
M  V30 2232 H 201.614 -1.88923 0.20206 0
M  V30 2233 H 199.764 -3.50085 -1.68442 0
M  V30 2234 H 201.436 -4.55943 0.700982 0
M  V30 2235 H 199.679 -4.27653 0.727709 0
M  V30 2236 H 200.35 -5.50924 -0.344505 0
M  V30 2237 H 202.826 -3.91094 -1.42074 0
M  V30 2238 H 201.702 -4.99057 -2.28546 0
M  V30 2239 H 201.963 -3.35718 -2.87656 0
M  V30 2240 N 201.022 0.148545 -1.56898 0
M  V30 2241 C 202.268 0.862694 -1.83536 0
M  V30 2242 C 202.601 1.80889 -0.706604 0
M  V30 2243 O 201.876 1.92328 0.289885 0
M  V30 2244 C 202.159 1.63853 -3.20662 0
M  V30 2245 C 202.012 0.713925 -4.44098 0
M  V30 2246 C 203.331 2.60133 -3.54991 0
M  V30 2247 H 200.45 0.312179 -0.667618 0
M  V30 2248 H 203.092 0.127953 -1.89569 0
M  V30 2249 H 201.242 2.26489 -3.1565 0
M  V30 2250 H 202.914 0.098686 -4.61194 0
M  V30 2251 H 201.157 0.0234019 -4.33794 0
M  V30 2252 H 201.828 1.29278 -5.36648 0
M  V30 2253 H 204.304 2.07616 -3.60603 0
M  V30 2254 H 203.18 3.11468 -4.51972 0
M  V30 2255 H 203.441 3.41417 -2.80868 0
M  V30 2256 N 202.5 1.5196 0.417844 0
M  V30 2257 C 203.432 1.70895 1.52733 0
M  V30 2258 C 204.445 0.589405 1.51756 0
M  V30 2259 O 205.634 0.864312 1.56179 0
M  V30 2260 C 202.734 1.72627 2.91639 0
M  V30 2261 C 201.907 3.01479 3.16905 0
M  V30 2262 C 200.966 2.95139 4.35637 0
M  V30 2263 O 199.992 3.69059 4.3334 0
M  V30 2264 N 201.194 2.12328 5.40275 0
M  V30 2265 H 203.959 2.66612 1.36888 0
M  V30 2266 H 201.52 1.50089 0.607037 0
M  V30 2267 H 203.512 1.65928 3.6912 0
M  V30 2268 H 202.082 0.844216 3.00985 0
M  V30 2269 H 201.302 3.21895 2.27546 0
M  V30 2270 H 202.59 3.86736 3.30625 0
M  V30 2271 H 201.988 1.51685 5.44985 0
M  V30 2272 H 200.545 2.11494 6.16534 0
M  V30 2273 N 203.978 -0.674533 1.42435 0
M  V30 2274 C 204.908 -1.80009 1.48724 0
M  V30 2275 C 205.889 -1.6659 0.343793 0
M  V30 2276 O 207.074 -1.86007 0.558137 0
M  V30 2277 C 204.204 -3.18306 1.38919 0
M  V30 2278 C 203.158 -3.46461 2.51294 0
M  V30 2279 C 202.484 -4.84335 2.26547 0
M  V30 2280 C 203.784 -3.43328 3.93603 0
M  V30 2281 H 205.478 -1.75004 2.42928 0
M  V30 2282 H 203.024 -0.840533 1.16923 0
M  V30 2283 H 204.977 -3.9678 1.41927 0
M  V30 2284 H 203.701 -3.2399 0.412094 0
M  V30 2285 H 202.36 -2.70348 2.47604 0
M  V30 2286 H 202.008 -4.86669 1.2713 0
M  V30 2287 H 201.708 -5.04136 3.01861 0
M  V30 2288 H 203.232 -5.65094 2.31304 0
M  V30 2289 H 204.646 -4.11772 3.98894 0
M  V30 2290 H 203.043 -3.74664 4.68771 0
M  V30 2291 H 204.113 -2.41897 4.20255 0
M  V30 2292 N 205.456 -1.28612 -0.910864 0
M  V30 2293 C 206.703 -1.15934 -1.66029 0
M  V30 2294 C 207.031 0.291483 -1.92303 0
M  V30 2295 O 206.286 1.22816 -1.52364 0
M  V30 2296 C 206.585 -1.90624 -3.0232 0
M  V30 2297 C 206.251 -3.40405 -2.95695 0
M  V30 2298 C 204.913 -3.81255 -2.93595 0
M  V30 2299 C 207.265 -4.359 -2.85728 0
M  V30 2300 C 204.593 -5.15936 -2.79334 0
M  V30 2301 C 206.945 -5.70657 -2.73007 0
M  V30 2302 C 205.609 -6.10779 -2.69267 0
M  V30 2303 H 204.879 -0.424234 -0.607541 0
M  V30 2304 H 207.526 -1.5942 -1.06101 0
M  V30 2305 H 205.831 -1.39696 -3.6605 0
M  V30 2306 H 207.528 -1.78228 -3.59215 0
M  V30 2307 H 204.118 -3.07927 -2.98125 0
M  V30 2308 H 208.302 -4.053 -2.86436 0
M  V30 2309 H 203.558 -5.46146 -2.74835 0
M  V30 2310 H 207.732 -6.44311 -2.64264 0
M  V30 2311 H 205.359 -7.1509 -2.57974 0
M  V30 2312 N 206.934 1.1197 -1.10907 0
M  V30 2313 C 208.164 1.8713 -0.875553 0
M  V30 2314 C 208.572 1.8016 0.577843 0
M  V30 2315 O 207.915 1.17699 1.41042 0
M  V30 2316 C 207.977 3.37005 -1.2517 0
M  V30 2317 C 207.641 3.67748 -2.71313 0
M  V30 2318 C 208.638 3.65698 -3.69542 0
M  V30 2319 C 206.323 3.96928 -3.07821 0
M  V30 2320 C 208.317 3.92395 -5.023 0
M  V30 2321 C 206.004 4.23284 -4.40765 0
M  V30 2322 C 207.002 4.21005 -5.37814 0
M  V30 2323 O 206.69 4.46704 -6.68364 0
M  V30 2324 H 206.422 0.598786 -0.313737 0
M  V30 2325 H 208.976 1.42568 -1.47863 0
M  V30 2326 H 207.206 3.82146 -0.591741 0
M  V30 2327 H 208.895 3.93519 -0.994877 0
M  V30 2328 H 209.661 3.43211 -3.42682 0
M  V30 2329 H 205.54 3.97841 -2.32902 0
M  V30 2330 H 209.084 3.90531 -5.78041 0
M  V30 2331 H 204.981 4.45246 -4.67361 0
M  V30 2332 H 205.749 4.64299 -6.74069 0
M  V30 2333 N 208.412 0.89855 1.29475 0
M  V30 2334 C 209.375 0.380272 2.26023 0
M  V30 2335 C 210.375 -0.484891 1.53315 0
M  V30 2336 O 211.565 -0.290108 1.71767 0
M  V30 2337 C 208.697 -0.45651 3.3783 0
M  V30 2338 H 209.89 1.23295 2.73383 0
M  V30 2339 H 207.443 0.676589 1.40897 0
M  V30 2340 H 208.178 -1.32922 2.95808 0
M  V30 2341 H 207.963 0.163393 3.91759 0
M  V30 2342 H 209.453 -0.810466 4.0966 0
M  V30 2343 N 209.89 -1.43072 0.660911 0
M  V30 2344 C 211.137 -2.01721 0.177445 0
M  V30 2345 C 211.465 -1.5218 -1.21126 0
M  V30 2346 O 210.72 -0.708659 -1.82419 0
M  V30 2347 C 211.019 -3.57103 0.145563 0
M  V30 2348 C 210.685 -4.26021 1.47705 0
M  V30 2349 C 209.347 -4.44563 1.84165 0
M  V30 2350 C 211.699 -4.64983 2.35458 0
M  V30 2351 C 209.027 -4.99334 3.0803 0
M  V30 2352 C 211.379 -5.21127 3.58622 0
M  V30 2353 C 210.043 -5.37884 3.95268 0
M  V30 2354 H 209.313 -0.73815 0.0649317 0
M  V30 2355 H 211.96 -1.71446 0.853144 0
M  V30 2356 H 210.265 -3.86965 -0.61361 0
M  V30 2357 H 211.962 -4.00248 -0.2455 0
M  V30 2358 H 208.552 -4.11939 1.18339 0
M  V30 2359 H 212.736 -4.50343 2.08579 0
M  V30 2360 H 207.992 -5.10493 3.36462 0
M  V30 2361 H 212.166 -5.50262 4.26831 0
M  V30 2362 H 209.793 -5.80089 4.91325 0
M  V30 2363 N 211.368 -0.403325 -1.52352 0
M  V30 2364 C 212.3 0.4603 -2.2453 0
M  V30 2365 C 213.313 1.01505 -1.27282 0
M  V30 2366 O 214.502 0.914982 -1.53266 0
M  V30 2367 C 211.602 1.65208 -2.95905 0
M  V30 2368 C 210.775 1.22224 -4.19976 0
M  V30 2369 C 209.834 2.28028 -4.74226 0
M  V30 2370 O 208.86 1.88857 -5.36956 0
M  V30 2371 N 210.062 3.6012 -4.55295 0
M  V30 2372 H 212.827 -0.158156 -2.99282 0
M  V30 2373 H 210.388 -0.230402 -1.60252 0
M  V30 2374 H 212.38 2.35541 -3.29093 0
M  V30 2375 H 210.95 2.17658 -2.24374 0
M  V30 2376 H 210.17 0.34725 -3.92668 0
M  V30 2377 H 211.458 0.911924 -5.00561 0
M  V30 2378 H 210.856 3.94698 -4.05253 0
M  V30 2379 H 209.413 4.26447 -4.92936 0
M  V30 2380 N 212.846 1.57033 -0.133567 0
M  V30 2381 C 214.123 1.87256 0.56522 0
M  V30 2382 C 214.503 1.03726 1.83859 0
M  V30 2383 O 213.851 0.120247 2.28183 0
M  V30 2384 C 214.061 3.3865 0.843636 0
M  V30 2385 C 215.409 4.07574 1.19032 0
M  V30 2386 O 216.433 3.43752 0.933429 0
M  V30 2387 O 215.292 5.20259 1.67312 0
M  V30 2388 H 212.386 0.775678 0.286796 0
M  V30 2389 H 214.932 1.68855 -0.169168 0
M  V30 2390 H 213.704 3.91257 -0.0581149 0
M  V30 2391 H 213.327 3.62532 1.63268 0
M  V30 2392 N 214.325 -0.140222 1.56975 0
M  V30 2393 C 215.602 -0.880769 1.74648 0
M  V30 2394 C 215.982 -1.99036 0.703404 0
M  V30 2395 O 215.33 -2.26821 -0.27648 0
M  V30 2396 C 215.54 -1.417 3.18939 0
M  V30 2397 C 216.888 -1.87774 3.80823 0
M  V30 2398 O 217.912 -1.51427 3.2241 0
M  V30 2399 O 216.771 -2.54827 4.83452 0
M  V30 2400 H 213.865 -0.416713 0.714338 0
M  V30 2401 H 216.411 -0.125618 1.69234 0
M  V30 2402 H 215.183 -0.619902 3.86359 0
M  V30 2403 H 214.806 -2.23546 3.28805 0
M  V30 2404 N 215.803 -1.52179 -0.40978 0
M  V30 2405 C 217.219 -1.40968 -0.74835 0
M  V30 2406 C 217.419 -0.513657 -1.94843 0
M  V30 2407 O 216.475 0.0208026 -2.52491 0
M  V30 2408 C 217.788 -2.83483 -1.0029 0
M  V30 2409 C 219.336 -2.92821 -1.10565 0
M  V30 2410 C 219.811 -4.36303 -1.39296 0
M  V30 2411 N 221.302 -4.39535 -1.46162 0
M  V30 2412 C 222.037 -5.47614 -1.70018 0
M  V30 2413 N 221.533 -6.65812 -1.91483 0
M  V30 2414 N 223.326 -5.35129 -1.72027 0
M  V30 2415 H 215.477 -2.0897 0.380186 0
M  V30 2416 H 217.74 -0.94185 0.107805 0
M  V30 2417 H 217.446 -3.51168 -0.193461 0
M  V30 2418 H 217.32 -3.24487 -1.92323 0
M  V30 2419 H 219.707 -2.25318 -1.90568 0
M  V30 2420 H 219.788 -2.55276 -0.16369 0
M  V30 2421 H 219.432 -5.04366 -0.598109 0
M  V30 2422 H 219.362 -4.71385 -2.34743 0
M  V30 2423 H 221.853 -3.54332 -1.31367 0
M  V30 2424 H 222.166 -7.43964 -2.09134 0
M  V30 2425 H 220.511 -6.68879 -1.88749 0
M  V30 2426 H 223.702 -4.41764 -1.54796 0
M  V30 2427 H 223.875 -6.19433 -1.9028 0
M  V30 2428 N 217.281 0.66697 -1.42791 0
M  V30 2429 C 218.511 1.45294 -1.46878 0
M  V30 2430 C 218.919 1.89027 -0.0809861 0
M  V30 2431 O 218.262 1.59219 0.916246 0
M  V30 2432 C 218.324 2.72908 -2.34012 0
M  V30 2433 C 217.988 2.51203 -3.81767 0
M  V30 2434 C 218.985 2.15302 -4.73224 0
M  V30 2435 C 216.67 2.65954 -4.26115 0
M  V30 2436 C 218.664 1.94431 -6.07022 0
M  V30 2437 C 216.351 2.44699 -5.59969 0
M  V30 2438 C 217.349 2.08992 -6.5024 0
M  V30 2439 O 217.037 1.87948 -7.81621 0
M  V30 2440 H 216.769 0.453306 -0.501487 0
M  V30 2441 H 219.323 0.826232 -1.88049 0
M  V30 2442 H 217.553 3.38089 -1.87703 0
M  V30 2443 H 219.242 3.34816 -2.29462 0
M  V30 2444 H 220.008 2.03495 -4.40244 0
M  V30 2445 H 215.887 2.92724 -3.56137 0
M  V30 2446 H 219.431 1.66484 -6.77443 0
M  V30 2447 H 215.328 2.56105 -5.9252 0
M  V30 2448 H 216.096 2.02483 -7.93059 0
M  V30 2449 N 218.759 1.29093 0.90403 0
M  V30 2450 C 219.689 1.16401 2.02418 0
M  V30 2451 C 220.67 0.0593085 1.69997 0
M  V30 2452 O 221.855 0.238021 1.92736 0
M  V30 2453 C 218.985 0.835233 3.37107 0
M  V30 2454 C 217.939 1.89578 3.83724 0
M  V30 2455 C 217.265 1.42041 5.15489 0
M  V30 2456 C 218.565 3.30394 4.04521 0
M  V30 2457 H 220.259 2.10109 2.13295 0
M  V30 2458 H 217.805 1.01157 1.02486 0
M  V30 2459 H 219.758 0.733169 4.14973 0
M  V30 2460 H 218.482 -0.137543 3.2631 0
M  V30 2461 H 217.141 1.98715 3.08071 0
M  V30 2462 H 216.789 0.436426 5.01103 0
M  V30 2463 H 216.489 2.12964 5.4765 0
M  V30 2464 H 218.013 1.33176 5.959 0
M  V30 2465 H 219.427 3.24123 4.72882 0
M  V30 2466 H 217.824 3.99237 4.48029 0
M  V30 2467 H 218.894 3.73692 3.09002 0
M  V30 2468 N 220.237 -1.11381 1.11499 0
M  V30 2469 C 221.467 -1.86663 0.885464 0
M  V30 2470 C 221.875 -1.80464 -0.568281 0
M  V30 2471 O 221.218 -1.18445 -1.40415 0
M  V30 2472 C 221.28 -3.36337 1.26956 0
M  V30 2473 C 220.944 -3.66304 2.73259 0
M  V30 2474 C 221.941 -3.63733 3.71476 0
M  V30 2475 C 219.626 -3.9529 3.09921 0
M  V30 2476 C 221.62 -3.89725 5.04374 0
M  V30 2477 C 219.307 -4.20941 4.43004 0
M  V30 2478 C 220.305 -4.18147 5.40039 0
M  V30 2479 O 219.993 -4.43153 6.70724 0
M  V30 2480 H 219.725 -0.597114 0.316908 0
M  V30 2481 H 222.279 -1.41782 1.48617 0
M  V30 2482 H 220.509 -3.81826 0.611999 0
M  V30 2483 H 222.198 -3.92986 1.01573 0
M  V30 2484 H 222.964 -3.41389 3.44498 0
M  V30 2485 H 218.843 -3.966 2.35009 0
M  V30 2486 H 222.387 -3.8746 5.80104 0
M  V30 2487 H 218.284 -4.42761 4.69716 0
M  V30 2488 H 219.052 -4.60717 6.76522 0
M  V30 2489 N 221.715 -0.905404 -1.28997 0
M  V30 2490 C 222.648 -0.331959 -2.25773 0
M  V30 2491 C 223.626 0.559099 -1.52685 0
M  V30 2492 O 224.81 0.50463 -1.8162 0
M  V30 2493 C 221.937 0.526276 -3.34586 0
M  V30 2494 C 220.983 -0.298249 -4.25456 0
M  V30 2495 S 221.816 -1.69968 -5.0781 0
M  V30 2496 C 222.972 -0.848519 -6.20122 0
M  V30 2497 H 223.205 -1.15222 -2.74064 0
M  V30 2498 H 220.738 -0.706112 -1.37308 0
M  V30 2499 H 222.696 1.01565 -3.97737 0
M  V30 2500 H 221.357 1.32084 -2.84978 0
M  V30 2501 H 220.55 0.357607 -5.0273 0
M  V30 2502 H 220.152 -0.720968 -3.66985 0
M  V30 2503 H 222.444 -0.0744325 -6.77459 0
M  V30 2504 H 223.387 -1.59353 -6.89937 0
M  V30 2505 H 223.795 -0.400383 -5.63078 0
M  V30 2506 N 223.193 1.4272 -0.668489 0
M  V30 2507 C 224.439 2.01923 -0.188419 0
M  V30 2508 C 224.772 1.52704 1.19979 0
M  V30 2509 O 224.047 0.726566 1.8042 0
M  V30 2510 C 224.33 3.59451 -0.216085 0
M  V30 2511 C 224.183 4.18864 -1.6393 0
M  V30 2512 C 225.502 4.37903 0.439179 0
M  V30 2513 H 222.621 0.733674 -0.0699412 0
M  V30 2514 H 225.263 1.69822 -0.852076 0
M  V30 2515 H 223.413 3.86929 0.349012 0
M  V30 2516 H 225.085 4.02362 -2.25616 0
M  V30 2517 H 223.328 3.74933 -2.18193 0
M  V30 2518 H 223.999 5.27987 -1.61039 0
M  V30 2519 H 226.475 4.16079 -0.0417878 0
M  V30 2520 H 225.351 5.47519 0.389157 0
M  V30 2521 H 225.612 4.15303 1.51577 0
M  V30 2522 N 224.671 0.411399 1.52136 0
M  V30 2523 C 225.604 -0.457614 2.23565 0
M  V30 2524 C 226.582 -1.04613 1.24478 0
M  V30 2525 O 227.766 -1.09356 1.53536 0
M  V30 2526 C 224.893 -1.6354 2.96602 0
M  V30 2527 C 223.939 -1.17005 4.10137 0
M  V30 2528 S 224.772 -0.13333 5.35334 0
M  V30 2529 C 225.928 -1.31638 6.119 0
M  V30 2530 H 226.161 0.148883 2.96927 0
M  V30 2531 H 223.694 0.195713 1.53155 0
M  V30 2532 H 225.652 -2.31074 3.39286 0
M  V30 2533 H 224.313 -2.21324 2.22878 0
M  V30 2534 H 223.506 -2.05005 4.60422 0
M  V30 2535 H 223.108 -0.573319 3.6958 0
M  V30 2536 H 225.4 -2.23957 6.39413 0
M  V30 2537 H 226.343 -0.854014 7.02931 0
M  V30 2538 H 226.751 -1.54321 5.42997 0
M  V30 2539 N 226.149 -1.5696 0.141893 0
M  V30 2540 C 227.059 -2.20066 -0.812905 0
M  V30 2541 C 228.075 -1.18344 -1.27557 0
M  V30 2542 O 229.251 -1.50902 -1.33381 0
M  V30 2543 C 226.316 -2.80583 -2.03652 0
M  V30 2544 C 225.377 -3.97414 -1.62359 0
M  V30 2545 C 224.61 -4.55036 -2.78887 0
M  V30 2546 O 224.833 -4.11538 -3.94959 0
M  V30 2547 O 223.767 -5.45376 -2.54653 0
M  V30 2548 H 227.593 -3.02157 -0.305746 0
M  V30 2549 H 225.178 -1.49159 -0.0848799 0
M  V30 2550 H 227.06 -3.19067 -2.75272 0
M  V30 2551 H 225.735 -2.01508 -2.5333 0
M  V30 2552 H 224.642 -3.63656 -0.877775 0
M  V30 2553 H 225.975 -4.77994 -1.17401 0
M  V30 2554 N 227.627 0.131896 -1.57047 0
M  V30 2555 C 228.857 0.855219 -1.88068 0
M  V30 2556 C 229.265 1.74557 -0.729817 0
M  V30 2557 O 228.608 1.81083 0.308962 0
M  V30 2558 C 228.67 1.75119 -3.13964 0
M  V30 2559 C 228.334 1.03646 -4.45091 0
M  V30 2560 C 229.331 0.383276 -5.18485 0
M  V30 2561 C 227.016 1.02148 -4.91804 0
M  V30 2562 C 229.01 -0.275347 -6.36805 0
M  V30 2563 C 226.697 0.359047 -6.10044 0
M  V30 2564 C 227.695 -0.288222 -6.82392 0
M  V30 2565 O 227.383 -0.94011 -7.98384 0
M  V30 2566 H 227.115 0.251864 -0.627328 0
M  V30 2567 H 229.669 0.124782 -2.05021 0
M  V30 2568 H 227.899 2.52295 -2.9306 0
M  V30 2569 H 229.588 2.3478 -3.31109 0
M  V30 2570 H 230.354 0.386562 -4.83457 0
M  V30 2571 H 226.233 1.5147 -4.35405 0
M  V30 2572 H 229.777 -0.781148 -6.93213 0
M  V30 2573 H 225.674 0.35348 -6.44531 0
M  V30 2574 H 226.442 -0.84329 -8.14144 0
M  V30 2575 N 229.106 1.52395 0.401703 0
M  V30 2576 C 230.039 1.70999 1.51111 0
M  V30 2577 C 231.017 0.55765 1.52738 0
M  V30 2578 O 232.201 0.785912 1.71335 0
M  V30 2579 C 229.328 1.75607 2.8962 0
M  V30 2580 C 228.374 2.97227 3.05873 0
M  V30 2581 S 229.207 4.57439 2.78405 0
M  V30 2582 C 230.363 4.64844 4.19131 0
M  V30 2583 H 230.596 2.6483 1.35102 0
M  V30 2584 H 228.129 1.42527 0.593762 0
M  V30 2585 H 230.087 1.78947 3.69443 0
M  V30 2586 H 228.748 0.828914 3.02965 0
M  V30 2587 H 227.941 2.96955 4.07227 0
M  V30 2588 H 227.543 2.91813 2.33925 0
M  V30 2589 H 229.835 4.42677 5.12877 0
M  V30 2590 H 230.778 5.66807 4.24424 0
M  V30 2591 H 231.186 3.93804 4.04448 0
M  V30 2592 N 230.584 -0.659388 1.43143 0
M  V30 2593 C 231.995 -1.24041 1.39537 0
M  V30 2594 C 232.346 -1.95963 0.0963364 0
M  V30 2595 O 231.471 -2.00892 -0.804438 0
M  V30 2596 C 232.066 -2.25601 2.52764 0
M  V30 2597 C 230.625 -2.79195 2.52443 0
M  V30 2598 C 229.772 -1.53743 2.30778 0
M  V30 2599 H 232.723 -0.451792 1.52133 0
M  V30 2600 H 232.744 -3.07651 2.23899 0
M  V30 2601 H 232.256 -1.73226 3.47296 0
M  V30 2602 H 230.357 -3.35649 1.61773 0
M  V30 2603 H 230.47 -3.2716 3.50004 0
M  V30 2604 H 228.834 -1.80869 1.79328 0
M  V30 2605 H 229.617 -1.03312 3.27386 0
M  V30 2606 N 232.062 -1.29571 -0.897171 0
M  V30 2607 C 233.31 -1.17456 -1.64464 0
M  V30 2608 C 233.631 0.273698 -1.9307 0
M  V30 2609 O 232.901 1.18684 -1.55855 0
M  V30 2610 H 231.481 -0.431706 -0.609622 0
M  V30 2611 H 234.143 -1.62531 -1.07562 0
M  V30 2612 H 233.239 -1.72648 -2.59998 0
M  V30 2613 N 233.54 1.10788 -1.12088 0
M  V30 2614 C 234.788 1.8231 -0.872205 0
M  V30 2615 C 235.109 1.85419 0.603709 0
M  V30 2616 O 234.379 1.32963 1.43867 0
M  V30 2617 H 232.959 0.675137 -0.319686 0
M  V30 2618 H 235.621 1.34068 -1.41463 0
M  V30 2619 H 234.717 2.85955 -1.25045 0
M  V30 2620 N 235.018 0.912232 1.28515 0
M  V30 2621 C 236.295 0.463597 1.90027 0
M  V30 2622 C 236.675 -1.05753 1.82701 0
M  V30 2623 O 236.023 -1.90492 1.26194 0
M  V30 2624 C 236.233 0.992253 3.34597 0
M  V30 2625 C 237.581 1.04344 4.11579 0
M  V30 2626 O 238.605 0.94079 3.43551 0
M  V30 2627 O 237.464 1.1995 5.33174 0
M  V30 2628 H 234.558 0.146666 0.813891 0
M  V30 2629 H 237.104 1.00292 1.36893 0
M  V30 2630 H 235.876 2.03623 3.34146 0
M  V30 2631 H 235.499 0.433672 3.95228 0
M  V30 2632 N 236.496 -1.42363 0.676048 0
M  V30 2633 C 237.426 -2.33497 0.0124832 0
M  V30 2634 C 238.407 -1.50748 -0.787981 0
M  V30 2635 O 239.592 -1.79346 -0.744884 0
M  V30 2636 C 236.722 -3.34377 -0.938582 0
M  V30 2637 C 235.676 -4.27289 -0.246622 0
M  V30 2638 C 235.002 -5.18386 -1.31071 0
M  V30 2639 C 236.302 -5.14916 0.875125 0
M  V30 2640 H 237.996 -2.89233 0.773593 0
M  V30 2641 H 235.542 -1.39073 0.37346 0
M  V30 2642 H 237.495 -3.97044 -1.41188 0
M  V30 2643 H 236.219 -2.76947 -1.73113 0
M  V30 2644 H 234.878 -3.66018 0.206456 0
M  V30 2645 H 234.526 -4.57282 -2.09528 0
M  V30 2646 H 234.226 -5.81378 -0.852839 0
M  V30 2647 H 235.75 -5.83929 -1.78492 0
M  V30 2648 H 237.164 -5.71262 0.482983 0
M  V30 2649 H 235.561 -5.86747 1.25887 0
M  V30 2650 H 236.631 -4.53242 1.72335 0
M  V30 2651 N 237.974 -0.419461 -1.51915 0
M  V30 2652 C 239.22 0.153166 -2.02221 0
M  V30 2653 C 239.553 1.43907 -1.30401 0
M  V30 2654 O 238.828 1.90055 -0.413438 0
M  V30 2655 C 239.111 0.390291 -3.57979 0
M  V30 2656 C 238.964 -0.913014 -4.40436 0
M  V30 2657 C 240.283 1.16794 -4.2432 0
M  V30 2658 H 237.402 0.0541924 -0.735005 0
M  V30 2659 H 240.044 -0.554955 -1.81715 0
M  V30 2660 H 238.194 0.993491 -3.75582 0
M  V30 2661 H 239.866 -1.54882 -4.34522 0
M  V30 2662 H 238.109 -1.52168 -4.06236 0
M  V30 2663 H 238.78 -0.701361 -5.47526 0
M  V30 2664 H 241.256 0.657161 -4.10878 0
M  V30 2665 H 240.132 1.3026 -5.3322 0
M  V30 2666 H 240.393 2.19132 -3.83971 0
M  V30 2667 N 239.452 1.56882 -0.150215 0
M  V30 2668 C 240.4 2.18214 0.805313 0
M  V30 2669 C 241.394 1.14006 1.25296 0
M  V30 2670 O 242.6 1.3225 1.22107 0
M  V30 2671 H 238.975 0.698762 0.277913 0
M  V30 2672 H 240.946 2.97231 0.263862 0
M  V30 2673 C 239.695 2.82065 2.03309 0
M  V30 2674 H 239.018 3.61968 1.69763 0
M  V30 2675 H 240.458 3.28477 2.68103 0
M  V30 2676 C 238.917 1.80739 2.84315 0
M  V30 2677 O 239.447 1.27983 3.80767 0
M  V30 2678 N 237.653 1.4997 2.48913 0
M  V30 2679 H 237.2 1.93062 1.70542 0
M  V30 2680 H 237.158 0.824217 3.03404 0
M  V30 2681 N 240.93 -0.123565 1.57115 0
M  V30 2682 C 241.86 -1.15309 2.03042 0
M  V30 2683 C 242.841 -1.43454 0.914061 0
M  V30 2684 O 244.026 -1.53973 1.18347 0
M  V30 2685 C 241.156 -2.48043 2.43089 0
M  V30 2686 C 240.11 -2.3437 3.58127 0
M  V30 2687 C 239.436 -3.72026 3.84059 0
M  V30 2688 C 240.736 -1.80804 4.90007 0
M  V30 2689 H 242.43 -0.771102 2.893 0
M  V30 2690 H 239.976 -0.369479 1.39179 0
M  V30 2691 H 241.929 -3.20311 2.73823 0
M  V30 2692 H 240.653 -2.88122 1.53796 0
M  V30 2693 H 239.312 -1.64551 3.27595 0
M  V30 2694 H 238.96 -4.09582 2.91979 0
M  V30 2695 H 238.66 -3.63732 4.6149 0
M  V30 2696 H 240.184 -4.45806 4.1724 0
M  V30 2697 H 241.598 -2.42886 5.19307 0
M  V30 2698 H 239.995 -1.83343 5.71407 0
M  V30 2699 H 241.065 -0.76528 4.78823 0
M  V30 2700 N 242.408 -1.52605 -0.393616 0
M  V30 2701 C 243.341 -1.71798 -1.50202 0
M  V30 2702 C 244.319 -0.565743 -1.52441 0
M  V30 2703 O 245.503 -0.794987 -1.70916 0
M  V30 2704 C 242.63 -1.7714 -2.88685 0
M  V30 2705 C 241.676 -2.98845 -3.04292 0
M  V30 2706 S 242.509 -4.58909 -2.75976 0
M  V30 2707 C 243.665 -4.6706 -4.1666 0
M  V30 2708 H 243.898 -2.65542 -1.33696 0
M  V30 2709 H 241.431 -1.42839 -0.586195 0
M  V30 2710 H 243.389 -1.80903 -3.68489 0
M  V30 2711 H 242.05 -0.844969 -3.02521 0
M  V30 2712 H 241.243 -2.99111 -4.05646 0
M  V30 2713 H 240.845 -2.9305 -2.32374 0
M  V30 2714 H 243.137 -4.45391 -5.10523 0
M  V30 2715 H 244.08 -5.6905 -4.21412 0
M  V30 2716 H 244.488 -3.95944 -4.02354 0
M  V30 2717 N 243.887 0.651787 -1.4349 0
M  V30 2718 C 245.112 1.44434 -1.48841 0
M  V30 2719 C 245.537 1.8779 -0.107955 0
M  V30 2720 O 244.895 1.57464 0.898602 0
M  V30 2721 C 244.943 2.65458 -2.44059 0
M  V30 2722 O 244.047 3.64566 -1.92784 0
M  V30 2723 H 243.388 0.433005 -0.503391 0
M  V30 2724 H 245.918 0.797451 -1.88419 0
M  V30 2725 H 245.928 3.13255 -2.6141 0
M  V30 2726 H 244.603 2.33244 -3.4434 0
M  V30 2727 H 243.18 3.23716 -1.851 0
M  V30 2728 N 245.365 1.30045 0.890287 0
M  V30 2729 C 246.313 1.15873 2.01683 0
M  V30 2730 C 247.307 0.0719403 1.69247 0
M  V30 2731 O 248.513 0.232414 1.78493 0
M  V30 2732 H 244.888 0.358203 0.661207 0
M  V30 2733 H 246.859 2.11229 2.10772 0
M  V30 2734 C 245.608 0.861842 3.36849 0
M  V30 2735 H 244.931 1.69016 3.62317 0
M  V30 2736 H 246.371 0.802762 4.16331 0
M  V30 2737 C 244.83 -0.435132 3.34078 0
M  V30 2738 O 245.36 -1.4583 3.74295 0
M  V30 2739 N 243.566 -0.444377 2.87182 0
M  V30 2740 H 243.113 0.388723 2.5465 0
M  V30 2741 H 243.071 -1.31213 2.85711 0
M  V30 2742 N 246.843 -1.10192 1.12674 0
M  V30 2743 C 248.073 -1.85713 0.905213 0
M  V30 2744 C 248.481 -1.81056 -0.549108 0
M  V30 2745 O 247.824 -1.19927 -1.39151 0
M  V30 2746 C 247.886 -3.34972 1.30516 0
M  V30 2747 C 247.55 -3.63385 2.77129 0
M  V30 2748 C 248.547 -3.59772 3.75313 0
M  V30 2749 C 246.232 -3.91981 3.14096 0
M  V30 2750 C 248.226 -3.84354 5.08479 0
M  V30 2751 C 245.913 -4.16218 4.47443 0
M  V30 2752 C 246.911 -4.12395 5.44444 0
M  V30 2753 O 246.599 -4.36014 6.75387 0
M  V30 2754 H 246.331 -0.593719 0.323223 0
M  V30 2755 H 248.885 -1.40198 1.50112 0
M  V30 2756 H 247.115 -3.81156 0.652463 0
M  V30 2757 H 248.804 -3.91886 1.05736 0
M  V30 2758 H 249.57 -3.37716 3.48099 0
M  V30 2759 H 245.449 -3.94085 2.39202 0
M  V30 2760 H 248.993 -3.81285 5.84181 0
M  V30 2761 H 244.89 -4.37754 4.74386 0
M  V30 2762 H 245.658 -4.53516 6.8137 0
M  V30 2763 N 248.321 -0.919034 -1.28029 0
M  V30 2764 C 249.598 -0.473668 -1.89778 0
M  V30 2765 C 249.978 1.04783 -1.83259 0
M  V30 2766 O 249.326 1.8982 -1.27202 0
M  V30 2767 C 249.536 -1.00998 -3.34066 0
M  V30 2768 C 250.884 -1.06525 -4.1102 0
M  V30 2769 O 251.908 -0.958996 -3.43048 0
M  V30 2770 O 250.767 -1.22776 -5.3253 0
M  V30 2771 H 247.861 -0.15098 -0.813101 0
M  V30 2772 H 250.407 -1.01016 -1.36359 0
M  V30 2773 H 249.179 -2.05392 -3.33061 0
M  V30 2774 H 248.802 -0.454626 -3.94992 0
M  V30 2775 N 249.799 1.42003 -0.683588 0
M  V30 2776 C 251.045 2.01712 -0.209825 0
M  V30 2777 C 251.378 1.53968 1.18353 0
M  V30 2778 O 250.653 0.745661 1.79639 0
M  V30 2779 C 250.936 3.59202 -0.254197 0
M  V30 2780 C 250.789 4.17102 -1.68363 0
M  V30 2781 C 252.108 4.38344 0.392709 0
M  V30 2782 H 249.227 0.732891 -0.0777189 0
M  V30 2783 H 251.869 1.68909 -0.87004 0
M  V30 2784 H 250.019 3.87278 0.307954 0
M  V30 2785 H 251.691 3.99946 -2.29871 0
M  V30 2786 H 249.934 3.72597 -2.22157 0
M  V30 2787 H 250.605 5.26249 -1.6663 0
M  V30 2788 H 253.081 4.16011 -0.0859162 0
M  V30 2789 H 251.957 5.47901 0.331063 0
M  V30 2790 H 252.218 4.16887 1.47164 0
M  V30 2791 N 251.277 0.427512 1.51691 0
M  V30 2792 C 252.688 -0.0378867 1.86662 0
M  V30 2793 C 253.039 -1.42819 1.34525 0
M  V30 2794 O 252.164 -2.05037 0.692014 0
M  V30 2795 C 252.759 -0.0755266 3.38716 0
M  V30 2796 C 251.318 -0.485309 3.73258 0
M  V30 2797 C 250.465 0.328399 2.75349 0
M  V30 2798 H 253.416 0.64379 1.45055 0
M  V30 2799 H 253.437 -0.887056 3.70016 0
M  V30 2800 H 252.949 0.936487 3.76632 0
M  V30 2801 H 251.05 -1.50329 3.40928 0
M  V30 2802 H 251.163 -0.21693 4.78609 0
M  V30 2803 H 249.527 -0.211905 2.53817 0
M  V30 2804 H 250.31 1.3391 3.16106 0
M  V30 2805 N 252.755 -1.56801 0.158532 0
M  V30 2806 C 253.665 -2.20916 -0.789518 0
M  V30 2807 C 254.681 -1.1969 -1.26294 0
M  V30 2808 O 255.857 -1.52308 -1.31773 0
M  V30 2809 C 252.922 -2.82727 -2.00665 0
M  V30 2810 C 251.983 -3.99114 -1.58134 0
M  V30 2811 C 251.216 -4.57968 -2.74045 0
M  V30 2812 O 251.439 -4.15704 -3.90572 0
M  V30 2813 O 250.373 -5.48047 -2.48855 0
M  V30 2814 H 254.199 -3.02464 -0.273681 0
M  V30 2815 H 251.784 -1.4924 -0.0690548 0
M  V30 2816 H 253.666 -3.21968 -2.71872 0
M  V30 2817 H 252.341 -2.04184 -2.51179 0
M  V30 2818 H 251.248 -3.64567 -0.839155 0
M  V30 2819 H 252.581 -4.79212 -1.12325 0
M  V30 2820 N 254.233 0.115231 -1.57178 0
M  V30 2821 C 255.18 1.14115 -2.00615 0
M  V30 2822 C 256.15 1.40939 -0.878941 0
M  V30 2823 O 257.335 1.52741 -1.14345 0
M  V30 2824 C 254.475 2.46156 -2.4187 0
M  V30 2825 C 253.588 2.26236 -3.68024 0
M  V30 2826 C 252.723 3.51534 -3.98243 0
M  V30 2827 C 251.762 3.26787 -5.17568 0
M  V30 2828 N 250.899 4.44298 -5.43639 0
M  V30 2829 H 255.739 0.763743 -2.88047 0
M  V30 2830 H 253.276 0.365615 -1.42484 0
M  V30 2831 H 255.234 3.23189 -2.63827 0
M  V30 2832 H 253.864 2.81783 -1.57475 0
M  V30 2833 H 252.916 1.40102 -3.5366 0
M  V30 2834 H 254.228 2.03929 -4.55208 0
M  V30 2835 H 253.382 4.36984 -4.20868 0
M  V30 2836 H 252.121 3.76876 -3.09541 0
M  V30 2837 H 251.126 2.39729 -4.94783 0
M  V30 2838 H 252.351 3.02812 -6.0785 0
M  V30 2839 H 250.297 4.69754 -4.57895 0
M  V30 2840 H 250.214 4.25109 -6.25154 0
M  V30 2841 H 251.482 5.3087 -5.70786 0
M  V30 2842 N 255.711 1.52812 0.385517 0
M  V30 2843 C 256.957 1.69225 1.12847 0
M  V30 2844 C 257.312 0.42864 1.87564 0
M  V30 2845 O 256.605 -0.57779 1.8268 0
M  V30 2846 C 256.799 2.86856 2.13187 0
M  V30 2847 C 256.628 4.24535 1.48325 0
M  V30 2848 C 255.398 4.89701 1.24585 0
M  V30 2849 C 257.596 5.05794 0.931501 0
M  V30 2850 N 255.578 6.11353 0.558644 0
M  V30 2851 C 256.949 6.1888 0.372552 0
M  V30 2852 C 259.004 4.90963 0.828248 0
M  V30 2853 C 257.707 7.18757 -0.279556 0
M  V30 2854 C 259.733 5.91095 0.189956 0
M  V30 2855 C 259.095 7.03489 -0.358207 0
M  V30 2856 H 255.194 0.67268 0.39878 0
M  V30 2857 H 257.778 1.9017 0.417528 0
M  V30 2858 H 255.949 2.67484 2.81614 0
M  V30 2859 H 257.681 2.92188 2.80014 0
M  V30 2860 H 254.436 4.48485 1.52178 0
M  V30 2861 H 254.86 6.76606 0.230983 0
M  V30 2862 H 259.502 4.04274 1.23784 0
M  V30 2863 H 257.22 8.05052 -0.701152 0
M  V30 2864 H 260.806 5.81694 0.111264 0
M  V30 2865 H 259.686 7.79642 -0.844314 0
M  V30 2866 N 257.189 -0.644168 1.43834 0
M  V30 2867 C 258.152 -1.73857 1.49353 0
M  V30 2868 C 259.152 -1.56315 0.377112 0
M  V30 2869 O 260.342 -1.62048 0.639226 0
M  V30 2870 C 257.474 -3.12819 1.35488 0
M  V30 2871 H 258.667 -1.70342 2.46827 0
M  V30 2872 H 256.22 -0.856652 1.30733 0
M  V30 2873 H 256.955 -3.2194 0.390569 0
M  V30 2874 H 256.74 -3.26958 2.16428 0
M  V30 2875 H 258.23 -3.92606 1.42302 0
M  V30 2876 N 258.668 -1.30515 -0.883378 0
M  V30 2877 C 260.084 -1.08881 -1.16692 0
M  V30 2878 C 260.284 0.149409 -2.00945 0
M  V30 2879 O 259.34 0.84257 -2.38027 0
M  V30 2880 C 260.653 -2.35319 -1.87204 0
M  V30 2881 C 262.201 -2.40799 -1.99962 0
M  V30 2882 C 262.676 -3.67083 -2.73887 0
M  V30 2883 N 264.167 -3.679 -2.81432 0
M  V30 2884 C 264.902 -4.62303 -3.3921 0
M  V30 2885 N 264.398 -5.67052 -3.98025 0
M  V30 2886 N 266.191 -4.49845 -3.3704 0
M  V30 2887 H 258.342 -2.09951 -0.321633 0
M  V30 2888 H 260.605 -0.92556 -0.205043 0
M  V30 2889 H 260.311 -3.25689 -1.3274 0
M  V30 2890 H 260.185 -2.44089 -2.87577 0
M  V30 2891 H 262.572 -1.50907 -2.53597 0
M  V30 2892 H 262.653 -2.36003 -0.98673 0
M  V30 2893 H 262.297 -4.57334 -2.20925 0
M  V30 2894 H 262.227 -3.69141 -3.75556 0
M  V30 2895 H 264.718 -2.92171 -2.39676 0
M  V30 2896 H 265.031 -6.35184 -4.40183 0
M  V30 2897 H 263.376 -5.70842 -3.96439 0
M  V30 2898 H 266.567 -3.67194 -2.90321 0
M  V30 2899 H 266.74 -5.23597 -3.81772 0
M  V30 2900 N 260.146 1.09593 -1.13257 0
M  V30 2901 C 261.393 1.81734 -0.893257 0
M  V30 2902 C 261.721 1.8563 0.580656 0
M  V30 2903 O 260.976 1.31906 1.44566 0
M  V30 2904 C 261.275 3.27802 -1.42411 0
M  V30 2905 C 260.941 3.44041 -2.91456 0
M  V30 2906 C 259.603 3.48181 -3.3215 0
M  V30 2907 C 261.955 3.48719 -3.87356 0
M  V30 2908 C 259.283 3.54575 -4.67433 0
M  V30 2909 C 261.635 3.56648 -5.2248 0
M  V30 2910 C 260.299 3.59055 -5.62704 0
M  V30 2911 H 259.569 0.665011 -0.326866 0
M  V30 2912 H 262.216 1.2912 -1.41422 0
M  V30 2913 H 260.521 3.83042 -0.823795 0
M  V30 2914 H 262.218 3.82149 -1.21503 0
M  V30 2915 H 258.808 3.41502 -2.58987 0
M  V30 2916 H 262.992 3.44763 -3.57004 0
M  V30 2917 H 258.248 3.54725 -4.97976 0
M  V30 2918 H 262.422 3.59212 -5.96607 0
M  V30 2919 H 260.049 3.63763 -6.67518 0
M  V30 2920 N 261.624 0.925811 1.2754 0
M  V30 2921 C 262.854 0.580666 1.98272 0
M  V30 2922 C 263.262 -0.845207 1.69272 0
M  V30 2923 O 262.605 -1.57306 0.948707 0
M  V30 2924 C 262.667 0.724418 3.52126 0
M  V30 2925 C 262.331 2.12206 4.04744 0
M  V30 2926 C 263.328 3.09604 4.17662 0
M  V30 2927 C 261.013 2.4385 4.39138 0
M  V30 2928 C 263.007 4.36755 4.64246 0
M  V30 2929 C 260.694 3.71237 4.85414 0
M  V30 2930 C 261.692 4.67503 4.97926 0
M  V30 2931 O 261.38 5.92624 5.43187 0
M  V30 2932 H 261.112 0.218987 0.639547 0
M  V30 2933 H 263.666 1.24452 1.63404 0
M  V30 2934 H 261.896 0.0034663 3.867 0
M  V30 2935 H 263.585 0.384607 4.04074 0
M  V30 2936 H 264.351 2.86478 3.91351 0
M  V30 2937 H 260.23 1.69665 4.28643 0
M  V30 2938 H 263.774 5.11898 4.73927 0
M  V30 2939 H 259.671 3.94182 5.11166 0
M  V30 2940 H 260.439 5.95585 5.61445 0
M  V30 2941 N 263.102 -1.41638 0.69111 0
M  V30 2942 C 264.33 -2.05628 0.22909 0
M  V30 2943 C 264.745 -1.51992 -1.11999 0
M  V30 2944 O 264.102 -0.666322 -1.69901 0
M  V30 2945 C 264.153 -3.61084 0.173283 0
M  V30 2946 O 263.874 -4.12735 1.46907 0
M  V30 2947 C 265.375 -4.42213 -0.310266 0
M  V30 2948 H 262.595 -0.662327 0.107534 0
M  V30 2949 H 265.139 -1.81489 0.942438 0
M  V30 2950 H 263.294 -3.84278 -0.490858 0
M  V30 2951 H 263.708 -5.06743 1.35322 0
M  V30 2952 H 265.182 -5.51194 -0.298196 0
M  V30 2953 H 265.659 -4.1799 -1.34838 0
M  V30 2954 H 266.265 -4.24074 0.322716 0
M  V30 2955 N 264.58 -0.43555 -1.51462 0
M  V30 2956 C 265.543 0.365137 -2.26273 0
M  V30 2957 C 266.543 0.951227 -1.29647 0
M  V30 2958 O 267.733 0.825958 -1.53374 0
M  V30 2959 C 264.865 1.51645 -3.05314 0
M  V30 2960 H 266.058 -0.290474 -2.9849 0
M  V30 2961 H 263.611 -0.188676 -1.55157 0
M  V30 2962 H 264.346 2.20816 -2.3751 0
M  V30 2963 H 264.131 1.10238 -3.76284 0
M  V30 2964 H 265.621 2.08218 -3.61987 0
M  V30 2965 N 266.058 1.56714 -0.166846 0
M  V30 2966 C 266.968 2.21331 0.777791 0
M  V30 2967 C 267.984 1.20358 1.25658 0
M  V30 2968 O 269.16 1.53005 1.30964 0
M  V30 2969 C 266.225 2.83787 1.99163 0
M  V30 2970 C 265.286 3.99947 1.56016 0
M  V30 2971 C 264.519 4.59415 2.71613 0
M  V30 2972 O 264.742 4.17769 3.88362 0
M  V30 2973 O 263.676 5.49359 2.45945 0
M  V30 2974 H 267.502 3.02605 0.257636 0
M  V30 2975 H 265.087 1.49275 0.0611393 0
M  V30 2976 H 266.969 3.23405 2.70161 0
M  V30 2977 H 265.644 2.05513 2.50092 0
M  V30 2978 H 264.551 3.65007 0.819809 0
M  V30 2979 H 265.884 4.79801 1.09782 0
M  V30 2980 N 267.536 -0.106894 1.57237 0
M  V30 2981 C 268.782 -0.81373 1.85759 0
M  V30 2982 C 269.115 -1.78952 0.754315 0
M  V30 2983 O 268.39 -1.93029 -0.23879 0
M  V30 2984 C 268.673 -1.55293 3.24894 0
M  V30 2985 C 268.526 -0.595929 4.45835 0
M  V30 2986 C 269.845 -2.5063 3.61763 0
M  V30 2987 H 266.964 -0.294369 0.67566 0
M  V30 2988 H 269.606 -0.0776472 1.89841 0
M  V30 2989 H 267.756 -2.1804 3.21544 0
M  V30 2990 H 269.428 0.0236262 4.61294 0
M  V30 2991 H 267.671 0.0916191 4.33703 0
M  V30 2992 H 268.342 -1.15004 5.39887 0
M  V30 2993 H 270.818 -1.97982 3.65981 0
M  V30 2994 H 269.694 -2.99376 4.60071 0
M  V30 2995 H 269.955 -3.3385 2.89821 0
M  V30 2996 N 269.014 -1.53014 -0.377408 0
M  V30 2997 C 270.26 -1.68872 -1.12294 0
M  V30 2998 C 270.593 -0.433224 -1.89306 0
M  V30 2999 O 269.868 0.569258 -1.85983 0
M  V30 3000 C 270.151 -2.93115 -2.09179 0
M  V30 3001 C 270.004 -4.28794 -1.35853 0
M  V30 3002 C 271.323 -3.12928 -3.09458 0
M  V30 3003 H 268.442 -0.614518 -0.406862 0
M  V30 3004 H 271.084 -1.85633 -0.40503 0
M  V30 3005 H 269.234 -2.78956 -2.70399 0
M  V30 3006 H 270.906 -4.54742 -0.775082 0
M  V30 3007 H 269.149 -4.28744 -0.660364 0
M  V30 3008 H 269.82 -5.11837 -2.06706 0
M  V30 3009 H 272.296 -3.26194 -2.58334 0
M  V30 3010 H 271.172 -4.01316 -3.74482 0
M  V30 3011 H 271.433 -2.27669 -3.78971 0
M  V30 3012 N 270.492 0.636531 -1.44174 0
M  V30 3013 C 271.422 1.76003 -1.53444 0
M  V30 3014 C 272.403 1.65619 -0.387841 0
M  V30 3015 O 273.588 1.84461 -0.607257 0
M  V30 3016 C 270.718 3.14511 -1.4731 0
M  V30 3017 C 269.672 3.39677 -2.60391 0
M  V30 3018 C 268.998 4.78159 -2.39308 0
M  V30 3019 C 270.298 3.32772 -4.02567 0
M  V30 3020 H 271.992 1.68501 -2.47483 0
M  V30 3021 H 269.538 0.809237 -1.19111 0
M  V30 3022 H 271.491 3.92878 -1.52397 0
M  V30 3023 H 270.215 3.22783 -0.49785 0
M  V30 3024 H 268.874 2.63688 -2.54684 0
M  V30 3025 H 268.522 4.83128 -1.39988 0
M  V30 3026 H 268.222 4.95956 -3.15122 0
M  V30 3027 H 269.746 5.58762 -2.46205 0
M  V30 3028 H 271.16 4.01051 -4.09672 0
M  V30 3029 H 269.557 3.62104 -4.7854 0
M  V30 3030 H 270.627 2.30669 -4.2652 0
M  V30 3031 N 271.97 1.30982 0.876444 0
M  V30 3032 C 272.933 1.18054 1.96459 0
M  V30 3033 C 273.933 0.109399 1.60427 0
M  V30 3034 O 275.123 0.358173 1.70478 0
M  V30 3035 C 272.255 0.810616 3.31122 0
M  V30 3036 H 273.448 2.14735 2.09354 0
M  V30 3037 H 271.001 1.145 1.06392 0
M  V30 3038 H 271.736 -0.155322 3.23928 0
M  V30 3039 H 271.521 1.58481 3.58645 0
M  V30 3040 H 273.011 0.743876 4.10921 0
M  V30 3041 N 273.449 -1.08991 1.13837 0
M  V30 3042 C 274.379 -2.17771 0.842507 0
M  V30 3043 C 275.36 -1.6892 -0.20001 0
M  V30 3044 O 276.545 -1.94113 -0.0579731 0
M  V30 3045 C 273.675 -3.4589 0.312644 0
M  V30 3046 C 272.629 -4.08099 1.28992 0
M  V30 3047 C 271.955 -5.31098 0.619623 0
M  V30 3048 C 273.255 -4.50077 2.65005 0
M  V30 3049 H 274.949 -2.42777 1.75213 0
M  V30 3050 H 272.495 -1.16682 0.843875 0
M  V30 3051 H 274.448 -4.21297 0.0933043 0
M  V30 3052 H 273.172 -3.20419 -0.632382 0
M  V30 3053 H 271.831 -3.34717 1.49533 0
M  V30 3054 H 271.479 -5.0191 -0.33102 0
M  V30 3055 H 271.179 -5.73674 1.27167 0
M  V30 3056 H 272.703 -6.09224 0.409669 0
M  V30 3057 H 274.117 -5.16688 2.48407 0
M  V30 3058 H 272.514 -5.03553 3.26427 0
M  V30 3059 H 273.584 -3.62257 3.22332 0
M  V30 3060 N 274.927 -0.932562 -1.27047 0
M  V30 3061 C 276.204 -0.49377 -1.89265 0
M  V30 3062 C 276.584 1.02833 -1.8436 0
M  V30 3063 O 275.932 1.88461 -1.29209 0
M  V30 3064 C 276.142 -1.04536 -3.32976 0
M  V30 3065 C 277.49 -1.10879 -4.09867 0
M  V30 3066 O 278.514 -0.995327 -3.42011 0
M  V30 3067 O 277.373 -1.28417 -5.31198 0
M  V30 3068 H 274.467 -0.159596 -0.811454 0
M  V30 3069 H 277.013 -1.02457 -1.3528 0
M  V30 3070 H 275.785 -2.08913 -3.30864 0
M  V30 3071 H 275.408 -0.496494 -3.94488 0
M  V30 3072 N 276.405 1.4127 -0.698611 0
M  V30 3073 C 277.368 2.29158 -0.044132 0
M  V30 3074 C 278.368 1.44529 0.704841 0
M  V30 3075 O 279.558 1.65643 0.539276 0
M  V30 3076 C 276.69 3.27459 0.947809 0
M  V30 3077 H 277.883 2.88529 -0.817994 0
M  V30 3078 H 275.436 1.49307 -0.46228 0
M  V30 3079 H 276.171 2.73073 1.74933 0
M  V30 3080 H 275.956 3.8991 0.41385 0
M  V30 3081 H 277.446 3.93311 1.40344 0
M  V30 3082 N 277.883 0.443576 1.51229 0
M  V30 3083 C 279.132 -0.122332 2.01329 0
M  V30 3084 C 279.445 -1.43237 1.33201 0
M  V30 3085 O 280.651 -2.0816 1.74304 0
M  V30 3086 C 279.107 -0.268551 3.58897 0
M  V30 3087 C 278.715 1.03142 4.35965 0
M  V30 3088 C 280.459 -0.787894 4.17124 0
M  V30 3089 C 278.366 0.850504 5.85252 0
M  V30 3090 H 277.296 -0.0494929 0.752374 0
M  V30 3091 H 279.947 0.574289 1.74282 0
M  V30 3092 H 278.329 -1.02832 3.82415 0
M  V30 3093 H 279.503 1.80001 4.24189 0
M  V30 3094 H 277.818 1.47977 3.89219 0
M  V30 3095 H 280.415 -0.939841 5.26375 0
M  V30 3096 H 280.758 -1.77201 3.76703 0
M  V30 3097 H 281.291 -0.0862669 3.97706 0
M  V30 3098 H 278.03 1.80718 6.30096 0
M  V30 3099 H 277.55 0.121825 5.99676 0
M  V30 3100 H 279.229 0.506163 6.45017 0
M  V30 3101 N 279.361 -1.56624 0.175154 0
M  V30 3102 C 280.311 -2.14747 -0.766004 0
M  V30 3103 C 281.295 -1.08275 -1.19018 0
M  V30 3104 O 282.487 -1.34388 -1.15191 0
M  V30 3105 C 279.616 -2.79478 -1.99366 0
M  V30 3106 C 278.702 -3.93114 -1.5913 0
M  V30 3107 N 279.093 -4.97752 -0.89872 0
M  V30 3108 C 277.391 -4.04345 -1.88204 0
M  V30 3109 C 278.092 -5.77473 -0.700012 0
M  V30 3110 N 277.068 -5.29207 -1.24263 0
M  V30 3111 H 280.87 -2.93015 -0.22793 0
M  V30 3112 H 278.384 -1.6238 -0.0253843 0
M  V30 3113 H 280.381 -3.19498 -2.67818 0
M  V30 3114 H 279.041 -2.02692 -2.53665 0
M  V30 3115 H 280.052 -5.14903 -0.556347 0
M  V30 3116 H 276.729 -3.38667 -2.44153 0
M  V30 3117 H 278.119 -6.71728 -0.152047 0
M  V30 3118 N 280.839 0.0985539 -1.57292 0
M  V30 3119 C 282.064 0.820196 -1.90493 0
M  V30 3120 C 282.489 1.71658 -0.769094 0
M  V30 3121 O 281.847 1.79133 0.279495 0
M  V30 3122 C 281.895 1.61242 -3.22542 0
M  V30 3123 O 280.999 2.72108 -3.09888 0
M  V30 3124 H 280.34 0.225547 -0.62452 0
M  V30 3125 H 282.87 0.0748159 -2.04463 0
M  V30 3126 H 282.88 1.99737 -3.55766 0
M  V30 3127 H 281.555 0.954535 -4.04798 0
M  V30 3128 H 280.132 2.36667 -2.88172 0
M  V30 3129 N 282.317 1.53212 0.369288 0
M  V30 3130 C 283.25 1.74166 1.4745 0
M  V30 3131 C 284.228 0.589923 1.51521 0
M  V30 3132 O 285.412 0.822078 1.69629 0
M  V30 3133 C 282.539 1.81711 2.8583 0
M  V30 3134 C 281.585 3.03649 2.99499 0
M  V30 3135 S 282.418 4.63242 2.6864 0
M  V30 3136 C 283.574 4.7363 4.09177 0
M  V30 3137 H 283.807 2.67636 1.29454 0
M  V30 3138 H 281.34 1.43754 0.563396 0
M  V30 3139 H 283.298 1.86743 3.65564 0
M  V30 3140 H 281.959 0.89299 3.01139 0
M  V30 3141 H 281.152 3.05526 4.00836 0
M  V30 3142 H 280.754 2.9671 2.27683 0
M  V30 3143 H 283.046 4.53456 5.03372 0
M  V30 3144 H 283.989 5.75682 4.12306 0
M  V30 3145 H 284.397 4.02295 3.96004 0
M  V30 3146 N 283.795 -0.628877 1.44509 0
M  V30 3147 C 285.043 -1.38565 1.4712 0
M  V30 3148 C 285.364 -1.94712 0.105899 0
M  V30 3149 O 284.634 -1.75912 -0.862079 0
M  V30 3150 H 283.214 -0.514333 0.541729 0
M  V30 3151 H 285.876 -0.740018 1.80305 0
M  V30 3152 H 284.972 -2.21583 2.19789 0
M  V30 3153 N 285.273 -1.31445 -0.869486 0
M  V30 3154 C 286.52 -1.21158 -1.62256 0
M  V30 3155 C 286.848 0.230155 -1.93133 0
M  V30 3156 O 286.103 1.17906 -1.56194 0
M  V30 3157 C 286.402 -2.00145 -2.96102 0
M  V30 3158 C 286.068 -3.4964 -2.84715 0
M  V30 3159 C 284.73 -3.90403 -2.81317 0
M  V30 3160 C 287.082 -4.44769 -2.71716 0
M  V30 3161 C 284.41 -5.24561 -2.62778 0
M  V30 3162 C 286.762 -5.79054 -2.54714 0
M  V30 3163 C 285.426 -6.19037 -2.49699 0
M  V30 3164 H 284.696 -0.443348 -0.593737 0
M  V30 3165 H 287.343 -1.62715 -1.00976 0
M  V30 3166 H 285.648 -1.5127 -3.6142 0
M  V30 3167 H 287.345 -1.89566 -3.53363 0
M  V30 3168 H 283.935 -3.17256 -2.88178 0
M  V30 3169 H 288.119 -4.14208 -2.73397 0
M  V30 3170 H 283.375 -5.54613 -2.57321 0
M  V30 3171 H 287.549 -6.52393 -2.43632 0
M  V30 3172 H 285.176 -7.22935 -2.35093 0
M  V30 3173 N 286.751 1.08385 -1.14413 0
M  V30 3174 C 288 1.80153 -0.907076 0
M  V30 3175 C 288.313 1.87176 0.567851 0
M  V30 3176 O 289.519 2.55359 0.922172 0
M  V30 3177 C 287.975 3.23687 -1.57336 0
M  V30 3178 C 287.583 3.24897 -3.08457 0
M  V30 3179 C 289.327 4.00136 -1.41744 0
M  V30 3180 C 287.234 4.6302 -3.67921 0
M  V30 3181 H 286.164 0.675139 -0.335714 0
M  V30 3182 H 288.815 1.21733 -1.37307 0
M  V30 3183 H 287.197 3.82234 -1.03505 0
M  V30 3184 H 288.371 2.76055 -3.68958 0
M  V30 3185 H 286.686 2.61943 -3.2369 0
M  V30 3186 H 289.283 5.02201 -1.83572 0
M  V30 3187 H 289.626 4.14709 -0.363576 0
M  V30 3188 H 290.159 3.48058 -1.92614 0
M  V30 3189 H 286.898 4.5365 -4.73161 0
M  V30 3190 H 286.418 5.12143 -3.12201 0
M  V30 3191 H 288.097 5.31994 -3.68227 0
M  V30 3192 N 288.23 0.939286 1.26551 0
M  V30 3193 C 289.18 0.418284 2.2413 0
M  V30 3194 C 290.164 -0.483935 1.5345 0
M  V30 3195 O 291.356 -0.319489 1.74093 0
M  V30 3196 C 288.485 -0.31709 3.41832 0
M  V30 3197 C 287.571 0.602311 4.19801 0
M  V30 3198 N 287.962 1.72726 4.75394 0
M  V30 3199 C 286.26 0.407534 4.44134 0
M  V30 3200 C 286.961 2.30004 5.34297 0
M  V30 3201 N 285.937 1.58828 5.1988 0
M  V30 3202 H 289.739 1.27705 2.64705 0
M  V30 3203 H 287.253 0.794929 1.41614 0
M  V30 3204 H 289.25 -0.707364 4.10855 0
M  V30 3205 H 287.91 -1.17264 3.02786 0
M  V30 3206 H 288.921 2.10944 4.72994 0
M  V30 3207 H 285.598 -0.406406 4.15517 0
M  V30 3208 H 286.988 3.24778 5.88191 0
M  V30 3209 N 289.708 -1.40897 0.706093 0
M  V30 3210 C 291.124 -1.55042 0.37869 0
M  V30 3211 C 291.324 -1.67944 -1.11342 0
M  V30 3212 O 290.38 -1.66372 -1.89938 0
M  V30 3213 C 291.693 -2.78398 1.13643 0
M  V30 3214 C 293.241 -2.92206 1.12181 0
M  V30 3215 C 293.716 -4.18463 1.86152 0
M  V30 3216 N 295.207 -4.25443 1.83173 0
M  V30 3217 C 295.942 -5.2202 2.37239 0
M  V30 3218 N 295.438 -6.24563 2.99821 0
M  V30 3219 N 297.231 -5.14033 2.27435 0
M  V30 3220 H 289.382 -1.30769 1.67372 0
M  V30 3221 H 291.645 -0.631653 0.706907 0
M  V30 3222 H 291.351 -2.7511 2.19106 0
M  V30 3223 H 291.225 -3.70228 0.721853 0
M  V30 3224 H 293.612 -2.95004 0.0754171 0
M  V30 3225 H 293.693 -2.01521 1.57554 0
M  V30 3226 H 293.337 -4.16427 2.90776 0
M  V30 3227 H 293.267 -5.08141 1.38206 0
M  V30 3228 H 295.758 -3.51976 1.37556 0
M  V30 3229 H 296.071 -6.94665 3.38616 0
M  V30 3230 H 294.416 -6.25035 3.03902 0
M  V30 3231 H 297.607 -4.3285 1.78208 0
M  V30 3232 H 297.78 -5.89129 2.69873 0
M  V30 3233 N 291.186 -0.45159 -1.50991 0
M  V30 3234 C 292.463 0.170707 -1.94854 0
M  V30 3235 C 292.843 1.58788 -1.39103 0
M  V30 3236 O 292.191 2.20913 -0.583921 0
M  V30 3237 C 292.401 0.133929 -3.48743 0
M  V30 3238 C 293.749 0.33248 -4.23296 0
M  V30 3239 O 294.773 0.211403 -3.55572 0
M  V30 3240 O 293.632 0.57486 -5.43468 0
M  V30 3241 H 290.726 0.122264 -0.817912 0
M  V30 3242 H 293.272 -0.510594 -1.61836 0
M  V30 3243 H 292.044 -0.856283 -3.81816 0
M  V30 3244 H 291.667 0.857529 -3.88242 0
M  V30 3245 N 292.664 1.56529 -0.183458 0
M  V30 3246 C 293.91 1.97537 0.459036 0
M  V30 3247 C 294.243 1.06989 1.62071 0
M  V30 3248 O 293.518 0.11948 1.94133 0
M  V30 3249 C 293.801 3.47874 0.930368 0
M  V30 3250 C 293.654 4.492 -0.232317 0
M  V30 3251 C 294.973 4.01612 1.79989 0
M  V30 3252 H 292.092 0.718204 0.165383 0
M  V30 3253 H 294.734 1.88042 -0.272038 0
M  V30 3254 H 292.884 3.56095 1.55333 0
M  V30 3255 H 294.556 4.53027 -0.86972 0
M  V30 3256 H 292.799 4.24657 -0.885928 0
M  V30 3257 H 293.47 5.51823 0.139796 0
M  V30 3258 H 295.946 3.96097 1.27461 0
M  V30 3259 H 294.822 5.07195 2.09867 0
M  V30 3260 H 295.083 3.46163 2.74998 0
M  V30 3261 N 294.142 -0.090211 1.57342 0
M  V30 3262 C 295.089 -1.10909 2.02405 0
M  V30 3263 C 296.059 -1.39523 0.901252 0
M  V30 3264 O 297.244 -1.50903 1.1676 0
M  V30 3265 C 294.384 -2.42277 2.45755 0
M  V30 3266 C 293.497 -2.20352 3.71576 0
M  V30 3267 C 292.632 -3.45154 4.03785 0
M  V30 3268 C 291.671 -3.18512 5.22701 0
M  V30 3269 N 290.808 -4.35593 5.50639 0
M  V30 3270 H 295.648 -0.71782 2.89225 0
M  V30 3271 H 293.185 -0.342901 1.43048 0
M  V30 3272 H 295.143 -3.18951 2.68935 0
M  V30 3273 H 293.773 -2.79242 1.61938 0
M  V30 3274 H 292.825 -1.34458 3.55844 0
M  V30 3275 H 294.137 -1.96661 4.58395 0
M  V30 3276 H 293.291 -4.30233 4.27767 0
M  V30 3277 H 292.03 -3.71904 3.15498 0
M  V30 3278 H 291.035 -2.31827 4.98534 0
M  V30 3279 H 292.26 -2.93103 6.12591 0
M  V30 3280 H 290.206 -4.6241 4.6531 0
M  V30 3281 H 290.123 -4.1511 6.31838 0
M  V30 3282 H 291.391 -5.21723 5.7916 0
M  V30 3283 N 295.62 -1.53406 -0.361157 0
M  V30 3284 C 297.031 -1.61442 -0.937728 0
M  V30 3285 C 297.382 -0.48461 -1.90121 0
M  V30 3286 O 296.507 0.388312 -2.12888 0
M  V30 3287 C 297.102 -2.92624 -1.70753 0
M  V30 3288 C 295.661 -3.02981 -2.23337 0
M  V30 3289 C 294.808 -2.5677 -1.04712 0
M  V30 3290 H 297.759 -1.58083 -0.139816 0
M  V30 3291 H 297.78 -2.80675 -2.56908 0
M  V30 3292 H 297.292 -3.74834 -1.00604 0
M  V30 3293 H 295.393 -2.25368 -2.96715 0
M  V30 3294 H 295.506 -4.0814 -2.50916 0
M  V30 3295 H 293.87 -2.11752 -1.41539 0
M  V30 3296 H 294.653 -3.41402 -0.360539 0
M  V30 3297 N 297.098 0.621204 -1.44841 0
M  V30 3298 C 298.375 1.38 -1.38619 0
M  V30 3299 C 298.755 2.11041 -0.0498935 0
M  V30 3300 O 298.103 2.06992 0.967816 0
M  V30 3301 C 298.313 2.33817 -2.59096 0
M  V30 3302 C 299.661 2.96844 -3.03593 0
M  V30 3303 O 300.685 2.44141 -2.59371 0
M  V30 3304 O 299.544 3.92476 -3.80296 0
M  V30 3305 H 296.638 0.61811 -0.549426 0
M  V30 3306 H 299.184 0.645429 -1.56947 0
M  V30 3307 H 297.956 1.79012 -3.47952 0
M  V30 3308 H 297.579 3.14676 -2.43032 0
M  V30 3309 N 298.576 1.31904 0.862503 0
M  V30 3310 C 299.524 1.20125 1.9918 0
M  V30 3311 C 300.518 0.107824 1.69056 0
M  V30 3312 O 301.724 0.270223 1.7796 0
M  V30 3313 H 298.099 0.372148 0.65346 0
M  V30 3314 H 300.07 2.15652 2.06244 0
M  V30 3315 C 298.819 0.933099 3.34946 0
M  V30 3316 H 298.142 1.76664 3.5865 0
M  V30 3317 H 299.582 0.890892 4.14535 0
M  V30 3318 C 298.041 -0.364172 3.34926 0
M  V30 3319 O 298.571 -1.37858 3.77304 0
M  V30 3320 N 296.777 -0.383362 2.8806 0
M  V30 3321 H 296.324 0.442651 2.53768 0
M  V30 3322 H 296.282 -1.25123 2.8843 0
M  V30 3323 N 300.054 -1.07777 1.14986 0
M  V30 3324 C 300.987 -2.14228 0.786243 0
M  V30 3325 C 301.965 -1.60888 -0.235347 0
M  V30 3326 O 303.149 -1.88099 -0.122909 0
M  V30 3327 C 300.276 -3.38281 0.168433 0
M  V30 3328 C 299.322 -4.10387 1.16123 0
M  V30 3329 S 300.155 -4.62371 2.70135 0
M  V30 3330 C 301.311 -5.89704 2.09762 0
M  V30 3331 H 301.544 -2.44741 1.68787 0
M  V30 3332 H 299.077 -1.19984 0.971756 0
M  V30 3333 H 301.035 -4.10098 -0.181588 0
M  V30 3334 H 299.696 -3.05953 -0.710725 0
M  V30 3335 H 298.889 -4.99431 0.677086 0
M  V30 3336 H 298.491 -3.44513 1.45556 0
M  V30 3337 H 300.783 -6.61648 1.45701 0
M  V30 3338 H 301.726 -6.42824 2.96955 0
M  V30 3339 H 302.134 -5.4302 1.54239 0
M  V30 3340 N 301.532 -0.945985 -1.26051 0
M  V30 3341 C 302.462 -0.477172 -2.28572 0
M  V30 3342 C 303.443 0.472032 -1.63419 0
M  V30 3343 O 304.628 0.372853 -1.90587 0
M  V30 3344 C 301.758 0.253975 -3.4637 0
M  V30 3345 C 300.712 -0.609135 -4.23643 0
M  V30 3346 C 300.038 0.252252 -5.34105 0
M  V30 3347 C 301.338 -1.8829 -4.8718 0
M  V30 3348 H 303.032 -1.33402 -2.68038 0
M  V30 3349 H 300.578 -0.642904 -1.28852 0
M  V30 3350 H 302.531 0.593016 -4.17207 0
M  V30 3351 H 301.255 1.145 -3.05871 0
M  V30 3352 H 299.914 -0.931138 -3.54578 0
M  V30 3353 H 299.562 1.14278 -4.89846 0
M  V30 3354 H 299.262 -0.32188 -5.86718 0
M  V30 3355 H 300.786 0.586454 -6.07777 0
M  V30 3356 H 302.2 -1.61081 -5.50205 0
M  V30 3357 H 300.597 -2.40199 -5.49931 0
M  V30 3358 H 301.667 -2.59134 -4.09851 0
M  V30 3359 N 303.011 1.40521 -0.713556 0
M  V30 3360 C 303.941 2.33381 -0.0743864 0
M  V30 3361 C 304.922 1.52784 0.747735 0
M  V30 3362 O 306.107 1.81258 0.697071 0
M  V30 3363 C 303.237 3.36748 0.849598 0
M  V30 3364 C 302.191 4.27793 0.133247 0
M  V30 3365 C 301.517 5.21679 1.17281 0
M  V30 3366 C 302.817 5.12415 -1.01134 0
M  V30 3367 H 304.511 2.87081 -0.850007 0
M  V30 3368 H 302.057 1.38034 -0.410201 0
M  V30 3369 H 304.01 4.00648 1.30612 0
M  V30 3370 H 302.734 2.81439 1.65709 0
M  V30 3371 H 301.393 3.65342 -0.303426 0
M  V30 3372 H 301.041 4.62677 1.9733 0
M  V30 3373 H 300.741 5.83435 0.698397 0
M  V30 3374 H 302.265 5.88456 1.62947 0
M  V30 3375 H 303.679 5.69781 -0.634274 0
M  V30 3376 H 302.076 5.83203 -1.41399 0
M  V30 3377 H 303.146 4.48514 -1.84292 0
M  V30 3378 N 304.489 0.459591 1.5075 0
M  V30 3379 C 305.766 -0.160371 1.94941 0
M  V30 3380 C 306.146 -1.58048 1.39943 0
M  V30 3381 O 305.494 -2.206 0.595629 0
M  V30 3382 C 305.704 -0.115432 3.48809 0
M  V30 3383 C 307.052 -0.310026 4.23467 0
M  V30 3384 O 308.076 -0.192543 3.55679 0
M  V30 3385 O 306.935 -0.546031 5.43765 0
M  V30 3386 H 304.029 -0.117925 0.818549 0
M  V30 3387 H 306.575 0.519169 1.61563 0
M  V30 3388 H 305.347 0.87652 3.81357 0
M  V30 3389 H 304.97 -0.836928 3.88692 0
M  V30 3390 N 305.967 -1.56429 0.191757 0
M  V30 3391 C 306.914 -2.18936 -0.730454 0
M  V30 3392 C 307.884 -1.13557 -1.21219 0
M  V30 3393 O 309.069 -1.41794 -1.27668 0
M  V30 3394 C 306.209 -2.85013 -1.9458 0
M  V30 3395 C 305.322 -4.04909 -1.50574 0
M  V30 3396 C 304.457 -4.58853 -2.67634 0
M  V30 3397 C 303.496 -5.71114 -2.20217 0
M  V30 3398 N 302.633 -6.19478 -3.30442 0
M  V30 3399 H 307.473 -2.97389 -0.190664 0
M  V30 3400 H 305.01 -1.46869 -0.0823694 0
M  V30 3401 H 306.968 -3.21492 -2.65893 0
M  V30 3402 H 305.598 -2.09129 -2.45896 0
M  V30 3403 H 304.65 -3.74115 -0.688605 0
M  V30 3404 H 305.962 -4.86113 -1.11784 0
M  V30 3405 H 305.116 -4.97619 -3.47074 0
M  V30 3406 H 303.855 -3.76749 -3.09696 0
M  V30 3407 H 302.86 -5.31879 -1.3923 0
M  V30 3408 H 304.085 -6.55033 -1.79189 0
M  V30 3409 H 302.031 -5.40297 -3.72041 0
M  V30 3410 H 301.948 -6.95725 -2.9581 0
M  V30 3411 H 303.216 -6.62898 -4.10106 0
M  V30 3412 N 307.445 0.0818655 -1.57387 0
M  V30 3413 C 308.67 0.799946 -1.91352 0
M  V30 3414 C 309.095 1.70833 -0.787258 0
M  V30 3415 O 308.453 1.79419 0.26048 0
M  V30 3416 C 308.501 1.57812 -3.24234 0
M  V30 3417 O 307.605 2.68806 -3.12757 0
M  V30 3418 H 306.946 0.21891 -0.626877 0
M  V30 3419 H 309.476 0.0531256 -2.04531 0
M  V30 3420 H 309.486 1.95952 -3.57864 0
M  V30 3421 H 308.161 0.911548 -4.05788 0
M  V30 3422 H 306.738 2.33597 -2.90666 0
M  V30 3423 N 308.923 1.53595 0.353017 0
M  V30 3424 C 310.171 1.70049 1.09215 0
M  V30 3425 C 310.492 0.461406 1.89463 0
M  V30 3426 O 309.762 -0.524633 1.88744 0
M  V30 3427 H 308.342 0.626912 0.40619 0
M  V30 3428 H 311.004 1.90822 0.396585 0
M  V30 3429 H 310.1 2.56718 1.77488 0
M  V30 3430 N 310.401 -0.613514 1.45168 0
M  V30 3431 C 311.351 -1.71871 1.49815 0
M  V30 3432 C 312.335 -1.56774 0.362021 0
M  V30 3433 O 313.527 -1.66212 0.608493 0
M  V30 3434 C 310.656 -3.1061 1.46207 0
M  V30 3435 C 309.742 -3.31114 2.64999 0
M  V30 3436 N 310.133 -3.21904 3.90143 0
M  V30 3437 C 308.431 -3.61966 2.6057 0
M  V30 3438 C 309.132 -3.43577 4.69393 0
M  V30 3439 N 308.108 -3.67287 4.00751 0
M  V30 3440 H 311.91 -1.63235 2.444 0
M  V30 3441 H 309.424 -0.816577 1.40377 0
M  V30 3442 H 311.421 -3.8989 1.4762 0
M  V30 3443 H 310.081 -3.20399 0.52673 0
M  V30 3444 H 311.092 -3.00436 4.21852 0
M  V30 3445 H 307.769 -3.78629 1.75916 0
M  V30 3446 H 309.159 -3.41901 5.78406 0
M  V30 3447 N 311.879 -1.3236 -0.855495 0
M  V30 3448 C 312.809 -1.23833 -1.97958 0
M  V30 3449 C 313.79 -0.122361 -1.69659 0
M  V30 3450 O 314.975 -0.30939 -1.9172 0
M  V30 3451 C 312.105 -0.959772 -3.33775 0
M  V30 3452 C 311.059 -2.03689 -3.76424 0
M  V30 3453 C 310.385 -1.61075 -5.09862 0
M  V30 3454 C 311.685 -3.4518 -3.9198 0
M  V30 3455 H 313.379 -2.1788 -2.0535 0
M  V30 3456 H 310.925 -1.04891 -0.986605 0
M  V30 3457 H 312.878 -0.886678 -4.11966 0
M  V30 3458 H 311.602 0.0163404 -3.26596 0
M  V30 3459 H 310.261 -2.10012 -3.00484 0
M  V30 3460 H 309.909 -0.622107 -4.99138 0
M  V30 3461 H 309.609 -2.33143 -5.39368 0
M  V30 3462 H 311.133 -1.55201 -5.90546 0
M  V30 3463 H 312.547 -3.4145 -4.60526 0
M  V30 3464 H 310.944 -4.1559 -4.32903 0
M  V30 3465 H 312.014 -3.84903 -2.94919 0
M  V30 3466 N 313.357 1.07166 -1.15556 0
M  V30 3467 C 314.304 2.14417 -0.854055 0
M  V30 3468 C 315.274 1.64965 0.193806 0
M  V30 3469 O 316.459 1.90703 0.0609443 0
M  V30 3470 C 313.599 3.43304 -0.351574 0
M  V30 3471 C 312.712 4.06537 -1.46123 0
M  V30 3472 C 311.847 5.23266 -0.914677 0
M  V30 3473 C 310.886 5.78464 -2.00114 0
M  V30 3474 N 310.023 6.86521 -1.47083 0
M  V30 3475 H 314.863 2.39548 -1.77259 0
M  V30 3476 H 312.4 1.17543 -0.884425 0
M  V30 3477 H 314.358 4.17179 -0.0419409 0
M  V30 3478 H 312.988 3.18419 0.530037 0
M  V30 3479 H 312.04 3.30297 -1.88701 0
M  V30 3480 H 313.352 4.43567 -2.28144 0
M  V30 3481 H 312.506 6.04131 -0.557698 0
M  V30 3482 H 311.245 4.87658 -0.0636583 0
M  V30 3483 H 310.25 4.96243 -2.36692 0
M  V30 3484 H 311.475 6.16126 -2.85597 0
M  V30 3485 H 309.421 6.52849 -0.642198 0
M  V30 3486 H 309.338 7.22446 -2.22729 0
M  V30 3487 H 310.606 7.71087 -1.14215 0
M  V30 3488 N 314.835 0.952656 1.25548 0
M  V30 3489 C 315.765 0.489287 2.28316 0
M  V30 3490 C 316.746 -0.463359 1.63667 0
M  V30 3491 O 317.931 -0.36274 1.90782 0
M  V30 3492 C 315.061 -0.235603 3.465 0
M  V30 3493 C 314.015 0.631593 4.23314 0
M  V30 3494 C 313.341 -0.223923 5.34231 0
M  V30 3495 C 314.641 1.90871 4.86174 0
M  V30 3496 H 316.335 1.34822 2.67326 0
M  V30 3497 H 313.881 0.649728 1.28509 0
M  V30 3498 H 315.834 -0.570882 4.17515 0
M  V30 3499 H 314.558 -1.12877 3.06474 0
M  V30 3500 H 313.217 0.949929 3.54079 0
M  V30 3501 H 312.865 -1.11678 4.90446 0
M  V30 3502 H 312.565 0.35299 5.86539 0
M  V30 3503 H 314.089 -0.554214 6.0808 0
M  V30 3504 H 315.503 1.63997 5.49343 0
M  V30 3505 H 313.9 2.43112 5.4865 0
M  V30 3506 H 314.97 2.61304 4.08471 0
M  V30 3507 N 316.313 -1.40141 0.720998 0
M  V30 3508 C 317.276 -2.29058 0.0805834 0
M  V30 3509 C 318.276 -1.45632 -0.681758 0
M  V30 3510 O 319.466 -1.6648 -0.512856 0
M  V30 3511 C 316.598 -3.28925 -0.895593 0
M  V30 3512 H 317.791 -2.87191 0.863793 0
M  V30 3513 H 315.344 -1.48553 0.485975 0
M  V30 3514 H 316.079 -2.75822 -1.70566 0
M  V30 3515 H 315.864 -3.90519 -0.351766 0
M  V30 3516 H 317.354 -3.95494 -1.34069 0
M  V30 3517 N 317.792 -0.46758 -1.50504 0
M  V30 3518 C 319.069 0.15003 -1.95024 0
M  V30 3519 C 319.449 1.57304 -1.40779 0
M  V30 3520 O 318.797 2.20281 -0.607319 0
M  V30 3521 C 319.007 0.0969324 -3.48865 0
M  V30 3522 C 320.355 0.287565 -4.23625 0
M  V30 3523 O 321.379 0.173678 -3.55776 0
M  V30 3524 O 320.238 0.517186 -5.44047 0
M  V30 3525 H 317.332 0.113582 -0.819163 0
M  V30 3526 H 319.878 -0.52773 -1.61286 0
M  V30 3527 H 318.65 -0.896732 -3.80886 0
M  V30 3528 H 318.273 0.816303 -3.8913 0
M  V30 3529 N 319.27 1.56325 -0.20005 0
M  V30 3530 C 320.517 1.97719 0.437411 0
M  V30 3531 C 320.845 1.08709 1.61284 0
M  V30 3532 O 320.1 0.127261 1.95286 0
M  V30 3533 C 320.399 3.4495 0.935103 0
M  V30 3534 C 320.065 4.5072 -0.12749 0
M  V30 3535 C 318.727 4.79368 -0.419451 0
M  V30 3536 C 321.079 5.14268 -0.847231 0
M  V30 3537 C 318.407 5.68854 -1.43604 0
M  V30 3538 C 320.759 6.04852 -1.85301 0
M  V30 3539 C 319.423 6.31855 -2.15211 0
M  V30 3540 H 318.693 0.723507 0.16006 0
M  V30 3541 H 321.34 1.89166 -0.298056 0
M  V30 3542 H 319.645 3.50599 1.74894 0
M  V30 3543 H 321.342 3.74337 1.43781 0
M  V30 3544 H 317.932 4.28458 0.11023 0
M  V30 3545 H 322.116 4.92222 -0.634901 0
M  V30 3546 H 317.372 5.88047 -1.67364 0
M  V30 3547 H 321.546 6.53152 -2.41591 0
M  V30 3548 H 319.173 7.00994 -2.94129 0
M  V30 3549 N 320.748 -0.0735177 1.57428 0
M  V30 3550 C 321.996 -0.771472 1.86796 0
M  V30 3551 C 322.317 -1.78201 0.791804 0
M  V30 3552 O 321.587 -1.95074 -0.179718 0
M  V30 3553 H 320.167 -0.28791 0.689287 0
M  V30 3554 H 322.829 -0.0500161 1.94836 0
M  V30 3555 H 321.925 -1.28874 2.8425 0
M  V30 3556 N 322.226 -1.5378 -0.344866 0
M  V30 3557 C 323.454 -1.74899 -1.10534 0
M  V30 3558 C 323.869 -0.487534 -1.82397 0
M  V30 3559 O 323.226 0.540741 -1.74305 0
M  V30 3560 C 323.277 -2.92822 -2.11984 0
M  V30 3561 O 322.998 -4.14089 -1.43044 0
M  V30 3562 C 324.499 -3.25982 -3.00417 0
M  V30 3563 H 321.719 -0.584426 -0.329678 0
M  V30 3564 H 324.263 -2.006 -0.397474 0
M  V30 3565 H 322.418 -2.69457 -2.78338 0
M  V30 3566 H 322.832 -4.80272 -2.10805 0
M  V30 3567 H 324.306 -4.11848 -3.67539 0
M  V30 3568 H 324.783 -2.42228 -3.66363 0
M  V30 3569 H 325.389 -3.51349 -2.39654 0
M  V30 3570 N 323.704 0.605807 -1.45491 0
M  V30 3571 C 324.944 1.37606 -1.51142 0
M  V30 3572 C 325.308 1.91413 -0.150075 0
M  V30 3573 O 326.509 2.68677 -0.0812828 0
M  V30 3574 C 324.78 2.49197 -2.56195 0
M  V30 3575 S 326.339 3.36953 -2.81083 0
M  V30 3576 H 323.157 0.469118 -0.534275 0
M  V30 3577 H 325.759 0.698845 -1.82583 0
M  V30 3578 H 324.463 2.0802 -3.53773 0
M  V30 3579 H 323.994 3.21717 -2.26411 0
M  V30 3580 H 326.009 4.47395 -2.14598 0
M  V30 3581 N 325.182 1.32811 0.848464 0
M  V30 3582 C 326.115 1.16601 1.96162 0
M  V30 3583 C 327.093 0.0638855 1.62474 0
M  V30 3584 O 328.277 0.224348 1.8716 0
M  V30 3585 C 325.404 0.786333 3.29446 0
M  V30 3586 C 324.45 1.89459 3.8211 0
M  V30 3587 S 325.283 3.50395 4.04949 0
M  V30 3588 C 326.439 3.14413 5.41198 0
M  V30 3589 H 326.672 2.10832 2.09612 0
M  V30 3590 H 324.205 1.17543 1.00115 0
M  V30 3591 H 326.163 0.574044 4.06466 0
M  V30 3592 H 324.824 -0.137218 3.138 0
M  V30 3593 H 324.017 1.58207 4.78526 0
M  V30 3594 H 323.619 2.06304 3.11953 0
M  V30 3595 H 325.911 2.64642 6.23675 0
M  V30 3596 H 326.854 4.09874 5.77416 0
M  V30 3597 H 327.262 2.51266 5.05495 0
M  V30 3598 N 326.66 -1.06551 1.16123 0
M  V30 3599 C 327.607 -2.13961 0.865414 0
M  V30 3600 C 328.577 -1.65066 -0.185055 0
M  V30 3601 O 329.762 -1.90732 -0.05083 0
M  V30 3602 C 326.902 -3.43113 0.369776 0
M  V30 3603 C 326.015 -4.05756 1.48276 0
M  V30 3604 C 325.15 -5.22773 0.942414 0
M  V30 3605 C 324.189 -5.77395 2.03179 0
M  V30 3606 N 323.326 -6.85731 1.50721 0
M  V30 3607 H 328.166 -2.38605 1.78527 0
M  V30 3608 H 325.703 -1.17072 0.890646 0
M  V30 3609 H 327.661 -4.17151 0.0640643 0
M  V30 3610 H 326.291 -3.18695 -0.513143 0
M  V30 3611 H 325.343 -3.29292 1.9045 0
M  V30 3612 H 326.655 -4.42351 2.30493 0
M  V30 3613 H 325.809 -6.03827 0.589729 0
M  V30 3614 H 324.548 -4.87618 0.0895191 0
M  V30 3615 H 323.553 -4.94981 2.3932 0
M  V30 3616 H 324.778 -6.14603 2.8886 0
M  V30 3617 H 322.724 -6.52499 0.676811 0
M  V30 3618 H 322.641 -7.21254 2.26557 0
M  V30 3619 H 323.909 -7.7047 1.18303 0
M  V30 3620 N 328.138 -0.959301 -1.25041 0
M  V30 3621 C 329.071 -0.427418 -2.24161 0
M  V30 3622 C 330.049 0.493837 -1.54919 0
M  V30 3623 O 331.233 0.427144 -1.83597 0
M  V30 3624 C 328.36 0.383893 -3.36517 0
M  V30 3625 C 327.406 -0.478431 -4.23808 0
M  V30 3626 S 328.239 -1.91353 -5.00144 0
M  V30 3627 C 329.395 -1.11077 -6.15965 0
M  V30 3628 H 329.628 -1.26743 -2.6893 0
M  V30 3629 H 327.161 -0.763714 -1.34189 0
M  V30 3630 H 329.119 0.846039 -4.01687 0
M  V30 3631 H 327.78 1.19878 -2.90324 0
M  V30 3632 H 326.973 0.14406 -5.03794 0
M  V30 3633 H 326.575 -0.87597 -3.63597 0
M  V30 3634 H 328.867 -0.361699 -6.76534 0
M  V30 3635 H 329.81 -1.88472 -6.82557 0
M  V30 3636 H 330.218 -0.638843 -5.60873 0
M  V30 3637 N 329.616 1.39756 -0.72842 0
M  V30 3638 C 330.564 2.32485 -0.0731849 0
M  V30 3639 C 331.558 1.52717 0.733063 0
M  V30 3640 O 332.764 1.68428 0.634988 0
M  V30 3641 H 329.139 0.751984 -0.00486469 0
M  V30 3642 H 331.11 2.85382 -0.871761 0
M  V30 3643 C 329.859 3.37773 0.824908 0
M  V30 3644 H 329.182 3.99227 0.213915 0
M  V30 3645 H 330.622 4.05121 1.25111 0
M  V30 3646 C 329.081 2.74287 1.95622 0
M  V30 3647 O 329.611 2.61618 3.04826 0
M  V30 3648 N 327.817 2.32475 1.74367 0
M  V30 3649 H 327.364 2.4298 0.855494 0
M  V30 3650 H 327.322 1.90337 2.50238 0
M  V30 3651 N 331.094 0.475555 1.50254 0
M  V30 3652 C 332.041 -0.316293 2.28622 0
M  V30 3653 C 333.011 -0.983227 1.33873 0
M  V30 3654 O 334.196 -0.994805 1.62814 0
M  V30 3655 C 331.336 -1.38975 3.1588 0
M  V30 3656 C 330.449 -0.737146 4.25664 0
M  V30 3657 C 329.584 -1.78887 5.00173 0
M  V30 3658 C 328.623 -1.11676 6.01826 0
M  V30 3659 N 327.76 -2.11154 6.69596 0
M  V30 3660 H 332.6 0.358297 2.95838 0
M  V30 3661 H 330.137 0.188541 1.45887 0
M  V30 3662 H 332.095 -2.02383 3.64825 0
M  V30 3663 H 330.725 -2.03344 2.50701 0
M  V30 3664 H 329.777 0.0096065 3.80399 0
M  V30 3665 H 331.089 -0.206816 4.98371 0
M  V30 3666 H 330.243 -2.49865 5.52859 0
M  V30 3667 H 328.982 -2.35302 4.27182 0
M  V30 3668 H 327.987 -0.392633 5.48396 0
M  V30 3669 H 329.212 -0.55945 6.76792 0
M  V30 3670 H 327.158 -2.66577 5.99394 0
M  V30 3671 H 327.075 -1.63118 7.38193 0
M  V30 3672 H 328.343 -2.81497 7.26897 0
M  V30 3673 N 332.573 -1.56217 0.208337 0
M  V30 3674 C 333.483 -2.23316 -0.718836 0
M  V30 3675 C 334.499 -1.23648 -1.22422 0
M  V30 3676 O 335.675 -1.56423 -1.26861 0
M  V30 3677 C 332.74 -2.88968 -1.91568 0
M  V30 3678 C 331.801 -4.03943 -1.45357 0
M  V30 3679 C 331.034 -4.66455 -2.59337 0
M  V30 3680 O 331.257 -4.27919 -3.77149 0
M  V30 3681 O 330.191 -5.55686 -2.31293 0
M  V30 3682 H 334.017 -3.03182 -0.177315 0
M  V30 3683 H 331.602 -1.49384 -0.0215402 0
M  V30 3684 H 333.484 -3.30455 -2.61491 0
M  V30 3685 H 332.159 -2.12071 -2.44556 0
M  V30 3686 H 331.066 -3.67052 -0.722746 0
M  V30 3687 H 332.399 -4.82543 -0.970219 0
M  V30 3688 N 334.051 0.0651679 -1.57465 0
M  V30 3689 C 335.299 0.761555 -1.87202 0
M  V30 3690 C 335.62 1.77778 -0.801243 0
M  V30 3691 O 334.89 1.95166 0.16937 0
M  V30 3692 H 333.47 0.284251 -0.690804 0
M  V30 3693 H 336.132 0.0396827 -1.9486 0
M  V30 3694 H 335.228 1.27365 -2.84929 0
M  V30 3695 N 335.529 1.53961 0.336706 0
M  V30 3696 C 336.462 1.77255 1.43722 0
M  V30 3697 C 337.44 0.62193 1.50236 0
M  V30 3698 O 338.624 0.857874 1.67847 0
M  V30 3699 C 335.751 1.87733 2.81912 0
M  V30 3700 C 334.797 3.09933 2.92991 0
M  V30 3701 S 335.63 4.68836 2.58753 0
M  V30 3702 C 336.786 4.82202 3.99039 0
M  V30 3703 H 337.019 2.70322 1.23748 0
M  V30 3704 H 334.552 1.44917 0.532777 0
M  V30 3705 H 336.51 1.94455 3.61521 0
M  V30 3706 H 335.171 0.956666 2.99177 0
M  V30 3707 H 334.364 3.1396 3.94265 0
M  V30 3708 H 333.966 3.01472 2.21338 0
M  V30 3709 H 336.258 4.64032 4.9364 0
M  V30 3710 H 337.201 5.84298 4.00002 0
M  V30 3711 H 337.609 4.10604 3.87382 0
M  V30 3712 N 337.007 -0.598083 1.45811 0
M  V30 3713 C 338.253 -1.35882 1.50545 0
M  V30 3714 C 338.586 -1.93616 0.150445 0
M  V30 3715 O 337.861 -1.75604 -0.83628 0
M  V30 3716 C 338.144 -2.49966 2.59208 0
M  V30 3717 C 337.997 -1.97367 4.04186 0
M  V30 3718 C 339.316 -3.52068 2.64076 0
M  V30 3719 H 336.435 -0.492717 0.548087 0
M  V30 3720 H 339.077 -0.673319 1.77669 0
M  V30 3721 H 337.227 -3.08443 2.3621 0
M  V30 3722 H 338.899 -1.43466 4.38423 0
M  V30 3723 H 337.142 -1.283 4.14393 0
M  V30 3724 H 337.813 -2.79649 4.75921 0
M  V30 3725 H 340.289 -3.03448 2.84708 0
M  V30 3726 H 339.165 -4.2937 3.41954 0
M  V30 3727 H 339.426 -4.08304 1.69531 0
M  V30 3728 N 338.485 -1.33259 -0.841409 0
M  V30 3729 C 339.901 -1.12538 -1.13169 0
M  V30 3730 C 340.101 0.0854037 -2.01319 0
M  V30 3731 O 339.157 0.766417 -2.40587 0
M  V30 3732 C 340.47 -2.41156 -1.79623 0
M  V30 3733 C 342.018 -2.47038 -1.922 0
M  V30 3734 C 342.493 -3.7561 -2.6207 0
M  V30 3735 N 343.984 -3.76667 -2.69585 0
M  V30 3736 C 344.719 -4.72861 -3.2433 0
M  V30 3737 N 344.215 -5.79428 -3.79783 0
M  V30 3738 N 346.008 -4.6034 -3.22558 0
M  V30 3739 H 338.159 -2.10868 -0.254676 0
M  V30 3740 H 340.422 -0.931615 -0.175493 0
M  V30 3741 H 340.128 -3.29747 -1.22311 0
M  V30 3742 H 340.002 -2.53114 -2.79666 0
M  V30 3743 H 342.389 -1.58898 -2.48667 0
M  V30 3744 H 342.47 -2.39022 -0.911148 0
M  V30 3745 H 342.114 -4.64131 -2.06263 0
M  V30 3746 H 342.044 -3.80902 -3.63622 0
M  V30 3747 H 344.535 -2.99648 -2.30259 0
M  V30 3748 H 344.848 -6.48867 -4.19752 0
M  V30 3749 H 343.193 -5.83166 -3.78078 0
M  V30 3750 H 346.384 -3.76244 -2.78492 0
M  V30 3751 H 346.557 -5.35478 -3.64921 0
M  V30 3752 N 339.963 1.05934 -1.16686 0
M  V30 3753 C 341.203 1.80382 -0.961345 0
M  V30 3754 C 341.567 1.85331 0.501643 0
M  V30 3755 O 342.768 2.55795 0.825986 0
M  V30 3756 C 341.039 3.20777 -1.57596 0
M  V30 3757 S 342.598 4.11795 -1.51559 0
M  V30 3758 H 339.416 0.621332 -0.345641 0
M  V30 3759 H 342.018 1.27157 -1.48497 0
M  V30 3760 H 340.722 3.14773 -2.63337 0
M  V30 3761 H 340.253 3.79078 -1.05182 0
M  V30 3762 H 342.268 4.93485 -0.518374 0
M  V30 3763 N 341.441 0.965919 1.2453 0
M  V30 3764 C 342.718 0.543777 1.87889 0
M  V30 3765 C 343.098 -0.97909 1.87021 0
M  V30 3766 O 342.446 -1.84969 1.3416 0
M  V30 3767 C 342.656 1.13327 3.30088 0
M  V30 3768 C 344.004 1.21707 4.06783 0
M  V30 3769 O 345.028 1.08566 3.39252 0
M  V30 3770 O 343.887 1.42456 5.27606 0
M  V30 3771 H 340.981 0.181054 0.806938 0
M  V30 3772 H 343.527 1.06007 1.32516 0
M  V30 3773 H 342.299 2.17612 3.25209 0
M  V30 3774 H 341.922 0.600911 3.93033 0
M  V30 3775 N 342.919 -1.39368 0.735821 0
M  V30 3776 C 344.147 -2.04795 0.294393 0
M  V30 3777 C 344.562 -1.55478 -1.07107 0
M  V30 3778 O 343.919 -0.720038 -1.67695 0
M  V30 3779 C 343.97 -3.6035 0.288071 0
M  V30 3780 O 343.691 -4.07852 1.59963 0
M  V30 3781 C 345.192 -4.42976 -0.169422 0
M  V30 3782 H 342.412 -0.658571 0.128551 0
M  V30 3783 H 344.956 -1.78399 0.999701 0
M  V30 3784 H 343.111 -3.85645 -0.368355 0
M  V30 3785 H 343.525 -5.02181 1.51375 0
M  V30 3786 H 344.999 -5.51864 -0.122687 0
M  V30 3787 H 345.476 -4.22068 -1.21472 0
M  V30 3788 H 346.082 -4.22832 0.457469 0
M  V30 3789 N 344.397 -0.483516 -1.5 0
M  V30 3790 C 345.36 0.292965 -2.2732 0
M  V30 3791 C 346.36 0.909499 -1.32608 0
M  V30 3792 O 347.55 0.776745 -1.55924 0
M  V30 3793 C 344.682 1.41854 -3.09984 0
M  V30 3794 H 345.875 -0.385289 -2.97415 0
M  V30 3795 H 343.428 -0.237942 -1.54478 0
M  V30 3796 H 344.163 2.13148 -2.44414 0
M  V30 3797 H 343.948 0.982114 -3.79601 0
M  V30 3798 H 345.438 1.96597 -3.68429 0
M  V30 3799 N 345.875 1.56104 -0.216619 0
M  V30 3800 C 347.121 1.98466 0.417033 0
M  V30 3801 C 347.454 1.10403 1.59765 0
M  V30 3802 O 346.729 0.160632 1.93836 0
M  V30 3803 C 347.012 3.49769 0.85637 0
M  V30 3804 C 346.865 4.48606 -0.327546 0
M  V30 3805 C 348.184 4.05339 1.7143 0
M  V30 3806 H 345.303 0.721551 0.150112 0
M  V30 3807 H 347.945 1.87423 -0.311864 0
M  V30 3808 H 346.095 3.5931 1.47745 0
M  V30 3809 H 347.767 4.5108 -0.965618 0
M  V30 3810 H 346.01 4.22682 -0.975805 0
M  V30 3811 H 346.681 5.51995 0.0227149 0
M  V30 3812 H 349.157 3.98712 1.19031 0
M  V30 3813 H 348.033 5.11533 1.99061 0
M  V30 3814 H 348.294 3.51918 2.67593 0
M  V30 3815 N 347.353 -0.0568162 1.57498 0
M  V30 3816 C 348.601 -0.751617 1.87604 0
M  V30 3817 C 348.922 -1.77351 0.81066 0
M  V30 3818 O 348.192 -1.95254 -0.159018 0
M  V30 3819 H 346.772 -0.280583 0.692302 0
M  V30 3820 H 349.434 -0.0293483 1.94878 0
M  V30 3821 H 348.53 -1.25852 2.856 0
M  V30 3822 N 348.832 -1.54138 -0.328536 0
M  V30 3823 C 350.06 -1.76062 -1.08673 0
M  V30 3824 C 350.475 -0.506852 -1.81869 0
M  V30 3825 O 349.832 0.522223 -1.74869 0
M  V30 3826 C 349.883 -2.95054 -2.08866 0
M  V30 3827 O 349.604 -4.15583 -1.38644 0
M  V30 3828 C 351.105 -3.2915 -2.96943 0
M  V30 3829 H 348.325 -0.587889 -0.323461 0
M  V30 3830 H 350.869 -2.0101 -0.376175 0
M  V30 3831 H 349.024 -2.72394 -2.75464 0
M  V30 3832 H 349.438 -4.82481 -2.05699 0
M  V30 3833 H 350.912 -4.15723 -3.63151 0
M  V30 3834 H 351.389 -2.461 -3.63774 0
M  V30 3835 H 351.995 -3.53871 -2.35914 0
M  V30 3836 N 350.31 0.590341 -1.46126 0
M  V30 3837 C 351.721 1.17243 -1.45296 0
M  V30 3838 C 352.072 1.95281 -0.189723 0
M  V30 3839 O 351.197 2.04502 0.707674 0
M  V30 3840 C 351.792 2.13284 -2.6324 0
M  V30 3841 C 350.351 2.66832 -2.65476 0
M  V30 3842 C 349.498 1.42557 -2.3785 0
M  V30 3843 H 352.449 0.378692 -1.54116 0
M  V30 3844 H 352.47 2.96619 -2.38323 0
M  V30 3845 H 351.982 1.56459 -3.55165 0
M  V30 3846 H 350.083 3.27548 -1.77603 0
M  V30 3847 H 350.196 3.10088 -3.65215 0
M  V30 3848 H 348.56 1.72107 -1.87753 0
M  V30 3849 H 349.343 0.875741 -3.31942 0
M  V30 3850 N 351.788 1.33704 0.83433 0
M  V30 3851 C 353.065 1.16011 1.57483 0
M  V30 3852 C 353.445 -0.27176 2.09343 0
M  V30 3853 O 352.793 -1.27146 1.89858 0
M  V30 3854 C 353.003 2.20507 2.70514 0
M  V30 3855 C 354.351 2.54898 3.39577 0
M  V30 3856 O 355.375 2.19209 2.80759 0
M  V30 3857 O 354.234 3.16158 4.45765 0
M  V30 3858 H 351.328 0.448992 0.694503 0
M  V30 3859 H 353.874 1.453 0.876691 0
M  V30 3860 H 352.646 3.16667 2.29865 0
M  V30 3861 H 352.269 1.92329 3.47987 0
M  V30 3862 N 353.266 -1.05314 1.17247 0
M  V30 3863 C 354.496 -1.81707 0.983166 0
M  V30 3864 C 354.904 -1.83222 -0.471822 0
M  V30 3865 O 354.247 -1.25721 -1.3394 0
M  V30 3866 C 354.309 -3.29134 1.44606 0
M  V30 3867 C 353.973 -3.51304 2.92292 0
M  V30 3868 C 354.97 -3.4353 3.90235 0
M  V30 3869 C 352.655 -3.78306 3.30439 0
M  V30 3870 C 354.649 -3.62442 5.24323 0
M  V30 3871 C 352.336 -3.96866 4.64694 0
M  V30 3872 C 353.334 -3.88933 5.61445 0
M  V30 3873 O 353.022 -4.06976 6.93272 0
M  V30 3874 H 352.754 -0.579476 0.348114 0
M  V30 3875 H 355.308 -1.33705 1.55924 0
M  V30 3876 H 353.538 -3.78046 0.813537 0
M  V30 3877 H 355.227 -3.87049 1.22262 0
M  V30 3878 H 355.993 -3.22648 3.62109 0
M  V30 3879 H 351.872 -3.83585 2.55702 0
M  V30 3880 H 355.416 -3.56165 5.99827 0
M  V30 3881 H 351.313 -4.1724 4.92525 0
M  V30 3882 H 352.081 -4.24209 6.99992 0
M  V30 3883 N 354.744 -0.972509 -1.24016 0
M  V30 3884 C 355.993 -0.632603 -1.91523 0
M  V30 3885 C 356.306 0.836641 -1.76804 0
M  V30 3886 O 357.512 1.28728 -2.39043 0
M  V30 3887 C 355.968 -1.08082 -3.43287 0
M  V30 3888 C 355.576 -2.57386 -3.66683 0
M  V30 3889 C 357.32 -0.814288 -4.16617 0
M  V30 3890 C 355.227 -2.95915 -5.12043 0
M  V30 3891 H 354.157 -0.232898 -0.717129 0
M  V30 3892 H 356.808 -1.17936 -1.40582 0
M  V30 3893 H 355.19 -0.462339 -3.93292 0
M  V30 3894 H 356.364 -3.24405 -3.27258 0
M  V30 3895 H 354.679 -2.81701 -3.06649 0
M  V30 3896 H 357.276 -1.0781 -5.23718 0
M  V30 3897 H 357.619 0.24955 -4.15551 0
M  V30 3898 H 358.152 -1.39397 -3.72577 0
M  V30 3899 H 354.891 -4.0139 -5.18234 0
M  V30 3900 H 354.411 -2.33584 -5.52448 0
M  V30 3901 H 356.09 -2.86086 -5.80314 0
M  V30 3902 N 356.222 1.38976 -0.743202 0
M  V30 3903 C 357.447 2.05161 -0.303936 0
M  V30 3904 C 357.872 1.55677 1.05576 0
M  V30 3905 O 357.23 0.704131 1.67068 0
M  V30 3906 C 357.278 3.59138 -0.324373 0
M  V30 3907 O 356.382 4.06668 0.685204 0
M  V30 3908 H 355.723 0.649815 -0.136518 0
M  V30 3909 H 358.253 1.77852 -1.01142 0
M  V30 3910 H 358.263 4.07639 -0.171618 0
M  V30 3911 H 356.938 3.94515 -1.31647 0
M  V30 3912 H 355.515 3.69561 0.497913 0
M  V30 3913 N 357.7 0.491464 1.49741 0
M  V30 3914 C 359.111 0.0413169 1.86654 0
M  V30 3915 C 359.462 -1.36985 1.40462 0
M  V30 3916 O 358.587 -2.01917 0.778354 0
M  V30 3917 C 359.182 0.0682023 3.38731 0
M  V30 3918 C 357.741 -0.32656 3.74981 0
M  V30 3919 C 356.888 0.444888 2.73708 0
M  V30 3920 H 359.839 0.704733 1.42194 0
M  V30 3921 H 359.86 -0.729322 3.73445 0
M  V30 3922 H 359.372 1.09539 3.72321 0
M  V30 3923 H 357.473 -1.35734 3.46997 0
M  V30 3924 H 357.586 -0.013741 4.79098 0
M  V30 3925 H 355.95 -0.104062 2.54487 0
M  V30 3926 H 356.733 1.47197 3.10142 0
M  V30 3927 N 359.178 -1.55987 0.224894 0
M  V30 3928 C 360.088 -2.24066 -0.69511 0
M  V30 3929 C 361.104 -1.24939 -1.21104 0
M  V30 3930 O 362.28 -1.5776 -1.25195 0
M  V30 3931 C 359.345 -2.90983 -1.88493 0
M  V30 3932 C 358.406 -4.05462 -1.41064 0
M  V30 3933 C 357.639 -4.69179 -2.54375 0
M  V30 3934 O 357.862 -4.31895 -3.72589 0
M  V30 3935 O 356.796 -5.58108 -2.25386 0
M  V30 3936 H 360.622 -3.03353 -0.145149 0
M  V30 3937 H 358.207 -1.49399 -0.00569476 0
M  V30 3938 H 360.089 -3.33209 -2.57972 0
M  V30 3939 H 358.764 -2.14653 -2.42293 0
M  V30 3940 H 357.671 -3.67798 -0.683774 0
M  V30 3941 H 359.004 -4.83545 -0.918985 0
M  V30 3942 N 360.656 0.0484629 -1.57525 0
M  V30 3943 C 361.902 0.744226 -1.88651 0
M  V30 3944 C 362.235 1.76029 -0.820212 0
M  V30 3945 O 361.51 1.93782 0.166985 0
M  V30 3946 C 361.793 1.43128 -3.30434 0
M  V30 3947 C 361.646 0.43005 -4.47739 0
M  V30 3948 C 362.965 2.37031 -3.70816 0
M  V30 3949 H 360.084 0.269089 -0.68612 0
M  V30 3950 H 362.726 0.00713532 -1.89999 0
M  V30 3951 H 360.876 2.05956 -3.29415 0
M  V30 3952 H 362.548 -0.194816 -4.60888 0
M  V30 3953 H 360.791 -0.252522 -4.33064 0
M  V30 3954 H 361.462 0.948874 -5.43783 0
M  V30 3955 H 363.938 1.84263 -3.73077 0
M  V30 3956 H 362.814 2.82094 -4.70865 0
M  V30 3957 H 363.075 3.22864 -3.02012 0
M  V30 3958 N 362.134 1.5431 0.320358 0
M  V30 3959 C 363.064 1.86912 1.3995 0
M  V30 3960 C 364.045 0.726211 1.53819 0
M  V30 3961 O 365.23 0.980233 1.67646 0
M  V30 3962 C 362.36 2.09932 2.7667 0
M  V30 3963 C 361.314 3.25776 2.77586 0
M  V30 3964 C 360.64 3.34173 4.17412 0
M  V30 3965 C 361.94 4.6335 2.41048 0
M  V30 3966 H 363.634 2.77292 1.12914 0
M  V30 3967 H 361.18 1.33421 0.541738 0
M  V30 3968 H 363.133 2.31324 3.52232 0
M  V30 3969 H 361.857 1.16304 3.0519 0
M  V30 3970 H 360.516 3.04276 2.04479 0
M  V30 3971 H 360.164 2.38098 4.43078 0
M  V30 3972 H 359.864 4.12033 4.18931 0
M  V30 3973 H 361.388 3.57803 4.94782 0
M  V30 3974 H 362.802 4.84602 3.06324 0
M  V30 3975 H 361.199 5.43782 2.53813 0
M  V30 3976 H 362.269 4.65381 1.36193 0
M  V30 3977 N 363.613 -0.582584 1.46437 0
M  V30 3978 C 364.56 -1.69164 1.5701 0
M  V30 3979 C 365.53 -1.60847 0.414403 0
M  V30 3980 O 366.715 -1.80058 0.631171 0
M  V30 3981 C 363.855 -3.075 1.56646 0
M  V30 3982 C 362.968 -3.2644 2.82951 0
M  V30 3983 C 362.103 -4.55026 2.7409 0
M  V30 3984 C 361.142 -4.6731 3.95333 0
M  V30 3985 N 360.279 -5.87221 3.84858 0
M  V30 3986 H 365.119 -1.59464 2.51744 0
M  V30 3987 H 362.656 -0.777186 1.24893 0
M  V30 3988 H 364.614 -3.8757 1.5442 0
M  V30 3989 H 363.244 -3.16096 0.654439 0
M  V30 3990 H 362.296 -2.39974 2.95155 0
M  V30 3991 H 363.608 -3.31385 3.72808 0
M  V30 3992 H 362.762 -5.43324 2.6997 0
M  V30 3993 H 361.501 -4.52519 1.81873 0
M  V30 3994 H 360.506 -3.77429 3.99784 0
M  V30 3995 H 361.731 -4.71595 4.88646 0
M  V30 3996 H 359.677 -5.85712 2.95427 0
M  V30 3997 H 359.594 -5.93435 4.6837 0
M  V30 3998 H 360.862 -6.7795 3.84713 0
M  V30 3999 N 365.091 -1.34144 -0.827227 0
M  V30 4000 C 366.316 -1.29476 -1.62021 0
M  V30 4001 C 366.741 0.129292 -1.87655 0
M  V30 4002 O 366.099 1.08967 -1.449 0
M  V30 4003 C 366.147 -2.08702 -2.94068 0
M  V30 4004 O 365.251 -1.45359 -3.85933 0
M  V30 4005 H 364.592 -0.444881 -0.492927 0
M  V30 4006 H 367.122 -1.76882 -1.02829 0
M  V30 4007 H 367.132 -2.19898 -3.43669 0
M  V30 4008 H 365.807 -3.12241 -2.74734 0
M  V30 4009 H 364.384 -1.42879 -3.44442 0
M  V30 4010 N 366.569 1.04691 -1.17803 0
M  V30 4011 C 367.501 2.12571 -0.857097 0
M  V30 4012 C 368.514 1.62174 0.142647 0
M  V30 4013 O 369.703 1.78301 -0.0843387 0
M  V30 4014 C 366.803 3.37915 -0.258216 0
M  V30 4015 C 365.976 4.1757 -1.30207 0
M  V30 4016 C 365.035 5.2125 -0.720029 0
M  V30 4017 O 364.061 5.51888 -1.39314 0
M  V30 4018 N 365.263 5.78466 0.485507 0
M  V30 4019 H 368.028 2.40698 -1.78562 0
M  V30 4020 H 365.589 1.20831 -1.07757 0
M  V30 4021 H 367.581 4.04442 0.144584 0
M  V30 4022 H 366.151 3.07281 0.574199 0
M  V30 4023 H 365.371 3.46458 -1.88043 0
M  V30 4024 H 366.659 4.67586 -2.00601 0
M  V30 4025 H 366.057 5.55866 1.05022 0
M  V30 4026 H 364.614 6.4649 0.830307 0
M  V30 4027 N 368.047 0.979072 1.23499 0
M  V30 4028 C 369.295 0.645941 1.91499 0
M  V30 4029 C 369.616 -0.822948 1.76784 0
M  V30 4030 O 368.886 -1.58854 1.14639 0
M  V30 4031 H 367.466 0.235919 0.708767 0
M  V30 4032 H 370.128 1.2426 1.50152 0
M  V30 4033 H 369.224 0.896411 2.9895 0
M  V30 4034 N 369.525 -1.3858 0.750561 0
M  V30 4035 C 370.773 -1.99789 0.30477 0
M  V30 4036 C 371.094 -1.59874 -1.11649 0
M  V30 4037 O 370.364 -0.85417 -1.76297 0
M  V30 4038 H 368.944 -0.738902 0.109694 0
M  V30 4039 H 371.606 -1.69391 0.963983 0
M  V30 4040 H 370.702 -3.09952 0.365499 0
M  V30 4041 N 371.003 -0.499398 -1.49478 0
M  V30 4042 C 372.28 0.108629 -1.95298 0
M  V30 4043 C 372.66 1.54282 -1.44084 0
M  V30 4044 O 372.008 2.18944 -0.653908 0
M  V30 4045 C 372.218 0.0229111 -3.48992 0
M  V30 4046 C 373.566 0.197643 -4.2414 0
M  V30 4047 O 374.59 0.0981735 -3.56065 0
M  V30 4048 O 373.449 0.401669 -5.45022 0
M  V30 4049 H 370.543 0.096181 -0.821388 0
M  V30 4050 H 373.089 -0.561822 -1.6013 0
M  V30 4051 H 371.861 -0.977321 -3.78899 0
M  V30 4052 H 371.484 0.733579 -3.90774 0
M  V30 4053 N 372.481 1.55866 -0.233164 0
M  V30 4054 C 373.729 1.9821 0.394593 0
M  V30 4055 C 374.05 1.12234 1.59463 0
M  V30 4056 O 373.32 0.201981 1.94856 0
M  V30 4057 H 371.9 0.732034 0.148778 0
M  V30 4058 H 374.562 1.92107 -0.32876 0
M  V30 4059 H 373.658 3.03845 0.713063 0
M  V30 4060 N 373.959 -0.0401083 1.57549 0
M  V30 4061 C 375.189 -0.744115 1.92734 0
M  V30 4062 C 375.597 -1.70005 0.830348 0
M  V30 4063 O 374.94 -1.82576 -0.20286 0
M  V30 4064 C 375.002 -1.56516 3.2364 0
M  V30 4065 C 374.666 -0.7752 4.50377 0
M  V30 4066 C 375.663 -0.0803326 5.19838 0
M  V30 4067 C 373.348 -0.733002 4.96923 0
M  V30 4068 C 375.342 0.646154 6.34116 0
M  V30 4069 C 373.029 -0.00276321 6.111 0
M  V30 4070 C 374.027 0.685585 6.7955 0
M  V30 4071 O 373.715 1.40399 7.91545 0
M  V30 4072 H 373.447 -0.214861 0.640945 0
M  V30 4073 H 376.001 -0.00503675 2.05399 0
M  V30 4074 H 374.231 -2.3478 3.07271 0
M  V30 4075 H 375.92 -2.15076 3.44234 0
M  V30 4076 H 376.686 -0.104035 4.84888 0
M  V30 4077 H 372.565 -1.25827 4.43496 0
M  V30 4078 H 376.109 1.18398 6.87479 0
M  V30 4079 H 372.006 0.0229012 6.45496 0
M  V30 4080 H 372.774 1.31653 8.07843 0
M  V30 4081 N 375.437 -1.54477 -0.31217 0
M  V30 4082 C 376.667 -1.76948 -1.06645 0
M  V30 4083 C 377.075 -0.523593 -1.81811 0
M  V30 4084 O 376.418 0.51578 -1.76311 0
M  V30 4085 C 376.48 -2.91668 -2.10166 0
M  V30 4086 C 376.144 -4.30165 -1.54296 0
M  V30 4087 C 377.141 -5.10603 -0.978793 0
M  V30 4088 C 374.826 -4.76738 -1.58196 0
M  V30 4089 C 376.82 -6.3573 -0.461048 0
M  V30 4090 C 374.507 -6.01831 -1.06034 0
M  V30 4091 C 375.505 -6.81161 -0.500844 0
M  V30 4092 O 375.193 -8.03899 0.0128958 0
M  V30 4093 H 374.925 -0.594088 -0.322546 0
M  V30 4094 H 377.479 -2.02213 -0.360441 0
M  V30 4095 H 375.709 -2.62001 -2.84416 0
M  V30 4096 H 377.398 -3.01817 -2.71406 0
M  V30 4097 H 378.164 -4.75771 -0.941651 0
M  V30 4098 H 374.043 -4.15027 -2.00683 0
M  V30 4099 H 377.587 -6.97596 -0.0236894 0
M  V30 4100 H 373.484 -6.36152 -1.09459 0
M  V30 4101 H 374.252 -8.18437 -0.101457 0
M  V30 4102 N 376.915 0.57481 -1.46744 0
M  V30 4103 C 378.163 1.33009 -1.52161 0
M  V30 4104 C 378.484 1.94185 -0.178092 0
M  V30 4105 O 377.754 1.7899 0.796196 0
M  V30 4106 H 376.334 0.493873 -0.560445 0
M  V30 4107 H 378.996 0.672589 -1.82927 0
M  V30 4108 H 378.092 2.13273 -2.27862 0
M  V30 4109 N 378.394 1.34581 0.820102 0
M  V30 4110 C 379.81 1.14325 1.11364 0
M  V30 4111 C 380.01 -0.0533648 2.01429 0
M  V30 4112 O 379.066 -0.728044 2.41776 0
M  V30 4113 C 380.379 2.43983 1.75764 0
M  V30 4114 C 381.927 2.50065 1.88246 0
M  V30 4115 C 382.402 3.79732 2.56061 0
M  V30 4116 N 383.893 3.80908 2.63558 0
M  V30 4117 C 384.628 4.77961 3.16766 0
M  V30 4118 N 384.124 5.85397 3.70517 0
M  V30 4119 N 385.917 4.65413 3.15194 0
M  V30 4120 H 378.068 2.11246 0.221096 0
M  V30 4121 H 380.331 0.934289 0.160649 0
M  V30 4122 H 380.037 3.31651 1.1705 0
M  V30 4123 H 379.911 2.57531 2.75604 0
M  V30 4124 H 382.298 1.62834 2.46108 0
M  V30 4125 H 382.379 2.40442 0.873006 0
M  V30 4126 H 382.023 4.67354 1.98853 0
M  V30 4127 H 381.953 3.86639 3.57516 0
M  V30 4128 H 384.444 3.03274 2.25463 0
M  V30 4129 H 384.757 6.55463 4.09376 0
M  V30 4130 H 383.102 5.89107 3.68752 0
M  V30 4131 H 386.293 3.80627 2.72471 0
M  V30 4132 H 386.466 5.41216 3.56356 0
M  V30 4133 N 379.872 -1.04064 1.18357 0
M  V30 4134 C 380.782 -2.15569 0.925596 0
M  V30 4135 C 381.798 -1.7365 -0.110295 0
M  V30 4136 O 382.974 -2.01273 0.0716218 0
M  V30 4137 C 380.039 -3.43704 0.454836 0
M  V30 4138 C 379.1 -4.00004 1.55869 0
M  V30 4139 C 378.333 -5.22023 1.1103 0
M  V30 4140 O 378.556 -5.70392 -0.0309756 0
M  V30 4141 O 377.49 -5.70856 1.90805 0
M  V30 4142 H 381.316 -2.40187 1.8586 0
M  V30 4143 H 378.901 -1.1402 0.965394 0
M  V30 4144 H 380.783 -4.20923 0.200382 0
M  V30 4145 H 379.458 -3.20559 -0.449876 0
M  V30 4146 H 378.365 -3.24172 1.86716 0
M  V30 4147 H 379.698 -4.2749 2.43953 0
M  V30 4148 N 381.35 -0.985608 -1.22978 0
M  V30 4149 C 382.59 -0.665487 -1.93263 0
M  V30 4150 C 382.954 0.78706 -1.75127 0
M  V30 4151 O 384.155 1.21826 -2.39608 0
M  V30 4152 C 382.426 -1.0515 -3.41582 0
M  V30 4153 S 383.985 -0.848637 -4.30516 0
M  V30 4154 H 380.803 -0.24355 -0.667985 0
M  V30 4155 H 383.405 -1.26635 -1.48942 0
M  V30 4156 H 382.109 -2.10517 -3.52293 0
M  V30 4157 H 381.64 -0.442134 -3.90908 0
M  V30 4158 H 383.655 0.264717 -4.95493 0
M  V30 4159 N 382.828 1.3818 -0.7579 0
M  V30 4160 C 384.105 1.94106 -0.241306 0
M  V30 4161 C 384.485 1.69282 1.26122 0
M  V30 4162 O 383.833 1.03378 2.03777 0
M  V30 4163 C 384.043 3.43809 -0.59967 0
M  V30 4164 C 385.391 4.20868 -0.561717 0
M  V30 4165 O 386.415 3.5211 -0.538222 0
M  V30 4166 O 385.274 5.43451 -0.576478 0
M  V30 4167 H 382.368 0.825376 -0.0518042 0
M  V30 4168 H 384.914 1.47548 -0.838315 0
M  V30 4169 H 383.686 3.55403 -1.6372 0
M  V30 4170 H 383.309 3.97592 0.0251197 0
M  V30 4171 N 384.306 0.507319 1.49211 0
M  V30 4172 C 385.552 -0.0269732 2.03382 0
M  V30 4173 C 385.907 -1.34111 1.37957 0
M  V30 4174 O 385.2 -1.84733 0.508351 0
M  V30 4175 C 385.394 -0.229513 3.56662 0
M  V30 4176 C 385.223 1.06344 4.36945 0
M  V30 4177 C 383.993 1.617 4.78729 0
M  V30 4178 C 386.191 1.96833 4.75143 0
M  V30 4179 N 384.173 2.8552 5.43463 0
M  V30 4180 C 385.544 3.0523 5.39661 0
M  V30 4181 C 387.599 1.97434 4.57082 0
M  V30 4182 C 386.302 4.14265 5.88028 0
M  V30 4183 C 388.328 3.05448 5.06414 0
M  V30 4184 C 387.69 4.12564 5.70938 0
M  V30 4185 H 383.789 0.0310673 0.781383 0
M  V30 4186 H 386.373 0.683579 1.82305 0
M  V30 4187 H 384.544 -0.909127 3.7761 0
M  V30 4188 H 386.276 -0.761377 3.97473 0
M  V30 4189 H 383.031 1.16132 4.59141 0
M  V30 4190 H 383.455 3.48499 5.80412 0
M  V30 4191 H 388.097 1.15924 4.06597 0
M  V30 4192 H 385.815 4.96569 6.3753 0
M  V30 4193 H 389.401 3.06941 4.94246 0
M  V30 4194 H 388.281 4.94767 6.0842 0
M  V30 4195 N 385.784 -1.5574 0.241426 0
M  V30 4196 C 387.03 -1.99846 -0.378555 0
M  V30 4197 C 387.385 -1.12665 -1.55963 0
M  V30 4198 O 386.678 -0.180966 -1.90743 0
M  V30 4199 C 386.872 -3.47308 -0.843317 0
M  V30 4200 C 386.701 -4.48756 0.291178 0
M  V30 4201 C 385.471 -4.9949 0.764077 0
M  V30 4202 C 387.669 -5.02039 1.11631 0
M  V30 4203 N 385.651 -5.84676 1.87156 0
M  V30 4204 C 387.022 -5.84343 2.07226 0
M  V30 4205 C 389.077 -4.84354 1.15349 0
M  V30 4206 C 387.78 -6.50851 3.06245 0
M  V30 4207 C 389.806 -5.51636 2.13195 0
M  V30 4208 C 389.168 -6.33724 3.07528 0
M  V30 4209 H 385.267 -0.774968 -0.104634 0
M  V30 4210 H 387.851 -1.91385 0.357751 0
M  V30 4211 H 386.022 -3.56178 -1.54893 0
M  V30 4212 H 387.754 -3.78299 -1.43779 0
M  V30 4213 H 384.509 -4.72311 0.349175 0
M  V30 4214 H 384.933 -6.31967 2.42789 0
M  V30 4215 H 389.575 -4.20525 0.438057 0
M  V30 4216 H 387.293 -7.1385 3.78739 0
M  V30 4217 H 390.879 -5.39909 2.16771 0
M  V30 4218 H 389.759 -6.84867 3.82003 0
M  V30 4219 N 387.262 0.0317525 -1.57568 0
M  V30 4220 C 388.487 0.738664 -1.938 0
M  V30 4221 C 388.912 1.68242 -0.841208 0
M  V30 4222 O 388.27 1.80157 0.203267 0
M  V30 4223 C 388.318 1.47417 -3.29091 0
M  V30 4224 O 387.422 2.5872 -3.2115 0
M  V30 4225 H 386.763 0.198856 -0.633524 0
M  V30 4226 H 389.293 -0.0119713 -2.04596 0
M  V30 4227 H 389.303 1.84468 -3.63917 0
M  V30 4228 H 387.978 0.781988 -4.08482 0
M  V30 4229 H 386.555 2.24231 -2.97951 0
M  V30 4230 N 388.74 1.54641 0.303973 0
M  V30 4231 C 389.986 1.74038 1.04109 0
M  V30 4232 C 390.319 0.523051 1.87024 0
M  V30 4233 O 389.594 -0.479874 1.88487 0
M  V30 4234 C 389.877 3.02761 1.94955 0
M  V30 4235 C 389.73 4.34787 1.1524 0
M  V30 4236 C 391.049 3.27336 2.94175 0
M  V30 4237 H 388.168 0.63323 0.377079 0
M  V30 4238 H 390.81 1.87354 0.316001 0
M  V30 4239 H 388.96 2.9154 2.56782 0
M  V30 4240 H 390.632 4.57922 0.557236 0
M  V30 4241 H 388.875 4.31407 0.455053 0
M  V30 4242 H 389.546 5.21116 1.8205 0
M  V30 4243 H 392.022 3.38148 2.42477 0
M  V30 4244 H 390.898 4.18726 3.54908 0
M  V30 4245 H 391.159 2.45491 3.67677 0
M  V30 4246 N 390.218 -0.567019 1.47046 0
M  V30 4247 C 391.466 -1.322 1.52864 0
M  V30 4248 C 391.787 -1.94088 0.188388 0
M  V30 4249 O 391.057 -1.7941 -0.786693 0
M  V30 4250 H 389.637 -0.490894 0.563056 0
M  V30 4251 H 392.299 -0.662879 1.83281 0
M  V30 4252 H 391.395 -2.12062 2.2899 0
M  V30 4253 N 391.696 -1.35014 -0.812953 0
M  V30 4254 C 392.942 -1.2812 -1.57204 0
M  V30 4255 C 393.275 0.145869 -1.93651 0
M  V30 4256 O 392.55 1.0937 -1.60836 0
M  V30 4257 C 392.833 -2.18162 -2.86492 0
M  V30 4258 C 392.686 -3.69454 -2.56561 0
M  V30 4259 C 394.005 -2.07439 -3.88145 0
M  V30 4260 H 391.124 -0.466746 -0.570366 0
M  V30 4261 H 393.766 -1.65357 -0.935783 0
M  V30 4262 H 391.916 -1.86535 -3.40789 0
M  V30 4263 H 393.588 -4.11493 -2.08497 0
M  V30 4264 H 391.831 -3.9005 -1.89851 0
M  V30 4265 H 392.502 -4.27835 -3.48799 0
M  V30 4266 H 394.978 -2.35228 -3.4323 0
M  V30 4267 H 393.854 -2.7265 -4.76396 0
M  V30 4268 H 394.115 -1.05439 -4.29343 0
M  V30 4269 N 393.175 1.03435 -1.18907 0
M  V30 4270 C 394.422 1.76743 -0.988334 0
M  V30 4271 C 394.75 1.88447 0.481441 0
M  V30 4272 O 394.005 1.39383 1.37371 0
M  V30 4273 C 394.304 3.19792 -1.59586 0
M  V30 4274 C 393.97 3.28108 -3.09283 0
M  V30 4275 C 392.632 3.30084 -3.5014 0
M  V30 4276 C 394.984 3.27696 -4.05296 0
M  V30 4277 C 392.312 3.29299 -4.85571 0
M  V30 4278 C 394.664 3.28451 -5.4065 0
M  V30 4279 C 393.328 3.28723 -5.80946 0
M  V30 4280 H 392.598 0.64675 -0.361657 0
M  V30 4281 H 395.245 1.21442 -1.48068 0
M  V30 4282 H 393.55 3.78136 -1.02568 0
M  V30 4283 H 395.247 3.75171 -1.41589 0
M  V30 4284 H 391.837 3.27294 -2.76725 0
M  V30 4285 H 396.021 3.25354 -3.74778 0
M  V30 4286 H 391.277 3.2783 -5.16079 0
M  V30 4287 H 395.451 3.27082 -6.14809 0
M  V30 4288 H 393.078 3.27868 -6.85862 0
M  V30 4289 N 394.653 0.992116 1.22453 0
M  V30 4290 C 395.583 0.561677 2.26644 0
M  V30 4291 C 396.564 -0.411055 1.65059 0
M  V30 4292 O 397.749 -0.301861 1.9184 0
M  V30 4293 C 394.879 -0.125247 3.47074 0
M  V30 4294 C 393.833 0.765948 4.21091 0
M  V30 4295 C 393.159 -0.0538484 5.34673 0
M  V30 4296 C 394.459 2.06242 4.79856 0
M  V30 4297 H 396.153 1.43259 2.62902 0
M  V30 4298 H 393.699 0.690283 1.26377 0
M  V30 4299 H 395.652 -0.437764 4.1912 0
M  V30 4300 H 394.376 -1.03069 3.0991 0
M  V30 4301 H 393.035 1.0621 3.50878 0
M  V30 4302 H 392.683 -0.960188 4.9375 0
M  V30 4303 H 392.383 0.539415 5.85119 0
M  V30 4304 H 393.907 -0.360477 6.09535 0
M  V30 4305 H 395.321 1.8139 5.43848 0
M  V30 4306 H 393.718 2.60444 5.40638 0
M  V30 4307 H 394.788 2.74167 3.99951 0
M  V30 4308 N 396.131 -1.37776 0.765217 0
M  V30 4309 C 397.361 -2.03828 0.337277 0
M  V30 4310 C 397.769 -1.57841 -1.04321 0
M  V30 4311 O 397.112 -0.752043 -1.67601 0
M  V30 4312 C 397.174 -3.58292 0.294407 0
M  V30 4313 C 396.838 -4.27384 1.61838 0
M  V30 4314 C 397.835 -4.51956 2.56967 0
M  V30 4315 C 395.52 -4.65345 1.89102 0
M  V30 4316 C 397.514 -5.13536 3.77571 0
M  V30 4317 C 395.201 -5.26647 3.09978 0
M  V30 4318 C 396.199 -5.50679 4.04032 0
M  V30 4319 O 395.887 -6.10702 5.2278 0
M  V30 4320 H 395.619 -0.661292 0.140248 0
M  V30 4321 H 398.173 -1.77222 1.03834 0
M  V30 4322 H 396.403 -3.83918 -0.462983 0
M  V30 4323 H 398.092 -4.05763 -0.105581 0
M  V30 4324 H 398.858 -4.23048 2.37183 0
M  V30 4325 H 394.737 -4.45978 1.16725 0
M  V30 4326 H 398.281 -5.3221 4.50997 0
M  V30 4327 H 394.178 -5.54979 3.29649 0
M  V30 4328 H 394.946 -6.29183 5.23517 0
M  V30 4329 N 397.609 -0.515225 -1.4894 0
M  V30 4330 C 398.519 0.259774 -2.33157 0
M  V30 4331 C 399.535 0.953501 -1.45548 0
M  V30 4332 O 400.711 0.931735 -1.78552 0
M  V30 4333 C 397.776 1.30193 -3.21326 0
M  V30 4334 C 396.837 0.620129 -4.24797 0
M  V30 4335 C 396.07 1.61263 -5.08753 0
M  V30 4336 O 396.293 2.84389 -4.94448 0
M  V30 4337 O 395.227 1.16013 -5.90614 0
M  V30 4338 H 399.053 -0.429932 -3.00641 0
M  V30 4339 H 396.638 -0.276346 -1.46822 0
M  V30 4340 H 398.52 1.90455 -3.75905 0
M  V30 4341 H 397.195 1.97431 -2.56521 0
M  V30 4342 H 396.102 -0.0226019 -3.74093 0
M  V30 4343 H 397.435 -0.0100493 -4.92199 0
M  V30 4344 N 399.087 1.5561 -0.249682 0
M  V30 4345 C 400.02 2.17537 0.689408 0
M  V30 4346 C 400.998 1.12829 1.17083 0
M  V30 4347 O 402.182 1.41229 1.24846 0
M  V30 4348 C 399.309 2.77828 1.93725 0
M  V30 4349 C 398.355 3.95615 1.59346 0
M  V30 4350 S 399.188 5.30988 0.69367 0
M  V30 4351 C 400.344 5.94734 1.95046 0
M  V30 4352 H 400.577 2.96852 0.163142 0
M  V30 4353 H 398.11 1.54362 -0.0341166 0
M  V30 4354 H 400.068 3.13199 2.65361 0
M  V30 4355 H 398.729 1.98454 2.43465 0
M  V30 4356 H 397.922 4.364 2.52132 0
M  V30 4357 H 397.524 3.61535 0.957512 0
M  V30 4358 H 399.816 6.12419 2.89739 0
M  V30 4359 H 400.759 6.90109 1.58604 0
M  V30 4360 H 401.167 5.23832 2.10381 0
M  V30 4361 N 400.565 -0.0233959 1.57583 0
M  V30 4362 C 401.495 -1.02162 2.09965 0
M  V30 4363 C 402.476 -1.3735 1.00344 0
M  V30 4364 O 403.661 -1.46135 1.27899 0
M  V30 4365 C 400.791 -2.32081 2.58371 0
M  V30 4366 C 399.745 -2.1112 3.72307 0
M  V30 4367 C 399.071 -3.46848 4.06941 0
M  V30 4368 C 400.371 -1.49276 5.00514 0
M  V30 4369 H 402.065 -0.585557 2.93618 0
M  V30 4370 H 399.611 -0.280218 1.41247 0
M  V30 4371 H 401.564 -3.02249 2.93639 0
M  V30 4372 H 400.288 -2.77758 1.71808 0
M  V30 4373 H 398.947 -1.43384 3.37397 0
M  V30 4374 H 398.595 -3.90184 3.17436 0
M  V30 4375 H 398.295 -3.33646 4.83688 0
M  V30 4376 H 399.819 -4.18369 4.44747 0
M  V30 4377 H 401.233 -2.09368 5.33702 0
M  V30 4378 H 399.63 -1.46632 5.8191 0
M  V30 4379 H 400.7 -0.459217 4.82721 0
M  V30 4380 N 402.043 -1.548 -0.295768 0
M  V30 4381 C 403.289 -1.74588 -1.03184 0
M  V30 4382 C 403.622 -0.532962 -1.86744 0
M  V30 4383 O 402.897 0.469872 -1.88739 0
M  V30 4384 C 403.18 -3.03791 -1.93347 0
M  V30 4385 C 403.033 -4.35392 -1.12933 0
M  V30 4386 C 404.352 -3.28892 -2.92435 0
M  V30 4387 H 401.471 -0.635221 -0.373715 0
M  V30 4388 H 404.113 -1.87519 -0.30606 0
M  V30 4389 H 402.263 -2.92898 -2.55232 0
M  V30 4390 H 403.935 -4.58211 -0.532943 0
M  V30 4391 H 402.178 -4.31642 -0.432168 0
M  V30 4392 H 402.849 -5.22074 -1.79284 0
M  V30 4393 H 405.325 -3.39429 -2.4068 0
M  V30 4394 H 404.201 -4.20603 -3.52682 0
M  V30 4395 H 404.462 -2.47437 -3.6637 0
M  V30 4396 N 403.521 0.559213 -1.47345 0
M  V30 4397 C 404.769 1.31388 -1.53563 0
M  V30 4398 C 405.09 1.93985 -0.198678 0
M  V30 4399 O 404.36 1.79825 0.777167 0
M  V30 4400 H 402.94 0.487901 -0.565652 0
M  V30 4401 H 405.602 0.65315 -1.8363 0
M  V30 4402 H 404.698 2.10844 -2.30111 0
M  V30 4403 N 404.999 1.35443 0.805782 0
M  V30 4404 C 406.276 1.19325 1.54987 0
M  V30 4405 C 406.656 -0.227294 2.09873 0
M  V30 4406 O 406.004 -1.2309 1.92512 0
M  V30 4407 C 406.214 2.26196 2.65775 0
M  V30 4408 C 407.562 2.62043 3.34094 0
M  V30 4409 O 408.586 2.25115 2.76046 0
M  V30 4410 O 407.445 3.25542 4.38958 0
M  V30 4411 H 404.539 0.463623 0.684823 0
M  V30 4412 H 407.085 1.47127 0.845674 0
M  V30 4413 H 405.857 3.21471 2.23096 0
M  V30 4414 H 405.48 1.99667 3.43829 0
M  V30 4415 N 406.477 -1.02803 1.19454 0
M  V30 4416 C 407.705 -1.79841 1.02297 0
M  V30 4417 C 408.12 -1.83879 -0.428259 0
M  V30 4418 O 407.477 -1.28345 -1.29745 0
M  V30 4419 C 407.528 -3.24852 1.58598 0
M  V30 4420 O 407.249 -3.21097 2.98041 0
M  V30 4421 C 408.75 -4.18485 1.46236 0
M  V30 4422 H 405.97 -0.565936 0.360496 0
M  V30 4423 H 408.514 -1.2948 1.58288 0
M  V30 4424 H 406.669 -3.72401 1.06753 0
M  V30 4425 H 407.083 -4.12033 3.24545 0
M  V30 4426 H 408.557 -5.18121 1.90407 0
M  V30 4427 H 409.034 -4.37254 0.41301 0
M  V30 4428 H 409.64 -3.76811 1.97215 0
M  V30 4429 N 407.956 -0.998596 -1.21925 0
M  V30 4430 C 409.367 -0.711939 -1.72593 0
M  V30 4431 C 409.718 0.770842 -1.80423 0
M  V30 4432 O 408.843 1.60237 -1.4544 0
M  V30 4433 C 409.438 -1.28567 -3.13458 0
M  V30 4434 C 407.997 -1.04828 -3.61508 0
M  V30 4435 C 407.144 -1.4024 -2.39224 0
M  V30 4436 H 410.095 -1.17027 -1.07193 0
M  V30 4437 H 410.116 -0.667098 -3.74607 0
M  V30 4438 H 409.628 -2.36486 -3.07727 0
M  V30 4439 H 407.729 0.0140383 -3.72597 0
M  V30 4440 H 407.842 -1.71566 -4.47328 0
M  V30 4441 H 406.206 -0.821077 -2.41103 0
M  V30 4442 H 406.989 -2.49176 -2.36149 0
M  V30 4443 N 409.434 1.37368 -0.772513 0
M  V30 4444 C 410.681 1.99673 -0.337182 0
M  V30 4445 C 411.009 1.61324 1.0865 0
M  V30 4446 O 410.264 0.851377 1.7621 0
M  V30 4447 C 410.563 3.54817 -0.428876 0
M  V30 4448 C 410.229 4.12936 -1.81092 0
M  V30 4449 C 408.891 4.28523 -2.1891 0
M  V30 4450 C 411.243 4.44801 -2.71664 0
M  V30 4451 C 408.571 4.73277 -3.46735 0
M  V30 4452 C 410.923 4.90981 -3.98899 0
M  V30 4453 C 409.587 5.04773 -4.36761 0
M  V30 4454 H 408.857 0.730656 -0.123384 0
M  V30 4455 H 411.504 1.64124 -0.986686 0
M  V30 4456 H 409.809 3.90618 0.304167 0
M  V30 4457 H 411.506 4.00933 -0.0733334 0
M  V30 4458 H 408.096 4.01233 -1.50699 0
M  V30 4459 H 412.28 4.32344 -2.43706 0
M  V30 4460 H 407.536 4.82142 -3.75964 0
M  V30 4461 H 411.71 5.14603 -4.69208 0
M  V30 4462 H 409.337 5.39211 -5.35868 0
M  V30 4463 N 410.912 0.523116 1.48665 0
M  V30 4464 C 412.142 -0.00961724 2.06598 0
M  V30 4465 C 412.55 -1.29333 1.38093 0
M  V30 4466 O 411.893 -1.77846 0.46007 0
M  V30 4467 C 411.955 -0.311135 3.58151 0
M  V30 4468 C 411.619 0.878092 4.48485 0
M  V30 4469 C 412.616 1.77464 4.88674 0
M  V30 4470 C 410.301 1.08315 4.90483 0
M  V30 4471 C 412.295 2.86021 5.69623 0
M  V30 4472 C 409.982 2.17187 5.71203 0
M  V30 4473 C 410.98 3.05873 6.10681 0
M  V30 4474 O 410.668 4.12862 6.89783 0
M  V30 4475 H 410.4 0.0272658 0.67545 0
M  V30 4476 H 412.954 0.726156 1.92136 0
M  V30 4477 H 411.184 -1.10079 3.70701 0
M  V30 4478 H 412.873 -0.785125 3.98234 0
M  V30 4479 H 413.639 1.62813 4.56855 0
M  V30 4480 H 409.518 0.402149 4.59243 0
M  V30 4481 H 413.062 3.55272 6.00356 0
M  V30 4482 H 408.959 2.31824 6.02435 0
M  V30 4483 H 409.727 4.10487 7.08126 0
M  V30 4484 N 412.39 -1.55475 0.257931 0
M  V30 4485 C 413.353 -2.20551 -0.623706 0
M  V30 4486 C 414.353 -1.17809 -1.09443 0
M  V30 4487 O 415.543 -1.42823 -0.997362 0
M  V30 4488 C 412.675 -2.85784 -1.8585 0
M  V30 4489 H 413.868 -2.99848 -0.0557743 0
M  V30 4490 H 411.421 -1.56298 0.0084422 0
M  V30 4491 H 412.156 -2.10453 -2.46739 0
M  V30 4492 H 411.941 -3.61057 -1.52907 0
M  V30 4493 H 413.431 -3.35553 -2.48584 0
M  V30 4494 N 413.868 0.0150385 -1.57593 0
M  V30 4495 C 415.145 0.7392 -1.81094 0
M  V30 4496 C 415.525 1.92817 -0.859344 0
M  V30 4497 O 414.873 2.28301 0.095362 0
M  V30 4498 C 415.083 1.15907 -3.29191 0
M  V30 4499 C 416.431 1.56918 -3.9454 0
M  V30 4500 O 417.455 1.25328 -3.33424 0
M  V30 4501 O 416.314 2.15604 -5.02173 0
M  V30 4502 H 413.408 0.358631 -0.745193 0
M  V30 4503 H 415.954 -0.00926156 -1.69697 0
M  V30 4504 H 414.726 0.310921 -3.90063 0
M  V30 4505 H 414.349 1.96711 -3.45529 0
M  V30 4506 N 415.346 1.54954 0.287554 0
M  V30 4507 C 416.571 1.79209 1.04397 0
M  V30 4508 C 416.996 0.556431 1.79682 0
M  V30 4509 O 416.354 -0.493518 1.74454 0
M  V30 4510 C 416.402 3.00739 1.98969 0
M  V30 4511 O 415.506 2.74805 3.075 0
M  V30 4512 H 414.847 0.592755 0.299227 0
M  V30 4513 H 417.377 2.02068 0.320886 0
M  V30 4514 H 417.387 3.29077 2.4119 0
M  V30 4515 H 416.062 3.90329 1.43582 0
M  V30 4516 H 414.639 2.57523 2.69697 0
M  V30 4517 N 416.824 -0.551391 1.4764 0
M  V30 4518 C 417.754 -1.66757 1.63445 0
M  V30 4519 C 418.735 -1.63077 0.483742 0
M  V30 4520 O 419.92 -1.80607 0.71377 0
M  V30 4521 C 417.05 -3.05387 1.65396 0
M  V30 4522 C 416.004 -3.23918 2.79752 0
M  V30 4523 C 415.33 -4.63393 2.66779 0
M  V30 4524 C 416.63 -3.08735 4.21284 0
M  V30 4525 H 418.324 -1.53786 2.56886 0
M  V30 4526 H 415.87 -0.738415 1.23626 0
M  V30 4527 H 417.823 -3.83325 1.75043 0
M  V30 4528 H 416.547 -3.19332 0.685195 0
M  V30 4529 H 415.206 -2.48391 2.69625 0
M  V30 4530 H 414.854 -4.74144 1.67918 0
M  V30 4531 H 414.554 -4.7674 3.43501 0
M  V30 4532 H 416.078 -5.43458 2.78364 0
M  V30 4533 H 417.492 -3.76484 4.32357 0
M  V30 4534 H 415.889 -3.33588 4.98838 0
M  V30 4535 H 416.959 -2.0541 4.39243 0
M  V30 4536 N 418.302 -1.35869 -0.798587 0
M  V30 4537 C 419.548 -1.2978 -1.55836 0
M  V30 4538 C 419.881 0.125322 -1.93795 0
M  V30 4539 O 419.156 1.07658 -1.61987 0
M  V30 4540 C 419.439 -2.21188 -2.84162 0
M  V30 4541 C 419.292 -3.72155 -2.52628 0
M  V30 4542 C 420.611 -2.11545 -3.85923 0
M  V30 4543 H 417.73 -0.472769 -0.565383 0
M  V30 4544 H 420.372 -1.66341 -0.918192 0
M  V30 4545 H 418.522 -1.90139 -3.38791 0
M  V30 4546 H 420.194 -4.13682 -2.04121 0
M  V30 4547 H 418.437 -3.92042 -1.85704 0
M  V30 4548 H 419.108 -4.31511 -3.44242 0
M  V30 4549 H 421.584 -2.38855 -3.40716 0
M  V30 4550 H 420.46 -2.77688 -4.73477 0
M  V30 4551 H 420.721 -1.09987 -4.282 0
M  V30 4552 N 419.78 1.02168 -1.19998 0
M  V30 4553 C 421.028 1.75338 -1.00504 0
M  V30 4554 C 421.349 1.89387 0.464506 0
M  V30 4555 O 420.619 1.43268 1.33608 0
M  V30 4556 H 419.199 0.649564 -0.368885 0
M  V30 4557 H 421.861 1.23205 -1.51018 0
M  V30 4558 H 420.957 2.75892 -1.45912 0
M  V30 4559 N 421.258 1.00505 1.21394 0
M  V30 4560 C 422.486 0.706609 1.9446 0
M  V30 4561 C 422.901 -0.73081 1.74082 0
M  V30 4562 O 422.258 -1.49446 1.04747 0
M  V30 4563 C 422.309 1.01824 3.46863 0
M  V30 4564 O 422.03 2.39919 3.66566 0
M  V30 4565 C 423.531 0.739216 4.37093 0
M  V30 4566 H 420.751 0.260394 0.618414 0
M  V30 4567 H 423.295 1.34311 1.54211 0
M  V30 4568 H 421.45 0.427343 3.85036 0
M  V30 4569 H 421.864 2.50784 4.6066 0
M  V30 4570 H 423.338 1.00744 5.42729 0
M  V30 4571 H 423.815 -0.326746 4.37983 0
M  V30 4572 H 424.421 1.31173 4.04566 0
M  V30 4573 N 422.737 -1.36956 0.779787 0
M  V30 4574 C 423.967 -2.03459 0.358877 0
M  V30 4575 C 424.375 -1.58939 -1.02641 0
M  V30 4576 O 423.718 -0.769777 -1.66794 0
M  V30 4577 C 423.78 -3.5796 0.332393 0
M  V30 4578 C 423.444 -4.25644 1.66362 0
M  V30 4579 C 424.441 -4.49205 2.61746 0
M  V30 4580 C 422.126 -4.63313 1.94027 0
M  V30 4581 C 424.12 -5.09503 3.82996 0
M  V30 4582 C 421.807 -5.2333 3.15546 0
M  V30 4583 C 422.805 -5.46363 4.0985 0
M  V30 4584 O 422.493 -6.05122 5.29228 0
M  V30 4585 H 422.225 -0.659767 0.147254 0
M  V30 4586 H 424.779 -1.76111 1.05708 0
M  V30 4587 H 423.009 -3.84388 -0.422237 0
M  V30 4588 H 424.698 -4.05852 -0.0625389 0
M  V30 4589 H 425.464 -4.20508 2.41657 0
M  V30 4590 H 421.343 -4.44715 1.21448 0
M  V30 4591 H 424.887 -5.27397 4.56617 0
M  V30 4592 H 420.784 -5.51451 3.35517 0
M  V30 4593 H 421.552 -6.23595 5.30161 0
M  V30 4594 N 424.215 -0.530993 -1.48385 0
M  V30 4595 C 425.44 0.000729535 -2.074 0
M  V30 4596 C 425.865 1.27298 -1.3848 0
M  V30 4597 O 425.223 1.75599 -0.451081 0
M  V30 4598 C 425.271 0.206697 -3.60007 0
M  V30 4599 O 424.375 1.27514 -3.92191 0
M  V30 4600 H 423.716 -0.039583 -0.662819 0
M  V30 4601 H 426.246 -0.739194 -1.9078 0
M  V30 4602 H 426.256 0.42904 -4.05738 0
M  V30 4603 H 424.931 -0.722675 -4.09573 0
M  V30 4604 H 423.508 1.03537 -3.58238 0
M  V30 4605 N 425.693 1.55336 -0.266172 0
M  V30 4606 C 426.64 2.22172 0.625165 0
M  V30 4607 C 427.61 1.19211 1.15663 0
M  V30 4608 O 428.795 1.47723 1.20758 0
M  V30 4609 C 425.935 2.93972 1.8076 0
M  V30 4610 C 425.048 4.11632 1.31084 0
M  V30 4611 C 424.183 4.71099 2.45436 0
M  V30 4612 C 423.222 5.8097 1.92718 0
M  V30 4613 N 422.359 6.34538 3.00509 0
M  V30 4614 H 427.199 2.9796 0.0485582 0
M  V30 4615 H 424.736 1.47095 0.0122024 0
M  V30 4616 H 426.694 3.33811 2.50251 0
M  V30 4617 H 425.324 2.20623 2.35638 0
M  V30 4618 H 424.376 3.76975 0.509326 0
M  V30 4619 H 425.688 4.90893 0.884633 0
M  V30 4620 H 424.842 5.13612 3.22936 0
M  V30 4621 H 423.581 3.91096 2.91368 0
M  V30 4622 H 422.586 5.37916 1.13695 0
M  V30 4623 H 423.811 6.62836 1.47733 0
M  V30 4624 H 421.757 5.57433 3.45839 0
M  V30 4625 H 421.674 7.09046 2.62279 0
M  V30 4626 H 422.942 6.81709 3.78011 0
M  V30 4627 N 427.171 -0.0066808 1.57599 0
M  V30 4628 C 428.42 -0.692078 1.89455 0
M  V30 4629 C 428.733 -1.75306 0.867586 0
M  V30 4630 O 429.939 -2.49262 1.07614 0
M  V30 4631 C 428.395 -1.2821 3.36289 0
M  V30 4632 C 428.003 -0.256291 4.47266 0
M  V30 4633 C 429.747 -1.94608 3.77264 0
M  V30 4634 C 427.654 -0.855927 5.85173 0
M  V30 4635 H 426.584 -0.262252 0.706923 0
M  V30 4636 H 429.235 0.052769 1.83424 0
M  V30 4637 H 427.617 -2.0774 3.37135 0
M  V30 4638 H 428.791 0.513923 4.57925 0
M  V30 4639 H 427.106 0.306862 4.15268 0
M  V30 4640 H 429.703 -2.40364 4.77629 0
M  V30 4641 H 430.046 -2.77382 3.10427 0
M  V30 4642 H 430.579 -1.21822 3.78688 0
M  V30 4643 H 427.318 -0.0671161 6.55466 0
M  V30 4644 H 426.838 -1.59546 5.78191 0
M  V30 4645 H 428.517 -1.35658 6.32618 0
M  V30 4646 N 428.649 -1.55105 -0.279332 0
M  V30 4647 C 429.582 -1.82467 -1.37044 0
M  V30 4648 C 430.56 -0.677261 -1.47824 0
M  V30 4649 O 431.744 -0.919578 -1.64548 0
M  V30 4650 C 428.871 -1.98066 -2.7475 0
M  V30 4651 C 427.917 -3.20594 -2.81286 0
M  V30 4652 S 428.75 -4.78116 -2.41175 0
M  V30 4653 C 429.906 -4.9668 -3.80867 0
M  V30 4654 H 430.139 -2.74728 -1.1363 0
M  V30 4655 H 427.672 -1.46794 -0.478625 0
M  V30 4656 H 429.63 -2.07739 -3.54055 0
M  V30 4657 H 428.291 -1.06704 -2.9542 0
M  V30 4658 H 427.484 -3.28376 -3.82341 0
M  V30 4659 H 427.086 -3.09479 -2.09996 0
M  V30 4660 H 429.378 -4.82033 -4.76078 0
M  V30 4661 H 430.321 -5.98741 -3.78041 0
M  V30 4662 H 430.729 -4.24698 -3.71876 0
M  V30 4663 N 430.127 0.543554 -1.4793 0
M  V30 4664 C 431.075 1.67039 -1.61866 0
M  V30 4665 C 432.069 1.62294 -0.48549 0
M  V30 4666 O 433.275 1.67315 -0.66376 0
M  V30 4667 H 429.65 0.552954 -0.509652 0
M  V30 4668 H 431.621 1.52426 -2.56533 0
M  V30 4669 C 430.37 3.05357 -1.6629 0
M  V30 4670 H 429.693 3.09696 -2.5284 0
M  V30 4671 H 431.133 3.83855 -1.80088 0
M  V30 4672 C 429.592 3.34531 -0.398861 0
M  V30 4673 O 430.122 3.98649 0.494162 0
M  V30 4674 N 428.328 2.89299 -0.2747 0
M  V30 4675 H 427.875 2.37298 -1.00236 0
M  V30 4676 H 427.833 3.09188 0.570075 0
M  V30 4677 N 431.605 1.3629 0.791371 0
M  V30 4678 C 432.555 1.26988 1.89362 0
M  V30 4679 C 433.539 0.161795 1.60084 0
M  V30 4680 O 434.731 0.394426 1.72549 0
M  V30 4681 C 431.86 1.05944 3.26544 0
M  V30 4682 C 430.946 2.21211 3.61838 0
M  V30 4683 N 431.337 3.46518 3.68455 0
M  V30 4684 C 429.635 2.12933 3.91887 0
M  V30 4685 C 430.336 4.2241 3.99931 0
M  V30 4686 N 429.312 3.51329 4.14812 0
M  V30 4687 H 433.114 2.21908 1.92702 0
M  V30 4688 H 430.628 1.28982 0.986787 0
M  V30 4689 H 432.625 0.973666 4.05371 0
M  V30 4690 H 431.285 0.119223 3.24481 0
M  V30 4691 H 432.296 3.80677 3.51148 0
M  V30 4692 H 428.973 1.26855 3.97761 0
M  V30 4693 H 430.363 5.30767 4.1199 0
M  V30 4694 N 433.083 -1.0153 1.20538 0
M  V30 4695 C 434.03 -2.10098 0.955383 0
M  V30 4696 C 435 -1.65702 -0.114878 0
M  V30 4697 O 436.185 -1.90776 0.0301118 0
M  V30 4698 C 433.325 -3.41236 0.514969 0
M  V30 4699 C 432.438 -3.99102 1.65353 0
M  V30 4700 C 431.573 -5.18306 1.16329 0
M  V30 4701 C 430.612 -5.68258 2.27485 0
M  V30 4702 N 429.749 -6.78722 1.7967 0
M  V30 4703 H 434.589 -2.30818 1.88486 0
M  V30 4704 H 432.126 -1.13189 0.939499 0
M  V30 4705 H 434.084 -4.16504 0.240935 0
M  V30 4706 H 432.714 -3.20585 -0.377512 0
M  V30 4707 H 431.766 -3.20918 2.04245 0
M  V30 4708 H 433.078 -4.32177 2.49047 0
M  V30 4709 H 432.232 -6.00782 0.845302 0
M  V30 4710 H 430.971 -4.86799 0.296254 0
M  V30 4711 H 429.976 -4.84385 2.60099 0
M  V30 4712 H 431.201 -6.01798 3.14667 0
M  V30 4713 H 429.147 -6.49042 0.95295 0
M  V30 4714 H 429.064 -7.10996 2.56944 0
M  V30 4715 H 430.332 -7.64759 1.50875 0
M  V30 4716 N 434.561 -1.01147 -1.20859 0
M  V30 4717 C 435.509 -0.57059 -2.25493 0
M  V30 4718 C 436.503 0.388109 -1.64894 0
M  V30 4719 O 437.709 0.258592 -1.78133 0
M  V30 4720 H 434.084 -0.166191 -0.733406 0
M  V30 4721 H 436.055 -1.46411 -2.60012 0
M  V30 4722 C 434.804 0.0805241 -3.47607 0
M  V30 4723 H 434.127 -0.648156 -3.94511 0
M  V30 4724 H 435.567 0.352197 -4.22535 0
M  V30 4725 C 434.026 1.32175 -3.09889 0
M  V30 4726 O 434.556 2.41553 -3.20959 0
M  V30 4727 N 432.762 1.20392 -2.64488 0
M  V30 4728 H 432.309 0.313905 -2.5568 0
M  V30 4729 H 432.267 2.03541 -2.39621 0
M  V30 4730 N 436.039 1.36541 -0.78704 0
M  V30 4731 C 437.264 2.0409 -0.369053 0
M  V30 4732 C 437.689 1.58957 1.00569 0
M  V30 4733 O 437.047 0.756926 1.64743 0
M  V30 4734 C 437.095 3.57924 -0.438466 0
M  V30 4735 O 436.199 4.08642 0.555479 0
M  V30 4736 H 435.54 0.645142 -0.157122 0
M  V30 4737 H 438.07 1.74545 -1.06749 0
M  V30 4738 H 438.08 4.06887 -0.301218 0
M  V30 4739 H 436.755 3.90127 -1.44132 0
M  V30 4740 H 435.332 3.70958 0.380088 0
M  V30 4741 N 437.518 0.538854 1.48102 0
M  V30 4742 C 438.448 -0.207654 2.32575 0
M  V30 4743 C 439.429 -0.926559 1.4265 0
M  V30 4744 O 440.614 -0.91061 1.71527 0
M  V30 4745 C 437.744 -1.24957 3.24042 0
M  V30 4746 C 436.698 -0.648263 4.23062 0
M  V30 4747 C 436.024 -1.79348 5.03725 0
M  V30 4748 C 437.324 0.385897 5.20872 0
M  V30 4749 H 439.018 0.497534 2.95237 0
M  V30 4750 H 436.564 0.240715 1.41974 0
M  V30 4751 H 438.517 -1.77983 3.81969 0
M  V30 4752 H 437.241 -1.98446 2.59397 0
M  V30 4753 H 435.9 -0.139452 3.66335 0
M  V30 4754 H 435.548 -2.51696 4.35498 0
M  V30 4755 H 435.248 -1.39702 5.70751 0
M  V30 4756 H 436.772 -2.32735 5.64506 0
M  V30 4757 H 438.186 -0.057607 5.73271 0
M  V30 4758 H 436.583 0.700227 5.96001 0
M  V30 4759 H 437.653 1.28848 4.67468 0
M  V30 4760 N 438.996 -1.55193 0.274407 0
M  V30 4761 C 440.224 -2.03987 -0.345943 0
M  V30 4762 C 440.639 -1.15279 -1.4952 0
M  V30 4763 O 439.996 -0.172759 -1.8168 0
M  V30 4764 C 440.047 -3.51898 -0.827631 0
M  V30 4765 O 439.768 -4.37231 0.275855 0
M  V30 4766 C 441.269 -4.16577 -1.51587 0
M  V30 4767 H 438.489 -0.666335 -0.0789892 0
M  V30 4768 H 441.033 -2.00423 0.406294 0
M  V30 4769 H 439.188 -3.55909 -1.52996 0
M  V30 4770 H 439.602 -5.24415 -0.0943638 0
M  V30 4771 H 441.076 -5.21678 -1.80433 0
M  V30 4772 H 441.553 -3.64707 -2.44716 0
M  V30 4773 H 442.159 -4.16568 -0.857409 0
M  V30 4774 N 440.474 -0.00167713 -1.576 0
M  V30 4775 C 441.721 0.68282 -1.90641 0
M  V30 4776 C 442.049 1.73686 -0.875415 0
M  V30 4777 O 441.304 1.95334 0.119575 0
M  V30 4778 C 441.603 1.36189 -3.30435 0
M  V30 4779 C 441.269 0.440887 -4.48739 0
M  V30 4780 C 439.931 0.187312 -4.80835 0
M  V30 4781 C 442.283 -0.193134 -5.20842 0
M  V30 4782 C 439.611 -0.70855 -5.82406 0
M  V30 4783 C 441.963 -1.07688 -6.23367 0
M  V30 4784 C 440.627 -1.33962 -6.53919 0
M  V30 4785 H 439.897 0.249862 -0.697603 0
M  V30 4786 H 442.544 -0.0575642 -1.91413 0
M  V30 4787 H 440.849 2.17636 -3.25794 0
M  V30 4788 H 442.546 1.89759 -3.5326 0
M  V30 4789 H 439.136 0.648694 -4.23663 0
M  V30 4790 H 443.32 -0.0102445 -4.96299 0
M  V30 4791 H 438.576 -0.920097 -6.04437 0
M  V30 4792 H 442.75 -1.57451 -6.78367 0
M  V30 4793 H 440.377 -2.03549 -7.32442 0
M  V30 4794 N 441.952 1.55251 0.271103 0
M  V30 4795 C 443.363 1.66635 0.842007 0
M  V30 4796 C 443.714 0.594631 1.86972 0
M  V30 4797 O 442.839 -0.263532 2.14789 0
M  V30 4798 C 443.434 3.02082 1.53401 0
M  V30 4799 C 441.993 3.15487 2.05293 0
M  V30 4800 C 441.14 2.62438 0.895631 0
M  V30 4801 H 444.091 1.58629 0.0474117 0
M  V30 4802 H 444.112 2.95176 2.40107 0
M  V30 4803 H 443.624 3.80062 0.785786 0
M  V30 4804 H 441.725 2.42284 2.83071 0
M  V30 4805 H 441.838 4.22075 2.26693 0
M  V30 4806 H 440.202 2.19644 1.28953 0
M  V30 4807 H 440.985 3.42923 0.160878 0
M  V30 4808 N 443.43 -0.535701 1.48216 0
M  V30 4809 C 444.707 -1.29683 1.46429 0
M  V30 4810 C 445.087 -2.10391 0.172852 0
M  V30 4811 O 444.435 -2.12282 -0.845488 0
M  V30 4812 C 444.645 -2.18313 2.72287 0
M  V30 4813 C 445.993 -2.78639 3.20383 0
M  V30 4814 O 447.017 -2.28604 2.73164 0
M  V30 4815 O 445.876 -3.69636 4.02531 0
M  V30 4816 H 442.97 -0.585026 0.584529 0
M  V30 4817 H 445.516 -0.552827 1.60443 0
M  V30 4818 H 444.288 -1.58421 3.57797 0
M  V30 4819 H 443.911 -2.99971 2.60966 0
M  V30 4820 N 444.908 -1.36708 -0.784132 0
M  V30 4821 C 446.185 -1.21776 -1.53069 0
M  V30 4822 C 446.565 0.193876 -2.10208 0
M  V30 4823 O 445.913 1.20012 -1.94446 0
M  V30 4824 C 446.123 -2.30395 -2.62143 0
M  V30 4825 C 447.471 -2.67325 -3.29882 0
M  V30 4826 O 448.495 -2.29478 -2.7243 0
M  V30 4827 O 447.354 -3.32485 -4.33724 0
M  V30 4828 H 444.448 -0.474459 -0.677361 0
M  V30 4829 H 446.994 -1.48454 -0.82216 0
M  V30 4830 H 445.766 -3.2498 -2.17953 0
M  V30 4831 H 445.389 -2.05112 -3.40609 0
M  V30 4832 N 446.386 1.0089 -1.21074 0
M  V30 4833 C 447.334 2.11707 -0.963476 0
M  V30 4834 C 448.328 1.69172 0.0879032 0
M  V30 4835 O 449.534 1.79889 -0.0631415 0
M  V30 4836 H 445.909 0.692026 -0.294287 0
M  V30 4837 H 447.88 2.29743 -1.90422 0
M  V30 4838 C 446.629 3.43473 -0.540509 0
M  V30 4839 H 445.952 3.76634 -1.34114 0
M  V30 4840 H 447.392 4.22044 -0.406777 0
M  V30 4841 C 445.851 3.2849 0.748079 0
M  V30 4842 O 446.381 3.58883 1.8046 0
M  V30 4843 N 444.587 2.81715 0.713081 0
M  V30 4844 H 444.134 2.5718 -0.146973 0
M  V30 4845 H 444.092 2.72071 1.57558 0
M  V30 4846 N 447.864 1.01787 1.20321 0
M  V30 4847 C 449.141 0.622978 1.85414 0
M  V30 4848 C 449.521 -0.898887 1.91006 0
M  V30 4849 O 448.869 -1.79112 1.41884 0
M  V30 4850 C 449.079 1.27226 3.24984 0
M  V30 4851 C 450.427 1.3885 4.01255 0
M  V30 4852 O 451.451 1.22857 3.34342 0
M  V30 4853 O 450.31 1.64705 5.2109 0
M  V30 4854 H 447.404 0.215116 0.798533 0
M  V30 4855 H 449.95 1.11533 1.27901 0
M  V30 4856 H 448.722 2.31209 3.15687 0
M  V30 4857 H 448.345 0.767069 3.90131 0
M  V30 4858 N 449.342 -1.36122 0.79427 0
M  V30 4859 C 450.591 -1.98361 0.365464 0
M  V30 4860 C 450.904 -1.6374 -1.06997 0
M  V30 4861 O 452.11 -2.19251 -1.60129 0
M  V30 4862 C 450.566 -3.54821 0.602496 0
M  V30 4863 C 450.174 -3.98362 2.04967 0
M  V30 4864 C 451.918 -4.2383 0.238437 0
M  V30 4865 C 449.825 -5.47619 2.2331 0
M  V30 4866 H 448.755 -0.742193 0.13291 0
M  V30 4867 H 451.406 -1.55354 0.976589 0
M  V30 4868 H 449.788 -3.95922 -0.078409 0
M  V30 4869 H 450.962 -3.68447 2.76737 0
M  V30 4870 H 449.277 -3.42206 2.37243 0
M  V30 4871 H 451.874 -5.33529 0.353705 0
M  V30 4872 H 452.217 -4.08264 -0.814006 0
M  V30 4873 H 452.75 -3.88108 0.872769 0
M  V30 4874 H 449.489 -5.68138 3.26955 0
M  V30 4875 H 449.009 -5.79145 1.5605 0
M  V30 4876 H 450.688 -6.13911 2.0426 0
M  V30 4877 N 450.82 -0.546701 -1.47814 0
M  V30 4878 C 452.045 -0.021268 -2.07389 0
M  V30 4879 C 452.47 1.25822 -1.39822 0
M  V30 4880 O 451.828 1.75111 -0.46968 0
M  V30 4881 C 451.876 0.168502 -3.60206 0
M  V30 4882 O 450.98 1.23347 -3.93522 0
M  V30 4883 H 450.321 -0.0466108 -0.662362 0
M  V30 4884 H 452.851 -0.759387 -1.89985 0
M  V30 4885 H 452.861 0.385982 -4.0617 0
M  V30 4886 H 451.536 -0.766075 -4.08784 0
M  V30 4887 H 450.113 0.997319 -3.59316 0
M  V30 4888 N 452.299 1.55045 -0.282633 0
M  V30 4889 C 453.246 2.22822 0.601566 0
M  V30 4890 C 454.216 1.20431 1.14392 0
M  V30 4891 O 455.401 1.48996 1.19184 0
M  V30 4892 C 452.541 2.95873 1.77632 0
M  V30 4893 C 451.654 4.12999 1.26711 0
M  V30 4894 C 450.789 4.73676 2.40426 0
M  V30 4895 C 449.828 5.82981 1.86545 0
M  V30 4896 N 448.965 6.3769 2.93762 0
M  V30 4897 H 453.805 2.97995 0.0169528 0
M  V30 4898 H 451.342 1.471 -0.00339964 0
M  V30 4899 H 453.3 3.36447 2.46697 0
M  V30 4900 H 451.93 2.2311 2.33285 0
M  V30 4901 H 450.982 3.77494 0.469314 0
M  V30 4902 H 452.294 4.91803 0.832518 0
M  V30 4903 H 451.448 5.17008 3.17471 0
M  V30 4904 H 450.187 3.94164 2.87203 0
M  V30 4905 H 449.192 5.39092 1.07983 0
M  V30 4906 H 450.417 6.64366 1.40694 0
M  V30 4907 H 448.363 5.61069 3.39908 0
M  V30 4908 H 448.28 7.11788 2.54744 0
M  V30 4909 H 449.548 6.8568 3.7076 0
M  V30 4910 N 453.777 0.010035 1.57597 0
M  V30 4911 C 454.687 -0.994226 2.12491 0
M  V30 4912 C 455.703 -1.37013 1.07254 0
M  V30 4913 O 456.879 -1.45542 1.3921 0
M  V30 4914 C 453.944 -2.2642 2.62555 0
M  V30 4915 C 453.005 -1.95049 3.82432 0
M  V30 4916 C 452.238 -3.15991 4.30099 0
M  V30 4917 O 452.461 -4.28015 3.7704 0
M  V30 4918 O 451.395 -2.99403 5.22151 0
M  V30 4919 H 455.221 -0.557549 2.98538 0
M  V30 4920 H 452.806 -0.209413 1.47925 0
M  V30 4921 H 454.688 -3.01009 2.9491 0
M  V30 4922 H 453.363 -2.69306 1.796 0
M  V30 4923 H 452.27 -1.17904 3.55034 0
M  V30 4924 H 453.603 -1.56992 4.66491 0
M  V30 4925 N 455.255 -1.55392 -0.262866 0
M  V30 4926 C 456.218 -1.88181 -1.30846 0
M  V30 4927 C 457.218 -0.757079 -1.41862 0
M  V30 4928 O 458.408 -1.02519 -1.40838 0
M  V30 4929 C 455.54 -2.09609 -2.68844 0
M  V30 4930 H 456.733 -2.81659 -1.02997 0
M  V30 4931 H 454.286 -1.48039 -0.501414 0
M  V30 4932 H 455.021 -1.18547 -3.01856 0
M  V30 4933 H 454.806 -2.91508 -2.62231 0
M  V30 4934 H 456.296 -2.36215 -3.44372 0
M  V30 4935 N 456.733 0.527833 -1.48498 0
M  V30 4936 C 457.68 1.6322 -1.6318 0
M  V30 4937 C 458.65 1.59199 -0.473815 0
M  V30 4938 O 459.835 1.77591 -0.697563 0
M  V30 4939 C 456.975 3.01474 -1.67951 0
M  V30 4940 C 456.088 3.15713 -2.94871 0
M  V30 4941 C 455.223 4.44539 -2.90789 0
M  V30 4942 C 454.262 4.52315 -4.12404 0
M  V30 4943 N 453.399 5.72533 -4.06387 0
M  V30 4944 H 458.239 1.50011 -2.57489 0
M  V30 4945 H 455.776 0.730298 -1.27691 0
M  V30 4946 H 457.734 3.81572 -1.68698 0
M  V30 4947 H 456.364 3.1345 -0.771306 0
M  V30 4948 H 455.416 2.28854 -3.03859 0
M  V30 4949 H 456.728 3.1732 -3.8485 0
M  V30 4950 H 455.882 5.3293 -2.89949 0
M  V30 4951 H 454.621 4.45457 -1.98542 0
M  V30 4952 H 453.626 3.62331 -4.13517 0
M  V30 4953 H 454.851 4.53134 -5.05812 0
M  V30 4954 H 452.797 5.74344 -3.16962 0
M  V30 4955 H 452.714 5.75643 -4.90073 0
M  V30 4956 H 453.982 6.63204 -4.0961 0
M  V30 4957 N 458.211 1.37122 0.776871 0
M  V30 4958 C 459.159 1.32549 1.91138 0
M  V30 4959 C 460.153 0.215119 1.68029 0
M  V30 4960 O 461.359 0.382852 1.75881 0
M  V30 4961 H 457.734 0.412952 0.62847 0
M  V30 4962 H 459.705 2.28332 1.92112 0
M  V30 4963 C 458.454 1.14422 3.28333 0
M  V30 4964 H 457.777 1.99115 3.46689 0
M  V30 4965 H 459.217 1.15272 4.0803 0
M  V30 4966 C 457.676 -0.150434 3.36564 0
M  V30 4967 O 458.206 -1.13584 3.85307 0
M  V30 4968 N 456.412 -0.19939 2.89915 0
M  V30 4969 H 455.959 0.603142 2.5044 0
M  V30 4970 H 455.917 -1.06526 2.95803 0
M  V30 4971 N 459.689 -1.00246 1.21608 0
M  V30 4972 C 460.619 -2.10921 1.00172 0
M  V30 4973 C 461.6 -1.69938 -0.0741587 0
M  V30 4974 O 462.785 -1.94009 0.0861753 0
M  V30 4975 C 459.915 -3.42618 0.568355 0
M  V30 4976 C 458.869 -3.97407 1.58909 0
M  V30 4977 C 458.195 -5.25038 1.01187 0
M  V30 4978 C 459.495 -4.2918 2.97661 0
M  V30 4979 H 461.189 -2.29112 1.92739 0
M  V30 4980 H 458.735 -1.10101 0.928102 0
M  V30 4981 H 460.688 -4.19444 0.405555 0
M  V30 4982 H 459.412 -3.24227 -0.392961 0
M  V30 4983 H 458.071 -3.22703 1.73949 0
M  V30 4984 H 457.719 -5.02982 0.0421965 0
M  V30 4985 H 457.419 -5.62661 1.6937 0
M  V30 4986 H 458.943 -6.04507 0.860448 0
M  V30 4987 H 460.357 -4.96839 2.86049 0
M  V30 4988 H 458.754 -4.77952 3.6288 0
M  V30 4989 H 459.824 -3.3735 3.48315 0
M  V30 4990 N 461.167 -1.02423 -1.1978 0
M  V30 4991 C 462.416 -0.713265 -1.88667 0
M  V30 4992 C 462.729 0.7609 -1.80193 0
M  V30 4993 O 463.935 1.18473 -2.44288 0
M  V30 4994 C 462.391 -1.22545 -3.38394 0
M  V30 4995 C 461.999 -2.72706 -3.55437 0
M  V30 4996 C 463.743 -0.990257 -4.12788 0
M  V30 4997 C 461.65 -3.17367 -4.99031 0
M  V30 4998 H 460.58 -0.263105 -0.706606 0
M  V30 4999 H 463.231 -1.23792 -1.35454 0
M  V30 5000 H 461.613 -0.628732 -3.90977 0
M  V30 5001 H 462.787 -3.37993 -3.13205 0
M  V30 5002 H 461.102 -2.94453 -2.94425 0
M  V30 5003 H 463.699 -1.29926 -5.18675 0
M  V30 5004 H 464.042 0.0730761 -4.16236 0
M  V30 5005 H 464.575 -1.55074 -3.66329 0
M  V30 5006 H 461.314 -4.23009 -5.00743 0
M  V30 5007 H 460.834 -2.56805 -5.42044 0
M  V30 5008 H 462.513 -3.10441 -5.67658 0
M  V30 5009 N 462.645 1.35699 -0.801477 0
M  V30 5010 C 463.885 2.00741 -0.385027 0
M  V30 5011 C 464.249 1.62213 1.02718 0
M  V30 5012 O 465.45 2.19936 1.54537 0
M  V30 5013 C 463.721 3.53032 -0.557057 0
M  V30 5014 S 465.28 4.38195 -0.230272 0
M  V30 5015 H 462.098 0.695748 -0.146477 0
M  V30 5016 H 464.7 1.65378 -1.04261 0
M  V30 5017 H 463.404 3.7856 -1.58494 0
M  V30 5018 H 462.935 3.93229 0.116029 0
M  V30 5019 H 464.95 4.86748 0.963895 0
M  V30 5020 N 464.123 0.554532 1.47522 0
M  V30 5021 C 465.086 -0.184174 2.28459 0
M  V30 5022 C 466.086 -0.845195 1.36796 0
M  V30 5023 O 467.276 -0.701467 1.59452 0
M  V30 5024 C 464.408 -1.26903 3.16399 0
M  V30 5025 H 465.601 0.526751 2.95238 0
M  V30 5026 H 463.154 0.311375 1.53167 0
M  V30 5027 H 463.889 -2.01244 2.54306 0
M  V30 5028 H 463.674 -0.799883 3.83854 0
M  V30 5029 H 465.164 -1.78794 3.77389 0
M  V30 5030 N 465.601 -1.54893 0.290851 0
M  V30 5031 C 466.848 -1.99933 -0.321391 0
M  V30 5032 C 467.176 -1.17927 -1.54672 0
M  V30 5033 O 466.431 -0.240902 -1.94212 0
M  V30 5034 C 466.73 -3.49815 -0.732397 0
M  V30 5035 C 466.396 -4.4921 0.390056 0
M  V30 5036 C 465.058 -4.76107 0.698223 0
M  V30 5037 C 467.41 -5.08453 1.14562 0
M  V30 5038 C 464.738 -5.59514 1.76526 0
M  V30 5039 C 467.09 -5.9302 2.2025 0
M  V30 5040 C 465.754 -6.18232 2.51684 0
M  V30 5041 H 465.024 -0.731608 -0.117605 0
M  V30 5042 H 467.671 -1.87107 0.407839 0
M  V30 5043 H 465.976 -3.60199 -1.54155 0
M  V30 5044 H 467.673 -3.82083 -1.21712 0
M  V30 5045 H 464.263 -4.28372 0.13976 0
M  V30 5046 H 468.447 -4.87683 0.920801 0
M  V30 5047 H 463.703 -5.77289 2.01364 0
M  V30 5048 H 467.877 -6.37955 2.7926 0
M  V30 5049 H 465.504 -6.82653 3.34499 0
M  V30 5050 N 467.08 -0.0183926 -1.57589 0
M  V30 5051 C 468.01 0.965596 -2.12599 0
M  V30 5052 C 468.991 1.34641 -1.0395 0
M  V30 5053 O 470.176 1.42693 -1.31729 0
M  V30 5054 C 467.306 2.25149 -2.64434 0
M  V30 5055 C 466.26 2.01175 -3.77773 0
M  V30 5056 C 465.586 3.35937 -4.15994 0
M  V30 5057 C 466.886 1.35953 -5.04296 0
M  V30 5058 H 468.58 0.507504 -2.95067 0
M  V30 5059 H 466.126 0.242671 -1.41941 0
M  V30 5060 H 468.079 2.94357 -3.01549 0
M  V30 5061 H 466.803 2.73105 -1.79112 0
M  V30 5062 H 465.462 1.34388 -3.4108 0
M  V30 5063 H 465.11 3.81631 -3.27669 0
M  V30 5064 H 464.81 3.20705 -4.92364 0
M  V30 5065 H 466.334 4.0643 -4.55683 0
M  V30 5066 H 467.748 1.95144 -5.39065 0
M  V30 5067 H 466.145 1.31152 -5.85593 0
M  V30 5068 H 467.215 0.331071 -4.83768 0
M  V30 5069 N 468.558 1.5553 0.254621 0
M  V30 5070 C 469.786 1.81046 1.00149 0
M  V30 5071 C 470.201 0.593047 1.79244 0
M  V30 5072 O 469.558 -0.438196 1.77161 0
M  V30 5073 C 469.609 3.04684 1.94551 0
M  V30 5074 O 469.33 4.21725 1.18658 0
M  V30 5075 C 470.831 3.42943 2.80901 0
M  V30 5076 H 468.051 0.602653 0.295044 0
M  V30 5077 H 470.595 2.02576 0.279842 0
M  V30 5078 H 468.75 2.85226 2.62154 0
M  V30 5079 H 469.164 4.91746 1.82445 0
M  V30 5080 H 470.638 4.32576 3.42902 0
M  V30 5081 H 471.115 2.63176 3.51617 0
M  V30 5082 H 471.721 3.64724 2.18762 0
M  V30 5083 N 470.036 -0.519951 1.48776 0
M  V30 5084 C 471.313 -1.28123 1.47797 0
M  V30 5085 C 471.693 -2.10196 0.195157 0
M  V30 5086 O 471.041 -2.13167 -0.822925 0
M  V30 5087 C 471.251 -2.15413 2.74587 0
M  V30 5088 C 472.599 -2.75225 3.23321 0
M  V30 5089 O 473.623 -2.25694 2.75574 0
M  V30 5090 O 472.482 -3.65346 4.06429 0
M  V30 5091 H 469.576 -0.578793 0.590701 0
M  V30 5092 H 472.122 -0.535779 1.6102 0
M  V30 5093 H 470.894 -1.54617 3.59457 0
M  V30 5094 H 470.517 -2.97186 2.64132 0
M  V30 5095 N 471.514 -1.37532 -0.769588 0
M  V30 5096 C 472.93 -1.18379 -1.07045 0
M  V30 5097 C 473.13 -0.0214312 -2.01489 0
M  V30 5098 O 472.186 0.637809 -2.44312 0
M  V30 5099 C 473.499 -2.50338 -1.66588 0
M  V30 5100 C 475.047 -2.56879 -1.78835 0
M  V30 5101 C 475.522 -3.88974 -2.41792 0
M  V30 5102 N 477.013 -3.90428 -2.4924 0
M  V30 5103 C 477.748 -4.89388 -2.98809 0
M  V30 5104 N 477.244 -5.98745 -3.48535 0
M  V30 5105 N 479.037 -4.76791 -2.97703 0
M  V30 5106 H 471.188 -2.11921 -0.142541 0
M  V30 5107 H 473.451 -0.939608 -0.125863 0
M  V30 5108 H 473.157 -3.35767 -1.0466 0
M  V30 5109 H 473.031 -2.67583 -2.65856 0
M  V30 5110 H 475.418 -1.71856 -2.39895 0
M  V30 5111 H 475.499 -2.43516 -0.783166 0
M  V30 5112 H 475.143 -4.74412 -1.81371 0
M  V30 5113 H 475.073 -3.99641 -3.4292 0
M  V30 5114 H 477.564 -3.11433 -2.14052 0
M  V30 5115 H 477.877 -6.70205 -3.84767 0
M  V30 5116 H 476.222 -6.02387 -3.46634 0
M  V30 5117 H 479.413 -3.90478 -2.58157 0
M  V30 5118 H 479.586 -5.54069 -3.36024 0
M  V30 5119 N 472.992 0.995999 -1.22138 0
M  V30 5120 C 473.902 2.11985 -1.00496 0
M  V30 5121 C 474.918 1.7394 0.0457701 0
M  V30 5122 O 476.094 2.00868 -0.146273 0
M  V30 5123 C 473.159 3.41779 -0.582086 0
M  V30 5124 C 472.22 3.93943 -1.70608 0
M  V30 5125 C 471.453 5.17542 -1.30328 0
M  V30 5126 O 471.676 5.70114 -0.180743 0
M  V30 5127 O 470.61 5.63382 -2.11861 0
M  V30 5128 H 474.436 2.33123 -1.94647 0
M  V30 5129 H 472.021 1.10358 -1.00705 0
M  V30 5130 H 473.903 4.1989 -0.356467 0
M  V30 5131 H 472.578 3.22007 0.330592 0
M  V30 5132 H 471.485 3.17019 -1.98619 0
M  V30 5133 H 472.818 4.18141 -2.59651 0
M  V30 5134 N 474.47 1.03057 1.19235 0
M  V30 5135 C 475.716 0.729098 1.89241 0
M  V30 5136 C 476.049 -0.740573 1.79525 0
M  V30 5137 O 475.324 -1.53946 1.18874 0
M  V30 5138 C 475.607 1.18304 3.40112 0
M  V30 5139 C 475.46 2.71406 3.5869 0
M  V30 5140 C 476.779 0.765161 4.33397 0
M  V30 5141 H 473.898 0.266338 0.687192 0
M  V30 5142 H 476.54 1.28079 1.40341 0
M  V30 5143 H 474.69 0.713672 3.81889 0
M  V30 5144 H 476.362 3.26303 3.26074 0
M  V30 5145 H 474.605 3.11717 3.01687 0
M  V30 5146 H 475.276 2.98225 4.64506 0
M  V30 5147 H 477.752 1.16889 3.99345 0
M  V30 5148 H 476.628 1.11065 5.37546 0
M  V30 5149 H 476.889 -0.332372 4.40849 0
M  V30 5150 N 475.948 -1.35272 0.808662 0
M  V30 5151 C 477.364 -1.51806 0.492653 0
M  V30 5152 C 477.564 -1.7574 -0.985778 0
M  V30 5153 O 476.62 -1.80003 -1.77074 0
M  V30 5154 C 477.933 -2.69202 1.33981 0
M  V30 5155 C 479.481 -2.8308 1.33547 0
M  V30 5156 C 479.956 -4.03502 2.16679 0
M  V30 5157 N 481.447 -4.10684 2.14227 0
M  V30 5158 C 482.182 -5.02984 2.75308 0
M  V30 5159 N 481.678 -6.00603 3.45323 0
M  V30 5160 N 483.471 -4.95746 2.64938 0
M  V30 5161 H 475.622 -1.17993 1.76611 0
M  V30 5162 H 477.885 -0.577476 0.751814 0
M  V30 5163 H 477.591 -2.581 2.38909 0
M  V30 5164 H 477.465 -3.63854 0.994491 0
M  V30 5165 H 479.852 -2.93631 0.294036 0
M  V30 5166 H 479.933 -1.89278 1.72068 0
M  V30 5167 H 479.577 -3.93711 3.20864 0
M  V30 5168 H 479.507 -4.96489 1.75517 0
M  V30 5169 H 481.998 -3.40802 1.63285 0
M  V30 5170 H 482.311 -6.67633 3.89212 0
M  V30 5171 H 480.656 -6.0077 3.49428 0
M  V30 5172 H 483.847 -4.18439 2.09825 0
M  V30 5173 H 484.02 -5.67487 3.12829 0
M  V30 5174 N 477.426 -0.562348 -1.47226 0
M  V30 5175 C 478.356 0.170627 -2.32876 0
M  V30 5176 C 479.337 0.903748 -1.44106 0
M  V30 5177 O 480.522 0.883206 -1.72954 0
M  V30 5178 C 477.652 1.19786 -3.25989 0
M  V30 5179 C 476.606 0.580875 -4.2404 0
M  V30 5180 C 475.932 1.71311 -5.06514 0
M  V30 5181 C 477.232 -0.468714 -5.20193 0
M  V30 5182 H 478.926 -0.544441 -2.94408 0
M  V30 5183 H 476.472 -0.263271 -1.41573 0
M  V30 5184 H 478.425 1.71884 -3.84752 0
M  V30 5185 H 477.149 1.94294 -2.62521 0
M  V30 5186 H 475.808 0.0811538 -3.6651 0
M  V30 5187 H 475.456 2.44736 -4.39447 0
M  V30 5188 H 475.156 1.30604 -5.72902 0
M  V30 5189 H 476.68 2.23725 -5.68137 0
M  V30 5190 H 478.094 -0.0336028 -5.7329 0
M  V30 5191 H 476.491 -0.794957 -5.94811 0
M  V30 5192 H 477.561 -1.36269 -4.65359 0
M  V30 5193 N 478.904 1.54736 -0.299062 0
M  V30 5194 C 480.152 1.99706 0.31017 0
M  V30 5195 C 480.473 1.18896 1.54559 0
M  V30 5196 O 479.743 0.284445 1.93824 0
M  V30 5197 H 478.323 0.737686 0.117596 0
M  V30 5198 H 480.985 1.9054 -0.409943 0
M  V30 5199 H 480.081 3.06596 0.58355 0
M  V30 5200 N 480.382 0.0267497 1.57577 0
M  V30 5201 C 481.798 -0.32962 1.56159 0
M  V30 5202 C 481.998 -1.73059 1.03213 0
M  V30 5203 O 481.054 -2.43233 0.677804 0
M  V30 5204 C 482.367 -0.18039 3.00158 0
M  V30 5205 C 483.915 -0.253334 3.11973 0
M  V30 5206 C 484.39 -0.132921 4.57807 0
M  V30 5207 N 485.881 -0.189979 4.6281 0
M  V30 5208 C 486.616 -0.120554 5.73273 0
M  V30 5209 N 486.112 -0.000180315 6.928 0
M  V30 5210 N 487.905 -0.174369 5.61829 0
M  V30 5211 H 480.056 0.942896 1.90324 0
M  V30 5212 H 482.319 0.3639 0.875375 0
M  V30 5213 H 482.025 0.784576 3.42837 0
M  V30 5214 H 481.899 -0.951565 3.65 0
M  V30 5215 H 484.286 -1.20876 2.69208 0
M  V30 5216 H 484.367 0.548177 2.49857 0
M  V30 5217 H 484.011 0.819073 5.01252 0
M  V30 5218 H 483.941 -0.953264 5.179 0
M  V30 5219 H 486.432 -0.283257 3.76837 0
M  V30 5220 H 486.745 0.0461666 7.72786 0
M  V30 5221 H 485.09 0.034569 6.94991 0
M  V30 5222 H 488.281 -0.266794 4.67339 0
M  V30 5223 H 488.454 -0.116802 6.47895 0
M  V30 5224 N 481.861 -1.55662 -0.24637 0
M  V30 5225 C 482.809 -1.91186 -1.3248 0
M  V30 5226 C 483.803 -0.790996 -1.49799 0
M  V30 5227 O 485.009 -0.975617 -1.51267 0
M  V30 5228 H 481.384 -0.607207 -0.443626 0
M  V30 5229 H 483.355 -2.81221 -0.997853 0
M  V30 5230 C 482.104 -2.22349 -2.67313 0
M  V30 5231 H 481.427 -3.08097 -2.54786 0
M  V30 5232 H 482.867 -2.51107 -3.41645 0
M  V30 5233 C 481.326 -1.04001 -3.20446 0
M  V30 5234 O 481.856 -0.28828 -4.00664 0
M  V30 5235 N 480.062 -0.830494 -2.7848 0
M  V30 5236 H 479.609 -1.4435 -2.13356 0
M  V30 5237 H 479.567 -0.0403258 -3.14374 0
M  V30 5238 N 483.339 0.512053 -1.4905 0
M  V30 5239 C 484.587 1.26436 -1.57665 0
M  V30 5240 C 484.908 1.93255 -0.260293 0
M  V30 5241 O 484.178 1.82206 0.719564 0
M  V30 5242 H 482.758 0.469658 -0.580888 0
M  V30 5243 H 485.42 0.594398 -1.85615 0
M  V30 5244 H 484.516 2.03417 -2.36702 0
M  V30 5245 N 484.817 1.37938 0.762283 0
M  V30 5246 C 486.063 1.33866 1.52341 0
M  V30 5247 C 486.396 -0.0738961 1.94059 0
M  V30 5248 O 485.671 -1.03326 1.64785 0
M  V30 5249 C 485.954 2.28644 2.78197 0
M  V30 5250 C 485.807 3.78722 2.42672 0
M  V30 5251 C 487.126 2.21702 3.80179 0
M  V30 5252 H 484.245 0.487593 0.55265 0
M  V30 5253 H 486.887 1.68717 0.873767 0
M  V30 5254 H 485.037 1.99055 3.33631 0
M  V30 5255 H 486.709 4.18948 1.93081 0
M  V30 5256 H 484.952 3.96827 1.75244 0
M  V30 5257 H 485.623 4.40486 3.3268 0
M  V30 5258 H 488.099 2.47805 3.34263 0
M  V30 5259 H 486.975 2.90143 4.65949 0
M  V30 5260 H 487.236 1.21301 4.25133 0
M  V30 5261 N 486.295 -0.989507 1.22664 0
M  V30 5262 C 487.205 -2.11449 1.01619 0
M  V30 5263 C 488.221 -1.73962 -0.036545 0
M  V30 5264 O 489.397 -2.00788 0.156924 0
M  V30 5265 C 486.462 -3.41465 0.600204 0
M  V30 5266 C 485.523 -3.93033 1.72695 0
M  V30 5267 C 484.756 -5.16844 1.33071 0
M  V30 5268 O 484.979 -5.7001 0.210975 0
M  V30 5269 O 483.913 -5.6225 2.14845 0
M  V30 5270 H 487.739 -2.32088 1.9588 0
M  V30 5271 H 485.324 -1.09823 1.01289 0
M  V30 5272 H 487.206 -4.19695 0.37873 0
M  V30 5273 H 485.881 -3.22178 -0.313511 0
M  V30 5274 H 484.788 -3.15961 2.00298 0
M  V30 5275 H 486.121 -4.16758 2.61865 0
M  V30 5276 N 487.773 -1.03688 -1.18687 0
M  V30 5277 C 488.683 -0.634908 -2.25845 0
M  V30 5278 C 489.699 0.337065 -1.70704 0
M  V30 5279 O 490.875 0.192943 -2.00474 0
M  V30 5280 C 487.94 -0.000180054 -3.467 0
M  V30 5281 C 487.001 -1.02067 -4.1699 0
M  V30 5282 C 486.234 -0.41614 -5.32075 0
M  V30 5283 O 486.457 0.778712 -5.65059 0
M  V30 5284 O 485.391 -1.14296 -5.90948 0
M  V30 5285 H 489.217 -1.52757 -2.62486 0
M  V30 5286 H 486.802 -0.807533 -1.25695 0
M  V30 5287 H 488.684 0.353342 -4.19916 0
M  V30 5288 H 487.359 0.866367 -3.11891 0
M  V30 5289 H 486.266 -1.42592 -3.45859 0
M  V30 5290 H 487.599 -1.85786 -4.5579 0
M  V30 5291 N 489.251 1.34841 -0.815825 0
M  V30 5292 C 490.5 1.97755 -0.396976 0
M  V30 5293 C 490.813 1.65422 1.04379 0
M  V30 5294 O 492.019 2.21771 1.5662 0
M  V30 5295 C 490.475 3.53818 -0.658869 0
M  V30 5296 C 490.083 3.95051 -2.11278 0
M  V30 5297 C 491.827 4.23397 -0.305834 0
M  V30 5298 C 489.734 5.43997 -2.31994 0
M  V30 5299 H 488.664 0.739985 -0.1447 0
M  V30 5300 H 491.315 1.53781 -1.00118 0
M  V30 5301 H 489.697 3.95997 0.0154112 0
M  V30 5302 H 490.871 3.63998 -2.82564 0
M  V30 5303 H 489.186 3.38388 -2.42657 0
M  V30 5304 H 491.783 5.32899 -0.43854 0
M  V30 5305 H 492.126 4.09508 0.748952 0
M  V30 5306 H 492.659 3.8667 -0.934403 0
M  V30 5307 H 489.398 5.62865 -3.35952 0
M  V30 5308 H 488.918 5.76589 -1.65244 0
M  V30 5309 H 490.597 6.10584 -2.14001 0
M  V30 5310 N 490.729 0.570148 1.46925 0
M  V30 5311 C 491.676 -0.170257 2.30171 0
M  V30 5312 C 492.646 -0.896099 1.39855 0
M  V30 5313 O 493.831 -0.889248 1.68811 0
M  V30 5314 C 490.971 -1.18605 3.24079 0
M  V30 5315 C 490.084 -0.464947 4.29491 0
M  V30 5316 C 489.219 -1.46716 5.10537 0
M  V30 5317 C 488.258 -0.731758 6.0771 0
M  V30 5318 N 487.395 -1.68142 6.81669 0
M  V30 5319 H 492.235 0.545713 2.92961 0
M  V30 5320 H 489.772 0.280938 1.44392 0
M  V30 5321 H 491.73 -1.78771 3.76957 0
M  V30 5322 H 490.36 -1.86989 2.63125 0
M  V30 5323 H 489.412 0.251506 3.79568 0
M  V30 5324 H 490.724 0.110548 4.98677 0
M  V30 5325 H 489.878 -2.14199 5.6763 0
M  V30 5326 H 488.617 -2.07658 4.41282 0
M  V30 5327 H 487.622 -0.0430787 5.49783 0
M  V30 5328 H 488.847 -0.127904 6.7898 0
M  V30 5329 H 486.793 -2.27918 6.15134 0
M  V30 5330 H 486.71 -1.15841 7.47072 0
M  V30 5331 H 487.978 -2.347 7.43328 0
M  V30 5332 N 492.207 -1.54576 0.307264 0
M  V30 5333 C 493.623 -1.59534 -0.0459251 0
M  V30 5334 C 493.823 -1.32414 -1.51884 0
M  V30 5335 O 492.879 -1.1006 -2.27251 0
M  V30 5336 C 494.192 -2.98566 0.357649 0
M  V30 5337 C 495.74 -3.11491 0.306937 0
M  V30 5338 C 496.215 -4.52842 0.685427 0
M  V30 5339 N 497.706 -4.58782 0.638203 0
M  V30 5340 C 498.441 -5.66238 0.903458 0
M  V30 5341 N 497.937 -6.81703 1.23501 0
M  V30 5342 N 499.73 -5.55937 0.830102 0
M  V30 5343 H 491.881 -1.70464 1.26712 0
M  V30 5344 H 494.144 -0.79647 0.514139 0
M  V30 5345 H 493.85 -3.23356 1.38325 0
M  V30 5346 H 493.724 -3.76117 -0.285565 0
M  V30 5347 H 496.111 -2.86446 -0.709424 0
M  V30 5348 H 496.192 -2.36081 0.984861 0
M  V30 5349 H 495.836 -4.78618 1.69963 0
M  V30 5350 H 495.766 -5.26598 -0.0146346 0
M  V30 5351 H 498.257 -3.75849 0.393138 0
M  V30 5352 H 498.57 -7.59582 1.42322 0
M  V30 5353 H 496.915 -6.8324 1.27311 0
M  V30 5354 H 500.106 -4.64608 0.570693 0
M  V30 5355 H 500.279 -6.39597 1.04019 0
M  V30 5356 N 493.685 -0.035106 -1.57561 0
M  V30 5357 C 494.635 0.954034 -2.0708 0
M  V30 5358 C 495.619 1.2818 -0.972558 0
M  V30 5359 O 496.811 1.26691 -1.23606 0
M  V30 5360 C 493.94 2.23442 -2.60631 0
M  V30 5361 C 493.026 1.93475 -3.77396 0
M  V30 5362 N 493.417 1.33802 -4.87781 0
M  V30 5363 C 491.715 2.23434 -3.85996 0
M  V30 5364 C 492.416 1.21103 -5.68954 0
M  V30 5365 N 491.392 1.70855 -5.16052 0
M  V30 5366 H 495.194 0.487731 -2.89825 0
M  V30 5367 H 492.708 0.169759 -1.6151 0
M  V30 5368 H 494.705 2.95183 -2.94402 0
M  V30 5369 H 493.365 2.70693 -1.79319 0
M  V30 5370 H 494.376 1.01227 -5.07911 0
M  V30 5371 H 491.053 2.73317 -3.15601 0
M  V30 5372 H 492.443 0.749105 -6.67711 0
M  V30 5373 N 495.163 1.55791 0.238111 0
M  V30 5374 C 496.093 1.94068 1.29846 0
M  V30 5375 C 497.074 0.806726 1.49753 0
M  V30 5376 O 498.259 1.06772 1.62214 0
M  V30 5377 C 495.389 2.24302 2.65153 0
M  V30 5378 C 494.343 3.40032 2.59927 0
M  V30 5379 C 493.669 3.55829 3.99111 0
M  V30 5380 C 494.969 4.75476 2.16148 0
M  V30 5381 H 496.663 2.82887 0.980563 0
M  V30 5382 H 494.209 1.36105 0.470253 0
M  V30 5383 H 496.162 2.4967 3.39475 0
M  V30 5384 H 494.886 1.32318 2.98596 0
M  V30 5385 H 493.545 3.14687 1.88063 0
M  V30 5386 H 493.193 2.6125 4.29834 0
M  V30 5387 H 492.893 4.3366 3.96501 0
M  V30 5388 H 494.417 3.83528 4.7512 0
M  V30 5389 H 495.831 5.00158 2.80205 0
M  V30 5390 H 494.228 5.56472 2.24631 0
M  V30 5391 H 495.298 4.71946 1.11333 0
M  V30 5392 N 496.642 -0.504142 1.49319 0
M  V30 5393 C 497.889 -1.25846 1.58647 0
M  V30 5394 C 498.217 -1.92592 0.27177 0
M  V30 5395 O 497.472 -1.81167 -0.74007 0
M  V30 5396 C 497.771 -2.35021 2.69258 0
M  V30 5397 C 497.437 -1.85755 4.1086 0
M  V30 5398 C 496.099 -1.72038 4.49395 0
M  V30 5399 C 498.451 -1.48844 4.99495 0
M  V30 5400 C 495.779 -1.19783 5.74342 0
M  V30 5401 C 498.131 -0.980422 6.24956 0
M  V30 5402 C 496.795 -0.829622 6.62324 0
M  V30 5403 H 496.065 -0.460505 0.580531 0
M  V30 5404 H 498.712 -0.559716 1.83138 0
M  V30 5405 H 497.017 -3.10672 2.38726 0
M  V30 5406 H 498.714 -2.93083 2.73685 0
M  V30 5407 H 495.304 -1.9739 3.80441 0
M  V30 5408 H 499.488 -1.5829 4.70381 0
M  V30 5409 H 494.744 -1.06817 6.01997 0
M  V30 5410 H 498.918 -0.685608 6.93017 0
M  V30 5411 H 496.545 -0.42253 7.59025 0
M  V30 5412 N 498.12 -1.38341 -0.754957 0
M  V30 5413 C 499.367 -1.34473 -1.51404 0
M  V30 5414 C 499.695 0.0656458 -1.94389 0
M  V30 5415 O 498.95 1.04244 -1.65625 0
M  V30 5416 C 499.249 -2.2452 -2.78075 0
M  V30 5417 C 498.915 -3.72512 -2.54059 0
M  V30 5418 C 497.577 -4.1284 -2.47218 0
M  V30 5419 C 499.929 -4.66197 -2.33044 0
M  V30 5420 C 497.257 -5.44945 -2.17376 0
M  V30 5421 C 499.609 -5.98558 -2.04723 0
M  V30 5422 C 498.273 -6.37972 -1.96337 0
M  V30 5423 H 497.543 -0.492072 -0.554027 0
M  V30 5424 H 500.19 -1.70687 -0.868223 0
M  V30 5425 H 498.495 -1.81357 -3.473 0
M  V30 5426 H 500.192 -2.18832 -3.36026 0
M  V30 5427 H 496.782 -3.40538 -2.60253 0
M  V30 5428 H 500.966 -4.35888 -2.37309 0
M  V30 5429 H 496.222 -5.74426 -2.09391 0
M  V30 5430 H 500.396 -6.70693 -1.87465 0
M  V30 5431 H 498.023 -7.40258 -1.72978 0
M  V30 5432 N 499.598 0.982988 -1.23187 0
M  V30 5433 C 500.545 2.07491 -1.01075 0
M  V30 5434 C 501.515 1.65949 0.070905 0
M  V30 5435 O 502.7 1.90629 -0.0806822 0
M  V30 5436 C 499.84 3.39751 -0.605261 0
M  V30 5437 C 498.953 3.94578 -1.75876 0
M  V30 5438 C 498.088 5.15039 -1.3003 0
M  V30 5439 C 497.127 5.62027 -2.42472 0
M  V30 5440 N 496.264 6.73719 -1.97602 0
M  V30 5441 H 501.104 2.25739 -1.9454 0
M  V30 5442 H 498.641 1.10659 -0.969179 0
M  V30 5443 H 500.599 4.15719 -0.351279 0
M  V30 5444 H 499.229 3.21473 0.292382 0
M  V30 5445 H 498.281 3.1539 -2.12681 0
M  V30 5446 H 499.593 4.25422 -2.60418 0
M  V30 5447 H 498.747 5.9833 -1.00429 0
M  V30 5448 H 497.486 4.85843 -0.425216 0
M  V30 5449 H 496.491 4.77318 -2.7285 0
M  V30 5450 H 497.716 5.93244 -3.30512 0
M  V30 5451 H 495.662 6.46287 -1.1247 0
M  V30 5452 H 495.579 7.03934 -2.75705 0
M  V30 5453 H 496.847 7.6049 -1.71098 0
M  V30 5454 N 501.076 1.04316 1.18135 0
M  V30 5455 C 502.024 0.630175 2.23901 0
M  V30 5456 C 503.018 -0.344254 1.65865 0
M  V30 5457 O 504.224 -0.211273 1.78756 0
M  V30 5458 H 500.599 0.185578 0.728742 0
M  V30 5459 H 502.57 1.53253 2.56039 0
M  V30 5460 C 501.319 0.011666 3.47698 0
M  V30 5461 H 500.642 0.752526 3.92654 0
M  V30 5462 H 502.082 -0.240046 4.2332 0
M  V30 5463 C 500.541 -1.23913 3.13285 0
M  V30 5464 O 501.071 -2.32959 3.27251 0
M  V30 5465 N 499.277 -1.13338 2.67587 0
M  V30 5466 H 498.824 -0.246006 2.56423 0
M  V30 5467 H 498.782 -1.97116 2.44934 0
M  V30 5468 N 502.554 -1.34406 0.822964 0
M  V30 5469 C 503.831 -1.92733 0.333641 0
M  V30 5470 C 504.211 -1.75107 -1.17901 0
M  V30 5471 O 503.559 -1.12983 -1.98613 0
M  V30 5472 C 503.769 -3.40557 0.763023 0
M  V30 5473 C 505.117 -4.17709 0.761879 0
M  V30 5474 O 506.141 -3.49141 0.705606 0
M  V30 5475 O 505 -5.40082 0.835109 0
M  V30 5476 H 502.094 -0.821964 0.0911249 0
M  V30 5477 H 504.64 -1.4338 0.907757 0
M  V30 5478 H 503.412 -3.47187 1.8049 0
M  V30 5479 H 503.035 -3.97259 0.164605 0
M  V30 5480 N 504.032 -0.577932 -1.46621 0
M  V30 5481 C 504.964 0.195801 -2.28362 0
M  V30 5482 C 505.977 0.859983 -1.38232 0
M  V30 5483 O 507.166 0.730349 -1.62875 0
M  V30 5484 C 504.266 1.29639 -3.13124 0
M  V30 5485 C 503.439 0.725049 -4.31349 0
M  V30 5486 C 502.498 1.71274 -4.97546 0
M  V30 5487 O 501.524 1.25067 -5.5529 0
M  V30 5488 N 502.726 3.04672 -4.94121 0
M  V30 5489 H 505.491 -0.505468 -2.95407 0
M  V30 5490 H 503.052 -0.415381 -1.56481 0
M  V30 5491 H 505.044 1.95631 -3.54275 0
M  V30 5492 H 503.614 1.90059 -2.48186 0
M  V30 5493 H 502.834 -0.112205 -3.9404 0
M  V30 5494 H 504.122 0.323034 -5.07774 0
M  V30 5495 H 503.52 3.4484 -4.48444 0
M  V30 5496 H 502.077 3.66166 -5.39227 0
M  V30 5497 N 505.51 1.54411 -0.315457 0
M  V30 5498 C 506.756 2.01425 0.282775 0
M  V30 5499 C 507.111 1.19978 1.5041 0
M  V30 5500 O 506.404 0.271766 1.89663 0
M  V30 5501 C 506.598 3.50936 0.676652 0
M  V30 5502 C 506.427 4.46856 -0.504954 0
M  V30 5503 C 505.197 4.95275 -1.00152 0
M  V30 5504 C 507.395 4.96141 -1.35456 0
M  V30 5505 N 505.377 5.75081 -2.14838 0
M  V30 5506 C 506.748 5.73791 -2.3487 0
M  V30 5507 C 508.803 4.78299 -1.38327 0
M  V30 5508 C 507.506 6.35498 -3.36949 0
M  V30 5509 C 509.532 5.40836 -2.39271 0
M  V30 5510 C 508.894 6.1833 -3.37413 0
M  V30 5511 H 504.993 0.779078 0.0675398 0
M  V30 5512 H 507.577 1.8946 -0.448656 0
M  V30 5513 H 505.748 3.63162 1.37723 0
M  V30 5514 H 507.48 3.84728 1.25566 0
M  V30 5515 H 504.235 4.70107 -0.574123 0
M  V30 5516 H 504.659 6.19664 -2.72665 0
M  V30 5517 H 509.301 4.17956 -0.638196 0
M  V30 5518 H 507.019 6.94967 -4.12367 0
M  V30 5519 H 510.605 5.28952 -2.42284 0
M  V30 5520 H 509.485 6.65861 -4.14244 0
M  V30 5521 N 506.988 0.0434614 1.5754 0
M  V30 5522 C 507.951 -0.918696 2.09982 0
M  V30 5523 C 508.951 -1.24488 1.01781 0
M  V30 5524 O 510.141 -1.18284 1.27885 0
M  V30 5525 C 507.273 -2.23093 2.57764 0
M  V30 5526 H 508.466 -0.464229 2.96285 0
M  V30 5527 H 506.019 -0.204818 1.54952 0
M  V30 5528 H 506.754 -2.73137 1.74832 0
M  V30 5529 H 506.539 -2.00724 3.36827 0
M  V30 5530 H 508.029 -2.92028 2.98512 0
M  V30 5531 N 508.466 -1.55915 -0.229846 0
M  V30 5532 C 509.712 -1.79718 -0.952517 0
M  V30 5533 C 510.067 -0.61514 -1.82301 0
M  V30 5534 O 509.36 0.391098 -1.87566 0
M  V30 5535 C 509.554 -3.06845 -1.8325 0
M  V30 5536 C 509.383 -4.37302 -1.04868 0
M  V30 5537 C 508.153 -4.99749 -0.746932 0
M  V30 5538 C 510.351 -5.12599 -0.417989 0
M  V30 5539 N 508.333 -6.13871 0.0591596 0
M  V30 5540 C 509.704 -6.19488 0.251879 0
M  V30 5541 C 511.759 -4.96804 -0.33018 0
M  V30 5542 C 510.462 -7.12299 1.00115 0
M  V30 5543 C 512.488 -5.90007 0.4056 0
M  V30 5544 C 511.85 -6.96317 1.06404 0
M  V30 5545 H 507.949 -0.709382 -0.329091 0
M  V30 5546 H 510.533 -1.93406 -0.224114 0
M  V30 5547 H 508.704 -2.94456 -2.53279 0
M  V30 5548 H 510.436 -3.18874 -2.49202 0
M  V30 5549 H 507.191 -4.61518 -1.06292 0
M  V30 5550 H 507.615 -6.75497 0.450798 0
M  V30 5551 H 512.257 -4.14675 -0.824898 0
M  V30 5552 H 509.975 -7.93916 1.50741 0
M  V30 5553 H 513.561 -5.79862 0.474436 0
M  V30 5554 H 512.441 -7.67194 1.62429 0
M  V30 5555 N 509.944 0.496216 -1.49584 0
M  V30 5556 C 510.854 1.62352 -1.69349 0
M  V30 5557 C 511.87 1.64184 -0.576147 0
M  V30 5558 O 513.046 1.82517 -0.85144 0
M  V30 5559 C 510.111 2.98698 -1.76013 0
M  V30 5560 C 509.172 3.07454 -2.99617 0
M  V30 5561 C 508.405 4.37296 -3.05953 0
M  V30 5562 O 508.628 5.2637 -2.19752 0
M  V30 5563 O 507.562 4.51124 -3.9846 0
M  V30 5564 H 511.388 1.48606 -2.64859 0
M  V30 5565 H 508.973 0.673022 -1.33382 0
M  V30 5566 H 510.855 3.79725 -1.82721 0
M  V30 5567 H 509.53 3.12696 -0.836828 0
M  V30 5568 H 508.437 2.25597 -2.98424 0
M  V30 5569 H 509.77 2.98385 -3.91443 0
M  V30 5570 N 511.423 1.38739 0.74761 0
M  V30 5571 C 512.651 1.38521 1.53686 0
M  V30 5572 C 513.066 -0.0235129 1.88785 0
M  V30 5573 O 512.423 -0.991662 1.53207 0
M  V30 5574 C 512.474 2.24641 2.83229 0
M  V30 5575 O 512.195 3.60026 2.49625 0
M  V30 5576 C 513.696 2.32669 3.77333 0
M  V30 5577 H 510.916 0.473589 0.475347 0
M  V30 5578 H 513.46 1.82395 0.924786 0
M  V30 5579 H 511.615 1.84213 3.40799 0
M  V30 5580 H 512.029 4.05435 3.3275 0
M  V30 5581 H 513.503 2.97201 4.65162 0
M  V30 5582 H 513.98 1.3421 4.18192 0
M  V30 5583 H 514.586 2.73512 3.25685 0
M  V30 5584 N 512.901 -0.976442 1.23707 0
M  V30 5585 C 513.831 -2.08749 1.04624 0
M  V30 5586 C 514.812 -1.70057 -0.0380956 0
M  V30 5587 O 515.997 -1.93782 0.127308 0
M  V30 5588 C 513.127 -3.41335 0.640902 0
M  V30 5589 C 512.081 -3.93947 1.67302 0
M  V30 5590 C 511.407 -5.22774 1.12301 0
M  V30 5591 C 512.707 -4.22769 3.06697 0
M  V30 5592 H 514.401 -2.24972 1.97555 0
M  V30 5593 H 511.947 -1.08108 0.951247 0
M  V30 5594 H 513.9 -4.18489 0.494434 0
M  V30 5595 H 512.624 -3.24988 -0.324099 0
M  V30 5596 H 511.283 -3.18941 1.80755 0
M  V30 5597 H 510.931 -5.0278 0.148877 0
M  V30 5598 H 510.631 -5.58942 1.81267 0
M  V30 5599 H 512.155 -6.02546 0.988479 0
M  V30 5600 H 513.569 -4.90659 2.96524 0
M  V30 5601 H 511.966 -4.70147 3.72937 0
M  V30 5602 H 513.036 -3.29885 3.55392 0
M  V30 5603 N 514.379 -1.04941 -1.1758 0
M  V30 5604 C 515.795 -0.770282 -1.39781 0
M  V30 5605 C 515.995 0.636417 -1.91186 0
M  V30 5606 O 515.051 1.39923 -2.10185 0
M  V30 5607 C 516.364 -1.82376 -2.3908 0
M  V30 5608 C 517.912 -1.84569 -2.52791 0
M  V30 5609 C 518.387 -2.88933 -3.55361 0
M  V30 5610 N 519.878 -2.8788 -3.62877 0
M  V30 5611 C 520.613 -3.65282 -4.41992 0
M  V30 5612 N 520.109 -4.52461 -5.24643 0
M  V30 5613 N 521.902 -3.53732 -4.36841 0
M  V30 5614 H 514.053 -1.95705 -0.825438 0
M  V30 5615 H 516.316 -0.847284 -0.425222 0
M  V30 5616 H 516.022 -2.83323 -2.08376 0
M  V30 5617 H 515.896 -1.66327 -3.38549 0
M  V30 5618 H 518.283 -0.842879 -2.82807 0
M  V30 5619 H 518.364 -2.04696 -1.53406 0
M  V30 5620 H 518.008 -3.89398 -3.26085 0
M  V30 5621 H 517.938 -2.66059 -4.54445 0
M  V30 5622 H 520.429 -2.24666 -3.03864 0
M  V30 5623 H 520.742 -5.08211 -5.82187 0
M  V30 5624 H 519.087 -4.56524 -5.24033 0
M  V30 5625 H 522.278 -2.85021 -3.71323 0
M  V30 5626 H 522.451 -4.14302 -4.98255 0
M  V30 5627 N 515.857 1.33968 -0.830081 0
M  V30 5628 C 517.134 1.92554 -0.343858 0
M  V30 5629 C 517.514 1.7573 1.16971 0
M  V30 5630 O 516.862 1.14035 1.98011 0
M  V30 5631 C 517.072 3.40147 -0.781073 0
M  V30 5632 C 518.42 4.17299 -0.78402 0
M  V30 5633 O 519.444 3.48762 -0.724112 0
M  V30 5634 O 518.303 5.39631 -0.863739 0
M  V30 5635 H 515.397 0.821469 -0.0954827 0
M  V30 5636 H 517.943 1.42897 -0.915348 0
M  V30 5637 H 516.715 3.46225 -1.82329 0
M  V30 5638 H 516.338 3.97166 -0.18567 0
M  V30 5639 N 517.335 0.585699 1.46312 0
M  V30 5640 C 518.563 0.0781299 2.06752 0
M  V30 5641 C 518.978 -1.22812 1.43396 0
M  V30 5642 O 518.335 -1.74318 0.540314 0
M  V30 5643 C 518.386 -0.0911927 3.61385 0
M  V30 5644 O 518.107 1.16336 4.22371 0
M  V30 5645 C 519.608 -0.632765 4.38761 0
M  V30 5646 H 516.828 0.0588188 0.668417 0
M  V30 5647 H 519.372 0.807218 1.87894 0
M  V30 5648 H 517.527 -0.770514 3.7966 0
M  V30 5649 H 517.941 0.979082 5.15281 0
M  V30 5650 H 519.415 -0.70041 5.47538 0
M  V30 5651 H 519.892 -1.65039 4.07012 0
M  V30 5652 H 520.498 0.0117856 4.25298 0
M  V30 5653 N 518.813 -1.54241 0.323641 0
M  V30 5654 C 520.059 -2.00867 -0.279323 0
M  V30 5655 C 520.392 -1.21146 -1.5178 0
M  V30 5656 O 519.667 -0.29378 -1.92269 0
M  V30 5657 C 519.95 -3.54837 -0.613387 0
M  V30 5658 C 519.803 -4.45284 0.635803 0
M  V30 5659 C 521.122 -4.16186 -1.43099 0
M  V30 5660 H 518.241 -0.730177 -0.100049 0
M  V30 5661 H 520.883 -1.84829 0.440235 0
M  V30 5662 H 519.033 -3.68634 -1.22641 0
M  V30 5663 H 520.705 -4.43357 1.27406 0
M  V30 5664 H 518.948 -4.14956 1.26466 0
M  V30 5665 H 519.619 -5.5084 0.357597 0
M  V30 5666 H 522.095 -4.05964 -0.912814 0
M  V30 5667 H 520.971 -5.24031 -1.6335 0
M  V30 5668 H 521.232 -3.69516 -2.42715 0
M  V30 5669 N 520.291 -0.0518155 -1.57515 0
M  V30 5670 C 521.254 0.907547 -2.10467 0
M  V30 5671 C 522.254 1.23947 -1.02439 0
M  V30 5672 O 523.444 1.17604 -1.2851 0
M  V30 5673 C 520.576 2.21723 -2.58944 0
M  V30 5674 H 521.769 0.44851 -2.96527 0
M  V30 5675 H 519.322 0.196598 -1.55059 0
M  V30 5676 H 520.057 2.72206 -1.76279 0
M  V30 5677 H 519.842 1.98935 -3.37886 0
M  V30 5678 H 521.332 2.90441 -3.00056 0
M  V30 5679 N 521.769 1.56035 0.221574 0
M  V30 5680 C 523.18 1.69229 0.788567 0
M  V30 5681 C 523.531 0.653814 1.84986 0
M  V30 5682 O 522.656 -0.195065 2.15519 0
M  V30 5683 C 523.251 3.06809 1.43713 0
M  V30 5684 C 521.81 3.21858 1.95152 0
M  V30 5685 C 520.957 2.65155 0.811685 0
M  V30 5686 H 523.908 1.587 -0.00307894 0
M  V30 5687 H 523.929 3.02666 2.30594 0
M  V30 5688 H 523.441 3.82369 0.664475 0
M  V30 5689 H 521.542 2.51167 2.7522 0
M  V30 5690 H 521.655 4.29073 2.1315 0
M  V30 5691 H 520.019 2.23635 1.21899 0
M  V30 5692 H 520.802 3.43261 0.0516987 0
M  V30 5693 N 523.247 -0.488276 1.49845 0
M  V30 5694 C 524.493 -1.24341 1.6021 0
M  V30 5695 C 524.826 -1.91967 0.293651 0
M  V30 5696 O 524.101 -1.81323 -0.703718 0
M  V30 5697 C 524.384 -2.3005 2.77036 0
M  V30 5698 C 524.237 -1.66842 4.17713 0
M  V30 5699 C 525.556 -3.31509 2.89464 0
M  V30 5700 H 522.675 -0.450704 0.583125 0
M  V30 5701 H 525.317 -0.539673 1.82174 0
M  V30 5702 H 523.467 -2.90071 2.58439 0
M  V30 5703 H 525.139 -1.1055 4.47858 0
M  V30 5704 H 523.382 -0.972079 4.22768 0
M  V30 5705 H 524.053 -2.43576 4.95353 0
M  V30 5706 H 526.529 -2.81493 3.06433 0
M  V30 5707 H 525.405 -4.02822 3.72861 0
M  V30 5708 H 525.666 -3.94603 1.99351 0
M  V30 5709 N 524.725 -1.39134 -0.740242 0
M  V30 5710 C 525.971 -1.36273 -1.50192 0
M  V30 5711 C 526.304 0.0430136 -1.94152 0
M  V30 5712 O 525.579 1.00691 -1.66408 0
M  V30 5713 C 525.862 -2.33041 -2.74525 0
M  V30 5714 C 525.715 -3.82535 -2.36617 0
M  V30 5715 C 527.034 -2.27723 -3.76604 0
M  V30 5716 H 524.153 -0.496323 -0.544823 0
M  V30 5717 H 526.795 -1.70085 -0.846815 0
M  V30 5718 H 524.945 -2.04337 -3.30422 0
M  V30 5719 H 526.617 -4.21967 -1.86391 0
M  V30 5720 H 524.86 -3.99565 -1.68909 0
M  V30 5721 H 525.531 -4.45723 -3.2563 0
M  V30 5722 H 528.007 -2.53091 -3.30279 0
M  V30 5723 H 526.883 -2.97519 -4.61274 0
M  V30 5724 H 527.144 -1.28049 -4.2315 0
M  V30 5725 N 526.204 0.969867 -1.24223 0
M  V30 5726 C 527.615 1.52717 -1.07399 0
M  V30 5727 C 527.966 1.92956 0.355298 0
M  V30 5728 O 527.091 1.77112 1.2434 0
M  V30 5729 C 527.686 2.77521 -1.94339 0
M  V30 5730 C 526.245 3.29615 -1.81744 0
M  V30 5731 C 525.392 2.02537 -1.89405 0
M  V30 5732 H 528.343 0.788399 -1.37732 0
M  V30 5733 H 528.364 3.50773 -1.47439 0
M  V30 5734 H 527.876 2.48203 -2.98357 0
M  V30 5735 H 525.977 3.63789 -0.805505 0
M  V30 5736 H 526.09 3.98661 -2.65718 0
M  V30 5737 H 524.454 2.17151 -1.33108 0
M  V30 5738 H 525.237 1.75587 -2.94999 0
M  V30 5739 N 527.682 1.05563 1.17022 0
M  V30 5740 C 528.959 0.68165 1.83338 0
M  V30 5741 C 529.339 -0.837665 1.93769 0
M  V30 5742 O 528.687 -1.74507 1.47511 0
M  V30 5743 C 528.897 1.375 3.20772 0
M  V30 5744 C 530.245 1.51545 3.96635 0
M  V30 5745 O 531.269 1.33431 3.30264 0
M  V30 5746 O 530.128 1.812 5.15586 0
M  V30 5747 H 527.222 0.240412 0.791285 0
M  V30 5748 H 529.768 1.15545 1.24288 0
M  V30 5749 H 528.54 2.41135 3.08171 0
M  V30 5750 H 528.163 0.890798 3.87493 0
M  V30 5751 N 529.16 -1.33526 0.837174 0
M  V30 5752 C 530.09 -2.31764 0.284206 0
M  V30 5753 C 531.071 -1.58896 -0.607142 0
M  V30 5754 O 532.256 -1.86798 -0.531047 0
M  V30 5755 C 529.386 -3.43029 -0.542962 0
M  V30 5756 C 528.34 -4.27255 0.252451 0
M  V30 5757 C 527.666 -5.3012 -0.69836 0
M  V30 5758 C 528.966 -5.01229 1.46858 0
M  V30 5759 H 530.66 -2.78262 1.10502 0
M  V30 5760 H 528.206 -1.3378 0.532812 0
M  V30 5761 H 530.159 -4.1078 -0.940096 0
M  V30 5762 H 528.883 -2.95216 -1.39697 0
M  V30 5763 H 527.542 -3.61127 0.631124 0
M  V30 5764 H 527.19 -4.78564 -1.54872 0
M  V30 5765 H 526.89 -5.87353 -0.170274 0
M  V30 5766 H 528.414 -6.00737 -1.09305 0
M  V30 5767 H 529.828 -5.61756 1.14469 0
M  V30 5768 H 528.225 -5.68104 1.93333 0
M  V30 5769 H 529.295 -4.301 2.23924 0
M  V30 5770 N 530.638 -0.59345 -1.46 0
M  V30 5771 C 531.863 -0.0872365 -2.07216 0
M  V30 5772 C 532.288 1.2131 -1.43755 0
M  V30 5773 O 531.646 1.73528 -0.525152 0
M  V30 5774 C 531.694 0.0538197 -3.6056 0
M  V30 5775 O 530.798 1.10765 -3.97247 0
M  V30 5776 H 530.139 -0.0676598 -0.660544 0
M  V30 5777 H 532.669 -0.819445 -1.87473 0
M  V30 5778 H 532.679 0.256567 -4.07193 0
M  V30 5779 H 531.354 -0.895739 -4.0614 0
M  V30 5780 H 529.931 0.882501 -3.62307 0
M  V30 5781 N 532.116 1.54067 -0.331816 0
M  V30 5782 C 533.341 2.05599 0.272705 0
M  V30 5783 C 533.766 1.2059 1.44359 0
M  V30 5784 O 533.124 0.216907 1.79998 0
M  V30 5785 C 533.172 3.54188 0.677021 0
M  V30 5786 O 532.276 3.72082 1.77844 0
M  V30 5787 H 531.617 0.662286 0.0476801 0
M  V30 5788 H 534.147 1.98826 -0.482624 0
M  V30 5789 H 534.157 3.96608 0.957415 0
M  V30 5790 H 532.832 4.15513 -0.179325 0
M  V30 5791 H 531.409 3.41566 1.49622 0
M  V30 5792 N 533.594 0.0601682 1.57485 0
M  V30 5793 C 534.871 -0.651956 1.84415 0
M  V30 5794 C 535.251 -1.88498 0.950361 0
M  V30 5795 O 534.599 -2.28496 0.0136719 0
M  V30 5796 C 534.809 -1.00069 3.34346 0
M  V30 5797 C 536.157 -1.37915 4.01578 0
M  V30 5798 O 537.181 -1.09277 3.39024 0
M  V30 5799 O 536.04 -1.91399 5.11887 0
M  V30 5800 H 533.134 -0.322668 0.761455 0
M  V30 5801 H 535.68 0.0902159 1.6946 0
M  V30 5802 H 534.452 -0.124463 3.91102 0
M  V30 5803 H 534.075 -1.80001 3.54521 0
M  V30 5804 N 535.072 -1.5615 -0.213296 0
M  V30 5805 C 536.321 -1.78743 -0.93455 0
M  V30 5806 C 536.634 -0.630199 -1.8517 0
M  V30 5807 O 537.84 -0.739966 -2.61222 0
M  V30 5808 C 536.296 -3.16571 -1.71203 0
M  V30 5809 C 535.904 -4.40043 -0.840617 0
M  V30 5810 C 537.648 -3.48485 -2.42401 0
M  V30 5811 C 535.555 -5.68895 -1.61592 0
M  V30 5812 H 534.485 -0.666426 -0.352692 0
M  V30 5813 H 537.136 -1.82532 -0.188227 0
M  V30 5814 H 535.518 -3.06981 -2.50157 0
M  V30 5815 H 536.692 -4.6071 -0.0910326 0
M  V30 5816 H 535.007 -4.15706 -0.240365 0
M  V30 5817 H 537.604 -4.41983 -3.00924 0
M  V30 5818 H 537.947 -2.71371 -3.15695 0
M  V30 5819 H 538.48 -3.59442 -1.7043 0
M  V30 5820 H 535.219 -6.48925 -0.926106 0
M  V30 5821 H 534.739 -5.52275 -2.33991 0
M  V30 5822 H 536.418 -6.09365 -2.17447 0
M  V30 5823 N 536.55 0.480323 -1.50102 0
M  V30 5824 C 537.827 1.24159 -1.51142 0
M  V30 5825 C 538.207 2.09605 -0.250818 0
M  V30 5826 O 537.555 2.15274 0.766118 0
M  V30 5827 C 537.765 2.08057 -2.80202 0
M  V30 5828 C 539.113 2.66556 -3.30504 0
M  V30 5829 O 540.137 2.18308 -2.81461 0
M  V30 5830 O 538.996 3.54442 -4.15973 0
M  V30 5831 H 536.09 0.562928 -0.605839 0
M  V30 5832 H 538.636 0.492899 -1.62384 0
M  V30 5833 H 537.408 1.45032 -3.6343 0
M  V30 5834 H 537.031 2.90079 -2.71919 0
M  V30 5835 N 538.028 1.39524 0.732853 0
M  V30 5836 C 539.256 1.40143 1.52209 0
M  V30 5837 C 539.671 -0.00348836 1.888 0
M  V30 5838 O 539.028 -0.975357 1.5425 0
M  V30 5839 C 539.079 2.27632 2.8083 0
M  V30 5840 O 538.8 3.62654 2.45792 0
M  V30 5841 C 540.301 2.36658 3.74844 0
M  V30 5842 H 537.521 0.478604 0.470297 0
M  V30 5843 H 540.065 1.83366 0.905388 0
M  V30 5844 H 538.22 1.87818 3.38826 0
M  V30 5845 H 538.634 4.08941 3.28431 0
M  V30 5846 H 540.108 3.02118 4.61984 0
M  V30 5847 H 540.585 1.38638 4.16745 0
M  V30 5848 H 541.191 2.76951 3.22766 0
M  V30 5849 N 539.506 -0.963266 1.24736 0
M  V30 5850 C 540.731 -1.74699 1.11781 0
M  V30 5851 C 541.156 -1.85267 -0.325258 0
M  V30 5852 O 540.514 -1.32681 -1.23553 0
M  V30 5853 C 540.562 -3.14322 1.76731 0
M  V30 5854 O 539.666 -3.99043 1.04109 0
M  V30 5855 H 539.007 -0.53684 0.390767 0
M  V30 5856 H 541.537 -1.20801 1.65131 0
M  V30 5857 H 541.547 -3.64824 1.82668 0
M  V30 5858 H 540.222 -3.05946 2.81726 0
M  V30 5859 H 538.799 -3.5752 1.05991 0
M  V30 5860 N 540.985 -1.06182 -1.16461 0
M  V30 5861 C 541.933 -0.665716 -2.2287 0
M  V30 5862 C 542.927 0.317822 -1.66392 0
M  V30 5863 O 544.133 0.182807 -1.79069 0
M  V30 5864 H 540.508 -0.197148 -0.725697 0
M  V30 5865 H 542.479 -1.57307 -2.53569 0
M  V30 5866 C 541.228 -0.0669803 -3.47635 0
M  V30 5867 H 540.551 -0.814899 -3.91407 0
M  V30 5868 H 541.991 0.172669 -4.23648 0
M  V30 5869 C 540.45 1.18913 -3.15216 0
M  V30 5870 O 540.98 2.27723 -3.30916 0
M  V30 5871 N 539.186 1.09066 -2.69357 0
M  V30 5872 H 538.733 0.20518 -2.56782 0
M  V30 5873 H 538.691 1.93195 -2.48039 0
M  V30 5874 N 542.463 1.3308 -0.844243 0
M  V30 5875 C 543.71 1.97605 -0.44255 0
M  V30 5876 C 544.038 1.66856 0.999458 0
M  V30 5877 O 543.293 0.943586 1.7145 0
M  V30 5878 C 543.592 3.52045 -0.616354 0
M  V30 5879 C 543.258 4.02757 -2.02726 0
M  V30 5880 C 541.92 4.16316 -2.41317 0
M  V30 5881 C 544.272 4.29776 -2.9486 0
M  V30 5882 C 541.6 4.54232 -3.71335 0
M  V30 5883 C 543.952 4.69146 -4.24364 0
M  V30 5884 C 542.616 4.80911 -4.62904 0
M  V30 5885 H 541.886 0.723088 -0.161941 0
M  V30 5886 H 544.533 1.58663 -1.0723 0
M  V30 5887 H 542.838 3.91681 0.0966812 0
M  V30 5888 H 544.535 3.99981 -0.285756 0
M  V30 5889 H 541.125 3.9268 -1.71756 0
M  V30 5890 H 545.309 4.18818 -2.6628 0
M  V30 5891 H 540.565 4.61535 -4.00993 0
M  V30 5892 H 544.739 4.89008 -4.95827 0
M  V30 5893 H 542.366 5.10048 -5.63698 0
M  V30 5894 N 543.941 0.601185 1.45683 0
M  V30 5895 C 545.218 0.0261659 1.95582 0
M  V30 5896 C 545.598 -1.4399 1.5437 0
M  V30 5897 O 544.946 -2.13919 0.80318 0
M  V30 5898 C 545.156 0.217557 3.48321 0
M  V30 5899 C 546.504 0.0950076 4.24494 0
M  V30 5900 O 547.528 0.147345 3.55895 0
M  V30 5901 O 546.387 -0.025261 5.46494 0
M  V30 5902 H 543.481 -0.0393688 0.826062 0
M  V30 5903 H 546.027 0.670798 1.55879 0
M  V30 5904 H 544.799 1.23601 3.71266 0
M  V30 5905 H 544.422 -0.46264 3.94899 0
M  V30 5906 N 545.419 -1.53889 0.339982 0
M  V30 5907 C 546.696 -1.93084 -0.312719 0
M  V30 5908 C 547.076 -1.2712 -1.68534 0
M  V30 5909 O 546.424 -0.420835 -2.24591 0
M  V30 5910 C 546.634 -3.4683 -0.388558 0
M  V30 5911 C 547.982 -4.19732 -0.641088 0
M  V30 5912 O 549.006 -3.53075 -0.470818 0
M  V30 5913 O 547.865 -5.3781 -0.970685 0
M  V30 5914 H 544.959 -0.806784 -0.18174 0
M  V30 5915 H 547.505 -1.65137 0.390898 0
M  V30 5916 H 546.277 -3.87055 0.574821 0
M  V30 5917 H 545.9 -3.80933 -1.1391 0
M  V30 5918 N 546.897 -0.0685191 -1.57451 0
M  V30 5919 C 547.827 0.89747 -2.15564 0
M  V30 5920 C 548.808 1.31266 -1.08181 0
M  V30 5921 O 549.993 1.38429 -1.36202 0
M  V30 5922 C 547.123 2.16623 -2.71463 0
M  V30 5923 C 546.077 1.89054 -3.83982 0
M  V30 5924 C 545.403 3.22532 -4.26471 0
M  V30 5925 C 546.703 1.1984 -5.08366 0
M  V30 5926 H 548.397 0.413373 -2.96533 0
M  V30 5927 H 545.943 0.197391 -1.42641 0
M  V30 5928 H 547.896 2.84614 -3.10761 0
M  V30 5929 H 546.62 2.67269 -1.8771 0
M  V30 5930 H 545.279 1.23469 -3.45183 0
M  V30 5931 H 544.927 3.71013 -3.39644 0
M  V30 5932 H 544.627 3.04879 -5.02317 0
M  V30 5933 H 546.151 3.91727 -4.68383 0
M  V30 5934 H 547.565 1.77896 -5.45001 0
M  V30 5935 H 545.962 1.12456 -5.89469 0
M  V30 5936 H 547.032 0.176996 -4.84577 0
M  V30 5937 N 548.375 1.56261 0.205012 0
M  V30 5938 C 549.285 1.96944 1.27476 0
M  V30 5939 C 550.301 0.875636 1.50362 0
M  V30 5940 O 551.477 1.18058 1.6317 0
M  V30 5941 C 548.542 2.29219 2.60115 0
M  V30 5942 C 547.603 3.52255 2.45387 0
M  V30 5943 C 546.836 3.8298 3.71701 0
M  V30 5944 O 547.059 3.15138 4.75441 0
M  V30 5945 O 545.993 4.76435 3.67823 0
M  V30 5946 H 549.819 2.88144 0.959527 0
M  V30 5947 H 547.404 1.43686 0.409217 0
M  V30 5948 H 549.286 2.51098 3.3842 0
M  V30 5949 H 547.961 1.4119 2.91285 0
M  V30 5950 H 546.868 3.35635 1.65227 0
M  V30 5951 H 548.201 4.40719 2.19152 0
M  V30 5952 N 549.853 -0.472356 1.50355 0
M  V30 5953 C 550.763 -1.59637 1.7191 0
M  V30 5954 C 551.779 -1.63247 0.602195 0
M  V30 5955 O 552.955 -1.81139 0.880369 0
M  V30 5956 C 550.02 -2.9586 1.80742 0
M  V30 5957 C 549.081 -3.02649 3.04471 0
M  V30 5958 C 548.314 -4.32374 3.12872 0
M  V30 5959 O 548.537 -5.22807 2.28099 0
M  V30 5960 O 547.471 -4.44728 4.05587 0
M  V30 5961 H 551.297 -1.44373 2.67189 0
M  V30 5962 H 548.882 -0.651717 1.34436 0
M  V30 5963 H 550.764 -3.7677 1.88739 0
M  V30 5964 H 549.439 -3.11325 0.88647 0
M  V30 5965 H 548.346 -2.20821 3.01975 0
M  V30 5966 H 549.679 -2.92119 3.9614 0
M  V30 5967 N 551.331 -1.39911 -0.725443 0
M  V30 5968 C 552.608 -1.28158 -1.47766 0
M  V30 5969 C 552.988 0.104545 -2.10841 0
M  V30 5970 O 552.336 1.11657 -1.99361 0
M  V30 5971 C 552.546 -2.41306 -2.52135 0
M  V30 5972 C 553.894 -2.81076 -3.18247 0
M  V30 5973 O 554.918 -2.40827 -2.62452 0
M  V30 5974 O 553.777 -3.50581 -4.19231 0
M  V30 5975 H 550.871 -0.502761 -0.656628 0
M  V30 5976 H 553.417 -1.51808 -0.758456 0
M  V30 5977 H 552.189 -3.33932 -2.03974 0
M  V30 5978 H 551.812 -2.19374 -3.31603 0
M  V30 5979 N 552.809 0.956637 -1.25245 0
M  V30 5980 C 553.756 2.053 -1.05454 0
M  V30 5981 C 554.726 1.66062 0.0356889 0
M  V30 5982 O 555.911 1.90415 -0.121099 0
M  V30 5983 C 553.051 3.38391 -0.677191 0
M  V30 5984 C 552.164 3.90758 -1.84206 0
M  V30 5985 C 551.299 5.12165 -1.40926 0
M  V30 5986 C 550.338 5.56757 -2.54338 0
M  V30 5987 N 549.475 6.69376 -2.11848 0
M  V30 5988 H 554.315 2.21562 -1.99284 0
M  V30 5989 H 551.852 1.08578 -0.992434 0
M  V30 5990 H 553.81 4.1488 -0.43938 0
M  V30 5991 H 552.44 3.22021 0.224127 0
M  V30 5992 H 551.492 3.10808 -2.19323 0
M  V30 5993 H 552.804 4.19802 -2.69383 0
M  V30 5994 H 551.958 5.96065 -1.13098 0
M  V30 5995 H 550.697 4.84832 -0.528175 0
M  V30 5996 H 549.702 4.71423 -2.82913 0
M  V30 5997 H 550.927 5.861 -3.43022 0
M  V30 5998 H 548.873 6.43756 -1.26153 0
M  V30 5999 H 548.79 6.97927 -2.90574 0
M  V30 6000 H 550.058 7.5669 -1.87191 0
M  V30 6001 N 554.287 1.06798 1.15896 0
M  V30 6002 C 555.535 0.786211 1.8618 0
M  V30 6003 C 555.856 -0.689547 1.82401 0
M  V30 6004 O 555.126 -1.49913 1.26107 0
M  V30 6005 H 553.706 0.287843 0.689315 0
M  V30 6006 H 556.368 1.35055 1.40521 0
M  V30 6007 H 555.464 1.1157 2.91477 0
M  V30 6008 N 555.766 -1.3263 0.851289 0
M  V30 6009 C 556.676 -2.32722 0.296268 0
M  V30 6010 C 557.692 -1.63901 -0.584162 0
M  V30 6011 O 558.868 -1.95465 -0.485334 0
M  V30 6012 C 555.933 -3.42942 -0.509103 0
M  V30 6013 C 554.994 -4.2746 0.397069 0
M  V30 6014 C 554.227 -5.32416 -0.36996 0
M  V30 6015 O 554.45 -5.47491 -1.6003 0
M  V30 6016 O 553.384 -6.01327 0.262493 0
M  V30 6017 H 557.21 -2.82078 1.12543 0
M  V30 6018 H 554.795 -1.36194 0.614135 0
M  V30 6019 H 556.677 -4.1017 -0.96634 0
M  V30 6020 H 555.352 -2.95781 -1.31512 0
M  V30 6021 H 554.259 -3.63053 0.902411 0
M  V30 6022 H 555.592 -4.78136 1.16818 0
M  V30 6023 N 557.244 -0.608902 -1.45362 0
M  V30 6024 C 558.154 0.110969 -2.34337 0
M  V30 6025 C 559.17 0.859007 -1.51318 0
M  V30 6026 O 560.346 0.816296 -1.84116 0
M  V30 6027 C 557.411 1.09494 -3.28956 0
M  V30 6028 C 556.472 0.348718 -4.27881 0
M  V30 6029 C 555.705 1.28582 -5.17979 0
M  V30 6030 O 555.928 2.52369 -5.11533 0
M  V30 6031 O 554.862 0.782172 -5.96796 0
M  V30 6032 H 558.688 -0.620258 -2.97299 0
M  V30 6033 H 556.273 -0.36916 -1.44767 0
M  V30 6034 H 558.155 1.66163 -3.87257 0
M  V30 6035 H 556.83 1.80717 -2.68557 0
M  V30 6036 H 555.737 -0.260465 -3.73192 0
M  V30 6037 H 557.07 -0.323049 -4.91139 0
M  V30 6038 N 558.722 1.53707 -0.348139 0
M  V30 6039 C 559.632 2.28881 0.514857 0
M  V30 6040 C 560.648 1.34168 1.10793 0
M  V30 6041 O 561.824 1.6721 1.12262 0
M  V30 6042 C 558.889 3.05042 1.64774 0
M  V30 6043 C 557.95 4.15389 1.08398 0
M  V30 6044 C 557.183 4.87909 2.16287 0
M  V30 6045 O 557.406 4.60137 3.3709 0
M  V30 6046 O 556.34 5.74254 1.80323 0
M  V30 6047 H 560.166 3.03547 -0.0963699 0
M  V30 6048 H 557.751 1.48972 -0.113043 0
M  V30 6049 H 559.633 3.52656 2.30677 0
M  V30 6050 H 558.308 2.33228 2.24469 0
M  V30 6051 H 557.215 3.72068 0.389341 0
M  V30 6052 H 558.548 4.89318 0.531829 0
M  V30 6053 N 560.2 0.0768682 1.57412 0
M  V30 6054 C 561.428 -0.59997 1.9801 0
M  V30 6055 C 561.843 -1.62842 0.955408 0
M  V30 6056 O 561.2 -1.8241 -0.057314 0
M  V30 6057 C 561.251 -1.26401 3.38681 0
M  V30 6058 O 560.972 -0.276723 4.37225 0
M  V30 6059 C 562.473 -2.0282 3.94182 0
M  V30 6060 H 559.693 -0.162239 0.651091 0
M  V30 6061 H 562.237 0.150771 2.03943 0
M  V30 6062 H 560.392 -1.96581 3.33819 0
M  V30 6063 H 560.806 -0.753744 5.19056 0
M  V30 6064 H 562.28 -2.44667 4.94815 0
M  V30 6065 H 562.757 -2.88678 3.31001 0
M  V30 6066 H 563.363 -1.37496 4.02461 0
M  V30 6067 N 561.678 -1.56367 -0.196722 0
M  V30 6068 C 562.925 -1.80529 -0.917366 0
M  V30 6069 C 563.253 -0.649817 -1.83324 0
M  V30 6070 O 562.508 0.36451 -1.92275 0
M  V30 6071 C 562.807 -3.10663 -1.767 0
M  V30 6072 C 562.473 -4.3962 -1.00225 0
M  V30 6073 C 561.135 -4.74653 -0.791095 0
M  V30 6074 C 563.487 -5.1913 -0.464035 0
M  V30 6075 C 560.815 -5.86692 -0.0302155 0
M  V30 6076 C 563.167 -6.31964 0.283625 0
M  V30 6077 C 561.831 -6.65581 0.505813 0
M  V30 6078 H 561.101 -0.660602 -0.335688 0
M  V30 6079 H 563.748 -1.90615 -0.183844 0
M  V30 6080 H 562.053 -2.95807 -2.56915 0
M  V30 6081 H 563.75 -3.26563 -2.32718 0
M  V30 6082 H 560.34 -4.12127 -1.17684 0
M  V30 6083 H 564.524 -4.9248 -0.614575 0
M  V30 6084 H 559.78 -6.11211 0.151917 0
M  V30 6085 H 563.954 -6.92791 0.708057 0
M  V30 6086 H 561.581 -7.52239 1.0973 0
M  V30 6087 N 563.156 0.464375 -1.50603 0
M  V30 6088 C 564.567 1.04507 -1.5471 0
M  V30 6089 C 564.918 1.9297 -0.354542 0
M  V30 6090 O 564.043 2.09763 0.531812 0
M  V30 6091 C 564.638 1.90207 -2.80369 0
M  V30 6092 C 563.197 2.43373 -2.87135 0
M  V30 6093 C 562.344 1.21886 -2.49076 0
M  V30 6094 H 565.295 0.246716 -1.56771 0
M  V30 6095 H 565.316 2.75353 -2.62604 0
M  V30 6096 H 564.828 1.25796 -3.67147 0
M  V30 6097 H 562.929 3.11318 -2.04724 0
M  V30 6098 H 563.042 2.7802 -3.90181 0
M  V30 6099 H 561.406 1.55575 -2.01664 0
M  V30 6100 H 562.189 0.591268 -3.3817 0
M  V30 6101 N 564.634 1.40294 0.718013 0
M  V30 6102 C 565.883 1.37746 1.4734 0
M  V30 6103 C 566.196 -0.0180754 1.95592 0
M  V30 6104 O 567.402 -0.166166 2.70991 0
M  V30 6105 C 565.858 2.4208 2.66318 0
M  V30 6106 C 565.466 3.87432 2.24945 0
M  V30 6107 C 567.21 2.48635 3.44065 0
M  V30 6108 C 565.117 4.83368 3.40748 0
M  V30 6109 H 564.047 0.512165 0.553356 0
M  V30 6110 H 566.698 1.66019 0.781661 0
M  V30 6111 H 565.08 2.06903 3.3765 0
M  V30 6112 H 566.254 4.3174 1.6105 0
M  V30 6113 H 564.569 3.8433 1.60249 0
M  V30 6114 H 567.166 3.17499 4.30231 0
M  V30 6115 H 567.509 1.51611 3.87711 0
M  V30 6116 H 568.042 2.82791 2.79775 0
M  V30 6117 H 564.781 5.81716 3.02136 0
M  V30 6118 H 564.301 4.43726 4.03568 0
M  V30 6119 H 565.98 5.03074 4.06848 0
M  V30 6120 N 566.112 -0.949982 1.2575 0
M  V30 6121 C 567.523 -1.50989 1.09815 0
M  V30 6122 C 567.874 -1.93497 -0.324556 0
M  V30 6123 O 566.999 -1.79068 -1.21506 0
M  V30 6124 C 567.594 -2.74394 1.98729 0
M  V30 6125 C 566.153 -3.26682 1.86965 0
M  V30 6126 C 565.3 -1.99498 1.92603 0
M  V30 6127 H 568.251 -0.766387 1.38968 0
M  V30 6128 H 568.272 -3.48383 1.53001 0
M  V30 6129 H 567.784 -2.43425 3.02268 0
M  V30 6130 H 565.885 -3.62461 0.863279 0
M  V30 6131 H 565.998 -3.94383 2.72027 0
M  V30 6132 H 564.362 -2.15005 1.36546 0
M  V30 6133 H 565.145 -1.70871 2.97755 0
M  V30 6134 N 567.59 -1.07411 -1.15328 0
M  V30 6135 C 568.537 -0.694995 -2.20087 0
M  V30 6136 C 569.507 0.313904 -1.63107 0
M  V30 6137 O 570.692 0.200216 -1.89747 0
M  V30 6138 C 567.832 -0.0996218 -3.44956 0
M  V30 6139 C 566.945 -1.16007 -4.16133 0
M  V30 6140 C 566.08 -0.529636 -5.28553 0
M  V30 6141 C 565.119 -1.57283 -5.91548 0
M  V30 6142 N 564.256 -0.964932 -6.95438 0
M  V30 6143 H 569.096 -1.5927 -2.51867 0
M  V30 6144 H 566.633 -0.796115 -1.23695 0
M  V30 6145 H 568.591 0.263197 -4.16369 0
M  V30 6146 H 567.221 0.761435 -3.13691 0
M  V30 6147 H 566.273 -1.64045 -3.4321 0
M  V30 6148 H 567.585 -1.95101 -4.59061 0
M  V30 6149 H 566.739 -0.114487 -6.06592 0
M  V30 6150 H 565.478 0.29307 -4.86819 0
M  V30 6151 H 564.483 -1.99775 -5.12221 0
M  V30 6152 H 565.708 -2.39783 -6.35359 0
M  V30 6153 H 563.654 -0.16314 -6.55797 0
M  V30 6154 H 563.571 -1.69311 -7.36797 0
M  V30 6155 H 564.839 -0.575305 -7.77374 0
M  V30 6156 N 569.068 1.32177 -0.85831 0
M  V30 6157 C 570.031 2.27086 -0.310588 0
M  V30 6158 C 571.031 1.51751 0.531806 0
M  V30 6159 O 572.221 1.70794 0.34279 0
M  V30 6160 C 569.353 3.36266 0.560179 0
M  V30 6161 H 570.546 2.77045 -1.1483 0
M  V30 6162 H 568.099 1.42911 -0.632942 0
M  V30 6163 H 568.834 2.9158 1.41956 0
M  V30 6164 H 568.619 3.92077 -0.0428473 0
M  V30 6165 H 570.109 4.06974 0.936056 0
M  V30 6166 N 570.547 0.616602 1.45037 0
M  V30 6167 C 571.794 0.115331 2.02171 0
M  V30 6168 C 572.122 -1.25748 1.48383 0
M  V30 6169 O 571.377 -1.84511 0.652229 0
M  V30 6170 C 571.676 0.0356829 3.57382 0
M  V30 6171 C 571.342 1.34535 4.30362 0
M  V30 6172 C 570.004 1.70408 4.50016 0
M  V30 6173 C 572.356 2.21049 4.72003 0
M  V30 6174 C 569.684 2.92529 5.0857 0
M  V30 6175 C 572.036 3.42427 5.31908 0
M  V30 6176 C 570.7 3.78541 5.49784 0
M  V30 6177 H 569.97 0.0422024 0.739797 0
M  V30 6178 H 572.617 0.80002 1.73988 0
M  V30 6179 H 570.922 -0.732314 3.84895 0
M  V30 6180 H 572.619 -0.368463 3.99304 0
M  V30 6181 H 569.209 1.05615 4.15383 0
M  V30 6182 H 573.393 1.94632 4.56544 0
M  V30 6183 H 568.649 3.20605 5.20598 0
M  V30 6184 H 572.823 4.09709 5.63127 0
M  V30 6185 H 570.45 4.73255 5.94923 0
M  V30 6186 N 572.025 -1.5352 0.356285 0
M  V30 6187 C 573.271 -2.01414 -0.236653 0
M  V30 6188 C 573.604 -1.24339 -1.49176 0
M  V30 6189 O 572.879 -0.334496 -1.91602 0
M  V30 6190 C 573.162 -3.56059 -0.537982 0
M  V30 6191 C 573.015 -4.43835 0.730112 0
M  V30 6192 C 574.334 -4.19127 -1.34239 0
M  V30 6193 H 571.453 -0.732135 -0.0845386 0
M  V30 6194 H 574.095 -1.83854 0.479341 0
M  V30 6195 H 572.245 -3.71153 -1.14795 0
M  V30 6196 H 573.917 -4.40555 1.36782 0
M  V30 6197 H 572.16 -4.1218 1.3524 0
M  V30 6198 H 572.831 -5.49958 0.474358 0
M  V30 6199 H 575.307 -4.07809 -0.826498 0
M  V30 6200 H 574.183 -5.27378 -1.52198 0
M  V30 6201 H 574.444 -3.74581 -2.34822 0
M  V30 6202 N 573.503 -0.0852151 -1.57369 0
M  V30 6203 C 574.751 0.579658 -1.93609 0
M  V30 6204 C 575.072 1.69332 -0.967043 0
M  V30 6205 O 574.342 1.95892 -0.0174215 0
M  V30 6206 H 572.922 0.217113 -0.714752 0
M  V30 6207 H 575.584 -0.146226 -1.94351 0
M  V30 6208 H 574.68 0.996276 -2.95771 0
M  V30 6209 N 574.981 1.5647 0.188427 0
M  V30 6210 C 575.929 1.95971 1.25293 0
M  V30 6211 C 576.923 0.846047 1.4676 0
M  V30 6212 O 578.129 1.03109 1.47542 0
M  V30 6213 H 574.504 0.623253 0.420784 0
M  V30 6214 H 576.475 2.84731 0.892792 0
M  V30 6215 C 575.224 2.32116 2.58877 0
M  V30 6216 H 574.547 3.17341 2.43176 0
M  V30 6217 H 575.987 2.63613 3.3209 0
M  V30 6218 C 574.446 1.15823 3.16365 0
M  V30 6219 O 574.976 0.436785 3.99318 0
M  V30 6220 N 573.182 0.933278 2.75206 0
M  V30 6221 H 572.729 1.52169 2.07852 0
M  V30 6222 H 572.687 0.156976 3.14008 0
M  V30 6223 N 576.459 -0.456382 1.50847 0
M  V30 6224 C 577.391 -1.57033 1.66953 0
M  V30 6225 C 578.404 -1.53207 0.550593 0
M  V30 6226 O 579.593 -1.58328 0.824285 0
M  V30 6227 C 576.693 -2.95937 1.65149 0
M  V30 6228 C 575.866 -3.24475 2.93317 0
M  V30 6229 C 574.925 -4.43007 2.83957 0
M  V30 6230 O 573.951 -4.42592 3.57912 0
M  V30 6231 N 575.153 -5.45503 1.9851 0
M  V30 6232 H 577.918 -1.43629 2.63042 0
M  V30 6233 H 575.479 -0.645037 1.48495 0
M  V30 6234 H 577.471 -3.73224 1.56481 0
M  V30 6235 H 576.041 -3.03036 0.767343 0
M  V30 6236 H 575.261 -2.35664 3.16 0
M  V30 6237 H 576.549 -3.4036 3.78196 0
M  V30 6238 H 575.947 -5.48668 1.37766 0
M  V30 6239 H 574.504 -6.21716 1.95735 0
M  V30 6240 N 577.937 -1.40673 -0.710563 0
M  V30 6241 C 578.867 -1.44095 -1.83736 0
M  V30 6242 C 579.848 -0.301286 -1.67411 0
M  V30 6243 O 581.033 -0.510618 -1.87367 0
M  V30 6244 C 578.163 -1.30773 -3.21738 0
M  V30 6245 C 577.117 -2.42395 -3.52745 0
M  V30 6246 C 576.443 -2.14147 -4.89944 0
M  V30 6247 C 577.743 -3.84738 -3.53234 0
M  V30 6248 H 579.437 -2.38396 -1.81129 0
M  V30 6249 H 576.983 -1.14746 -0.870017 0
M  V30 6250 H 578.936 -1.31783 -4.00264 0
M  V30 6251 H 577.66 -0.329507 -3.24934 0
M  V30 6252 H 576.319 -2.40643 -2.76562 0
M  V30 6253 H 575.967 -1.14703 -4.89747 0
M  V30 6254 H 575.667 -2.88934 -5.11655 0
M  V30 6255 H 577.191 -2.16848 -5.70797 0
M  V30 6256 H 578.605 -3.88286 -4.2179 0
M  V30 6257 H 577.002 -4.59085 -3.86473 0
M  V30 6258 H 578.072 -4.13962 -2.52514 0
M  V30 6259 N 579.415 0.9433 -1.26252 0
M  V30 6260 C 580.826 1.50404 -1.10614 0
M  V30 6261 C 581.177 1.93666 0.31429 0
M  V30 6262 O 580.302 1.79709 1.20555 0
M  V30 6263 C 580.897 2.73336 -2.00182 0
M  V30 6264 C 579.456 3.25686 -1.88695 0
M  V30 6265 C 578.603 1.98474 -1.93658 0
M  V30 6266 H 581.554 0.759006 -1.39373 0
M  V30 6267 H 581.575 3.47567 -1.54847 0
M  V30 6268 H 581.087 2.41818 -3.03555 0
M  V30 6269 H 579.188 3.61998 -0.882489 0
M  V30 6270 H 579.301 3.92935 -2.74115 0
M  V30 6271 H 577.665 2.14278 -1.37684 0
M  V30 6272 H 578.448 1.6929 -2.98657 0
M  V30 6273 N 580.893 1.08022 1.14757 0
M  V30 6274 C 582.14 0.807509 1.85703 0
M  V30 6275 C 582.468 -0.666617 1.8272 0
M  V30 6276 O 581.723 -1.50562 1.25018 0
M  V30 6277 C 582.022 1.26964 3.34088 0
M  V30 6278 C 581.688 2.7509 3.57262 0
M  V30 6279 C 580.35 3.15547 3.63296 0
M  V30 6280 C 582.702 3.70667 3.66409 0
M  V30 6281 C 580.03 4.50384 3.75994 0
M  V30 6282 C 582.382 5.05274 3.80632 0
M  V30 6283 C 581.046 5.45342 3.84913 0
M  V30 6284 H 580.316 0.295488 0.679535 0
M  V30 6285 H 582.963 1.35245 1.35577 0
M  V30 6286 H 581.268 0.644216 3.86467 0
M  V30 6287 H 582.965 1.03544 3.87401 0
M  V30 6288 H 579.555 2.42775 3.53212 0
M  V30 6289 H 583.739 3.40533 3.61041 0
M  V30 6290 H 578.995 4.80886 3.77569 0
M  V30 6291 H 583.169 5.79201 3.86652 0
M  V30 6292 H 580.796 6.49823 3.94505 0
M  V30 6293 N 582.371 -1.3172 0.865308 0
M  V30 6294 C 583.617 -1.97168 0.474633 0
M  V30 6295 C 583.95 -1.68263 -0.969604 0
M  V30 6296 O 583.225 -0.976588 -1.68205 0
M  V30 6297 C 583.508 -3.52689 0.726808 0
M  V30 6298 C 583.361 -3.91185 2.22024 0
M  V30 6299 C 584.68 -4.39689 0.190201 0
M  V30 6300 H 581.799 -0.716185 0.17392 0
M  V30 6301 H 584.441 -1.55925 1.08569 0
M  V30 6302 H 582.591 -3.8795 0.206705 0
M  V30 6303 H 584.263 -3.66049 2.80724 0
M  V30 6304 H 582.506 -3.3996 2.69462 0
M  V30 6305 H 583.177 -4.99604 2.34735 0
M  V30 6306 H 585.653 -4.11225 0.635103 0
M  V30 6307 H 584.529 -5.47469 0.396132 0
M  V30 6308 H 584.79 -4.32683 -0.907625 0
M  V30 6309 N 583.85 -0.624285 -1.44708 0
M  V30 6310 C 585.098 -0.125802 -2.01708 0
M  V30 6311 C 585.418 1.2543 -1.49306 0
M  V30 6312 O 584.689 1.83198 -0.693924 0
M  V30 6313 H 583.269 -0.0435161 -0.745731 0
M  V30 6314 H 585.931 -0.809446 -1.77296 0
M  V30 6315 H 585.027 -0.0882734 -3.11975 0
M  V30 6316 N 585.328 1.53329 -0.364422 0
M  V30 6317 C 586.575 2.01239 0.225634 0
M  V30 6318 C 586.903 1.25172 1.48869 0
M  V30 6319 O 586.158 0.333289 1.92841 0
M  V30 6320 C 586.457 3.52911 0.564661 0
M  V30 6321 C 586.123 4.46837 -0.603936 0
M  V30 6322 C 584.785 4.72234 -0.924585 0
M  V30 6323 C 587.137 5.02409 -1.38691 0
M  V30 6324 C 584.465 5.50454 -2.0302 0
M  V30 6325 C 586.817 5.81836 -2.48293 0
M  V30 6326 C 585.481 6.0552 -2.80894 0
M  V30 6327 H 584.751 0.736386 0.0825654 0
M  V30 6328 H 587.398 1.84948 -0.496645 0
M  V30 6329 H 585.703 3.67144 1.36794 0
M  V30 6330 H 587.4 3.87455 1.03344 0
M  V30 6331 H 583.99 4.27217 -0.343983 0
M  V30 6332 H 588.174 4.82735 -1.15243 0
M  V30 6333 H 583.43 5.67024 -2.28678 0
M  V30 6334 H 587.604 6.23905 -3.0938 0
M  V30 6335 H 585.231 6.65916 -3.66688 0
M  V30 6336 N 586.806 0.0935595 1.57322 0
M  V30 6337 C 588.034 -0.578934 1.98635 0
M  V30 6338 C 588.449 -1.61819 0.972626 0
M  V30 6339 O 587.806 -1.82461 -0.0379638 0
M  V30 6340 C 587.857 -1.22802 3.40003 0
M  V30 6341 O 587.578 -0.230334 4.37494 0
M  V30 6342 C 589.079 -1.98627 3.96311 0
M  V30 6343 H 586.299 -0.155324 0.652775 0
M  V30 6344 H 588.843 0.172393 2.03772 0
M  V30 6345 H 586.998 -1.93029 3.35885 0
M  V30 6346 H 587.412 -0.698649 5.19826 0
M  V30 6347 H 588.886 -2.39405 4.97382 0
M  V30 6348 H 589.363 -2.85151 3.34044 0
M  V30 6349 H 589.969 -1.3322 4.03897 0
M  V30 6350 N 588.284 -1.56567 -0.180126 0
M  V30 6351 C 589.514 -1.85349 -0.912647 0
M  V30 6352 C 589.922 -0.675795 -1.76719 0
M  V30 6353 O 589.265 0.3645 -1.80047 0
M  V30 6354 C 589.327 -3.08431 -1.84691 0
M  V30 6355 C 588.991 -4.41694 -1.17284 0
M  V30 6356 C 589.988 -5.17062 -0.542532 0
M  V30 6357 C 587.673 -4.8843 -1.17223 0
M  V30 6358 C 589.667 -6.37351 0.0793953 0
M  V30 6359 C 587.354 -6.08652 -0.54647 0
M  V30 6360 C 588.352 -6.82955 0.0782458 0
M  V30 6361 O 588.04 -8.00897 0.694158 0
M  V30 6362 H 587.772 -0.619286 -0.271036 0
M  V30 6363 H 590.326 -2.0454 -0.187768 0
M  V30 6364 H 588.556 -2.85163 -2.61188 0
M  V30 6365 H 590.245 -3.23733 -2.44851 0
M  V30 6366 H 591.011 -4.8204 -0.535045 0
M  V30 6367 H 586.89 -4.30542 -1.64788 0
M  V30 6368 H 590.434 -6.95287 0.567612 0
M  V30 6369 H 586.331 -6.4314 -0.55151 0
M  V30 6370 H 587.099 -8.16352 0.592537 0
M  V30 6371 N 589.762 0.448376 -1.51087 0
M  V30 6372 C 590.992 1.21965 -1.66757 0
M  V30 6373 C 591.4 1.85748 -0.359753 0
M  V30 6374 O 590.743 1.71022 0.670604 0
M  V30 6375 C 590.805 2.35284 -2.71812 0
M  V30 6376 C 590.469 1.91957 -4.1473 0
M  V30 6377 C 591.466 1.42921 -4.9987 0
M  V30 6378 C 589.151 1.99985 -4.60772 0
M  V30 6379 C 591.145 1.02485 -6.29107 0
M  V30 6380 C 588.832 1.5916 -5.90009 0
M  V30 6381 C 589.83 1.10491 -6.74004 0
M  V30 6382 O 589.518 0.702413 -8.00825 0
M  V30 6383 H 589.25 0.374125 -0.563034 0
M  V30 6384 H 591.804 0.538927 -1.98204 0
M  V30 6385 H 590.034 3.06599 -2.35657 0
M  V30 6386 H 591.723 2.97184 -2.76472 0
M  V30 6387 H 592.489 1.36123 -4.65506 0
M  V30 6388 H 588.368 2.36814 -3.95525 0
M  V30 6389 H 591.912 0.644271 -6.94619 0
M  V30 6390 H 587.809 1.65626 -6.2389 0
M  V30 6391 H 588.577 0.829248 -8.14288 0
M  V30 6392 N 591.24 1.41047 0.703093 0
M  V30 6393 C 592.465 1.43537 1.49706 0
M  V30 6394 C 592.89 0.0401853 1.88057 0
M  V30 6395 O 592.248 -0.954785 1.54122 0
M  V30 6396 C 592.296 2.3433 2.74084 0
M  V30 6397 O 591.4 1.79515 3.71279 0
M  V30 6398 H 590.741 0.487454 0.450871 0
M  V30 6399 H 593.271 1.85422 0.86486 0
M  V30 6400 H 593.281 2.49947 3.22476 0
M  V30 6401 H 591.956 3.35708 2.45506 0
M  V30 6402 H 590.533 1.7331 3.30179 0
M  V30 6403 N 592.718 -0.936591 1.26751 0
M  V30 6404 C 593.666 -2.0573 1.08527 0
M  V30 6405 C 594.66 -1.69397 0.0108784 0
M  V30 6406 O 595.866 -1.79215 0.167915 0
M  V30 6407 H 592.241 -0.673691 0.334133 0
M  V30 6408 H 594.212 -2.1825 2.03493 0
M  V30 6409 C 592.961 -3.39738 0.739845 0
M  V30 6410 H 592.284 -3.68174 1.55845 0
M  V30 6411 H 593.724 -4.18955 0.652149 0
M  V30 6412 C 592.183 -3.32292 -0.555288 0
M  V30 6413 O 592.713 -3.68794 -1.59229 0
M  V30 6414 N 590.919 -2.85394 -0.54762 0
M  V30 6415 H 590.466 -2.55886 0.296667 0
M  V30 6416 H 590.424 -2.80795 -1.41427 0
M  V30 6417 N 594.196 -1.08629 -1.14182 0
M  V30 6418 C 595.612 -0.814363 -1.3726 0
M  V30 6419 C 595.812 0.575271 -1.93114 0
M  V30 6420 O 594.868 1.33165 -2.1453 0
M  V30 6421 C 596.181 -1.8989 -2.33157 0
M  V30 6422 C 597.729 -1.92518 -2.46791 0
M  V30 6423 C 598.204 -3.00092 -3.45989 0
M  V30 6424 N 599.695 -2.99279 -3.53534 0
M  V30 6425 C 600.43 -3.79158 -4.30147 0
M  V30 6426 N 599.926 -4.68923 -5.09983 0
M  V30 6427 N 601.719 -3.67451 -4.25366 0
M  V30 6428 H 593.87 -1.98232 -0.762758 0
M  V30 6429 H 596.133 -0.860383 -0.398051 0
M  V30 6430 H 595.839 -2.89809 -1.99257 0
M  V30 6431 H 595.713 -1.77013 -3.33086 0
M  V30 6432 H 598.1 -0.932425 -2.79982 0
M  V30 6433 H 598.181 -2.09473 -1.46816 0
M  V30 6434 H 597.825 -3.99575 -3.13532 0
M  V30 6435 H 597.755 -2.80382 -4.45751 0
M  V30 6436 H 600.246 -2.3422 -2.96563 0
M  V30 6437 H 600.559 -5.26475 -5.65724 0
M  V30 6438 H 598.904 -4.72964 -5.09244 0
M  V30 6439 H 602.095 -2.9669 -3.62067 0
M  V30 6440 H 602.268 -4.29944 -4.84822 0
M  V30 6441 N 595.674 1.31259 -0.872281 0
M  V30 6442 C 597.09 1.49283 -0.564521 0
M  V30 6443 C 597.29 1.80243 0.900807 0
M  V30 6444 O 596.346 1.88246 1.68284 0
M  V30 6445 C 597.659 2.62503 -1.46673 0
M  V30 6446 C 599.207 2.76386 -1.46901 0
M  V30 6447 C 599.682 3.92705 -2.35684 0
M  V30 6448 N 601.173 3.99995 -2.33577 0
M  V30 6449 C 601.908 4.89276 -2.98992 0
M  V30 6450 N 601.404 5.83443 -3.73585 0
M  V30 6451 N 603.197 4.82541 -2.88289 0
M  V30 6452 H 595.348 1.09432 -1.82039 0
M  V30 6453 H 597.611 0.540949 -0.77851 0
M  V30 6454 H 597.317 2.46407 -2.50951 0
M  V30 6455 H 597.191 3.58695 -1.16696 0
M  V30 6456 H 599.578 2.91894 -0.433796 0
M  V30 6457 H 599.659 1.80853 -1.80903 0
M  V30 6458 H 599.303 3.77954 -3.39283 0
M  V30 6459 H 599.233 4.87549 -1.99006 0
M  V30 6460 H 601.724 3.32624 -1.7936 0
M  V30 6461 H 602.037 6.48303 -4.20622 0
M  V30 6462 H 600.382 5.83415 -3.77694 0
M  V30 6463 H 603.573 4.07951 -2.2955 0
M  V30 6464 H 603.746 5.51916 -3.39549 0
M  V30 6465 N 597.152 0.631951 1.44375 0
M  V30 6466 C 598.382 0.143658 2.061 0
M  V30 6467 C 598.79 -1.18733 1.47306 0
M  V30 6468 O 598.133 -1.73943 0.590724 0
M  V30 6469 C 598.195 -0.0446102 3.59472 0
M  V30 6470 C 597.859 1.20835 4.40736 0
M  V30 6471 C 598.856 2.13224 4.74164 0
M  V30 6472 C 596.541 1.44399 4.81097 0
M  V30 6473 C 598.535 3.27487 5.46838 0
M  V30 6474 C 596.222 2.58959 5.53519 0
M  V30 6475 C 597.22 3.50329 5.86309 0
M  V30 6476 O 596.908 4.62891 6.57257 0
M  V30 6477 H 596.64 0.0772939 0.671567 0
M  V30 6478 H 599.194 0.866677 1.8622 0
M  V30 6479 H 597.424 -0.822783 3.77845 0
M  V30 6480 H 599.113 -0.487561 4.02961 0
M  V30 6481 H 599.879 1.96253 4.4352 0
M  V30 6482 H 595.758 0.741696 4.54994 0
M  V30 6483 H 599.302 3.98826 5.72349 0
M  V30 6484 H 595.199 2.75873 5.83579 0
M  V30 6485 H 595.967 4.61883 6.75726 0
M  V30 6486 N 598.631 -1.53133 0.372548 0
M  V30 6487 C 599.561 -2.28876 -0.462412 0
M  V30 6488 C 600.542 -1.31583 -1.07796 0
M  V30 6489 O 601.727 -1.60461 -1.09389 0
M  V30 6490 C 598.857 -3.08317 -1.59868 0
M  V30 6491 C 597.811 -4.13355 -1.11003 0
M  V30 6492 C 597.137 -4.8092 -2.33708 0
M  V30 6493 C 598.437 -5.21955 -0.18983 0
M  V30 6494 H 600.131 -2.9892 0.169511 0
M  V30 6495 H 597.677 -1.43761 0.0829658 0
M  V30 6496 H 599.63 -3.60055 -2.18949 0
M  V30 6497 H 598.354 -2.35976 -2.25794 0
M  V30 6498 H 597.013 -3.62573 -0.541869 0
M  V30 6499 H 596.661 -4.05144 -2.98106 0
M  V30 6500 H 596.361 -5.51904 -2.01682 0
M  V30 6501 H 597.885 -5.35455 -2.93462 0
M  V30 6502 H 599.299 -5.69153 -0.688319 0
M  V30 6503 H 597.696 -6.00087 0.0398887 0
M  V30 6504 H 598.766 -4.78811 0.766057 0
M  V30 6505 N 600.109 -0.101901 -1.5727 0
M  V30 6506 C 601.334 0.571759 -1.99363 0
M  V30 6507 C 601.759 1.60507 -0.980768 0
M  V30 6508 O 601.117 1.81231 0.0498517 0
M  V30 6509 C 601.165 1.18996 -3.404 0
M  V30 6510 O 600.269 2.30572 -3.41922 0
M  V30 6511 H 599.61 0.144449 -0.648098 0
M  V30 6512 H 602.14 -0.185325 -2.03759 0
M  V30 6513 H 602.15 1.52962 -3.78241 0
M  V30 6514 H 600.825 0.432984 -4.1364 0
M  V30 6515 H 599.402 1.98173 -3.15883 0
M  V30 6516 N 601.587 1.56661 0.17182 0
M  V30 6517 C 602.812 1.86459 0.908165 0
M  V30 6518 C 603.237 0.688181 1.75059 0
M  V30 6519 O 602.595 -0.362753 1.77634 0
M  V30 6520 C 602.643 3.14669 1.76112 0
M  V30 6521 O 601.747 2.96858 2.86268 0
M  V30 6522 H 601.088 0.613318 0.254434 0
M  V30 6523 H 603.618 2.03892 0.170113 0
M  V30 6524 H 603.628 3.46061 2.16115 0
M  V30 6525 H 602.303 3.99905 1.14233 0
M  V30 6526 H 600.88 2.76819 2.49852 0
M  V30 6527 N 603.065 -0.440357 1.51323 0
M  V30 6528 C 604.028 -1.51679 1.71832 0
M  V30 6529 C 605.028 -1.49648 0.588386 0
M  V30 6530 O 606.218 -1.51724 0.855891 0
M  V30 6531 C 603.35 -2.91228 1.77199 0
M  V30 6532 H 604.543 -1.34799 2.67898 0
M  V30 6533 H 602.096 -0.66883 1.41267 0
M  V30 6534 H 602.831 -3.13516 0.829363 0
M  V30 6535 H 602.616 -2.94107 2.59314 0
M  V30 6536 H 604.106 -3.69321 1.94915 0
M  V30 6537 N 604.543 -1.41418 -0.695603 0
M  V30 6538 C 605.491 -1.43467 -1.83084 0
M  V30 6539 C 606.485 -0.312719 -1.66489 0
M  V30 6540 O 607.691 -0.484744 -1.7335 0
M  V30 6541 H 604.066 -0.448891 -0.603325 0
M  V30 6542 H 606.037 -2.39144 -1.78473 0
M  V30 6543 C 604.786 -1.3337 -3.21104 0
M  V30 6544 H 604.109 -2.18989 -3.3449 0
M  V30 6545 H 605.549 -1.38865 -4.00615 0
M  V30 6546 C 604.008 -0.0460484 -3.36869 0
M  V30 6547 O 604.538 0.909258 -3.91274 0
M  V30 6548 N 602.744 0.0300222 -2.90584 0
M  V30 6549 H 602.291 -0.748129 -2.46497 0
M  V30 6550 H 602.249 0.890991 -3.01511 0
M  V30 6551 N 606.021 0.929856 -1.27246 0
M  V30 6552 C 607.432 1.49223 -1.12203 0
M  V30 6553 C 607.783 1.93989 0.293731 0
M  V30 6554 O 606.908 1.80978 1.18642 0
M  V30 6555 C 607.503 2.71198 -2.0307 0
M  V30 6556 C 606.062 3.23666 -1.92139 0
M  V30 6557 C 605.209 1.96409 -1.95752 0
M  V30 6558 H 608.16 0.744181 -1.4017 0
M  V30 6559 H 608.181 3.45905 -1.58524 0
M  V30 6560 H 607.693 2.38585 -3.06102 0
M  V30 6561 H 605.794 3.61042 -0.920834 0
M  V30 6562 H 605.907 3.90006 -2.78267 0
M  V30 6563 H 604.271 2.12806 -1.39949 0
M  V30 6564 H 605.054 1.66113 -3.00436 0
M  V30 6565 N 607.499 1.09233 1.13605 0
M  V30 6566 C 608.447 0.724572 2.21027 0
M  V30 6567 C 609.441 -0.273595 1.67176 0
M  V30 6568 O 610.647 -0.135266 1.79491 0
M  V30 6569 H 607.022 0.216319 0.720215 0
M  V30 6570 H 608.993 1.63975 2.49309 0
M  V30 6571 C 607.742 0.159126 3.47336 0
M  V30 6572 H 607.065 0.918387 3.89109 0
M  V30 6573 H 608.505 -0.0602851 4.23957 0
M  V30 6574 C 606.964 -1.10514 3.18258 0
M  V30 6575 O 607.494 -2.18869 3.36837 0
M  V30 6576 N 605.7 -1.01886 2.72154 0
M  V30 6577 H 605.247 -0.137027 2.57235 0
M  V30 6578 H 605.205 -1.8655 2.53074 0
M  V30 6579 N 608.977 -1.30795 0.87923 0
M  V30 6580 C 610.254 -1.91145 0.415086 0
M  V30 6581 C 610.634 -1.7995 -1.10368 0
M  V30 6582 O 609.982 -1.21305 -1.93642 0
M  V30 6583 C 610.192 -3.37014 0.906778 0
M  V30 6584 C 611.54 -4.14101 0.938358 0
M  V30 6585 O 612.564 -3.45834 0.853053 0
M  V30 6586 O 611.423 -5.36054 1.06342 0
M  V30 6587 H 608.517 -0.81736 0.125905 0
M  V30 6588 H 611.063 -1.39401 0.967753 0
M  V30 6589 H 609.835 -3.3922 1.95053 0
M  V30 6590 H 609.458 -3.96204 0.332948 0
M  V30 6591 N 610.455 -0.639598 -1.44038 0
M  V30 6592 C 611.403 0.0723409 -2.32487 0
M  V30 6593 C 612.397 0.827129 -1.47834 0
M  V30 6594 O 613.603 0.73907 -1.64127 0
M  V30 6595 H 609.978 0.0421696 -0.750817 0
M  V30 6596 H 611.949 -0.691593 -2.90275 0
M  V30 6597 C 610.698 1.03452 -3.31953 0
M  V30 6598 H 610.021 0.46315 -3.97108 0
M  V30 6599 H 611.461 1.502 -3.96505 0
M  V30 6600 C 609.92 2.12392 -2.61518 0
M  V30 6601 O 610.45 3.2059 -2.42044 0
M  V30 6602 N 608.656 1.88563 -2.21116 0
M  V30 6603 H 608.203 1.00577 -2.37154 0
M  V30 6604 H 608.161 2.61651 -1.74316 0
M  V30 6605 N 611.933 1.52934 -0.380664 0
M  V30 6606 C 613.349 1.59571 -0.0302429 0
M  V30 6607 C 613.549 1.39509 1.45394 0
M  V30 6608 O 612.605 1.20777 2.21741 0
M  V30 6609 C 613.918 2.96519 -0.499691 0
M  V30 6610 C 615.466 3.09672 -0.455204 0
M  V30 6611 C 615.941 4.49056 -0.900703 0
M  V30 6612 N 617.432 4.55215 -0.856367 0
M  V30 6613 C 618.167 5.61282 -1.17259 0
M  V30 6614 N 617.663 6.75035 -1.55885 0
M  V30 6615 N 619.456 5.51343 -1.0944 0
M  V30 6616 H 611.607 1.64224 -1.347 0
M  V30 6617 H 613.87 0.771033 -0.551554 0
M  V30 6618 H 613.576 3.16388 -1.53595 0
M  V30 6619 H 613.45 3.77052 0.105789 0
M  V30 6620 H 615.837 2.89504 0.571949 0
M  V30 6621 H 615.918 2.31113 -1.09638 0
M  V30 6622 H 615.562 4.69964 -1.92604 0
M  V30 6623 H 615.492 5.26068 -0.236629 0
M  V30 6624 H 617.983 3.73546 -0.572013 0
M  V30 6625 H 618.296 7.51926 -1.784 0
M  V30 6626 H 616.641 6.76388 -1.59764 0
M  V30 6627 H 619.832 4.61356 -0.791713 0
M  V30 6628 H 620.005 6.33905 -1.34417 0
M  V30 6629 N 613.412 0.11024 1.57214 0
M  V30 6630 C 614.64 -0.557834 1.99238 0
M  V30 6631 C 615.055 -1.60778 0.989734 0
M  V30 6632 O 614.412 -1.82491 -0.0186092 0
M  V30 6633 C 614.463 -1.19189 3.41286 0
M  V30 6634 O 614.184 -0.183919 4.37714 0
M  V30 6635 C 615.685 -1.94413 3.98395 0
M  V30 6636 H 612.905 -0.148392 0.654386 0
M  V30 6637 H 615.449 0.193996 2.03578 0
M  V30 6638 H 613.604 -1.89456 3.37913 0
M  V30 6639 H 614.018 -0.643475 5.20538 0
M  V30 6640 H 615.492 -2.34116 4.99894 0
M  V30 6641 H 615.969 -2.81592 3.3705 0
M  V30 6642 H 616.575 -1.28928 4.05287 0
M  V30 6643 N 614.89 -1.56749 -0.16351 0
M  V30 6644 C 616.115 -1.86938 -0.898264 0
M  V30 6645 C 616.54 -0.697456 -1.74692 0
M  V30 6646 O 615.898 0.353327 -1.77824 0
M  V30 6647 C 615.946 -3.15599 -1.74441 0
M  V30 6648 O 615.05 -2.98371 -2.8469 0
M  V30 6649 H 614.391 -0.614659 -0.251178 0
M  V30 6650 H 616.921 -2.03979 -0.159298 0
M  V30 6651 H 616.931 -3.47202 -2.14277 0
M  V30 6652 H 615.606 -4.00505 -1.1211 0
M  V30 6653 H 614.183 -2.7814 -2.4838 0
M  V30 6654 N 616.368 0.432326 -1.51554 0
M  V30 6655 C 617.593 1.20824 -1.68571 0
M  V30 6656 C 618.018 1.84126 -0.384596 0
M  V30 6657 O 617.376 1.69025 0.655751 0
M  V30 6658 C 617.424 2.26429 -2.80646 0
M  V30 6659 O 616.528 3.32032 -2.44598 0
M  V30 6660 H 615.869 0.353765 -0.561913 0
M  V30 6661 H 618.399 0.509916 -1.98144 0
M  V30 6662 H 618.409 2.71133 -3.04878 0
M  V30 6663 H 617.084 1.79733 -3.75058 0
M  V30 6664 H 615.661 2.92769 -2.30956 0
M  V30 6665 N 617.846 1.41785 0.688094 0
M  V30 6666 C 618.794 1.44436 1.82321 0
M  V30 6667 C 619.788 0.321544 1.6632 0
M  V30 6668 O 620.994 0.493931 1.73091 0
M  V30 6669 H 617.369 0.452084 0.600936 0
M  V30 6670 H 619.34 2.40087 1.77202 0
M  V30 6671 C 618.089 1.35071 3.20392 0
M  V30 6672 H 617.412 2.2076 3.33324 0
M  V30 6673 H 618.852 1.40988 3.99873 0
M  V30 6674 C 617.311 0.0639127 3.36839 0
M  V30 6675 O 617.841 -0.888495 3.91751 0
M  V30 6676 N 616.047 -0.0146114 2.90596 0
M  V30 6677 H 615.594 0.761191 2.46097 0
M  V30 6678 H 615.552 -0.874988 3.01979 0
M  V30 6679 N 619.324 -0.923095 1.27737 0
M  V30 6680 C 620.287 -2.00587 1.10894 0
M  V30 6681 C 621.287 -1.60718 0.0514927 0
M  V30 6682 O 622.477 -1.71658 0.296481 0
M  V30 6683 C 619.609 -3.33829 0.690717 0
M  V30 6684 H 620.802 -2.16959 2.07048 0
M  V30 6685 H 618.355 -1.10451 1.1059 0
M  V30 6686 H 619.09 -3.23157 -0.272 0
M  V30 6687 H 618.875 -3.64125 1.45448 0
M  V30 6688 H 620.365 -4.13336 0.595252 0
M  V30 6689 N 620.802 -1.09834 -1.13024 0
M  V30 6690 C 622.079 -0.749225 -1.80682 0
M  V30 6691 C 622.459 0.765171 -1.96744 0
M  V30 6692 O 621.807 1.68912 -1.53886 0
M  V30 6693 C 622.017 -1.49311 -3.15448 0
M  V30 6694 C 623.365 -1.66162 -3.90737 0
M  V30 6695 O 624.389 -1.45597 -3.25085 0
M  V30 6696 O 623.248 -2.00211 -5.08505 0
M  V30 6697 H 620.342 -0.269614 -0.781817 0
M  V30 6698 H 622.888 -1.20078 -1.19914 0
M  V30 6699 H 621.66 -2.52407 -2.99009 0
M  V30 6700 H 621.283 -1.034 -3.8392 0
M  V30 6701 N 622.28 1.30327 -0.886154 0
M  V30 6702 C 623.227 2.28099 -0.352069 0
M  V30 6703 C 624.197 1.56433 0.558397 0
M  V30 6704 O 625.382 1.84492 0.486561 0
M  V30 6705 C 622.522 3.42456 0.426346 0
M  V30 6706 C 621.635 4.28938 -0.513472 0
M  V30 6707 C 620.77 5.30458 0.280657 0
M  V30 6708 C 619.809 6.0859 -0.654556 0
M  V30 6709 N 618.946 7.02022 0.104322 0
M  V30 6710 H 623.786 2.73166 -1.19097 0
M  V30 6711 H 621.323 1.34367 -0.598662 0
M  V30 6712 H 623.281 4.07518 0.893587 0
M  V30 6713 H 621.911 2.98455 1.22981 0
M  V30 6714 H 620.963 3.64173 -1.09921 0
M  V30 6715 H 622.275 4.83399 -1.2299 0
M  V30 6716 H 621.429 6.01273 0.8097 0
M  V30 6717 H 620.168 4.76693 1.03029 0
M  V30 6718 H 619.173 5.36651 -1.19522 0
M  V30 6719 H 620.398 6.64443 -1.4033 0
M  V30 6720 H 618.344 6.50645 0.836472 0
M  V30 6721 H 618.261 7.53979 -0.552453 0
M  V30 6722 H 619.529 7.77077 0.614069 0
M  V30 6723 N 623.758 0.647228 1.43697 0
M  V30 6724 C 624.983 0.164083 2.0675 0
M  V30 6725 C 625.408 -1.15892 1.48158 0
M  V30 6726 O 624.766 -1.71459 0.589194 0
M  V30 6727 C 624.814 0.0800368 3.60511 0
M  V30 6728 O 623.918 -0.959453 4.01084 0
M  V30 6729 H 623.259 0.0921288 0.657578 0
M  V30 6730 H 625.789 0.88846 1.84303 0
M  V30 6731 H 625.799 -0.105263 4.07864 0
M  V30 6732 H 624.474 1.04586 4.02535 0
M  V30 6733 H 623.051 -0.747425 3.65333 0
M  V30 6734 N 625.236 -1.5273 0.388769 0
M  V30 6735 C 626.166 -2.29353 -0.438111 0
M  V30 6736 C 627.147 -1.32719 -1.06394 0
M  V30 6737 O 628.332 -1.61612 -1.07681 0
M  V30 6738 C 625.462 -3.09995 -1.56589 0
M  V30 6739 C 624.416 -4.14509 -1.06613 0
M  V30 6740 C 623.742 -4.83372 -2.28594 0
M  V30 6741 C 625.042 -5.22127 -0.134459 0
M  V30 6742 H 626.736 -2.98723 0.201206 0
M  V30 6743 H 624.282 -1.43665 0.0982089 0
M  V30 6744 H 626.235 -3.62357 -2.15118 0
M  V30 6745 H 624.959 -2.38357 -2.23279 0
M  V30 6746 H 623.618 -3.63128 -0.503383 0
M  V30 6747 H 623.266 -4.08283 -2.93792 0
M  V30 6748 H 622.966 -5.54012 -1.95817 0
M  V30 6749 H 624.49 -5.38538 -2.87766 0
M  V30 6750 H 625.904 -5.69851 -0.627914 0
M  V30 6751 H 624.301 -6.00011 0.103534 0
M  V30 6752 H 625.371 -4.77971 0.816798 0
M  V30 6753 N 626.714 -0.118576 -1.57153 0
M  V30 6754 C 627.646 0.862247 -2.12363 0
M  V30 6755 C 628.659 1.23025 -1.06625 0
M  V30 6756 O 629.848 1.17927 -1.33998 0
M  V30 6757 C 626.948 2.16425 -2.60794 0
M  V30 6758 C 626.121 1.96801 -3.90626 0
M  V30 6759 C 625.18 3.10726 -4.2466 0
M  V30 6760 O 624.206 2.83659 -4.93484 0
M  V30 6761 N 625.408 4.37147 -3.81946 0
M  V30 6762 H 628.173 0.390564 -2.97144 0
M  V30 6763 H 625.734 0.0658591 -1.61766 0
M  V30 6764 H 627.726 2.91633 -2.80593 0
M  V30 6765 H 626.296 2.54943 -1.80895 0
M  V30 6766 H 625.516 1.05787 -3.7974 0
M  V30 6767 H 626.804 1.80993 -4.7552 0
M  V30 6768 H 626.202 4.62014 -3.26435 0
M  V30 6769 H 624.759 5.09229 -4.06853 0
M  V30 6770 N 628.193 1.56834 0.155195 0
M  V30 6771 C 629.103 2.009 1.21146 0
M  V30 6772 C 630.119 0.923029 1.475 0
M  V30 6773 O 631.295 1.23189 1.59331 0
M  V30 6774 C 628.36 2.37378 2.52691 0
M  V30 6775 C 627.421 3.59883 2.34057 0
M  V30 6776 C 626.654 3.94612 3.59329 0
M  V30 6777 O 626.877 3.30104 4.65175 0
M  V30 6778 O 625.811 4.87895 3.52479 0
M  V30 6779 H 629.637 2.9105 0.867371 0
M  V30 6780 H 627.222 1.44916 0.363298 0
M  V30 6781 H 629.104 2.61737 3.3026 0
M  V30 6782 H 627.779 1.50385 2.86646 0
M  V30 6783 H 626.686 3.40722 1.54465 0
M  V30 6784 H 628.019 4.47468 2.0502 0
M  V30 6785 N 629.671 -0.424282 1.51781 0
M  V30 6786 C 630.896 -1.19928 1.6921 0
M  V30 6787 C 631.321 -1.8392 0.394355 0
M  V30 6788 O 630.679 -1.69371 -0.646778 0
M  V30 6789 C 630.727 -2.24937 2.81843 0
M  V30 6790 O 629.831 -3.3073 2.46356 0
M  V30 6791 H 629.172 -0.35078 0.563781 0
M  V30 6792 H 631.702 -0.499401 1.98412 0
M  V30 6793 H 631.712 -2.69512 3.06312 0
M  V30 6794 H 630.387 -1.77742 3.76006 0
M  V30 6795 H 628.964 -2.9154 2.32505 0
M  V30 6796 N 631.149 -1.42148 -0.680565 0
M  V30 6797 C 632.079 -1.4796 -1.80638 0
M  V30 6798 C 633.06 -0.336728 -1.66734 0
M  V30 6799 O 634.245 -0.550247 -1.86242 0
M  V30 6800 C 631.375 -1.37569 -3.18892 0
M  V30 6801 C 630.329 -2.49823 -3.47524 0
M  V30 6802 C 629.655 -2.24491 -4.85291 0
M  V30 6803 C 630.955 -3.92144 -3.44994 0
M  V30 6804 H 632.649 -2.42184 -1.76032 0
M  V30 6805 H 630.195 -1.16566 -0.845481 0
M  V30 6806 H 632.148 -1.40243 -3.97379 0
M  V30 6807 H 630.872 -0.398357 -3.24162 0
M  V30 6808 H 629.531 -2.46455 -2.71395 0
M  V30 6809 H 629.179 -1.25066 -4.87204 0
M  V30 6810 H 628.879 -2.99722 -5.05411 0
M  V30 6811 H 630.403 -2.28906 -5.66069 0
M  V30 6812 H 631.817 -3.97145 -4.13459 0
M  V30 6813 H 630.214 -4.67179 -3.76648 0
M  V30 6814 H 631.284 -4.19225 -2.43676 0
M  V30 6815 N 632.627 0.916307 -1.28225 0
M  V30 6816 C 633.559 2.02303 -1.07732 0
M  V30 6817 C 634.572 1.62773 -0.0298421 0
M  V30 6818 O 635.761 1.76406 -0.272626 0
M  V30 6819 C 632.861 3.33282 -0.614504 0
M  V30 6820 C 632.034 4.01439 -1.73682 0
M  V30 6821 C 631.093 5.10698 -1.26781 0
M  V30 6822 O 630.119 5.34038 -1.96958 0
M  V30 6823 N 631.321 5.80355 -0.129624 0
M  V30 6824 H 634.086 2.20442 -2.03041 0
M  V30 6825 H 631.647 1.08744 -1.19943 0
M  V30 6826 H 633.639 4.03699 -0.284397 0
M  V30 6827 H 632.209 3.11633 0.245664 0
M  V30 6828 H 631.429 3.24604 -2.23665 0
M  V30 6829 H 632.717 4.43721 -2.48976 0
M  V30 6830 H 632.115 5.6386 0.455847 0
M  V30 6831 H 630.672 6.51647 0.141224 0
M  V30 6832 N 634.105 1.10431 1.1244 0
M  V30 6833 C 635.052 0.753103 2.18167 0
M  V30 6834 C 636.022 -0.270549 1.63882 0
M  V30 6835 O 637.207 -0.149837 1.90211 0
M  V30 6836 C 634.347 0.191046 3.44571 0
M  V30 6837 C 633.46 1.26999 4.12911 0
M  V30 6838 C 632.595 0.669586 5.26963 0
M  V30 6839 C 631.634 1.72912 5.87169 0
M  V30 6840 N 630.771 1.14898 6.92635 0
M  V30 6841 H 635.611 1.65892 2.47556 0
M  V30 6842 H 633.148 0.828631 1.21541 0
M  V30 6843 H 635.106 -0.152712 4.1692 0
M  V30 6844 H 633.736 -0.677997 3.15599 0
M  V30 6845 H 632.788 1.73087 3.3874 0
M  V30 6846 H 634.1 2.07204 4.53727 0
M  V30 6847 H 633.254 0.275274 6.06075 0
M  V30 6848 H 631.993 -0.163895 4.87425 0
M  V30 6849 H 630.998 2.13286 5.06744 0
M  V30 6850 H 632.223 2.56544 6.28778 0
M  V30 6851 H 630.169 0.336956 6.55134 0
M  V30 6852 H 630.086 1.88786 7.32049 0
M  V30 6853 H 631.354 0.78121 7.75576 0
M  V30 6854 N 635.583 -1.29855 0.893053 0
M  V30 6855 C 636.811 -1.99976 0.530788 0
M  V30 6856 C 637.226 -1.66889 -0.882799 0
M  V30 6857 O 636.583 -0.910352 -1.58173 0
M  V30 6858 C 636.634 -3.54547 0.705587 0
M  V30 6859 O 636.355 -3.86458 2.06353 0
M  V30 6860 C 637.856 -4.41937 0.347387 0
M  V30 6861 H 635.076 -0.639129 0.204339 0
M  V30 6862 H 637.62 -1.65549 1.20057 0
M  V30 6863 H 635.775 -3.87311 0.0830685 0
M  V30 6864 H 636.189 -4.81146 2.08803 0
M  V30 6865 H 637.663 -5.4954 0.520557 0
M  V30 6866 H 638.14 -4.33339 -0.715139 0
M  V30 6867 H 638.746 -4.14633 0.946567 0
M  V30 6868 N 637.061 -0.65484 -1.43351 0
M  V30 6869 C 638.31 -0.166215 -2.01014 0
M  V30 6870 C 638.623 1.22764 -1.52278 0
M  V30 6871 O 639.829 1.81156 -2.02224 0
M  V30 6872 C 638.285 -0.246341 -3.59056 0
M  V30 6873 C 637.893 -1.64299 -4.16785 0
M  V30 6874 C 639.637 0.184597 -4.24098 0
M  V30 6875 C 637.544 -1.67695 -5.67126 0
M  V30 6876 H 636.474 -0.0583769 -0.751737 0
M  V30 6877 H 639.125 -0.817111 -1.64303 0
M  V30 6878 H 637.507 0.472092 -3.93176 0
M  V30 6879 H 638.681 -2.3869 -3.94162 0
M  V30 6880 H 636.996 -2.02004 -3.6412 0
M  V30 6881 H 639.593 0.179088 -5.344 0
M  V30 6882 H 639.936 1.21632 -3.98135 0
M  V30 6883 H 640.469 -0.482141 -3.94867 0
M  V30 6884 H 637.208 -2.68783 -5.9786 0
M  V30 6885 H 636.728 -0.976313 -5.91801 0
M  V30 6886 H 638.407 -1.42142 -6.31193 0
M  V30 6887 N 638.539 1.52521 -0.396863 0
M  V30 6888 C 639.769 2.05792 0.182485 0
M  V30 6889 C 640.177 1.26784 1.40436 0
M  V30 6890 O 639.52 0.309617 1.81072 0
M  V30 6891 C 639.582 3.54291 0.609781 0
M  V30 6892 C 639.246 4.5426 -0.499674 0
M  V30 6893 C 640.243 5.01812 -1.35944 0
M  V30 6894 C 637.928 4.97827 -0.668864 0
M  V30 6895 C 639.922 5.91562 -2.37346 0
M  V30 6896 C 637.609 5.87376 -1.68621 0
M  V30 6897 C 638.607 6.34137 -2.53692 0
M  V30 6898 O 638.295 7.21915 -3.53686 0
M  V30 6899 H 638.027 0.675362 0.0293583 0
M  V30 6900 H 640.581 1.97539 -0.56281 0
M  V30 6901 H 638.811 3.60188 1.40717 0
M  V30 6902 H 640.5 3.90267 1.11565 0
M  V30 6903 H 641.266 4.68879 -1.24008 0
M  V30 6904 H 637.145 4.60997 -0.0163971 0
M  V30 6905 H 640.689 6.27983 -3.03782 0
M  V30 6906 H 636.586 6.19723 -1.80593 0
M  V30 6907 H 637.354 7.39996 -3.49784 0
M  V30 6908 N 640.017 0.126909 1.57088 0
M  V30 6909 C 640.964 -0.82036 2.15728 0
M  V30 6910 C 641.934 -1.25811 1.08447 0
M  V30 6911 O 643.119 -1.33422 1.36393 0
M  V30 6912 C 640.259 -2.06199 2.76724 0
M  V30 6913 C 639.372 -1.67188 3.98337 0
M  V30 6914 C 638.507 -2.86378 4.47393 0
M  V30 6915 C 637.546 -2.43644 5.61519 0
M  V30 6916 N 636.683 -3.55775 6.05284 0
M  V30 6917 H 641.523 -0.313472 2.96347 0
M  V30 6918 H 639.06 -0.14303 1.46403 0
M  V30 6919 H 641.018 -2.78959 3.10222 0
M  V30 6920 H 639.648 -2.54333 1.98782 0
M  V30 6921 H 638.7 -0.842714 3.70948 0
M  V30 6922 H 640.012 -1.31789 4.81075 0
M  V30 6923 H 639.166 -3.67353 4.82842 0
M  V30 6924 H 637.905 -3.25009 3.63621 0
M  V30 6925 H 636.91 -1.61104 5.25667 0
M  V30 6926 H 638.135 -2.06122 6.47063 0
M  V30 6927 H 636.081 -3.94065 5.24451 0
M  V30 6928 H 635.998 -3.24325 6.82898 0
M  V30 6929 H 637.266 -4.37166 6.45373 0
M  V30 6930 N 641.495 -1.56914 -0.146875 0
M  V30 6931 C 642.425 -2.01308 -1.1831 0
M  V30 6932 C 643.406 -0.892664 -1.44795 0
M  V30 6933 O 644.591 -1.16048 -1.55713 0
M  V30 6934 C 641.721 -2.3938 -2.51624 0
M  V30 6935 C 640.675 -3.54608 -2.3966 0
M  V30 6936 C 640.001 -3.78493 -3.77686 0
M  V30 6937 C 641.301 -4.87269 -1.88058 0
M  V30 6938 H 642.995 -2.88123 -0.813964 0
M  V30 6939 H 640.541 -1.38615 -0.3901 0
M  V30 6940 H 642.494 -2.69037 -3.24341 0
M  V30 6941 H 641.218 -1.49502 -2.90373 0
M  V30 6942 H 639.877 -3.25116 -1.69396 0
M  V30 6943 H 639.525 -2.85866 -4.13871 0
M  V30 6944 H 639.225 -4.56039 -3.70543 0
M  V30 6945 H 640.749 -4.10576 -4.51951 0
M  V30 6946 H 642.163 -5.15644 -2.50568 0
M  V30 6947 H 640.56 -5.68622 -1.91805 0
M  V30 6948 H 641.63 -4.77634 -0.836277 0
M  V30 6949 N 642.974 0.416227 -1.52004 0
M  V30 6950 C 643.884 1.53147 -1.77717 0
M  V30 6951 C 644.9 1.609 -0.662368 0
M  V30 6952 O 646.076 1.77747 -0.946991 0
M  V30 6953 C 643.141 2.88948 -1.91598 0
M  V30 6954 C 642.202 2.9114 -3.15493 0
M  V30 6955 C 641.435 4.20464 -3.28703 0
M  V30 6956 O 641.658 5.13981 -2.47345 0
M  V30 6957 O 640.592 4.29368 -4.21813 0
M  V30 6958 H 644.418 1.34357 -2.72363 0
M  V30 6959 H 642.003 0.601373 -1.36762 0
M  V30 6960 H 643.885 3.69505 -2.02593 0
M  V30 6961 H 642.56 3.07821 -1.00141 0
M  V30 6962 H 641.467 2.09461 -3.09962 0
M  V30 6963 H 642.8 2.77216 -4.06709 0
M  V30 6964 N 644.452 1.42507 0.673017 0
M  V30 6965 C 645.362 1.4853 1.81593 0
M  V30 6966 C 646.378 0.373907 1.69935 0
M  V30 6967 O 647.554 0.625078 1.91454 0
M  V30 6968 C 644.619 1.387 3.17747 0
M  V30 6969 C 643.68 2.60346 3.41348 0
M  V30 6970 C 642.913 2.50975 4.71007 0
M  V30 6971 O 643.136 1.54659 5.49033 0
M  V30 6972 O 642.07 3.41138 4.95892 0
M  V30 6973 H 645.896 2.45001 1.79467 0
M  V30 6974 H 643.481 1.2429 0.82899 0
M  V30 6975 H 645.363 1.35586 3.98992 0
M  V30 6976 H 644.038 0.453555 3.20507 0
M  V30 6977 H 642.945 2.69034 2.59945 0
M  V30 6978 H 644.278 3.52595 3.43421 0
M  V30 6979 N 645.93 -0.909495 1.28709 0
M  V30 6980 C 646.862 -2.01729 1.08804 0
M  V30 6981 C 647.875 -1.62755 0.0384739 0
M  V30 6982 O 649.064 -1.76259 0.281977 0
M  V30 6983 C 646.164 -3.32952 0.63217 0
M  V30 6984 C 645.337 -4.00512 1.75809 0
M  V30 6985 C 644.396 -5.10019 1.29488 0
M  V30 6986 O 643.422 -5.32986 1.99787 0
M  V30 6987 N 644.624 -5.80278 0.1604 0
M  V30 6988 H 647.389 -2.19362 2.04207 0
M  V30 6989 H 644.95 -1.08106 1.20518 0
M  V30 6990 H 646.942 -4.03543 0.305802 0
M  V30 6991 H 645.512 -3.11759 -0.229134 0
M  V30 6992 H 644.732 -3.23413 2.25383 0
M  V30 6993 H 646.02 -4.42395 2.51325 0
M  V30 6994 H 645.418 -5.64094 -0.425937 0
M  V30 6995 H 643.975 -6.51713 -0.106663 0
M  V30 6996 N 647.408 -1.11026 -1.11852 0
M  V30 6997 C 648.338 -0.786812 -2.19844 0
M  V30 6998 C 649.319 0.242935 -1.68356 0
M  V30 6999 O 650.504 0.107355 -1.93903 0
M  V30 7000 C 647.634 -0.224516 -3.46574 0
M  V30 7001 C 646.588 -1.18564 -4.1125 0
M  V30 7002 C 645.914 -0.484261 -5.32503 0
M  V30 7003 C 647.214 -2.53465 -4.56676 0
M  V30 7004 H 648.908 -1.68978 -2.47158 0
M  V30 7005 H 646.454 -0.813906 -1.18792 0
M  V30 7006 H 648.407 0.0139435 -4.21398 0
M  V30 7007 H 647.131 0.713722 -3.18706 0
M  V30 7008 H 645.79 -1.40966 -3.38414 0
M  V30 7009 H 645.438 0.458646 -5.00905 0
M  V30 7010 H 645.138 -1.12526 -5.76725 0
M  V30 7011 H 646.662 -0.254492 -6.10069 0
M  V30 7012 H 648.076 -2.35177 -5.22843 0
M  V30 7013 H 646.473 -3.13507 -5.11697 0
M  V30 7014 H 647.543 -3.13008 -3.70343 0
M  V30 7015 N 648.886 1.2938 -0.899927 0
M  V30 7016 C 649.836 2.25311 -0.349165 0
M  V30 7017 C 650.82 1.51889 0.530892 0
M  V30 7018 O 652.012 1.73028 0.372872 0
M  V30 7019 C 649.141 3.40696 0.422055 0
M  V30 7020 C 648.227 4.21455 -0.472935 0
M  V30 7021 N 648.618 4.8048 -1.58026 0
M  V30 7022 C 646.916 4.45177 -0.270767 0
M  V30 7023 C 647.617 5.41117 -2.13465 0
M  V30 7024 N 646.593 5.24518 -1.42766 0
M  V30 7025 H 650.395 2.68507 -1.19505 0
M  V30 7026 H 647.909 1.43992 -0.751006 0
M  V30 7027 H 649.906 4.08486 0.833369 0
M  V30 7028 H 648.566 2.99037 1.2652 0
M  V30 7029 H 649.577 4.79257 -1.96299 0
M  V30 7030 H 646.254 4.14071 0.533988 0
M  V30 7031 H 647.644 5.979 -3.06537 0
M  V30 7032 N 650.364 0.662433 1.43002 0
M  V30 7033 C 651.312 -0.035345 2.32573 0
M  V30 7034 C 652.306 -0.803505 1.49131 0
M  V30 7035 O 653.512 -0.712865 1.65282 0
M  V30 7036 H 649.887 -0.0302194 0.751393 0
M  V30 7037 H 651.858 0.737686 2.89138 0
M  V30 7038 C 650.607 -0.981575 3.33557 0
M  V30 7039 H 649.93 -0.399914 3.97795 0
M  V30 7040 H 651.37 -1.43873 3.98844 0
M  V30 7041 C 649.829 -2.08204 2.64863 0
M  V30 7042 O 650.359 -3.16698 2.47113 0
M  V30 7043 N 648.565 -1.85022 2.24088 0
M  V30 7044 H 648.112 -0.967909 2.38724 0
M  V30 7045 H 648.07 -2.58845 1.78457 0
M  V30 7046 N 651.842 -1.52309 0.404946 0
M  V30 7047 C 652.752 -2.30634 -0.429555 0
M  V30 7048 C 653.768 -1.38187 -1.05737 0
M  V30 7049 O 654.944 -1.71261 -1.05979 0
M  V30 7050 C 652.009 -3.10947 -1.53339 0
M  V30 7051 C 651.07 -4.19126 -0.929065 0
M  V30 7052 C 650.303 -4.95601 -1.9803 0
M  V30 7053 O 650.526 -4.72331 -3.1978 0
M  V30 7054 O 649.46 -5.80551 -1.58886 0
M  V30 7055 H 653.286 -3.0298 0.208963 0
M  V30 7056 H 650.871 -1.4845 0.168255 0
M  V30 7057 H 652.753 -3.60974 -2.1743 0
M  V30 7058 H 651.428 -2.41399 -2.15658 0
M  V30 7059 H 650.335 -3.73257 -0.250982 0
M  V30 7060 H 651.668 -4.90955 -0.349855 0
M  V30 7061 N 653.32 -0.135238 -1.57019 0
M  V30 7062 C 654.253 0.846618 -2.11914 0
M  V30 7063 C 655.231 1.25019 -1.03966 0
M  V30 7064 O 656.415 1.34838 -1.31723 0
M  V30 7065 C 653.542 2.1352 -2.6292 0
M  V30 7066 C 652.588 1.87846 -3.82905 0
M  V30 7067 S 653.421 1.08005 -5.24495 0
M  V30 7068 C 654.577 2.38008 -5.78881 0
M  V30 7069 H 654.81 0.379752 -2.94865 0
M  V30 7070 H 652.343 0.0788387 -1.54199 0
M  V30 7071 H 654.301 2.87551 -2.92958 0
M  V30 7072 H 652.962 2.57323 -1.80121 0
M  V30 7073 H 652.155 2.83365 -4.16797 0
M  V30 7074 H 651.757 1.21929 -3.53567 0
M  V30 7075 H 654.049 3.33742 -5.89595 0
M  V30 7076 H 654.992 2.08638 -6.76665 0
M  V30 7077 H 655.4 2.48119 -5.07048 0
M  V30 7078 N 654.798 1.5699 0.138552 0
M  V30 7079 C 655.73 1.95515 1.1961 0
M  V30 7080 C 656.743 0.852002 1.38726 0
M  V30 7081 O 657.932 1.13038 1.38147 0
M  V30 7082 C 655.032 2.2213 2.55952 0
M  V30 7083 C 654.205 3.53424 2.57702 0
M  V30 7084 C 653.264 3.6848 3.75645 0
M  V30 7085 O 652.29 4.4079 3.60129 0
M  V30 7086 N 653.492 3.05777 4.93438 0
M  V30 7087 H 656.257 2.86838 0.868557 0
M  V30 7088 H 653.818 1.58542 0.328033 0
M  V30 7089 H 655.81 2.29435 3.33379 0
M  V30 7090 H 654.38 1.3703 2.80965 0
M  V30 7091 H 653.6 3.57484 1.6613 0
M  V30 7092 H 654.888 4.39759 2.55909 0
M  V30 7093 H 654.286 2.46961 5.08947 0
M  V30 7094 H 652.843 3.18631 5.6861 0
M  V30 7095 N 656.276 -0.40816 1.52223 0
M  V30 7096 C 657.206 -1.5042 1.78595 0
M  V30 7097 C 658.187 -1.57723 0.636974 0
M  V30 7098 O 659.372 -1.72982 0.882664 0
M  V30 7099 C 656.502 -2.88232 1.93751 0
M  V30 7100 C 655.456 -2.95779 3.09352 0
M  V30 7101 C 654.782 -4.35855 3.09732 0
M  V30 7102 C 656.082 -2.67175 4.48793 0
M  V30 7103 H 657.776 -1.28601 2.70374 0
M  V30 7104 H 655.322 -0.617221 1.30101 0
M  V30 7105 H 657.275 -3.64895 2.10783 0
M  V30 7106 H 655.999 -3.11347 0.986443 0
M  V30 7107 H 654.658 -2.21561 2.92072 0
M  V30 7108 H 654.306 -4.55981 2.12346 0
M  V30 7109 H 654.006 -4.41829 3.87377 0
M  V30 7110 H 655.53 -5.14451 3.28895 0
M  V30 7111 H 656.944 -3.3356 4.66273 0
M  V30 7112 H 655.341 -2.84523 5.28362 0
M  V30 7113 H 656.411 -1.62609 4.56822 0
M  V30 7114 N 657.755 -1.42862 -0.66545 0
M  V30 7115 C 658.702 -1.4707 -1.77874 0
M  V30 7116 C 659.672 -0.321654 -1.62956 0
M  V30 7117 O 660.857 -0.52707 -1.83376 0
M  V30 7118 C 657.997 -1.38788 -3.15962 0
M  V30 7119 C 657.11 -2.63801 -3.42101 0
M  V30 7120 C 656.245 -2.47594 -4.69969 0
M  V30 7121 C 655.284 -3.67936 -4.89172 0
M  V30 7122 N 654.421 -3.50614 -6.08288 0
M  V30 7123 H 659.261 -2.42204 -1.73613 0
M  V30 7124 H 656.798 -1.20239 -0.847401 0
M  V30 7125 H 658.756 -1.31982 -3.95773 0
M  V30 7126 H 657.386 -0.472431 -3.19324 0
M  V30 7127 H 656.438 -2.80935 -2.56475 0
M  V30 7128 H 657.75 -3.53228 -3.52181 0
M  V30 7129 H 656.904 -2.38427 -5.57886 0
M  V30 7130 H 655.643 -1.55672 -4.62188 0
M  V30 7131 H 654.648 -3.77525 -3.99694 0
M  V30 7132 H 655.873 -4.60851 -4.98792 0
M  V30 7133 H 653.819 -2.61417 -6.01662 0
M  V30 7134 H 653.736 -4.33634 -6.19272 0
M  V30 7135 H 655.004 -3.45276 -6.98859 0
M  V30 7136 N 659.233 0.902656 -1.29189 0
M  V30 7137 C 660.51 1.63296 -1.07674 0
M  V30 7138 C 660.89 2.07649 0.380137 0
M  V30 7139 O 660.238 1.82997 1.36837 0
M  V30 7140 C 660.448 2.81603 -2.06158 0
M  V30 7141 C 661.796 3.52359 -2.36914 0
M  V30 7142 O 662.82 2.91767 -2.04329 0
M  V30 7143 O 661.679 4.61586 -2.92576 0
M  V30 7144 H 658.773 0.716889 -0.41231 0
M  V30 7145 H 661.319 0.950984 -1.4055 0
M  V30 7146 H 660.091 2.46004 -3.04299 0
M  V30 7147 H 659.714 3.57508 -1.73993 0
M  V30 7148 N 660.711 1.11618 1.11262 0
M  V30 7149 C 661.621 0.78898 2.20935 0
M  V30 7150 C 662.637 -0.21867 1.7262 0
M  V30 7151 O 663.813 -0.0543826 2.01327 0
M  V30 7152 C 660.878 0.239014 3.45875 0
M  V30 7153 C 659.939 1.3055 4.08968 0
M  V30 7154 C 659.172 0.781687 5.27944 0
M  V30 7155 O 659.395 -0.387605 5.69082 0
M  V30 7156 O 658.329 1.54734 5.81671 0
M  V30 7157 H 662.155 1.70477 2.51339 0
M  V30 7158 H 659.74 0.892203 1.19834 0
M  V30 7159 H 661.622 -0.0632312 4.21353 0
M  V30 7160 H 660.297 -0.649454 3.17118 0
M  V30 7161 H 659.204 1.66079 3.35214 0
M  V30 7162 H 660.537 2.16743 4.41909 0
M  V30 7163 N 662.189 -1.289 0.906776 0
M  V30 7164 C 663.122 -2.25737 0.334362 0
M  V30 7165 C 664.1 -1.52745 -0.557474 0
M  V30 7166 O 665.284 -1.81673 -0.502697 0
M  V30 7167 C 662.411 -3.34642 -0.522716 0
M  V30 7168 C 661.457 -4.25424 0.302777 0
M  V30 7169 S 662.29 -5.07629 1.70508 0
M  V30 7170 C 663.446 -6.20031 0.855118 0
M  V30 7171 H 663.679 -2.73941 1.15514 0
M  V30 7172 H 661.212 -1.37233 0.707573 0
M  V30 7173 H 663.17 -3.97845 -1.01141 0
M  V30 7174 H 661.831 -2.85119 -1.31781 0
M  V30 7175 H 661.024 -5.02767 -0.352257 0
M  V30 7176 H 660.626 -3.66908 0.724873 0
M  V30 7177 H 662.918 -6.77451 0.0816418 0
M  V30 7178 H 663.861 -6.89767 1.60087 0
M  V30 7179 H 664.269 -5.63035 0.406375 0
M  V30 7180 N 663.667 -0.670007 -1.42649 0
M  V30 7181 C 664.577 0.0114788 -2.34597 0
M  V30 7182 C 665.593 0.794055 -1.54825 0
M  V30 7183 O 666.769 0.737472 -1.87412 0
M  V30 7184 C 663.834 0.954436 -3.33304 0
M  V30 7185 C 662.895 0.166925 -4.28975 0
M  V30 7186 C 662.128 1.06497 -5.22967 0
M  V30 7187 O 662.351 2.30446 -5.21777 0
M  V30 7188 O 661.285 0.528347 -5.99577 0
M  V30 7189 H 665.111 -0.745794 -2.944 0
M  V30 7190 H 662.696 -0.430228 -1.43071 0
M  V30 7191 H 664.578 1.49589 -3.93956 0
M  V30 7192 H 663.253 1.69164 -2.7598 0
M  V30 7193 H 662.16 -0.418515 -3.71752 0
M  V30 7194 H 663.493 -0.531067 -4.89327 0
M  V30 7195 N 665.145 1.52092 -0.413018 0
M  V30 7196 C 666.077 2.24819 0.445994 0
M  V30 7197 C 667.09 1.27925 1.00692 0
M  V30 7198 O 668.279 1.53845 0.905204 0
M  V30 7199 C 665.379 2.96951 1.6332 0
M  V30 7200 C 664.552 4.20746 1.19548 0
M  V30 7201 C 663.611 4.75668 2.25003 0
M  V30 7202 O 662.637 5.38148 1.85434 0
M  V30 7203 N 663.839 4.57579 3.57214 0
M  V30 7204 H 666.604 2.99176 -0.177209 0
M  V30 7205 H 664.165 1.60102 -0.240601 0
M  V30 7206 H 666.157 3.30586 2.33441 0
M  V30 7207 H 664.727 2.25756 2.16225 0
M  V30 7208 H 663.947 3.92881 0.32224 0
M  V30 7209 H 665.235 5.01132 0.880033 0
M  V30 7210 H 664.633 4.07758 3.92109 0
M  V30 7211 H 663.19 4.95642 4.23299 0
M  V30 7212 N 666.623 0.143563 1.56945 0
M  V30 7213 C 667.57 -0.797433 2.16586 0
M  V30 7214 C 668.54 -1.24654 1.09775 0
M  V30 7215 O 669.725 -1.31968 1.37801 0
M  V30 7216 C 666.865 -2.03253 2.78895 0
M  V30 7217 C 665.978 -1.62954 4.00087 0
M  V30 7218 C 665.113 -2.81617 4.50406 0
M  V30 7219 C 664.152 -2.37675 5.64072 0
M  V30 7220 N 663.289 -3.49335 6.09023 0
M  V30 7221 H 668.129 -0.282023 2.96662 0
M  V30 7222 H 665.666 -0.127494 1.46546 0
M  V30 7223 H 667.624 -2.75653 3.13163 0
M  V30 7224 H 666.254 -2.52211 2.01469 0
M  V30 7225 H 665.306 -0.803322 3.71821 0
M  V30 7226 H 666.618 -1.26679 4.82446 0
M  V30 7227 H 665.772 -3.62212 4.86711 0
M  V30 7228 H 664.511 -3.21134 3.67048 0
M  V30 7229 H 663.516 -1.55519 5.27346 0
M  V30 7230 H 664.741 -1.99247 6.49213 0
M  V30 7231 H 662.687 -3.8848 5.28601 0
M  V30 7232 H 662.604 -3.17064 6.86299 0
M  V30 7233 H 663.872 -4.30297 6.49973 0
M  V30 7234 N 668.101 -1.57061 -0.130224 0
M  V30 7235 C 669.341 -1.86071 -0.845993 0
M  V30 7236 C 669.705 -0.73009 -1.77577 0
M  V30 7237 O 670.906 -0.901663 -2.53226 0
M  V30 7238 C 669.177 -3.20293 -1.58579 0
M  V30 7239 S 670.736 -3.70905 -2.34467 0
M  V30 7240 H 667.554 -0.652434 -0.282579 0
M  V30 7241 H 670.156 -1.95218 -0.10498 0
M  V30 7242 H 668.86 -4.00533 -0.894509 0
M  V30 7243 H 668.391 -3.14195 -2.36739 0
M  V30 7244 H 670.406 -3.41509 -3.59981 0
M  V30 7245 N 669.579 0.400081 -1.52437 0
M  V30 7246 C 670.995 0.739359 -1.41441 0
M  V30 7247 C 671.195 1.94512 -0.526053 0
M  V30 7248 O 670.251 2.525 0.00472502 0
M  V30 7249 C 671.564 0.984824 -2.84116 0
M  V30 7250 C 673.112 1.08698 -2.93519 0
M  V30 7251 C 673.587 1.36515 -4.37181 0
M  V30 7252 N 675.078 1.43361 -4.40457 0
M  V30 7253 C 675.813 1.66528 -5.48686 0
M  V30 7254 N 675.309 1.87239 -6.67018 0
M  V30 7255 N 677.102 1.68617 -5.36213 0
M  V30 7256 H 669.253 -0.393484 -2.08723 0
M  V30 7257 H 671.516 -0.1138 -0.941145 0
M  V30 7258 H 671.222 0.171096 -3.51284 0
M  V30 7259 H 671.096 1.90253 -3.25705 0
M  V30 7260 H 673.483 1.89129 -2.26526 0
M  V30 7261 H 673.564 0.147432 -2.55375 0
M  V30 7262 H 673.208 0.565982 -5.04737 0
M  V30 7263 H 673.138 2.31737 -4.7287 0
M  V30 7264 H 675.629 1.29108 -3.55161 0
M  V30 7265 H 675.942 2.04392 -7.45281 0
M  V30 7266 H 674.287 1.84486 -6.70067 0
M  V30 7267 H 677.478 1.5198 -4.42741 0
M  V30 7268 H 677.651 1.86332 -6.20632 0
M  V30 7269 N 671.057 1.43213 0.657864 0
M  V30 7270 C 672.285 1.48015 1.44566 0
M  V30 7271 C 672.7 0.0965951 1.88553 0
M  V30 7272 O 672.057 -0.892221 1.59203 0
M  V30 7273 C 672.108 2.42199 2.68369 0
M  V30 7274 O 671.829 3.75173 2.26223 0
M  V30 7275 C 673.33 2.56195 3.61772 0
M  V30 7276 H 670.55 0.502861 0.444266 0
M  V30 7277 H 673.094 1.87907 0.806917 0
M  V30 7278 H 671.249 2.05514 3.28394 0
M  V30 7279 H 671.663 4.25776 3.06293 0
M  V30 7280 H 673.137 3.26182 4.4532 0
M  V30 7281 H 673.614 1.60534 4.0881 0
M  V30 7282 H 674.22 2.93671 3.07632 0
M  V30 7283 N 672.536 -0.895792 1.29666 0
M  V30 7284 C 673.761 -1.68528 1.20885 0
M  V30 7285 C 674.186 -1.8673 -0.226595 0
M  V30 7286 O 673.544 -1.39044 -1.16347 0
M  V30 7287 C 673.592 -3.04512 1.93144 0
M  V30 7288 O 672.696 -3.92963 1.25115 0
M  V30 7289 H 672.037 -0.515371 0.418675 0
M  V30 7290 H 674.567 -1.11878 1.71302 0
M  V30 7291 H 674.577 -3.54628 2.0175 0
M  V30 7292 H 673.252 -2.90582 2.97548 0
M  V30 7293 H 671.829 -3.51399 1.24794 0
M  V30 7294 N 674.014 -1.12206 -1.10668 0
M  V30 7295 C 674.962 -0.782918 -2.19028 0
M  V30 7296 C 675.956 0.229175 -1.67843 0
M  V30 7297 O 677.162 0.0876295 -1.79787 0
M  V30 7298 H 673.537 -0.235339 -0.714227 0
M  V30 7299 H 675.508 -1.70527 -2.44874 0
M  V30 7300 C 674.257 -0.25116 -3.46792 0
M  V30 7301 H 673.58 -1.02123 -3.86537 0
M  V30 7302 H 675.02 -0.0521409 -4.23968 0
M  V30 7303 C 673.479 1.02037 -3.21076 0
M  V30 7304 O 674.009 2.09862 -3.42522 0
M  V30 7305 N 672.215 0.946348 -2.74759 0
M  V30 7306 H 671.762 0.068777 -2.57508 0
M  V30 7307 H 671.72 1.79775 -2.57931 0
M  V30 7308 N 675.492 1.28418 -0.913599 0
M  V30 7309 C 676.741 1.94265 -0.542572 0
M  V30 7310 C 677.054 1.72709 0.918207 0
M  V30 7311 O 678.26 2.32778 1.39738 0
M  V30 7312 C 676.716 3.47956 -0.919507 0
M  V30 7313 C 676.324 3.78291 -2.4 0
M  V30 7314 C 678.068 4.19962 -0.619057 0
M  V30 7315 C 675.975 5.2529 -2.71707 0
M  V30 7316 H 674.905 0.727213 -0.199192 0
M  V30 7317 H 677.556 1.45931 -1.11249 0
M  V30 7318 H 675.938 3.9502 -0.278372 0
M  V30 7319 H 677.112 3.42035 -3.08786 0
M  V30 7320 H 675.427 3.19456 -2.67089 0
M  V30 7321 H 678.024 5.28178 -0.832623 0
M  V30 7322 H 678.367 4.13935 0.443126 0
M  V30 7323 H 678.9 3.78674 -1.21865 0
M  V30 7324 H 675.639 5.36394 -3.76778 0
M  V30 7325 H 675.159 5.62743 -2.07559 0
M  V30 7326 H 676.838 5.93027 -2.58703 0
M  V30 7327 N 676.97 0.677563 1.42291 0
M  V30 7328 C 677.917 0.000947061 2.308 0
M  V30 7329 C 678.887 -0.789889 1.46116 0
M  V30 7330 O 680.072 -0.761578 1.74942 0
M  V30 7331 C 677.212 -0.942387 3.31984 0
M  V30 7332 C 676.325 -0.14508 4.31756 0
M  V30 7333 C 675.46 -1.08442 5.20013 0
M  V30 7334 C 674.499 -0.278958 6.11464 0
M  V30 7335 N 673.636 -1.17115 6.92263 0
M  V30 7336 H 678.476 0.761521 2.88106 0
M  V30 7337 H 676.013 0.38727 1.41911 0
M  V30 7338 H 677.971 -1.50317 3.89179 0
M  V30 7339 H 676.601 -1.66956 2.76271 0
M  V30 7340 H 675.653 0.532368 3.76656 0
M  V30 7341 H 676.965 0.48015 4.96484 0
M  V30 7342 H 676.119 -1.71504 5.81955 0
M  V30 7343 H 674.858 -1.74353 4.55469 0
M  V30 7344 H 673.863 0.364856 5.48588 0
M  V30 7345 H 675.088 0.376099 6.78058 0
M  V30 7346 H 673.034 -1.81661 6.30345 0
M  V30 7347 H 672.951 -0.601063 7.53607 0
M  V30 7348 H 674.219 -1.78915 7.58689 0
M  V30 7349 N 678.448 -1.51871 0.421078 0
M  V30 7350 C 679.378 -2.30231 -0.389363 0
M  V30 7351 C 680.359 -1.34946 -1.03555 0
M  V30 7352 O 681.544 -1.63859 -1.04229 0
M  V30 7353 C 678.674 -3.13247 -1.49979 0
M  V30 7354 C 677.628 -4.16677 -0.977966 0
M  V30 7355 C 676.954 -4.88112 -2.1829 0
M  V30 7356 C 678.254 -5.22295 -0.0236775 0
M  V30 7357 H 679.948 -2.98229 0.264524 0
M  V30 7358 H 677.494 -1.43424 0.12866 0
M  V30 7359 H 679.447 -3.66838 -2.07383 0
M  V30 7360 H 678.171 -2.4304 -2.18173 0
M  V30 7361 H 676.83 -3.64114 -0.426245 0
M  V30 7362 H 676.478 -4.14423 -2.85066 0
M  V30 7363 H 676.178 -5.58041 -1.84021 0
M  V30 7364 H 677.702 -5.44521 -2.76278 0
M  V30 7365 H 679.116 -5.71055 -0.506899 0
M  V30 7366 H 677.513 -5.99656 0.230782 0
M  V30 7367 H 678.583 -4.76131 0.917999 0
M  V30 7368 N 679.926 -0.151884 -1.56866 0
M  V30 7369 C 681.203 0.543328 -1.87902 0
M  V30 7370 C 681.583 1.82636 -1.05864 0
M  V30 7371 O 680.931 2.28028 -0.146868 0
M  V30 7372 C 681.141 0.804056 -3.39611 0
M  V30 7373 C 682.489 1.14267 -4.08935 0
M  V30 7374 O 683.513 0.893248 -3.44818 0
M  V30 7375 O 682.372 1.61229 -5.22176 0
M  V30 7376 H 679.466 0.277724 -0.778973 0
M  V30 7377 H 682.012 -0.188862 -1.68646 0
M  V30 7378 H 680.784 -0.103772 -3.91162 0
M  V30 7379 H 680.407 1.59025 -3.64413 0
M  V30 7380 N 681.404 1.57128 0.121893 0
M  V30 7381 C 682.351 2.0013 1.14964 0
M  V30 7382 C 683.321 0.872959 1.4131 0
M  V30 7383 O 684.506 1.13696 1.53225 0
M  V30 7384 C 681.646 2.40824 2.4718 0
M  V30 7385 C 680.759 3.67061 2.27794 0
M  V30 7386 C 679.894 3.96749 3.53219 0
M  V30 7387 C 678.933 5.16178 3.28978 0
M  V30 7388 N 678.07 5.41751 4.46599 0
M  V30 7389 H 682.91 2.8772 0.775947 0
M  V30 7390 H 680.447 1.42328 0.371652 0
M  V30 7391 H 682.405 2.62454 3.24305 0
M  V30 7392 H 681.035 1.56279 2.82448 0
M  V30 7393 H 680.087 3.53063 1.416 0
M  V30 7394 H 681.399 4.5434 2.05857 0
M  V30 7395 H 680.553 4.19012 4.38764 0
M  V30 7396 H 679.292 3.07941 3.78185 0
M  V30 7397 H 678.297 4.93762 2.41824 0
M  V30 7398 H 679.522 6.06561 3.05386 0
M  V30 7399 H 677.468 4.55899 4.71691 0
M  V30 7400 H 677.385 6.23347 4.27756 0
M  V30 7401 H 678.653 5.68531 5.33285 0
M  V30 7402 N 682.882 -0.391992 1.52647 0
M  V30 7403 C 684.131 -1.13449 1.6677 0
M  V30 7404 C 684.444 -1.91203 0.412399 0
M  V30 7405 O 685.65 -2.68013 0.433707 0
M  V30 7406 C 684.106 -2.06577 2.9471 0
M  V30 7407 C 683.714 -1.3426 4.27409 0
M  V30 7408 C 685.458 -2.80981 3.18198 0
M  V30 7409 C 683.365 -2.26136 5.46458 0
M  V30 7410 H 682.295 -0.427211 0.621295 0
M  V30 7411 H 684.946 -0.397522 1.79142 0
M  V30 7412 H 683.328 -2.83898 2.76076 0
M  V30 7413 H 684.502 -0.621856 4.56585 0
M  V30 7414 H 682.817 -0.718279 4.10158 0
M  V30 7415 H 685.414 -3.49898 4.04321 0
M  V30 7416 H 685.757 -3.44891 2.33144 0
M  V30 7417 H 686.29 -2.10754 3.37383 0
M  V30 7418 H 683.029 -1.66846 6.33911 0
M  V30 7419 H 682.549 -2.96134 5.21598 0
M  V30 7420 H 684.228 -2.86286 5.80215 0
M  V30 7421 N 684.36 -1.4356 -0.65026 0
M  V30 7422 C 685.293 -1.434 -1.77515 0
M  V30 7423 C 686.271 -0.295082 -1.599 0
M  V30 7424 O 687.455 -0.489128 -1.82043 0
M  V30 7425 C 684.582 -1.2484 -3.14853 0
M  V30 7426 C 683.628 -2.42046 -3.51163 0
M  V30 7427 S 684.461 -4.04595 -3.50803 0
M  V30 7428 C 685.617 -3.88424 -4.90793 0
M  V30 7429 H 685.85 -2.38586 -1.77381 0
M  V30 7430 H 683.383 -1.30627 -0.823169 0
M  V30 7431 H 685.341 -1.14819 -3.94115 0
M  V30 7432 H 684.002 -0.311977 -3.12547 0
M  V30 7433 H 683.195 -2.24873 -4.51052 0
M  V30 7434 H 682.797 -2.48708 -2.79321 0
M  V30 7435 H 685.089 -3.50932 -5.79528 0
M  V30 7436 H 686.032 -4.88076 -5.13018 0
M  V30 7437 H 686.44 -3.20829 -4.64467 0
M  V30 7438 N 685.838 0.888903 -1.30139 0
M  V30 7439 C 686.785 1.99422 -1.16188 0
M  V30 7440 C 687.755 1.66017 -0.0523869 0
M  V30 7441 O 688.94 1.89506 -0.221864 0
M  V30 7442 C 686.08 3.34325 -0.855612 0
M  V30 7443 C 685.193 3.80445 -2.0466 0
M  V30 7444 C 684.328 5.03975 -1.67876 0
M  V30 7445 C 683.367 5.42492 -2.83493 0
M  V30 7446 N 682.504 6.57206 -2.47032 0
M  V30 7447 H 687.344 2.10687 -2.10749 0
M  V30 7448 H 684.881 1.03165 -1.04859 0
M  V30 7449 H 686.839 4.11968 -0.658681 0
M  V30 7450 H 685.469 3.22756 0.0531155 0
M  V30 7451 H 684.521 2.98745 -2.3549 0
M  V30 7452 H 685.833 4.04933 -2.91257 0
M  V30 7453 H 684.987 5.89232 -1.44535 0
M  V30 7454 H 683.726 4.8135 -0.784431 0
M  V30 7455 H 682.731 4.55764 -3.07505 0
M  V30 7456 H 683.956 5.67093 -3.73607 0
M  V30 7457 H 681.902 6.36164 -1.601 0
M  V30 7458 H 681.819 6.81543 -3.27161 0
M  V30 7459 H 683.087 7.45704 -2.27038 0
M  V30 7460 N 687.317 1.12792 1.10072 0
M  V30 7461 C 688.227 0.812369 2.20086 0
M  V30 7462 C 689.243 -0.200349 1.72843 0
M  V30 7463 O 690.419 -0.0330262 2.01373 0
M  V30 7464 C 687.484 0.275685 3.45602 0
M  V30 7465 C 686.545 1.34881 4.07561 0
M  V30 7466 C 685.778 0.837639 5.27086 0
M  V30 7467 O 686.001 -0.327224 5.69461 0
M  V30 7468 O 684.935 1.60894 5.79997 0
M  V30 7469 H 688.761 1.73133 2.49517 0
M  V30 7470 H 686.346 0.904863 1.18881 0
M  V30 7471 H 688.228 -0.0185375 4.21396 0
M  V30 7472 H 686.903 -0.615783 3.17789 0
M  V30 7473 H 685.81 1.69625 3.33434 0
M  V30 7474 H 687.143 2.21418 4.39585 0
M  V30 7475 N 688.795 -1.27931 0.920396 0
M  V30 7476 C 689.725 -2.29487 0.431024 0
M  V30 7477 C 690.706 -1.62435 -0.504861 0
M  V30 7478 O 691.891 -1.89797 -0.411176 0
M  V30 7479 C 689.021 -3.45788 -0.323709 0
M  V30 7480 C 687.975 -4.24784 0.523658 0
M  V30 7481 C 687.301 -5.33488 -0.359809 0
M  V30 7482 C 688.601 -4.90874 1.78437 0
M  V30 7483 H 690.295 -2.70671 1.27975 0
M  V30 7484 H 687.841 -1.30121 0.616813 0
M  V30 7485 H 689.794 -4.15927 -0.676952 0
M  V30 7486 H 688.518 -3.03502 -1.2064 0
M  V30 7487 H 687.177 -3.56382 0.85951 0
M  V30 7488 H 686.825 -4.87445 -1.24124 0
M  V30 7489 H 686.525 -5.87247 0.203605 0
M  V30 7490 H 688.049 -6.06472 -0.708787 0
M  V30 7491 H 689.463 -5.53339 1.49963 0
M  V30 7492 H 687.86 -5.54659 2.29071 0
M  V30 7493 H 688.93 -4.14988 2.50824 0
M  V30 7494 N 690.273 -0.685099 -1.4193 0
M  V30 7495 C 691.55 -0.140152 -1.95097 0
M  V30 7496 C 691.93 1.34745 -1.62502 0
M  V30 7497 O 691.278 2.08872 -0.926534 0
M  V30 7498 C 691.488 -0.420268 -3.4646 0
M  V30 7499 C 692.836 -0.342338 -4.23218 0
M  V30 7500 O 693.86 -0.354592 -3.54431 0
M  V30 7501 O 692.719 -0.293404 -5.45712 0
M  V30 7502 H 689.813 -0.00885998 -0.826953 0
M  V30 7503 H 692.359 -0.760539 -1.51703 0
M  V30 7504 H 691.131 -1.45037 -3.63428 0
M  V30 7505 H 690.754 0.231616 -3.96925 0
M  V30 7506 N 691.751 1.51645 -0.429126 0
M  V30 7507 C 692.661 2.31288 0.392809 0
M  V30 7508 C 693.677 1.39852 1.03525 0
M  V30 7509 O 694.853 1.72926 1.03241 0
M  V30 7510 C 691.918 3.13347 1.48372 0
M  V30 7511 C 690.979 4.20551 0.862268 0
M  V30 7512 C 690.212 4.98688 1.9012 0
M  V30 7513 O 690.435 4.77359 3.12225 0
M  V30 7514 O 689.369 5.83005 1.4963 0
M  V30 7515 H 693.195 3.02609 -0.257138 0
M  V30 7516 H 690.78 1.48163 -0.191851 0
M  V30 7517 H 692.662 3.64387 2.1166 0
M  V30 7518 H 691.337 2.44799 2.1179 0
M  V30 7519 H 690.244 3.73609 0.191568 0
M  V30 7520 H 691.577 4.91449 0.271704 0
M  V30 7521 N 693.229 0.160201 1.56784 0
M  V30 7522 C 694.139 -0.787167 2.21 0
M  V30 7523 C 695.155 -1.26167 1.19825 0
M  V30 7524 O 696.331 -1.31611 1.52448 0
M  V30 7525 C 693.396 -2.00364 2.8294 0
M  V30 7526 C 692.457 -1.5771 3.99282 0
M  V30 7527 C 691.69 -2.73558 4.58259 0
M  V30 7528 O 691.913 -3.90129 4.16119 0
M  V30 7529 O 690.847 -2.48271 5.48311 0
M  V30 7530 H 694.673 -0.270462 3.02493 0
M  V30 7531 H 692.258 -0.0674666 1.49248 0
M  V30 7532 H 694.14 -2.71529 3.22257 0
M  V30 7533 H 692.815 -2.50961 2.04451 0
M  V30 7534 H 691.722 -0.835274 3.64656 0
M  V30 7535 H 693.055 -1.11815 4.79331 0
M  V30 7536 N 694.707 -1.5719 -0.113559 0
M  V30 7537 C 695.955 -1.84772 -0.818761 0
M  V30 7538 C 696.276 -0.746196 -1.80158 0
M  V30 7539 O 695.546 0.229305 -1.94553 0
M  V30 7540 H 694.126 -0.681737 -0.305359 0
M  V30 7541 H 696.788 -1.94645 -0.0995845 0
M  V30 7542 H 695.884 -2.80878 -1.36067 0
M  V30 7543 N 696.185 0.383891 -1.52853 0
M  V30 7544 C 697.133 1.48965 -1.7864 0
M  V30 7545 C 698.127 1.56242 -0.654577 0
M  V30 7546 O 699.333 1.59347 -0.83716 0
M  V30 7547 H 695.708 0.495892 -0.565328 0
M  V30 7548 H 697.679 1.24411 -2.71228 0
M  V30 7549 C 696.428 2.86036 -1.97683 0
M  V30 7550 H 695.751 2.81188 -2.84206 0
M  V30 7551 H 697.191 3.62632 -2.19713 0
M  V30 7552 C 695.65 3.28428 -0.750776 0
M  V30 7553 O 696.18 4.0164 0.0693491 0
M  V30 7554 N 694.386 2.84765 -0.579427 0
M  V30 7555 H 693.933 2.25353 -1.24795 0
M  V30 7556 H 693.891 3.13486 0.239544 0
M  V30 7557 N 697.663 1.43903 0.642637 0
M  V30 7558 C 698.595 1.45857 1.768 0
M  V30 7559 C 699.608 0.353358 1.58919 0
M  V30 7560 O 700.797 0.618426 1.67445 0
M  V30 7561 C 697.897 1.26583 3.14372 0
M  V30 7562 C 697.07 2.50139 3.58817 0
M  V30 7563 C 696.129 2.25933 4.75227 0
M  V30 7564 O 695.155 2.99351 4.84125 0
M  V30 7565 N 696.357 1.28263 5.66153 0
M  V30 7566 H 699.122 2.42869 1.75598 0
M  V30 7567 H 696.683 1.39194 0.826832 0
M  V30 7568 H 698.675 1.08255 3.89953 0
M  V30 7569 H 697.245 0.37978 3.10284 0
M  V30 7570 H 696.465 2.83821 2.73568 0
M  V30 7571 H 697.753 3.32344 3.8526 0
M  V30 7572 H 697.151 0.676041 5.61646 0
M  V30 7573 H 695.708 1.15916 6.4141 0
M  V30 7574 N 699.141 -0.881989 1.30609 0
M  V30 7575 C 700.557 -1.16576 1.09005 0
M  V30 7576 C 700.757 -2.00961 -0.14727 0
M  V30 7577 O 699.813 -2.38117 -0.840036 0
M  V30 7578 C 701.126 -1.86954 2.35518 0
M  V30 7579 C 702.674 -1.99706 2.41011 0
M  V30 7580 C 703.149 -2.73497 3.67374 0
M  V30 7581 N 704.64 -2.8104 3.68199 0
M  V30 7582 C 705.375 -3.38718 4.62664 0
M  V30 7583 N 704.871 -3.97421 5.67475 0
M  V30 7584 N 706.664 -3.36561 4.50203 0
M  V30 7585 H 698.815 -0.319398 2.09985 0
M  V30 7586 H 701.078 -0.204058 0.925778 0
M  V30 7587 H 700.784 -1.32393 3.2583 0
M  V30 7588 H 700.658 -2.87317 2.44395 0
M  V30 7589 H 703.045 -2.53436 1.51176 0
M  V30 7590 H 703.126 -0.984218 2.36108 0
M  V30 7591 H 702.77 -2.20438 4.57569 0
M  V30 7592 H 702.7 -3.75163 3.6954 0
M  V30 7593 H 705.191 -2.39365 2.92426 0
M  V30 7594 H 705.504 -4.39507 6.35652 0
M  V30 7595 H 703.849 -3.95832 5.71264 0
M  V30 7596 H 707.04 -2.8993 3.67503 0
M  V30 7597 H 707.213 -3.81215 5.24003 0
M  V30 7598 N 700.619 -1.13374 -1.09472 0
M  V30 7599 C 702.035 -0.871846 -1.33682 0
M  V30 7600 C 702.235 0.492847 -1.9538 0
M  V30 7601 O 701.291 1.23946 -2.19985 0
M  V30 7602 C 702.604 -1.99608 -2.24893 0
M  V30 7603 C 704.152 -2.02812 -2.38404 0
M  V30 7604 C 704.627 -3.14497 -3.3295 0
M  V30 7605 N 706.118 -3.14004 -3.40523 0
M  V30 7606 C 706.853 -3.97061 -4.13679 0
M  V30 7607 N 706.349 -4.90131 -4.89636 0
M  V30 7608 N 708.142 -3.85162 -4.09398 0
M  V30 7609 H 700.293 -2.01288 -0.677995 0
M  V30 7610 H 702.556 -0.876492 -0.361201 0
M  V30 7611 H 702.262 -2.98 -1.86786 0
M  V30 7612 H 702.136 -1.90981 -3.25278 0
M  V30 7613 H 704.523 -1.05034 -2.75775 0
M  V30 7614 H 704.604 -2.15511 -1.37799 0
M  V30 7615 H 704.248 -4.12514 -2.96302 0
M  V30 7616 H 704.178 -2.99035 -4.33458 0
M  V30 7617 H 706.669 -2.46587 -2.86362 0
M  V30 7618 H 706.982 -5.49996 -5.42885 0
M  V30 7619 H 705.327 -4.94138 -4.88726 0
M  V30 7620 H 708.518 -3.11779 -3.49158 0
M  V30 7621 H 708.691 -4.5012 -4.6615 0
M  V30 7622 N 702.098 1.27442 -0.927168 0
M  V30 7623 C 703.046 2.28844 -0.416333 0
M  V30 7624 C 704.04 1.61882 0.499057 0
M  V30 7625 O 705.246 1.75969 0.378817 0
M  V30 7626 H 701.621 0.742989 -0.116065 0
M  V30 7627 H 703.592 2.69344 -1.28438 0
M  V30 7628 C 702.341 3.4626 0.316107 0
M  V30 7629 H 701.664 3.97999 -0.379082 0
M  V30 7630 H 703.104 4.19173 0.637975 0
M  V30 7631 C 701.563 3.00211 1.5289 0
M  V30 7632 O 702.093 3.03837 2.62766 0
M  V30 7633 N 700.299 2.55713 1.38054 0
M  V30 7634 H 699.846 2.52962 0.4866 0
M  V30 7635 H 699.804 2.25264 2.19325 0
M  V30 7636 N 703.576 0.692616 1.41565 0
M  V30 7637 C 704.506 0.0397325 2.33466 0
M  V30 7638 C 705.487 -0.770334 1.51657 0
M  V30 7639 O 706.672 -0.723903 1.80203 0
M  V30 7640 C 703.802 -0.899495 3.3545 0
M  V30 7641 C 702.756 -0.196738 4.27548 0
M  V30 7642 C 702.082 -1.25012 5.19881 0
M  V30 7643 C 703.382 0.935158 5.1386 0
M  V30 7644 H 705.076 0.807296 2.88311 0
M  V30 7645 H 702.622 0.389665 1.38628 0
M  V30 7646 H 704.575 -1.36545 3.98665 0
M  V30 7647 H 703.299 -1.69869 2.78948 0
M  V30 7648 H 701.958 0.249158 3.65752 0
M  V30 7649 H 701.606 -2.04177 4.59696 0
M  V30 7650 H 701.306 -0.784931 5.82334 0
M  V30 7651 H 702.83 -1.71665 5.85972 0
M  V30 7652 H 704.244 0.549619 5.70659 0
M  V30 7653 H 702.641 1.32726 5.85238 0
M  V30 7654 H 703.711 1.77613 4.512 0
M  V30 7655 N 705.054 -1.51416 0.437162 0
M  V30 7656 C 705.964 -2.31493 -0.380537 0
M  V30 7657 C 706.98 -1.40399 -1.02782 0
M  V30 7658 O 708.156 -1.73471 -1.02323 0
M  V30 7659 C 705.221 -3.1413 -1.46709 0
M  V30 7660 C 704.282 -4.21003 -0.839953 0
M  V30 7661 C 703.515 -4.9969 -1.87473 0
M  V30 7662 O 703.738 -4.79008 -3.09689 0
M  V30 7663 O 702.672 -5.8379 -1.46536 0
M  V30 7664 H 706.498 -3.02469 0.273183 0
M  V30 7665 H 704.083 -1.48059 0.199706 0
M  V30 7666 H 705.965 -3.65505 -2.09724 0
M  V30 7667 H 704.64 -2.45919 -2.10489 0
M  V30 7668 H 703.547 -3.73706 -0.171752 0
M  V30 7669 H 704.88 -4.91587 -0.245638 0
M  V30 7670 N 706.532 -0.168513 -1.56696 0
M  V30 7671 C 707.757 0.486688 -2.01609 0
M  V30 7672 C 708.182 1.56203 -1.04796 0
M  V30 7673 O 707.54 1.8128 -0.0270596 0
M  V30 7674 C 707.588 1.04451 -3.45141 0
M  V30 7675 O 706.692 2.15862 -3.51393 0
M  V30 7676 H 706.033 0.116831 -0.653641 0
M  V30 7677 H 708.563 -0.271579 -2.0279 0
M  V30 7678 H 708.573 1.36782 -3.84389 0
M  V30 7679 H 707.248 0.257155 -4.15104 0
M  V30 7680 H 705.825 1.84597 -3.24004 0
M  V30 7681 N 708.01 1.57248 0.105221 0
M  V30 7682 C 709.238 1.89768 0.82437 0
M  V30 7683 C 709.653 0.761192 1.72775 0
M  V30 7684 O 709.01 -0.267342 1.80531 0
M  V30 7685 C 709.061 3.2184 1.64625 0
M  V30 7686 O 708.782 4.31115 0.779217 0
M  V30 7687 C 710.283 3.68155 2.46935 0
M  V30 7688 H 707.503 0.628031 0.236259 0
M  V30 7689 H 710.047 2.04321 0.085485 0
M  V30 7690 H 708.202 3.08915 2.33775 0
M  V30 7691 H 708.616 5.06897 1.34745 0
M  V30 7692 H 710.09 4.6329 3.00111 0
M  V30 7693 H 710.567 2.95492 3.24932 0
M  V30 7694 H 711.173 3.83914 1.83002 0
M  V30 7695 N 709.488 -0.375779 1.53054 0
M  V30 7696 C 710.734 -1.12114 1.68992 0
M  V30 7697 C 711.067 -1.8926 0.435238 0
M  V30 7698 O 710.342 -1.86044 -0.567278 0
M  V30 7699 C 710.625 -2.08867 2.93337 0
M  V30 7700 C 710.478 -1.35397 4.28938 0
M  V30 7701 C 711.797 -3.09124 3.13257 0
M  V30 7702 H 708.916 -0.406207 0.614951 0
M  V30 7703 H 711.558 -0.403054 1.85676 0
M  V30 7704 H 709.708 -2.70102 2.79244 0
M  V30 7705 H 711.38 -0.770242 4.54824 0
M  V30 7706 H 709.623 -0.655801 4.28814 0
M  V30 7707 H 710.294 -2.06161 5.12056 0
M  V30 7708 H 712.77 -2.57987 3.26469 0
M  V30 7709 H 711.646 -3.74054 4.01715 0
M  V30 7710 H 711.907 -3.78729 2.28072 0
M  V30 7711 N 710.966 -1.44241 -0.634997 0
M  V30 7712 C 712.191 -1.50516 -1.42687 0
M  V30 7713 C 712.616 -0.129864 -1.87651 0
M  V30 7714 O 711.974 0.880164 -1.58502 0
M  V30 7715 C 712.022 -2.4714 -2.62591 0
M  V30 7716 O 711.126 -1.97025 -3.62291 0
M  V30 7717 H 710.467 -0.50841 -0.427101 0
M  V30 7718 H 712.997 -1.89337 -0.775408 0
M  V30 7719 H 713.007 -2.65048 -3.10183 0
M  V30 7720 H 711.682 -3.47039 -2.29209 0
M  V30 7721 H 710.259 -1.88866 -3.21534 0
M  V30 7722 N 712.444 0.87505 -1.31075 0
M  V30 7723 C 713.376 1.98773 -1.14114 0
M  V30 7724 C 714.389 1.62595 -0.0816119 0
M  V30 7725 O 715.578 1.75449 -0.32861 0
M  V30 7726 C 712.678 3.31159 -0.720224 0
M  V30 7727 C 711.851 3.9571 -1.86366 0
M  V30 7728 C 710.91 5.06407 -1.42965 0
M  V30 7729 O 709.936 5.27501 -2.13848 0
M  V30 7730 N 711.138 5.79649 -0.314194 0
M  V30 7731 H 713.903 2.1387 -2.09951 0
M  V30 7732 H 711.464 1.04873 -1.23342 0
M  V30 7733 H 713.456 4.0259 -0.412687 0
M  V30 7734 H 712.026 3.12257 0.146396 0
M  V30 7735 H 711.246 3.17324 -2.33879 0
M  V30 7736 H 712.534 4.35576 -2.62966 0
M  V30 7737 H 711.932 5.65025 0.276228 0
M  V30 7738 H 710.489 6.51766 -0.0661641 0
M  V30 7739 N 713.922 1.13953 1.08869 0
M  V30 7740 C 715.171 0.899431 1.80536 0
M  V30 7741 C 715.484 -0.575781 1.86933 0
M  V30 7742 O 716.69 -0.932988 2.54966 0
M  V30 7743 C 715.146 1.55963 3.24351 0
M  V30 7744 C 714.754 3.07077 3.26202 0
M  V30 7745 C 716.498 1.40046 4.00733 0
M  V30 7746 C 714.405 3.65955 4.64576 0
M  V30 7747 H 713.335 0.332849 0.676556 0
M  V30 7748 H 715.986 1.3679 1.22314 0
M  V30 7749 H 714.368 1.01883 3.82669 0
M  V30 7750 H 715.542 3.67785 2.77617 0
M  V30 7751 H 713.857 3.22576 2.63312 0
M  V30 7752 H 716.454 1.81441 5.02974 0
M  V30 7753 H 716.797 0.345993 4.1486 0
M  V30 7754 H 717.33 1.91137 3.48872 0
M  V30 7755 H 714.069 4.71234 4.55652 0
M  V30 7756 H 713.589 3.10027 5.13462 0
M  V30 7757 H 715.268 3.65968 5.33551 0
M  V30 7758 N 715.4 -1.26948 0.933913 0
M  V30 7759 C 716.31 -2.30366 0.443671 0
M  V30 7760 C 717.326 -1.67284 -0.478745 0
M  V30 7761 O 718.502 -1.98156 -0.360043 0
M  V30 7762 C 715.567 -3.45485 -0.289974 0
M  V30 7763 C 714.628 -4.24069 0.668114 0
M  V30 7764 C 713.861 -5.33691 -0.0306138 0
M  V30 7765 O 714.084 -5.5656 -1.24888 0
M  V30 7766 O 713.018 -5.98441 0.644384 0
M  V30 7767 H 716.844 -2.74349 1.30254 0
M  V30 7768 H 714.429 -1.32012 0.699506 0
M  V30 7769 H 716.311 -4.15486 -0.70353 0
M  V30 7770 H 714.986 -3.03546 -1.12435 0
M  V30 7771 H 713.893 -3.56579 1.13147 0
M  V30 7772 H 715.226 -4.69739 1.46989 0
M  V30 7773 N 716.879 -0.700114 -1.41195 0
M  V30 7774 C 717.826 -0.0376652 -2.30769 0
M  V30 7775 C 718.796 0.766544 -1.47354 0
M  V30 7776 O 719.981 0.73365 -1.76131 0
M  V30 7777 C 717.121 0.889452 -3.33441 0
M  V30 7778 C 716.234 0.076373 -4.31932 0
M  V30 7779 C 715.369 1.00155 -5.21673 0
M  V30 7780 C 714.408 0.181644 -6.1183 0
M  V30 7781 N 713.545 1.06087 -6.94039 0
M  V30 7782 H 718.385 -0.80726 -2.86858 0
M  V30 7783 H 715.922 -0.409798 -1.41277 0
M  V30 7784 H 717.88 1.44107 -3.91522 0
M  V30 7785 H 716.51 1.6254 -2.78892 0
M  V30 7786 H 715.562 -0.592223 -3.75762 0
M  V30 7787 H 716.874 -0.559076 -4.95657 0
M  V30 7788 H 716.028 1.62223 -5.8461 0
M  V30 7789 H 714.767 1.67085 -4.58186 0
M  V30 7790 H 713.772 -0.452085 -5.47938 0
M  V30 7791 H 714.997 -0.483925 -6.77374 0
M  V30 7792 H 712.943 1.7161 -6.33156 0
M  V30 7793 H 712.86 0.481094 -7.54468 0
M  V30 7794 H 714.128 1.66822 -7.6144 0
M  V30 7795 N 718.357 1.51182 -0.445186 0
M  V30 7796 C 719.267 2.31692 0.368255 0
M  V30 7797 C 720.283 1.40942 1.02036 0
M  V30 7798 O 721.459 1.74011 1.01401 0
M  V30 7799 C 718.524 3.14903 1.45041 0
M  V30 7800 C 717.585 4.21442 0.817615 0
M  V30 7801 C 716.818 5.00677 1.8482 0
M  V30 7802 O 717.041 4.80644 3.07145 0
M  V30 7803 O 715.975 5.84559 1.43438 0
M  V30 7804 H 719.801 3.0232 -0.289219 0
M  V30 7805 H 717.386 1.47951 -0.207555 0
M  V30 7806 H 719.268 3.66612 2.07783 0
M  V30 7807 H 717.943 2.47031 2.09182 0
M  V30 7808 H 716.85 3.73791 0.151931 0
M  V30 7809 H 718.183 4.9171 0.219564 0
M  V30 7810 N 719.835 0.176821 1.56605 0
M  V30 7811 C 720.782 -0.751312 2.18229 0
M  V30 7812 C 721.752 -1.22297 1.12395 0
M  V30 7813 O 722.937 -1.29015 1.40569 0
M  V30 7814 C 720.077 -1.97291 2.83143 0
M  V30 7815 C 719.19 -1.54431 4.03454 0
M  V30 7816 C 718.325 -2.72 4.56278 0
M  V30 7817 C 717.364 -2.25657 5.68986 0
M  V30 7818 N 716.501 -3.36338 6.16296 0
M  V30 7819 H 721.341 -0.219033 2.97194 0
M  V30 7820 H 718.878 -0.0963803 1.46784 0
M  V30 7821 H 720.836 -2.68949 3.1894 0
M  V30 7822 H 719.466 -2.4788 2.06773 0
M  V30 7823 H 718.518 -0.724273 3.73441 0
M  V30 7824 H 719.83 -1.16417 4.85024 0
M  V30 7825 H 718.984 -3.51806 4.94285 0
M  V30 7826 H 717.723 -3.13277 3.73777 0
M  V30 7827 H 716.728 -1.44299 5.30526 0
M  V30 7828 H 717.953 -1.85432 6.53293 0
M  V30 7829 H 715.899 -3.7718 5.36723 0
M  V30 7830 H 715.816 -3.02435 6.9287 0
M  V30 7831 H 717.084 -4.16413 6.58954 0
M  V30 7832 N 721.313 -1.57302 -0.09688 0
M  V30 7833 C 722.246 -1.97179 -1.14872 0
M  V30 7834 C 723.224 -0.844734 -1.38935 0
M  V30 7835 O 724.408 -1.10487 -1.52725 0
M  V30 7836 C 721.535 -2.28703 -2.49826 0
M  V30 7837 C 720.581 -3.51158 -2.42054 0
M  V30 7838 S 721.414 -5.0294 -1.83879 0
M  V30 7839 C 722.57 -5.37639 -3.2046 0
M  V30 7840 H 722.803 -2.86088 -0.808771 0
M  V30 7841 H 720.336 -1.51368 -0.304492 0
M  V30 7842 H 722.294 -2.47541 -3.27466 0
M  V30 7843 H 720.955 -1.40368 -2.8099 0
M  V30 7844 H 720.148 -3.70651 -3.41517 0
M  V30 7845 H 719.75 -3.31821 -1.72543 0
M  V30 7846 H 722.042 -5.34175 -4.16729 0
M  V30 7847 H 722.985 -6.38677 -3.05773 0
M  V30 7848 H 723.393 -4.651 -3.19909 0
M  V30 7849 N 722.791 0.367657 -1.53252 0
M  V30 7850 C 723.721 1.45632 -1.8252 0
M  V30 7851 C 724.702 1.55979 -0.678568 0
M  V30 7852 O 725.887 1.70581 -0.928217 0
M  V30 7853 C 723.017 2.82994 -2.01325 0
M  V30 7854 C 721.971 2.87473 -3.17086 0
M  V30 7855 C 721.297 4.2749 -3.21179 0
M  V30 7856 C 722.597 2.55182 -4.55719 0
M  V30 7857 H 724.291 1.21387 -2.73689 0
M  V30 7858 H 721.837 0.58251 -1.31692 0
M  V30 7859 H 723.79 3.59179 -2.20383 0
M  V30 7860 H 722.514 3.08622 -1.06864 0
M  V30 7861 H 721.173 2.13739 -2.97844 0
M  V30 7862 H 720.821 4.5019 -2.24361 0
M  V30 7863 H 720.521 4.31403 -3.98955 0
M  V30 7864 H 722.045 5.0555 -3.42419 0
M  V30 7865 H 723.459 3.21081 -4.74953 0
M  V30 7866 H 721.856 2.70414 -5.3572 0
M  V30 7867 H 722.926 1.5044 -4.60973 0
M  V30 7868 N 724.269 1.44576 0.627338 0
M  V30 7869 C 725.199 1.54562 1.75022 0
M  V30 7870 C 726.18 0.398378 1.65369 0
M  V30 7871 O 727.365 0.61899 1.84071 0
M  V30 7872 C 724.495 1.49309 3.13567 0
M  V30 7873 C 723.449 2.62549 3.38012 0
M  V30 7874 C 722.775 2.42348 4.76625 0
M  V30 7875 C 724.075 4.04678 3.30202 0
M  V30 7876 H 725.769 2.4855 1.66922 0
M  V30 7877 H 723.315 1.19624 0.801636 0
M  V30 7878 H 725.268 1.54895 3.919 0
M  V30 7879 H 723.992 0.518392 3.2246 0
M  V30 7880 H 722.651 2.56358 2.62061 0
M  V30 7881 H 722.299 1.43062 4.82226 0
M  V30 7882 H 721.999 3.18273 4.93939 0
M  V30 7883 H 723.523 2.49758 5.57183 0
M  V30 7884 H 724.937 4.12217 3.98435 0
M  V30 7885 H 723.334 4.80836 3.5905 0
M  V30 7886 H 724.404 4.2798 2.27949 0
M  V30 7887 N 725.747 -0.868086 1.31537 0
M  V30 7888 C 726.679 -1.98165 1.15166 0
M  V30 7889 C 727.692 -1.6255 0.0902335 0
M  V30 7890 O 728.881 -1.75272 0.33791 0
M  V30 7891 C 725.981 -3.30772 0.737776 0
M  V30 7892 C 725.154 -3.94716 1.88462 0
M  V30 7893 C 724.213 -5.05641 1.45648 0
M  V30 7894 O 723.239 -5.2636 2.16642 0
M  V30 7895 N 724.441 -5.79474 0.34493 0
M  V30 7896 H 727.206 -2.12754 2.11083 0
M  V30 7897 H 724.767 -1.04217 1.23897 0
M  V30 7898 H 726.759 -4.02366 0.434032 0
M  V30 7899 H 725.329 -3.1233 -0.129834 0
M  V30 7900 H 724.549 -3.16079 2.35558 0
M  V30 7901 H 725.837 -4.34175 2.65273 0
M  V30 7902 H 725.235 -5.65164 -0.246259 0
M  V30 7903 H 723.792 -6.51722 0.100728 0
M  V30 7904 N 727.225 -1.14528 -1.08264 0
M  V30 7905 C 728.175 -0.802141 -2.13424 0
M  V30 7906 C 729.159 0.209362 -1.59532 0
M  V30 7907 O 730.351 0.0114859 -1.76996 0
M  V30 7908 C 727.48 -0.282938 -3.42132 0
M  V30 7909 C 726.566 -1.32405 -4.02902 0
M  V30 7910 N 726.957 -2.52861 -4.38058 0
M  V30 7911 C 725.255 -1.17462 -4.30254 0
M  V30 7912 C 725.956 -3.1952 -4.86088 0
M  V30 7913 N 724.932 -2.46921 -4.84284 0
M  V30 7914 H 728.734 -1.71843 -2.38426 0
M  V30 7915 H 726.248 -1.02936 -1.2561 0
M  V30 7916 H 728.245 -0.0188053 -4.16896 0
M  V30 7917 H 726.905 0.627533 -3.18578 0
M  V30 7918 H 727.916 -2.90078 -4.2904 0
M  V30 7919 H 724.593 -0.323283 -4.16246 0
M  V30 7920 H 725.983 -4.2223 -5.22658 0
M  V30 7921 N 728.703 1.26451 -0.940633 0
M  V30 7922 C 730.119 1.4608 -0.642859 0
M  V30 7923 C 730.319 1.84765 0.803998 0
M  V30 7924 O 729.375 1.96902 1.58069 0
M  V30 7925 C 730.688 2.54359 -1.60381 0
M  V30 7926 C 732.236 2.6821 -1.61345 0
M  V30 7927 C 732.711 3.79659 -2.56169 0
M  V30 7928 N 734.202 3.87051 -2.54452 0
M  V30 7929 C 734.937 4.72739 -3.24507 0
M  V30 7930 N 734.433 5.6282 -4.03987 0
M  V30 7931 N 736.226 4.66581 -3.13462 0
M  V30 7932 H 728.377 0.996289 -1.87584 0
M  V30 7933 H 730.64 0.498921 -0.80609 0
M  V30 7934 H 730.346 2.32758 -2.6366 0
M  V30 7935 H 730.22 3.52005 -1.35545 0
M  V30 7936 H 732.607 2.89184 -0.587913 0
M  V30 7937 H 732.688 1.7101 -1.90235 0
M  V30 7938 H 732.332 3.59438 -3.58841 0
M  V30 7939 H 732.262 4.76315 -2.2457 0
M  V30 7940 H 734.753 3.22649 -1.96739 0
M  V30 7941 H 735.066 6.25095 -4.54396 0
M  V30 7942 H 733.411 5.62574 -4.08088 0
M  V30 7943 H 736.602 3.9521 -2.50852 0
M  V30 7944 H 736.775 5.33141 -3.68327 0
M  V30 7945 N 730.181 0.707592 1.40822 0
M  V30 7946 C 731.43 0.240705 2.00259 0
M  V30 7947 C 731.743 -1.17027 1.56729 0
M  V30 7948 O 732.949 -1.73526 2.08809 0
M  V30 7949 C 731.405 0.379432 3.57894 0
M  V30 7950 C 731.013 1.79654 4.104 0
M  V30 7951 C 732.757 -0.0270684 4.24491 0
M  V30 7952 C 730.664 1.88628 5.60512 0
M  V30 7953 H 729.594 0.0862369 0.749052 0
M  V30 7954 H 732.245 0.877528 1.61157 0
M  V30 7955 H 730.627 -0.325842 3.94657 0
M  V30 7956 H 731.801 2.53155 3.85032 0
M  V30 7957 H 730.116 2.15379 3.56372 0
M  V30 7958 H 732.713 0.0193743 5.34696 0
M  V30 7959 H 733.056 -1.06772 4.02375 0
M  V30 7960 H 733.589 0.628361 3.92806 0
M  V30 7961 H 730.328 2.90787 5.87472 0
M  V30 7962 H 729.848 1.19528 5.8777 0
M  V30 7963 H 731.527 1.6547 6.25483 0
M  V30 7964 N 731.66 -1.50943 0.453197 0
M  V30 7965 C 732.608 -2.29728 -0.364419 0
M  V30 7966 C 733.602 -1.36246 -1.00664 0
M  V30 7967 O 734.808 -1.53518 -0.939794 0
M  V30 7968 H 731.183 -0.739536 -0.136347 0
M  V30 7969 H 733.154 -2.96672 0.320696 0
M  V30 7970 C 731.903 -3.1629 -1.44415 0
M  V30 7971 H 731.226 -3.88119 -0.959343 0
M  V30 7972 H 732.666 -3.74444 -1.98917 0
M  V30 7973 C 731.125 -2.32702 -2.43622 0
M  V30 7974 O 731.655 -1.99763 -3.48508 0
M  V30 7975 N 729.861 -1.95621 -2.14897 0
M  V30 7976 H 729.408 -2.22607 -1.29629 0
M  V30 7977 H 729.366 -1.39993 -2.81513 0
M  V30 7978 N 733.138 -0.185124 -1.56509 0
M  V30 7979 C 734.048 0.751908 -2.22224 0
M  V30 7980 C 735.064 1.24244 -1.21817 0
M  V30 7981 O 736.24 1.29169 -1.54523 0
M  V30 7982 C 733.305 1.95837 -2.86092 0
M  V30 7983 C 732.366 1.51337 -4.01741 0
M  V30 7984 C 731.599 2.66233 -4.62554 0
M  V30 7985 O 731.822 3.8346 -4.22273 0
M  V30 7986 O 730.756 2.39517 -5.52191 0
M  V30 7987 H 734.582 0.222304 -3.02885 0
M  V30 7988 H 732.167 0.0437141 -1.49336 0
M  V30 7989 H 734.049 2.66368 -3.26536 0
M  V30 7990 H 732.724 2.47677 -2.08417 0
M  V30 7991 H 731.631 0.777155 -3.65939 0
M  V30 7992 H 732.964 1.04175 -4.81049 0
M  V30 7993 N 734.616 1.57351 0.0885366 0
M  V30 7994 C 735.846 1.90355 0.80303 0
M  V30 7995 C 736.254 0.777678 1.72478 0
M  V30 7996 O 735.597 -0.258908 1.81866 0
M  V30 7997 C 735.659 3.18674 1.66395 0
M  V30 7998 C 735.323 4.4778 0.913327 0
M  V30 7999 C 736.32 5.19345 0.240148 0
M  V30 8000 C 734.005 4.94434 0.885462 0
M  V30 8001 C 735.999 6.35803 -0.450854 0
M  V30 8002 C 733.686 6.10802 0.190679 0
M  V30 8003 C 734.684 6.81337 -0.476295 0
M  V30 8004 O 734.372 7.95488 -1.15992 0
M  V30 8005 H 734.104 0.634035 0.234469 0
M  V30 8006 H 736.658 2.05287 0.0681959 0
M  V30 8007 H 734.888 2.99906 2.44117 0
M  V30 8008 H 736.577 3.37458 2.2556 0
M  V30 8009 H 737.343 4.84339 0.253092 0
M  V30 8010 H 733.222 4.39417 1.39406 0
M  V30 8011 H 736.766 6.90795 -0.972019 0
M  V30 8012 H 732.663 6.45261 0.175603 0
M  V30 8013 H 733.431 8.11509 -1.06749 0
M  V30 8014 N 736.094 -0.359525 1.53444 0
M  V30 8015 C 737.026 -1.46098 1.76602 0
M  V30 8016 C 738.039 -1.49395 0.646912 0
M  V30 8017 O 739.228 -1.52765 0.923307 0
M  V30 8018 C 736.328 -2.84836 1.83635 0
M  V30 8019 C 735.501 -3.05164 3.13358 0
M  V30 8020 C 734.56 -4.24051 3.11556 0
M  V30 8021 O 733.586 -4.18935 3.85334 0
M  V30 8022 N 734.788 -5.31775 2.328 0
M  V30 8023 H 737.553 -1.2661 2.71643 0
M  V30 8024 H 735.114 -0.549294 1.52297 0
M  V30 8025 H 737.106 -3.62516 1.799 0
M  V30 8026 H 735.676 -2.97542 0.958509 0
M  V30 8027 H 734.896 -2.15091 3.30348 0
M  V30 8028 H 736.184 -3.15619 3.99076 0
M  V30 8029 H 735.582 -5.38796 1.7238 0
M  V30 8030 H 734.139 -6.0801 2.34877 0
M  V30 8031 N 737.572 -1.44907 -0.619662 0
M  V30 8032 C 738.988 -1.29046 -0.939107 0
M  V30 8033 C 739.188 -0.23462 -2.00129 0
M  V30 8034 O 738.244 0.37558 -2.49691 0
M  V30 8035 C 739.557 -2.66567 -1.39149 0
M  V30 8036 C 741.105 -2.74368 -1.50635 0
M  V30 8037 C 741.58 -4.12386 -1.99253 0
M  V30 8038 N 743.071 -4.1462 -2.06506 0
M  V30 8039 C 743.806 -5.18272 -2.4532 0
M  V30 8040 N 743.302 -6.32278 -2.83189 0
M  V30 8041 N 745.095 -5.05628 -2.45554 0
M  V30 8042 H 737.246 -2.12239 0.0826135 0
M  V30 8043 H 739.509 -0.947652 -0.0256829 0
M  V30 8044 H 739.215 -3.4496 -0.685254 0
M  V30 8045 H 739.089 -2.94224 -2.36034 0
M  V30 8046 H 741.476 -1.96287 -2.20353 0
M  V30 8047 H 741.557 -2.50439 -0.520963 0
M  V30 8048 H 741.201 -4.90947 -1.30127 0
M  V30 8049 H 741.131 -4.33699 -2.98684 0
M  V30 8050 H 743.622 -3.32343 -1.79878 0
M  V30 8051 H 743.935 -7.07172 -3.11652 0
M  V30 8052 H 742.28 -6.35699 -2.80913 0
M  V30 8053 H 745.471 -4.15613 -2.15367 0
M  V30 8054 H 745.644 -5.86529 -2.75478 0
M  V30 8055 N 739.05 0.861098 -1.31996 0
M  V30 8056 C 739.997 1.96912 -1.20392 0
M  V30 8057 C 740.967 1.65869 -0.0875899 0
M  V30 8058 O 742.152 1.88992 -0.262011 0
M  V30 8059 C 739.292 3.32435 -0.926335 0
M  V30 8060 C 738.405 3.76018 -2.12684 0
M  V30 8061 C 737.54 5.00301 -1.78529 0
M  V30 8062 C 736.579 5.36357 -2.94937 0
M  V30 8063 N 735.716 6.51818 -2.60917 0
M  V30 8064 H 740.556 2.06169 -2.1517 0
M  V30 8065 H 738.093 1.00917 -1.07024 0
M  V30 8066 H 740.051 4.10478 -0.745917 0
M  V30 8067 H 738.681 3.22796 -0.0153578 0
M  V30 8068 H 737.733 2.93683 -2.41774 0
M  V30 8069 H 739.045 3.98664 -2.99781 0
M  V30 8070 H 738.199 5.86034 -1.57001 0
M  V30 8071 H 736.938 4.79578 -0.886356 0
M  V30 8072 H 735.943 4.49139 -3.17103 0
M  V30 8073 H 737.168 5.59041 -3.85552 0
M  V30 8074 H 735.114 6.32624 -1.73558 0
M  V30 8075 H 735.031 6.7445 -3.41544 0
M  V30 8076 H 736.299 7.4072 -2.42804 0
M  V30 8077 N 740.528 1.15101 1.07655 0
M  V30 8078 C 741.491 0.847625 2.12951 0
M  V30 8079 C 742.491 -0.151227 1.60087 0
M  V30 8080 O 743.681 0.0780399 1.74025 0
M  V30 8081 C 740.813 0.265 3.39868 0
M  V30 8082 H 742.006 1.7809 2.41296 0
M  V30 8083 H 739.559 0.958072 1.23494 0
M  V30 8084 H 740.294 -0.676625 3.17163 0
M  V30 8085 H 740.079 0.984554 3.79538 0
M  V30 8086 H 741.569 0.0702121 4.17541 0
M  V30 8087 N 742.006 -1.2595 0.947325 0
M  V30 8088 C 742.916 -2.29883 0.468079 0
M  V30 8089 C 743.932 -1.67783 -0.460975 0
M  V30 8090 O 745.108 -1.98526 -0.339006 0
M  V30 8091 C 742.173 -3.45773 -0.253315 0
M  V30 8092 C 741.234 -4.23337 0.713054 0
M  V30 8093 C 740.467 -5.33694 0.025993 0
M  V30 8094 O 740.69 -5.57853 -1.18978 0
M  V30 8095 O 739.624 -5.97724 0.70782 0
M  V30 8096 H 743.45 -2.72952 1.33156 0
M  V30 8097 H 741.035 -1.31263 0.713468 0
M  V30 8098 H 742.917 -4.16209 -0.659423 0
M  V30 8099 H 741.592 -3.04721 -1.09209 0
M  V30 8100 H 740.499 -3.55359 1.16923 0
M  V30 8101 H 741.832 -4.68154 1.51963 0
M  V30 8102 N 743.484 -0.715051 -1.40445 0
M  V30 8103 C 744.416 -0.0227516 -2.29189 0
M  V30 8104 C 745.429 0.724313 -1.458 0
M  V30 8105 O 746.618 0.571781 -1.69094 0
M  V30 8106 C 743.718 0.992038 -3.24055 0
M  V30 8107 C 742.891 0.310613 -4.36296 0
M  V30 8108 C 741.95 1.23071 -5.11605 0
M  V30 8109 O 740.976 0.71571 -5.64682 0
M  V30 8110 N 742.178 2.56188 -5.2091 0
M  V30 8111 H 744.943 -0.78473 -2.89244 0
M  V30 8112 H 742.504 -0.562637 -1.51809 0
M  V30 8113 H 744.496 1.60973 -3.71308 0
M  V30 8114 H 743.066 1.65538 -2.65171 0
M  V30 8115 H 742.286 -0.487269 -3.91177 0
M  V30 8116 H 743.574 -0.162415 -5.08541 0
M  V30 8117 H 742.972 3.00527 -4.7927 0
M  V30 8118 H 741.529 3.13103 -5.71673 0
M  V30 8119 N 744.962 1.50701 -0.461195 0
M  V30 8120 C 745.872 2.32069 0.343661 0
M  V30 8121 C 746.888 1.42016 1.00535 0
M  V30 8122 O 748.064 1.75077 0.995498 0
M  V30 8123 C 745.129 3.16424 1.41692 0
M  V30 8124 C 744.19 4.22286 0.772869 0
M  V30 8125 C 743.423 5.02609 1.79499 0
M  V30 8126 O 743.646 4.83874 3.0203 0
M  V30 8127 O 742.58 5.86047 1.3723 0
M  V30 8128 H 746.406 3.01996 -0.321268 0
M  V30 8129 H 743.991 1.47723 -0.223235 0
M  V30 8130 H 745.873 3.68795 2.03883 0
M  V30 8131 H 744.548 2.49236 2.0655 0
M  V30 8132 H 743.455 3.73931 0.112277 0
M  V30 8133 H 744.788 4.91915 0.167399 0
M  V30 8134 N 746.441 0.193421 1.56409 0
M  V30 8135 C 747.389 -0.744829 2.20352 0
M  V30 8136 C 748.383 -1.22104 1.17418 0
M  V30 8137 O 749.589 -1.18413 1.35567 0
M  V30 8138 H 745.964 -0.258538 0.70616 0
M  V30 8139 H 747.935 -0.181794 2.97846 0
M  V30 8140 C 746.684 -1.95453 2.87565 0
M  V30 8141 H 746.007 -1.59716 3.66512 0
M  V30 8142 H 747.447 -2.58942 3.35745 0
M  V30 8143 C 745.906 -2.79223 1.8851 0
M  V30 8144 O 746.436 -3.77093 1.38434 0
M  V30 8145 N 744.642 -2.44682 1.56777 0
M  V30 8146 H 744.189 -1.65153 1.97692 0
M  V30 8147 H 744.147 -3.01016 0.907573 0
M  V30 8148 N 747.919 -1.57396 -0.0801906 0
M  V30 8149 C 748.829 -2.06451 -1.11423 0
M  V30 8150 C 749.845 -0.992352 -1.42928 0
M  V30 8151 O 751.021 -1.30651 -1.53272 0
M  V30 8152 C 748.086 -2.49164 -2.41077 0
M  V30 8153 C 747.147 -3.70641 -2.16619 0
M  V30 8154 C 746.38 -4.11307 -3.40092 0
M  V30 8155 O 746.603 -3.51922 -4.48895 0
M  V30 8156 O 745.537 -5.04157 -3.288 0
M  V30 8157 H 749.363 -2.94857 -0.727519 0
M  V30 8158 H 746.948 -1.46484 -0.293743 0
M  V30 8159 H 748.83 -2.77196 -3.17396 0
M  V30 8160 H 747.505 -1.6389 -2.79145 0
M  V30 8161 H 746.412 -3.47703 -1.38033 0
M  V30 8162 H 747.745 -4.5674 -1.83437 0
M  V30 8163 N 749.397 0.351382 -1.53633 0
M  V30 8164 C 750.344 1.43115 -1.81071 0
M  V30 8165 C 751.314 1.52601 -0.655913 0
M  V30 8166 O 752.499 1.68264 -0.89955 0
M  V30 8167 C 749.639 2.79874 -2.01903 0
M  V30 8168 C 748.752 2.79242 -3.29618 0
M  V30 8169 C 747.887 4.07667 -3.40559 0
M  V30 8170 C 746.926 4.01233 -4.62254 0
M  V30 8171 N 746.063 5.21334 -4.70271 0
M  V30 8172 H 750.903 1.19017 -2.73201 0
M  V30 8173 H 748.44 0.576691 -1.35324 0
M  V30 8174 H 750.398 3.5934 -2.11969 0
M  V30 8175 H 749.028 3.0234 -1.13094 0
M  V30 8176 H 748.08 1.91927 -3.28433 0
M  V30 8177 H 749.392 2.70363 -4.19172 0
M  V30 8178 H 748.546 4.95555 -3.50015 0
M  V30 8179 H 747.285 4.19317 -2.49047 0
M  V30 8180 H 746.29 3.11732 -4.52884 0
M  V30 8181 H 747.515 3.91173 -5.55122 0
M  V30 8182 H 745.461 5.33543 -3.81665 0
M  V30 8183 H 745.378 5.14681 -5.5375 0
M  V30 8184 H 746.646 6.11014 -4.84027 0
M  V30 8185 N 750.875 1.45233 0.611969 0
M  V30 8186 C 752.291 1.29542 0.932251 0
M  V30 8187 C 752.491 0.24523 2.00002 0
M  V30 8188 O 751.547 -0.362333 2.49887 0
M  V30 8189 C 752.86 2.67301 1.37733 0
M  V30 8190 C 754.408 2.75163 1.49178 0
M  V30 8191 C 754.883 4.13437 1.97064 0
M  V30 8192 N 756.374 4.15709 2.04304 0
M  V30 8193 C 757.109 5.19566 2.42568 0
M  V30 8194 N 756.605 6.33771 2.79832 0
M  V30 8195 N 758.398 5.06923 2.42869 0
M  V30 8196 H 750.549 2.12192 -0.0938679 0
M  V30 8197 H 752.812 0.947775 0.0206569 0
M  V30 8198 H 752.518 3.45318 0.666951 0
M  V30 8199 H 752.392 2.95472 2.3447 0
M  V30 8200 H 754.779 1.97453 2.19309 0
M  V30 8201 H 754.86 2.50712 0.507674 0
M  V30 8202 H 754.504 4.91631 1.27521 0
M  V30 8203 H 754.434 4.35277 2.9638 0
M  V30 8204 H 756.925 3.33293 1.78113 0
M  V30 8205 H 757.238 7.08815 3.07898 0
M  V30 8206 H 755.583 6.37179 2.77538 0
M  V30 8207 H 758.774 4.1675 2.1316 0
M  V30 8208 H 758.947 5.87981 2.72364 0
M  V30 8209 N 752.353 -0.854086 1.3245 0
M  V30 8210 C 753.769 -1.14238 1.11453 0
M  V30 8211 C 753.969 -2.01228 -0.10461 0
M  V30 8212 O 753.025 -2.39845 -0.789339 0
M  V30 8213 C 754.338 -1.81916 2.39431 0
M  V30 8214 C 755.886 -1.94549 2.45193 0
M  V30 8215 C 756.361 -2.65642 3.73093 0
M  V30 8216 N 757.852 -2.73167 3.74078 0
M  V30 8217 C 758.587 -3.28828 4.69744 0
M  V30 8218 N 758.083 -3.85295 5.75778 0
M  V30 8219 N 759.876 -3.26936 4.57241 0
M  V30 8220 H 752.027 -0.274786 2.10615 0
M  V30 8221 H 754.29 -0.184375 0.929898 0
M  V30 8222 H 753.996 -1.25452 3.28565 0
M  V30 8223 H 753.87 -2.82068 2.50434 0
M  V30 8224 H 756.257 -2.50172 1.56518 0
M  V30 8225 H 756.338 -0.933914 2.38142 0
M  V30 8226 H 755.982 -2.10683 4.62142 0
M  V30 8227 H 755.912 -3.6724 3.77415 0
M  V30 8228 H 758.403 -2.33108 2.97438 0
M  V30 8229 H 758.716 -4.25925 6.44832 0
M  V30 8230 H 757.061 -3.83625 5.79531 0
M  V30 8231 H 760.252 -2.8207 3.7357 0
M  V30 8232 H 760.425 -3.70014 5.31971 0
M  V30 8233 N 753.831 -1.1567 -1.07043 0
M  V30 8234 C 754.779 -0.852204 -2.16426 0
M  V30 8235 C 755.773 0.175661 -1.68487 0
M  V30 8236 O 756.979 0.0303874 -1.79974 0
M  V30 8237 H 753.354 -0.257942 -0.706378 0
M  V30 8238 H 755.325 -1.78231 -2.39324 0
M  V30 8239 C 754.074 -0.361362 -3.45817 0
M  V30 8240 H 753.397 -1.14369 -3.83092 0
M  V30 8241 H 754.837 -0.186997 -4.23587 0
M  V30 8242 C 753.296 0.917703 -3.2416 0
M  V30 8243 O 753.826 1.98858 -3.49025 0
M  V30 8244 N 752.032 0.858456 -2.77631 0
M  V30 8245 H 751.579 -0.0131821 -2.57597 0
M  V30 8246 H 751.537 1.71478 -2.6352 0
M  V30 8247 N 755.309 1.25446 -0.953992 0
M  V30 8248 C 756.555 1.9343 -0.60933 0
M  V30 8249 C 756.888 1.74542 0.851388 0
M  V30 8250 O 756.163 1.09014 1.61078 0
M  V30 8251 C 756.446 3.46844 -0.968041 0
M  V30 8252 C 756.299 3.74961 -2.48444 0
M  V30 8253 C 757.618 4.37334 -0.492641 0
M  V30 8254 H 754.737 0.702502 -0.222844 0
M  V30 8255 H 757.379 1.48076 -1.19053 0
M  V30 8256 H 755.529 3.85604 -0.473465 0
M  V30 8257 H 757.201 3.45841 -3.05273 0
M  V30 8258 H 755.444 3.20589 -2.92241 0
M  V30 8259 H 756.115 4.82246 -2.68594 0
M  V30 8260 H 758.591 4.05873 -0.916878 0
M  V30 8261 H 757.467 5.43439 -0.772331 0
M  V30 8262 H 757.728 4.37908 0.607403 0
M  V30 8263 N 756.787 0.722489 1.40064 0
M  V30 8264 C 757.697 0.0755984 2.34478 0
M  V30 8265 C 758.713 -0.736046 1.57665 0
M  V30 8266 O 759.889 -0.667407 1.9002 0
M  V30 8267 C 756.954 -0.830075 3.36616 0
M  V30 8268 C 756.015 -0.00759884 4.29299 0
M  V30 8269 C 755.248 -0.870139 5.26559 0
M  V30 8270 O 755.471 -2.10921 5.2997 0
M  V30 8271 O 754.405 -0.305454 6.01124 0
M  V30 8272 H 758.231 0.854545 2.9143 0
M  V30 8273 H 755.816 0.483032 1.41376 0
M  V30 8274 H 757.698 -1.34864 3.99236 0
M  V30 8275 H 756.373 -1.58805 2.82069 0
M  V30 8276 H 755.28 0.556199 3.69942 0
M  V30 8277 H 756.613 0.712312 4.87018 0
M  V30 8278 N 758.265 -1.50454 0.469181 0
M  V30 8279 C 759.213 -2.30101 -0.340033 0
M  V30 8280 C 760.207 -1.37306 -0.992135 0
M  V30 8281 O 761.413 -1.54506 -0.923458 0
M  V30 8282 H 757.788 -0.740941 -0.128495 0
M  V30 8283 H 759.759 -2.96315 0.352144 0
M  V30 8284 C 758.508 -3.17804 -1.41052 0
M  V30 8285 H 757.831 -3.89115 -0.918124 0
M  V30 8286 H 759.271 -3.76533 -1.94934 0
M  V30 8287 C 757.73 -2.35272 -2.4114 0
M  V30 8288 O 758.26 -2.03448 -3.4637 0
M  V30 8289 N 756.466 -1.97889 -2.1281 0
M  V30 8290 H 756.013 -2.2397 -1.27261 0
M  V30 8291 H 755.971 -1.42971 -2.80012 0
M  V30 8292 N 759.743 -0.201713 -1.56304 0
M  V30 8293 C 760.653 0.728296 -2.23009 0
M  V30 8294 C 761.669 1.22945 -1.23128 0
M  V30 8295 O 762.845 1.27523 -1.55884 0
M  V30 8296 C 759.91 1.92792 -2.88153 0
M  V30 8297 C 758.971 1.47068 -4.03323 0
M  V30 8298 C 758.204 2.61312 -4.65351 0
M  V30 8299 O 758.427 3.7896 -4.26317 0
M  V30 8300 O 757.361 2.33646 -5.54701 0
M  V30 8301 H 761.187 0.190166 -3.03104 0
M  V30 8302 H 758.772 0.0278725 -1.49374 0
M  V30 8303 H 760.654 2.6289 -3.29343 0
M  V30 8304 H 759.329 2.45452 -2.11033 0
M  V30 8305 H 758.236 0.738299 -3.66742 0
M  V30 8306 H 759.569 0.990666 -4.82127 0
M  V30 8307 N 761.222 1.57436 0.0718424 0
M  V30 8308 C 762.468 1.87525 0.772149 0
M  V30 8309 C 762.801 0.79399 1.77227 0
M  V30 8310 O 762.076 -0.195733 1.93513 0
M  V30 8311 C 762.359 3.28272 1.48018 0
M  V30 8312 C 762.212 4.47052 0.49647 0
M  V30 8313 C 763.531 3.67256 2.42509 0
M  V30 8314 H 760.65 0.682049 0.279245 0
M  V30 8315 H 763.292 1.89967 0.03534 0
M  V30 8316 H 761.442 3.26321 2.10824 0
M  V30 8317 H 763.114 4.61127 -0.126375 0
M  V30 8318 H 761.357 4.33392 -0.188205 0
M  V30 8319 H 762.028 5.42315 1.02949 0
M  V30 8320 H 764.504 3.70301 1.89781 0
M  V30 8321 H 763.38 4.66626 2.89053 0
M  V30 8322 H 763.641 2.97186 3.27312 0
M  V30 8323 N 762.7 -0.34323 1.53817 0
M  V30 8324 C 763.925 -1.1079 1.75329 0
M  V30 8325 C 764.35 -1.81571 0.491293 0
M  V30 8326 O 763.708 -1.72561 -0.556089 0
M  V30 8327 C 763.756 -2.09681 2.9337 0
M  V30 8328 O 762.86 -3.17207 2.63541 0
M  V30 8329 H 762.201 -0.320402 0.581583 0
M  V30 8330 H 764.731 -0.393525 2.0078 0
M  V30 8331 H 764.741 -2.52897 3.20168 0
M  V30 8332 H 763.416 -1.5756 3.84899 0
M  V30 8333 H 761.993 -2.78806 2.47632 0
M  V30 8334 N 764.178 -1.45556 -0.604258 0
M  V30 8335 C 765.406 -1.53278 -1.38973 0
M  V30 8336 C 765.821 -0.166509 -1.88064 0
M  V30 8337 O 765.178 0.832519 -1.62405 0
M  V30 8338 C 765.229 -2.51992 -2.59195 0
M  V30 8339 O 764.95 -3.8331 -2.12143 0
M  V30 8340 C 766.451 -2.69445 -3.52015 0
M  V30 8341 H 763.671 -0.519003 -0.425297 0
M  V30 8342 H 766.215 -1.90773 -0.736621 0
M  V30 8343 H 764.37 -2.17561 -3.2054 0
M  V30 8344 H 764.784 -4.3685 -2.90279 0
M  V30 8345 H 766.258 -3.42485 -4.32907 0
M  V30 8346 H 766.735 -1.75596 -4.0257 0
M  V30 8347 H 767.341 -3.04886 -2.9652 0
M  V30 8348 N 765.656 0.84705 -1.32902 0
M  V30 8349 C 766.586 1.97166 -1.25091 0
M  V30 8350 C 767.567 1.69578 -0.133161 0
M  V30 8351 O 768.752 1.91519 -0.321591 0
M  V30 8352 C 765.882 3.33157 -0.981006 0
M  V30 8353 C 764.836 3.75119 -2.06082 0
M  V30 8354 C 764.162 5.08826 -1.64318 0
M  V30 8355 C 765.462 3.89774 -3.47669 0
M  V30 8356 H 767.156 2.03958 -2.19184 0
M  V30 8357 H 764.702 0.979907 -1.05517 0
M  V30 8358 H 766.655 4.11393 -0.912891 0
M  V30 8359 H 765.379 3.266 -0.00445559 0
M  V30 8360 H 764.038 2.9914 -2.11921 0
M  V30 8361 H 763.686 4.98732 -0.653876 0
M  V30 8362 H 763.386 5.37873 -2.36572 0
M  V30 8363 H 764.91 5.89546 -1.58958 0
M  V30 8364 H 766.324 4.58343 -3.44376 0
M  V30 8365 H 764.721 4.30248 -4.18338 0
M  V30 8366 H 765.791 2.92463 -3.86773 0
M  V30 8367 N 767.134 1.16236 1.06428 0
M  V30 8368 C 768.081 0.86769 2.13869 0
M  V30 8369 C 769.051 -0.183298 1.65086 0
M  V30 8370 O 770.236 -0.0488002 1.90738 0
M  V30 8371 C 767.376 0.373427 3.43074 0
M  V30 8372 C 766.489 1.48708 4.05598 0
M  V30 8373 C 765.624 0.947977 5.22673 0
M  V30 8374 C 764.663 2.03793 5.77178 0
M  V30 8375 N 763.8 1.51451 6.85571 0
M  V30 8376 H 768.64 1.78781 2.38414 0
M  V30 8377 H 766.177 0.891892 1.16977 0
M  V30 8378 H 768.135 0.0685035 4.17144 0
M  V30 8379 H 766.765 -0.509752 3.1875 0
M  V30 8380 H 765.817 1.908 3.29089 0
M  V30 8381 H 767.129 2.30964 4.42105 0
M  V30 8382 H 766.283 0.596154 6.03764 0
M  V30 8383 H 765.022 0.0947081 4.87608 0
M  V30 8384 H 764.027 2.39847 4.94726 0
M  V30 8385 H 765.252 2.89514 6.14295 0
M  V30 8386 H 763.198 0.683755 6.52427 0
M  V30 8387 H 763.115 2.27325 7.21013 0
M  V30 8388 H 764.383 1.19123 7.70344 0
M  V30 8389 N 768.612 -1.24939 0.960631 0
M  V30 8390 C 769.889 -1.88118 0.535807 0
M  V30 8391 C 770.269 -1.86605 -0.987009 0
M  V30 8392 O 769.617 -1.33375 -1.85536 0
M  V30 8393 C 769.827 -3.30565 1.11927 0
M  V30 8394 C 771.175 -4.07296 1.19981 0
M  V30 8395 O 772.199 -3.39709 1.07126 0
M  V30 8396 O 771.058 -5.28206 1.40218 0
M  V30 8397 H 768.152 -0.807698 0.177631 0
M  V30 8398 H 770.698 -1.32964 1.05445 0
M  V30 8399 H 769.47 -3.26128 2.16231 0
M  V30 8400 H 769.093 -3.93284 0.584245 0
M  V30 8401 N 770.09 -0.729906 -1.39679 0
M  V30 8402 C 771.022 -0.0470588 -2.29152 0
M  V30 8403 C 772.035 0.708808 -1.4656 0
M  V30 8404 O 773.224 0.553815 -1.69691 0
M  V30 8405 C 770.324 0.957612 -3.25089 0
M  V30 8406 C 769.497 0.264321 -4.36601 0
M  V30 8407 C 768.556 1.17638 -5.12882 0
M  V30 8408 O 767.582 0.655777 -5.6541 0
M  V30 8409 N 768.784 2.50649 -5.23598 0
M  V30 8410 H 771.549 -0.815364 -2.88395 0
M  V30 8411 H 769.11 -0.578707 -1.51204 0
M  V30 8412 H 771.102 1.57026 -3.72995 0
M  V30 8413 H 769.672 1.62716 -2.66912 0
M  V30 8414 H 768.892 -0.528732 -3.90638 0
M  V30 8415 H 770.18 -0.216344 -5.0834 0
M  V30 8416 H 769.578 2.95427 -4.82431 0
M  V30 8417 H 768.135 3.07022 -5.74961 0
M  V30 8418 N 771.568 1.50203 -0.477153 0
M  V30 8419 C 772.498 2.31517 0.303646 0
M  V30 8420 C 773.479 1.38696 0.984753 0
M  V30 8421 O 774.664 1.67615 0.980758 0
M  V30 8422 C 771.794 3.18598 1.38249 0
M  V30 8423 C 770.748 4.2002 0.822645 0
M  V30 8424 C 770.074 4.95878 2.00024 0
M  V30 8425 C 771.374 5.22023 -0.170185 0
M  V30 8426 H 773.068 2.97042 -0.375027 0
M  V30 8427 H 770.614 1.42848 -0.181802 0
M  V30 8428 H 772.567 3.74282 1.93625 0
M  V30 8429 H 771.291 2.5097 2.09002 0
M  V30 8430 H 769.95 3.65445 0.290813 0
M  V30 8431 H 769.598 4.24717 2.69489 0
M  V30 8432 H 769.298 5.64487 1.63183 0
M  V30 8433 H 770.822 5.54399 2.55878 0
M  V30 8434 H 772.236 5.72543 0.294606 0
M  V30 8435 H 770.633 5.98386 -0.453181 0
M  V30 8436 H 771.703 4.72396 -1.09408 0
M  V30 8437 N 773.046 0.209999 1.56195 0
M  V30 8438 C 773.956 -0.716459 2.23392 0
M  V30 8439 C 774.972 -1.22291 1.23778 0
M  V30 8440 O 776.148 -1.26694 1.56558 0
M  V30 8441 C 773.213 -1.91261 2.89172 0
M  V30 8442 C 772.274 -1.44927 4.04097 0
M  V30 8443 C 771.507 -2.5884 4.66731 0
M  V30 8444 O 771.73 -3.76693 4.2832 0
M  V30 8445 O 770.664 -2.30701 5.55932 0
M  V30 8446 H 774.49 -0.174089 3.03201 0
M  V30 8447 H 772.075 -0.0199505 1.49387 0
M  V30 8448 H 773.957 -2.6114 3.30733 0
M  V30 8449 H 772.632 -2.4433 2.12331 0
M  V30 8450 H 771.539 -0.718839 3.67129 0
M  V30 8451 H 772.872 -0.965084 4.82646 0
M  V30 8452 N 774.524 -1.57472 -0.0634922 0
M  V30 8453 C 775.801 -1.78736 -0.794538 0
M  V30 8454 C 776.181 -0.799645 -1.95369 0
M  V30 8455 O 775.529 0.165521 -2.279 0
M  V30 8456 C 775.739 -3.25471 -1.25975 0
M  V30 8457 C 777.087 -3.89528 -1.68976 0
M  V30 8458 O 778.111 -3.29412 -1.35521 0
M  V30 8459 O 776.97 -4.95305 -2.30944 0
M  V30 8460 H 774.064 -0.733813 -0.381376 0
M  V30 8461 H 776.61 -1.69646 -0.0429258 0
M  V30 8462 H 775.382 -3.88922 -0.430721 0
M  V30 8463 H 775.005 -3.39317 -2.07243 0
M  V30 8464 N 776.003 0.335068 -1.53997 0
M  V30 8465 C 776.933 1.41727 -1.85568 0
M  V30 8466 C 777.914 1.54505 -0.7115 0
M  V30 8467 O 779.099 1.68573 -0.964191 0
M  V30 8468 C 776.229 2.7866 -2.07282 0
M  V30 8469 C 775.183 2.80682 -3.23112 0
M  V30 8470 C 774.509 4.20581 -3.30175 0
M  V30 8471 C 775.809 2.45458 -4.61029 0
M  V30 8472 H 777.503 1.15555 -2.76202 0
M  V30 8473 H 775.049 0.554445 -1.32898 0
M  V30 8474 H 777.002 3.54423 -2.27952 0
M  V30 8475 H 775.726 3.06286 -1.13387 0
M  V30 8476 H 774.385 2.07373 -3.02311 0
M  V30 8477 H 774.033 4.4533 -2.33859 0
M  V30 8478 H 773.733 4.22843 -4.08016 0
M  V30 8479 H 775.257 4.98174 -3.53066 0
M  V30 8480 H 776.671 3.10934 -4.81656 0
M  V30 8481 H 775.068 2.5899 -5.41336 0
M  V30 8482 H 776.138 1.40628 -4.6406 0
M  V30 8483 N 777.481 1.45874 0.596531 0
M  V30 8484 C 778.428 1.55389 1.70655 0
M  V30 8485 C 779.398 0.399036 1.61236 0
M  V30 8486 O 780.583 0.61396 1.80652 0
M  V30 8487 C 777.723 1.53705 3.0898 0
M  V30 8488 C 776.836 2.79823 3.29125 0
M  V30 8489 C 775.971 2.69735 4.5762 0
M  V30 8490 C 775.01 3.90856 4.71061 0
M  V30 8491 N 774.147 3.79237 5.90867 0
M  V30 8492 H 778.987 2.50211 1.61859 0
M  V30 8493 H 776.524 1.24146 0.789069 0
M  V30 8494 H 778.482 1.50715 3.89026 0
M  V30 8495 H 777.112 0.624247 3.16706 0
M  V30 8496 H 776.164 2.92852 2.42779 0
M  V30 8497 H 777.476 3.69628 3.34927 0
M  V30 8498 H 776.63 2.64773 5.45875 0
M  V30 8499 H 775.369 1.77547 4.54234 0
M  V30 8500 H 774.374 3.96164 3.81227 0
M  V30 8501 H 775.599 4.84124 4.76236 0
M  V30 8502 H 773.545 2.89825 5.88504 0
M  V30 8503 H 773.462 4.62686 5.97877 0
M  V30 8504 H 774.73 3.78227 6.8159 0
M  V30 8505 N 778.959 -0.83999 1.33349 0
M  V30 8506 C 779.906 -1.94972 1.23509 0
M  V30 8507 C 780.876 -1.65709 0.113967 0
M  V30 8508 O 782.061 -1.88552 0.292045 0
M  V30 8509 C 779.201 -3.30919 0.979105 0
M  V30 8510 C 778.314 -3.72587 2.18639 0
M  V30 8511 C 777.449 -4.97397 1.86465 0
M  V30 8512 C 776.488 -5.31597 3.03432 0
M  V30 8513 N 775.625 -6.47584 2.71254 0
M  V30 8514 H 780.465 -2.0272 2.18423 0
M  V30 8515 H 778.002 -0.992017 1.08616 0
M  V30 8516 H 779.96 -4.09239 0.811126 0
M  V30 8517 H 778.59 -3.22731 0.0667099 0
M  V30 8518 H 777.642 -2.89799 2.46416 0
M  V30 8519 H 778.954 -3.93844 3.06086 0
M  V30 8520 H 778.108 -5.83462 1.66305 0
M  V30 8521 H 776.847 -4.78107 0.96254 0
M  V30 8522 H 775.852 -4.44037 3.24208 0
M  V30 8523 H 777.077 -5.52836 3.94397 0
M  V30 8524 H 775.023 -6.29783 1.836 0
M  V30 8525 H 774.94 -6.68931 3.52231 0
M  V30 8526 H 776.208 -7.36764 2.54558 0
M  V30 8527 N 780.437 -1.16799 -1.0581 0
M  V30 8528 C 781.683 -0.953935 -1.78963 0
M  V30 8529 C 782.016 0.516638 -1.87202 0
M  V30 8530 O 781.291 1.38338 -1.36721 0
M  V30 8531 C 781.574 -1.58808 -3.23191 0
M  V30 8532 C 781.427 -3.13032 -3.23003 0
M  V30 8533 C 782.746 -1.2868 -4.20867 0
M  V30 8534 H 779.865 -0.347972 -0.64968 0
M  V30 8535 H 782.507 -1.44204 -1.23715 0
M  V30 8536 H 780.657 -1.17303 -3.70368 0
M  V30 8537 H 782.329 -3.63553 -2.83949 0
M  V30 8538 H 780.572 -3.46108 -2.61518 0
M  V30 8539 H 781.243 -3.52527 -4.24769 0
M  V30 8540 H 783.719 -1.6461 -3.82155 0
M  V30 8541 H 782.595 -1.75645 -5.20038 0
M  V30 8542 H 782.856 -0.206491 -4.41618 0
M  V30 8543 N 781.915 1.24427 -0.967243 0
M  V30 8544 C 783.14 1.9708 -0.646069 0
M  V30 8545 C 783.565 1.71272 0.777665 0
M  V30 8546 O 782.923 0.976179 1.52776 0
M  V30 8547 C 782.971 3.48501 -0.926266 0
M  V30 8548 O 782.075 4.12398 -0.0114653 0
M  V30 8549 H 781.416 0.617423 -0.244304 0
M  V30 8550 H 783.946 1.58215 -1.29727 0
M  V30 8551 H 783.956 3.98885 -0.857619 0
M  V30 8552 H 782.631 3.66613 -1.96386 0
M  V30 8553 H 781.208 3.72661 -0.133396 0
M  V30 8554 N 783.393 0.737304 1.3929 0
M  V30 8555 C 784.325 0.0592106 2.29124 0
M  V30 8556 C 785.338 -0.701026 1.46934 0
M  V30 8557 O 786.527 -0.544808 1.69983 0
M  V30 8558 C 783.627 -0.940358 3.25592 0
M  V30 8559 C 782.8 -0.241163 4.36735 0
M  V30 8560 C 781.859 -1.14916 5.13498 0
M  V30 8561 O 780.885 -0.625783 5.6575 0
M  V30 8562 N 782.087 -2.47869 5.2492 0
M  V30 8563 H 784.852 0.830647 2.87959 0
M  V30 8564 H 782.413 0.586718 1.50895 0
M  V30 8565 H 784.405 -1.55046 3.73822 0
M  V30 8566 H 782.975 -1.61299 2.67771 0
M  V30 8567 H 782.195 0.549441 3.90352 0
M  V30 8568 H 783.483 0.243299 5.08218 0
M  V30 8569 H 782.881 -2.92864 4.83991 0
M  V30 8570 H 781.438 -3.03969 5.76581 0
M  V30 8571 N 784.871 -1.49948 0.485112 0
M  V30 8572 C 785.819 -2.30449 -0.315609 0
M  V30 8573 C 786.813 -1.38351 -0.977516 0
M  V30 8574 O 788.019 -1.55477 -0.907019 0
M  V30 8575 H 784.394 -0.742262 -0.120629 0
M  V30 8576 H 786.365 -2.95925 0.383552 0
M  V30 8577 C 785.114 -3.19283 -1.37673 0
M  V30 8578 H 784.437 -3.90067 -0.876801 0
M  V30 8579 H 785.877 -3.78579 -1.90929 0
M  V30 8580 C 784.336 -2.37817 -2.38631 0
M  V30 8581 O 784.866 -2.0711 -3.44192 0
M  V30 8582 N 783.072 -2.00135 -2.107 0
M  V30 8583 H 782.619 -2.25307 -1.24878 0
M  V30 8584 H 782.577 -1.45933 -2.7848 0
M  V30 8585 N 786.349 -0.21828 -1.56081 0
M  V30 8586 C 787.574 0.422302 -2.03055 0
M  V30 8587 C 787.999 1.5279 -1.09713 0
M  V30 8588 O 787.357 1.81102 -0.0847187 0
M  V30 8589 C 787.405 0.934177 -3.48289 0
M  V30 8590 O 786.509 2.04574 -3.58083 0
M  V30 8591 H 785.85 0.0959764 -0.657027 0
M  V30 8592 H 788.38 -0.335958 -2.01823 0
M  V30 8593 H 788.39 1.24484 -3.88546 0
M  V30 8594 H 787.065 0.124963 -4.15712 0
M  V30 8595 H 785.642 1.74196 -3.29712 0
M  V30 8596 N 787.827 1.57504 0.0551401 0
M  V30 8597 C 788.759 2.0158 1.09078 0
M  V30 8598 C 789.772 0.92434 1.34014 0
M  V30 8599 O 790.961 1.20202 1.31961 0
M  V30 8600 C 788.061 2.35385 2.43818 0
M  V30 8601 C 787.234 3.66588 2.38605 0
M  V30 8602 C 786.293 3.87874 3.55585 0
M  V30 8603 O 785.319 4.59259 3.36258 0
M  V30 8604 N 786.521 3.31503 4.76536 0
M  V30 8605 H 789.286 2.91039 0.71529 0
M  V30 8606 H 786.847 1.60058 0.243532 0
M  V30 8607 H 788.839 2.46784 3.20749 0
M  V30 8608 H 787.409 1.51731 2.73307 0
M  V30 8609 H 786.629 3.65787 1.46947 0
M  V30 8610 H 787.917 4.52706 2.32239 0
M  V30 8611 H 787.315 2.73592 4.9514 0
M  V30 8612 H 785.872 3.48324 5.50921 0
M  V30 8613 N 789.305 -0.326896 1.54172 0
M  V30 8614 C 790.235 -1.40741 1.86317 0
M  V30 8615 C 791.216 -1.54125 0.719684 0
M  V30 8616 O 792.401 -1.6806 0.973117 0
M  V30 8617 C 789.531 -2.77557 2.08757 0
M  V30 8618 C 788.485 -2.78965 3.24596 0
M  V30 8619 C 787.811 -4.18824 3.32401 0
M  V30 8620 C 789.111 -2.4301 4.62324 0
M  V30 8621 H 790.805 -1.14088 2.76811 0
M  V30 8622 H 788.351 -0.547389 1.3319 0
M  V30 8623 H 790.304 -3.53209 2.29829 0
M  V30 8624 H 789.028 -3.0568 1.15009 0
M  V30 8625 H 787.687 -2.05767 3.03406 0
M  V30 8626 H 787.335 -4.44083 2.36218 0
M  V30 8627 H 787.035 -4.20673 4.10253 0
M  V30 8628 H 788.559 -4.96294 3.55703 0
M  V30 8629 H 789.973 -3.08375 4.83299 0
M  V30 8630 H 788.37 -2.56116 5.42701 0
M  V30 8631 H 789.44 -1.38165 4.64799 0
M  V30 8632 N 790.784 -1.46188 -0.588786 0
M  V30 8633 C 791.747 -1.55882 -1.68029 0
M  V30 8634 C 792.747 -0.436515 -1.54762 0
M  V30 8635 O 793.937 -0.700626 -1.59489 0
M  V30 8636 C 791.069 -1.47332 -3.07418 0
M  V30 8637 H 792.262 -2.5315 -1.60795 0
M  V30 8638 H 789.815 -1.33908 -0.806116 0
M  V30 8639 H 790.55 -0.513193 -3.20214 0
M  V30 8640 H 790.335 -2.28753 -3.18456 0
M  V30 8641 H 791.825 -1.57187 -3.86887 0
M  V30 8642 N 792.262 0.832906 -1.33792 0
M  V30 8643 C 793.21 1.96455 -1.24532 0
M  V30 8644 C 794.204 1.68774 -0.145455 0
M  V30 8645 O 795.41 1.77314 -0.309797 0
M  V30 8646 H 791.785 0.645008 -0.386611 0
M  V30 8647 H 793.756 2.01389 -2.20193 0
M  V30 8648 C 792.505 3.32784 -1.00748 0
M  V30 8649 H 791.828 3.54626 -1.84609 0
M  V30 8650 H 793.268 4.12447 -0.98301 0
M  V30 8651 C 791.727 3.35654 0.289475 0
M  V30 8652 O 792.257 3.80281 1.29419 0
M  V30 8653 N 790.463 2.88843 0.3191 0
M  V30 8654 H 790.01 2.52719 -0.499069 0
M  V30 8655 H 789.968 2.91145 1.18667 0
M  V30 8656 N 793.74 1.17359 1.05189 0
M  V30 8657 C 794.65 0.904984 2.16442 0
M  V30 8658 C 795.666 -0.12686 1.73537 0
M  V30 8659 O 796.842 0.0524127 2.01332 0
M  V30 8660 C 793.907 0.422019 3.44122 0
M  V30 8661 C 792.968 1.52045 4.01473 0
M  V30 8662 C 792.201 1.06044 5.23059 0
M  V30 8663 O 792.424 -0.0854023 5.70336 0
M  V30 8664 O 791.358 1.85349 5.72651 0
M  V30 8665 H 795.184 1.8356 2.41949 0
M  V30 8666 H 792.769 0.95447 1.14936 0
M  V30 8667 H 794.651 0.160208 4.21095 0
M  V30 8668 H 793.326 -0.480444 3.20115 0
M  V30 8669 H 792.233 1.83615 3.25939 0
M  V30 8670 H 793.566 2.39863 4.29798 0
M  V30 8671 N 795.218 -1.23913 0.973828 0
M  V30 8672 C 796.165 -2.25132 0.508366 0
M  V30 8673 C 797.135 -1.59908 -0.449307 0
M  V30 8674 O 798.32 -1.87405 -0.358313 0
M  V30 8675 C 795.46 -3.4458 -0.189422 0
M  V30 8676 C 794.573 -4.24381 0.807738 0
M  V30 8677 C 793.708 -5.31131 0.0854315 0
M  V30 8678 C 792.747 -6.02635 1.07225 0
M  V30 8679 N 791.884 -7.01073 0.379535 0
M  V30 8680 H 796.724 -2.64313 1.37632 0
M  V30 8681 H 794.261 -1.29924 0.689802 0
M  V30 8682 H 796.219 -4.12706 -0.610733 0
M  V30 8683 H 794.849 -3.06218 -1.02129 0
M  V30 8684 H 793.901 -3.55735 1.34747 0
M  V30 8685 H 795.213 -4.73778 1.55998 0
M  V30 8686 H 794.367 -6.05422 -0.393572 0
M  V30 8687 H 793.106 -4.82658 -0.699461 0
M  V30 8688 H 792.111 -5.27143 1.56207 0
M  V30 8689 H 793.336 -6.53197 1.85769 0
M  V30 8690 H 791.282 -6.54862 -0.386269 0
M  V30 8691 H 791.199 -7.48382 1.07054 0
M  V30 8692 H 792.467 -7.79462 -0.0772984 0
M  V30 8693 N 796.696 -0.74468 -1.38897 0
M  V30 8694 C 797.626 -0.126355 -2.33158 0
M  V30 8695 C 798.607 0.713517 -1.54412 0
M  V30 8696 O 799.792 0.656523 -1.82766 0
M  V30 8697 C 796.922 0.774375 -3.38557 0
M  V30 8698 C 795.876 0.0379214 -4.27983 0
M  V30 8699 C 795.202 1.05631 -5.24162 0
M  V30 8700 C 796.502 -1.12523 -5.10035 0
M  V30 8701 H 798.196 -0.913744 -2.85116 0
M  V30 8702 H 795.742 -0.440847 -1.37086 0
M  V30 8703 H 797.695 1.21655 -4.03458 0
M  V30 8704 H 796.419 1.59399 -2.85061 0
M  V30 8705 H 795.078 -0.384733 -3.64576 0
M  V30 8706 H 794.726 1.86975 -4.66958 0
M  V30 8707 H 794.426 0.568261 -5.84846 0
M  V30 8708 H 795.95 1.49799 -5.9194 0
M  V30 8709 H 797.364 -0.761037 -5.68226 0
M  V30 8710 H 795.761 -1.54355 -5.79909 0
M  V30 8711 H 796.831 -1.94237 -4.44297 0
M  V30 8712 N 798.174 1.49689 -0.493057 0
M  V30 8713 C 799.399 2.07331 0.0535114 0
M  V30 8714 C 799.824 1.35196 1.30781 0
M  V30 8715 O 799.182 0.406246 1.7669 0
M  V30 8716 C 799.23 3.59364 0.29825 0
M  V30 8717 O 798.334 3.88819 1.37454 0
M  V30 8718 H 797.675 0.663612 -0.0227018 0
M  V30 8719 H 800.205 1.926 -0.690402 0
M  V30 8720 H 800.215 4.04515 0.532159 0
M  V30 8721 H 798.89 4.1128 -0.618207 0
M  V30 8722 H 797.467 3.55487 1.12621 0
M  V30 8723 N 799.652 0.226554 1.55963 0
M  V30 8724 C 800.584 -0.713907 2.17798 0
M  V30 8725 C 801.597 -1.15387 1.14846 0
M  V30 8726 O 802.786 -1.08416 1.41804 0
M  V30 8727 C 799.886 -1.97945 2.75084 0
M  V30 8728 C 799.059 -1.69424 4.03255 0
M  V30 8729 C 798.118 -2.80734 4.45056 0
M  V30 8730 O 797.144 -2.4899 5.11852 0
M  V30 8731 N 798.346 -4.09797 4.11152 0
M  V30 8732 H 801.111 -0.18494 2.99129 0
M  V30 8733 H 798.672 0.0457346 1.61835 0
M  V30 8734 H 800.664 -2.71611 3.00016 0
M  V30 8735 H 799.234 -2.41876 1.98027 0
M  V30 8736 H 798.454 -0.793767 3.86126 0
M  V30 8737 H 799.742 -1.47806 4.86858 0
M  V30 8738 H 799.14 -4.38429 3.57486 0
M  V30 8739 H 797.697 -4.79992 4.40966 0
M  V30 8740 N 801.13 -1.57531 -0.0467866 0
M  V30 8741 C 802.06 -2.08425 -1.05268 0
M  V30 8742 C 803.041 -0.982941 -1.38825 0
M  V30 8743 O 804.226 -1.25716 -1.48018 0
M  V30 8744 C 801.356 -2.54897 -2.35891 0
M  V30 8745 C 800.31 -3.69132 -2.16623 0
M  V30 8746 C 799.636 -4.01747 -3.52851 0
M  V30 8747 C 800.936 -4.98243 -1.56689 0
M  V30 8748 H 802.63 -2.92716 -0.62908 0
M  V30 8749 H 800.176 -1.40816 -0.301156 0
M  V30 8750 H 802.129 -2.8912 -3.06574 0
M  V30 8751 H 800.853 -1.67666 -2.80278 0
M  V30 8752 H 799.512 -3.35231 -1.48377 0
M  V30 8753 H 799.16 -3.11608 -3.94853 0
M  V30 8754 H 798.86 -4.78681 -3.4079 0
M  V30 8755 H 800.384 -4.38487 -4.24925 0
M  V30 8756 H 801.798 -5.30535 -2.17268 0
M  V30 8757 H 800.195 -5.79669 -1.55255 0
M  V30 8758 H 801.265 -4.81986 -0.530827 0
M  V30 8759 N 802.608 0.318715 -1.54344 0
M  V30 8760 C 803.54 1.41364 -1.80413 0
M  V30 8761 C 804.553 1.47627 -0.686294 0
M  V30 8762 O 805.742 1.50264 -0.963486 0
M  V30 8763 C 802.842 2.79867 -1.91123 0
M  V30 8764 C 802.015 2.96749 -3.21339 0
M  V30 8765 C 801.074 4.15642 -3.22689 0
M  V30 8766 O 800.1 4.08571 -3.96306 0
M  V30 8767 N 801.302 5.25416 -2.46817 0
M  V30 8768 H 804.067 1.19363 -2.74905 0
M  V30 8769 H 801.628 0.508722 -1.537 0
M  V30 8770 H 803.62 3.57619 -1.89448 0
M  V30 8771 H 802.19 2.94896 -1.03706 0
M  V30 8772 H 801.41 2.06257 -3.35934 0
M  V30 8773 H 802.698 3.04927 -4.07304 0
M  V30 8774 H 802.096 5.34037 -1.86605 0
M  V30 8775 H 800.653 6.01569 -2.50915 0
M  V30 8776 N 804.086 1.46499 0.581025 0
M  V30 8777 C 805.033 1.5719 1.68997 0
M  V30 8778 C 806.003 0.416114 1.60803 0
M  V30 8779 O 807.188 0.633086 1.79991 0
M  V30 8780 C 804.328 1.56973 3.07333 0
M  V30 8781 C 803.441 2.83298 3.26139 0
M  V30 8782 C 802.576 2.74574 4.54734 0
M  V30 8783 C 801.615 3.9583 4.66889 0
M  V30 8784 N 800.752 3.85482 5.86811 0
M  V30 8785 H 805.592 2.51914 1.59196 0
M  V30 8786 H 803.129 1.24975 0.775857 0
M  V30 8787 H 805.087 1.54832 3.87405 0
M  V30 8788 H 803.717 0.657803 3.16027 0
M  V30 8789 H 802.769 2.95411 2.3966 0
M  V30 8790 H 804.081 3.7316 3.30988 0
M  V30 8791 H 803.235 2.70548 5.43036 0
M  V30 8792 H 801.974 1.82354 4.52325 0
M  V30 8793 H 800.979 4.00186 3.77003 0
M  V30 8794 H 802.204 4.89148 4.71075 0
M  V30 8795 H 800.15 2.96051 5.85397 0
M  V30 8796 H 800.067 4.69002 5.92936 0
M  V30 8797 H 801.335 3.85434 6.7754 0
M  V30 8798 N 805.565 -0.825799 1.34232 0
M  V30 8799 C 806.497 -1.94401 1.21413 0
M  V30 8800 C 807.51 -1.6218 0.141902 0
M  V30 8801 O 808.699 -1.74109 0.3935 0
M  V30 8802 C 805.799 -3.28257 0.842635 0
M  V30 8803 C 804.972 -3.88521 2.00924 0
M  V30 8804 C 804.031 -5.00752 1.61661 0
M  V30 8805 O 803.057 -5.19201 2.33279 0
M  V30 8806 N 804.259 -5.78084 0.52911 0
M  V30 8807 H 807.024 -2.05931 2.17744 0
M  V30 8808 H 804.585 -1.00223 1.27149 0
M  V30 8809 H 806.577 -4.00781 0.561822 0
M  V30 8810 H 805.147 -3.12585 -0.0304029 0
M  V30 8811 H 804.367 -3.08425 2.45495 0
M  V30 8812 H 805.655 -4.25516 2.78951 0
M  V30 8813 H 805.053 -5.65661 -0.0663322 0
M  V30 8814 H 803.61 -6.51072 0.308017 0
M  V30 8815 N 807.043 -1.17915 -1.04565 0
M  V30 8816 C 807.973 -0.925033 -2.14395 0
M  V30 8817 C 808.954 0.135375 -1.6956 0
M  V30 8818 O 810.139 -0.0161774 -1.94193 0
M  V30 8819 C 807.269 -0.444469 -3.44444 0
M  V30 8820 C 806.223 -1.44478 -4.02877 0
M  V30 8821 C 805.549 -0.821933 -5.28345 0
M  V30 8822 C 806.849 -2.81995 -4.39632 0
M  V30 8823 H 808.543 -1.84354 -2.35911 0
M  V30 8824 H 806.089 -0.887806 -1.13375 0
M  V30 8825 H 808.042 -0.254078 -4.20633 0
M  V30 8826 H 806.766 0.509592 -3.226 0
M  V30 8827 H 805.425 -1.62203 -3.28764 0
M  V30 8828 H 805.073 0.139161 -5.02807 0
M  V30 8829 H 804.773 -1.48976 -5.68401 0
M  V30 8830 H 806.297 -0.641959 -6.07216 0
M  V30 8831 H 807.711 -2.67952 -5.06828 0
M  V30 8832 H 806.108 -3.45414 -4.90723 0
M  V30 8833 H 807.178 -3.35927 -3.49687 0
M  V30 8834 N 808.521 1.23394 -0.980386 0
M  V30 8835 C 809.431 2.28561 -0.528864 0
M  V30 8836 C 810.447 1.68946 0.416329 0
M  V30 8837 O 811.623 1.99355 0.286251 0
M  V30 8838 C 808.688 3.46323 0.16155 0
M  V30 8839 C 807.749 4.21297 -0.825044 0
M  V30 8840 C 806.982 5.33437 -0.167483 0
M  V30 8841 O 807.205 5.60812 1.04146 0
M  V30 8842 O 806.139 5.95637 -0.866047 0
M  V30 8843 H 809.965 2.69326 -1.40346 0
M  V30 8844 H 807.55 1.29325 -0.748019 0
M  V30 8845 H 809.432 4.17811 0.548841 0
M  V30 8846 H 808.107 3.0751 1.01092 0
M  V30 8847 H 807.014 3.52134 -1.26303 0
M  V30 8848 H 808.347 4.6396 -1.64322 0
M  V30 8849 N 809.999 0.752036 1.385 0
M  V30 8850 C 810.909 0.125318 2.34265 0
M  V30 8851 C 811.925 -0.702437 1.59191 0
M  V30 8852 O 813.101 -0.626951 1.91393 0
M  V30 8853 C 810.166 -0.758486 3.38301 0
M  V30 8854 C 809.227 0.0834636 4.29219 0
M  V30 8855 C 808.46 -0.758252 5.28286 0
M  V30 8856 O 808.683 -1.99632 5.34325 0
M  V30 8857 O 807.617 -0.177878 6.01637 0
M  V30 8858 H 811.443 0.91617 2.89551 0
M  V30 8859 H 809.028 0.512911 1.4032 0
M  V30 8860 H 810.91 -1.26365 4.02007 0
M  V30 8861 H 809.585 -1.52786 2.85374 0
M  V30 8862 H 808.492 0.634545 3.68679 0
M  V30 8863 H 809.825 0.815455 4.85398 0
M  V30 8864 N 811.477 -1.49425 0.500989 0
M  V30 8865 C 812.44 -2.27646 -0.266416 0
M  V30 8866 C 813.44 -1.3366 -0.893961 0
M  V30 8867 O 814.63 -1.5682 -0.758495 0
M  V30 8868 C 811.762 -3.11618 -1.38227 0
M  V30 8869 H 812.955 -2.96945 0.419973 0
M  V30 8870 H 810.508 -1.5419 0.255954 0
M  V30 8871 H 811.243 -2.46885 -2.10281 0
M  V30 8872 H 811.028 -3.80721 -0.937746 0
M  V30 8873 H 812.518 -3.70698 -1.92283 0
M  V30 8874 N 812.955 -0.234822 -1.55841 0
M  V30 8875 C 813.903 0.686145 -2.22249 0
M  V30 8876 C 814.897 1.18948 -1.20614 0
M  V30 8877 O 816.103 1.14777 -1.38659 0
M  V30 8878 H 812.478 0.239724 -0.712767 0
M  V30 8879 H 814.449 0.102762 -2.98223 0
M  V30 8880 C 813.198 1.8776 -2.92646 0
M  V30 8881 H 812.521 1.49943 -3.70617 0
M  V30 8882 H 813.961 2.4995 -3.42493 0
M  V30 8883 C 812.42 2.74127 -1.95847 0
M  V30 8884 O 812.95 3.7329 -1.48384 0
M  V30 8885 N 811.156 2.4044 -1.63209 0
M  V30 8886 H 810.703 1.59854 -2.02001 0
M  V30 8887 H 810.661 2.98504 -0.987063 0
M  V30 8888 N 814.433 1.57553 0.0384317 0
M  V30 8889 C 815.71 1.79977 0.766002 0
M  V30 8890 C 816.09 0.830625 1.94072 0
M  V30 8891 O 815.438 -0.129243 2.28134 0
M  V30 8892 C 815.648 3.27434 1.20781 0
M  V30 8893 C 816.996 3.92167 1.62758 0
M  V30 8894 O 818.02 3.31527 1.30263 0
M  V30 8895 O 816.879 4.98917 2.23035 0
M  V30 8896 H 813.973 0.739787 0.369654 0
M  V30 8897 H 816.519 1.69693 0.0159312 0
M  V30 8898 H 815.291 3.89558 0.368792 0
M  V30 8899 H 814.914 3.42571 2.01819 0
M  V30 8900 N 815.911 -0.310526 1.54511 0
M  V30 8901 C 816.841 -1.38757 1.878 0
M  V30 8902 C 817.822 -1.53353 0.735991 0
M  V30 8903 O 819.007 -1.67018 0.990887 0
M  V30 8904 C 816.137 -2.75327 2.11689 0
M  V30 8905 C 815.091 -2.75506 3.27537 0
M  V30 8906 C 814.417 -4.15275 3.36824 0
M  V30 8907 C 815.717 -2.38093 4.64875 0
M  V30 8908 H 817.411 -1.11146 2.78005 0
M  V30 8909 H 814.957 -0.533232 1.33763 0
M  V30 8910 H 816.91 -3.50752 2.33562 0
M  V30 8911 H 815.634 -3.04443 1.18245 0
M  V30 8912 H 814.293 -2.02538 3.05572 0
M  V30 8913 H 813.941 -4.41553 2.40915 0
M  V30 8914 H 813.641 -4.16299 4.14692 0
M  V30 8915 H 815.165 -4.92493 3.60947 0
M  V30 8916 H 816.579 -3.03232 4.86542 0
M  V30 8917 H 814.976 -2.50345 5.45387 0
M  V30 8918 H 816.046 -1.33227 4.66239 0
M  V30 8919 N 817.389 -1.46805 -0.573248 0
M  V30 8920 C 818.319 -1.60951 -1.69165 0
M  V30 8921 C 819.3 -0.45948 -1.63777 0
M  V30 8922 O 820.485 -0.68688 -1.81647 0
M  V30 8923 C 817.615 -1.60844 -3.07809 0
M  V30 8924 C 816.569 -2.74913 -3.28035 0
M  V30 8925 C 815.895 -2.59871 -4.67302 0
M  V30 8926 C 817.195 -4.16654 -3.14955 0
M  V30 8927 H 818.889 -2.54574 -1.57582 0
M  V30 8928 H 816.435 -1.22516 -0.756686 0
M  V30 8929 H 818.388 -1.69334 -3.85881 0
M  V30 8930 H 817.112 -0.637714 -3.20314 0
M  V30 8931 H 815.771 -2.65908 -2.52366 0
M  V30 8932 H 815.419 -1.60861 -4.76585 0
M  V30 8933 H 815.119 -3.36386 -4.81786 0
M  V30 8934 H 816.643 -2.70265 -5.4753 0
M  V30 8935 H 818.057 -4.26721 -3.82861 0
M  V30 8936 H 816.454 -4.93831 -3.40956 0
M  V30 8937 H 817.524 -4.36146 -2.11908 0
M  V30 8938 N 818.867 0.818669 -1.34668 0
M  V30 8939 C 820.283 1.11243 -1.14443 0
M  V30 8940 C 820.483 2.01435 0.0512212 0
M  V30 8941 O 819.539 2.41854 0.725471 0
M  V30 8942 C 820.852 1.75504 -2.4417 0
M  V30 8943 C 822.4 1.8798 -2.50265 0
M  V30 8944 C 822.875 2.55657 -3.80004 0
M  V30 8945 N 824.366 2.63153 -3.81189 0
M  V30 8946 C 825.101 3.16258 -4.78298 0
M  V30 8947 N 824.597 3.69893 -5.85791 0
M  V30 8948 N 826.39 3.14698 -4.65748 0
M  V30 8949 H 818.541 0.218848 -2.1127 0
M  V30 8950 H 820.804 0.159655 -0.934459 0
M  V30 8951 H 820.51 1.16697 -3.31775 0
M  V30 8952 H 820.384 2.75329 -2.57825 0
M  V30 8953 H 822.771 2.45934 -1.63096 0
M  V30 8954 H 822.852 0.870447 -2.40535 0
M  V30 8955 H 822.496 1.98356 -4.67565 0
M  V30 8956 H 822.426 3.57105 -3.87019 0
M  V30 8957 H 824.917 2.2514 -3.03513 0
M  V30 8958 H 825.23 4.08678 -6.55898 0
M  V30 8959 H 823.575 3.68125 -5.89499 0
M  V30 8960 H 826.766 2.72066 -3.80917 0
M  V30 8961 H 826.939 3.5578 -5.41594 0
M  V30 8962 N 820.346 1.18468 1.03938 0
M  V30 8963 C 821.574 1.00576 1.80809 0
M  V30 8964 C 821.989 -0.445786 1.83462 0
M  V30 8965 O 821.346 -1.30964 1.27101 0
M  V30 8966 C 821.397 1.55491 3.26351 0
M  V30 8967 O 821.118 2.94963 3.23926 0
M  V30 8968 C 822.619 1.42236 4.19862 0
M  V30 8969 H 819.839 0.35508 0.56935 0
M  V30 8970 H 822.383 1.57046 1.30984 0
M  V30 8971 H 820.538 1.03195 3.73403 0
M  V30 8972 H 820.952 3.20598 4.15111 0
M  V30 8973 H 822.426 1.85455 5.19914 0
M  V30 8974 H 822.903 0.371267 4.37628 0
M  V30 8975 H 823.509 1.9361 3.78675 0
M  V30 8976 N 821.824 -1.22873 0.986916 0
M  V30 8977 C 822.734 -2.28277 0.540978 0
M  V30 8978 C 823.75 -1.69164 -0.407363 0
M  V30 8979 O 824.926 -1.99504 -0.275674 0
M  V30 8980 C 821.991 -3.46404 -0.143181 0
M  V30 8981 C 821.052 -4.20854 0.847375 0
M  V30 8982 C 820.285 -5.33341 0.19577 0
M  V30 8983 O 820.508 -5.61356 -1.0117 0
M  V30 8984 O 819.442 -5.95169 0.897623 0
M  V30 8985 H 823.268 -2.68578 1.41773 0
M  V30 8986 H 820.853 -1.28927 0.754867 0
M  V30 8987 H 822.735 -4.18096 -0.526676 0
M  V30 8988 H 821.41 -3.08041 -0.994593 0
M  V30 8989 H 820.317 -3.51459 1.28169 0
M  V30 8990 H 821.65 -4.63082 1.6678 0
M  V30 8991 N 823.302 -0.75937 -1.38099 0
M  V30 8992 C 824.527 -0.327859 -2.04792 0
M  V30 8993 C 824.952 1.03752 -1.56899 0
M  V30 8994 O 824.31 1.66235 -0.723581 0
M  V30 8995 C 824.358 -0.366264 -3.58735 0
M  V30 8996 O 823.462 0.637697 -4.0744 0
M  V30 8997 H 822.803 -0.144092 -0.648177 0
M  V30 8998 H 825.333 -1.03211 -1.7666 0
M  V30 8999 H 825.343 -0.219179 -4.07411 0
M  V30 9000 H 824.018 -1.36243 -3.92951 0
M  V30 9001 H 822.595 0.454749 -3.70117 0
M  V30 9002 N 824.78 1.49157 -0.508906 0
M  V30 9003 C 826.057 1.95363 0.0961913 0
M  V30 9004 C 826.437 1.45064 1.53362 0
M  V30 9005 O 825.785 0.667835 2.18523 0
M  V30 9006 C 825.995 3.49 0.000688881 0
M  V30 9007 C 827.343 4.24257 0.170632 0
M  V30 9008 O 828.367 3.5612 0.0754994 0
M  V30 9009 O 827.226 5.45267 0.366957 0
M  V30 9010 H 824.32 0.821984 0.0909489 0
M  V30 9011 H 826.866 1.59769 -0.572007 0
M  V30 9012 H 825.638 3.78269 -1.00143 0
M  V30 9013 H 825.261 3.91233 0.708682 0
M  V30 9014 N 826.258 0.243083 1.55714 0
M  V30 9015 C 827.486 -0.386971 2.03249 0
M  V30 9016 C 827.901 -1.51812 1.12243 0
M  V30 9017 O 827.258 -1.81992 0.136119 0
M  V30 9018 C 827.309 -0.898361 3.5016 0
M  V30 9019 O 827.03 0.187708 4.37698 0
M  V30 9020 C 828.531 -1.59949 4.13438 0
M  V30 9021 H 825.751 -0.0923981 0.664608 0
M  V30 9022 H 828.295 0.365832 2.01201 0
M  V30 9023 H 826.45 -1.60136 3.52754 0
M  V30 9024 H 826.864 -0.200001 5.24119 0
M  V30 9025 H 828.338 -1.90907 5.17937 0
M  V30 9026 H 828.815 -2.52014 3.59702 0
M  V30 9027 H 829.421 -0.941163 4.14756 0
M  V30 9028 N 827.736 -1.57571 -0.0300757 0
M  V30 9029 C 828.699 -2.05468 -1.01565 0
M  V30 9030 C 829.699 -0.958628 -1.29101 0
M  V30 9031 O 830.889 -1.22228 -1.24121 0
M  V30 9032 C 828.021 -2.47077 -2.34874 0
M  V30 9033 H 829.214 -2.93797 -0.601936 0
M  V30 9034 H 826.767 -1.53828 -0.276878 0
M  V30 9035 H 827.502 -1.61901 -2.80996 0
M  V30 9036 H 827.287 -3.27097 -2.16218 0
M  V30 9037 H 828.777 -2.84564 -3.05635 0
M  V30 9038 N 829.214 0.302327 -1.54673 0
M  V30 9039 C 830.46 1.03924 -1.74149 0
M  V30 9040 C 830.793 1.86968 -0.525041 0
M  V30 9041 O 830.068 1.88538 0.477868 0
M  V30 9042 C 830.351 1.94633 -3.02969 0
M  V30 9043 C 830.204 1.14778 -4.34909 0
M  V30 9044 C 831.523 2.93826 -3.27649 0
M  V30 9045 H 828.642 0.376405 -0.633631 0
M  V30 9046 H 831.284 0.314007 -1.87387 0
M  V30 9047 H 829.434 2.56471 -2.91813 0
M  V30 9048 H 831.106 0.552363 -4.57981 0
M  V30 9049 H 829.349 0.450462 -4.31455 0
M  V30 9050 H 830.02 1.81495 -5.21309 0
M  V30 9051 H 832.496 2.42117 -3.38406 0
M  V30 9052 H 831.372 3.54462 -4.19104 0
M  V30 9053 H 831.633 3.67416 -2.45882 0
M  V30 9054 N 830.692 1.47107 0.565454 0
M  V30 9055 C 832.108 1.32443 0.890566 0
M  V30 9056 C 832.308 0.308735 1.99121 0
M  V30 9057 O 831.364 -0.28265 2.50913 0
M  V30 9058 C 832.677 2.71548 1.2916 0
M  V30 9059 C 834.225 2.7977 1.40349 0
M  V30 9060 C 834.7 4.19497 1.83811 0
M  V30 9061 N 836.191 4.21998 1.90975 0
M  V30 9062 C 836.926 5.2702 2.25916 0
M  V30 9063 N 836.422 6.42353 2.59527 0
M  V30 9064 N 838.215 5.14393 2.26619 0
M  V30 9065 H 830.366 2.11786 -0.161328 0
M  V30 9066 H 832.629 0.947952 -0.00950631 0
M  V30 9067 H 832.335 3.47265 0.556753 0
M  V30 9068 H 832.209 3.02782 2.24951 0
M  V30 9069 H 834.596 2.0433 2.12916 0
M  V30 9070 H 834.677 2.522 0.427655 0
M  V30 9071 H 834.321 4.95439 1.11816 0
M  V30 9072 H 834.251 4.44486 2.82382 0
M  V30 9073 H 836.742 3.38791 1.6742 0
M  V30 9074 H 837.055 7.18252 2.85191 0
M  V30 9075 H 835.4 6.45687 2.57126 0
M  V30 9076 H 838.591 4.2332 1.99794 0
M  V30 9077 H 838.764 5.96349 2.5352 0
M  V30 9078 N 832.17 -0.811516 1.35101 0
M  V30 9079 C 833.1 -1.9378 1.30275 0
M  V30 9080 C 834.081 -1.69165 0.178075 0
M  V30 9081 O 835.266 -1.90599 0.372256 0
M  V30 9082 C 832.396 -3.30439 1.06899 0
M  V30 9083 C 831.35 -3.69523 2.15955 0
M  V30 9084 C 830.676 -5.0429 1.77751 0
M  V30 9085 C 831.976 -3.80419 3.57881 0
M  V30 9086 H 833.67 -1.98075 2.24514 0
M  V30 9087 H 831.216 -0.951586 1.08078 0
M  V30 9088 H 833.169 -4.08828 1.02164 0
M  V30 9089 H 831.893 -3.26473 0.0910462 0
M  V30 9090 H 830.552 -2.93416 2.19778 0
M  V30 9091 H 830.2 -4.96823 0.785876 0
M  V30 9092 H 829.9 -5.31411 2.5075 0
M  V30 9093 H 831.424 -5.85125 1.74533 0
M  V30 9094 H 832.838 -4.49051 3.56407 0
M  V30 9095 H 831.235 -4.19005 4.29598 0
M  V30 9096 H 832.305 -2.82105 3.94391 0
M  V30 9097 N 833.648 -1.19017 -1.03309 0
M  V30 9098 C 835.064 -0.941483 -1.28873 0
M  V30 9099 C 835.264 0.388587 -1.97718 0
M  V30 9100 O 834.32 1.12111 -2.26246 0
M  V30 9101 C 835.633 -2.11249 -2.13996 0
M  V30 9102 C 837.181 -2.15164 -2.27318 0
M  V30 9103 C 837.656 -3.31704 -3.15811 0
M  V30 9104 N 839.147 -3.31613 -3.23399 0
M  V30 9105 C 839.882 -4.18431 -3.9205 0
M  V30 9106 N 839.378 -5.15397 -4.62966 0
M  V30 9107 N 841.171 -4.06321 -3.88406 0
M  V30 9108 H 833.322 -2.04599 -0.570343 0
M  V30 9109 H 835.585 -0.894406 -0.314232 0
M  V30 9110 H 835.291 -3.07482 -1.70727 0
M  V30 9111 H 835.165 -2.07955 -3.14697 0
M  V30 9112 H 837.552 -1.19504 -2.6982 0
M  V30 9113 H 837.633 -2.22513 -1.26182 0
M  V30 9114 H 837.277 -4.2764 -2.74019 0
M  V30 9115 H 837.207 -3.21592 -4.16997 0
M  V30 9116 H 839.698 -2.6142 -2.72888 0
M  V30 9117 H 840.011 -5.78 -5.12968 0
M  V30 9118 H 838.356 -5.19349 -4.61846 0
M  V30 9119 H 841.547 -3.29849 -3.3214 0
M  V30 9120 H 841.72 -4.74196 -4.41635 0
M  V30 9121 N 835.127 1.22348 -0.993418 0
M  V30 9122 C 836.074 2.24294 -0.544118 0
M  V30 9123 C 837.044 1.60602 0.42381 0
M  V30 9124 O 838.229 1.87952 0.328453 0
M  V30 9125 C 835.369 3.44837 0.134578 0
M  V30 9126 C 834.482 4.23043 -0.875151 0
M  V30 9127 C 833.617 5.30928 -0.169919 0
M  V30 9128 C 832.656 6.00853 -1.16798 0
M  V30 9129 N 831.793 7.00381 -0.491021 0
M  V30 9130 H 836.633 2.6209 -1.4182 0
M  V30 9131 H 834.17 1.2881 -0.710384 0
M  V30 9132 H 836.128 4.13625 0.544998 0
M  V30 9133 H 834.758 3.07804 0.972446 0
M  V30 9134 H 833.81 3.53546 -1.40389 0
M  V30 9135 H 835.122 4.71237 -1.63516 0
M  V30 9136 H 834.276 6.05972 0.297205 0
M  V30 9137 H 833.015 4.8371 0.622586 0
M  V30 9138 H 832.02 5.24591 -1.64573 0
M  V30 9139 H 833.245 6.50159 -1.96137 0
M  V30 9140 H 831.191 6.55393 0.282037 0
M  V30 9141 H 831.108 7.46584 -1.18947 0
M  V30 9142 H 832.376 7.79486 -0.0467169 0
M  V30 9143 N 836.605 0.766683 1.37694 0
M  V30 9144 C 837.83 0.338715 2.04615 0
M  V30 9145 C 838.255 -1.02918 1.57447 0
M  V30 9146 O 837.613 -1.65849 0.732386 0
M  V30 9147 C 837.661 0.385284 3.58536 0
M  V30 9148 O 836.765 -0.616081 4.07772 0
M  V30 9149 H 836.106 0.147527 0.647404 0
M  V30 9150 H 838.636 1.04146 1.7611 0
M  V30 9151 H 838.646 0.240782 4.07289 0
M  V30 9152 H 837.321 1.38325 3.92223 0
M  V30 9153 H 835.898 -0.435115 3.70353 0
M  V30 9154 N 838.083 -1.48885 0.516809 0
M  V30 9155 C 839.033 -2.26363 -0.272704 0
M  V30 9156 C 840.017 -1.31891 -0.921604 0
M  V30 9157 O 841.209 -1.56514 -0.826589 0
M  V30 9158 C 838.338 -3.16614 -1.32705 0
M  V30 9159 C 837.424 -4.18554 -0.683598 0
M  V30 9160 N 837.815 -5.05308 0.223015 0
M  V30 9161 C 836.113 -4.35931 -0.942351 0
M  V30 9162 C 836.814 -5.7867 0.592918 0
M  V30 9163 N 835.79 -5.43583 -0.042912 0
M  V30 9164 H 839.592 -2.90811 0.424971 0
M  V30 9165 H 837.106 -1.5893 0.333941 0
M  V30 9166 H 839.103 -3.70766 -1.90625 0
M  V30 9167 H 837.763 -2.5372 -2.02624 0
M  V30 9168 H 838.774 -5.14473 0.594818 0
M  V30 9169 H 835.451 -3.84234 -1.6331 0
M  V30 9170 H 836.841 -6.58493 1.33556 0
M  V30 9171 N 839.561 -0.251338 -1.55583 0
M  V30 9172 C 840.789 0.376187 -2.03451 0
M  V30 9173 C 841.204 1.51215 -1.13047 0
M  V30 9174 O 840.561 1.81917 -0.145769 0
M  V30 9175 C 840.612 0.879779 -3.50631 0
M  V30 9176 O 840.333 -0.210917 -4.37592 0
M  V30 9177 C 841.834 1.57754 -4.14281 0
M  V30 9178 H 839.054 0.0888722 -0.665089 0
M  V30 9179 H 841.598 -0.376497 -2.01004 0
M  V30 9180 H 839.753 1.58263 -3.53598 0
M  V30 9181 H 840.167 0.172203 -5.24217 0
M  V30 9182 H 841.641 1.88158 -5.18942 0
M  V30 9183 H 842.118 2.50103 -3.61034 0
M  V30 9184 H 842.724 0.919154 -4.15249 0
M  V30 9185 N 841.039 1.57585 0.0217189 0
M  V30 9186 C 841.949 2.10444 1.03684 0
M  V30 9187 C 842.965 1.04472 1.39146 0
M  V30 9188 O 844.141 1.36249 1.48317 0
M  V30 9189 C 841.206 2.5794 2.31664 0
M  V30 9190 C 840.267 3.78425 2.02714 0
M  V30 9191 C 839.5 4.23646 3.24592 0
M  V30 9192 O 839.723 3.6834 4.35525 0
M  V30 9193 O 838.657 5.16013 3.09862 0
M  V30 9194 H 842.483 2.97354 0.617584 0
M  V30 9195 H 840.068 1.47473 0.239174 0
M  V30 9196 H 841.95 2.88785 3.06889 0
M  V30 9197 H 840.625 1.74138 2.7287 0
M  V30 9198 H 839.532 3.52587 1.25033 0
M  V30 9199 H 840.865 4.63234 1.66359 0
M  V30 9200 N 842.517 -0.29412 1.54831 0
M  V30 9201 C 843.45 -1.38779 1.81151 0
M  V30 9202 C 844.428 -1.48464 0.663124 0
M  V30 9203 O 845.612 -1.65418 0.903835 0
M  V30 9204 C 842.739 -2.76627 1.95436 0
M  V30 9205 C 841.785 -2.84333 3.17895 0
M  V30 9206 S 842.618 -2.45726 4.75793 0
M  V30 9207 C 843.774 -3.85589 4.93023 0
M  V30 9208 H 844.007 -1.16246 2.73631 0
M  V30 9209 H 841.54 -0.492611 1.46331 0
M  V30 9210 H 843.498 -3.56021 2.04351 0
M  V30 9211 H 842.159 -2.96425 1.03881 0
M  V30 9212 H 841.352 -3.85457 3.24713 0
M  V30 9213 H 840.954 -2.1294 3.07461 0
M  V30 9214 H 843.246 -4.80656 4.77468 0
M  V30 9215 H 844.189 -3.83737 5.95107 0
M  V30 9216 H 844.597 -3.75911 4.21131 0
M  V30 9217 N 843.995 -1.47404 -0.557645 0
M  V30 9218 C 845.22 -1.57868 -1.34508 0
M  V30 9219 C 845.645 -0.229151 -1.86699 0
M  V30 9220 O 845.003 0.794908 -1.62944 0
M  V30 9221 C 845.051 -2.60712 -2.49122 0
M  V30 9222 O 844.155 -2.15952 -3.51338 0
M  V30 9223 H 843.496 -0.530335 -0.399551 0
M  V30 9224 H 846.026 -1.93181 -0.673954 0
M  V30 9225 H 846.036 -2.81118 -2.95697 0
M  V30 9226 H 844.711 -3.58701 -2.10491 0
M  V30 9227 H 843.288 -2.05644 -3.11071 0
M  V30 9228 N 845.473 0.80434 -1.35529 0
M  V30 9229 C 846.42 1.91629 -1.28635 0
M  V30 9230 C 847.39 1.65348 -0.157862 0
M  V30 9231 O 848.575 1.87711 -0.341934 0
M  V30 9232 C 845.715 3.28207 -1.0665 0
M  V30 9233 C 844.828 3.66659 -2.28441 0
M  V30 9234 C 843.963 4.92279 -1.99588 0
M  V30 9235 C 843.002 5.23365 -3.1742 0
M  V30 9236 N 842.139 6.40165 -2.88328 0
M  V30 9237 H 846.979 1.96858 -2.23721 0
M  V30 9238 H 844.516 0.962871 -1.11208 0
M  V30 9239 H 846.474 4.06945 -0.919343 0
M  V30 9240 H 845.104 3.22441 -0.152253 0
M  V30 9241 H 844.156 2.83164 -2.54013 0
M  V30 9242 H 845.468 3.8559 -3.1642 0
M  V30 9243 H 844.622 5.78847 -1.81715 0
M  V30 9244 H 843.361 4.75387 -1.08896 0
M  V30 9245 H 842.366 4.35285 -3.35867 0
M  V30 9246 H 843.591 5.42185 -4.08916 0
M  V30 9247 H 841.537 6.24694 -2.00233 0
M  V30 9248 H 841.454 6.59357 -3.69843 0
M  V30 9249 H 842.722 7.29755 -2.74002 0
M  V30 9250 N 846.951 1.19563 1.02676 0
M  V30 9251 C 848.176 1.02556 1.80269 0
M  V30 9252 C 848.601 -0.421056 1.83327 0
M  V30 9253 O 847.959 -1.30279 1.26084 0
M  V30 9254 C 848.007 1.60165 3.23078 0
M  V30 9255 O 847.111 0.832404 4.03912 0
M  V30 9256 H 846.452 0.362354 0.556413 0
M  V30 9257 H 848.982 1.58633 1.29216 0
M  V30 9258 H 848.992 1.6347 3.7382 0
M  V30 9259 H 847.667 2.65454 3.20167 0
M  V30 9260 H 846.244 0.872768 3.62543 0
M  V30 9261 N 848.429 -1.21819 0.999893 0
M  V30 9262 C 849.678 -1.90066 0.675108 0
M  V30 9263 C 849.991 -1.78624 -0.79705 0
M  V30 9264 O 851.197 -2.41851 -1.23371 0
M  V30 9265 C 849.653 -3.40795 1.15702 0
M  V30 9266 C 849.261 -3.60859 2.6549 0
M  V30 9267 C 851.005 -4.147 0.906889 0
M  V30 9268 C 848.912 -5.05324 3.07248 0
M  V30 9269 H 847.842 -0.711763 0.248815 0
M  V30 9270 H 850.493 -1.3792 1.21038 0
M  V30 9271 H 848.875 -3.92164 0.549832 0
M  V30 9272 H 850.049 -3.19951 3.31614 0
M  V30 9273 H 848.364 -3.00298 2.88461 0
M  V30 9274 H 850.961 -5.21187 1.1945 0
M  V30 9275 H 851.304 -4.16004 -0.156923 0
M  V30 9276 H 851.837 -3.69379 1.47662 0
M  V30 9277 H 848.576 -5.09164 4.12834 0
M  V30 9278 H 848.096 -5.47108 2.45832 0
M  V30 9279 H 849.775 -5.73797 2.98941 0
M  V30 9280 N 849.908 -0.773975 -1.37286 0
M  V30 9281 C 851.133 -0.349561 -2.04433 0
M  V30 9282 C 851.558 1.02082 -1.5799 0
M  V30 9283 O 850.916 1.65458 -0.741172 0
M  V30 9284 C 850.964 -0.404292 -3.58326 0
M  V30 9285 O 850.068 0.594447 -4.08093 0
M  V30 9286 H 849.409 -0.150959 -0.646612 0
M  V30 9287 H 851.939 -1.05079 -1.75555 0
M  V30 9288 H 851.949 -0.262378 -4.07155 0
M  V30 9289 H 850.624 -1.40403 -3.91484 0
M  V30 9290 H 849.201 0.415468 -3.70578 0
M  V30 9291 N 851.386 1.48609 -0.524698 0
M  V30 9292 C 852.318 2.27508 0.278 0
M  V30 9293 C 853.331 1.35042 0.909258 0
M  V30 9294 O 854.52 1.60136 0.788592 0
M  V30 9295 C 851.62 3.08247 1.40843 0
M  V30 9296 C 850.793 4.28455 0.880083 0
M  V30 9297 C 849.852 4.91048 1.891 0
M  V30 9298 O 848.878 5.5042 1.45005 0
M  V30 9299 N 850.08 4.82816 3.22288 0
M  V30 9300 H 852.845 2.97037 -0.398642 0
M  V30 9301 H 850.406 1.57876 -0.358698 0
M  V30 9302 H 852.398 3.46992 2.08276 0
M  V30 9303 H 850.968 2.41173 1.98883 0
M  V30 9304 H 850.188 3.94189 0.0299228 0
M  V30 9305 H 851.476 5.06279 0.505881 0
M  V30 9306 H 850.874 4.3572 3.60783 0
M  V30 9307 H 849.431 5.25676 3.85368 0
M  V30 9308 N 852.864 0.259585 1.55447 0
M  V30 9309 C 853.794 -0.62852 2.24882 0
M  V30 9310 C 854.775 -1.17128 1.23349 0
M  V30 9311 O 855.96 -1.20829 1.52033 0
M  V30 9312 C 853.09 -1.81983 2.95803 0
M  V30 9313 C 852.044 -1.40929 4.04132 0
M  V30 9314 C 851.37 -2.68246 4.62545 0
M  V30 9315 C 852.67 -0.570956 5.1917 0
M  V30 9316 H 854.364 -0.0495021 2.99359 0
M  V30 9317 H 851.91 -0.0223688 1.43983 0
M  V30 9318 H 853.863 -2.44689 3.43082 0
M  V30 9319 H 852.587 -2.42444 2.18835 0
M  V30 9320 H 851.246 -0.805519 3.57641 0
M  V30 9321 H 850.894 -3.26931 3.82263 0
M  V30 9322 H 850.594 -2.41495 5.35681 0
M  V30 9323 H 852.118 -3.31827 5.12565 0
M  V30 9324 H 853.532 -1.10262 5.62597 0
M  V30 9325 H 851.929 -0.398979 5.98772 0
M  V30 9326 H 852.999 0.413918 4.8313 0
M  V30 9327 N 854.342 -1.57594 -0.0133615 0
M  V30 9328 C 855.252 -2.10991 -1.02566 0
M  V30 9329 C 856.268 -1.05208 -1.3859 0
M  V30 9330 O 857.444 -1.37034 -1.47593 0
M  V30 9331 C 854.509 -2.59165 -2.30292 0
M  V30 9332 C 853.57 -3.79495 -2.00704 0
M  V30 9333 C 852.803 -4.25361 -3.22341 0
M  V30 9334 O 853.026 -3.70645 -4.33565 0
M  V30 9335 O 851.96 -5.17649 -3.07121 0
M  V30 9336 H 855.786 -2.97678 -0.601806 0
M  V30 9337 H 853.371 -1.47598 -0.23135 0
M  V30 9338 H 855.253 -2.90409 -3.05354 0
M  V30 9339 H 853.928 -1.75582 -2.71942 0
M  V30 9340 H 852.835 -3.53245 -1.23161 0
M  V30 9341 H 854.168 -4.64109 -1.639 0
M  V30 9342 N 855.82 0.285905 -1.54985 0
M  V30 9343 C 857.045 1.04207 -1.7932 0
M  V30 9344 C 857.47 1.79622 -0.558343 0
M  V30 9345 O 856.828 1.74506 0.491661 0
M  V30 9346 C 856.876 1.98648 -3.0095 0
M  V30 9347 O 855.98 3.07207 -2.75132 0
M  V30 9348 H 855.321 0.298596 -0.593074 0
M  V30 9349 H 857.851 0.318736 -2.02102 0
M  V30 9350 H 857.861 2.4084 -3.29333 0
M  V30 9351 H 856.536 1.43167 -3.90482 0
M  V30 9352 H 855.113 2.69423 -2.57809 0
M  V30 9353 N 857.298 1.47698 0.54982 0
M  V30 9354 C 858.228 1.63622 1.66583 0
M  V30 9355 C 859.209 0.485477 1.63025 0
M  V30 9356 O 860.394 0.715692 1.80531 0
M  V30 9357 C 857.524 1.65721 3.05211 0
M  V30 9358 C 856.478 2.80097 3.2362 0
M  V30 9359 C 855.804 2.67272 4.63109 0
M  V30 9360 C 857.104 4.21612 3.08286 0
M  V30 9361 H 858.798 2.57049 1.53512 0
M  V30 9362 H 856.344 1.23705 0.737099 0
M  V30 9363 H 858.297 1.75451 3.83138 0
M  V30 9364 H 857.021 0.688593 3.19258 0
M  V30 9365 H 855.68 2.69889 2.48104 0
M  V30 9366 H 855.328 1.68422 4.73965 0
M  V30 9367 H 855.028 3.44008 4.76374 0
M  V30 9368 H 856.552 2.78942 5.43161 0
M  V30 9369 H 857.966 4.32758 3.76024 0
M  V30 9370 H 856.363 4.99193 3.33057 0
M  V30 9371 H 857.433 4.39462 2.04942 0
M  V30 9372 N 858.776 -0.797141 1.35954 0
M  V30 9373 C 859.724 -1.93084 1.29697 0
M  V30 9374 C 860.718 -1.68329 0.190152 0
M  V30 9375 O 861.924 -1.7643 0.3567 0
M  V30 9376 H 858.299 -0.634531 0.403577 0
M  V30 9377 H 860.27 -1.95481 2.25455 0
M  V30 9378 C 859.019 -3.29996 1.09536 0
M  V30 9379 H 858.342 -3.49607 1.93946 0
M  V30 9380 H 859.782 -4.09696 1.09202 0
M  V30 9381 C 858.241 -3.36304 -0.200381 0
M  V30 9382 O 858.771 -3.83579 -1.19291 0
M  V30 9383 N 856.977 -2.89587 -0.242406 0
M  V30 9384 H 856.524 -2.51307 0.565897 0
M  V30 9385 H 856.482 -2.94189 -1.10906 0
M  V30 9386 N 860.254 -1.20106 -1.0204 0
M  V30 9387 C 861.67 -0.955099 -1.27867 0
M  V30 9388 C 861.87 0.367595 -1.98119 0
M  V30 9389 O 860.926 1.09705 -2.27423 0
M  V30 9390 C 862.239 -2.13507 -2.11744 0
M  V30 9391 C 863.787 -2.17563 -2.25023 0
M  V30 9392 C 864.262 -3.35035 -3.12275 0
M  V30 9393 N 865.753 -3.35024 -3.19864 0
M  V30 9394 C 866.488 -4.22566 -3.8759 0
M  V30 9395 N 865.984 -5.20278 -4.57474 0
M  V30 9396 N 867.777 -4.10418 -3.84075 0
M  V30 9397 H 859.928 -2.05193 -0.54861 0
M  V30 9398 H 862.191 -0.897689 -0.304728 0
M  V30 9399 H 861.897 -3.09275 -1.67456 0
M  V30 9400 H 861.771 -2.11281 -3.12474 0
M  V30 9401 H 864.158 -1.22359 -2.68537 0
M  V30 9402 H 864.239 -2.23838 -1.23815 0
M  V30 9403 H 863.883 -4.30522 -2.69468 0
M  V30 9404 H 863.813 -3.25996 -4.13563 0
M  V30 9405 H 866.304 -2.64299 -2.701 0
M  V30 9406 H 866.617 -5.83408 -5.06809 0
M  V30 9407 H 864.962 -5.24219 -4.56311 0
M  V30 9408 H 868.153 -3.33353 -3.28623 0
M  V30 9409 H 868.326 -4.78854 -4.36581 0
M  V30 9410 N 861.732 1.21287 -1.00634 0
M  V30 9411 C 862.642 2.27388 -0.577226 0
M  V30 9412 C 863.658 1.69791 0.380399 0
M  V30 9413 O 864.834 1.99918 0.2439 0
M  V30 9414 C 861.899 3.46588 0.0880532 0
M  V30 9415 C 860.96 4.19453 -0.914222 0
M  V30 9416 C 860.193 5.32962 -0.280596 0
M  V30 9417 O 860.416 5.62895 0.922265 0
M  V30 9418 O 859.35 5.93666 -0.992196 0
M  V30 9419 H 863.176 2.66289 -1.46028 0
M  V30 9420 H 860.761 1.2771 -0.775283 0
M  V30 9421 H 862.643 4.18881 0.460094 0
M  V30 9422 H 861.318 3.09585 0.945461 0
M  V30 9423 H 860.225 3.49376 -1.33744 0
M  V30 9424 H 861.558 4.6037 -1.74126 0
M  V30 9425 N 863.21 0.781244 1.36873 0
M  V30 9426 C 864.14 0.188128 2.32741 0
M  V30 9427 C 865.121 -0.672326 1.56249 0
M  V30 9428 O 866.306 -0.607835 1.84442 0
M  V30 9429 C 863.436 -0.684341 3.40491 0
M  V30 9430 C 862.39 0.0755641 4.27933 0
M  V30 9431 C 861.716 -0.916968 5.26779 0
M  V30 9432 C 863.016 1.26006 5.06873 0
M  V30 9433 H 864.71 0.989016 2.82593 0
M  V30 9434 H 862.256 0.477038 1.35869 0
M  V30 9435 H 864.209 -1.10915 4.06541 0
M  V30 9436 H 862.933 -1.51785 2.89187 0
M  V30 9437 H 861.592 0.481258 3.63427 0
M  V30 9438 H 861.24 -1.74528 4.71751 0
M  V30 9439 H 860.94 -0.413 5.86147 0
M  V30 9440 H 862.464 -1.34052 5.95703 0
M  V30 9441 H 863.878 0.911425 5.66009 0
M  V30 9442 H 862.275 1.69676 5.75613 0
M  V30 9443 H 863.345 2.05948 4.38991 0
M  V30 9444 N 864.689 -1.48329 0.532571 0
M  V30 9445 C 865.621 -2.27652 -0.265931 0
M  V30 9446 C 866.634 -1.35522 -0.902083 0
M  V30 9447 O 867.823 -1.60552 -0.780088 0
M  V30 9448 C 864.923 -3.0899 -1.39207 0
M  V30 9449 C 864.096 -4.28915 -0.857349 0
M  V30 9450 C 863.155 -4.92044 -1.86493 0
M  V30 9451 O 862.181 -5.51181 -1.42084 0
M  V30 9452 N 863.383 -4.84518 -3.19723 0
M  V30 9453 H 866.148 -2.96821 0.414389 0
M  V30 9454 H 863.709 -1.57684 0.367066 0
M  V30 9455 H 865.701 -3.48091 -2.06433 0
M  V30 9456 H 864.271 -2.42224 -1.97601 0
M  V30 9457 H 863.491 -3.94199 -0.00901765 0
M  V30 9458 H 864.779 -5.0654 -0.479025 0
M  V30 9459 H 864.177 -4.37628 -3.58467 0
M  V30 9460 H 862.734 -5.27712 -3.82575 0
M  V30 9461 N 866.167 -0.267825 -1.55308 0
M  V30 9462 C 867.077 0.633055 -2.25897 0
M  V30 9463 C 868.093 1.17613 -1.28231 0
M  V30 9464 O 869.269 1.20797 -1.61153 0
M  V30 9465 C 866.334 1.80397 -2.96071 0
M  V30 9466 C 865.395 1.29829 -4.09198 0
M  V30 9467 C 864.628 2.4134 -4.76016 0
M  V30 9468 O 864.851 3.60537 -4.42006 0
M  V30 9469 O 863.785 2.09909 -5.64111 0
M  V30 9470 H 867.611 0.0614381 -3.03638 0
M  V30 9471 H 865.196 -0.0355072 -1.49358 0
M  V30 9472 H 867.078 2.48685 -3.40197 0
M  V30 9473 H 865.753 2.36281 -2.21253 0
M  V30 9474 H 864.66 0.582086 -3.69544 0
M  V30 9475 H 865.993 0.785288 -4.85895 0
M  V30 9476 N 867.645 1.57599 0.00500368 0
M  V30 9477 C 869.061 1.55463 0.361015 0
M  V30 9478 C 869.261 0.997051 1.75103 0
M  V30 9479 O 868.317 0.628661 2.44549 0
M  V30 9480 C 869.63 2.99734 0.240828 0
M  V30 9481 C 871.178 3.11399 0.316138 0
M  V30 9482 C 871.653 4.57446 0.22513 0
M  V30 9483 N 873.144 4.62334 0.283186 0
M  V30 9484 C 873.879 5.72914 0.23603 0
M  V30 9485 N 873.375 6.92659 0.139762 0
M  V30 9486 N 875.168 5.61364 0.287529 0
M  V30 9487 H 867.319 1.92185 -0.904359 0
M  V30 9488 H 869.582 0.882529 -0.34619 0
M  V30 9489 H 869.288 3.44348 -0.715343 0
M  V30 9490 H 869.162 3.63009 1.02491 0
M  V30 9491 H 871.549 2.66718 1.26275 0
M  V30 9492 H 871.63 2.50911 -0.497725 0
M  V30 9493 H 871.274 5.02801 -0.717917 0
M  V30 9494 H 871.204 5.15874 1.05742 0
M  V30 9495 H 873.695 3.7619 0.359123 0
M  V30 9496 H 874.008 7.72722 0.10954 0
M  V30 9497 H 872.353 6.9492 0.105462 0
M  V30 9498 H 875.544 4.66707 0.360897 0
M  V30 9499 H 875.717 6.47528 0.247313 0
M  V30 9500 N 869.123 -0.277682 1.55134 0
M  V30 9501 C 870.071 -1.36305 1.88478 0
M  V30 9502 C 871.065 -1.51362 0.760654 0
M  V30 9503 O 872.271 -1.53202 0.944943 0
M  V30 9504 H 868.646 -0.45577 0.598146 0
M  V30 9505 H 870.617 -1.05431 2.79154 0
M  V30 9506 C 869.366 -2.71739 2.16918 0
M  V30 9507 H 868.689 -2.60942 3.02901 0
M  V30 9508 H 870.129 -3.46635 2.44172 0
M  V30 9509 C 868.588 -3.22476 0.975239 0
M  V30 9510 O 869.118 -4.01164 0.207497 0
M  V30 9511 N 867.324 -2.80097 0.774219 0
M  V30 9512 H 866.871 -2.16221 1.40022 0
M  V30 9513 H 866.829 -3.14392 -0.023021 0
M  V30 9514 N 870.601 -1.47988 -0.541979 0
M  V30 9515 C 872.017 -1.33843 -0.869383 0
M  V30 9516 C 872.217 -0.340374 -1.98604 0
M  V30 9517 O 871.273 0.242696 -2.51331 0
M  V30 9518 C 872.586 -2.73568 -1.24823 0
M  V30 9519 C 874.134 -2.81967 -1.3588 0
M  V30 9520 C 874.609 -4.22368 -1.77114 0
M  V30 9521 N 876.1 -4.24983 -1.84237 0
M  V30 9522 C 876.835 -5.30547 -2.17503 0
M  V30 9523 N 876.331 -6.46401 -2.49275 0
M  V30 9524 N 878.124 -5.17933 -2.18406 0
M  V30 9525 H 870.275 -2.11503 0.195001 0
M  V30 9526 H 872.538 -0.947681 0.0245862 0
M  V30 9527 H 872.244 -3.48107 -0.501435 0
M  V30 9528 H 872.118 -3.06322 -2.20106 0
M  V30 9529 H 874.505 -2.07692 -2.09638 0
M  V30 9530 H 874.586 -2.52848 -0.387478 0
M  V30 9531 H 874.23 -4.97155 -1.0392 0
M  V30 9532 H 874.16 -4.48922 -2.75275 0
M  V30 9533 H 876.651 -3.41411 -1.62009 0
M  V30 9534 H 876.964 -7.22698 -2.73729 0
M  V30 9535 H 875.309 -6.49696 -2.46821 0
M  V30 9536 H 878.5 -4.26445 -1.93034 0
M  V30 9537 H 878.673 -6.00307 -2.44 0
M  V30 9538 N 872.079 0.78992 -1.36375 0
M  V30 9539 C 873.328 1.54296 -1.29906 0
M  V30 9540 C 873.641 1.95234 0.119651 0
M  V30 9541 O 874.847 2.69762 0.306708 0
M  V30 9542 C 873.303 2.78533 -2.27919 0
M  V30 9543 C 872.911 2.44767 -3.75224 0
M  V30 9544 C 874.655 3.56516 -2.30427 0
M  V30 9545 C 872.562 3.65397 -4.65015 0
M  V30 9546 H 871.492 0.579214 -0.482729 0
M  V30 9547 H 874.143 0.866845 -1.61735 0
M  V30 9548 H 872.525 3.47941 -1.89084 0
M  V30 9549 H 873.699 1.83259 -4.22792 0
M  V30 9550 H 872.014 1.79996 -3.75487 0
M  V30 9551 H 874.611 4.46143 -2.94722 0
M  V30 9552 H 874.954 3.95063 -1.31266 0
M  V30 9553 H 875.487 2.94087 -2.67876 0
M  V30 9554 H 872.226 3.31946 -5.65236 0
M  V30 9555 H 871.746 4.26072 -4.22164 0
M  V30 9556 H 873.425 4.32431 -4.81261 0
M  V30 9557 N 873.557 1.20646 1.01402 0
M  V30 9558 C 874.487 0.98155 2.11867 0
M  V30 9559 C 875.468 -0.0903712 1.6986 0
M  V30 9560 O 876.653 0.0676586 1.94082 0
M  V30 9561 C 873.783 0.535636 3.43145 0
M  V30 9562 C 872.737 1.55109 3.98905 0
M  V30 9563 C 872.063 0.961725 5.2598 0
M  V30 9564 C 873.363 2.93552 4.32001 0
M  V30 9565 H 875.057 1.90544 2.3094 0
M  V30 9566 H 872.603 0.917554 1.10982 0
M  V30 9567 H 874.556 0.365512 4.19812 0
M  V30 9568 H 873.28 -0.423882 3.23838 0
M  V30 9569 H 871.939 1.70862 3.24348 0
M  V30 9570 H 871.587 -0.00580108 5.03 0
M  V30 9571 H 871.287 1.63993 5.64252 0
M  V30 9572 H 872.811 0.802726 6.053 0
M  V30 9573 H 874.225 2.81295 4.99546 0
M  V30 9574 H 872.622 3.58303 4.81393 0
M  V30 9575 H 873.692 3.4508 3.40658 0
M  V30 9576 N 875.035 -1.20752 1.01276 0
M  V30 9577 C 875.945 -2.27079 0.589277 0
M  V30 9578 C 876.961 -1.6999 -0.371389 0
M  V30 9579 O 878.137 -2.00044 -0.233294 0
M  V30 9580 C 875.202 -3.4663 -0.0696715 0
M  V30 9581 C 874.263 -4.18962 0.936454 0
M  V30 9582 C 873.496 -5.32806 0.308856 0
M  V30 9583 O 873.719 -5.63376 -0.8924 0
M  V30 9584 O 872.653 -5.93131 1.02367 0
M  V30 9585 H 876.479 -2.6551 1.47438 0
M  V30 9586 H 874.064 -1.27297 0.782045 0
M  V30 9587 H 875.946 -4.19119 -0.437873 0
M  V30 9588 H 874.621 -3.10082 -0.929029 0
M  V30 9589 H 873.528 -3.48661 1.35595 0
M  V30 9590 H 874.861 -4.59441 1.76565 0
M  V30 9591 N 876.513 -0.788492 -1.36457 0
M  V30 9592 C 877.461 -0.174192 -2.31947 0
M  V30 9593 C 878.455 0.665974 -1.5576 0
M  V30 9594 O 879.661 0.561161 -1.71029 0
M  V30 9595 H 876.036 -0.0375538 -0.751062 0
M  V30 9596 H 878.007 -0.995011 -2.81322 0
M  V30 9597 C 876.756 0.677276 -3.4104 0
M  V30 9598 H 876.079 0.0401418 -3.9978 0
M  V30 9599 H 877.519 1.07379 -4.10178 0
M  V30 9600 C 875.978 1.83512 -2.82533 0
M  V30 9601 O 876.508 2.93164 -2.74623 0
M  V30 9602 N 874.714 1.64095 -2.39836 0
M  V30 9603 H 874.261 0.749046 -2.46469 0
M  V30 9604 H 874.219 2.41726 -2.01037 0
M  V30 9605 N 877.991 1.48044 -0.54043 0
M  V30 9606 C 879.216 2.07396 -0.0124765 0
M  V30 9607 C 879.641 1.39288 1.26414 0
M  V30 9608 O 878.999 0.462252 1.75308 0
M  V30 9609 C 879.047 3.60131 0.18377 0
M  V30 9610 O 878.151 3.92995 1.25014 0
M  V30 9611 H 877.492 0.662554 -0.0438026 0
M  V30 9612 H 880.022 1.90306 -0.751327 0
M  V30 9613 H 880.032 4.06003 0.403197 0
M  V30 9614 H 878.707 4.09105 -0.74874 0
M  V30 9615 H 877.284 3.5889 1.01254 0
M  V30 9616 N 879.47 0.276058 1.55163 0
M  V30 9617 C 880.417 -0.611006 2.22565 0
M  V30 9618 C 881.387 -1.14902 1.19945 0
M  V30 9619 O 882.572 -1.19815 1.48489 0
M  V30 9620 C 879.712 -1.78885 2.95117 0
M  V30 9621 C 878.825 -1.2846 4.12458 0
M  V30 9622 C 877.96 -2.42432 4.72652 0
M  V30 9623 C 876.999 -1.89015 5.82185 0
M  V30 9624 N 876.136 -2.96463 6.36439 0
M  V30 9625 H 880.976 -0.0295849 2.97985 0
M  V30 9626 H 878.513 -0.00283607 1.471 0
M  V30 9627 H 880.471 -2.48121 3.35398 0
M  V30 9628 H 879.101 -2.34229 2.22119 0
M  V30 9629 H 878.153 -0.485312 3.77292 0
M  V30 9630 H 879.465 -0.853358 4.91446 0
M  V30 9631 H 878.619 -3.19659 5.15658 0
M  V30 9632 H 877.358 -2.88872 3.92943 0
M  V30 9633 H 876.363 -1.10267 5.38629 0
M  V30 9634 H 877.588 -1.43509 6.63763 0
M  V30 9635 H 875.534 -3.42283 5.59623 0
M  V30 9636 H 875.451 -2.57759 7.10701 0
M  V30 9637 H 876.719 -3.73663 6.84103 0
M  V30 9638 N 880.948 -1.576 0.00335426 0
M  V30 9639 C 882.173 -1.95398 -0.695311 0
M  V30 9640 C 882.598 -0.878476 -1.66326 0
M  V30 9641 O 881.956 0.163086 -1.80565 0
M  V30 9642 C 882.004 -3.32293 -1.40049 0
M  V30 9643 O 881.108 -3.26834 -2.51502 0
M  V30 9644 H 880.449 -0.637796 -0.184694 0
M  V30 9645 H 882.979 -2.04519 0.057543 0
M  V30 9646 H 882.989 -3.67936 -1.76316 0
M  V30 9647 H 881.664 -4.10123 -0.690803 0
M  V30 9648 H 880.241 -3.02872 -2.17539 0
M  V30 9649 N 882.426 0.269451 -1.5528 0
M  V30 9650 C 883.358 1.35553 -1.84819 0
M  V30 9651 C 884.371 1.45369 -0.732914 0
M  V30 9652 O 885.56 1.47122 -1.0108 0
M  V30 9653 C 882.66 2.73645 -1.9993 0
M  V30 9654 C 881.833 2.86376 -3.30617 0
M  V30 9655 C 880.892 4.05165 -3.35749 0
M  V30 9656 O 879.918 3.95756 -4.09104 0
M  V30 9657 N 881.12 5.17297 -2.63408 0
M  V30 9658 H 883.885 1.10557 -2.78563 0
M  V30 9659 H 881.446 0.459566 -1.5524 0
M  V30 9660 H 883.438 3.51411 -2.00729 0
M  V30 9661 H 882.008 2.91448 -1.13035 0
M  V30 9662 H 881.228 1.95465 -3.42326 0
M  V30 9663 H 882.516 2.91815 -4.16799 0
M  V30 9664 H 881.914 5.2783 -2.03501 0
M  V30 9665 H 880.471 5.93281 -2.69927 0
M  V30 9666 N 883.904 1.48273 0.534124 0
M  V30 9667 C 885.132 1.59734 1.31501 0
M  V30 9668 C 885.547 0.256047 1.87056 0
M  V30 9669 O 884.904 -0.754086 1.66192 0
M  V30 9670 C 884.955 2.64072 2.46877 0
M  V30 9671 O 884.676 3.92995 1.93613 0
M  V30 9672 C 886.177 2.85933 3.38758 0
M  V30 9673 H 883.397 0.538703 0.40005 0
M  V30 9674 H 885.941 1.9407 0.644762 0
M  V30 9675 H 884.096 2.32606 3.09795 0
M  V30 9676 H 884.51 4.50203 2.69106 0
M  V30 9677 H 885.984 3.62749 4.16073 0
M  V30 9678 H 886.461 1.94603 3.93734 0
M  V30 9679 H 887.067 3.18687 2.81636 0
M  V30 9680 N 885.382 -0.782676 1.36792 0
M  V30 9681 C 886.659 -1.52939 1.21939 0
M  V30 9682 C 887.039 -2.10228 -0.191639 0
M  V30 9683 O 886.387 -1.94574 -1.19805 0
M  V30 9684 C 886.597 -2.61898 2.30674 0
M  V30 9685 C 887.945 -3.29598 2.67676 0
M  V30 9686 O 888.969 -2.72186 2.29768 0
M  V30 9687 O 887.828 -4.3337 3.32946 0
M  V30 9688 H 884.922 -0.676856 0.47518 0
M  V30 9689 H 887.468 -0.82058 1.48542 0
M  V30 9690 H 886.24 -2.17607 3.25212 0
M  V30 9691 H 885.863 -3.40391 2.05475 0
M  V30 9692 N 886.86 -1.21182 -1.00761 0
M  V30 9693 C 887.807 -0.968741 -2.09485 0
M  V30 9694 C 888.777 0.104325 -1.65772 0
M  V30 9695 O 889.962 -0.0422587 -1.90753 0
M  V30 9696 C 887.102 -0.536686 -3.40901 0
M  V30 9697 C 886.215 -1.6789 -3.98041 0
M  V30 9698 C 885.35 -1.19627 -5.17555 0
M  V30 9699 C 884.389 -2.31099 -5.66798 0
M  V30 9700 N 883.526 -1.83988 -6.77564 0
M  V30 9701 H 888.366 -1.89952 -2.29613 0
M  V30 9702 H 885.903 -0.946688 -1.12589 0
M  V30 9703 H 887.861 -0.26745 -4.16342 0
M  V30 9704 H 886.491 0.357092 -3.20819 0
M  V30 9705 H 885.543 -2.06284 -3.19611 0
M  V30 9706 H 886.855 -2.51794 -4.30582 0
M  V30 9707 H 886.009 -0.883539 -6.00232 0
M  V30 9708 H 884.748 -0.327244 -4.86601 0
M  V30 9709 H 883.753 -2.63178 -4.82719 0
M  V30 9710 H 884.978 -3.18493 -5.99782 0
M  V30 9711 H 882.924 -0.994257 -6.48422 0
M  V30 9712 H 882.841 -2.61466 -7.09346 0
M  V30 9713 H 884.109 -1.55741 -7.63783 0
M  V30 9714 N 888.338 1.20213 -1.01915 0
M  V30 9715 C 889.615 1.85348 -0.62495 0
M  V30 9716 C 889.995 1.91101 0.896854 0
M  V30 9717 O 889.343 1.42075 1.78961 0
M  V30 9718 C 889.553 3.24849 -1.27571 0
M  V30 9719 C 890.901 4.01107 -1.39277 0
M  V30 9720 O 891.925 3.34211 -1.23212 0
M  V30 9721 O 890.784 5.20914 -1.6526 0
M  V30 9722 H 887.878 0.798303 -0.215965 0
M  V30 9723 H 890.424 1.27782 -1.11669 0
M  V30 9724 H 889.196 3.1544 -2.31545 0
M  V30 9725 H 888.819 3.90049 -0.77122 0
M  V30 9726 N 889.816 0.795718 1.36037 0
M  V30 9727 C 891.046 0.382597 2.03026 0
M  V30 9728 C 891.454 -1.00779 1.60126 0
M  V30 9729 O 890.797 -1.65884 0.78919 0
M  V30 9730 C 890.859 0.374145 3.57548 0
M  V30 9731 C 890.523 1.71318 4.23673 0
M  V30 9732 C 891.52 2.6697 4.4612 0
M  V30 9733 C 889.205 1.99421 4.61017 0
M  V30 9734 C 891.199 3.88916 5.04998 0
M  V30 9735 C 888.886 3.21632 5.19611 0
M  V30 9736 C 889.884 4.16198 5.41542 0
M  V30 9737 O 889.572 5.36254 5.98905 0
M  V30 9738 H 889.304 0.154944 0.658003 0
M  V30 9739 H 891.858 1.07756 1.74865 0
M  V30 9740 H 890.088 -0.377349 3.84854 0
M  V30 9741 H 891.777 -0.01517 4.05897 0
M  V30 9742 H 892.543 2.46548 4.17659 0
M  V30 9743 H 888.422 1.2663 4.43267 0
M  V30 9744 H 891.966 4.6274 5.22032 0
M  V30 9745 H 887.863 3.4193 5.47498 0
M  V30 9746 H 888.631 5.37403 6.17366 0
M  V30 9747 N 891.294 -1.47756 0.548274 0
M  V30 9748 C 892.524 -2.06584 0.0254503 0
M  V30 9749 C 892.932 -1.40268 -1.26971 0
M  V30 9750 O 892.275 -0.49019 -1.77039 0
M  V30 9751 C 892.337 -3.58628 -0.250301 0
M  V30 9752 C 892.001 -4.4693 0.954087 0
M  V30 9753 C 892.998 -4.85592 1.85733 0
M  V30 9754 C 890.683 -4.88573 1.16624 0
M  V30 9755 C 892.677 -5.64686 2.95648 0
M  V30 9756 C 890.364 -5.67435 2.2685 0
M  V30 9757 C 891.362 -6.05401 3.16194 0
M  V30 9758 O 891.05 -6.82676 4.24511 0
M  V30 9759 H 890.782 -0.67489 0.0387264 0
M  V30 9760 H 893.336 -1.90876 0.758663 0
M  V30 9761 H 891.566 -3.72516 -1.03771 0
M  V30 9762 H 893.255 -3.9951 -0.717419 0
M  V30 9763 H 894.021 -4.54026 1.70544 0
M  V30 9764 H 889.9 -4.58494 0.480039 0
M  V30 9765 H 893.444 -5.9424 3.65411 0
M  V30 9766 H 889.341 -5.98413 2.42016 0
M  V30 9767 H 890.109 -7.01057 4.22447 0
M  V30 9768 N 892.772 -0.284283 -1.55015 0
M  V30 9769 C 893.704 0.63258 -2.20298 0
M  V30 9770 C 894.717 1.11045 -1.1905 0
M  V30 9771 O 895.906 1.03078 -1.4573 0
M  V30 9772 C 893.006 1.87599 -2.82241 0
M  V30 9773 C 892.179 1.5434 -4.09265 0
M  V30 9774 C 891.238 2.64023 -4.55169 0
M  V30 9775 O 890.264 2.29821 -5.20741 0
M  V30 9776 N 891.466 3.94255 -4.26079 0
M  V30 9777 H 894.231 0.0737928 -2.99609 0
M  V30 9778 H 891.792 -0.105767 -1.61554 0
M  V30 9779 H 893.784 2.60289 -3.0989 0
M  V30 9780 H 892.354 2.3436 -2.06868 0
M  V30 9781 H 891.574 0.649912 -3.88806 0
M  V30 9782 H 892.862 1.29634 -4.92009 0
M  V30 9783 H 892.26 4.24859 -3.73512 0
M  V30 9784 H 890.817 4.63295 -4.58477 0
M  V30 9785 N 894.251 1.57596 -0.0117121 0
M  V30 9786 C 895.181 2.12188 0.9746 0
M  V30 9787 C 896.162 1.03379 1.35081 0
M  V30 9788 O 897.347 1.31123 1.4325 0
M  V30 9789 C 894.477 2.63477 2.26268 0
M  V30 9790 C 893.431 3.76917 2.02774 0
M  V30 9791 C 892.757 4.14566 3.37697 0
M  V30 9792 C 894.057 5.03715 1.38089 0
M  V30 9793 H 895.751 2.9485 0.520007 0
M  V30 9794 H 893.297 1.41836 0.248685 0
M  V30 9795 H 895.25 3.00299 2.95633 0
M  V30 9796 H 893.974 1.77953 2.73862 0
M  V30 9797 H 892.633 3.40507 1.35832 0
M  V30 9798 H 892.281 3.26048 3.83016 0
M  V30 9799 H 891.981 4.91 3.22789 0
M  V30 9800 H 893.505 4.53956 4.08358 0
M  V30 9801 H 894.919 5.38233 1.97428 0
M  V30 9802 H 893.316 5.85032 1.33634 0
M  V30 9803 H 894.386 4.83624 0.351575 0
M  V30 9804 N 895.729 -0.261212 1.5542 0
M  V30 9805 C 896.661 -1.34571 1.85535 0
M  V30 9806 C 897.674 -1.44979 0.740612 0
M  V30 9807 O 898.863 -1.46584 1.01859 0
M  V30 9808 C 895.963 -2.7258 2.01378 0
M  V30 9809 C 895.136 -2.84618 3.32131 0
M  V30 9810 C 894.195 -4.03379 3.37893 0
M  V30 9811 O 893.221 -3.93581 4.11197 0
M  V30 9812 N 894.423 -5.15893 2.66148 0
M  V30 9813 H 897.188 -1.09078 2.79145 0
M  V30 9814 H 894.749 -0.451327 1.55482 0
M  V30 9815 H 896.741 -3.50342 2.0259 0
M  V30 9816 H 895.311 -2.90844 1.14579 0
M  V30 9817 H 894.531 -1.93647 3.43358 0
M  V30 9818 H 895.819 -2.896 4.18341 0
M  V30 9819 H 895.217 -5.26743 2.06297 0
M  V30 9820 H 893.774 -5.91842 2.73069 0
M  V30 9821 N 897.207 -1.48554 -0.526253 0
M  V30 9822 C 898.17 -1.62868 -1.61266 0
M  V30 9823 C 899.17 -0.501762 -1.52771 0
M  V30 9824 O 900.36 -0.76764 -1.56374 0
M  V30 9825 C 897.492 -1.60238 -3.00893 0
M  V30 9826 H 898.685 -2.59742 -1.49913 0
M  V30 9827 H 896.238 -1.37207 -0.748595 0
M  V30 9828 H 896.973 -0.648545 -3.17749 0
M  V30 9829 H 896.758 -2.42054 -3.08468 0
M  V30 9830 H 898.248 -1.73455 -3.79872 0
M  V30 9831 N 898.685 0.775411 -1.37205 0
M  V30 9832 C 899.934 1.52909 -1.31536 0
M  V30 9833 C 900.247 1.9535 0.0989374 0
M  V30 9834 O 901.453 2.70072 0.278079 0
M  V30 9835 C 899.909 2.761 -2.30861 0
M  V30 9836 C 899.517 2.40773 -3.77799 0
M  V30 9837 C 901.261 3.54052 -2.34195 0
M  V30 9838 C 899.168 3.60444 -4.68865 0
M  V30 9839 H 898.098 0.574061 -0.488845 0
M  V30 9840 H 900.749 0.849642 -1.62645 0
M  V30 9841 H 899.131 3.45916 -1.92764 0
M  V30 9842 H 900.305 1.78764 -4.24712 0
M  V30 9843 H 898.62 1.76004 -3.77375 0
M  V30 9844 H 901.217 4.42992 -2.99437 0
M  V30 9845 H 901.56 3.93649 -1.35449 0
M  V30 9846 H 902.093 2.91229 -2.7098 0
M  V30 9847 H 898.832 3.25932 -5.68725 0
M  V30 9848 H 898.352 4.21571 -4.26659 0
M  V30 9849 H 900.031 4.27302 -4.85821 0
M  V30 9850 N 900.163 1.21714 1.00117 0
M  V30 9851 C 901.093 1.00397 2.10815 0
M  V30 9852 C 902.074 -0.0723502 1.69946 0
M  V30 9853 O 903.259 0.0882398 1.93999 0
M  V30 9854 C 900.389 0.572001 3.42557 0
M  V30 9855 C 899.343 1.59331 3.97237 0
M  V30 9856 C 898.669 1.01746 5.2493 0
M  V30 9857 C 899.969 2.98117 4.28863 0
M  V30 9858 H 901.663 1.92983 2.28906 0
M  V30 9859 H 899.209 0.929273 1.10002 0
M  V30 9860 H 901.162 0.410018 4.19401 0
M  V30 9861 H 899.886 -0.38951 3.24269 0
M  V30 9862 H 898.545 1.74293 3.22518 0
M  V30 9863 H 898.193 0.0475491 5.02978 0
M  V30 9864 H 897.893 1.69969 5.62481 0
M  V30 9865 H 899.417 0.866881 6.04415 0
M  V30 9866 H 900.831 2.86578 4.96534 0
M  V30 9867 H 899.228 3.63389 4.77565 0
M  V30 9868 H 900.298 3.48674 3.36979 0
M  V30 9869 N 901.641 -1.19671 1.02551 0
M  V30 9870 C 902.551 -2.26441 0.613329 0
M  V30 9871 C 903.567 -1.70375 -0.353339 0
M  V30 9872 O 904.743 -2.0028 -0.212064 0
M  V30 9873 C 901.808 -3.46684 -0.0329028 0
M  V30 9874 C 900.869 -4.17945 0.980837 0
M  V30 9875 C 900.102 -5.32448 0.36535 0
M  V30 9876 O 900.325 -5.64291 -0.832596 0
M  V30 9877 O 899.259 -5.92012 1.08652 0
M  V30 9878 H 903.085 -2.63932 1.50246 0
M  V30 9879 H 900.67 -1.2646 0.795502 0
M  V30 9880 H 902.552 -4.1956 -0.393395 0
M  V30 9881 H 901.227 -3.1105 -0.896089 0
M  V30 9882 H 900.134 -3.47204 1.39286 0
M  V30 9883 H 901.467 -4.57542 1.81428 0
M  V30 9884 N 903.119 -0.802921 -1.35613 0
M  V30 9885 C 904.082 -0.216422 -2.28176 0
M  V30 9886 C 905.082 0.594101 -1.49422 0
M  V30 9887 O 906.272 0.41312 -1.6923 0
M  V30 9888 C 903.404 0.698746 -3.33662 0
M  V30 9889 H 904.597 -1.03276 -2.81557 0
M  V30 9890 H 902.15 -0.573307 -1.45406 0
M  V30 9891 H 902.885 1.53891 -2.85461 0
M  V30 9892 H 902.67 0.119314 -3.91918 0
M  V30 9893 H 904.16 1.10354 -4.02755 0
M  V30 9894 N 904.597 1.47463 -0.556102 0
M  V30 9895 C 905.507 2.33785 0.195378 0
M  V30 9896 C 906.523 1.48123 0.913 0
M  V30 9897 O 907.699 1.81053 0.882141 0
M  V30 9898 C 904.764 3.24795 1.21282 0
M  V30 9899 C 903.825 4.26346 0.502747 0
M  V30 9900 C 903.058 5.13007 1.47172 0
M  V30 9901 O 903.281 5.02103 2.70646 0
M  V30 9902 O 902.215 5.93588 0.996814 0
M  V30 9903 H 906.041 2.99341 -0.512676 0
M  V30 9904 H 903.626 1.46004 -0.31673 0
M  V30 9905 H 905.508 3.81015 1.80016 0
M  V30 9906 H 904.183 2.61868 1.90282 0
M  V30 9907 H 903.09 3.73889 -0.125757 0
M  V30 9908 H 904.423 4.91984 -0.145779 0
M  V30 9909 N 906.075 0.2925 1.54862 0
M  V30 9910 C 907.491 -0.0611461 1.59483 0
M  V30 9911 C 907.691 -1.53141 1.30958 0
M  V30 9912 O 906.747 -2.28291 1.07887 0
M  V30 9913 C 908.06 0.329143 2.98893 0
M  V30 9914 C 909.608 0.2772 3.1177 0
M  V30 9915 C 910.083 0.642185 4.53475 0
M  V30 9916 N 911.574 0.594396 4.5937 0
M  V30 9917 C 912.309 0.849385 5.67074 0
M  V30 9918 N 911.805 1.1699 6.82851 0
M  V30 9919 N 913.598 0.777016 5.56704 0
M  V30 9920 H 905.749 1.25079 1.71665 0
M  V30 9921 H 908.012 0.506516 0.80134 0
M  V30 9922 H 907.718 1.35233 3.24661 0
M  V30 9923 H 907.592 -0.321442 3.75828 0
M  V30 9924 H 909.979 -0.736725 2.85756 0
M  V30 9925 H 910.06 0.962289 2.3701 0
M  V30 9926 H 909.704 1.65388 4.80218 0
M  V30 9927 H 909.634 -0.0648831 5.2656 0
M  V30 9928 H 912.125 0.357256 3.76208 0
M  V30 9929 H 912.438 1.35067 7.60905 0
M  V30 9930 H 910.783 1.20785 6.84424 0
M  V30 9931 H 913.974 0.526333 4.65132 0
M  V30 9932 H 914.147 0.979113 6.4056 0
M  V30 9933 N 907.553 -1.57587 0.0200696 0
M  V30 9934 C 908.969 -1.56018 -0.336237 0
M  V30 9935 C 909.169 -1.02478 -1.73495 0
M  V30 9936 O 908.225 -0.667487 -2.43518 0
M  V30 9937 C 909.538 -3.00079 -0.193112 0
M  V30 9938 C 911.086 -3.11863 -0.266557 0
M  V30 9939 C 911.561 -4.57747 -0.152326 0
M  V30 9940 N 913.052 -4.62726 -0.209596 0
M  V30 9941 C 913.787 -5.73217 -0.144855 0
M  V30 9942 N 913.283 -6.92794 -0.0295487 0
M  V30 9943 N 915.076 -5.61751 -0.198184 0
M  V30 9944 H 907.227 -1.90722 0.93482 0
M  V30 9945 H 909.49 -0.876909 0.360186 0
M  V30 9946 H 909.196 -3.43167 0.770036 0
M  V30 9947 H 909.07 -3.64593 -0.967029 0
M  V30 9948 H 911.457 -2.68693 -1.22016 0
M  V30 9949 H 911.538 -2.50087 0.53758 0
M  V30 9950 H 911.182 -5.01595 0.797817 0
M  V30 9951 H 911.112 -5.17491 -0.97521 0
M  V30 9952 H 913.603 -3.76713 -0.299229 0
M  V30 9953 H 913.916 -7.72799 0.0134071 0
M  V30 9954 H 912.261 -6.95 0.00510737 0
M  V30 9955 H 915.452 -4.67222 -0.286603 0
M  V30 9956 H 915.625 -6.47839 -0.144266 0
M  V30 9957 N 909.032 0.252966 -1.55557 0
M  V30 9958 C 910.309 1.00432 -1.67847 0
M  V30 9959 C 910.689 2.03587 -0.55816 0
M  V30 9960 O 910.037 2.24239 0.439197 0
M  V30 9961 C 910.247 1.64313 -3.079 0
M  V30 9962 C 911.595 2.14726 -3.66303 0
M  V30 9963 O 912.619 1.74264 -3.10661 0
M  V30 9964 O 911.478 2.89 -4.63833 0
M  V30 9965 H 908.572 0.467102 -0.682455 0
M  V30 9966 H 911.118 0.247233 -1.67889 0
M  V30 9967 H 909.89 0.896681 -3.80888 0
M  V30 9968 H 909.513 2.46657 -3.11843 0
M  V30 9969 N 910.51 1.48831 0.518367 0
M  V30 9970 C 911.926 1.35209 0.847979 0
M  V30 9971 C 912.126 0.371927 1.98038 0
M  V30 9972 O 911.182 -0.202681 2.51685 0
M  V30 9973 C 912.495 2.7552 1.20455 0
M  V30 9974 C 914.043 2.84094 1.31377 0
M  V30 9975 C 914.518 4.25132 1.70372 0
M  V30 9976 N 916.009 4.27861 1.77453 0
M  V30 9977 C 916.744 5.3394 2.09035 0
M  V30 9978 N 916.24 6.50285 2.3896 0
M  V30 9979 N 918.033 5.21343 2.10139 0
M  V30 9980 H 910.184 2.11166 -0.228624 0
M  V30 9981 H 912.447 0.94717 -0.0396599 0
M  V30 9982 H 912.153 3.48861 0.445991 0
M  V30 9983 H 912.027 3.09785 2.15204 0
M  V30 9984 H 914.414 2.11001 2.06307 0
M  V30 9985 H 914.495 2.53433 0.347203 0
M  V30 9986 H 914.139 4.98745 0.959975 0
M  V30 9987 H 914.069 4.53245 2.68098 0
M  V30 9988 H 916.56 3.43945 1.56557 0
M  V30 9989 H 916.873 7.26961 2.62196 0
M  V30 9990 H 915.218 6.5354 2.36454 0
M  V30 9991 H 918.409 4.29462 1.86225 0
M  V30 9992 H 918.582 6.04112 2.34419 0
M  V30 9993 N 911.988 -0.768124 1.37614 0
M  V30 9994 C 913.236 -1.52379 1.3276 0
M  V30 9995 C 913.557 -1.94809 -0.0863564 0
M  V30 9996 O 912.827 -1.66568 -1.03112 0
M  V30 9997 H 911.407 -0.565179 0.488448 0
M  V30 9998 H 914.069 -0.913974 1.72141 0
M  V30 9999 H 913.165 -2.4215 1.96901 0
M  V30 10000 N 913.466 -1.22244 -0.994698 0
M  V30 10001 C 914.416 -0.958244 -2.06886 0
M  V30 10002 C 915.4 0.0904481 -1.60646 0
M  V30 10003 O 916.592 -0.119837 -1.76594 0
M  V30 10004 C 913.721 -0.535944 -3.39091 0
M  V30 10005 C 912.807 -1.61927 -3.9197 0
M  V30 10006 N 913.198 -2.84659 -4.18094 0
M  V30 10007 C 911.496 -1.49053 -4.20356 0
M  V30 10008 C 912.197 -3.54697 -4.61048 0
M  V30 10009 N 911.173 -2.82164 -4.64634 0
M  V30 10010 H 914.975 -1.89056 -2.25022 0
M  V30 10011 H 912.489 -1.1197 -1.17629 0
M  V30 10012 H 914.486 -0.327997 -4.15608 0
M  V30 10013 H 913.146 0.38949 -3.22355 0
M  V30 10014 H 914.157 -3.21104 -4.06341 0
M  V30 10015 H 910.834 -0.631154 -4.12702 0
M  V30 10016 H 912.224 -4.59837 -4.89898 0
M  V30 10017 N 914.944 1.19125 -1.03184 0
M  V30 10018 C 916.221 1.84674 -0.644574 0
M  V30 10019 C 916.601 1.92042 0.876534 0
M  V30 10020 O 915.949 1.43965 1.77444 0
M  V30 10021 C 916.159 3.23477 -1.3101 0
M  V30 10022 C 917.507 3.99608 -1.43524 0
M  V30 10023 O 918.531 3.32886 -1.2675 0
M  V30 10024 O 917.39 5.19132 -1.70776 0
M  V30 10025 H 914.484 0.795968 -0.22442 0
M  V30 10026 H 917.03 1.2659 -1.13018 0
M  V30 10027 H 915.802 3.12967 -2.34878 0
M  V30 10028 H 915.425 3.89209 -0.812547 0
M  V30 10029 N 916.422 0.810101 1.35185 0
M  V30 10030 C 917.647 0.40364 2.03434 0
M  V30 10031 C 918.072 -0.97857 1.60641 0
M  V30 10032 O 917.43 -1.63435 0.784779 0
M  V30 10033 C 917.478 0.499154 3.57129 0
M  V30 10034 O 916.582 -0.486039 4.09526 0
M  V30 10035 H 915.923 0.168049 0.642383 0
M  V30 10036 H 918.453 1.09696 1.72708 0
M  V30 10037 H 918.463 0.370236 4.06317 0
M  V30 10038 H 917.138 1.50733 3.87624 0
M  V30 10039 H 915.715 -0.31707 3.7155 0
M  V30 10040 N 917.9 -1.47166 0.563914 0
M  V30 10041 C 918.81 -2.33885 -0.182977 0
M  V30 10042 C 919.826 -1.48605 -0.905132 0
M  V30 10043 O 921.002 -1.81518 -0.872527 0
M  V30 10044 C 918.067 -3.25433 -1.19558 0
M  V30 10045 C 917.128 -4.26607 -0.480129 0
M  V30 10046 C 916.361 -5.1378 -1.44449 0
M  V30 10047 O 916.584 -5.03531 -2.67979 0
M  V30 10048 O 915.518 -5.94109 -0.965321 0
M  V30 10049 H 919.344 -2.99065 0.528544 0
M  V30 10050 H 916.929 -1.45834 0.324468 0
M  V30 10051 H 918.811 -3.81964 -1.77993 0
M  V30 10052 H 917.486 -2.62873 -1.8889 0
M  V30 10053 H 916.393 -3.73817 0.145583 0
M  V30 10054 H 917.726 -4.919 0.171868 0
M  V30 10055 N 919.378 -0.300708 -1.54705 0
M  V30 10056 C 920.311 0.617513 -2.19686 0
M  V30 10057 C 921.289 1.1331 -1.16617 0
M  V30 10058 O 922.473 1.20135 -1.45258 0
M  V30 10059 C 919.6 1.84486 -2.84047 0
M  V30 10060 C 918.646 1.46253 -4.0064 0
M  V30 10061 S 919.479 0.518718 -5.32982 0
M  V30 10062 C 920.635 1.75387 -6.00825 0
M  V30 10063 H 920.868 0.0654548 -2.97228 0
M  V30 10064 H 918.401 -0.0848492 -1.54167 0
M  V30 10065 H 920.359 2.54921 -3.21754 0
M  V30 10066 H 919.02 2.36808 -2.06351 0
M  V30 10067 H 918.213 2.37648 -4.44454 0
M  V30 10068 H 917.815 0.838129 -3.64488 0
M  V30 10069 H 920.107 2.69448 -6.21614 0
M  V30 10070 H 921.05 1.35829 -6.9495 0
M  V30 10071 H 921.458 1.93045 -5.30466 0
M  V30 10072 N 920.856 1.57574 -0.0284266 0
M  V30 10073 C 922.105 1.9095 0.649704 0
M  V30 10074 C 922.418 0.906421 1.7333 0
M  V30 10075 O 923.624 1.1314 2.46803 0
M  V30 10076 C 922.08 3.39061 1.20687 0
M  V30 10077 C 921.688 4.47726 0.156597 0
M  V30 10078 C 923.432 3.81505 1.86156 0
M  V30 10079 C 921.339 5.86935 0.725365 0
M  V30 10080 H 920.269 0.712589 0.24644 0
M  V30 10081 H 922.92 1.83261 -0.0936143 0
M  V30 10082 H 921.302 3.41679 2.00178 0
M  V30 10083 H 922.476 4.56667 -0.6158 0
M  V30 10084 H 920.791 4.14481 -0.399288 0
M  V30 10085 H 923.388 4.82865 2.29665 0
M  V30 10086 H 923.731 3.16529 2.70398 0
M  V30 10087 H 924.264 3.81307 1.13356 0
M  V30 10088 H 921.003 6.55453 -0.0789081 0
M  V30 10089 H 920.523 5.81602 1.46627 0
M  V30 10090 H 922.202 6.35483 1.21532 0
M  V30 10091 N 922.334 -0.244713 1.55689 0
M  V30 10092 C 923.582 -0.970525 1.77272 0
M  V30 10093 C 923.903 -1.85771 0.592804 0
M  V30 10094 O 923.173 -1.91952 -0.391323 0
M  V30 10095 H 921.753 -0.361342 0.653789 0
M  V30 10096 H 924.415 -0.262134 1.93129 0
M  V30 10097 H 923.511 -1.59096 2.68505 0
M  V30 10098 N 923.813 -1.49104 -0.510467 0
M  V30 10099 C 925.09 -1.48609 -1.27179 0
M  V30 10100 C 925.47 -0.208537 -2.10067 0
M  V30 10101 O 924.818 0.809335 -2.13687 0
M  V30 10102 C 925.028 -2.75953 -2.1366 0
M  V30 10103 C 926.376 -3.25067 -2.73161 0
M  V30 10104 O 927.4 -2.77005 -2.23934 0
M  V30 10105 O 926.259 -4.08747 -3.62751 0
M  V30 10106 H 923.353 -0.594374 -0.57502 0
M  V30 10107 H 925.899 -1.61358 -0.525515 0
M  V30 10108 H 924.671 -3.60434 -1.52325 0
M  V30 10109 H 924.294 -2.66019 -2.95499 0
M  V30 10110 N 925.291 0.760815 -1.38019 0
M  V30 10111 C 926.221 1.88811 -1.37377 0
M  V30 10112 C 927.202 1.68388 -0.240737 0
M  V30 10113 O 928.387 1.89086 -0.442739 0
M  V30 10114 C 925.517 3.26244 -1.1909 0
M  V30 10115 C 924.471 3.61254 -2.29521 0
M  V30 10116 C 923.797 4.97346 -1.96345 0
M  V30 10117 C 925.097 3.66874 -3.71753 0
M  V30 10118 H 926.791 1.89606 -2.31711 0
M  V30 10119 H 924.337 0.910818 -1.11535 0
M  V30 10120 H 926.29 4.04755 -1.17267 0
M  V30 10121 H 925.014 3.2591 -0.212152 0
M  V30 10122 H 923.673 2.85057 -2.30517 0
M  V30 10123 H 923.321 4.93564 -0.969728 0
M  V30 10124 H 923.021 5.21739 -2.703 0
M  V30 10125 H 924.545 5.78244 -1.96129 0
M  V30 10126 H 925.959 4.35514 -3.72828 0
M  V30 10127 H 924.356 4.02772 -4.44853 0
M  V30 10128 H 925.426 2.67273 -4.0459 0
M  V30 10129 N 926.769 1.22769 0.988202 0
M  V30 10130 C 927.701 0.959757 2.08138 0
M  V30 10131 C 928.714 -0.0633787 1.62677 0
M  V30 10132 O 929.903 0.171203 1.77677 0
M  V30 10133 C 927.003 0.422724 3.36253 0
M  V30 10134 C 926.176 1.50419 4.10722 0
M  V30 10135 C 925.235 0.973407 5.17118 0
M  V30 10136 O 924.261 1.66066 5.44436 0
M  V30 10137 N 925.463 -0.202787 5.80146 0
M  V30 10138 H 928.228 1.9009 2.31702 0
M  V30 10139 H 925.789 1.13522 1.15431 0
M  V30 10140 H 927.781 0.0528514 4.04665 0
M  V30 10141 H 926.351 -0.423642 3.09716 0
M  V30 10142 H 925.571 2.04718 3.36874 0
M  V30 10143 H 926.859 2.23169 4.57245 0
M  V30 10144 H 926.257 -0.777856 5.60327 0
M  V30 10145 H 924.814 -0.513998 6.4977 0
M  V30 10146 N 928.247 -1.18576 1.03814 0
M  V30 10147 C 929.21 -2.2033 0.63146 0
M  V30 10148 C 930.21 -1.57787 -0.309816 0
M  V30 10149 O 931.4 -1.73938 -0.0955598 0
M  V30 10150 C 928.532 -3.40818 -0.0745963 0
M  V30 10151 H 929.725 -2.57824 1.53189 0
M  V30 10152 H 927.278 -1.32416 0.830398 0
M  V30 10153 H 928.013 -3.08853 -0.988947 0
M  V30 10154 H 927.798 -3.87453 0.6019 0
M  V30 10155 H 929.288 -4.16166 -0.345727 0
M  V30 10156 N 929.725 -0.817259 -1.34754 0
M  V30 10157 C 931.141 -0.502309 -1.51489 0
M  V30 10158 C 931.341 0.974568 -1.76364 0
M  V30 10159 O 930.397 1.75924 -1.81127 0
M  V30 10160 C 931.71 -1.35693 -2.68343 0
M  V30 10161 C 933.258 -1.35347 -2.82224 0
M  V30 10162 C 933.733 -2.19244 -4.02114 0
M  V30 10163 N 935.224 -2.16837 -4.09311 0
M  V30 10164 C 935.959 -2.78505 -5.01221 0
M  V30 10165 N 935.455 -3.4914 -5.98392 0
M  V30 10166 N 937.248 -2.68089 -4.94049 0
M  V30 10167 H 929.399 -1.77359 -1.16866 0
M  V30 10168 H 931.662 -0.755476 -0.572678 0
M  V30 10169 H 931.368 -2.40548 -2.56573 0
M  V30 10170 H 931.242 -1.01764 -3.63213 0
M  V30 10171 H 933.629 -0.312727 -2.93438 0
M  V30 10172 H 933.71 -1.7327 -1.88179 0
M  V30 10173 H 933.354 -3.23365 -3.9166 0
M  V30 10174 H 933.284 -1.78675 -4.95361 0
M  V30 10175 H 935.775 -1.65452 -3.39756 0
M  V30 10176 H 936.088 -3.93455 -6.65141 0
M  V30 10177 H 934.433 -3.53246 -5.98533 0
M  V30 10178 H 937.624 -2.12485 -4.17094 0
M  V30 10179 H 937.797 -3.16436 -5.65484 0
M  V30 10180 N 931.203 1.46865 -0.571711 0
M  V30 10181 C 932.452 2.01636 -0.050881 0
M  V30 10182 C 932.765 1.45001 1.31279 0
M  V30 10183 O 933.971 1.91523 1.92435 0
M  V30 10184 C 932.427 3.59877 -0.0404114 0
M  V30 10185 C 932.035 4.25506 -1.40172 0
M  V30 10186 C 933.779 4.22346 0.42705 0
M  V30 10187 C 931.686 5.75795 -1.34958 0
M  V30 10188 H 930.616 0.753846 -0.0152514 0
M  V30 10189 H 933.267 1.68711 -0.721723 0
M  V30 10190 H 931.649 3.89829 0.696374 0
M  V30 10191 H 932.823 4.07178 -2.15737 0
M  V30 10192 H 931.138 3.75086 -1.8083 0
M  V30 10193 H 933.735 5.32499 0.484688 0
M  V30 10194 H 934.078 3.9052 1.44222 0
M  V30 10195 H 934.611 3.9698 -0.255326 0
M  V30 10196 H 931.35 6.12265 -2.3412 0
M  V30 10197 H 930.87 5.96419 -0.635962 0
M  V30 10198 H 932.549 6.38294 -1.05779 0
M  V30 10199 N 932.681 0.308908 1.54543 0
M  V30 10200 C 933.909 -0.300418 2.04707 0
M  V30 10201 C 934.324 -1.46915 1.18581 0
M  V30 10202 O 933.681 -1.81251 0.213186 0
M  V30 10203 C 933.732 -0.749038 3.53655 0
M  V30 10204 O 933.453 0.373181 4.36508 0
M  V30 10205 C 934.954 -1.4227 4.1985 0
M  V30 10206 H 932.174 -0.0641267 0.667929 0
M  V30 10207 H 934.718 0.450839 1.99469 0
M  V30 10208 H 932.873 -1.4503 3.59228 0
M  V30 10209 H 933.287 0.0224752 5.24495 0
M  V30 10210 H 934.761 -1.68768 5.25568 0
M  V30 10211 H 935.238 -2.36531 3.70067 0
M  V30 10212 H 935.844 -0.764404 4.18374 0
M  V30 10213 N 934.159 -1.57557 0.0367827 0
M  V30 10214 C 935.384 -1.96828 -0.653707 0
M  V30 10215 C 935.809 -0.913559 -1.64425 0
M  V30 10216 O 935.167 0.124749 -1.8087 0
M  V30 10217 C 935.215 -3.35189 -1.32969 0
M  V30 10218 O 934.319 -3.32095 -2.44513 0
M  V30 10219 H 933.66 -0.64157 -0.171124 0
M  V30 10220 H 936.19 -2.04351 0.100912 0
M  V30 10221 H 936.2 -3.71593 -1.68472 0
M  V30 10222 H 934.875 -4.11496 -0.603654 0
M  V30 10223 H 933.452 -3.07418 -2.11065 0
M  V30 10224 N 935.637 0.236453 -1.55816 0
M  V30 10225 C 936.567 1.29639 -1.94206 0
M  V30 10226 C 937.548 1.49667 -0.808319 0
M  V30 10227 O 938.733 1.621 -1.06945 0
M  V30 10228 C 935.863 2.64914 -2.24584 0
M  V30 10229 C 934.817 2.59565 -3.40308 0
M  V30 10230 C 934.143 3.98732 -3.56254 0
M  V30 10231 C 935.443 2.15642 -4.75706 0
M  V30 10232 H 937.137 0.977552 -2.82992 0
M  V30 10233 H 934.683 0.468804 -1.36155 0
M  V30 10234 H 936.636 3.39209 -2.50031 0
M  V30 10235 H 935.36 2.98455 -1.32636 0
M  V30 10236 H 934.019 1.87728 -3.14887 0
M  V30 10237 H 933.667 4.29556 -2.61707 0
M  V30 10238 H 933.367 3.96039 -4.34082 0
M  V30 10239 H 934.891 4.74711 -3.84033 0
M  V30 10240 H 936.305 2.79673 -5.00456 0
M  V30 10241 H 934.702 2.24039 -5.56711 0
M  V30 10242 H 935.772 1.10831 -4.72064 0
M  V30 10243 N 937.115 1.49373 0.502552 0
M  V30 10244 C 938.047 1.62045 1.62093 0
M  V30 10245 C 939.06 0.503221 1.54827 0
M  V30 10246 O 940.249 0.775208 1.60788 0
M  V30 10247 C 937.349 1.55971 3.00876 0
M  V30 10248 C 936.522 2.832 3.33341 0
M  V30 10249 C 935.581 2.702 4.51529 0
M  V30 10250 O 934.607 3.44132 4.53389 0
M  V30 10251 N 935.809 1.81642 5.5135 0
M  V30 10252 H 938.574 2.58501 1.51649 0
M  V30 10253 H 936.135 1.46442 0.690396 0
M  V30 10254 H 938.127 1.4493 3.77859 0
M  V30 10255 H 936.697 0.673795 3.05252 0
M  V30 10256 H 935.917 3.08604 2.4527 0
M  V30 10257 H 937.205 3.67551 3.51829 0
M  V30 10258 H 936.603 1.20829 5.52645 0
M  V30 10259 H 935.16 1.76524 6.27441 0
M  V30 10260 N 938.594 -0.753485 1.38421 0
M  V30 10261 C 939.504 -1.89797 1.37892 0
M  V30 10262 C 940.52 -1.71797 0.276023 0
M  V30 10263 O 941.696 -1.94718 0.514464 0
M  V30 10264 C 938.761 -3.25166 1.20284 0
M  V30 10265 C 937.822 -3.55691 2.4038 0
M  V30 10266 C 937.055 -4.84601 2.23602 0
M  V30 10267 O 937.278 -5.56985 1.22979 0
M  V30 10268 O 936.212 -5.14605 3.12194 0
M  V30 10269 H 940.038 -1.93197 2.34326 0
M  V30 10270 H 937.623 -0.898775 1.19342 0
M  V30 10271 H 939.505 -4.06099 1.12525 0
M  V30 10272 H 938.18 -3.22577 0.269352 0
M  V30 10273 H 937.087 -2.74919 2.53714 0
M  V30 10274 H 938.42 -3.6304 3.32359 0
M  V30 10275 N 940.072 -1.23292 -0.981677 0
M  V30 10276 C 940.982 -1.02964 -2.10798 0
M  V30 10277 C 941.998 0.0254674 -1.73981 0
M  V30 10278 O 943.174 -0.169706 -2.00684 0
M  V30 10279 C 940.239 -0.621934 -3.41076 0
M  V30 10280 C 939.3 -1.75194 -3.91926 0
M  V30 10281 C 938.533 -1.36359 -5.15986 0
M  V30 10282 O 938.756 -0.247265 -5.69864 0
M  V30 10283 O 937.69 -2.18421 -5.60871 0
M  V30 10284 H 941.516 -1.97354 -2.30836 0
M  V30 10285 H 939.101 -1.01986 -1.09175 0
M  V30 10286 H 940.983 -0.405446 -4.19445 0
M  V30 10287 H 939.658 0.29299 -3.22371 0
M  V30 10288 H 938.565 -2.02305 -3.1468 0
M  V30 10289 H 939.898 -2.64513 -4.15083 0
M  V30 10290 N 941.55 1.18024 -1.04442 0
M  V30 10291 C 942.796 1.88377 -0.751133 0
M  V30 10292 C 943.129 1.80377 0.719571 0
M  V30 10293 O 942.404 1.20662 1.52548 0
M  V30 10294 C 942.687 3.38708 -1.22265 0
M  V30 10295 C 942.54 3.55499 -2.75574 0
M  V30 10296 C 943.859 4.32475 -0.815688 0
M  V30 10297 H 940.978 0.684037 -0.27434 0
M  V30 10298 H 943.62 1.38837 -1.29709 0
M  V30 10299 H 941.77 3.8103 -0.758192 0
M  V30 10300 H 943.442 3.22244 -3.30086 0
M  V30 10301 H 941.685 2.98028 -3.15217 0
M  V30 10302 H 942.356 4.60994 -3.03625 0
M  V30 10303 H 944.832 3.97953 -1.21542 0
M  V30 10304 H 943.708 5.36213 -1.17331 0
M  V30 10305 H 943.969 4.41207 0.280901 0
M  V30 10306 N 943.028 0.824394 1.34319 0
M  V30 10307 C 943.975 0.245282 2.29493 0
M  V30 10308 C 944.945 -0.630762 1.53657 0
M  V30 10309 O 946.13 -0.572094 1.82021 0
M  V30 10310 C 943.27 -0.585631 3.40095 0
M  V30 10311 C 942.383 0.312821 4.30866 0
M  V30 10312 C 941.518 -0.527801 5.28571 0
M  V30 10313 C 940.557 0.369946 6.10981 0
M  V30 10314 N 939.694 -0.43169 7.00772 0
M  V30 10315 H 944.534 1.06225 2.78425 0
M  V30 10316 H 942.071 0.53533 1.37013 0
M  V30 10317 H 944.029 -1.08271 4.02906 0
M  V30 10318 H 942.659 -1.3677 2.92393 0
M  V30 10319 H 941.711 0.928129 3.68904 0
M  V30 10320 H 943.023 1.00306 4.8861 0
M  V30 10321 H 942.177 -1.0893 5.96841 0
M  V30 10322 H 940.916 -1.25154 4.71368 0
M  V30 10323 H 939.921 0.943577 5.41643 0
M  V30 10324 H 941.146 1.09182 6.70266 0
M  V30 10325 H 939.092 -1.13908 6.46035 0
M  V30 10326 H 939.009 0.200133 7.55735 0
M  V30 10327 H 940.277 -0.975894 7.73367 0
M  V30 10328 N 944.506 -1.46559 0.579492 0
M  V30 10329 C 945.456 -2.27316 -0.17645 0
M  V30 10330 C 946.44 -1.35681 -0.864835 0
M  V30 10331 O 947.632 -1.59879 -0.759462 0
M  V30 10332 C 944.761 -3.21957 -1.19157 0
M  V30 10333 C 943.847 -4.21077 -0.505459 0
M  V30 10334 N 944.238 -5.03908 0.437133 0
M  V30 10335 C 942.536 -4.39535 -0.75661 0
M  V30 10336 C 943.237 -5.75635 0.837819 0
M  V30 10337 N 942.213 -5.43276 0.187679 0
M  V30 10338 H 946.015 -2.88747 0.547932 0
M  V30 10339 H 943.529 -1.5737 0.401048 0
M  V30 10340 H 945.526 -3.78518 -1.74728 0
M  V30 10341 H 944.186 -2.62085 -1.9168 0
M  V30 10342 H 945.197 -5.11487 0.812488 0
M  V30 10343 H 941.874 -3.90815 -1.46867 0
M  V30 10344 H 943.264 -6.52235 1.61364 0
M  V30 10345 N 945.984 -0.3171 -1.54377 0
M  V30 10346 C 946.914 0.544623 -2.2706 0
M  V30 10347 C 947.895 1.12469 -1.27611 0
M  V30 10348 O 949.08 1.15103 -1.56413 0
M  V30 10349 C 946.21 1.70879 -3.02353 0
M  V30 10350 C 945.164 1.25833 -4.09084 0
M  V30 10351 C 944.49 2.50894 -4.72182 0
M  V30 10352 C 945.79 0.377876 -5.20931 0
M  V30 10353 H 947.484 -0.0616372 -2.99337 0
M  V30 10354 H 945.03 -0.0310848 -1.43966 0
M  V30 10355 H 946.983 2.31787 -3.51927 0
M  V30 10356 H 945.707 2.34155 -2.27682 0
M  V30 10357 H 944.366 0.672228 -3.60384 0
M  V30 10358 H 944.014 3.12518 -3.94134 0
M  V30 10359 H 943.714 2.21447 -5.44275 0
M  V30 10360 H 945.238 3.12575 -5.24528 0
M  V30 10361 H 946.652 0.893056 -5.66302 0
M  V30 10362 H 945.049 0.176474 -5.9984 0
M  V30 10363 H 946.119 -0.592943 -4.81261 0
M  V30 10364 N 947.462 1.57535 -0.0451378 0
M  V30 10365 C 948.409 2.11176 0.931313 0
M  V30 10366 C 949.379 1.01765 1.31275 0
M  V30 10367 O 950.564 1.29279 1.40327 0
M  V30 10368 C 947.704 2.65639 2.20295 0
M  V30 10369 C 946.817 3.89114 1.87654 0
M  V30 10370 C 945.952 4.31914 3.09232 0
M  V30 10371 C 944.991 5.48105 2.72484 0
M  V30 10372 N 944.128 5.85986 3.86736 0
M  V30 10373 H 948.968 2.94318 0.466986 0
M  V30 10374 H 946.505 1.45462 0.218886 0
M  V30 10375 H 948.463 2.95312 2.94697 0
M  V30 10376 H 947.093 1.85303 2.64316 0
M  V30 10377 H 946.145 3.6607 1.03427 0
M  V30 10378 H 947.457 4.7358 1.56601 0
M  V30 10379 H 946.611 4.63108 3.91939 0
M  V30 10380 H 945.35 3.46247 3.43459 0
M  V30 10381 H 944.355 5.16589 1.88192 0
M  V30 10382 H 945.58 6.35482 2.39455 0
M  V30 10383 H 943.526 5.03273 4.20775 0
M  V30 10384 H 943.443 6.65129 3.5936 0
M  V30 10385 H 944.711 6.21793 4.701 0
M  V30 10386 N 948.94 -0.228186 1.55939 0
M  V30 10387 C 949.89 -1.28607 1.88267 0
M  V30 10388 C 950.874 -1.42606 0.745139 0
M  V30 10389 O 952.066 -1.45533 1.00743 0
M  V30 10390 C 949.195 -2.63783 2.19712 0
M  V30 10391 C 948.281 -2.53712 3.3984 0
M  V30 10392 N 948.672 -2.13287 4.58631 0
M  V30 10393 C 946.97 -2.84686 3.43322 0
M  V30 10394 C 947.671 -2.14305 5.40785 0
M  V30 10395 N 946.647 -2.54536 4.80325 0
M  V30 10396 H 950.449 -0.964307 2.7763 0
M  V30 10397 H 947.963 -0.436769 1.56416 0
M  V30 10398 H 949.96 -3.40152 2.41044 0
M  V30 10399 H 948.62 -2.9681 1.31657 0
M  V30 10400 H 949.631 -1.84525 4.83912 0
M  V30 10401 H 946.308 -3.22129 2.65592 0
M  V30 10402 H 947.698 -1.85231 6.45863 0
M  V30 10403 N 950.418 -1.49637 -0.494624 0
M  V30 10404 C 951.366 -1.6727 -1.61627 0
M  V30 10405 C 952.36 -0.538587 -1.6061 0
M  V30 10406 O 953.566 -0.718411 -1.65042 0
M  V30 10407 H 949.941 -0.527557 -0.535899 0
M  V30 10408 H 951.912 -2.61405 -1.43909 0
M  V30 10409 C 950.661 -1.7624 -2.99725 0
M  V30 10410 H 949.984 -2.62886 -3.01216 0
M  V30 10411 H 951.424 -1.92611 -3.77726 0
M  V30 10412 C 949.883 -0.508632 -3.33038 0
M  V30 10413 O 950.413 0.362828 -4.00058 0
M  V30 10414 N 948.619 -0.369667 -2.88239 0
M  V30 10415 H 948.166 -1.07984 -2.33875 0
M  V30 10416 H 948.124 0.468112 -3.10896 0
M  V30 10417 N 951.896 0.746133 -1.38819 0
M  V30 10418 C 952.826 1.87344 -1.39372 0
M  V30 10419 C 953.807 1.68123 -0.258583 0
M  V30 10420 O 954.992 1.88606 -0.462769 0
M  V30 10421 C 952.122 3.24962 -1.22543 0
M  V30 10422 C 951.076 3.58799 -2.33339 0
M  V30 10423 C 950.402 4.95235 -2.01609 0
M  V30 10424 C 951.702 3.62911 -3.75624 0
M  V30 10425 H 953.396 1.87138 -2.33709 0
M  V30 10426 H 950.942 0.898937 -1.12495 0
M  V30 10427 H 952.895 4.03488 -1.21554 0
M  V30 10428 H 951.619 3.25667 -0.246707 0
M  V30 10429 H 950.278 2.82596 -2.33527 0
M  V30 10430 H 949.926 4.92508 -1.02202 0
M  V30 10431 H 949.626 5.18843 -2.75819 0
M  V30 10432 H 951.15 5.76131 -2.02251 0
M  V30 10433 H 952.564 4.31535 -3.77426 0
M  V30 10434 H 950.961 3.98031 -4.491 0
M  V30 10435 H 952.031 2.62967 -4.07402 0
M  V30 10436 N 953.375 1.23811 0.975125 0
M  V30 10437 C 954.285 1.0408 2.10249 0
M  V30 10438 C 955.301 -0.0162404 1.73992 0
M  V30 10439 O 956.477 0.180346 2.00591 0
M  V30 10440 C 953.542 0.640013 3.40741 0
M  V30 10441 C 952.603 1.7727 3.90991 0
M  V30 10442 C 951.836 1.39094 5.15256 0
M  V30 10443 O 952.059 0.277483 5.69725 0
M  V30 10444 O 950.993 2.21392 5.59704 0
M  V30 10445 H 954.819 1.98575 2.29786 0
M  V30 10446 H 952.404 1.02563 1.08633 0
M  V30 10447 H 954.286 0.427684 4.19224 0
M  V30 10448 H 952.961 -0.27589 3.22522 0
M  V30 10449 H 951.868 2.03971 3.13602 0
M  V30 10450 H 953.201 2.66711 4.13674 0
M  V30 10451 N 954.853 -1.17469 1.05066 0
M  V30 10452 C 955.8 -2.21443 0.650512 0
M  V30 10453 C 956.77 -1.62441 -0.346702 0
M  V30 10454 O 957.955 -1.89305 -0.238404 0
M  V30 10455 C 955.095 -3.45087 0.0301014 0
M  V30 10456 C 954.208 -4.18385 1.07599 0
M  V30 10457 C 953.343 -5.29513 0.423038 0
M  V30 10458 C 952.382 -5.94596 1.45333 0
M  V30 10459 N 951.519 -6.97241 0.824623 0
M  V30 10460 H 956.359 -2.55025 1.54163 0
M  V30 10461 H 953.896 -1.25274 0.771032 0
M  V30 10462 H 955.854 -4.15754 -0.347032 0
M  V30 10463 H 954.484 -3.12093 -0.824481 0
M  V30 10464 H 953.536 -3.46446 1.57097 0
M  V30 10465 H 954.848 -4.62899 1.85813 0
M  V30 10466 H 954.002 -6.067 -0.00774975 0
M  V30 10467 H 952.741 -4.86129 -0.391092 0
M  V30 10468 H 951.746 -5.16142 1.89415 0
M  V30 10469 H 952.971 -6.40061 2.26934 0
M  V30 10470 H 950.917 -6.55993 0.0309804 0
M  V30 10471 H 950.834 -7.40059 1.54432 0
M  V30 10472 H 952.102 -7.78375 0.418567 0
M  V30 10473 N 956.331 -0.831506 -1.3388 0
M  V30 10474 C 957.577 -0.424302 -1.98312 0
M  V30 10475 C 957.91 1.01211 -1.65741 0
M  V30 10476 O 957.185 1.70636 -0.933464 0
M  V30 10477 C 957.468 -0.636815 -3.54424 0
M  V30 10478 C 957.321 -2.11997 -3.96708 0
M  V30 10479 C 958.64 -0.0782411 -4.4003 0
M  V30 10480 H 955.759 -0.155637 -0.720379 0
M  V30 10481 H 958.401 -1.04566 -1.58638 0
M  V30 10482 H 956.551 -0.107907 -3.8835 0
M  V30 10483 H 958.223 -2.71317 -3.73075 0
M  V30 10484 H 956.466 -2.60723 -3.46707 0
M  V30 10485 H 957.137 -2.21944 -5.05416 0
M  V30 10486 H 959.613 -0.530243 -4.12708 0
M  V30 10487 H 958.489 -0.256676 -5.483 0
M  V30 10488 H 958.75 1.01745 -4.30233 0
M  V30 10489 N 957.809 1.4625 -0.587256 0
M  V30 10490 C 958.719 2.34147 0.145744 0
M  V30 10491 C 959.735 1.50026 0.881376 0
M  V30 10492 O 960.911 1.82884 0.843539 0
M  V30 10493 C 957.976 3.27294 1.14366 0
M  V30 10494 C 957.037 4.27317 0.412199 0
M  V30 10495 C 956.27 5.16013 1.36257 0
M  V30 10496 O 956.493 5.0773 2.59934 0
M  V30 10497 O 955.427 5.95569 0.870681 0
M  V30 10498 H 959.253 2.98187 -0.576055 0
M  V30 10499 H 956.838 1.45299 -0.347628 0
M  V30 10500 H 958.72 3.84747 1.71894 0
M  V30 10501 H 957.395 2.65845 1.84684 0
M  V30 10502 H 956.302 3.73538 -0.205036 0
M  V30 10503 H 957.635 4.91564 -0.250104 0
M  V30 10504 N 959.287 0.325282 1.54207 0
M  V30 10505 C 960.535 -0.276229 2.00203 0
M  V30 10506 C 960.856 -1.52519 1.21503 0
M  V30 10507 O 960.126 -1.93313 0.317302 0
M  V30 10508 H 958.706 -0.105059 0.739575 0
M  V30 10509 H 961.368 0.442225 1.89817 0
M  V30 10510 H 960.464 -0.531427 3.07542 0
M  V30 10511 N 960.765 -1.57509 0.0534917 0
M  V30 10512 C 961.675 -2.15152 -0.935249 0
M  V30 10513 C 962.691 -1.10991 -1.34003 0
M  V30 10514 O 963.867 -1.43171 -1.41648 0
M  V30 10515 C 960.932 -2.68699 -2.19093 0
M  V30 10516 C 959.993 -3.87666 -1.84428 0
M  V30 10517 C 959.226 -4.3865 -3.0401 0
M  V30 10518 O 959.449 -3.887 -4.17455 0
M  V30 10519 O 958.383 -5.30209 -2.84889 0
M  V30 10520 H 962.209 -2.99962 -0.475009 0
M  V30 10521 H 959.794 -1.48446 -0.16854 0
M  V30 10522 H 961.676 -3.03098 -2.92762 0
M  V30 10523 H 960.351 -1.86958 -2.6425 0
M  V30 10524 H 959.258 -3.58151 -1.08068 0
M  V30 10525 H 960.591 -4.70643 -1.44068 0
M  V30 10526 N 962.243 0.219913 -1.56058 0
M  V30 10527 C 963.659 0.569685 -1.49086 0
M  V30 10528 C 963.859 1.87066 -0.748903 0
M  V30 10529 O 962.915 2.50838 -0.289235 0
M  V30 10530 C 964.228 0.647397 -2.93648 0
M  V30 10531 C 965.776 0.737914 -3.04177 0
M  V30 10532 C 966.251 0.846957 -4.50101 0
M  V30 10533 N 967.742 0.911136 -4.5415 0
M  V30 10534 C 968.477 1.01525 -5.64341 0
M  V30 10535 N 967.973 1.0832 -6.8428 0
M  V30 10536 N 969.766 1.05051 -5.52196 0
M  V30 10537 H 961.917 -0.633778 -2.02724 0
M  V30 10538 H 964.18 -0.222583 -0.921499 0
M  V30 10539 H 963.886 -0.238987 -3.50887 0
M  V30 10540 H 963.76 1.51046 -3.45637 0
M  V30 10541 H 966.147 1.61474 -2.47002 0
M  V30 10542 H 966.228 -0.150845 -2.55355 0
M  V30 10543 H 965.872 -0.0254166 -5.07894 0
M  V30 10544 H 965.802 1.75116 -4.96631 0
M  V30 10545 H 968.293 0.868869 -3.67776 0
M  V30 10546 H 968.606 1.16247 -7.64007 0
M  V30 10547 H 966.951 1.05231 -6.86987 0
M  V30 10548 H 970.142 0.994086 -4.57423 0
M  V30 10549 H 970.315 1.12819 -6.38103 0
M  V30 10550 N 963.721 1.49897 0.486681 0
M  V30 10551 C 964.668 1.67619 1.58658 0
M  V30 10552 C 965.638 0.517537 1.57831 0
M  V30 10553 O 966.823 0.746272 1.756 0
M  V30 10554 C 963.963 1.762 2.96728 0
M  V30 10555 C 963.076 3.03465 3.07462 0
M  V30 10556 C 962.211 3.02937 4.36351 0
M  V30 10557 C 961.25 4.24721 4.4077 0
M  V30 10558 N 960.387 4.22021 5.61108 0
M  V30 10559 H 965.227 2.61528 1.42853 0
M  V30 10560 H 962.764 1.29657 0.694807 0
M  V30 10561 H 964.722 1.79156 3.76774 0
M  V30 10562 H 963.352 0.857452 3.11203 0
M  V30 10563 H 962.404 3.10054 2.20387 0
M  V30 10564 H 963.716 3.93454 3.06586 0
M  V30 10565 H 962.87 3.04536 5.24731 0
M  V30 10566 H 961.609 2.10751 4.39813 0
M  V30 10567 H 960.614 4.23352 3.5079 0
M  V30 10568 H 961.839 5.18116 4.39013 0
M  V30 10569 H 959.785 3.3268 5.65385 0
M  V30 10570 H 959.702 5.05761 5.61909 0
M  V30 10571 H 960.97 4.27743 6.51656 0
M  V30 10572 N 965.199 -0.738761 1.39212 0
M  V30 10573 C 966.109 -1.88324 1.39897 0
M  V30 10574 C 967.125 -1.71494 0.294229 0
M  V30 10575 O 968.301 -1.94162 0.535087 0
M  V30 10576 C 965.366 -3.23871 1.23726 0
M  V30 10577 C 964.427 -3.53121 2.44139 0
M  V30 10578 C 963.66 -4.82202 2.2873 0
M  V30 10579 O 963.883 -5.55649 1.28879 0
M  V30 10580 O 962.817 -5.11265 3.17634 0
M  V30 10581 H 966.643 -1.90701 2.36362 0
M  V30 10582 H 964.228 -0.886067 1.20288 0
M  V30 10583 H 966.11 -4.04882 1.16826 0
M  V30 10584 H 964.785 -3.22274 0.303551 0
M  V30 10585 H 963.692 -2.72212 2.56615 0
M  V30 10586 H 965.025 -3.59495 3.36191 0
M  V30 10587 N 966.677 -1.24326 -0.968545 0
M  V30 10588 C 967.64 -1.03591 -2.04454 0
M  V30 10589 C 968.64 0.0064809 -1.60799 0
M  V30 10590 O 969.83 -0.234404 -1.72616 0
M  V30 10591 C 966.962 -0.56992 -3.36102 0
M  V30 10592 H 968.155 -1.99092 -2.24282 0
M  V30 10593 H 965.708 -1.06537 -1.14366 0
M  V30 10594 H 966.443 0.388325 -3.21967 0
M  V30 10595 H 966.228 -1.32227 -3.69132 0
M  V30 10596 H 967.718 -0.445854 -4.15213 0
M  V30 10597 N 968.156 1.1691 -1.05688 0
M  V30 10598 C 969.088 2.20648 -0.620237 0
M  V30 10599 C 970.101 1.59652 0.318604 0
M  V30 10600 O 971.29 1.78157 0.110553 0
M  V30 10601 C 968.39 3.38716 0.111729 0
M  V30 10602 C 967.563 4.29277 -0.839062 0
M  V30 10603 C 966.622 5.25993 -0.147453 0
M  V30 10604 O 965.648 5.63787 -0.783151 0
M  V30 10605 N 966.85 5.69725 1.11327 0
M  V30 10606 H 969.615 2.58731 -1.51256 0
M  V30 10607 H 967.176 1.31858 -0.939412 0
M  V30 10608 H 969.168 4.00455 0.584657 0
M  V30 10609 H 967.738 2.99189 0.905784 0
M  V30 10610 H 966.958 3.64894 -1.4915 0
M  V30 10611 H 968.246 4.86669 -1.48428 0
M  V30 10612 H 967.644 5.41103 1.64999 0
M  V30 10613 H 966.201 6.33584 1.53018 0
M  V30 10614 N 969.634 0.838594 1.33437 0
M  V30 10615 C 970.911 0.356112 1.92331 0
M  V30 10616 C 971.291 -1.1585 1.76471 0
M  V30 10617 O 970.639 -1.97281 1.15293 0
M  V30 10618 C 970.849 0.802715 3.39643 0
M  V30 10619 C 972.197 0.810575 4.16791 0
M  V30 10620 O 973.221 0.746304 3.48294 0
M  V30 10621 O 972.08 0.898082 5.3907 0
M  V30 10622 H 969.174 0.100711 0.820845 0
M  V30 10623 H 971.72 0.924428 1.42311 0
M  V30 10624 H 970.492 1.84529 3.45057 0
M  V30 10625 H 970.115 0.210956 3.9704 0
M  V30 10626 N 971.112 -1.45937 0.595003 0
M  V30 10627 C 972.045 -2.27491 -0.179775 0
M  V30 10628 C 973.023 -1.36376 -0.88545 0
M  V30 10629 O 974.207 -1.65797 -0.896863 0
M  V30 10630 C 971.334 -3.1443 -1.25902 0
M  V30 10631 C 970.38 -4.21396 -0.657847 0
M  V30 10632 S 971.213 -5.32923 0.524689 0
M  V30 10633 C 972.369 -6.2343 -0.555452 0
M  V30 10634 H 972.602 -2.92855 0.512173 0
M  V30 10635 H 970.135 -1.49595 0.382199 0
M  V30 10636 H 972.093 -3.65081 -1.87687 0
M  V30 10637 H 970.754 -2.48356 -1.92297 0
M  V30 10638 H 969.947 -4.82102 -1.46948 0
M  V30 10639 H 969.549 -3.73822 -0.115403 0
M  V30 10640 H 971.841 -6.62066 -1.43789 0
M  V30 10641 H 972.784 -7.08098 0.0151431 0
M  V30 10642 H 973.192 -5.57831 -0.865125 0
M  V30 10643 N 972.59 -0.333456 -1.54032 0
M  V30 10644 C 973.52 0.52051 -2.27625 0
M  V30 10645 C 974.501 1.1111 -1.28797 0
M  V30 10646 O 975.686 1.13438 -1.57625 0
M  V30 10647 C 972.816 1.67663 -3.04149 0
M  V30 10648 C 971.77 1.21487 -4.10396 0
M  V30 10649 C 971.096 2.45872 -4.74817 0
M  V30 10650 C 972.396 0.322603 -5.21303 0
M  V30 10651 H 974.09 -0.0933823 -2.99254 0
M  V30 10652 H 971.636 -0.0463526 -1.43925 0
M  V30 10653 H 973.589 2.28041 -3.54366 0
M  V30 10654 H 972.313 2.31727 -2.30153 0
M  V30 10655 H 970.972 0.633966 -3.61077 0
M  V30 10656 H 970.62 3.0832 -3.97426 0
M  V30 10657 H 970.32 2.15662 -5.46593 0
M  V30 10658 H 971.844 3.06994 -5.27814 0
M  V30 10659 H 973.258 0.832942 -5.67217 0
M  V30 10660 H 971.655 0.112843 -5.99994 0
M  V30 10661 H 972.725 -0.643954 -4.80605 0
M  V30 10662 N 974.068 1.57479 -0.061844 0
M  V30 10663 C 975.016 2.13346 0.926629 0
M  V30 10664 C 976.01 1.06787 1.31502 0
M  V30 10665 O 977.216 1.25181 1.29343 0
M  V30 10666 H 973.591 0.682046 0.316729 0
M  V30 10667 H 975.562 2.95279 0.430424 0
M  V30 10668 C 974.311 2.70198 2.18834 0
M  V30 10669 H 973.634 3.51859 1.89829 0
M  V30 10670 H 975.074 3.12897 2.86132 0
M  V30 10671 C 973.533 1.64481 2.9402 0
M  V30 10672 O 974.063 1.0639 3.87355 0
M  V30 10673 N 972.269 1.35749 2.56944 0
M  V30 10674 H 971.816 1.83177 1.81119 0
M  V30 10675 H 971.774 0.652469 3.07555 0
M  V30 10676 N 975.546 -0.211634 1.56173 0
M  V30 10677 C 976.496 -1.26602 1.8962 0
M  V30 10678 C 977.48 -1.41808 0.760222 0
M  V30 10679 O 978.672 -1.44456 1.02281 0
M  V30 10680 C 975.801 -2.61438 2.22497 0
M  V30 10681 C 974.887 -2.50094 3.42511 0
M  V30 10682 N 975.278 -2.0841 4.60868 0
M  V30 10683 C 973.576 -2.81028 3.46322 0
M  V30 10684 C 974.277 -2.08557 5.43028 0
M  V30 10685 N 973.253 -2.49427 4.82998 0
M  V30 10686 H 977.055 -0.934806 2.78637 0
M  V30 10687 H 974.569 -0.420154 1.56871 0
M  V30 10688 H 976.566 -3.37577 2.44638 0
M  V30 10689 H 975.226 -2.95397 1.34798 0
M  V30 10690 H 976.237 -1.79382 4.85842 0
M  V30 10691 H 972.914 -3.19294 2.68994 0
M  V30 10692 H 974.304 -1.7837 6.47791 0
M  V30 10693 N 977.024 -1.50153 -0.478725 0
M  V30 10694 C 978.249 -1.64776 -1.2595 0
M  V30 10695 C 978.674 -0.327794 -1.85222 0
M  V30 10696 O 978.032 0.707418 -1.66929 0
M  V30 10697 C 978.08 -2.73551 -2.34952 0
M  V30 10698 O 977.184 -2.34273 -3.39397 0
M  V30 10699 H 976.525 -0.550769 -0.370877 0
M  V30 10700 H 979.055 -1.96482 -0.570605 0
M  V30 10701 H 979.065 -2.96397 -2.8038 0
M  V30 10702 H 977.74 -3.69354 -1.91181 0
M  V30 10703 H 976.317 -2.21844 -2.99733 0
M  V30 10704 N 978.502 0.731368 -1.39602 0
M  V30 10705 C 979.412 1.87579 -1.40894 0
M  V30 10706 C 980.428 1.71336 -0.303319 0
M  V30 10707 O 981.604 1.93875 -0.545377 0
M  V30 10708 C 978.669 3.23211 -1.25442 0
M  V30 10709 C 977.73 3.51822 -2.46008 0
M  V30 10710 C 976.963 4.80982 -2.31284 0
M  V30 10711 O 977.186 5.54958 -1.31824 0
M  V30 10712 O 976.12 5.09574 -3.20341 0
M  V30 10713 H 979.946 1.89444 -2.3737 0
M  V30 10714 H 977.531 0.879675 -1.20756 0
M  V30 10715 H 979.413 4.04257 -1.18972 0
M  V30 10716 H 978.088 3.22108 -0.320637 0
M  V30 10717 H 976.995 2.70847 -2.58055 0
M  V30 10718 H 978.328 3.57707 -3.38093 0
M  V30 10719 N 979.98 1.24838 0.961938 0
M  V30 10720 C 980.927 1.04582 2.05745 0
M  V30 10721 C 981.897 -0.0427281 1.66045 0
M  V30 10722 O 983.082 0.113026 1.90465 0
M  V30 10723 C 980.222 0.66284 3.38675 0
M  V30 10724 C 979.335 1.82548 3.91536 0
M  V30 10725 C 978.47 1.38753 5.12758 0
M  V30 10726 C 977.509 2.51976 5.5783 0
M  V30 10727 N 976.646 2.09009 6.70268 0
M  V30 10728 H 981.486 1.98343 2.22405 0
M  V30 10729 H 979.023 0.987822 1.08998 0
M  V30 10730 H 980.981 0.421788 4.15062 0
M  V30 10731 H 979.611 -0.237776 3.21923 0
M  V30 10732 H 978.663 2.18004 3.11735 0
M  V30 10733 H 979.975 2.67601 4.20941 0
M  V30 10734 H 979.129 1.1057 5.96539 0
M  V30 10735 H 977.868 0.507618 4.85051 0
M  V30 10736 H 976.873 2.80912 4.72619 0
M  V30 10737 H 978.098 3.40534 5.87549 0
M  V30 10738 H 976.044 1.23423 6.44285 0
M  V30 10739 H 975.961 2.87613 6.99153 0
M  V30 10740 H 977.229 1.83981 7.57477 0
M  V30 10741 N 981.458 -1.16348 1.06306 0
M  V30 10742 C 982.368 -2.24375 0.685059 0
M  V30 10743 C 983.384 -1.71413 -0.298956 0
M  V30 10744 O 984.56 -2.00854 -0.148239 0
M  V30 10745 C 981.625 -3.46614 0.0774088 0
M  V30 10746 C 980.686 -4.14613 1.11331 0
M  V30 10747 C 979.919 -5.31016 0.534559 0
M  V30 10748 O 980.142 -5.66654 -0.65265 0
M  V30 10749 O 979.076 -5.88256 1.27431 0
M  V30 10750 H 982.902 -2.59018 1.58566 0
M  V30 10751 H 980.487 -1.23865 0.835332 0
M  V30 10752 H 982.369 -4.20599 -0.259716 0
M  V30 10753 H 981.044 -3.13743 -0.796677 0
M  V30 10754 H 979.951 -3.42597 1.50261 0
M  V30 10755 H 981.284 -4.51538 1.95893 0
M  V30 10756 N 982.937 -0.845659 -1.3299 0
M  V30 10757 C 983.884 -0.281761 -2.29074 0
M  V30 10758 C 984.854 0.606237 -1.54641 0
M  V30 10759 O 986.039 0.543063 -1.82908 0
M  V30 10760 C 983.179 0.531451 -3.40983 0
M  V30 10761 C 982.292 -0.381328 -4.30314 0
M  V30 10762 C 981.427 0.443643 -5.29344 0
M  V30 10763 C 980.466 -0.467101 -6.10315 0
M  V30 10764 N 979.603 0.320148 -7.0137 0
M  V30 10765 H 984.443 -1.10641 -2.76699 0
M  V30 10766 H 981.98 -0.55706 -1.36144 0
M  V30 10767 H 983.938 1.01848 -4.04577 0
M  V30 10768 H 982.568 1.32101 -2.94532 0
M  V30 10769 H 981.62 -0.986701 -3.6738 0
M  V30 10770 H 982.932 -1.08067 -4.86953 0
M  V30 10771 H 982.086 0.994212 -5.98498 0
M  V30 10772 H 980.825 1.17639 -4.73299 0
M  V30 10773 H 979.83 -1.02963 -5.40073 0
M  V30 10774 H 981.055 -1.19832 -6.68444 0
M  V30 10775 H 979.001 1.03615 -6.47765 0
M  V30 10776 H 978.918 -0.320338 -7.55321 0
M  V30 10777 H 980.186 0.852735 -7.74822 0
M  V30 10778 N 984.415 1.45619 -0.602734 0
M  V30 10779 C 985.363 2.32228 0.131484 0
M  V30 10780 C 986.357 1.45681 0.864484 0
M  V30 10781 O 987.563 1.62193 0.7806 0
M  V30 10782 H 983.938 0.7495 0.0612638 0
M  V30 10783 H 985.909 2.91941 -0.617496 0
M  V30 10784 C 984.658 3.29213 1.11866 0
M  V30 10785 H 983.981 3.95801 0.564061 0
M  V30 10786 H 985.421 3.92554 1.60242 0
M  V30 10787 C 983.88 2.56028 2.18978 0
M  V30 10788 O 984.41 2.33806 3.26646 0
M  V30 10789 N 982.616 2.16245 1.94129 0
M  V30 10790 H 982.163 2.34518 1.06579 0
M  V30 10791 H 982.121 1.67601 2.66003 0
M  V30 10792 N 985.893 0.34162 1.53853 0
M  V30 10793 C 986.841 -0.531412 2.26448 0
M  V30 10794 C 987.835 -1.10357 1.28521 0
M  V30 10795 O 989.041 -1.04953 1.46236 0
M  V30 10796 H 985.416 -0.190054 0.727588 0
M  V30 10797 H 987.387 0.102922 2.98222 0
M  V30 10798 C 986.136 -1.67154 3.04885 0
M  V30 10799 H 985.459 -1.24055 3.80066 0
M  V30 10800 H 986.899 -2.25762 3.58898 0
M  V30 10801 C 985.358 -2.59984 2.14266 0
M  V30 10802 O 985.888 -3.62181 1.73746 0
M  V30 10803 N 984.094 -2.28625 1.79385 0
M  V30 10804 H 983.641 -1.45559 2.12533 0
M  V30 10805 H 983.599 -2.90995 1.19035 0
M  V30 10806 N 987.371 -1.57444 0.0701946 0
M  V30 10807 C 988.301 -2.15659 -0.895176 0
M  V30 10808 C 989.282 -1.08321 -1.31151 0
M  V30 10809 O 990.467 -1.36349 -1.38284 0
M  V30 10810 C 987.597 -2.71693 -2.16334 0
M  V30 10811 C 986.551 -3.84183 -1.88645 0
M  V30 10812 C 985.877 -4.26814 -3.22078 0
M  V30 10813 C 987.177 -5.08493 -1.19299 0
M  V30 10814 H 988.871 -2.96576 -0.410217 0
M  V30 10815 H 986.417 -1.42662 -0.195872 0
M  V30 10816 H 988.37 -3.11064 -2.84284 0
M  V30 10817 H 987.094 -1.87994 -2.67069 0
M  V30 10818 H 985.753 -3.45314 -1.23101 0
M  V30 10819 H 985.401 -3.40039 -3.70651 0
M  V30 10820 H 985.101 -5.02642 -3.04344 0
M  V30 10821 H 986.625 -4.68799 -3.91228 0
M  V30 10822 H 988.039 -5.4519 -1.77316 0
M  V30 10823 H 986.436 -5.89588 -1.11828 0
M  V30 10824 H 987.506 -4.84595 -0.171839 0
M  V30 10825 N 988.849 0.203349 -1.56283 0
M  V30 10826 C 989.759 1.27266 -1.9708 0
M  V30 10827 C 990.775 1.50268 -0.877236 0
M  V30 10828 O 991.951 1.63044 -1.18231 0
M  V30 10829 C 989.016 2.59871 -2.29495 0
M  V30 10830 C 988.077 2.45012 -3.52516 0
M  V30 10831 C 987.31 3.71293 -3.83376 0
M  V30 10832 O 987.533 4.75106 -3.15643 0
M  V30 10833 O 986.467 3.67316 -4.76826 0
M  V30 10834 H 990.293 0.956461 -2.88246 0
M  V30 10835 H 987.878 0.407688 -1.4373 0
M  V30 10836 H 989.76 3.38152 -2.51458 0
M  V30 10837 H 988.435 2.91135 -1.415 0
M  V30 10838 H 987.342 1.6487 -3.35811 0
M  V30 10839 H 988.675 2.18683 -4.40952 0
M  V30 10840 N 990.327 1.50405 0.470755 0
M  V30 10841 C 991.576 1.60652 1.21959 0
M  V30 10842 C 991.889 0.312521 1.93087 0
M  V30 10843 O 993.095 0.293901 2.69905 0
M  V30 10844 C 991.551 2.83581 2.21607 0
M  V30 10845 C 991.159 4.19858 1.5628 0
M  V30 10846 C 992.903 3.03173 2.9713 0
M  V30 10847 C 990.81 5.33974 2.54217 0
M  V30 10848 H 989.74 0.598264 0.458907 0
M  V30 10849 H 992.391 1.76836 0.490041 0
M  V30 10850 H 990.773 2.60957 2.97855 0
M  V30 10851 H 991.947 4.52738 0.85819 0
M  V30 10852 H 990.262 4.05873 0.930366 0
M  V30 10853 H 992.859 3.856 3.70428 0
M  V30 10854 H 993.202 2.14914 3.56536 0
M  V30 10855 H 993.735 3.2598 2.27995 0
M  V30 10856 H 990.474 6.24388 1.99549 0
M  V30 10857 H 989.994 5.05511 3.22829 0
M  V30 10858 H 991.673 5.64561 3.16039 0
M  V30 10859 N 991.805 -0.723954 1.39988 0
M  V30 10860 C 993.082 -1.4763 1.28316 0
M  V30 10861 C 993.462 -2.10852 -0.102302 0
M  V30 10862 O 992.81 -1.9948 -1.11445 0
M  V30 10863 C 993.02 -2.51878 2.41574 0
M  V30 10864 C 994.368 -3.17948 2.81415 0
M  V30 10865 O 995.392 -2.62195 2.41106 0
M  V30 10866 O 994.251 -4.18858 3.51027 0
M  V30 10867 H 991.345 -0.656092 0.50346 0
M  V30 10868 H 993.891 -0.75684 1.51888 0
M  V30 10869 H 992.663 -2.03618 3.34149 0
M  V30 10870 H 992.286 -3.3137 2.19727 0
M  V30 10871 N 993.283 -1.25346 -0.955304 0
M  V30 10872 C 994.213 -1.08152 -2.06943 0
M  V30 10873 C 995.194 0.00922598 -1.70097 0
M  V30 10874 O 996.379 -0.160181 -1.93538 0
M  V30 10875 C 993.509 -0.698745 -3.40198 0
M  V30 10876 C 992.463 -1.73965 -3.9105 0
M  V30 10877 C 991.789 -1.21158 -5.20792 0
M  V30 10878 C 993.089 -3.13829 -4.17503 0
M  V30 10879 H 994.783 -2.01345 -2.21586 0
M  V30 10880 H 992.329 -0.969459 -1.06478 0
M  V30 10881 H 994.282 -0.565394 -4.1759 0
M  V30 10882 H 993.006 0.268892 -3.25491 0
M  V30 10883 H 991.665 -1.86143 -3.15827 0
M  V30 10884 H 991.313 -0.234193 -5.02455 0
M  V30 10885 H 991.013 -1.90728 -5.55785 0
M  V30 10886 H 992.537 -1.09061 -6.00781 0
M  V30 10887 H 993.951 -3.04809 -4.85556 0
M  V30 10888 H 992.348 -3.80863 -4.63749 0
M  V30 10889 H 993.418 -3.6094 -3.23806 0
M  V30 10890 N 994.761 1.15782 -1.06922 0
M  V30 10891 C 995.709 2.22441 -0.679893 0
M  V30 10892 C 996.703 1.66591 0.307221 0
M  V30 10893 O 997.909 1.79182 0.171402 0
M  V30 10894 H 994.284 0.724427 -0.201765 0
M  V30 10895 H 996.255 2.52562 -1.58918 0
M  V30 10896 C 995.004 3.47586 -0.0891142 0
M  V30 10897 H 994.327 3.9088 -0.839805 0
M  V30 10898 H 995.767 4.2375 0.14569 0
M  V30 10899 C 994.226 3.15967 1.16903 0
M  V30 10900 O 994.756 3.32359 2.25611 0
M  V30 10901 N 992.962 2.70046 1.07349 0
M  V30 10902 H 992.509 2.56907 0.188825 0
M  V30 10903 H 992.467 2.49264 1.91611 0
M  V30 10904 N 996.239 0.8527 1.3254 0
M  V30 10905 C 997.469 0.468363 2.01221 0
M  V30 10906 C 997.877 -0.938966 1.64256 0
M  V30 10907 O 997.22 -1.62387 0.858837 0
M  V30 10908 C 997.282 0.525457 3.55639 0
M  V30 10909 C 996.946 1.89133 4.16026 0
M  V30 10910 C 997.943 2.85652 4.34395 0
M  V30 10911 C 995.628 2.18795 4.52144 0
M  V30 10912 C 997.622 4.09985 4.88048 0
M  V30 10913 C 995.309 3.43381 5.05502 0
M  V30 10914 C 996.307 4.38792 5.23403 0
M  V30 10915 O 995.995 5.61173 5.75622 0
M  V30 10916 H 995.727 0.182712 0.65084 0
M  V30 10917 H 998.281 1.15076 1.70138 0
M  V30 10918 H 996.511 -0.213779 3.86109 0
M  V30 10919 H 998.2 0.156999 4.05596 0
M  V30 10920 H 998.966 2.6404 4.06827 0
M  V30 10921 H 994.845 1.45317 4.37498 0
M  V30 10922 H 998.389 4.84465 5.01936 0
M  V30 10923 H 994.286 3.64844 5.32503 0
M  V30 10924 H 995.054 5.63104 5.94017 0
M  V30 10925 N 997.718 -1.45297 0.610449 0
M  V30 10926 C 998.665 -2.30553 -0.106718 0
M  V30 10927 C 999.635 -1.42272 -0.85719 0
M  V30 10928 O 1000.82 -1.71199 -0.842357 0
M  V30 10929 C 997.96 -3.27226 -1.09623 0
M  V30 10930 C 997.073 -4.3061 -0.346329 0
M  V30 10931 C 996.208 -5.14389 -1.32581 0
M  V30 10932 C 995.247 -6.09497 -0.563892 0
M  V30 10933 N 994.384 -6.86047 -1.4928 0
M  V30 10934 H 999.224 -2.91344 0.626296 0
M  V30 10935 H 996.761 -1.43563 0.32065 0
M  V30 10936 H 998.719 -3.81744 -1.68308 0
M  V30 10937 H 997.349 -2.68182 -1.79662 0
M  V30 10938 H 996.401 -3.7873 0.356084 0
M  V30 10939 H 997.713 -4.98183 0.248026 0
M  V30 10940 H 996.867 -5.73321 -1.98464 0
M  V30 10941 H 995.606 -4.4684 -1.9541 0
M  V30 10942 H 994.611 -5.49693 0.108551 0
M  V30 10943 H 995.836 -6.79074 0.0593872 0
M  V30 10944 H 993.782 -6.21185 -2.10868 0
M  V30 10945 H 993.699 -7.49983 -0.951953 0
M  V30 10946 H 994.967 -7.49518 -2.14112 0
M  V30 10947 N 999.196 -0.349774 -1.5367 0
M  V30 10948 C 1000.13 0.496338 -2.28164 0
M  V30 10949 C 1001.11 1.09737 -1.29968 0
M  V30 10950 O 1002.29 1.11759 -1.58819 0
M  V30 10951 C 999.422 1.64428 -3.0591 0
M  V30 10952 C 998.376 1.17127 -4.11661 0
M  V30 10953 C 997.702 2.40822 -4.77398 0
M  V30 10954 C 999.002 0.267293 -5.21616 0
M  V30 10955 H 1000.7 -0.125117 -2.99138 0
M  V30 10956 H 998.242 -0.0616152 -1.43868 0
M  V30 10957 H 1000.19 2.2427 -3.56765 0
M  V30 10958 H 998.919 2.29272 -2.32598 0
M  V30 10959 H 997.578 0.595634 -3.61729 0
M  V30 10960 H 997.226 3.04088 -4.00674 0
M  V30 10961 H 996.926 2.09852 -5.48849 0
M  V30 10962 H 998.45 3.01378 -5.3104 0
M  V30 10963 H 999.864 0.772734 -5.68068 0
M  V30 10964 H 998.261 0.0491991 -6.0008 0
M  V30 10965 H 999.331 -0.694892 -4.79895 0
M  V30 10966 N 1000.67 1.57404 -0.0785433 0
M  V30 10967 C 1001.62 2.13104 0.88631 0
M  V30 10968 C 1002.59 1.04527 1.29086 0
M  V30 10969 O 1003.78 1.32226 1.37553 0
M  V30 10970 C 1000.92 2.70252 2.14611 0
M  V30 10971 C 1000.03 3.93007 1.79358 0
M  V30 10972 C 999.164 4.38376 3 0
M  V30 10973 C 998.203 5.53761 2.60796 0
M  V30 10974 N 997.34 5.94058 3.74219 0
M  V30 10975 H 1002.18 2.95243 0.404452 0
M  V30 10976 H 999.717 1.45894 0.187982 0
M  V30 10977 H 1001.67 3.01497 2.88367 0
M  V30 10978 H 1000.3 1.90868 2.60326 0
M  V30 10979 H 999.357 3.68181 0.956384 0
M  V30 10980 H 1000.67 4.76795 1.4652 0
M  V30 10981 H 999.823 4.71317 3.82027 0
M  V30 10982 H 998.562 3.53455 3.36037 0
M  V30 10983 H 997.567 5.20464 1.77192 0
M  V30 10984 H 998.792 6.40419 2.25922 0
M  V30 10985 H 996.738 5.12085 4.10005 0
M  V30 10986 H 996.655 6.72602 3.45171 0
M  V30 10987 H 997.923 6.31624 4.56805 0
M  V30 10988 N 1002.15 -0.195058 1.56388 0
M  V30 10989 C 1003.38 -0.935745 1.85091 0
M  V30 10990 C 1003.8 -1.76061 0.662118 0
M  V30 10991 O 1003.16 -1.77076 -0.389083 0
M  V30 10992 C 1003.21 -1.80764 3.1202 0
M  V30 10993 O 1002.31 -2.90643 2.92575 0
M  V30 10994 H 1001.65 -0.26351 0.609474 0
M  V30 10995 H 1004.18 -0.200362 2.03617 0
M  V30 10996 H 1004.19 -2.21229 3.42815 0
M  V30 10997 H 1002.87 -1.20157 3.98165 0
M  V30 10998 H 1001.44 -2.53934 2.73079 0
M  V30 10999 N 1003.63 -1.50653 -0.462772 0
M  V30 11000 C 1004.56 -1.73056 -1.5676 0
M  V30 11001 C 1005.54 -0.579699 -1.59917 0
M  V30 11002 O 1006.73 -0.819729 -1.76051 0
M  V30 11003 C 1003.86 -1.83234 -2.9503 0
M  V30 11004 C 1002.81 -2.98488 -3.06739 0
M  V30 11005 C 1002.14 -2.93818 -4.46738 0
M  V30 11006 C 1003.44 -4.38869 -2.83181 0
M  V30 11007 H 1005.13 -2.65562 -1.38265 0
M  V30 11008 H 1002.68 -1.27792 -0.663722 0
M  V30 11009 H 1004.63 -1.97491 -3.72257 0
M  V30 11010 H 1003.35 -0.873558 -3.14701 0
M  V30 11011 H 1002.01 -2.83895 -2.31946 0
M  V30 11012 H 1001.66 -1.95769 -4.63339 0
M  V30 11013 H 1001.36 -3.71197 -4.55507 0
M  V30 11014 H 1002.88 -3.10135 -5.25974 0
M  V30 11015 H 1004.3 -4.53945 -3.50153 0
M  V30 11016 H 1002.69 -5.17762 -3.03386 0
M  V30 11017 H 1003.76 -4.50663 -1.78972 0
M  V30 11018 N 1005.11 0.71652 -1.4037 0
M  V30 11019 C 1006.04 1.84138 -1.36477 0
M  V30 11020 C 1007.05 1.6054 -0.27033 0
M  V30 11021 O 1008.24 1.70431 -0.530612 0
M  V30 11022 C 1005.34 3.20523 -1.10082 0
M  V30 11023 C 1004.52 3.71326 -2.31162 0
M  V30 11024 C 1003.57 4.86322 -2.00942 0
M  V30 11025 O 1002.6 4.99022 -2.73799 0
M  V30 11026 N 1003.8 5.72051 -0.986812 0
M  V30 11027 H 1006.57 1.87977 -2.3342 0
M  V30 11028 H 1004.13 0.89802 -1.34712 0
M  V30 11029 H 1006.12 3.95049 -0.878526 0
M  V30 11030 H 1004.69 3.11838 -0.21809 0
M  V30 11031 H 1003.91 2.87941 -2.69227 0
M  V30 11032 H 1005.2 4.02003 -3.11883 0
M  V30 11033 H 1004.6 5.64399 -0.383381 0
M  V30 11034 H 1003.15 6.46565 -0.824419 0
M  V30 11035 N 1006.59 1.25851 0.948643 0
M  V30 11036 C 1007.52 1.02549 2.04979 0
M  V30 11037 C 1008.53 -0.0115923 1.62796 0
M  V30 11038 O 1009.72 0.227643 1.77042 0
M  V30 11039 C 1006.82 0.529486 3.34738 0
M  V30 11040 C 1005.99 1.6341 4.05729 0
M  V30 11041 C 1005.05 1.13743 5.1376 0
M  V30 11042 O 1004.08 1.83303 5.38877 0
M  V30 11043 N 1005.28 -0.0181151 5.80497 0
M  V30 11044 H 1008.05 1.97365 2.25537 0
M  V30 11045 H 1005.61 1.17137 1.11761 0
M  V30 11046 H 1007.6 0.181566 4.04293 0
M  V30 11047 H 1006.17 -0.324893 3.10907 0
M  V30 11048 H 1005.39 2.15331 3.30191 0
M  V30 11049 H 1006.68 2.37603 4.49914 0
M  V30 11050 H 1006.07 -0.599198 5.62518 0
M  V30 11051 H 1004.63 -0.307019 6.51077 0
M  V30 11052 N 1008.06 -1.15214 1.07534 0
M  V30 11053 C 1009.48 -1.38031 0.801228 0
M  V30 11054 C 1009.68 -1.92556 -0.593672 0
M  V30 11055 O 1008.74 -2.1325 -1.35206 0
M  V30 11056 C 1010.05 -2.34958 1.87657 0
M  V30 11057 C 1011.6 -2.48617 1.90154 0
M  V30 11058 C 1012.07 -3.48837 2.96777 0
M  V30 11059 N 1013.56 -3.56374 2.95892 0
M  V30 11060 C 1014.3 -4.33746 3.75036 0
M  V30 11061 N 1013.79 -5.14435 4.64036 0
M  V30 11062 N 1015.59 -4.28853 3.63375 0
M  V30 11063 H 1007.74 -0.781639 1.97495 0
M  V30 11064 H 1010 -0.406243 0.856546 0
M  V30 11065 H 1009.71 -2.02013 2.87895 0
M  V30 11066 H 1009.58 -3.3476 1.73827 0
M  V30 11067 H 1011.97 -2.80859 0.905666 0
M  V30 11068 H 1012.05 -1.48808 2.08062 0
M  V30 11069 H 1011.69 -3.1733 3.96565 0
M  V30 11070 H 1011.62 -4.48406 2.76116 0
M  V30 11071 H 1014.11 -2.98784 2.31379 0
M  V30 11072 H 1014.43 -5.70722 5.21053 0
M  V30 11073 H 1012.77 -5.13734 4.68084 0
M  V30 11074 H 1015.96 -3.64882 2.93221 0
M  V30 11075 H 1016.14 -4.88903 4.25298 0
M  V30 11076 N 1009.54 -0.859717 -1.32086 0
M  V30 11077 C 1010.47 -0.323502 -2.31248 0
M  V30 11078 C 1011.45 0.580085 -1.59903 0
M  V30 11079 O 1012.64 0.499265 -1.87673 0
M  V30 11080 C 1009.77 0.484661 -3.43902 0
M  V30 11081 C 1008.72 -0.324933 -4.26765 0
M  V30 11082 C 1008.05 0.608281 -5.31229 0
M  V30 11083 C 1009.35 -1.55344 -4.98664 0
M  V30 11084 H 1011.04 -1.15209 -2.76346 0
M  V30 11085 H 1008.59 -0.555442 -1.32856 0
M  V30 11086 H 1010.54 0.870238 -4.12316 0
M  V30 11087 H 1009.27 1.34666 -2.97544 0
M  V30 11088 H 1007.92 -0.692328 -3.60003 0
M  V30 11089 H 1007.57 1.46727 -4.81124 0
M  V30 11090 H 1007.27 0.0705571 -5.87558 0
M  V30 11091 H 1008.8 0.990925 -6.02506 0
M  V30 11092 H 1010.21 -1.23987 -5.59732 0
M  V30 11093 H 1008.61 -2.02947 -5.64741 0
M  V30 11094 H 1009.68 -2.31192 -4.26237 0
M  V30 11095 N 1011.02 1.44971 -0.618145 0
M  V30 11096 C 1011.93 2.34403 0.0960457 0
M  V30 11097 C 1012.95 1.51862 0.849355 0
M  V30 11098 O 1014.12 1.84632 0.804557 0
M  V30 11099 C 1011.19 3.29646 1.07397 0
M  V30 11100 C 1010.25 4.28095 0.321466 0
M  V30 11101 C 1009.48 5.18787 1.25281 0
M  V30 11102 O 1009.7 5.1313 2.49106 0
M  V30 11103 O 1008.64 5.97282 0.744156 0
M  V30 11104 H 1012.46 2.96898 -0.639176 0
M  V30 11105 H 1010.05 1.44529 -0.37837 0
M  V30 11106 H 1011.93 3.88307 1.63694 0
M  V30 11107 H 1010.61 2.69702 1.79004 0
M  V30 11108 H 1009.51 3.73019 -0.284223 0
M  V30 11109 H 1010.85 4.90923 -0.354315 0
M  V30 11110 N 1012.5 0.357919 1.53482 0
M  V30 11111 C 1013.43 -0.526753 2.23065 0
M  V30 11112 C 1014.44 -1.05239 1.24212 0
M  V30 11113 O 1015.63 -0.960078 1.50482 0
M  V30 11114 C 1012.73 -1.73919 2.9087 0
M  V30 11115 C 1011.91 -1.34638 4.16163 0
M  V30 11116 C 1010.96 -2.42005 4.67247 0
M  V30 11117 O 1009.99 -2.04714 5.31113 0
M  V30 11118 N 1011.19 -3.73478 4.44404 0
M  V30 11119 H 1013.96 0.0692386 2.9962 0
M  V30 11120 H 1011.52 0.182726 1.60866 0
M  V30 11121 H 1013.51 -2.45207 3.21956 0
M  V30 11122 H 1012.08 -2.24223 2.17814 0
M  V30 11123 H 1011.3 -0.463667 3.91464 0
M  V30 11124 H 1012.59 -1.06012 4.97633 0
M  V30 11125 H 1011.99 -4.06555 3.93357 0
M  V30 11126 H 1010.54 -4.40893 4.80059 0
M  V30 11127 N 1013.98 -1.5736 0.0868897 0
M  V30 11128 C 1014.89 -2.17087 -0.889402 0
M  V30 11129 C 1015.9 -1.13809 -1.31619 0
M  V30 11130 O 1017.08 -1.46143 -1.38579 0
M  V30 11131 C 1014.14 -2.73286 -2.13344 0
M  V30 11132 C 1013.2 -3.91491 -1.76164 0
M  V30 11133 C 1012.44 -4.45 -2.94637 0
M  V30 11134 O 1012.66 -3.97467 -4.09116 0
M  V30 11135 O 1011.59 -5.36133 -2.73579 0
M  V30 11136 H 1015.42 -3.00902 -0.411275 0
M  V30 11137 H 1013.01 -1.4877 -0.137015 0
M  V30 11138 H 1014.89 -3.0924 -2.86266 0
M  V30 11139 H 1013.56 -1.92521 -2.60225 0
M  V30 11140 H 1012.47 -3.60363 -1.00447 0
M  V30 11141 H 1013.8 -4.73593 -1.34053 0
M  V30 11142 N 1015.45 0.186762 -1.56489 0
M  V30 11143 C 1016.7 0.907194 -1.81378 0
M  V30 11144 C 1017.03 1.82558 -0.662283 0
M  V30 11145 O 1016.31 1.91564 0.336699 0
M  V30 11146 C 1016.59 1.71624 -3.16571 0
M  V30 11147 C 1016.44 0.822009 -4.42225 0
M  V30 11148 C 1017.76 2.68713 -3.48542 0
M  V30 11149 H 1014.88 0.328366 -0.659806 0
M  V30 11150 H 1017.52 0.174142 -1.892 0
M  V30 11151 H 1015.67 2.34119 -3.10033 0
M  V30 11152 H 1017.35 0.211122 -4.60817 0
M  V30 11153 H 1015.59 0.129178 -4.33608 0
M  V30 11154 H 1016.26 1.42326 -5.33336 0
M  V30 11155 H 1018.74 2.16348 -3.55433 0
M  V30 11156 H 1017.61 3.22397 -4.44242 0
M  V30 11157 H 1017.87 3.48165 -2.72459 0
M  V30 11158 N 1016.93 1.50896 0.454776 0
M  V30 11159 C 1017.88 1.71497 1.57136 0
M  V30 11160 C 1018.87 0.58098 1.59126 0
M  V30 11161 O 1020.08 0.761916 1.63079 0
M  V30 11162 H 1016.46 0.54158 0.521724 0
M  V30 11163 H 1018.43 2.65129 1.36928 0
M  V30 11164 C 1017.18 1.84125 2.94947 0
M  V30 11165 H 1016.5 2.7078 2.9414 0
M  V30 11166 H 1017.94 2.02558 3.72487 0
M  V30 11167 C 1016.4 0.596752 3.31573 0
M  V30 11168 O 1016.93 -0.256632 4.00879 0
M  V30 11169 N 1015.13 0.445958 2.87158 0
M  V30 11170 H 1014.68 1.14146 2.30929 0
M  V30 11171 H 1014.64 -0.385519 3.12027 0
M  V30 11172 N 1018.41 -0.709066 1.40748 0
M  V30 11173 C 1019.32 -1.85314 1.43861 0
M  V30 11174 C 1020.34 -1.70832 0.330539 0
M  V30 11175 O 1021.51 -1.92983 0.576152 0
M  V30 11176 C 1018.58 -3.21174 1.30568 0
M  V30 11177 C 1017.64 -3.47863 2.51574 0
M  V30 11178 C 1016.87 -4.77241 2.38906 0
M  V30 11179 O 1017.09 -5.52791 1.40636 0
M  V30 11180 O 1016.03 -5.04413 3.28407 0
M  V30 11181 H 1019.85 -1.85644 2.40354 0
M  V30 11182 H 1017.44 -0.860352 1.2214 0
M  V30 11183 H 1019.32 -4.02313 1.25388 0
M  V30 11184 H 1018 -3.21557 0.371841 0
M  V30 11185 H 1016.9 -2.66708 2.62331 0
M  V30 11186 H 1018.24 -3.52283 3.43741 0
M  V30 11187 N 1019.89 -1.26353 -0.941956 0
M  V30 11188 C 1020.84 -1.04513 -2.02635 0
M  V30 11189 C 1021.82 0.0222314 -1.60885 0
M  V30 11190 O 1023.02 -0.194629 -1.75927 0
M  V30 11191 C 1020.14 -0.679282 -3.36512 0
M  V30 11192 C 1019.23 -1.78406 -3.8475 0
M  V30 11193 N 1019.62 -3.02136 -4.05645 0
M  V30 11194 C 1017.92 -1.66748 -4.13656 0
M  V30 11195 C 1018.62 -3.73932 -4.45589 0
M  V30 11196 N 1017.6 -3.01616 -4.52248 0
M  V30 11197 H 1021.4 -1.9843 -2.16801 0
M  V30 11198 H 1018.91 -1.16858 -1.12774 0
M  V30 11199 H 1020.91 -0.503975 -4.13843 0
M  V30 11200 H 1019.57 0.252418 -3.23717 0
M  V30 11201 H 1020.58 -3.38049 -3.92356 0
M  V30 11202 H 1017.26 -0.805627 -4.09653 0
M  V30 11203 H 1018.65 -4.80201 -4.69954 0
M  V30 11204 N 1021.37 1.14642 -1.08144 0
M  V30 11205 C 1022.31 2.1964 -0.708995 0
M  V30 11206 C 1023.28 1.63303 0.303512 0
M  V30 11207 O 1024.47 1.8987 0.18813 0
M  V30 11208 C 1021.61 3.44886 -0.121585 0
M  V30 11209 C 1020.72 4.15386 -1.18654 0
M  V30 11210 C 1019.86 5.28205 -0.56328 0
M  V30 11211 C 1018.9 5.90534 -1.61046 0
M  V30 11212 N 1018.03 6.94809 -1.00919 0
M  V30 11213 H 1022.87 2.50848 -1.6087 0
M  V30 11214 H 1020.41 1.23185 -0.803975 0
M  V30 11215 H 1022.37 4.16528 0.23668 0
M  V30 11216 H 1021 3.14169 0.741445 0
M  V30 11217 H 1020.05 3.42159 -1.66227 0
M  V30 11218 H 1021.36 4.57809 -1.9802 0
M  V30 11219 H 1020.52 6.06507 -0.153109 0
M  V30 11220 H 1019.26 4.86995 0.262066 0
M  V30 11221 H 1018.26 5.10938 -2.03033 0
M  V30 11222 H 1019.49 6.33819 -2.43824 0
M  V30 11223 H 1017.43 6.5568 -0.204894 0
M  V30 11224 H 1017.35 7.35704 -1.73999 0
M  V30 11225 H 1018.62 7.76992 -0.624792 0
M  V30 11226 N 1022.85 0.866709 1.31628 0
M  V30 11227 C 1024.09 0.476731 1.97117 0
M  V30 11228 C 1024.42 -0.967813 1.68366 0
M  V30 11229 O 1023.7 -1.68101 0.978377 0
M  V30 11230 C 1023.98 0.730561 3.52611 0
M  V30 11231 C 1023.84 2.2244 3.90948 0
M  V30 11232 C 1025.15 0.19488 4.39668 0
M  V30 11233 H 1022.27 0.174682 0.715999 0
M  V30 11234 H 1024.92 1.08735 1.5581 0
M  V30 11235 H 1023.07 0.210834 3.87927 0
M  V30 11236 H 1024.74 2.81113 3.6575 0
M  V30 11237 H 1022.98 2.69824 3.39673 0
M  V30 11238 H 1023.65 2.35266 4.99353 0
M  V30 11239 H 1026.13 0.639478 4.11157 0
M  V30 11240 H 1025 0.401958 5.47426 0
M  V30 11241 H 1025.26 -0.90302 4.32779 0
M  V30 11242 N 1024.32 -1.44642 0.625825 0
M  V30 11243 C 1025.55 -2.06458 0.135116 0
M  V30 11244 C 1025.97 -1.46729 -1.18811 0
M  V30 11245 O 1025.32 -0.58818 -1.72762 0
M  V30 11246 C 1025.37 -3.61499 0.00850114 0
M  V30 11247 O 1025.1 -4.19002 1.2794 0
M  V30 11248 C 1026.6 -4.40339 -0.511527 0
M  V30 11249 H 1023.82 -0.666541 0.0772294 0
M  V30 11250 H 1026.36 -1.85597 0.858726 0
M  V30 11251 H 1024.52 -3.81641 -0.665522 0
M  V30 11252 H 1024.93 -5.12385 1.12081 0
M  V30 11253 H 1026.4 -5.49262 -0.549149 0
M  V30 11254 H 1026.88 -4.11409 -1.53752 0
M  V30 11255 H 1027.49 -4.25104 0.129066 0
M  V30 11256 N 1025.8 -0.366053 -1.5329 0
M  V30 11257 C 1026.75 0.480205 -2.25749 0
M  V30 11258 C 1027.72 1.07713 -1.2644 0
M  V30 11259 O 1028.9 1.10953 -1.55222 0
M  V30 11260 C 1026.04 1.61374 -3.05045 0
M  V30 11261 C 1025.16 1.04194 -4.19246 0
M  V30 11262 C 1024.29 2.14462 -4.85983 0
M  V30 11263 C 1023.33 1.5475 -5.92215 0
M  V30 11264 N 1022.47 2.58852 -6.52641 0
M  V30 11265 H 1027.31 -0.144199 -2.97651 0
M  V30 11266 H 1024.84 -0.0829321 -1.46866 0
M  V30 11267 H 1026.8 2.28144 -3.49294 0
M  V30 11268 H 1025.43 2.2088 -2.35397 0
M  V30 11269 H 1024.48 0.264514 -3.79479 0
M  V30 11270 H 1025.8 0.565379 -4.95585 0
M  V30 11271 H 1024.95 2.89051 -5.33418 0
M  V30 11272 H 1023.69 2.6547 -4.09117 0
M  V30 11273 H 1022.69 0.786759 -5.44142 0
M  V30 11274 H 1023.92 1.04566 -6.71001 0
M  V30 11275 H 1021.87 3.09073 -5.78627 0
M  V30 11276 H 1021.78 2.15884 -7.24521 0
M  V30 11277 H 1023.05 3.33142 -7.04724 0
M  V30 11278 N 1027.28 1.57312 -0.0952337 0
M  V30 11279 C 1028.24 2.12889 0.849161 0
M  V30 11280 C 1029.24 1.05819 1.21075 0
M  V30 11281 O 1030.43 1.31704 1.14016 0
M  V30 11282 C 1027.56 2.6496 2.14498 0
M  V30 11283 H 1028.76 2.97651 0.366566 0
M  V30 11284 H 1026.31 1.55542 0.153762 0
M  V30 11285 H 1027.05 1.83718 2.67242 0
M  V30 11286 H 1026.83 3.43244 1.89542 0
M  V30 11287 H 1028.32 3.07952 2.82056 0
M  V30 11288 N 1028.76 -0.17846 1.56586 0
M  V30 11289 C 1030.17 -0.529957 1.50544 0
M  V30 11290 C 1030.37 -1.85015 0.798237 0
M  V30 11291 O 1029.43 -2.49983 0.355639 0
M  V30 11292 C 1030.74 -0.569314 2.95261 0
M  V30 11293 C 1032.29 -0.657008 3.06027 0
M  V30 11294 C 1032.77 -0.727323 4.52188 0
M  V30 11295 N 1034.26 -0.790406 4.56406 0
M  V30 11296 C 1034.99 -0.865265 5.66834 0
M  V30 11297 N 1034.49 -0.901398 6.86911 0
M  V30 11298 N 1036.28 -0.903736 5.54787 0
M  V30 11299 H 1028.43 0.687304 2.00972 0
M  V30 11300 H 1030.69 0.246936 0.915274 0
M  V30 11301 H 1030.4 0.331934 3.5013 0
M  V30 11302 H 1030.27 -1.41828 3.4952 0
M  V30 11303 H 1032.66 -1.54868 2.51197 0
M  V30 11304 H 1032.74 0.218495 2.54865 0
M  V30 11305 H 1032.39 0.160067 5.07648 0
M  V30 11306 H 1032.32 -1.61887 5.01099 0
M  V30 11307 H 1034.81 -0.771054 3.6995 0
M  V30 11308 H 1035.12 -0.959494 7.6682 0
M  V30 11309 H 1033.47 -0.869795 6.89536 0
M  V30 11310 H 1036.66 -0.872459 4.59898 0
M  V30 11311 H 1036.83 -0.958615 6.4087 0
M  V30 11312 N 1030.24 -1.51135 -0.446768 0
M  V30 11313 C 1031.17 -1.74709 -1.54916 0
M  V30 11314 C 1032.15 -0.596628 -1.59293 0
M  V30 11315 O 1033.33 -0.838356 -1.75172 0
M  V30 11316 C 1030.46 -1.86353 -2.9307 0
M  V30 11317 C 1029.42 -3.01725 -3.03556 0
M  V30 11318 C 1028.74 -2.9854 -4.43597 0
M  V30 11319 C 1030.04 -4.41848 -2.7851 0
M  V30 11320 H 1031.74 -2.67014 -1.3544 0
M  V30 11321 H 1029.28 -1.28489 -0.650131 0
M  V30 11322 H 1031.23 -2.01428 -3.70141 0
M  V30 11323 H 1029.96 -0.906887 -3.13756 0
M  V30 11324 H 1028.62 -2.86339 -2.28922 0
M  V30 11325 H 1028.27 -2.00673 -4.61237 0
M  V30 11326 H 1027.97 -3.76008 -4.51544 0
M  V30 11327 H 1029.49 -3.15696 -5.22655 0
M  V30 11328 H 1030.9 -4.57633 -3.45319 0
M  V30 11329 H 1029.3 -5.2095 -2.97877 0
M  V30 11330 H 1030.37 -4.52536 -1.74182 0
M  V30 11331 N 1031.71 0.701592 -1.41122 0
M  V30 11332 C 1032.94 1.49049 -1.43499 0
M  V30 11333 C 1033.36 1.88761 -0.0385684 0
M  V30 11334 O 1032.71 1.56384 0.940755 0
M  V30 11335 C 1032.76 2.7569 -2.33832 0
M  V30 11336 O 1032.49 2.37653 -3.68039 0
M  V30 11337 C 1033.99 3.69479 -2.44949 0
M  V30 11338 H 1031.21 0.459519 -0.488961 0
M  V30 11339 H 1033.75 0.864318 -1.85337 0
M  V30 11340 H 1031.91 3.34559 -1.95318 0
M  V30 11341 H 1032.32 3.19241 -4.16156 0
M  V30 11342 H 1033.79 4.55139 -3.12334 0
M  V30 11343 H 1034.27 4.13553 -1.47887 0
M  V30 11344 H 1034.88 3.16517 -2.84072 0
M  V30 11345 N 1033.19 1.2685 0.935242 0
M  V30 11346 C 1034.47 1.03483 1.65984 0
M  V30 11347 C 1034.85 -0.432859 2.06614 0
M  V30 11348 O 1034.2 -1.4145 1.79455 0
M  V30 11349 C 1034.41 1.98924 2.86758 0
M  V30 11350 C 1035.75 2.2787 3.58274 0
M  V30 11351 O 1036.78 1.96838 2.96873 0
M  V30 11352 O 1035.64 2.80734 4.68882 0
M  V30 11353 H 1032.73 0.393932 0.72715 0
M  V30 11354 H 1035.28 1.38085 0.986445 0
M  V30 11355 H 1034.05 2.9794 2.53668 0
M  V30 11356 H 1033.67 1.64839 3.6182 0
M  V30 11357 N 1034.67 -1.14067 1.0875 0
M  V30 11358 C 1035.62 -2.19261 0.720633 0
M  V30 11359 C 1036.59 -1.63462 -0.294847 0
M  V30 11360 O 1037.77 -1.89967 -0.178058 0
M  V30 11361 C 1034.91 -3.44816 0.139873 0
M  V30 11362 C 1034.03 -4.1475 1.20856 0
M  V30 11363 C 1033.16 -5.27899 0.591285 0
M  V30 11364 C 1032.2 -5.89672 1.64176 0
M  V30 11365 N 1031.34 -6.94264 1.04603 0
M  V30 11366 H 1036.18 -2.49991 1.62198 0
M  V30 11367 H 1033.71 -1.22757 0.810497 0
M  V30 11368 H 1035.67 -4.16648 -0.214587 0
M  V30 11369 H 1034.3 -3.14558 -0.724774 0
M  V30 11370 H 1033.35 -3.41272 1.6804 0
M  V30 11371 H 1034.67 -4.56753 2.00446 0
M  V30 11372 H 1033.82 -6.06417 0.185271 0
M  V30 11373 H 1032.56 -4.87128 -0.236236 0
M  V30 11374 H 1031.56 -5.09854 2.05739 0
M  V30 11375 H 1032.79 -6.32517 2.47182 0
M  V30 11376 H 1030.73 -6.55562 0.239664 0
M  V30 11377 H 1030.65 -7.34771 1.77898 0
M  V30 11378 H 1031.92 -7.7665 0.665989 0
M  V30 11379 N 1036.15 -0.873678 -1.31166 0
M  V30 11380 C 1037.1 -0.303699 -2.25968 0
M  V30 11381 C 1038.08 0.561387 -1.50789 0
M  V30 11382 O 1039.27 0.407658 -1.72242 0
M  V30 11383 C 1036.4 0.490612 -3.39776 0
M  V30 11384 C 1035.49 -0.387927 -4.22322 0
M  V30 11385 N 1035.88 -1.48313 -4.83567 0
M  V30 11386 C 1034.18 -0.18102 -4.45632 0
M  V30 11387 C 1034.88 -2.0252 -5.45308 0
M  V30 11388 N 1033.86 -1.32169 -5.27288 0
M  V30 11389 H 1037.66 -1.14071 -2.7086 0
M  V30 11390 H 1035.17 -0.721843 -1.45476 0
M  V30 11391 H 1037.17 0.9155 -4.06724 0
M  V30 11392 H 1035.83 1.32519 -2.96427 0
M  V30 11393 H 1036.84 -1.86604 -4.83114 0
M  V30 11394 H 1033.52 0.617304 -4.12911 0
M  V30 11395 H 1034.91 -2.94429 -6.03955 0
M  V30 11396 N 1037.63 1.44308 -0.633487 0
M  V30 11397 C 1038.56 2.28943 0.108474 0
M  V30 11398 C 1039.57 1.41415 0.806582 0
M  V30 11399 O 1040.76 1.65544 0.667634 0
M  V30 11400 C 1037.86 3.17845 1.1759 0
M  V30 11401 C 1037.03 4.33802 0.559842 0
M  V30 11402 C 1036.09 5.03722 1.52154 0
M  V30 11403 O 1035.12 5.5966 1.03776 0
M  V30 11404 N 1036.32 5.05392 2.85586 0
M  V30 11405 H 1039.09 2.93262 -0.617879 0
M  V30 11406 H 1036.65 1.54781 -0.474819 0
M  V30 11407 H 1038.64 3.61485 1.81963 0
M  V30 11408 H 1037.21 2.55261 1.80445 0
M  V30 11409 H 1036.43 3.93325 -0.262559 0
M  V30 11410 H 1037.72 5.08637 0.128942 0
M  V30 11411 H 1037.11 4.61282 3.27468 0
M  V30 11412 H 1035.67 5.52813 3.45313 0
M  V30 11413 N 1039.1 0.374177 1.53094 0
M  V30 11414 C 1040.33 -0.215903 2.06273 0
M  V30 11415 C 1040.75 -1.40979 1.24526 0
M  V30 11416 O 1040.11 -1.79331 0.266462 0
M  V30 11417 C 1040.16 -0.579089 3.5592 0
M  V30 11418 O 1039.26 -1.67516 3.76845 0
M  V30 11419 H 1038.61 -0.0293981 0.663349 0
M  V30 11420 H 1041.14 0.537271 1.9742 0
M  V30 11421 H 1041.15 -0.847678 3.99097 0
M  V30 11422 H 1039.82 0.293843 4.14861 0
M  V30 11423 H 1038.4 -1.40146 3.45563 0
M  V30 11424 N 1040.58 -1.57259 0.103575 0
M  V30 11425 C 1041.83 -1.93832 -0.55786 0
M  V30 11426 C 1042.14 -0.988087 -1.68808 0
M  V30 11427 O 1043.35 -1.24786 -2.41124 0
M  V30 11428 C 1041.81 -3.44433 -1.04373 0
M  V30 11429 C 1041.41 -4.47963 0.0571971 0
M  V30 11430 C 1043.16 -3.89953 -1.67742 0
M  V30 11431 C 1041.07 -5.89727 -0.444505 0
M  V30 11432 H 1040 -0.723536 -0.212161 0
M  V30 11433 H 1042.65 -1.82606 0.180944 0
M  V30 11434 H 1041.03 -3.50841 -1.83648 0
M  V30 11435 H 1042.2 -4.53209 0.83298 0
M  V30 11436 H 1040.52 -4.12104 0.596588 0
M  V30 11437 H 1043.11 -4.93272 -2.06365 0
M  V30 11438 H 1043.46 -3.2907 -2.54988 0
M  V30 11439 H 1043.99 -3.86281 -0.950342 0
M  V30 11440 H 1040.73 -6.5433 0.391543 0
M  V30 11441 H 1040.25 -5.87935 -1.18711 0
M  V30 11442 H 1041.93 -6.40558 -0.910739 0
M  V30 11443 N 1042.06 0.170153 -1.56679 0
M  V30 11444 C 1042.97 1.23057 -1.99735 0
M  V30 11445 C 1043.99 1.48374 -0.908912 0
M  V30 11446 O 1045.16 1.60499 -1.21663 0
M  V30 11447 C 1042.23 2.54944 -2.34956 0
M  V30 11448 C 1041.29 2.3748 -3.57634 0
M  V30 11449 C 1040.52 3.63078 -3.91165 0
M  V30 11450 O 1040.74 4.68304 -3.2565 0
M  V30 11451 O 1039.68 3.57119 -4.8451 0
M  V30 11452 H 1043.5 0.895104 -2.9021 0
M  V30 11453 H 1041.09 0.377109 -1.44562 0
M  V30 11454 H 1042.97 3.32742 -2.58574 0
M  V30 11455 H 1041.65 2.88068 -1.47643 0
M  V30 11456 H 1040.55 1.57709 -3.39232 0
M  V30 11457 H 1041.89 2.0928 -4.45491 0
M  V30 11458 N 1043.54 1.5137 0.438746 0
M  V30 11459 C 1044.45 1.75424 1.55768 0
M  V30 11460 C 1045.46 0.638409 1.61865 0
M  V30 11461 O 1046.64 0.9205 1.79133 0
M  V30 11462 C 1043.71 1.87288 2.9176 0
M  V30 11463 C 1042.77 3.11137 2.95791 0
M  V30 11464 C 1042 3.22425 4.25297 0
M  V30 11465 O 1042.22 2.39688 5.17596 0
M  V30 11466 O 1041.16 4.15393 4.35583 0
M  V30 11467 H 1044.98 2.70339 1.38386 0
M  V30 11468 H 1042.57 1.35854 0.621609 0
M  V30 11469 H 1044.45 1.97085 3.72472 0
M  V30 11470 H 1043.12 0.955599 3.09273 0
M  V30 11471 H 1042.03 3.06819 2.1404 0
M  V30 11472 H 1043.36 4.02549 2.83223 0
M  V30 11473 N 1045.02 -0.694098 1.41492 0
M  V30 11474 C 1045.98 -1.78976 1.43179 0
M  V30 11475 C 1046.98 -1.57539 0.322191 0
M  V30 11476 O 1048.17 -1.64185 0.582138 0
M  V30 11477 C 1045.3 -3.17368 1.2446 0
M  V30 11478 H 1046.49 -1.78874 2.40716 0
M  V30 11479 H 1044.05 -0.901867 1.27656 0
M  V30 11480 H 1044.78 -3.23109 0.277691 0
M  V30 11481 H 1044.57 -3.3433 2.04856 0
M  V30 11482 H 1046.06 -3.97345 1.28479 0
M  V30 11483 N 1046.49 -1.27344 -0.928501 0
M  V30 11484 C 1047.44 -1.10001 -2.029 0
M  V30 11485 C 1048.41 -0.00131084 -1.661 0
M  V30 11486 O 1049.6 -0.163485 -1.90098 0
M  V30 11487 C 1046.74 -0.7524 -3.36798 0
M  V30 11488 C 1045.85 -1.92865 -3.86558 0
M  V30 11489 C 1044.98 -1.52299 -5.08899 0
M  V30 11490 C 1044.02 -2.66677 -5.50953 0
M  V30 11491 N 1043.16 -2.26706 -6.64491 0
M  V30 11492 H 1048 -2.0417 -2.17068 0
M  V30 11493 H 1045.54 -1.01637 -1.0634 0
M  V30 11494 H 1047.5 -0.531687 -4.13798 0
M  V30 11495 H 1046.13 0.15234 -3.2244 0
M  V30 11496 H 1045.18 -2.26192 -3.05845 0
M  V30 11497 H 1046.49 -2.78668 -4.13698 0
M  V30 11498 H 1045.64 -1.26348 -5.93398 0
M  V30 11499 H 1044.38 -0.636042 -4.83535 0
M  V30 11500 H 1043.39 -2.93344 -4.65004 0
M  V30 11501 H 1044.61 -3.55992 -5.78313 0
M  V30 11502 H 1042.56 -1.40462 -6.40786 0
M  V30 11503 H 1042.48 -3.06049 -6.91281 0
M  V30 11504 H 1043.74 -2.04 -7.52333 0
M  V30 11505 N 1047.97 1.13488 -1.09353 0
M  V30 11506 C 1049.2 1.89133 -0.85108 0
M  V30 11507 C 1049.62 1.78542 0.591976 0
M  V30 11508 O 1048.98 1.13243 1.41583 0
M  V30 11509 C 1049.03 3.36736 -1.29001 0
M  V30 11510 O 1048.13 4.09959 -0.447993 0
M  V30 11511 H 1047.47 0.58809 -0.308296 0
M  V30 11512 H 1050 1.43593 -1.45747 0
M  V30 11513 H 1050.01 3.87564 -1.27508 0
M  V30 11514 H 1048.69 3.43762 -2.34095 0
M  V30 11515 H 1047.27 3.69155 -0.52717 0
M  V30 11516 N 1049.45 0.880621 1.30701 0
M  V30 11517 C 1050.7 0.497611 1.966 0
M  V30 11518 C 1051.03 -0.949901 1.69383 0
M  V30 11519 O 1050.31 -1.67054 0.996152 0
M  V30 11520 C 1050.59 0.767919 3.51817 0
M  V30 11521 C 1050.44 2.26574 3.88567 0
M  V30 11522 C 1051.76 0.241502 4.39437 0
M  V30 11523 H 1048.88 0.182267 0.714106 0
M  V30 11524 H 1051.52 1.10382 1.54648 0
M  V30 11525 H 1049.67 0.251967 3.87682 0
M  V30 11526 H 1051.34 2.84977 3.62748 0
M  V30 11527 H 1049.59 2.73411 3.36792 0
M  V30 11528 H 1050.26 2.40549 4.9683 0
M  V30 11529 H 1052.73 0.683051 4.10455 0
M  V30 11530 H 1051.61 0.459997 5.46969 0
M  V30 11531 H 1051.87 -0.857068 4.33713 0
M  V30 11532 N 1050.93 -1.4397 0.641131 0
M  V30 11533 C 1051.89 -2.29149 -0.0482243 0
M  V30 11534 C 1052.89 -1.41572 -0.762495 0
M  V30 11535 O 1054.08 -1.63335 -0.605571 0
M  V30 11536 C 1051.21 -3.23375 -1.07896 0
M  V30 11537 H 1052.41 -2.9159 0.70109 0
M  V30 11538 H 1049.96 -1.51048 0.401754 0
M  V30 11539 H 1050.7 -2.65804 -1.85792 0
M  V30 11540 H 1050.48 -3.87926 -0.570597 0
M  V30 11541 H 1051.97 -3.87337 -1.56075 0
M  V30 11542 N 1052.41 -0.382291 -1.52893 0
M  V30 11543 C 1053.34 0.500194 -2.22651 0
M  V30 11544 C 1054.32 1.06969 -1.22459 0
M  V30 11545 O 1055.5 1.12267 -1.51422 0
M  V30 11546 C 1052.63 1.6917 -2.93427 0
M  V30 11547 C 1051.68 1.24811 -4.07829 0
M  V30 11548 S 1052.51 0.235466 -5.34982 0
M  V30 11549 C 1053.66 1.43292 -6.09277 0
M  V30 11550 H 1053.9 -0.0921913 -2.97157 0
M  V30 11551 H 1051.43 -0.16645 -1.535 0
M  V30 11552 H 1053.39 2.37507 -3.34815 0
M  V30 11553 H 1052.05 2.25537 -2.18613 0
M  V30 11554 H 1051.24 2.13754 -4.56426 0
M  V30 11555 H 1050.84 0.643744 -3.68418 0
M  V30 11556 H 1053.14 2.36118 -6.35023 0
M  V30 11557 H 1054.08 0.988003 -7.01173 0
M  V30 11558 H 1054.49 1.64655 -5.39953 0
M  V30 11559 N 1053.89 1.57202 -0.111913 0
M  V30 11560 C 1055.13 1.96834 0.550967 0
M  V30 11561 C 1055.49 0.993502 1.64297 0
M  V30 11562 O 1056.69 1.27894 2.36425 0
M  V30 11563 C 1054.96 3.40805 1.07641 0
M  V30 11564 S 1056.52 4.02445 1.74881 0
M  V30 11565 H 1053.34 0.688021 0.179298 0
M  V30 11566 H 1055.94 1.94522 -0.195312 0
M  V30 11567 H 1054.64 4.09508 0.270377 0
M  V30 11568 H 1054.18 3.46752 1.85814 0
M  V30 11569 H 1056.19 3.92623 3.03416 0
M  V30 11570 N 1055.36 -0.161842 1.56767 0
M  V30 11571 C 1056.27 -1.21996 2.00385 0
M  V30 11572 C 1057.29 -1.4789 0.916768 0
M  V30 11573 O 1058.47 -1.59852 1.22513 0
M  V30 11574 C 1055.53 -2.53695 2.36305 0
M  V30 11575 C 1054.59 -2.3558 3.58888 0
M  V30 11576 C 1053.82 -3.60998 3.93085 0
M  V30 11577 O 1054.05 -4.6657 3.28129 0
M  V30 11578 O 1052.98 -3.54544 4.86397 0
M  V30 11579 H 1056.81 -0.879701 2.9068 0
M  V30 11580 H 1054.39 -0.369437 1.4476 0
M  V30 11581 H 1056.27 -3.31366 2.60335 0
M  V30 11582 H 1054.95 -2.87281 1.49169 0
M  V30 11583 H 1053.86 -1.55908 3.40064 0
M  V30 11584 H 1055.19 -2.06915 4.46595 0
M  V30 11585 N 1056.84 -1.516 -0.430713 0
M  V30 11586 C 1057.77 -1.68084 -1.54347 0
M  V30 11587 C 1058.75 -0.528401 -1.53775 0
M  V30 11588 O 1059.94 -0.753072 -1.72804 0
M  V30 11589 C 1057.06 -1.70048 -2.92919 0
M  V30 11590 C 1056.11 -2.91336 -3.11489 0
M  V30 11591 S 1056.94 -4.52043 -2.87084 0
M  V30 11592 C 1058.1 -4.56761 -4.27926 0
M  V30 11593 H 1058.33 -2.62203 -1.40131 0
M  V30 11594 H 1055.86 -1.41368 -0.620853 0
M  V30 11595 H 1057.82 -1.71864 -3.72791 0
M  V30 11596 H 1056.48 -0.770946 -3.04492 0
M  V30 11597 H 1055.68 -2.8913 -4.1282 0
M  V30 11598 H 1055.28 -2.87296 -2.39451 0
M  V30 11599 H 1057.57 -4.32809 -5.21232 0
M  V30 11600 H 1058.51 -5.58604 -4.35163 0
M  V30 11601 H 1058.92 -3.86014 -4.1189 0
M  V30 11602 N 1058.32 0.686584 -1.41858 0
M  V30 11603 C 1059.23 1.83002 -1.46791 0
M  V30 11604 C 1060.25 1.70284 -0.357675 0
M  V30 11605 O 1061.42 1.92042 -0.606781 0
M  V30 11606 C 1058.49 3.19056 -1.35661 0
M  V30 11607 C 1057.55 3.43817 -2.57077 0
M  V30 11608 C 1056.78 4.7338 -2.46469 0
M  V30 11609 O 1057 5.50483 -1.49413 0
M  V30 11610 O 1055.94 4.99124 -3.36391 0
M  V30 11611 H 1059.76 1.81797 -2.43277 0
M  V30 11612 H 1057.35 0.840812 -1.23494 0
M  V30 11613 H 1059.23 4.00267 -1.31773 0
M  V30 11614 H 1057.91 3.20925 -0.422951 0
M  V30 11615 H 1056.81 2.625 -2.66541 0
M  V30 11616 H 1058.15 3.4677 -3.49302 0
M  V30 11617 N 1059.8 1.27835 0.921735 0
M  V30 11618 C 1060.74 1.11075 2.02314 0
M  V30 11619 C 1061.71 0.0101195 1.66097 0
M  V30 11620 O 1062.9 0.173564 1.90009 0
M  V30 11621 C 1060.04 0.770251 3.36394 0
M  V30 11622 C 1059.15 1.94912 3.8553 0
M  V30 11623 C 1058.29 1.54996 5.08084 0
M  V30 11624 C 1057.33 2.69595 5.49531 0
M  V30 11625 N 1056.46 2.30227 6.6328 0
M  V30 11626 H 1061.3 2.05319 2.15982 0
M  V30 11627 H 1058.84 1.022 1.058 0
M  V30 11628 H 1060.8 0.553624 4.1351 0
M  V30 11629 H 1059.43 -0.135238 3.22517 0
M  V30 11630 H 1058.48 2.27811 3.04641 0
M  V30 11631 H 1059.79 2.80858 4.12214 0
M  V30 11632 H 1058.95 1.29493 5.9272 0
M  V30 11633 H 1057.69 0.661676 4.83191 0
M  V30 11634 H 1056.69 2.95806 4.63442 0
M  V30 11635 H 1057.92 3.59054 5.76417 0
M  V30 11636 H 1055.86 1.43858 6.40032 0
M  V30 11637 H 1055.78 3.09711 6.89649 0
M  V30 11638 H 1057.05 2.07987 7.5124 0
M  V30 11639 N 1061.28 -1.12907 1.09954 0
M  V30 11640 C 1062.22 -2.18485 0.743848 0
M  V30 11641 C 1063.19 -1.63766 -0.277494 0
M  V30 11642 O 1064.38 -1.90146 -0.157899 0
M  V30 11643 C 1061.52 -3.44649 0.176437 0
M  V30 11644 C 1060.63 -4.13445 1.25248 0
M  V30 11645 C 1059.77 -5.27242 0.647242 0
M  V30 11646 C 1058.8 -5.87897 1.70421 0
M  V30 11647 N 1057.94 -6.93116 1.1196 0
M  V30 11648 H 1062.78 -2.48257 1.64841 0
M  V30 11649 H 1060.32 -1.21891 0.823471 0
M  V30 11650 H 1062.28 -4.16852 -0.170384 0
M  V30 11651 H 1060.91 -3.15309 -0.69137 0
M  V30 11652 H 1059.96 -3.39471 1.7165 0
M  V30 11653 H 1061.27 -4.54601 2.05279 0
M  V30 11654 H 1060.42 -6.06186 0.249579 0
M  V30 11655 H 1059.16 -4.87351 -0.184556 0
M  V30 11656 H 1058.17 -5.07643 2.11136 0
M  V30 11657 H 1059.39 -6.2986 2.53877 0
M  V30 11658 H 1057.34 -6.55271 0.309181 0
M  V30 11659 H 1057.26 -7.32843 1.85681 0
M  V30 11660 H 1058.52 -7.759 0.748326 0
M  V30 11661 N 1062.75 -0.88754 -1.30232 0
M  V30 11662 C 1063.68 -0.372481 -2.3051 0
M  V30 11663 C 1064.66 0.546037 -1.61098 0
M  V30 11664 O 1065.85 0.459345 -1.88689 0
M  V30 11665 C 1062.98 0.411605 -3.44852 0
M  V30 11666 C 1061.93 -0.415383 -4.2598 0
M  V30 11667 C 1061.26 0.495463 -5.324 0
M  V30 11668 C 1062.56 -1.65886 -4.95257 0
M  V30 11669 H 1064.25 -1.21045 -2.7384 0
M  V30 11670 H 1061.8 -0.583498 -1.31648 0
M  V30 11671 H 1063.75 0.782584 -4.1407 0
M  V30 11672 H 1062.48 1.28325 -3.00334 0
M  V30 11673 H 1061.14 -0.768534 -3.58454 0
M  V30 11674 H 1060.78 1.36489 -4.84128 0
M  V30 11675 H 1060.48 -0.0540885 -5.87575 0
M  V30 11676 H 1062.01 0.862901 -6.04472 0
M  V30 11677 H 1063.42 -1.35832 -5.56976 0
M  V30 11678 H 1061.82 -2.14881 -5.60309 0
M  V30 11679 H 1062.89 -2.40181 -4.21237 0
M  V30 11680 N 1064.23 1.43628 -0.648757 0
M  V30 11681 C 1065.18 2.30755 0.0455536 0
M  V30 11682 C 1066.15 1.44495 0.819168 0
M  V30 11683 O 1067.33 1.73372 0.79667 0
M  V30 11684 C 1064.47 3.30017 1.00908 0
M  V30 11685 C 1063.59 4.31376 0.232039 0
M  V30 11686 C 1062.72 5.17723 1.18897 0
M  V30 11687 C 1061.76 6.10778 0.402096 0
M  V30 11688 N 1060.9 6.89763 1.31038 0
M  V30 11689 H 1065.74 2.89581 -0.70332 0
M  V30 11690 H 1063.28 1.42662 -0.3586 0
M  V30 11691 H 1065.23 3.86072 1.58128 0
M  V30 11692 H 1063.86 2.72851 1.72488 0
M  V30 11693 H 1062.92 3.77652 -0.456373 0
M  V30 11694 H 1064.23 4.9735 -0.380023 0
M  V30 11695 H 1063.38 5.78381 1.83194 0
M  V30 11696 H 1062.12 4.51864 1.83494 0
M  V30 11697 H 1061.13 5.49212 -0.254255 0
M  V30 11698 H 1062.35 6.78678 -0.239411 0
M  V30 11699 H 1060.3 6.26557 1.94324 0
M  V30 11700 H 1060.21 7.52243 0.752774 0
M  V30 11701 H 1061.48 7.54931 1.94164 0
M  V30 11702 N 1065.71 0.390394 1.52688 0
M  V30 11703 C 1066.62 -0.451543 2.30213 0
M  V30 11704 C 1067.64 -1.07051 1.37172 0
M  V30 11705 O 1068.81 -1.07609 1.70242 0
M  V30 11706 C 1065.88 -1.56299 3.0947 0
M  V30 11707 C 1064.94 -0.969017 4.18221 0
M  V30 11708 C 1064.17 -2.0275 4.93688 0
M  V30 11709 O 1064.39 -3.24273 4.69258 0
M  V30 11710 O 1063.33 -1.64418 5.79008 0
M  V30 11711 H 1067.15 0.180042 3.03166 0
M  V30 11712 H 1064.74 0.154082 1.48603 0
M  V30 11713 H 1066.62 -2.20864 3.58883 0
M  V30 11714 H 1065.3 -2.17952 2.3933 0
M  V30 11715 H 1064.2 -0.286587 3.73001 0
M  V30 11716 H 1065.54 -0.396687 4.90599 0
M  V30 11717 N 1067.19 -1.57141 0.120249 0
M  V30 11718 C 1068.1 -2.18925 -0.843155 0
M  V30 11719 C 1069.11 -1.16575 -1.29175 0
M  V30 11720 O 1070.29 -1.4905 -1.35448 0
M  V30 11721 C 1067.36 -2.7775 -2.075 0
M  V30 11722 C 1066.42 -3.95139 -1.6782 0
M  V30 11723 C 1065.65 -4.51149 -2.85132 0
M  V30 11724 O 1065.87 -4.06056 -4.00593 0
M  V30 11725 O 1064.81 -5.41815 -2.62145 0
M  V30 11726 H 1068.63 -3.01707 -0.347357 0
M  V30 11727 H 1066.22 -1.49028 -0.105427 0
M  V30 11728 H 1068.1 -3.15243 -2.79643 0
M  V30 11729 H 1066.77 -1.97998 -2.56083 0
M  V30 11730 H 1065.68 -3.62412 -0.927807 0
M  V30 11731 H 1067.01 -4.7633 -1.23977 0
M  V30 11732 N 1068.67 0.153526 -1.5685 0
M  V30 11733 C 1070.08 0.505939 -1.51368 0
M  V30 11734 C 1070.28 1.83721 -0.82757 0
M  V30 11735 O 1069.34 2.49385 -0.395364 0
M  V30 11736 C 1070.65 0.522269 -2.9613 0
M  V30 11737 C 1072.2 0.608238 -3.07033 0
M  V30 11738 C 1072.67 0.655292 -4.53288 0
M  V30 11739 N 1074.17 0.717695 -4.57606 0
M  V30 11740 C 1074.9 0.774977 -5.68139 0
M  V30 11741 N 1074.4 0.792003 -6.88258 0
M  V30 11742 N 1076.19 0.81536 -5.56155 0
M  V30 11743 H 1068.34 -0.71919 -1.99853 0
M  V30 11744 H 1070.6 -0.261466 -0.91123 0
M  V30 11745 H 1070.31 -0.387595 -3.49558 0
M  V30 11746 H 1070.18 1.3625 -3.51733 0
M  V30 11747 H 1072.57 1.50852 -2.53629 0
M  V30 11748 H 1072.65 -0.259014 -2.54485 0
M  V30 11749 H 1072.3 -0.240809 -5.07329 0
M  V30 11750 H 1072.23 1.53894 -5.03611 0
M  V30 11751 H 1074.72 0.7121 -3.7113 0
M  V30 11752 H 1075.03 0.837378 -7.6825 0
M  V30 11753 H 1073.37 0.759986 -6.90832 0
M  V30 11754 H 1076.57 0.799183 -4.61227 0
M  V30 11755 H 1076.74 0.856537 -6.42314 0
M  V30 11756 N 1070.14 1.51827 0.422667 0
M  V30 11757 C 1071.05 1.77066 1.53899 0
M  V30 11758 C 1072.07 0.655541 1.61179 0
M  V30 11759 O 1073.25 0.939448 1.78147 0
M  V30 11760 C 1070.31 1.90372 2.89758 0
M  V30 11761 C 1069.37 3.14256 2.92475 0
M  V30 11762 C 1068.61 3.26918 4.21853 0
M  V30 11763 O 1068.83 2.45164 5.15025 0
M  V30 11764 O 1067.76 4.19989 4.31153 0
M  V30 11765 H 1071.59 2.71791 1.35511 0
M  V30 11766 H 1069.17 1.36506 0.607165 0
M  V30 11767 H 1071.06 2.01024 3.70361 0
M  V30 11768 H 1069.73 0.988347 3.08242 0
M  V30 11769 H 1068.64 3.09072 2.10773 0
M  V30 11770 H 1069.97 4.0553 2.78937 0
M  V30 11771 N 1071.62 -0.679052 1.4222 0
M  V30 11772 C 1072.59 -1.77448 1.45069 0
M  V30 11773 C 1073.59 -1.57189 0.338882 0
M  V30 11774 O 1074.78 -1.63559 0.599519 0
M  V30 11775 C 1071.91 -3.1603 1.27819 0
M  V30 11776 H 1073.1 -1.7631 2.426 0
M  V30 11777 H 1070.65 -0.888277 1.28605 0
M  V30 11778 H 1071.39 -3.22796 0.311946 0
M  V30 11779 H 1071.17 -3.32138 2.08391 0
M  V30 11780 H 1072.66 -3.9596 1.32686 0
M  V30 11781 N 1073.1 -1.28322 -0.914942 0
M  V30 11782 C 1074.52 -1.06003 -1.19313 0
M  V30 11783 C 1074.72 0.198366 -2.00521 0
M  V30 11784 O 1073.77 0.900364 -2.35902 0
M  V30 11785 C 1075.09 -2.30684 -1.92887 0
M  V30 11786 C 1076.63 -2.35851 -2.05775 0
M  V30 11787 C 1077.11 -3.60295 -2.82757 0
M  V30 11788 N 1078.6 -3.60928 -2.9032 0
M  V30 11789 C 1079.33 -4.53894 -3.50383 0
M  V30 11790 N 1078.83 -5.57178 -4.11734 0
M  V30 11791 N 1080.62 -4.41492 -3.4791 0
M  V30 11792 H 1072.77 -2.09104 -0.372735 0
M  V30 11793 H 1075.04 -0.920285 -0.227552 0
M  V30 11794 H 1074.74 -3.22355 -1.40643 0
M  V30 11795 H 1074.62 -2.37003 -2.93444 0
M  V30 11796 H 1077 -1.44678 -2.57201 0
M  V30 11797 H 1077.09 -2.33526 -1.04399 0
M  V30 11798 H 1076.73 -4.51811 -2.32011 0
M  V30 11799 H 1076.66 -3.59873 -3.84446 0
M  V30 11800 H 1079.15 -2.8624 -2.46729 0
M  V30 11801 H 1079.46 -6.24261 -4.55541 0
M  V30 11802 H 1077.81 -5.61005 -4.10242 0
M  V30 11803 H 1081 -3.60005 -2.99189 0
M  V30 11804 H 1081.17 -5.14132 -3.94427 0
M  V30 11805 N 1074.58 1.12322 -1.10551 0
M  V30 11806 C 1075.49 2.21678 -0.767862 0
M  V30 11807 C 1076.5 1.72404 0.235132 0
M  V30 11808 O 1077.68 2.01266 0.0735912 0
M  V30 11809 C 1074.75 3.46087 -0.205999 0
M  V30 11810 C 1073.81 4.10195 -1.26642 0
M  V30 11811 C 1073.04 5.28666 -0.731274 0
M  V30 11812 O 1073.26 5.68686 0.44189 0
M  V30 11813 O 1072.2 5.83121 -1.49176 0
M  V30 11814 H 1076.02 2.52955 -1.6807 0
M  V30 11815 H 1073.61 1.2068 -0.880728 0
M  V30 11816 H 1075.49 4.21273 0.103435 0
M  V30 11817 H 1074.16 3.16484 0.679685 0
M  V30 11818 H 1073.07 3.36784 -1.62873 0
M  V30 11819 H 1074.4 4.43957 -2.12516 0
M  V30 11820 N 1076.06 0.894434 1.2976 0
M  V30 11821 C 1077 0.366586 2.2787 0
M  V30 11822 C 1077.97 -0.548425 1.56785 0
M  V30 11823 O 1079.16 -0.474804 1.84798 0
M  V30 11824 C 1076.3 -0.404531 3.42721 0
M  V30 11825 C 1075.41 0.540774 4.28602 0
M  V30 11826 C 1074.55 -0.246875 5.30626 0
M  V30 11827 C 1073.59 0.693294 6.08161 0
M  V30 11828 N 1072.72 -0.059619 7.02075 0
M  V30 11829 H 1077.56 1.20834 2.72402 0
M  V30 11830 H 1075.1 0.607205 1.33983 0
M  V30 11831 H 1077.06 -0.86762 4.08079 0
M  V30 11832 H 1075.69 -1.21078 2.99232 0
M  V30 11833 H 1074.74 1.12237 3.63465 0
M  V30 11834 H 1076.05 1.26065 4.82606 0
M  V30 11835 H 1075.21 -0.771398 6.01776 0
M  V30 11836 H 1073.94 -0.999918 4.77339 0
M  V30 11837 H 1072.95 1.22936 5.35879 0
M  V30 11838 H 1074.17 1.44558 6.63536 0
M  V30 11839 H 1072.12 -0.795026 6.51165 0
M  V30 11840 H 1072.04 0.60045 7.53612 0
M  V30 11841 H 1073.31 -0.564577 7.77453 0
M  V30 11842 N 1077.53 -1.43282 0.656365 0
M  V30 11843 C 1078.5 -2.29188 -0.0239173 0
M  V30 11844 C 1079.5 -1.42373 -0.747436 0
M  V30 11845 O 1080.69 -1.63969 -0.588213 0
M  V30 11846 C 1077.82 -3.24501 -1.0446 0
M  V30 11847 H 1079.01 -2.9083 0.731978 0
M  V30 11848 H 1076.57 -1.50614 0.417752 0
M  V30 11849 H 1077.3 -2.6776 -1.82962 0
M  V30 11850 H 1077.09 -3.88509 -0.52942 0
M  V30 11851 H 1078.58 -3.88971 -1.51958 0
M  V30 11852 N 1079.01 -0.398486 -1.52479 0
M  V30 11853 C 1079.92 0.439328 -2.3045 0
M  V30 11854 C 1080.94 1.06322 -1.37738 0
M  V30 11855 O 1082.12 1.06704 -1.7081 0
M  V30 11856 C 1079.18 1.54655 -3.10294 0
M  V30 11857 C 1078.24 0.946824 -4.18729 0
M  V30 11858 C 1077.47 2.00129 -4.94757 0
M  V30 11859 O 1077.7 3.2178 -4.70971 0
M  V30 11860 O 1076.63 1.61345 -5.79872 0
M  V30 11861 H 1080.46 -0.196118 -3.03066 0
M  V30 11862 H 1078.04 -0.161961 -1.4852 0
M  V30 11863 H 1079.92 2.18958 -3.60049 0
M  V30 11864 H 1078.6 2.1668 -2.40482 0
M  V30 11865 H 1077.51 0.266802 -3.73147 0
M  V30 11866 H 1078.84 0.370664 -4.90802 0
M  V30 11867 N 1080.49 1.57075 -0.12858 0
M  V30 11868 C 1081.44 2.17084 0.835308 0
M  V30 11869 C 1082.43 1.12268 1.26855 0
M  V30 11870 O 1083.64 1.30554 1.23917 0
M  V30 11871 H 1080.01 0.694866 0.287516 0
M  V30 11872 H 1081.99 2.96839 0.304798 0
M  V30 11873 C 1080.73 2.79237 2.07177 0
M  V30 11874 H 1080.06 3.59594 1.74735 0
M  V30 11875 H 1081.5 3.24751 2.72604 0
M  V30 11876 C 1079.96 1.76803 2.86779 0
M  V30 11877 O 1080.49 1.22723 3.82494 0
M  V30 11878 N 1078.69 1.46525 2.50956 0
M  V30 11879 H 1078.24 1.90694 1.73187 0
M  V30 11880 H 1078.2 0.782326 3.04511 0
M  V30 11881 N 1081.97 -0.145205 1.5693 0
M  V30 11882 C 1083.39 -0.497905 1.51635 0
M  V30 11883 C 1083.59 -1.8328 0.837301 0
M  V30 11884 O 1082.64 -2.49172 0.408584 0
M  V30 11885 C 1083.95 -0.506557 2.96403 0
M  V30 11886 C 1085.5 -0.591947 3.07352 0
M  V30 11887 C 1085.98 -0.631244 4.53629 0
M  V30 11888 N 1087.47 -0.693417 4.5798 0
M  V30 11889 C 1088.2 -0.744836 5.68542 0
M  V30 11890 N 1087.7 -0.755492 6.88668 0
M  V30 11891 N 1089.49 -0.785854 5.5658 0
M  V30 11892 H 1081.64 0.729779 1.99469 0
M  V30 11893 H 1083.91 0.266295 0.90983 0
M  V30 11894 H 1083.61 0.406127 3.49347 0
M  V30 11895 H 1083.49 -1.34383 3.5245 0
M  V30 11896 H 1085.87 -1.49505 2.54425 0
M  V30 11897 H 1085.95 0.272507 2.54344 0
M  V30 11898 H 1085.6 0.26771 5.07194 0
M  V30 11899 H 1085.53 -1.51221 5.0442 0
M  V30 11900 H 1088.02 -0.692408 3.71503 0
M  V30 11901 H 1088.33 -0.796624 7.68683 0
M  V30 11902 H 1086.68 -0.723339 6.91226 0
M  V30 11903 H 1089.87 -0.774712 4.61645 0
M  V30 11904 H 1090.04 -0.822461 6.42759 0
M  V30 11905 N 1083.45 -1.52049 -0.414609 0
M  V30 11906 C 1084.69 -1.66084 -1.16379 0
M  V30 11907 C 1085.03 -0.386932 -1.90306 0
M  V30 11908 O 1084.3 0.614441 -1.8454 0
M  V30 11909 C 1084.58 -2.87927 -2.16264 0
M  V30 11910 C 1084.44 -4.25353 -1.46269 0
M  V30 11911 C 1085.76 -3.05289 -3.16996 0
M  V30 11912 H 1082.88 -0.604414 -0.421726 0
M  V30 11913 H 1085.52 -1.8459 -0.450177 0
M  V30 11914 H 1083.67 -2.7228 -2.77121 0
M  V30 11915 H 1085.34 -4.52717 -0.885743 0
M  V30 11916 H 1083.58 -4.27006 -0.76472 0
M  V30 11917 H 1084.25 -5.06644 -2.19126 0
M  V30 11918 H 1086.73 -3.19798 -2.66212 0
M  V30 11919 H 1085.61 -3.92065 -3.84156 0
M  V30 11920 H 1085.87 -2.1836 -3.84411 0
M  V30 11921 N 1084.93 0.6715 -1.42579 0
M  V30 11922 C 1086.17 1.43366 -1.43436 0
M  V30 11923 C 1086.5 1.94131 -0.0517339 0
M  V30 11924 O 1085.78 1.71121 0.924548 0
M  V30 11925 C 1086.06 2.62832 -2.46154 0
M  V30 11926 C 1085.92 2.17677 -3.9362 0
M  V30 11927 C 1087.23 3.65049 -2.4582 0
M  V30 11928 H 1084.35 0.519967 -0.522306 0
M  V30 11929 H 1087 0.762849 -1.74013 0
M  V30 11930 H 1085.15 3.20062 -2.2021 0
M  V30 11931 H 1086.82 1.65588 -4.30556 0
M  V30 11932 H 1085.06 1.49219 -4.07328 0
M  V30 11933 H 1085.73 3.03503 -4.61075 0
M  V30 11934 H 1088.21 3.17541 -2.68899 0
M  V30 11935 H 1087.08 4.46213 -3.19664 0
M  V30 11936 H 1087.34 4.16401 -1.48536 0
M  V30 11937 N 1086.4 1.28806 0.908124 0
M  V30 11938 C 1087.34 1.09018 2.01613 0
M  V30 11939 C 1088.35 0.0402059 1.6275 0
M  V30 11940 O 1089.54 0.283853 1.76229 0
M  V30 11941 C 1086.64 0.635712 3.32884 0
M  V30 11942 C 1085.81 1.76235 4.00325 0
M  V30 11943 C 1084.87 1.3003 5.09881 0
M  V30 11944 O 1083.9 2.00354 5.32773 0
M  V30 11945 N 1085.1 0.166575 5.80261 0
M  V30 11946 H 1087.86 2.0444 2.19144 0
M  V30 11947 H 1085.42 1.20633 1.07978 0
M  V30 11948 H 1087.42 0.310097 4.0351 0
M  V30 11949 H 1085.99 -0.225816 3.11783 0
M  V30 11950 H 1085.21 2.25727 3.23173 0
M  V30 11951 H 1086.49 2.51796 4.42127 0
M  V30 11952 H 1085.89 -0.419934 5.64139 0
M  V30 11953 H 1084.45 -0.0997281 6.51724 0
M  V30 11954 N 1087.88 -1.11734 1.11145 0
M  V30 11955 C 1089.13 -1.82766 0.853194 0
M  V30 11956 C 1089.44 -1.85408 -0.623168 0
M  V30 11957 O 1090.65 -2.52509 -0.997574 0
M  V30 11958 C 1089.11 -3.28215 1.47658 0
M  V30 11959 C 1088.71 -3.33911 2.98676 0
M  V30 11960 C 1090.46 -4.04168 1.29803 0
M  V30 11961 C 1088.36 -4.73739 3.54013 0
M  V30 11962 H 1087.29 -0.684807 0.315523 0
M  V30 11963 H 1089.95 -1.25756 1.33633 0
M  V30 11964 H 1088.33 -3.85138 0.921116 0
M  V30 11965 H 1089.5 -2.86887 3.606 0
M  V30 11966 H 1087.82 -2.71437 3.15771 0
M  V30 11967 H 1090.41 -5.07429 1.68582 0
M  V30 11968 H 1090.76 -4.15606 0.240302 0
M  V30 11969 H 1091.29 -3.53623 1.82196 0
M  V30 11970 H 1088.03 -4.67497 4.59485 0
M  V30 11971 H 1087.55 -5.21186 2.9686 0
M  V30 11972 H 1089.23 -5.42691 3.52271 0
M  V30 11973 N 1089.36 -0.901303 -1.29284 0
M  V30 11974 C 1090.27 -0.3849 -2.31421 0
M  V30 11975 C 1091.29 0.521163 -1.66012 0
M  V30 11976 O 1092.46 0.410356 -1.97175 0
M  V30 11977 C 1089.53 0.377804 -3.44635 0
M  V30 11978 C 1088.59 -0.559974 -4.25632 0
M  V30 11979 C 1087.82 0.166425 -5.3344 0
M  V30 11980 O 1088.04 1.39012 -5.53202 0
M  V30 11981 O 1086.98 -0.491875 -5.99887 0
M  V30 11982 H 1090.8 -1.2323 -2.77575 0
M  V30 11983 H 1088.39 -0.665683 -1.3375 0
M  V30 11984 H 1090.27 0.809041 -4.13561 0
M  V30 11985 H 1088.95 1.20124 -3.00586 0
M  V30 11986 H 1087.85 -1.04036 -3.59343 0
M  V30 11987 H 1089.19 -1.34987 -4.73328 0
M  V30 11988 N 1090.84 1.42931 -0.663954 0
M  V30 11989 C 1091.78 2.3079 0.0210764 0
M  V30 11990 C 1092.75 1.45356 0.803796 0
M  V30 11991 O 1093.94 1.74207 0.778237 0
M  V30 11992 C 1091.08 3.31069 0.974023 0
M  V30 11993 C 1090.19 4.31598 0.186273 0
M  V30 11994 C 1089.33 5.18955 1.13399 0
M  V30 11995 C 1088.37 6.1117 0.337292 0
M  V30 11996 N 1087.5 6.91114 1.23715 0
M  V30 11997 H 1092.34 2.88819 -0.733995 0
M  V30 11998 H 1089.88 1.42274 -0.373711 0
M  V30 11999 H 1091.84 3.87727 1.54024 0
M  V30 12000 H 1090.47 2.74665 1.69585 0
M  V30 12001 H 1089.52 3.77147 -0.496402 0
M  V30 12002 H 1090.83 4.96919 -0.432753 0
M  V30 12003 H 1089.99 5.80292 1.77049 0
M  V30 12004 H 1088.73 4.53785 1.78691 0
M  V30 12005 H 1087.73 5.48911 -0.312492 0
M  V30 12006 H 1088.96 6.78386 -0.31138 0
M  V30 12007 H 1086.9 6.28583 1.87668 0
M  V30 12008 H 1086.82 7.52999 0.672946 0
M  V30 12009 H 1088.09 7.56948 1.86146 0
M  V30 12010 N 1092.32 0.406567 1.52266 0
M  V30 12011 C 1093.25 -0.45552 2.24628 0
M  V30 12012 C 1094.26 -1.01234 1.27497 0
M  V30 12013 O 1095.45 -0.911718 1.5346 0
M  V30 12014 C 1092.55 -1.64578 2.96256 0
M  V30 12015 C 1091.72 -1.2133 4.20235 0
M  V30 12016 C 1090.78 -2.27018 4.7471 0
M  V30 12017 O 1089.81 -1.87714 5.37357 0
M  V30 12018 N 1091.01 -3.5915 4.56061 0
M  V30 12019 H 1093.77 0.164525 2.99248 0
M  V30 12020 H 1091.34 0.233812 1.60203 0
M  V30 12021 H 1093.33 -2.3484 3.29594 0
M  V30 12022 H 1091.9 -2.1718 2.24837 0
M  V30 12023 H 1091.12 -0.338892 3.92741 0
M  V30 12024 H 1092.41 -0.901268 5.00754 0
M  V30 12025 H 1091.8 -3.93834 4.06092 0
M  V30 12026 H 1090.36 -4.25397 4.93843 0
M  V30 12027 N 1093.79 -1.57004 0.136909 0
M  V30 12028 C 1095.03 -1.97686 -0.519583 0
M  V30 12029 C 1095.4 -1.01951 -1.62696 0
M  V30 12030 O 1096.6 -1.31639 -2.3436 0
M  V30 12031 C 1094.87 -3.42474 -1.02206 0
M  V30 12032 S 1096.43 -4.05176 -1.68457 0
M  V30 12033 H 1093.25 -0.690787 -0.168329 0
M  V30 12034 H 1095.85 -1.94187 0.226234 0
M  V30 12035 H 1094.55 -4.09887 -0.205194 0
M  V30 12036 H 1094.08 -3.49664 -1.80273 0
M  V30 12037 H 1096.1 -3.97401 -2.97131 0
M  V30 12038 N 1095.27 0.136881 -1.57004 0
M  V30 12039 C 1096.5 0.866405 -1.88436 0
M  V30 12040 C 1096.92 1.73483 -0.727006 0
M  V30 12041 O 1096.28 1.78398 0.323094 0
M  V30 12042 C 1096.33 1.69059 -3.18514 0
M  V30 12043 O 1095.43 2.79584 -3.03161 0
M  V30 12044 H 1094.77 0.240709 -0.618834 0
M  V30 12045 H 1097.3 0.124653 -2.0422 0
M  V30 12046 H 1097.31 2.08353 -3.50789 0
M  V30 12047 H 1095.99 1.05296 -4.0235 0
M  V30 12048 H 1094.57 2.43623 -2.82315 0
M  V30 12049 N 1096.75 1.52266 0.40654 0
M  V30 12050 C 1097.68 1.70519 1.51653 0
M  V30 12051 C 1098.66 0.552798 1.52915 0
M  V30 12052 O 1099.85 0.780468 1.71584 0
M  V30 12053 C 1096.97 1.74686 2.90176 0
M  V30 12054 C 1096.02 2.96255 3.06815 0
M  V30 12055 S 1096.85 4.56553 2.79856 0
M  V30 12056 C 1098.01 4.63511 4.20605 0
M  V30 12057 H 1098.24 2.64399 1.35942 0
M  V30 12058 H 1095.77 1.42337 0.598284 0
M  V30 12059 H 1097.73 1.77773 3.7001 0
M  V30 12060 H 1096.39 0.819291 3.03227 0
M  V30 12061 H 1095.59 2.95661 4.08167 0
M  V30 12062 H 1095.19 2.91069 2.34851 0
M  V30 12063 H 1097.48 4.41047 5.1428 0
M  V30 12064 H 1098.42 5.65456 4.26222 0
M  V30 12065 H 1098.83 3.92518 4.05697 0
M  V30 12066 N 1098.23 -0.663929 1.42933 0
M  V30 12067 C 1099.16 -1.78899 1.50058 0
M  V30 12068 C 1100.14 -1.66329 0.356164 0
M  V30 12069 O 1101.32 -1.85587 0.571944 0
M  V30 12070 C 1098.45 -3.17265 1.41281 0
M  V30 12071 C 1097.41 -3.44584 2.53861 0
M  V30 12072 C 1096.73 -4.82638 2.3014 0
M  V30 12073 C 1098.03 -3.40394 3.96143 0
M  V30 12074 H 1099.73 -1.73194 2.44222 0
M  V30 12075 H 1097.27 -0.83182 1.17545 0
M  V30 12076 H 1099.23 -3.95715 1.44872 0
M  V30 12077 H 1097.95 -3.23675 0.43616 0
M  V30 12078 H 1096.61 -2.685 2.49606 0
M  V30 12079 H 1096.26 -4.85711 1.30743 0
M  V30 12080 H 1095.96 -5.01879 3.056 0
M  V30 12081 H 1097.48 -5.63359 2.35497 0
M  V30 12082 H 1098.9 -4.08796 4.01943 0
M  V30 12083 H 1097.29 -3.7117 4.71543 0
M  V30 12084 H 1098.36 -2.38767 4.22041 0
M  V30 12085 N 1099.71 -1.29285 -0.901281 0
M  V30 12086 C 1100.98 -1.07847 -1.63182 0
M  V30 12087 C 1101.36 0.377927 -2.07689 0
M  V30 12088 O 1100.71 1.36642 -1.83143 0
M  V30 12089 C 1100.92 -2.06457 -2.81383 0
M  V30 12090 C 1102.27 -2.37289 -3.52107 0
M  V30 12091 O 1103.29 -2.0464 -2.91549 0
M  V30 12092 O 1102.15 -2.93067 -4.61274 0
M  V30 12093 H 1099.25 -0.413073 -0.71645 0
M  V30 12094 H 1101.79 -1.40651 -0.949488 0
M  V30 12095 H 1100.56 -3.04561 -2.4568 0
M  V30 12096 H 1100.19 -1.74374 -3.57323 0
M  V30 12097 N 1101.18 1.11143 -1.11736 0
M  V30 12098 C 1102.43 1.83219 -0.869413 0
M  V30 12099 C 1102.76 1.84588 0.603402 0
M  V30 12100 O 1102.04 1.30119 1.44566 0
M  V30 12101 C 1102.32 3.30247 -1.43559 0
M  V30 12102 C 1102.17 3.37253 -2.97624 0
M  V30 12103 C 1103.49 4.26412 -1.08907 0
M  V30 12104 H 1100.61 0.665205 -0.317286 0
M  V30 12105 H 1103.25 1.30307 -1.38275 0
M  V30 12106 H 1101.4 3.75437 -0.998978 0
M  V30 12107 H 1103.08 3.00599 -3.49911 0
M  V30 12108 H 1101.32 2.77378 -3.33532 0
M  V30 12109 H 1101.99 4.40752 -3.32328 0
M  V30 12110 H 1104.47 3.89418 -1.46604 0
M  V30 12111 H 1103.34 5.27666 -1.51195 0
M  V30 12112 H 1103.6 4.421 -0.000259009 0
M  V30 12113 N 1102.66 0.908147 1.28804 0
M  V30 12114 C 1103.94 0.457561 1.90173 0
M  V30 12115 C 1104.32 -1.06333 1.82364 0
M  V30 12116 O 1103.67 -1.90892 1.25589 0
M  V30 12117 C 1103.88 0.981624 3.34911 0
M  V30 12118 C 1105.23 1.03037 4.11908 0
M  V30 12119 O 1106.25 0.929878 3.43848 0
M  V30 12120 O 1105.11 1.18257 5.33552 0
M  V30 12121 H 1102.2 0.144081 0.814352 0
M  V30 12122 H 1104.75 0.998565 1.37211 0
M  V30 12123 H 1103.52 2.02561 3.34791 0
M  V30 12124 H 1103.14 0.421122 3.95364 0
M  V30 12125 N 1104.14 -1.42577 0.671525 0
M  V30 12126 C 1105.07 -2.33499 0.00506984 0
M  V30 12127 C 1106.05 -1.50497 -0.792763 0
M  V30 12128 O 1107.24 -1.79109 -0.750574 0
M  V30 12129 C 1104.37 -3.34077 -0.949194 0
M  V30 12130 C 1103.32 -4.27208 -0.260187 0
M  V30 12131 C 1102.65 -5.17968 -1.32716 0
M  V30 12132 C 1103.95 -5.15192 0.858772 0
M  V30 12133 H 1105.64 -2.89477 0.764407 0
M  V30 12134 H 1103.19 -1.39191 0.369043 0
M  V30 12135 H 1105.14 -3.96594 -1.42448 0
M  V30 12136 H 1103.86 -2.76396 -1.73991 0
M  V30 12137 H 1102.52 -3.66082 0.194834 0
M  V30 12138 H 1102.17 -4.56615 -2.10979 0
M  V30 12139 H 1101.87 -5.81104 -0.871293 0
M  V30 12140 H 1103.39 -5.83359 -1.80345 0
M  V30 12141 H 1104.81 -5.71412 0.464844 0
M  V30 12142 H 1103.21 -5.87144 1.24023 0
M  V30 12143 H 1104.28 -4.53787 1.70895 0
M  V30 12144 N 1105.62 -0.414636 -1.52048 0
M  V30 12145 C 1106.57 0.408141 -2.27163 0
M  V30 12146 C 1107.54 1.03636 -1.29803 0
M  V30 12147 O 1108.72 1.05959 -1.58674 0
M  V30 12148 C 1105.86 1.51588 -3.10024 0
M  V30 12149 C 1104.97 0.908034 -4.22349 0
M  V30 12150 C 1104.11 1.98893 -4.9256 0
M  V30 12151 C 1103.15 1.35831 -5.96839 0
M  V30 12152 N 1102.28 2.37958 -6.60545 0
M  V30 12153 H 1107.12 -0.238822 -2.97041 0
M  V30 12154 H 1104.66 -0.129614 -1.46528 0
M  V30 12155 H 1106.62 2.16916 -3.56375 0
M  V30 12156 H 1105.25 2.13279 -2.42305 0
M  V30 12157 H 1104.3 0.143652 -3.80129 0
M  V30 12158 H 1105.61 0.407426 -4.97133 0
M  V30 12159 H 1104.77 2.71935 -5.42343 0
M  V30 12160 H 1103.51 2.5232 -4.17356 0
M  V30 12161 H 1102.51 0.613246 -5.46369 0
M  V30 12162 H 1103.74 0.831655 -6.73988 0
M  V30 12163 H 1101.68 2.90508 -5.88167 0
M  V30 12164 H 1101.6 1.92725 -7.31022 0
M  V30 12165 H 1102.87 3.10553 -7.14966 0
M  V30 12166 N 1107.1 1.56929 -0.145233 0
M  V30 12167 C 1108.03 2.13796 0.826078 0
M  V30 12168 C 1109.04 1.08697 1.21197 0
M  V30 12169 O 1110.23 1.3598 1.15635 0
M  V30 12170 C 1107.33 2.6443 2.11967 0
M  V30 12171 C 1106.5 3.9391 1.90142 0
M  V30 12172 C 1105.56 4.29872 3.03474 0
M  V30 12173 O 1104.59 4.98227 2.75242 0
M  V30 12174 N 1105.79 3.8931 4.30602 0
M  V30 12175 H 1108.56 2.97764 0.340073 0
M  V30 12176 H 1106.12 1.61854 0.0383928 0
M  V30 12177 H 1108.11 2.85502 2.86829 0
M  V30 12178 H 1106.68 1.85196 2.51836 0
M  V30 12179 H 1105.9 3.81481 0.993268 0
M  V30 12180 H 1107.19 4.78523 1.72896 0
M  V30 12181 H 1106.58 3.34229 4.56407 0
M  V30 12182 H 1105.14 4.15438 5.0225 0
M  V30 12183 N 1108.58 -0.128553 1.57075 0
M  V30 12184 C 1109.8 -0.8564 1.88893 0
M  V30 12185 C 1110.23 -1.73095 0.736196 0
M  V30 12186 O 1109.58 -1.78567 -0.313629 0
M  V30 12187 C 1109.63 -1.67368 3.19406 0
M  V30 12188 O 1108.74 -2.77973 3.04639 0
M  V30 12189 H 1108.08 -0.237424 0.620102 0
M  V30 12190 H 1110.61 -0.113821 2.04283 0
M  V30 12191 H 1110.62 -2.0649 3.51889 0
M  V30 12192 H 1109.29 -1.03161 4.02903 0
M  V30 12193 H 1107.87 -2.42123 2.83603 0
M  V30 12194 N 1110.05 -1.5248 -0.398459 0
M  V30 12195 C 1110.99 -1.72826 -1.50545 0
M  V30 12196 C 1112 -0.608683 -1.50993 0
M  V30 12197 O 1113.19 -0.88413 -1.55066 0
M  V30 12198 C 1110.29 -1.76327 -2.89417 0
M  V30 12199 C 1109.46 -3.05491 -3.1304 0
M  V30 12200 C 1108.52 -3.00663 -4.31843 0
M  V30 12201 O 1107.55 -3.74548 -4.28605 0
M  V30 12202 N 1108.75 -2.19191 -5.37527 0
M  V30 12203 H 1111.51 -2.68333 -1.33482 0
M  V30 12204 H 1109.07 -1.5085 -0.587875 0
M  V30 12205 H 1111.07 -1.70616 -3.66977 0
M  V30 12206 H 1109.64 -0.882476 -2.99885 0
M  V30 12207 H 1108.86 -3.24767 -2.23428 0
M  V30 12208 H 1110.14 -3.90915 -3.25673 0
M  V30 12209 H 1109.54 -1.58613 -5.43009 0
M  V30 12210 H 1108.1 -2.19328 -6.1379 0
M  V30 12211 N 1111.53 0.65634 -1.43283 0
M  V30 12212 C 1112.46 1.78184 -1.44164 0
M  V30 12213 C 1113.48 1.59249 -0.338177 0
M  V30 12214 O 1114.67 1.68027 -0.60242 0
M  V30 12215 C 1111.77 3.15566 -1.23577 0
M  V30 12216 C 1110.94 3.61187 -2.46704 0
M  V30 12217 C 1110 4.77361 -2.21388 0
M  V30 12218 O 1109.02 4.8696 -2.94718 0
M  V30 12219 N 1110.23 5.67351 -1.22855 0
M  V30 12220 H 1112.99 1.77907 -2.41183 0
M  V30 12221 H 1110.55 0.840076 -1.38399 0
M  V30 12222 H 1112.54 3.90968 -1.04529 0
M  V30 12223 H 1111.11 3.10633 -0.350155 0
M  V30 12224 H 1110.33 2.76263 -2.81198 0
M  V30 12225 H 1111.62 3.88413 -3.28652 0
M  V30 12226 H 1111.02 5.62265 -0.622417 0
M  V30 12227 H 1109.58 6.42487 -1.09791 0
M  V30 12228 N 1113.01 1.29761 0.894412 0
M  V30 12229 C 1113.96 1.15341 1.99912 0
M  V30 12230 C 1114.93 0.0453488 1.66038 0
M  V30 12231 O 1116.11 0.213829 1.89598 0
M  V30 12232 C 1113.25 0.841432 3.34685 0
M  V30 12233 C 1112.36 2.03046 3.81309 0
M  V30 12234 C 1111.5 1.65739 5.04682 0
M  V30 12235 C 1110.54 2.81191 5.43689 0
M  V30 12236 N 1109.68 2.44244 6.58247 0
M  V30 12237 H 1114.52 2.09854 2.11578 0
M  V30 12238 H 1112.05 1.04421 1.03608 0
M  V30 12239 H 1114.01 0.641211 4.12243 0
M  V30 12240 H 1112.64 -0.066797 3.22731 0
M  V30 12241 H 1111.69 2.34222 2.9974 0
M  V30 12242 H 1113 2.89538 4.06164 0
M  V30 12243 H 1112.16 1.42036 5.8984 0
M  V30 12244 H 1110.9 0.764019 4.81678 0
M  V30 12245 H 1109.9 3.0557 4.57064 0
M  V30 12246 H 1111.13 3.712 5.68672 0
M  V30 12247 H 1109.07 1.57402 6.36837 0
M  V30 12248 H 1108.99 3.24269 6.82924 0
M  V30 12249 H 1110.26 2.23875 7.46659 0
M  V30 12250 N 1114.49 -1.10549 1.12324 0
M  V30 12251 C 1115.42 -2.18911 0.812416 0
M  V30 12252 C 1116.4 -1.68628 -0.22327 0
M  V30 12253 O 1117.58 -1.94015 -0.0847184 0
M  V30 12254 C 1114.71 -3.46288 0.264947 0
M  V30 12255 C 1113.67 -4.09838 1.23356 0
M  V30 12256 C 1112.99 -5.31901 0.546374 0
M  V30 12257 C 1114.29 -4.53686 2.58778 0
M  V30 12258 H 1115.99 -2.45169 1.71851 0
M  V30 12259 H 1113.53 -1.17834 0.827715 0
M  V30 12260 H 1115.49 -4.21385 0.0352364 0
M  V30 12261 H 1114.21 -3.19517 -0.676479 0
M  V30 12262 H 1112.87 -3.36746 1.44906 0
M  V30 12263 H 1112.52 -5.01406 -0.400157 0
M  V30 12264 H 1112.22 -5.75372 1.19249 0
M  V30 12265 H 1113.74 -6.09731 0.325673 0
M  V30 12266 H 1115.16 -5.20063 2.41263 0
M  V30 12267 H 1113.55 -5.08003 3.19457 0
M  V30 12268 H 1114.62 -3.66665 3.17309 0
M  V30 12269 N 1115.97 -0.914965 -1.28321 0
M  V30 12270 C 1116.88 -0.409424 -2.31 0
M  V30 12271 C 1117.89 0.503526 -1.66555 0
M  V30 12272 O 1119.07 0.38942 -1.97599 0
M  V30 12273 C 1116.13 0.34123 -3.45017 0
M  V30 12274 C 1115.19 -0.605087 -4.25014 0
M  V30 12275 C 1114.43 0.109837 -5.33587 0
M  V30 12276 O 1114.65 1.33136 -5.54645 0
M  V30 12277 O 1113.58 -0.555474 -5.99331 0
M  V30 12278 H 1117.41 -1.26167 -2.76253 0
M  V30 12279 H 1114.99 -0.679831 -1.33036 0
M  V30 12280 H 1116.88 0.765132 -4.14396 0
M  V30 12281 H 1115.55 1.16929 -3.01843 0
M  V30 12282 H 1114.46 -1.07841 -3.58219 0
M  V30 12283 H 1115.79 -1.39999 -4.7187 0
M  V30 12284 N 1117.44 1.42219 -0.679077 0
M  V30 12285 C 1118.39 2.27992 0.0194379 0
M  V30 12286 C 1119.38 1.41317 0.769313 0
M  V30 12287 O 1120.57 1.64731 0.647521 0
M  V30 12288 C 1117.7 3.29401 0.966945 0
M  V30 12289 C 1116.78 4.23559 0.214187 0
M  V30 12290 N 1117.18 4.99699 -0.783226 0
M  V30 12291 C 1115.47 4.43703 0.452026 0
M  V30 12292 C 1116.17 5.68496 -1.23237 0
M  V30 12293 N 1115.15 5.40692 -0.561484 0
M  V30 12294 H 1118.95 2.84287 -0.745542 0
M  V30 12295 H 1116.47 1.54234 -0.508504 0
M  V30 12296 H 1118.46 3.89655 1.48238 0
M  V30 12297 H 1117.12 2.74667 1.7317 0
M  V30 12298 H 1118.13 5.04675 -1.16291 0
M  V30 12299 H 1114.81 4.00004 1.19595 0
M  V30 12300 H 1116.2 6.3957 -2.05912 0
M  V30 12301 N 1118.92 0.422693 1.51826 0
M  V30 12302 C 1119.85 -0.386913 2.30272 0
M  V30 12303 C 1120.83 -1.03411 1.35056 0
M  V30 12304 O 1122.02 -1.04055 1.6397 0
M  V30 12305 C 1119.15 -1.49645 3.13407 0
M  V30 12306 C 1118.1 -0.973532 4.16781 0
M  V30 12307 C 1117.43 -2.1777 4.88344 0
M  V30 12308 C 1118.73 -0.0181194 5.22297 0
M  V30 12309 H 1120.42 0.267697 2.98201 0
M  V30 12310 H 1117.97 0.130186 1.4341 0
M  V30 12311 H 1119.92 -2.06993 3.67059 0
M  V30 12312 H 1118.64 -2.17914 2.43272 0
M  V30 12313 H 1117.3 -0.42237 3.64159 0
M  V30 12314 H 1116.95 -2.84625 4.14726 0
M  V30 12315 H 1116.65 -1.83427 5.58237 0
M  V30 12316 H 1118.18 -2.75699 5.44814 0
M  V30 12317 H 1119.59 -0.500822 5.71108 0
M  V30 12318 H 1117.99 0.237163 5.99631 0
M  V30 12319 H 1119.06 0.923065 4.76033 0
M  V30 12320 N 1120.4 -1.5685 0.153553 0
M  V30 12321 C 1121.63 -2.00701 -0.502678 0
M  V30 12322 C 1122.04 -1.0337 -1.57988 0
M  V30 12323 O 1121.4 -0.0317233 -1.82472 0
M  V30 12324 C 1121.45 -3.44443 -1.09732 0
M  V30 12325 O 1121.17 -4.38054 -0.0631405 0
M  V30 12326 C 1122.67 -4.03605 -1.83352 0
M  V30 12327 H 1119.89 -0.658229 -0.130289 0
M  V30 12328 H 1122.44 -2.02965 0.250063 0
M  V30 12329 H 1120.59 -3.43009 -1.80065 0
M  V30 12330 H 1121.01 -5.22114 -0.499681 0
M  V30 12331 H 1122.48 -5.0616 -2.20241 0
M  V30 12332 H 1122.96 -3.44687 -2.7219 0
M  V30 12333 H 1123.56 -4.08688 -1.17703 0
M  V30 12334 N 1121.88 0.120221 -1.57141 0
M  V30 12335 C 1123.13 0.826586 -1.84423 0
M  V30 12336 C 1123.45 1.80473 -0.738553 0
M  V30 12337 O 1122.72 1.94454 0.23755 0
M  V30 12338 H 1121.3 0.308246 -0.680436 0
M  V30 12339 H 1123.96 0.107835 -1.94601 0
M  V30 12340 H 1123.05 1.37256 -2.80298 0
M  V30 12341 N 1123.36 1.52689 0.390367 0
M  V30 12342 C 1124.3 1.78007 1.4972 0
M  V30 12343 C 1125.3 0.647948 1.56518 0
M  V30 12344 O 1126.5 0.830398 1.59701 0
M  V30 12345 H 1122.88 0.56322 0.498284 0
M  V30 12346 H 1124.85 2.70698 1.25559 0
M  V30 12347 C 1123.6 1.96469 2.86872 0
M  V30 12348 H 1122.92 2.83012 2.82391 0
M  V30 12349 H 1124.36 2.18174 3.6356 0
M  V30 12350 C 1122.82 0.736847 3.28743 0
M  V30 12351 O 1123.35 -0.0863743 4.01607 0
M  V30 12352 N 1121.56 0.56735 2.85008 0
M  V30 12353 H 1121.1 1.23838 2.2588 0
M  V30 12354 H 1121.06 -0.252831 3.13382 0
M  V30 12355 N 1124.83 -0.648732 1.43629 0
M  V30 12356 C 1125.78 -1.76145 1.49136 0
M  V30 12357 C 1126.75 -1.62569 0.340649 0
M  V30 12358 O 1127.94 -1.82748 0.548435 0
M  V30 12359 C 1125.08 -3.14321 1.42466 0
M  V30 12360 C 1124.19 -3.38999 2.67776 0
M  V30 12361 C 1123.32 -4.67047 2.53062 0
M  V30 12362 C 1122.36 -4.84845 3.7362 0
M  V30 12363 N 1121.5 -6.04155 3.57689 0
M  V30 12364 H 1126.34 -1.70774 2.44213 0
M  V30 12365 H 1123.88 -0.833311 1.2122 0
M  V30 12366 H 1125.84 -3.94206 1.36592 0
M  V30 12367 H 1124.47 -3.18751 0.509666 0
M  V30 12368 H 1123.52 -2.53179 2.83909 0
M  V30 12369 H 1124.83 -3.48035 3.57314 0
M  V30 12370 H 1123.98 -5.55066 2.44922 0
M  V30 12371 H 1122.72 -4.60339 1.61056 0
M  V30 12372 H 1121.73 -3.95261 3.82163 0
M  V30 12373 H 1122.95 -4.9338 4.6664 0
M  V30 12374 H 1120.9 -5.9857 2.6842 0
M  V30 12375 H 1120.82 -6.14169 4.40832 0
M  V30 12376 H 1122.08 -6.94782 3.53409 0
M  V30 12377 N 1126.31 -1.30234 -0.887518 0
M  V30 12378 C 1127.22 -1.18316 -2.02579 0
M  V30 12379 C 1128.24 -0.103658 -1.73691 0
M  V30 12380 O 1129.41 -0.3181 -1.98872 0
M  V30 12381 C 1126.48 -0.873222 -3.35523 0
M  V30 12382 C 1125.54 -2.03783 -3.7785 0
M  V30 12383 C 1124.77 -1.74258 -5.0445 0
M  V30 12384 O 1125 -0.669295 -5.6646 0
M  V30 12385 O 1123.93 -2.59423 -5.43124 0
M  V30 12386 H 1127.76 -2.13933 -2.15561 0
M  V30 12387 H 1125.34 -1.09803 -1.0131 0
M  V30 12388 H 1127.22 -0.715463 -4.15282 0
M  V30 12389 H 1125.9 0.053056 -3.23657 0
M  V30 12390 H 1124.81 -2.2509 -2.98806 0
M  V30 12391 H 1126.14 -2.94574 -3.94318 0
M  V30 12392 N 1127.79 1.09952 -1.12909 0
M  V30 12393 C 1129.21 1.34051 -0.866172 0
M  V30 12394 C 1129.41 1.95169 0.501125 0
M  V30 12395 O 1128.46 2.19458 1.24878 0
M  V30 12396 C 1129.78 2.25738 -1.98653 0
M  V30 12397 C 1131.32 2.39261 -2.01799 0
M  V30 12398 C 1131.8 3.3428 -3.13083 0
M  V30 12399 N 1133.29 3.41851 -3.12558 0
M  V30 12400 C 1134.02 4.15358 -3.95304 0
M  V30 12401 N 1133.52 4.91709 -4.88051 0
M  V30 12402 N 1135.31 4.11027 -3.83423 0
M  V30 12403 H 1127.46 0.686521 -2.00999 0
M  V30 12404 H 1129.73 0.364913 -0.874953 0
M  V30 12405 H 1129.43 1.88048 -2.97205 0
M  V30 12406 H 1129.31 3.26085 -1.89601 0
M  V30 12407 H 1131.69 2.76218 -1.03864 0
M  V30 12408 H 1131.78 1.38712 -2.14925 0
M  V30 12409 H 1131.42 2.98048 -4.11254 0
M  V30 12410 H 1131.35 4.34721 -2.97195 0
M  V30 12411 H 1133.84 2.87405 -2.45371 0
M  V30 12412 H 1134.15 5.45212 -5.47689 0
M  V30 12413 H 1132.5 4.90816 -4.92061 0
M  V30 12414 H 1135.69 3.50477 -3.10296 0
M  V30 12415 H 1135.86 4.68054 -4.4814 0
M  V30 12416 N 1129.27 0.921757 1.27833 0
M  V30 12417 C 1130.2 0.360683 2.25332 0
M  V30 12418 C 1131.18 -0.53961 1.53385 0
M  V30 12419 O 1132.36 -0.48146 1.82248 0
M  V30 12420 C 1129.49 -0.483626 3.35229 0
M  V30 12421 C 1128.54 0.352405 4.25042 0
M  V30 12422 S 1129.37 1.76421 5.05605 0
M  V30 12423 C 1130.53 0.92742 6.18991 0
M  V30 12424 H 1130.76 1.18703 2.72574 0
M  V30 12425 H 1128.29 0.72354 1.36397 0
M  V30 12426 H 1130.25 -0.964914 3.98998 0
M  V30 12427 H 1128.91 -1.28444 2.86637 0
M  V30 12428 H 1128.1 -0.293558 5.03144 0
M  V30 12429 H 1127.71 0.767643 3.66037 0
M  V30 12430 H 1130 0.160698 6.77309 0
M  V30 12431 H 1130.94 1.68126 6.87851 0
M  V30 12432 H 1131.35 0.472056 5.62523 0
M  V30 12433 N 1130.75 -1.41857 0.686609 0
M  V30 12434 C 1131.66 -2.34595 0.0159005 0
M  V30 12435 C 1132.67 -1.55741 -0.775933 0
M  V30 12436 O 1133.85 -1.8826 -0.71555 0
M  V30 12437 C 1130.91 -3.34395 -0.915473 0
M  V30 12438 C 1129.97 -4.29141 -0.116851 0
M  V30 12439 C 1129.21 -5.24174 -1.00386 0
M  V30 12440 O 1129.43 -5.24431 -2.2434 0
M  V30 12441 O 1128.36 -6.00152 -0.458337 0
M  V30 12442 H 1132.19 -2.9351 0.780101 0
M  V30 12443 H 1129.78 -1.42559 0.446896 0
M  V30 12444 H 1131.66 -3.95675 -1.44981 0
M  V30 12445 H 1130.33 -2.77936 -1.65932 0
M  V30 12446 H 1129.24 -3.71238 0.461871 0
M  V30 12447 H 1130.57 -4.88673 0.588138 0
M  V30 12448 N 1132.22 -0.430739 -1.51599 0
M  V30 12449 C 1133.5 0.197543 -1.946 0
M  V30 12450 C 1133.88 1.6069 -1.36901 0
M  V30 12451 O 1133.23 2.21697 -0.553422 0
M  V30 12452 C 1133.44 0.181976 -3.48525 0
M  V30 12453 C 1134.79 0.390783 -4.22798 0
M  V30 12454 O 1135.81 0.260384 -3.55247 0
M  V30 12455 O 1134.67 0.649701 -5.42624 0
M  V30 12456 H 1131.76 0.133524 -0.81615 0
M  V30 12457 H 1134.31 -0.488243 -1.62525 0
M  V30 12458 H 1133.08 -0.803584 -3.8296 0
M  V30 12459 H 1132.71 0.910952 -3.87024 0
M  V30 12460 N 1133.7 1.56767 -0.161869 0
M  V30 12461 C 1134.61 2.21083 0.784814 0
M  V30 12462 C 1135.63 1.19959 1.26039 0
M  V30 12463 O 1136.8 1.52588 1.31449 0
M  V30 12464 C 1133.87 2.83153 2.00063 0
M  V30 12465 C 1132.93 3.9945 1.57285 0
M  V30 12466 C 1132.16 4.5855 2.7307 0
M  V30 12467 O 1132.39 4.16534 3.89686 0
M  V30 12468 O 1131.32 5.48575 2.47688 0
M  V30 12469 H 1135.15 3.02522 0.267243 0
M  V30 12470 H 1132.73 1.49255 0.0658783 0
M  V30 12471 H 1134.61 3.22546 2.71186 0
M  V30 12472 H 1133.29 2.04718 2.50744 0
M  V30 12473 H 1132.2 3.64745 0.831393 0
M  V30 12474 H 1133.53 4.7945 1.11304 0
M  V30 12475 N 1135.18 -0.111886 1.57202 0
M  V30 12476 C 1136.43 -0.819623 1.85499 0
M  V30 12477 C 1136.76 -1.7919 0.748629 0
M  V30 12478 O 1136.03 -1.92952 -0.244918 0
M  V30 12479 C 1136.32 -1.56324 3.24399 0
M  V30 12480 C 1136.17 -0.610081 4.45643 0
M  V30 12481 C 1137.49 -2.51777 3.60966 0
M  V30 12482 H 1134.61 -0.296512 0.674722 0
M  V30 12483 H 1137.25 -0.0836741 1.89816 0
M  V30 12484 H 1135.4 -2.1906 3.2085 0
M  V30 12485 H 1137.07 0.00898038 4.61299 0
M  V30 12486 H 1135.32 0.0778488 4.3373 0
M  V30 12487 H 1135.99 -1.16718 5.39519 0
M  V30 12488 H 1138.46 -1.99143 3.65351 0
M  V30 12489 H 1137.34 -3.00835 4.59118 0
M  V30 12490 H 1137.6 -3.34769 2.8876 0
M  V30 12491 N 1136.66 -1.52894 -0.382264 0
M  V30 12492 C 1137.61 -1.78151 -1.46734 0
M  V30 12493 C 1138.58 -0.625034 -1.53891 0
M  V30 12494 O 1139.76 -0.865467 -1.70042 0
M  V30 12495 C 1136.9 -1.96223 -2.83885 0
M  V30 12496 C 1136.01 -3.23925 -2.85826 0
M  V30 12497 C 1135.15 -3.32277 -4.14446 0
M  V30 12498 C 1134.19 -4.54076 -4.10465 0
M  V30 12499 N 1133.32 -4.59672 -5.30703 0
M  V30 12500 H 1138.16 -2.70748 -1.24497 0
M  V30 12501 H 1135.7 -1.34135 -0.603838 0
M  V30 12502 H 1137.66 -2.04686 -3.63537 0
M  V30 12503 H 1136.29 -1.0698 -3.04557 0
M  V30 12504 H 1135.34 -3.245 -1.98505 0
M  V30 12505 H 1136.65 -4.1364 -2.78754 0
M  V30 12506 H 1135.81 -3.3996 -5.02506 0
M  V30 12507 H 1134.55 -2.40548 -4.2425 0
M  V30 12508 H 1133.55 -4.46511 -3.20793 0
M  V30 12509 H 1134.78 -5.47128 -4.02278 0
M  V30 12510 H 1132.72 -3.70838 -5.41124 0
M  V30 12511 H 1132.64 -5.43268 -5.25734 0
M  V30 12512 H 1133.91 -4.71618 -6.20642 0
M  V30 12513 N 1138.14 0.641106 -1.43971 0
M  V30 12514 C 1139.09 1.77474 -1.50352 0
M  V30 12515 C 1140.08 1.65173 -0.376052 0
M  V30 12516 O 1141.29 1.71373 -0.550572 0
M  V30 12517 H 1137.66 0.585747 -0.471597 0
M  V30 12518 H 1139.63 1.69213 -2.45784 0
M  V30 12519 C 1138.38 3.15778 -1.45532 0
M  V30 12520 H 1137.7 3.25886 -2.316 0
M  V30 12521 H 1139.14 3.95022 -1.54058 0
M  V30 12522 C 1137.6 3.36447 -0.174624 0
M  V30 12523 O 1138.13 3.9446 0.759215 0
M  V30 12524 N 1136.34 2.90487 -0.0809383 0
M  V30 12525 H 1135.89 2.43461 -0.841691 0
M  V30 12526 H 1135.84 3.04693 0.775231 0
M  V30 12527 N 1139.62 1.30703 0.880598 0
M  V30 12528 C 1140.55 1.20033 2.00286 0
M  V30 12529 C 1141.53 0.0899614 1.69862 0
M  V30 12530 O 1142.71 0.272747 1.92275 0
M  V30 12531 C 1139.84 0.895902 3.35546 0
M  V30 12532 C 1138.8 1.96468 3.80242 0
M  V30 12533 C 1138.12 1.51316 5.12843 0
M  V30 12534 C 1139.42 3.37637 3.98496 0
M  V30 12535 H 1141.12 2.13922 2.0947 0
M  V30 12536 H 1138.66 1.02989 1.00644 0
M  V30 12537 H 1140.61 0.807899 4.13583 0
M  V30 12538 H 1139.34 -0.0786636 3.26505 0
M  V30 12539 H 1138 2.0424 3.04437 0
M  V30 12540 H 1137.65 0.52674 5.00234 0
M  V30 12541 H 1137.35 2.22807 5.43719 0
M  V30 12542 H 1138.87 1.43903 5.93401 0
M  V30 12543 H 1140.28 3.326 4.66959 0
M  V30 12544 H 1138.68 4.07253 4.40755 0
M  V30 12545 H 1139.75 3.79205 3.02211 0
M  V30 12546 N 1141.09 -1.09351 1.1349 0
M  V30 12547 C 1142.32 -1.85304 0.920324 0
M  V30 12548 C 1142.74 -1.81182 -0.530883 0
M  V30 12549 O 1142.09 -1.20853 -1.36751 0
M  V30 12550 C 1142.14 -3.33249 1.40098 0
M  V30 12551 O 1141.87 -3.37333 2.79531 0
M  V30 12552 C 1143.37 -4.2604 1.22495 0
M  V30 12553 H 1140.59 -0.585294 0.328134 0
M  V30 12554 H 1143.13 -1.38168 1.50765 0
M  V30 12555 H 1141.29 -3.7781 0.85664 0
M  V30 12556 H 1141.7 -4.29614 3.00885 0
M  V30 12557 H 1143.17 -5.27999 1.61 0
M  V30 12558 H 1143.65 -4.38883 0.166717 0
M  V30 12559 H 1144.26 -3.87295 1.75735 0
M  V30 12560 N 1142.57 -0.928524 -1.27343 0
M  V30 12561 C 1143.5 -0.445627 -2.29208 0
M  V30 12562 C 1144.48 0.494508 -1.62753 0
M  V30 12563 O 1145.67 0.399082 -1.90055 0
M  V30 12564 C 1142.8 0.301684 -3.45987 0
M  V30 12565 C 1141.75 -0.550695 -4.24442 0
M  V30 12566 C 1141.08 0.325833 -5.33706 0
M  V30 12567 C 1142.38 -1.81559 -4.89728 0
M  V30 12568 H 1144.07 -1.29696 -2.69851 0
M  V30 12569 H 1141.62 -0.625085 -1.29725 0
M  V30 12570 H 1143.57 0.650455 -4.1635 0
M  V30 12571 H 1142.29 1.18705 -3.04264 0
M  V30 12572 H 1140.95 -0.882185 -3.55827 0
M  V30 12573 H 1140.6 1.21018 -4.88225 0
M  V30 12574 H 1140.3 -0.240994 -5.87106 0
M  V30 12575 H 1141.83 0.670156 -6.06911 0
M  V30 12576 H 1143.24 -1.53483 -5.52373 0
M  V30 12577 H 1141.64 -2.32598 -5.53189 0
M  V30 12578 H 1142.71 -2.53461 -4.13383 0
M  V30 12579 N 1144.05 1.41491 -0.694123 0
M  V30 12580 C 1144.98 2.29197 0.0112742 0
M  V30 12581 C 1145.99 1.44708 0.745877 0
M  V30 12582 O 1147.18 1.68227 0.596821 0
M  V30 12583 C 1144.28 3.22547 1.04004 0
M  V30 12584 C 1143.46 4.35787 0.375347 0
M  V30 12585 C 1142.52 5.09722 1.30652 0
M  V30 12586 O 1141.54 5.63558 0.799459 0
M  V30 12587 N 1142.74 5.1705 2.63893 0
M  V30 12588 H 1145.51 2.90377 -0.741705 0
M  V30 12589 H 1143.07 1.52628 -0.540039 0
M  V30 12590 H 1145.06 3.68878 1.66468 0
M  V30 12591 H 1143.63 2.62685 1.69456 0
M  V30 12592 H 1142.85 3.91857 -0.429145 0
M  V30 12593 H 1144.14 5.08726 -0.0869041 0
M  V30 12594 H 1143.54 4.74756 3.07609 0
M  V30 12595 H 1142.09 5.66962 3.21555 0
M  V30 12596 N 1145.53 0.438773 1.51369 0
M  V30 12597 C 1146.46 -0.362467 2.3067 0
M  V30 12598 C 1147.44 -1.01973 1.36145 0
M  V30 12599 O 1148.62 -1.0231 1.65065 0
M  V30 12600 C 1145.75 -1.46313 3.14976 0
M  V30 12601 C 1144.71 -0.929272 4.1779 0
M  V30 12602 C 1144.03 -2.12579 4.90627 0
M  V30 12603 C 1145.33 0.0372782 5.22287 0
M  V30 12604 H 1147.03 0.29931 2.979 0
M  V30 12605 H 1144.57 0.14539 1.43264 0
M  V30 12606 H 1146.53 -2.03088 3.69233 0
M  V30 12607 H 1145.25 -2.15321 2.45569 0
M  V30 12608 H 1143.91 -0.383722 3.64586 0
M  V30 12609 H 1143.56 -2.8021 4.17722 0
M  V30 12610 H 1143.26 -1.77496 5.60151 0
M  V30 12611 H 1144.78 -2.69905 5.47708 0
M  V30 12612 H 1146.2 -0.44022 5.71607 0
M  V30 12613 H 1144.59 0.300748 5.99346 0
M  V30 12614 H 1145.66 0.973503 4.75027 0
M  V30 12615 N 1147.01 -1.56678 0.170181 0
M  V30 12616 C 1147.92 -2.21496 -0.773079 0
M  V30 12617 C 1148.93 -1.20626 -1.25401 0
M  V30 12618 O 1150.11 -1.53283 -1.30638 0
M  V30 12619 C 1147.17 -2.8421 -1.98558 0
M  V30 12620 C 1146.23 -4.00278 -1.55164 0
M  V30 12621 C 1145.47 -4.59992 -2.70634 0
M  V30 12622 O 1145.69 -4.18595 -3.87472 0
M  V30 12623 O 1144.62 -5.49881 -2.44775 0
M  V30 12624 H 1148.45 -3.02659 -0.251195 0
M  V30 12625 H 1146.03 -1.49288 -0.0579621 0
M  V30 12626 H 1147.92 -3.2398 -2.69472 0
M  V30 12627 H 1146.59 -2.06045 -2.49654 0
M  V30 12628 H 1145.5 -3.6518 -0.812038 0
M  V30 12629 H 1146.83 -4.80033 -1.0876 0
M  V30 12630 N 1148.48 0.103547 -1.57259 0
M  V30 12631 C 1149.42 1.15225 -1.98131 0
M  V30 12632 C 1150.43 1.36793 -0.882692 0
M  V30 12633 O 1151.62 1.35595 -1.16088 0
M  V30 12634 C 1148.72 2.50941 -2.27776 0
M  V30 12635 C 1147.89 2.49765 -3.59077 0
M  V30 12636 C 1146.95 3.67344 -3.76756 0
M  V30 12637 O 1145.98 3.50221 -4.48702 0
M  V30 12638 N 1147.18 4.86504 -3.16692 0
M  V30 12639 H 1149.94 0.804448 -2.88702 0
M  V30 12640 H 1147.5 0.292636 -1.59233 0
M  V30 12641 H 1149.5 3.28186 -2.36804 0
M  V30 12642 H 1148.07 2.77843 -1.43255 0
M  V30 12643 H 1147.29 1.58125 -3.61096 0
M  V30 12644 H 1148.57 2.4605 -4.4535 0
M  V30 12645 H 1147.97 5.03319 -2.58236 0
M  V30 12646 H 1146.53 5.61371 -3.31218 0
M  V30 12647 N 1149.96 1.53094 0.37415 0
M  V30 12648 C 1150.87 1.81872 1.48188 0
M  V30 12649 C 1151.89 0.706487 1.59012 0
M  V30 12650 O 1153.06 0.995648 1.75068 0
M  V30 12651 C 1150.13 1.99494 2.83554 0
M  V30 12652 C 1149.19 3.23402 2.82329 0
M  V30 12653 C 1148.42 3.40174 4.11239 0
M  V30 12654 O 1148.65 2.61425 5.06965 0
M  V30 12655 O 1147.58 4.33493 4.17573 0
M  V30 12656 H 1151.41 2.75965 1.26795 0
M  V30 12657 H 1148.99 1.38368 0.56343 0
M  V30 12658 H 1150.87 2.12705 3.63778 0
M  V30 12659 H 1149.55 1.08591 3.04942 0
M  V30 12660 H 1148.45 3.15621 2.00834 0
M  V30 12661 H 1149.79 4.14199 2.65894 0
M  V30 12662 N 1151.44 -0.633461 1.44309 0
M  V30 12663 C 1152.66 -1.42527 1.50668 0
M  V30 12664 C 1153.09 -1.87637 0.131861 0
M  V30 12665 O 1152.45 -1.58595 -0.878477 0
M  V30 12666 C 1152.5 -2.62328 2.47419 0
M  V30 12667 O 1151.6 -3.62081 1.97411 0
M  V30 12668 H 1150.94 -0.426559 0.508864 0
M  V30 12669 H 1153.47 -0.773392 1.8942 0
M  V30 12670 H 1153.48 -3.09901 2.65378 0
M  V30 12671 H 1152.16 -2.2884 3.47283 0
M  V30 12672 H 1150.73 -3.21333 1.89208 0
M  V30 12673 N 1152.92 -1.31168 -0.873655 0
M  V30 12674 C 1153.87 -1.18432 -2.00191 0
M  V30 12675 C 1154.86 -0.0934873 -1.69142 0
M  V30 12676 O 1156.07 -0.255126 -1.78183 0
M  V30 12677 H 1152.44 -0.366594 -0.656592 0
M  V30 12678 H 1154.41 -2.13896 -2.08065 0
M  V30 12679 C 1153.16 -0.904668 -3.35725 0
M  V30 12680 H 1152.48 -1.73617 -3.60135 0
M  V30 12681 H 1153.92 -0.855715 -4.15275 0
M  V30 12682 C 1152.38 0.392554 -3.34605 0
M  V30 12683 O 1152.91 1.41052 -3.76121 0
M  V30 12684 N 1151.12 0.40777 -2.87725 0
M  V30 12685 H 1150.67 -0.42112 -2.54134 0
M  V30 12686 H 1150.62 1.27564 -2.87358 0
M  V30 12687 N 1154.4 1.08748 -1.14068 0
M  V30 12688 C 1155.34 2.15573 -0.824425 0
M  V30 12689 C 1156.31 1.64683 0.216522 0
M  V30 12690 O 1157.5 1.90601 0.0872193 0
M  V30 12691 C 1154.64 3.43756 -0.30423 0
M  V30 12692 C 1153.75 4.08512 -1.40506 0
M  V30 12693 C 1152.89 5.24477 -0.842479 0
M  V30 12694 C 1151.93 5.81167 -1.92123 0
M  V30 12695 N 1151.06 6.88483 -1.37608 0
M  V30 12696 H 1155.9 2.41968 -1.73941 0
M  V30 12697 H 1153.44 1.18751 -0.868143 0
M  V30 12698 H 1155.4 4.17197 0.0155546 0
M  V30 12699 H 1154.03 3.17658 0.573868 0
M  V30 12700 H 1153.08 3.32866 -1.84131 0
M  V30 12701 H 1154.39 4.46669 -2.2201 0
M  V30 12702 H 1153.55 6.04842 -0.474389 0
M  V30 12703 H 1152.28 4.877 0.00355212 0
M  V30 12704 H 1151.29 4.99458 -2.29831 0
M  V30 12705 H 1152.51 6.20003 -2.77079 0
M  V30 12706 H 1150.46 6.53672 -0.552168 0
M  V30 12707 H 1150.38 7.25446 -2.12752 0
M  V30 12708 H 1151.65 7.72588 -1.03578 0
M  V30 12709 N 1155.87 0.935264 1.26849 0
M  V30 12710 C 1157.29 0.636661 1.46352 0
M  V30 12711 C 1157.49 -0.811823 1.84423 0
M  V30 12712 O 1156.55 -1.58902 1.9623 0
M  V30 12713 C 1157.86 1.59301 2.55036 0
M  V30 12714 C 1159.41 1.60207 2.68892 0
M  V30 12715 C 1159.88 2.54558 3.80742 0
M  V30 12716 N 1161.37 2.52809 3.88126 0
M  V30 12717 C 1162.11 3.225 4.74111 0
M  V30 12718 N 1161.6 4.01598 5.64527 0
M  V30 12719 N 1163.4 3.11481 4.67906 0
M  V30 12720 H 1155.55 1.8716 1.00423 0
M  V30 12721 H 1157.81 0.803968 0.502334 0
M  V30 12722 H 1157.52 2.62671 2.33874 0
M  V30 12723 H 1157.39 1.34052 3.52576 0
M  V30 12724 H 1159.78 0.575649 2.89431 0
M  V30 12725 H 1159.86 1.89508 1.71815 0
M  V30 12726 H 1159.5 3.57314 3.60956 0
M  V30 12727 H 1159.43 2.22549 4.77263 0
M  V30 12728 H 1161.92 1.9537 3.2348 0
M  V30 12729 H 1162.24 4.51742 6.27016 0
M  V30 12730 H 1160.58 4.057 5.64298 0
M  V30 12731 H 1163.77 2.49175 3.9627 0
M  V30 12732 H 1163.95 3.66064 5.34697 0
M  V30 12733 N 1157.35 -1.41121 0.701616 0
M  V30 12734 C 1158.28 -2.33436 0.0545974 0
M  V30 12735 C 1159.26 -1.52144 -0.760662 0
M  V30 12736 O 1160.45 -1.80661 -0.712414 0
M  V30 12737 C 1157.58 -3.36015 -0.878117 0
M  V30 12738 C 1156.53 -4.27664 -0.169511 0
M  V30 12739 C 1155.86 -5.20666 -1.21699 0
M  V30 12740 C 1157.16 -5.13254 0.967859 0
M  V30 12741 H 1158.85 -2.87791 0.825637 0
M  V30 12742 H 1156.4 -1.38377 0.398484 0
M  V30 12743 H 1158.35 -3.99526 -1.34004 0
M  V30 12744 H 1157.08 -2.80024 -1.68089 0
M  V30 12745 H 1155.73 -3.65586 0.272441 0
M  V30 12746 H 1155.38 -4.60987 -2.01246 0
M  V30 12747 H 1155.08 -5.82822 -0.747836 0
M  V30 12748 H 1156.61 -5.87053 -1.6793 0
M  V30 12749 H 1158.02 -5.70298 0.585944 0
M  V30 12750 H 1156.42 -5.84381 1.3645 0
M  V30 12751 H 1157.49 -4.5006 1.80483 0
M  V30 12752 N 1158.83 -0.446794 -1.51134 0
M  V30 12753 C 1159.76 0.350229 -2.30858 0
M  V30 12754 C 1160.74 1.0125 -1.36684 0
M  V30 12755 O 1161.93 1.01433 -1.65605 0
M  V30 12756 C 1159.06 1.4464 -3.15748 0
M  V30 12757 C 1158.01 0.907102 -4.18277 0
M  V30 12758 C 1157.34 2.09974 -4.91747 0
M  V30 12759 C 1158.64 -0.0649758 -5.2226 0
M  V30 12760 H 1160.33 -0.315105 -2.97737 0
M  V30 12761 H 1157.88 -0.152985 -1.43185 0
M  V30 12762 H 1159.83 2.01127 -3.70305 0
M  V30 12763 H 1158.55 2.14016 -2.46708 0
M  V30 12764 H 1157.21 0.364382 -3.64785 0
M  V30 12765 H 1156.86 2.77991 -4.19202 0
M  V30 12766 H 1156.56 1.74523 -5.61084 0
M  V30 12767 H 1158.08 2.66996 -5.49131 0
M  V30 12768 H 1159.5 0.4099 -5.71833 0
M  V30 12769 H 1157.9 -0.332529 -5.99178 0
M  V30 12770 H 1158.97 -0.998681 -4.74504 0
M  V30 12771 N 1160.31 1.56586 -0.178487 0
M  V30 12772 C 1161.24 2.21313 0.744486 0
M  V30 12773 C 1162.22 1.17098 1.23377 0
M  V30 12774 O 1163.4 1.45551 1.28563 0
M  V30 12775 C 1160.53 2.8595 1.97103 0
M  V30 12776 C 1159.49 3.96266 1.61732 0
M  V30 12777 C 1158.81 4.47987 2.91911 0
M  V30 12778 C 1160.11 5.15503 0.839868 0
M  V30 12779 H 1161.81 2.98698 0.204938 0
M  V30 12780 H 1159.35 1.43672 0.0971306 0
M  V30 12781 H 1161.31 3.29909 2.6218 0
M  V30 12782 H 1160.03 2.05946 2.53484 0
M  V30 12783 H 1158.69 3.52974 0.990208 0
M  V30 12784 H 1158.34 3.64765 3.46346 0
M  V30 12785 H 1158.04 5.22413 2.68995 0
M  V30 12786 H 1159.56 4.94637 3.58004 0
M  V30 12787 H 1160.98 5.5611 1.39337 0
M  V30 12788 H 1159.37 5.95891 0.709473 0
M  V30 12789 H 1160.44 4.84628 -0.162396 0
M  V30 12790 N 1161.79 -0.095206 1.57312 0
M  V30 12791 C 1162.72 -1.14173 1.98739 0
M  V30 12792 C 1163.73 -1.36323 0.889934 0
M  V30 12793 O 1164.92 -1.34977 1.16805 0
M  V30 12794 C 1162.02 -2.49729 2.29104 0
M  V30 12795 C 1161.19 -2.47857 3.60396 0
M  V30 12796 C 1160.25 -3.65341 3.78699 0
M  V30 12797 O 1159.28 -3.47837 4.50553 0
M  V30 12798 N 1160.48 -4.84818 3.19268 0
M  V30 12799 H 1163.25 -0.789126 2.89124 0
M  V30 12800 H 1160.81 -0.284187 1.59386 0
M  V30 12801 H 1162.8 -3.26925 2.38541 0
M  V30 12802 H 1161.37 -2.7708 1.44726 0
M  V30 12803 H 1160.59 -1.56208 3.61929 0
M  V30 12804 H 1161.88 -2.43685 4.46649 0
M  V30 12805 H 1161.27 -5.01943 2.60902 0
M  V30 12806 H 1159.83 -5.59607 3.34191 0
M  V30 12807 N 1163.26 -1.53291 -0.366026 0
M  V30 12808 C 1164.21 -1.80367 -1.4687 0
M  V30 12809 C 1165.21 -0.672767 -1.55468 0
M  V30 12810 O 1166.41 -0.8557 -1.5836 0
M  V30 12811 H 1162.79 -0.571076 -0.48926 0
M  V30 12812 H 1164.76 -2.72661 -1.21237 0
M  V30 12813 C 1163.51 -2.01008 -2.8371 0
M  V30 12814 H 1162.83 -2.87468 -2.77853 0
M  V30 12815 H 1164.27 -2.2393 -3.60043 0
M  V30 12816 C 1162.73 -0.789054 -3.27529 0
M  V30 12817 O 1163.26 0.0224712 -4.01694 0
M  V30 12818 N 1161.47 -0.612621 -2.84069 0
M  V30 12819 H 1161.01 -1.27416 -2.23881 0
M  V30 12820 H 1160.97 0.202943 -3.13744 0
M  V30 12821 N 1164.74 0.6258 -1.44643 0
M  V30 12822 C 1165.65 1.76611 -1.5442 0
M  V30 12823 C 1166.67 1.68614 -0.429576 0
M  V30 12824 O 1167.84 1.89296 -0.687686 0
M  V30 12825 C 1164.91 3.13015 -1.49071 0
M  V30 12826 C 1163.97 3.32604 -2.71428 0
M  V30 12827 C 1163.2 4.62501 -2.66325 0
M  V30 12828 O 1163.43 5.43651 -1.72626 0
M  V30 12829 O 1162.36 4.84408 -3.57258 0
M  V30 12830 H 1166.19 1.71315 -2.50769 0
M  V30 12831 H 1163.77 0.787677 -1.26949 0
M  V30 12832 H 1165.65 3.94318 -1.48631 0
M  V30 12833 H 1164.33 3.18842 -0.558686 0
M  V30 12834 H 1163.24 2.50959 -2.77435 0
M  V30 12835 H 1164.57 3.31642 -3.63695 0
M  V30 12836 N 1166.22 1.31629 0.866686 0
M  V30 12837 C 1167.15 1.22151 1.99001 0
M  V30 12838 C 1168.13 0.107972 1.69757 0
M  V30 12839 O 1169.32 0.293125 1.91975 0
M  V30 12840 C 1166.45 0.93144 3.34577 0
M  V30 12841 C 1165.4 2.0049 3.78137 0
M  V30 12842 C 1164.73 1.56747 5.11209 0
M  V30 12843 C 1166.03 3.41844 3.94892 0
M  V30 12844 H 1167.72 2.16132 2.0719 0
M  V30 12845 H 1165.27 1.04051 0.995463 0
M  V30 12846 H 1167.22 0.851719 4.12703 0
M  V30 12847 H 1165.94 -0.0440289 3.2657 0
M  V30 12848 H 1164.6 2.07457 3.02253 0
M  V30 12849 H 1164.25 0.579767 4.99648 0
M  V30 12850 H 1163.95 2.28562 5.41326 0
M  V30 12851 H 1165.47 1.50188 5.91841 0
M  V30 12852 H 1166.89 3.37534 4.63405 0
M  V30 12853 H 1165.29 4.11905 4.36411 0
M  V30 12854 H 1166.36 3.82389 2.98172 0
M  V30 12855 N 1167.7 -1.08142 1.14644 0
M  V30 12856 C 1168.65 -2.15133 0.835845 0
M  V30 12857 C 1169.62 -1.64795 -0.207785 0
M  V30 12858 O 1170.8 -1.90644 -0.07711 0
M  V30 12859 C 1167.94 -3.4359 0.322456 0
M  V30 12860 C 1167.05 -4.07761 1.42671 0
M  V30 12861 C 1166.19 -5.24022 0.870281 0
M  V30 12862 C 1165.23 -5.8014 1.95202 0
M  V30 12863 N 1164.37 -6.87743 1.41257 0
M  V30 12864 H 1169.21 -2.41042 1.75222 0
M  V30 12865 H 1166.74 -1.18288 0.874428 0
M  V30 12866 H 1168.7 -4.17199 0.00657059 0
M  V30 12867 H 1167.33 -3.17958 -0.557014 0
M  V30 12868 H 1166.38 -3.31885 1.85893 0
M  V30 12869 H 1167.69 -4.45485 2.24375 0
M  V30 12870 H 1166.85 -6.04582 0.506459 0
M  V30 12871 H 1165.59 -4.87695 0.0223118 0
M  V30 12872 H 1164.59 -4.98232 2.32476 0
M  V30 12873 H 1165.82 -6.18525 2.80363 0
M  V30 12874 H 1163.76 -6.5337 0.586826 0
M  V30 12875 H 1163.68 -7.24308 2.16596 0
M  V30 12876 H 1164.95 -7.72028 1.07674 0
M  V30 12877 N 1169.18 -0.941978 -1.26351 0
M  V30 12878 C 1170.41 -0.606748 -1.97803 0
M  V30 12879 C 1170.82 0.818441 -1.70138 0
M  V30 12880 O 1170.18 1.54583 -0.970076 0
M  V30 12881 C 1170.23 -0.840431 -3.51595 0
M  V30 12882 O 1169.95 -2.20957 -3.78299 0
M  V30 12883 C 1171.45 -0.515855 -4.40288 0
M  V30 12884 H 1168.67 -0.228591 -0.630862 0
M  V30 12885 H 1171.21 -1.2629 -1.60845 0
M  V30 12886 H 1169.37 -0.230875 -3.86711 0
M  V30 12887 H 1169.78 -2.2702 -4.72824 0
M  V30 12888 H 1171.26 -0.72998 -5.47152 0
M  V30 12889 H 1171.73 0.549178 -4.35753 0
M  V30 12890 H 1172.34 -1.10417 -4.10717 0
M  V30 12891 N 1170.66 1.40747 -0.709091 0
M  V30 12892 C 1171.59 2.29196 -0.0130359 0
M  V30 12893 C 1172.6 1.45491 0.730487 0
M  V30 12894 O 1173.79 1.6885 0.578944 0
M  V30 12895 C 1170.89 3.23632 1.00577 0
M  V30 12896 C 1170.06 4.3616 0.329105 0
M  V30 12897 C 1169.12 5.11079 1.25239 0
M  V30 12898 O 1168.15 5.64374 0.739641 0
M  V30 12899 N 1169.35 5.1982 2.58394 0
M  V30 12900 H 1172.11 2.89574 -0.772462 0
M  V30 12901 H 1169.68 1.52046 -0.556197 0
M  V30 12902 H 1171.67 3.70622 1.62546 0
M  V30 12903 H 1170.24 2.64467 1.66661 0
M  V30 12904 H 1169.46 3.9138 -0.470683 0
M  V30 12905 H 1170.75 5.08605 -0.140856 0
M  V30 12906 H 1170.14 4.77992 3.02556 0
M  V30 12907 H 1168.7 5.7034 3.15524 0
M  V30 12908 N 1172.13 0.454803 1.50895 0
M  V30 12909 C 1173.1 -0.336293 2.26719 0
M  V30 12910 C 1174.1 -0.93464 1.30848 0
M  V30 12911 O 1175.29 -0.80636 1.54413 0
M  V30 12912 C 1172.42 -1.47744 3.07221 0
M  V30 12913 H 1173.61 0.328462 2.98096 0
M  V30 12914 H 1171.16 0.208419 1.54904 0
M  V30 12915 H 1171.9 -2.17773 2.40302 0
M  V30 12916 H 1171.68 -1.05438 3.77658 0
M  V30 12917 H 1173.17 -2.03592 3.6461 0
M  V30 12918 N 1173.61 -1.56489 0.186789 0
M  V30 12919 C 1174.86 -1.97341 -0.454158 0
M  V30 12920 C 1175.19 -1.07337 -1.622 0
M  V30 12921 O 1174.44 -0.1107 -1.95387 0
M  V30 12922 C 1174.74 -3.44145 -0.964315 0
M  V30 12923 C 1174.41 -4.50812 0.0892734 0
M  V30 12924 C 1173.07 -4.79707 0.378794 0
M  V30 12925 C 1175.42 -5.14968 0.8036 0
M  V30 12926 C 1172.75 -5.70051 1.38776 0
M  V30 12927 C 1175.1 -6.06402 1.80166 0
M  V30 12928 C 1173.76 -6.33657 2.09847 0
M  V30 12929 H 1173.03 -0.722124 -0.166188 0
M  V30 12930 H 1175.68 -1.89412 0.282008 0
M  V30 12931 H 1173.99 -3.49103 -1.7786 0
M  V30 12932 H 1175.68 -3.73104 -1.4695 0
M  V30 12933 H 1172.27 -4.28349 -0.146552 0
M  V30 12934 H 1176.46 -4.92743 0.593147 0
M  V30 12935 H 1171.71 -5.89445 1.62373 0
M  V30 12936 H 1175.89 -6.55176 2.36045 0
M  V30 12937 H 1173.51 -7.03462 2.88175 0
M  V30 12938 N 1175.09 0.086862 -1.5736 0
M  V30 12939 C 1176 1.12297 -2.05977 0
M  V30 12940 C 1177.02 1.43347 -0.986284 0
M  V30 12941 O 1178.19 1.53825 -1.3 0
M  V30 12942 C 1175.26 2.42131 -2.4814 0
M  V30 12943 C 1174.32 2.18189 -3.69719 0
M  V30 12944 C 1173.55 3.41833 -4.09861 0
M  V30 12945 O 1173.77 4.50383 -3.50016 0
M  V30 12946 O 1172.71 3.30934 -5.02759 0
M  V30 12947 H 1176.53 0.740012 -2.94546 0
M  V30 12948 H 1174.12 0.29995 -1.46358 0
M  V30 12949 H 1176 3.18568 -2.75848 0
M  V30 12950 H 1174.68 2.79837 -1.62705 0
M  V30 12951 H 1173.58 1.39506 -3.47115 0
M  V30 12952 H 1174.92 1.85372 -4.55959 0
M  V30 12953 N 1176.57 1.53483 0.357892 0
M  V30 12954 C 1177.53 1.79782 1.42166 0
M  V30 12955 C 1178.53 0.668441 1.46248 0
M  V30 12956 O 1179.72 0.936677 1.46874 0
M  V30 12957 C 1176.85 1.92686 2.8122 0
M  V30 12958 H 1178.05 2.74794 1.20117 0
M  V30 12959 H 1175.6 1.44677 0.591468 0
M  V30 12960 H 1176.33 0.997669 3.08573 0
M  V30 12961 H 1176.12 2.74837 2.79655 0
M  V30 12962 H 1177.61 2.14599 3.58242 0
M  V30 12963 N 1178.05 -0.61812 1.44973 0
M  V30 12964 C 1179.32 -1.37705 1.38913 0
M  V30 12965 C 1179.7 -2.1103 0.054385 0
M  V30 12966 O 1179.05 -2.07197 -0.963409 0
M  V30 12967 C 1179.26 -2.33265 2.59593 0
M  V30 12968 C 1180.61 -2.96197 3.04224 0
M  V30 12969 O 1181.63 -2.43589 2.59891 0
M  V30 12970 O 1180.49 -3.91666 3.8113 0
M  V30 12971 H 1177.59 -0.61694 0.55074 0
M  V30 12972 H 1180.13 -0.642088 1.57084 0
M  V30 12973 H 1178.9 -1.78271 3.48332 0
M  V30 12974 H 1178.53 -3.14158 2.43702 0
M  V30 12975 N 1179.52 -1.32087 -0.859693 0
M  V30 12976 C 1180.47 -1.20549 -1.98924 0
M  V30 12977 C 1181.47 -0.111422 -1.69033 0
M  V30 12978 O 1182.67 -0.27401 -1.77902 0
M  V30 12979 H 1179.05 -0.373538 -0.652667 0
M  V30 12980 H 1181.02 -2.16091 -2.05785 0
M  V30 12981 C 1179.77 -0.940226 -3.34746 0
M  V30 12982 H 1179.09 -1.77427 -3.58273 0
M  V30 12983 H 1180.53 -0.899712 -4.14344 0
M  V30 12984 C 1178.99 0.357042 -3.35003 0
M  V30 12985 O 1179.52 1.37054 -3.77596 0
M  V30 12986 N 1177.72 0.37723 -2.88141 0
M  V30 12987 H 1177.27 -0.448051 -2.53674 0
M  V30 12988 H 1177.23 1.24509 -2.88695 0
M  V30 12989 N 1181 1.07532 -1.15215 0
M  V30 12990 C 1181.93 2.1668 -0.870171 0
M  V30 12991 C 1182.91 1.69161 0.178483 0
M  V30 12992 O 1184.1 1.94172 0.0332489 0
M  V30 12993 C 1181.23 3.45464 -0.356666 0
M  V30 12994 C 1180.18 4.06424 -1.34179 0
M  V30 12995 C 1179.51 5.30266 -0.687206 0
M  V30 12996 C 1180.81 4.46666 -2.70715 0
M  V30 12997 H 1182.5 2.40526 -1.7829 0
M  V30 12998 H 1180.05 1.15598 -0.858665 0
M  V30 12999 H 1182 4.21144 -0.146947 0
M  V30 13000 H 1180.72 3.21199 0.591527 0
M  V30 13001 H 1179.38 3.32786 -1.53783 0
M  V30 13002 H 1179.03 5.0229 0.267077 0
M  V30 13003 H 1178.73 5.72009 -1.34462 0
M  V30 13004 H 1180.26 6.08653 -0.487218 0
M  V30 13005 H 1181.67 5.13483 -2.54966 0
M  V30 13006 H 1180.07 4.99355 -3.32813 0
M  V30 13007 H 1181.14 3.58123 -3.26919 0
M  V30 13008 N 1182.48 0.948665 1.2585 0
M  V30 13009 C 1183.43 0.462904 2.2611 0
M  V30 13010 C 1184.4 -0.481433 1.5897 0
M  V30 13011 O 1185.58 -0.395997 1.86645 0
M  V30 13012 C 1182.72 -0.258808 3.44128 0
M  V30 13013 C 1181.84 0.722072 4.25923 0
M  V30 13014 C 1180.97 -0.0215958 5.31196 0
M  V30 13015 C 1180.01 0.950612 6.04673 0
M  V30 13016 N 1179.15 0.238209 7.01696 0
M  V30 13017 H 1183.99 1.32279 2.67032 0
M  V30 13018 H 1181.52 0.663485 1.31287 0
M  V30 13019 H 1183.48 -0.693759 4.11391 0
M  V30 13020 H 1182.11 -1.08278 3.04098 0
M  V30 13021 H 1181.16 1.27552 3.58378 0
M  V30 13022 H 1182.48 1.46421 4.76825 0
M  V30 13023 H 1181.63 -0.51547 6.04506 0
M  V30 13024 H 1180.37 -0.796563 4.81151 0
M  V30 13025 H 1179.37 1.45554 5.30183 0
M  V30 13026 H 1180.6 1.72571 6.56808 0
M  V30 13027 H 1178.54 -0.518129 6.53951 0
M  V30 13028 H 1178.46 0.919542 7.50387 0
M  V30 13029 H 1179.73 -0.234325 7.79148 0
M  V30 13030 N 1183.96 -1.40369 0.716545 0
M  V30 13031 C 1185.21 -2.00473 0.255959 0
M  V30 13032 C 1185.53 -1.57104 -1.15514 0
M  V30 13033 O 1184.8 -0.810925 -1.78328 0
M  V30 13034 H 1183.38 -0.741357 0.0916427 0
M  V30 13035 H 1186.04 -1.71692 0.922389 0
M  V30 13036 H 1185.14 -3.10752 0.289806 0
M  V30 13037 N 1185.44 -0.462799 -1.50652 0
M  V30 13038 C 1186.37 0.325724 -2.31217 0
M  V30 13039 C 1187.35 0.997942 -1.3775 0
M  V30 13040 O 1188.53 0.996707 -1.66671 0
M  V30 13041 C 1185.66 1.41283 -3.17264 0
M  V30 13042 C 1184.62 0.862687 -4.19216 0
M  V30 13043 C 1183.94 2.04746 -4.93946 0
M  V30 13044 C 1185.24 -0.120365 -5.22161 0
M  V30 13045 H 1186.94 -0.346666 -2.97386 0
M  V30 13046 H 1184.48 -0.168163 -1.43015 0
M  V30 13047 H 1186.44 1.97188 -3.72418 0
M  V30 13048 H 1185.16 2.11387 -2.48964 0
M  V30 13049 H 1183.82 0.325671 -3.65151 0
M  V30 13050 H 1183.47 2.73529 -4.22127 0
M  V30 13051 H 1183.17 1.68562 -5.62904 0
M  V30 13052 H 1184.69 2.61157 -5.51932 0
M  V30 13053 H 1186.1 0.349226 -5.72235 0
M  V30 13054 H 1184.5 -0.396061 -5.98792 0
M  V30 13055 H 1185.57 -1.04895 -4.73418 0
M  V30 13056 N 1186.91 1.56388 -0.195085 0
M  V30 13057 C 1187.82 2.22698 0.737743 0
M  V30 13058 C 1188.84 1.22605 1.23466 0
M  V30 13059 O 1190.02 1.55342 1.28183 0
M  V30 13060 C 1187.08 2.87333 1.94011 0
M  V30 13061 C 1186.14 4.02696 1.48776 0
M  V30 13062 C 1185.38 4.64239 2.63282 0
M  V30 13063 O 1185.6 4.24706 3.80763 0
M  V30 13064 O 1184.53 5.53705 2.35996 0
M  V30 13065 H 1188.36 3.03021 0.203013 0
M  V30 13066 H 1185.94 1.49361 0.0342044 0
M  V30 13067 H 1187.83 3.28226 2.64284 0
M  V30 13068 H 1186.5 2.0999 2.46345 0
M  V30 13069 H 1185.41 3.66426 0.753839 0
M  V30 13070 H 1186.74 4.81703 1.01109 0
M  V30 13071 N 1188.39 -0.0785156 1.57404 0
M  V30 13072 C 1189.34 -1.09402 2.03224 0
M  V30 13073 C 1190.31 -1.38849 0.911596 0
M  V30 13074 O 1191.49 -1.50031 1.17878 0
M  V30 13075 C 1188.63 -2.40444 2.47549 0
M  V30 13076 C 1187.75 -2.17585 3.73203 0
M  V30 13077 C 1186.88 -3.42143 4.06339 0
M  V30 13078 C 1185.92 -3.14619 5.25054 0
M  V30 13079 N 1185.06 -4.31489 5.5386 0
M  V30 13080 H 1189.9 -0.696307 2.89751 0
M  V30 13081 H 1187.44 -0.332261 1.43298 0
M  V30 13082 H 1189.39 -3.16944 2.71298 0
M  V30 13083 H 1188.02 -2.78031 1.64009 0
M  V30 13084 H 1187.08 -1.3181 3.56834 0
M  V30 13085 H 1188.39 -1.93249 4.59844 0
M  V30 13086 H 1187.54 -4.27042 4.30953 0
M  V30 13087 H 1186.28 -3.69549 3.18253 0
M  V30 13088 H 1185.29 -2.28116 5.00243 0
M  V30 13089 H 1186.51 -2.88543 6.14752 0
M  V30 13090 H 1184.46 -4.58939 4.68734 0
M  V30 13091 H 1184.37 -4.10403 6.34906 0
M  V30 13092 H 1185.64 -5.17404 5.83021 0
M  V30 13093 N 1189.87 -1.5367 -0.349747 0
M  V30 13094 C 1190.8 -1.77528 -1.4497 0
M  V30 13095 C 1191.82 -0.656412 -1.4898 0
M  V30 13096 O 1193 -0.933016 -1.52174 0
M  V30 13097 C 1190.1 -1.85445 -2.8366 0
M  V30 13098 C 1189.28 -3.15295 -3.03163 0
M  V30 13099 C 1188.34 -3.1425 -4.22059 0
M  V30 13100 O 1187.36 -3.87994 -4.16472 0
M  V30 13101 N 1188.56 -2.36181 -5.30282 0
M  V30 13102 H 1191.33 -2.72444 -1.24877 0
M  V30 13103 H 1188.89 -1.52644 -0.539586 0
M  V30 13104 H 1190.88 -1.82204 -3.61364 0
M  V30 13105 H 1189.45 -0.977436 -2.96926 0
M  V30 13106 H 1188.67 -3.31711 -2.12983 0
M  V30 13107 H 1189.96 -4.01078 -3.13072 0
M  V30 13108 H 1189.36 -1.75808 -5.37688 0
M  V30 13109 H 1187.92 -2.38744 -6.06502 0
M  V30 13110 N 1191.35 0.610423 -1.45298 0
M  V30 13111 C 1192.28 1.73493 -1.48241 0
M  V30 13112 C 1193.26 1.59025 -0.339065 0
M  V30 13113 O 1194.44 1.80625 -0.539144 0
M  V30 13114 C 1191.57 3.11291 -1.33476 0
M  V30 13115 C 1190.62 3.44355 -2.51638 0
M  V30 13116 S 1191.45 3.39512 -4.14116 0
M  V30 13117 C 1192.61 4.79895 -4.01811 0
M  V30 13118 H 1192.84 1.70734 -2.43387 0
M  V30 13119 H 1190.37 0.786833 -1.32847 0
M  V30 13120 H 1192.33 3.90799 -1.25644 0
M  V30 13121 H 1190.99 3.11568 -0.39805 0
M  V30 13122 H 1190.18 4.44679 -2.37226 0
M  V30 13123 H 1189.79 2.72356 -2.56317 0
M  V30 13124 H 1192.08 5.6963 -3.6678 0
M  V30 13125 H 1193.02 4.99363 -5.02038 0
M  V30 13126 H 1193.43 4.55443 -3.33515 0
M  V30 13127 N 1192.83 1.32541 0.852676 0
M  V30 13128 C 1193.77 1.21643 1.96142 0
M  V30 13129 C 1194.74 0.0981496 1.6581 0
M  V30 13130 O 1195.93 0.27404 1.88822 0
M  V30 13131 C 1193.07 0.947483 3.31838 0
M  V30 13132 C 1192.18 2.15074 3.74656 0
M  V30 13133 C 1191.32 1.81711 4.99154 0
M  V30 13134 C 1190.36 2.98346 5.34468 0
M  V30 13135 N 1189.49 2.65062 6.50143 0
M  V30 13136 H 1194.33 2.16479 2.04795 0
M  V30 13137 H 1191.87 1.07664 1.00234 0
M  V30 13138 H 1193.83 0.772038 4.09994 0
M  V30 13139 H 1192.46 0.0359112 3.2278 0
M  V30 13140 H 1191.51 2.43639 2.92137 0
M  V30 13141 H 1192.82 3.02314 3.96747 0
M  V30 13142 H 1191.98 1.60729 5.85022 0
M  V30 13143 H 1190.71 0.916875 4.79004 0
M  V30 13144 H 1189.72 3.19956 4.47111 0
M  V30 13145 H 1190.94 3.89104 5.56574 0
M  V30 13146 H 1188.89 1.77582 6.31507 0
M  V30 13147 H 1188.81 3.45832 6.72262 0
M  V30 13148 H 1190.08 2.47516 7.39159 0
M  V30 13149 N 1194.3 -1.0692 1.15784 0
M  V30 13150 C 1195.24 -2.14168 0.816375 0
M  V30 13151 C 1196.25 -1.61872 -0.17357 0
M  V30 13152 O 1197.44 -1.78429 0.0502973 0
M  V30 13153 C 1194.54 -3.38346 0.193682 0
M  V30 13154 C 1193.71 -4.19979 1.22215 0
M  V30 13155 C 1192.77 -5.2253 0.620424 0
M  V30 13156 O 1191.8 -5.54446 1.28757 0
M  V30 13157 N 1193 -5.77434 -0.595811 0
M  V30 13158 H 1195.76 -2.44062 1.73937 0
M  V30 13159 H 1193.32 -1.22865 1.05431 0
M  V30 13160 H 1195.32 -4.04092 -0.22174 0
M  V30 13161 H 1193.89 -3.06129 -0.632735 0
M  V30 13162 H 1193.11 -3.49984 1.81397 0
M  V30 13163 H 1194.39 -4.71329 1.91641 0
M  V30 13164 H 1193.79 -5.5376 -1.15611 0
M  V30 13165 H 1192.35 -6.44788 -0.953529 0
M  V30 13166 N 1195.78 -0.955326 -1.25345 0
M  V30 13167 C 1196.69 -0.482707 -2.2958 0
M  V30 13168 C 1197.71 0.450283 -1.68073 0
M  V30 13169 O 1198.88 0.326358 -1.98738 0
M  V30 13170 C 1195.95 0.231293 -3.45928 0
M  V30 13171 C 1195.01 -0.739995 -4.22874 0
M  V30 13172 C 1194.24 -0.0599748 -5.33666 0
M  V30 13173 O 1194.47 1.15423 -5.586 0
M  V30 13174 O 1193.4 -0.745865 -5.97261 0
M  V30 13175 H 1197.23 -1.34892 -2.72099 0
M  V30 13176 H 1194.81 -0.721812 -1.30806 0
M  V30 13177 H 1196.69 0.632908 -4.1662 0
M  V30 13178 H 1195.37 1.07267 -3.0541 0
M  V30 13179 H 1194.28 -1.19183 -3.54607 0
M  V30 13180 H 1195.61 -1.54941 -4.67177 0
M  V30 13181 N 1197.26 1.39987 -0.723979 0
M  V30 13182 C 1198.51 1.99964 -0.26406 0
M  V30 13183 C 1198.82 1.58084 1.1519 0
M  V30 13184 O 1200.03 2.10819 1.71077 0
M  V30 13185 C 1198.49 3.57427 -0.421174 0
M  V30 13186 C 1198.09 4.08276 -1.84432 0
M  V30 13187 C 1199.84 4.24494 -0.0224734 0
M  V30 13188 C 1197.74 5.58272 -1.95157 0
M  V30 13189 H 1196.67 0.747995 -0.0949728 0
M  V30 13190 H 1199.33 1.60122 -0.896276 0
M  V30 13191 H 1197.71 3.95011 0.279762 0
M  V30 13192 H 1198.88 3.82051 -2.57631 0
M  V30 13193 H 1197.2 3.53834 -2.19523 0
M  V30 13194 H 1199.79 5.34637 -0.0817744 0
M  V30 13195 H 1200.14 4.03593 1.02069 0
M  V30 13196 H 1200.67 3.92046 -0.67416 0
M  V30 13197 H 1197.41 5.84038 -2.97623 0
M  V30 13198 H 1196.93 5.86335 -1.2638 0
M  V30 13199 H 1198.61 6.23509 -1.72759 0
M  V30 13200 N 1198.74 0.470782 1.50404 0
M  V30 13201 C 1199.69 -0.337584 2.30137 0
M  V30 13202 C 1200.68 -0.990673 1.37412 0
M  V30 13203 O 1201.89 -0.921813 1.54605 0
M  V30 13204 H 1198.26 -0.127707 0.741077 0
M  V30 13205 H 1200.23 0.355297 2.96277 0
M  V30 13206 C 1198.98 -1.40714 3.17954 0
M  V30 13207 H 1198.31 -0.913982 3.89213 0
M  V30 13208 H 1199.75 -1.94533 3.7674 0
M  V30 13209 C 1198.2 -2.40889 2.35529 0
M  V30 13210 O 1198.73 -3.46153 2.03816 0
M  V30 13211 N 1196.94 -2.126 1.98115 0
M  V30 13212 H 1196.49 -1.27023 2.24105 0
M  V30 13213 H 1196.45 -2.7986 1.43269 0
M  V30 13214 N 1200.22 -1.56282 0.203376 0
M  V30 13215 C 1201.45 -2.02198 -0.438572 0
M  V30 13216 C 1201.86 -1.08343 -1.54619 0
M  V30 13217 O 1201.22 -0.0897594 -1.82279 0
M  V30 13218 C 1201.27 -3.4776 -0.987184 0
M  V30 13219 O 1200.99 -4.38034 0.0762552 0
M  V30 13220 C 1202.49 -4.09234 -1.70419 0
M  V30 13221 H 1199.71 -0.662041 -0.109282 0
M  V30 13222 H 1202.25 -2.02067 0.314509 0
M  V30 13223 H 1200.41 -3.48564 -1.69061 0
M  V30 13224 H 1200.82 -5.2344 -0.333322 0
M  V30 13225 H 1202.3 -5.1291 -2.04027 0
M  V30 13226 H 1202.77 -3.53172 -2.61087 0
M  V30 13227 H 1203.38 -4.12226 -1.04641 0
M  V30 13228 N 1201.7 0.070167 -1.57444 0
M  V30 13229 C 1202.63 1.08351 -2.06839 0
M  V30 13230 C 1203.61 1.40269 -0.962224 0
M  V30 13231 O 1204.79 1.49867 -1.23505 0
M  V30 13232 C 1201.92 2.39649 -2.51368 0
M  V30 13233 C 1200.88 2.22079 -3.65875 0
M  V30 13234 C 1200.2 3.58776 -3.96464 0
M  V30 13235 C 1201.5 1.64069 -4.95862 0
M  V30 13236 H 1203.2 0.672465 -2.9175 0
M  V30 13237 H 1200.74 0.322027 -1.40353 0
M  V30 13238 H 1202.69 3.10833 -2.84537 0
M  V30 13239 H 1201.42 2.82736 -1.63487 0
M  V30 13240 H 1200.08 1.53337 -3.32992 0
M  V30 13241 H 1199.73 3.99436 -3.05712 0
M  V30 13242 H 1199.43 3.47859 -4.7357 0
M  V30 13243 H 1200.95 4.31387 -4.32131 0
M  V30 13244 H 1202.36 2.2512 -5.27251 0
M  V30 13245 H 1200.76 1.63843 -5.773 0
M  V30 13246 H 1201.83 0.60232 -4.81145 0
M  V30 13247 N 1203.17 1.53854 0.341593 0
M  V30 13248 C 1204.1 1.84966 1.42513 0
M  V30 13249 C 1205.08 0.704944 1.54805 0
M  V30 13250 O 1206.27 0.957036 1.68981 0
M  V30 13251 C 1203.4 2.06099 2.79536 0
M  V30 13252 C 1202.35 3.21919 2.82049 0
M  V30 13253 C 1201.68 3.28389 4.21977 0
M  V30 13254 C 1202.98 4.59984 2.4741 0
M  V30 13255 H 1204.67 2.7571 1.16724 0
M  V30 13256 H 1202.22 1.32662 0.560073 0
M  V30 13257 H 1204.17 2.26448 3.55386 0
M  V30 13258 H 1202.9 1.12087 3.06764 0
M  V30 13259 H 1201.56 3.01429 2.08653 0
M  V30 13260 H 1201.2 2.3197 4.46317 0
M  V30 13261 H 1200.9 4.0622 4.24569 0
M  V30 13262 H 1202.43 3.50951 4.99666 0
M  V30 13263 H 1203.84 4.80334 3.12973 0
M  V30 13264 H 1202.24 5.40233 2.61282 0
M  V30 13265 H 1203.31 4.6346 1.42594 0
M  V30 13266 N 1204.65 -0.602709 1.4562 0
M  V30 13267 C 1205.56 -1.74132 1.5721 0
M  V30 13268 C 1206.58 -1.67909 0.456347 0
M  V30 13269 O 1207.75 -1.88178 0.717714 0
M  V30 13270 C 1204.82 -3.10604 1.54032 0
M  V30 13271 C 1203.88 -3.28244 2.76685 0
M  V30 13272 C 1203.11 -4.58205 2.73649 0
M  V30 13273 O 1203.34 -5.40836 1.81254 0
M  V30 13274 O 1202.27 -4.78663 3.64919 0
M  V30 13275 H 1206.1 -1.67304 2.53462 0
M  V30 13276 H 1203.68 -0.767381 1.28186 0
M  V30 13277 H 1205.56 -3.91904 1.54885 0
M  V30 13278 H 1204.24 -3.17913 0.60934 0
M  V30 13279 H 1203.14 -2.46514 2.81393 0
M  V30 13280 H 1204.48 -3.25814 3.68925 0
M  V30 13281 N 1206.13 -1.32992 -0.845635 0
M  V30 13282 C 1207.09 -1.22607 -1.9365 0
M  V30 13283 C 1208.09 -0.146812 -1.60128 0
M  V30 13284 O 1209.28 -0.397863 -1.69596 0
M  V30 13285 C 1206.41 -0.887677 -3.2914 0
M  V30 13286 H 1207.61 -2.19563 -2.04285 0
M  V30 13287 H 1205.16 -1.16952 -1.03691 0
M  V30 13288 H 1205.9 0.0796777 -3.24202 0
M  V30 13289 H 1205.68 -1.66808 -3.54849 0
M  V30 13290 H 1207.17 -0.83958 -4.09073 0
M  V30 13291 N 1207.61 1.06304 -1.1635 0
M  V30 13292 C 1208.55 2.13776 -0.869965 0
M  V30 13293 C 1209.52 1.65105 0.181541 0
M  V30 13294 O 1210.71 1.90743 0.0467705 0
M  V30 13295 C 1207.85 3.43034 -0.377077 0
M  V30 13296 C 1206.96 4.0544 -1.4914 0
M  V30 13297 C 1206.1 5.22572 -0.953538 0
M  V30 13298 C 1205.14 5.76961 -2.04407 0
M  V30 13299 N 1204.27 6.85409 -1.52181 0
M  V30 13300 H 1209.11 2.38224 -1.79034 0
M  V30 13301 H 1206.65 1.16882 -0.893136 0
M  V30 13302 H 1208.61 4.17136 -0.0729426 0
M  V30 13303 H 1207.24 3.18804 0.506359 0
M  V30 13304 H 1206.29 3.28886 -1.9115 0
M  V30 13305 H 1207.6 4.41859 -2.31434 0
M  V30 13306 H 1206.76 6.037 -0.602579 0
M  V30 13307 H 1205.5 4.87598 -0.099897 0
M  V30 13308 H 1204.5 4.9447 -2.40373 0
M  V30 13309 H 1205.73 6.13987 -2.90167 0
M  V30 13310 H 1203.67 6.52354 -0.690697 0
M  V30 13311 H 1203.59 7.2077 -2.28092 0
M  V30 13312 H 1204.86 7.70217 -1.19942 0
M  V30 13313 N 1209.09 0.96196 1.24836 0
M  V30 13314 C 1210.5 0.667561 1.44968 0
M  V30 13315 C 1210.7 -0.772521 1.86103 0
M  V30 13316 O 1209.76 -1.54704 1.99557 0
M  V30 13317 C 1211.07 1.64675 2.516 0
M  V30 13318 C 1212.62 1.65874 2.65433 0
M  V30 13319 C 1213.09 2.62576 3.75257 0
M  V30 13320 N 1214.58 2.60984 3.82677 0
M  V30 13321 C 1215.32 3.32484 4.67163 0
M  V30 13322 N 1214.82 4.13482 5.55882 0
M  V30 13323 N 1216.61 3.21336 4.61193 0
M  V30 13324 H 1208.76 1.89248 0.964307 0
M  V30 13325 H 1211.02 0.814443 0.485167 0
M  V30 13326 H 1210.73 2.67572 2.2825 0
M  V30 13327 H 1210.6 1.415 3.49653 0
M  V30 13328 H 1212.99 0.636912 2.88145 0
M  V30 13329 H 1213.07 1.9311 1.67756 0
M  V30 13330 H 1212.71 3.6489 3.53295 0
M  V30 13331 H 1212.64 2.32622 4.72435 0
M  V30 13332 H 1215.14 2.02187 3.19263 0
M  V30 13333 H 1215.45 4.6494 6.17293 0
M  V30 13334 H 1213.79 4.17578 5.55566 0
M  V30 13335 H 1216.98 2.57524 3.90895 0
M  V30 13336 H 1217.16 3.77323 5.26812 0
M  V30 13337 N 1210.56 -1.39601 0.731392 0
M  V30 13338 C 1211.49 -2.33268 0.1041 0
M  V30 13339 C 1212.47 -1.53724 -0.728219 0
M  V30 13340 O 1213.66 -1.82131 -0.673933 0
M  V30 13341 C 1210.79 -3.37802 -0.806646 0
M  V30 13342 C 1209.74 -4.27928 -0.0787588 0
M  V30 13343 C 1209.07 -5.23131 -1.10628 0
M  V30 13344 C 1210.37 -5.11086 1.07651 0
M  V30 13345 H 1212.06 -2.85975 0.886496 0
M  V30 13346 H 1209.61 -1.375 0.427746 0
M  V30 13347 H 1211.56 -4.02278 -1.25499 0
M  V30 13348 H 1210.29 -2.83527 -1.62112 0
M  V30 13349 H 1208.95 -3.64926 0.349926 0
M  V30 13350 H 1208.59 -4.65152 -1.91422 0
M  V30 13351 H 1208.29 -5.84277 -0.624043 0
M  V30 13352 H 1209.82 -5.90483 -1.5544 0
M  V30 13353 H 1211.23 -5.68927 0.706781 0
M  V30 13354 H 1209.63 -5.81356 1.48814 0
M  V30 13355 H 1210.7 -4.46131 1.89988 0
M  V30 13356 N 1212.04 -0.478751 -1.50152 0
M  V30 13357 C 1212.97 0.301182 -2.31549 0
M  V30 13358 C 1213.95 0.983276 -1.38801 0
M  V30 13359 O 1215.14 0.978973 -1.67719 0
M  V30 13360 C 1212.27 1.3791 -3.18745 0
M  V30 13361 C 1211.22 0.818175 -4.20107 0
M  V30 13362 C 1210.55 1.99496 -4.9609 0
M  V30 13363 C 1211.85 -0.17574 -5.22004 0
M  V30 13364 H 1213.54 -0.378188 -2.97002 0
M  V30 13365 H 1211.09 -0.183323 -1.42828 0
M  V30 13366 H 1213.04 1.93227 -3.74488 0
M  V30 13367 H 1211.77 2.08735 -2.51192 0
M  V30 13368 H 1210.42 0.286924 -3.65475 0
M  V30 13369 H 1210.07 2.69036 -4.25004 0
M  V30 13370 H 1209.77 1.62582 -5.6466 0
M  V30 13371 H 1211.3 2.55288 -5.54671 0
M  V30 13372 H 1212.71 0.288513 -5.72574 0
M  V30 13373 H 1211.11 -0.459549 -5.98338 0
M  V30 13374 H 1212.18 -1.09911 -4.72279 0
M  V30 13375 N 1213.52 1.56172 -0.211661 0
M  V30 13376 C 1214.43 2.23468 0.714081 0
M  V30 13377 C 1215.45 1.23908 1.22159 0
M  V30 13378 O 1216.62 1.56693 1.26528 0
M  V30 13379 C 1213.69 2.89375 1.90953 0
M  V30 13380 C 1212.75 4.04251 1.44497 0
M  V30 13381 C 1211.98 4.67006 2.58343 0
M  V30 13382 O 1212.2 4.28721 3.76237 0
M  V30 13383 O 1211.14 5.56177 2.3011 0
M  V30 13384 H 1214.96 3.03219 0.170862 0
M  V30 13385 H 1212.55 1.49389 0.0183607 0
M  V30 13386 H 1214.43 3.3101 2.60787 0
M  V30 13387 H 1213.11 2.12591 2.44104 0
M  V30 13388 H 1212.01 3.67205 0.714932 0
M  V30 13389 H 1213.35 4.82748 0.959947 0
M  V30 13390 N 1215 -0.0618163 1.57479 0
M  V30 13391 C 1216.25 -0.759069 1.87735 0
M  V30 13392 C 1216.57 -1.77071 0.804732 0
M  V30 13393 O 1215.83 -1.94694 -0.198173 0
M  V30 13394 C 1216.13 -1.4939 3.2468 0
M  V30 13395 C 1215.79 -0.621312 4.46599 0
M  V30 13396 C 1214.46 -0.380873 4.7969 0
M  V30 13397 C 1216.81 -0.0168537 5.21197 0
M  V30 13398 C 1214.14 0.473341 5.84787 0
M  V30 13399 C 1216.49 0.824872 6.27199 0
M  V30 13400 C 1215.15 1.07509 6.58785 0
M  V30 13401 H 1214.42 -0.277763 0.686971 0
M  V30 13402 H 1217.07 -0.0195971 1.9149 0
M  V30 13403 H 1215.37 -2.30584 3.16762 0
M  V30 13404 H 1217.07 -2.03837 3.45328 0
M  V30 13405 H 1213.66 -0.818848 4.20705 0
M  V30 13406 H 1217.84 -0.189707 4.95937 0
M  V30 13407 H 1213.1 0.675842 6.07653 0
M  V30 13408 H 1217.27 1.29993 6.8416 0
M  V30 13409 H 1214.9 1.73876 7.40048 0
M  V30 13410 N 1216.48 -1.54033 -0.333429 0
M  V30 13411 C 1217.39 -1.85737 -1.43314 0
M  V30 13412 C 1218.4 -0.748398 -1.57083 0
M  V30 13413 O 1219.58 -1.04171 -1.72367 0
M  V30 13414 C 1216.64 -2.06942 -2.78165 0
M  V30 13415 C 1215.7 -3.30774 -2.73655 0
M  V30 13416 C 1214.94 -3.50957 -4.02075 0
M  V30 13417 O 1215.16 -2.74774 -4.99855 0
M  V30 13418 O 1214.09 -4.44412 -4.05933 0
M  V30 13419 H 1217.92 -2.7923 -1.19434 0
M  V30 13420 H 1215.51 -1.39814 -0.526546 0
M  V30 13421 H 1217.39 -2.22276 -3.58011 0
M  V30 13422 H 1216.06 -1.16638 -3.01956 0
M  V30 13423 H 1214.97 -3.20835 -1.92395 0
M  V30 13424 H 1216.3 -4.21103 -2.54819 0
M  V30 13425 N 1217.95 0.594978 -1.45938 0
M  V30 13426 C 1218.88 1.71536 -1.58422 0
M  V30 13427 C 1219.87 1.64441 -0.435116 0
M  V30 13428 O 1221.05 1.82647 -0.659839 0
M  V30 13429 C 1218.18 3.10163 -1.56257 0
M  V30 13430 C 1217.13 3.3208 -2.70013 0
M  V30 13431 C 1216.46 4.71108 -2.52905 0
M  V30 13432 C 1217.76 3.21105 -4.11933 0
M  V30 13433 H 1219.45 1.61344 -2.52207 0
M  V30 13434 H 1217 0.774791 -1.2138 0
M  V30 13435 H 1218.95 3.88352 -1.63587 0
M  V30 13436 H 1217.68 3.21225 -0.590093 0
M  V30 13437 H 1216.34 2.56286 -2.62132 0
M  V30 13438 H 1215.98 4.7892 -1.53768 0
M  V30 13439 H 1215.68 4.86727 -3.29197 0
M  V30 13440 H 1217.21 5.51482 -2.62107 0
M  V30 13441 H 1218.62 3.89153 -4.2099 0
M  V30 13442 H 1217.02 3.4825 -4.88715 0
M  V30 13443 H 1218.09 2.18359 -4.32952 0
M  V30 13444 N 1219.43 1.33438 0.838571 0
M  V30 13445 C 1220.4 1.23632 1.92997 0
M  V30 13446 C 1221.4 0.155302 1.60048 0
M  V30 13447 O 1222.59 0.406852 1.69382 0
M  V30 13448 C 1219.72 0.90512 3.28665 0
M  V30 13449 H 1220.91 2.20643 2.03117 0
M  V30 13450 H 1218.46 1.17501 1.03069 0
M  V30 13451 H 1219.2 -0.0624833 3.2424 0
M  V30 13452 H 1218.98 1.68688 3.53959 0
M  V30 13453 H 1220.47 0.861262 4.08622 0
M  V30 13454 N 1220.91 -1.05686 1.16912 0
M  V30 13455 C 1221.84 -2.1329 0.839044 0
M  V30 13456 C 1222.86 -1.62047 -0.156392 0
M  V30 13457 O 1224.04 -1.78366 0.0692192 0
M  V30 13458 C 1221.14 -3.38122 0.229558 0
M  V30 13459 C 1220.32 -4.18659 1.26662 0
M  V30 13460 C 1219.38 -5.21842 0.675811 0
M  V30 13461 O 1218.4 -5.53049 1.3463 0
M  V30 13462 N 1219.6 -5.78034 -0.534532 0
M  V30 13463 H 1222.37 -2.42203 1.76515 0
M  V30 13464 H 1219.93 -1.2174 1.06729 0
M  V30 13465 H 1221.92 -4.04305 -0.178868 0
M  V30 13466 H 1220.49 -3.06783 -0.60023 0
M  V30 13467 H 1219.71 -3.4804 1.85099 0
M  V30 13468 H 1221 -4.6927 1.9663 0
M  V30 13469 H 1220.4 -5.54955 -1.09731 0
M  V30 13470 H 1218.96 -6.45763 -0.885087 0
M  V30 13471 N 1222.39 -0.968567 -1.24324 0
M  V30 13472 C 1223.32 -0.518323 -2.27674 0
M  V30 13473 C 1224.3 0.442479 -1.64244 0
M  V30 13474 O 1225.48 0.338416 -1.91229 0
M  V30 13475 C 1222.61 0.191459 -3.46772 0
M  V30 13476 C 1221.57 -0.685449 -4.22476 0
M  V30 13477 C 1220.89 0.155873 -5.34473 0
M  V30 13478 C 1222.19 -1.97047 -4.83704 0
M  V30 13479 H 1223.89 -1.38215 -2.65588 0
M  V30 13480 H 1221.43 -0.66604 -1.27671 0
M  V30 13481 H 1223.39 0.517667 -4.18208 0
M  V30 13482 H 1222.11 1.08965 -3.07887 0
M  V30 13483 H 1220.77 -0.994942 -3.52841 0
M  V30 13484 H 1220.42 1.05424 -4.91828 0
M  V30 13485 H 1220.12 -0.427655 -5.86042 0
M  V30 13486 H 1221.64 0.476733 -6.08736 0
M  V30 13487 H 1223.06 -1.70979 -5.4721 0
M  V30 13488 H 1221.45 -2.50079 -5.45509 0
M  V30 13489 H 1222.52 -2.66484 -4.0511 0
M  V30 13490 N 1223.87 1.39211 -0.738786 0
M  V30 13491 C 1225.09 2.04732 -0.298751 0
M  V30 13492 C 1225.51 1.55706 1.06776 0
M  V30 13493 O 1224.87 0.723605 1.67542 0
M  V30 13494 C 1224.92 3.60288 -0.29574 0
M  V30 13495 O 1224.64 4.07511 -1.60831 0
M  V30 13496 C 1226.14 4.43011 0.159994 0
M  V30 13497 H 1223.36 0.658296 -0.129952 0
M  V30 13498 H 1225.9 1.78186 -1.0035 0
M  V30 13499 H 1224.06 3.85722 0.360146 0
M  V30 13500 H 1224.47 5.01858 -1.52443 0
M  V30 13501 H 1225.95 5.51889 0.110941 0
M  V30 13502 H 1226.42 4.22325 1.20573 0
M  V30 13503 H 1227.03 4.22734 -0.466467 0
M  V30 13504 N 1225.34 0.486708 1.49896 0
M  V30 13505 C 1226.29 -0.299294 2.28851 0
M  V30 13506 C 1227.26 -0.973251 1.346 0
M  V30 13507 O 1228.45 -0.982678 1.63548 0
M  V30 13508 C 1225.59 -1.36624 3.16904 0
M  V30 13509 C 1224.7 -0.705492 4.262 0
M  V30 13510 C 1223.83 -1.75165 5.01488 0
M  V30 13511 C 1222.87 -1.072 6.0264 0
M  V30 13512 N 1222.01 -2.06172 6.71147 0
M  V30 13513 H 1226.85 0.380272 2.95564 0
M  V30 13514 H 1224.39 0.199377 1.45743 0
M  V30 13515 H 1226.35 -1.99666 3.66319 0
M  V30 13516 H 1224.98 -2.01476 2.52205 0
M  V30 13517 H 1224.03 0.0378757 3.80381 0
M  V30 13518 H 1225.34 -0.169774 4.98511 0
M  V30 13519 H 1224.49 -2.45749 5.547 0
M  V30 13520 H 1223.23 -2.3212 4.28919 0
M  V30 13521 H 1222.24 -0.351868 5.48673 0
M  V30 13522 H 1223.46 -0.509139 6.77189 0
M  V30 13523 H 1221.41 -2.62115 6.01358 0
M  V30 13524 H 1221.33 -1.57627 7.39385 0
M  V30 13525 H 1222.59 -2.76088 7.28969 0
M  V30 13526 N 1226.82 -1.56058 0.219941 0
M  V30 13527 C 1227.76 -2.17494 -0.723133 0
M  V30 13528 C 1228.77 -1.14356 -1.15873 0
M  V30 13529 O 1229.96 -1.41343 -1.09016 0
M  V30 13530 C 1227.06 -2.74242 -1.99109 0
M  V30 13531 C 1226.23 -4.02533 -1.71132 0
M  V30 13532 C 1225.29 -4.43862 -2.82618 0
M  V30 13533 O 1224.32 -5.10792 -2.51157 0
M  V30 13534 N 1225.52 -4.09412 -4.11537 0
M  V30 13535 H 1228.28 -2.99048 -0.197619 0
M  V30 13536 H 1225.84 -1.61853 0.0388738 0
M  V30 13537 H 1227.84 -2.98862 -2.7288 0
M  V30 13538 H 1226.41 -1.97 -2.42713 0
M  V30 13539 H 1225.63 -3.85786 -0.810128 0
M  V30 13540 H 1226.91 -4.86227 -1.49868 0
M  V30 13541 H 1226.31 -3.55624 -4.39941 0
M  V30 13542 H 1224.87 -4.38928 -4.81857 0
M  V30 13543 N 1228.3 0.053464 -1.57509 0
M  V30 13544 C 1229.53 0.760429 -1.92096 0
M  V30 13545 C 1229.94 1.70703 -0.815905 0
M  V30 13546 O 1229.28 1.82398 0.218332 0
M  V30 13547 C 1229.34 1.59255 -3.22301 0
M  V30 13548 C 1229.01 0.813355 -4.49704 0
M  V30 13549 C 1230.01 0.124402 -5.19751 0
M  V30 13550 C 1227.69 0.775106 -4.96284 0
M  V30 13551 C 1229.68 -0.59237 -6.34641 0
M  V30 13552 C 1227.37 0.0545728 -6.11076 0
M  V30 13553 C 1228.37 -0.627948 -6.80107 0
M  V30 13554 O 1228.06 -1.33683 -7.92707 0
M  V30 13555 H 1227.79 0.220287 -0.639101 0
M  V30 13556 H 1230.34 0.0224505 -2.05388 0
M  V30 13557 H 1228.57 2.37376 -3.05269 0
M  V30 13558 H 1230.26 2.17987 -3.42398 0
M  V30 13559 H 1231.03 0.145141 -4.84783 0
M  V30 13560 H 1226.91 1.29583 -4.42413 0
M  V30 13561 H 1230.45 -1.12565 -6.88458 0
M  V30 13562 H 1226.35 0.0318254 -6.45492 0
M  V30 13563 H 1227.12 -1.24799 -8.0893 0
M  V30 13564 N 1229.78 1.54207 0.325255 0
M  V30 13565 C 1231.2 1.44879 0.669492 0
M  V30 13566 C 1231.4 0.620298 1.91715 0
M  V30 13567 O 1230.45 0.118435 2.52222 0
M  V30 13568 C 1231.76 2.88581 0.845077 0
M  V30 13569 C 1233.31 2.98472 0.942527 0
M  V30 13570 C 1233.79 4.4332 1.15029 0
M  V30 13571 N 1235.28 4.46925 1.21707 0
M  V30 13572 C 1236.01 5.56155 1.39568 0
M  V30 13573 N 1235.51 6.75357 1.54483 0
M  V30 13574 N 1237.3 5.43799 1.42263 0
M  V30 13575 H 1229.45 2.06556 -0.494819 0
M  V30 13576 H 1231.72 0.934474 -0.159568 0
M  V30 13577 H 1231.42 3.517 -0.000442996 0
M  V30 13578 H 1231.3 3.34596 1.74141 0
M  V30 13579 H 1233.68 2.35481 1.77855 0
M  V30 13580 H 1233.76 2.5579 0.0226995 0
M  V30 13581 H 1233.41 5.06896 0.319127 0
M  V30 13582 H 1233.34 4.8361 2.08397 0
M  V30 13583 H 1235.83 3.61036 1.11632 0
M  V30 13584 H 1236.14 7.54363 1.67799 0
M  V30 13585 H 1234.49 6.78268 1.51584 0
M  V30 13586 H 1237.68 4.49627 1.30205 0
M  V30 13587 H 1237.85 6.28982 1.5584 0
M  V30 13588 N 1231.26 -0.58723 1.46251 0
M  V30 13589 C 1232.51 -1.34294 1.51028 0
M  V30 13590 C 1232.83 -1.94329 0.161623 0
M  V30 13591 O 1232.1 -1.78309 -0.811342 0
M  V30 13592 H 1230.68 -0.498607 0.556238 0
M  V30 13593 H 1233.34 -0.688074 1.8235 0
M  V30 13594 H 1232.43 -2.15197 2.26045 0
M  V30 13595 N 1232.74 -1.33881 -0.831482 0
M  V30 13596 C 1233.68 -1.24741 -1.96322 0
M  V30 13597 C 1234.68 -0.147251 -1.68759 0
M  V30 13598 O 1235.88 -0.311684 -1.77281 0
M  V30 13599 H 1232.26 -0.387298 -0.644596 0
M  V30 13600 H 1234.23 -2.20407 -2.01155 0
M  V30 13601 C 1232.98 -1.01102 -3.32677 0
M  V30 13602 H 1232.3 -1.84986 -3.54429 0
M  V30 13603 H 1233.74 -0.987398 -4.12343 0
M  V30 13604 C 1232.2 0.285903 -3.35685 0
M  V30 13605 O 1232.73 1.29014 -3.80419 0
M  V30 13606 N 1230.94 0.316026 -2.88877 0
M  V30 13607 H 1230.48 -0.501758 -2.52666 0
M  V30 13608 H 1230.44 1.18357 -2.91271 0
M  V30 13609 N 1234.21 1.05064 -1.1747 0
M  V30 13610 C 1235.12 2.16346 -0.907286 0
M  V30 13611 C 1236.14 1.7355 0.125013 0
M  V30 13612 O 1237.32 2.01326 -0.0545551 0
M  V30 13613 C 1234.38 3.44077 -0.425681 0
M  V30 13614 C 1233.44 4.01311 -1.52473 0
M  V30 13615 C 1232.67 5.22946 -1.06601 0
M  V30 13616 O 1232.9 5.70345 0.0793329 0
M  V30 13617 O 1231.83 5.72454 -1.85958 0
M  V30 13618 H 1235.66 2.41754 -1.83817 0
M  V30 13619 H 1233.24 1.14834 -0.955693 0
M  V30 13620 H 1235.12 4.21078 -0.164689 0
M  V30 13621 H 1233.8 3.20166 0.477037 0
M  V30 13622 H 1232.71 3.25744 -1.83961 0
M  V30 13623 H 1234.04 4.29543 -2.4032 0
M  V30 13624 N 1235.69 0.975146 1.23809 0
M  V30 13625 C 1236.94 0.639858 1.91704 0
M  V30 13626 C 1237.26 -0.828557 1.76522 0
M  V30 13627 O 1236.53 -1.59217 1.14135 0
M  V30 13628 H 1235.11 0.233667 0.709513 0
M  V30 13629 H 1237.77 1.23782 1.50545 0
M  V30 13630 H 1236.87 0.886915 2.99233 0
M  V30 13631 N 1237.17 -1.38817 0.746158 0
M  V30 13632 C 1238.1 -2.29081 0.0737986 0
M  V30 13633 C 1239.11 -1.47377 -0.691656 0
M  V30 13634 O 1240.3 -1.70326 -0.533973 0
M  V30 13635 C 1237.4 -3.26185 -0.919607 0
M  V30 13636 C 1236.58 -4.36879 -0.213349 0
M  V30 13637 C 1235.64 -5.1422 -1.11644 0
M  V30 13638 O 1234.66 -5.66137 -0.589747 0
M  V30 13639 N 1235.86 -5.26488 -2.44521 0
M  V30 13640 H 1238.63 -2.87424 0.848966 0
M  V30 13641 H 1236.19 -1.50518 0.596314 0
M  V30 13642 H 1238.18 -3.74802 -1.52662 0
M  V30 13643 H 1236.75 -2.68793 -1.5959 0
M  V30 13644 H 1235.97 -3.89994 0.574285 0
M  V30 13645 H 1237.26 -5.08053 0.275655 0
M  V30 13646 H 1236.66 -4.85846 -2.89777 0
M  V30 13647 H 1235.21 -5.78505 -3.00291 0
M  V30 13648 N 1238.65 -0.49465 -1.49636 0
M  V30 13649 C 1239.58 0.33366 -2.25748 0
M  V30 13650 C 1240.56 0.97591 -1.30057 0
M  V30 13651 O 1241.74 1.00725 -1.59332 0
M  V30 13652 C 1238.87 1.46938 -3.05167 0
M  V30 13653 C 1237.92 0.942149 -4.15964 0
M  V30 13654 S 1238.75 -0.162019 -5.35255 0
M  V30 13655 C 1239.9 0.977022 -6.18227 0
M  V30 13656 H 1240.14 -0.312361 -2.95655 0
M  V30 13657 H 1237.67 -0.279854 -1.51843 0
M  V30 13658 H 1239.63 2.12017 -3.5151 0
M  V30 13659 H 1238.29 2.087 -2.34741 0
M  V30 13660 H 1237.48 1.79309 -4.71025 0
M  V30 13661 H 1237.08 0.368687 -3.72178 0
M  V30 13662 H 1239.38 1.88363 -6.50788 0
M  V30 13663 H 1240.32 0.465168 -7.0657 0
M  V30 13664 H 1240.73 1.24149 -5.50679 0
M  V30 13665 N 1240.13 1.55939 -0.228214 0
M  V30 13666 C 1241.54 1.59094 0.12704 0
M  V30 13667 C 1241.74 1.24514 1.58425 0
M  V30 13668 O 1240.8 0.983544 2.32557 0
M  V30 13669 C 1242.11 2.99999 -0.205268 0
M  V30 13670 C 1243.66 3.1265 -0.148046 0
M  V30 13671 C 1244.13 4.55743 -0.454122 0
M  V30 13672 N 1245.62 4.61435 -0.403937 0
M  V30 13673 C 1246.36 5.70101 -0.614173 0
M  V30 13674 N 1245.86 6.87104 -0.88654 0
M  V30 13675 N 1247.65 5.5944 -0.546153 0
M  V30 13676 H 1239.8 1.7669 -1.17874 0
M  V30 13677 H 1242.06 0.821599 -0.472947 0
M  V30 13678 H 1241.77 3.29976 -1.21692 0
M  V30 13679 H 1241.64 3.74177 0.476573 0
M  V30 13680 H 1244.03 2.82465 0.854255 0
M  V30 13681 H 1244.11 2.40786 -0.863462 0
M  V30 13682 H 1243.75 4.86646 -1.45389 0
M  V30 13683 H 1243.68 5.25841 0.282561 0
M  V30 13684 H 1246.18 3.77363 -0.201388 0
M  V30 13685 H 1246.49 7.65839 -1.03488 0
M  V30 13686 H 1244.83 6.88833 -0.923808 0
M  V30 13687 H 1248.02 4.6691 -0.33355 0
M  V30 13688 H 1248.2 6.44061 -0.713402 0
M  V30 13689 N 1241.6 -0.0451101 1.57535 0
M  V30 13690 C 1242.51 -1.06796 2.08882 0
M  V30 13691 C 1243.53 -1.40682 1.02394 0
M  V30 13692 O 1244.71 -1.50324 1.34033 0
M  V30 13693 C 1241.77 -2.35467 2.54472 0
M  V30 13694 C 1240.83 -2.0831 3.75374 0
M  V30 13695 C 1240.07 -3.30846 4.1878 0
M  V30 13696 O 1240.29 -4.40945 3.61834 0
M  V30 13697 O 1239.22 -3.17488 5.11356 0
M  V30 13698 H 1243.05 -0.661658 2.96405 0
M  V30 13699 H 1240.63 -0.26104 1.47102 0
M  V30 13700 H 1242.52 -3.11143 2.84198 0
M  V30 13701 H 1241.19 -2.75425 1.70068 0
M  V30 13702 H 1240.1 -1.30254 3.50692 0
M  V30 13703 H 1241.43 -1.73218 4.60713 0
M  V30 13704 N 1243.08 -1.54377 -0.317073 0
M  V30 13705 C 1244.01 -1.8721 -1.39552 0
M  V30 13706 C 1244.99 -0.729483 -1.53664 0
M  V30 13707 O 1246.18 -0.983799 -1.67437 0
M  V30 13708 C 1243.31 -2.1052 -2.76222 0
M  V30 13709 C 1242.26 -3.26366 -2.76892 0
M  V30 13710 C 1241.59 -3.35061 -4.16699 0
M  V30 13711 C 1242.89 -4.63862 -2.40061 0
M  V30 13712 H 1244.58 -2.77532 -1.12323 0
M  V30 13713 H 1242.13 -1.33536 -0.538897 0
M  V30 13714 H 1244.08 -2.32073 -3.51739 0
M  V30 13715 H 1242.81 -1.16953 -3.04942 0
M  V30 13716 H 1241.46 -3.0471 -2.03831 0
M  V30 13717 H 1241.11 -2.39041 -4.4257 0
M  V30 13718 H 1240.81 -4.12923 -4.18053 0
M  V30 13719 H 1242.34 -3.58856 -4.94019 0
M  V30 13720 H 1243.75 -4.85252 -3.05292 0
M  V30 13721 H 1242.15 -5.44321 -2.52655 0
M  V30 13722 H 1243.22 -4.6567 -1.35202 0
M  V30 13723 N 1244.56 0.579466 -1.4656 0
M  V30 13724 C 1245.49 1.70291 -1.53406 0
M  V30 13725 C 1246.51 1.57232 -0.422116 0
M  V30 13726 O 1247.69 1.64598 -0.69064 0
M  V30 13727 C 1244.79 3.08572 -1.40131 0
M  V30 13728 C 1243.97 3.47602 -2.65502 0
M  V30 13729 C 1243.03 4.64955 -2.4638 0
M  V30 13730 O 1242.05 4.70653 -3.20116 0
M  V30 13731 N 1243.25 5.60041 -1.52756 0
M  V30 13732 H 1246.02 1.64873 -2.50274 0
M  V30 13733 H 1243.58 0.765533 -1.42658 0
M  V30 13734 H 1245.57 3.84877 -1.25106 0
M  V30 13735 H 1244.14 3.0834 -0.514322 0
M  V30 13736 H 1243.36 2.60969 -2.95446 0
M  V30 13737 H 1244.65 3.70446 -3.48779 0
M  V30 13738 H 1244.05 5.58176 -0.919587 0
M  V30 13739 H 1242.61 6.35764 -1.43693 0
M  V30 13740 N 1246.04 1.3432 0.824371 0
M  V30 13741 C 1247.32 1.17178 1.56616 0
M  V30 13742 C 1247.7 -0.256195 2.0954 0
M  V30 13743 O 1247.04 -1.25732 1.90798 0
M  V30 13744 C 1247.25 2.22511 2.68867 0
M  V30 13745 C 1248.6 2.57414 3.37673 0
M  V30 13746 O 1249.63 2.2129 2.79122 0
M  V30 13747 O 1248.48 3.19462 4.43403 0
M  V30 13748 H 1245.58 0.454141 0.691147 0
M  V30 13749 H 1248.12 1.45948 0.865869 0
M  V30 13750 H 1246.9 3.18366 2.27505 0
M  V30 13751 H 1246.52 1.9491 3.46548 0
M  V30 13752 N 1247.52 -1.0444 1.18026 0
M  V30 13753 C 1248.45 -2.12388 0.86162 0
M  V30 13754 C 1249.46 -1.62204 -0.139196 0
M  V30 13755 O 1250.65 -1.78282 0.0881334 0
M  V30 13756 C 1247.75 -3.37859 0.265407 0
M  V30 13757 C 1246.92 -4.17292 1.31096 0
M  V30 13758 C 1245.98 -5.21096 0.731121 0
M  V30 13759 O 1245.01 -5.5159 1.40488 0
M  V30 13760 N 1246.21 -5.78568 -0.473194 0
M  V30 13761 H 1248.98 -2.40317 1.79074 0
M  V30 13762 H 1246.54 -1.20601 1.08014 0
M  V30 13763 H 1248.53 -4.04472 -0.135976 0
M  V30 13764 H 1247.1 -3.07403 -0.567658 0
M  V30 13765 H 1246.32 -3.46057 1.8878 0
M  V30 13766 H 1247.61 -4.67158 2.01596 0
M  V30 13767 H 1247 -5.56088 -1.03839 0
M  V30 13768 H 1245.56 -6.46665 -0.816545 0
M  V30 13769 N 1248.99 -0.981699 -1.2329 0
M  V30 13770 C 1249.92 -0.542441 -2.27112 0
M  V30 13771 C 1250.91 0.425034 -1.64704 0
M  V30 13772 O 1252.09 0.318114 -1.91577 0
M  V30 13773 C 1249.22 0.154668 -3.46955 0
M  V30 13774 C 1248.17 -0.73022 -4.21725 0
M  V30 13775 C 1247.5 0.0991766 -5.34608 0
M  V30 13776 C 1248.8 -2.02166 -4.81587 0
M  V30 13777 H 1250.49 -1.41024 -2.64107 0
M  V30 13778 H 1248.04 -0.679544 -1.26957 0
M  V30 13779 H 1249.99 0.473281 -4.18734 0
M  V30 13780 H 1248.72 1.05693 -3.09025 0
M  V30 13781 H 1247.38 -1.03231 -3.51765 0
M  V30 13782 H 1247.02 1.00201 -4.92919 0
M  V30 13783 H 1246.72 -0.489788 -5.85555 0
M  V30 13784 H 1248.25 0.412141 -6.09207 0
M  V30 13785 H 1249.66 -1.76773 -5.45366 0
M  V30 13786 H 1248.06 -2.55851 -5.42826 0
M  V30 13787 H 1249.13 -2.70766 -4.02261 0
M  V30 13788 N 1250.47 1.3842 -0.753509 0
M  V30 13789 C 1251.38 2.34252 -0.127811 0
M  V30 13790 C 1252.4 1.59266 0.700743 0
M  V30 13791 O 1253.57 1.9146 0.624914 0
M  V30 13792 C 1250.64 3.38382 0.754886 0
M  V30 13793 C 1249.7 4.2921 -0.0880312 0
M  V30 13794 C 1248.93 5.28367 0.75263 0
M  V30 13795 O 1249.16 5.34537 1.99064 0
M  V30 13796 O 1248.09 6.01656 0.171475 0
M  V30 13797 H 1251.92 2.89454 -0.91925 0
M  V30 13798 H 1249.5 1.40265 -0.514404 0
M  V30 13799 H 1251.38 4.02141 1.25938 0
M  V30 13800 H 1250.06 2.85536 1.52482 0
M  V30 13801 H 1248.97 3.68611 -0.638468 0
M  V30 13802 H 1250.3 4.85311 -0.82062 0
M  V30 13803 N 1251.95 0.502579 1.49372 0
M  V30 13804 C 1252.91 -0.263993 2.27675 0
M  V30 13805 C 1253.91 -0.892538 1.33755 0
M  V30 13806 O 1255.1 -0.756826 1.56901 0
M  V30 13807 C 1252.24 -1.37895 3.11765 0
M  V30 13808 H 1253.43 0.423132 2.969 0
M  V30 13809 H 1250.98 0.257595 1.54163 0
M  V30 13810 H 1251.72 -2.10018 2.47109 0
M  V30 13811 H 1251.5 -0.933694 3.80821 0
M  V30 13812 H 1252.99 -1.91889 3.70902 0
M  V30 13813 N 1253.43 -1.55816 0.23648 0
M  V30 13814 C 1254.34 -2.24576 -0.678439 0
M  V30 13815 C 1255.35 -1.25836 -1.20172 0
M  V30 13816 O 1256.53 -1.58686 -1.24019 0
M  V30 13817 C 1253.6 -2.92376 -1.86325 0
M  V30 13818 C 1252.66 -4.06499 -1.38047 0
M  V30 13819 C 1251.89 -4.71057 -2.50881 0
M  V30 13820 O 1252.11 -4.34652 -3.69369 0
M  V30 13821 O 1251.05 -5.59768 -2.21232 0
M  V30 13822 H 1254.87 -3.03452 -0.122601 0
M  V30 13823 H 1252.46 -1.49399 0.00540803 0
M  V30 13824 H 1254.34 -3.35117 -2.55488 0
M  V30 13825 H 1253.01 -2.16448 -2.40691 0
M  V30 13826 H 1251.92 -3.68296 -0.656422 0
M  V30 13827 H 1253.25 -4.84214 -0.883024 0
M  V30 13828 N 1254.91 0.036755 -1.57557 0
M  V30 13829 C 1255.84 1.06718 -2.0284 0
M  V30 13830 C 1256.85 1.32926 -0.939917 0
M  V30 13831 O 1258.04 1.30549 -1.21734 0
M  V30 13832 C 1255.14 2.41054 -2.38214 0
M  V30 13833 C 1254.31 2.3431 -3.69347 0
M  V30 13834 C 1253.37 3.51034 -3.91997 0
M  V30 13835 O 1252.4 3.30875 -4.63152 0
M  V30 13836 N 1253.6 4.72634 -3.37042 0
M  V30 13837 H 1256.37 0.681275 -2.91854 0
M  V30 13838 H 1253.93 0.224836 -1.60331 0
M  V30 13839 H 1255.92 3.17847 -2.5051 0
M  V30 13840 H 1254.49 2.71517 -1.5491 0
M  V30 13841 H 1253.71 1.42668 -3.67477 0
M  V30 13842 H 1255 2.2694 -4.55385 0
M  V30 13843 H 1254.39 4.91914 -2.79352 0
M  V30 13844 H 1252.95 5.46818 -3.5473 0
M  V30 13845 N 1256.39 1.54543 0.308881 0
M  V30 13846 C 1257.62 1.77174 1.06268 0
M  V30 13847 C 1258.02 0.527461 1.81699 0
M  V30 13848 O 1257.37 -0.512027 1.7642 0
M  V30 13849 C 1257.43 2.92115 2.09545 0
M  V30 13850 C 1257.09 4.30492 1.5338 0
M  V30 13851 C 1258.09 5.1081 0.967923 0
M  V30 13852 C 1255.77 4.77074 1.5718 0
M  V30 13853 C 1257.77 6.35827 0.447517 0
M  V30 13854 C 1255.46 6.02055 1.04753 0
M  V30 13855 C 1256.45 6.81266 0.486345 0
M  V30 13856 O 1256.14 8.03894 -0.0300055 0
M  V30 13857 H 1255.87 0.594773 0.321281 0
M  V30 13858 H 1258.43 2.02289 0.356136 0
M  V30 13859 H 1256.66 2.62606 2.83857 0
M  V30 13860 H 1258.35 3.02394 2.70763 0
M  V30 13861 H 1259.11 4.7597 0.931523 0
M  V30 13862 H 1254.99 4.15453 1.998 0
M  V30 13863 H 1258.54 6.97599 0.00884212 0
M  V30 13864 H 1254.43 6.36383 1.08105 0
M  V30 13865 H 1255.2 8.18457 0.0840381 0
M  V30 13866 N 1257.86 -0.571685 1.46866 0
M  V30 13867 C 1259.11 -1.32948 1.52745 0
M  V30 13868 C 1259.44 -1.93631 0.183694 0
M  V30 13869 O 1258.69 -1.77605 -0.821886 0
M  V30 13870 C 1258.99 -2.47051 2.58264 0
M  V30 13871 C 1258.66 -2.04291 4.01965 0
M  V30 13872 C 1257.32 -1.92345 4.41086 0
M  V30 13873 C 1259.67 -1.71458 4.9219 0
M  V30 13874 C 1257 -1.4584 5.68285 0
M  V30 13875 C 1259.35 -1.26429 6.19837 0
M  V30 13876 C 1258.02 -1.13068 6.57854 0
M  V30 13877 H 1257.29 -0.48649 0.558935 0
M  V30 13878 H 1259.93 -0.642618 1.80396 0
M  V30 13879 H 1258.24 -3.21231 2.24316 0
M  V30 13880 H 1259.94 -3.05254 2.6004 0
M  V30 13881 H 1256.53 -2.14527 3.71047 0
M  V30 13882 H 1260.71 -1.79567 4.62676 0
M  V30 13883 H 1255.97 -1.34148 5.96502 0
M  V30 13884 H 1260.14 -1.00081 6.89171 0
M  V30 13885 H 1257.77 -0.768094 7.5631 0
M  V30 13886 N 1259.34 -1.34755 -0.817236 0
M  V30 13887 C 1260.57 -1.30676 -1.61054 0
M  V30 13888 C 1260.99 0.115343 -1.87746 0
M  V30 13889 O 1260.35 1.07887 -1.45705 0
M  V30 13890 C 1260.4 -2.10881 -2.92509 0
M  V30 13891 O 1259.5 -1.48223 -3.84842 0
M  V30 13892 H 1258.84 -0.448531 -0.489608 0
M  V30 13893 H 1261.37 -1.77642 -1.01512 0
M  V30 13894 H 1261.38 -2.22446 -3.42026 0
M  V30 13895 H 1260.06 -3.14274 -2.72406 0
M  V30 13896 H 1258.63 -1.45434 -3.4337 0
M  V30 13897 N 1260.82 1.03812 -1.18578 0
M  V30 13898 C 1262.05 1.80702 -1.00769 0
M  V30 13899 C 1262.46 1.83509 0.443833 0
M  V30 13900 O 1261.82 1.2724 1.30829 0
M  V30 13901 C 1261.87 3.26185 -1.55838 0
M  V30 13902 O 1261.59 3.23612 -2.95308 0
M  V30 13903 C 1263.09 4.1971 -1.42682 0
M  V30 13904 H 1260.31 0.568972 -0.355685 0
M  V30 13905 H 1262.86 1.30817 -1.57185 0
M  V30 13906 H 1261.01 3.73293 -1.03592 0
M  V30 13907 H 1261.43 4.14769 -3.2104 0
M  V30 13908 H 1262.9 5.19716 -1.86008 0
M  V30 13909 H 1263.38 4.37588 -0.375924 0
M  V30 13910 H 1263.98 3.78469 -1.94013 0
M  V30 13911 N 1262.3 0.988223 1.22768 0
M  V30 13912 C 1263.23 0.554478 2.26821 0
M  V30 13913 C 1264.21 -0.416293 1.64927 0
M  V30 13914 O 1265.39 -0.30795 1.91743 0
M  V30 13915 C 1262.52 -0.136266 3.47033 0
M  V30 13916 C 1261.48 0.752575 4.21332 0
M  V30 13917 C 1260.8 -0.0708236 5.34653 0
M  V30 13918 C 1262.1 2.04717 4.80508 0
M  V30 13919 H 1263.8 1.42423 2.63355 0
M  V30 13920 H 1261.34 0.686267 1.26595 0
M  V30 13921 H 1263.3 -0.451068 4.18979 0
M  V30 13922 H 1262.02 -1.04053 3.09581 0
M  V30 13923 H 1260.68 1.05095 3.51213 0
M  V30 13924 H 1260.33 -0.975859 4.93443 0
M  V30 13925 H 1260.03 0.520835 5.85287 0
M  V30 13926 H 1261.55 -0.379828 6.09417 0
M  V30 13927 H 1262.97 1.79663 5.44421 0
M  V30 13928 H 1261.36 2.58726 5.41462 0
M  V30 13929 H 1262.43 2.72896 4.00819 0
M  V30 13930 N 1263.78 -1.38018 0.760839 0
M  V30 13931 C 1265.01 -2.03934 0.330804 0
M  V30 13932 C 1265.41 -1.57509 -1.04821 0
M  V30 13933 O 1264.76 -0.746718 -1.67839 0
M  V30 13934 C 1264.82 -3.58384 0.28303 0
M  V30 13935 C 1264.48 -4.27896 1.6048 0
M  V30 13936 C 1265.48 -4.52769 2.5553 0
M  V30 13937 C 1263.16 -4.65943 1.87624 0
M  V30 13938 C 1265.16 -5.14732 3.75938 0
M  V30 13939 C 1262.85 -5.27629 3.08304 0
M  V30 13940 C 1263.84 -5.51959 4.02281 0
M  V30 13941 O 1263.53 -6.12358 5.20838 0
M  V30 13942 H 1263.26 -0.661733 0.138148 0
M  V30 13943 H 1265.82 -1.77551 1.03271 0
M  V30 13944 H 1264.05 -3.83769 -0.47517 0
M  V30 13945 H 1265.74 -4.05727 -0.118464 0
M  V30 13946 H 1266.5 -4.23798 2.35839 0
M  V30 13947 H 1262.38 -4.46346 1.15308 0
M  V30 13948 H 1265.93 -5.33639 4.49305 0
M  V30 13949 H 1261.82 -5.56023 3.27886 0
M  V30 13950 H 1262.59 -6.30842 5.21517 0
M  V30 13951 N 1265.25 -0.510493 -1.49103 0
M  V30 13952 C 1266.2 0.262848 -2.29298 0
M  V30 13953 C 1267.17 0.951714 -1.36131 0
M  V30 13954 O 1268.36 0.956534 -1.65091 0
M  V30 13955 C 1265.5 1.31565 -3.19037 0
M  V30 13956 C 1264.61 0.637598 -4.27269 0
M  V30 13957 C 1263.74 1.67165 -5.04212 0
M  V30 13958 C 1262.78 0.975992 -6.04269 0
M  V30 13959 N 1261.92 1.95468 -6.74342 0
M  V30 13960 H 1266.76 -0.427246 -2.94921 0
M  V30 13961 H 1264.3 -0.222538 -1.45407 0
M  V30 13962 H 1266.25 1.93813 -3.69449 0
M  V30 13963 H 1264.88 1.97438 -2.55379 0
M  V30 13964 H 1263.94 -0.0983863 -3.80273 0
M  V30 13965 H 1265.25 0.0904435 -4.98718 0
M  V30 13966 H 1264.4 2.36893 -5.5854 0
M  V30 13967 H 1263.14 2.25267 -4.32557 0
M  V30 13968 H 1262.15 0.264534 -5.49163 0
M  V30 13969 H 1263.37 0.40134 -6.77913 0
M  V30 13970 H 1261.32 2.52515 -6.05452 0
M  V30 13971 H 1261.23 1.45845 -7.41799 0
M  V30 13972 H 1262.5 2.64455 -7.33269 0
M  V30 13973 N 1266.73 1.55688 -0.24474 0
M  V30 13974 C 1267.96 2.0329 0.384808 0
M  V30 13975 C 1268.37 1.12405 1.51692 0
M  V30 13976 O 1267.73 0.138056 1.81977 0
M  V30 13977 C 1267.78 3.50255 0.894635 0
M  V30 13978 O 1267.5 4.37677 -0.192365 0
M  V30 13979 C 1269 4.13608 1.59509 0
M  V30 13980 H 1266.22 0.664706 0.0916908 0
M  V30 13981 H 1268.77 2.01162 -0.367973 0
M  V30 13982 H 1266.92 3.52924 1.5976 0
M  V30 13983 H 1267.34 5.2414 0.194424 0
M  V30 13984 H 1268.81 5.1814 1.90356 0
M  V30 13985 H 1269.29 3.5997 2.51631 0
M  V30 13986 H 1269.89 4.14856 0.936749 0
M  V30 13987 N 1268.21 -0.0283989 1.57574 0
M  V30 13988 C 1269.14 -1.05641 2.03403 0
M  V30 13989 C 1270.15 -1.32426 0.946953 0
M  V30 13990 O 1271.34 -1.29902 1.22425 0
M  V30 13991 C 1268.44 -2.39788 2.39489 0
M  V30 13992 C 1267.62 -2.32348 3.70585 0
M  V30 13993 C 1266.68 -3.4895 3.93853 0
M  V30 13994 O 1265.7 -3.28414 4.64901 0
M  V30 13995 N 1266.9 -4.7084 3.39543 0
M  V30 13996 H 1269.67 -0.665788 2.92211 0
M  V30 13997 H 1267.23 -0.21633 1.60448 0
M  V30 13998 H 1269.22 -3.16514 2.52193 0
M  V30 13999 H 1267.79 -2.70692 1.56348 0
M  V30 14000 H 1267.01 -1.40717 3.68229 0
M  V30 14001 H 1268.3 -2.24521 4.56582 0
M  V30 14002 H 1267.7 -4.90425 2.81956 0
M  V30 14003 H 1266.25 -5.44929 3.57625 0
M  V30 14004 N 1269.69 -1.54705 -0.300681 0
M  V30 14005 C 1270.93 -1.74259 -1.03738 0
M  V30 14006 C 1271.27 -0.52703 -1.86912 0
M  V30 14007 O 1270.54 0.475862 -1.88589 0
M  V30 14008 C 1270.82 -3.03175 -1.94311 0
M  V30 14009 C 1270.68 -4.35031 -1.14315 0
M  V30 14010 C 1272 -3.27962 -2.93478 0
M  V30 14011 H 1269.12 -0.634031 -0.37573 0
M  V30 14012 H 1271.76 -1.87421 -0.312012 0
M  V30 14013 H 1269.91 -2.92086 -2.5616 0
M  V30 14014 H 1271.58 -4.5804 -0.547489 0
M  V30 14015 H 1269.82 -4.31503 -0.44587 0
M  V30 14016 H 1270.49 -5.21502 -1.80941 0
M  V30 14017 H 1272.97 -3.38663 -2.41757 0
M  V30 14018 H 1271.85 -4.19481 -3.54016 0
M  V30 14019 H 1272.11 -2.46273 -3.67154 0
M  V30 14020 N 1271.17 0.563888 -1.47167 0
M  V30 14021 C 1272.11 1.67151 -1.59152 0
M  V30 14022 C 1273.08 1.60307 -0.434852 0
M  V30 14023 O 1274.27 1.7924 -0.654049 0
M  V30 14024 C 1271.41 3.0548 -1.60549 0
M  V30 14025 C 1270.52 3.2281 -2.87085 0
M  V30 14026 C 1269.66 4.51498 -2.79862 0
M  V30 14027 C 1268.7 4.62237 -4.01252 0
M  V30 14028 N 1267.83 5.82273 -3.92305 0
M  V30 14029 H 1272.67 1.56245 -2.53755 0
M  V30 14030 H 1270.21 0.761219 -1.25872 0
M  V30 14031 H 1272.17 3.85572 -1.59343 0
M  V30 14032 H 1270.8 3.15237 -0.69464 0
M  V30 14033 H 1269.85 2.36196 -2.98188 0
M  V30 14034 H 1271.16 3.2661 -3.76997 0
M  V30 14035 H 1270.32 5.39842 -2.76867 0
M  V30 14036 H 1269.05 4.50166 -1.87621 0
M  V30 14037 H 1268.06 3.72307 -4.04558 0
M  V30 14038 H 1269.28 4.65334 -4.94612 0
M  V30 14039 H 1267.23 5.81902 -3.02862 0
M  V30 14040 H 1267.15 5.87422 -4.7589 0
M  V30 14041 H 1268.42 6.72996 -3.93315 0
M  V30 14042 N 1272.64 1.35187 0.810078 0
M  V30 14043 C 1273.55 1.29926 1.95337 0
M  V30 14044 C 1274.57 0.204748 1.72791 0
M  V30 14045 O 1275.75 0.433507 1.96679 0
M  V30 14046 C 1272.81 1.06736 3.29861 0
M  V30 14047 C 1271.87 2.25466 3.65326 0
M  V30 14048 C 1271.11 2.03373 4.93432 0
M  V30 14049 O 1271.33 0.998419 5.61594 0
M  V30 14050 O 1270.26 2.90648 5.27075 0
M  V30 14051 H 1274.09 2.26137 2.02721 0
M  V30 14052 H 1271.67 1.15523 0.947354 0
M  V30 14053 H 1273.56 0.956367 4.10404 0
M  V30 14054 H 1272.23 0.135735 3.23415 0
M  V30 14055 H 1271.14 2.42129 2.85175 0
M  V30 14056 H 1272.47 3.17063 3.76473 0
M  V30 14057 N 1274.12 -1.03182 1.19127 0
M  V30 14058 C 1275.05 -2.13301 0.94999 0
M  V30 14059 C 1276.03 -1.69707 -0.115577 0
M  V30 14060 O 1277.22 -1.94161 0.0388395 0
M  V30 14061 C 1274.35 -3.43902 0.484637 0
M  V30 14062 C 1273.3 -4.01164 1.4917 0
M  V30 14063 C 1272.63 -5.2735 0.883537 0
M  V30 14064 C 1273.93 -4.36311 2.87107 0
M  V30 14065 H 1275.62 -2.33743 1.87095 0
M  V30 14066 H 1273.17 -1.12332 0.900977 0
M  V30 14067 H 1275.12 -4.20308 0.30315 0
M  V30 14068 H 1273.85 -3.23173 -0.471909 0
M  V30 14069 H 1272.5 -3.26849 1.66028 0
M  V30 14070 H 1272.15 -5.02936 -0.0804712 0
M  V30 14071 H 1271.85 -5.66624 1.55599 0
M  V30 14072 H 1273.38 -6.06425 0.71278 0
M  V30 14073 H 1274.79 -5.03666 2.73848 0
M  V30 14074 H 1273.19 -4.86659 3.51117 0
M  V30 14075 H 1274.26 -3.45743 3.39985 0
M  V30 14076 N 1275.6 -0.99472 -1.22242 0
M  V30 14077 C 1276.55 -0.546504 -2.24236 0
M  V30 14078 C 1277.52 0.422101 -1.60647 0
M  V30 14079 O 1278.7 0.326452 -1.87987 0
M  V30 14080 C 1275.84 0.130909 -3.44852 0
M  V30 14081 C 1274.96 -0.879653 -4.22949 0
M  V30 14082 C 1274.09 -0.175569 -5.3091 0
M  V30 14083 C 1273.13 -1.17438 -6.00729 0
M  V30 14084 N 1272.27 -0.498474 -7.00328 0
M  V30 14085 H 1277.11 -1.42099 -2.61939 0
M  V30 14086 H 1274.64 -0.711755 -1.28734 0
M  V30 14087 H 1276.6 0.540596 -4.13683 0
M  V30 14088 H 1275.23 0.96917 -3.07907 0
M  V30 14089 H 1274.28 -1.40765 -3.53397 0
M  V30 14090 H 1275.6 -1.64017 -4.71062 0
M  V30 14091 H 1274.75 0.290756 -6.06003 0
M  V30 14092 H 1273.49 0.617438 -4.83776 0
M  V30 14093 H 1272.49 -1.65131 -5.24416 0
M  V30 14094 H 1273.72 -1.96829 -6.4995 0
M  V30 14095 H 1271.66 0.275063 -6.55423 0
M  V30 14096 H 1271.58 -1.19741 -7.46457 0
M  V30 14097 H 1272.85 -0.0550119 -7.79481 0
M  V30 14098 N 1277.08 1.37613 -0.768148 0
M  V30 14099 C 1277.99 2.34103 -0.152649 0
M  V30 14100 C 1279 1.6 0.683811 0
M  V30 14101 O 1280.18 1.92112 0.604572 0
M  V30 14102 C 1277.25 3.39164 0.718954 0
M  V30 14103 C 1276.31 4.29092 -0.13355 0
M  V30 14104 C 1275.54 5.29135 0.696547 0
M  V30 14105 O 1275.76 5.36618 1.93383 0
M  V30 14106 O 1274.7 6.01804 0.107652 0
M  V30 14107 H 1278.52 2.88462 -0.949899 0
M  V30 14108 H 1276.11 1.39711 -0.529252 0
M  V30 14109 H 1277.99 4.03454 1.21665 0
M  V30 14110 H 1276.66 2.87137 1.49445 0
M  V30 14111 H 1275.57 3.67914 -0.677528 0
M  V30 14112 H 1276.9 4.84413 -0.872048 0
M  V30 14113 N 1278.56 0.518393 1.4883 0
M  V30 14114 C 1279.47 -0.254811 2.33212 0
M  V30 14115 C 1280.48 -0.950401 1.45751 0
M  V30 14116 O 1281.66 -0.927932 1.78749 0
M  V30 14117 C 1278.72 -1.29509 3.21603 0
M  V30 14118 C 1277.78 -0.611086 4.24928 0
M  V30 14119 C 1277.02 -1.6018 5.09095 0
M  V30 14120 O 1277.24 -2.83336 4.95052 0
M  V30 14121 O 1276.17 -1.14756 5.90859 0
M  V30 14122 H 1280 0.436329 3.00549 0
M  V30 14123 H 1277.59 0.27947 1.46763 0
M  V30 14124 H 1279.47 -1.89654 3.7631 0
M  V30 14125 H 1278.14 -1.96884 2.5694 0
M  V30 14126 H 1277.05 0.0305638 3.74088 0
M  V30 14127 H 1278.38 0.0205249 4.92196 0
M  V30 14128 N 1280.03 -1.55556 0.252993 0
M  V30 14129 C 1281.28 -1.98267 -0.370571 0
M  V30 14130 C 1281.6 -1.14449 -1.58622 0
M  V30 14131 O 1282.8 -1.472 -2.28132 0
M  V30 14132 C 1281.26 -3.52813 -0.710685 0
M  V30 14133 C 1280.87 -4.45379 0.483908 0
M  V30 14134 C 1282.61 -4.04165 -1.2981 0
M  V30 14135 C 1280.52 -5.91279 0.119611 0
M  V30 14136 H 1279.45 -0.740463 -0.142232 0
M  V30 14137 H 1282.1 -1.8005 0.354169 0
M  V30 14138 H 1280.48 -3.66748 -1.49372 0
M  V30 14139 H 1281.65 -4.43206 1.26116 0
M  V30 14140 H 1279.97 -4.04542 0.986664 0
M  V30 14141 H 1282.57 -5.10696 -1.5841 0
M  V30 14142 H 1282.91 -3.51875 -2.22462 0
M  V30 14143 H 1283.44 -3.93581 -0.577836 0
M  V30 14144 H 1280.18 -6.47619 1.01343 0
M  V30 14145 H 1279.7 -5.96573 -0.621318 0
M  V30 14146 H 1281.38 -6.46322 -0.296052 0
M  V30 14147 N 1281.51 0.0200419 -1.57587 0
M  V30 14148 C 1282.42 1.0346 -2.10555 0
M  V30 14149 C 1283.44 1.39035 -1.0462 0
M  V30 14150 O 1284.61 1.48172 -1.36407 0
M  V30 14151 C 1281.68 2.31389 -2.58186 0
M  V30 14152 C 1280.74 2.02311 -3.7864 0
M  V30 14153 C 1279.97 3.24141 -4.23991 0
M  V30 14154 O 1280.2 4.35132 -3.68803 0
M  V30 14155 O 1279.13 3.09312 -5.16342 0
M  V30 14156 H 1282.96 0.614419 -2.9742 0
M  V30 14157 H 1280.54 0.237604 -1.47498 0
M  V30 14158 H 1282.42 3.06582 -2.89112 0
M  V30 14159 H 1281.1 2.72684 -1.74428 0
M  V30 14160 H 1280.01 1.24658 -3.5272 0
M  V30 14161 H 1281.34 1.65866 -4.6341 0
M  V30 14162 N 1282.99 1.54862 0.292472 0
M  V30 14163 C 1283.9 1.89472 1.38339 0
M  V30 14164 C 1284.92 0.789783 1.55043 0
M  V30 14165 O 1286.09 1.08705 1.69544 0
M  V30 14166 C 1283.16 2.14244 2.72581 0
M  V30 14167 C 1282.22 3.37913 2.64789 0
M  V30 14168 C 1281.45 3.61494 3.92629 0
M  V30 14169 O 1281.67 2.87931 4.92394 0
M  V30 14170 O 1280.61 4.55019 3.94007 0
M  V30 14171 H 1284.43 2.82298 1.11989 0
M  V30 14172 H 1282.02 1.41161 0.489291 0
M  V30 14173 H 1283.9 2.31689 3.51991 0
M  V30 14174 H 1282.58 1.24603 2.98757 0
M  V30 14175 H 1281.48 3.25823 1.83821 0
M  V30 14176 H 1282.82 4.27711 2.43565 0
M  V30 14177 N 1284.47 -0.556076 1.47464 0
M  V30 14178 C 1285.42 -1.66304 1.60036 0
M  V30 14179 C 1286.39 -1.60074 0.443348 0
M  V30 14180 O 1287.57 -1.7889 0.663545 0
M  V30 14181 C 1284.71 -3.04624 1.62167 0
M  V30 14182 C 1283.82 -3.21283 2.88793 0
M  V30 14183 C 1282.96 -4.50008 2.82252 0
M  V30 14184 C 1282 -4.60103 4.03698 0
M  V30 14185 N 1281.13 -5.80184 3.95387 0
M  V30 14186 H 1285.97 -1.54897 2.5458 0
M  V30 14187 H 1283.51 -0.754533 1.26274 0
M  V30 14188 H 1285.47 -3.84721 1.61386 0
M  V30 14189 H 1284.1 -3.14865 0.711348 0
M  V30 14190 H 1283.15 -2.34611 2.99436 0
M  V30 14191 H 1284.46 -3.24607 3.78724 0
M  V30 14192 H 1283.62 -5.38366 2.79726 0
M  V30 14193 H 1282.36 -4.49165 1.90005 0
M  V30 14194 H 1281.36 -3.70157 4.06527 0
M  V30 14195 H 1282.59 -4.62704 4.97073 0
M  V30 14196 H 1280.53 -5.80288 3.05944 0
M  V30 14197 H 1280.45 -5.8489 4.78998 0
M  V30 14198 H 1281.72 -6.709 3.96879 0
M  V30 14199 N 1285.95 -1.35615 -0.802897 0
M  V30 14200 C 1286.9 -1.28877 -1.93632 0
M  V30 14201 C 1287.89 -0.183014 -1.68408 0
M  V30 14202 O 1289.1 -0.349218 -1.7658 0
M  V30 14203 H 1285.47 -0.400883 -0.636236 0
M  V30 14204 H 1287.44 -2.24624 -1.96435 0
M  V30 14205 C 1286.19 -1.08136 -3.30457 0
M  V30 14206 H 1285.51 -1.92463 -3.50426 0
M  V30 14207 H 1286.95 -1.07464 -4.10155 0
M  V30 14208 C 1285.41 0.214635 -3.36216 0
M  V30 14209 O 1285.94 1.20916 -3.8307 0
M  V30 14210 N 1284.15 0.25468 -2.89482 0
M  V30 14211 H 1283.7 -0.555239 -2.51545 0
M  V30 14212 H 1283.65 1.12152 -2.93716 0
M  V30 14213 N 1287.43 1.02549 -1.19673 0
M  V30 14214 C 1288.84 1.28271 -0.94967 0
M  V30 14215 C 1289.04 1.97961 0.37599 0
M  V30 14216 O 1288.1 2.26955 1.10668 0
M  V30 14217 C 1289.41 2.12647 -2.12607 0
M  V30 14218 C 1290.96 2.25943 -2.16607 0
M  V30 14219 C 1291.43 3.13693 -3.33708 0
M  V30 14220 N 1292.92 3.21281 -3.33665 0
M  V30 14221 C 1293.66 3.89377 -4.20919 0
M  V30 14222 N 1293.16 4.59675 -5.18334 0
M  V30 14223 N 1294.95 3.85811 -4.08786 0
M  V30 14224 H 1287.1 0.557304 -2.04958 0
M  V30 14225 H 1289.36 0.308531 -0.896389 0
M  V30 14226 H 1289.07 1.68766 -3.08563 0
M  V30 14227 H 1288.94 3.13367 -2.09955 0
M  V30 14228 H 1291.33 2.69053 -1.2122 0
M  V30 14229 H 1291.41 1.24762 -2.23311 0
M  V30 14230 H 1291.05 2.7129 -4.29376 0
M  V30 14231 H 1290.98 4.14941 -3.2424 0
M  V30 14232 H 1293.48 2.71218 -2.63152 0
M  V30 14233 H 1293.79 5.09277 -5.81254 0
M  V30 14234 H 1292.13 4.58529 -5.22279 0
M  V30 14235 H 1295.32 3.30033 -3.31957 0
M  V30 14236 H 1295.5 4.38607 -4.76999 0
M  V30 14237 N 1288.9 1.00119 1.21713 0
M  V30 14238 C 1289.81 0.567582 2.27631 0
M  V30 14239 C 1290.83 -0.387593 1.69628 0
M  V30 14240 O 1292.01 -0.252372 1.99813 0
M  V30 14241 C 1289.07 -0.102745 3.46548 0
M  V30 14242 C 1288.13 0.896433 4.19836 0
M  V30 14243 C 1287.36 0.258 5.33076 0
M  V30 14244 O 1287.59 -0.946118 5.62499 0
M  V30 14245 O 1286.52 0.967021 5.94081 0
M  V30 14246 H 1290.35 1.44898 2.66905 0
M  V30 14247 H 1287.93 0.769862 1.28037 0
M  V30 14248 H 1289.81 -0.477846 4.18682 0
M  V30 14249 H 1288.49 -0.958576 3.09181 0
M  V30 14250 H 1287.4 1.32262 3.49939 0
M  V30 14251 H 1288.73 1.72173 4.61104 0
M  V30 14252 N 1290.38 -1.37203 0.775435 0
M  V30 14253 C 1291.33 -2.32102 0.152051 0
M  V30 14254 C 1292.32 -1.55117 -0.680806 0
M  V30 14255 O 1293.53 -1.70486 -0.577455 0
M  V30 14256 H 1289.9 -0.751386 0.0303853 0
M  V30 14257 H 1291.88 -2.82259 0.968121 0
M  V30 14258 C 1290.62 -3.40378 -0.709788 0
M  V30 14259 H 1289.95 -3.99723 -0.0782879 0
M  V30 14260 H 1291.39 -4.09134 -1.11288 0
M  V30 14261 C 1289.85 -2.80769 -1.862 0
M  V30 14262 O 1290.38 -2.71813 -2.95771 0
M  V30 14263 N 1288.58 -2.38259 -1.66376 0
M  V30 14264 H 1288.13 -2.45743 -0.772531 0
M  V30 14265 H 1288.09 -1.98721 -2.43634 0
M  V30 14266 N 1291.86 -0.526279 -1.48553 0
M  V30 14267 C 1292.79 0.227364 -2.3239 0
M  V30 14268 C 1293.77 0.93862 -1.41859 0
M  V30 14269 O 1294.96 0.925119 -1.70749 0
M  V30 14270 C 1292.09 1.277 -3.22971 0
M  V30 14271 C 1291.04 0.684107 -4.22497 0
M  V30 14272 C 1290.37 1.83612 -5.02186 0
M  V30 14273 C 1291.67 -0.341723 -5.21181 0
M  V30 14274 H 1293.36 -0.472486 -2.95648 0
M  V30 14275 H 1290.91 -0.228669 -1.42173 0
M  V30 14276 H 1292.86 1.81215 -3.80446 0
M  V30 14277 H 1291.58 2.00638 -2.57705 0
M  V30 14278 H 1290.24 0.170505 -3.66203 0
M  V30 14279 H 1289.89 2.55379 -4.33348 0
M  V30 14280 H 1289.59 1.44536 -5.69547 0
M  V30 14281 H 1291.11 2.37513 -5.62512 0
M  V30 14282 H 1292.53 0.106207 -5.73202 0
M  V30 14283 H 1290.92 -0.649673 -5.96573 0
M  V30 14284 H 1291.99 -1.2488 -4.68543 0
M  V30 14285 N 1293.34 1.5542 -0.261239 0
M  V30 14286 C 1294.28 2.21972 0.632216 0
M  V30 14287 C 1295.25 1.18843 1.16041 0
M  V30 14288 O 1296.44 1.47339 1.21226 0
M  V30 14289 C 1293.58 2.93397 1.81693 0
M  V30 14290 C 1292.69 4.11214 1.3239 0
M  V30 14291 C 1291.83 4.70318 2.46931 0
M  V30 14292 C 1290.87 5.80355 1.94561 0
M  V30 14293 N 1290 6.33581 3.02523 0
M  V30 14294 H 1294.84 2.97944 0.058018 0
M  V30 14295 H 1292.38 1.4709 0.0168725 0
M  V30 14296 H 1294.34 3.33015 2.5131 0
M  V30 14297 H 1292.97 2.19874 2.36337 0
M  V30 14298 H 1292.02 3.76811 0.521292 0
M  V30 14299 H 1293.33 4.90609 0.900214 0
M  V30 14300 H 1292.49 5.12584 3.24565 0
M  V30 14301 H 1291.23 3.90169 2.92608 0
M  V30 14302 H 1290.23 5.37552 1.15402 0
M  V30 14303 H 1291.46 6.62364 1.49836 0
M  V30 14304 H 1289.4 5.56332 3.47608 0
M  V30 14305 H 1289.32 7.08209 2.64529 0
M  V30 14306 H 1290.59 6.80506 3.80174 0
M  V30 14307 N 1294.82 -0.0116844 1.57596 0
M  V30 14308 C 1295.76 -1.00684 2.07681 0
M  V30 14309 C 1296.73 -1.34858 0.969666 0
M  V30 14310 O 1297.92 -1.44896 1.24136 0
M  V30 14311 C 1295.06 -2.29729 2.57524 0
M  V30 14312 C 1294.17 -2.0156 3.82096 0
M  V30 14313 C 1293.31 -3.24601 4.20485 0
M  V30 14314 C 1292.34 -2.92066 5.37925 0
M  V30 14315 N 1291.48 -4.0761 5.71663 0
M  V30 14316 H 1296.32 -0.572787 2.92443 0
M  V30 14317 H 1293.86 -0.271184 1.44579 0
M  V30 14318 H 1295.82 -3.05152 2.84496 0
M  V30 14319 H 1294.45 -2.70824 1.75653 0
M  V30 14320 H 1293.5 -1.16556 3.62103 0
M  V30 14321 H 1294.81 -1.73572 4.67626 0
M  V30 14322 H 1293.96 -4.08379 4.48677 0
M  V30 14323 H 1292.7 -3.55718 3.3364 0
M  V30 14324 H 1291.71 -2.06693 5.09468 0
M  V30 14325 H 1292.93 -2.62209 6.26437 0
M  V30 14326 H 1290.88 -4.38645 4.87777 0
M  V30 14327 H 1290.8 -3.83105 6.51741 0
M  V30 14328 H 1292.06 -4.92211 6.04441 0
M  V30 14329 N 1296.29 -1.55015 -0.284256 0
M  V30 14330 C 1297.54 -1.74297 -1.01506 0
M  V30 14331 C 1297.86 -0.545134 -1.8785 0
M  V30 14332 O 1299.06 -0.620118 -2.64323 0
M  V30 14333 C 1297.52 -3.08438 -1.85456 0
M  V30 14334 C 1297.13 -4.35753 -1.04034 0
M  V30 14335 C 1298.87 -3.37073 -2.58035 0
M  V30 14336 C 1296.78 -5.60938 -1.87358 0
M  V30 14337 H 1295.71 -0.649656 -0.382705 0
M  V30 14338 H 1298.36 -1.81484 -0.271239 0
M  V30 14339 H 1296.74 -2.95259 -2.63891 0
M  V30 14340 H 1297.91 -4.59816 -0.300954 0
M  V30 14341 H 1296.23 -4.14178 -0.429616 0
M  V30 14342 H 1298.83 -4.27806 -3.20759 0
M  V30 14343 H 1299.17 -2.56698 -3.27738 0
M  V30 14344 H 1299.7 -3.51299 -1.86638 0
M  V30 14345 H 1296.44 -6.44029 -1.22096 0
M  V30 14346 H 1295.96 -5.41035 -2.58923 0
M  V30 14347 H 1297.64 -5.98819 -2.44999 0
M  V30 14348 N 1297.77 0.548248 -1.47757 0
M  V30 14349 C 1298.7 1.66999 -1.56984 0
M  V30 14350 C 1299.72 1.56302 -0.455372 0
M  V30 14351 O 1300.91 1.63096 -0.725399 0
M  V30 14352 C 1298.01 3.0553 -1.46645 0
M  V30 14353 C 1297.18 3.41892 -2.72816 0
M  V30 14354 C 1296.24 4.59624 -2.56187 0
M  V30 14355 O 1295.26 4.63757 -3.30028 0
M  V30 14356 N 1296.47 5.56675 -1.64601 0
M  V30 14357 H 1299.23 1.59527 -2.53715 0
M  V30 14358 H 1296.79 0.735101 -1.44249 0
M  V30 14359 H 1298.78 3.82137 -1.33242 0
M  V30 14360 H 1297.35 3.0718 -0.57961 0
M  V30 14361 H 1296.57 2.54644 -3.00916 0
M  V30 14362 H 1297.86 3.62965 -3.56559 0
M  V30 14363 H 1297.26 5.561 -1.03778 0
M  V30 14364 H 1295.82 6.32573 -1.57146 0
M  V30 14365 N 1299.25 1.36039 0.795694 0
M  V30 14366 C 1300.16 1.31991 1.93948 0
M  V30 14367 C 1301.18 0.223064 1.72564 0
M  V30 14368 O 1302.35 0.454344 1.96208 0
M  V30 14369 C 1299.42 1.10228 3.28711 0
M  V30 14370 C 1298.48 2.29328 3.62914 0
M  V30 14371 C 1297.71 2.08595 4.91247 0
M  V30 14372 O 1297.93 1.05793 5.60503 0
M  V30 14373 O 1296.87 2.96222 5.23962 0
M  V30 14374 H 1300.69 2.28274 2.00311 0
M  V30 14375 H 1298.28 1.16521 0.935048 0
M  V30 14376 H 1300.16 0.999842 4.09367 0
M  V30 14377 H 1298.84 0.17003 3.23253 0
M  V30 14378 H 1297.74 2.4514 2.8259 0
M  V30 14379 H 1299.08 3.21038 3.73089 0
M  V30 14380 N 1300.73 -1.01913 1.20215 0
M  V30 14381 C 1301.66 -2.12282 0.97256 0
M  V30 14382 C 1302.64 -1.6982 -0.0975709 0
M  V30 14383 O 1303.82 -1.94109 0.0594307 0
M  V30 14384 C 1300.95 -3.43369 0.521085 0
M  V30 14385 C 1299.91 -3.99559 1.53417 0
M  V30 14386 C 1299.23 -5.26383 0.93942 0
M  V30 14387 C 1300.53 -4.33241 2.91718 0
M  V30 14388 H 1302.23 -2.31746 1.89563 0
M  V30 14389 H 1299.77 -1.1137 0.912841 0
M  V30 14390 H 1301.73 -4.19963 0.347713 0
M  V30 14391 H 1300.45 -3.23655 -0.437605 0
M  V30 14392 H 1299.11 -3.25069 1.69486 0
M  V30 14393 H 1298.76 -5.02993 -0.0271236 0
M  V30 14394 H 1298.46 -5.64942 1.616 0
M  V30 14395 H 1299.98 -6.05635 0.777059 0
M  V30 14396 H 1301.4 -5.00734 2.79175 0
M  V30 14397 H 1299.79 -4.82907 3.56259 0
M  V30 14398 H 1300.86 -3.42118 3.43633 0
M  V30 14399 N 1302.21 -1.00763 -1.2118 0
M  V30 14400 C 1303.14 -0.528468 -2.23024 0
M  V30 14401 C 1304.15 0.384348 -1.58198 0
M  V30 14402 O 1305.34 0.184127 -1.77548 0
M  V30 14403 C 1302.44 0.251693 -3.37964 0
M  V30 14404 C 1301.61 -0.660838 -4.32379 0
M  V30 14405 C 1300.67 0.0701723 -5.26153 0
M  V30 14406 O 1299.7 -0.549355 -5.66543 0
M  V30 14407 N 1300.9 1.34791 -5.64634 0
M  V30 14408 H 1303.67 -1.40428 -2.64764 0
M  V30 14409 H 1301.23 -0.884085 -1.3563 0
M  V30 14410 H 1303.22 0.749746 -3.97694 0
M  V30 14411 H 1301.79 1.02872 -2.95188 0
M  V30 14412 H 1301.01 -1.33934 -3.7075 0
M  V30 14413 H 1302.3 -1.28177 -4.9239 0
M  V30 14414 H 1301.69 1.87232 -5.33817 0
M  V30 14415 H 1300.25 1.79086 -6.26715 0
M  V30 14416 N 1303.68 1.3679 -0.7827 0
M  V30 14417 C 1304.63 2.32019 -0.164358 0
M  V30 14418 C 1305.63 1.55476 0.672571 0
M  V30 14419 O 1306.83 1.7079 0.568406 0
M  V30 14420 H 1303.21 0.751214 -0.0343697 0
M  V30 14421 H 1305.18 2.81741 -0.983077 0
M  V30 14422 C 1303.93 3.4075 0.691727 0
M  V30 14423 H 1303.25 3.99759 0.0570885 0
M  V30 14424 H 1304.69 4.09719 1.09117 0
M  V30 14425 C 1303.15 2.81753 1.84708 0
M  V30 14426 O 1303.68 2.73378 2.94325 0
M  V30 14427 N 1301.89 2.39138 1.6511 0
M  V30 14428 H 1301.43 2.46149 0.759487 0
M  V30 14429 H 1301.39 2.0001 2.42576 0
M  V30 14430 N 1305.16 0.53415 1.48272 0
M  V30 14431 C 1306.07 -0.230062 2.33469 0
M  V30 14432 C 1307.09 -0.934889 1.46751 0
M  V30 14433 O 1308.26 -0.908921 1.79724 0
M  V30 14434 C 1305.33 -1.2609 3.22958 0
M  V30 14435 C 1304.39 -0.565983 4.25553 0
M  V30 14436 C 1303.62 -1.54771 5.10766 0
M  V30 14437 O 1303.85 -2.7807 4.9803 0
M  V30 14438 O 1302.78 -1.08482 5.92043 0
M  V30 14439 H 1306.61 0.468182 3.0007 0
M  V30 14440 H 1304.19 0.29502 1.46458 0
M  V30 14441 H 1306.07 -1.85652 3.783 0
M  V30 14442 H 1304.75 -1.94148 2.59014 0
M  V30 14443 H 1303.66 0.0702391 3.74034 0
M  V30 14444 H 1304.99 0.0727277 4.92146 0
M  V30 14445 N 1306.64 -1.55279 0.269478 0
M  V30 14446 C 1307.59 -2.22304 -0.620435 0
M  V30 14447 C 1308.56 -1.19457 -1.15409 0
M  V30 14448 O 1309.74 -1.4798 -1.20443 0
M  V30 14449 C 1306.88 -2.94356 -1.80134 0
M  V30 14450 C 1306 -4.1191 -1.30207 0
M  V30 14451 C 1305.13 -4.71621 -2.44433 0
M  V30 14452 C 1304.17 -5.81379 -1.91481 0
M  V30 14453 N 1303.31 -6.35176 -2.99158 0
M  V30 14454 H 1308.15 -2.9797 -0.0422165 0
M  V30 14455 H 1305.68 -1.47097 -0.00907173 0
M  V30 14456 H 1307.64 -3.34343 -2.4954 0
M  V30 14457 H 1306.27 -2.21124 -2.35168 0
M  V30 14458 H 1305.32 -3.77082 -0.501301 0
M  V30 14459 H 1306.64 -4.9108 -0.874183 0
M  V30 14460 H 1305.79 -5.14298 -3.21842 0
M  V30 14461 H 1304.53 -3.91715 -2.90535 0
M  V30 14462 H 1303.53 -5.38157 -1.12549 0
M  V30 14463 H 1304.76 -6.63149 -1.46322 0
M  V30 14464 H 1302.7 -5.58167 -3.44652 0
M  V30 14465 H 1302.62 -7.09602 -2.60769 0
M  V30 14466 H 1303.89 -6.82512 -3.7656 0
M  V30 14467 N 1308.12 0.00332656 -1.576 0
M  V30 14468 C 1309.03 1.01221 -2.1164 0
M  V30 14469 C 1310.04 1.37918 -1.06088 0
M  V30 14470 O 1311.22 1.46717 -1.37971 0
M  V30 14471 C 1308.29 2.28638 -2.60626 0
M  V30 14472 C 1307.35 1.98284 -3.80765 0
M  V30 14473 C 1306.58 3.19626 -4.27405 0
M  V30 14474 O 1306.8 4.31196 -3.73398 0
M  V30 14475 O 1305.74 3.03819 -5.19594 0
M  V30 14476 H 1309.56 0.582839 -2.98055 0
M  V30 14477 H 1307.15 0.221947 -1.47742 0
M  V30 14478 H 1309.03 3.03498 -2.92347 0
M  V30 14479 H 1307.7 2.70819 -1.7731 0
M  V30 14480 H 1306.61 1.2091 -3.54022 0
M  V30 14481 H 1307.94 1.60942 -4.65144 0
M  V30 14482 N 1309.6 1.55164 0.276031 0
M  V30 14483 C 1310.82 1.79649 1.02635 0
M  V30 14484 C 1311.24 0.568289 1.80044 0
M  V30 14485 O 1310.6 -0.462569 1.7654 0
M  V30 14486 C 1310.65 3.01974 1.98731 0
M  V30 14487 O 1310.37 4.2005 1.24459 0
M  V30 14488 C 1311.87 3.39039 2.856 0
M  V30 14489 H 1309.09 0.598529 0.303321 0
M  V30 14490 H 1311.63 2.02171 0.307733 0
M  V30 14491 H 1309.79 2.81586 2.6606 0
M  V30 14492 H 1310.2 4.89185 1.89205 0
M  V30 14493 H 1311.68 4.27809 3.48831 0
M  V30 14494 H 1312.15 2.58306 3.55211 0
M  V30 14495 H 1312.76 3.61674 2.23767 0
M  V30 14496 N 1311.07 -0.540404 1.48045 0
M  V30 14497 C 1312 -1.65538 1.6468 0
M  V30 14498 C 1312.99 -1.62713 0.495847 0
M  V30 14499 O 1314.17 -1.80072 0.727172 0
M  V30 14500 C 1311.3 -3.0415 1.67661 0
M  V30 14501 C 1310.25 -3.2183 2.82152 0
M  V30 14502 C 1309.58 -4.61397 2.70216 0
M  V30 14503 C 1310.88 -3.05596 4.23567 0
M  V30 14504 H 1312.57 -1.51873 2.58021 0
M  V30 14505 H 1310.12 -0.729208 1.24171 0
M  V30 14506 H 1312.07 -3.82013 1.77887 0
M  V30 14507 H 1310.8 -3.18814 0.708907 0
M  V30 14508 H 1309.46 -2.4638 2.71463 0
M  V30 14509 H 1309.1 -4.72883 1.71437 0
M  V30 14510 H 1308.8 -4.74174 3.47035 0
M  V30 14511 H 1310.33 -5.41374 2.82395 0
M  V30 14512 H 1311.74 -3.73261 4.35143 0
M  V30 14513 H 1310.14 -3.29871 5.01303 0
M  V30 14514 H 1311.21 -2.0214 4.40758 0
M  V30 14515 N 1312.55 -1.36459 -0.788468 0
M  V30 14516 C 1313.52 -1.3071 -1.88275 0
M  V30 14517 C 1314.52 -0.214596 -1.59362 0
M  V30 14518 O 1315.71 -0.469437 -1.67756 0
M  V30 14519 C 1312.84 -1.02648 -3.25079 0
M  V30 14520 H 1314.03 -2.28029 -1.94788 0
M  V30 14521 H 1311.58 -1.21245 -0.986375 0
M  V30 14522 H 1312.32 -0.0578992 -3.24248 0
M  V30 14523 H 1312.1 -1.81708 -3.47454 0
M  V30 14524 H 1313.59 -1.01233 -4.05144 0
M  V30 14525 N 1314.03 1.01274 -1.20754 0
M  V30 14526 C 1315.26 1.78524 -1.04579 0
M  V30 14527 C 1315.67 1.84409 0.404809 0
M  V30 14528 O 1315.03 1.29987 1.281 0
M  V30 14529 C 1315.08 3.22806 -1.62722 0
M  V30 14530 O 1314.8 3.17276 -3.02106 0
M  V30 14531 C 1316.3 4.16589 -1.51553 0
M  V30 14532 H 1313.52 0.561299 -0.367674 0
M  V30 14533 H 1316.07 1.27454 -1.59924 0
M  V30 14534 H 1314.22 3.71011 -1.11487 0
M  V30 14535 H 1314.64 4.07866 -3.29766 0
M  V30 14536 H 1316.11 5.15654 -1.9699 0
M  V30 14537 H 1316.59 4.36692 -0.468659 0
M  V30 14538 H 1317.19 3.74269 -2.01998 0
M  V30 14539 N 1315.51 1.01404 1.20644 0
M  V30 14540 C 1316.44 0.540288 2.22741 0
M  V30 14541 C 1317.45 -0.375953 1.584 0
M  V30 14542 O 1318.64 -0.174708 1.77643 0
M  V30 14543 C 1315.74 -0.233766 3.38093 0
M  V30 14544 C 1314.92 0.683759 4.32023 0
M  V30 14545 C 1313.98 -0.0422681 5.26183 0
M  V30 14546 O 1313 0.579392 5.66243 0
M  V30 14547 N 1314.2 -1.31794 5.65341 0
M  V30 14548 H 1316.97 1.41831 2.64015 0
M  V30 14549 H 1314.53 0.891265 1.35159 0
M  V30 14550 H 1316.52 -0.728645 3.98087 0
M  V30 14551 H 1315.09 -1.01306 2.9573 0
M  V30 14552 H 1314.31 1.35899 3.70034 0
M  V30 14553 H 1315.6 1.30786 4.91704 0
M  V30 14554 H 1315 -1.84399 5.34802 0
M  V30 14555 H 1313.55 -1.7576 6.27656 0
M  V30 14556 N 1316.99 -1.36373 0.789944 0
M  V30 14557 C 1317.92 -2.32616 0.202944 0
M  V30 14558 C 1318.9 -1.56674 -0.662364 0
M  V30 14559 O 1320.08 -1.84826 -0.596078 0
M  V30 14560 C 1317.21 -3.4092 -0.662646 0
M  V30 14561 C 1316.17 -4.27877 0.102811 0
M  V30 14562 C 1315.49 -5.27352 -0.883407 0
M  V30 14563 C 1316.79 -5.0606 1.29231 0
M  V30 14564 H 1318.49 -2.81958 1.00699 0
M  V30 14565 H 1316.03 -1.35562 0.48568 0
M  V30 14566 H 1317.99 -4.07239 -1.08324 0
M  V30 14567 H 1316.71 -2.90147 -1.4994 0
M  V30 14568 H 1315.37 -3.63114 0.504389 0
M  V30 14569 H 1315.02 -4.72853 -1.71521 0
M  V30 14570 H 1314.72 -5.86398 -0.375669 0
M  V30 14571 H 1316.24 -5.96545 -1.30256 0
M  V30 14572 H 1317.66 -5.65417 0.947446 0
M  V30 14573 H 1316.05 -5.74521 1.73338 0
M  V30 14574 H 1317.12 -4.37671 2.08739 0
M  V30 14575 N 1318.47 -0.542005 -1.47987 0
M  V30 14576 C 1319.74 0.0526494 -1.95529 0
M  V30 14577 C 1320.12 1.50092 -1.48444 0
M  V30 14578 O 1319.47 2.16981 -0.716347 0
M  V30 14579 C 1319.68 -0.0770524 -3.48915 0
M  V30 14580 C 1321.03 0.0760849 -4.24532 0
M  V30 14581 O 1322.05 -0.00384644 -3.562 0
M  V30 14582 O 1320.91 0.245406 -5.45949 0
M  V30 14583 H 1318.01 0.0726163 -0.823806 0
M  V30 14584 H 1320.55 -0.607454 -1.58455 0
M  V30 14585 H 1319.32 -1.08544 -3.75944 0
M  V30 14586 H 1318.95 0.621357 -3.92715 0
M  V30 14587 N 1319.94 1.55134 -0.277709 0
M  V30 14588 C 1320.87 2.256 0.602232 0
M  V30 14589 C 1321.85 1.24708 1.15681 0
M  V30 14590 O 1323.04 1.53433 1.19046 0
M  V30 14591 C 1320.17 2.97907 1.78519 0
M  V30 14592 C 1319.12 4.0575 1.36203 0
M  V30 14593 C 1318.45 4.65644 2.62829 0
M  V30 14594 C 1319.75 5.19801 0.510327 0
M  V30 14595 H 1321.44 2.99396 0.0145622 0
M  V30 14596 H 1318.99 1.43999 0.00556389 0
M  V30 14597 H 1320.94 3.45915 2.40668 0
M  V30 14598 H 1319.67 2.21649 2.39873 0
M  V30 14599 H 1318.33 3.58557 0.763726 0
M  V30 14600 H 1317.97 3.86053 3.22447 0
M  V30 14601 H 1317.67 5.38463 2.35227 0
M  V30 14602 H 1319.2 5.16403 3.25823 0
M  V30 14603 H 1320.61 5.63845 1.03689 0
M  V30 14604 H 1319.01 5.99197 0.329073 0
M  V30 14605 H 1320.08 4.82614 -0.470273 0
M  V30 14606 N 1321.42 0.00503138 1.57599 0
M  V30 14607 C 1322.38 -0.969628 2.0768 0
M  V30 14608 C 1323.38 -1.26933 0.987148 0
M  V30 14609 O 1324.57 -1.21368 1.24962 0
M  V30 14610 C 1321.71 -2.29312 2.52247 0
M  V30 14611 H 1322.9 -0.536342 2.95065 0
M  V30 14612 H 1320.45 -0.242543 1.54407 0
M  V30 14613 H 1321.19 -2.7732 1.6812 0
M  V30 14614 H 1320.97 -2.08878 3.31832 0
M  V30 14615 H 1322.46 -2.99221 2.91302 0
M  V30 14616 N 1322.9 -1.55308 -0.267798 0
M  V30 14617 C 1323.81 -1.91649 -1.35307 0
M  V30 14618 C 1324.83 -0.814349 -1.53767 0
M  V30 14619 O 1326 -1.11388 -1.67793 0
M  V30 14620 C 1323.07 -2.18553 -2.69138 0
M  V30 14621 C 1322.13 -3.42083 -2.5938 0
M  V30 14622 C 1321.36 -3.67695 -3.86828 0
M  V30 14623 O 1321.58 -2.95728 -4.87751 0
M  V30 14624 O 1320.52 -4.61229 -3.86718 0
M  V30 14625 H 1324.34 -2.84044 -1.07483 0
M  V30 14626 H 1321.93 -1.41921 -0.466772 0
M  V30 14627 H 1323.81 -2.3726 -3.48261 0
M  V30 14628 H 1322.49 -1.2934 -2.96737 0
M  V30 14629 H 1321.39 -3.28706 -1.78614 0
M  V30 14630 H 1322.73 -4.31532 -2.36729 0
M  V30 14631 N 1324.38 0.532545 -1.4833 0
M  V30 14632 C 1325.61 1.31331 -1.59874 0
M  V30 14633 C 1326.02 1.87028 -0.258037 0
M  V30 14634 O 1325.38 1.66272 0.752317 0
M  V30 14635 C 1325.43 2.46596 -2.64334 0
M  V30 14636 O 1325.15 1.93195 -3.93201 0
M  V30 14637 C 1326.65 3.38454 -2.86294 0
M  V30 14638 H 1323.87 0.399476 -0.539129 0
M  V30 14639 H 1326.41 0.642696 -1.94138 0
M  V30 14640 H 1324.57 3.09548 -2.32936 0
M  V30 14641 H 1324.98 2.68627 -4.50489 0
M  V30 14642 H 1326.46 4.15687 -3.63192 0
M  V30 14643 H 1326.93 3.93526 -1.95022 0
M  V30 14644 H 1327.54 2.81297 -3.18986 0
M  V30 14645 N 1325.86 1.36875 0.78122 0
M  V30 14646 C 1326.8 1.31869 1.89418 0
M  V30 14647 C 1327.77 0.185904 1.65056 0
M  V30 14648 O 1328.96 0.373745 1.87104 0
M  V30 14649 C 1326.1 1.12205 3.2635 0
M  V30 14650 C 1325.21 2.34631 3.62729 0
M  V30 14651 C 1324.35 2.07914 4.8882 0
M  V30 14652 C 1323.38 3.26257 5.17902 0
M  V30 14653 N 1322.52 2.99152 6.35179 0
M  V30 14654 H 1327.36 2.2703 1.93032 0
M  V30 14655 H 1324.9 1.12826 0.943857 0
M  V30 14656 H 1326.86 0.988282 4.05326 0
M  V30 14657 H 1325.49 0.206959 3.22136 0
M  V30 14658 H 1324.54 2.58782 2.78812 0
M  V30 14659 H 1325.85 3.22919 3.80164 0
M  V30 14660 H 1325 1.91514 5.7568 0
M  V30 14661 H 1323.74 1.1695 4.7347 0
M  V30 14662 H 1322.75 3.43207 4.29522 0
M  V30 14663 H 1323.97 4.1806 5.35166 0
M  V30 14664 H 1321.92 2.10807 6.21205 0
M  V30 14665 H 1321.84 3.80981 6.52985 0
M  V30 14666 H 1323.1 2.86349 7.25 0
M  V30 14667 N 1327.33 -1.00632 1.21289 0
M  V30 14668 C 1328.3 -2.07543 0.972548 0
M  V30 14669 C 1329.3 -1.60703 -0.0559244 0
M  V30 14670 O 1330.49 -1.73255 0.181213 0
M  V30 14671 C 1327.62 -3.37696 0.466297 0
M  V30 14672 H 1328.81 -2.30298 1.92101 0
M  V30 14673 H 1326.36 -1.17588 1.02969 0
M  V30 14674 H 1327.1 -3.2062 -0.487148 0
M  V30 14675 H 1326.88 -3.73024 1.20813 0
M  V30 14676 H 1328.37 -4.16388 0.317962 0
M  V30 14677 N 1328.81 -1.02043 -1.20104 0
M  V30 14678 C 1329.72 -0.603724 -2.26699 0
M  V30 14679 C 1330.74 0.360558 -1.70223 0
M  V30 14680 O 1331.91 0.220552 -2.00189 0
M  V30 14681 C 1328.98 0.0475988 -3.46667 0
M  V30 14682 C 1328.04 -0.963111 -4.18357 0
M  V30 14683 C 1327.27 -0.342775 -5.32598 0
M  V30 14684 O 1327.5 0.856509 -5.63933 0
M  V30 14685 O 1326.43 -1.06141 -5.92467 0
M  V30 14686 H 1330.26 -1.49125 -2.64566 0
M  V30 14687 H 1327.84 -0.790134 -1.26796 0
M  V30 14688 H 1329.72 0.411177 -4.19389 0
M  V30 14689 H 1328.4 0.909266 -3.10667 0
M  V30 14690 H 1327.3 -1.37813 -3.47791 0
M  V30 14691 H 1328.64 -1.79487 -4.58307 0
M  V30 14692 N 1330.29 1.35952 -0.797165 0
M  V30 14693 C 1331.52 2.0381 -0.38421 0
M  V30 14694 C 1331.94 1.597 0.993854 0
M  V30 14695 O 1331.3 0.769148 1.64176 0
M  V30 14696 C 1331.35 3.57589 -0.465054 0
M  V30 14697 O 1330.45 4.09043 0.525095 0
M  V30 14698 H 1329.79 0.643957 -0.161912 0
M  V30 14699 H 1332.32 1.73746 -1.08043 0
M  V30 14700 H 1332.33 4.06651 -0.331448 0
M  V30 14701 H 1331.01 3.89045 -1.47027 0
M  V30 14702 H 1329.58 3.7123 0.352509 0
M  V30 14703 N 1331.77 0.549846 1.47697 0
M  V30 14704 C 1332.68 -0.205286 2.337 0
M  V30 14705 C 1333.69 -0.919271 1.47734 0
M  V30 14706 O 1334.87 -0.889808 1.80678 0
M  V30 14707 C 1331.94 -1.22658 3.24278 0
M  V30 14708 C 1331 -0.520815 4.26129 0
M  V30 14709 C 1330.23 -1.49345 5.12378 0
M  V30 14710 O 1330.45 -2.72772 5.00951 0
M  V30 14711 O 1329.39 -1.02197 5.93161 0
M  V30 14712 H 1333.21 0.499982 2.99556 0
M  V30 14713 H 1330.8 0.310538 1.46137 0
M  V30 14714 H 1332.68 -1.8163 3.80248 0
M  V30 14715 H 1331.35 -1.9139 2.61059 0
M  V30 14716 H 1330.26 0.109906 3.73939 0
M  V30 14717 H 1331.59 0.124922 4.92041 0
M  V30 14718 N 1333.25 -1.54984 0.285932 0
M  V30 14719 C 1334.18 -2.20365 -0.630236 0
M  V30 14720 C 1335.19 -1.19168 -1.10918 0
M  V30 14721 O 1336.38 -1.45839 -1.02923 0
M  V30 14722 C 1333.48 -2.8244 -1.87299 0
M  V30 14723 C 1332.65 -4.09429 -1.53905 0
M  V30 14724 C 1331.71 -4.55449 -2.63538 0
M  V30 14725 O 1330.74 -5.20985 -2.29267 0
M  V30 14726 N 1331.94 -4.26498 -3.93802 0
M  V30 14727 H 1334.71 -2.99617 -0.0706044 0
M  V30 14728 H 1332.27 -1.61543 0.107486 0
M  V30 14729 H 1334.26 -3.10167 -2.59959 0
M  V30 14730 H 1332.83 -2.07117 -2.34139 0
M  V30 14731 H 1332.05 -3.88875 -0.645774 0
M  V30 14732 H 1333.34 -4.92146 -1.29111 0
M  V30 14733 H 1332.73 -3.73964 -4.24461 0
M  V30 14734 H 1331.29 -4.5897 -4.62807 0
M  V30 14735 N 1334.72 -0.0133892 -1.57594 0
M  V30 14736 C 1335.65 0.972341 -2.12292 0
M  V30 14737 C 1336.64 1.34971 -1.03522 0
M  V30 14738 O 1337.82 1.4311 -1.31275 0
M  V30 14739 C 1334.95 2.25988 -2.63717 0
M  V30 14740 C 1333.9 2.02373 -3.77133 0
M  V30 14741 C 1333.23 3.37256 -4.14925 0
M  V30 14742 C 1334.53 1.37553 -5.03861 0
M  V30 14743 H 1336.22 0.516869 -2.94905 0
M  V30 14744 H 1333.77 0.247176 -1.41863 0
M  V30 14745 H 1335.72 2.95313 -3.00613 0
M  V30 14746 H 1334.45 2.73672 -1.78244 0
M  V30 14747 H 1333.11 1.3547 -3.40651 0
M  V30 14748 H 1332.75 3.82669 -3.26456 0
M  V30 14749 H 1332.45 3.22267 -4.91343 0
M  V30 14750 H 1333.98 4.07875 -4.5439 0
M  V30 14751 H 1335.39 1.96855 -5.38443 0
M  V30 14752 H 1333.79 1.33011 -5.85174 0
M  V30 14753 H 1334.86 0.346429 -4.83661 0
M  V30 14754 N 1336.2 1.55448 0.259558 0
M  V30 14755 C 1337.17 1.88459 1.30445 0
M  V30 14756 C 1338.17 0.760096 1.41701 0
M  V30 14757 O 1339.36 1.02819 1.4062 0
M  V30 14758 C 1336.49 2.10181 2.68397 0
M  V30 14759 H 1337.68 2.81877 1.02398 0
M  V30 14760 H 1335.23 1.48145 0.498262 0
M  V30 14761 H 1335.97 1.19189 3.01603 0
M  V30 14762 H 1335.75 2.92066 2.6161 0
M  V30 14763 H 1337.24 2.36947 3.43869 0
M  V30 14764 N 1337.68 -0.524672 1.4861 0
M  V30 14765 C 1339.1 -0.853703 1.34848 0
M  V30 14766 C 1339.3 -1.98194 0.363529 0
M  V30 14767 O 1338.35 -2.51597 -0.213348 0
M  V30 14768 C 1339.67 -1.21622 2.75006 0
M  V30 14769 C 1341.21 -1.3258 2.83534 0
M  V30 14770 C 1341.69 -1.72172 4.24406 0
M  V30 14771 N 1343.18 -1.79265 4.27105 0
M  V30 14772 C 1343.91 -2.11296 5.33049 0
M  V30 14773 N 1343.41 -2.41714 6.49266 0
M  V30 14774 N 1345.2 -2.12347 5.20447 0
M  V30 14775 H 1337.35 0.219671 2.11261 0
M  V30 14776 H 1339.62 0.0356444 0.94733 0
M  V30 14777 H 1339.32 -0.460776 3.48669 0
M  V30 14778 H 1339.2 -2.16516 3.0887 0
M  V30 14779 H 1341.58 -2.072 2.10124 0
M  V30 14780 H 1341.67 -0.357943 2.53283 0
M  V30 14781 H 1341.31 -0.981108 4.98334 0
M  V30 14782 H 1341.24 -2.70017 4.52104 0
M  V30 14783 H 1343.73 -1.58013 3.43279 0
M  V30 14784 H 1344.04 -2.65276 7.25843 0
M  V30 14785 H 1342.39 -2.39222 6.52532 0
M  V30 14786 H 1345.58 -1.88044 4.28669 0
M  V30 14787 H 1345.75 -2.36978 6.03113 0
M  V30 14788 N 1339.16 -1.37287 -0.77395 0
M  V30 14789 C 1340.41 -1.32112 -1.5294 0
M  V30 14790 C 1340.73 0.0946137 -1.9477 0
M  V30 14791 O 1340 1.03817 -1.66129 0
M  V30 14792 H 1338.58 -0.486047 -0.567245 0
M  V30 14793 H 1341.24 -1.71752 -0.921263 0
M  V30 14794 H 1340.34 -1.95873 -2.42982 0
M  V30 14795 N 1340.64 0.999871 -1.21821 0
M  V30 14796 C 1341.57 2.10708 -1.00621 0
M  V30 14797 C 1342.55 1.69954 0.0705417 0
M  V30 14798 O 1343.73 1.9399 -0.0903042 0
M  V30 14799 C 1340.86 3.42496 -0.575646 0
M  V30 14800 C 1339.82 3.97068 -1.59754 0
M  V30 14801 C 1339.14 5.24822 -1.02304 0
M  V30 14802 C 1340.44 4.28545 -2.98574 0
M  V30 14803 H 1342.14 2.28701 -1.93226 0
M  V30 14804 H 1339.68 1.09903 -0.930443 0
M  V30 14805 H 1341.64 4.19357 -0.414481 0
M  V30 14806 H 1340.36 3.2431 0.386059 0
M  V30 14807 H 1339.02 3.22332 -1.74636 0
M  V30 14808 H 1338.67 5.02972 -0.0529016 0
M  V30 14809 H 1338.37 5.62299 -1.70567 0
M  V30 14810 H 1339.89 6.04322 -0.873312 0
M  V30 14811 H 1341.3 4.96229 -2.87106 0
M  V30 14812 H 1339.7 4.77178 -3.63897 0
M  V30 14813 H 1340.77 3.36607 -3.49032 0
M  V30 14814 N 1342.11 1.02678 1.19562 0
M  V30 14815 C 1343.04 0.626359 2.24942 0
M  V30 14816 C 1344.03 -0.363612 1.66168 0
M  V30 14817 O 1345.21 -0.246793 1.92625 0
M  V30 14818 C 1342.34 -0.0257912 3.4729 0
M  V30 14819 C 1341.29 0.886237 4.18724 0
M  V30 14820 C 1340.62 0.0993081 5.34608 0
M  V30 14821 C 1341.92 2.19901 4.73752 0
M  V30 14822 H 1343.61 1.50729 2.58691 0
M  V30 14823 H 1341.16 0.726195 1.24348 0
M  V30 14824 H 1343.11 -0.317545 4.20202 0
M  V30 14825 H 1341.84 -0.941511 3.12735 0
M  V30 14826 H 1340.5 1.16215 3.47692 0
M  V30 14827 H 1340.14 -0.81838 4.96298 0
M  V30 14828 H 1339.84 0.706776 5.83334 0
M  V30 14829 H 1341.37 -0.185754 6.10317 0
M  V30 14830 H 1342.78 1.96892 5.3843 0
M  V30 14831 H 1341.18 2.75821 5.32956 0
M  V30 14832 H 1342.25 2.85509 3.91934 0
M  V30 14833 N 1343.59 -1.35528 0.804364 0
M  V30 14834 C 1344.5 -2.33616 0.214663 0
M  V30 14835 C 1345.52 -1.61757 -0.64115 0
M  V30 14836 O 1346.69 -1.93647 -0.553424 0
M  V30 14837 C 1343.76 -3.40951 -0.628778 0
M  V30 14838 C 1342.82 -4.28587 0.247269 0
M  V30 14839 C 1342.05 -5.30796 -0.556012 0
M  V30 14840 O 1342.28 -5.41557 -1.79088 0
M  V30 14841 O 1341.21 -6.01878 0.0519437 0
M  V30 14842 H 1345.04 -2.85843 1.02605 0
M  V30 14843 H 1342.62 -1.38259 0.566108 0
M  V30 14844 H 1344.5 -4.06538 -1.10926 0
M  V30 14845 H 1343.18 -2.90999 -1.4178 0
M  V30 14846 H 1342.09 -3.65988 0.774835 0
M  V30 14847 H 1343.42 -4.81931 1.00017 0
M  V30 14848 N 1345.07 -0.557671 -1.47404 0
M  V30 14849 C 1345.98 0.19289 -2.33806 0
M  V30 14850 C 1347 0.911424 -1.4822 0
M  V30 14851 O 1348.17 0.880214 -1.81147 0
M  V30 14852 C 1345.24 1.20937 -3.24923 0
M  V30 14853 C 1344.3 0.498209 -4.26399 0
M  V30 14854 C 1343.53 1.46626 -5.13163 0
M  V30 14855 O 1343.76 2.70111 -5.0239 0
M  V30 14856 O 1342.69 0.990497 -5.93694 0
M  V30 14857 H 1346.52 -0.515861 -2.99287 0
M  V30 14858 H 1344.1 -0.318283 -1.4597 0
M  V30 14859 H 1345.98 1.7961 -3.81206 0
M  V30 14860 H 1344.66 1.90003 -2.6207 0
M  V30 14861 H 1343.56 -0.129736 -3.73875 0
M  V30 14862 H 1344.9 -0.151015 -4.91968 0
M  V30 14863 N 1346.55 1.54831 -0.294147 0
M  V30 14864 C 1347.48 2.20696 0.61854 0
M  V30 14865 C 1348.49 1.19754 1.10285 0
M  V30 14866 O 1349.68 1.46383 1.02148 0
M  V30 14867 C 1346.78 2.83429 1.85798 0
M  V30 14868 C 1345.96 4.10239 1.51731 0
M  V30 14869 C 1345.02 4.56841 2.61119 0
M  V30 14870 O 1344.04 5.22194 2.26501 0
M  V30 14871 N 1345.24 4.2858 3.91534 0
M  V30 14872 H 1348.01 2.9965 0.054714 0
M  V30 14873 H 1345.57 1.61484 -0.116052 0
M  V30 14874 H 1347.56 3.11541 2.5831 0
M  V30 14875 H 1346.13 2.08356 2.33038 0
M  V30 14876 H 1345.35 3.89212 0.625142 0
M  V30 14877 H 1346.64 4.92824 1.26499 0
M  V30 14878 H 1346.04 3.7621 4.22472 0
M  V30 14879 H 1344.59 4.61418 4.60366 0
M  V30 14880 N 1348.03 0.0217466 1.57585 0
M  V30 14881 C 1349.26 -0.667911 1.95506 0
M  V30 14882 C 1349.67 -1.66616 0.89642 0
M  V30 14883 O 1349.01 -1.83232 -0.131059 0
M  V30 14884 C 1349.07 -1.43696 3.29533 0
M  V30 14885 C 1348.73 -0.59787 4.53072 0
M  V30 14886 C 1349.73 0.12372 5.19753 0
M  V30 14887 C 1347.42 -0.53744 4.99417 0
M  V30 14888 C 1349.41 0.894491 6.31092 0
M  V30 14889 C 1347.1 0.237041 6.1064 0
M  V30 14890 C 1348.1 0.95172 6.76337 0
M  V30 14891 O 1347.78 1.71352 7.85426 0
M  V30 14892 H 1347.52 -0.189544 0.648883 0
M  V30 14893 H 1350.07 0.0755682 2.05261 0
M  V30 14894 H 1348.3 -2.22541 3.16247 0
M  V30 14895 H 1349.99 -2.01402 3.52409 0
M  V30 14896 H 1350.75 0.0863208 4.84923 0
M  V30 14897 H 1346.63 -1.08327 4.48092 0
M  V30 14898 H 1350.18 1.45285 6.82304 0
M  V30 14899 H 1346.07 0.276183 6.44909 0
M  V30 14900 H 1346.84 1.63252 8.02054 0
M  V30 14901 N 1349.51 -1.55583 -0.251311 0
M  V30 14902 C 1350.75 -1.77209 -0.979966 0
M  V30 14903 C 1351.08 -0.585279 -1.85485 0
M  V30 14904 O 1350.34 0.431559 -1.90882 0
M  V30 14905 C 1350.63 -3.04291 -1.87461 0
M  V30 14906 C 1350.3 -4.35844 -1.15545 0
M  V30 14907 C 1348.96 -4.71594 -0.956679 0
M  V30 14908 C 1351.31 -5.17189 -0.645381 0
M  V30 14909 C 1348.64 -5.86227 -0.235465 0
M  V30 14910 C 1350.99 -6.32569 0.0623441 0
M  V30 14911 C 1349.66 -6.66943 0.272634 0
M  V30 14912 H 1348.93 -0.648452 -0.358595 0
M  V30 14913 H 1351.58 -1.89856 -0.250423 0
M  V30 14914 H 1349.88 -2.86637 -2.67108 0
M  V30 14915 H 1351.58 -3.18221 -2.44001 0
M  V30 14916 H 1348.17 -4.07757 -1.32031 0
M  V30 14917 H 1352.35 -4.90028 -0.786505 0
M  V30 14918 H 1347.61 -6.11369 -0.0620232 0
M  V30 14919 H 1351.78 -6.94844 0.465234 0
M  V30 14920 H 1349.41 -7.55617 0.833442 0
M  V30 14921 N 1350.98 0.516783 -1.48886 0
M  V30 14922 C 1351.89 1.6467 -1.67095 0
M  V30 14923 C 1352.91 1.64963 -0.553466 0
M  V30 14924 O 1354.09 1.83673 -0.826206 0
M  V30 14925 C 1351.15 3.01095 -1.71879 0
M  V30 14926 C 1350.21 3.11554 -2.95352 0
M  V30 14927 C 1349.44 4.41471 -2.99898 0
M  V30 14928 O 1349.67 5.29348 -2.12477 0
M  V30 14929 O 1348.6 4.56573 -3.92205 0
M  V30 14930 H 1352.43 1.52242 -2.62785 0
M  V30 14931 H 1350.01 0.69134 -1.32442 0
M  V30 14932 H 1351.89 3.82207 -1.77471 0
M  V30 14933 H 1350.57 3.1382 -0.793656 0
M  V30 14934 H 1349.48 2.29689 -2.95286 0
M  V30 14935 H 1350.81 3.03751 -3.87294 0
M  V30 14936 N 1352.46 1.37696 0.766659 0
M  V30 14937 C 1353.39 1.36576 1.89392 0
M  V30 14938 C 1354.37 0.233597 1.68488 0
M  V30 14939 O 1355.56 0.434719 1.89272 0
M  V30 14940 C 1352.69 1.17705 3.26746 0
M  V30 14941 C 1351.64 2.27987 3.62224 0
M  V30 14942 C 1350.97 1.94235 4.98174 0
M  V30 14943 C 1352.27 3.70195 3.68447 0
M  V30 14944 H 1353.96 2.30905 1.90587 0
M  V30 14945 H 1351.51 1.11148 0.915538 0
M  V30 14946 H 1353.46 1.15551 4.05248 0
M  V30 14947 H 1352.18 0.198334 3.25997 0
M  V30 14948 H 1350.84 2.29306 2.86032 0
M  V30 14949 H 1350.49 0.948796 4.93971 0
M  V30 14950 H 1350.19 2.68086 5.2288 0
M  V30 14951 H 1351.72 1.93676 5.7907 0
M  V30 14952 H 1353.13 3.70978 4.37091 0
M  V30 14953 H 1351.53 4.43142 4.04654 0
M  V30 14954 H 1352.6 4.03453 2.68986 0
M  V30 14955 N 1353.94 -0.993397 1.22349 0
M  V30 14956 C 1355.17 -1.76838 1.07406 0
M  V30 14957 C 1355.58 -1.8503 -0.37542 0
M  V30 14958 O 1354.94 -1.32008 -1.26016 0
M  V30 14959 C 1354.99 -3.20177 1.67837 0
M  V30 14960 O 1354.71 -3.12429 3.07115 0
M  V30 14961 C 1356.21 -4.14125 1.58161 0
M  V30 14962 H 1353.43 -0.555379 0.376557 0
M  V30 14963 H 1355.98 -1.24893 1.61932 0
M  V30 14964 H 1354.13 -3.69191 1.17375 0
M  V30 14965 H 1354.55 -4.02568 3.36213 0
M  V30 14966 H 1356.02 -5.12455 2.05169 0
M  V30 14967 H 1356.5 -4.35892 0.538073 0
M  V30 14968 H 1357.1 -3.71008 2.07926 0
M  V30 14969 N 1355.42 -1.03311 -1.19015 0
M  V30 14970 C 1356.35 -0.575655 -2.21853 0
M  V30 14971 C 1357.36 0.350705 -1.58978 0
M  V30 14972 O 1358.55 0.146425 -1.77898 0
M  V30 14973 C 1355.65 0.179949 -3.38422 0
M  V30 14974 C 1354.82 -0.752403 -4.3088 0
M  V30 14975 C 1353.88 -0.0414484 -5.26184 0
M  V30 14976 O 1352.91 -0.669403 -5.6525 0
M  V30 14977 N 1354.11 1.22783 -5.67366 0
M  V30 14978 H 1356.88 -1.46013 -2.61726 0
M  V30 14979 H 1354.44 -0.912655 -1.33724 0
M  V30 14980 H 1356.43 0.66522 -3.99195 0
M  V30 14981 H 1355 0.965879 -2.97304 0
M  V30 14982 H 1354.22 -1.41768 -3.67825 0
M  V30 14983 H 1355.51 -1.38592 -4.89561 0
M  V30 14984 H 1354.91 1.75867 -5.37668 0
M  V30 14985 H 1353.46 1.65752 -6.30372 0
M  V30 14986 N 1356.9 1.35099 -0.81154 0
M  V30 14987 C 1357.81 2.33499 -0.22705 0
M  V30 14988 C 1358.82 1.62095 0.632562 0
M  V30 14989 O 1360 1.93938 0.543147 0
M  V30 14990 C 1357.06 3.41279 0.610687 0
M  V30 14991 C 1356.12 4.2845 -0.269994 0
M  V30 14992 C 1355.36 5.31083 0.527854 0
M  V30 14993 O 1355.58 5.42499 1.76213 0
M  V30 14994 O 1354.51 6.01842 -0.083862 0
M  V30 14995 H 1358.34 2.85294 -1.04119 0
M  V30 14996 H 1355.92 1.37957 -0.573432 0
M  V30 14997 H 1357.81 4.07121 1.08768 0
M  V30 14998 H 1356.48 2.91746 1.40235 0
M  V30 14999 H 1355.39 3.65572 -0.794234 0
M  V30 15000 H 1356.72 4.81394 -1.02572 0
M  V30 15001 N 1358.37 0.56548 1.47106 0
M  V30 15002 C 1359.6 0.0476763 2.07345 0
M  V30 15003 C 1360.02 -1.24032 1.41413 0
M  V30 15004 O 1359.38 -1.74498 0.491941 0
M  V30 15005 C 1359.43 -0.122618 3.60391 0
M  V30 15006 O 1358.53 -1.18326 3.9506 0
M  V30 15007 H 1357.87 0.0550419 0.661715 0
M  V30 15008 H 1360.4 0.78352 1.89003 0
M  V30 15009 H 1360.41 -0.334227 4.06629 0
M  V30 15010 H 1359.09 0.81807 4.07775 0
M  V30 15011 H 1357.67 -0.951481 3.60557 0
M  V30 15012 N 1359.85 -1.54672 0.302354 0
M  V30 15013 C 1360.8 -2.2357 -0.573141 0
M  V30 15014 C 1361.77 -1.21878 -1.12849 0
M  V30 15015 O 1362.95 -1.50502 -1.17277 0
M  V30 15016 C 1360.09 -2.98111 -1.7385 0
M  V30 15017 C 1359.21 -4.14579 -1.21441 0
M  V30 15018 C 1358.34 -4.76699 -2.34374 0
M  V30 15019 C 1357.38 -5.8531 -1.79106 0
M  V30 15020 N 1356.52 -6.41379 -2.85618 0
M  V30 15021 H 1361.36 -2.97993 0.0209969 0
M  V30 15022 H 1358.9 -1.47083 0.0221318 0
M  V30 15023 H 1360.85 -3.39561 -2.42392 0
M  V30 15024 H 1359.48 -2.26063 -2.30425 0
M  V30 15025 H 1358.54 -3.78061 -0.421204 0
M  V30 15026 H 1359.85 -4.92824 -0.769821 0
M  V30 15027 H 1359 -5.21009 -3.10861 0
M  V30 15028 H 1357.74 -3.9779 -2.8216 0
M  V30 15029 H 1356.75 -5.40423 -1.01109 0
M  V30 15030 H 1357.97 -6.66104 -1.32222 0
M  V30 15031 H 1355.92 -5.65352 -3.32735 0
M  V30 15032 H 1355.83 -7.14974 -2.45659 0
M  V30 15033 H 1357.1 -6.90346 -3.61998 0
M  V30 15034 N 1361.33 -0.0301034 -1.57571 0
M  V30 15035 C 1362.28 0.951421 -2.10277 0
M  V30 15036 C 1363.25 1.3224 -1.00508 0
M  V30 15037 O 1364.43 1.41554 -1.27934 0
M  V30 15038 C 1361.57 2.2282 -2.63525 0
M  V30 15039 C 1360.69 1.91359 -3.87306 0
M  V30 15040 C 1359.82 3.13339 -4.28943 0
M  V30 15041 C 1358.86 2.77701 -5.4548 0
M  V30 15042 N 1358 3.9231 -5.82269 0
M  V30 15043 H 1362.84 0.495049 -2.93859 0
M  V30 15044 H 1360.37 0.232756 -1.45247 0
M  V30 15045 H 1362.33 2.97502 -2.92487 0
M  V30 15046 H 1360.96 2.66072 -1.82772 0
M  V30 15047 H 1360.01 1.06915 -3.65066 0
M  V30 15048 H 1361.33 1.61112 -4.72064 0
M  V30 15049 H 1360.48 3.9634 -4.59347 0
M  V30 15050 H 1359.22 3.46747 -3.42954 0
M  V30 15051 H 1358.22 1.93113 -5.14769 0
M  V30 15052 H 1359.45 2.45508 -6.33169 0
M  V30 15053 H 1357.39 4.25559 -4.99235 0
M  V30 15054 H 1357.31 3.65691 -6.61669 0
M  V30 15055 H 1358.58 4.76012 -6.17279 0
M  V30 15056 N 1362.81 1.55714 0.243056 0
M  V30 15057 C 1363.77 1.89832 1.28438 0
M  V30 15058 C 1364.77 0.775083 1.40887 0
M  V30 15059 O 1365.96 1.04304 1.39521 0
M  V30 15060 C 1363.09 2.13016 2.66153 0
M  V30 15061 H 1364.29 2.82947 0.994022 0
M  V30 15062 H 1361.84 1.48665 0.482521 0
M  V30 15063 H 1362.57 1.22381 3.00322 0
M  V30 15064 H 1362.36 2.94824 2.58498 0
M  V30 15065 H 1363.85 2.40581 3.41336 0
M  V30 15066 N 1364.29 -0.50888 1.49158 0
M  V30 15067 C 1365.25 -1.59354 1.64739 0
M  V30 15068 C 1366.25 -1.52175 0.519557 0
M  V30 15069 O 1367.44 -1.55468 0.785838 0
M  V30 15070 C 1364.57 -2.99002 1.63739 0
M  V30 15071 H 1365.76 -1.46871 2.61474 0
M  V30 15072 H 1363.32 -0.732532 1.38071 0
M  V30 15073 H 1364.05 -3.1697 0.685583 0
M  V30 15074 H 1363.84 -3.05622 2.45637 0
M  V30 15075 H 1365.33 -3.77822 1.77877 0
M  V30 15076 N 1365.76 -1.381 -0.759346 0
M  V30 15077 C 1366.99 -1.37389 -1.55367 0
M  V30 15078 C 1367.41 0.0356097 -1.88066 0
M  V30 15079 O 1366.77 1.0161 -1.5015 0
M  V30 15080 C 1366.82 -2.23098 -2.83302 0
M  V30 15081 O 1365.92 -1.64412 -3.7821 0
M  V30 15082 H 1365.27 -0.468894 -0.470143 0
M  V30 15083 H 1367.8 -1.81787 -0.938858 0
M  V30 15084 H 1367.81 -2.36753 -3.32283 0
M  V30 15085 H 1366.48 -3.25544 -2.58831 0
M  V30 15086 H 1365.06 -1.59867 -3.36893 0
M  V30 15087 N 1367.24 0.986894 -1.22875 0
M  V30 15088 C 1368.66 1.25185 -0.989997 0
M  V30 15089 C 1368.86 1.99057 0.31282 0
M  V30 15090 O 1367.91 2.30361 1.03392 0
M  V30 15091 C 1369.23 2.05775 -2.19265 0
M  V30 15092 C 1370.78 2.18938 -2.23686 0
M  V30 15093 C 1371.25 3.02917 -3.43519 0
M  V30 15094 N 1372.74 3.10503 -3.43718 0
M  V30 15095 C 1373.48 3.75789 -4.33094 0
M  V30 15096 N 1372.97 4.42952 -5.32696 0
M  V30 15097 N 1374.77 3.72611 -4.20854 0
M  V30 15098 H 1366.92 0.491816 -2.06628 0
M  V30 15099 H 1369.18 0.279856 -0.905751 0
M  V30 15100 H 1368.89 1.58864 -3.13776 0
M  V30 15101 H 1368.76 3.06529 -2.19818 0
M  V30 15102 H 1371.15 2.65061 -1.29718 0
M  V30 15103 H 1371.23 1.17595 -2.27168 0
M  V30 15104 H 1370.87 2.57493 -4.3779 0
M  V30 15105 H 1370.8 4.04415 -3.37277 0
M  V30 15106 H 1373.29 2.62709 -2.71647 0
M  V30 15107 H 1373.61 4.90527 -5.97162 0
M  V30 15108 H 1371.95 4.41681 -5.36603 0
M  V30 15109 H 1375.14 3.19305 -3.42289 0
M  V30 15110 H 1375.31 4.2321 -4.90711 0
M  V30 15111 N 1368.72 1.0394 1.18466 0
M  V30 15112 C 1369.67 0.623063 2.241 0
M  V30 15113 C 1370.66 -0.349518 1.65755 0
M  V30 15114 O 1371.87 -0.216947 1.78688 0
M  V30 15115 H 1368.24 0.183263 0.729327 0
M  V30 15116 H 1370.21 1.52439 2.56524 0
M  V30 15117 C 1368.96 0.000626805 3.477 0
M  V30 15118 H 1368.29 0.740056 3.92891 0
M  V30 15119 H 1369.73 -0.253484 4.23242 0
M  V30 15120 C 1368.19 -1.24907 3.1289 0
M  V30 15121 O 1368.72 -2.33996 3.2651 0
M  V30 15122 N 1366.92 -1.14187 2.67226 0
M  V30 15123 H 1366.47 -0.254146 2.56343 0
M  V30 15124 H 1366.43 -1.97893 2.44307 0
M  V30 15125 N 1370.2 -1.34667 0.818693 0
M  V30 15126 C 1371.61 -1.51436 0.503921 0
M  V30 15127 C 1371.81 -1.76468 -0.972691 0
M  V30 15128 O 1370.87 -1.81314 -1.75731 0
M  V30 15129 C 1372.18 -2.68198 1.35978 0
M  V30 15130 C 1373.73 -2.8208 1.35647 0
M  V30 15131 C 1374.21 -4.01881 2.19672 0
M  V30 15132 N 1375.7 -4.0908 2.17273 0
M  V30 15133 C 1376.43 -5.00925 2.79038 0
M  V30 15134 N 1375.93 -5.9802 3.49777 0
M  V30 15135 N 1377.72 -4.93764 2.68615 0
M  V30 15136 H 1369.87 -1.16677 1.77483 0
M  V30 15137 H 1372.14 -0.571873 0.756085 0
M  V30 15138 H 1371.84 -2.56317 2.4082 0
M  V30 15139 H 1371.72 -3.63105 1.0215 0
M  V30 15140 H 1374.1 -2.93405 0.315849 0
M  V30 15141 H 1374.18 -1.87994 1.7347 0
M  V30 15142 H 1373.83 -3.91316 3.23781 0
M  V30 15143 H 1373.76 -4.95171 1.79202 0
M  V30 15144 H 1376.25 -3.3958 1.65814 0
M  V30 15145 H 1376.56 -6.64722 3.94162 0
M  V30 15146 H 1374.91 -5.98157 3.53883 0
M  V30 15147 H 1378.1 -4.16868 2.12929 0
M  V30 15148 H 1378.27 -5.65147 3.17038 0
M  V30 15149 N 1371.68 -0.573274 -1.46804 0
M  V30 15150 C 1372.61 0.20305 -2.28299 0
M  V30 15151 C 1373.62 0.864367 -1.37958 0
M  V30 15152 O 1374.81 0.735516 -1.62642 0
M  V30 15153 C 1371.91 1.30633 -3.12711 0
M  V30 15154 C 1371.08 0.738741 -4.31116 0
M  V30 15155 C 1370.14 1.72853 -4.96999 0
M  V30 15156 O 1369.17 1.2683 -5.5489 0
M  V30 15157 N 1370.37 3.06239 -4.93151 0
M  V30 15158 H 1373.14 -0.496086 -2.95566 0
M  V30 15159 H 1370.7 -0.410411 -1.56612 0
M  V30 15160 H 1372.69 1.96755 -3.53652 0
M  V30 15161 H 1371.26 1.90846 -2.47581 0
M  V30 15162 H 1370.48 -0.0996941 -3.94074 0
M  V30 15163 H 1371.77 0.339154 -5.07668 0
M  V30 15164 H 1371.16 3.46262 -4.47347 0
M  V30 15165 H 1369.72 3.67876 -5.38062 0
M  V30 15166 N 1373.15 1.5451 -0.310553 0
M  V30 15167 C 1374.06 2.27557 0.570518 0
M  V30 15168 C 1375.08 1.31426 1.14032 0
M  V30 15169 O 1376.26 1.64423 1.16306 0
M  V30 15170 C 1373.32 3.00933 1.72163 0
M  V30 15171 C 1372.38 4.12623 1.18495 0
M  V30 15172 C 1371.62 4.8249 2.28121 0
M  V30 15173 O 1371.84 4.5178 3.48211 0
M  V30 15174 O 1370.77 5.69686 1.94273 0
M  V30 15175 H 1374.6 3.03692 -0.0223195 0
M  V30 15176 H 1372.18 1.49203 -0.0766821 0
M  V30 15177 H 1374.07 3.46925 2.39208 0
M  V30 15178 H 1372.74 2.27685 2.3009 0
M  V30 15179 H 1371.65 3.71008 0.479956 0
M  V30 15180 H 1372.98 4.87876 0.650994 0
M  V30 15181 N 1374.63 0.0384594 1.57553 0
M  V30 15182 C 1375.88 -0.637533 1.91359 0
M  V30 15183 C 1376.2 -1.7275 0.91744 0
M  V30 15184 O 1377.4 -2.46078 1.14709 0
M  V30 15185 C 1375.86 -1.18526 3.39823 0
M  V30 15186 C 1375.47 -0.128086 4.47817 0
M  V30 15187 C 1377.21 -1.83723 3.82683 0
M  V30 15188 C 1375.12 -0.687978 5.87385 0
M  V30 15189 H 1374.05 -0.241898 0.714144 0
M  V30 15190 H 1376.7 0.105281 1.83198 0
M  V30 15191 H 1375.08 -1.97999 3.42947 0
M  V30 15192 H 1376.25 0.644865 4.56265 0
M  V30 15193 H 1374.57 0.425672 4.14219 0
M  V30 15194 H 1377.17 -2.26585 4.84317 0
M  V30 15195 H 1377.51 -2.68377 3.18244 0
M  V30 15196 H 1378.04 -1.10926 3.82021 0
M  V30 15197 H 1374.78 0.120642 6.55389 0
M  V30 15198 H 1374.3 -1.4292 5.82524 0
M  V30 15199 H 1375.98 -1.17483 6.36244 0
M  V30 15200 N 1376.11 -1.55841 -0.234795 0
M  V30 15201 C 1377.34 -1.82307 -0.978355 0
M  V30 15202 C 1377.75 -0.615825 -1.78474 0
M  V30 15203 O 1377.11 0.4156 -1.77705 0
M  V30 15204 C 1377.16 -3.07136 -1.90655 0
M  V30 15205 O 1376.88 -4.23202 -1.13278 0
M  V30 15206 C 1378.38 -3.46492 -2.76511 0
M  V30 15207 H 1375.6 -0.606361 -0.287345 0
M  V30 15208 H 1378.15 -2.02916 -0.254023 0
M  V30 15209 H 1376.3 -2.88542 -2.58501 0
M  V30 15210 H 1376.72 -4.94029 -1.76168 0
M  V30 15211 H 1378.19 -4.36908 -3.37366 0
M  V30 15212 H 1378.67 -2.67633 -3.48238 0
M  V30 15213 H 1379.27 -3.6748 -2.14099 0
M  V30 15214 N 1377.59 0.500963 -1.49426 0
M  V30 15215 C 1378.87 1.26231 -1.49416 0
M  V30 15216 C 1379.25 2.0993 -0.221908 0
M  V30 15217 O 1378.59 2.14198 0.795712 0
M  V30 15218 C 1378.8 2.11899 -2.77308 0
M  V30 15219 C 1380.15 2.71086 -3.26799 0
M  V30 15220 O 1381.18 2.22166 -2.78425 0
M  V30 15221 O 1380.04 3.60141 -4.11049 0
M  V30 15222 H 1377.13 0.571224 -0.598024 0
M  V30 15223 H 1379.68 0.51523 -1.61689 0
M  V30 15224 H 1378.45 1.50027 -3.61397 0
M  V30 15225 H 1378.07 2.93799 -2.67896 0
M  V30 15226 N 1379.07 1.38501 0.752011 0
M  V30 15227 C 1380.01 1.35857 1.86578 0
M  V30 15228 C 1380.98 0.220873 1.64625 0
M  V30 15229 O 1382.17 0.413348 1.86269 0
M  V30 15230 C 1379.31 1.19102 3.23896 0
M  V30 15231 C 1378.42 2.42272 3.5767 0
M  V30 15232 C 1377.56 2.18236 4.843 0
M  V30 15233 C 1376.6 3.37169 5.10865 0
M  V30 15234 N 1375.73 3.12558 6.28691 0
M  V30 15235 H 1380.57 2.31073 1.88173 0
M  V30 15236 H 1378.11 1.14803 0.919712 0
M  V30 15237 H 1380.07 1.07404 4.03138 0
M  V30 15238 H 1378.7 0.275243 3.21624 0
M  V30 15239 H 1377.75 2.64638 2.7326 0
M  V30 15240 H 1379.06 3.3091 3.73229 0
M  V30 15241 H 1378.22 2.03682 5.71488 0
M  V30 15242 H 1376.96 1.26966 4.70883 0
M  V30 15243 H 1375.96 3.52241 4.22145 0
M  V30 15244 H 1377.19 4.29317 5.26178 0
M  V30 15245 H 1375.13 2.23937 6.16594 0
M  V30 15246 H 1375.05 3.94746 6.44757 0
M  V30 15247 H 1376.32 3.01663 7.18763 0
M  V30 15248 N 1380.55 -0.980364 1.23396 0
M  V30 15249 C 1381.82 -1.69607 0.974319 0
M  V30 15250 C 1382.2 -2.0492 -0.507064 0
M  V30 15251 O 1381.55 -1.74239 -1.47827 0
M  V30 15252 C 1381.76 -2.93743 1.88457 0
M  V30 15253 C 1383.11 -3.66256 2.14806 0
M  V30 15254 O 1384.13 -3.03776 1.86007 0
M  V30 15255 O 1382.99 -4.78698 2.63648 0
M  V30 15256 H 1380.09 -0.740878 0.367462 0
M  V30 15257 H 1382.63 -1.03558 1.34439 0
M  V30 15258 H 1381.4 -2.64244 2.88601 0
M  V30 15259 H 1381.03 -3.67528 1.51688 0
M  V30 15260 N 1382.02 -1.04567 -1.17913 0
M  V30 15261 C 1382.97 -0.611407 -2.19649 0
M  V30 15262 C 1383.96 0.348802 -1.57074 0
M  V30 15263 O 1385.15 0.167045 -1.7621 0
M  V30 15264 C 1382.28 0.0189379 -3.43295 0
M  V30 15265 C 1381.36 -0.96472 -4.12982 0
M  V30 15266 N 1381.76 -2.13371 -4.58592 0
M  V30 15267 C 1380.05 -0.791817 -4.38915 0
M  V30 15268 C 1380.75 -2.75549 -5.12296 0
M  V30 15269 N 1379.73 -2.0339 -5.04117 0
M  V30 15270 H 1383.53 -1.50217 -2.5261 0
M  V30 15271 H 1381.05 -0.914946 -1.34173 0
M  V30 15272 H 1383.04 0.347776 -4.15447 0
M  V30 15273 H 1381.7 0.905177 -3.11828 0
M  V30 15274 H 1382.71 -2.51236 -4.52881 0
M  V30 15275 H 1379.39 0.0439054 -4.17477 0
M  V30 15276 H 1380.78 -3.74647 -5.57754 0
M  V30 15277 N 1383.5 1.34231 -0.825823 0
M  V30 15278 C 1384.73 2.02417 -0.428348 0
M  V30 15279 C 1385.14 1.62181 0.966573 0
M  V30 15280 O 1384.5 0.828691 1.62601 0
M  V30 15281 C 1384.55 3.57678 -0.524271 0
M  V30 15282 O 1384.27 3.96458 -1.86422 0
M  V30 15283 C 1385.77 4.43132 -0.122069 0
M  V30 15284 H 1382.99 0.648699 -0.171554 0
M  V30 15285 H 1385.54 1.71443 -1.11478 0
M  V30 15286 H 1383.69 3.87232 0.114112 0
M  V30 15287 H 1384.11 4.91147 -1.84051 0
M  V30 15288 H 1385.58 5.51477 -0.240264 0
M  V30 15289 H 1386.06 4.29139 0.934705 0
M  V30 15290 H 1386.66 4.18912 -0.734366 0
M  V30 15291 N 1384.98 0.581051 1.46498 0
M  V30 15292 C 1386.23 0.0660934 2.02692 0
M  V30 15293 C 1386.56 -1.28985 1.45178 0
M  V30 15294 O 1385.83 -1.84479 0.616247 0
M  V30 15295 C 1386.12 -0.00145411 3.601 0
M  V30 15296 C 1385.97 1.38327 4.28002 0
M  V30 15297 C 1387.29 -0.702914 4.3445 0
M  V30 15298 H 1384.41 0.0254923 0.736559 0
M  V30 15299 H 1387.05 0.74793 1.7466 0
M  V30 15300 H 1385.2 -0.582118 3.84114 0
M  V30 15301 H 1386.87 2.00897 4.15257 0
M  V30 15302 H 1385.11 1.95144 3.87429 0
M  V30 15303 H 1385.79 1.28849 5.36751 0
M  V30 15304 H 1388.26 -0.209641 4.15572 0
M  V30 15305 H 1387.14 -0.719202 5.44168 0
M  V30 15306 H 1387.4 -1.76389 4.05388 0
M  V30 15307 N 1386.46 -1.54343 0.318742 0
M  V30 15308 C 1387.68 -2.05361 -0.290126 0
M  V30 15309 C 1388.11 -1.19362 -1.45376 0
M  V30 15310 O 1387.47 -0.201639 -1.80175 0
M  V30 15311 C 1387.51 -3.53601 -0.707025 0
M  V30 15312 O 1386.62 -3.70561 -1.80992 0
M  V30 15313 H 1385.96 -0.661858 -0.0532933 0
M  V30 15314 H 1388.49 -1.99228 0.46575 0
M  V30 15315 H 1388.5 -3.95782 -0.991005 0
M  V30 15316 H 1387.17 -4.1565 0.144091 0
M  V30 15317 H 1385.75 -3.40286 -1.52513 0
M  V30 15318 N 1387.94 -0.0468143 -1.5753 0
M  V30 15319 C 1389.35 0.309707 -1.56566 0
M  V30 15320 C 1389.55 1.7173 -1.05408 0
M  V30 15321 O 1388.61 2.4235 -0.708723 0
M  V30 15322 C 1389.92 0.142151 -3.00364 0
M  V30 15323 C 1391.47 0.213585 -3.1227 0
M  V30 15324 C 1391.94 0.0746102 -4.57939 0
M  V30 15325 N 1393.43 0.131027 -4.63015 0
M  V30 15326 C 1394.17 0.0475409 -5.7338 0
M  V30 15327 N 1393.67 -0.0880445 -6.92744 0
M  V30 15328 N 1395.46 0.102809 -5.62006 0
M  V30 15329 H 1387.61 -0.967057 -1.89108 0
M  V30 15330 H 1389.87 -0.375018 -0.870669 0
M  V30 15331 H 1389.58 -0.828171 -3.4181 0
M  V30 15332 H 1389.45 0.905006 -3.66182 0
M  V30 15333 H 1391.84 1.17438 -2.70726 0
M  V30 15334 H 1391.92 -0.57995 -2.49139 0
M  V30 15335 H 1391.56 -0.882839 -5.00168 0
M  V30 15336 H 1391.49 0.887235 -5.19072 0
M  V30 15337 H 1393.99 0.235246 -3.77167 0
M  V30 15338 H 1394.3 -0.144574 -7.72665 0
M  V30 15339 H 1392.64 -0.12307 -6.94891 0
M  V30 15340 H 1395.83 0.207259 -4.67641 0
M  V30 15341 H 1396.01 0.0342865 -6.47991 0
M  V30 15342 N 1389.41 1.55964 0.226527 0
M  V30 15343 C 1390.34 1.95028 1.284 0
M  V30 15344 C 1391.33 0.817833 1.49149 0
M  V30 15345 O 1392.51 1.07975 1.61416 0
M  V30 15346 C 1389.64 2.26266 2.63478 0
M  V30 15347 C 1388.59 3.41954 2.57393 0
M  V30 15348 C 1387.92 3.58786 3.96456 0
M  V30 15349 C 1389.22 4.77069 2.12608 0
M  V30 15350 H 1390.91 2.83608 0.959513 0
M  V30 15351 H 1388.46 1.36451 0.460125 0
M  V30 15352 H 1390.41 2.52186 3.3761 0
M  V30 15353 H 1389.14 1.34533 2.97604 0
M  V30 15354 H 1387.8 3.16076 1.85719 0
M  V30 15355 H 1387.44 2.64437 4.27881 0
M  V30 15356 H 1387.14 4.36595 3.93267 0
M  V30 15357 H 1388.67 3.87048 4.72256 0
M  V30 15358 H 1390.08 5.02226 2.76481 0
M  V30 15359 H 1388.48 5.58126 2.2049 0
M  V30 15360 H 1389.55 4.7276 1.07823 0
M  V30 15361 N 1390.89 -0.493031 1.4969 0
M  V30 15362 C 1391.8 -1.61991 1.69694 0
M  V30 15363 C 1392.82 -1.64061 0.579641 0
M  V30 15364 O 1393.99 -1.82335 0.855323 0
M  V30 15365 C 1391.06 -2.98323 1.76648 0
M  V30 15366 C 1390.12 -3.06816 3.00271 0
M  V30 15367 C 1389.35 -4.36644 3.06883 0
M  V30 15368 O 1389.58 -5.25901 2.20872 0
M  V30 15369 O 1388.51 -4.50275 3.99419 0
M  V30 15370 H 1392.34 -1.48042 2.65174 0
M  V30 15371 H 1389.92 -0.670182 1.33525 0
M  V30 15372 H 1391.8 -3.79335 1.83529 0
M  V30 15373 H 1390.48 -3.12517 0.843482 0
M  V30 15374 H 1389.39 -2.24962 2.98903 0
M  V30 15375 H 1390.72 -2.97551 3.92077 0
M  V30 15376 N 1392.37 -1.38898 -0.744656 0
M  V30 15377 C 1393.28 -1.39098 -1.88915 0
M  V30 15378 C 1394.3 -0.286956 -1.71617 0
M  V30 15379 O 1395.47 -0.526852 -1.94387 0
M  V30 15380 C 1392.54 -1.22352 -3.24393 0
M  V30 15381 C 1391.6 -2.4264 -3.54153 0
M  V30 15382 C 1390.83 -2.26683 -4.83167 0
M  V30 15383 O 1391.05 -1.26523 -5.56191 0
M  V30 15384 O 1389.99 -3.15464 -5.12607 0
M  V30 15385 H 1393.81 -2.35551 -1.91701 0
M  V30 15386 H 1391.4 -1.19911 -0.891158 0
M  V30 15387 H 1393.28 -1.15109 -4.05374 0
M  V30 15388 H 1391.96 -0.289886 -3.22399 0
M  V30 15389 H 1390.86 -2.55459 -2.73298 0
M  V30 15390 H 1392.2 -3.34664 -3.60917 0
M  V30 15391 N 1393.85 0.973806 -1.23914 0
M  V30 15392 C 1394.81 2.04892 -1.02723 0
M  V30 15393 C 1395.81 1.60795 0.0132972 0
M  V30 15394 O 1397 1.72714 -0.227084 0
M  V30 15395 C 1394.13 3.36341 -0.555667 0
M  V30 15396 H 1395.33 2.25124 -1.98139 0
M  V30 15397 H 1392.88 1.14817 -1.06051 0
M  V30 15398 H 1393.61 3.21799 0.40197 0
M  V30 15399 H 1393.4 3.69689 -1.30661 0
M  V30 15400 H 1394.89 4.15398 -0.428248 0
M  V30 15401 N 1395.33 1.05191 1.17357 0
M  V30 15402 C 1396.27 0.646796 2.23426 0
M  V30 15403 C 1397.27 -0.331918 1.66116 0
M  V30 15404 O 1398.47 -0.197982 1.78908 0
M  V30 15405 H 1394.85 0.190988 0.727343 0
M  V30 15406 H 1396.82 1.55152 2.54893 0
M  V30 15407 C 1395.57 0.037505 3.4768 0
M  V30 15408 H 1394.89 0.781686 3.92084 0
M  V30 15409 H 1396.33 -0.20858 4.23487 0
M  V30 15410 C 1394.79 -1.21581 3.14197 0
M  V30 15411 O 1395.32 -2.3052 3.28973 0
M  V30 15412 N 1393.53 -1.11346 2.68422 0
M  V30 15413 H 1393.07 -0.226943 2.56598 0
M  V30 15414 H 1393.03 -1.95291 2.46392 0
M  V30 15415 N 1396.8 -1.33791 0.83293 0
M  V30 15416 C 1398.03 -2.0272 0.438111 0
M  V30 15417 C 1398.45 -1.62279 -0.951163 0
M  V30 15418 O 1397.81 -0.812406 -1.62079 0
M  V30 15419 C 1397.86 -3.5623 0.559698 0
M  V30 15420 O 1396.96 -4.10292 -0.41646 0
M  V30 15421 H 1396.31 -0.639438 0.178928 0
M  V30 15422 H 1398.84 -1.70821 1.12612 0
M  V30 15423 H 1398.85 -4.0563 0.439148 0
M  V30 15424 H 1397.52 -3.8501 1.5729 0
M  V30 15425 H 1396.1 -3.72034 -0.25396 0
M  V30 15426 N 1398.28 -0.588812 -1.46187 0
M  V30 15427 C 1399.22 0.189417 -2.27413 0
M  V30 15428 C 1400.19 0.891224 -1.36 0
M  V30 15429 O 1401.38 0.903883 -1.65415 0
M  V30 15430 C 1398.5 1.27233 -3.13894 0
M  V30 15431 C 1397.55 0.675705 -4.21113 0
M  V30 15432 S 1398.38 -0.502093 -5.33141 0
M  V30 15433 C 1399.54 0.581875 -6.23189 0
M  V30 15434 H 1399.77 -0.499754 -2.9307 0
M  V30 15435 H 1397.31 -0.375854 -1.49755 0
M  V30 15436 H 1399.26 1.89233 -3.64282 0
M  V30 15437 H 1397.92 1.93348 -2.47538 0
M  V30 15438 H 1397.12 1.48991 -4.81475 0
M  V30 15439 H 1396.72 0.131249 -3.7377 0
M  V30 15440 H 1399.01 1.46594 -6.6145 0
M  V30 15441 H 1399.95 0.0148739 -7.08098 0
M  V30 15442 H 1400.36 0.888764 -5.5746 0
M  V30 15443 N 1399.76 1.54172 -0.326923 0
M  V30 15444 C 1400.69 2.27402 0.530154 0
M  V30 15445 C 1401.67 1.28325 1.11655 0
M  V30 15446 O 1402.86 1.57142 1.14105 0
M  V30 15447 C 1399.99 3.03435 1.68951 0
M  V30 15448 C 1398.94 4.09877 1.23226 0
M  V30 15449 C 1398.27 4.7377 2.47882 0
M  V30 15450 C 1399.57 5.21161 0.344698 0
M  V30 15451 H 1401.26 2.99291 -0.0806959 0
M  V30 15452 H 1398.81 1.43944 -0.0402511 0
M  V30 15453 H 1400.76 3.53396 2.29541 0
M  V30 15454 H 1399.48 2.29169 2.327 0
M  V30 15455 H 1398.14 3.60805 0.649267 0
M  V30 15456 H 1397.79 3.96116 3.10002 0
M  V30 15457 H 1397.49 5.45674 2.17977 0
M  V30 15458 H 1399.01 5.26507 3.09229 0
M  V30 15459 H 1400.43 5.66859 0.856979 0
M  V30 15460 H 1398.83 5.99941 0.138276 0
M  V30 15461 H 1399.9 4.80874 -0.623575 0
M  V30 15462 N 1401.24 0.0551678 1.57503 0
M  V30 15463 C 1402.47 -0.6272 1.97164 0
M  V30 15464 C 1402.88 -1.64143 0.932876 0
M  V30 15465 O 1402.24 -1.82314 -0.0824465 0
M  V30 15466 C 1402.29 -1.31057 3.36907 0
M  V30 15467 O 1402.01 -0.336951 4.36802 0
M  V30 15468 C 1403.51 -2.08232 3.91349 0
M  V30 15469 H 1400.73 -0.171196 0.648793 0
M  V30 15470 H 1403.28 0.122651 2.04132 0
M  V30 15471 H 1401.43 -2.01162 3.31078 0
M  V30 15472 H 1401.84 -0.825204 5.17968 0
M  V30 15473 H 1403.32 -2.51463 4.91397 0
M  V30 15474 H 1403.8 -2.93212 3.26991 0
M  V30 15475 H 1404.4 -1.43029 4.00528 0
M  V30 15476 N 1402.72 -1.56081 -0.218252 0
M  V30 15477 C 1403.66 -1.92684 -1.27049 0
M  V30 15478 C 1404.63 -0.784441 -1.46409 0
M  V30 15479 O 1405.82 -1.04062 -1.59924 0
M  V30 15480 C 1402.96 -2.25174 -2.61516 0
M  V30 15481 C 1402.07 -3.52364 -2.49927 0
M  V30 15482 C 1401.21 -3.74286 -3.7694 0
M  V30 15483 C 1400.25 -4.94979 -3.60087 0
M  V30 15484 N 1399.38 -5.13273 -4.79057 0
M  V30 15485 H 1404.22 -2.82406 -0.951347 0
M  V30 15486 H 1401.76 -1.39774 -0.458441 0
M  V30 15487 H 1403.72 -2.42022 -3.39825 0
M  V30 15488 H 1402.35 -1.38621 -2.9152 0
M  V30 15489 H 1401.4 -3.43691 -1.63036 0
M  V30 15490 H 1402.71 -4.40826 -2.33397 0
M  V30 15491 H 1401.87 -3.91248 -4.63692 0
M  V30 15492 H 1400.6 -2.84111 -3.96399 0
M  V30 15493 H 1399.61 -4.77963 -2.71719 0
M  V30 15494 H 1400.83 -5.86641 -3.42095 0
M  V30 15495 H 1398.78 -4.26041 -4.98824 0
M  V30 15496 H 1398.7 -5.95873 -4.65265 0
M  V30 15497 H 1399.97 -5.34673 -5.67226 0
M  V30 15498 N 1404.2 0.485086 -1.49949 0
M  V30 15499 C 1405.47 1.24639 -1.50747 0
M  V30 15500 C 1405.85 2.09683 -0.244162 0
M  V30 15501 O 1405.2 2.1503 0.772949 0
M  V30 15502 C 1405.41 2.08946 -2.7954 0
M  V30 15503 C 1406.76 2.67604 -3.29656 0
M  V30 15504 O 1407.78 2.192 -2.80766 0
M  V30 15505 O 1406.64 3.55761 -4.14845 0
M  V30 15506 H 1403.74 0.564849 -0.604049 0
M  V30 15507 H 1406.28 0.498052 -1.62227 0
M  V30 15508 H 1405.05 1.46185 -3.62968 0
M  V30 15509 H 1404.68 2.90941 -2.70997 0
M  V30 15510 N 1405.67 1.39291 0.737279 0
M  V30 15511 C 1406.92 1.35702 1.49224 0
M  V30 15512 C 1407.24 -0.0450282 1.95548 0
M  V30 15513 O 1408.44 -0.203495 2.70736 0
M  V30 15514 C 1406.9 2.38387 2.69629 0
M  V30 15515 C 1406.51 3.84295 2.30263 0
M  V30 15516 C 1408.25 2.4387 3.47459 0
M  V30 15517 C 1406.16 4.78626 3.47377 0
M  V30 15518 H 1405.09 0.50449 0.560362 0
M  V30 15519 H 1407.74 1.64926 0.804466 0
M  V30 15520 H 1406.12 2.0223 3.40469 0
M  V30 15521 H 1407.29 4.2948 1.66984 0
M  V30 15522 H 1405.61 3.82085 1.6553 0
M  V30 15523 H 1408.21 3.11539 4.34566 0
M  V30 15524 H 1408.55 1.46253 3.89764 0
M  V30 15525 H 1409.08 2.78908 2.83646 0
M  V30 15526 H 1405.82 5.77497 3.10124 0
M  V30 15527 H 1405.34 4.38123 4.09645 0
M  V30 15528 H 1407.02 4.9742 4.13742 0
M  V30 15529 N 1407.15 -0.967221 1.24429 0
M  V30 15530 C 1408.06 -2.09582 1.05417 0
M  V30 15531 C 1409.08 -1.73999 -0.00516127 0
M  V30 15532 O 1410.25 -2.00472 0.193115 0
M  V30 15533 C 1407.32 -3.40327 0.661697 0
M  V30 15534 C 1406.38 -3.89854 1.79756 0
M  V30 15535 C 1405.61 -5.1436 1.42372 0
M  V30 15536 O 1405.84 -5.69536 0.313754 0
M  V30 15537 O 1404.77 -5.58283 2.24952 0
M  V30 15538 H 1408.6 -2.28517 2.00034 0
M  V30 15539 H 1406.18 -1.07978 1.03253 0
M  V30 15540 H 1408.06 -4.18943 0.454369 0
M  V30 15541 H 1406.74 -3.22691 -0.255348 0
M  V30 15542 H 1405.64 -3.12297 2.05964 0
M  V30 15543 H 1406.98 -4.11967 2.69339 0
M  V30 15544 N 1408.63 -1.05812 -1.16797 0
M  V30 15545 C 1409.88 -0.767008 -1.86547 0
M  V30 15546 C 1410.19 0.708979 -1.82299 0
M  V30 15547 O 1411.4 1.11428 -2.4758 0
M  V30 15548 C 1409.85 -1.32186 -3.34746 0
M  V30 15549 C 1409.46 -2.82774 -3.4748 0
M  V30 15550 C 1411.21 -1.10808 -4.09783 0
M  V30 15551 C 1409.11 -3.31529 -4.89737 0
M  V30 15552 H 1408.04 -0.283235 -0.698781 0
M  V30 15553 H 1410.69 -1.27621 -1.31853 0
M  V30 15554 H 1409.08 -0.740453 -3.89016 0
M  V30 15555 H 1410.25 -3.46825 -3.03396 0
M  V30 15556 H 1408.56 -3.02765 -2.85871 0
M  V30 15557 H 1411.16 -1.44728 -5.14741 0
M  V30 15558 H 1411.5 -0.046167 -4.16274 0
M  V30 15559 H 1412.04 -1.65502 -3.61737 0
M  V30 15560 H 1408.78 -4.37177 -4.88422 0
M  V30 15561 H 1408.3 -2.72224 -5.34466 0
M  V30 15562 H 1409.98 -3.26572 -5.58534 0
M  V30 15563 N 1410.11 1.33347 -0.840014 0
M  V30 15564 C 1411.04 2.31703 -0.289138 0
M  V30 15565 C 1412.02 1.59024 0.603759 0
M  V30 15566 O 1413.2 1.86911 0.527071 0
M  V30 15567 C 1410.33 3.43144 0.53566 0
M  V30 15568 C 1409.29 4.272 -0.261544 0
M  V30 15569 C 1408.61 5.30267 0.687075 0
M  V30 15570 C 1409.91 5.00915 -1.47924 0
M  V30 15571 H 1411.61 2.78026 -1.11094 0
M  V30 15572 H 1409.15 1.33666 -0.535658 0
M  V30 15573 H 1411.11 4.10979 0.931351 0
M  V30 15574 H 1409.83 2.95512 1.39069 0
M  V30 15575 H 1408.49 3.60991 -0.638809 0
M  V30 15576 H 1408.14 4.78893 1.53853 0
M  V30 15577 H 1407.84 5.87388 0.157773 0
M  V30 15578 H 1409.36 6.00968 1.08026 0
M  V30 15579 H 1410.78 5.61511 -1.15664 0
M  V30 15580 H 1409.17 5.67692 -1.94541 0
M  V30 15581 H 1410.24 4.29622 -2.24839 0
M  V30 15582 N 1411.59 0.596556 1.45873 0
M  V30 15583 C 1413 0.259317 1.57479 0
M  V30 15584 C 1413.2 -1.23829 1.58961 0
M  V30 15585 O 1412.26 -2.02076 1.51399 0
M  V30 15586 C 1413.57 0.920755 2.86256 0
M  V30 15587 C 1415.12 0.895638 2.99912 0
M  V30 15588 C 1415.59 1.53688 4.31444 0
M  V30 15589 N 1417.08 1.50186 4.38176 0
M  V30 15590 C 1417.82 1.96727 5.38596 0
M  V30 15591 N 1417.32 2.51304 6.45615 0
M  V30 15592 N 1419.11 1.87561 5.29884 0
M  V30 15593 H 1411.26 1.56909 1.43155 0
M  V30 15594 H 1413.52 0.656664 0.683737 0
M  V30 15595 H 1413.23 1.97481 2.91023 0
M  V30 15596 H 1413.1 0.437331 3.74656 0
M  V30 15597 H 1415.49 -0.149838 2.94719 0
M  V30 15598 H 1415.57 1.41722 2.12952 0
M  V30 15599 H 1415.21 2.58163 4.37395 0
M  V30 15600 H 1415.14 0.990408 5.17203 0
M  V30 15601 H 1417.64 1.10305 3.61443 0
M  V30 15602 H 1417.95 2.84639 7.18471 0
M  V30 15603 H 1416.29 2.55337 6.46396 0
M  V30 15604 H 1419.48 1.4467 4.45183 0
M  V30 15605 H 1419.66 2.24146 6.07999 0
M  V30 15606 N 1413.06 -1.53996 0.335095 0
M  V30 15607 C 1414.48 -1.59591 -0.0171422 0
M  V30 15608 C 1414.68 -1.35132 -1.49471 0
M  V30 15609 O 1413.74 -1.14141 -2.25229 0
M  V30 15610 C 1415.05 -2.97872 0.411443 0
M  V30 15611 C 1416.6 -3.10887 0.363072 0
M  V30 15612 C 1417.07 -4.51532 0.766995 0
M  V30 15613 N 1418.56 -4.57557 0.72085 0
M  V30 15614 C 1419.3 -5.64516 1.00544 0
M  V30 15615 N 1418.79 -6.79365 1.35777 0
M  V30 15616 N 1420.59 -5.54349 0.930243 0
M  V30 15617 H 1412.74 -1.68151 1.29766 0
M  V30 15618 H 1415 -0.787067 0.528422 0
M  V30 15619 H 1414.71 -3.20809 1.44134 0
M  V30 15620 H 1414.58 -3.76571 -0.217678 0
M  V30 15621 H 1416.97 -2.87679 -0.657642 0
M  V30 15622 H 1417.05 -2.34266 1.02728 0
M  V30 15623 H 1416.69 -4.75474 1.78568 0
M  V30 15624 H 1416.62 -5.26539 0.0803511 0
M  V30 15625 H 1419.11 -3.75079 0.460867 0
M  V30 15626 H 1419.43 -7.56891 1.55999 0
M  V30 15627 H 1417.77 -6.80833 1.39614 0
M  V30 15628 H 1420.96 -4.63503 0.654402 0
M  V30 15629 H 1421.14 -6.37616 1.15539 0
M  V30 15630 N 1414.54 -0.0635198 -1.57472 0
M  V30 15631 C 1415.45 0.921531 -2.15743 0
M  V30 15632 C 1416.47 1.33294 -1.11842 0
M  V30 15633 O 1417.64 1.40733 -1.4407 0
M  V30 15634 C 1414.71 2.17378 -2.70088 0
M  V30 15635 C 1413.77 1.81956 -3.88832 0
M  V30 15636 C 1413 3.01211 -4.40577 0
M  V30 15637 O 1413.23 4.14971 -3.9135 0
M  V30 15638 O 1412.16 2.81507 -5.32012 0
M  V30 15639 H 1415.99 0.455899 -3.00259 0
M  V30 15640 H 1413.57 0.159085 -1.48551 0
M  V30 15641 H 1415.45 2.90826 -3.04956 0
M  V30 15642 H 1414.13 2.63055 -1.88637 0
M  V30 15643 H 1413.03 1.05786 -3.58832 0
M  V30 15644 H 1414.37 1.41069 -4.71551 0
M  V30 15645 N 1416.02 1.56195 0.209972 0
M  V30 15646 C 1416.97 1.94226 1.27981 0
M  V30 15647 C 1417.96 0.825742 1.47912 0
M  V30 15648 O 1419.17 1.01066 1.48949 0
M  V30 15649 H 1415.54 0.617395 0.429333 0
M  V30 15650 H 1417.51 2.83474 0.931946 0
M  V30 15651 C 1416.26 2.28527 2.62051 0
M  V30 15652 H 1415.59 3.1396 2.47526 0
M  V30 15653 H 1417.03 2.59012 3.35692 0
M  V30 15654 C 1415.48 1.11452 3.17931 0
M  V30 15655 O 1416.01 0.381713 3.99882 0
M  V30 15656 N 1414.22 0.895263 2.76466 0
M  V30 15657 H 1413.77 1.4929 2.09929 0
M  V30 15658 H 1413.73 0.113688 3.14194 0
M  V30 15659 N 1417.5 -0.477127 1.50204 0
M  V30 15660 C 1418.41 -1.60182 1.71403 0
M  V30 15661 C 1419.42 -1.63437 0.597009 0
M  V30 15662 O 1420.6 -1.81418 0.874614 0
M  V30 15663 C 1417.66 -2.96432 1.79802 0
M  V30 15664 C 1416.73 -3.03614 3.03508 0
M  V30 15665 C 1415.96 -4.33365 3.11497 0
M  V30 15666 O 1416.18 -5.23529 2.26438 0
M  V30 15667 O 1415.12 -4.46013 4.04173 0
M  V30 15668 H 1418.94 -1.45221 2.66729 0
M  V30 15669 H 1416.53 -0.655982 1.34228 0
M  V30 15670 H 1418.41 -3.77367 1.87542 0
M  V30 15671 H 1417.08 -3.11605 0.876581 0
M  V30 15672 H 1415.99 -2.21779 3.01272 0
M  V30 15673 H 1417.32 -2.93376 3.95211 0
M  V30 15674 N 1418.98 -1.3968 -0.729882 0
M  V30 15675 C 1419.89 -1.41094 -1.87429 0
M  V30 15676 C 1420.9 -0.305142 -1.71303 0
M  V30 15677 O 1422.08 -0.54744 -1.93817 0
M  V30 15678 C 1419.14 -1.25786 -3.23077 0
M  V30 15679 C 1418.2 -2.46382 -3.5156 0
M  V30 15680 C 1417.44 -2.31795 -4.80735 0
M  V30 15681 O 1417.66 -1.32415 -5.54818 0
M  V30 15682 O 1416.59 -3.20883 -5.09232 0
M  V30 15683 H 1420.42 -2.37571 -1.89192 0
M  V30 15684 H 1418.01 -1.2085 -0.878389 0
M  V30 15685 H 1419.89 -1.19402 -4.0413 0
M  V30 15686 H 1418.56 -0.324065 -3.22074 0
M  V30 15687 H 1417.47 -2.58343 -2.70573 0
M  V30 15688 H 1418.8 -3.38473 -3.57347 0
M  V30 15689 N 1420.45 0.960609 -1.2494 0
M  V30 15690 C 1421.38 2.074 -1.07274 0
M  V30 15691 C 1422.37 1.70092 0.0164365 0
M  V30 15692 O 1423.55 1.93604 -0.151975 0
M  V30 15693 C 1420.68 3.40491 -0.684317 0
M  V30 15694 C 1419.63 3.91784 -1.72306 0
M  V30 15695 C 1418.96 5.21301 -1.18949 0
M  V30 15696 C 1420.26 4.18829 -3.12056 0
M  V30 15697 H 1421.95 2.22438 -2.00404 0
M  V30 15698 H 1419.5 1.06888 -0.964937 0
M  V30 15699 H 1421.45 4.17826 -0.547686 0
M  V30 15700 H 1420.18 3.25374 0.282687 0
M  V30 15701 H 1418.84 3.16613 -1.84802 0
M  V30 15702 H 1418.48 5.02549 -0.212892 0
M  V30 15703 H 1418.18 5.56588 -1.8837 0
M  V30 15704 H 1419.71 6.01238 -1.06513 0
M  V30 15705 H 1421.12 4.86844 -3.02748 0
M  V30 15706 H 1419.52 4.6536 -3.78894 0
M  V30 15707 H 1420.59 3.25333 -3.59564 0
M  V30 15708 N 1421.93 1.0643 1.16234 0
M  V30 15709 C 1423.16 0.802644 1.90697 0
M  V30 15710 C 1423.58 -0.643145 1.77508 0
M  V30 15711 O 1422.93 -1.4404 1.12065 0
M  V30 15712 C 1422.98 1.18984 3.41358 0
M  V30 15713 O 1422.7 2.5789 3.54153 0
M  V30 15714 C 1424.21 0.956132 4.32866 0
M  V30 15715 H 1421.43 0.290891 0.604668 0
M  V30 15716 H 1423.97 1.41829 1.47325 0
M  V30 15717 H 1422.12 0.618703 3.82428 0
M  V30 15718 H 1422.54 2.73431 4.47589 0
M  V30 15719 H 1424.01 1.27667 5.37034 0
M  V30 15720 H 1424.49 -0.108062 4.39067 0
M  V30 15721 H 1425.1 1.51172 3.97526 0
M  V30 15722 N 1423.41 -1.329 0.847073 0
M  V30 15723 C 1424.32 -2.32815 0.288878 0
M  V30 15724 C 1425.34 -1.63715 -0.589363 0
M  V30 15725 O 1426.51 -1.9531 -0.491537 0
M  V30 15726 C 1423.58 -3.42778 -0.519988 0
M  V30 15727 C 1422.64 -4.27584 0.383496 0
M  V30 15728 C 1421.87 -5.32296 -0.386862 0
M  V30 15729 O 1422.09 -5.4698 -1.61768 0
M  V30 15730 O 1421.03 -6.01408 0.2434 0
M  V30 15731 H 1424.85 -2.82434 1.11647 0
M  V30 15732 H 1422.44 -1.36388 0.609807 0
M  V30 15733 H 1424.32 -4.09862 -0.979357 0
M  V30 15734 H 1423 -2.95362 -1.3245 0
M  V30 15735 H 1421.9 -3.63338 0.890879 0
M  V30 15736 H 1423.24 -4.78505 1.15299 0
M  V30 15737 N 1424.89 -0.604284 -1.45555 0
M  V30 15738 C 1425.84 0.116491 -2.30506 0
M  V30 15739 C 1426.81 0.863214 -1.41908 0
M  V30 15740 O 1427.99 0.849606 -1.7084 0
M  V30 15741 C 1425.13 1.11009 -3.26758 0
M  V30 15742 C 1424.24 0.36458 -4.30459 0
M  V30 15743 C 1423.38 1.34761 -5.13822 0
M  V30 15744 C 1422.42 0.589724 -6.09253 0
M  V30 15745 N 1421.55 1.52187 -6.85408 0
M  V30 15746 H 1426.39 -0.61394 -2.91607 0
M  V30 15747 H 1423.93 -0.314561 -1.43697 0
M  V30 15748 H 1425.89 1.69925 -3.81027 0
M  V30 15749 H 1424.52 1.80797 -2.67418 0
M  V30 15750 H 1423.57 -0.340026 -3.78877 0
M  V30 15751 H 1424.88 -0.226906 -4.98284 0
M  V30 15752 H 1424.04 2.00893 -5.72474 0
M  V30 15753 H 1422.78 1.97302 -4.46008 0
M  V30 15754 H 1421.78 -0.0852486 -5.49734 0
M  V30 15755 H 1423.01 -0.0306001 -6.79093 0
M  V30 15756 H 1420.95 2.13499 -6.20286 0
M  V30 15757 H 1420.87 0.983737 -7.49572 0
M  V30 15758 H 1422.14 2.17287 -7.48603 0
M  V30 15759 N 1426.37 1.53816 -0.343257 0
M  V30 15760 C 1427.3 2.21306 0.556696 0
M  V30 15761 C 1428.28 1.19697 1.10051 0
M  V30 15762 O 1429.46 1.48515 1.16084 0
M  V30 15763 C 1426.59 2.89026 1.76583 0
M  V30 15764 C 1425.63 4.04521 1.35149 0
M  V30 15765 S 1426.47 5.3421 0.37154 0
M  V30 15766 C 1427.62 6.05433 1.58751 0
M  V30 15767 H 1427.86 2.97295 -0.0165367 0
M  V30 15768 H 1425.39 1.53874 -0.127331 0
M  V30 15769 H 1427.35 3.28662 2.45951 0
M  V30 15770 H 1426.01 2.12803 2.31028 0
M  V30 15771 H 1425.2 4.50839 2.25301 0
M  V30 15772 H 1424.8 3.66661 0.737296 0
M  V30 15773 H 1427.1 6.28808 2.52203 0
M  V30 15774 H 1428.04 6.98432 1.16613 0
M  V30 15775 H 1428.45 5.35588 1.78343 0
M  V30 15776 N 1427.84 0.0718701 1.57436 0
M  V30 15777 C 1428.79 -0.895335 2.12726 0
M  V30 15778 C 1429.76 -1.29528 1.03979 0
M  V30 15779 O 1430.95 -1.38113 1.31642 0
M  V30 15780 C 1428.09 -2.15755 2.6934 0
M  V30 15781 C 1427.2 -1.81023 3.92243 0
M  V30 15782 C 1426.33 -3.01856 4.371 0
M  V30 15783 C 1425.37 -2.63141 5.52651 0
M  V30 15784 N 1424.51 -3.76734 5.92466 0
M  V30 15785 H 1429.35 -0.416964 2.95068 0
M  V30 15786 H 1426.89 -0.194165 1.45813 0
M  V30 15787 H 1428.85 -2.89642 3.00272 0
M  V30 15788 H 1427.48 -2.61132 1.89762 0
M  V30 15789 H 1426.53 -0.971983 3.67773 0
M  V30 15790 H 1427.84 -1.4854 4.76169 0
M  V30 15791 H 1426.99 -3.84022 4.69694 0
M  V30 15792 H 1425.73 -3.37533 3.52027 0
M  V30 15793 H 1424.74 -1.79397 5.19708 0
M  V30 15794 H 1425.96 -2.28635 6.39455 0
M  V30 15795 H 1423.91 -4.12173 5.10343 0
M  V30 15796 H 1423.83 -3.48019 6.71132 0
M  V30 15797 H 1425.09 -4.59479 6.29682 0
M  V30 15798 N 1429.32 -1.56304 -0.201686 0
M  V30 15799 C 1430.27 -1.94021 -1.24999 0
M  V30 15800 C 1431.24 -0.799926 -1.45569 0
M  V30 15801 O 1432.42 -1.05752 -1.58811 0
M  V30 15802 C 1429.56 -2.27935 -2.59113 0
M  V30 15803 C 1428.68 -3.54995 -2.46176 0
M  V30 15804 C 1427.81 -3.78262 -3.72949 0
M  V30 15805 C 1426.85 -4.9877 -3.54817 0
M  V30 15806 N 1425.99 -5.18325 -4.73586 0
M  V30 15807 H 1430.83 -2.834 -0.92134 0
M  V30 15808 H 1428.37 -1.40252 -0.44359 0
M  V30 15809 H 1430.32 -2.45613 -3.37239 0
M  V30 15810 H 1428.95 -1.41705 -2.90034 0
M  V30 15811 H 1428.01 -3.45401 -1.59381 0
M  V30 15812 H 1429.32 -4.43277 -2.28708 0
M  V30 15813 H 1428.47 -3.96144 -4.59516 0
M  V30 15814 H 1427.21 -2.88299 -3.93364 0
M  V30 15815 H 1426.22 -4.80818 -2.66635 0
M  V30 15816 H 1427.44 -5.90237 -3.35854 0
M  V30 15817 H 1425.39 -4.31308 -4.94277 0
M  V30 15818 H 1425.3 -6.00774 -4.58919 0
M  V30 15819 H 1426.57 -5.40659 -5.61523 0
M  V30 15820 N 1430.8 0.469154 -1.50455 0
M  V30 15821 C 1431.76 1.5493 -1.68906 0
M  V30 15822 C 1432.76 1.50744 -0.559721 0
M  V30 15823 O 1433.95 1.5333 -0.826781 0
M  V30 15824 C 1431.09 2.94556 -1.71609 0
M  V30 15825 H 1432.28 1.39887 -2.65276 0
M  V30 15826 H 1429.83 0.695667 -1.39965 0
M  V30 15827 H 1430.57 3.15041 -0.769382 0
M  V30 15828 H 1430.35 2.99002 -2.53654 0
M  V30 15829 H 1431.84 3.72973 -1.87831 0
M  V30 15830 N 1432.28 1.40065 0.722464 0
M  V30 15831 C 1433.19 1.42086 1.86678 0
M  V30 15832 C 1434.2 0.314223 1.71139 0
M  V30 15833 O 1435.38 0.55771 1.93524 0
M  V30 15834 C 1432.45 1.27498 3.22405 0
M  V30 15835 C 1431.51 2.48243 3.50248 0
M  V30 15836 C 1430.74 2.34342 4.79499 0
M  V30 15837 O 1430.96 1.35355 5.54108 0
M  V30 15838 O 1429.9 3.23579 5.07523 0
M  V30 15839 H 1433.72 2.38571 1.87929 0
M  V30 15840 H 1431.31 1.21314 0.871968 0
M  V30 15841 H 1433.19 1.21543 4.03491 0
M  V30 15842 H 1431.86 0.341141 3.21897 0
M  V30 15843 H 1430.77 2.59775 2.69199 0
M  V30 15844 H 1432.1 3.40364 3.55547 0
M  V30 15845 N 1433.76 -0.95397 1.25448 0
M  V30 15846 C 1434.67 -2.08452 1.07634 0
M  V30 15847 C 1435.68 -1.73995 0.013294 0
M  V30 15848 O 1436.86 -2.00256 0.214367 0
M  V30 15849 C 1433.92 -3.39606 0.697756 0
M  V30 15850 C 1432.99 -3.87926 1.83881 0
M  V30 15851 C 1432.22 -5.12821 1.47819 0
M  V30 15852 O 1432.44 -5.69172 0.374143 0
M  V30 15853 O 1431.38 -5.55866 2.3086 0
M  V30 15854 H 1435.2 -2.26382 2.02447 0
M  V30 15855 H 1432.79 -1.06877 1.04392 0
M  V30 15856 H 1434.67 -4.18438 0.498778 0
M  V30 15857 H 1433.34 -3.22944 -0.221108 0
M  V30 15858 H 1432.25 -3.10095 2.09265 0
M  V30 15859 H 1433.58 -4.09087 2.73694 0
M  V30 15860 N 1435.24 -1.07045 -1.15668 0
M  V30 15861 C 1436.15 -0.699332 -2.23934 0
M  V30 15862 C 1437.16 0.288036 -1.71599 0
M  V30 15863 O 1438.34 0.135447 -2.00944 0
M  V30 15864 C 1435.4 -0.0994775 -3.46557 0
M  V30 15865 C 1434.46 -1.13968 -4.13896 0
M  V30 15866 C 1433.7 -0.56836 -5.30665 0
M  V30 15867 O 1433.92 0.616556 -5.67058 0
M  V30 15868 O 1432.85 -1.31174 -5.87432 0
M  V30 15869 H 1436.68 -1.60212 -2.58003 0
M  V30 15870 H 1434.26 -0.843202 -1.23331 0
M  V30 15871 H 1436.15 0.23293 -4.20756 0
M  V30 15872 H 1434.82 0.776684 -3.14244 0
M  V30 15873 H 1433.73 -1.5244 -3.41633 0
M  V30 15874 H 1435.06 -1.98764 -4.50282 0
M  V30 15875 N 1436.71 1.32449 -0.85411 0
M  V30 15876 C 1437.94 2.01171 -0.470505 0
M  V30 15877 C 1438.35 1.64356 0.937218 0
M  V30 15878 O 1437.69 0.860565 1.62296 0
M  V30 15879 C 1437.76 3.55583 -0.529241 0
M  V30 15880 C 1437.42 4.15824 -1.89576 0
M  V30 15881 C 1438.42 4.34091 -2.86114 0
M  V30 15882 C 1436.1 4.51911 -2.19276 0
M  V30 15883 C 1438.1 4.87612 -4.10504 0
M  V30 15884 C 1435.78 5.05137 -3.43919 0
M  V30 15885 C 1436.78 5.22936 -4.39349 0
M  V30 15886 O 1436.47 5.75024 -5.61785 0
M  V30 15887 H 1436.2 0.650645 -0.183405 0
M  V30 15888 H 1438.76 1.70015 -1.15257 0
M  V30 15889 H 1436.99 3.86131 0.209671 0
M  V30 15890 H 1438.67 4.05579 -0.161315 0
M  V30 15891 H 1439.44 4.06545 -2.64473 0
M  V30 15892 H 1435.32 4.37343 -1.45782 0
M  V30 15893 H 1438.86 5.0142 -4.84999 0
M  V30 15894 H 1434.76 5.32114 -3.6541 0
M  V30 15895 H 1435.53 5.93418 -5.63736 0
M  V30 15896 N 1438.19 0.611994 1.45232 0
M  V30 15897 C 1439.14 -0.104265 2.30564 0
M  V30 15898 C 1440.11 -0.855676 1.42364 0
M  V30 15899 O 1441.29 -0.840534 1.71288 0
M  V30 15900 C 1438.43 -1.09274 3.27343 0
M  V30 15901 C 1437.55 -0.341747 4.30646 0
M  V30 15902 C 1436.68 -1.32034 5.14529 0
M  V30 15903 C 1435.72 -0.557405 6.09557 0
M  V30 15904 N 1434.86 -1.4855 6.86205 0
M  V30 15905 H 1439.7 0.629396 2.91278 0
M  V30 15906 H 1437.23 0.322177 1.43528 0
M  V30 15907 H 1439.19 -1.67902 3.81923 0
M  V30 15908 H 1437.82 -1.79376 2.68373 0
M  V30 15909 H 1436.87 0.360114 3.78692 0
M  V30 15910 H 1438.19 0.253328 4.98156 0
M  V30 15911 H 1437.34 -1.97854 5.73532 0
M  V30 15912 H 1436.08 -1.94934 4.47048 0
M  V30 15913 H 1435.08 0.114401 5.49681 0
M  V30 15914 H 1436.31 0.0666137 6.79067 0
M  V30 15915 H 1434.26 -2.10207 6.21409 0
M  V30 15916 H 1434.17 -0.943972 7.50083 0
M  V30 15917 H 1435.44 -2.13314 7.49745 0
M  V30 15918 N 1439.67 -1.53632 0.351409 0
M  V30 15919 C 1440.6 -2.28217 -0.49391 0
M  V30 15920 C 1441.58 -1.30085 -1.09599 0
M  V30 15921 O 1442.77 -1.58938 -1.1159 0
M  V30 15922 C 1439.9 -3.06085 -1.64102 0
M  V30 15923 C 1438.85 -4.11786 -1.16689 0
M  V30 15924 C 1438.18 -4.77654 -2.40314 0
M  V30 15925 C 1439.48 -5.21644 -0.261742 0
M  V30 15926 H 1441.17 -2.99125 0.1283 0
M  V30 15927 H 1438.72 -1.43861 0.0631462 0
M  V30 15928 H 1440.67 -3.57003 -2.2389 0
M  V30 15929 H 1439.39 -2.32842 -2.29025 0
M  V30 15930 H 1438.05 -3.61792 -0.591784 0
M  V30 15931 H 1437.7 -4.00997 -3.03661 0
M  V30 15932 H 1437.4 -5.49072 -2.09268 0
M  V30 15933 H 1438.92 -5.3136 -3.00813 0
M  V30 15934 H 1440.34 -5.6815 -0.766689 0
M  V30 15935 H 1438.73 -6.00085 -0.0428132 0
M  V30 15936 H 1439.8 -4.79821 0.699999 0
M  V30 15937 N 1441.15 -0.0802183 -1.57396 0
M  V30 15938 C 1442.06 0.898597 -2.16708 0
M  V30 15939 C 1443.07 1.321 -1.1325 0
M  V30 15940 O 1444.25 1.39197 -1.45554 0
M  V30 15941 C 1441.31 2.14501 -2.72379 0
M  V30 15942 C 1440.38 1.77822 -3.9074 0
M  V30 15943 C 1439.61 2.96521 -4.43747 0
M  V30 15944 O 1439.83 4.10797 -3.9573 0
M  V30 15945 O 1438.77 2.75849 -5.34968 0
M  V30 15946 H 1442.59 0.424027 -3.00725 0
M  V30 15947 H 1440.18 0.14332 -1.48711 0
M  V30 15948 H 1442.06 2.87575 -3.08024 0
M  V30 15949 H 1440.73 2.61039 -1.91416 0
M  V30 15950 H 1439.64 1.01974 -3.59934 0
M  V30 15951 H 1440.97 1.36059 -4.73021 0
M  V30 15952 N 1442.63 1.56409 0.193394 0
M  V30 15953 C 1443.57 1.94681 1.23968 0
M  V30 15954 C 1444.54 0.807634 1.45143 0
M  V30 15955 O 1445.73 1.06593 1.58248 0
M  V30 15956 C 1442.87 2.29306 2.57901 0
M  V30 15957 C 1441.98 3.56296 2.4429 0
M  V30 15958 C 1441.12 3.80235 3.70938 0
M  V30 15959 C 1440.15 5.00645 3.52167 0
M  V30 15960 N 1439.29 5.20829 4.70831 0
M  V30 15961 H 1444.13 2.83884 0.906298 0
M  V30 15962 H 1441.67 1.40486 0.436146 0
M  V30 15963 H 1443.63 2.47398 3.35932 0
M  V30 15964 H 1442.26 1.43241 2.89278 0
M  V30 15965 H 1441.31 3.46241 1.57547 0
M  V30 15966 H 1442.62 4.44483 2.26354 0
M  V30 15967 H 1441.77 3.98575 4.57408 0
M  V30 15968 H 1440.51 2.90381 3.91829 0
M  V30 15969 H 1439.52 4.82225 2.64081 0
M  V30 15970 H 1440.74 5.92009 3.32719 0
M  V30 15971 H 1438.69 4.33923 4.91983 0
M  V30 15972 H 1438.61 6.03199 4.55726 0
M  V30 15973 H 1439.87 5.4363 5.58648 0
M  V30 15974 N 1444.1 -0.461169 1.50702 0
M  V30 15975 C 1445.01 -1.58355 1.73092 0
M  V30 15976 C 1446.03 -1.62795 0.61431 0
M  V30 15977 O 1447.21 -1.8048 0.893806 0
M  V30 15978 C 1444.27 -2.94509 1.82936 0
M  V30 15979 C 1443.33 -3.00378 3.06711 0
M  V30 15980 C 1442.56 -4.30037 3.16076 0
M  V30 15981 O 1442.79 -5.21097 2.31978 0
M  V30 15982 O 1441.72 -4.41702 4.08881 0
M  V30 15983 H 1445.55 -1.42384 2.68255 0
M  V30 15984 H 1443.13 -0.641709 1.34916 0
M  V30 15985 H 1445.01 -3.75357 1.91534 0
M  V30 15986 H 1443.69 -3.10658 0.909581 0
M  V30 15987 H 1442.6 -2.18571 3.03608 0
M  V30 15988 H 1443.93 -2.89167 3.983 0
M  V30 15989 N 1445.58 -1.40446 -0.715026 0
M  V30 15990 C 1446.49 -1.43074 -1.85922 0
M  V30 15991 C 1447.51 -0.323294 -1.7097 0
M  V30 15992 O 1448.68 -0.567966 -1.93226 0
M  V30 15993 C 1445.75 -1.29206 -3.21725 0
M  V30 15994 C 1444.81 -2.50097 -3.48927 0
M  V30 15995 C 1444.04 -2.36881 -4.7825 0
M  V30 15996 O 1444.27 -1.38292 -5.53382 0
M  V30 15997 O 1443.2 -3.26266 -5.058 0
M  V30 15998 H 1447.03 -2.39565 -1.86661 0
M  V30 15999 H 1444.61 -1.21775 -0.865522 0
M  V30 16000 H 1446.49 -1.23681 -4.02841 0
M  V30 16001 H 1445.17 -0.358207 -3.21712 0
M  V30 16002 H 1444.07 -2.61199 -2.67817 0
M  V30 16003 H 1445.41 -3.42244 -3.53737 0
M  V30 16004 N 1447.06 0.947303 -1.25952 0
M  V30 16005 C 1447.97 2.07878 -1.08738 0
M  V30 16006 C 1448.99 1.73985 -0.0225212 0
M  V30 16007 O 1450.16 2.00139 -0.224984 0
M  V30 16008 C 1447.23 3.39231 -0.715756 0
M  V30 16009 C 1446.29 3.86945 -1.85935 0
M  V30 16010 C 1445.52 5.1203 -1.50537 0
M  V30 16011 O 1445.74 5.68965 -0.404323 0
M  V30 16012 O 1444.68 5.54634 -2.33805 0
M  V30 16013 H 1448.5 2.25305 -2.03645 0
M  V30 16014 H 1446.09 1.06321 -1.04958 0
M  V30 16015 H 1447.97 4.18167 -0.520962 0
M  V30 16016 H 1446.65 3.23057 0.203978 0
M  V30 16017 H 1445.55 3.08981 -2.10906 0
M  V30 16018 H 1446.89 4.0763 -2.75859 0
M  V30 16019 N 1448.54 1.07657 1.15099 0
M  V30 16020 C 1449.79 0.796589 1.85303 0
M  V30 16021 C 1450.1 -0.679887 1.83404 0
M  V30 16022 O 1451.31 -1.07475 2.49322 0
M  V30 16023 C 1449.76 1.37495 3.326 0
M  V30 16024 C 1449.37 2.88267 3.42938 0
M  V30 16025 C 1451.11 1.17313 4.07968 0
M  V30 16026 C 1449.02 3.39278 4.84401 0
M  V30 16027 H 1447.95 0.294316 0.694186 0
M  V30 16028 H 1450.6 1.29702 1.29806 0
M  V30 16029 H 1448.98 0.802248 3.87789 0
M  V30 16030 H 1450.16 3.51608 2.9784 0
M  V30 16031 H 1448.47 3.07275 2.81018 0
M  V30 16032 H 1451.07 1.52899 5.12373 0
M  V30 16033 H 1451.41 0.112387 4.16148 0
M  V30 16034 H 1451.95 1.71236 3.59059 0
M  V30 16035 H 1448.69 4.44892 4.81406 0
M  V30 16036 H 1448.21 2.80692 5.30068 0
M  V30 16037 H 1449.88 3.35416 5.53267 0
M  V30 16038 N 1450.02 -1.31994 0.861122 0
M  V30 16039 C 1451.24 -2.01745 0.481013 0
M  V30 16040 C 1451.67 -1.6426 -0.916527 0
M  V30 16041 O 1451.02 -0.846603 -1.60319 0
M  V30 16042 C 1451.07 -3.54963 0.635134 0
M  V30 16043 O 1450.18 -4.11083 -0.329337 0
M  V30 16044 H 1449.52 -0.635499 0.192452 0
M  V30 16045 H 1452.05 -1.68394 1.1621 0
M  V30 16046 H 1452.06 -4.04607 0.525089 0
M  V30 16047 H 1450.73 -3.81587 1.65422 0
M  V30 16048 H 1449.31 -3.72489 -0.174989 0
M  V30 16049 N 1451.49 -0.619688 -1.44906 0
M  V30 16050 C 1452.44 0.104373 -2.32366 0
M  V30 16051 C 1453.44 0.847423 -1.4668 0
M  V30 16052 O 1454.64 0.761618 -1.63093 0
M  V30 16053 H 1451.02 0.0525126 -0.750164 0
M  V30 16054 H 1452.99 -0.651525 -2.912 0
M  V30 16055 C 1451.74 1.08017 -3.30496 0
M  V30 16056 H 1451.06 0.517831 -3.96432 0
M  V30 16057 H 1452.5 1.5565 -3.94397 0
M  V30 16058 C 1450.96 2.15975 -2.58566 0
M  V30 16059 O 1451.49 3.23895 -2.37603 0
M  V30 16060 N 1449.7 1.91593 -2.18496 0
M  V30 16061 H 1449.24 1.03835 -2.35746 0
M  V30 16062 H 1449.2 2.64028 -1.70694 0
M  V30 16063 N 1452.97 1.53444 -0.359552 0
M  V30 16064 C 1453.9 2.28475 0.4818 0
M  V30 16065 C 1454.88 1.30664 1.08908 0
M  V30 16066 O 1456.07 1.59527 1.10746 0
M  V30 16067 C 1453.2 3.06951 1.62477 0
M  V30 16068 C 1452.15 4.12399 1.14504 0
M  V30 16069 C 1451.48 4.78922 2.37777 0
M  V30 16070 C 1452.78 5.21775 0.234075 0
M  V30 16071 H 1454.47 2.99053 -0.144162 0
M  V30 16072 H 1452.02 1.43826 -0.0707746 0
M  V30 16073 H 1453.97 3.58186 2.21993 0
M  V30 16074 H 1452.7 2.34053 2.27787 0
M  V30 16075 H 1451.35 3.62101 0.572589 0
M  V30 16076 H 1451 4.02602 3.0153 0
M  V30 16077 H 1450.7 5.50175 2.06353 0
M  V30 16078 H 1452.23 5.32948 2.97991 0
M  V30 16079 H 1453.64 5.68549 0.736548 0
M  V30 16080 H 1452.04 6.00099 0.0109887 0
M  V30 16081 H 1453.11 4.79443 -0.725435 0
M  V30 16082 N 1454.45 0.0885642 1.57351 0
M  V30 16083 C 1455.4 -0.872723 2.13664 0
M  V30 16084 C 1456.37 -1.28418 1.05347 0
M  V30 16085 O 1457.55 -1.36709 1.33099 0
M  V30 16086 C 1454.69 -2.12886 2.71613 0
M  V30 16087 C 1453.81 -1.76852 3.94141 0
M  V30 16088 C 1452.94 -2.97203 4.40277 0
M  V30 16089 C 1451.98 -2.57265 5.55411 0
M  V30 16090 N 1451.12 -3.70429 5.96428 0
M  V30 16091 H 1455.96 -0.385644 2.95494 0
M  V30 16092 H 1453.49 -0.178688 1.46011 0
M  V30 16093 H 1455.45 -2.86441 3.03327 0
M  V30 16094 H 1454.08 -2.59105 1.92521 0
M  V30 16095 H 1453.13 -0.932921 3.68783 0
M  V30 16096 H 1454.45 -1.43481 4.77718 0
M  V30 16097 H 1453.6 -3.79019 4.7374 0
M  V30 16098 H 1452.34 -3.3378 3.55587 0
M  V30 16099 H 1451.34 -1.73875 5.21582 0
M  V30 16100 H 1452.57 -2.21839 6.41844 0
M  V30 16101 H 1450.51 -4.06737 5.14686 0
M  V30 16102 H 1450.43 -3.40881 6.74786 0
M  V30 16103 H 1451.7 -4.52774 6.3452 0
M  V30 16104 N 1455.93 -1.56509 -0.185096 0
M  V30 16105 C 1456.89 -1.94468 -1.21305 0
M  V30 16106 C 1457.89 -0.826838 -1.37913 0
M  V30 16107 O 1459.08 -1.09411 -1.35554 0
M  V30 16108 C 1456.21 -2.22747 -2.58063 0
M  V30 16109 H 1457.41 -2.86442 -0.888323 0
M  V30 16110 H 1454.96 -1.50354 -0.427012 0
M  V30 16111 H 1455.69 -1.33443 -2.95573 0
M  V30 16112 H 1455.48 -3.04215 -2.47378 0
M  V30 16113 H 1456.97 -2.53084 -3.32172 0
M  V30 16114 N 1457.41 0.45317 -1.50944 0
M  V30 16115 C 1458.37 1.5313 -1.7054 0
M  V30 16116 C 1459.37 1.50142 -0.575678 0
M  V30 16117 O 1460.56 1.52444 -0.842997 0
M  V30 16118 C 1457.69 2.92719 -1.74723 0
M  V30 16119 H 1458.88 1.37066 -2.66745 0
M  V30 16120 H 1456.44 0.680783 -1.40695 0
M  V30 16121 H 1457.17 3.14208 -0.802753 0
M  V30 16122 H 1456.96 2.96295 -2.56811 0
M  V30 16123 H 1458.45 3.7096 -1.91777 0
M  V30 16124 N 1458.88 1.40823 0.707568 0
M  V30 16125 C 1460.13 1.39535 1.46753 0
M  V30 16126 C 1460.46 0.000370511 1.945 0
M  V30 16127 O 1459.71 -0.985628 1.69068 0
M  V30 16128 C 1460.01 2.33829 2.70294 0
M  V30 16129 C 1459.68 3.8092 2.41269 0
M  V30 16130 C 1458.34 4.20993 2.33063 0
M  V30 16131 C 1460.69 4.73839 2.17086 0
M  V30 16132 C 1458.02 5.52009 1.98754 0
M  V30 16133 C 1460.37 6.05161 1.84289 0
M  V30 16134 C 1459.04 6.44268 1.74571 0
M  V30 16135 H 1458.31 0.510593 0.537006 0
M  V30 16136 H 1460.95 1.73536 0.809789 0
M  V30 16137 H 1459.26 1.9304 3.40944 0
M  V30 16138 H 1460.96 2.30111 3.28405 0
M  V30 16139 H 1457.55 3.49175 2.48545 0
M  V30 16140 H 1461.73 4.43691 2.22377 0
M  V30 16141 H 1456.99 5.81202 1.89774 0
M  V30 16142 H 1461.16 6.7667 1.64593 0
M  V30 16143 H 1458.79 7.45703 1.47753 0
M  V30 16144 N 1460.36 -0.94061 1.26453 0
M  V30 16145 C 1461.27 -2.07298 1.09839 0
M  V30 16146 C 1462.29 -1.73971 0.0317477 0
M  V30 16147 O 1463.46 -2.00017 0.235594 0
M  V30 16148 C 1460.53 -3.38847 0.733736 0
M  V30 16149 C 1459.59 -3.85954 1.87985 0
M  V30 16150 C 1458.82 -5.11224 1.5325 0
M  V30 16151 O 1459.05 -5.68743 0.434491 0
M  V30 16152 O 1457.98 -5.53386 2.36743 0
M  V30 16153 H 1461.81 -2.24222 2.04837 0
M  V30 16154 H 1459.39 -1.05763 1.0552 0
M  V30 16155 H 1461.27 -4.17885 0.543131 0
M  V30 16156 H 1459.95 -3.2316 -0.186843 0
M  V30 16157 H 1458.86 -3.07858 2.12542 0
M  V30 16158 H 1460.19 -4.06162 2.78017 0
M  V30 16159 N 1461.84 -1.08266 -1.14527 0
M  V30 16160 C 1462.79 -0.711332 -2.19565 0
M  V30 16161 C 1463.76 0.301774 -1.63336 0
M  V30 16162 O 1464.94 0.186109 -1.8989 0
M  V30 16163 C 1462.08 -0.125255 -3.44873 0
M  V30 16164 C 1461.2 -1.19096 -4.15259 0
M  V30 16165 C 1460.33 -0.568901 -5.28145 0
M  V30 16166 C 1459.37 -1.61675 -5.90362 0
M  V30 16167 N 1458.51 -1.01659 -6.94701 0
M  V30 16168 H 1463.35 -1.61137 -2.50677 0
M  V30 16169 H 1460.88 -0.805286 -1.231 0
M  V30 16170 H 1462.84 0.232247 -4.16553 0
M  V30 16171 H 1461.47 0.738101 -3.14248 0
M  V30 16172 H 1460.52 -1.66591 -3.41982 0
M  V30 16173 H 1461.84 -1.98508 -4.57598 0
M  V30 16174 H 1460.99 -0.159563 -6.0649 0
M  V30 16175 H 1459.73 0.256884 -4.87023 0
M  V30 16176 H 1458.73 -2.03576 -5.10722 0
M  V30 16177 H 1459.96 -2.44498 -6.33559 0
M  V30 16178 H 1457.9 -0.211872 -6.55658 0
M  V30 16179 H 1457.82 -1.74781 -7.35518 0
M  V30 16180 H 1459.09 -0.63306 -7.76925 0
M  V30 16181 N 1463.32 1.31536 -0.86811 0
M  V30 16182 C 1464.27 2.30504 -0.311581 0
M  V30 16183 C 1465.26 1.59439 0.572332 0
M  V30 16184 O 1466.47 1.74059 0.458639 0
M  V30 16185 H 1462.84 0.747508 -0.0820745 0
M  V30 16186 H 1464.81 2.74919 -1.16026 0
M  V30 16187 C 1463.56 3.44459 0.473622 0
M  V30 16188 H 1462.89 3.99313 -0.197259 0
M  V30 16189 H 1464.33 4.15829 0.828393 0
M  V30 16190 C 1462.78 2.92929 1.66416 0
M  V30 16191 O 1463.31 2.91543 2.76344 0
M  V30 16192 N 1461.52 2.49154 1.49568 0
M  V30 16193 H 1461.07 2.50481 0.601408 0
M  V30 16194 H 1461.03 2.15032 2.29366 0
M  V30 16195 N 1464.8 0.627364 1.44575 0
M  V30 16196 C 1466.05 0.127824 2.01295 0
M  V30 16197 C 1466.36 -1.25647 1.49907 0
M  V30 16198 O 1467.57 -1.84982 1.9873 0
M  V30 16199 C 1466.02 0.177775 3.59461 0
M  V30 16200 C 1465.63 1.56315 4.19845 0
M  V30 16201 C 1467.37 -0.265497 4.23669 0
M  V30 16202 C 1465.28 1.56842 5.70223 0
M  V30 16203 H 1464.21 0.0440205 0.752714 0
M  V30 16204 H 1466.86 0.785607 1.65833 0
M  V30 16205 H 1465.24 -0.547038 3.92203 0
M  V30 16206 H 1466.42 2.31125 3.98645 0
M  V30 16207 H 1464.73 1.95019 3.67909 0
M  V30 16208 H 1467.33 -0.281038 5.33961 0
M  V30 16209 H 1467.67 -1.29208 3.95741 0
M  V30 16210 H 1468.21 0.406698 3.95716 0
M  V30 16211 H 1464.94 2.57325 6.0288 0
M  V30 16212 H 1464.46 0.863198 5.93556 0
M  V30 16213 H 1466.14 1.30071 6.33791 0
M  V30 16214 N 1466.28 -1.53251 0.367684 0
M  V30 16215 C 1467.22 -2.27318 -0.4929 0
M  V30 16216 C 1468.22 -1.30376 -1.08159 0
M  V30 16217 O 1469.42 -1.47996 -1.02455 0
M  V30 16218 H 1465.8 -0.730709 -0.177677 0
M  V30 16219 H 1467.77 -2.98005 0.153525 0
M  V30 16220 C 1466.52 -3.07678 -1.61955 0
M  V30 16221 H 1465.84 -3.82117 -1.17587 0
M  V30 16222 H 1467.28 -3.62678 -2.19638 0
M  V30 16223 C 1465.74 -2.18648 -2.5631 0
M  V30 16224 O 1466.27 -1.79869 -3.5918 0
M  V30 16225 N 1464.48 -1.83239 -2.25548 0
M  V30 16226 H 1464.02 -2.14973 -1.4193 0
M  V30 16227 H 1463.98 -1.23957 -2.88933 0
M  V30 16228 N 1467.75 -0.0969077 -1.57302 0
M  V30 16229 C 1468.98 0.574705 -1.98758 0
M  V30 16230 C 1469.4 1.61612 -0.976067 0
M  V30 16231 O 1468.75 1.82468 0.0340803 0
M  V30 16232 C 1468.8 1.22078 -3.40263 0
M  V30 16233 O 1468.53 0.221022 -4.37542 0
M  V30 16234 C 1470.03 1.97783 -3.96732 0
M  V30 16235 H 1467.25 0.153934 -0.653104 0
M  V30 16236 H 1469.79 -0.17673 -2.03735 0
M  V30 16237 H 1467.95 1.92314 -3.36295 0
M  V30 16238 H 1468.36 0.687583 -5.19974 0
M  V30 16239 H 1469.83 2.38346 -4.97891 0
M  V30 16240 H 1470.31 2.8444 -3.3465 0
M  V30 16241 H 1470.92 1.3236 -4.04179 0
M  V30 16242 N 1469.23 1.56605 0.176793 0
M  V30 16243 C 1470.14 1.99211 1.23903 0
M  V30 16244 C 1471.16 0.902614 1.48758 0
M  V30 16245 O 1472.33 1.20982 1.61014 0
M  V30 16246 C 1469.4 2.33873 2.55938 0
M  V30 16247 C 1468.46 3.56624 2.38994 0
M  V30 16248 C 1467.69 3.89623 3.64733 0
M  V30 16249 O 1467.92 3.23662 4.6968 0
M  V30 16250 O 1466.85 4.82992 3.5917 0
M  V30 16251 H 1470.68 2.89827 0.907398 0
M  V30 16252 H 1468.26 1.44401 0.383234 0
M  V30 16253 H 1470.14 2.57161 3.33836 0
M  V30 16254 H 1468.82 1.46421 2.88691 0
M  V30 16255 H 1467.72 3.38561 1.59146 0
M  V30 16256 H 1469.06 4.446 2.11167 0
M  V30 16257 N 1470.71 -0.445159 1.51182 0
M  V30 16258 C 1472.13 -0.781023 1.39184 0
M  V30 16259 C 1472.33 -1.95988 0.468076 0
M  V30 16260 O 1471.38 -2.52374 -0.0796822 0
M  V30 16261 C 1472.69 -1.06874 2.81067 0
M  V30 16262 C 1474.24 -1.17364 2.90163 0
M  V30 16263 C 1474.72 -1.49433 4.32936 0
M  V30 16264 N 1476.21 -1.56373 4.36006 0
M  V30 16265 C 1476.94 -1.82743 5.435 0
M  V30 16266 N 1476.44 -2.06958 6.61166 0
M  V30 16267 N 1478.23 -1.84461 5.30971 0
M  V30 16268 H 1470.38 0.331347 2.098 0
M  V30 16269 H 1472.65 0.0858102 0.944108 0
M  V30 16270 H 1472.35 -0.275306 3.50621 0
M  V30 16271 H 1472.23 -1.99839 3.19913 0
M  V30 16272 H 1474.61 -1.95771 2.20812 0
M  V30 16273 H 1474.69 -0.22318 2.54825 0
M  V30 16274 H 1474.34 -0.715573 5.02834 0
M  V30 16275 H 1474.27 -2.45673 4.65782 0
M  V30 16276 H 1476.76 -1.39595 3.51172 0
M  V30 16277 H 1477.07 -2.26427 7.38885 0
M  V30 16278 H 1475.42 -2.04297 6.64295 0
M  V30 16279 H 1478.61 -1.65057 4.38034 0
M  V30 16280 H 1478.78 -2.04675 6.14827 0
M  V30 16281 N 1472.19 -1.41197 -0.700089 0
M  V30 16282 C 1473.42 -1.43658 -1.48896 0
M  V30 16283 C 1473.83 -0.0405771 -1.88756 0
M  V30 16284 O 1473.19 0.93909 -1.56484 0
M  V30 16285 C 1473.24 -2.34125 -2.75441 0
M  V30 16286 O 1472.96 -3.68291 -2.37261 0
M  V30 16287 C 1474.46 -2.45342 -3.69218 0
M  V30 16288 H 1471.68 -0.48945 -0.458999 0
M  V30 16289 H 1474.22 -1.85429 -0.862345 0
M  V30 16290 H 1472.38 -1.95674 -3.34351 0
M  V30 16291 H 1472.79 -4.16495 -3.18798 0
M  V30 16292 H 1474.27 -3.12818 -4.54807 0
M  V30 16293 H 1474.74 -1.48327 -4.13395 0
M  V30 16294 H 1475.35 -2.84409 -3.16214 0
M  V30 16295 N 1473.67 0.933891 -1.2695 0
M  V30 16296 C 1474.6 2.05078 -1.11649 0
M  V30 16297 C 1475.58 1.70089 -0.0196463 0
M  V30 16298 O 1476.76 1.93239 -0.193007 0
M  V30 16299 C 1473.89 3.38963 -0.756387 0
M  V30 16300 C 1472.85 3.88041 -1.80577 0
M  V30 16301 C 1472.17 5.18661 -1.2998 0
M  V30 16302 C 1473.47 4.12116 -3.2087 0
M  V30 16303 H 1475.17 2.18137 -2.05077 0
M  V30 16304 H 1472.71 1.04817 -0.987392 0
M  V30 16305 H 1474.66 4.1657 -0.63619 0
M  V30 16306 H 1473.39 3.25901 0.213607 0
M  V30 16307 H 1472.05 3.12622 -1.91477 0
M  V30 16308 H 1471.7 5.01985 -0.319442 0
M  V30 16309 H 1471.4 5.52467 -2.00134 0
M  V30 16310 H 1472.92 5.98844 -1.19242 0
M  V30 16311 H 1474.33 4.80312 -3.13006 0
M  V30 16312 H 1472.73 4.57218 -3.88679 0
M  V30 16313 H 1473.8 3.17633 -3.66384 0
M  V30 16314 N 1475.14 1.08871 1.13951 0
M  V30 16315 C 1476.09 0.722966 2.19184 0
M  V30 16316 C 1477.06 -0.293108 1.63493 0
M  V30 16317 O 1478.25 -0.176036 1.89986 0
M  V30 16318 C 1475.39 0.143542 3.44801 0
M  V30 16319 C 1474.5 1.21297 4.14622 0
M  V30 16320 C 1473.63 0.596902 5.27836 0
M  V30 16321 C 1472.67 1.64803 5.89497 0
M  V30 16322 N 1471.81 1.05341 6.94152 0
M  V30 16323 H 1476.65 1.62464 2.49819 0
M  V30 16324 H 1474.19 0.811803 1.22671 0
M  V30 16325 H 1476.14 -0.210153 4.1667 0
M  V30 16326 H 1474.77 -0.721426 3.14635 0
M  V30 16327 H 1473.83 1.68403 3.41093 0
M  V30 16328 H 1475.14 2.00931 4.56539 0
M  V30 16329 H 1474.29 0.191724 6.06397 0
M  V30 16330 H 1473.03 -0.231052 4.87152 0
M  V30 16331 H 1472.04 2.06282 5.09635 0
M  V30 16332 H 1473.26 2.47855 6.32254 0
M  V30 16333 H 1471.21 0.24664 6.55536 0
M  V30 16334 H 1471.12 1.7868 7.34581 0
M  V30 16335 H 1472.39 0.674253 7.76578 0
M  V30 16336 N 1476.62 -1.31073 0.875073 0
M  V30 16337 C 1477.85 -2.00688 0.503179 0
M  V30 16338 C 1478.26 -1.65657 -0.905714 0
M  V30 16339 O 1477.62 -0.888468 -1.59413 0
M  V30 16340 C 1477.67 -3.55486 0.65666 0
M  V30 16341 O 1477.39 -3.89265 2.01007 0
M  V30 16342 C 1478.89 -4.42374 0.28645 0
M  V30 16343 H 1476.11 -0.641885 0.195512 0
M  V30 16344 H 1478.66 -1.67188 1.17765 0
M  V30 16345 H 1476.81 -3.87389 0.0296852 0
M  V30 16346 H 1477.23 -4.83978 2.02153 0
M  V30 16347 H 1478.7 -5.50205 0.444776 0
M  V30 16348 H 1479.18 -4.32312 -0.774789 0
M  V30 16349 H 1479.78 -4.15898 0.889336 0
M  V30 16350 N 1478.1 -0.635022 -1.4424 0
M  V30 16351 C 1479.03 0.106038 -2.28955 0
M  V30 16352 C 1480.05 0.805076 -1.415 0
M  V30 16353 O 1481.23 0.665872 -1.65615 0
M  V30 16354 C 1478.33 1.17252 -3.1797 0
M  V30 16355 C 1477.51 0.555225 -4.33862 0
M  V30 16356 C 1476.57 1.51618 -5.03883 0
M  V30 16357 O 1475.59 1.03181 -5.5977 0
M  V30 16358 N 1476.79 2.85048 -5.05696 0
M  V30 16359 H 1479.56 -0.620999 -2.93196 0
M  V30 16360 H 1477.12 -0.476466 -1.5473 0
M  V30 16361 H 1479.11 1.81578 -3.61679 0
M  V30 16362 H 1477.68 1.80174 -2.55453 0
M  V30 16363 H 1476.9 -0.266745 -3.93296 0
M  V30 16364 H 1478.19 0.123529 -5.0865 0
M  V30 16365 H 1477.59 3.26977 -4.6163 0
M  V30 16366 H 1476.15 3.44724 -5.5318 0
M  V30 16367 N 1479.58 1.53054 -0.375806 0
M  V30 16368 C 1480.54 2.24666 0.453608 0
M  V30 16369 C 1481.54 1.25816 1.00135 0
M  V30 16370 O 1482.73 1.50016 0.885481 0
M  V30 16371 C 1479.86 2.99131 1.63503 0
M  V30 16372 H 1481.06 2.994 -0.173172 0
M  V30 16373 H 1478.61 1.55778 -0.127673 0
M  V30 16374 H 1479.34 2.28666 2.29962 0
M  V30 16375 H 1479.13 3.71671 1.24913 0
M  V30 16376 H 1480.62 3.53542 2.22256 0
M  V30 16377 N 1481.06 0.105248 1.57248 0
M  V30 16378 C 1482.3 -0.556878 1.95004 0
M  V30 16379 C 1482.64 -1.672 0.987818 0
M  V30 16380 O 1481.91 -1.94487 0.022616 0
M  V30 16381 C 1482.19 -1.10252 3.42807 0
M  V30 16382 C 1482.05 0.00823908 4.49799 0
M  V30 16383 C 1483.37 -1.99774 3.92146 0
M  V30 16384 H 1480.48 -0.200959 0.709073 0
M  V30 16385 H 1483.13 0.178019 1.89164 0
M  V30 16386 H 1481.28 -1.7288 3.47915 0
M  V30 16387 H 1482.95 0.642944 4.56797 0
M  V30 16388 H 1481.19 0.673265 4.28544 0
M  V30 16389 H 1481.86 -0.414538 5.50441 0
M  V30 16390 H 1484.34 -1.47036 3.89255 0
M  V30 16391 H 1483.21 -2.34874 4.9611 0
M  V30 16392 H 1483.48 -2.91902 3.32033 0
M  V30 16393 N 1482.53 -1.56697 -0.168486 0
M  V30 16394 C 1483.48 -1.9755 -1.22787 0
M  V30 16395 C 1484.48 -0.864668 -1.4567 0
M  V30 16396 O 1485.68 -1.04979 -1.46217 0
M  V30 16397 H 1482.06 -0.628561 -0.412813 0
M  V30 16398 H 1484.03 -2.85845 -0.85646 0
M  V30 16399 C 1482.78 -2.35394 -2.559 0
M  V30 16400 H 1482.1 -3.20412 -2.39115 0
M  V30 16401 H 1483.54 -2.67821 -3.28706 0
M  V30 16402 C 1482 -1.19842 -3.14864 0
M  V30 16403 O 1482.53 -0.487601 -3.9873 0
M  V30 16404 N 1480.74 -0.968249 -2.73995 0
M  V30 16405 H 1480.28 -1.54804 -2.05897 0
M  V30 16406 H 1480.24 -0.196951 -3.13783 0
M  V30 16407 N 1484.01 0.437135 -1.51416 0
M  V30 16408 C 1484.96 1.53061 -1.72745 0
M  V30 16409 C 1485.93 1.56045 -0.569149 0
M  V30 16410 O 1487.11 1.73052 -0.803602 0
M  V30 16411 C 1484.25 2.90774 -1.85861 0
M  V30 16412 C 1483.37 2.97318 -3.1341 0
M  V30 16413 C 1482.5 4.26156 -3.1712 0
M  V30 16414 C 1481.54 4.26568 -4.38983 0
M  V30 16415 N 1480.68 5.4693 -4.40241 0
M  V30 16416 H 1485.52 1.34177 -2.66084 0
M  V30 16417 H 1483.06 0.651803 -1.31871 0
M  V30 16418 H 1485.01 3.7068 -1.91447 0
M  V30 16419 H 1483.64 3.08216 -0.959306 0
M  V30 16420 H 1482.7 2.10074 -3.17132 0
M  V30 16421 H 1484.01 2.93485 -4.03321 0
M  V30 16422 H 1483.16 5.14435 -3.21623 0
M  V30 16423 H 1481.9 4.32646 -2.25098 0
M  V30 16424 H 1480.91 3.36681 -4.34656 0
M  V30 16425 H 1482.13 4.21741 -5.3227 0
M  V30 16426 H 1480.08 5.54141 -3.51089 0
M  V30 16427 H 1479.99 5.44977 -5.23962 0
M  V30 16428 H 1481.26 6.37241 -4.48937 0
M  V30 16429 N 1485.49 1.41566 0.692592 0
M  V30 16430 C 1486.42 1.46423 1.81886 0
M  V30 16431 C 1487.4 0.32258 1.67013 0
M  V30 16432 O 1488.59 0.534437 1.86701 0
M  V30 16433 C 1485.72 1.3486 3.20047 0
M  V30 16434 C 1484.67 2.46867 3.49629 0
M  V30 16435 C 1484 2.20369 4.87177 0
M  V30 16436 C 1485.3 3.89205 3.48306 0
M  V30 16437 H 1486.99 2.40683 1.78079 0
M  V30 16438 H 1484.54 1.15845 0.855334 0
M  V30 16439 H 1486.49 1.36869 3.98553 0
M  V30 16440 H 1485.21 0.370859 3.24488 0
M  V30 16441 H 1483.87 2.44146 2.73475 0
M  V30 16442 H 1483.52 1.20931 4.88247 0
M  V30 16443 H 1483.22 2.95426 5.07934 0
M  V30 16444 H 1484.74 2.24099 5.6799 0
M  V30 16445 H 1486.16 3.93626 4.16811 0
M  V30 16446 H 1484.56 4.63969 3.80595 0
M  V30 16447 H 1485.63 4.17144 2.47222 0
M  V30 16448 N 1486.97 -0.927146 1.27443 0
M  V30 16449 C 1487.93 -2.00938 1.10257 0
M  V30 16450 C 1488.93 -1.60733 0.0463898 0
M  V30 16451 O 1490.12 -1.71752 0.291029 0
M  V30 16452 C 1487.25 -3.34047 0.680115 0
M  V30 16453 H 1488.45 -2.17615 2.06358 0
M  V30 16454 H 1486 -1.10802 1.10239 0
M  V30 16455 H 1486.73 -3.23069 -0.282259 0
M  V30 16456 H 1486.52 -3.64585 1.44291 0
M  V30 16457 H 1488.01 -4.13523 0.582126 0
M  V30 16458 N 1488.45 -1.09474 -1.13372 0
M  V30 16459 C 1489.36 -0.746674 -2.224 0
M  V30 16460 C 1490.37 0.251572 -1.72172 0
M  V30 16461 O 1491.55 0.092793 -2.01186 0
M  V30 16462 C 1488.61 -0.172965 -3.46268 0
M  V30 16463 C 1487.67 -1.22722 -4.11385 0
M  V30 16464 C 1486.91 -0.680794 -5.2934 0
M  V30 16465 O 1487.13 0.496135 -5.68238 0
M  V30 16466 O 1486.06 -1.43605 -5.84518 0
M  V30 16467 H 1489.89 -1.65649 -2.54547 0
M  V30 16468 H 1487.48 -0.869172 -1.21514 0
M  V30 16469 H 1489.36 0.143629 -4.21155 0
M  V30 16470 H 1488.03 0.709853 -3.15821 0
M  V30 16471 H 1486.94 -1.59652 -3.38323 0
M  V30 16472 H 1488.27 -2.0827 -4.45965 0
M  V30 16473 N 1489.92 1.30607 -0.882012 0
M  V30 16474 C 1491.17 1.95531 -0.495038 0
M  V30 16475 C 1491.49 1.70418 0.96005 0
M  V30 16476 O 1492.69 2.29301 1.45373 0
M  V30 16477 C 1491.15 3.50094 -0.834382 0
M  V30 16478 C 1490.76 3.84031 -2.30704 0
M  V30 16479 C 1492.5 4.21347 -0.516463 0
M  V30 16480 C 1490.41 5.31759 -2.58817 0
M  V30 16481 H 1489.34 0.731854 -0.181399 0
M  V30 16482 H 1491.99 1.486 -1.07658 0
M  V30 16483 H 1490.37 3.95582 -0.181961 0
M  V30 16484 H 1491.54 3.49463 -3.00353 0
M  V30 16485 H 1489.86 3.25874 -2.5922 0
M  V30 16486 H 1492.46 5.30051 -0.703576 0
M  V30 16487 H 1492.8 4.12731 0.543935 0
M  V30 16488 H 1493.33 3.81533 -1.12595 0
M  V30 16489 H 1490.07 5.45422 -3.63586 0
M  V30 16490 H 1489.59 5.67637 -1.93774 0
M  V30 16491 H 1491.27 5.9916 -2.44165 0
M  V30 16492 N 1491.4 0.642663 1.43901 0
M  V30 16493 C 1492.34 -0.104884 2.27959 0
M  V30 16494 C 1493.31 -0.840134 1.39214 0
M  V30 16495 O 1494.5 -0.841868 1.68656 0
M  V30 16496 C 1491.62 -1.15496 3.184 0
M  V30 16497 C 1490.67 -0.518946 4.23331 0
M  V30 16498 S 1491.5 0.699619 5.3091 0
M  V30 16499 C 1492.66 -0.350181 6.2492 0
M  V30 16500 H 1492.89 0.608181 2.91013 0
M  V30 16501 H 1490.43 0.431176 1.48257 0
M  V30 16502 H 1492.38 -1.75582 3.71054 0
M  V30 16503 H 1491.04 -1.84028 2.54544 0
M  V30 16504 H 1490.24 -1.31018 4.86673 0
M  V30 16505 H 1489.84 0.00756354 3.73999 0
M  V30 16506 H 1492.13 -1.21944 6.66435 0
M  V30 16507 H 1493.07 0.247942 7.07666 0
M  V30 16508 H 1493.48 -0.681254 5.60374 0
M  V30 16509 N 1492.88 -1.52852 0.383918 0
M  V30 16510 C 1493.83 -2.27828 -0.468762 0
M  V30 16511 C 1494.82 -1.31516 -1.0677 0
M  V30 16512 O 1496.03 -1.49075 -1.0088 0
M  V30 16513 H 1492.4 -0.732552 -0.169917 0
M  V30 16514 H 1494.38 -2.97825 0.185124 0
M  V30 16515 C 1493.12 -3.09378 -1.58683 0
M  V30 16516 H 1492.45 -3.83343 -1.13527 0
M  V30 16517 H 1493.89 -3.64987 -2.15779 0
M  V30 16518 C 1492.35 -2.21354 -2.53976 0
M  V30 16519 O 1492.88 -1.83668 -3.57252 0
M  V30 16520 N 1491.08 -1.85621 -2.23591 0
M  V30 16521 H 1490.63 -2.16467 -1.39642 0
M  V30 16522 H 1490.59 -1.27015 -2.87602 0
M  V30 16523 N 1494.36 -0.113586 -1.5719 0
M  V30 16524 C 1495.78 0.243023 -1.57739 0
M  V30 16525 C 1495.98 1.67105 -1.12597 0
M  V30 16526 O 1495.03 2.39126 -0.810874 0
M  V30 16527 C 1496.34 0.014629 -3.00696 0
M  V30 16528 C 1497.89 0.0809485 -3.12895 0
M  V30 16529 C 1498.37 -0.119685 -4.57844 0
M  V30 16530 N 1499.86 -0.0654711 -4.63154 0
M  V30 16531 C 1500.59 -0.195692 -5.73066 0
M  V30 16532 N 1500.09 -0.381782 -6.91747 0
M  V30 16533 N 1501.88 -0.13565 -5.61936 0
M  V30 16534 H 1494.03 -1.04639 -1.84836 0
M  V30 16535 H 1496.3 -0.411609 -0.85398 0
M  V30 16536 H 1496 -0.972399 -3.3799 0
M  V30 16537 H 1495.88 0.748882 -3.69691 0
M  V30 16538 H 1498.26 1.0585 -2.75463 0
M  V30 16539 H 1498.34 -0.685097 -2.46455 0
M  V30 16540 H 1497.99 -1.09418 -4.95974 0
M  V30 16541 H 1497.92 0.666281 -5.22368 0
M  V30 16542 H 1500.41 0.0750649 -3.77825 0
M  V30 16543 H 1500.72 -0.472157 -7.71356 0
M  V30 16544 H 1499.07 -0.417686 -6.93744 0
M  V30 16545 H 1502.26 0.0087301 -4.68099 0
M  V30 16546 H 1502.43 -0.240579 -6.47553 0
M  V30 16547 N 1495.84 1.56784 0.160173 0
M  V30 16548 C 1496.78 1.97267 1.1981 0
M  V30 16549 C 1497.75 0.83824 1.43397 0
M  V30 16550 O 1498.94 1.09926 1.55952 0
M  V30 16551 C 1496.08 2.34725 2.52979 0
M  V30 16552 C 1495.19 3.61397 2.36677 0
M  V30 16553 C 1494.33 3.88018 3.62789 0
M  V30 16554 C 1493.37 5.08002 3.41468 0
M  V30 16555 N 1492.5 5.30699 4.59677 0
M  V30 16556 H 1497.34 2.85743 0.845878 0
M  V30 16557 H 1494.88 1.41379 0.406249 0
M  V30 16558 H 1496.84 2.54468 3.30608 0
M  V30 16559 H 1495.47 1.49345 2.86175 0
M  V30 16560 H 1494.52 3.49505 1.50167 0
M  V30 16561 H 1495.83 4.49185 2.16875 0
M  V30 16562 H 1494.99 4.08188 4.48851 0
M  V30 16563 H 1493.73 2.98627 3.85582 0
M  V30 16564 H 1492.73 4.87718 2.53793 0
M  V30 16565 H 1493.96 5.98934 3.20086 0
M  V30 16566 H 1491.9 4.44261 4.82668 0
M  V30 16567 H 1491.82 6.1273 4.42829 0
M  V30 16568 H 1493.09 5.55357 5.46991 0
M  V30 16569 N 1497.32 -0.429099 1.51646 0
M  V30 16570 C 1498.59 -1.18958 1.55269 0
M  V30 16571 C 1498.97 -2.08633 0.321816 0
M  V30 16572 O 1498.32 -2.1775 -0.69261 0
M  V30 16573 C 1498.53 -1.98427 2.87102 0
M  V30 16574 C 1499.88 -2.55185 3.39361 0
M  V30 16575 O 1500.9 -2.08629 2.88708 0
M  V30 16576 O 1499.76 -3.40119 4.27763 0
M  V30 16577 H 1496.86 -0.542041 0.624596 0
M  V30 16578 H 1499.4 -0.437499 1.63964 0
M  V30 16579 H 1498.17 -1.32613 3.68143 0
M  V30 16580 H 1497.8 -2.80683 2.81608 0
M  V30 16581 N 1498.79 -1.41931 -0.685074 0
M  V30 16582 C 1500.04 -1.41852 -1.44514 0
M  V30 16583 C 1500.37 -0.0313137 -1.94475 0
M  V30 16584 O 1499.62 0.958606 -1.70614 0
M  V30 16585 C 1499.92 -2.38099 -2.6654 0
M  V30 16586 C 1499.59 -3.8471 -2.35178 0
M  V30 16587 C 1498.25 -4.24647 -2.26336 0
M  V30 16588 C 1500.6 -4.77232 -2.0952 0
M  V30 16589 C 1497.93 -5.55101 -1.89947 0
M  V30 16590 C 1500.28 -6.08017 -1.74638 0
M  V30 16591 C 1498.95 -6.46964 -1.64299 0
M  V30 16592 H 1498.22 -0.519072 -0.528815 0
M  V30 16593 H 1500.86 -1.74802 -0.782078 0
M  V30 16594 H 1499.17 -1.9844 -3.3783 0
M  V30 16595 H 1500.87 -2.35306 -3.24703 0
M  V30 16596 H 1497.46 -3.53085 -2.42959 0
M  V30 16597 H 1501.64 -4.47173 -2.1529 0
M  V30 16598 H 1496.9 -5.84148 -1.80503 0
M  V30 16599 H 1501.07 -6.79203 -1.53807 0
M  V30 16600 H 1498.7 -7.47959 -1.35871 0
M  V30 16601 N 1500.27 0.920374 -1.27933 0
M  V30 16602 C 1501.22 2.02196 -1.1129 0
M  V30 16603 C 1502.19 1.66096 -0.0118871 0
M  V30 16604 O 1503.37 1.8999 -0.175586 0
M  V30 16605 C 1500.51 3.36312 -0.77383 0
M  V30 16606 C 1499.63 3.85322 -1.95322 0
M  V30 16607 C 1498.76 5.07919 -1.55537 0
M  V30 16608 C 1497.8 5.49244 -2.7018 0
M  V30 16609 N 1496.94 6.63034 -2.30933 0
M  V30 16610 H 1501.78 2.15764 -2.05548 0
M  V30 16611 H 1499.31 1.05691 -1.02312 0
M  V30 16612 H 1501.27 4.13451 -0.558024 0
M  V30 16613 H 1499.9 3.22531 0.131806 0
M  V30 16614 H 1498.95 3.04399 -2.28135 0
M  V30 16615 H 1500.27 4.11915 -2.81296 0
M  V30 16616 H 1499.42 5.92581 -1.30123 0
M  V30 16617 H 1498.16 4.8312 -0.666818 0
M  V30 16618 H 1497.16 4.63127 -2.96299 0
M  V30 16619 H 1498.39 5.76035 -3.59667 0
M  V30 16620 H 1496.34 6.39878 -1.44539 0
M  V30 16621 H 1496.25 6.89319 -3.10444 0
M  V30 16622 H 1497.52 7.51018 -2.08786 0
M  V30 16623 N 1501.75 1.10074 1.1279 0
M  V30 16624 C 1503 0.835715 1.83572 0
M  V30 16625 C 1503.31 -0.640831 1.84805 0
M  V30 16626 O 1504.52 -1.02162 2.51545 0
M  V30 16627 C 1502.97 1.44519 3.29609 0
M  V30 16628 C 1502.58 2.95476 3.36746 0
M  V30 16629 C 1504.33 1.2594 4.05388 0
M  V30 16630 C 1502.23 3.49477 4.77095 0
M  V30 16631 H 1501.16 0.308974 0.687787 0
M  V30 16632 H 1503.81 1.32427 1.27025 0
M  V30 16633 H 1502.2 0.884323 3.86 0
M  V30 16634 H 1503.37 3.57846 2.90315 0
M  V30 16635 H 1501.68 3.13166 2.74437 0
M  V30 16636 H 1504.28 1.63732 5.09015 0
M  V30 16637 H 1504.62 0.200633 4.15816 0
M  V30 16638 H 1505.16 1.78814 3.55346 0
M  V30 16639 H 1501.9 4.55003 4.7186 0
M  V30 16640 H 1501.42 2.91873 5.23995 0
M  V30 16641 H 1503.1 3.47077 5.46028 0
M  V30 16642 N 1503.23 -1.30138 0.888926 0
M  V30 16643 C 1504.5 -1.90831 0.42928 0
M  V30 16644 C 1504.88 -1.80765 -1.09028 0
M  V30 16645 O 1504.23 -1.22741 -1.92735 0
M  V30 16646 C 1504.44 -3.36331 0.931798 0
M  V30 16647 C 1505.79 -4.13393 0.969106 0
M  V30 16648 O 1506.81 -3.45191 0.878731 0
M  V30 16649 O 1505.67 -5.35249 1.10323 0
M  V30 16650 H 1502.77 -0.816401 0.131976 0
M  V30 16651 H 1505.31 -1.38678 0.978086 0
M  V30 16652 H 1504.09 -3.37761 1.97568 0
M  V30 16653 H 1503.71 -3.95945 0.362383 0
M  V30 16654 N 1504.71 -0.650285 -1.43559 0
M  V30 16655 C 1506.12 -0.317586 -1.56408 0
M  V30 16656 C 1506.32 1.17844 -1.63447 0
M  V30 16657 O 1505.38 1.96318 -1.58794 0
M  V30 16658 C 1506.69 -1.02636 -2.82642 0
M  V30 16659 C 1508.24 -1.00633 -2.96381 0
M  V30 16660 C 1508.71 -1.69595 -4.25443 0
M  V30 16661 N 1510.2 -1.66345 -4.323 0
M  V30 16662 C 1510.94 -2.16581 -5.30924 0
M  V30 16663 N 1510.44 -2.75092 -6.35843 0
M  V30 16664 N 1512.23 -2.07098 -5.22558 0
M  V30 16665 H 1504.38 -1.62114 -1.37233 0
M  V30 16666 H 1506.64 -0.681588 -0.658895 0
M  V30 16667 H 1506.35 -2.08146 -2.83493 0
M  V30 16668 H 1506.22 -0.576081 -3.72775 0
M  V30 16669 H 1508.61 0.0403519 -2.95072 0
M  V30 16670 H 1508.69 -1.49528 -2.07545 0
M  V30 16671 H 1508.33 -2.74218 -4.27512 0
M  V30 16672 H 1508.26 -1.18168 -5.1317 0
M  V30 16673 H 1510.76 -1.23644 -3.571 0
M  V30 16674 H 1511.07 -3.11108 -7.07412 0
M  V30 16675 H 1509.41 -2.79152 -6.36474 0
M  V30 16676 H 1512.6 -1.61093 -4.39507 0
M  V30 16677 H 1512.78 -2.46557 -5.99261 0
M  V30 16678 N 1506.18 1.52647 -0.392018 0
M  V30 16679 C 1507.13 2.26532 0.441819 0
M  V30 16680 C 1508.1 1.2825 1.05552 0
M  V30 16681 O 1509.29 1.57083 1.08303 0
M  V30 16682 C 1506.43 3.0774 1.56174 0
M  V30 16683 C 1505.54 4.20955 0.970632 0
M  V30 16684 C 1504.67 4.89553 2.06183 0
M  V30 16685 C 1503.71 5.94756 1.44676 0
M  V30 16686 N 1502.85 6.5694 2.47738 0
M  V30 16687 H 1507.69 2.97363 -0.194699 0
M  V30 16688 H 1505.23 1.46704 -0.107848 0
M  V30 16689 H 1507.18 3.53116 2.22183 0
M  V30 16690 H 1505.81 2.39112 2.16853 0
M  V30 16691 H 1504.87 3.79874 0.200067 0
M  V30 16692 H 1506.18 4.96474 0.481181 0
M  V30 16693 H 1505.33 5.38247 2.79956 0
M  V30 16694 H 1504.07 4.13564 2.58488 0
M  V30 16695 H 1503.08 5.45399 0.694288 0
M  V30 16696 H 1504.3 6.72679 0.931617 0
M  V30 16697 H 1502.25 5.8379 2.99208 0
M  V30 16698 H 1502.16 7.2808 2.03556 0
M  V30 16699 H 1503.43 7.10277 3.21133 0
M  V30 16700 N 1507.66 0.121921 1.57128 0
M  V30 16701 C 1508.61 -0.827205 2.15467 0
M  V30 16702 C 1509.58 -1.26155 1.08047 0
M  V30 16703 O 1510.76 -1.33855 1.35969 0
M  V30 16704 C 1507.9 -2.07077 2.76067 0
M  V30 16705 C 1507.02 -1.68452 3.97804 0
M  V30 16706 C 1506.15 -2.87797 4.46482 0
M  V30 16707 C 1505.19 -2.45426 5.60743 0
M  V30 16708 N 1504.33 -3.57695 6.04151 0
M  V30 16709 H 1509.17 -0.322879 2.96246 0
M  V30 16710 H 1506.71 -0.147677 1.46357 0
M  V30 16711 H 1508.66 -2.79943 3.09335 0
M  V30 16712 H 1507.29 -2.54963 1.97974 0
M  V30 16713 H 1506.35 -0.854487 3.70679 0
M  V30 16714 H 1507.66 -1.33316 4.80654 0
M  V30 16715 H 1506.81 -3.68885 4.81673 0
M  V30 16716 H 1505.55 -3.26162 3.62587 0
M  V30 16717 H 1504.56 -1.62772 5.25153 0
M  V30 16718 H 1505.78 -2.08175 6.46405 0
M  V30 16719 H 1503.73 -3.95728 5.23197 0
M  V30 16720 H 1503.64 -3.26491 6.81865 0
M  V30 16721 H 1504.91 -4.39213 6.43981 0
M  V30 16722 N 1509.14 -1.56867 -0.151857 0
M  V30 16723 C 1510.1 -1.96997 -1.17152 0
M  V30 16724 C 1511.1 -0.855905 -1.36128 0
M  V30 16725 O 1512.29 -1.12261 -1.33203 0
M  V30 16726 C 1509.43 -2.28171 -2.5328 0
M  V30 16727 H 1510.62 -2.88261 -0.827365 0
M  V30 16728 H 1508.17 -1.51226 -0.395024 0
M  V30 16729 H 1508.91 -1.39683 -2.92676 0
M  V30 16730 H 1508.69 -3.09394 -2.40869 0
M  V30 16731 H 1510.18 -2.60073 -3.26729 0
M  V30 16732 N 1510.62 0.421051 -1.51871 0
M  V30 16733 C 1511.57 1.53277 -1.74954 0
M  V30 16734 C 1512.56 1.57792 -0.616282 0
M  V30 16735 O 1513.77 1.61342 -0.798054 0
M  V30 16736 H 1510.14 0.50953 -0.553067 0
M  V30 16737 H 1512.11 1.30988 -2.68113 0
M  V30 16738 C 1510.86 2.90772 -1.90649 0
M  V30 16739 H 1510.18 2.88035 -2.77265 0
M  V30 16740 H 1511.62 3.67882 -2.10805 0
M  V30 16741 C 1510.08 3.30161 -0.670463 0
M  V30 16742 O 1510.61 4.01352 0.167271 0
M  V30 16743 N 1508.82 2.86093 -0.509813 0
M  V30 16744 H 1508.37 2.28329 -1.19262 0
M  V30 16745 H 1508.32 3.12809 0.315918 0
M  V30 16746 N 1512.1 1.42293 0.677538 0
M  V30 16747 C 1513.32 1.46008 1.46592 0
M  V30 16748 C 1513.74 0.0706015 1.88668 0
M  V30 16749 O 1513.1 -0.914076 1.57959 0
M  V30 16750 C 1513.15 2.38477 2.71682 0
M  V30 16751 O 1512.87 3.72019 2.31372 0
M  V30 16752 C 1514.37 2.51185 3.65269 0
M  V30 16753 H 1511.59 0.49669 0.451154 0
M  V30 16754 H 1514.13 1.86777 0.832736 0
M  V30 16755 H 1512.29 2.00969 3.31195 0
M  V30 16756 H 1512.7 4.21514 3.12131 0
M  V30 16757 H 1514.18 3.20014 4.49772 0
M  V30 16758 H 1514.65 1.54885 4.10983 0
M  V30 16759 H 1515.26 2.89404 3.1165 0
M  V30 16760 N 1513.57 -0.913576 1.28419 0
M  V30 16761 C 1514.51 -2.02073 1.08163 0
M  V30 16762 C 1515.52 -1.62766 0.0333064 0
M  V30 16763 O 1516.71 -1.76347 0.27638 0
M  V30 16764 C 1513.81 -3.33151 0.621596 0
M  V30 16765 C 1512.98 -4.01068 1.74536 0
M  V30 16766 C 1512.04 -5.10428 1.27868 0
M  V30 16767 O 1511.07 -5.33617 1.98094 0
M  V30 16768 N 1512.27 -5.80326 0.141976 0
M  V30 16769 H 1515.03 -2.20009 2.0351 0
M  V30 16770 H 1512.59 -1.08488 1.20174 0
M  V30 16771 H 1514.59 -4.03638 0.292989 0
M  V30 16772 H 1513.16 -3.11685 -0.239031 0
M  V30 16773 H 1512.38 -3.24127 2.24355 0
M  V30 16774 H 1513.66 -4.4319 2.49919 0
M  V30 16775 H 1513.06 -5.63956 -0.443845 0
M  V30 16776 H 1511.62 -6.51676 -0.127354 0
M  V30 16777 N 1515.05 -1.1067 -1.12204 0
M  V30 16778 C 1516.33 -0.762632 -1.8012 0
M  V30 16779 C 1516.71 0.750529 -1.97308 0
M  V30 16780 O 1516.06 1.67764 -1.55137 0
M  V30 16781 C 1516.27 -1.51651 -3.14329 0
M  V30 16782 C 1517.62 -1.69061 -3.89491 0
M  V30 16783 O 1518.64 -1.48009 -3.23994 0
M  V30 16784 O 1517.5 -2.03984 -5.07004 0
M  V30 16785 H 1514.59 -0.275417 -0.779791 0
M  V30 16786 H 1517.14 -1.20966 -1.19018 0
M  V30 16787 H 1515.91 -2.54622 -2.97125 0
M  V30 16788 H 1515.53 -1.0625 -3.83141 0
M  V30 16789 N 1516.53 1.29665 -0.895815 0
M  V30 16790 C 1517.46 2.30268 -0.387151 0
M  V30 16791 C 1518.44 1.61442 0.535768 0
M  V30 16792 O 1519.63 1.88978 0.447321 0
M  V30 16793 C 1516.76 3.45107 0.389639 0
M  V30 16794 C 1515.71 4.25706 -0.442498 0
M  V30 16795 C 1515.04 5.32704 0.461552 0
M  V30 16796 C 1516.34 4.9419 -1.69036 0
M  V30 16797 H 1518.03 2.73064 -1.22786 0
M  V30 16798 H 1515.58 1.31274 -0.591869 0
M  V30 16799 H 1517.53 4.14559 0.756203 0
M  V30 16800 H 1516.25 3.01145 1.2641 0
M  V30 16801 H 1514.91 3.57957 -0.791343 0
M  V30 16802 H 1514.56 4.84987 1.33403 0
M  V30 16803 H 1514.26 5.87529 -0.0915006 0
M  V30 16804 H 1515.78 6.05009 0.824395 0
M  V30 16805 H 1517.2 5.561 -1.39376 0
M  V30 16806 H 1515.6 5.5893 -2.18444 0
M  V30 16807 H 1516.67 4.19699 -2.42859 0
M  V30 16808 N 1518.01 0.657889 1.43212 0
M  V30 16809 C 1519.42 0.325876 1.56238 0
M  V30 16810 C 1519.62 -1.16975 1.6407 0
M  V30 16811 O 1518.68 -1.95473 1.59833 0
M  V30 16812 C 1519.99 1.04134 2.82093 0
M  V30 16813 C 1521.54 1.02204 2.95844 0
M  V30 16814 C 1522.02 1.71849 4.24537 0
M  V30 16815 N 1523.51 1.68635 4.31412 0
M  V30 16816 C 1524.24 2.19393 5.29768 0
M  V30 16817 N 1523.74 2.7846 6.34375 0
M  V30 16818 N 1525.53 2.09866 5.21452 0
M  V30 16819 H 1517.68 1.62839 1.36371 0
M  V30 16820 H 1519.95 0.685072 0.655271 0
M  V30 16821 H 1519.65 2.09647 2.82385 0
M  V30 16822 H 1519.53 0.595842 3.72464 0
M  V30 16823 H 1521.91 -0.0247029 2.9509 0
M  V30 16824 H 1521.99 1.50627 2.06749 0
M  V30 16825 H 1521.64 2.76482 4.26052 0
M  V30 16826 H 1521.57 1.20888 5.12536 0
M  V30 16827 H 1524.06 1.25536 3.56439 0
M  V30 16828 H 1524.37 3.14855 7.05752 0
M  V30 16829 H 1522.72 2.82523 6.34985 0
M  V30 16830 H 1525.91 1.63422 4.38647 0
M  V30 16831 H 1526.08 2.49732 5.97945 0
M  V30 16832 N 1519.49 -1.52437 0.400108 0
M  V30 16833 C 1520.43 -2.26763 -0.429799 0
M  V30 16834 C 1521.4 -1.28808 -1.0487 0
M  V30 16835 O 1522.59 -1.57655 -1.07468 0
M  V30 16836 C 1519.73 -3.08564 -1.54539 0
M  V30 16837 C 1518.84 -4.21463 -0.948294 0
M  V30 16838 C 1517.98 -4.9064 -2.03584 0
M  V30 16839 C 1517.02 -5.95515 -1.4152 0
M  V30 16840 N 1516.15 -6.58245 -2.4425 0
M  V30 16841 H 1520.99 -2.97256 0.210467 0
M  V30 16842 H 1518.53 -1.46645 0.115627 0
M  V30 16843 H 1520.49 -3.54289 -2.20307 0
M  V30 16844 H 1519.12 -2.40259 -2.15582 0
M  V30 16845 H 1518.17 -3.79974 -0.179918 0
M  V30 16846 H 1519.48 -4.96722 -0.454845 0
M  V30 16847 H 1518.64 -5.39724 -2.77097 0
M  V30 16848 H 1517.37 -4.14929 -2.56291 0
M  V30 16849 H 1516.38 -5.45759 -0.665354 0
M  V30 16850 H 1517.6 -6.73164 -0.89593 0
M  V30 16851 H 1515.55 -5.85369 -2.96107 0
M  V30 16852 H 1515.47 -7.2915 -1.99692 0
M  V30 16853 H 1516.74 -7.1197 -3.17362 0
M  V30 16854 N 1520.96 -0.130252 -1.57061 0
M  V30 16855 C 1521.91 0.815767 -2.15902 0
M  V30 16856 C 1522.88 1.2558 -1.08715 0
M  V30 16857 O 1524.07 1.33132 -1.36677 0
M  V30 16858 C 1521.21 2.0561 -2.77162 0
M  V30 16859 C 1520.32 1.6634 -3.98692 0
M  V30 16860 C 1519.45 2.85425 -4.48002 0
M  V30 16861 C 1518.49 2.42449 -5.62036 0
M  V30 16862 N 1517.63 3.54486 -6.0604 0
M  V30 16863 H 1522.47 0.307164 -2.96413 0
M  V30 16864 H 1520.01 0.139913 -1.46433 0
M  V30 16865 H 1521.97 2.78298 -3.10815 0
M  V30 16866 H 1520.6 2.5391 -1.99323 0
M  V30 16867 H 1519.65 0.834817 -3.71127 0
M  V30 16868 H 1520.96 1.30765 -4.81354 0
M  V30 16869 H 1520.11 3.66325 -4.83623 0
M  V30 16870 H 1518.85 3.24235 -3.64312 0
M  V30 16871 H 1517.86 1.59985 -5.26008 0
M  V30 16872 H 1519.08 2.04744 -6.475 0
M  V30 16873 H 1517.03 3.92948 -5.25289 0
M  V30 16874 H 1516.95 3.22871 -6.83586 0
M  V30 16875 H 1518.21 4.35792 -6.46302 0
M  V30 16876 N 1522.44 1.56945 0.143535 0
M  V30 16877 C 1523.35 2.01795 1.1965 0
M  V30 16878 C 1524.37 0.933965 1.4681 0
M  V30 16879 O 1525.55 1.2437 1.58411 0
M  V30 16880 C 1522.61 2.39249 2.5092 0
M  V30 16881 C 1521.67 3.61613 2.31376 0
M  V30 16882 C 1520.9 3.97271 3.56386 0
M  V30 16883 O 1521.13 3.33552 4.62709 0
M  V30 16884 O 1520.06 4.90501 3.48844 0
M  V30 16885 H 1523.89 2.91687 0.845718 0
M  V30 16886 H 1521.47 1.45182 0.352518 0
M  V30 16887 H 1523.35 2.64184 3.28306 0
M  V30 16888 H 1522.03 1.52511 2.85521 0
M  V30 16889 H 1520.94 3.4186 1.51929 0
M  V30 16890 H 1522.27 4.48979 2.01689 0
M  V30 16891 N 1523.92 -0.412991 1.52093 0
M  V30 16892 C 1524.87 -1.50294 1.75158 0
M  V30 16893 C 1525.84 -1.55119 0.593902 0
M  V30 16894 O 1527.02 -1.71751 0.831032 0
M  V30 16895 C 1524.16 -2.87781 1.90463 0
M  V30 16896 C 1523.28 -2.92295 3.181 0
M  V30 16897 C 1522.41 -4.21056 3.23859 0
M  V30 16898 C 1521.45 -4.1953 4.45714 0
M  V30 16899 N 1520.59 -5.39857 4.48886 0
M  V30 16900 H 1525.43 -1.29927 2.68185 0
M  V30 16901 H 1522.96 -0.630741 1.32891 0
M  V30 16902 H 1524.92 -3.67588 1.9732 0
M  V30 16903 H 1523.55 -3.06651 1.00822 0
M  V30 16904 H 1522.6 -2.05002 3.20434 0
M  V30 16905 H 1523.92 -2.87031 4.0794 0
M  V30 16906 H 1523.07 -5.09253 3.29767 0
M  V30 16907 H 1521.81 -4.2901 2.31952 0
M  V30 16908 H 1520.81 -3.29724 4.39957 0
M  V30 16909 H 1522.04 -4.1322 5.38912 0
M  V30 16910 H 1519.99 -5.48486 3.59861 0
M  V30 16911 H 1519.9 -5.36572 5.32566 0
M  V30 16912 H 1521.17 -6.30018 4.59018 0
M  V30 16913 N 1525.4 -1.4265 -0.669982 0
M  V30 16914 C 1526.31 -1.48916 -1.81276 0
M  V30 16915 C 1527.33 -0.377523 -1.69855 0
M  V30 16916 O 1528.5 -0.629151 -1.91321 0
M  V30 16917 C 1525.57 -1.39376 -3.17451 0
M  V30 16918 C 1524.63 -2.61072 -3.40793 0
M  V30 16919 C 1523.86 -2.51976 -4.70472 0
M  V30 16920 O 1524.08 -1.55827 -5.48702 0
M  V30 16921 O 1523.02 -3.42193 -4.95164 0
M  V30 16922 H 1526.84 -2.45382 -1.78945 0
M  V30 16923 H 1524.43 -1.24467 -0.826342 0
M  V30 16924 H 1526.31 -1.36435 -3.98702 0
M  V30 16925 H 1524.99 -0.460376 -3.20409 0
M  V30 16926 H 1523.89 -2.69587 -2.59372 0
M  V30 16927 H 1525.23 -3.53325 -3.42669 0
M  V30 16928 N 1526.88 0.906753 -1.28902 0
M  V30 16929 C 1527.83 2.03141 -1.13299 0
M  V30 16930 C 1528.82 1.69325 -0.0504114 0
M  V30 16931 O 1530.03 1.78774 -0.209696 0
M  V30 16932 H 1526.4 0.665709 -0.349766 0
M  V30 16933 H 1528.37 2.13441 -2.08531 0
M  V30 16934 C 1527.12 3.37918 -0.818935 0
M  V30 16935 H 1526.44 3.64437 -1.64395 0
M  V30 16936 H 1527.88 4.17318 -0.749753 0
M  V30 16937 C 1526.34 3.33498 0.477582 0
M  V30 16938 O 1526.87 3.7241 1.50578 0
M  V30 16939 N 1525.08 2.86594 0.480862 0
M  V30 16940 H 1524.63 2.55124 -0.356308 0
M  V30 16941 H 1524.58 2.84019 1.34835 0
M  V30 16942 N 1528.36 1.11264 1.11616 0
M  V30 16943 C 1529.77 0.846176 1.35322 0
M  V30 16944 C 1529.97 -0.530043 1.94404 0
M  V30 16945 O 1529.03 -1.28122 2.1758 0
M  V30 16946 C 1530.34 1.9528 2.28662 0
M  V30 16947 C 1531.89 1.98225 2.42231 0
M  V30 16948 C 1532.36 3.08086 3.38891 0
M  V30 16949 N 1533.85 3.07448 3.46453 0
M  V30 16950 C 1534.59 3.89094 4.21181 0
M  V30 16951 N 1534.09 4.80698 4.989 0
M  V30 16952 N 1535.88 3.77279 4.16674 0
M  V30 16953 H 1528.03 1.99958 0.716284 0
M  V30 16954 H 1530.29 0.869439 0.377862 0
M  V30 16955 H 1530 2.94381 1.92439 0
M  V30 16956 H 1529.87 1.84739 3.28864 0
M  V30 16957 H 1532.26 0.997517 2.77729 0
M  V30 16958 H 1532.34 2.12842 1.41887 0
M  V30 16959 H 1531.98 4.06784 3.0412 0
M  V30 16960 H 1531.91 2.90709 4.39085 0
M  V30 16961 H 1534.41 2.41077 2.91016 0
M  V30 16962 H 1534.72 5.39535 5.53282 0
M  V30 16963 H 1533.06 4.84721 4.98067 0
M  V30 16964 H 1536.25 3.05059 3.55044 0
M  V30 16965 H 1536.43 4.41142 4.74655 0
M  V30 16966 N 1529.83 -1.29188 0.902679 0
M  V30 16967 C 1530.78 -2.27632 0.381088 0
M  V30 16968 C 1531.75 -1.57131 -0.538431 0
M  V30 16969 O 1532.94 -1.85096 -0.463027 0
M  V30 16970 C 1530.08 -3.42971 -0.382701 0
M  V30 16971 C 1529.19 -4.28249 0.568054 0
M  V30 16972 C 1528.32 -5.30772 -0.213082 0
M  V30 16973 C 1527.36 -6.07707 0.732004 0
M  V30 16974 N 1526.5 -7.02098 -0.0149139 0
M  V30 16975 H 1531.34 -2.71628 1.22566 0
M  V30 16976 H 1528.88 -1.33594 0.615724 0
M  V30 16977 H 1530.83 -4.08623 -0.841619 0
M  V30 16978 H 1529.46 -2.99997 -1.19171 0
M  V30 16979 H 1528.52 -3.62743 1.14549 0
M  V30 16980 H 1529.83 -4.81794 1.29136 0
M  V30 16981 H 1528.98 -6.02255 -0.733065 0
M  V30 16982 H 1527.72 -4.77966 -0.969504 0
M  V30 16983 H 1526.73 -5.35086 1.26346 0
M  V30 16984 H 1527.95 -6.62602 1.4878 0
M  V30 16985 H 1525.9 -6.51658 -0.753548 0
M  V30 16986 H 1525.81 -7.53214 0.648423 0
M  V30 16987 H 1527.08 -7.77796 -0.515062 0
M  V30 16988 N 1531.31 -0.665475 -1.42861 0
M  V30 16989 C 1532.24 0.00482845 -2.335 0
M  V30 16990 C 1533.22 0.799135 -1.50159 0
M  V30 16991 O 1534.41 0.75816 -1.78789 0
M  V30 16992 C 1531.54 0.963347 -3.33672 0
M  V30 16993 C 1530.49 0.278294 -4.27094 0
M  V30 16994 C 1529.82 1.34911 -5.174 0
M  V30 16995 C 1531.12 -0.836925 -5.15551 0
M  V30 16996 H 1532.81 -0.752129 -2.89799 0
M  V30 16997 H 1530.36 -0.363139 -1.39346 0
M  V30 16998 H 1532.31 1.44128 -3.95986 0
M  V30 16999 H 1531.03 1.75161 -2.75656 0
M  V30 17000 H 1529.69 -0.179314 -3.66161 0
M  V30 17001 H 1529.34 2.12912 -4.55716 0
M  V30 17002 H 1529.04 0.895919 -5.8073 0
M  V30 17003 H 1530.57 1.82816 -5.8259 0
M  V30 17004 H 1531.98 -0.440617 -5.71604 0
M  V30 17005 H 1530.38 -1.21533 -5.87665 0
M  V30 17006 H 1531.45 -1.6897 -4.54507 0
M  V30 17007 N 1532.79 1.52222 -0.408187 0
M  V30 17008 C 1533.72 2.24676 0.453129 0
M  V30 17009 C 1534.73 1.27605 1.01098 0
M  V30 17010 O 1535.92 1.53557 0.910084 0
M  V30 17011 C 1533.02 2.96431 1.64262 0
M  V30 17012 C 1532.2 4.20364 1.20883 0
M  V30 17013 C 1531.26 4.74951 2.26512 0
M  V30 17014 O 1530.28 5.37556 1.87142 0
M  V30 17015 N 1531.48 4.56443 3.58665 0
M  V30 17016 H 1534.25 2.9923 -0.16771 0
M  V30 17017 H 1531.81 1.60178 -0.235517 0
M  V30 17018 H 1533.8 3.29844 2.3449 0
M  V30 17019 H 1532.37 2.25068 2.1694 0
M  V30 17020 H 1531.59 3.92776 0.334712 0
M  V30 17021 H 1532.88 5.0085 0.895939 0
M  V30 17022 H 1532.28 4.06511 3.93402 0
M  V30 17023 H 1530.83 4.94295 4.24871 0
M  V30 17024 N 1534.27 0.138579 1.5699 0
M  V30 17025 C 1535.2 -0.800568 2.19347 0
M  V30 17026 C 1536.18 -1.26318 1.13921 0
M  V30 17027 O 1537.36 -1.32226 1.42232 0
M  V30 17028 C 1534.49 -2.04317 2.80842 0
M  V30 17029 C 1533.45 -1.71764 3.92022 0
M  V30 17030 C 1532.77 -3.03217 4.40413 0
M  V30 17031 C 1534.07 -0.970789 5.13199 0
M  V30 17032 H 1535.77 -0.280888 2.98079 0
M  V30 17033 H 1533.31 -0.133663 1.43378 0
M  V30 17034 H 1535.27 -2.70491 3.2313 0
M  V30 17035 H 1533.99 -2.58643 1.99428 0
M  V30 17036 H 1532.65 -1.07972 3.50339 0
M  V30 17037 H 1532.3 -3.55517 3.55832 0
M  V30 17038 H 1532 -2.82203 5.15398 0
M  V30 17039 H 1533.52 -3.70477 4.85365 0
M  V30 17040 H 1534.94 -1.53445 5.52384 0
M  V30 17041 H 1533.33 -0.860895 5.93893 0
M  V30 17042 H 1534.4 0.0390088 4.84884 0
M  V30 17043 N 1535.75 -1.57019 -0.13521 0
M  V30 17044 C 1536.66 -2.02427 -1.18578 0
M  V30 17045 C 1537.67 -0.941738 -1.46312 0
M  V30 17046 O 1538.85 -1.25208 -1.57749 0
M  V30 17047 C 1535.91 -2.40577 -2.49647 0
M  V30 17048 C 1534.97 -3.62835 -2.29455 0
M  V30 17049 C 1534.21 -3.99156 -3.54274 0
M  V30 17050 O 1534.43 -3.36001 -4.60933 0
M  V30 17051 O 1533.36 -4.92345 -3.46238 0
M  V30 17052 H 1537.19 -2.92131 -0.830237 0
M  V30 17053 H 1534.77 -1.45366 -0.344814 0
M  V30 17054 H 1536.66 -2.65922 -3.269 0
M  V30 17055 H 1535.33 -1.54023 -2.84708 0
M  V30 17056 H 1534.24 -3.42661 -1.50114 0
M  V30 17057 H 1535.57 -4.50043 -1.99305 0
M  V30 17058 N 1537.22 0.404919 -1.52309 0
M  V30 17059 C 1538.15 1.50039 -1.78915 0
M  V30 17060 C 1539.14 1.57587 -0.640329 0
M  V30 17061 O 1540.32 1.72793 -0.886344 0
M  V30 17062 C 1537.45 2.87819 -1.94364 0
M  V30 17063 C 1536.4 2.9512 -3.09981 0
M  V30 17064 C 1535.73 4.35195 -3.10659 0
M  V30 17065 C 1537.03 2.66219 -4.4936 0
M  V30 17066 H 1538.72 1.28025 -2.70647 0
M  V30 17067 H 1536.27 0.61445 -1.30233 0
M  V30 17068 H 1538.22 3.64446 -2.11559 0
M  V30 17069 H 1536.95 3.11136 -0.993067 0
M  V30 17070 H 1535.61 2.20939 -2.92543 0
M  V30 17071 H 1535.25 4.55528 -2.13316 0
M  V30 17072 H 1534.95 4.41003 -3.88317 0
M  V30 17073 H 1536.48 5.1375 -3.29989 0
M  V30 17074 H 1537.89 3.32567 -4.66982 0
M  V30 17075 H 1536.29 2.83398 -5.28967 0
M  V30 17076 H 1537.36 1.61636 -4.57167 0
M  V30 17077 N 1538.7 1.43003 0.662408 0
M  V30 17078 C 1539.65 1.47701 1.79686 0
M  V30 17079 C 1540.64 0.351491 1.65713 0
M  V30 17080 O 1541.85 0.525071 1.72171 0
M  V30 17081 H 1538.23 0.46285 0.592684 0
M  V30 17082 H 1540.2 2.43245 1.72843 0
M  V30 17083 C 1538.95 1.40828 3.17904 0
M  V30 17084 H 1538.27 2.26736 3.29288 0
M  V30 17085 H 1539.71 1.48177 3.97265 0
M  V30 17086 C 1538.17 0.124659 3.36669 0
M  V30 17087 O 1538.7 -0.81769 3.9329 0
M  V30 17088 N 1536.9 0.0378063 2.90575 0
M  V30 17089 H 1536.45 0.805456 2.44684 0
M  V30 17090 H 1536.41 -0.820377 3.03508 0
M  V30 17091 N 1540.18 -0.899904 1.29381 0
M  V30 17092 C 1541.11 -2.00914 1.103 0
M  V30 17093 C 1542.13 -1.62721 0.050568 0
M  V30 17094 O 1543.31 -1.76044 0.295068 0
M  V30 17095 C 1540.41 -3.32473 0.656896 0
M  V30 17096 C 1539.59 -3.99195 1.7878 0
M  V30 17097 C 1538.65 -5.09043 1.33274 0
M  V30 17098 O 1537.67 -5.31486 2.03742 0
M  V30 17099 N 1538.87 -5.80143 0.203519 0
M  V30 17100 H 1541.64 -2.17838 2.05832 0
M  V30 17101 H 1539.2 -1.07208 1.21318 0
M  V30 17102 H 1541.19 -4.03305 0.335783 0
M  V30 17103 H 1539.76 -3.11921 -0.205959 0
M  V30 17104 H 1538.98 -3.21729 2.2778 0
M  V30 17105 H 1540.27 -4.40515 2.54606 0
M  V30 17106 H 1539.67 -5.64395 -0.384005 0
M  V30 17107 H 1538.23 -6.51774 -0.0582282 0
M  V30 17108 N 1541.66 -1.11854 -1.11024 0
M  V30 17109 C 1542.57 -0.79368 -2.20767 0
M  V30 17110 C 1543.58 0.214996 -1.72667 0
M  V30 17111 O 1544.76 0.0500976 -2.01338 0
M  V30 17112 C 1541.83 -0.246375 -3.45823 0
M  V30 17113 C 1540.89 -1.31421 -4.0869 0
M  V30 17114 C 1540.12 -0.792922 -5.27777 0
M  V30 17115 O 1540.34 0.375492 -5.69163 0
M  V30 17116 O 1539.28 -1.55971 -5.8134 0
M  V30 17117 H 1543.1 -1.71011 -2.50976 0
M  V30 17118 H 1540.69 -0.894752 -1.19643 0
M  V30 17119 H 1542.57 0.0542632 -4.21365 0
M  V30 17120 H 1541.24 0.642703 -3.17255 0
M  V30 17121 H 1540.15 -1.66792 -3.3486 0
M  V30 17122 H 1541.48 -2.17683 -4.41446 0
M  V30 17123 N 1543.14 1.28707 -0.909517 0
M  V30 17124 C 1544.55 1.47605 -0.607045 0
M  V30 17125 C 1544.75 1.8275 0.848815 0
M  V30 17126 O 1543.81 1.92989 1.62823 0
M  V30 17127 C 1545.12 2.58194 -1.54131 0
M  V30 17128 C 1546.67 2.72065 -1.54757 0
M  V30 17129 C 1547.14 3.85793 -2.46835 0
M  V30 17130 N 1548.64 3.93141 -2.44937 0
M  V30 17131 C 1549.37 4.80512 -3.12883 0
M  V30 17132 N 1548.87 5.72504 -3.90142 0
M  V30 17133 N 1550.66 4.74086 -3.01991 0
M  V30 17134 H 1542.81 1.04174 -1.85099 0
M  V30 17135 H 1545.07 0.51843 -0.793684 0
M  V30 17136 H 1544.78 2.39119 -2.57905 0
M  V30 17137 H 1544.65 3.55205 -1.26921 0
M  V30 17138 H 1547.04 2.90532 -0.517219 0
M  V30 17139 H 1547.12 1.75598 -1.86008 0
M  V30 17140 H 1546.77 3.68082 -3.49969 0
M  V30 17141 H 1546.7 4.8165 -2.12888 0
M  V30 17142 H 1549.19 3.2735 -1.88813 0
M  V30 17143 H 1549.5 6.3599 -4.39017 0
M  V30 17144 H 1547.84 5.72358 -3.94248 0
M  V30 17145 H 1551.04 4.01209 -2.4114 0
M  V30 17146 H 1551.21 5.41964 -3.55217 0
M  V30 17147 N 1544.61 0.673042 1.42506 0
M  V30 17148 C 1545.52 -0.00648572 2.34599 0
M  V30 17149 C 1546.54 -0.790758 1.54994 0
M  V30 17150 O 1547.72 -0.733482 1.87569 0
M  V30 17151 C 1544.78 -0.94734 3.33506 0
M  V30 17152 C 1543.84 -0.157795 4.2901 0
M  V30 17153 C 1543.08 -1.05384 5.23192 0
M  V30 17154 O 1543.3 -2.29334 5.22266 0
M  V30 17155 O 1542.23 -0.515584 5.99688 0
M  V30 17156 H 1546.06 0.752059 2.94241 0
M  V30 17157 H 1543.64 0.433272 1.42979 0
M  V30 17158 H 1545.53 -1.4875 3.94273 0
M  V30 17159 H 1544.2 -1.68577 2.7634 0
M  V30 17160 H 1543.11 0.426426 3.71662 0
M  V30 17161 H 1544.44 0.54148 4.89212 0
M  V30 17162 N 1546.09 -1.52004 0.416254 0
M  V30 17163 C 1547.04 -2.27206 -0.405723 0
M  V30 17164 C 1548.01 -1.29913 -1.03498 0
M  V30 17165 O 1549.19 -1.58786 -1.0579 0
M  V30 17166 C 1546.33 -3.10186 -1.51258 0
M  V30 17167 C 1545.45 -4.22445 -0.903539 0
M  V30 17168 C 1544.58 -4.92771 -1.98368 0
M  V30 17169 C 1543.62 -5.96983 -1.35196 0
M  V30 17170 N 1542.76 -6.60798 -2.37255 0
M  V30 17171 H 1547.6 -2.97016 0.241983 0
M  V30 17172 H 1545.14 -1.46514 0.131174 0
M  V30 17173 H 1547.09 -3.56606 -2.16537 0
M  V30 17174 H 1545.72 -2.42532 -2.13021 0
M  V30 17175 H 1544.78 -3.80144 -0.139607 0
M  V30 17176 H 1546.09 -4.97176 -0.402136 0
M  V30 17177 H 1545.24 -5.42633 -2.71357 0
M  V30 17178 H 1543.98 -4.17624 -2.51876 0
M  V30 17179 H 1542.99 -5.46434 -0.607431 0
M  V30 17180 H 1544.21 -6.74076 -0.824482 0
M  V30 17181 H 1542.16 -5.88476 -2.89882 0
M  V30 17182 H 1542.07 -7.31227 -1.91947 0
M  V30 17183 H 1543.34 -7.15296 -3.09792 0
M  V30 17184 N 1547.57 -0.146903 -1.56914 0
M  V30 17185 C 1548.82 0.504234 -1.96122 0
M  V30 17186 C 1549.15 1.64879 -1.03175 0
M  V30 17187 O 1548.4 1.95605 -0.0609397 0
M  V30 17188 C 1548.7 1.05159 -3.41579 0
M  V30 17189 C 1548.37 0.0254845 -4.50893 0
M  V30 17190 C 1547.03 -0.256589 -4.80515 0
M  V30 17191 C 1549.38 -0.672284 -5.16846 0
M  V30 17192 C 1546.71 -1.24224 -5.73398 0
M  V30 17193 C 1549.06 -1.64675 -6.1079 0
M  V30 17194 C 1547.72 -1.93652 -6.38792 0
M  V30 17195 H 1546.99 0.184512 -0.71766 0
M  V30 17196 H 1549.64 -0.233712 -1.90069 0
M  V30 17197 H 1547.95 1.86687 -3.44464 0
M  V30 17198 H 1549.64 1.56398 -3.69244 0
M  V30 17199 H 1546.23 0.255517 -4.27838 0
M  V30 17200 H 1550.42 -0.467555 -4.94093 0
M  V30 17201 H 1545.67 -1.47319 -5.93386 0
M  V30 17202 H 1549.85 -2.19294 -6.60971 0
M  V30 17203 H 1547.47 -2.70179 -7.10568 0
M  V30 17204 N 1549.05 1.57088 0.126881 0
M  V30 17205 C 1550 2.00736 1.17506 0
M  V30 17206 C 1550.99 0.902986 1.43327 0
M  V30 17207 O 1552.2 1.08819 1.43382 0
M  V30 17208 H 1548.57 0.639285 0.396003 0
M  V30 17209 H 1550.54 2.88015 0.780373 0
M  V30 17210 C 1549.29 2.42096 2.49569 0
M  V30 17211 H 1548.61 3.26639 2.30536 0
M  V30 17212 H 1550.05 2.76442 3.2149 0
M  V30 17213 C 1548.51 1.28148 3.11576 0
M  V30 17214 O 1549.04 0.593145 3.97297 0
M  V30 17215 N 1547.25 1.04055 2.71332 0
M  V30 17216 H 1546.8 1.60208 2.0172 0
M  V30 17217 H 1546.75 0.280075 3.1315 0
M  V30 17218 N 1550.53 -0.396836 1.52522 0
M  V30 17219 C 1551.46 -1.50361 1.72986 0
M  V30 17220 C 1552.47 -1.50928 0.610289 0
M  V30 17221 O 1553.66 -1.54972 0.88578 0
M  V30 17222 C 1550.76 -2.89229 1.76635 0
M  V30 17223 C 1549.93 -3.12715 3.05824 0
M  V30 17224 C 1548.99 -4.31523 3.01122 0
M  V30 17225 O 1548.02 -4.28207 3.75004 0
M  V30 17226 N 1549.22 -5.37294 2.19763 0
M  V30 17227 H 1551.99 -1.33196 2.68475 0
M  V30 17228 H 1549.55 -0.586269 1.50912 0
M  V30 17229 H 1551.54 -3.66796 1.71006 0
M  V30 17230 H 1550.11 -2.99791 0.885667 0
M  V30 17231 H 1549.33 -2.23083 3.25004 0
M  V30 17232 H 1550.62 -3.25257 3.91261 0
M  V30 17233 H 1550.01 -5.4284 1.5919 0
M  V30 17234 H 1548.57 -6.13557 2.19981 0
M  V30 17235 N 1552.01 -1.43353 -0.654814 0
M  V30 17236 C 1552.94 -1.42835 -1.7797 0
M  V30 17237 C 1553.92 -0.290004 -1.59993 0
M  V30 17238 O 1555.1 -0.483346 -1.82198 0
M  V30 17239 C 1552.23 -1.2384 -3.15248 0
M  V30 17240 C 1551.27 -2.4093 -3.5193 0
M  V30 17241 S 1552.11 -4.03479 -3.52086 0
M  V30 17242 C 1553.26 -3.86864 -4.92024 0
M  V30 17243 H 1553.5 -2.38021 -1.78138 0
M  V30 17244 H 1551.03 -1.30365 -0.827312 0
M  V30 17245 H 1552.99 -1.13568 -3.94478 0
M  V30 17246 H 1551.65 -0.302053 -3.12644 0
M  V30 17247 H 1550.84 -2.2344 -4.51764 0
M  V30 17248 H 1550.44 -2.4782 -2.80109 0
M  V30 17249 H 1552.73 -3.4909 -5.8064 0
M  V30 17250 H 1553.68 -4.86445 -5.14565 0
M  V30 17251 H 1554.09 -3.19352 -4.65483 0
M  V30 17252 N 1553.48 0.89303 -1.29857 0
M  V30 17253 C 1554.73 1.64657 -1.18389 0
M  V30 17254 C 1555.06 1.92417 0.262587 0
M  V30 17255 O 1554.34 1.53936 1.18887 0
M  V30 17256 C 1554.62 2.99148 -2.00456 0
M  V30 17257 C 1554.47 2.78411 -3.53281 0
M  V30 17258 C 1555.79 3.99968 -1.83613 0
M  V30 17259 H 1552.91 0.59752 -0.431438 0
M  V30 17260 H 1555.55 1.03397 -1.59402 0
M  V30 17261 H 1553.7 3.51435 -1.65607 0
M  V30 17262 H 1555.38 2.32974 -3.98147 0
M  V30 17263 H 1553.62 2.13067 -3.77869 0
M  V30 17264 H 1554.29 3.74008 -4.05983 0
M  V30 17265 H 1556.77 3.56813 -2.14064 0
M  V30 17266 H 1555.64 4.91997 -2.43373 0
M  V30 17267 H 1555.9 4.34928 -0.793098 0
M  V30 17268 N 1554.96 1.12442 1.10429 0
M  V30 17269 C 1556.21 0.881062 1.82661 0
M  V30 17270 C 1556.54 -0.591636 1.84968 0
M  V30 17271 O 1555.82 -1.43734 1.31037 0
M  V30 17272 C 1556.1 1.45658 3.29326 0
M  V30 17273 C 1555.95 2.99766 3.35352 0
M  V30 17274 C 1557.27 1.1162 4.2571 0
M  V30 17275 H 1554.39 0.321516 0.663172 0
M  V30 17276 H 1557.03 1.39102 1.29424 0
M  V30 17277 H 1555.18 1.02286 3.74793 0
M  V30 17278 H 1556.85 3.51818 2.98365 0
M  V30 17279 H 1555.1 3.35292 2.75249 0
M  V30 17280 H 1555.77 3.35128 4.38627 0
M  V30 17281 H 1558.24 1.49081 3.88477 0
M  V30 17282 H 1557.12 1.54552 5.26692 0
M  V30 17283 H 1557.38 0.0284093 4.42091 0
M  V30 17284 N 1556.44 -1.28223 0.91633 0
M  V30 17285 C 1557.39 -2.27215 0.40521 0
M  V30 17286 C 1558.36 -1.57693 -0.521734 0
M  V30 17287 O 1559.54 -1.85577 -0.443369 0
M  V30 17288 C 1556.68 -3.43358 -0.346303 0
M  V30 17289 C 1555.79 -4.27622 0.613443 0
M  V30 17290 C 1554.93 -5.30969 -0.156775 0
M  V30 17291 C 1553.97 -6.06897 0.796418 0
M  V30 17292 N 1553.11 -7.02075 0.0595539 0
M  V30 17293 H 1557.95 -2.70312 1.2544 0
M  V30 17294 H 1555.48 -1.32933 0.629859 0
M  V30 17295 H 1557.44 -4.09492 -0.798231 0
M  V30 17296 H 1556.07 -3.01244 -1.15982 0
M  V30 17297 H 1555.12 -3.61508 1.1839 0
M  V30 17298 H 1556.43 -4.80397 1.34239 0
M  V30 17299 H 1555.59 -6.02999 -0.669146 0
M  V30 17300 H 1554.33 -4.78968 -0.918755 0
M  V30 17301 H 1553.33 -5.33716 1.32014 0
M  V30 17302 H 1554.56 -6.60987 1.558 0
M  V30 17303 H 1552.5 -6.5242 -0.684388 0
M  V30 17304 H 1552.42 -7.52484 0.728275 0
M  V30 17305 H 1553.69 -7.78299 -0.432538 0
M  V30 17306 N 1557.92 -0.68059 -1.42147 0
M  V30 17307 C 1558.87 0.0170117 -2.27994 0
M  V30 17308 C 1559.85 0.767809 -1.41398 0
M  V30 17309 O 1561.04 0.645767 -1.64799 0
M  V30 17310 C 1558.17 0.963439 -3.29504 0
M  V30 17311 C 1557.26 0.20968 -4.23581 0
M  V30 17312 N 1557.65 -0.788543 -4.99615 0
M  V30 17313 C 1555.95 0.447304 -4.43751 0
M  V30 17314 C 1556.65 -1.23842 -5.68364 0
M  V30 17315 N 1555.62 -0.567238 -5.40632 0
M  V30 17316 H 1559.43 -0.748567 -2.84207 0
M  V30 17317 H 1556.94 -0.510145 -1.54179 0
M  V30 17318 H 1558.94 1.47823 -3.89813 0
M  V30 17319 H 1557.6 1.72878 -2.74851 0
M  V30 17320 H 1558.61 -1.16828 -5.04551 0
M  V30 17321 H 1555.29 1.1917 -4.00131 0
M  V30 17322 H 1556.68 -2.06593 -6.39351 0
M  V30 17323 N 1559.4 1.51781 -0.424309 0
M  V30 17324 C 1560.33 2.25144 0.429274 0
M  V30 17325 C 1561.34 1.2867 0.997389 0
M  V30 17326 O 1562.53 1.54514 0.893746 0
M  V30 17327 C 1559.63 2.98156 1.61109 0
M  V30 17328 C 1558.8 4.21623 1.16417 0
M  V30 17329 C 1557.86 4.77327 2.21462 0
M  V30 17330 O 1556.89 5.39511 1.8143 0
M  V30 17331 N 1558.09 4.60221 3.53803 0
M  V30 17332 H 1560.85 2.99036 -0.199438 0
M  V30 17333 H 1558.42 1.59919 -0.252492 0
M  V30 17334 H 1560.41 3.32312 2.30978 0
M  V30 17335 H 1558.98 2.27356 2.14541 0
M  V30 17336 H 1558.2 3.93109 0.293034 0
M  V30 17337 H 1559.49 5.01772 0.842767 0
M  V30 17338 H 1558.88 4.10661 3.89068 0
M  V30 17339 H 1557.44 4.98774 4.19604 0
M  V30 17340 N 1560.87 0.155222 1.56834 0
M  V30 17341 C 1561.82 -0.781315 2.17173 0
M  V30 17342 C 1562.79 -1.23835 1.10699 0
M  V30 17343 O 1563.98 -1.3094 1.38778 0
M  V30 17344 C 1561.12 -2.01174 2.80398 0
M  V30 17345 C 1560.23 -1.59976 4.01287 0
M  V30 17346 C 1559.36 -2.78262 4.52486 0
M  V30 17347 C 1558.4 -2.33477 5.65822 0
M  V30 17348 N 1557.54 -3.44799 6.11603 0
M  V30 17349 H 1562.38 -0.259968 2.96864 0
M  V30 17350 H 1559.92 -0.116599 1.46637 0
M  V30 17351 H 1561.87 -2.73318 3.15203 0
M  V30 17352 H 1560.5 -2.50706 2.03338 0
M  V30 17353 H 1559.56 -0.775668 3.72408 0
M  V30 17354 H 1560.87 -1.2309 4.83374 0
M  V30 17355 H 1560.02 -3.58585 4.89389 0
M  V30 17356 H 1558.76 -3.18398 3.69424 0
M  V30 17357 H 1557.77 -1.51596 5.28487 0
M  V30 17358 H 1558.99 -1.94417 6.50676 0
M  V30 17359 H 1556.94 -3.84541 5.31474 0
M  V30 17360 H 1556.85 -3.11955 6.88637 0
M  V30 17361 H 1558.12 -4.25454 6.53153 0
M  V30 17362 N 1562.35 -1.57153 -0.118549 0
M  V30 17363 C 1563.26 -2.03673 -1.16424 0
M  V30 17364 C 1564.28 -0.957203 -1.45305 0
M  V30 17365 O 1565.45 -1.26874 -1.56413 0
M  V30 17366 C 1562.52 -2.43211 -2.47082 0
M  V30 17367 C 1561.58 -3.65248 -2.25593 0
M  V30 17368 C 1560.81 -4.02891 -3.50021 0
M  V30 17369 O 1561.04 -3.40871 -4.57344 0
M  V30 17370 O 1559.97 -4.95989 -3.40996 0
M  V30 17371 H 1563.8 -2.92996 -0.799206 0
M  V30 17372 H 1561.38 -1.45724 -0.329376 0
M  V30 17373 H 1563.26 -2.69374 -3.24061 0
M  V30 17374 H 1561.94 -1.57034 -2.83058 0
M  V30 17375 H 1560.84 -3.44234 -1.46471 0
M  V30 17376 H 1562.18 -4.52131 -1.94521 0
M  V30 17377 N 1563.83 0.388742 -1.5273 0
M  V30 17378 C 1564.76 1.48133 -1.80496 0
M  V30 17379 C 1565.74 1.56899 -0.657008 0
M  V30 17380 O 1566.93 1.71844 -0.904621 0
M  V30 17381 C 1564.06 2.85742 -1.97405 0
M  V30 17382 C 1563.01 2.91815 -3.13094 0
M  V30 17383 C 1562.34 4.31876 -3.15258 0
M  V30 17384 C 1563.64 2.61438 -4.52159 0
M  V30 17385 H 1565.33 1.25147 -2.7199 0
M  V30 17386 H 1562.88 0.600603 -1.30877 0
M  V30 17387 H 1564.83 3.62182 -2.15412 0
M  V30 17388 H 1563.55 3.10065 -1.02601 0
M  V30 17389 H 1562.21 2.17824 -2.9487 0
M  V30 17390 H 1561.86 4.53239 -2.18135 0
M  V30 17391 H 1561.56 4.3686 -3.92972 0
M  V30 17392 H 1563.08 5.10221 -3.3542 0
M  V30 17393 H 1564.5 3.27596 -4.70483 0
M  V30 17394 H 1562.89 2.77771 -5.31943 0
M  V30 17395 H 1563.96 1.56778 -4.58856 0
M  V30 17396 N 1565.31 1.43698 0.647203 0
M  V30 17397 C 1566.26 1.49599 1.78109 0
M  V30 17398 C 1567.25 0.369047 1.65331 0
M  V30 17399 O 1568.46 0.543303 1.71605 0
M  V30 17400 H 1564.83 0.46911 0.587741 0
M  V30 17401 H 1566.8 2.45064 1.70253 0
M  V30 17402 C 1565.55 1.44192 3.16392 0
M  V30 17403 H 1564.87 2.30216 3.26865 0
M  V30 17404 H 1566.31 1.52382 3.95671 0
M  V30 17405 C 1564.77 0.16036 3.36518 0
M  V30 17406 O 1565.3 -0.77593 3.94135 0
M  V30 17407 N 1563.51 0.0686236 2.90519 0
M  V30 17408 H 1563.06 0.831363 2.43816 0
M  V30 17409 H 1563.01 -0.78814 3.04361 0
M  V30 17410 N 1566.79 -0.886131 1.30328 0
M  V30 17411 C 1568.06 -1.61912 1.09744 0
M  V30 17412 C 1568.44 -2.08116 -0.353663 0
M  V30 17413 O 1567.79 -1.84725 -1.34495 0
M  V30 17414 C 1568 -2.78954 2.09727 0
M  V30 17415 C 1569.35 -3.49313 2.41382 0
M  V30 17416 O 1570.37 -2.89141 2.08028 0
M  V30 17417 O 1569.23 -4.57823 2.98431 0
M  V30 17418 H 1566.33 -0.71158 0.421406 0
M  V30 17419 H 1568.87 -0.933009 1.4175 0
M  V30 17420 H 1567.64 -2.42109 3.07407 0
M  V30 17421 H 1567.27 -3.55263 1.78532 0
M  V30 17422 N 1568.26 -1.13026 -1.09832 0
M  V30 17423 C 1569.2 -0.747512 -2.1561 0
M  V30 17424 C 1570.18 0.2643 -1.60438 0
M  V30 17425 O 1571.36 0.156784 -1.87847 0
M  V30 17426 C 1568.49 -0.107449 -3.3853 0
M  V30 17427 C 1567.53 -1.08709 -4.12413 0
M  V30 17428 S 1568.37 -2.6176 -4.67164 0
M  V30 17429 C 1569.52 -1.99102 -5.93388 0
M  V30 17430 H 1569.75 -1.6435 -2.47743 0
M  V30 17431 H 1567.29 -0.949978 -1.21716 0
M  V30 17432 H 1569.25 0.255456 -4.09704 0
M  V30 17433 H 1567.91 0.765741 -3.04623 0
M  V30 17434 H 1567.1 -0.58698 -5.0057 0
M  V30 17435 H 1566.7 -1.39325 -3.4708 0
M  V30 17436 H 1568.99 -1.33755 -6.64166 0
M  V30 17437 H 1569.94 -2.85323 -6.48071 0
M  V30 17438 H 1570.34 -1.44429 -5.45711 0
M  V30 17439 N 1569.74 1.27735 -0.923117 0
M  V30 17440 C 1570.67 2.26095 -0.375982 0
M  V30 17441 C 1571.69 1.55227 0.490763 0
M  V30 17442 O 1572.88 1.7589 0.304127 0
M  V30 17443 C 1569.98 3.35479 0.480342 0
M  V30 17444 C 1569.15 4.35866 -0.36605 0
M  V30 17445 C 1568.21 5.24466 0.42688 0
M  V30 17446 O 1567.23 5.68964 -0.163825 0
M  V30 17447 N 1568.44 5.54192 1.72777 0
M  V30 17448 H 1571.2 2.73679 -1.22147 0
M  V30 17449 H 1568.76 1.41314 -0.790056 0
M  V30 17450 H 1570.75 3.91693 1.01776 0
M  V30 17451 H 1569.32 2.87531 1.22657 0
M  V30 17452 H 1568.54 3.7898 -1.08479 0
M  V30 17453 H 1569.83 4.9995 -0.944849 0
M  V30 17454 H 1569.23 5.19888 2.23008 0
M  V30 17455 H 1567.79 6.13125 2.21181 0
M  V30 17456 N 1571.22 0.688118 1.41784 0
M  V30 17457 C 1572.18 0.0271411 2.29184 0
M  V30 17458 C 1573.18 -0.715537 1.44002 0
M  V30 17459 O 1574.37 -0.551542 1.65238 0
M  V30 17460 C 1571.51 -0.97206 3.26747 0
M  V30 17461 H 1572.7 0.79658 2.89127 0
M  V30 17462 H 1570.25 0.451198 1.49646 0
M  V30 17463 H 1570.99 -1.76953 2.71769 0
M  V30 17464 H 1570.77 -0.442746 3.89592 0
M  V30 17465 H 1572.26 -1.43256 3.92259 0
M  V30 17466 N 1572.7 -1.51554 0.432352 0
M  V30 17467 C 1573.63 -2.25369 -0.417328 0
M  V30 17468 C 1574.64 -1.29197 -0.990551 0
M  V30 17469 O 1575.83 -1.54985 -0.885539 0
M  V30 17470 C 1572.93 -2.99006 -1.59526 0
M  V30 17471 C 1572.11 -4.22234 -1.1418 0
M  V30 17472 C 1571.16 -4.78495 -2.18928 0
M  V30 17473 O 1570.19 -5.40465 -1.78566 0
M  V30 17474 N 1571.39 -4.62091 -3.51358 0
M  V30 17475 H 1574.16 -2.98926 0.215294 0
M  V30 17476 H 1571.72 -1.59783 0.26097 0
M  V30 17477 H 1573.71 -3.33532 -2.29212 0
M  V30 17478 H 1572.28 -2.28491 -2.13332 0
M  V30 17479 H 1571.5 -3.93259 -0.272182 0
M  V30 17480 H 1572.79 -5.02212 -0.816145 0
M  V30 17481 H 1572.19 -4.12718 -3.86885 0
M  V30 17482 H 1570.74 -5.00992 -4.16953 0
M  V30 17483 N 1574.18 -0.163538 -1.56749 0
M  V30 17484 C 1575.11 0.765571 -2.20593 0
M  V30 17485 C 1576.09 1.24489 -1.15916 0
M  V30 17486 O 1577.27 1.29946 -1.44318 0
M  V30 17487 C 1574.4 1.99823 -2.84057 0
M  V30 17488 C 1573.36 1.65506 -3.94705 0
M  V30 17489 C 1572.68 2.96172 -4.45181 0
M  V30 17490 C 1573.98 0.88902 -5.14678 0
M  V30 17491 H 1575.68 0.233431 -2.98489 0
M  V30 17492 H 1573.22 0.110836 -1.43573 0
M  V30 17493 H 1575.18 2.65316 -3.27392 0
M  V30 17494 H 1573.9 2.55437 -2.03517 0
M  V30 17495 H 1572.56 1.02384 -3.52013 0
M  V30 17496 H 1572.21 3.49811 -3.61443 0
M  V30 17497 H 1571.91 2.73968 -5.19823 0
M  V30 17498 H 1573.43 3.62708 -4.91198 0
M  V30 17499 H 1574.84 1.44637 -5.54755 0
M  V30 17500 H 1573.24 0.766302 -5.95187 0
M  V30 17501 H 1574.31 -0.116145 -4.84761 0
M  V30 17502 N 1575.65 1.57214 0.110213 0
M  V30 17503 C 1576.9 1.85586 0.817649 0
M  V30 17504 C 1577.23 0.750536 1.79111 0
M  V30 17505 O 1576.51 -0.242864 1.92978 0
M  V30 17506 C 1576.79 3.24565 1.55979 0
M  V30 17507 C 1576.64 4.45708 0.605339 0
M  V30 17508 C 1577.96 3.61233 2.51393 0
M  V30 17509 H 1575.08 0.675037 0.295794 0
M  V30 17510 H 1577.72 1.89824 0.0816541 0
M  V30 17511 H 1575.87 3.21083 2.18718 0
M  V30 17512 H 1577.55 4.61298 -0.0138894 0
M  V30 17513 H 1575.79 4.33722 -0.0824644 0
M  V30 17514 H 1576.46 5.39643 1.16143 0
M  V30 17515 H 1578.94 3.65563 1.98754 0
M  V30 17516 H 1577.81 4.59438 3.00346 0
M  V30 17517 H 1578.07 2.89116 3.34461 0
M  V30 17518 N 1577.13 -0.380637 1.52934 0
M  V30 17519 C 1578.04 -1.48957 1.81243 0
M  V30 17520 C 1579.06 -1.5931 0.69974 0
M  V30 17521 O 1580.23 -1.75488 0.988218 0
M  V30 17522 C 1577.3 -2.84397 1.9829 0
M  V30 17523 C 1576.36 -2.83697 3.22202 0
M  V30 17524 C 1575.59 -4.12677 3.38427 0
M  V30 17525 O 1575.82 -5.08068 2.59274 0
M  V30 17526 O 1574.75 -4.19407 4.31719 0
M  V30 17527 H 1578.58 -1.27964 2.75425 0
M  V30 17528 H 1576.16 -0.56929 1.38128 0
M  V30 17529 H 1578.04 -3.64676 2.11161 0
M  V30 17530 H 1576.72 -3.054 1.07298 0
M  V30 17531 H 1575.63 -2.0217 3.14767 0
M  V30 17532 H 1576.96 -2.67648 4.13068 0
M  V30 17533 N 1578.61 -1.44039 -0.639573 0
M  V30 17534 C 1579.52 -1.52728 -1.78077 0
M  V30 17535 C 1580.54 -0.413467 -1.69016 0
M  V30 17536 O 1581.71 -0.669592 -1.89943 0
M  V30 17537 C 1578.78 -1.46078 -3.14424 0
M  V30 17538 C 1577.84 -2.68242 -3.35179 0
M  V30 17539 C 1577.07 -2.61899 -4.65021 0
M  V30 17540 O 1577.29 -1.67431 -5.45273 0
M  V30 17541 O 1576.23 -3.52619 -4.87795 0
M  V30 17542 H 1580.05 -2.49122 -1.737 0
M  V30 17543 H 1577.64 -1.26191 -0.799755 0
M  V30 17544 H 1579.52 -1.44861 -3.95719 0
M  V30 17545 H 1578.2 -0.528236 -3.19361 0
M  V30 17546 H 1577.1 -2.75028 -2.53595 0
M  V30 17547 H 1578.44 -3.60514 -3.35098 0
M  V30 17548 N 1580.09 0.879207 -1.30796 0
M  V30 17549 C 1581.33 1.6456 -1.21242 0
M  V30 17550 C 1581.69 1.90642 0.227986 0
M  V30 17551 O 1582.89 2.65059 0.446875 0
M  V30 17552 C 1581.16 2.94576 -2.02386 0
M  V30 17553 S 1582.72 3.85508 -2.09592 0
M  V30 17554 H 1579.54 0.564732 -0.43197 0
M  V30 17555 H 1582.14 1.04314 -1.65345 0
M  V30 17556 H 1580.85 2.73322 -3.06142 0
M  V30 17557 H 1580.38 3.59852 -1.58966 0
M  V30 17558 H 1582.39 4.80777 -1.2275 0
M  V30 17559 N 1581.57 1.13606 1.09231 0
M  V30 17560 C 1582.53 0.818197 2.14099 0
M  V30 17561 C 1583.53 -0.173275 1.59864 0
M  V30 17562 O 1584.72 0.05405 1.74116 0
M  V30 17563 C 1581.85 0.218138 3.40201 0
M  V30 17564 H 1583.05 1.74748 2.43727 0
M  V30 17565 H 1580.6 0.940962 1.24802 0
M  V30 17566 H 1581.33 -0.720269 3.162 0
M  V30 17567 H 1581.12 0.932156 3.80859 0
M  V30 17568 H 1582.61 0.0126639 4.17598 0
M  V30 17569 N 1583.05 -1.27244 0.929878 0
M  V30 17570 C 1584 -2.24434 0.401656 0
M  V30 17571 C 1584.98 -1.53087 -0.495298 0
M  V30 17572 O 1586.17 -1.73851 -0.332387 0
M  V30 17573 C 1583.3 -3.41588 -0.342424 0
M  V30 17574 C 1582.39 -4.20236 0.571171 0
M  V30 17575 N 1582.78 -4.76661 1.69197 0
M  V30 17576 C 1581.08 -4.44424 0.374595 0
M  V30 17577 C 1581.78 -5.35987 2.26036 0
M  V30 17578 N 1580.75 -5.21043 1.54969 0
M  V30 17579 H 1584.55 -2.65644 1.25739 0
M  V30 17580 H 1582.07 -1.422 0.784408 0
M  V30 17581 H 1584.07 -4.10319 -0.737805 0
M  V30 17582 H 1582.73 -3.01908 -1.19506 0
M  V30 17583 H 1583.74 -4.74545 2.07431 0
M  V30 17584 H 1580.41 -4.15205 -0.437201 0
M  V30 17585 H 1581.8 -5.90583 3.20408 0
M  V30 17586 N 1584.52 -0.695628 -1.41417 0
M  V30 17587 C 1585.94 -0.367185 -1.55319 0
M  V30 17588 C 1586.14 1.12584 -1.67114 0
M  V30 17589 O 1585.2 1.91166 -1.64959 0
M  V30 17590 C 1586.51 -1.11576 -2.79233 0
M  V30 17591 C 1588.06 -1.10011 -2.9303 0
M  V30 17592 C 1588.53 -1.83044 -4.19832 0
M  V30 17593 N 1590.02 -1.80014 -4.26789 0
M  V30 17594 C 1590.76 -2.33362 -5.23765 0
M  V30 17595 N 1590.25 -2.95182 -6.26769 0
M  V30 17596 N 1592.05 -2.23618 -5.15705 0
M  V30 17597 H 1584.2 -1.66398 -1.32006 0
M  V30 17598 H 1586.46 -0.702205 -0.636877 0
M  V30 17599 H 1586.17 -2.1706 -2.76727 0
M  V30 17600 H 1586.04 -0.694385 -3.70753 0
M  V30 17601 H 1588.43 -0.0535436 -2.95051 0
M  V30 17602 H 1588.51 -1.56055 -2.02683 0
M  V30 17603 H 1588.15 -2.8768 -4.18572 0
M  V30 17604 H 1588.08 -1.34434 -5.09151 0
M  V30 17605 H 1590.57 -1.34942 -3.52986 0
M  V30 17606 H 1590.89 -3.33456 -6.97156 0
M  V30 17607 H 1589.23 -2.99259 -6.27271 0
M  V30 17608 H 1592.42 -1.74994 -4.3416 0
M  V30 17609 H 1592.6 -2.65497 -5.91113 0
M  V30 17610 N 1586 1.51322 -0.440383 0
M  V30 17611 C 1586.95 2.2941 0.383883 0
M  V30 17612 C 1587.94 1.35388 1.01816 0
M  V30 17613 O 1589.15 1.52716 0.952775 0
M  V30 17614 H 1585.52 0.738354 0.142611 0
M  V30 17615 H 1587.5 2.96933 -0.295532 0
M  V30 17616 C 1586.24 3.15055 1.47091 0
M  V30 17617 H 1585.57 3.87292 0.992214 0
M  V30 17618 H 1587.01 3.72744 2.02084 0
M  V30 17619 C 1585.47 2.30628 2.45586 0
M  V30 17620 O 1586 1.96801 3.50189 0
M  V30 17621 N 1584.2 1.93792 2.16548 0
M  V30 17622 H 1583.75 2.215 1.31512 0
M  V30 17623 H 1583.71 1.37601 2.82689 0
M  V30 17624 N 1587.48 0.171848 1.5666 0
M  V30 17625 C 1588.39 -0.770721 2.21579 0
M  V30 17626 C 1589.41 -1.25273 1.20759 0
M  V30 17627 O 1590.58 -1.30474 1.53422 0
M  V30 17628 C 1587.65 -1.98256 2.84422 0
M  V30 17629 C 1586.71 -1.54738 4.00443 0
M  V30 17630 C 1585.94 -2.70145 4.6028 0
M  V30 17631 O 1586.16 -3.87026 4.19007 0
M  V30 17632 O 1585.1 -2.44189 5.50141 0
M  V30 17633 H 1588.92 -0.247974 3.02686 0
M  V30 17634 H 1586.51 -0.0563734 1.49294 0
M  V30 17635 H 1588.39 -2.69127 3.24266 0
M  V30 17636 H 1587.07 -2.49435 2.0631 0
M  V30 17637 H 1585.97 -0.808152 3.65267 0
M  V30 17638 H 1587.31 -1.08249 4.80149 0
M  V30 17639 N 1588.96 -1.5727 -0.101874 0
M  V30 17640 C 1589.89 -2.04614 -1.12496 0
M  V30 17641 C 1590.87 -0.933768 -1.42179 0
M  V30 17642 O 1592.05 -1.2046 -1.52325 0
M  V30 17643 C 1589.18 -2.46488 -2.44665 0
M  V30 17644 C 1588.14 -3.61327 -2.29406 0
M  V30 17645 C 1587.46 -3.89155 -3.66691 0
M  V30 17646 C 1588.76 -4.92455 -1.74026 0
M  V30 17647 H 1590.46 -2.90336 -0.731109 0
M  V30 17648 H 1588 -1.39676 -0.350239 0
M  V30 17649 H 1589.96 -2.78216 -3.16502 0
M  V30 17650 H 1588.68 -1.57757 -2.85972 0
M  V30 17651 H 1587.34 -3.29835 -1.60015 0
M  V30 17652 H 1586.99 -2.97603 -4.05514 0
M  V30 17653 H 1586.69 -4.66465 -3.57329 0
M  V30 17654 H 1588.21 -4.23352 -4.40006 0
M  V30 17655 H 1589.63 -5.22609 -2.35697 0
M  V30 17656 H 1588.02 -5.73882 -1.75441 0
M  V30 17657 H 1589.09 -4.79833 -0.699136 0
M  V30 17658 N 1590.44 0.372521 -1.53134 0
M  V30 17659 C 1591.37 1.4759 -1.75357 0
M  V30 17660 C 1592.38 1.49938 -0.634223 0
M  V30 17661 O 1593.57 1.53543 -0.910322 0
M  V30 17662 C 1590.67 2.86382 -1.81214 0
M  V30 17663 C 1589.84 3.0781 -3.1076 0
M  V30 17664 C 1588.9 4.26677 -3.07949 0
M  V30 17665 O 1587.93 4.22186 -3.81769 0
M  V30 17666 N 1589.13 5.33729 -2.28283 0
M  V30 17667 H 1591.89 1.28908 -2.7056 0
M  V30 17668 H 1589.46 0.562186 -1.51826 0
M  V30 17669 H 1591.45 3.64029 -1.7682 0
M  V30 17670 H 1590.02 2.98344 -0.933249 0
M  V30 17671 H 1589.24 2.17884 -3.28512 0
M  V30 17672 H 1590.53 3.18991 -3.96386 0
M  V30 17673 H 1589.92 5.40238 -1.67806 0
M  V30 17674 H 1588.48 6.09979 -2.29714 0
M  V30 17675 N 1591.91 1.44376 0.631925 0
M  V30 17676 C 1592.85 1.45649 1.75675 0
M  V30 17677 C 1593.82 0.31542 1.59511 0
M  V30 17678 O 1595.01 0.512271 1.81406 0
M  V30 17679 C 1592.14 1.2884 3.13238 0
M  V30 17680 C 1591.18 2.46499 3.48053 0
M  V30 17681 S 1592.01 4.0903 3.45622 0
M  V30 17682 C 1593.17 3.94643 4.85807 0
M  V30 17683 H 1593.4 2.40825 1.74328 0
M  V30 17684 H 1590.94 1.31664 0.806467 0
M  V30 17685 H 1592.89 1.19829 3.92621 0
M  V30 17686 H 1591.56 0.351754 3.12124 0
M  V30 17687 H 1590.75 2.30599 4.48152 0
M  V30 17688 H 1590.35 2.52245 2.76131 0
M  V30 17689 H 1592.64 3.58283 5.75012 0
M  V30 17690 H 1593.59 4.94569 5.06761 0
M  V30 17691 H 1593.99 3.26717 4.60343 0
M  V30 17692 N 1593.39 -0.872258 1.31261 0
M  V30 17693 C 1594.32 -1.9853 1.14537 0
M  V30 17694 C 1595.34 -1.62578 0.0850723 0
M  V30 17695 O 1596.53 -1.75379 0.332343 0
M  V30 17696 C 1593.63 -3.31005 0.72727 0
M  V30 17697 C 1592.8 -3.95313 1.87208 0
M  V30 17698 C 1591.86 -5.06101 1.44042 0
M  V30 17699 O 1590.88 -5.27045 2.1497 0
M  V30 17700 N 1592.09 -5.79581 0.32653 0
M  V30 17701 H 1594.85 -2.13423 2.10406 0
M  V30 17702 H 1592.41 -1.0461 1.23565 0
M  V30 17703 H 1594.4 -4.02502 0.421255 0
M  V30 17704 H 1592.97 -3.12287 -0.13975 0
M  V30 17705 H 1592.19 -3.16825 2.34553 0
M  V30 17706 H 1593.48 -4.35015 2.63893 0
M  V30 17707 H 1592.88 -5.65083 -0.264202 0
M  V30 17708 H 1591.44 -6.51751 0.0800358 0
M  V30 17709 N 1594.87 -1.14184 -1.08627 0
M  V30 17710 C 1595.8 -0.849455 -2.17501 0
M  V30 17711 C 1596.78 0.194617 -1.68983 0
M  V30 17712 O 1597.97 0.0517757 -1.94131 0
M  V30 17713 C 1595.1 -0.323685 -3.45788 0
M  V30 17714 C 1594.05 -1.30294 -4.07685 0
M  V30 17715 C 1593.38 -0.636575 -5.30897 0
M  V30 17716 C 1594.68 -2.66441 -4.49229 0
M  V30 17717 H 1596.37 -1.75987 -2.42217 0
M  V30 17718 H 1593.92 -0.847595 -1.16412 0
M  V30 17719 H 1595.87 -0.106754 -4.21265 0
M  V30 17720 H 1594.59 0.62215 -3.20619 0
M  V30 17721 H 1593.25 -1.50601 -3.34238 0
M  V30 17722 H 1592.9 0.314995 -5.02013 0
M  V30 17723 H 1592.6 -1.28998 -5.73266 0
M  V30 17724 H 1594.12 -0.429117 -6.0909 0
M  V30 17725 H 1595.54 -2.50055 -5.15893 0
M  V30 17726 H 1593.93 -3.28033 -5.02508 0
M  V30 17727 H 1595 -3.23486 -3.61226 0
M  V30 17728 N 1596.35 1.26749 -0.936613 0
M  V30 17729 C 1597.31 2.24794 -0.447243 0
M  V30 17730 C 1598.31 1.54688 0.439135 0
M  V30 17731 O 1599.5 1.72553 0.238957 0
M  V30 17732 C 1596.63 3.39036 0.355958 0
M  V30 17733 H 1597.83 2.696 -1.31361 0
M  V30 17734 H 1595.38 1.38825 -0.718143 0
M  V30 17735 H 1596.11 2.99625 1.24077 0
M  V30 17736 H 1595.9 3.91101 -0.279691 0
M  V30 17737 H 1597.39 4.11887 0.688421 0
M  V30 17738 N 1597.83 0.703118 1.41046 0
M  V30 17739 C 1599.05 0.245088 2.05947 0
M  V30 17740 C 1599.48 -1.09988 1.52592 0
M  V30 17741 O 1598.83 -1.69015 0.656023 0
M  V30 17742 C 1598.88 0.221444 3.59919 0
M  V30 17743 O 1597.99 -0.801324 4.0454 0
M  V30 17744 H 1597.33 0.117862 0.653456 0
M  V30 17745 H 1599.86 0.960099 1.80674 0
M  V30 17746 H 1599.87 0.0548681 4.07963 0
M  V30 17747 H 1598.54 1.20301 3.98121 0
M  V30 17748 H 1597.12 -0.603489 3.67984 0
M  V30 17749 N 1599.3 -1.51086 0.448402 0
M  V30 17750 C 1600.25 -2.28015 -0.357438 0
M  V30 17751 C 1601.22 -1.32079 -1.00719 0
M  V30 17752 O 1602.41 -1.60995 -1.02398 0
M  V30 17753 C 1599.55 -3.13324 -1.44644 0
M  V30 17754 C 1598.66 -4.24267 -0.813729 0
M  V30 17755 C 1597.79 -4.96868 -1.87871 0
M  V30 17756 C 1596.83 -5.99716 -1.22502 0
M  V30 17757 N 1595.97 -6.65682 -2.23185 0
M  V30 17758 H 1600.81 -2.96436 0.30493 0
M  V30 17759 H 1598.35 -1.46203 0.162222 0
M  V30 17760 H 1600.31 -3.61119 -2.08924 0
M  V30 17761 H 1598.94 -2.46996 -2.07829 0
M  V30 17762 H 1597.99 -3.80354 -0.0589414 0
M  V30 17763 H 1599.3 -4.97917 -0.296587 0
M  V30 17764 H 1598.45 -5.48266 -2.59786 0
M  V30 17765 H 1597.19 -4.22873 -2.42961 0
M  V30 17766 H 1596.2 -5.476 -0.491388 0
M  V30 17767 H 1597.42 -6.75674 -0.681315 0
M  V30 17768 H 1595.37 -5.94493 -2.77334 0
M  V30 17769 H 1595.29 -7.35134 -1.76393 0
M  V30 17770 H 1596.55 -7.21707 -2.9455 0
M  V30 17771 N 1600.78 -0.180154 -1.56567 0
M  V30 17772 C 1601.69 0.758959 -2.21984 0
M  V30 17773 C 1602.71 1.24631 -1.21422 0
M  V30 17774 O 1603.88 1.29659 -1.54112 0
M  V30 17775 C 1600.95 1.96744 -2.85469 0
M  V30 17776 C 1600.01 1.52612 -4.01258 0
M  V30 17777 C 1599.24 2.677 -4.61706 0
M  V30 17778 O 1599.47 3.84799 -4.21054 0
M  V30 17779 O 1598.4 2.41269 -5.51428 0
M  V30 17780 H 1602.23 0.231919 -3.02813 0
M  V30 17781 H 1599.81 0.0484552 -1.49321 0
M  V30 17782 H 1601.69 2.67404 -3.25689 0
M  V30 17783 H 1600.37 2.48337 -2.0763 0
M  V30 17784 H 1599.28 0.78877 -3.6569 0
M  V30 17785 H 1600.61 1.05701 -4.80716 0
M  V30 17786 N 1602.26 1.57322 0.0935319 0
M  V30 17787 C 1603.49 1.90754 0.814111 0
M  V30 17788 C 1603.91 0.774571 1.71412 0
M  V30 17789 O 1603.27 -0.273775 1.79221 0
M  V30 17790 C 1603.32 3.23055 1.60211 0
M  V30 17791 O 1602.42 3.10755 2.71118 0
M  V30 17792 H 1601.76 0.625237 0.223552 0
M  V30 17793 H 1604.29 2.04486 0.068288 0
M  V30 17794 H 1604.3 3.56401 1.986 0
M  V30 17795 H 1602.98 4.05101 0.941607 0
M  V30 17796 H 1601.55 2.88926 2.35745 0
M  V30 17797 N 1603.74 -0.364395 1.53329 0
M  V30 17798 C 1605.02 -1.12265 1.60174 0
M  V30 17799 C 1605.4 -2.0708 0.410015 0
M  V30 17800 O 1604.74 -2.20492 -0.599631 0
M  V30 17801 C 1604.95 -1.86071 2.9526 0
M  V30 17802 C 1606.3 -2.40562 3.49879 0
M  V30 17803 O 1607.33 -1.96196 2.97297 0
M  V30 17804 O 1606.18 -3.2167 4.41804 0
M  V30 17805 H 1603.28 -0.515062 0.647024 0
M  V30 17806 H 1605.82 -0.367563 1.65672 0
M  V30 17807 H 1604.6 -1.1688 3.73436 0
M  V30 17808 H 1604.22 -2.68486 2.93259 0
M  V30 17809 N 1605.22 -1.44709 -0.62426 0
M  V30 17810 C 1606.47 -1.47131 -1.37968 0
M  V30 17811 C 1606.78 -0.110507 -1.95288 0
M  V30 17812 O 1607.98 -0.0122892 -2.71497 0
M  V30 17813 C 1606.44 -2.59059 -2.49833 0
M  V30 17814 C 1606.05 -4.01378 -1.98997 0
M  V30 17815 C 1607.79 -2.70709 -3.26981 0
M  V30 17816 C 1605.7 -5.04717 -3.08244 0
M  V30 17817 H 1604.63 -0.547424 -0.5185 0
M  V30 17818 H 1607.28 -1.70797 -0.670863 0
M  V30 17819 H 1605.66 -2.28646 -3.23322 0
M  V30 17820 H 1606.84 -4.41391 -1.32327 0
M  V30 17821 H 1605.15 -3.9403 -1.34644 0
M  V30 17822 H 1607.75 -3.45087 -4.08435 0
M  V30 17823 H 1608.09 -1.76763 -3.76909 0
M  V30 17824 H 1608.62 -3.00566 -2.60585 0
M  V30 17825 H 1605.36 -6.00315 -2.63253 0
M  V30 17826 H 1604.88 -4.6929 -3.73534 0
M  V30 17827 H 1606.56 -5.28725 -3.72906 0
M  V30 17828 N 1606.69 0.865285 -1.31722 0
M  V30 17829 C 1607.6 2.00542 -1.21738 0
M  V30 17830 C 1608.62 1.7349 -0.133124 0
M  V30 17831 O 1609.8 1.98303 -0.351809 0
M  V30 17832 C 1606.86 3.33993 -0.930045 0
M  V30 17833 C 1605.92 3.74337 -2.10167 0
M  V30 17834 C 1605.16 5.0142 -1.82795 0
M  V30 17835 O 1605.38 5.65242 -0.765345 0
M  V30 17836 O 1604.31 5.38642 -2.68604 0
M  V30 17837 H 1608.14 2.11898 -2.17561 0
M  V30 17838 H 1605.72 0.994313 -1.11507 0
M  V30 17839 H 1607.61 4.14008 -0.785846 0
M  V30 17840 H 1606.28 3.237 -0.00188642 0
M  V30 17841 H 1605.19 2.94943 -2.3013 0
M  V30 17842 H 1606.52 3.89261 -3.01225 0
M  V30 17843 N 1608.17 1.14759 1.0802 0
M  V30 17844 C 1609.1 0.795901 2.14937 0
M  V30 17845 C 1610.12 -0.189008 1.61699 0
M  V30 17846 O 1611.31 0.0332689 1.78469 0
M  V30 17847 C 1608.41 0.161388 3.38516 0
M  V30 17848 C 1607.58 1.18202 4.21126 0
M  V30 17849 C 1606.64 0.570535 5.23098 0
M  V30 17850 O 1605.66 1.2346 5.55649 0
M  V30 17851 N 1606.87 -0.650883 5.76839 0
M  V30 17852 H 1609.63 1.716 2.4571 0
M  V30 17853 H 1607.19 1.04254 1.23866 0
M  V30 17854 H 1609.18 -0.260289 4.03862 0
M  V30 17855 H 1607.75 -0.661917 3.05512 0
M  V30 17856 H 1606.97 1.78049 3.51699 0
M  V30 17857 H 1608.26 1.87135 4.73136 0
M  V30 17858 H 1607.66 -1.2089 5.52632 0
M  V30 17859 H 1606.22 -1.01501 6.43848 0
M  V30 17860 N 1609.65 -1.26251 0.943322 0
M  V30 17861 C 1610.58 -2.28673 0.472347 0
M  V30 17862 C 1611.56 -1.63319 -0.475481 0
M  V30 17863 O 1612.75 -1.90508 -0.376875 0
M  V30 17864 C 1609.88 -3.46316 -0.261286 0
M  V30 17865 C 1608.83 -4.23771 0.600192 0
M  V30 17866 C 1608.16 -5.3405 -0.263525 0
M  V30 17867 C 1609.46 -4.87576 1.87262 0
M  V30 17868 H 1611.15 -2.68319 1.32836 0
M  V30 17869 H 1608.7 -1.28987 0.640182 0
M  V30 17870 H 1610.65 -4.1708 -0.601821 0
M  V30 17871 H 1609.37 -3.05629 -1.15146 0
M  V30 17872 H 1608.03 -3.54774 0.923651 0
M  V30 17873 H 1607.68 -4.89604 -1.15312 0
M  V30 17874 H 1607.38 -5.86784 0.309495 0
M  V30 17875 H 1608.9 -6.07652 -0.599281 0
M  V30 17876 H 1610.32 -5.50544 1.59919 0
M  V30 17877 H 1608.72 -5.50437 2.39038 0
M  V30 17878 H 1609.79 -4.10397 2.58268 0
M  V30 17879 N 1611.13 -0.710588 -1.40671 0
M  V30 17880 C 1612.55 -0.383638 -1.54921 0
M  V30 17881 C 1612.75 1.10805 -1.68299 0
M  V30 17882 O 1611.8 1.89406 -1.66978 0
M  V30 17883 C 1613.11 -1.14532 -2.78034 0
M  V30 17884 C 1614.66 -1.13113 -2.91847 0
M  V30 17885 C 1615.14 -1.87487 -4.17867 0
M  V30 17886 N 1616.63 -1.8453 -4.24856 0
M  V30 17887 C 1617.36 -2.38904 -5.2126 0
M  V30 17888 N 1616.86 -3.01813 -6.23603 0
M  V30 17889 N 1618.65 -2.29075 -5.13304 0
M  V30 17890 H 1610.8 -1.67789 -1.30233 0
M  V30 17891 H 1613.07 -0.70892 -0.629393 0
M  V30 17892 H 1612.77 -2.19983 -2.74409 0
M  V30 17893 H 1612.65 -0.733669 -3.69996 0
M  V30 17894 H 1615.03 -0.0848347 -2.94978 0
M  V30 17895 H 1615.11 -1.58196 -2.01017 0
M  V30 17896 H 1614.76 -2.92104 -4.15497 0
M  V30 17897 H 1614.69 -1.39827 -5.07697 0
M  V30 17898 H 1617.18 -1.38679 -3.51535 0
M  V30 17899 H 1617.49 -3.40832 -6.9358 0
M  V30 17900 H 1615.84 -3.05896 -6.24062 0
M  V30 17901 H 1619.03 -1.79589 -4.32279 0
M  V30 17902 H 1619.2 -2.71752 -5.88264 0
M  V30 17903 N 1612.61 1.50847 -0.456408 0
M  V30 17904 C 1613.57 2.26755 0.33388 0
M  V30 17905 C 1614.57 1.30947 0.933247 0
M  V30 17906 O 1615.76 1.54499 0.804716 0
M  V30 17907 C 1612.89 3.07378 1.47417 0
M  V30 17908 H 1614.09 2.98061 -0.331634 0
M  V30 17909 H 1611.64 1.54882 -0.210067 0
M  V30 17910 H 1612.37 2.40534 2.17518 0
M  V30 17911 H 1612.16 3.7777 1.05036 0
M  V30 17912 H 1613.65 3.64826 2.03204 0
M  V30 17913 N 1614.09 0.188454 1.56469 0
M  V30 17914 C 1615.03 -0.735074 2.18781 0
M  V30 17915 C 1616 -1.21459 1.133 0
M  V30 17916 O 1617.19 -1.27967 1.41524 0
M  V30 17917 C 1614.33 -1.95181 2.84602 0
M  V30 17918 C 1613.44 -1.51428 4.0459 0
M  V30 17919 C 1612.58 -2.68601 4.58287 0
M  V30 17920 C 1611.61 -2.21422 5.70648 0
M  V30 17921 N 1610.75 -3.31749 6.18779 0
M  V30 17922 H 1615.59 -0.19694 2.97349 0
M  V30 17923 H 1613.13 -0.0854693 1.46851 0
M  V30 17924 H 1615.09 -2.66571 3.2093 0
M  V30 17925 H 1613.72 -2.46337 2.0861 0
M  V30 17926 H 1612.77 -0.6965 3.73969 0
M  V30 17927 H 1614.08 -1.1281 4.85876 0
M  V30 17928 H 1613.23 -3.48123 4.96885 0
M  V30 17929 H 1611.97 -3.1049 3.76095 0
M  V30 17930 H 1610.98 -1.40352 5.31584 0
M  V30 17931 H 1612.2 -1.80572 6.54653 0
M  V30 17932 H 1610.15 -3.73181 5.39511 0
M  V30 17933 H 1610.07 -2.97277 6.95099 0
M  V30 17934 H 1611.33 -4.11504 6.62031 0
M  V30 17935 N 1615.56 -1.5737 -0.0851874 0
M  V30 17936 C 1616.49 -2.05796 -1.10319 0
M  V30 17937 C 1617.47 -0.948796 -1.4118 0
M  V30 17938 O 1618.66 -1.22069 -1.51039 0
M  V30 17939 C 1615.79 -2.49069 -2.42037 0
M  V30 17940 C 1614.74 -3.6374 -2.25561 0
M  V30 17941 C 1614.07 -3.93023 -3.62543 0
M  V30 17942 C 1615.37 -4.94274 -1.68793 0
M  V30 17943 H 1617.06 -2.91095 -0.700274 0
M  V30 17944 H 1614.61 -1.40039 -0.335405 0
M  V30 17945 H 1616.56 -2.81558 -3.13534 0
M  V30 17946 H 1615.29 -1.60781 -2.84283 0
M  V30 17947 H 1613.95 -3.31513 -1.56507 0
M  V30 17948 H 1613.59 -3.01887 -4.02335 0
M  V30 17949 H 1613.29 -4.70229 -3.52362 0
M  V30 17950 H 1614.82 -4.27995 -4.35491 0
M  V30 17951 H 1616.23 -5.25079 -2.30141 0
M  V30 17952 H 1614.63 -5.75711 -1.69344 0
M  V30 17953 H 1615.7 -4.80548 -0.648204 0
M  V30 17954 N 1617.04 0.356258 -1.53521 0
M  V30 17955 C 1617.97 1.44271 -1.83598 0
M  V30 17956 C 1618.95 1.5547 -0.690141 0
M  V30 17957 O 1620.14 1.69886 -0.940868 0
M  V30 17958 C 1617.27 2.8149 -2.03422 0
M  V30 17959 C 1616.22 2.85108 -3.19213 0
M  V30 17960 C 1615.55 4.25091 -3.24348 0
M  V30 17961 C 1616.85 2.51788 -4.57602 0
M  V30 17962 H 1618.54 1.1935 -2.74583 0
M  V30 17963 H 1616.09 0.572707 -1.32121 0
M  V30 17964 H 1618.04 3.57531 -2.23046 0
M  V30 17965 H 1616.76 3.07819 -1.09155 0
M  V30 17966 H 1615.42 2.1152 -2.99424 0
M  V30 17967 H 1615.07 4.4851 -2.277 0
M  V30 17968 H 1614.77 4.28426 -4.0215 0
M  V30 17969 H 1616.3 5.02992 -3.46167 0
M  V30 17970 H 1617.71 3.17542 -4.77326 0
M  V30 17971 H 1616.11 2.66426 -5.37715 0
M  V30 17972 H 1617.18 1.4701 -4.62078 0
M  V30 17973 N 1618.52 1.45038 0.616577 0
M  V30 17974 C 1619.8 1.39059 1.37557 0
M  V30 17975 C 1620.18 0.0566307 2.11024 0
M  V30 17976 O 1619.52 -0.961203 2.073 0
M  V30 17977 C 1619.73 2.59841 2.32989 0
M  V30 17978 C 1621.08 3.04539 2.95874 0
M  V30 17979 O 1622.11 2.6015 2.43312 0
M  V30 17980 O 1620.97 3.81547 3.9126 0
M  V30 17981 H 1618.06 0.551396 0.616353 0
M  V30 17982 H 1620.61 1.57152 0.640416 0
M  V30 17983 H 1619.38 3.48521 1.779 0
M  V30 17984 H 1619 2.44036 3.13899 0
M  V30 17985 N 1620 -0.858287 1.32179 0
M  V30 17986 C 1620.93 -1.98219 1.23415 0
M  V30 17987 C 1621.91 -1.69685 0.118779 0
M  V30 17988 O 1623.09 -1.91785 0.305342 0
M  V30 17989 C 1620.22 -3.33977 0.952725 0
M  V30 17990 C 1619.18 -3.76853 2.02894 0
M  V30 17991 C 1618.5 -5.10201 1.59999 0
M  V30 17992 C 1619.8 -3.92707 3.44352 0
M  V30 17993 H 1621.5 -2.05809 2.17446 0
M  V30 17994 H 1619.04 -0.988817 1.04682 0
M  V30 17995 H 1621 -4.12152 0.87798 0
M  V30 17996 H 1619.72 -3.26592 -0.023234 0
M  V30 17997 H 1618.38 -3.00926 2.09378 0
M  V30 17998 H 1618.03 -4.99268 0.61157 0
M  V30 17999 H 1617.73 -5.39859 2.32004 0
M  V30 18000 H 1619.25 -5.90873 1.53954 0
M  V30 18001 H 1620.67 -4.61246 3.40477 0
M  V30 18002 H 1619.06 -4.33779 4.14675 0
M  V30 18003 H 1620.13 -2.95731 3.8428 0
M  V30 18004 N 1621.48 -1.1533 -1.07409 0
M  V30 18005 C 1622.7 -0.952101 -1.84255 0
M  V30 18006 C 1623.13 0.494571 -1.81482 0
M  V30 18007 O 1622.48 1.35253 -1.20733 0
M  V30 18008 C 1622.53 -1.47019 -3.29268 0
M  V30 18009 O 1621.64 -0.669005 -4.06937 0
M  V30 18010 H 1620.98 -0.339643 -0.57056 0
M  V30 18011 H 1623.51 -1.53298 -1.35502 0
M  V30 18012 H 1623.52 -1.48278 -3.80102 0
M  V30 18013 H 1622.19 -2.5234 -3.30602 0
M  V30 18014 H 1620.77 -0.726003 -3.65764 0
M  V30 18015 N 1622.95 1.25748 -0.950004 0
M  V30 18016 C 1624.23 1.88566 -0.519839 0
M  V30 18017 C 1624.61 1.85761 1.00279 0
M  V30 18018 O 1623.96 1.31797 1.8666 0
M  V30 18019 C 1624.17 3.31502 -1.09121 0
M  V30 18020 C 1625.52 4.08298 -1.16524 0
M  V30 18021 O 1626.54 3.40605 -1.04243 0
M  V30 18022 O 1625.4 5.29375 -1.35735 0
M  V30 18023 H 1622.49 0.809175 -0.170777 0
M  V30 18024 H 1625.04 1.33853 -1.04314 0
M  V30 18025 H 1623.81 3.2795 -2.13458 0
M  V30 18026 H 1623.43 3.93765 -0.550881 0
M  V30 18027 N 1624.43 0.718038 1.40292 0
M  V30 18028 C 1625.66 0.266918 2.05675 0
M  V30 18029 C 1626.08 -1.08364 1.53749 0
M  V30 18030 O 1625.44 -1.6831 0.673912 0
M  V30 18031 C 1625.49 0.259606 3.59664 0
M  V30 18032 O 1624.59 -0.758372 4.05367 0
M  V30 18033 H 1623.93 0.124786 0.652169 0
M  V30 18034 H 1626.46 0.979207 1.79646 0
M  V30 18035 H 1626.47 0.098135 4.07882 0
M  V30 18036 H 1625.15 1.24517 3.96823 0
M  V30 18037 H 1623.72 -0.564425 3.68604 0
M  V30 18038 N 1625.91 -1.50602 0.464402 0
M  V30 18039 C 1627.14 -2.06701 -0.0907765 0
M  V30 18040 C 1627.55 -1.32901 -1.341 0
M  V30 18041 O 1626.91 -0.396323 -1.78145 0
M  V30 18042 C 1626.96 -3.59437 -0.385667 0
M  V30 18043 O 1626.68 -4.30453 0.81496 0
M  V30 18044 C 1628.18 -4.32137 -0.988549 0
M  V30 18045 H 1625.4 -0.670987 0.00410069 0
M  V30 18046 H 1627.95 -1.93853 0.651264 0
M  V30 18047 H 1626.1 -3.7211 -1.07763 0
M  V30 18048 H 1626.52 -5.2155 0.55551 0
M  V30 18049 H 1627.99 -5.40001 -1.1447 0
M  V30 18050 H 1628.47 -3.92194 -1.97688 0
M  V30 18051 H 1629.07 -4.23977 -0.335166 0
M  V30 18052 N 1627.39 -0.19675 -1.56367 0
M  V30 18053 C 1628.61 0.450245 -2.02454 0
M  V30 18054 C 1629.04 1.54287 -1.07597 0
M  V30 18055 O 1628.4 1.81202 -0.0597529 0
M  V30 18056 C 1628.44 0.982087 -3.46969 0
M  V30 18057 O 1627.55 2.09489 -3.5523 0
M  V30 18058 H 1626.89 0.105022 -0.655642 0
M  V30 18059 H 1629.42 -0.308112 -2.02267 0
M  V30 18060 H 1629.43 1.29826 -3.86793 0
M  V30 18061 H 1628.1 0.18224 -4.15501 0
M  V30 18062 H 1626.68 1.78723 -3.27281 0
M  V30 18063 N 1628.87 1.57413 0.0768405 0
M  V30 18064 C 1630.11 1.87279 0.778099 0
M  V30 18065 C 1630.45 0.788359 1.77478 0
M  V30 18066 O 1629.72 -0.201876 1.9345 0
M  V30 18067 C 1630 3.27801 1.49059 0
M  V30 18068 C 1629.86 4.46892 0.510661 0
M  V30 18069 C 1631.18 3.66485 2.43674 0
M  V30 18070 H 1628.29 0.681159 0.281409 0
M  V30 18071 H 1630.94 1.89955 0.0413711 0
M  V30 18072 H 1629.09 3.2565 2.11859 0
M  V30 18073 H 1630.76 4.61165 -0.111734 0
M  V30 18074 H 1629 4.33449 -0.174445 0
M  V30 18075 H 1629.67 5.41985 1.04671 0
M  V30 18076 H 1632.15 3.69696 1.90955 0
M  V30 18077 H 1631.02 4.65706 2.90533 0
M  V30 18078 H 1631.29 2.96145 3.28254 0
M  V30 18079 N 1630.34 -0.348112 1.53707 0
M  V30 18080 C 1631.31 -1.41018 1.80683 0
M  V30 18081 C 1632.31 -1.4582 0.67774 0
M  V30 18082 O 1633.5 -1.46275 0.94601 0
M  V30 18083 C 1630.63 -2.79988 1.94473 0
M  V30 18084 H 1631.82 -1.18365 2.75554 0
M  V30 18085 H 1629.38 -0.582244 1.4505 0
M  V30 18086 H 1630.11 -3.07931 1.0173 0
M  V30 18087 H 1629.9 -2.77899 2.76612 0
M  V30 18088 H 1631.39 -3.56868 2.16876 0
M  V30 18089 N 1631.82 -1.45363 -0.608876 0
M  V30 18090 C 1633.05 -1.53066 -1.39949 0
M  V30 18091 C 1633.47 -0.16369 -1.87386 0
M  V30 18092 O 1632.83 0.851432 -1.60064 0
M  V30 18093 C 1632.88 -2.51836 -2.58091 0
M  V30 18094 O 1631.98 -2.03528 -3.58678 0
M  V30 18095 H 1631.32 -0.516031 -0.417861 0
M  V30 18096 H 1633.85 -1.90705 -0.74113 0
M  V30 18097 H 1633.86 -2.706 -3.05352 0
M  V30 18098 H 1632.54 -3.51117 -2.22912 0
M  V30 18099 H 1631.12 -1.94634 -3.18075 0
M  V30 18100 N 1633.3 0.851265 -1.32632 0
M  V30 18101 C 1634.55 1.60569 -1.23385 0
M  V30 18102 C 1634.88 1.93433 0.203484 0
M  V30 18103 O 1634.13 1.57806 1.1574 0
M  V30 18104 C 1634.43 2.93312 -2.04212 0
M  V30 18105 C 1634.1 2.79864 -3.53535 0
M  V30 18106 C 1632.76 2.75903 -3.94247 0
M  V30 18107 C 1635.11 2.65553 -4.48476 0
M  V30 18108 C 1632.44 2.55515 -5.28137 0
M  V30 18109 C 1634.79 2.467 -5.82514 0
M  V30 18110 C 1633.45 2.41134 -6.22423 0
M  V30 18111 H 1632.72 0.587563 -0.451498 0
M  V30 18112 H 1635.37 0.987209 -1.64093 0
M  V30 18113 H 1633.68 3.59298 -1.56243 0
M  V30 18114 H 1635.37 3.50714 -1.94424 0
M  V30 18115 H 1631.96 2.83773 -3.21202 0
M  V30 18116 H 1636.15 2.67655 -4.17941 0
M  V30 18117 H 1631.4 2.49644 -5.58111 0
M  V30 18118 H 1635.58 2.34607 -6.55692 0
M  V30 18119 H 1633.2 2.25095 -7.2611 0
M  V30 18120 N 1634.78 1.15898 1.06796 0
M  V30 18121 C 1636.19 0.945837 1.60968 0
M  V30 18122 C 1636.54 -0.511507 1.89415 0
M  V30 18123 O 1635.67 -1.38372 1.66379 0
M  V30 18124 C 1636.26 1.71054 2.92448 0
M  V30 18125 C 1634.82 1.54252 3.43341 0
M  V30 18126 C 1633.97 1.72253 2.17311 0
M  V30 18127 H 1636.92 1.30842 0.898118 0
M  V30 18128 H 1636.94 1.18336 3.61631 0
M  V30 18129 H 1636.45 2.77117 2.71712 0
M  V30 18130 H 1634.55 0.506082 3.69147 0
M  V30 18131 H 1634.66 2.32314 4.19007 0
M  V30 18132 H 1633.03 1.14952 2.27284 0
M  V30 18133 H 1633.81 2.79693 1.99064 0
M  V30 18134 N 1636.26 -1.25243 0.956659 0
M  V30 18135 C 1637.48 -1.97621 0.629337 0
M  V30 18136 C 1637.91 -1.70606 -0.792158 0
M  V30 18137 O 1637.26 -0.963192 -1.53598 0
M  V30 18138 C 1637.31 -3.49273 0.896687 0
M  V30 18139 O 1636.42 -4.12393 -0.0234986 0
M  V30 18140 H 1635.76 -0.619472 0.239061 0
M  V30 18141 H 1638.29 -1.5931 1.28381 0
M  V30 18142 H 1638.3 -3.99597 0.82377 0
M  V30 18143 H 1636.97 -3.68265 1.93271 0
M  V30 18144 H 1635.55 -3.72761 0.101796 0
M  V30 18145 N 1637.73 -0.725468 -1.3991 0
M  V30 18146 C 1638.7 -0.0878956 -2.29031 0
M  V30 18147 C 1639.7 0.677105 -1.45849 0
M  V30 18148 O 1640.89 0.507538 -1.66642 0
M  V30 18149 C 1638.02 0.885087 -3.2921 0
M  V30 18150 H 1639.21 -0.872957 -2.86914 0
M  V30 18151 H 1636.77 -0.490715 -1.48397 0
M  V30 18152 H 1637.5 1.69685 -2.76365 0
M  V30 18153 H 1637.29 0.339297 -3.90629 0
M  V30 18154 H 1638.78 1.32806 -3.9592 0
M  V30 18155 N 1639.21 1.50354 -0.472382 0
M  V30 18156 C 1640.49 1.95071 0.143803 0
M  V30 18157 C 1640.87 1.41281 1.56853 0
M  V30 18158 O 1640.22 0.614349 2.20086 0
M  V30 18159 C 1640.43 3.48895 0.0857944 0
M  V30 18160 C 1641.78 4.23715 0.274039 0
M  V30 18161 O 1642.8 3.5583 0.162319 0
M  V30 18162 O 1641.66 5.4421 0.499815 0
M  V30 18163 H 1638.75 0.819521 0.110966 0
M  V30 18164 H 1641.3 1.61116 -0.532876 0
M  V30 18165 H 1640.07 3.80598 -0.908887 0
M  V30 18166 H 1639.69 3.89389 0.803875 0
M  V30 18167 N 1640.69 0.205039 1.56261 0
M  V30 18168 C 1641.6 -0.723548 2.23164 0
M  V30 18169 C 1642.62 -1.22683 1.23389 0
M  V30 18170 O 1643.79 -1.27191 1.56155 0
M  V30 18171 C 1640.86 -1.92178 2.88563 0
M  V30 18172 C 1639.92 -1.46209 4.03635 0
M  V30 18173 C 1639.15 -2.60321 4.65906 0
M  V30 18174 O 1639.38 -3.78051 4.27122 0
M  V30 18175 O 1638.31 -2.32465 5.55197 0
M  V30 18176 H 1642.14 -0.183715 3.03144 0
M  V30 18177 H 1639.72 -0.0246933 1.4938 0
M  V30 18178 H 1641.6 -2.62188 3.29902 0
M  V30 18179 H 1640.28 -2.45003 2.11555 0
M  V30 18180 H 1639.18 -0.730492 3.66899 0
M  V30 18181 H 1640.52 -0.980402 4.82337 0
M  V30 18182 N 1642.17 -1.57451 -0.0684915 0
M  V30 18183 C 1643.4 -1.9164 -0.779855 0
M  V30 18184 C 1643.81 -0.801309 -1.70952 0
M  V30 18185 O 1643.17 0.225134 -1.81106 0
M  V30 18186 C 1643.22 -3.25594 -1.57068 0
M  V30 18187 O 1642.94 -4.32816 -0.678385 0
M  V30 18188 C 1644.44 -3.73818 -2.38275 0
M  V30 18189 H 1641.66 -0.633374 -0.221537 0
M  V30 18190 H 1644.21 -2.04465 -0.0377746 0
M  V30 18191 H 1642.36 -3.14287 -2.26501 0
M  V30 18192 H 1642.78 -5.09903 -1.22877 0
M  V30 18193 H 1644.25 -4.70168 -2.89216 0
M  V30 18194 H 1644.73 -3.02995 -3.17947 0
M  V30 18195 H 1645.33 -3.88081 -1.73992 0
M  V30 18196 N 1643.65 0.339955 -1.5389 0
M  V30 18197 C 1644.92 1.09703 -1.6194 0
M  V30 18198 C 1645.3 2.06401 -0.442907 0
M  V30 18199 O 1644.65 2.21418 0.564477 0
M  V30 18200 C 1644.86 1.8135 -2.98183 0
M  V30 18201 C 1646.21 2.34965 -3.53662 0
M  V30 18202 O 1647.23 1.91442 -3.00381 0
M  V30 18203 O 1646.09 3.14601 -4.46865 0
M  V30 18204 H 1643.19 0.504703 -0.655136 0
M  V30 18205 H 1645.73 0.34116 -1.66235 0
M  V30 18206 H 1644.51 1.10924 -3.75249 0
M  V30 18207 H 1644.13 2.63787 -2.97494 0
M  V30 18208 N 1645.13 1.45684 0.601159 0
M  V30 18209 C 1646.37 1.4974 1.35729 0
M  V30 18210 C 1646.69 0.143072 1.94474 0
M  V30 18211 O 1645.96 -0.82832 1.77527 0
M  V30 18212 H 1644.54 0.551455 0.503892 0
M  V30 18213 H 1647.21 1.81685 0.705443 0
M  V30 18214 H 1646.3 2.23982 2.17344 0
M  V30 18215 N 1646.6 -0.84422 1.33082 0
M  V30 18216 C 1647.55 -1.97504 1.22862 0
M  V30 18217 C 1648.55 -1.68892 0.131141 0
M  V30 18218 O 1649.75 -1.7757 0.294753 0
M  V30 18219 H 1646.13 -0.648263 0.381129 0
M  V30 18220 H 1648.1 -2.03249 2.18478 0
M  V30 18221 C 1646.85 -3.33626 0.979228 0
M  V30 18222 H 1646.17 -3.56178 1.81596 0
M  V30 18223 H 1647.61 -4.13266 0.948007 0
M  V30 18224 C 1646.07 -3.35397 -0.317922 0
M  V30 18225 O 1646.6 -3.7917 -1.32638 0
M  V30 18226 N 1644.8 -2.88562 -0.343577 0
M  V30 18227 H 1644.35 -2.53133 0.477625 0
M  V30 18228 H 1644.31 -2.90129 -1.21131 0
M  V30 18229 N 1648.08 -1.16463 -1.0618 0
M  V30 18230 C 1649.01 -0.895399 -2.1565 0
M  V30 18231 C 1649.99 0.158729 -1.69358 0
M  V30 18232 O 1651.18 0.010586 -1.94197 0
M  V30 18233 C 1648.31 -0.396959 -3.45024 0
M  V30 18234 C 1647.26 -1.38913 -4.0483 0
M  V30 18235 C 1646.59 -0.749043 -5.29427 0
M  V30 18236 C 1647.89 -2.7591 -4.43476 0
M  V30 18237 H 1649.58 -1.81085 -2.38429 0
M  V30 18238 H 1647.13 -0.872098 -1.14588 0
M  V30 18239 H 1649.08 -0.196086 -4.20944 0
M  V30 18240 H 1647.8 0.554002 -3.21867 0
M  V30 18241 H 1646.46 -1.57657 -3.30968 0
M  V30 18242 H 1646.11 0.208439 -5.02568 0
M  V30 18243 H 1645.81 -1.41128 -5.704 0
M  V30 18244 H 1647.34 -0.558217 -6.08043 0
M  V30 18245 H 1648.75 -2.60942 -5.10473 0
M  V30 18246 H 1647.15 -3.38618 -4.95437 0
M  V30 18247 H 1648.22 -3.31076 -3.54284 0
M  V30 18248 N 1649.56 1.24734 -0.963288 0
M  V30 18249 C 1650.97 1.7456 -0.662246 0
M  V30 18250 C 1651.32 1.78143 0.822169 0
M  V30 18251 O 1650.45 1.40794 1.64335 0
M  V30 18252 C 1651.04 3.1701 -1.19542 0
M  V30 18253 C 1649.6 3.64361 -0.944371 0
M  V30 18254 C 1648.75 2.4314 -1.33335 0
M  V30 18255 H 1651.7 1.10498 -1.13911 0
M  V30 18256 H 1651.72 3.76362 -0.559601 0
M  V30 18257 H 1651.23 3.1437 -2.27581 0
M  V30 18258 H 1649.33 3.72405 0.120682 0
M  V30 18259 H 1649.45 4.52055 -1.58692 0
M  V30 18260 H 1647.81 2.43354 -0.751729 0
M  V30 18261 H 1648.59 2.43185 -2.42314 0
M  V30 18262 N 1651.04 0.732878 1.39523 0
M  V30 18263 C 1651.95 0.0930216 2.34416 0
M  V30 18264 C 1652.96 -0.724309 1.58208 0
M  V30 18265 O 1654.14 -0.653267 1.90511 0
M  V30 18266 C 1651.2 -0.805036 3.37224 0
M  V30 18267 C 1650.27 0.0243049 4.29293 0
M  V30 18268 C 1649.5 -0.830984 5.27191 0
M  V30 18269 O 1649.72 -2.06977 5.31523 0
M  V30 18270 O 1648.66 -0.260772 6.01335 0
M  V30 18271 H 1652.48 0.876179 2.90786 0
M  V30 18272 H 1650.07 0.493525 1.41013 0
M  V30 18273 H 1651.95 -1.31894 4.00228 0
M  V30 18274 H 1650.62 -1.56704 2.83241 0
M  V30 18275 H 1649.53 0.583677 3.69519 0
M  V30 18276 H 1650.86 0.748485 4.86476 0
M  V30 18277 N 1652.52 -1.50101 0.480349 0
M  V30 18278 C 1653.74 -2.07278 -0.0710872 0
M  V30 18279 C 1654.17 -1.34082 -1.31923 0
M  V30 18280 O 1653.52 -0.391251 -1.77028 0
M  V30 18281 C 1653.57 -3.59099 -0.328706 0
M  V30 18282 O 1652.68 -3.8764 -1.40745 0
M  V30 18283 H 1652.02 -0.66378 0.0170748 0
M  V30 18284 H 1654.55 -1.93178 0.674049 0
M  V30 18285 H 1654.56 -4.04049 -0.566435 0
M  V30 18286 H 1653.23 -4.11789 0.583316 0
M  V30 18287 H 1651.81 -3.54519 -1.15631 0
M  V30 18288 N 1653.99 -0.213323 -1.5615 0
M  V30 18289 C 1655.41 0.142215 -1.58965 0
M  V30 18290 C 1655.61 1.59606 -1.22996 0
M  V30 18291 O 1654.67 2.33485 -0.961308 0
M  V30 18292 C 1655.98 -0.176632 -3.00181 0
M  V30 18293 C 1657.53 -0.118205 -3.12777 0
M  V30 18294 C 1658 -0.410614 -4.56156 0
M  V30 18295 N 1659.49 -0.359887 -4.618 0
M  V30 18296 C 1660.23 -0.559744 -5.70661 0
M  V30 18297 N 1659.72 -0.820934 -6.87919 0
M  V30 18298 N 1661.52 -0.492746 -5.59936 0
M  V30 18299 H 1653.67 -1.16182 -1.77807 0
M  V30 18300 H 1655.93 -0.465086 -0.826075 0
M  V30 18301 H 1655.64 -1.18538 -3.31122 0
M  V30 18302 H 1655.51 0.512256 -3.73705 0
M  V30 18303 H 1657.9 0.88117 -2.81637 0
M  V30 18304 H 1657.98 -0.840446 -2.41599 0
M  V30 18305 H 1657.62 -1.40739 -4.88011 0
M  V30 18306 H 1657.55 0.332725 -5.25548 0
M  V30 18307 H 1660.04 -0.16537 -3.77538 0
M  V30 18308 H 1660.36 -0.961755 -7.66792 0
M  V30 18309 H 1658.7 -0.858036 -6.89683 0
M  V30 18310 H 1661.89 -0.288981 -4.67207 0
M  V30 18311 H 1662.07 -0.651912 -6.44712 0
M  V30 18312 N 1655.47 1.57485 0.0601405 0
M  V30 18313 C 1656.72 1.86998 0.75595 0
M  V30 18314 C 1657.03 0.807616 1.78149 0
M  V30 18315 O 1658.24 0.99096 2.52769 0
M  V30 18316 C 1656.7 3.31746 1.39545 0
M  V30 18317 C 1656.3 4.46139 0.407874 0
M  V30 18318 C 1658.05 3.70445 2.07294 0
M  V30 18319 C 1655.96 5.81933 1.05395 0
M  V30 18320 H 1654.89 0.697619 0.286083 0
M  V30 18321 H 1657.54 1.83498 0.00948593 0
M  V30 18322 H 1655.92 3.29894 2.19057 0
M  V30 18323 H 1657.09 4.59405 -0.358281 0
M  V30 18324 H 1655.41 4.1607 -0.16581 0
M  V30 18325 H 1658 4.692 2.56428 0
M  V30 18326 H 1658.35 3.00839 2.87753 0
M  V30 18327 H 1658.88 3.74337 1.34598 0
M  V30 18328 H 1655.62 6.54861 0.289437 0
M  V30 18329 H 1655.14 5.72446 1.79068 0
M  V30 18330 H 1656.82 6.27652 1.5704 0
M  V30 18331 N 1656.95 -0.331789 1.54068 0
M  V30 18332 C 1657.86 -1.43116 1.8589 0
M  V30 18333 C 1658.88 -1.57003 0.75007 0
M  V30 18334 O 1660.05 -1.72256 1.04355 0
M  V30 18335 C 1657.12 -2.77945 2.07238 0
M  V30 18336 C 1656.18 -2.73303 3.31065 0
M  V30 18337 C 1655.41 -4.01702 3.51385 0
M  V30 18338 O 1655.63 -4.99562 2.75306 0
M  V30 18339 O 1654.57 -4.0546 4.44844 0
M  V30 18340 H 1658.39 -1.19137 2.79357 0
M  V30 18341 H 1655.98 -0.525057 1.3987 0
M  V30 18342 H 1657.86 -3.57774 2.22656 0
M  V30 18343 H 1656.54 -3.01831 1.16959 0
M  V30 18344 H 1655.44 -1.92054 3.21039 0
M  V30 18345 H 1656.78 -2.54371 4.21374 0
M  V30 18346 N 1658.43 -1.46001 -0.593424 0
M  V30 18347 C 1659.68 -1.50457 -1.34933 0
M  V30 18348 C 1660 -0.153383 -1.94396 0
M  V30 18349 O 1659.27 0.818894 -1.77963 0
M  V30 18350 H 1657.85 -0.554119 -0.50096 0
M  V30 18351 H 1660.51 -1.82057 -0.695798 0
M  V30 18352 H 1659.61 -2.25131 -2.16154 0
M  V30 18353 N 1659.91 0.83715 -1.33527 0
M  V30 18354 C 1661.15 1.59455 -1.26276 0
M  V30 18355 C 1661.51 1.91652 0.169485 0
M  V30 18356 O 1660.8 1.56028 1.11202 0
M  V30 18357 C 1660.99 2.9113 -2.07312 0
M  V30 18358 C 1660.82 2.71794 -3.58271 0
M  V30 18359 C 1659.59 2.69264 -4.2758 0
M  V30 18360 C 1661.79 2.44309 -4.52568 0
M  V30 18361 N 1659.77 2.41324 -5.64478 0
M  V30 18362 C 1661.14 2.25935 -5.77368 0
M  V30 18363 C 1663.2 2.2992 -4.41635 0
M  V30 18364 C 1661.9 1.94632 -6.92467 0
M  V30 18365 C 1663.93 2.0001 -5.56552 0
M  V30 18366 C 1663.29 1.82449 -6.80361 0
M  V30 18367 H 1659.39 0.586468 -0.517281 0
M  V30 18368 H 1661.97 0.982594 -1.68087 0
M  V30 18369 H 1660.14 3.50273 -1.67819 0
M  V30 18370 H 1661.88 3.56355 -1.91816 0
M  V30 18371 H 1658.63 2.82832 -3.79872 0
M  V30 18372 H 1659.06 2.30233 -6.36649 0
M  V30 18373 H 1663.7 2.42209 -3.46547 0
M  V30 18374 H 1661.42 1.8108 -7.8755 0
M  V30 18375 H 1665 1.89629 -5.50029 0
M  V30 18376 H 1663.88 1.59638 -7.6778 0
M  V30 18377 N 1661.38 1.17024 1.05561 0
M  V30 18378 C 1662.31 0.906823 2.15172 0
M  V30 18379 C 1663.3 -0.149745 1.6944 0
M  V30 18380 O 1664.48 -0.000287092 1.942 0
M  V30 18381 C 1661.61 0.415251 3.44809 0
M  V30 18382 C 1660.56 1.41058 4.04088 0
M  V30 18383 C 1659.89 0.777109 5.29023 0
M  V30 18384 C 1661.19 2.78258 4.42007 0
M  V30 18385 H 1662.88 1.82347 2.37466 0
M  V30 18386 H 1660.43 0.878162 1.14124 0
M  V30 18387 H 1662.38 0.218407 4.20834 0
M  V30 18388 H 1661.11 -0.536924 3.22156 0
M  V30 18389 H 1659.77 1.5941 3.30127 0
M  V30 18390 H 1659.41 -0.181784 5.02671 0
M  V30 18391 H 1659.11 1.44151 5.69644 0
M  V30 18392 H 1660.64 0.590455 6.07738 0
M  V30 18393 H 1662.05 2.63645 5.09082 0
M  V30 18394 H 1660.45 3.41241 4.93634 0
M  V30 18395 H 1661.52 3.3295 3.52523 0
M  V30 18396 N 1662.86 -1.24221 0.969889 0
M  V30 18397 C 1664.09 -1.96943 0.650262 0
M  V30 18398 C 1664.51 -1.71437 -0.774018 0
M  V30 18399 O 1663.87 -0.979428 -1.52568 0
M  V30 18400 C 1663.92 -3.48303 0.933682 0
M  V30 18401 O 1663.02 -4.12395 0.0202425 0
M  V30 18402 H 1662.36 -0.616902 0.245618 0
M  V30 18403 H 1664.89 -1.57939 1.30063 0
M  V30 18404 H 1664.9 -3.98701 0.866106 0
M  V30 18405 H 1663.58 -3.66194 1.97166 0
M  V30 18406 H 1662.16 -3.72632 0.141327 0
M  V30 18407 N 1664.34 -0.740267 -1.39132 0
M  V30 18408 C 1665.59 -0.290953 -2.00702 0
M  V30 18409 C 1665.92 1.12051 -1.58613 0
M  V30 18410 O 1665.19 1.76488 -0.817457 0
M  V30 18411 C 1665.48 -0.398765 -3.57885 0
M  V30 18412 C 1665.33 -1.85038 -4.09977 0
M  V30 18413 C 1666.65 0.215717 -4.39571 0
M  V30 18414 H 1663.77 -0.107194 -0.729163 0
M  V30 18415 H 1666.41 -0.937411 -1.65265 0
M  V30 18416 H 1664.56 0.151613 -3.88204 0
M  V30 18417 H 1666.23 -2.45804 -3.90357 0
M  V30 18418 H 1664.48 -2.36994 -3.63341 0
M  V30 18419 H 1665.15 -1.87705 -5.19106 0
M  V30 18420 H 1667.62 -0.253518 -4.15327 0
M  V30 18421 H 1666.5 0.109966 -5.4879 0
M  V30 18422 H 1666.76 1.30242 -4.2248 0
M  V30 18423 N 1665.82 1.49844 -0.488302 0
M  V30 18424 C 1667.23 1.86663 -0.037377 0
M  V30 18425 C 1667.58 1.40172 1.37281 0
M  V30 18426 O 1666.71 0.77409 2.02081 0
M  V30 18427 C 1667.3 3.38745 -0.0610523 0
M  V30 18428 C 1665.86 3.74911 0.334475 0
M  V30 18429 C 1665.01 2.73801 -0.439109 0
M  V30 18430 H 1667.96 1.42343 -0.70173 0
M  V30 18431 H 1667.98 3.7329 0.737203 0
M  V30 18432 H 1667.49 3.72551 -1.08753 0
M  V30 18433 H 1665.59 3.4671 1.36466 0
M  V30 18434 H 1665.7 4.79094 0.0238536 0
M  V30 18435 H 1664.07 2.54465 0.109433 0
M  V30 18436 H 1664.85 3.10452 -1.46542 0
M  V30 18437 N 1667.3 0.221601 1.56034 0
M  V30 18438 C 1668.24 -0.704963 2.2166 0
M  V30 18439 C 1669.24 -1.19966 1.19601 0
M  V30 18440 O 1670.44 -1.15949 1.37681 0
M  V30 18441 H 1666.82 -0.245758 0.710709 0
M  V30 18442 H 1668.79 -0.128041 2.98125 0
M  V30 18443 C 1667.54 -1.90234 2.91043 0
M  V30 18444 H 1666.86 -1.53079 3.69333 0
M  V30 18445 H 1668.3 -2.52844 3.40361 0
M  V30 18446 C 1666.76 -2.75777 1.93516 0
M  V30 18447 O 1667.29 -3.74534 1.45214 0
M  V30 18448 N 1665.5 -2.41815 1.61165 0
M  V30 18449 H 1665.04 -1.61561 2.00639 0
M  V30 18450 H 1665 -2.9933 0.96172 0
M  V30 18451 N 1668.77 -1.57515 -0.0517878 0
M  V30 18452 C 1670.19 -1.54323 -0.407009 0
M  V30 18453 C 1670.39 -0.944629 -1.77986 0
M  V30 18454 O 1669.45 -0.555785 -2.46307 0
M  V30 18455 C 1670.76 -2.98887 -0.329703 0
M  V30 18456 C 1672.31 -3.10324 -0.408443 0
M  V30 18457 C 1672.78 -4.56576 -0.360833 0
M  V30 18458 N 1674.27 -4.61289 -0.420313 0
M  V30 18459 C 1675.01 -5.71961 -0.406007 0
M  V30 18460 N 1674.5 -6.91939 -0.34533 0
M  V30 18461 N 1676.3 -5.60263 -0.454054 0
M  V30 18462 H 1668.45 -1.94785 0.846907 0
M  V30 18463 H 1670.71 -0.892417 0.319838 0
M  V30 18464 H 1670.42 -3.4632 0.612802 0
M  V30 18465 H 1670.29 -3.59806 -1.13222 0
M  V30 18466 H 1672.68 -2.62852 -1.34138 0
M  V30 18467 H 1672.76 -2.52278 0.423018 0
M  V30 18468 H 1672.4 -5.0471 0.568335 0
M  V30 18469 H 1672.33 -5.12508 -1.2101 0
M  V30 18470 H 1674.82 -3.74958 -0.470644 0
M  V30 18471 H 1675.14 -7.72057 -0.338889 0
M  V30 18472 H 1673.48 -6.94301 -0.311715 0
M  V30 18473 H 1676.67 -4.6543 -0.499289 0
M  V30 18474 H 1676.85 -6.46508 -0.439435 0
M  V30 18475 N 1670.25 0.323614 -1.54242 0
M  V30 18476 C 1671.5 1.05947 -1.72104 0
M  V30 18477 C 1671.82 1.88547 -0.497512 0
M  V30 18478 O 1671.09 1.89712 0.488485 0
M  V30 18479 H 1669.67 0.394141 -0.634557 0
M  V30 18480 H 1672.33 0.360063 -1.91545 0
M  V30 18481 H 1671.43 1.72552 -2.60062 0
M  V30 18482 N 1671.73 1.46313 0.585673 0
M  V30 18483 C 1672.68 1.57018 1.71604 0
M  V30 18484 C 1673.67 0.438838 1.63617 0
M  V30 18485 O 1674.88 0.615597 1.69146 0
M  V30 18486 H 1671.25 0.493616 0.567316 0
M  V30 18487 H 1673.23 2.52065 1.59706 0
M  V30 18488 C 1671.97 1.57482 3.09992 0
M  V30 18489 H 1671.3 2.43872 3.16806 0
M  V30 18490 H 1672.74 1.69027 3.88852 0
M  V30 18491 C 1671.2 0.302944 3.35535 0
M  V30 18492 O 1671.73 -0.608066 3.97071 0
M  V30 18493 N 1669.93 0.191781 2.89966 0
M  V30 18494 H 1669.48 0.934025 2.4007 0
M  V30 18495 H 1669.44 -0.658341 3.0743 0
M  V30 18496 N 1673.21 -0.830057 1.33969 0
M  V30 18497 C 1674.46 -1.58084 1.25269 0
M  V30 18498 C 1674.77 -1.94792 -0.177557 0
M  V30 18499 O 1675.98 -2.68733 -0.386657 0
M  V30 18500 C 1674.43 -2.85177 2.1955 0
M  V30 18501 C 1674.04 -2.55798 3.67792 0
M  V30 18502 C 1675.79 -3.632 2.19741 0
M  V30 18503 C 1673.69 -3.79041 4.53963 0
M  V30 18504 H 1672.62 -0.593289 0.465321 0
M  V30 18505 H 1675.27 -0.914476 1.5909 0
M  V30 18506 H 1673.66 -3.53401 1.78672 0
M  V30 18507 H 1674.83 -1.9573 4.17165 0
M  V30 18508 H 1673.14 -1.91064 3.69978 0
M  V30 18509 H 1675.74 -4.54695 2.81347 0
M  V30 18510 H 1676.08 -3.98786 1.1948 0
M  V30 18511 H 1676.62 -3.0191 2.59028 0
M  V30 18512 H 1673.36 -3.4858 5.55133 0
M  V30 18513 H 1672.88 -4.38417 4.09329 0
M  V30 18514 H 1674.56 -4.46527 4.68212 0
M  V30 18515 N 1674.69 -1.17582 -1.04939 0
M  V30 18516 C 1675.63 -0.894855 -2.12746 0
M  V30 18517 C 1676.6 0.162261 -1.65306 0
M  V30 18518 O 1677.79 0.0245068 -1.90784 0
M  V30 18519 C 1674.93 -0.417085 -3.4257 0
M  V30 18520 C 1674.04 -1.53861 -4.03672 0
M  V30 18521 C 1673.18 -1.01446 -5.21423 0
M  V30 18522 C 1672.22 -2.11127 -5.74536 0
M  V30 18523 N 1671.35 -1.60169 -6.83586 0
M  V30 18524 H 1676.19 -1.81802 -2.36118 0
M  V30 18525 H 1673.73 -0.906716 -1.15832 0
M  V30 18526 H 1675.69 -0.121619 -4.17023 0
M  V30 18527 H 1674.32 0.469119 -3.19373 0
M  V30 18528 H 1673.37 -1.94975 -3.26633 0
M  V30 18529 H 1674.68 -2.36575 -4.39128 0
M  V30 18530 H 1673.84 -0.672992 -6.02956 0
M  V30 18531 H 1672.58 -0.156795 -4.87448 0
M  V30 18532 H 1671.58 -2.46128 -4.91631 0
M  V30 18533 H 1672.81 -2.97313 -6.10559 0
M  V30 18534 H 1670.75 -0.766783 -6.51503 0
M  V30 18535 H 1670.67 -2.36488 -7.18059 0
M  V30 18536 H 1671.94 -1.28923 -7.68765 0
M  V30 18537 N 1676.17 1.23705 -0.976463 0
M  V30 18538 C 1677.58 1.44179 -0.684434 0
M  V30 18539 C 1677.78 1.86992 0.75075 0
M  V30 18540 O 1676.84 2.01349 1.52365 0
M  V30 18541 C 1678.15 2.49661 -1.676 0
M  V30 18542 C 1679.7 2.63479 -1.68961 0
M  V30 18543 C 1680.17 3.72167 -2.66938 0
M  V30 18544 N 1681.66 3.79605 -2.65433 0
M  V30 18545 C 1682.4 4.63251 -3.37914 0
M  V30 18546 N 1681.9 5.51018 -4.19941 0
M  V30 18547 N 1683.69 4.57412 -3.26697 0
M  V30 18548 H 1675.84 0.942155 -1.90361 0
M  V30 18549 H 1678.1 0.475629 -0.820049 0
M  V30 18550 H 1677.81 2.25111 -2.70218 0
M  V30 18551 H 1677.68 3.47978 -1.45571 0
M  V30 18552 H 1680.07 2.87382 -0.670497 0
M  V30 18553 H 1680.15 1.65491 -1.95055 0
M  V30 18554 H 1679.79 3.49013 -3.68988 0
M  V30 18555 H 1679.72 4.69688 -2.3812 0
M  V30 18556 H 1682.22 3.16882 -2.05899 0
M  V30 18557 H 1682.53 6.11825 -4.72113 0
M  V30 18558 H 1680.87 5.50655 -4.24033 0
M  V30 18559 H 1684.06 3.87863 -2.62069 0
M  V30 18560 H 1684.24 5.22373 -3.83446 0
M  V30 18561 N 1677.64 0.747635 1.38738 0
M  V30 18562 C 1678.87 0.311329 2.04241 0
M  V30 18563 C 1679.28 -1.06319 1.56502 0
M  V30 18564 O 1678.62 -1.68544 0.730669 0
M  V30 18565 C 1678.69 0.24882 3.58638 0
M  V30 18566 C 1678.35 1.5639 4.29408 0
M  V30 18567 C 1679.35 2.51198 4.55187 0
M  V30 18568 C 1677.03 1.83169 4.67712 0
M  V30 18569 C 1679.03 3.71009 5.18296 0
M  V30 18570 C 1676.71 3.03255 5.30546 0
M  V30 18571 C 1677.71 3.96996 5.55773 0
M  V30 18572 O 1677.4 5.14971 6.173 0
M  V30 18573 H 1677.13 0.131827 0.663022 0
M  V30 18574 H 1679.69 1.01572 1.78528 0
M  V30 18575 H 1677.92 -0.511769 3.83299 0
M  V30 18576 H 1679.6 -0.157174 4.05596 0
M  V30 18577 H 1680.37 2.31784 4.2603 0
M  V30 18578 H 1676.25 1.11044 4.47426 0
M  V30 18579 H 1679.79 4.44193 5.37902 0
M  V30 18580 H 1675.69 3.22565 5.59126 0
M  V30 18581 H 1676.46 5.15474 6.3579 0
M  V30 18582 N 1679.12 -1.49583 0.496242 0
M  V30 18583 C 1680.37 -2.02038 -0.0498643 0
M  V30 18584 C 1680.69 -1.37848 -1.37924 0
M  V30 18585 O 1679.96 -0.532188 -1.88533 0
M  V30 18586 H 1678.54 -0.746693 -0.0214177 0
M  V30 18587 H 1681.2 -1.83657 0.652399 0
M  V30 18588 H 1680.3 -3.11563 -0.183021 0
M  V30 18589 N 1680.6 -0.229873 -1.55915 0
M  V30 18590 C 1681.85 0.393361 -1.9956 0
M  V30 18591 C 1682.2 1.56794 -1.11506 0
M  V30 18592 O 1681.49 1.90872 -0.16682 0
M  V30 18593 C 1681.69 0.869043 -3.46673 0
M  V30 18594 C 1681.52 -0.2579 -4.4896 0
M  V30 18595 C 1680.29 -0.727024 -5.00042 0
M  V30 18596 C 1682.48 -1.07905 -5.02853 0
M  V30 18597 N 1680.47 -1.82816 -5.86047 0
M  V30 18598 C 1681.84 -2.02888 -5.85864 0
M  V30 18599 C 1683.89 -1.11755 -4.85196 0
M  V30 18600 C 1682.6 -3.01411 -6.53103 0
M  V30 18601 C 1684.62 -2.09099 -5.53201 0
M  V30 18602 C 1683.98 -3.02821 -6.35987 0
M  V30 18603 H 1680.08 0.110376 -0.774171 0
M  V30 18604 H 1682.67 -0.343552 -1.91645 0
M  V30 18605 H 1680.84 1.57529 -3.5502 0
M  V30 18606 H 1682.57 1.46579 -3.77222 0
M  V30 18607 H 1679.32 -0.314148 -4.72557 0
M  V30 18608 H 1679.75 -2.38097 -6.3375 0
M  V30 18609 H 1684.39 -0.406867 -4.20838 0
M  V30 18610 H 1682.11 -3.73437 -7.16638 0
M  V30 18611 H 1685.69 -2.12762 -5.41501 0
M  V30 18612 H 1684.57 -3.76915 -6.8768 0
M  V30 18613 N 1682.08 1.5754 0.0434337 0
M  V30 18614 C 1683.02 2.0561 1.04848 0
M  V30 18615 C 1683.99 0.942299 1.36784 0
M  V30 18616 O 1685.18 1.21191 1.47368 0
M  V30 18617 C 1682.32 2.52844 2.3487 0
M  V30 18618 C 1681.43 3.77958 2.09218 0
M  V30 18619 C 1680.57 4.13859 3.33007 0
M  V30 18620 C 1679.61 5.31932 3.02845 0
M  V30 18621 N 1678.74 5.63335 4.19045 0
M  V30 18622 H 1683.58 2.9123 0.631591 0
M  V30 18623 H 1681.12 1.44003 0.300258 0
M  V30 18624 H 1683.08 2.78291 3.10822 0
M  V30 18625 H 1681.71 1.70161 2.74308 0
M  V30 18626 H 1680.76 3.59681 1.23828 0
M  V30 18627 H 1682.07 4.64034 1.82958 0
M  V30 18628 H 1681.23 4.40358 4.17336 0
M  V30 18629 H 1679.97 3.26406 3.62368 0
M  V30 18630 H 1678.97 5.052 2.16916 0
M  V30 18631 H 1680.2 6.21027 2.74777 0
M  V30 18632 H 1678.14 4.7884 4.48384 0
M  V30 18633 H 1678.06 6.4389 3.96158 0
M  V30 18634 H 1679.33 5.94402 5.04289 0
M  V30 18635 N 1683.56 -0.31543 1.54411 0
M  V30 18636 C 1684.5 -1.3885 1.84362 0
M  V30 18637 C 1685.47 -1.51028 0.69135 0
M  V30 18638 O 1686.66 -1.66119 0.938577 0
M  V30 18639 C 1683.8 -2.75085 2.0838 0
M  V30 18640 C 1682.91 -2.71473 3.36045 0
M  V30 18641 C 1682.05 -3.99608 3.49981 0
M  V30 18642 C 1681.08 -3.90335 4.71492 0
M  V30 18643 N 1680.22 -5.10216 4.82311 0
M  V30 18644 H 1685.06 -1.12609 2.75905 0
M  V30 18645 H 1682.6 -0.54495 1.36633 0
M  V30 18646 H 1684.56 -3.54295 2.20298 0
M  V30 18647 H 1683.19 -2.99618 1.2012 0
M  V30 18648 H 1682.24 -1.84209 3.32823 0
M  V30 18649 H 1683.55 -2.60507 4.25368 0
M  V30 18650 H 1682.7 -4.8725 3.61486 0
M  V30 18651 H 1681.44 -4.1339 2.58766 0
M  V30 18652 H 1680.45 -3.01077 4.60036 0
M  V30 18653 H 1681.67 -3.78111 5.641 0
M  V30 18654 H 1679.62 -5.24489 3.94014 0
M  V30 18655 H 1679.54 -5.01617 5.65612 0
M  V30 18656 H 1680.8 -5.99551 4.98156 0
M  V30 18657 N 1685.03 -1.46622 -0.577906 0
M  V30 18658 C 1685.97 -1.53587 -1.70128 0
M  V30 18659 C 1686.98 -0.423789 -1.57187 0
M  V30 18660 O 1688.17 -0.692392 -1.64524 0
M  V30 18661 C 1685.27 -1.40459 -3.08422 0
M  V30 18662 C 1684.44 -2.65872 -3.47319 0
M  V30 18663 C 1683.5 -2.46875 -4.64693 0
M  V30 18664 O 1682.53 -3.20617 -4.70312 0
M  V30 18665 N 1683.73 -1.53352 -5.59878 0
M  V30 18666 H 1686.49 -2.50449 -1.64606 0
M  V30 18667 H 1684.05 -1.42739 -0.764014 0
M  V30 18668 H 1686.05 -1.25516 -3.84744 0
M  V30 18669 H 1684.62 -0.517603 -3.08285 0
M  V30 18670 H 1683.84 -2.95724 -2.60655 0
M  V30 18671 H 1685.12 -3.49173 -3.70075 0
M  V30 18672 H 1684.52 -0.925526 -5.58078 0
M  V30 18673 H 1683.08 -1.4437 -6.3561 0
M  V30 18674 N 1686.51 0.822941 -1.34408 0
M  V30 18675 C 1687.74 1.60854 -1.29652 0
M  V30 18676 C 1688.15 1.88742 0.131572 0
M  V30 18677 O 1687.49 1.47936 1.08907 0
M  V30 18678 C 1687.56 2.97437 -2.0192 0
M  V30 18679 C 1687.22 2.92443 -3.51178 0
M  V30 18680 C 1688.22 2.67029 -4.46085 0
M  V30 18681 C 1685.9 3.12076 -3.93591 0
M  V30 18682 C 1687.9 2.61299 -5.81379 0
M  V30 18683 C 1685.58 3.05971 -5.28985 0
M  V30 18684 C 1686.58 2.80615 -6.22691 0
M  V30 18685 O 1686.27 2.74442 -7.55603 0
M  V30 18686 H 1686 0.506701 -0.447471 0
M  V30 18687 H 1688.55 1.03197 -1.77594 0
M  V30 18688 H 1686.78 3.57012 -1.48592 0
M  V30 18689 H 1688.47 3.58444 -1.90455 0
M  V30 18690 H 1689.24 2.51596 -4.14638 0
M  V30 18691 H 1685.12 3.30828 -3.21051 0
M  V30 18692 H 1688.66 2.41428 -6.54491 0
M  V30 18693 H 1684.56 3.20957 -5.60051 0
M  V30 18694 H 1685.33 2.90169 -7.65339 0
M  V30 18695 N 1687.99 1.18137 1.04314 0
M  V30 18696 C 1689.24 0.976648 1.77734 0
M  V30 18697 C 1689.57 -0.492756 1.87844 0
M  V30 18698 O 1688.84 -1.36586 1.38472 0
M  V30 18699 C 1689.13 1.62911 3.21142 0
M  V30 18700 C 1688.98 3.1712 3.1899 0
M  V30 18701 C 1690.3 1.34029 4.19195 0
M  V30 18702 H 1687.42 0.356217 0.645197 0
M  V30 18703 H 1690.06 1.45767 1.21868 0
M  V30 18704 H 1688.21 1.22009 3.68844 0
M  V30 18705 H 1689.88 3.67139 2.79296 0
M  V30 18706 H 1688.13 3.4941 2.57089 0
M  V30 18707 H 1688.8 3.57907 4.20245 0
M  V30 18708 H 1691.27 1.69463 3.80028 0
M  V30 18709 H 1690.15 1.82253 5.1776 0
M  V30 18710 H 1690.41 0.262712 4.41319 0
M  V30 18711 N 1689.47 -1.23186 0.98301 0
M  V30 18712 C 1690.71 -1.91955 0.65431 0
M  V30 18713 C 1691.05 -1.76482 -0.810419 0
M  V30 18714 O 1690.32 -1.12744 -1.5849 0
M  V30 18715 C 1690.61 -3.4449 1.04873 0
M  V30 18716 C 1690.46 -3.6906 2.57128 0
M  V30 18717 C 1691.78 -4.36065 0.594578 0
M  V30 18718 H 1688.9 -0.69711 0.239179 0
M  V30 18719 H 1691.54 -1.45257 1.22476 0
M  V30 18720 H 1689.69 -3.84394 0.563333 0
M  V30 18721 H 1691.36 -3.38622 3.13262 0
M  V30 18722 H 1689.6 -3.13681 2.99644 0
M  V30 18723 H 1690.27 -4.75846 2.79776 0
M  V30 18724 H 1692.75 -4.03622 1.01136 0
M  V30 18725 H 1691.63 -5.41489 0.898955 0
M  V30 18726 H 1691.89 -4.39206 -0.505033 0
M  V30 18727 N 1690.95 -0.754982 -1.38339 0
M  V30 18728 C 1692.19 -0.312224 -2.00382 0
M  V30 18729 C 1692.53 1.10362 -1.59793 0
M  V30 18730 O 1691.8 1.75611 -0.83613 0
M  V30 18731 C 1692.08 -0.436701 -3.57442 0
M  V30 18732 C 1691.94 -1.89376 -4.07991 0
M  V30 18733 C 1693.26 0.169083 -4.39775 0
M  V30 18734 H 1690.37 -0.114922 -0.727985 0
M  V30 18735 H 1693.02 -0.954887 -1.64262 0
M  V30 18736 H 1691.17 0.11043 -3.88343 0
M  V30 18737 H 1692.84 -2.4993 -3.87728 0
M  V30 18738 H 1691.08 -2.40834 -3.60807 0
M  V30 18739 H 1691.75 -1.932 -5.17086 0
M  V30 18740 H 1694.23 -0.297554 -4.15035 0
M  V30 18741 H 1693.1 0.0517531 -5.48876 0
M  V30 18742 H 1693.37 1.25754 -4.23838 0
M  V30 18743 N 1692.42 1.49318 -0.504168 0
M  V30 18744 C 1693.65 2.07365 0.038102 0
M  V30 18745 C 1694.07 1.36164 1.29773 0
M  V30 18746 O 1693.43 0.419365 1.76383 0
M  V30 18747 C 1693.48 3.59576 0.271535 0
M  V30 18748 O 1692.58 3.8983 1.34561 0
M  V30 18749 H 1691.93 0.663425 -0.0276328 0
M  V30 18750 H 1694.46 1.92081 -0.704696 0
M  V30 18751 H 1694.47 4.04899 0.502083 0
M  V30 18752 H 1693.14 4.10809 -0.648754 0
M  V30 18753 H 1691.72 3.56314 1.09976 0
M  V30 18754 N 1693.9 0.238138 1.5579 0
M  V30 18755 C 1695.13 -0.396409 2.03576 0
M  V30 18756 C 1695.55 -1.5138 1.11649 0
M  V30 18757 O 1694.91 -1.80979 0.107774 0
M  V30 18758 C 1694.96 -0.889749 3.49451 0
M  V30 18759 O 1694.06 -1.99997 3.60659 0
M  V30 18760 H 1693.4 -0.0876017 0.658196 0
M  V30 18761 H 1695.93 0.361632 2.01379 0
M  V30 18762 H 1695.94 -1.19526 3.901 0
M  V30 18763 H 1694.62 -0.0720136 4.15838 0
M  V30 18764 H 1693.2 -1.69983 3.31904 0
M  V30 18765 N 1695.38 -1.57561 -0.0350783 0
M  V30 18766 C 1696.33 -2.06163 -1.03756 0
M  V30 18767 C 1697.3 -0.94954 -1.36283 0
M  V30 18768 O 1698.48 -1.21971 -1.46723 0
M  V30 18769 C 1695.62 -2.54086 -2.33526 0
M  V30 18770 C 1694.74 -3.79062 -2.0721 0
M  V30 18771 C 1693.87 -4.1562 -3.30808 0
M  V30 18772 C 1692.91 -5.3353 -3.0002 0
M  V30 18773 N 1692.05 -5.65549 -4.16051 0
M  V30 18774 H 1696.89 -2.91561 -0.616137 0
M  V30 18775 H 1694.42 -1.4416 -0.292617 0
M  V30 18776 H 1696.38 -2.79935 -3.09342 0
M  V30 18777 H 1695.01 -1.71614 -2.73402 0
M  V30 18778 H 1694.06 -3.60333 -1.21919 0
M  V30 18779 H 1695.38 -4.64998 -1.80495 0
M  V30 18780 H 1694.53 -4.42565 -4.14995 0
M  V30 18781 H 1693.27 -3.28323 -3.60632 0
M  V30 18782 H 1692.27 -5.06344 -2.14234 0
M  V30 18783 H 1693.5 -6.22475 -2.7148 0
M  V30 18784 H 1691.44 -4.81211 -4.45838 0
M  V30 18785 H 1691.36 -6.45982 -3.92738 0
M  V30 18786 H 1692.63 -5.97068 -5.01129 0
M  V30 18787 N 1696.86 0.307236 -1.54576 0
M  V30 18788 C 1697.81 1.3787 -1.85096 0
M  V30 18789 C 1698.78 1.5066 -0.69935 0
M  V30 18790 O 1699.96 1.65618 -0.947373 0
M  V30 18791 C 1697.1 2.73976 -2.09836 0
M  V30 18792 C 1696.21 2.69687 -3.3748 0
M  V30 18793 C 1695.35 3.97746 -3.52096 0
M  V30 18794 C 1694.39 3.87829 -4.73556 0
M  V30 18795 N 1693.52 5.07651 -4.8501 0
M  V30 18796 H 1698.36 1.11144 -2.76498 0
M  V30 18797 H 1695.9 0.537696 -1.36921 0
M  V30 18798 H 1697.86 3.53121 -2.22174 0
M  V30 18799 H 1696.49 2.98977 -1.21707 0
M  V30 18800 H 1695.54 1.82441 -3.33795 0
M  V30 18801 H 1696.85 2.58247 -4.26743 0
M  V30 18802 H 1696.01 4.85327 -3.64065 0
M  V30 18803 H 1694.75 4.12012 -2.60955 0
M  V30 18804 H 1693.75 2.98633 -4.61626 0
M  V30 18805 H 1694.98 3.75114 -5.66098 0
M  V30 18806 H 1692.92 5.22393 -3.9679 0
M  V30 18807 H 1692.84 4.9861 -5.68264 0
M  V30 18808 H 1694.11 5.969 -5.01328 0
M  V30 18809 N 1698.34 1.46926 0.570122 0
M  V30 18810 C 1699.59 1.52151 1.32413 0
M  V30 18811 C 1699.9 0.18291 1.94743 0
M  V30 18812 O 1701.1 0.113045 2.71265 0
M  V30 18813 C 1699.56 2.68153 2.40046 0
M  V30 18814 C 1699.17 4.08487 1.83963 0
M  V30 18815 C 1700.91 2.82659 3.16709 0
M  V30 18816 C 1698.82 5.1581 2.893 0
M  V30 18817 H 1697.75 0.566291 0.497826 0
M  V30 18818 H 1700.4 1.73169 0.607011 0
M  V30 18819 H 1698.78 2.40488 3.14613 0
M  V30 18820 H 1699.96 4.45998 1.15854 0
M  V30 18821 H 1698.27 3.98756 1.19927 0
M  V30 18822 H 1700.87 3.60008 3.95346 0
M  V30 18823 H 1701.21 1.9063 3.70089 0
M  V30 18824 H 1701.74 3.10031 2.4925 0
M  V30 18825 H 1698.48 6.09672 2.40791 0
M  V30 18826 H 1698 4.8283 3.55859 0
M  V30 18827 H 1699.68 5.42201 3.53026 0
M  V30 18828 N 1699.82 -0.815801 1.34842 0
M  V30 18829 C 1700.75 -1.94193 1.29659 0
M  V30 18830 C 1701.73 -1.69221 0.172703 0
M  V30 18831 O 1702.91 -1.90716 0.366203 0
M  V30 18832 C 1700.04 -3.30777 1.0585 0
M  V30 18833 C 1699 -3.70207 2.1478 0
M  V30 18834 C 1698.32 -5.04852 1.76149 0
M  V30 18835 C 1699.62 -3.81553 3.56671 0
M  V30 18836 H 1701.32 -1.98787 2.23884 0
M  V30 18837 H 1698.86 -0.955013 1.07775 0
M  V30 18838 H 1700.81 -4.0915 1.00866 0
M  V30 18839 H 1699.54 -3.265 0.0806804 0
M  V30 18840 H 1698.2 -2.94113 2.18845 0
M  V30 18841 H 1697.85 -4.9707 0.770099 0
M  V30 18842 H 1697.55 -5.32205 2.49062 0
M  V30 18843 H 1699.07 -5.85676 1.72674 0
M  V30 18844 H 1700.48 -4.50181 3.54979 0
M  V30 18845 H 1698.88 -4.20367 4.28266 0
M  V30 18846 H 1699.95 -2.83356 3.93494 0
M  V30 18847 N 1701.29 -1.18689 -1.03686 0
M  V30 18848 C 1702.54 -0.984601 -1.76952 0
M  V30 18849 C 1702.87 0.485417 -1.88345 0
M  V30 18850 O 1702.12 1.37665 -1.39093 0
M  V30 18851 C 1702.42 -1.58911 -3.20128 0
M  V30 18852 C 1702.09 -3.0859 -3.2876 0
M  V30 18853 C 1700.75 -3.49442 -3.30823 0
M  V30 18854 C 1703.1 -4.04603 -3.28551 0
M  V30 18855 C 1700.43 -4.84875 -3.30323 0
M  V30 18856 C 1702.78 -5.39956 -3.29591 0
M  V30 18857 C 1701.45 -5.8025 -3.29948 0
M  V30 18858 H 1700.72 -0.360291 -0.647512 0
M  V30 18859 H 1703.36 -1.47811 -1.21754 0
M  V30 18860 H 1701.67 -1.0177 -3.78352 0
M  V30 18861 H 1703.37 -1.40797 -3.75469 0
M  V30 18862 H 1699.96 -2.76034 -3.27877 0
M  V30 18863 H 1704.14 -3.7409 -3.26145 0
M  V30 18864 H 1699.4 -5.15386 -3.28919 0
M  V30 18865 H 1703.57 -6.14117 -3.28379 0
M  V30 18866 H 1701.2 -6.85169 -3.29315 0
M  V30 18867 N 1702.77 1.22662 -0.989529 0
M  V30 18868 C 1704 1.9506 -0.680833 0
M  V30 18869 C 1704.41 1.73354 0.757953 0
M  V30 18870 O 1703.75 1.02755 1.52273 0
M  V30 18871 C 1703.81 3.47982 -0.902711 0
M  V30 18872 C 1703.48 3.93418 -2.32533 0
M  V30 18873 C 1704.48 4.01362 -3.30462 0
M  V30 18874 C 1702.16 4.26157 -2.65886 0
M  V30 18875 C 1704.15 4.41413 -4.59819 0
M  V30 18876 C 1701.84 4.65888 -3.95463 0
M  V30 18877 C 1702.84 4.73484 -4.92241 0
M  V30 18878 O 1702.53 5.12318 -6.19504 0
M  V30 18879 H 1702.26 0.627572 -0.251256 0
M  V30 18880 H 1704.81 1.56858 -1.32608 0
M  V30 18881 H 1703.04 3.86181 -0.200292 0
M  V30 18882 H 1704.73 4.01592 -0.589781 0
M  V30 18883 H 1705.5 3.76262 -3.06026 0
M  V30 18884 H 1701.38 4.19451 -1.91263 0
M  V30 18885 H 1704.92 4.47257 -5.35357 0
M  V30 18886 H 1700.82 4.90439 -4.1969 0
M  V30 18887 H 1701.59 5.30402 -6.23391 0
M  V30 18888 N 1704.25 0.762308 1.37937 0
M  V30 18889 C 1705.2 0.129897 2.32237 0
M  V30 18890 C 1706.19 -0.695577 1.54461 0
M  V30 18891 O 1707.4 -0.593697 1.69927 0
M  V30 18892 H 1703.77 0.023214 0.751642 0
M  V30 18893 H 1705.74 0.941144 2.8317 0
M  V30 18894 C 1704.49 -0.742235 3.39685 0
M  V30 18895 H 1703.82 -0.116427 3.9963 0
M  V30 18896 H 1705.26 -1.15187 4.08054 0
M  V30 18897 C 1703.71 -1.8887 2.7898 0
M  V30 18898 O 1704.24 -2.98351 2.68979 0
M  V30 18899 N 1702.45 -1.68642 2.36661 0
M  V30 18900 H 1702 -0.795945 2.44995 0
M  V30 18901 H 1701.96 -2.45519 1.96387 0
M  V30 18902 N 1705.73 -1.49049 0.51208 0
M  V30 18903 C 1707 -1.95383 -0.0920331 0
M  V30 18904 C 1707.38 -1.4539 -1.53053 0
M  V30 18905 O 1706.73 -0.672485 -2.1838 0
M  V30 18906 C 1706.94 -3.48999 0.00673901 0
M  V30 18907 C 1708.29 -4.24292 -0.161602 0
M  V30 18908 O 1709.31 -3.56135 -0.0679198 0
M  V30 18909 O 1708.17 -5.45343 -0.355351 0
M  V30 18910 H 1705.27 -0.822175 -0.0891992 0
M  V30 18911 H 1707.81 -1.59647 0.575406 0
M  V30 18912 H 1706.59 -3.78055 1.00948 0
M  V30 18913 H 1706.21 -3.91383 -0.700353 0
M  V30 18914 N 1707.21 -0.246397 -1.55662 0
M  V30 18915 C 1708.12 0.664125 -2.25003 0
M  V30 18916 C 1709.13 1.19368 -1.26598 0
M  V30 18917 O 1710.31 1.23006 -1.59473 0
M  V30 18918 C 1707.37 1.8446 -2.93557 0
M  V30 18919 C 1706.43 1.35456 -4.0737 0
M  V30 18920 C 1705.67 2.47877 -4.72645 0
M  V30 18921 O 1705.89 3.66594 -4.36995 0
M  V30 18922 O 1704.82 2.17663 -5.61165 0
M  V30 18923 H 1708.65 0.103277 -3.03524 0
M  V30 18924 H 1706.23 -0.0149207 -1.49393 0
M  V30 18925 H 1708.12 2.53349 -3.36737 0
M  V30 18926 H 1706.79 2.39308 -2.17976 0
M  V30 18927 H 1705.7 0.632958 -3.68706 0
M  V30 18928 H 1707.03 0.852175 -4.84767 0
M  V30 18929 N 1708.68 1.57577 0.026722 0
M  V30 18930 C 1709.62 2.03515 1.05424 0
M  V30 18931 C 1710.63 0.948362 1.32325 0
M  V30 18932 O 1711.82 1.22563 1.29771 0
M  V30 18933 C 1708.92 2.39744 2.39533 0
M  V30 18934 C 1708.09 3.70832 2.31954 0
M  V30 18935 C 1707.15 3.94224 3.48531 0
M  V30 18936 O 1706.18 4.6525 3.27919 0
M  V30 18937 N 1707.38 3.40044 4.70479 0
M  V30 18938 H 1710.14 2.92282 0.662678 0
M  V30 18939 H 1707.7 1.60471 0.214623 0
M  V30 18940 H 1709.7 2.52529 3.16245 0
M  V30 18941 H 1708.27 1.56636 2.70525 0
M  V30 18942 H 1707.49 3.68378 1.40325 0
M  V30 18943 H 1708.77 4.56821 2.24035 0
M  V30 18944 H 1708.17 2.82478 4.90125 0
M  V30 18945 H 1706.73 3.58205 5.44548 0
M  V30 18946 N 1710.16 -0.299034 1.54737 0
M  V30 18947 C 1711.44 -1.05371 1.64792 0
M  V30 18948 C 1711.82 -2.05155 0.497475 0
M  V30 18949 O 1711.17 -2.22837 -0.505573 0
M  V30 18950 C 1711.38 -1.73381 3.02886 0
M  V30 18951 C 1712.72 -2.25506 3.59767 0
M  V30 18952 O 1713.75 -1.8341 3.05351 0
M  V30 18953 O 1712.61 -3.02642 4.55049 0
M  V30 18954 H 1709.7 -0.487156 0.668287 0
M  V30 18955 H 1712.25 -0.296965 1.67081 0
M  V30 18956 H 1711.02 -1.00936 3.78058 0
M  V30 18957 H 1710.64 -2.55806 3.04383 0
M  V30 18958 N 1711.64 -1.47227 -0.562322 0
M  V30 18959 C 1712.59 -1.59329 -1.66981 0
M  V30 18960 C 1713.56 -0.436558 -1.6026 0
M  V30 18961 O 1714.74 -0.655956 -1.7917 0
M  V30 18962 C 1711.88 -1.60874 -3.05309 0
M  V30 18963 C 1710.99 -2.87428 -3.22505 0
M  V30 18964 C 1710.13 -2.80342 -4.512 0
M  V30 18965 C 1709.17 -4.01744 -4.6181 0
M  V30 18966 N 1708.31 -3.92924 -5.81855 0
M  V30 18967 H 1713.15 -2.53921 -1.55975 0
M  V30 18968 H 1710.68 -1.25953 -0.759879 0
M  V30 18969 H 1712.64 -1.59753 -3.85402 0
M  V30 18970 H 1711.27 -0.697994 -3.15163 0
M  V30 18971 H 1710.32 -2.98439 -2.35878 0
M  V30 18972 H 1711.63 -3.77345 -3.26209 0
M  V30 18973 H 1710.79 -2.77442 -5.39547 0
M  V30 18974 H 1709.53 -1.881 -4.49966 0
M  V30 18975 H 1708.53 -4.04954 -3.71877 0
M  V30 18976 H 1709.76 -4.95107 -4.64807 0
M  V30 18977 H 1707.7 -3.03481 -5.8158 0
M  V30 18978 H 1707.62 -4.76514 -5.86916 0
M  V30 18979 H 1708.89 -3.94031 -6.72577 0
M  V30 18980 N 1713.12 0.808639 -1.35273 0
M  V30 18981 C 1714.03 1.95198 -1.30134 0
M  V30 18982 C 1715.04 1.72769 -0.206587 0
M  V30 18983 O 1716.22 1.96633 -0.4356 0
M  V30 18984 C 1713.28 3.29747 -1.07087 0
M  V30 18985 C 1712.35 3.65086 -2.25855 0
M  V30 18986 C 1711.58 4.93215 -2.03898 0
M  V30 18987 O 1711.8 5.61487 -1.00439 0
M  V30 18988 O 1710.74 5.26765 -2.91208 0
M  V30 18989 H 1714.56 2.0248 -2.26353 0
M  V30 18990 H 1712.15 0.946124 -1.15624 0
M  V30 18991 H 1714.03 4.10302 -0.960734 0
M  V30 18992 H 1712.7 3.23401 -0.139177 0
M  V30 18993 H 1711.61 2.84917 -2.42432 0
M  V30 18994 H 1712.94 3.76135 -3.17464 0
M  V30 18995 N 1714.6 1.19237 1.03055 0
M  V30 18996 C 1715.53 0.886348 2.11368 0
M  V30 18997 C 1716.54 -0.120256 1.62355 0
M  V30 18998 O 1717.73 0.108934 1.78167 0
M  V30 18999 C 1714.83 0.304819 3.37526 0
M  V30 19000 C 1714 1.35957 4.15734 0
M  V30 19001 C 1713.06 0.791885 5.20207 0
M  V30 19002 O 1712.09 1.46916 5.49913 0
M  V30 19003 N 1713.29 -0.40564 5.79081 0
M  V30 19004 H 1716.06 1.81867 2.38211 0
M  V30 19005 H 1713.62 1.09414 1.19332 0
M  V30 19006 H 1715.61 -0.0887629 4.04603 0
M  V30 19007 H 1714.18 -0.531744 3.08044 0
M  V30 19008 H 1713.4 1.92806 3.43831 0
M  V30 19009 H 1714.69 2.07034 4.64773 0
M  V30 19010 H 1714.08 -0.973423 5.57262 0
M  V30 19011 H 1712.64 -0.741021 6.47574 0
M  V30 19012 N 1716.07 -1.22136 0.99602 0
M  V30 19013 C 1717.3 -1.95519 0.69189 0
M  V30 19014 C 1717.72 -1.7304 -0.73748 0
M  V30 19015 O 1717.08 -1.01157 -1.50456 0
M  V30 19016 C 1717.13 -3.46244 1.00735 0
M  V30 19017 O 1716.23 -4.12259 0.107713 0
M  V30 19018 H 1715.58 -0.611553 0.258648 0
M  V30 19019 H 1718.11 -1.55145 1.33384 0
M  V30 19020 H 1718.12 -3.96774 0.950482 0
M  V30 19021 H 1716.79 -3.6193 2.04889 0
M  V30 19022 H 1715.37 -3.72248 0.220336 0
M  V30 19023 N 1717.55 -0.769612 -1.37531 0
M  V30 19024 C 1718.5 -0.142211 -2.32165 0
M  V30 19025 C 1719.49 0.687376 -1.54827 0
M  V30 19026 O 1720.7 0.584677 -1.7024 0
M  V30 19027 H 1717.08 -0.0271998 -0.751508 0
M  V30 19028 H 1719.05 -0.956148 -2.82667 0
M  V30 19029 C 1717.8 0.72421 -3.40074 0
M  V30 19030 H 1717.12 0.0952318 -3.99687 0
M  V30 19031 H 1718.56 1.13021 -4.08659 0
M  V30 19032 C 1717.02 1.87388 -2.79977 0
M  V30 19033 O 1717.55 2.96921 -2.70557 0
M  V30 19034 N 1715.75 1.67384 -2.37552 0
M  V30 19035 H 1715.3 0.782941 -2.45414 0
M  V30 19036 H 1715.26 2.44474 -1.97686 0
M  V30 19037 N 1719.03 1.48775 -0.519977 0
M  V30 19038 C 1720.44 1.86541 -0.0769625 0
M  V30 19039 C 1720.79 1.43053 1.34277 0
M  V30 19040 O 1719.92 0.816781 2.00394 0
M  V30 19041 C 1720.51 3.38539 -0.132891 0
M  V30 19042 C 1719.07 3.75536 0.254875 0
M  V30 19043 C 1718.22 2.72808 -0.497088 0
M  V30 19044 H 1721.17 1.40822 -0.731765 0
M  V30 19045 H 1721.19 3.7477 0.657856 0
M  V30 19046 H 1720.7 3.70161 -1.1663 0
M  V30 19047 H 1718.8 3.49527 1.29081 0
M  V30 19048 H 1718.92 4.79037 -0.0777747 0
M  V30 19049 H 1717.28 2.5464 0.0554331 0
M  V30 19050 H 1718.06 3.07274 -1.53094 0
M  V30 19051 N 1720.51 0.254649 1.55529 0
M  V30 19052 C 1721.73 -0.374795 2.03985 0
M  V30 19053 C 1722.16 -1.50188 1.13249 0
M  V30 19054 O 1721.52 -1.80855 0.126963 0
M  V30 19055 C 1721.56 -0.852635 3.50375 0
M  V30 19056 O 1720.67 -1.9616 3.6276 0
M  V30 19057 H 1720.01 -0.0806157 0.659088 0
M  V30 19058 H 1722.54 0.38297 2.00984 0
M  V30 19059 H 1722.55 -1.15381 3.91345 0
M  V30 19060 H 1721.22 -0.0279044 4.15891 0
M  V30 19061 H 1719.8 -1.66453 3.33688 0
M  V30 19062 N 1721.99 -1.57589 -0.0183649 0
M  V30 19063 C 1722.92 -2.02659 -1.04903 0
M  V30 19064 C 1723.9 -0.912926 -1.34553 0
M  V30 19065 O 1725.08 -1.17961 -1.47029 0
M  V30 19066 C 1722.21 -2.40869 -2.38117 0
M  V30 19067 C 1721.25 -3.62785 -2.24253 0
M  V30 19068 S 1722.09 -5.11479 -1.58585 0
M  V30 19069 C 1723.24 -5.52942 -2.93268 0
M  V30 19070 H 1723.48 -2.89763 -0.665188 0
M  V30 19071 H 1721.01 -1.52697 -0.228676 0
M  V30 19072 H 1722.97 -2.63553 -3.14722 0
M  V30 19073 H 1721.63 -1.54197 -2.73646 0
M  V30 19074 H 1720.82 -3.87211 -3.2262 0
M  V30 19075 H 1720.42 -3.40007 -1.55792 0
M  V30 19076 H 1722.72 -5.5428 -3.8959 0
M  V30 19077 H 1723.66 -6.53123 -2.73563 0
M  V30 19078 H 1724.07 -4.80466 -2.96333 0
M  V30 19079 N 1723.46 0.290824 -1.54893 0
M  V30 19080 C 1724.71 1.02627 -1.74916 0
M  V30 19081 C 1725.04 1.86572 -0.538921 0
M  V30 19082 O 1724.32 1.88888 0.463844 0
M  V30 19083 C 1724.6 1.92376 -3.04407 0
M  V30 19084 C 1724.45 1.11542 -4.3575 0
M  V30 19085 C 1725.77 2.91383 -3.29824 0
M  V30 19086 H 1722.89 0.371685 -0.636411 0
M  V30 19087 H 1725.53 0.300072 -1.87615 0
M  V30 19088 H 1723.68 2.54295 -2.93711 0
M  V30 19089 H 1725.36 0.518312 -4.58379 0
M  V30 19090 H 1723.6 0.418386 -4.31778 0
M  V30 19091 H 1724.27 1.77616 -5.22644 0
M  V30 19092 H 1726.75 2.39595 -3.40196 0
M  V30 19093 H 1725.62 3.51338 -4.21726 0
M  V30 19094 H 1725.88 3.65579 -2.48606 0
M  V30 19095 N 1724.94 1.47523 0.554506 0
M  V30 19096 C 1725.87 1.63093 1.67102 0
M  V30 19097 C 1726.85 0.480298 1.63178 0
M  V30 19098 O 1728.04 0.709956 1.80757 0
M  V30 19099 C 1725.17 1.64751 3.05736 0
M  V30 19100 C 1724.12 2.79068 3.24507 0
M  V30 19101 C 1723.45 2.65801 4.63955 0
M  V30 19102 C 1724.75 4.20631 3.09623 0
M  V30 19103 H 1726.44 2.56561 1.54328 0
M  V30 19104 H 1723.99 1.2347 0.741023 0
M  V30 19105 H 1725.94 1.74234 3.83693 0
M  V30 19106 H 1724.67 0.678453 3.19475 0
M  V30 19107 H 1723.32 2.691 2.48959 0
M  V30 19108 H 1722.97 1.66917 4.74497 0
M  V30 19109 H 1722.67 3.42494 4.77464 0
M  V30 19110 H 1724.2 2.77216 5.44044 0
M  V30 19111 H 1725.61 4.31562 3.77396 0
M  V30 19112 H 1724.01 4.98133 3.3464 0
M  V30 19113 H 1725.08 4.38809 2.06336 0
M  V30 19114 N 1726.42 -0.801453 1.357 0
M  V30 19115 C 1727.7 -1.54605 1.19819 0
M  V30 19116 C 1728.08 -2.09944 -0.220593 0
M  V30 19117 O 1727.43 -1.92904 -1.22475 0
M  V30 19118 C 1727.64 -2.65052 2.27043 0
M  V30 19119 C 1728.98 -3.33255 2.63109 0
M  V30 19120 O 1730.01 -2.75326 2.25995 0
M  V30 19121 O 1728.87 -4.37917 3.26942 0
M  V30 19122 H 1725.96 -0.68334 0.465807 0
M  V30 19123 H 1728.51 -0.840972 1.47397 0
M  V30 19124 H 1727.28 -2.22068 3.22182 0
M  V30 19125 H 1726.9 -3.4319 2.00764 0
M  V30 19126 N 1727.9 -1.19782 -1.02421 0
M  V30 19127 C 1729.15 -0.997598 -1.75302 0
M  V30 19128 C 1729.46 0.471843 -1.89824 0
M  V30 19129 O 1730.67 0.790999 -2.59722 0
M  V30 19130 C 1729.12 -1.73608 -3.15259 0
M  V30 19131 C 1728.73 -3.24594 -3.08776 0
M  V30 19132 C 1730.47 -1.61927 -3.92403 0
M  V30 19133 C 1728.38 -3.91012 -4.43693 0
M  V30 19134 H 1727.31 -0.369643 -0.657176 0
M  V30 19135 H 1729.96 -1.43325 -1.14587 0
M  V30 19136 H 1728.34 -1.22826 -3.7647 0
M  V30 19137 H 1729.52 -3.82531 -2.56918 0
M  V30 19138 H 1727.83 -3.36603 -2.45127 0
M  V30 19139 H 1730.43 -2.08896 -4.92206 0
M  V30 19140 H 1730.77 -0.574192 -4.12321 0
M  V30 19141 H 1731.31 -2.10081 -3.37803 0
M  V30 19142 H 1728.05 -4.95639 -4.28979 0
M  V30 19143 H 1727.57 -3.37864 -4.95588 0
M  V30 19144 H 1729.24 -3.94828 -5.12562 0
M  V30 19145 N 1729.38 1.21606 -1.00248 0
M  V30 19146 C 1730.65 1.86191 -0.599348 0
M  V30 19147 C 1731.03 1.89847 0.923104 0
M  V30 19148 O 1730.38 1.39595 1.80902 0
M  V30 19149 C 1730.59 3.26576 -1.23082 0
M  V30 19150 C 1731.94 4.02989 -1.33736 0
M  V30 19151 O 1732.96 3.35877 -1.18595 0
M  V30 19152 O 1731.82 5.23142 -1.58065 0
M  V30 19153 H 1728.92 0.801204 -0.204943 0
M  V30 19154 H 1731.46 1.29309 -1.09897 0
M  V30 19155 H 1730.24 3.18601 -2.27176 0
M  V30 19156 H 1729.86 3.91074 -0.717394 0
M  V30 19157 N 1730.86 0.776895 1.37121 0
M  V30 19158 C 1731.8 0.164838 2.30211 0
M  V30 19159 C 1732.77 -0.684137 1.51356 0
M  V30 19160 O 1733.96 -0.635428 1.79908 0
M  V30 19161 C 1731.1 -0.704263 3.37837 0
M  V30 19162 C 1730.21 0.161881 4.31697 0
M  V30 19163 C 1729.35 -0.712411 5.26401 0
M  V30 19164 C 1728.38 0.155953 6.11901 0
M  V30 19165 N 1727.52 -0.676607 6.98832 0
M  V30 19166 H 1732.36 0.964185 2.81971 0
M  V30 19167 H 1729.9 0.487065 1.38802 0
M  V30 19168 H 1731.86 -1.22302 3.98871 0
M  V30 19169 H 1730.49 -1.46916 2.87429 0
M  V30 19170 H 1729.54 0.798491 3.71925 0
M  V30 19171 H 1730.85 0.831496 4.91821 0
M  V30 19172 H 1730 -1.29745 5.92664 0
M  V30 19173 H 1728.74 -1.41569 4.66701 0
M  V30 19174 H 1727.75 0.753493 5.44612 0
M  V30 19175 H 1728.97 0.856645 6.73675 0
M  V30 19176 H 1726.92 -1.36441 6.41654 0
M  V30 19177 H 1726.84 -0.0644017 7.55973 0
M  V30 19178 H 1728.1 -1.24588 7.69479 0
M  V30 19179 N 1732.33 -1.48497 0.527859 0
M  V30 19180 C 1733.26 -2.32414 -0.224891 0
M  V30 19181 C 1734.24 -1.41959 -0.93711 0
M  V30 19182 O 1735.43 -1.70847 -0.923302 0
M  V30 19183 C 1732.56 -3.23106 -1.27356 0
M  V30 19184 C 1731.51 -4.2257 -0.679611 0
M  V30 19185 C 1730.84 -5.02381 -1.83077 0
M  V30 19186 C 1732.14 -5.21144 0.347269 0
M  V30 19187 H 1733.83 -2.95598 0.475632 0
M  V30 19188 H 1731.38 -1.42148 0.230182 0
M  V30 19189 H 1733.33 -3.80639 -1.8081 0
M  V30 19190 H 1732.06 -2.57919 -2.00363 0
M  V30 19191 H 1730.72 -3.66221 -0.166608 0
M  V30 19192 H 1730.36 -4.3362 -2.54918 0
M  V30 19193 H 1730.06 -5.697 -1.43929 0
M  V30 19194 H 1731.59 -5.62765 -2.36914 0
M  V30 19195 H 1733 -5.73213 -0.100107 0
M  V30 19196 H 1731.4 -5.96503 0.656021 0
M  V30 19197 H 1732.47 -4.6841 1.25379 0
M  V30 19198 N 1733.81 -0.262893 -1.55392 0
M  V30 19199 C 1735.06 0.357366 -1.99322 0
M  V30 19200 C 1735.39 1.56772 -1.15121 0
M  V30 19201 O 1734.64 1.94614 -0.205867 0
M  V30 19202 C 1734.94 0.795313 -3.48439 0
M  V30 19203 C 1734.61 -0.309047 -4.4984 0
M  V30 19204 C 1733.27 -0.612317 -4.77288 0
M  V30 19205 C 1735.62 -1.05382 -5.10435 0
M  V30 19206 C 1732.95 -1.66415 -5.62604 0
M  V30 19207 C 1735.3 -2.09528 -5.96892 0
M  V30 19208 C 1733.96 -2.40503 -6.22667 0
M  V30 19209 H 1733.23 0.13077 -0.72937 0
M  V30 19210 H 1735.88 -0.374057 -1.87811 0
M  V30 19211 H 1734.19 1.60621 -3.57363 0
M  V30 19212 H 1735.88 1.28577 -3.79828 0
M  V30 19213 H 1732.47 -0.0625469 -4.28554 0
M  V30 19214 H 1736.66 -0.832773 -4.89263 0
M  V30 19215 H 1731.91 -1.90929 -5.80824 0
M  V30 19216 H 1736.09 -2.67719 -6.42884 0
M  V30 19217 H 1733.71 -3.22143 -6.88569 0
M  V30 19218 N 1735.29 1.57597 0.0100073 0
M  V30 19219 C 1736.24 2.04265 1.01292 0
M  V30 19220 C 1737.22 0.93547 1.30911 0
M  V30 19221 O 1738.42 1.19929 1.30177 0
M  V30 19222 C 1735.54 2.54129 2.3081 0
M  V30 19223 C 1734.63 3.71704 2.04198 0
M  V30 19224 N 1735.02 4.83752 1.47709 0
M  V30 19225 C 1733.32 3.79443 2.34391 0
M  V30 19226 C 1734.02 5.65255 1.37339 0
M  V30 19227 N 1733 5.1095 1.85556 0
M  V30 19228 H 1736.8 2.8831 0.570489 0
M  V30 19229 H 1734.31 1.60958 0.215919 0
M  V30 19230 H 1736.31 2.85832 3.03489 0
M  V30 19231 H 1734.97 1.71497 2.75715 0
M  V30 19232 H 1735.98 5.04805 1.15723 0
M  V30 19233 H 1732.66 3.07648 2.82239 0
M  V30 19234 H 1734.05 6.65293 0.939918 0
M  V30 19235 N 1736.77 -0.282606 1.55045 0
M  V30 19236 C 1738.01 -1.01698 1.75458 0
M  V30 19237 C 1738.35 -1.86284 0.548808 0
M  V30 19238 O 1737.62 -1.89131 -0.45382 0
M  V30 19239 C 1737.9 -1.90759 3.05423 0
M  V30 19240 C 1737.76 -1.0923 4.36336 0
M  V30 19241 C 1739.08 -2.8963 3.31364 0
M  V30 19242 H 1736.2 -0.368305 0.638373 0
M  V30 19243 H 1738.84 -0.290118 1.87772 0
M  V30 19244 H 1736.99 -2.52734 2.95055 0
M  V30 19245 H 1738.66 -0.493996 4.58647 0
M  V30 19246 H 1736.9 -0.395481 4.31994 0
M  V30 19247 H 1737.57 -1.74842 5.23578 0
M  V30 19248 H 1740.05 -2.37788 3.41462 0
M  V30 19249 H 1738.93 -3.49096 4.23584 0
M  V30 19250 H 1739.19 -3.64255 2.50541 0
M  V30 19251 N 1738.25 -1.47815 -0.546675 0
M  V30 19252 C 1739.66 -1.33566 -0.873628 0
M  V30 19253 C 1739.86 -0.334067 -1.98711 0
M  V30 19254 O 1738.92 0.250675 -2.51253 0
M  V30 19255 C 1740.23 -2.73171 -1.25691 0
M  V30 19256 C 1741.78 -2.81535 -1.36774 0
M  V30 19257 C 1742.25 -4.21804 -1.78454 0
M  V30 19258 N 1743.74 -4.24396 -1.85586 0
M  V30 19259 C 1744.48 -5.29854 -2.19186 0
M  V30 19260 N 1743.98 -6.45606 -2.51326 0
M  V30 19261 N 1745.77 -5.17237 -2.2005 0
M  V30 19262 H 1737.92 -2.11564 0.188285 0
M  V30 19263 H 1740.18 -0.947754 0.0215773 0
M  V30 19264 H 1739.89 -3.47946 -0.512485 0
M  V30 19265 H 1739.76 -3.05622 -2.21077 0
M  V30 19266 H 1742.15 -2.07025 -2.10297 0
M  V30 19267 H 1742.23 -2.52724 -0.395504 0
M  V30 19268 H 1741.87 -4.96823 -1.05498 0
M  V30 19269 H 1741.8 -4.48046 -2.76699 0
M  V30 19270 H 1744.3 -3.40895 -1.63092 0
M  V30 19271 H 1744.61 -7.21825 -2.76022 0
M  V30 19272 H 1742.95 -6.48909 -2.48883 0
M  V30 19273 H 1746.14 -4.2583 -1.94387 0
M  V30 19274 H 1746.32 -5.99529 -2.45905 0
M  V30 19275 N 1739.72 0.794246 -1.36123 0
M  V30 19276 C 1741.13 1.36909 -1.26936 0
M  V30 19277 C 1741.49 1.9598 0.0929337 0
M  V30 19278 O 1740.61 1.92206 0.994266 0
M  V30 19279 C 1741.21 2.48906 -2.2985 0
M  V30 19280 C 1739.76 3.0222 -2.24366 0
M  V30 19281 C 1738.91 1.75264 -2.1489 0
M  V30 19282 H 1741.86 0.596278 -1.47072 0
M  V30 19283 H 1741.88 3.27794 -1.93213 0
M  V30 19284 H 1741.4 2.05884 -3.28988 0
M  V30 19285 H 1739.5 3.49675 -1.28679 0
M  V30 19286 H 1739.61 3.59363 -3.16852 0
M  V30 19287 H 1737.97 1.97306 -1.61066 0
M  V30 19288 H 1738.76 1.34377 -3.15908 0
M  V30 19289 N 1741.2 1.20323 1.01785 0
M  V30 19290 C 1742.45 1.01413 1.75623 0
M  V30 19291 C 1742.78 -0.452801 1.88847 0
M  V30 19292 O 1742.06 -1.33618 1.41338 0
M  V30 19293 C 1742.34 1.69686 3.17614 0
M  V30 19294 C 1742.19 3.23815 3.12192 0
M  V30 19295 C 1743.51 1.42891 4.16257 0
M  V30 19296 H 1740.63 0.369822 0.637495 0
M  V30 19297 H 1743.27 1.4832 1.18749 0
M  V30 19298 H 1741.42 1.29806 3.66173 0
M  V30 19299 H 1743.09 3.72981 2.71446 0
M  V30 19300 H 1741.34 3.54785 2.4962 0
M  V30 19301 H 1742.01 3.66741 4.12559 0
M  V30 19302 H 1744.48 1.77486 3.76348 0
M  V30 19303 H 1743.36 1.93195 5.13777 0
M  V30 19304 H 1743.62 0.356263 4.40662 0
M  V30 19305 N 1742.68 -1.21073 1.00892 0
M  V30 19306 C 1743.91 -1.94233 0.712813 0
M  V30 19307 C 1744.32 -1.74315 -0.725249 0
M  V30 19308 O 1743.68 -1.05224 -1.49111 0
M  V30 19309 C 1743.73 -3.46536 1.02931 0
M  V30 19310 O 1743.45 -3.65798 2.41088 0
M  V30 19311 C 1744.95 -4.36855 0.753166 0
M  V30 19312 H 1742.17 -0.617579 0.262367 0
M  V30 19313 H 1744.72 -1.53781 1.34802 0
M  V30 19314 H 1742.87 -3.84897 0.439634 0
M  V30 19315 H 1743.29 -4.59857 2.52254 0
M  V30 19316 H 1744.76 -5.42405 1.02476 0
M  V30 19317 H 1745.24 -4.38085 -0.312761 0
M  V30 19318 H 1745.84 -4.04145 1.32464 0
M  V30 19319 N 1744.16 -0.784156 -1.36707 0
M  V30 19320 C 1745.09 -0.136944 -2.28791 0
M  V30 19321 C 1746.1 0.65075 -1.49228 0
M  V30 19322 O 1747.29 0.486799 -1.71734 0
M  V30 19323 C 1744.39 0.829306 -3.28597 0
M  V30 19324 C 1743.57 0.09279 -4.37302 0
M  V30 19325 C 1742.62 0.974213 -5.17103 0
M  V30 19326 O 1741.65 0.433399 -5.67548 0
M  V30 19327 N 1742.85 2.29909 -5.33031 0
M  V30 19328 H 1745.62 -0.927906 -2.84974 0
M  V30 19329 H 1743.18 -0.637596 -1.48816 0
M  V30 19330 H 1745.17 1.42268 -3.78869 0
M  V30 19331 H 1743.74 1.52117 -2.73092 0
M  V30 19332 H 1742.96 -0.681615 -3.88262 0
M  V30 19333 H 1744.25 -0.415655 -5.07099 0
M  V30 19334 H 1743.65 2.76268 -4.93652 0
M  V30 19335 H 1742.2 2.84224 -5.86566 0
M  V30 19336 N 1745.64 1.48215 -0.535727 0
M  V30 19337 C 1746.88 2.021 -0.00372016 0
M  V30 19338 C 1747.21 1.41456 1.34221 0
M  V30 19339 O 1746.48 0.581987 1.87055 0
M  V30 19340 H 1745.06 0.746998 0.00161295 0
M  V30 19341 H 1747.72 1.81862 -0.700863 0
M  V30 19342 H 1746.81 3.11939 0.100352 0
M  V30 19343 N 1747.11 0.27113 1.5525 0
M  V30 19344 C 1748.39 -0.398374 1.915 0
M  V30 19345 C 1748.77 -1.74026 1.19491 0
M  V30 19346 O 1748.12 -2.26242 0.320425 0
M  V30 19347 C 1748.33 -0.542589 3.44756 0
M  V30 19348 C 1749.68 -0.827326 4.16462 0
M  V30 19349 O 1750.7 -0.627548 3.50628 0
M  V30 19350 O 1749.56 -1.20917 5.32955 0
M  V30 19351 H 1746.65 -0.217479 0.797892 0
M  V30 19352 H 1749.2 0.316988 1.66713 0
M  V30 19353 H 1747.97 0.401926 3.8923 0
M  V30 19354 H 1747.6 -1.30757 3.75484 0
M  V30 19355 N 1748.59 -1.576 -0.00164943 0
M  V30 19356 C 1749.84 -1.90778 -0.68786 0
M  V30 19357 C 1750.17 -0.872138 -1.73515 0
M  V30 19358 O 1749.45 0.109349 -1.94192 0
M  V30 19359 C 1749.73 -3.34539 -1.3325 0
M  V30 19360 C 1749.58 -4.48819 -0.296862 0
M  V30 19361 C 1750.9 -3.77693 -2.25911 0
M  V30 19362 H 1748.02 -0.69381 -0.24859 0
M  V30 19363 H 1750.66 -1.89936 0.0493059 0
M  V30 19364 H 1748.81 -3.35388 -1.9608 0
M  V30 19365 H 1750.48 -4.60106 0.331635 0
M  V30 19366 H 1748.73 -4.32123 0.38105 0
M  V30 19367 H 1749.4 -5.46362 -0.786927 0
M  V30 19368 H 1751.87 -3.78386 -1.73099 0
M  V30 19369 H 1750.75 -4.79037 -2.67983 0
M  V30 19370 H 1751.01 -3.11469 -3.1375 0
M  V30 19371 N 1750.07 0.274379 -1.55193 0
M  V30 19372 C 1751.3 1.02295 -1.79497 0
M  V30 19373 C 1751.71 1.80479 -0.567805 0
M  V30 19374 O 1751.05 1.77517 0.472601 0
M  V30 19375 C 1751.11 2.02986 -2.9671 0
M  V30 19376 C 1750.78 1.43753 -4.33802 0
M  V30 19377 C 1751.77 0.853898 -5.1284 0
M  V30 19378 C 1749.46 1.46514 -4.80457 0
M  V30 19379 C 1751.45 0.305773 -6.36666 0
M  V30 19380 C 1749.14 0.913158 -6.04239 0
M  V30 19381 C 1750.14 0.33447 -6.82181 0
M  V30 19382 O 1749.83 -0.209069 -8.03628 0
M  V30 19383 H 1749.56 0.307952 -0.601782 0
M  V30 19384 H 1752.11 0.310987 -2.03032 0
M  V30 19385 H 1750.34 2.77937 -2.68864 0
M  V30 19386 H 1752.03 2.6396 -3.0835 0
M  V30 19387 H 1752.8 0.825268 -4.77927 0
M  V30 19388 H 1748.68 1.90496 -4.198 0
M  V30 19389 H 1752.22 -0.146553 -6.97446 0
M  V30 19390 H 1748.12 0.939023 -6.38633 0
M  V30 19391 H 1748.89 -0.0982973 -8.18441 0
M  V30 19392 N 1751.55 1.48103 0.538828 0
M  V30 19393 C 1752.96 1.34028 0.866532 0
M  V30 19394 C 1753.16 0.3446 1.98531 0
M  V30 19395 O 1752.22 -0.237347 2.51382 0
M  V30 19396 C 1753.53 2.73833 1.24241 0
M  V30 19397 C 1755.08 2.82256 1.35279 0
M  V30 19398 C 1755.56 4.22744 1.76214 0
M  V30 19399 N 1757.05 4.25374 1.83332 0
M  V30 19400 C 1757.78 5.31009 2.16373 0
M  V30 19401 N 1757.28 6.4693 2.47899 0
M  V30 19402 N 1759.07 5.18397 2.17304 0
M  V30 19403 H 1751.22 2.11461 -0.199502 0
M  V30 19404 H 1753.49 0.947627 -0.0266031 0
M  V30 19405 H 1753.19 3.48213 0.494025 0
M  V30 19406 H 1753.07 3.0679 2.19453 0
M  V30 19407 H 1755.45 2.08137 2.09196 0
M  V30 19408 H 1755.53 2.5293 0.382096 0
M  V30 19409 H 1755.18 4.97375 1.02862 0
M  V30 19410 H 1755.11 4.49507 2.74319 0
M  V30 19411 H 1757.6 3.41755 1.61282 0
M  V30 19412 H 1757.91 7.23279 2.7219 0
M  V30 19413 H 1756.26 6.50219 2.45438 0
M  V30 19414 H 1759.45 4.26855 1.92126 0
M  V30 19415 H 1759.62 6.00824 2.42722 0
M  V30 19416 N 1753.03 -0.787016 1.36542 0
M  V30 19417 C 1753.99 -1.88136 1.3091 0
M  V30 19418 C 1754.99 -1.59339 0.216292 0
M  V30 19419 O 1756.18 -1.67706 0.471222 0
M  V30 19420 C 1753.31 -3.24969 1.02994 0
M  V30 19421 H 1754.5 -1.94546 2.28237 0
M  V30 19422 H 1752.06 -0.985084 1.2135 0
M  V30 19423 H 1752.79 -3.24242 0.0613497 0
M  V30 19424 H 1752.58 -3.47261 1.82078 0
M  V30 19425 H 1754.07 -4.05036 1.01664 0
M  V30 19426 N 1754.5 -1.20861 -1.01145 0
M  V30 19427 C 1755.41 -0.977926 -2.13246 0
M  V30 19428 C 1756.43 0.0678862 -1.73868 0
M  V30 19429 O 1757.61 -0.120717 -2.01038 0
M  V30 19430 C 1754.67 -0.538575 -3.42491 0
M  V30 19431 C 1753.73 -1.65584 -3.96081 0
M  V30 19432 C 1752.97 -1.23736 -5.19158 0
M  V30 19433 O 1753.19 -0.108227 -5.70297 0
M  V30 19434 O 1752.12 -2.04679 -5.6603 0
M  V30 19435 H 1755.95 -1.91666 -2.3558 0
M  V30 19436 H 1753.53 -0.992931 -1.1163 0
M  V30 19437 H 1755.42 -0.303041 -4.20309 0
M  V30 19438 H 1754.09 0.371515 -3.21561 0
M  V30 19439 H 1753 -1.94572 -3.19519 0
M  V30 19440 H 1754.33 -2.54313 -4.21409 0
M  V30 19441 N 1755.98 1.20536 -1.01532 0
M  V30 19442 C 1757.21 1.93853 -0.723104 0
M  V30 19443 C 1757.63 1.74697 0.715994 0
M  V30 19444 O 1756.98 1.06013 1.48551 0
M  V30 19445 C 1757.03 3.45986 -1.04767 0
M  V30 19446 O 1756.75 3.64514 -2.43025 0
M  V30 19447 C 1758.26 4.36449 -0.776323 0
M  V30 19448 H 1755.48 0.616179 -0.265639 0
M  V30 19449 H 1758.02 1.53064 -1.35616 0
M  V30 19450 H 1756.17 3.84659 -0.460039 0
M  V30 19451 H 1756.59 4.58513 -2.54689 0
M  V30 19452 H 1758.06 5.41853 -1.05351 0
M  V30 19453 H 1758.54 4.38245 0.289524 0
M  V30 19454 H 1759.15 4.03437 -1.34605 0
M  V30 19455 N 1757.46 0.791395 1.36289 0
M  V30 19456 C 1758.37 0.192362 2.3381 0
M  V30 19457 C 1759.39 -0.656556 1.61138 0
M  V30 19458 O 1760.56 -0.571877 1.9311 0
M  V30 19459 C 1757.63 -0.661283 3.40335 0
M  V30 19460 C 1756.69 0.206361 4.28804 0
M  V30 19461 C 1755.92 -0.606636 5.30241 0
M  V30 19462 O 1756.14 -1.84247 5.39823 0
M  V30 19463 O 1755.08 -0.00549116 6.019 0
M  V30 19464 H 1758.9 0.998723 2.86809 0
M  V30 19465 H 1756.49 0.552889 1.38793 0
M  V30 19466 H 1758.37 -1.148 4.05461 0
M  V30 19467 H 1757.05 -1.4455 2.89632 0
M  V30 19468 H 1755.95 0.739877 3.66711 0
M  V30 19469 H 1757.29 0.954142 4.82863 0
M  V30 19470 N 1758.94 -1.47929 0.54358 0
M  V30 19471 C 1759.85 -2.33611 -0.215191 0
M  V30 19472 C 1760.87 -1.47343 -0.925526 0
M  V30 19473 O 1762.04 -1.80299 -0.897459 0
M  V30 19474 C 1759.11 -3.23755 -1.24031 0
M  V30 19475 C 1758.17 -4.25904 -0.538874 0
M  V30 19476 C 1757.4 -5.11741 -1.51516 0
M  V30 19477 O 1757.62 -4.9979 -2.74893 0
M  V30 19478 O 1756.56 -5.92722 -1.0471 0
M  V30 19479 H 1760.38 -2.99765 0.487279 0
M  V30 19480 H 1757.97 -1.46267 0.30434 0
M  V30 19481 H 1759.85 -3.79475 -1.8324 0
M  V30 19482 H 1758.53 -2.60245 -1.92495 0
M  V30 19483 H 1757.43 -3.73982 0.0940539 0
M  V30 19484 H 1758.77 -4.9209 0.104063 0
M  V30 19485 N 1760.42 -0.27936 -1.55104 0
M  V30 19486 C 1761.67 0.336866 -1.98867 0
M  V30 19487 C 1761.98 1.56656 -1.17124 0
M  V30 19488 O 1763.19 2.25601 -1.51051 0
M  V30 19489 C 1761.64 0.650699 -3.53969 0
M  V30 19490 C 1761.25 -0.559433 -4.44493 0
M  V30 19491 C 1762.99 1.22931 -4.0631 0
M  V30 19492 C 1760.9 -0.219952 -5.90991 0
M  V30 19493 H 1759.83 0.129643 -0.742771 0
M  V30 19494 H 1762.48 -0.384678 -1.79423 0
M  V30 19495 H 1760.86 1.43126 -3.6923 0
M  V30 19496 H 1762.04 -1.3362 -4.41001 0
M  V30 19497 H 1760.35 -1.05519 -4.02809 0
M  V30 19498 H 1762.95 1.49719 -5.13311 0
M  V30 19499 H 1763.29 2.16458 -3.55601 0
M  V30 19500 H 1763.83 0.51095 -3.94505 0
M  V30 19501 H 1760.56 -1.1232 -6.45805 0
M  V30 19502 H 1760.08 0.519971 -5.97542 0
M  V30 19503 H 1761.76 0.186308 -6.46732 0
M  V30 19504 N 1761.9 1.57599 -0.0067085 0
M  V30 19505 C 1763.31 1.78864 0.535202 0
M  V30 19506 C 1763.66 0.914793 1.73568 0
M  V30 19507 O 1762.78 0.119075 2.16072 0
M  V30 19508 C 1763.38 3.24386 0.977709 0
M  V30 19509 C 1761.94 3.46725 1.46488 0
M  V30 19510 C 1761.08 2.74114 0.419171 0
M  V30 19511 H 1764.03 1.56982 -0.232853 0
M  V30 19512 H 1764.06 3.32867 1.84336 0
M  V30 19513 H 1763.57 3.87961 0.103778 0
M  V30 19514 H 1761.67 2.88373 2.35948 0
M  V30 19515 H 1761.78 4.55416 1.48772 0
M  V30 19516 H 1760.15 2.3893 0.882311 0
M  V30 19517 H 1760.93 3.40392 -0.445908 0
M  V30 19518 N 1763.37 -0.266145 1.55336 0
M  V30 19519 C 1764.32 -1.32914 1.88686 0
M  V30 19520 C 1765.29 -1.48752 0.739048 0
M  V30 19521 O 1766.48 -1.63048 0.990951 0
M  V30 19522 C 1763.62 -2.68317 2.17026 0
M  V30 19523 C 1762.73 -2.60644 3.44512 0
M  V30 19524 C 1761.86 -3.88271 3.62517 0
M  V30 19525 C 1760.9 -3.75137 4.83672 0
M  V30 19526 N 1760.04 -4.94614 4.98299 0
M  V30 19527 H 1764.88 -1.03774 2.79347 0
M  V30 19528 H 1762.42 -0.501205 1.38298 0
M  V30 19529 H 1764.37 -3.47107 2.31458 0
M  V30 19530 H 1763 -2.95645 1.29591 0
M  V30 19531 H 1762.06 -1.73527 3.38515 0
M  V30 19532 H 1763.37 -2.46842 4.3344 0
M  V30 19533 H 1762.52 -4.75503 3.76804 0
M  V30 19534 H 1761.26 -4.04949 2.71787 0
M  V30 19535 H 1760.27 -2.86289 4.69381 0
M  V30 19536 H 1761.49 -3.59973 5.75844 0
M  V30 19537 H 1759.44 -5.11689 4.10501 0
M  V30 19538 H 1759.35 -4.83369 5.81284 0
M  V30 19539 H 1760.62 -5.83399 5.16978 0
M  V30 19540 N 1764.85 -1.48386 -0.530967 0
M  V30 19541 C 1766.1 -1.55608 -1.28332 0
M  V30 19542 C 1766.41 -0.234479 -1.94189 0
M  V30 19543 O 1767.62 -0.184926 -2.70869 0
M  V30 19544 C 1766.08 -2.74423 -2.32852 0
M  V30 19545 C 1765.68 -4.13221 -1.73068 0
M  V30 19546 C 1767.43 -2.90956 -3.09103 0
M  V30 19547 C 1765.33 -5.23299 -2.75522 0
M  V30 19548 H 1764.26 -0.579291 -0.482637 0
M  V30 19549 H 1766.92 -1.74718 -0.560885 0
M  V30 19550 H 1765.3 -2.48745 -3.08126 0
M  V30 19551 H 1766.47 -4.48913 -1.03989 0
M  V30 19552 H 1764.79 -4.01796 -1.09312 0
M  V30 19553 H 1767.38 -3.70363 -3.85662 0
M  V30 19554 H 1767.73 -2.00376 -3.64905 0
M  V30 19555 H 1768.26 -3.1653 -2.40943 0
M  V30 19556 H 1765 -6.15842 -2.24542 0
M  V30 19557 H 1764.52 -4.92095 -3.42932 0
M  V30 19558 H 1766.2 -5.5137 -3.38526 0
M  V30 19559 N 1766.33 0.779763 -1.36958 0
M  V30 19560 C 1767.58 1.53803 -1.31723 0
M  V30 19561 C 1767.9 1.94239 0.100663 0
M  V30 19562 O 1767.16 1.6372 1.07212 0
M  V30 19563 C 1767.46 2.82075 -2.19473 0
M  V30 19564 C 1767.12 2.6073 -3.67873 0
M  V30 19565 C 1765.79 2.54617 -4.08318 0
M  V30 19566 C 1768.14 2.41407 -4.61922 0
M  V30 19567 C 1765.47 2.2716 -5.40939 0
M  V30 19568 C 1767.82 2.15475 -5.94772 0
M  V30 19569 C 1766.48 2.07801 -6.3433 0
M  V30 19570 H 1765.75 0.562804 -0.482009 0
M  V30 19571 H 1768.4 0.898839 -1.69095 0
M  V30 19572 H 1766.7 3.50511 -1.75069 0
M  V30 19573 H 1768.4 3.39915 -2.12741 0
M  V30 19574 H 1764.99 2.66347 -3.35793 0
M  V30 19575 H 1769.18 2.45125 -4.31541 0
M  V30 19576 H 1764.43 2.19708 -5.7056 0
M  V30 19577 H 1768.61 1.9952 -6.67207 0
M  V30 19578 H 1766.23 1.86289 -7.37021 0
M  V30 19579 N 1767.81 1.21396 1.00503 0
M  V30 19580 C 1768.74 0.930982 2.09441 0
M  V30 19581 C 1769.75 -0.0857912 1.62574 0
M  V30 19582 O 1770.94 0.146701 1.77896 0
M  V30 19583 C 1768.04 0.376344 3.36804 0
M  V30 19584 C 1767.21 1.44744 4.12756 0
M  V30 19585 C 1766.27 0.902051 5.18411 0
M  V30 19586 O 1765.3 1.58548 5.46673 0
M  V30 19587 N 1766.5 -0.282718 5.79811 0
M  V30 19588 H 1769.27 1.86879 2.343 0
M  V30 19589 H 1766.83 1.1192 1.16985 0
M  V30 19590 H 1768.82 -0.00292068 4.047 0
M  V30 19591 H 1767.39 -0.466283 3.09103 0
M  V30 19592 H 1766.61 2.00056 3.39664 0
M  V30 19593 H 1767.9 2.16846 4.60277 0
M  V30 19594 H 1767.3 -0.855 5.59201 0
M  V30 19595 H 1765.85 -0.603494 6.49 0
M  V30 19596 N 1769.29 -1.19996 1.0217 0
M  V30 19597 C 1770.53 -1.88818 0.709281 0
M  V30 19598 C 1770.85 -1.80032 -0.764702 0
M  V30 19599 O 1772.05 -2.44037 -1.18988 0
M  V30 19600 C 1770.51 -3.38652 1.2183 0
M  V30 19601 C 1770.12 -3.56012 2.71955 0
M  V30 19602 C 1771.86 -4.12996 0.981542 0
M  V30 19603 C 1769.77 -4.997 3.16313 0
M  V30 19604 H 1768.7 -0.70716 0.261613 0
M  V30 19605 H 1771.35 -1.35715 1.23506 0
M  V30 19606 H 1769.73 -3.91109 0.620478 0
M  V30 19607 H 1770.91 -3.13918 3.37331 0
M  V30 19608 H 1769.22 -2.95046 2.93831 0
M  V30 19609 H 1771.82 -5.18948 1.28831 0
M  V30 19610 H 1772.16 -4.1622 -0.0818616 0
M  V30 19611 H 1772.69 -3.66656 1.543 0
M  V30 19612 H 1769.43 -5.01635 4.21951 0
M  V30 19613 H 1768.95 -5.42585 2.5566 0
M  V30 19614 H 1770.63 -5.68312 3.09242 0
M  V30 19615 N 1770.76 -0.798611 -1.35867 0
M  V30 19616 C 1771.69 -0.217751 -2.32482 0
M  V30 19617 C 1772.67 0.652374 -1.57093 0
M  V30 19618 O 1773.86 0.584297 -1.85202 0
M  V30 19619 C 1770.99 0.640925 -3.41335 0
M  V30 19620 C 1769.94 -0.130053 -4.27802 0
M  V30 19621 C 1769.27 0.849811 -5.27904 0
M  V30 19622 C 1770.57 -1.32451 -5.05227 0
M  V30 19623 H 1772.26 -1.02492 -2.81311 0
M  V30 19624 H 1769.81 -0.494302 -1.3525 0
M  V30 19625 H 1771.76 1.05729 -4.07921 0
M  V30 19626 H 1770.49 1.4809 -2.91096 0
M  V30 19627 H 1769.15 -0.5275 -3.62785 0
M  V30 19628 H 1768.79 1.68507 -4.73935 0
M  V30 19629 H 1768.49 0.338323 -5.86625 0
M  V30 19630 H 1770.02 1.26455 -5.97362 0
M  V30 19631 H 1771.43 -0.983429 -5.64802 0
M  V30 19632 H 1769.83 -1.76992 -5.73405 0
M  V30 19633 H 1770.9 -2.11522 -4.36333 0
M  V30 19634 N 1772.24 1.47639 -0.551417 0
M  V30 19635 C 1773.47 2.06578 -0.0298471 0
M  V30 19636 C 1773.88 1.40538 1.26672 0
M  V30 19637 O 1773.22 0.493957 1.76934 0
M  V30 19638 C 1773.28 3.5868 0.242667 0
M  V30 19639 C 1772.95 4.46726 -0.963597 0
M  V30 19640 C 1773.95 4.85195 -1.86766 0
M  V30 19641 C 1771.63 4.88324 -1.17664 0
M  V30 19642 C 1773.62 5.64056 -2.96849 0
M  V30 19643 C 1771.31 5.66951 -2.28058 0
M  V30 19644 C 1772.31 6.04727 -3.17482 0
M  V30 19645 O 1772 6.81771 -4.25963 0
M  V30 19646 H 1771.73 0.674806 -0.0401627 0
M  V30 19647 H 1774.28 1.90714 -0.762724 0
M  V30 19648 H 1772.51 3.72736 1.02978 0
M  V30 19649 H 1774.2 3.99661 0.708914 0
M  V30 19650 H 1774.97 4.53662 -1.7151 0
M  V30 19651 H 1770.85 4.58391 -0.489796 0
M  V30 19652 H 1774.39 5.93461 -3.66675 0
M  V30 19653 H 1770.29 5.97897 -2.43289 0
M  V30 19654 H 1771.06 7.00156 -4.23938 0
M  V30 19655 N 1773.72 0.287581 1.54954 0
M  V30 19656 C 1774.68 -0.581465 2.21702 0
M  V30 19657 C 1775.68 -1.07172 1.19878 0
M  V30 19658 O 1776.87 -0.969899 1.44702 0
M  V30 19659 C 1774.01 -1.80358 2.89282 0
M  V30 19660 H 1775.2 0.00151035 2.999 0
M  V30 19661 H 1772.75 0.0382953 1.56253 0
M  V30 19662 H 1773.49 -2.42674 2.15128 0
M  V30 19663 H 1773.27 -1.45983 3.63911 0
M  V30 19664 H 1774.76 -2.42129 3.4024 0
M  V30 19665 N 1775.2 -1.57593 0.0150662 0
M  V30 19666 C 1776.15 -2.10501 -0.989557 0
M  V30 19667 C 1777.14 -1.02836 -1.34615 0
M  V30 19668 O 1778.35 -1.21286 -1.33002 0
M  V30 19669 H 1774.72 -0.672343 -0.336838 0
M  V30 19670 H 1776.69 -2.93871 -0.517893 0
M  V30 19671 C 1775.44 -2.63583 -2.26759 0
M  V30 19672 H 1774.76 -3.46069 -2.00191 0
M  V30 19673 H 1776.2 -3.04264 -2.95295 0
M  V30 19674 C 1774.66 -1.5568 -2.98773 0
M  V30 19675 O 1775.19 -0.948437 -3.90343 0
M  V30 19676 N 1773.4 -1.28062 -2.60861 0
M  V30 19677 H 1772.95 -1.77719 -1.86477 0
M  V30 19678 H 1772.9 -0.560878 -3.09357 0
M  V30 19679 N 1776.68 0.257904 -1.55475 0
M  V30 19680 C 1777.59 1.34084 -1.92506 0
M  V30 19681 C 1778.6 1.53246 -0.824123 0
M  V30 19682 O 1779.78 1.67081 -1.12455 0
M  V30 19683 C 1776.84 2.67741 -2.20263 0
M  V30 19684 C 1775.9 2.57196 -3.43728 0
M  V30 19685 C 1775.14 3.84479 -3.7015 0
M  V30 19686 O 1775.36 4.85858 -2.98827 0
M  V30 19687 O 1774.29 3.83774 -4.63682 0
M  V30 19688 H 1778.12 1.05672 -2.84723 0
M  V30 19689 H 1775.71 0.457726 -1.42215 0
M  V30 19690 H 1777.59 3.46743 -2.39473 0
M  V30 19691 H 1776.26 2.95907 -1.31227 0
M  V30 19692 H 1775.17 1.76518 -3.29837 0
M  V30 19693 H 1776.5 2.33977 -4.33031 0
M  V30 19694 N 1778.15 1.48666 0.52309 0
M  V30 19695 C 1779.4 1.56724 1.27601 0
M  V30 19696 C 1779.72 0.245958 1.93443 0
M  V30 19697 O 1778.99 -0.733053 1.81668 0
M  V30 19698 H 1777.57 0.57739 0.473952 0
M  V30 19699 H 1780.24 1.85169 0.608144 0
M  V30 19700 H 1779.33 2.35188 2.05166 0
M  V30 19701 N 1779.63 -0.772489 1.37369 0
M  V30 19702 C 1780.54 -1.91679 1.35263 0
M  V30 19703 C 1781.56 -1.72161 0.252321 0
M  V30 19704 O 1782.73 -1.95409 0.487581 0
M  V30 19705 C 1779.8 -3.26792 1.15792 0
M  V30 19706 C 1778.86 -3.5897 2.35455 0
M  V30 19707 C 1778.09 -4.87636 2.16903 0
M  V30 19708 O 1778.32 -5.58627 1.15291 0
M  V30 19709 O 1777.25 -5.18859 3.05072 0
M  V30 19710 H 1781.08 -1.96408 2.31641 0
M  V30 19711 H 1778.66 -0.915136 1.18092 0
M  V30 19712 H 1780.54 -4.07611 1.06918 0
M  V30 19713 H 1779.22 -3.22918 0.224872 0
M  V30 19714 H 1778.13 -2.78389 2.49901 0
M  V30 19715 H 1779.46 -3.67586 3.27325 0
M  V30 19716 N 1781.11 -1.21927 -0.998575 0
M  V30 19717 C 1782.35 -1.05191 -1.75255 0
M  V30 19718 C 1782.71 0.40666 -1.87644 0
M  V30 19719 O 1783.92 0.694716 -2.59667 0
M  V30 19720 C 1782.19 -1.7372 -3.1234 0
M  V30 19721 S 1783.75 -1.72323 -4.03547 0
M  V30 19722 H 1780.56 -0.376819 -0.602933 0
M  V30 19723 H 1783.17 -1.54777 -1.19434 0
M  V30 19724 H 1781.87 -2.79018 -3.00961 0
M  V30 19725 H 1781.4 -1.24341 -3.73233 0
M  V30 19726 H 1783.42 -0.768885 -4.90207 0
M  V30 19727 N 1782.59 1.19452 -1.02805 0
M  V30 19728 C 1784 1.41147 -0.744969 0
M  V30 19729 C 1784.2 1.90008 0.670765 0
M  V30 19730 O 1783.26 2.0763 1.43688 0
M  V30 19731 C 1784.57 2.42328 -1.78039 0
M  V30 19732 C 1786.12 2.56076 -1.79984 0
M  V30 19733 C 1786.6 3.6051 -2.82483 0
M  V30 19734 N 1788.09 3.68005 -2.81294 0
M  V30 19735 C 1788.82 4.48502 -3.57258 0
M  V30 19736 N 1788.32 5.32711 -4.42934 0
M  V30 19737 N 1790.11 4.43144 -3.45803 0
M  V30 19738 H 1782.26 0.860569 -1.94185 0
M  V30 19739 H 1784.53 0.44042 -0.839484 0
M  V30 19740 H 1784.23 2.13448 -2.79523 0
M  V30 19741 H 1784.11 3.41491 -1.60199 0
M  V30 19742 H 1786.49 2.84279 -0.791782 0
M  V30 19743 H 1786.57 1.57069 -2.01898 0
M  V30 19744 H 1786.22 3.33049 -3.83459 0
M  V30 19745 H 1786.15 4.59166 -2.57827 0
M  V30 19746 H 1788.64 3.07863 -2.19154 0
M  V30 19747 H 1788.95 5.9125 -4.97637 0
M  V30 19748 H 1787.3 5.32175 -4.47007 0
M  V30 19749 H 1790.49 3.76399 -2.78283 0
M  V30 19750 H 1790.66 5.0564 -4.05256 0
M  V30 19751 N 1784.07 0.805805 1.35442 0
M  V30 19752 C 1785.01 0.213632 2.29809 0
M  V30 19753 C 1785.98 -0.651878 1.52774 0
M  V30 19754 O 1787.17 -0.597124 1.81216 0
M  V30 19755 C 1784.31 -0.632444 3.39255 0
M  V30 19756 C 1783.42 0.253414 4.31256 0
M  V30 19757 C 1782.56 -0.600593 5.27794 0
M  V30 19758 C 1781.6 0.285712 6.11433 0
M  V30 19759 N 1780.73 -0.528222 7.0011 0
M  V30 19760 H 1785.57 1.02378 2.79862 0
M  V30 19761 H 1783.11 0.516397 1.37738 0
M  V30 19762 H 1785.07 -1.13814 4.01376 0
M  V30 19763 H 1783.7 -1.40786 2.90481 0
M  V30 19764 H 1782.75 0.877202 3.70148 0
M  V30 19765 H 1784.06 0.935631 4.89946 0
M  V30 19766 H 1783.22 -1.17145 5.95283 0
M  V30 19767 H 1781.95 -1.31638 4.69598 0
M  V30 19768 H 1780.96 0.868843 5.42891 0
M  V30 19769 H 1782.18 0.999349 6.71707 0
M  V30 19770 H 1780.13 -1.228 6.44404 0
M  V30 19771 H 1780.05 0.0959658 7.55939 0
M  V30 19772 H 1781.32 -1.08238 7.71949 0
M  V30 19773 N 1785.54 -1.47344 0.559239 0
M  V30 19774 C 1786.82 -1.95577 -0.0298268 0
M  V30 19775 C 1787.2 -1.50185 -1.4835 0
M  V30 19776 O 1786.55 -0.74162 -2.1613 0
M  V30 19777 C 1786.76 -3.48801 0.117767 0
M  V30 19778 C 1788.11 -4.24592 -0.026535 0
M  V30 19779 O 1789.13 -3.56171 0.0454163 0
M  V30 19780 O 1787.99 -5.46198 -0.181675 0
M  V30 19781 H 1785.08 -0.824597 -0.0629972 0
M  V30 19782 H 1787.63 -1.57736 0.625905 0
M  V30 19783 H 1786.4 -3.74652 1.12924 0
M  V30 19784 H 1786.03 -3.93413 -0.575483 0
M  V30 19785 N 1787.02 -0.295795 -1.54799 0
M  V30 19786 C 1788.27 0.315473 -2.00331 0
M  V30 19787 C 1788.6 1.53939 -1.18392 0
M  V30 19788 O 1787.88 1.92767 -0.259086 0
M  V30 19789 C 1788.16 0.677227 -3.53674 0
M  V30 19790 C 1788.01 -0.555462 -4.46357 0
M  V30 19791 C 1789.33 1.50576 -4.1354 0
M  V30 19792 H 1786.45 0.113191 -0.728256 0
M  V30 19793 H 1789.09 -0.406858 -1.85593 0
M  V30 19794 H 1787.24 1.29264 -3.66365 0
M  V30 19795 H 1788.91 -1.19397 -4.45581 0
M  V30 19796 H 1787.16 -1.18968 -4.17168 0
M  V30 19797 H 1787.83 -0.25828 -5.51395 0
M  V30 19798 H 1790.3 0.985819 -4.04253 0
M  V30 19799 H 1789.18 1.72766 -5.21002 0
M  V30 19800 H 1789.44 2.49334 -3.65082 0
M  V30 19801 N 1788.5 1.57583 -0.0234236 0
M  V30 19802 C 1789.41 2.13328 0.976138 0
M  V30 19803 C 1790.43 1.08414 1.36097 0
M  V30 19804 O 1791.6 1.40441 1.44354 0
M  V30 19805 C 1788.67 2.64469 2.24181 0
M  V30 19806 C 1787.73 3.84076 1.91793 0
M  V30 19807 C 1786.96 4.32768 3.12326 0
M  V30 19808 O 1787.19 3.80663 4.24797 0
M  V30 19809 O 1786.12 5.24676 2.94956 0
M  V30 19810 H 1789.95 2.99001 0.532166 0
M  V30 19811 H 1787.53 1.48098 0.196838 0
M  V30 19812 H 1789.41 2.97456 2.98492 0
M  V30 19813 H 1788.09 1.81881 2.6777 0
M  V30 19814 H 1786.99 3.56023 1.14883 0
M  V30 19815 H 1788.33 4.67808 1.53024 0
M  V30 19816 N 1789.98 -0.249655 1.5561 0
M  V30 19817 C 1790.91 -1.33534 1.85051 0
M  V30 19818 C 1791.89 -1.46503 0.705373 0
M  V30 19819 O 1793.07 -1.62761 0.950841 0
M  V30 19820 C 1790.2 -2.70916 2.03278 0
M  V30 19821 C 1789.25 -2.75111 3.25908 0
M  V30 19822 S 1790.08 -2.31998 4.82636 0
M  V30 19823 C 1791.24 -3.7131 5.03865 0
M  V30 19824 H 1791.47 -1.08362 2.76848 0
M  V30 19825 H 1789 -0.450498 1.47682 0
M  V30 19826 H 1790.96 -3.50022 2.14464 0
M  V30 19827 H 1789.62 -2.93328 1.12328 0
M  V30 19828 H 1788.81 -3.75999 3.3562 0
M  V30 19829 H 1788.42 -2.04047 3.13434 0
M  V30 19830 H 1790.71 -4.66784 4.91039 0
M  V30 19831 H 1791.65 -3.66535 6.05853 0
M  V30 19832 H 1792.06 -3.63696 4.31724 0
M  V30 19833 N 1791.46 -1.48941 -0.515198 0
M  V30 19834 C 1792.37 -1.67271 -1.64492 0
M  V30 19835 C 1793.38 -0.555222 -1.64904 0
M  V30 19836 O 1794.56 -0.828161 -1.83585 0
M  V30 19837 C 1791.62 -1.722 -3.00912 0
M  V30 19838 C 1790.69 -2.95683 -3.11239 0
M  V30 19839 C 1789.92 -3.00368 -4.41152 0
M  V30 19840 O 1790.14 -2.13041 -5.29122 0
M  V30 19841 O 1789.08 -3.92691 -4.56155 0
M  V30 19842 H 1792.9 -2.62947 -1.51962 0
M  V30 19843 H 1790.49 -1.32515 -0.68993 0
M  V30 19844 H 1792.37 -1.77877 -3.82018 0
M  V30 19845 H 1791.04 -0.796995 -3.13735 0
M  V30 19846 H 1789.95 -2.95531 -2.29374 0
M  V30 19847 H 1791.28 -3.87617 -3.03338 0
M  V30 19848 N 1792.94 0.765193 -1.37777 0
M  V30 19849 C 1794.35 1.34186 -1.29811 0
M  V30 19850 C 1794.7 1.96133 0.0513426 0
M  V30 19851 O 1793.82 1.94272 0.953273 0
M  V30 19852 C 1794.42 2.43975 -2.35078 0
M  V30 19853 C 1792.98 2.97393 -2.30726 0
M  V30 19854 C 1792.12 1.70667 -2.18559 0
M  V30 19855 H 1795.07 0.564948 -1.48304 0
M  V30 19856 H 1795.1 3.23622 -2.00123 0
M  V30 19857 H 1794.61 1.98859 -3.33282 0
M  V30 19858 H 1792.71 3.46867 -1.36067 0
M  V30 19859 H 1792.82 3.52561 -3.24403 0
M  V30 19860 H 1791.19 1.93846 -1.65215 0
M  V30 19861 H 1791.97 1.27645 -3.18687 0
M  V30 19862 N 1794.41 1.22455 0.992094 0
M  V30 19863 C 1795.66 1.05115 1.73432 0
M  V30 19864 C 1795.99 -0.412642 1.89765 0
M  V30 19865 O 1795.27 -1.3059 1.44141 0
M  V30 19866 C 1795.55 1.76385 3.13943 0
M  V30 19867 C 1795.4 3.30364 3.05253 0
M  V30 19868 C 1796.72 1.51688 4.13133 0
M  V30 19869 H 1793.84 0.383261 0.629508 0
M  V30 19870 H 1796.48 1.50805 1.15576 0
M  V30 19871 H 1794.63 1.37544 3.63337 0
M  V30 19872 H 1796.31 3.78655 2.63474 0
M  V30 19873 H 1794.55 3.6 2.42038 0
M  V30 19874 H 1795.22 3.75409 4.04687 0
M  V30 19875 H 1797.7 1.85429 3.72499 0
M  V30 19876 H 1796.57 2.04049 5.09564 0
M  V30 19877 H 1796.83 0.449654 4.39807 0
M  V30 19878 N 1795.89 -1.18905 1.03437 0
M  V30 19879 C 1796.82 -2.21792 0.578016 0
M  V30 19880 C 1797.84 -1.59015 -0.349014 0
M  V30 19881 O 1799.03 -1.77914 -0.144532 0
M  V30 19882 C 1796.13 -3.38441 -0.176348 0
M  V30 19883 C 1795.3 -4.308 0.756988 0
M  V30 19884 C 1794.36 -5.26179 0.0470478 0
M  V30 19885 O 1793.38 -5.65179 0.675418 0
M  V30 19886 N 1794.59 -5.67497 -1.2218 0
M  V30 19887 H 1797.35 -2.6157 1.46291 0
M  V30 19888 H 1794.91 -1.33627 0.914078 0
M  V30 19889 H 1796.9 -3.99266 -0.660972 0
M  V30 19890 H 1795.47 -2.97406 -0.962715 0
M  V30 19891 H 1794.69 -3.67674 1.4216 0
M  V30 19892 H 1795.98 -4.89413 1.39113 0
M  V30 19893 H 1795.38 -5.37855 -1.75295 0
M  V30 19894 H 1793.94 -6.30548 -1.65081 0
M  V30 19895 N 1797.37 -0.812977 -1.35013 0
M  V30 19896 C 1798.3 -0.185443 -2.28449 0
M  V30 19897 C 1799.31 0.618951 -1.50575 0
M  V30 19898 O 1800.5 0.450262 -1.72728 0
M  V30 19899 C 1797.6 0.759419 -3.30282 0
M  V30 19900 C 1796.78 1.09356e-05 -4.374 0
M  V30 19901 C 1795.84 0.864309 -5.19053 0
M  V30 19902 O 1794.86 0.312916 -5.68339 0
M  V30 19903 N 1796.06 2.18551 -5.37788 0
M  V30 19904 H 1798.83 -0.988144 -2.82941 0
M  V30 19905 H 1796.39 -0.669018 -1.47431 0
M  V30 19906 H 1798.38 1.342 -3.81802 0
M  V30 19907 H 1796.95 1.4629 -2.76257 0
M  V30 19908 H 1796.17 -0.763818 -3.86729 0
M  V30 19909 H 1797.46 -0.523125 -5.06104 0
M  V30 19910 H 1796.86 2.65735 -4.99401 0
M  V30 19911 H 1795.41 2.71718 -5.92463 0
M  V30 19912 N 1798.85 1.47045 -0.567045 0
M  V30 19913 C 1799.81 2.28607 0.164758 0
M  V30 19914 C 1800.81 1.37509 0.833542 0
M  V30 19915 O 1802 1.60043 0.687895 0
M  V30 19916 C 1799.13 3.17466 1.24211 0
M  V30 19917 H 1800.33 2.9478 -0.551814 0
M  V30 19918 H 1797.88 1.52897 -0.324376 0
M  V30 19919 H 1798.61 2.56006 1.99076 0
M  V30 19920 H 1798.4 3.8452 0.767243 0
M  V30 19921 H 1799.89 3.78894 1.75582 0
M  V30 19922 N 1800.33 0.304 1.5464 0
M  V30 19923 C 1801.24 -0.580159 2.27313 0
M  V30 19924 C 1802.25 -1.14588 1.30941 0
M  V30 19925 O 1803.43 -1.17002 1.63928 0
M  V30 19926 C 1800.49 -1.73437 3.00201 0
M  V30 19927 C 1799.55 -1.20243 4.12116 0
M  V30 19928 C 1798.79 -2.30164 4.81519 0
M  V30 19929 O 1799.01 -3.50123 4.503 0
M  V30 19930 O 1797.94 -1.96686 5.68857 0
M  V30 19931 H 1801.77 0.00944552 3.03699 0
M  V30 19932 H 1799.35 0.0703565 1.49234 0
M  V30 19933 H 1801.24 -2.40677 3.45908 0
M  V30 19934 H 1799.91 -2.31053 2.26708 0
M  V30 19935 H 1798.82 -0.495679 3.70802 0
M  V30 19936 H 1800.15 -0.67167 4.87596 0
M  V30 19937 N 1801.8 -1.57568 0.0317802 0
M  V30 19938 C 1802.75 -2.10379 -0.949183 0
M  V30 19939 C 1803.72 -1.00649 -1.32133 0
M  V30 19940 O 1804.91 -1.28084 -1.41418 0
M  V30 19941 C 1802.05 -2.63762 -2.22539 0
M  V30 19942 C 1801.16 -3.87509 -1.90946 0
M  V30 19943 C 1800.29 -4.29276 -3.12882 0
M  V30 19944 C 1799.33 -5.45775 -2.77121 0
M  V30 19945 N 1798.47 -5.82686 -3.9169 0
M  V30 19946 H 1803.31 -2.93912 -0.491922 0
M  V30 19947 H 1800.85 -1.45272 -0.23121 0
M  V30 19948 H 1802.8 -2.92803 -2.9719 0
M  V30 19949 H 1801.43 -1.83055 -2.65877 0
M  V30 19950 H 1800.49 -3.6518 -1.06526 0
M  V30 19951 H 1801.8 -4.72235 -1.6061 0
M  V30 19952 H 1800.95 -4.59768 -3.95851 0
M  V30 19953 H 1799.69 -3.43323 -3.46382 0
M  V30 19954 H 1798.7 -5.14974 -1.92565 0
M  V30 19955 H 1799.92 -6.3343 -2.44834 0
M  V30 19956 H 1797.87 -4.99688 -4.25027 0
M  V30 19957 H 1797.78 -6.62058 -3.64986 0
M  V30 19958 H 1799.05 -6.17785 -4.75355 0
M  V30 19959 N 1803.28 0.241399 -1.5574 0
M  V30 19960 C 1804.51 0.986075 -1.81891 0
M  V30 19961 C 1804.93 1.78734 -0.608254 0
M  V30 19962 O 1804.28 1.77527 0.423129 0
M  V30 19963 C 1804.33 1.91956 -3.06325 0
M  V30 19964 O 1804.05 1.15071 -4.22718 0
M  V30 19965 C 1805.56 2.77977 -3.45317 0
M  V30 19966 H 1802.78 0.289913 -0.605137 0
M  V30 19967 H 1805.32 0.262622 -2.02807 0
M  V30 19968 H 1803.47 2.59721 -2.87443 0
M  V30 19969 H 1803.89 1.78261 -4.93278 0
M  V30 19970 H 1805.36 3.39215 -4.35474 0
M  V30 19971 H 1805.84 3.49369 -2.66154 0
M  V30 19972 H 1806.45 2.15655 -3.66569 0
M  V30 19973 N 1804.76 1.49212 0.507292 0
M  V30 19974 C 1805.71 1.65894 1.6304 0
M  V30 19975 C 1806.7 0.524951 1.61061 0
M  V30 19976 O 1807.91 0.704392 1.65645 0
M  V30 19977 H 1804.28 0.522994 0.540353 0
M  V30 19978 H 1806.25 2.60176 1.4612 0
M  V30 19979 C 1805 1.73692 3.01208 0
M  V30 19980 H 1804.33 2.60323 3.03434 0
M  V30 19981 H 1805.77 1.89402 3.79346 0
M  V30 19982 C 1804.23 0.480378 3.33458 0
M  V30 19983 O 1804.76 -0.396732 3.99736 0
M  V30 19984 N 1802.96 0.345216 2.88542 0
M  V30 19985 H 1802.51 1.05997 2.34782 0
M  V30 19986 H 1802.47 -0.494453 3.10488 0
M  V30 19987 N 1806.24 -0.757876 1.38181 0
M  V30 19988 C 1807.49 -1.51688 1.34153 0
M  V30 19989 C 1807.81 -1.94375 -0.0697487 0
M  V30 19990 O 1807.07 -1.65404 -1.04594 0
M  V30 19991 C 1807.37 -2.78548 2.23933 0
M  V30 19992 C 1807.03 -2.54845 3.71975 0
M  V30 19993 C 1805.7 -2.48089 4.12317 0
M  V30 19994 C 1808.05 -2.34027 4.65704 0
M  V30 19995 C 1805.38 -2.18526 5.44485 0
M  V30 19996 C 1807.73 -2.05986 5.98124 0
M  V30 19997 C 1806.39 -1.97683 6.37556 0
M  V30 19998 H 1805.66 -0.555064 0.490902 0
M  V30 19999 H 1808.31 -0.871823 1.70504 0
M  V30 20000 H 1806.61 -3.47682 1.80623 0
M  V30 20001 H 1808.31 -3.36487 2.18122 0
M  V30 20002 H 1804.9 -2.60972 3.39988 0
M  V30 20003 H 1809.08 -2.38228 4.35386 0
M  V30 20004 H 1804.34 -2.10603 5.73983 0
M  V30 20005 H 1808.51 -1.8888 6.70296 0
M  V30 20006 H 1806.14 -1.7454 7.39892 0
M  V30 20007 N 1807.72 -1.22979 -0.985586 0
M  V30 20008 C 1808.65 -0.964185 -2.07933 0
M  V30 20009 C 1809.66 0.0599162 -1.6269 0
M  V30 20010 O 1810.85 -0.174984 -1.7764 0
M  V30 20011 C 1807.95 -0.429879 -3.36163 0
M  V30 20012 C 1807.12 -1.51293 -4.10401 0
M  V30 20013 C 1806.18 -0.984411 -5.1691 0
M  V30 20014 O 1805.21 -1.67225 -5.44081 0
M  V30 20015 N 1806.41 0.190439 -5.80188 0
M  V30 20016 H 1809.18 -1.90582 -2.31297 0
M  V30 20017 H 1806.74 -1.13767 -1.15189 0
M  V30 20018 H 1808.73 -0.0614639 -4.04653 0
M  V30 20019 H 1807.3 0.417049 -3.09806 0
M  V30 20020 H 1806.52 -2.05434 -3.36438 0
M  V30 20021 H 1807.81 -2.24141 -4.56769 0
M  V30 20022 H 1807.2 0.765928 -5.60491 0
M  V30 20023 H 1805.76 0.500168 -6.49878 0
M  V30 20024 N 1809.19 1.18355 -1.04066 0
M  V30 20025 C 1810.14 2.24033 -0.625447 0
M  V30 20026 C 1811.14 1.65792 0.347754 0
M  V30 20027 O 1812.34 1.78711 0.215045 0
M  V30 20028 H 1808.72 0.729132 -0.184039 0
M  V30 20029 H 1810.69 2.56362 -1.52712 0
M  V30 20030 C 1809.44 3.477 -0.00432692 0
M  V30 20031 H 1808.76 3.92812 -0.744237 0
M  V30 20032 H 1810.2 4.23268 0.24898 0
M  V30 20033 C 1808.66 3.13022 1.24574 0
M  V30 20034 O 1809.19 3.26759 2.33649 0
M  V30 20035 N 1807.4 2.67347 1.13902 0
M  V30 20036 H 1806.94 2.5637 0.251417 0
M  V30 20037 H 1806.9 2.44517 1.97633 0
M  V30 20038 N 1810.67 0.820125 1.3458 0
M  V30 20039 C 1811.62 0.212417 2.27008 0
M  V30 20040 C 1812.61 -0.621679 1.48405 0
M  V30 20041 O 1813.8 -0.476717 1.70459 0
M  V30 20042 C 1810.93 -0.627099 3.37524 0
M  V30 20043 C 1810.01 0.217471 4.23542 0
M  V30 20044 N 1810.4 1.28711 4.89149 0
M  V30 20045 C 1808.7 0.00134142 4.46 0
M  V30 20046 C 1809.4 1.80387 5.53024 0
M  V30 20047 N 1808.38 1.10819 5.32184 0
M  V30 20048 H 1812.18 1.03066 2.75236 0
M  V30 20049 H 1809.7 0.662649 1.48266 0
M  V30 20050 H 1811.69 -1.07861 4.02705 0
M  V30 20051 H 1810.35 -1.44353 2.90847 0
M  V30 20052 H 1811.36 1.66989 4.9024 0
M  V30 20053 H 1808.04 -0.783152 4.10089 0
M  V30 20054 H 1809.43 2.69858 6.15326 0
M  V30 20055 N 1812.15 -1.46743 0.574835 0
M  V30 20056 C 1813.1 -2.30224 -0.162908 0
M  V30 20057 C 1814.07 -1.4014 -0.891629 0
M  V30 20058 O 1815.25 -1.69094 -0.883854 0
M  V30 20059 C 1812.39 -3.24456 -1.1757 0
M  V30 20060 C 1811.51 -4.29637 -0.451233 0
M  V30 20061 C 1810.64 -5.11003 -1.45085 0
M  V30 20062 C 1809.68 -6.07941 -0.712353 0
M  V30 20063 N 1808.82 -6.82202 -1.65965 0
M  V30 20064 H 1813.66 -2.92785 0.555063 0
M  V30 20065 H 1811.19 -1.44302 0.285546 0
M  V30 20066 H 1813.15 -3.77526 -1.77567 0
M  V30 20067 H 1811.78 -2.63721 -1.86148 0
M  V30 20068 H 1810.83 -3.79485 0.263623 0
M  V30 20069 H 1812.15 -4.9864 0.126468 0
M  V30 20070 H 1811.3 -5.68311 -2.12386 0
M  V30 20071 H 1810.04 -4.41942 -2.06248 0
M  V30 20072 H 1809.04 -5.49794 -0.0255266 0
M  V30 20073 H 1810.27 -6.79017 -0.106227 0
M  V30 20074 H 1808.21 -6.15858 -2.25953 0
M  V30 20075 H 1808.13 -7.47438 -1.13456 0
M  V30 20076 H 1809.4 -7.44073 -2.32325 0
M  V30 20077 N 1813.63 -0.312197 -1.54477 0
M  V30 20078 C 1814.88 0.293192 -1.99962 0
M  V30 20079 C 1815.2 1.53544 -1.20205 0
M  V30 20080 O 1814.47 1.93575 -0.300901 0
M  V30 20081 H 1813.05 0.111325 -0.738658 0
M  V30 20082 H 1815.71 -0.426116 -1.90185 0
M  V30 20083 H 1814.81 0.557482 -3.07081 0
M  V30 20084 N 1815.11 1.57549 -0.040136 0
M  V30 20085 C 1816.06 2.07384 0.947418 0
M  V30 20086 C 1817.04 0.976645 1.27869 0
M  V30 20087 O 1818.23 1.2401 1.26296 0
M  V30 20088 C 1815.36 2.61343 2.22609 0
M  V30 20089 C 1814.45 3.78012 1.9227 0
M  V30 20090 N 1814.84 4.88206 1.32244 0
M  V30 20091 C 1813.14 3.86708 2.22201 0
M  V30 20092 C 1813.84 5.69338 1.19286 0
M  V30 20093 N 1812.81 5.16595 1.69207 0
M  V30 20094 H 1816.62 2.89979 0.478476 0
M  V30 20095 H 1814.13 1.61564 0.164602 0
M  V30 20096 H 1816.13 2.95343 2.94242 0
M  V30 20097 H 1814.79 1.80182 2.70119 0
M  V30 20098 H 1815.8 5.08232 0.996048 0
M  V30 20099 H 1812.47 3.16472 2.72308 0
M  V30 20100 H 1813.86 6.67947 0.727784 0
M  V30 20101 N 1816.58 -0.233136 1.55866 0
M  V30 20102 C 1817.49 -1.31004 1.94615 0
M  V30 20103 C 1818.51 -1.51915 0.848399 0
M  V30 20104 O 1819.69 -1.6527 1.15098 0
M  V30 20105 C 1816.75 -2.64203 2.24494 0
M  V30 20106 C 1815.81 -2.51695 3.47776 0
M  V30 20107 C 1815.05 -3.78542 3.7622 0
M  V30 20108 O 1815.27 -4.81043 3.06519 0
M  V30 20109 O 1814.2 -3.76348 4.69729 0
M  V30 20110 H 1818.03 -1.01129 2.86368 0
M  V30 20111 H 1815.61 -0.435043 1.42926 0
M  V30 20112 H 1817.5 -3.42889 2.44959 0
M  V30 20113 H 1816.17 -2.93782 1.35918 0
M  V30 20114 H 1815.08 -1.71248 3.32603 0
M  V30 20115 H 1816.41 -2.27058 4.36698 0
M  V30 20116 N 1818.06 -1.49479 -0.499372 0
M  V30 20117 C 1819.31 -1.59048 -1.25339 0
M  V30 20118 C 1819.64 -0.277917 -1.92504 0
M  V30 20119 O 1818.89 0.734282 -1.81402 0
M  V30 20120 C 1819.19 -2.70007 -2.3416 0
M  V30 20121 C 1818.86 -4.11451 -1.84443 0
M  V30 20122 C 1817.52 -4.49942 -1.70603 0
M  V30 20123 C 1819.87 -4.99967 -1.47248 0
M  V30 20124 C 1817.2 -5.74722 -1.17949 0
M  V30 20125 C 1819.55 -6.25266 -0.960465 0
M  V30 20126 C 1818.22 -6.62586 -0.808473 0
M  V30 20127 H 1817.49 -0.581998 -0.458649 0
M  V30 20128 H 1820.13 -1.83315 -0.553867 0
M  V30 20129 H 1818.44 -2.39717 -3.09908 0
M  V30 20130 H 1820.14 -2.74619 -2.92208 0
M  V30 20131 H 1816.73 -3.81069 -1.96174 0
M  V30 20132 H 1820.91 -4.70884 -1.56787 0
M  V30 20133 H 1816.17 -6.02335 -1.04895 0
M  V30 20134 H 1820.34 -6.93232 -0.66348 0
M  V30 20135 H 1817.97 -7.59156 -0.398296 0
M  V30 20136 N 1819.54 0.750537 -1.38581 0
M  V30 20137 C 1820.79 1.50512 -1.34272 0
M  V30 20138 C 1821.1 1.95496 0.0636858 0
M  V30 20139 O 1822.31 2.7053 0.22932 0
M  V30 20140 C 1820.77 2.71891 -2.35803 0
M  V30 20141 C 1820.37 2.3392 -3.8208 0
M  V30 20142 C 1822.12 3.4977 -2.40543 0
M  V30 20143 C 1820.02 3.51928 -4.7529 0
M  V30 20144 H 1818.95 0.56515 -0.49912 0
M  V30 20145 H 1821.61 0.820167 -1.64151 0
M  V30 20146 H 1819.99 3.42383 -1.98972 0
M  V30 20147 H 1821.16 1.71075 -4.27867 0
M  V30 20148 H 1819.48 1.69168 -3.80488 0
M  V30 20149 H 1822.07 4.37519 -3.07379 0
M  V30 20150 H 1822.42 3.91141 -1.42527 0
M  V30 20151 H 1822.95 2.86294 -2.76189 0
M  V30 20152 H 1819.69 3.15621 -5.74512 0
M  V30 20153 H 1819.21 4.13807 -4.34194 0
M  V30 20154 H 1820.89 4.1847 -4.93449 0
M  V30 20155 N 1821.02 1.235 0.979051 0
M  V30 20156 C 1822.43 1.06263 1.53509 0
M  V30 20157 C 1822.78 -0.369594 1.92687 0
M  V30 20158 O 1821.91 -1.25649 1.76185 0
M  V30 20159 C 1822.5 1.92276 2.78954 0
M  V30 20160 C 1821.06 1.79296 3.30953 0
M  V30 20161 C 1820.21 1.87898 2.03935 0
M  V30 20162 H 1823.16 1.37143 0.798588 0
M  V30 20163 H 1823.18 1.44835 3.51857 0
M  V30 20164 H 1822.69 2.96509 2.50408 0
M  V30 20165 H 1820.79 0.778512 3.64376 0
M  V30 20166 H 1820.91 2.62755 4.0062 0
M  V30 20167 H 1819.27 1.31494 2.18131 0
M  V30 20168 H 1820.05 2.93689 1.77769 0
M  V30 20169 N 1822.5 -1.17802 1.04693 0
M  V30 20170 C 1823.73 -1.91867 0.774246 0
M  V30 20171 C 1824.14 -1.76534 -0.669425 0
M  V30 20172 O 1823.5 -1.09915 -1.45688 0
M  V30 20173 C 1823.55 -3.43086 1.13904 0
M  V30 20174 O 1823.27 -3.57943 2.52604 0
M  V30 20175 C 1824.77 -4.34238 0.891767 0
M  V30 20176 H 1821.99 -0.60892 0.281882 0
M  V30 20177 H 1824.53 -1.49414 1.39627 0
M  V30 20178 H 1822.69 -3.83304 0.561863 0
M  V30 20179 H 1823.1 -4.51599 2.66756 0
M  V30 20180 H 1824.58 -5.3887 1.1968 0
M  V30 20181 H 1825.05 -4.38858 -0.17323 0
M  V30 20182 H 1825.66 -3.99727 1.45254 0
M  V30 20183 N 1823.98 -0.827251 -1.34143 0
M  V30 20184 C 1824.91 -0.267015 -2.31968 0
M  V30 20185 C 1825.89 0.618906 -1.58441 0
M  V30 20186 O 1827.07 0.544882 -1.86399 0
M  V30 20187 C 1824.2 0.568379 -3.42617 0
M  V30 20188 C 1823.16 -0.220767 -4.2743 0
M  V30 20189 C 1822.48 0.737643 -5.29587 0
M  V30 20190 C 1823.78 -1.43137 -5.02304 0
M  V30 20191 H 1825.48 -1.08436 -2.79073 0
M  V30 20192 H 1823.02 -0.522879 -1.34171 0
M  V30 20193 H 1824.97 0.970525 -4.10072 0
M  V30 20194 H 1823.7 1.41882 -2.94172 0
M  V30 20195 H 1822.36 -0.604333 -3.61585 0
M  V30 20196 H 1822.01 1.58416 -4.77403 0
M  V30 20197 H 1821.71 0.213815 -5.87211 0
M  V30 20198 H 1823.23 1.13755 -5.9991 0
M  V30 20199 H 1824.64 -1.10301 -5.62589 0
M  V30 20200 H 1823.04 -1.89115 -5.69522 0
M  V30 20201 H 1824.11 -2.2073 -4.31748 0
M  V30 20202 N 1825.45 1.46436 -0.582609 0
M  V30 20203 C 1826.68 2.06469 -0.0736587 0
M  V30 20204 C 1827.09 1.43193 1.23662 0
M  V30 20205 O 1826.43 0.531376 1.75847 0
M  V30 20206 C 1826.5 3.59114 0.166531 0
M  V30 20207 C 1826.16 4.44581 -1.05814 0
M  V30 20208 C 1827.16 4.81125 -1.97016 0
M  V30 20209 C 1824.84 4.85718 -1.27996 0
M  V30 20210 C 1826.84 5.57632 -3.08747 0
M  V30 20211 C 1824.52 5.61986 -2.40032 0
M  V30 20212 C 1825.52 5.97856 -3.30237 0
M  V30 20213 O 1825.21 6.72582 -4.40328 0
M  V30 20214 H 1824.94 0.673802 -0.0544673 0
M  V30 20215 H 1827.5 1.89053 -0.803005 0
M  V30 20216 H 1825.73 3.74837 0.950489 0
M  V30 20217 H 1827.41 4.01075 0.62398 0
M  V30 20218 H 1828.18 4.49922 -1.81094 0
M  V30 20219 H 1824.06 4.57249 -0.586917 0
M  V30 20220 H 1827.6 5.85549 -3.7918 0
M  V30 20221 H 1823.5 5.92602 -2.55917 0
M  V30 20222 H 1824.27 6.91006 -4.38694 0
M  V30 20223 N 1826.93 0.320385 1.54309 0
M  V30 20224 C 1827.88 -0.562498 2.20952 0
M  V30 20225 C 1828.87 -1.08408 1.18897 0
M  V30 20226 O 1830.06 -1.02163 1.4454 0
M  V30 20227 C 1827.19 -1.72448 2.96845 0
M  V30 20228 C 1826.27 -1.21794 4.06235 0
M  V30 20229 N 1826.66 -0.43084 5.03962 0
M  V30 20230 C 1824.96 -1.49695 4.20128 0
M  V30 20231 C 1825.66 -0.158687 5.81484 0
M  V30 20232 N 1824.64 -0.74393 5.38486 0
M  V30 20233 H 1828.44 0.0461894 2.93864 0
M  V30 20234 H 1825.95 0.126085 1.6191 0
M  V30 20235 H 1827.95 -2.36871 3.43071 0
M  V30 20236 H 1826.61 -2.33667 2.25455 0
M  V30 20237 H 1827.62 -0.0739708 5.17847 0
M  V30 20238 H 1824.3 -2.11522 3.59951 0
M  V30 20239 H 1825.69 0.47475 6.70221 0
M  V30 20240 N 1828.41 -1.57525 0.0484906 0
M  V30 20241 C 1829.66 -1.92585 -0.62589 0
M  V30 20242 C 1829.98 -0.926621 -1.71009 0
M  V30 20243 O 1829.24 0.0614997 -1.95603 0
M  V30 20244 C 1829.54 -3.34335 -1.26313 0
M  V30 20245 C 1829.2 -4.49851 -0.307397 0
M  V30 20246 C 1827.87 -4.8118 -0.0443996 0
M  V30 20247 C 1830.22 -5.20039 0.347762 0
M  V30 20248 C 1827.55 -5.80044 0.881238 0
M  V30 20249 C 1829.9 -6.19893 1.26157 0
M  V30 20250 C 1828.56 -6.49651 1.53327 0
M  V30 20251 H 1827.83 -0.704717 -0.229029 0
M  V30 20252 H 1830.48 -1.91158 0.114397 0
M  V30 20253 H 1828.78 -3.32115 -2.07862 0
M  V30 20254 H 1830.48 -3.58741 -1.79182 0
M  V30 20255 H 1827.07 -4.25402 -0.522561 0
M  V30 20256 H 1831.26 -4.9605 0.157663 0
M  V30 20257 H 1826.51 -6.01437 1.09924 0
M  V30 20258 H 1830.69 -6.73391 1.77532 0
M  V30 20259 H 1828.31 -7.26073 2.25216 0
M  V30 20260 N 1829.89 0.224867 -1.55988 0
M  V30 20261 C 1831.3 0.792138 -1.69062 0
M  V30 20262 C 1831.65 1.85123 -0.649908 0
M  V30 20263 O 1830.77 2.15477 0.199614 0
M  V30 20264 C 1831.37 1.44361 -3.06505 0
M  V30 20265 C 1829.93 1.95831 -3.21446 0
M  V30 20266 C 1829.08 0.81728 -2.64983 0
M  V30 20267 H 1832.03 0.000270833 -1.587 0
M  V30 20268 H 1832.05 2.31233 -3.02178 0
M  V30 20269 H 1831.56 0.672544 -3.82228 0
M  V30 20270 H 1829.66 2.75749 -2.50586 0
M  V30 20271 H 1829.77 2.14056 -4.28622 0
M  V30 20272 H 1828.14 1.22371 -2.23377 0
M  V30 20273 H 1828.92 0.058944 -3.43249 0
M  V30 20274 N 1831.37 1.49742 0.491438 0
M  V30 20275 C 1832.33 1.66587 1.57421 0
M  V30 20276 C 1833.33 0.537281 1.51558 0
M  V30 20277 O 1834.52 0.803928 1.5454 0
M  V30 20278 C 1831.65 1.67217 2.97071 0
M  V30 20279 H 1832.84 2.63171 1.4381 0
M  V30 20280 H 1830.4 1.38917 0.716368 0
M  V30 20281 H 1831.13 0.722529 3.16149 0
M  V30 20282 H 1830.92 2.49187 3.02734 0
M  V30 20283 H 1832.41 1.82274 3.75721 0
M  V30 20284 N 1832.84 -0.743177 1.38977 0
M  V30 20285 C 1833.79 -1.87846 1.37174 0
M  V30 20286 C 1834.79 -1.67454 0.256059 0
M  V30 20287 O 1835.99 -1.74895 0.425658 0
M  V30 20288 H 1832.37 -0.618206 0.428166 0
M  V30 20289 H 1834.34 -1.86483 2.32952 0
M  V30 20290 C 1833.09 -3.25443 1.22401 0
M  V30 20291 H 1832.41 -3.41727 2.07516 0
M  V30 20292 H 1833.85 -4.05095 1.25195 0
M  V30 20293 C 1832.31 -3.36831 -0.0682569 0
M  V30 20294 O 1832.84 -3.87964 -1.04147 0
M  V30 20295 N 1831.05 -2.90315 -0.128582 0
M  V30 20296 H 1830.59 -2.48893 0.664077 0
M  V30 20297 H 1830.55 -2.98315 -0.992762 0
M  V30 20298 N 1834.32 -1.24018 -0.972487 0
M  V30 20299 C 1835.56 -1.08885 -1.72984 0
M  V30 20300 C 1835.93 0.366766 -1.88464 0
M  V30 20301 O 1837.13 0.639481 -2.61083 0
M  V30 20302 C 1835.4 -1.80306 -3.08585 0
M  V30 20303 S 1836.96 -1.80844 -3.99801 0
M  V30 20304 H 1833.78 -0.389523 -0.594805 0
M  V30 20305 H 1836.38 -1.57275 -1.16124 0
M  V30 20306 H 1835.08 -2.85339 -2.94975 0
M  V30 20307 H 1834.61 -1.3223 -3.70512 0
M  V30 20308 H 1836.63 -0.872692 -4.88465 0
M  V30 20309 N 1835.8 1.17245 -1.05316 0
M  V30 20310 C 1837.08 1.83482 -0.677779 0
M  V30 20311 C 1837.46 1.93592 0.841753 0
M  V30 20312 O 1836.81 1.47142 1.74818 0
M  V30 20313 C 1837.02 3.21062 -1.36823 0
M  V30 20314 C 1838.36 3.96954 -1.50708 0
M  V30 20315 O 1839.39 3.30545 -1.32734 0
M  V30 20316 O 1838.25 5.15967 -1.80111 0
M  V30 20317 H 1835.34 0.79179 -0.238741 0
M  V30 20318 H 1837.89 1.24531 -1.15283 0
M  V30 20319 H 1836.66 3.08679 -2.40484 0
M  V30 20320 H 1836.28 3.8768 -0.882617 0
M  V30 20321 N 1837.28 0.834353 1.33702 0
M  V30 20322 C 1838.24 0.269618 2.27609 0
M  V30 20323 C 1839.24 -0.559065 1.50768 0
M  V30 20324 O 1840.43 -0.373511 1.70149 0
M  V30 20325 C 1837.56 -0.620682 3.35202 0
M  V30 20326 H 1838.76 1.09819 2.79069 0
M  V30 20327 H 1836.31 0.607087 1.44028 0
M  V30 20328 H 1837.04 -1.47187 2.88975 0
M  V30 20329 H 1836.83 -0.0278102 3.9209 0
M  V30 20330 H 1838.32 -1.00924 4.05221 0
M  V30 20331 N 1838.76 -1.46125 0.590367 0
M  V30 20332 C 1840 -2.04237 0.0816639 0
M  V30 20333 C 1840.36 -1.45099 -1.25739 0
M  V30 20334 O 1841.56 -1.94458 -1.85578 0
M  V30 20335 C 1839.83 -3.57391 0.0248878 0
M  V30 20336 S 1841.39 -4.36736 -0.425128 0
M  V30 20337 H 1838.21 -0.709806 0.0411891 0
M  V30 20338 H 1840.81 -1.79065 0.784592 0
M  V30 20339 H 1839.52 -3.97948 1.00327 0
M  V30 20340 H 1839.05 -3.87112 -0.700572 0
M  V30 20341 H 1841.06 -4.66956 -1.6783 0
M  V30 20342 N 1840.23 -0.328564 -1.54137 0
M  V30 20343 C 1841.2 0.52248 -2.23165 0
M  V30 20344 C 1842.2 1.03956 -1.22677 0
M  V30 20345 O 1843.39 0.931193 -1.47222 0
M  V30 20346 C 1840.52 1.72624 -2.93962 0
M  V30 20347 H 1841.71 -0.081023 -2.99791 0
M  V30 20348 H 1839.27 -0.0797096 -1.56097 0
M  V30 20349 H 1840 2.36885 -2.21486 0
M  V30 20350 H 1839.79 1.36283 -3.67654 0
M  V30 20351 H 1841.28 2.33023 -3.4654 0
M  V30 20352 N 1841.71 1.57497 -0.0568439 0
M  V30 20353 C 1842.66 2.11862 0.915593 0
M  V30 20354 C 1843.63 1.02738 1.30515 0
M  V30 20355 O 1844.81 1.30318 1.39362 0
M  V30 20356 C 1841.95 2.67269 2.18315 0
M  V30 20357 C 1841.07 3.90498 1.84757 0
M  V30 20358 C 1840.2 4.342 3.06013 0
M  V30 20359 C 1839.24 5.50115 2.68403 0
M  V30 20360 N 1838.38 5.88844 3.8237 0
M  V30 20361 H 1843.22 2.94657 0.445101 0
M  V30 20362 H 1840.76 1.45621 0.20807 0
M  V30 20363 H 1842.71 2.97494 2.92494 0
M  V30 20364 H 1841.34 1.87262 2.62931 0
M  V30 20365 H 1840.4 3.66828 1.00703 0
M  V30 20366 H 1841.71 4.7473 1.53077 0
M  V30 20367 H 1840.86 4.66008 3.88486 0
M  V30 20368 H 1839.6 3.4879 3.40876 0
M  V30 20369 H 1838.61 5.17973 1.84348 0
M  V30 20370 H 1839.83 6.37244 2.34726 0
M  V30 20371 H 1837.78 5.06387 4.17024 0
M  V30 20372 H 1837.69 6.67781 3.54407 0
M  V30 20373 H 1838.96 6.25269 4.65466 0
M  V30 20374 N 1843.19 -0.216591 1.56105 0
M  V30 20375 C 1844.6 -0.783161 1.6948 0
M  V30 20376 C 1844.95 -1.84776 0.659716 0
M  V30 20377 O 1844.08 -2.1558 -0.188184 0
M  V30 20378 C 1844.67 -1.42733 3.07267 0
M  V30 20379 C 1843.23 -1.94123 3.2248 0
M  V30 20380 C 1842.38 -0.803216 2.65412 0
M  V30 20381 H 1845.33 0.00814542 1.58698 0
M  V30 20382 H 1845.35 -2.29627 3.034 0
M  V30 20383 H 1844.86 -0.652264 3.8258 0
M  V30 20384 H 1842.96 -2.74416 2.52045 0
M  V30 20385 H 1843.08 -2.1178 4.29751 0
M  V30 20386 H 1841.44 -1.21185 2.24023 0
M  V30 20387 H 1842.22 -0.0407398 3.43276 0
M  V30 20388 N 1844.67 -1.5 -0.48349 0
M  V30 20389 C 1845.6 -1.70879 -1.5913 0
M  V30 20390 C 1846.58 -0.557606 -1.60701 0
M  V30 20391 O 1847.76 -0.79539 -1.77164 0
M  V30 20392 C 1844.89 -1.7915 -2.97527 0
M  V30 20393 C 1843.85 -2.94233 -3.10823 0
M  V30 20394 C 1843.17 -2.87634 -4.50745 0
M  V30 20395 C 1844.47 -4.34925 -2.89202 0
M  V30 20396 H 1846.17 -2.63632 -1.41911 0
M  V30 20397 H 1843.71 -1.26865 -0.68127 0
M  V30 20398 H 1845.67 -1.92342 -3.74943 0
M  V30 20399 H 1844.39 -0.830106 -3.15875 0
M  V30 20400 H 1843.05 -2.80672 -2.35837 0
M  V30 20401 H 1842.7 -1.89365 -4.65993 0
M  V30 20402 H 1842.4 -3.64885 -4.60579 0
M  V30 20403 H 1843.92 -3.02857 -5.30198 0
M  V30 20404 H 1845.34 -4.49076 -3.56376 0
M  V30 20405 H 1843.73 -5.13531 -3.10492 0
M  V30 20406 H 1844.8 -4.48154 -1.85165 0
M  V30 20407 N 1846.15 0.735796 -1.39369 0
M  V30 20408 C 1847.39 1.49649 -1.37756 0
M  V30 20409 C 1847.75 1.92381 0.0268551 0
M  V30 20410 O 1847.04 1.63847 0.993221 0
M  V30 20411 C 1847.23 2.7495 -2.28336 0
M  V30 20412 C 1847.06 2.4447 -3.77445 0
M  V30 20413 C 1845.83 2.36806 -4.46376 0
M  V30 20414 C 1848.03 2.10066 -4.69443 0
M  V30 20415 N 1846.01 1.98788 -5.80824 0
M  V30 20416 C 1847.38 1.82485 -5.92536 0
M  V30 20417 C 1849.44 1.96527 -4.57473 0
M  V30 20418 C 1848.14 1.4273 -7.04997 0
M  V30 20419 C 1850.17 1.58175 -5.69855 0
M  V30 20420 C 1849.53 1.31479 -6.92021 0
M  V30 20421 H 1845.63 0.546482 -0.559358 0
M  V30 20422 H 1848.21 0.855204 -1.74912 0
M  V30 20423 H 1846.38 3.3686 -1.93339 0
M  V30 20424 H 1848.12 3.41144 -2.17721 0
M  V30 20425 H 1844.87 2.53875 -3.99806 0
M  V30 20426 H 1845.3 1.82374 -6.51973 0
M  V30 20427 H 1849.94 2.15835 -3.63559 0
M  V30 20428 H 1847.66 1.22163 -7.98813 0
M  V30 20429 H 1851.24 1.48307 -5.6258 0
M  V30 20430 H 1850.12 1.02246 -7.77506 0
M  V30 20431 N 1847.63 1.24532 0.965897 0
M  V30 20432 C 1848.58 1.00627 2.04593 0
M  V30 20433 C 1849.56 -0.0529299 1.60813 0
M  V30 20434 O 1850.75 0.16102 1.76266 0
M  V30 20435 C 1847.88 0.614939 3.37748 0
M  V30 20436 C 1846.97 1.71031 3.88084 0
M  V30 20437 N 1847.36 2.94339 4.11337 0
M  V30 20438 C 1845.66 1.58823 4.16763 0
M  V30 20439 C 1846.36 3.65361 4.52644 0
M  V30 20440 N 1845.33 2.92931 4.57922 0
M  V30 20441 H 1849.13 1.94256 2.20549 0
M  V30 20442 H 1846.65 1.14685 1.14983 0
M  V30 20443 H 1848.65 0.424907 4.14729 0
M  V30 20444 H 1847.31 -0.314149 3.23177 0
M  V30 20445 H 1848.32 3.305 3.98736 0
M  V30 20446 H 1844.99 0.727304 4.11116 0
M  V30 20447 H 1846.38 4.71145 4.79032 0
M  V30 20448 N 1849.1 -1.16685 1.05936 0
M  V30 20449 C 1850.35 -1.87405 0.775061 0
M  V30 20450 C 1850.68 -1.81279 -0.696543 0
M  V30 20451 O 1849.96 -1.22595 -1.50999 0
M  V30 20452 C 1850.24 -3.37124 1.26569 0
M  V30 20453 C 1850.09 -3.5196 2.80078 0
M  V30 20454 C 1851.41 -4.31401 0.870695 0
M  V30 20455 H 1848.53 -0.680488 0.283028 0
M  V30 20456 H 1851.17 -1.37174 1.31466 0
M  V30 20457 H 1849.32 -3.80033 0.806653 0
M  V30 20458 H 1851 -3.18014 3.34163 0
M  V30 20459 H 1849.24 -2.9399 3.18986 0
M  V30 20460 H 1849.91 -4.5709 3.09471 0
M  V30 20461 H 1852.39 -3.96373 1.266 0
M  V30 20462 H 1851.26 -5.34676 1.2415 0
M  V30 20463 H 1851.52 -4.41529 -0.224692 0
M  V30 20464 N 1850.58 -0.841432 -1.33258 0
M  V30 20465 C 1851.83 -0.438378 -1.97698 0
M  V30 20466 C 1852.16 1.00298 -1.66645 0
M  V30 20467 O 1851.41 1.71648 -0.939965 0
M  V30 20468 C 1851.71 -0.608921 -3.52175 0
M  V30 20469 C 1851.38 -2.01876 -4.03184 0
M  V30 20470 C 1850.04 -2.40438 -4.16825 0
M  V30 20471 C 1852.39 -2.93952 -4.30397 0
M  V30 20472 C 1849.72 -3.70376 -4.55015 0
M  V30 20473 C 1852.07 -4.23373 -4.7004 0
M  V30 20474 C 1850.73 -4.61888 -4.81888 0
M  V30 20475 H 1850 -0.160414 -0.723428 0
M  V30 20476 H 1852.65 -1.06895 -1.58889 0
M  V30 20477 H 1850.96 0.104948 -3.91659 0
M  V30 20478 H 1852.65 -0.277313 -4.0004 0
M  V30 20479 H 1849.24 -1.70927 -3.93042 0
M  V30 20480 H 1853.43 -2.65396 -4.19379 0
M  V30 20481 H 1848.68 -4.00018 -4.62381 0
M  V30 20482 H 1852.86 -4.94793 -4.90054 0
M  V30 20483 H 1850.48 -5.6262 -5.11237 0
M  V30 20484 N 1852.06 1.4581 -0.598108 0
M  V30 20485 C 1853.01 2.30454 0.126261 0
M  V30 20486 C 1853.98 1.41541 0.869221 0
M  V30 20487 O 1855.16 1.70478 0.856841 0
M  V30 20488 C 1852.3 3.26285 1.12393 0
M  V30 20489 C 1851.41 4.303 0.382824 0
M  V30 20490 C 1850.55 5.13246 1.36937 0
M  V30 20491 C 1849.59 6.08997 0.615545 0
M  V30 20492 N 1848.73 6.84756 1.55091 0
M  V30 20493 H 1853.57 2.91865 -0.601573 0
M  V30 20494 H 1851.1 1.43829 -0.308467 0
M  V30 20495 H 1853.06 3.80303 1.71539 0
M  V30 20496 H 1851.69 2.66649 1.81929 0
M  V30 20497 H 1850.74 3.79018 -0.323962 0
M  V30 20498 H 1852.05 4.98375 -0.205781 0
M  V30 20499 H 1851.21 5.71618 2.03318 0
M  V30 20500 H 1849.95 4.45168 1.99191 0
M  V30 20501 H 1848.95 5.49765 -0.0619441 0
M  V30 20502 H 1850.18 6.791 -0.00181251 0
M  V30 20503 H 1848.12 6.19375 2.16127 0
M  V30 20504 H 1848.04 7.49149 1.0155 0
M  V30 20505 H 1849.31 7.47675 2.20458 0
M  V30 20506 N 1853.54 0.336733 1.53961 0
M  V30 20507 C 1854.95 -0.148599 1.86108 0
M  V30 20508 C 1855.3 -1.50551 1.25812 0
M  V30 20509 O 1854.42 -2.08782 0.569109 0
M  V30 20510 C 1855.02 -0.276413 3.37671 0
M  V30 20511 C 1853.58 -0.705973 3.6972 0
M  V30 20512 C 1852.73 0.164407 2.76812 0
M  V30 20513 H 1855.68 0.556568 1.4862 0
M  V30 20514 H 1855.7 -1.10509 3.64099 0
M  V30 20515 H 1855.21 0.711315 3.81526 0
M  V30 20516 H 1853.31 -1.70297 3.31406 0
M  V30 20517 H 1853.42 -0.500591 4.76478 0
M  V30 20518 H 1851.79 -0.362166 2.52112 0
M  V30 20519 H 1852.57 1.14914 3.23496 0
M  V30 20520 N 1855.02 -1.57465 0.0651956 0
M  V30 20521 C 1856.43 -1.80728 -0.468449 0
M  V30 20522 C 1856.78 -0.978581 -1.70054 0
M  V30 20523 O 1855.9 -0.199186 -2.15481 0
M  V30 20524 C 1856.5 -3.27791 -0.856641 0
M  V30 20525 C 1855.06 -3.51923 -1.33519 0
M  V30 20526 C 1854.2 -2.7548 -0.317147 0
M  V30 20527 H 1857.15 -1.5601 0.290955 0
M  V30 20528 H 1857.18 -3.39479 -1.71855 0
M  V30 20529 H 1856.69 -3.88079 0.0402823 0
M  V30 20530 H 1854.79 -2.96932 -2.25083 0
M  V30 20531 H 1854.9 -4.60624 -1.31767 0
M  V30 20532 H 1853.27 -2.4204 -0.793026 0
M  V30 20533 H 1854.05 -3.38502 0.571935 0
M  V30 20534 N 1856.49 0.20831 -1.56217 0
M  V30 20535 C 1857.9 0.774162 -1.69893 0
M  V30 20536 C 1858.26 1.84424 -0.669506 0
M  V30 20537 O 1857.38 2.15677 0.176748 0
M  V30 20538 C 1857.98 1.41102 -3.08019 0
M  V30 20539 C 1856.53 1.9241 -3.23505 0
M  V30 20540 C 1855.68 0.789129 -2.65835 0
M  V30 20541 H 1858.63 -0.0165614 -1.58691 0
M  V30 20542 H 1858.65 2.28015 -3.04614 0
M  V30 20543 H 1858.17 0.631966 -3.8292 0
M  V30 20544 H 1856.27 2.73076 -2.53496 0
M  V30 20545 H 1856.38 2.09497 -4.30868 0
M  V30 20546 H 1854.74 1.19995 -2.24663 0
M  V30 20547 H 1855.53 0.0225345 -3.43293 0
M  V30 20548 N 1857.97 1.50255 0.475528 0
M  V30 20549 C 1858.93 1.68248 1.55645 0
M  V30 20550 C 1859.93 0.553326 1.5098 0
M  V30 20551 O 1861.12 0.820274 1.53679 0
M  V30 20552 C 1858.26 1.70358 2.95281 0
M  V30 20553 H 1859.45 2.64681 1.4101 0
M  V30 20554 H 1857 1.39669 0.701594 0
M  V30 20555 H 1857.74 0.75602 3.15365 0
M  V30 20556 H 1857.52 2.52384 3.00074 0
M  V30 20557 H 1859.01 1.86249 3.73766 0
M  V30 20558 N 1859.45 -0.728395 1.39758 0
M  V30 20559 C 1860.38 -1.85554 1.41747 0
M  V30 20560 C 1861.36 -1.6778 0.279972 0
M  V30 20561 O 1862.55 -1.88001 0.48675 0
M  V30 20562 C 1859.68 -3.23375 1.26671 0
M  V30 20563 C 1858.63 -3.55799 2.37889 0
M  V30 20564 C 1857.96 -4.92628 2.07899 0
M  V30 20565 C 1859.26 -3.58098 3.80215 0
M  V30 20566 H 1860.95 -1.84146 2.36073 0
M  V30 20567 H 1858.5 -0.884539 1.13631 0
M  V30 20568 H 1860.45 -4.01907 1.26682 0
M  V30 20569 H 1859.17 -3.25326 0.288159 0
M  V30 20570 H 1857.83 -2.796 2.37107 0
M  V30 20571 H 1857.48 -4.91166 1.08466 0
M  V30 20572 H 1857.18 -5.15288 2.82404 0
M  V30 20573 H 1858.7 -5.73509 2.09571 0
M  V30 20574 H 1860.12 -4.26694 3.82891 0
M  V30 20575 H 1858.51 -3.9228 4.54133 0
M  V30 20576 H 1859.58 -2.57758 4.10718 0
M  V30 20577 N 1860.93 -1.25042 -0.959279 0
M  V30 20578 C 1861.84 -1.06749 -2.08906 0
M  V30 20579 C 1862.85 -0.00591805 -1.73999 0
M  V30 20580 O 1864.03 -0.205876 -2.00345 0
M  V30 20581 C 1861.09 -0.683353 -3.39899 0
M  V30 20582 C 1860.16 -1.82235 -3.88702 0
M  V30 20583 C 1859.39 -1.45644 -5.13443 0
M  V30 20584 O 1859.61 -0.350012 -5.69325 0
M  V30 20585 O 1858.55 -2.28502 -5.5684 0
M  V30 20586 H 1862.37 -2.01485 -2.27238 0
M  V30 20587 H 1859.96 -1.03938 -1.07318 0
M  V30 20588 H 1861.84 -0.481036 -4.18645 0
M  V30 20589 H 1860.51 0.234796 -3.22847 0
M  V30 20590 H 1859.42 -2.07948 -3.10979 0
M  V30 20591 H 1860.75 -2.71957 -4.10244 0
M  V30 20592 N 1862.41 1.16121 -1.06553 0
M  V30 20593 C 1863.65 1.88387 -0.793066 0
M  V30 20594 C 1864.01 1.79992 0.66835 0
M  V30 20595 O 1865.21 2.47209 1.05552 0
M  V30 20596 C 1863.48 3.33797 -1.27726 0
M  V30 20597 S 1865.04 4.23887 -1.13425 0
M  V30 20598 H 1861.86 0.650229 -0.287616 0
M  V30 20599 H 1864.46 1.40153 -1.36299 0
M  V30 20600 H 1863.17 3.37448 -2.33574 0
M  V30 20601 H 1862.7 3.87082 -0.702203 0
M  V30 20602 H 1864.71 4.96155 -0.0667742 0
M  V30 20603 N 1863.88 0.848487 1.3281 0
M  V30 20604 C 1865.3 0.537529 1.50276 0
M  V30 20605 C 1865.5 -0.93314 1.78591 0
M  V30 20606 O 1864.56 -1.71649 1.85184 0
M  V30 20607 C 1865.87 1.41919 2.65103 0
M  V30 20608 C 1867.42 1.41897 2.78988 0
M  V30 20609 C 1867.89 2.2857 3.96888 0
M  V30 20610 N 1869.38 2.26331 4.04139 0
M  V30 20611 C 1870.12 2.90127 4.94585 0
M  V30 20612 N 1869.61 3.63011 5.9008 0
M  V30 20613 N 1871.41 2.79547 4.87658 0
M  V30 20614 H 1863.56 1.80038 1.12695 0
M  V30 20615 H 1865.82 0.768636 0.554889 0
M  V30 20616 H 1865.53 2.4647 2.50889 0
M  V30 20617 H 1865.4 1.10213 3.60739 0
M  V30 20618 H 1867.79 0.381128 2.92628 0
M  V30 20619 H 1867.87 1.77614 1.84084 0
M  V30 20620 H 1867.51 3.32418 3.84006 0
M  V30 20621 H 1867.44 1.90188 4.91056 0
M  V30 20622 H 1869.93 1.73337 3.35802 0
M  V30 20623 H 1870.25 4.08872 6.55777 0
M  V30 20624 H 1868.59 3.67119 5.90126 0
M  V30 20625 H 1871.78 2.22162 4.12021 0
M  V30 20626 H 1871.96 3.29548 5.57944 0
M  V30 20627 N 1865.36 -1.4549 0.605832 0
M  V30 20628 C 1866.78 -1.57311 0.269339 0
M  V30 20629 C 1866.98 -1.59746 -1.22814 0
M  V30 20630 O 1866.03 -1.52682 -2.01108 0
M  V30 20631 C 1867.35 -2.85664 0.938963 0
M  V30 20632 C 1868.9 -2.99336 0.914717 0
M  V30 20633 C 1869.37 -4.30457 1.56432 0
M  V30 20634 N 1870.86 -4.37211 1.52973 0
M  V30 20635 C 1871.6 -5.37333 2.00152 0
M  V30 20636 N 1871.09 -6.44001 2.5541 0
M  V30 20637 N 1872.89 -5.28679 1.90931 0
M  V30 20638 H 1865.04 -1.42153 1.57817 0
M  V30 20639 H 1867.3 -0.679542 0.661004 0
M  V30 20640 H 1867.01 -2.89759 1.9933 0
M  V30 20641 H 1866.88 -3.7437 0.461178 0
M  V30 20642 H 1869.27 -2.94809 -0.131069 0
M  V30 20643 H 1869.35 -2.12045 1.43075 0
M  V30 20644 H 1868.99 -4.35742 2.60942 0
M  V30 20645 H 1868.92 -5.16561 1.02332 0
M  V30 20646 H 1871.41 -3.60733 1.12605 0
M  V30 20647 H 1871.73 -7.16644 2.89208 0
M  V30 20648 H 1870.07 -6.44757 2.59448 0
M  V30 20649 H 1873.26 -4.44253 1.47502 0
M  V30 20650 H 1873.43 -6.06559 2.28013 0
M  V30 20651 N 1866.84 -0.344893 -1.5378 0
M  V30 20652 C 1868.08 0.251536 -2.02846 0
M  V30 20653 C 1868.44 1.4766 -1.22721 0
M  V30 20654 O 1869.65 2.1473 -1.61693 0
M  V30 20655 C 1867.92 0.556604 -3.53039 0
M  V30 20656 S 1869.48 1.12965 -4.2401 0
M  V30 20657 H 1866.29 0.074782 -0.707056 0
M  V30 20658 H 1868.9 -0.482967 -1.8944 0
M  V30 20659 H 1867.6 -0.342803 -4.08966 0
M  V30 20660 H 1867.13 1.32074 -3.70567 0
M  V30 20661 H 1869.15 2.41529 -4.33449 0
M  V30 20662 N 1868.32 1.57428 -0.0735454 0
M  V30 20663 C 1869.27 2.09347 0.903216 0
M  V30 20664 C 1870.25 1.00355 1.25769 0
M  V30 20665 O 1871.44 1.26661 1.23637 0
M  V30 20666 C 1868.57 2.66006 2.17015 0
M  V30 20667 C 1867.66 3.82005 1.84208 0
M  V30 20668 N 1868.05 4.90901 1.21859 0
M  V30 20669 C 1866.35 3.91334 2.13948 0
M  V30 20670 C 1867.05 5.7174 1.07183 0
M  V30 20671 N 1866.03 5.20067 1.58211 0
M  V30 20672 H 1869.83 2.90929 0.41686 0
M  V30 20673 H 1867.34 1.61876 0.130295 0
M  V30 20674 H 1869.34 3.01518 2.87911 0
M  V30 20675 H 1868 1.85871 2.66237 0
M  V30 20676 H 1869.01 5.1023 0.888021 0
M  V30 20677 H 1865.69 3.22177 2.65534 0
M  V30 20678 H 1867.08 6.6934 0.585939 0
M  V30 20679 N 1869.8 -0.200022 1.56326 0
M  V30 20680 C 1871.04 -0.922539 1.80602 0
M  V30 20681 C 1871.38 -1.83113 0.646781 0
M  V30 20682 O 1870.65 -1.91271 -0.352928 0
M  V30 20683 C 1870.93 -1.74301 3.15105 0
M  V30 20684 C 1870.79 -0.859471 4.41512 0
M  V30 20685 C 1872.11 -2.71658 3.46251 0
M  V30 20686 H 1869.22 -0.333949 0.656999 0
M  V30 20687 H 1871.87 -0.190177 1.89046 0
M  V30 20688 H 1870.02 -2.36739 3.08037 0
M  V30 20689 H 1871.69 -0.250183 4.60621 0
M  V30 20690 H 1869.93 -0.165935 4.33483 0
M  V30 20691 H 1870.6 -1.46842 5.3211 0
M  V30 20692 H 1873.08 -2.19353 3.53586 0
M  V30 20693 H 1871.95 -3.26152 4.41493 0
M  V30 20694 H 1872.22 -3.50462 2.69497 0
M  V30 20695 N 1871.27 -1.50505 -0.467553 0
M  V30 20696 C 1872.22 -1.69626 -1.56511 0
M  V30 20697 C 1873.19 -0.537594 -1.5716 0
M  V30 20698 O 1874.38 -0.768574 -1.74636 0
M  V30 20699 C 1871.52 -1.79965 -2.9446 0
M  V30 20700 C 1870.63 -3.07356 -3.03572 0
M  V30 20701 C 1869.76 -3.08469 -4.32458 0
M  V30 20702 C 1868.8 -4.303 -4.35326 0
M  V30 20703 N 1867.94 -4.29132 -5.55689 0
M  V30 20704 H 1872.78 -2.63326 -1.39511 0
M  V30 20705 H 1870.32 -1.30531 -0.678239 0
M  V30 20706 H 1872.28 -1.8394 -3.74462 0
M  V30 20707 H 1870.91 -0.897013 -3.10086 0
M  V30 20708 H 1869.96 -3.12836 -2.16421 0
M  V30 20709 H 1871.27 -3.97327 -3.01551 0
M  V30 20710 H 1870.42 -3.11193 -5.20811 0
M  V30 20711 H 1869.16 -2.16335 -4.37093 0
M  V30 20712 H 1868.17 -4.27784 -3.4537 0
M  V30 20713 H 1869.39 -5.23665 -4.3238 0
M  V30 20714 H 1867.34 -3.39853 -5.61102 0
M  V30 20715 H 1867.26 -5.12875 -5.55423 0
M  V30 20716 H 1868.52 -4.36007 -6.46156 0
M  V30 20717 N 1872.75 0.720973 -1.40142 0
M  V30 20718 C 1873.99 1.49327 -1.39573 0
M  V30 20719 C 1874.36 1.91999 0.00451559 0
M  V30 20720 O 1875.56 2.68459 0.135289 0
M  V30 20721 C 1873.83 2.69014 -2.35301 0
M  V30 20722 S 1875.39 3.58489 -2.53043 0
M  V30 20723 H 1872.21 0.510609 -0.494773 0
M  V30 20724 H 1874.81 0.843571 -1.76364 0
M  V30 20725 H 1873.51 2.35827 -3.35878 0
M  V30 20726 H 1873.04 3.389 -1.99775 0
M  V30 20727 H 1875.06 4.6322 -1.77882 0
M  V30 20728 N 1874.23 1.25549 0.952634 0
M  V30 20729 C 1875.18 1.02791 2.03514 0
M  V30 20730 C 1876.16 -0.0358706 1.6086 0
M  V30 20731 O 1877.36 0.179707 1.76085 0
M  V30 20732 C 1874.49 0.650727 3.37076 0
M  V30 20733 C 1873.57 1.75137 3.86248 0
M  V30 20734 N 1873.96 2.98686 4.08192 0
M  V30 20735 C 1872.26 1.63235 4.15055 0
M  V30 20736 C 1872.96 3.70141 4.48743 0
M  V30 20737 N 1871.94 2.97771 4.54789 0
M  V30 20738 H 1875.74 1.96585 2.18476 0
M  V30 20739 H 1873.25 1.15898 1.13761 0
M  V30 20740 H 1875.25 0.468871 4.14255 0
M  V30 20741 H 1873.91 -0.279854 3.23492 0
M  V30 20742 H 1874.92 3.3471 3.95208 0
M  V30 20743 H 1871.6 0.770867 4.10322 0
M  V30 20744 H 1872.99 4.762 4.74008 0
M  V30 20745 N 1875.71 -1.15554 1.07168 0
M  V30 20746 C 1877.12 -1.38284 0.796841 0
M  V30 20747 C 1877.32 -1.92366 -0.599782 0
M  V30 20748 O 1876.38 -2.1282 -1.35883 0
M  V30 20749 C 1877.69 -2.35553 1.8691 0
M  V30 20750 C 1879.24 -2.4922 1.89364 0
M  V30 20751 C 1879.72 -3.49778 2.95668 0
M  V30 20752 N 1881.21 -3.57312 2.94759 0
M  V30 20753 C 1881.94 -4.34934 3.73657 0
M  V30 20754 N 1881.44 -5.15905 4.624 0
M  V30 20755 N 1883.23 -4.30004 3.62012 0
M  V30 20756 H 1875.38 -0.787905 1.97246 0
M  V30 20757 H 1877.65 -0.40896 0.855252 0
M  V30 20758 H 1877.35 -2.02927 2.87252 0
M  V30 20759 H 1877.23 -3.3531 1.72763 0
M  V30 20760 H 1879.61 -2.81145 0.896745 0
M  V30 20761 H 1879.69 -1.49468 2.07589 0
M  V30 20762 H 1879.34 -3.18588 3.95556 0
M  V30 20763 H 1879.27 -4.4928 2.74691 0
M  V30 20764 H 1881.76 -2.99518 2.30429 0
M  V30 20765 H 1882.07 -5.72373 5.19238 0
M  V30 20766 H 1880.42 -5.15218 4.6645 0
M  V30 20767 H 1883.61 -3.65811 2.92061 0
M  V30 20768 H 1883.78 -4.90251 4.23743 0
M  V30 20769 N 1877.19 -0.855519 -1.32358 0
M  V30 20770 C 1878.46 -0.380575 -1.91862 0
M  V30 20771 C 1878.84 1.13593 -1.77932 0
M  V30 20772 O 1878.19 1.95797 -1.17796 0
M  V30 20773 C 1878.4 -0.845902 -3.38593 0
M  V30 20774 C 1879.75 -0.863586 -4.15725 0
M  V30 20775 O 1880.77 -0.790597 -3.47315 0
M  V30 20776 O 1879.63 -0.966658 -5.37883 0
M  V30 20777 H 1876.73 -0.111156 -0.819496 0
M  V30 20778 H 1879.27 -0.942476 -1.41122 0
M  V30 20779 H 1878.05 -1.88909 -3.42679 0
M  V30 20780 H 1877.67 -0.2615 -3.96739 0
M  V30 20781 N 1878.67 1.45167 -0.61354 0
M  V30 20782 C 1879.62 2.27666 0.123348 0
M  V30 20783 C 1880.6 1.37663 0.832933 0
M  V30 20784 O 1881.79 1.61608 0.721941 0
M  V30 20785 C 1878.92 3.24651 1.1161 0
M  V30 20786 C 1878.01 4.22142 0.407045 0
M  V30 20787 N 1878.4 5.0275 -0.554622 0
M  V30 20788 C 1876.7 4.41182 0.65382 0
M  V30 20789 C 1877.4 5.73523 -0.97194 0
M  V30 20790 N 1876.37 5.4269 -0.314424 0
M  V30 20791 H 1880.17 2.8739 -0.615174 0
M  V30 20792 H 1877.69 1.56391 -0.437667 0
M  V30 20793 H 1879.69 3.82493 1.65846 0
M  V30 20794 H 1878.35 2.66488 1.85511 0
M  V30 20795 H 1879.36 5.09451 -0.931644 0
M  V30 20796 H 1876.03 3.94136 1.37705 0
M  V30 20797 H 1877.42 6.48292 -1.76543 0
M  V30 20798 N 1880.14 0.353044 1.53595 0
M  V30 20799 C 1881.07 -0.491481 2.28269 0
M  V30 20800 C 1882.05 -1.0946 1.30201 0
M  V30 20801 O 1883.24 -1.11421 1.59056 0
M  V30 20802 C 1880.37 -1.63776 3.06259 0
M  V30 20803 C 1879.32 -1.16251 4.1191 0
M  V30 20804 C 1878.65 -2.39805 4.7791 0
M  V30 20805 C 1879.95 -0.256191 5.21671 0
M  V30 20806 H 1881.64 0.131483 2.99111 0
M  V30 20807 H 1879.19 0.0646771 1.43855 0
M  V30 20808 H 1881.14 -2.2351 3.57241 0
M  V30 20809 H 1879.87 -2.28777 2.33085 0
M  V30 20810 H 1878.53 -0.587934 3.61855 0
M  V30 20811 H 1878.17 -3.03234 4.0132 0
M  V30 20812 H 1877.87 -2.08684 5.49295 0
M  V30 20813 H 1879.4 -3.00248 5.3168 0
M  V30 20814 H 1880.81 -0.760642 5.68232 0
M  V30 20815 H 1879.21 -0.0364273 6.00089 0
M  V30 20816 H 1880.28 0.705105 4.79746 0
M  V30 20817 N 1881.62 -1.57387 0.0818932 0
M  V30 20818 C 1882.9 -1.85297 -0.626447 0
M  V30 20819 C 1883.28 -0.976281 -1.87168 0
M  V30 20820 O 1882.63 -0.0451999 -2.28455 0
M  V30 20821 C 1882.84 -3.35695 -0.954461 0
M  V30 20822 C 1884.18 -4.03442 -1.32361 0
M  V30 20823 O 1885.21 -3.40499 -1.04588 0
M  V30 20824 O 1884.07 -5.1448 -1.84317 0
M  V30 20825 H 1881.16 -0.765835 -0.31213 0
M  V30 20826 H 1883.71 -1.69319 0.11359 0
M  V30 20827 H 1882.48 -3.91237 -0.0704846 0
M  V30 20828 H 1882.1 -3.56971 -1.75092 0
M  V30 20829 N 1883.1 0.191729 -1.56429 0
M  V30 20830 C 1884.05 1.23761 -1.94813 0
M  V30 20831 C 1885.02 1.45057 -0.809178 0
M  V30 20832 O 1886.2 1.58135 -1.06762 0
M  V30 20833 C 1883.34 2.57656 -2.2958 0
M  V30 20834 C 1882.45 2.4391 -3.56555 0
M  V30 20835 C 1881.59 3.70533 -3.8063 0
M  V30 20836 C 1880.63 3.51634 -5.01019 0
M  V30 20837 N 1879.77 4.70276 -5.2133 0
M  V30 20838 H 1884.61 0.903277 -2.8398 0
M  V30 20839 H 1882.14 0.434651 -1.40532 0
M  V30 20840 H 1884.1 3.35668 -2.47755 0
M  V30 20841 H 1882.73 2.89125 -1.43549 0
M  V30 20842 H 1881.78 1.57179 -3.46409 0
M  V30 20843 H 1883.09 2.25881 -4.44724 0
M  V30 20844 H 1882.25 4.56984 -3.99062 0
M  V30 20845 H 1880.99 3.9152 -2.90798 0
M  V30 20846 H 1879.99 2.63568 -4.82506 0
M  V30 20847 H 1881.22 3.32089 -5.92363 0
M  V30 20848 H 1879.16 4.9152 -4.34446 0
M  V30 20849 H 1879.08 4.55084 -6.03684 0
M  V30 20850 H 1880.35 5.58069 -5.44224 0
M  V30 20851 N 1884.58 1.50751 0.459565 0
M  V30 20852 C 1885.52 1.70454 1.55609 0
M  V30 20853 C 1886.49 0.545921 1.56872 0
M  V30 20854 O 1887.68 0.777824 1.74226 0
M  V30 20855 C 1884.82 1.81524 2.93501 0
M  V30 20856 C 1883.93 3.08962 3.01938 0
M  V30 20857 C 1883.07 3.10758 4.30816 0
M  V30 20858 C 1882.11 4.32602 4.33038 0
M  V30 20859 N 1881.24 4.32073 5.53405 0
M  V30 20860 H 1886.08 2.64062 1.38112 0
M  V30 20861 H 1883.62 1.30889 0.671307 0
M  V30 20862 H 1885.58 1.85923 3.73481 0
M  V30 20863 H 1884.21 0.913445 3.09606 0
M  V30 20864 H 1883.26 3.13979 2.14759 0
M  V30 20865 H 1884.57 3.9892 2.9944 0
M  V30 20866 H 1883.73 3.13951 5.19153 0
M  V30 20867 H 1882.47 2.1865 4.3594 0
M  V30 20868 H 1881.47 4.2961 3.43097 0
M  V30 20869 H 1882.7 5.2595 4.29596 0
M  V30 20870 H 1880.64 3.42824 5.59292 0
M  V30 20871 H 1880.56 5.15814 5.52695 0
M  V30 20872 H 1881.83 4.39428 6.43835 0
M  V30 20873 N 1886.06 -0.713531 1.40522 0
M  V30 20874 C 1886.97 -1.8577 1.43272 0
M  V30 20875 C 1887.98 -1.70936 0.325113 0
M  V30 20876 O 1889.16 -1.93165 0.570022 0
M  V30 20877 C 1886.22 -3.21587 1.29548 0
M  V30 20878 C 1885.28 -3.4866 2.50469 0
M  V30 20879 C 1884.52 -4.77998 2.3739 0
M  V30 20880 O 1884.74 -5.53234 1.38881 0
M  V30 20881 O 1883.67 -5.05453 3.26804 0
M  V30 20882 H 1887.5 -1.86406 2.39763 0
M  V30 20883 H 1885.08 -0.864226 1.21867 0
M  V30 20884 H 1886.97 -4.02709 1.2411 0
M  V30 20885 H 1885.64 -3.21674 0.36163 0
M  V30 20886 H 1884.55 -2.67539 2.61483 0
M  V30 20887 H 1885.88 -3.53372 3.42621 0
M  V30 20888 N 1887.53 -1.26053 -0.945962 0
M  V30 20889 C 1888.81 -1.02072 -1.66855 0
M  V30 20890 C 1889.19 0.45036 -2.0624 0
M  V30 20891 O 1888.54 1.42966 -1.7825 0
M  V30 20892 C 1888.75 -1.96486 -2.88434 0
M  V30 20893 C 1890.1 -2.24825 -3.60193 0
M  V30 20894 O 1891.12 -1.94314 -2.98531 0
M  V30 20895 O 1889.98 -2.76749 -4.71245 0
M  V30 20896 H 1887.07 -0.387753 -0.730463 0
M  V30 20897 H 1889.62 -1.37243 -0.998117 0
M  V30 20898 H 1888.39 -2.95779 -2.56185 0
M  V30 20899 H 1888.01 -1.61765 -3.63205 0
M  V30 20900 N 1889.01 1.14984 -1.07779 0
M  V30 20901 C 1889.94 2.22006 -0.723564 0
M  V30 20902 C 1890.92 1.67592 0.291024 0
M  V30 20903 O 1892.11 1.93516 0.162812 0
M  V30 20904 C 1889.24 3.47074 -0.125223 0
M  V30 20905 C 1888.19 4.14475 -1.06745 0
M  V30 20906 C 1887.52 5.33671 -0.331643 0
M  V30 20907 C 1888.82 4.63744 -2.4029 0
M  V30 20908 H 1890.51 2.51893 -1.61834 0
M  V30 20909 H 1888.06 1.21073 -0.779571 0
M  V30 20910 H 1890.01 4.21185 0.134555 0
M  V30 20911 H 1888.73 3.16533 0.804654 0
M  V30 20912 H 1887.39 3.4231 -1.31222 0
M  V30 20913 H 1887.04 4.99387 0.601833 0
M  V30 20914 H 1886.74 5.7971 -0.959721 0
M  V30 20915 H 1888.27 6.10548 -0.0797668 0
M  V30 20916 H 1889.68 5.2936 -2.20115 0
M  V30 20917 H 1888.08 5.20461 -2.98732 0
M  V30 20918 H 1889.15 3.79151 -3.02279 0
M  V30 20919 N 1890.49 0.862526 1.31902 0
M  V30 20920 C 1891.74 0.465956 1.96244 0
M  V30 20921 C 1892.05 -0.985243 1.68974 0
M  V30 20922 O 1893.26 -1.48761 2.27118 0
M  V30 20923 C 1891.71 0.782319 3.51294 0
M  V30 20924 C 1891.32 2.24978 3.87413 0
M  V30 20925 C 1893.07 0.453857 4.22067 0
M  V30 20926 C 1890.97 2.50894 5.35543 0
M  V30 20927 H 1889.9 0.170515 0.734466 0
M  V30 20928 H 1892.55 1.0544 1.50182 0
M  V30 20929 H 1890.94 0.123217 3.95808 0
M  V30 20930 H 1892.11 2.95132 3.53884 0
M  V30 20931 H 1890.42 2.54354 3.29687 0
M  V30 20932 H 1893.02 0.624812 5.31037 0
M  V30 20933 H 1893.36 -0.605145 4.11878 0
M  V30 20934 H 1893.9 1.06918 3.83162 0
M  V30 20935 H 1890.64 3.55449 5.5076 0
M  V30 20936 H 1890.16 1.85326 5.70451 0
M  V30 20937 H 1891.84 2.35244 6.02718 0
M  V30 20938 N 1891.97 -1.4484 0.62123 0
M  V30 20939 C 1893.21 -2.04018 0.124967 0
M  V30 20940 C 1893.57 -1.47734 -1.22633 0
M  V30 20941 O 1894.77 -1.98351 -1.81412 0
M  V30 20942 C 1893.04 -3.57258 0.10069 0
M  V30 20943 S 1894.6 -4.37539 -0.332394 0
M  V30 20944 H 1891.42 -0.708773 0.0562358 0
M  V30 20945 H 1894.02 -1.77361 0.822397 0
M  V30 20946 H 1892.73 -3.95731 1.08745 0
M  V30 20947 H 1892.26 -3.88511 -0.618303 0
M  V30 20948 H 1894.27 -4.7041 -1.57888 0
M  V30 20949 N 1893.45 -0.361184 -1.53405 0
M  V30 20950 C 1894.86 0.118972 -1.86321 0
M  V30 20951 C 1895.21 1.48531 -1.28191 0
M  V30 20952 O 1894.33 2.07851 -0.602253 0
M  V30 20953 C 1894.93 0.222658 -3.38068 0
M  V30 20954 C 1893.49 0.647065 -3.70796 0
M  V30 20955 C 1892.63 -0.208424 -2.76516 0
M  V30 20956 H 1895.59 -0.580142 -1.47716 0
M  V30 20957 H 1895.61 1.04702 -3.65811 0
M  V30 20958 H 1895.12 -0.771922 -3.80346 0
M  V30 20959 H 1893.22 1.65003 -3.34073 0
M  V30 20960 H 1893.33 0.424724 -4.77214 0
M  V30 20961 H 1891.7 0.322011 -2.52656 0
M  V30 20962 H 1892.48 -1.20046 -3.21627 0
M  V30 20963 N 1894.92 1.57341 -0.0902386 0
M  V30 20964 C 1896.16 1.96056 0.57804 0
M  V30 20965 C 1896.53 0.970766 1.65651 0
M  V30 20966 O 1897.73 1.24623 2.38165 0
M  V30 20967 C 1896 3.39289 1.12328 0
M  V30 20968 S 1897.56 3.99997 1.80411 0
M  V30 20969 H 1894.38 0.685485 0.188762 0
M  V30 20970 H 1896.98 1.94773 -0.168486 0
M  V30 20971 H 1895.68 4.09097 0.326786 0
M  V30 20972 H 1895.21 3.44158 1.90574 0
M  V30 20973 H 1897.23 3.88405 3.08798 0
M  V30 20974 N 1896.4 -0.183431 1.56529 0
M  V30 20975 C 1897.35 -1.22726 1.95466 0
M  V30 20976 C 1898.32 -1.44626 0.81686 0
M  V30 20977 O 1899.5 -1.57566 1.07599 0
M  V30 20978 C 1896.64 -2.56435 2.30944 0
M  V30 20979 C 1895.76 -2.42016 3.57844 0
M  V30 20980 C 1894.89 -3.68509 3.82589 0
M  V30 20981 C 1893.93 -3.48972 5.02877 0
M  V30 20982 N 1893.07 -4.67505 5.23817 0
M  V30 20983 H 1897.91 -0.888204 2.84456 0
M  V30 20984 H 1895.45 -0.427192 1.4076 0
M  V30 20985 H 1897.4 -3.3435 2.49532 0
M  V30 20986 H 1896.03 -2.8836 1.4508 0
M  V30 20987 H 1895.09 -1.55339 3.47237 0
M  V30 20988 H 1896.4 -2.23519 4.45915 0
M  V30 20989 H 1895.55 -4.54861 4.0148 0
M  V30 20990 H 1894.29 -3.89972 2.9287 0
M  V30 20991 H 1893.3 -2.61005 4.83897 0
M  V30 20992 H 1894.52 -3.28942 5.94116 0
M  V30 20993 H 1892.47 -4.8921 4.37047 0
M  V30 20994 H 1892.38 -4.51876 6.06089 0
M  V30 20995 H 1893.65 -5.55175 5.47176 0
M  V30 20996 N 1897.88 -1.50992 -0.451564 0
M  V30 20997 C 1899.13 -1.63197 -1.20394 0
M  V30 20998 C 1899.46 -0.340409 -1.91193 0
M  V30 20999 O 1898.73 0.65926 -1.82986 0
M  V30 21000 C 1899.02 -2.82567 -2.23221 0
M  V30 21001 C 1898.87 -4.2166 -1.56598 0
M  V30 21002 C 1900.19 -2.97468 -3.24347 0
M  V30 21003 H 1897.31 -0.59395 -0.43634 0
M  V30 21004 H 1899.95 -1.83437 -0.495056 0
M  V30 21005 H 1898.1 -2.65441 -2.83678 0
M  V30 21006 H 1899.77 -4.50422 -0.995877 0
M  V30 21007 H 1898.02 -4.25015 -0.86862 0
M  V30 21008 H 1898.69 -5.0115 -2.31415 0
M  V30 21009 H 1901.16 -3.13211 -2.73931 0
M  V30 21010 H 1900.04 -3.82581 -3.93603 0
M  V30 21011 H 1900.3 -2.08921 -3.89621 0
M  V30 21012 N 1899.36 0.706069 -1.40899 0
M  V30 21013 C 1900.58 1.50008 -1.43221 0
M  V30 21014 C 1901.01 1.88065 -0.0362158 0
M  V30 21015 O 1900.37 1.5392 0.958036 0
M  V30 21016 C 1900.41 2.74578 -2.33751 0
M  V30 21017 O 1899.52 3.71657 -1.78731 0
M  V30 21018 H 1898.86 0.451899 -0.486501 0
M  V30 21019 H 1901.39 0.868772 -1.85239 0
M  V30 21020 H 1901.4 3.23002 -2.49266 0
M  V30 21021 H 1900.07 2.46214 -3.35189 0
M  V30 21022 H 1898.65 3.30544 -1.72612 0
M  V30 21023 N 1900.84 1.26553 0.939264 0
M  V30 21024 C 1902.07 1.14826 1.71752 0
M  V30 21025 C 1902.47 -0.298981 1.86823 0
M  V30 21026 O 1901.82 -1.21638 1.37659 0
M  V30 21027 C 1901.88 1.74655 3.14222 0
M  V30 21028 C 1901.54 3.23765 3.22529 0
M  V30 21029 C 1902.54 4.20557 3.0566 0
M  V30 21030 C 1900.23 3.64263 3.45858 0
M  V30 21031 C 1902.22 5.55825 3.1199 0
M  V30 21032 C 1899.91 4.99664 3.51823 0
M  V30 21033 C 1900.9 5.95254 3.34905 0
M  V30 21034 O 1900.59 7.28189 3.40583 0
M  V30 21035 H 1900.32 0.400613 0.544505 0
M  V30 21036 H 1902.88 1.67708 1.18589 0
M  V30 21037 H 1901.11 1.16238 3.68816 0
M  V30 21038 H 1902.8 1.57807 3.73967 0
M  V30 21039 H 1903.56 3.90608 2.8749 0
M  V30 21040 H 1899.44 2.90343 3.58081 0
M  V30 21041 H 1902.99 6.30414 2.98703 0
M  V30 21042 H 1898.88 5.29273 3.69514 0
M  V30 21043 H 1899.65 7.36486 3.57114 0
M  V30 21044 N 1902.31 -1.14411 1.08387 0
M  V30 21045 C 1903.59 -1.8162 0.726188 0
M  V30 21046 C 1903.97 -1.95755 -0.790129 0
M  V30 21047 O 1903.32 -1.51725 -1.70856 0
M  V30 21048 C 1903.53 -3.17321 1.45287 0
M  V30 21049 C 1904.88 -3.92818 1.6118 0
M  V30 21050 O 1905.9 -3.2691 1.41451 0
M  V30 21051 O 1904.76 -5.1101 1.93728 0
M  V30 21052 H 1901.85 -0.785182 0.25965 0
M  V30 21053 H 1904.4 -1.21431 1.18544 0
M  V30 21054 H 1903.17 -3.02195 2.48584 0
M  V30 21055 H 1902.8 -3.85203 0.985093 0
M  V30 21056 N 1903.79 -0.869509 -1.31443 0
M  V30 21057 C 1905.04 -0.480925 -1.97015 0
M  V30 21058 C 1905.37 0.964227 -1.68571 0
M  V30 21059 O 1904.65 1.67893 -0.981953 0
M  V30 21060 C 1904.93 -0.738064 -3.52455 0
M  V30 21061 C 1904.78 -2.23272 -3.90474 0
M  V30 21062 C 1906.1 -0.204237 -4.39626 0
M  V30 21063 H 1903.22 -0.176206 -0.715626 0
M  V30 21064 H 1905.86 -1.09066 -1.55578 0
M  V30 21065 H 1904.01 -0.21909 -3.87882 0
M  V30 21066 H 1905.68 -2.81891 -3.65151 0
M  V30 21067 H 1903.93 -2.70546 -3.39098 0
M  V30 21068 H 1904.6 -2.36328 -4.98852 0
M  V30 21069 H 1907.07 -0.648228 -4.1102 0
M  V30 21070 H 1905.95 -0.413608 -5.47339 0
M  V30 21071 H 1906.21 0.893807 -4.32971 0
M  V30 21072 N 1905.27 1.44508 -0.628902 0
M  V30 21073 C 1906.5 2.06429 -0.13951 0
M  V30 21074 C 1906.91 1.46981 1.18499 0
M  V30 21075 O 1906.27 0.591856 1.72636 0
M  V30 21076 C 1906.32 3.61496 -0.016195 0
M  V30 21077 O 1906.04 4.18729 -1.28831 0
M  V30 21078 C 1907.54 4.40447 0.502154 0
M  V30 21079 H 1904.76 0.666375 -0.0786479 0
M  V30 21080 H 1907.31 1.85414 -0.862674 0
M  V30 21081 H 1905.46 3.81781 0.657398 0
M  V30 21082 H 1905.88 5.12145 -1.13171 0
M  V30 21083 H 1907.35 5.49377 0.537458 0
M  V30 21084 H 1907.83 4.11735 1.52876 0
M  V30 21085 H 1908.43 4.25076 -0.138113 0
M  V30 21086 N 1906.75 0.369315 1.53212 0
M  V30 21087 C 1907.97 -0.222451 2.06204 0
M  V30 21088 C 1908.4 -1.41373 1.24077 0
M  V30 21089 O 1907.76 -1.79415 0.260767 0
M  V30 21090 C 1907.81 -0.590386 3.55734 0
M  V30 21091 O 1906.91 -1.68711 3.76311 0
M  V30 21092 H 1906.25 -0.0315041 0.663252 0
M  V30 21093 H 1908.78 0.531 1.97589 0
M  V30 21094 H 1908.79 -0.860345 3.98826 0
M  V30 21095 H 1907.47 0.28067 4.14952 0
M  V30 21096 H 1906.04 -1.41242 3.45116 0
M  V30 21097 N 1908.23 -1.57291 0.0985816 0
M  V30 21098 C 1909.19 -2.1307 -0.844628 0
M  V30 21099 C 1910.19 -1.06076 -1.20849 0
M  V30 21100 O 1911.38 -1.31947 -1.13735 0
M  V30 21101 C 1908.51 -2.65416 -2.13933 0
M  V30 21102 H 1909.71 -2.97729 -0.36023 0
M  V30 21103 H 1907.26 -1.55574 -0.150451 0
M  V30 21104 H 1907.99 -1.84287 -2.6685 0
M  V30 21105 H 1907.78 -3.43647 -1.88811 0
M  V30 21106 H 1909.27 -3.08551 -2.814 0
M  V30 21107 N 1909.71 0.175127 -1.56624 0
M  V30 21108 C 1911.12 0.526752 -1.50657 0
M  V30 21109 C 1911.32 1.84844 -0.802173 0
M  V30 21110 O 1910.38 2.49907 -0.360958 0
M  V30 21111 C 1911.69 0.563029 -2.95382 0
M  V30 21112 C 1913.24 0.650493 -3.06166 0
M  V30 21113 C 1913.71 0.717698 -4.52342 0
M  V30 21114 N 1915.2 0.78069 -4.56574 0
M  V30 21115 C 1915.94 0.853199 -5.67017 0
M  V30 21116 N 1915.44 0.886777 -6.87101 0
M  V30 21117 N 1917.23 0.891926 -5.54978 0
M  V30 21118 H 1909.38 -0.69158 -2.00826 0
M  V30 21119 H 1911.64 -0.248884 -0.914746 0
M  V30 21120 H 1911.35 -0.339385 -3.50059 0
M  V30 21121 H 1911.22 1.41084 -3.49821 0
M  V30 21122 H 1913.61 1.54333 -2.51526 0
M  V30 21123 H 1913.69 -0.223919 -2.54818 0
M  V30 21124 H 1913.33 -0.170871 -5.07612 0
M  V30 21125 H 1913.26 1.6082 -5.01442 0
M  V30 21126 H 1915.76 0.763178 -3.70113 0
M  V30 21127 H 1916.07 0.943172 -7.67023 0
M  V30 21128 H 1914.41 0.855117 -6.89719 0
M  V30 21129 H 1917.6 0.862669 -4.60082 0
M  V30 21130 H 1917.78 0.944973 -6.41073 0
M  V30 21131 N 1911.18 1.5123 0.44355 0
M  V30 21132 C 1912.46 1.54127 1.20434 0
M  V30 21133 C 1912.84 0.301893 2.0893 0
M  V30 21134 O 1912.19 -0.713356 2.17079 0
M  V30 21135 C 1912.4 2.85196 2.01157 0
M  V30 21136 C 1913.75 3.3691 2.58411 0
M  V30 21137 O 1914.77 2.86704 2.11374 0
M  V30 21138 O 1913.63 4.24498 3.44185 0
M  V30 21139 H 1910.72 0.619396 0.547976 0
M  V30 21140 H 1913.27 1.63539 0.453125 0
M  V30 21141 H 1912.04 3.66861 1.3612 0
M  V30 21142 H 1911.66 2.78917 2.83357 0
M  V30 21143 N 1912.66 -0.698586 1.41271 0
M  V30 21144 C 1913.59 -1.82278 1.37295 0
M  V30 21145 C 1914.57 -1.60809 0.240668 0
M  V30 21146 O 1915.76 -1.83598 0.42709 0
M  V30 21147 C 1912.88 -3.18907 1.14087 0
M  V30 21148 C 1911.93 -3.59172 2.29994 0
M  V30 21149 S 1912.76 -3.64327 3.92462 0
M  V30 21150 C 1913.92 -5.03687 3.71551 0
M  V30 21151 H 1914.15 -1.85373 2.32431 0
M  V30 21152 H 1911.68 -0.867008 1.27759 0
M  V30 21153 H 1913.64 -3.97783 1.01383 0
M  V30 21154 H 1912.3 -3.13425 0.20577 0
M  V30 21155 H 1911.5 -4.58421 2.09442 0
M  V30 21156 H 1911.1 -2.87597 2.3909 0
M  V30 21157 H 1913.39 -5.911 3.3107 0
M  V30 21158 H 1914.33 -5.2928 4.70391 0
M  V30 21159 H 1914.74 -4.75083 3.04887 0
M  V30 21160 N 1914.14 -1.27049 -0.93254 0
M  V30 21161 C 1915.07 -1.11867 -2.04959 0
M  V30 21162 C 1916.05 -0.0214563 -1.70086 0
M  V30 21163 O 1917.24 -0.195063 -1.93218 0
M  V30 21164 C 1914.37 -0.759993 -3.38883 0
M  V30 21165 C 1913.32 -1.8099 -3.87849 0
M  V30 21166 C 1912.65 -1.30532 -5.18522 0
M  V30 21167 C 1913.95 -3.21309 -4.11774 0
M  V30 21168 H 1915.64 -2.05309 -2.17918 0
M  V30 21169 H 1913.19 -0.988507 -1.04712 0
M  V30 21170 H 1915.14 -0.640623 -4.16502 0
M  V30 21171 H 1913.86 0.210139 -3.25923 0
M  V30 21172 H 1912.52 -1.91809 -3.12418 0
M  V30 21173 H 1912.17 -0.324784 -5.0195 0
M  V30 21174 H 1911.87 -2.00722 -5.52254 0
M  V30 21175 H 1913.39 -1.19879 -5.98716 0
M  V30 21176 H 1914.81 -3.13517 -4.79979 0
M  V30 21177 H 1913.2 -3.89166 -4.56804 0
M  V30 21178 H 1914.27 -3.66722 -3.17243 0
M  V30 21179 N 1915.62 1.13835 -1.08993 0
M  V30 21180 C 1916.55 2.21226 -0.74707 0
M  V30 21181 C 1917.53 1.67891 0.273232 0
M  V30 21182 O 1918.71 1.93678 0.142278 0
M  V30 21183 C 1915.84 3.46922 -0.162028 0
M  V30 21184 C 1914.8 4.1332 -1.11135 0
M  V30 21185 C 1914.12 5.33289 -0.388228 0
M  V30 21186 C 1915.42 4.61169 -2.45195 0
M  V30 21187 H 1917.12 2.50162 -1.64497 0
M  V30 21188 H 1914.66 1.20239 -0.792368 0
M  V30 21189 H 1916.62 4.21304 0.0898753 0
M  V30 21190 H 1915.34 3.17368 0.771036 0
M  V30 21191 H 1914 3.40899 -1.34845 0
M  V30 21192 H 1913.65 4.99997 0.548832 0
M  V30 21193 H 1913.35 5.78659 -1.02115 0
M  V30 21194 H 1914.87 6.10429 -0.144519 0
M  V30 21195 H 1916.29 5.26996 -2.25717 0
M  V30 21196 H 1914.68 5.17263 -3.04235 0
M  V30 21197 H 1915.75 3.75923 -3.06284 0
M  V30 21198 N 1917.1 0.876467 1.3098 0
M  V30 21199 C 1918.03 0.352925 2.30817 0
M  V30 21200 C 1919.01 -0.559675 1.60629 0
M  V30 21201 O 1920.19 -0.475326 1.88293 0
M  V30 21202 C 1917.32 -0.440827 3.44491 0
M  V30 21203 C 1916.28 0.379253 4.26316 0
M  V30 21204 C 1915.6 -0.540582 5.3196 0
M  V30 21205 C 1916.9 1.61682 4.96645 0
M  V30 21206 H 1918.6 1.18719 2.74857 0
M  V30 21207 H 1916.14 0.572316 1.32138 0
M  V30 21208 H 1918.09 -0.817661 4.13391 0
M  V30 21209 H 1916.82 -1.30866 2.99235 0
M  V30 21210 H 1915.48 0.738117 3.59092 0
M  V30 21211 H 1915.13 -1.40588 4.82953 0
M  V30 21212 H 1914.83 0.00427133 5.876 0
M  V30 21213 H 1916.35 -0.914118 6.03719 0
M  V30 21214 H 1917.76 1.31105 5.58108 0
M  V30 21215 H 1916.16 2.10123 5.62111 0
M  V30 21216 H 1917.23 2.36602 4.23258 0
M  V30 21217 N 1918.57 -1.44173 0.636557 0
M  V30 21218 C 1919.54 -2.29133 -0.0554994 0
M  V30 21219 C 1920.54 -1.41329 -0.766986 0
M  V30 21220 O 1921.73 -1.63142 -0.610753 0
M  V30 21221 C 1918.86 -3.23031 -1.08922 0
M  V30 21222 H 1920.05 -2.91811 0.691829 0
M  V30 21223 H 1917.6 -1.51175 0.396956 0
M  V30 21224 H 1918.34 -2.65213 -1.86635 0
M  V30 21225 H 1918.12 -3.87743 -0.58291 0
M  V30 21226 H 1919.61 -3.8684 -1.57304 0
M  V30 21227 N 1920.05 -0.377435 -1.53014 0
M  V30 21228 C 1921.29 0.208453 -2.03334 0
M  V30 21229 C 1921.66 1.45024 -1.25826 0
M  V30 21230 O 1922.86 2.11252 -1.66211 0
M  V30 21231 C 1921.13 0.481594 -3.5414 0
M  V30 21232 S 1922.69 1.03946 -4.26311 0
M  V30 21233 H 1919.5 0.0597675 -0.708483 0
M  V30 21234 H 1922.11 -0.523042 -1.88373 0
M  V30 21235 H 1920.81 -0.429474 -4.08147 0
M  V30 21236 H 1920.34 1.24184 -3.73285 0
M  V30 21237 H 1922.36 2.3228 -4.38475 0
M  V30 21238 N 1921.53 1.57237 -0.106922 0
M  V30 21239 C 1922.76 1.99545 0.565392 0
M  V30 21240 C 1923.18 0.985887 1.60193 0
M  V30 21241 O 1922.54 -0.0440657 1.81246 0
M  V30 21242 C 1922.59 3.40779 1.17908 0
M  V30 21243 O 1921.69 3.42656 2.29479 0
M  V30 21244 H 1921.03 0.648556 0.142379 0
M  V30 21245 H 1923.56 2.03699 -0.191829 0
M  V30 21246 H 1923.57 3.78728 1.51754 0
M  V30 21247 H 1922.25 4.13776 0.419776 0
M  V30 21248 H 1920.82 3.16514 1.97164 0
M  V30 21249 N 1923.01 -0.166818 1.56715 0
M  V30 21250 C 1923.94 -1.23113 1.93328 0
M  V30 21251 C 1924.95 -1.40238 0.826866 0
M  V30 21252 O 1926.14 -1.40161 1.10531 0
M  V30 21253 C 1923.24 -2.59914 2.17481 0
M  V30 21254 C 1922.42 -2.64028 3.48723 0
M  V30 21255 C 1921.47 -3.82224 3.61651 0
M  V30 21256 O 1920.5 -3.68014 4.34229 0
M  V30 21257 N 1921.7 -4.98868 2.96835 0
M  V30 21258 H 1924.47 -0.920103 2.85227 0
M  V30 21259 H 1922.03 -0.356548 1.57925 0
M  V30 21260 H 1924.02 -3.37459 2.2339 0
M  V30 21261 H 1922.59 -2.83389 1.31945 0
M  V30 21262 H 1921.81 -1.72544 3.54432 0
M  V30 21263 H 1923.1 -2.63792 4.35076 0
M  V30 21264 H 1922.5 -5.13314 2.3775 0
M  V30 21265 H 1921.05 -5.74259 3.08333 0
M  V30 21266 N 1924.49 -1.51463 -0.435524 0
M  V30 21267 C 1925.76 -1.54763 -1.19615 0
M  V30 21268 C 1926.14 -0.312969 -2.08767 0
M  V30 21269 O 1925.49 0.701834 -2.17455 0
M  V30 21270 C 1925.7 -2.86259 -1.99642 0
M  V30 21271 C 1927.05 -3.38276 -2.56621 0
M  V30 21272 O 1928.07 -2.87821 -2.09851 0
M  V30 21273 O 1926.93 -4.26318 -3.41929 0
M  V30 21274 H 1924.03 -0.622293 -0.544684 0
M  V30 21275 H 1926.57 -1.63777 -0.444446 0
M  V30 21276 H 1925.34 -3.67578 -1.34173 0
M  V30 21277 H 1924.97 -2.80416 -2.81874 0
M  V30 21278 N 1925.96 0.691085 -1.4164 0
M  V30 21279 C 1926.87 1.83467 -1.46209 0
M  V30 21280 C 1927.89 1.70397 -0.352267 0
M  V30 21281 O 1929.07 1.92234 -0.60068 0
M  V30 21282 C 1926.13 3.19485 -1.34648 0
M  V30 21283 C 1925.19 3.44631 -2.55984 0
M  V30 21284 C 1924.43 4.7416 -2.44964 0
M  V30 21285 O 1924.65 5.50955 -1.47664 0
M  V30 21286 O 1923.58 5.0019 -3.34804 0
M  V30 21287 H 1927.41 1.82568 -2.42698 0
M  V30 21288 H 1924.99 0.844729 -1.23226 0
M  V30 21289 H 1926.88 4.00684 -1.30501 0
M  V30 21290 H 1925.55 3.21058 -0.41276 0
M  V30 21291 H 1924.46 2.63345 -2.65707 0
M  V30 21292 H 1925.79 3.47877 -3.48199 0
M  V30 21293 N 1927.44 1.27542 0.925789 0
M  V30 21294 C 1928.37 1.06229 2.03096 0
M  V30 21295 C 1929.39 0.0177734 1.6279 0
M  V30 21296 O 1930.58 0.259539 1.76603 0
M  V30 21297 C 1927.68 0.589777 3.33729 0
M  V30 21298 C 1926.85 1.70701 4.02716 0
M  V30 21299 C 1925.91 1.22991 5.11624 0
M  V30 21300 O 1924.93 1.92993 5.35483 0
M  V30 21301 N 1926.14 0.086593 5.80435 0
M  V30 21302 H 1928.9 2.01401 2.21941 0
M  V30 21303 H 1926.46 1.19134 1.0963 0
M  V30 21304 H 1928.45 0.254459 4.03899 0
M  V30 21305 H 1927.02 -0.268762 3.11443 0
M  V30 21306 H 1926.24 2.21252 3.26253 0
M  V30 21307 H 1927.53 2.45679 4.45555 0
M  V30 21308 H 1926.93 -0.497638 5.63507 0
M  V30 21309 H 1925.49 -0.189533 6.51524 0
M  V30 21310 N 1928.92 -1.13255 1.09595 0
M  V30 21311 C 1929.87 -2.1872 0.736907 0
M  V30 21312 C 1930.84 -1.63677 -0.282692 0
M  V30 21313 O 1932.02 -1.90094 -0.163936 0
M  V30 21314 C 1929.16 -3.44703 0.165494 0
M  V30 21315 C 1928.28 -4.13841 1.23934 0
M  V30 21316 C 1927.41 -5.27445 0.630499 0
M  V30 21317 C 1926.45 -5.88435 1.68554 0
M  V30 21318 N 1925.59 -6.93468 1.09759 0
M  V30 21319 H 1930.43 -2.48779 1.64052 0
M  V30 21320 H 1927.96 -1.22152 0.819597 0
M  V30 21321 H 1929.92 -4.16796 -0.183618 0
M  V30 21322 H 1928.55 -3.15088 -0.701377 0
M  V30 21323 H 1927.6 -3.40014 1.70571 0
M  V30 21324 H 1928.92 -4.5525 2.03834 0
M  V30 21325 H 1928.07 -6.06263 0.230332 0
M  V30 21326 H 1926.81 -4.8729 -0.200028 0
M  V30 21327 H 1925.81 -5.08311 2.09523 0
M  V30 21328 H 1927.04 -6.30663 2.51876 0
M  V30 21329 H 1924.98 -6.55366 0.288376 0
M  V30 21330 H 1924.9 -7.33429 1.83353 0
M  V30 21331 H 1926.17 -7.76133 0.723688 0
M  V30 21332 N 1930.4 -0.883401 -1.30514 0
M  V30 21333 C 1931.35 -0.347254 -2.28173 0
M  V30 21334 C 1932.32 0.561698 -1.56314 0
M  V30 21335 O 1933.5 0.490454 -1.84389 0
M  V30 21336 C 1930.64 0.433573 -3.42366 0
M  V30 21337 C 1929.75 -0.504417 -4.29045 0
M  V30 21338 C 1928.89 0.291853 -5.30398 0
M  V30 21339 C 1927.93 -0.641708 -6.08727 0
M  V30 21340 N 1927.06 0.119139 -7.01999 0
M  V30 21341 H 1931.9 -1.1852 -2.73417 0
M  V30 21342 H 1929.44 -0.595824 -1.34493 0
M  V30 21343 H 1931.4 0.902186 -4.07328 0
M  V30 21344 H 1930.03 1.23611 -2.98195 0
M  V30 21345 H 1929.08 -1.09152 -3.64404 0
M  V30 21346 H 1930.39 -1.21969 -4.83658 0
M  V30 21347 H 1929.55 0.822389 -6.011 0
M  V30 21348 H 1928.29 1.04035 -4.76475 0
M  V30 21349 H 1927.29 -1.18389 -5.36902 0
M  V30 21350 H 1928.52 -1.38927 -6.64738 0
M  V30 21351 H 1926.46 0.850204 -6.50467 0
M  V30 21352 H 1926.38 -0.536537 -7.54094 0
M  V30 21353 H 1927.65 0.63047 -7.76946 0
M  V30 21354 N 1931.88 1.43833 -0.644194 0
M  V30 21355 C 1933.12 2.02748 -0.162722 0
M  V30 21356 C 1933.48 1.49857 1.20667 0
M  V30 21357 O 1932.77 0.678332 1.7919 0
M  V30 21358 C 1932.96 3.57249 -0.103941 0
M  V30 21359 C 1932.79 4.2513 -1.4661 0
M  V30 21360 C 1931.56 4.61572 -2.0562 0
M  V30 21361 C 1933.76 4.54728 -2.40265 0
M  V30 21362 N 1931.74 5.14482 -3.34934 0
M  V30 21363 C 1933.11 5.0886 -3.54205 0
M  V30 21364 C 1935.17 4.36689 -2.39181 0
M  V30 21365 C 1933.87 5.46853 -4.67273 0
M  V30 21366 C 1935.9 4.75738 -3.51322 0
M  V30 21367 C 1935.26 5.29996 -4.63987 0
M  V30 21368 H 1931.36 0.775085 -0.103767 0
M  V30 21369 H 1933.94 1.7514 -0.850534 0
M  V30 21370 H 1932.11 3.8444 0.553188 0
M  V30 21371 H 1933.85 4.0284 0.387567 0
M  V30 21372 H 1930.6 4.46317 -1.58425 0
M  V30 21373 H 1931.03 5.454 -4.01083 0
M  V30 21374 H 1935.67 3.94022 -1.53319 0
M  V30 21375 H 1933.39 5.88468 -5.53833 0
M  V30 21376 H 1936.97 4.63483 -3.51674 0
M  V30 21377 H 1935.85 5.59652 -5.49326 0
M  V30 21378 N 1933.35 0.385544 1.52811 0
M  V30 21379 C 1934.6 -0.198138 2.0183 0
M  V30 21380 C 1934.93 -1.46774 1.27165 0
M  V30 21381 O 1934.21 -1.90928 0.371034 0
M  V30 21382 C 1934.49 -0.469873 3.57021 0
M  V30 21383 C 1934.34 0.814756 4.42359 0
M  V30 21384 C 1935.66 -1.26209 4.21615 0
M  V30 21385 H 1932.78 -0.0705386 0.733617 0
M  V30 21386 H 1935.42 0.514372 1.82905 0
M  V30 21387 H 1933.57 -1.07684 3.73278 0
M  V30 21388 H 1935.25 1.45172 4.37862 0
M  V30 21389 H 1933.49 1.43088 4.09522 0
M  V30 21390 H 1934.16 0.57932 5.48952 0
M  V30 21391 H 1936.64 -0.748451 4.09313 0
M  V30 21392 H 1935.51 -1.42096 5.30188 0
M  V30 21393 H 1935.77 -2.27624 3.78998 0
M  V30 21394 N 1934.83 -1.57178 0.115259 0
M  V30 21395 C 1936.06 -1.99415 -0.55147 0
M  V30 21396 C 1936.48 -0.994862 -1.60462 0
M  V30 21397 O 1935.83 0.0127831 -1.82496 0
M  V30 21398 C 1935.88 -3.41665 -1.18099 0
M  V30 21399 O 1935.6 -4.3777 -0.169944 0
M  V30 21400 C 1937.11 -3.99014 -1.9314 0
M  V30 21401 H 1934.33 -0.654856 -0.146302 0
M  V30 21402 H 1936.87 -2.03515 0.200495 0
M  V30 21403 H 1935.02 -3.38516 -1.88376 0
M  V30 21404 H 1935.44 -5.20741 -0.626853 0
M  V30 21405 H 1936.91 -5.00639 -2.32519 0
M  V30 21406 H 1937.39 -3.37947 -2.80515 0
M  V30 21407 H 1938 -4.05697 -1.27634 0
M  V30 21408 N 1936.31 0.158505 -1.56801 0
M  V30 21409 C 1937.26 1.20094 -1.93808 0
M  V30 21410 C 1938.25 1.39146 -0.807916 0
M  V30 21411 O 1939.44 1.40901 -1.07125 0
M  V30 21412 C 1936.57 2.53736 -2.31243 0
M  V30 21413 C 1935.65 2.38324 -3.50803 0
M  V30 21414 N 1936.04 1.92648 -4.67676 0
M  V30 21415 C 1934.34 2.69112 -3.55661 0
M  V30 21416 C 1935.04 1.90005 -5.49793 0
M  V30 21417 N 1934.02 2.3289 -4.91186 0
M  V30 21418 H 1937.82 0.839694 -2.81649 0
M  V30 21419 H 1935.33 0.366668 -1.58207 0
M  V30 21420 H 1937.33 3.29079 -2.55955 0
M  V30 21421 H 1935.99 2.90652 -1.44747 0
M  V30 21422 H 1937 1.62788 -4.91651 0
M  V30 21423 H 1933.68 3.0998 -2.79676 0
M  V30 21424 H 1935.07 1.5628 -6.53472 0
M  V30 21425 N 1937.79 1.51692 0.427485 0
M  V30 21426 C 1938.72 1.76668 1.52679 0
M  V30 21427 C 1939.7 0.616865 1.58521 0
M  V30 21428 O 1940.89 0.860595 1.7409 0
M  V30 21429 C 1938.02 1.9007 2.90673 0
M  V30 21430 C 1936.97 3.05566 2.99689 0
M  V30 21431 C 1936.3 3.04165 4.39759 0
M  V30 21432 C 1937.6 4.45359 2.72861 0
M  V30 21433 H 1939.29 2.68717 1.32029 0
M  V30 21434 H 1936.84 1.29306 0.633716 0
M  V30 21435 H 1938.79 2.06125 3.67546 0
M  V30 21436 H 1937.51 0.946769 3.12576 0
M  V30 21437 H 1936.17 2.89231 2.25257 0
M  V30 21438 H 1935.82 2.0653 4.58644 0
M  V30 21439 H 1935.52 3.81727 4.46719 0
M  V30 21440 H 1937.04 3.22326 5.18592 0
M  V30 21441 H 1938.46 4.61993 3.39463 0
M  V30 21442 H 1936.85 5.24701 2.91219 0
M  V30 21443 H 1937.92 4.54717 1.68405 0
M  V30 21444 N 1939.27 -0.683564 1.42004 0
M  V30 21445 C 1940.51 -1.44577 1.42216 0
M  V30 21446 C 1940.85 -1.94168 0.0352735 0
M  V30 21447 O 1940.12 -1.70331 -0.939023 0
M  V30 21448 C 1940.4 -2.64909 2.43916 0
M  V30 21449 C 1940.26 -2.21006 3.9176 0
M  V30 21450 C 1941.58 -3.6712 2.42716 0
M  V30 21451 H 1938.7 -0.524376 0.517879 0
M  V30 21452 H 1941.34 -0.777575 1.7336 0
M  V30 21453 H 1939.49 -3.21918 2.17489 0
M  V30 21454 H 1941.16 -1.69233 4.29136 0
M  V30 21455 H 1939.4 -1.52667 4.06048 0
M  V30 21456 H 1940.07 -3.07401 4.58485 0
M  V30 21457 H 1942.55 -3.1981 2.66197 0
M  V30 21458 H 1941.43 -4.48907 3.15869 0
M  V30 21459 H 1941.69 -4.17645 1.45 0
M  V30 21460 N 1940.75 -1.28031 -0.919012 0
M  V30 21461 C 1941.69 -1.11505 -2.02077 0
M  V30 21462 C 1942.66 -0.0136546 -1.66094 0
M  V30 21463 O 1943.85 -0.177608 -1.89972 0
M  V30 21464 C 1940.99 -0.777409 -3.3623 0
M  V30 21465 C 1940.1 -1.95732 -3.85114 0
M  V30 21466 C 1939.24 -1.56077 -5.07753 0
M  V30 21467 C 1938.27 -2.70764 -5.48956 0
M  V30 21468 N 1937.41 -2.31638 -6.62788 0
M  V30 21469 H 1942.25 -2.05778 -2.15545 0
M  V30 21470 H 1939.79 -1.02425 -1.05582 0
M  V30 21471 H 1941.75 -0.562424 -4.13392 0
M  V30 21472 H 1940.38 0.128373 -3.22545 0
M  V30 21473 H 1939.43 -2.28459 -3.04156 0
M  V30 21474 H 1940.74 -2.81735 -4.11615 0
M  V30 21475 H 1939.89 -1.30754 -5.92443 0
M  V30 21476 H 1938.63 -0.671958 -4.83049 0
M  V30 21477 H 1937.64 -2.96792 -4.62812 0
M  V30 21478 H 1938.86 -3.6028 -5.75652 0
M  V30 21479 H 1936.81 -1.4522 -6.39724 0
M  V30 21480 H 1936.73 -3.11178 -6.88988 0
M  V30 21481 H 1937.99 -2.09585 -7.50796 0
M  V30 21482 N 1942.22 1.12672 -1.10194 0
M  V30 21483 C 1943.17 2.18326 -0.748496 0
M  V30 21484 C 1944.14 1.63824 0.274007 0
M  V30 21485 O 1945.33 1.90179 0.153852 0
M  V30 21486 C 1942.47 3.4461 -0.183772 0
M  V30 21487 C 1941.58 4.13178 -1.26127 0
M  V30 21488 C 1940.71 5.27103 -0.658462 0
M  V30 21489 C 1939.75 5.87533 -1.71672 0
M  V30 21490 N 1938.89 6.92876 -1.13435 0
M  V30 21491 H 1943.73 2.47906 -1.65369 0
M  V30 21492 H 1941.27 1.21715 -0.826064 0
M  V30 21493 H 1943.22 4.16887 0.161511 0
M  V30 21494 H 1941.85 3.15456 0.684657 0
M  V30 21495 H 1940.91 3.39105 -1.72372 0
M  V30 21496 H 1942.22 4.54163 -2.06246 0
M  V30 21497 H 1941.37 6.06132 -0.26248 0
M  V30 21498 H 1940.11 4.87389 0.174183 0
M  V30 21499 H 1939.12 5.07193 -2.12215 0
M  V30 21500 H 1940.34 6.29318 -2.55217 0
M  V30 21501 H 1938.29 6.55204 -0.323127 0
M  V30 21502 H 1938.2 7.32446 -1.8724 0
M  V30 21503 H 1939.47 7.75739 -0.764838 0
M  V30 21504 N 1943.7 0.89031 1.30043 0
M  V30 21505 C 1944.95 0.507478 1.95212 0
M  V30 21506 C 1945.26 -0.949179 1.71026 0
M  V30 21507 O 1946.47 -1.4391 2.30222 0
M  V30 21508 C 1944.93 0.856657 3.49556 0
M  V30 21509 C 1944.53 2.33145 3.82554 0
M  V30 21510 C 1946.28 0.543281 4.21009 0
M  V30 21511 C 1944.18 2.62198 5.301 0
M  V30 21512 H 1943.11 0.186056 0.730684 0
M  V30 21513 H 1945.77 1.08602 1.47912 0
M  V30 21514 H 1944.15 0.207146 3.95458 0
M  V30 21515 H 1945.32 3.02572 3.47544 0
M  V30 21516 H 1943.64 2.61289 3.24217 0
M  V30 21517 H 1946.23 0.737312 5.29592 0
M  V30 21518 H 1946.58 -0.517644 4.13069 0
M  V30 21519 H 1947.11 1.15022 3.80808 0
M  V30 21520 H 1943.85 3.67052 5.43096 0
M  V30 21521 H 1943.37 1.97385 5.66392 0
M  V30 21522 H 1945.05 2.47975 5.97593 0
M  V30 21523 N 1945.18 -1.43489 0.651812 0
M  V30 21524 C 1946.59 -1.85091 0.2446 0
M  V30 21525 C 1946.94 -1.54561 -1.20852 0
M  V30 21526 O 1946.07 -0.993885 -1.92226 0
M  V30 21527 C 1946.66 -3.35968 0.43715 0
M  V30 21528 C 1945.22 -3.76306 0.0842681 0
M  V30 21529 C 1944.37 -2.67225 0.740688 0
M  V30 21530 H 1947.32 -1.33662 0.855581 0
M  V30 21531 H 1947.34 -3.79171 -0.317766 0
M  V30 21532 H 1946.85 -3.58157 1.49484 0
M  V30 21533 H 1944.95 -3.59729 -0.970875 0
M  V30 21534 H 1945.07 -4.76391 0.508752 0
M  V30 21535 H 1943.43 -2.54105 0.174053 0
M  V30 21536 H 1944.21 -2.92242 1.80137 0
M  V30 21537 N 1946.66 -0.393643 -1.52605 0
M  V30 21538 C 1947.6 0.439408 -2.26579 0
M  V30 21539 C 1948.57 1.05415 -1.28362 0
M  V30 21540 O 1949.76 1.08136 -1.57198 0
M  V30 21541 C 1946.9 1.55846 -3.07906 0
M  V30 21542 C 1946.01 0.966152 -4.21058 0
M  V30 21543 C 1945.15 2.05662 -4.89772 0
M  V30 21544 C 1944.19 1.44043 -5.9491 0
M  V30 21545 N 1943.32 2.47039 -6.57203 0
M  V30 21546 H 1948.16 -0.197864 -2.97342 0
M  V30 21547 H 1945.7 -0.109409 -1.46693 0
M  V30 21548 H 1947.66 2.21807 -3.53352 0
M  V30 21549 H 1946.29 2.16598 -2.39343 0
M  V30 21550 H 1945.34 0.196024 -3.79895 0
M  V30 21551 H 1946.65 0.475898 -4.96525 0
M  V30 21552 H 1945.81 2.79383 -5.38544 0
M  V30 21553 H 1944.55 2.58048 -4.13839 0
M  V30 21554 H 1943.55 0.688483 -5.45472 0
M  V30 21555 H 1944.78 0.924458 -6.72778 0
M  V30 21556 H 1942.72 2.98586 -5.84108 0
M  V30 21557 H 1942.64 2.02781 -7.28297 0
M  V30 21558 H 1943.91 3.20377 -7.10619 0
M  V30 21559 N 1948.14 1.57115 -0.123593 0
M  V30 21560 C 1949.08 2.16817 0.842196 0
M  V30 21561 C 1950.08 1.11865 1.27211 0
M  V30 21562 O 1951.28 1.3016 1.24331 0
M  V30 21563 H 1947.66 0.693949 0.289721 0
M  V30 21564 H 1949.63 2.96741 0.314221 0
M  V30 21565 C 1948.38 2.78577 2.08062 0
M  V30 21566 H 1947.7 3.59037 1.75876 0
M  V30 21567 H 1949.14 3.23884 2.73634 0
M  V30 21568 C 1947.6 1.75892 2.87339 0
M  V30 21569 O 1948.13 1.21508 3.82882 0
M  V30 21570 N 1946.34 1.45728 2.5142 0
M  V30 21571 H 1945.88 1.90143 1.73791 0
M  V30 21572 H 1945.84 0.772654 3.04758 0
M  V30 21573 N 1949.61 -0.150187 1.56883 0
M  V30 21574 C 1951.02 -0.710574 1.72649 0
M  V30 21575 C 1951.38 -1.81812 0.737493 0
M  V30 21576 O 1950.5 -2.16184 -0.0965795 0
M  V30 21577 C 1951.1 -1.29572 3.13044 0
M  V30 21578 C 1949.65 -1.80271 3.30423 0
M  V30 21579 C 1948.8 -0.689923 2.6858 0
M  V30 21580 H 1951.75 0.0754473 1.58521 0
M  V30 21581 H 1951.77 -2.16552 3.12867 0
M  V30 21582 H 1951.29 -0.489412 3.85002 0
M  V30 21583 H 1949.39 -2.63479 2.63457 0
M  V30 21584 H 1949.5 -1.93362 4.38347 0
M  V30 21585 H 1947.86 -1.11574 2.28961 0
M  V30 21586 H 1948.65 0.104892 3.4314 0
M  V30 21587 N 1951.09 -1.51916 -0.419434 0
M  V30 21588 C 1952.5 -1.57746 -0.998651 0
M  V30 21589 C 1952.85 -0.411706 -1.91832 0
M  V30 21590 O 1951.98 0.469268 -2.11251 0
M  V30 21591 C 1952.57 -2.85895 -1.81795 0
M  V30 21592 C 1951.13 -2.94238 -2.34736 0
M  V30 21593 C 1950.28 -2.52587 -1.14434 0
M  V30 21594 H 1953.23 -1.57434 -0.200039 0
M  V30 21595 H 1953.25 -2.70667 -2.67431 0
M  V30 21596 H 1952.76 -3.70722 -1.14834 0
M  V30 21597 H 1950.87 -2.13881 -3.05099 0
M  V30 21598 H 1950.98 -3.98268 -2.66308 0
M  V30 21599 H 1949.34 -2.06196 -1.49516 0
M  V30 21600 H 1950.13 -3.39777 -0.490555 0
M  V30 21601 N 1952.57 0.676023 -1.42365 0
M  V30 21602 C 1953.8 1.46937 -1.46371 0
M  V30 21603 C 1954.22 1.87946 -0.076099 0
M  V30 21604 O 1953.58 1.55917 0.925172 0
M  V30 21605 C 1953.63 2.69558 -2.39523 0
M  V30 21606 O 1952.73 3.67782 -1.86575 0
M  V30 21607 H 1952.07 0.441478 -0.495977 0
M  V30 21608 H 1954.6 0.829284 -1.8704 0
M  V30 21609 H 1954.61 3.17642 -2.56061 0
M  V30 21610 H 1953.29 2.39049 -3.40336 0
M  V30 21611 H 1951.86 3.26808 -1.79585 0
M  V30 21612 N 1954.05 1.28517 0.912209 0
M  V30 21613 C 1955.3 1.15532 1.65822 0
M  V30 21614 C 1955.62 -0.296177 1.92738 0
M  V30 21615 O 1954.89 -1.20492 1.54462 0
M  V30 21616 H 1953.47 0.424573 0.614611 0
M  V30 21617 H 1956.13 1.61267 1.09448 0
M  V30 21618 H 1955.23 1.69606 2.61993 0
M  V30 21619 N 1955.53 -1.12086 1.1079 0
M  V30 21620 C 1956.77 -1.83677 0.852585 0
M  V30 21621 C 1957.1 -1.84292 -0.621829 0
M  V30 21622 O 1956.36 -1.28655 -1.47466 0
M  V30 21623 C 1956.66 -3.3089 1.35079 0
M  V30 21624 C 1956.32 -3.50443 2.83726 0
M  V30 21625 C 1954.98 -3.55487 3.24318 0
M  V30 21626 C 1957.34 -3.57254 3.79498 0
M  V30 21627 C 1954.66 -3.64891 4.59425 0
M  V30 21628 C 1957.02 -3.68189 5.14412 0
M  V30 21629 C 1955.68 -3.71491 5.54573 0
M  V30 21630 H 1954.95 -0.672122 0.311983 0
M  V30 21631 H 1957.6 -1.32236 1.38513 0
M  V30 21632 H 1955.9 -3.8478 0.738335 0
M  V30 21633 H 1957.6 -3.84759 1.12967 0
M  V30 21634 H 1954.19 -3.47182 2.51322 0
M  V30 21635 H 1958.37 -3.52624 3.49242 0
M  V30 21636 H 1953.63 -3.65721 4.89957 0
M  V30 21637 H 1957.8 -3.72402 5.88464 0
M  V30 21638 H 1955.43 -3.7853 6.59256 0
M  V30 21639 N 1957 -0.897194 -1.29569 0
M  V30 21640 C 1958.25 -0.522607 -1.95951 0
M  V30 21641 C 1958.58 0.928254 -1.70579 0
M  V30 21642 O 1957.86 1.65772 -1.01734 0
M  V30 21643 C 1958.14 -0.812659 -3.5081 0
M  V30 21644 C 1957.99 -2.31504 -3.8565 0
M  V30 21645 C 1959.31 -0.297442 -4.39094 0
M  V30 21646 H 1956.43 -0.191346 -0.711727 0
M  V30 21647 H 1959.07 -1.12342 -1.5323 0
M  V30 21648 H 1957.22 -0.301316 -3.8733 0
M  V30 21649 H 1958.9 -2.89573 -3.59089 0
M  V30 21650 H 1957.14 -2.77678 -3.33283 0
M  V30 21651 H 1957.81 -2.46857 -4.93726 0
M  V30 21652 H 1960.29 -0.735265 -4.09552 0
M  V30 21653 H 1959.16 -0.529614 -5.46339 0
M  V30 21654 H 1959.42 0.801767 -4.34769 0
M  V30 21655 N 1958.48 1.43142 -0.659413 0
M  V30 21656 C 1959.9 1.56203 -0.327538 0
M  V30 21657 C 1960.1 1.64194 1.16801 0
M  V30 21658 O 1959.15 1.60041 1.95303 0
M  V30 21659 C 1960.47 2.81982 -1.04434 0
M  V30 21660 C 1962.02 2.95735 -1.02518 0
M  V30 21661 C 1962.49 4.24354 -1.723 0
M  V30 21662 N 1963.98 4.31232 -1.69094 0
M  V30 21663 C 1964.72 5.29534 -2.19957 0
M  V30 21664 N 1964.21 6.34078 -2.79135 0
M  V30 21665 N 1966.01 5.21229 -2.10421 0
M  V30 21666 H 1958.16 1.36198 -1.62984 0
M  V30 21667 H 1960.42 0.654541 -0.685769 0
M  V30 21668 H 1960.13 2.82162 -2.09947 0
M  V30 21669 H 1960 3.72401 -0.599805 0
M  V30 21670 H 1962.39 2.95092 0.0215626 0
M  V30 21671 H 1962.47 2.06589 -1.50846 0
M  V30 21672 H 1962.11 4.25758 -2.76935 0
M  V30 21673 H 1962.04 5.12408 -1.21433 0
M  V30 21674 H 1964.53 3.56306 -1.25915 0
M  V30 21675 H 1964.85 7.05417 -3.15606 0
M  V30 21676 H 1963.19 6.34684 -2.83199 0
M  V30 21677 H 1966.38 4.38473 -1.63888 0
M  V30 21678 H 1966.55 5.97679 -2.50368 0
M  V30 21679 N 1959.96 0.40173 1.52394 0
M  V30 21680 C 1960.92 -0.41541 2.25404 0
M  V30 21681 C 1961.92 -0.979848 1.27498 0
M  V30 21682 O 1963.11 -0.859891 1.51498 0
M  V30 21683 C 1960.25 -1.58403 3.01863 0
M  V30 21684 H 1961.44 0.223965 2.99063 0
M  V30 21685 H 1958.99 0.154095 1.55539 0
M  V30 21686 H 1959.73 -2.26048 2.32536 0
M  V30 21687 H 1959.51 -1.18586 3.73737 0
M  V30 21688 H 1961 -2.16224 3.57263 0
M  V30 21689 N 1961.44 -1.57047 0.131923 0
M  V30 21690 C 1962.66 -2.00419 -0.533574 0
M  V30 21691 C 1963.09 -1.01125 -1.58605 0
M  V30 21692 O 1962.45 0.0152254 -1.81294 0
M  V30 21693 C 1962.49 -3.42611 -1.12472 0
M  V30 21694 O 1961.6 -3.46263 -2.23999 0
M  V30 21695 H 1960.94 -0.650739 -0.132043 0
M  V30 21696 H 1963.47 -2.03368 0.224211 0
M  V30 21697 H 1963.48 -3.81094 -1.45709 0
M  V30 21698 H 1962.15 -4.14392 -0.353895 0
M  V30 21699 H 1960.73 -3.1961 -1.92103 0
M  V30 21700 N 1962.92 0.141865 -1.5696 0
M  V30 21701 C 1964.33 0.701408 -1.73024 0
M  V30 21702 C 1964.68 1.81418 -0.747124 0
M  V30 21703 O 1963.8 2.16233 0.0851134 0
M  V30 21704 C 1964.4 1.2791 -3.13727 0
M  V30 21705 C 1962.96 1.78516 -3.31374 0
M  V30 21706 C 1962.1 0.67567 -2.68942 0
M  V30 21707 H 1965.06 -0.083853 -1.58478 0
M  V30 21708 H 1965.08 2.1489 -3.14011 0
M  V30 21709 H 1964.59 0.468988 -3.85256 0
M  V30 21710 H 1962.69 2.62078 -2.6485 0
M  V30 21711 H 1962.8 1.91034 -4.39366 0
M  V30 21712 H 1961.17 1.10358 -2.2955 0
M  V30 21713 H 1961.95 -0.123088 -3.43079 0
M  V30 21714 N 1964.39 1.52136 0.411372 0
M  V30 21715 C 1965.81 1.40889 0.749825 0
M  V30 21716 C 1966.01 0.511617 1.94897 0
M  V30 21717 O 1965.07 -0.0234451 2.52489 0
M  V30 21718 C 1966.38 2.83378 1.00586 0
M  V30 21719 C 1967.93 2.92706 1.10871 0
M  V30 21720 C 1968.4 4.36157 1.39752 0
M  V30 21721 N 1969.89 4.39382 1.46622 0
M  V30 21722 C 1970.63 5.47436 1.70591 0
M  V30 21723 N 1970.12 6.65612 1.92179 0
M  V30 21724 N 1971.92 5.34949 1.72587 0
M  V30 21725 H 1964.07 2.09009 -0.377998 0
M  V30 21726 H 1966.33 0.941963 -0.106819 0
M  V30 21727 H 1966.04 3.51147 0.197136 0
M  V30 21728 H 1965.91 3.24285 1.92663 0
M  V30 21729 H 1968.3 2.25118 1.90803 0
M  V30 21730 H 1968.38 2.55258 0.166361 0
M  V30 21731 H 1968.02 5.04303 0.603387 0
M  V30 21732 H 1967.95 4.71139 2.35236 0
M  V30 21733 H 1970.44 3.54194 1.31738 0
M  V30 21734 H 1970.76 7.43745 2.09912 0
M  V30 21735 H 1969.1 6.68681 1.89449 0
M  V30 21736 H 1972.29 4.41602 1.55258 0
M  V30 21737 H 1972.47 6.19234 1.90929 0
M  V30 21738 N 1965.87 -0.668464 1.42721 0
M  V30 21739 C 1967.1 -1.45659 1.46939 0
M  V30 21740 C 1967.52 -1.88619 0.0826133 0
M  V30 21741 O 1966.87 -1.58537 -0.904 0
M  V30 21742 C 1966.92 -2.70158 2.40202 0
M  V30 21743 O 1966.65 -2.28999 3.73485 0
M  V30 21744 C 1968.15 -3.63662 2.53505 0
M  V30 21745 H 1965.37 -0.447982 0.499553 0
M  V30 21746 H 1967.91 -0.820826 1.87304 0
M  V30 21747 H 1966.07 -3.29909 2.03074 0
M  V30 21748 H 1966.48 -3.09441 4.23493 0
M  V30 21749 H 1967.95 -4.47726 3.22871 0
M  V30 21750 H 1968.43 -4.09989 1.57498 0
M  V30 21751 H 1969.04 -3.09801 2.91382 0
M  V30 21752 N 1967.35 -1.28999 -0.905381 0
M  V30 21753 C 1968.28 -1.16189 -2.0254 0
M  V30 21754 C 1969.26 -0.0575293 -1.70003 0
M  V30 21755 O 1970.45 -0.236004 -1.92761 0
M  V30 21756 C 1967.58 -0.831704 -3.37194 0
M  V30 21757 C 1966.53 -1.89176 -3.83922 0
M  V30 21758 C 1965.86 -1.41501 -5.15637 0
M  V30 21759 C 1967.16 -3.29971 -4.04866 0
M  V30 21760 H 1968.85 -2.09886 -2.13514 0
M  V30 21761 H 1966.4 -1.0105 -1.02591 0
M  V30 21762 H 1968.35 -0.728825 -4.1505 0
M  V30 21763 H 1967.07 0.140958 -3.26296 0
M  V30 21764 H 1965.73 -1.98393 -3.08279 0
M  V30 21765 H 1965.38 -0.431182 -5.01149 0
M  V30 21766 H 1965.08 -2.12391 -5.47872 0
M  V30 21767 H 1966.61 -1.32552 -5.96039 0
M  V30 21768 H 1968.02 -3.23628 -4.73221 0
M  V30 21769 H 1966.42 -3.98768 -4.48447 0
M  V30 21770 H 1967.49 -3.73369 -3.09393 0
M  V30 21771 N 1968.83 1.11497 -1.11383 0
M  V30 21772 C 1970.05 1.87567 -0.885056 0
M  V30 21773 C 1970.48 1.79581 0.559675 0
M  V30 21774 O 1969.84 1.15779 1.39517 0
M  V30 21775 C 1969.89 3.34354 -1.35053 0
M  V30 21776 O 1968.99 4.09085 -0.521865 0
M  V30 21777 H 1968.33 0.582433 -0.318853 0
M  V30 21778 H 1970.86 1.4094 -1.48314 0
M  V30 21779 H 1970.87 3.85201 -1.34478 0
M  V30 21780 H 1969.55 3.39484 -2.40257 0
M  V30 21781 H 1968.12 3.68144 -0.593669 0
M  V30 21782 N 1970.31 0.904053 1.29092 0
M  V30 21783 C 1971.54 0.547758 1.99517 0
M  V30 21784 C 1971.95 -0.868589 1.67633 0
M  V30 21785 O 1971.31 -1.57394 0.923758 0
M  V30 21786 C 1971.36 0.735683 3.53935 0
M  V30 21787 O 1971.08 2.09629 3.84691 0
M  V30 21788 C 1972.58 0.38492 4.41626 0
M  V30 21789 H 1969.8 0.209762 0.63737 0
M  V30 21790 H 1972.34 1.2146 1.64523 0
M  V30 21791 H 1970.5 0.11597 3.87226 0
M  V30 21792 H 1970.91 2.12883 4.79355 0
M  V30 21793 H 1972.39 0.567226 5.49078 0
M  V30 21794 H 1972.86 -0.678298 4.33931 0
M  V30 21795 H 1973.47 0.981759 4.13813 0
M  V30 21796 N 1971.79 -1.4279 0.666995 0
M  V30 21797 C 1973.2 -1.56027 0.335817 0
M  V30 21798 C 1973.4 -1.64812 -1.15928 0
M  V30 21799 O 1972.46 -1.61074 -1.94451 0
M  V30 21800 C 1973.77 -2.81425 1.05928 0
M  V30 21801 C 1975.32 -2.95187 1.04085 0
M  V30 21802 C 1975.79 -4.23435 1.74548 0
M  V30 21803 N 1977.28 -4.3033 1.71379 0
M  V30 21804 C 1978.02 -5.2836 2.22762 0
M  V30 21805 N 1977.52 -6.32589 2.82494 0
M  V30 21806 N 1979.31 -5.20106 2.13182 0
M  V30 21807 H 1971.46 -1.35332 1.63704 0
M  V30 21808 H 1973.72 -0.650895 0.689231 0
M  V30 21809 H 1973.43 -2.81044 2.1144 0
M  V30 21810 H 1973.3 -3.72077 0.619546 0
M  V30 21811 H 1975.69 -2.95099 -0.00591289 0
M  V30 21812 H 1975.77 -2.05786 1.5194 0
M  V30 21813 H 1975.41 -4.24283 2.79189 0
M  V30 21814 H 1975.34 -5.11756 1.24149 0
M  V30 21815 H 1977.84 -3.55633 1.27803 0
M  V30 21816 H 1978.15 -7.03733 3.19343 0
M  V30 21817 H 1976.49 -6.33173 2.86561 0
M  V30 21818 H 1979.68 -4.37597 1.66211 0
M  V30 21819 H 1979.86 -5.96343 2.53534 0
M  V30 21820 N 1973.26 -0.409806 -1.52179 0
M  V30 21821 C 1974.49 0.167702 -2.06721 0
M  V30 21822 C 1974.91 1.38034 -1.27782 0
M  V30 21823 O 1974.27 1.7866 -0.308244 0
M  V30 21824 C 1974.32 0.495862 -3.57174 0
M  V30 21825 O 1973.42 1.58675 -3.80652 0
M  V30 21826 H 1972.76 0.013908 -0.663854 0
M  V30 21827 H 1975.29 -0.583201 -1.96112 0
M  V30 21828 H 1975.3 0.754301 -4.00967 0
M  V30 21829 H 1973.98 -0.390588 -4.14062 0
M  V30 21830 H 1972.56 1.32042 -3.48739 0
M  V30 21831 N 1974.74 1.56975 -0.14025 0
M  V30 21832 C 1975.97 2.00267 0.519675 0
M  V30 21833 C 1976.38 1.02026 1.58859 0
M  V30 21834 O 1975.74 0.0162519 1.82493 0
M  V30 21835 C 1975.79 3.435 1.12648 0
M  V30 21836 O 1975.51 4.37985 0.100277 0
M  V30 21837 C 1977.01 4.02036 1.86767 0
M  V30 21838 H 1974.23 0.657101 0.135865 0
M  V30 21839 H 1976.78 2.0317 -0.232847 0
M  V30 21840 H 1974.93 3.4147 1.82967 0
M  V30 21841 H 1975.35 5.21672 0.543929 0
M  V30 21842 H 1976.82 5.04274 2.24525 0
M  V30 21843 H 1977.3 3.42367 2.75103 0
M  V30 21844 H 1977.9 4.07676 1.21163 0
M  V30 21845 N 1976.22 -0.133539 1.57033 0
M  V30 21846 C 1977.18 -1.14845 1.98351 0
M  V30 21847 C 1978.18 -1.3512 0.871734 0
M  V30 21848 O 1979.37 -1.31884 1.13808 0
M  V30 21849 C 1976.5 -2.506 2.31111 0
M  V30 21850 H 1977.7 -0.793667 2.89207 0
M  V30 21851 H 1975.25 -0.377348 1.51677 0
M  V30 21852 H 1975.99 -2.91026 1.43089 0
M  V30 21853 H 1975.77 -2.37242 3.12184 0
M  V30 21854 H 1977.26 -3.23672 2.63868 0
M  V30 21855 N 1977.7 -1.52352 -0.403298 0
M  V30 21856 C 1978.65 -1.76731 -1.51224 0
M  V30 21857 C 1979.64 -0.634655 -1.57062 0
M  V30 21858 O 1980.85 -0.816829 -1.60399 0
M  V30 21859 H 1977.22 -0.558976 -0.503041 0
M  V30 21860 H 1979.19 -2.69624 -1.2785 0
M  V30 21861 C 1977.94 -1.94029 -2.88527 0
M  V30 21862 H 1977.26 -2.80607 -2.8478 0
M  V30 21863 H 1978.7 -2.15084 -3.65397 0
M  V30 21864 C 1977.16 -0.708949 -3.29356 0
M  V30 21865 O 1977.69 0.12042 -4.01519 0
M  V30 21866 N 1975.9 -0.543167 -2.85479 0
M  V30 21867 H 1975.45 -1.21919 -2.26922 0
M  V30 21868 H 1975.4 0.279391 -3.13156 0
M  V30 21869 N 1979.18 0.660885 -1.43074 0
M  V30 21870 C 1980.11 1.78641 -1.43597 0
M  V30 21871 C 1981.12 1.59355 -0.333119 0
M  V30 21872 O 1982.31 1.68218 -0.597082 0
M  V30 21873 C 1979.41 3.15957 -1.22575 0
M  V30 21874 C 1978.58 3.61969 -2.45556 0
M  V30 21875 C 1977.64 4.78062 -2.19871 0
M  V30 21876 O 1976.67 4.87893 -2.93171 0
M  V30 21877 N 1977.87 5.67738 -1.21053 0
M  V30 21878 H 1980.63 1.78672 -2.40617 0
M  V30 21879 H 1978.2 0.844466 -1.38132 0
M  V30 21880 H 1980.19 3.91298 -1.03287 0
M  V30 21881 H 1978.76 3.10742 -0.34029 0
M  V30 21882 H 1977.98 2.77155 -2.80319 0
M  V30 21883 H 1979.27 3.89455 -3.27418 0
M  V30 21884 H 1978.66 5.6246 -0.604562 0
M  V30 21885 H 1977.22 6.42832 -1.0775 0
M  V30 21886 N 1980.65 1.29477 0.898527 0
M  V30 21887 C 1981.88 1.20529 1.68783 0
M  V30 21888 C 1982.3 -0.230536 1.86682 0
M  V30 21889 O 1981.66 -1.1664 1.38798 0
M  V30 21890 C 1981.71 1.92501 3.04919 0
M  V30 21891 O 1980.81 1.24286 3.93226 0
M  V30 21892 H 1980.16 0.417586 0.516254 0
M  V30 21893 H 1982.69 1.71066 1.1224 0
M  V30 21894 H 1982.7 2.01001 3.55053 0
M  V30 21895 H 1981.37 2.96934 2.9121 0
M  V30 21896 H 1979.95 1.24052 3.51661 0
M  V30 21897 N 1982.13 -1.10905 1.11972 0
M  V30 21898 C 1983.38 -1.82762 0.872019 0
M  V30 21899 C 1983.71 -1.84941 -0.602247 0
M  V30 21900 O 1982.96 -1.30212 -1.46094 0
M  V30 21901 C 1983.26 -3.29439 1.38581 0
M  V30 21902 C 1982.93 -3.47414 2.87427 0
M  V30 21903 C 1981.59 -3.52027 3.2807 0
M  V30 21904 C 1983.94 -3.53209 3.83266 0
M  V30 21905 C 1981.27 -3.59998 4.63269 0
M  V30 21906 C 1983.62 -3.62712 5.18288 0
M  V30 21907 C 1982.29 -3.65588 5.58482 0
M  V30 21908 H 1981.56 -0.668775 0.319094 0
M  V30 21909 H 1984.2 -1.30759 1.39908 0
M  V30 21910 H 1982.51 -3.83976 0.779104 0
M  V30 21911 H 1984.2 -3.83539 1.17042 0
M  V30 21912 H 1980.79 -3.44497 2.5499 0
M  V30 21913 H 1984.98 -3.489 3.52963 0
M  V30 21914 H 1980.23 -3.60504 4.93808 0
M  V30 21915 H 1984.41 -3.6614 5.9238 0
M  V30 21916 H 1982.04 -3.71517 6.63234 0
M  V30 21917 N 1983.61 -0.910886 -1.2861 0
M  V30 21918 C 1985.03 -0.608615 -1.4754 0
M  V30 21919 C 1985.23 0.846869 -1.8284 0
M  V30 21920 O 1984.28 1.62618 -1.93162 0
M  V30 21921 C 1985.6 -1.54405 -2.5803 0
M  V30 21922 C 1987.14 -1.55046 -2.719 0
M  V30 21923 C 1987.62 -2.47245 -3.85531 0
M  V30 21924 N 1989.11 -2.45356 -3.9288 0
M  V30 21925 C 1989.84 -3.13394 -4.80179 0
M  V30 21926 N 1989.34 -3.90751 -5.72088 0
M  V30 21927 N 1991.13 -3.02495 -4.73765 0
M  V30 21928 H 1983.28 -1.8521 -1.03977 0
M  V30 21929 H 1985.55 -0.794235 -0.517585 0
M  V30 21930 H 1985.25 -2.5816 -2.38844 0
M  V30 21931 H 1985.13 -1.27299 -3.5507 0
M  V30 21932 H 1987.51 -0.520311 -2.90477 0
M  V30 21933 H 1987.6 -1.86195 -1.754 0
M  V30 21934 H 1987.24 -3.50361 -3.67709 0
M  V30 21935 H 1987.17 -2.134 -4.81423 0
M  V30 21936 H 1989.66 -1.89161 -3.27149 0
M  V30 21937 H 1989.97 -4.39694 -6.35523 0
M  V30 21938 H 1988.32 -3.94857 -5.71938 0
M  V30 21939 H 1991.51 -2.41567 -4.00953 0
M  V30 21940 H 1991.68 -3.55793 -5.41586 0
M  V30 21941 N 1985.09 1.42434 -0.674558 0
M  V30 21942 C 1986.04 2.308 0.00392457 0
M  V30 21943 C 1987.01 1.45949 0.792972 0
M  V30 21944 O 1988.19 1.74781 0.765269 0
M  V30 21945 C 1985.33 3.31784 0.949392 0
M  V30 21946 C 1984.44 4.31725 0.154193 0
M  V30 21947 C 1983.58 5.19783 1.09539 0
M  V30 21948 C 1982.62 6.11404 0.291864 0
M  V30 21949 N 1981.75 6.92015 1.18576 0
M  V30 21950 H 1986.59 2.88266 -0.755438 0
M  V30 21951 H 1984.13 1.41992 -0.384274 0
M  V30 21952 H 1986.09 3.88861 1.51138 0
M  V30 21953 H 1984.72 2.75918 1.67539 0
M  V30 21954 H 1983.77 3.76768 -0.524416 0
M  V30 21955 H 1985.08 4.96584 -0.469669 0
M  V30 21956 H 1984.24 5.81592 1.72732 0
M  V30 21957 H 1982.98 4.551 1.75314 0
M  V30 21958 H 1981.98 5.48664 -0.353276 0
M  V30 21959 H 1983.21 6.78136 -0.361786 0
M  V30 21960 H 1981.15 6.29961 1.82991 0
M  V30 21961 H 1981.07 7.53478 0.616968 0
M  V30 21962 H 1982.34 7.5831 1.80516 0
M  V30 21963 N 1986.57 0.417871 1.51959 0
M  V30 21964 C 1987.81 -0.155282 2.02205 0
M  V30 21965 C 1988.15 -1.44044 1.3025 0
M  V30 21966 O 1987.42 -1.90098 0.411449 0
M  V30 21967 C 1987.7 -0.394038 3.57938 0
M  V30 21968 C 1987.56 0.908404 4.40532 0
M  V30 21969 C 1988.88 -1.17238 4.24197 0
M  V30 21970 H 1985.99 -0.0549616 0.734948 0
M  V30 21971 H 1988.64 0.553053 1.81773 0
M  V30 21972 H 1986.79 -0.997422 3.75478 0
M  V30 21973 H 1988.46 1.54427 4.34684 0
M  V30 21974 H 1986.7 1.51743 4.06395 0
M  V30 21975 H 1987.37 0.69563 5.47599 0
M  V30 21976 H 1989.85 -0.661461 4.10809 0
M  V30 21977 H 1988.72 -1.30818 5.33083 0
M  V30 21978 H 1988.99 -2.19534 3.83741 0
M  V30 21979 N 1988.04 -1.56898 0.148573 0
M  V30 21980 C 1989.29 -1.96466 -0.50289 0
M  V30 21981 C 1989.62 -1.03355 -1.64412 0
M  V30 21982 O 1988.9 -0.0762411 -1.94351 0
M  V30 21983 C 1989.18 -3.45717 -1.00757 0
M  V30 21984 C 1989.03 -4.49605 0.132277 0
M  V30 21985 C 1990.35 -3.97506 -1.88883 0
M  V30 21986 H 1987.47 -0.714345 -0.181328 0
M  V30 21987 H 1990.11 -1.88601 0.230117 0
M  V30 21988 H 1988.26 -3.5255 -1.6322 0
M  V30 21989 H 1989.94 -4.54851 0.76867 0
M  V30 21990 H 1988.18 -4.26524 0.791189 0
M  V30 21991 H 1988.85 -5.51375 -0.262585 0
M  V30 21992 H 1991.33 -3.93162 -1.36246 0
M  V30 21993 H 1990.2 -5.02399 -2.21104 0
M  V30 21994 H 1990.46 -3.39956 -2.82635 0
M  V30 21995 N 1989.52 0.125209 -1.57102 0
M  V30 21996 C 1990.47 1.15387 -1.99886 0
M  V30 21997 C 1991.44 1.41494 -0.869974 0
M  V30 21998 O 1992.62 1.53464 -1.13372 0
M  V30 21999 C 1989.76 2.47687 -2.40302 0
M  V30 22000 C 1988.88 2.28568 -3.6658 0
M  V30 22001 C 1988.01 3.54056 -3.96003 0
M  V30 22002 C 1987.05 3.30067 -5.15482 0
M  V30 22003 N 1986.19 4.47741 -5.40807 0
M  V30 22004 H 1991.03 0.782018 -2.87556 0
M  V30 22005 H 1988.57 0.374655 -1.42249 0
M  V30 22006 H 1990.52 3.24858 -2.61769 0
M  V30 22007 H 1989.15 2.82777 -1.55683 0
M  V30 22008 H 1988.21 1.42345 -3.52764 0
M  V30 22009 H 1989.52 2.06815 -4.53904 0
M  V30 22010 H 1988.67 4.39647 -4.18085 0
M  V30 22011 H 1987.41 3.78834 -3.07142 0
M  V30 22012 H 1986.42 2.42866 -4.93251 0
M  V30 22013 H 1987.64 3.06666 -6.05915 0
M  V30 22014 H 1985.59 4.72652 -4.54902 0
M  V30 22015 H 1985.5 4.2907 -6.22442 0
M  V30 22016 H 1986.77 5.34484 -5.67404 0
M  V30 22017 N 1991 1.52564 0.395213 0
M  V30 22018 C 1991.95 1.77531 1.50285 0
M  V30 22019 C 1992.94 0.642976 1.56723 0
M  V30 22020 O 1994.15 0.825323 1.59964 0
M  V30 22021 H 1990.52 0.561636 0.500069 0
M  V30 22022 H 1992.49 2.70298 1.26418 0
M  V30 22023 C 1991.24 1.95557 2.87494 0
M  V30 22024 H 1990.57 2.82114 2.83288 0
M  V30 22025 H 1992.01 2.17019 3.64251 0
M  V30 22026 C 1990.47 0.726406 3.28976 0
M  V30 22027 O 1991 -0.0991246 4.01578 0
M  V30 22028 N 1989.2 0.558299 2.85187 0
M  V30 22029 H 1988.75 1.2312 2.26272 0
M  V30 22030 H 1988.71 -0.262779 3.133 0
M  V30 22031 N 1992.48 -0.653289 1.43422 0
M  V30 22032 C 1993.71 -1.44093 1.48475 0
M  V30 22033 C 1994.12 -1.88521 0.102614 0
M  V30 22034 O 1993.48 -1.59487 -0.887134 0
M  V30 22035 C 1993.53 -2.67595 2.43054 0
M  V30 22036 O 1993.25 -2.25025 3.75893 0
M  V30 22037 C 1994.75 -3.60953 2.57348 0
M  V30 22038 H 1991.97 -0.442658 0.504276 0
M  V30 22039 H 1994.52 -0.800914 1.88164 0
M  V30 22040 H 1992.67 -3.27736 2.06561 0
M  V30 22041 H 1993.08 -3.04932 4.26752 0
M  V30 22042 H 1994.56 -4.44276 3.27602 0
M  V30 22043 H 1995.04 -4.08295 1.61838 0
M  V30 22044 H 1995.64 -3.06693 2.94652 0
M  V30 22045 N 1993.96 -1.29952 -0.891648 0
M  V30 22046 C 1995.18 -1.21422 -1.68141 0
M  V30 22047 C 1995.61 0.220633 -1.86802 0
M  V30 22048 O 1994.96 1.15902 -1.39414 0
M  V30 22049 C 1995.01 -1.94116 -3.03894 0
M  V30 22050 O 1994.12 -1.26369 -3.92562 0
M  V30 22051 H 1993.46 -0.420318 -0.514032 0
M  V30 22052 H 1995.99 -1.71658 -1.11331 0
M  V30 22053 H 1996 -2.02881 -3.53982 0
M  V30 22054 H 1994.67 -2.98474 -2.89631 0
M  V30 22055 H 1993.25 -1.25915 -3.50998 0
M  V30 22056 N 1995.44 1.1031 -1.12559 0
M  V30 22057 C 1996.68 1.81937 -0.879957 0
M  V30 22058 C 1997 1.85675 0.595811 0
M  V30 22059 O 1996.27 1.33574 1.433 0
M  V30 22060 H 1994.85 0.67377 -0.322556 0
M  V30 22061 H 1997.52 1.33464 -1.42033 0
M  V30 22062 H 1996.61 2.8542 -1.26261 0
M  V30 22063 N 1996.91 0.917694 1.28125 0
M  V30 22064 C 1997.86 0.407628 2.27172 0
M  V30 22065 C 1998.83 -0.520056 1.57749 0
M  V30 22066 O 2000.02 -0.441394 1.85624 0
M  V30 22067 C 1997.16 -0.342648 3.43395 0
M  V30 22068 C 1996.27 0.617993 4.27557 0
M  V30 22069 C 1995.4 -0.151124 5.30985 0
M  V30 22070 C 1994.44 0.802876 6.06812 0
M  V30 22071 N 1993.58 0.0670251 7.02068 0
M  V30 22072 H 1998.42 1.25728 2.70179 0
M  V30 22073 H 1995.96 0.631273 1.32866 0
M  V30 22074 H 1997.91 -0.793873 4.09577 0
M  V30 22075 H 1996.54 -1.15661 3.01367 0
M  V30 22076 H 1995.6 1.18775 3.61382 0
M  V30 22077 H 1996.91 1.3475 4.80254 0
M  V30 22078 H 1996.06 -0.662729 6.03069 0
M  V30 22079 H 1994.8 -0.913657 4.79065 0
M  V30 22080 H 1993.81 1.32582 5.33575 0
M  V30 22081 H 1995.03 1.56503 6.6082 0
M  V30 22082 H 1992.98 -0.677445 6.52493 0
M  V30 22083 H 1992.89 0.736283 7.52406 0
M  V30 22084 H 1994.16 -0.424255 7.78345 0
M  V30 22085 N 1998.39 -1.42074 0.682102 0
M  V30 22086 C 1999.62 -2.05769 0.216029 0
M  V30 22087 C 2000.03 -1.51278 -1.12962 0
M  V30 22088 O 1999.39 -0.655521 -1.70321 0
M  V30 22089 C 1999.44 -3.61187 0.150351 0
M  V30 22090 O 1999.16 -4.13659 1.44283 0
M  V30 22091 C 2000.66 -4.42007 -0.338339 0
M  V30 22092 H 1997.88 -0.662997 0.103326 0
M  V30 22093 H 2000.43 -1.82084 0.930895 0
M  V30 22094 H 1998.58 -3.83958 -0.515249 0
M  V30 22095 H 1999 -5.07592 1.32101 0
M  V30 22096 H 2000.47 -5.50994 -0.33319 0
M  V30 22097 H 2000.95 -4.17125 -1.37489 0
M  V30 22098 H 2001.55 -4.2427 0.295782 0
M  V30 22099 N 1999.87 -0.425924 -1.51735 0
M  V30 22100 C 2001.09 0.145767 -2.06887 0
M  V30 22101 C 2001.52 1.36671 -1.29239 0
M  V30 22102 O 2000.88 1.78323 -0.327176 0
M  V30 22103 C 2000.93 0.457951 -3.5768 0
M  V30 22104 O 2000.03 1.54629 -3.82314 0
M  V30 22105 H 1999.37 0.00686619 -0.663964 0
M  V30 22106 H 2001.9 -0.603968 -1.95482 0
M  V30 22107 H 2001.91 0.71173 -4.01744 0
M  V30 22108 H 2000.59 -0.434483 -4.13624 0
M  V30 22109 H 1999.16 1.28336 -3.5012 0
M  V30 22110 O 2001.39 1.58731 -0.297797 0
M  V30 22111 H 2002.08 1.91844 0.267503 0
M  V30 END ATOM
M  V30 BEGIN BOND
M  V30 END BOND
M  V30 END CTAB
M  END
$$$$
