drugbank_target|P14555 Phospholipase A2, membrane associated (DB00328; DB01381; DB01955; DB02080; DB02448; DB02504; DB02936; DB03017; DB03121; DB03471; DB03784; DB04112; DB04287; DB04786; DB05737)
 OpenBabel12092119573D

  0  0  0     0  0            999 V3000
M  V30 BEGIN CTAB
M  V30 COUNTS 2237 2257 0 0 0
M  V30 BEGIN ATOM
M  V30 1 H -0.908 1.98254 -0.117106 0
M  V30 2 N 0 1.576 0 0
M  V30 3 C 0.933 2.03868 1.02534 0
M  V30 4 C 1.911 0.928543 1.3348 0
M  V30 5 O 3.095 1.19667 1.45644 0
M  V30 6 C 0.222 2.43627 2.35294 0
M  V30 7 C -0.732 3.65373 2.2001 0
M  V30 8 S 0.101 5.13292 1.52614 0
M  V30 9 C 1.257 5.56322 2.86805 0
M  V30 10 H 1.49 2.90518 0.631377 0
M  V30 11 H -0.977 1.52953 0.210867 0
M  V30 12 H 0.981 2.67203 3.11629 0
M  V30 13 H -0.358 1.57376 2.7183 0
M  V30 14 H -1.165 3.90944 3.18086 0
M  V30 15 H -1.563 3.418 1.51819 0
M  V30 16 H 0.729 5.58782 3.83104 0
M  V30 17 H 1.672 6.56266 2.65933 0
M  V30 18 H 2.08 4.83886 2.90714 0
M  V30 19 N 1.4781 -0.272755 1.55222 0
M  V30 20 C 2.4251 -1.33716 1.88119 0
M  V30 21 C 3.3951 -1.49066 0.73271 0
M  V30 22 O 4.5801 -1.63469 0.984002 0
M  V30 23 C 1.7201 -2.69238 2.15882 0
M  V30 24 C 0.8331 -2.62108 3.43399 0
M  V30 25 C -0.0319 -3.89811 3.60861 0
M  V30 26 C -0.9929 -3.77193 4.8207 0
M  V30 27 N -1.8559 -4.9673 4.96189 0
M  V30 28 H 2.9841 -1.04962 2.78903 0
M  V30 29 H 0.5211 -0.507088 1.38083 0
M  V30 30 H 2.4791 -3.48089 2.29978 0
M  V30 31 H 1.1091 -2.96194 1.28331 0
M  V30 32 H 0.1611 -1.74967 3.37773 0
M  V30 33 H 1.4731 -2.48685 4.32386 0
M  V30 34 H 0.6271 -4.77103 3.74777 0
M  V30 35 H -0.6339 -4.06102 2.7006 0
M  V30 36 H -1.6289 -2.88284 4.68159 0
M  V30 37 H -0.4039 -3.62421 5.74307 0
M  V30 38 H -2.4579 -5.13431 4.08319 0
M  V30 39 H -2.5409 -4.85839 5.79221 0
M  V30 40 H -1.2729 -5.85594 5.1449 0
M  V30 41 N 2.9562 -1.48159 -0.537278 0
M  V30 42 C 4.1842 -1.59454 -1.31841 0
M  V30 43 C 4.5992 -0.252065 -1.8711 0
M  V30 44 O 3.9562 0.757621 -1.66031 0
M  V30 45 C 4.0072 -2.63546 -2.47439 0
M  V30 46 O 3.7282 -3.92583 -1.94449 0
M  V30 47 C 5.2292 -2.85212 -3.39366 0
M  V30 48 H 2.4492 -0.53785 -0.401196 0
M  V30 49 H 4.9932 -1.93932 -0.648891 0
M  V30 50 H 3.1482 -2.31946 -3.1029 0
M  V30 51 H 3.5622 -4.49629 -2.70063 0
M  V30 52 H 5.0362 -3.61863 -4.16844 0
M  V30 53 H 5.5132 -1.93765 -3.94147 0
M  V30 54 H 6.1192 -3.18086 -2.82314 0
M  V30 55 N 4.4343 0.785586 -1.36625 0
M  V30 56 C 5.3643 1.91259 -1.33949 0
M  V30 57 C 6.3453 1.68795 -0.210325 0
M  V30 58 O 7.5303 1.89854 -0.408561 0
M  V30 59 C 4.6603 3.28339 -1.13186 0
M  V30 60 C 3.6143 3.65335 -2.22967 0
M  V30 61 C 2.9403 5.00806 -1.87342 0
M  V30 62 C 4.2403 3.7352 -3.65075 0
M  V30 63 H 5.9343 1.93755 -2.28253 0
M  V30 64 H 3.4803 0.930788 -1.09874 0
M  V30 65 H 5.4333 4.06804 -1.09948 0
M  V30 66 H 4.1573 3.2624 -0.153332 0
M  V30 67 H 2.8163 2.89169 -2.25337 0
M  V30 68 H 2.4643 4.95233 -0.880545 0
M  V30 69 H 2.1643 5.26529 -2.60846 0
M  V30 70 H 3.6883 5.81687 -1.85667 0
M  V30 71 H 5.1023 4.42168 -3.64911 0
M  V30 72 H 3.4993 4.10731 -4.37516 0
M  V30 73 H 4.5693 2.74527 -3.99703 0
M  V30 74 N 5.9124 1.20967 1.01018 0
M  V30 75 C 6.8424 0.988272 2.11555 0
M  V30 76 C 7.8234 -0.0849778 1.69888 0
M  V30 77 O 9.0084 0.0738202 1.9406 0
M  V30 78 C 6.1384 0.546528 3.42973 0
M  V30 79 C 5.0924 1.56375 3.9841 0
M  V30 80 C 4.4184 0.97842 5.25672 0
M  V30 81 C 5.7184 2.94922 4.31066 0
M  V30 82 H 7.4124 1.91276 2.30334 0
M  V30 83 H 4.9584 0.921073 1.1069 0
M  V30 84 H 6.9114 0.378839 4.19694 0
M  V30 85 H 5.6354 -0.413598 3.23971 0
M  V30 86 H 4.2944 1.71891 3.23804 0
M  V30 87 H 3.9424 0.0101688 5.02999 0
M  V30 88 H 3.6424 1.65784 5.63728 0
M  V30 89 H 5.1664 0.821939 6.05043 0
M  V30 90 H 6.5804 2.8288 4.9865 0
M  V30 91 H 4.9774 3.5983 4.80253 0
M  V30 92 H 6.0474 3.4616 3.39561 0
M  V30 93 N 7.3905 -1.2043 1.01659 0
M  V30 94 C 8.3205 -2.25466 0.607226 0
M  V30 95 C 9.3015 -1.65853 -0.377716 0
M  V30 96 O 10.4865 -1.92409 -0.263149 0
M  V30 97 C 7.6165 -3.47256 -0.0552949 0
M  V30 98 C 6.5705 -4.19462 0.850632 0
M  V30 99 C 5.8965 -5.34673 0.0538859 0
M  V30 100 C 7.1965 -4.75603 2.15868 0
M  V30 101 H 8.8905 -2.59962 1.48526 0
M  V30 102 H 6.4365 -1.2496 0.715605 0
M  V30 103 H 8.3895 -4.19917 -0.353233 0
M  V30 104 H 7.1135 -3.11924 -0.968045 0
M  V30 105 H 5.7725 -3.48667 1.13257 0
M  V30 106 H 5.4205 -4.95585 -0.860514 0
M  V30 107 H 5.1205 -5.83913 0.657192 0
M  V30 108 H 6.6445 -6.10138 -0.237598 0
M  V30 109 H 8.0585 -5.40083 1.92311 0
M  V30 110 H 6.4555 -5.3528 2.71284 0
M  V30 111 H 7.5255 -3.94346 2.82169 0
M  V30 112 N 8.8686 -0.792821 -1.36206 0
M  V30 113 C 9.7986 -0.207853 -2.32573 0
M  V30 114 C 10.7796 0.659055 -1.56813 0
M  V30 115 O 11.9646 0.592176 -1.84951 0
M  V30 116 C 9.0946 0.655449 -3.41059 0
M  V30 117 C 8.0486 -0.111842 -4.27854 0
M  V30 118 C 7.3746 0.872274 -5.27537 0
M  V30 119 C 8.6746 -1.30299 -5.05786 0
M  V30 120 H 10.3686 -1.01294 -2.81744 0
M  V30 121 H 7.9146 -0.48854 -1.3546 0
M  V30 122 H 9.8676 1.07464 -4.07467 0
M  V30 123 H 8.5916 1.49328 -2.90463 0
M  V30 124 H 7.2506 -0.512053 -3.63006 0
M  V30 125 H 6.8986 1.70523 -4.73214 0
M  V30 126 H 6.5986 0.363291 -5.86476 0
M  V30 127 H 8.1226 1.28996 -5.96818 0
M  V30 128 H 9.5366 -0.959379 -5.65216 0
M  V30 129 H 7.9336 -1.7455 -5.74154 0
M  V30 130 H 9.0036 -2.09663 -4.37229 0
M  V30 131 N 10.3467 1.47872 -0.545128 0
M  V30 132 C 11.3097 2.28337 0.198717 0
M  V30 133 C 12.3097 1.36255 0.853888 0
M  V30 134 O 13.4997 1.59003 0.711606 0
M  V30 135 C 10.6317 3.15585 1.28915 0
M  V30 136 H 11.8247 2.95567 -0.507941 0
M  V30 137 H 9.3777 1.53362 -0.301616 0
M  V30 138 H 10.1127 2.53019 2.02859 0
M  V30 139 H 9.8977 3.83337 0.824309 0
M  V30 140 H 11.3877 3.76243 1.81194 0
M  V30 141 N 11.8248 0.280983 1.55075 0
M  V30 142 C 13.0708 -0.33461 2.00021 0
M  V30 143 C 13.4038 -1.55063 1.16915 0
M  V30 144 O 12.6788 -1.93006 0.240646 0
M  V30 145 C 12.9618 -0.711007 3.53011 0
M  V30 146 C 12.8148 0.512766 4.46868 0
M  V30 147 C 14.1338 -1.54522 4.12081 0
M  V30 148 H 11.2528 -0.120147 0.727141 0
M  V30 149 H 13.8948 0.389097 1.85973 0
M  V30 150 H 12.0448 -1.32761 3.65112 0
M  V30 151 H 13.7168 1.15131 4.46702 0
M  V30 152 H 11.9598 1.14975 4.18286 0
M  V30 153 H 12.6308 0.205556 5.51617 0
M  V30 154 H 15.1068 -1.02442 4.03293 0
M  V30 155 H 13.9828 -1.77739 5.19327 0
M  V30 156 H 14.2438 -2.52813 3.62682 0
M  V30 157 N 13.3029 -1.57598 0.00835791 0
M  V30 158 C 14.5519 -1.90107 -0.673968 0
M  V30 159 C 14.8649 -0.884275 -1.7447 0
M  V30 160 O 16.0709 -1.09987 -2.48224 0
M  V30 161 C 14.5269 -3.37497 -1.24995 0
M  V30 162 C 14.1349 -4.47491 -0.2136 0
M  V30 163 C 15.8789 -3.79104 -1.90999 0
M  V30 164 C 13.7859 -5.85963 -0.80005 0
M  V30 165 H 12.7159 -0.709393 -0.255495 0
M  V30 166 H 15.3669 -1.83365 0.0702693 0
M  V30 167 H 13.7489 -3.39102 -2.04513 0
M  V30 168 H 14.9229 -4.57414 0.557596 0
M  V30 169 H 13.2379 -4.14956 0.346474 0
M  V30 170 H 15.8349 -4.79901 -2.35795 0
M  V30 171 H 16.1779 -3.1306 -2.74407 0
M  V30 172 H 16.7109 -3.79833 -1.18203 0
M  V30 173 H 13.4499 -6.555 -0.00456708 0
M  V30 174 H 12.9699 -5.79687 -1.54021 0
M  V30 175 H 14.6489 -6.33884 -1.29615 0
M  V30 176 N 14.781 0.264519 -1.55364 0
M  V30 177 C 15.714 1.35297 -1.83766 0
M  V30 178 C 16.692 1.47171 -0.691336 0
M  V30 179 O 17.876 1.63663 -0.935238 0
M  V30 180 C 15.003 2.72847 -2.00679 0
M  V30 181 C 14.049 2.78214 -3.23263 0
M  V30 182 S 14.882 2.36601 -4.80396 0
M  V30 183 C 16.038 3.7611 -5.00292 0
M  V30 184 H 16.271 1.11003 -2.758 0
M  V30 185 H 13.804 0.464596 -1.47244 0
M  V30 186 H 15.762 3.52057 -2.11108 0
M  V30 187 H 14.423 2.94388 -1.09518 0
M  V30 188 H 13.616 3.7919 -3.3201 0
M  V30 189 H 13.218 2.07034 -3.11469 0
M  V30 190 H 15.51 4.71457 -4.86554 0
M  V30 191 H 16.453 3.7231 -6.02321 0
M  V30 192 H 16.861 3.67806 -4.28228 0
M  V30 193 N 16.2591 1.48442 0.529413 0
M  V30 194 C 17.5081 1.55742 1.28169 0
M  V30 195 C 17.8211 0.236511 1.94165 0
M  V30 196 O 19.0271 0.187761 2.7085 0
M  V30 197 C 17.4831 2.74667 2.32564 0
M  V30 198 C 17.0911 4.13402 1.72636 0
M  V30 199 C 18.8351 2.9128 3.08798 0
M  V30 200 C 16.7421 5.23587 2.74975 0
M  V30 201 H 15.6721 0.579796 0.48203 0
M  V30 202 H 18.3231 1.74776 0.559056 0
M  V30 203 H 16.7051 2.49067 3.07866 0
M  V30 204 H 17.8791 4.49022 1.03519 0
M  V30 205 H 16.1941 4.0191 1.08892 0
M  V30 206 H 18.7911 3.70767 3.85274 0
M  V30 207 H 19.1341 2.00757 3.64695 0
M  V30 208 H 19.6671 3.16782 2.40611 0
M  V30 209 H 16.4061 6.16076 2.23897 0
M  V30 210 H 15.9261 4.92454 3.42417 0
M  V30 211 H 17.6051 5.51724 3.37949 0
M  V30 212 N 17.7372 -0.778329 1.37039 0
M  V30 213 C 18.9842 -1.53665 1.31884 0
M  V30 214 C 19.3122 -1.9425 -0.0986303 0
M  V30 215 O 18.5672 -1.63832 -1.07041 0
M  V30 216 C 18.8662 -2.81845 2.19768 0
M  V30 217 C 18.5322 -2.60345 3.68146 0
M  V30 218 C 17.1942 -2.5419 4.08584 0
M  V30 219 C 19.5462 -2.40923 4.62175 0
M  V30 220 C 16.8742 -2.26594 5.41177 0
M  V30 221 C 19.2262 -2.14852 5.94997 0
M  V30 222 C 17.8902 -2.07137 6.34547 0
M  V30 223 H 17.1602 -0.562299 0.482598 0
M  V30 224 H 19.8072 -0.897069 1.69189 0
M  V30 225 H 18.1122 -3.50328 1.75436 0
M  V30 226 H 19.8092 -3.39692 2.13097 0
M  V30 227 H 16.3992 -2.65996 3.36072 0
M  V30 228 H 20.5832 -2.44673 4.31797 0
M  V30 229 H 15.8392 -2.19111 5.70789 0
M  V30 230 H 20.0132 -1.98822 6.67415 0
M  V30 231 H 17.6402 -1.85518 7.37216 0
M  V30 232 N 19.2153 -1.21501 -1.00376 0
M  V30 233 C 20.4633 -1.03095 -1.73827 0
M  V30 234 C 20.7843 0.436341 -1.90055 0
M  V30 235 O 20.0543 1.31466 -1.45236 0
M  V30 236 H 18.6343 -0.378487 -0.644016 0
M  V30 237 H 21.2963 -1.52831 -1.20949 0
M  V30 238 H 20.3923 -1.49991 -2.73695 0
M  V30 239 N 20.6934 1.19889 -1.02296 0
M  V30 240 C 21.6234 2.25141 -0.619174 0
M  V30 241 C 22.6044 1.66051 0.368915 0
M  V30 242 O 23.7894 1.92546 0.252941 0
M  V30 243 C 20.9194 3.4728 0.0368783 0
M  V30 244 C 19.8734 4.19005 -0.872865 0
M  V30 245 C 19.1994 5.34637 -0.0822402 0
M  V30 246 C 20.4994 4.74452 -2.18387 0
M  V30 247 H 22.1934 2.59171 -1.49903 0
M  V30 248 H 19.7394 1.24579 -0.722222 0
M  V30 249 H 21.6924 4.20098 0.330958 0
M  V30 250 H 20.4164 3.12433 0.95149 0
M  V30 251 H 19.0754 3.48061 -1.15105 0
M  V30 252 H 18.7234 4.96034 0.83422 0
M  V30 253 H 18.4234 5.83557 -0.688149 0
M  V30 254 H 19.9474 6.10255 0.205238 0
M  V30 255 H 21.3614 5.39055 -1.95172 0
M  V30 256 H 19.7584 5.33834 -2.74119 0
M  V30 257 H 20.8284 3.92844 -2.84257 0
M  V30 258 N 22.1715 0.800033 1.35784 0
M  V30 259 C 23.1015 0.220184 2.3246 0
M  V30 260 C 24.0825 -0.65073 1.57161 0
M  V30 261 O 25.2675 -0.582359 1.85263 0
M  V30 262 C 22.3975 -0.637353 3.41402 0
M  V30 263 C 21.3515 0.134531 4.27789 0
M  V30 264 C 20.6775 -0.844285 5.27992 0
M  V30 265 C 21.9775 1.32979 5.05088 0
M  V30 266 H 23.6715 1.02787 2.81203 0
M  V30 267 H 21.2175 0.495717 1.35199 0
M  V30 268 H 23.1705 -1.05302 4.08031 0
M  V30 269 H 21.8945 -1.47785 2.91251 0
M  V30 270 H 20.5535 0.531296 3.6273 0
M  V30 271 H 20.2015 -1.68011 4.74111 0
M  V30 272 H 19.9015 -0.332184 5.8666 0
M  V30 273 H 21.4255 -1.2583 5.97494 0
M  V30 274 H 22.8395 0.98934 5.64699 0
M  V30 275 H 21.2365 1.77593 5.7322 0
M  V30 276 H 22.3065 2.11978 4.36111 0
M  V30 277 N 23.6496 -1.47581 0.552962 0
M  V30 278 C 24.5816 -2.27997 -0.234533 0
M  V30 279 C 25.5946 -1.36753 -0.883321 0
M  V30 280 O 26.7836 -1.61612 -0.757889 0
M  V30 281 C 23.8836 -3.10879 -1.34935 0
M  V30 282 C 23.0566 -4.30056 -0.798158 0
M  V30 283 C 22.1156 -4.94567 -1.79694 0
M  V30 284 O 21.1416 -5.53087 -1.34474 0
M  V30 285 N 22.3436 -4.88878 -3.13015 0
M  V30 286 H 25.1086 -2.96222 0.455255 0
M  V30 287 H 22.6696 -1.57163 0.388761 0
M  V30 288 H 24.6616 -3.50903 -2.01616 0
M  V30 289 H 23.2316 -2.44924 -1.94244 0
M  V30 290 H 22.4516 -3.94174 0.0453079 0
M  V30 291 H 23.7396 -5.07152 -0.409173 0
M  V30 292 H 23.1376 -4.42526 -3.52402 0
M  V30 293 H 21.6946 -5.32934 -3.75266 0
M  V30 294 N 25.1277 -0.289203 -1.54924 0
M  V30 295 C 26.0907 0.579144 -2.21762 0
M  V30 296 C 27.0907 1.07047 -1.1999 0
M  V30 297 O 28.2807 0.968384 -1.44803 0
M  V30 298 C 25.4127 1.80055 -2.8947 0
M  V30 299 H 26.6057 -0.00464908 -2.999 0
M  V30 300 H 24.1587 -0.0399306 -1.56249 0
M  V30 301 H 24.8937 2.42449 -2.15381 0
M  V30 302 H 24.6787 1.45602 -3.64064 0
M  V30 303 H 26.1687 2.41773 -3.40493 0
M  V30 304 N 26.6058 1.57591 -0.0167156 0
M  V30 305 C 27.5558 2.05953 0.978137 0
M  V30 306 C 28.5398 0.957532 1.29306 0
M  V30 307 O 29.7318 1.22119 1.28125 0
M  V30 308 C 26.8608 2.58006 2.26468 0
M  V30 309 C 25.9468 3.75113 1.97867 0
M  V30 310 N 26.3378 4.86187 1.39486 0
M  V30 311 C 24.6358 3.83363 2.27924 0
M  V30 312 C 25.3368 5.67502 1.27735 0
M  V30 313 N 24.3128 5.14023 1.76866 0
M  V30 314 H 28.1148 2.89236 0.521522 0
M  V30 315 H 25.6288 1.61301 0.188596 0
M  V30 316 H 27.6258 2.90937 2.98599 0
M  V30 317 H 26.2858 1.76148 2.72767 0
M  V30 318 H 27.2968 5.06695 1.07147 0
M  V30 319 H 23.9738 3.1239 2.76982 0
M  V30 320 H 25.3638 6.66791 0.826978 0
M  V30 321 N 28.0839 -0.256276 1.55502 0
M  V30 322 C 29.3319 -0.983672 1.76545 0
M  V30 323 C 29.6529 -1.86206 0.578982 0
M  V30 324 O 28.9229 -1.91656 -0.405577 0
M  V30 325 H 27.5029 -0.366191 0.651086 0
M  V30 326 H 30.1649 -0.276479 1.92929 0
M  V30 327 H 29.2609 -1.61087 2.67315 0
M  V30 328 N 29.562 -1.4872 -0.521534 0
M  V30 329 C 30.51 -1.64328 -1.64618 0
M  V30 330 C 31.504 -0.50953 -1.61555 0
M  V30 331 O 32.71 -0.688525 -1.66311 0
M  V30 332 H 29.085 -0.517805 -0.545328 0
M  V30 333 H 31.056 -2.58767 -1.48601 0
M  V30 334 C 29.805 -1.70805 -3.02855 0
M  V30 335 H 29.128 -2.5741 -3.05909 0
M  V30 336 H 30.568 -1.85766 -3.81139 0
M  V30 337 C 29.027 -0.448479 -3.33902 0
M  V30 338 O 29.557 0.434928 -3.99339 0
M  V30 339 N 27.763 -0.317616 -2.88859 0
M  V30 340 H 27.31 -1.03748 -2.35784 0
M  V30 341 H 27.268 0.524113 -3.10001 0
M  V30 342 N 31.0401 0.771051 -1.3745 0
M  V30 343 C 31.9701 1.89827 -1.3597 0
M  V30 344 C 32.9511 1.68562 -0.228216 0
M  V30 345 O 34.1361 1.8941 -0.428675 0
M  V30 346 C 31.2661 3.2712 -1.16662 0
M  V30 347 C 30.2201 3.6295 -2.2683 0
M  V30 348 C 29.5461 4.98791 -1.92644 0
M  V30 349 C 30.8461 3.69627 -3.69017 0
M  V30 350 H 32.5401 1.91323 -2.30295 0
M  V30 351 H 30.0861 0.919082 -1.10855 0
M  V30 352 H 32.0391 4.05615 -1.14256 0
M  V30 353 H 30.7631 3.26059 -0.187926 0
M  V30 354 H 29.4221 2.86763 -2.28392 0
M  V30 355 H 29.0701 4.94271 -0.933021 0
M  V30 356 H 28.7701 5.23733 -2.66416 0
M  V30 357 H 30.2941 5.79685 -1.91826 0
M  V30 358 H 31.7081 4.38273 -3.69581 0
M  V30 359 H 30.1051 4.06067 -4.41848 0
M  V30 360 H 31.1751 2.70273 -4.02592 0
M  V30 361 N 32.5182 1.22032 0.997298 0
M  V30 362 C 33.7642 1.04376 1.73878 0
M  V30 363 C 34.0972 -0.420716 1.89588 0
M  V30 364 O 33.3722 -1.31202 1.43583 0
M  V30 365 C 33.6552 1.75047 3.14691 0
M  V30 366 C 33.5082 3.29062 3.06656 0
M  V30 367 C 34.8272 1.49928 4.13775 0
M  V30 368 H 31.9462 0.380578 0.631133 0
M  V30 369 H 34.5882 1.50312 1.16217 0
M  V30 370 H 32.7382 1.35996 3.63919 0
M  V30 371 H 34.4102 3.7753 2.65083 0
M  V30 372 H 32.6532 3.58967 2.43568 0
M  V30 373 H 33.3242 3.73683 4.06282 0
M  V30 374 H 35.8002 1.83842 3.73285 0
M  V30 375 H 34.6762 2.01878 5.10428 0
M  V30 376 H 34.9372 0.430929 4.39995 0
M  V30 377 N 33.9963 -1.19345 1.0293 0
M  V30 378 C 34.9443 -2.24621 0.604001 0
M  V30 379 C 35.9383 -1.65452 -0.363587 0
M  V30 380 O 37.1443 -1.78497 -0.23212 0
M  V30 381 H 33.5193 -0.730858 0.177061 0
M  V30 382 H 35.4903 -2.5781 1.50255 0
M  V30 383 C 34.2393 -3.47688 -0.0289127 0
M  V30 384 H 33.5623 -3.93505 0.706651 0
M  V30 385 H 35.0023 -4.23011 -0.289432 0
M  V30 386 C 33.4613 -3.11817 -1.2756 0
M  V30 387 O 33.9913 -3.2451 -2.36762 0
M  V30 388 N 32.1973 -2.66246 -1.16453 0
M  V30 389 H 31.7443 -2.56118 -0.275914 0
M  V30 390 H 31.7023 -2.42617 -1.99961 0
M  V30 391 N 35.4744 -0.807222 -1.35358 0
M  V30 392 C 36.7214 -0.387888 -1.9875 0
M  V30 393 C 37.0494 1.04509 -1.64037 0
M  V30 394 O 36.3044 1.73986 -0.895946 0
M  V30 395 C 36.6034 -0.519036 -3.53611 0
M  V30 396 C 36.2694 -1.91542 -4.08194 0
M  V30 397 C 34.9314 -2.29745 -4.22813 0
M  V30 398 C 37.2834 -2.82896 -4.37744 0
M  V30 399 C 34.6114 -3.58668 -4.643 0
M  V30 400 C 36.9634 -4.11265 -4.8067 0
M  V30 401 C 35.6274 -4.49466 -4.93494 0
M  V30 402 H 34.8974 -0.141938 -0.727279 0
M  V30 403 H 37.5444 -1.02814 -1.6156 0
M  V30 404 H 35.8494 0.204658 -3.91265 0
M  V30 405 H 37.5464 -0.175345 -4.00616 0
M  V30 406 H 34.1364 -1.60862 -3.97268 0
M  V30 407 H 38.3204 -2.54629 -4.26002 0
M  V30 408 H 33.5764 -3.88113 -4.72418 0
M  V30 409 H 37.7504 -4.82153 -5.02496 0
M  V30 410 H 35.3774 -5.49418 -5.25399 0
M  V30 411 N 36.9525 1.47285 -0.560781 0
M  V30 412 C 37.9025 2.27073 0.205384 0
M  V30 413 C 38.8865 1.34569 0.882044 0
M  V30 414 O 40.0785 1.58899 0.77976 0
M  V30 415 C 37.2075 3.20414 1.23247 0
M  V30 416 C 36.2935 4.20399 0.559041 0
M  V30 417 N 36.6845 5.04423 -0.372927 0
M  V30 418 C 34.9825 4.38536 0.812522 0
M  V30 419 C 35.6835 5.76655 -0.764446 0
M  V30 420 N 34.6595 5.43471 -0.11848 0
M  V30 421 H 38.4615 2.89422 -0.511117 0
M  V30 422 H 35.9755 1.57868 -0.380975 0
M  V30 423 H 37.9725 3.76262 1.79534 0
M  V30 424 H 36.6325 2.59623 1.95002 0
M  V30 425 H 37.6435 5.1248 -0.747287 0
M  V30 426 H 34.3205 3.88913 1.51832 0
M  V30 427 H 35.7105 6.54238 -1.53045 0
M  V30 428 N 38.4306 0.297415 1.54768 0
M  V30 429 C 39.8466 -0.0560823 1.59501 0
M  V30 430 C 40.0466 -1.52725 1.31444 0
M  V30 431 O 39.1026 -2.27947 1.08611 0
M  V30 432 C 40.4156 0.338631 2.98787 0
M  V30 433 C 41.9636 0.287097 3.11681 0
M  V30 434 C 42.4386 0.656579 4.53269 0
M  V30 435 N 43.9296 0.608977 4.59179 0
M  V30 436 C 44.6646 0.867385 5.66802 0
M  V30 437 N 44.1606 1.19157 6.82476 0
M  V30 438 N 45.9536 0.794687 5.56454 0
M  V30 439 H 38.1046 1.25624 1.71267 0
M  V30 440 H 40.3676 0.509057 0.799728 0
M  V30 441 H 40.0736 1.36263 3.2423 0
M  V30 442 H 39.9476 -0.309508 3.75928 0
M  V30 443 H 42.3346 -0.727649 2.85988 0
M  V30 444 H 42.4156 0.969809 2.36703 0
M  V30 445 H 42.0596 1.66912 4.7969 0
M  V30 446 H 41.9896 -0.0481649 5.26578 0
M  V30 447 H 44.4806 0.369198 3.76092 0
M  V30 448 H 44.7936 1.37482 7.60473 0
M  V30 449 H 43.1386 1.22958 6.84037 0
M  V30 450 H 46.3296 0.541098 4.64962 0
M  V30 451 H 46.5026 0.999445 6.40246 0
M  V30 452 N 39.9087 -1.5758 0.0250728 0
M  V30 453 C 40.8417 -2.05473 -0.992777 0
M  V30 454 C 41.8197 -0.949661 -1.31986 0
M  V30 455 O 43.0037 -1.21969 -1.43722 0
M  V30 456 C 40.1307 -2.4734 -2.31389 0
M  V30 457 C 39.1767 -3.68827 -2.1417 0
M  V30 458 S 40.0097 -5.15655 -1.44429 0
M  V30 459 C 41.1657 -5.60814 -2.77918 0
M  V30 460 H 41.3987 -2.91486 -0.585078 0
M  V30 461 H 38.9317 -1.53269 -0.186507 0
M  V30 462 H 40.8897 -2.72127 -3.07339 0
M  V30 463 H 39.5507 -1.6168 -2.69292 0
M  V30 464 H 38.7437 -3.95955 -3.11826 0
M  V30 465 H 38.3457 -3.44172 -1.46362 0
M  V30 466 H 40.6377 -5.64806 -3.74166 0
M  V30 467 H 41.5807 -6.60414 -2.55459 0
M  V30 468 H 41.9887 -4.8845 -2.82979 0
M  V30 469 N 41.3868 0.248026 -1.55636 0
M  V30 470 C 42.6358 0.974134 -1.76617 0
M  V30 471 C 42.9488 1.86528 -0.588796 0
M  V30 472 O 44.1548 2.62805 -0.681594 0
M  V30 473 C 42.6108 1.78213 -3.12679 0
M  V30 474 C 42.2188 0.93843 -4.38061 0
M  V30 475 C 43.9628 2.50104 -3.42999 0
M  V30 476 C 41.8698 1.74225 -5.65155 0
M  V30 477 H 40.7998 0.36745 -0.658405 0
M  V30 478 H 43.4508 0.22884 -1.82067 0
M  V30 479 H 41.8328 2.56933 -3.01333 0
M  V30 480 H 43.0068 0.193635 -4.60393 0
M  V30 481 H 41.3218 0.332905 -4.15067 0
M  V30 482 H 43.9188 3.10694 -4.3517 0
M  V30 483 H 44.2618 3.21662 -2.64271 0
M  V30 484 H 44.7948 1.78395 -3.55556 0
M  V30 485 H 41.5338 1.07043 -6.46701 0
M  V30 486 H 41.0538 2.46235 -5.46926 0
M  V30 487 H 42.7328 2.30967 -6.0437 0
M  V30 488 N 42.8649 1.48995 0.513639 0
M  V30 489 C 43.8119 1.6473 1.61656 0
M  V30 490 C 44.7819 0.488984 1.58739 0
M  V30 491 O 45.9669 0.714478 1.76918 0
M  V30 492 C 43.1069 1.7082 2.99858 0
M  V30 493 C 42.2199 2.9787 3.12885 0
M  V30 494 C 41.3549 2.95017 4.41744 0
M  V30 495 C 40.3939 4.16702 4.48359 0
M  V30 496 N 39.5309 4.11832 5.68629 0
M  V30 497 H 44.3709 2.58909 1.47547 0
M  V30 498 H 41.9079 1.28382 0.71808 0
M  V30 499 H 43.8659 1.72331 3.79944 0
M  V30 500 H 42.4959 0.801181 3.12699 0
M  V30 501 H 41.5479 3.06029 2.25944 0
M  V30 502 H 42.8599 3.8786 3.13633 0
M  V30 503 H 42.0139 2.95021 5.30139 0
M  V30 504 H 40.7529 2.02784 4.43542 0
M  V30 505 H 39.7579 4.16955 3.58369 0
M  V30 506 H 40.9829 5.10113 4.48287 0
M  V30 507 H 38.9289 3.22428 5.71293 0
M  V30 508 H 38.8459 4.95543 5.7094 0
M  V30 509 H 40.1139 4.1592 6.59266 0
M  V30 510 N 44.343 -0.763751 1.37857 0
M  V30 511 C 45.273 -1.89103 1.36975 0
M  V30 512 C 46.254 -1.68439 0.237152 0
M  V30 513 O 47.439 -1.8918 0.438713 0
M  V30 514 C 44.569 -3.26496 1.18395 0
M  V30 515 C 43.523 -3.61741 2.28751 0
M  V30 516 C 42.849 -4.97762 1.95286 0
M  V30 517 C 44.149 -3.67665 3.70972 0
M  V30 518 H 45.843 -1.90099 2.31307 0
M  V30 519 H 43.389 -0.91319 1.11341 0
M  V30 520 H 45.342 -4.05003 1.16406 0
M  V30 521 H 44.066 -3.25955 0.205215 0
M  V30 522 H 42.725 -2.85547 2.29909 0
M  V30 523 H 42.373 -4.93769 0.959221 0
M  V30 524 H 42.073 -5.22313 2.69189 0
M  V30 525 H 43.597 -5.7866 1.94898 0
M  V30 526 H 45.011 -4.36307 3.719 0
M  V30 527 H 43.408 -4.03718 4.43995 0
M  V30 528 H 44.478 -2.68134 4.0402 0
M  V30 529 N 45.8211 -1.22559 -0.990812 0
M  V30 530 C 47.0491 -1.07779 -1.76611 0
M  V30 531 C 47.4641 0.371513 -1.85109 0
M  V30 532 O 46.8211 1.25737 -1.32274 0
M  V30 533 C 46.8721 -1.68512 -3.19822 0
M  V30 534 O 46.5931 -3.07774 -3.1178 0
M  V30 535 C 48.0941 -1.59035 -4.13791 0
M  V30 536 H 45.3141 -0.377729 -0.554583 0
M  V30 537 H 47.8581 -1.62195 -1.24551 0
M  V30 538 H 46.0131 -1.18154 -3.68942 0
M  V30 539 H 46.4271 -3.37062 -4.01858 0
M  V30 540 H 47.9011 -2.0625 -5.1202 0
M  V30 541 H 48.3781 -0.547273 -4.35777 0
M  V30 542 H 48.9841 -2.08709 -3.70568 0
M  V30 543 N 47.2992 1.18797 -1.03562 0
M  V30 544 C 48.5272 1.92599 -0.755869 0
M  V30 545 C 48.9422 1.75886 0.686271 0
M  V30 546 O 48.2992 1.08517 1.46732 0
M  V30 547 C 48.3502 3.44159 -1.10619 0
M  V30 548 O 48.0712 3.60341 -2.4917 0
M  V30 549 C 49.5722 4.3507 -0.850214 0
M  V30 550 H 46.7922 0.611587 -0.276048 0
M  V30 551 H 49.3362 1.50742 -1.38192 0
M  V30 552 H 47.4912 3.83823 -0.525194 0
M  V30 553 H 47.9052 4.54128 -2.62427 0
M  V30 554 H 49.3792 5.39989 -1.14523 0
M  V30 555 H 49.8562 4.38673 0.215176 0
M  V30 556 H 50.4622 4.01097 -1.41426 0
M  V30 557 N 48.7773 0.814389 1.34928 0
M  V30 558 C 50.0253 0.397636 1.9815 0
M  V30 559 C 50.3463 -1.04069 1.64908 0
M  V30 560 O 49.6163 -1.72121 0.93548 0
M  V30 561 H 48.1963 0.144043 0.732981 0
M  V30 562 H 50.8583 1.04195 1.6471 0
M  V30 563 H 49.9543 0.509688 3.0791 0
M  V30 564 N 50.2554 -1.46986 0.568584 0
M  V30 565 C 51.2024 -2.30153 -0.172707 0
M  V30 566 C 52.1724 -1.39759 -0.897586 0
M  V30 567 O 53.3574 -1.68716 -0.891044 0
M  V30 568 C 50.4974 -3.23952 -1.1895 0
M  V30 569 C 49.6104 -4.29441 -0.469517 0
M  V30 570 C 48.7454 -5.1038 -1.47259 0
M  V30 571 C 47.7844 -6.07632 -0.738225 0
M  V30 572 N 46.9214 -6.8149 -1.68868 0
M  V30 573 H 51.7614 -2.93019 0.542596 0
M  V30 574 H 49.2984 -1.44422 0.279401 0
M  V30 575 H 51.2564 -3.76767 -1.79173 0
M  V30 576 H 49.8864 -2.62926 -1.87269 0
M  V30 577 H 48.9384 -3.79594 0.247467 0
M  V30 578 H 50.2504 -4.98689 0.105241 0
M  V30 579 H 49.4044 -5.67402 -2.14803 0
M  V30 580 H 48.1434 -4.4106 -2.08128 0
M  V30 581 H 47.1484 -5.49778 -0.0489293 0
M  V30 582 H 48.3734 -6.78966 -0.135129 0
M  V30 583 H 46.3194 -6.14891 -2.28573 0
M  V30 584 H 46.2364 -7.46948 -1.16636 0
M  V30 585 H 47.5044 -7.43078 -2.3549 0
M  V30 586 N 51.7335 -0.305618 -1.54608 0
M  V30 587 C 52.6435 0.57778 -2.27374 0
M  V30 588 C 53.6595 1.14451 -1.31061 0
M  V30 589 O 54.8355 1.16831 -1.6405 0
M  V30 590 C 51.9005 1.73123 -3.00382 0
M  V30 591 C 50.9615 1.19812 -4.12242 0
M  V30 592 C 50.1945 2.2966 -4.81759 0
M  V30 593 O 50.4175 3.49651 -4.50666 0
M  V30 594 O 49.3515 1.96091 -5.69062 0
M  V30 595 H 53.1775 -0.012624 -3.03697 0
M  V30 596 H 50.7625 -0.0719184 -1.49227 0
M  V30 597 H 52.6445 2.40315 -3.4616 0
M  V30 598 H 51.3195 2.30815 -2.26949 0
M  V30 599 H 50.2265 0.491798 -3.70853 0
M  V30 600 H 51.5595 0.666566 -4.87666 0
M  V30 601 N 53.2116 1.57565 -0.0334293 0
M  V30 602 C 54.1746 2.09393 0.932048 0
M  V30 603 C 55.1746 1.00986 1.25134 0
M  V30 604 O 56.3646 1.27129 1.19096 0
M  V30 605 C 53.4966 2.56338 2.2473 0
M  V30 606 H 54.6896 2.95984 0.483085 0
M  V30 607 H 52.2426 1.54819 0.21468 0
M  V30 608 H 52.9776 1.7309 2.74245 0
M  V30 609 H 52.7626 3.35542 2.02865 0
M  V30 610 H 54.2526 2.96646 2.93923 0
M  V30 611 N 54.6897 -0.239769 1.55765 0
M  V30 612 C 55.6527 -1.28038 1.90103 0
M  V30 613 C 56.6527 -1.40723 0.778055 0
M  V30 614 O 57.8427 -1.39301 1.04599 0
M  V30 615 C 54.9747 -2.65702 2.13577 0
M  V30 616 H 56.1677 -0.988048 2.83157 0
M  V30 617 H 53.7207 -0.479382 1.48767 0
M  V30 618 H 54.4557 -3.00063 1.23015 0
M  V30 619 H 54.2407 -2.57875 2.95369 0
M  V30 620 H 55.7307 -3.40828 2.41301 0
M  V30 621 N 56.1678 -1.49265 -0.50573 0
M  V30 622 C 57.0978 -1.68495 -1.61653 0
M  V30 623 C 58.0788 -0.53366 -1.61512 0
M  V30 624 O 59.2638 -0.76897 -1.78327 0
M  V30 625 C 56.3938 -1.74709 -3.00157 0
M  V30 626 C 55.3478 -2.89581 -3.15162 0
M  V30 627 C 54.6738 -2.80903 -4.5497 0
M  V30 628 C 55.9738 -4.30578 -2.95634 0
M  V30 629 H 57.6678 -2.61493 -1.45814 0
M  V30 630 H 55.2138 -1.25838 -0.70005 0
M  V30 631 H 57.1668 -1.86748 -3.77761 0
M  V30 632 H 55.8908 -0.783067 -3.17074 0
M  V30 633 H 54.5498 -2.77136 -2.39982 0
M  V30 634 H 54.1978 -1.82419 -4.68756 0
M  V30 635 H 53.8978 -3.57999 -4.65951 0
M  V30 636 H 55.4218 -2.94944 -5.34641 0
M  V30 637 H 56.8358 -4.4373 -3.63011 0
M  V30 638 H 55.2328 -5.0886 -3.18091 0
M  V30 639 H 56.3028 -4.45352 -1.91806 0
M  V30 640 N 57.6459 0.756429 -1.3826 0
M  V30 641 C 58.8709 1.55077 -1.37717 0
M  V30 642 C 59.2959 1.88073 0.03164 0
M  V30 643 O 58.6539 1.50364 1.01293 0
M  V30 644 C 58.7019 2.8283 -2.23695 0
M  V30 645 O 57.8059 3.77862 -1.6521 0
M  V30 646 H 57.1469 0.469152 -0.469885 0
M  V30 647 H 59.6769 0.935019 -1.81985 0
M  V30 648 H 59.6869 3.31783 -2.37453 0
M  V30 649 H 58.3619 2.58144 -3.2609 0
M  V30 650 H 56.9389 3.36555 -1.60578 0
M  V30 651 N 59.124 1.23083 0.984299 0
M  V30 652 C 60.354 1.08556 1.75781 0
M  V30 653 C 60.762 -0.366171 1.85623 0
M  V30 654 O 60.105 -1.26524 1.33182 0
M  V30 655 C 60.167 1.63208 3.20318 0
M  V30 656 C 59.831 3.11922 3.33997 0
M  V30 657 C 60.828 4.09259 3.2063 0
M  V30 658 C 58.513 3.51552 3.58771 0
M  V30 659 C 60.507 5.4421 3.31835 0
M  V30 660 C 58.194 4.86649 3.69616 0
M  V30 661 C 59.192 5.82787 3.56157 0
M  V30 662 O 58.88 7.15431 3.66626 0
M  V30 663 H 58.612 0.380713 0.5586 0
M  V30 664 H 61.166 1.63321 1.2456 0
M  V30 665 H 59.396 1.0286 3.72769 0
M  V30 666 H 61.085 1.44216 3.79416 0
M  V30 667 H 61.851 3.79984 3.01392 0
M  V30 668 H 57.73 2.77239 3.6832 0
M  V30 669 H 61.274 6.1923 3.21247 0
M  V30 670 H 57.171 5.15601 3.88363 0
M  V30 671 H 57.939 7.23127 3.83445 0
M  V30 672 N 60.6021 -1.18246 1.0419 0
M  V30 673 C 61.8501 -1.87886 0.744543 0
M  V30 674 C 62.1711 -1.8082 -0.730006 0
M  V30 675 O 61.4411 -1.22736 -1.52685 0
M  V30 676 H 60.0211 -0.695556 0.272417 0
M  V30 677 H 62.6831 -1.43494 1.31892 0
M  V30 678 H 61.7791 -2.9389 1.05049 0
M  V30 679 N 62.0802 -0.821533 -1.34494 0
M  V30 680 C 63.3272 -0.408946 -1.98328 0
M  V30 681 C 63.6552 1.02764 -1.65136 0
M  V30 682 O 62.9102 1.73026 -0.914349 0
M  V30 683 C 63.2092 -0.556512 -3.53041 0
M  V30 684 C 62.8752 -1.95861 -4.0614 0
M  V30 685 C 61.5372 -2.34217 -4.20352 0
M  V30 686 C 63.8892 -2.87523 -4.34718 0
M  V30 687 C 61.2172 -3.63572 -4.6047 0
M  V30 688 C 63.5692 -4.1634 -4.76281 0
M  V30 689 C 62.2332 -4.54675 -4.88699 0
M  V30 690 H 61.5032 -0.149644 -0.725732 0
M  V30 691 H 64.1502 -1.04521 -1.6046 0
M  V30 692 H 62.4552 0.163148 -3.9146 0
M  V30 693 H 64.1522 -0.217826 -4.00408 0
M  V30 694 H 60.7422 -1.65066 -3.95539 0
M  V30 695 H 64.9262 -2.59133 -4.23277 0
M  V30 696 H 60.1822 -3.93101 -4.68275 0
M  V30 697 H 64.3562 -4.87455 -4.97354 0
M  V30 698 H 61.9832 -5.54959 -5.19542 0
M  V30 699 N 63.5583 1.46682 -0.576371 0
M  V30 700 C 64.7883 2.06498 -0.0648694 0
M  V30 701 C 65.1963 1.42665 1.24271 0
M  V30 702 O 64.5393 0.523886 1.76071 0
M  V30 703 C 64.6013 3.5904 0.181816 0
M  V30 704 C 64.2653 4.45028 -1.0392 0
M  V30 705 C 65.2623 4.81959 -1.94966 0
M  V30 706 C 62.9473 4.86259 -1.25927 0
M  V30 707 C 64.9413 5.58942 -3.06371 0
M  V30 708 C 62.6283 5.63002 -2.37638 0
M  V30 709 C 63.6263 5.99257 -3.2769 0
M  V30 710 O 63.3143 6.7445 -4.37461 0
M  V30 711 H 63.0463 0.674028 -0.0515987 0
M  V30 712 H 65.6003 1.89393 -0.794951 0
M  V30 713 H 63.8303 3.74429 0.966436 0
M  V30 714 H 65.5193 4.00806 0.641047 0
M  V30 715 H 66.2853 4.50689 -1.79177 0
M  V30 716 H 62.1643 4.57494 -0.567448 0
M  V30 717 H 65.7083 5.87158 -3.76684 0
M  V30 718 H 61.6053 5.93686 -2.53392 0
M  V30 719 H 62.3733 6.92867 -4.35749 0
M  V30 720 N 65.0364 0.313813 1.54444 0
M  V30 721 C 66.2844 -0.291099 1.99993 0
M  V30 722 C 66.6054 -1.53418 1.20366 0
M  V30 723 O 65.8754 -1.93544 0.302927 0
M  V30 724 H 64.4554 -0.110552 0.738774 0
M  V30 725 H 67.1174 0.428106 1.9014 0
M  V30 726 H 66.2134 -0.554268 3.07139 0
M  V30 727 N 66.5145 -1.57545 0.0417849 0
M  V30 728 C 67.7545 -1.94185 -0.63809 0
M  V30 729 C 68.1185 -0.919339 -1.68559 0
M  V30 730 O 69.3195 -1.17236 -2.41886 0
M  V30 731 C 67.5905 -3.35672 -1.22714 0
M  V30 732 S 69.1495 -3.94256 -1.92633 0
M  V30 733 H 65.9675 -0.679353 -0.209764 0
M  V30 734 H 68.5695 -1.95199 0.108479 0
M  V30 735 H 67.2735 -4.07898 -0.452503 0
M  V30 736 H 66.8045 -3.38132 -2.01073 0
M  V30 737 H 68.8195 -3.7872 -3.20602 0
M  V30 738 N 67.9926 0.231505 -1.5589 0
M  V30 739 C 68.9426 1.29007 -1.87993 0
M  V30 740 C 69.9266 1.42764 -0.742102 0
M  V30 741 O 71.1186 1.45747 -1.00433 0
M  V30 742 C 68.2476 2.6425 -2.1915 0
M  V30 743 C 67.3336 2.54435 -3.39299 0
M  V30 744 N 67.7246 2.14262 -4.58176 0
M  V30 745 C 66.0226 2.85416 -3.42715 0
M  V30 746 C 66.7236 2.15455 -5.40328 0
M  V30 747 N 65.6996 2.55558 -4.79783 0
M  V30 748 H 69.5016 0.970213 -2.77424 0
M  V30 749 H 67.0156 0.440097 -1.56323 0
M  V30 750 H 69.0126 3.40665 -2.40319 0
M  V30 751 H 67.6726 2.9709 -1.31025 0
M  V30 752 H 68.6836 1.85554 -4.83518 0
M  V30 753 H 65.3606 3.22693 -2.64906 0
M  V30 754 H 66.7506 1.86605 -6.45467 0
M  V30 755 N 69.4707 1.49531 0.497807 0
M  V30 756 C 70.7107 1.60799 1.26187 0
M  V30 757 C 71.0747 0.289627 1.89803 0
M  V30 758 O 72.2757 0.277512 2.67364 0
M  V30 759 C 70.5467 2.73729 2.29798 0
M  V30 760 S 72.1057 3.04968 3.155 0
M  V30 761 H 68.9237 0.567145 0.428798 0
M  V30 762 H 71.5257 1.87204 0.563477 0
M  V30 763 H 70.2297 3.68036 1.81597 0
M  V30 764 H 69.7607 2.49328 3.04301 0
M  V30 765 H 71.7757 2.46735 4.30507 0
M  V30 766 N 70.9488 -0.749086 1.3866 0
M  V30 767 C 72.1968 -1.50535 1.34847 0
M  V30 768 C 72.5178 -1.94909 -0.0595016 0
M  V30 769 O 71.7878 -1.67973 -1.00806 0
M  V30 770 H 70.3678 -0.558395 0.49619 0
M  V30 771 H 73.0298 -0.890165 1.73384 0
M  V30 772 H 72.1258 -2.39413 2.00219 0
M  V30 773 N 72.4269 -1.23603 -0.977757 0
M  V30 774 C 73.6729 -1.07129 -1.72195 0
M  V30 775 C 74.0059 0.390501 -1.90233 0
M  V30 776 O 73.2809 1.28902 -1.45653 0
M  V30 777 C 73.5639 -1.80031 -3.11867 0
M  V30 778 C 73.4169 -3.33899 -3.01383 0
M  V30 779 C 74.7359 -1.56492 -4.11337 0
M  V30 780 H 71.8549 -0.390571 -0.624999 0
M  V30 781 H 74.4969 -1.52142 -1.13811 0
M  V30 782 H 72.6469 -1.41768 -3.6171 0
M  V30 783 H 74.3189 -3.81699 -2.59043 0
M  V30 784 H 72.5619 -3.62796 -2.37827 0
M  V30 785 H 73.2329 -3.801 -4.00285 0
M  V30 786 H 75.7089 -1.89757 -3.70313 0
M  V30 787 H 74.5849 -2.09973 -5.07151 0
M  V30 788 H 74.8459 -0.500874 -4.39254 0
M  V30 789 N 73.905 1.17692 -1.04816 0
M  V30 790 C 75.153 1.87488 -0.754497 0
M  V30 791 C 75.474 1.81205 0.720407 0
M  V30 792 O 74.744 1.23544 1.52032 0
M  V30 793 H 73.324 0.694101 -0.276102 0
M  V30 794 H 75.986 1.42793 -1.32651 0
M  V30 795 H 75.082 2.93328 -1.06606 0
M  V30 796 N 75.3831 0.828654 1.34056 0
M  V30 797 C 76.6311 0.41863 1.97717 0
M  V30 798 C 76.9521 -1.02314 1.66002 0
M  V30 799 O 76.2221 -1.71119 0.953683 0
M  V30 800 H 74.8021 0.151809 0.731412 0
M  V30 801 H 77.4641 1.05936 1.63596 0
M  V30 802 H 76.5601 0.542318 3.07352 0
M  V30 803 N 76.8612 -1.46375 0.584142 0
M  V30 804 C 78.2772 -1.57694 0.245929 0
M  V30 805 C 78.4772 -1.57903 -1.25175 0
M  V30 806 O 77.5332 -1.49676 -2.03355 0
M  V30 807 C 78.8462 -2.87028 0.896402 0
M  V30 808 C 80.3942 -3.00662 0.870127 0
M  V30 809 C 80.8692 -4.32734 1.50017 0
M  V30 810 N 82.3602 -4.39436 1.46458 0
M  V30 811 C 83.0952 -5.40248 1.92144 0
M  V30 812 N 82.5912 -6.47726 2.4581 0
M  V30 813 N 84.3842 -5.31459 1.83052 0
M  V30 814 H 76.5352 -1.44483 1.55687 0
M  V30 815 H 78.7982 -0.689291 0.650831 0
M  V30 816 H 78.5042 -2.9269 1.95002 0
M  V30 817 H 78.3782 -3.75014 0.405486 0
M  V30 818 H 80.7652 -2.94581 -0.174871 0
M  V30 819 H 80.8462 -2.14148 1.39908 0
M  V30 820 H 80.4902 -4.39573 2.54437 0
M  V30 821 H 80.4202 -5.18025 0.946432 0
M  V30 822 H 82.9112 -3.62367 1.07231 0
M  V30 823 H 83.2242 -7.20863 2.78525 0
M  V30 824 H 81.5692 -6.48542 2.49836 0
M  V30 825 H 84.7602 -4.46396 1.40883 0
M  V30 826 H 84.9332 -6.09881 2.18973 0
M  V30 827 N 78.3393 -0.321999 -1.54275 0
M  V30 828 C 79.5873 0.280489 -2.00144 0
M  V30 829 C 79.9083 1.52777 -1.21178 0
M  V30 830 O 79.1783 1.9338 -0.313187 0
M  V30 831 H 77.7583 0.106632 -0.73935 0
M  V30 832 H 80.4203 -0.438184 -1.8991 0
M  V30 833 H 79.5163 0.537972 -3.07428 0
M  V30 834 N 79.8174 1.5752 -0.0501392 0
M  V30 835 C 81.0424 1.97376 0.636997 0
M  V30 836 C 81.4674 0.927466 1.63645 0
M  V30 837 O 80.8254 -0.10941 1.8097 0
M  V30 838 C 80.8734 3.36304 1.30123 0
M  V30 839 O 79.9774 3.34156 2.41689 0
M  V30 840 H 79.3184 0.642998 0.165679 0
M  V30 841 H 81.8484 2.04258 -0.118233 0
M  V30 842 H 81.8584 3.73008 1.65315 0
M  V30 843 H 80.5334 4.11993 0.568746 0
M  V30 844 H 79.1104 3.09196 2.08451 0
M  V30 845 N 81.2955 -0.223234 1.56011 0
M  V30 846 C 82.7065 -0.790368 1.69145 0
M  V30 847 C 83.0575 -1.85055 0.651845 0
M  V30 848 O 82.1825 -2.15498 -0.197359 0
M  V30 849 C 82.7775 -1.4404 3.06656 0
M  V30 850 C 81.3365 -1.95494 3.2165 0
M  V30 851 C 80.4835 -0.814506 2.65068 0
M  V30 852 H 83.4345 0.00139011 1.587 0
M  V30 853 H 83.4555 -2.30916 3.0242 0
M  V30 854 H 82.9675 -0.668543 3.82298 0
M  V30 855 H 81.0685 -2.75487 2.50874 0
M  V30 856 H 81.1815 -2.13607 4.28846 0
M  V30 857 H 79.5455 -1.22137 2.23505 0
M  V30 858 H 80.3285 -0.0553515 3.43255 0
M  V30 859 N 82.7736 -1.49793 -0.48987 0
M  V30 860 C 83.7206 -1.67281 -1.59014 0
M  V30 861 C 84.6906 -0.514177 -1.57941 0
M  V30 862 O 85.8756 -0.742533 -1.75759 0
M  V30 863 C 83.0156 -1.75569 -2.97102 0
M  V30 864 C 82.1286 -3.0281 -3.08107 0
M  V30 865 C 81.2636 -3.02008 -4.36995 0
M  V30 866 C 80.3026 -4.23782 -4.41673 0
M  V30 867 N 79.4396 -4.20826 -5.62005 0
M  V30 868 H 84.2796 -2.61224 -1.43409 0
M  V30 869 H 81.8166 -1.29508 -0.697565 0
M  V30 870 H 83.7746 -1.78354 -3.77155 0
M  V30 871 H 82.4046 -0.850827 -3.11385 0
M  V30 872 H 81.4566 -3.09584 -2.21047 0
M  V30 873 H 82.7686 -3.92801 -3.07423 0
M  V30 874 H 81.9226 -3.03418 -5.25378 0
M  V30 875 H 80.6616 -2.09815 -4.4026 0
M  V30 876 H 79.6666 -4.22604 -3.5169 0
M  V30 877 H 80.8916 -5.17181 -4.40115 0
M  V30 878 H 78.8376 -3.31476 -5.66091 0
M  V30 879 H 78.7546 -5.04564 -5.62984 0
M  V30 880 H 80.0226 -4.26355 -6.52565 0
M  V30 881 N 84.2517 0.741722 -1.39055 0
M  V30 882 C 85.5287 1.49252 -1.26425 0
M  V30 883 C 85.9087 2.10705 0.129144 0
M  V30 884 O 85.2567 1.98045 1.13976 0
M  V30 885 C 85.4667 2.54934 -2.38347 0
M  V30 886 C 86.8147 3.21506 -2.77343 0
M  V30 887 O 87.8387 2.65245 -2.37747 0
M  V30 888 O 86.6977 4.23294 -3.45665 0
M  V30 889 H 83.7917 0.662451 -0.495064 0
M  V30 890 H 86.3377 0.776121 -1.50912 0
M  V30 891 H 85.1097 2.07857 -3.31529 0
M  V30 892 H 84.7327 3.34141 -2.15489 0
M  V30 893 N 85.7298 1.2412 0.971189 0
M  V30 894 C 86.6928 1.03156 2.04674 0
M  V30 895 C 87.6928 -0.00990322 1.60797 0
M  V30 896 O 88.8828 0.230729 1.72665 0
M  V30 897 C 86.0148 0.562765 3.36223 0
M  V30 898 H 87.2078 1.98614 2.24705 0
M  V30 899 H 84.7608 1.06293 1.14593 0
M  V30 900 H 85.4958 -0.395176 3.21883 0
M  V30 901 H 85.2808 1.31441 3.69413 0
M  V30 902 H 86.7708 0.437015 4.15307 0
M  V30 903 N 87.2079 -1.17134 1.05439 0
M  V30 904 C 88.4359 -1.91372 0.786414 0
M  V30 905 C 88.8509 -1.76955 -0.658202 0
M  V30 906 O 88.2079 -1.10838 -1.44987 0
M  V30 907 C 88.2589 -3.42356 1.1608 0
M  V30 908 O 87.9799 -3.56332 2.54871 0
M  V30 909 C 89.4809 -4.33663 0.919322 0
M  V30 910 H 86.7009 -0.607118 0.285743 0
M  V30 911 H 89.2449 -1.48525 1.40572 0
M  V30 912 H 87.3999 -3.82939 0.586191 0
M  V30 913 H 87.8139 -4.49896 2.69618 0
M  V30 914 H 89.2879 -5.38099 1.231 0
M  V30 915 H 89.7649 -4.38959 -0.145359 0
M  V30 916 H 90.3709 -3.98796 1.47789 0
M  V30 917 N 88.686 -0.835752 -1.33615 0
M  V30 918 C 89.963 -0.352017 -1.92406 0
M  V30 919 C 90.343 1.16225 -1.76224 0
M  V30 920 O 89.691 1.97526 -1.14873 0
M  V30 921 C 89.901 -0.795485 -3.39813 0
M  V30 922 C 91.249 -0.801703 -4.16963 0
M  V30 923 O 92.273 -0.738889 -3.48452 0
M  V30 924 O 91.132 -0.886607 -5.3926 0
M  V30 925 H 88.226 -0.0989641 -0.821057 0
M  V30 926 H 90.772 -0.921397 -1.42507 0
M  V30 927 H 89.544 -1.83795 -3.45449 0
M  V30 928 H 89.167 -0.202505 -3.97084 0
M  V30 929 N 90.1641 1.46063 -0.591896 0
M  V30 930 C 91.5801 1.57561 -0.254288 0
M  V30 931 C 91.7801 1.58565 1.24336 0
M  V30 932 O 90.8361 1.50753 2.02558 0
M  V30 933 C 92.1491 2.86549 -0.911611 0
M  V30 934 C 93.6971 3.00197 -0.886059 0
M  V30 935 C 94.1721 4.31933 -1.5231 0
M  V30 936 N 95.6631 4.38654 -1.48786 0
M  V30 937 C 96.3981 5.39222 -1.95006 0
M  V30 938 N 95.8941 6.46414 -2.49241 0
M  V30 939 N 97.6871 5.3048 -1.85868 0
M  V30 940 H 89.8381 1.43655 -1.56451 0
M  V30 941 H 92.1011 0.68583 -0.654478 0
M  V30 942 H 91.8071 2.91651 -1.96551 0
M  V30 943 H 91.6811 3.74794 -0.425368 0
M  V30 944 H 94.0681 2.9467 0.159246 0
M  V30 945 H 94.1491 2.13403 -1.41041 0
M  V30 946 H 93.7931 4.38217 -2.56765 0
M  V30 947 H 93.7231 5.17516 -0.973891 0
M  V30 948 H 96.2141 3.61793 -1.09151 0
M  V30 949 H 96.5271 7.19376 -2.82344 0
M  V30 950 H 94.8721 6.47208 -2.53272 0
M  V30 951 H 98.0631 4.45643 -1.43248 0
M  V30 952 H 98.2361 6.08711 -2.22204 0
M  V30 953 N 91.6422 0.330177 1.54103 0
M  V30 954 C 92.8822 -0.270916 2.02597 0
M  V30 955 C 93.2462 -1.48826 1.21304 0
M  V30 956 O 94.4472 -2.16266 1.59633 0
M  V30 957 C 92.7182 -0.590328 3.52491 0
M  V30 958 S 94.2772 -1.17014 4.2291 0
M  V30 959 H 91.0952 -0.0815379 0.706309 0
M  V30 960 H 93.6972 0.464835 1.89893 0
M  V30 961 H 92.4012 0.303691 4.09275 0
M  V30 962 H 91.9322 -1.3561 3.69288 0
M  V30 963 H 93.9472 -2.45662 4.3112 0
M  V30 964 N 93.1203 -1.57491 0.0584922 0
M  V30 965 C 94.3603 -1.94851 -0.617458 0
M  V30 966 C 94.7243 -0.937165 -1.67575 0
M  V30 967 O 95.9253 -1.19795 -2.40629 0
M  V30 968 C 94.1963 -3.36955 -1.19147 0
M  V30 969 S 95.7553 -3.96277 -1.8844 0
M  V30 970 H 92.5733 -0.681539 -0.202547 0
M  V30 971 H 95.1753 -1.95073 0.129176 0
M  V30 972 H 93.8793 -4.08355 -0.409215 0
M  V30 973 H 93.4103 -3.40245 -1.97476 0
M  V30 974 H 95.4253 -3.82099 -3.16568 0
M  V30 975 N 94.5984 0.214957 -1.56127 0
M  V30 976 C 95.8444 0.939762 -1.79712 0
M  V30 977 C 96.1774 1.83723 -0.629247 0
M  V30 978 O 95.4524 1.90925 0.371197 0
M  V30 979 C 95.7354 1.77306 -3.13424 0
M  V30 980 C 95.5884 0.90164 -4.40671 0
M  V30 981 C 96.9074 2.74956 -3.43638 0
M  V30 982 H 94.0264 0.340214 -0.653776 0
M  V30 983 H 96.6684 0.20824 -1.88855 0
M  V30 984 H 94.8184 2.39673 -3.0576 0
M  V30 985 H 96.4904 0.294206 -4.60361 0
M  V30 986 H 94.7334 0.207368 -4.33304 0
M  V30 987 H 95.4044 1.51923 -5.30682 0
M  V30 988 H 97.8804 2.22724 -3.51473 0
M  V30 989 H 96.7564 3.30358 -4.38355 0
M  V30 990 H 97.0174 3.53023 -2.66134 0
M  V30 991 N 96.0765 1.50051 0.48192 0
M  V30 992 C 97.3045 1.64237 1.25832 0
M  V30 993 C 97.7195 0.321336 1.86045 0
M  V30 994 O 97.0765 -0.695478 1.68729 0
M  V30 995 C 97.1275 2.72548 2.37487 0
M  V30 996 O 96.8485 3.99529 1.79745 0
M  V30 997 C 98.3495 2.9761 3.28547 0
M  V30 998 H 95.5695 0.55237 0.380957 0
M  V30 999 H 98.1135 1.96207 0.576467 0
M  V30 1000 H 96.2685 2.43303 3.01467 0
M  V30 1001 H 96.6825 4.59342 2.5319 0
M  V30 1002 H 98.1565 3.77084 4.03127 0
M  V30 1003 H 98.6335 2.0826 3.86684 0
M  V30 1004 H 99.2395 3.28345 2.70314 0
M  V30 1005 N 97.5546 -0.734337 1.39446 0
M  V30 1006 C 98.5046 -1.83949 1.34709 0
M  V30 1007 C 99.4886 -1.59279 0.227851 0
M  V30 1008 O 100.681 -1.70771 0.465438 0
M  V30 1009 C 97.8096 -3.21884 1.19356 0
M  V30 1010 C 96.8956 -3.52381 2.35984 0
M  V30 1011 N 97.2866 -3.53811 3.61457 0
M  V30 1012 C 95.5846 -3.82747 2.28956 0
M  V30 1013 C 96.2856 -3.82122 4.38586 0
M  V30 1014 N 95.2616 -3.9993 3.68181 0
M  V30 1015 H 99.0636 -1.83361 2.29687 0
M  V30 1016 H 96.5776 -0.932609 1.32952 0
M  V30 1017 H 98.5746 -4.00998 1.14046 0
M  V30 1018 H 97.2346 -3.23711 0.253295 0
M  V30 1019 H 98.2456 -3.35107 3.94872 0
M  V30 1020 H 94.9226 -3.92175 1.43194 0
M  V30 1021 H 96.3126 -3.89691 5.47349 0
M  V30 1022 N 99.0327 -1.24633 -0.964593 0
M  V30 1023 C 100.31 -0.995809 -1.68354 0
M  V30 1024 C 100.69 0.480964 -2.05548 0
M  V30 1025 O 100.038 1.45599 -1.76105 0
M  V30 1026 C 100.248 -1.92177 -2.91323 0
M  V30 1027 C 101.596 -2.19446 -3.63495 0
M  V30 1028 O 102.62 -1.89855 -3.01386 0
M  V30 1029 O 101.479 -2.69714 -4.75307 0
M  V30 1030 H 98.5727 -0.376854 -0.736146 0
M  V30 1031 H 101.119 -1.35745 -1.0184 0
M  V30 1032 H 99.8907 -2.91938 -2.60553 0
M  V30 1033 H 99.5137 -1.56349 -3.65569 0
M  V30 1034 N 100.511 1.16574 -1.06058 0
M  V30 1035 C 101.751 1.88723 -0.78504 0
M  V30 1036 C 102.115 1.79706 0.676006 0
M  V30 1037 O 103.316 2.46757 1.06603 0
M  V30 1038 C 101.587 3.34338 -1.26304 0
M  V30 1039 S 103.146 4.24366 -1.1162 0
M  V30 1040 H 99.9638 0.651448 -0.284846 0
M  V30 1041 H 102.566 1.40732 -1.35701 0
M  V30 1042 H 101.27 3.38439 -2.32136 0
M  V30 1043 H 100.801 3.87378 -0.685719 0
M  V30 1044 H 102.816 4.96179 -0.0456539 0
M  V30 1045 N 101.989 0.842826 1.3317 0
M  V30 1046 C 103.229 0.446574 1.99462 0
M  V30 1047 C 103.593 -0.976818 1.65295 0
M  V30 1048 O 104.794 -1.477 2.24584 0
M  V30 1049 C 103.065 0.665353 3.51152 0
M  V30 1050 S 104.624 0.364911 4.3728 0
M  V30 1051 H 101.442 0.167803 0.690915 0
M  V30 1052 H 104.044 1.09297 1.62094 0
M  V30 1053 H 102.748 1.7006 3.73507 0
M  V30 1054 H 102.279 0.00494568 3.934 0
M  V30 1055 H 104.294 -0.813761 4.89482 0
M  V30 1056 N 103.467 -1.45747 0.599634 0
M  V30 1057 C 104.697 -2.06369 0.0977132 0
M  V30 1058 C 105.105 -1.44624 -1.21985 0
M  V30 1059 O 104.448 -0.551831 -1.75216 0
M  V30 1060 C 104.51 -3.59284 -0.124673 0
M  V30 1061 C 104.174 -4.43318 1.10987 0
M  V30 1062 C 105.171 -4.78796 2.02609 0
M  V30 1063 C 102.856 -4.84194 1.33647 0
M  V30 1064 C 104.85 -5.53997 3.15224 0
M  V30 1065 C 102.537 -5.5915 2.46565 0
M  V30 1066 C 103.535 -5.93968 3.37182 0
M  V30 1067 O 103.223 -6.67405 4.48136 0
M  V30 1068 H 102.955 -0.673122 0.0623153 0
M  V30 1069 H 105.509 -1.88104 0.824981 0
M  V30 1070 H 103.739 -3.75919 -0.906745 0
M  V30 1071 H 105.428 -4.01775 -0.577201 0
M  V30 1072 H 106.194 -4.47781 1.86325 0
M  V30 1073 H 102.073 -4.56534 0.64016 0
M  V30 1074 H 105.617 -5.81091 3.85978 0
M  V30 1075 H 101.514 -5.89579 2.62805 0
M  V30 1076 H 102.282 -6.85847 4.46717 0
M  V30 1077 N 104.945 -0.338344 -1.53925 0
M  V30 1078 C 105.892 0.520845 -2.24846 0
M  V30 1079 C 106.862 1.09976 -1.24477 0
M  V30 1080 O 108.047 1.13735 -1.53196 0
M  V30 1081 C 105.187 1.6685 -3.02084 0
M  V30 1082 C 104.3 1.11739 -4.17299 0
M  V30 1083 C 103.435 2.23193 -4.82036 0
M  V30 1084 C 102.474 1.65407 -5.89328 0
M  V30 1085 N 101.611 2.70582 -6.47866 0
M  V30 1086 H 106.451 -0.0904881 -2.97863 0
M  V30 1087 H 103.988 -0.0564282 -1.46992 0
M  V30 1088 H 105.946 2.34407 -3.45122 0
M  V30 1089 H 104.576 2.2509 -2.31375 0
M  V30 1090 H 103.628 0.332919 -3.7894 0
M  V30 1091 H 104.94 0.654677 -4.94485 0
M  V30 1092 H 104.094 2.98626 -5.28117 0
M  V30 1093 H 102.833 2.72807 -4.04262 0
M  V30 1094 H 101.838 0.884779 -5.42634 0
M  V30 1095 H 103.063 1.16652 -6.69006 0
M  V30 1096 H 101.009 3.1946 -5.72959 0
M  V30 1097 H 100.926 2.28917 -7.20509 0
M  V30 1098 H 102.194 3.45799 -6.98601 0
M  V30 1099 N 106.423 1.57458 -0.0668435 0
M  V30 1100 C 107.839 1.56947 0.289772 0
M  V30 1101 C 108.039 1.07584 1.70376 0
M  V30 1102 O 107.095 0.739486 2.41429 0
M  V30 1103 C 108.408 3.0052 0.103943 0
M  V30 1104 C 109.956 3.12517 0.173857 0
M  V30 1105 C 110.431 4.57997 0.0163682 0
M  V30 1106 N 111.922 4.63144 0.0721352 0
M  V30 1107 C 112.657 5.73394 -0.0253794 0
M  V30 1108 N 112.153 6.92576 -0.176133 0
M  V30 1109 N 113.946 5.62091 0.0313305 0
M  V30 1110 H 106.097 1.87863 -0.991027 0
M  V30 1111 H 108.36 0.86583 -0.38606 0
M  V30 1112 H 108.066 3.40729 -0.871572 0
M  V30 1113 H 107.94 3.67304 0.858366 0
M  V30 1114 H 110.327 2.72197 1.13985 0
M  V30 1115 H 110.408 2.48381 -0.611586 0
M  V30 1116 H 110.052 4.99005 -0.946374 0
M  V30 1117 H 109.982 5.20158 0.821153 0
M  V30 1118 H 112.473 3.77436 0.187263 0
M  V30 1119 H 112.786 7.72418 -0.242821 0
M  V30 1120 H 111.131 6.94678 -0.211429 0
M  V30 1121 H 114.322 4.67867 0.147773 0
M  V30 1122 H 114.495 6.47982 -0.048121 0
M  V30 1123 N 107.901 -0.206675 1.56239 0
M  V30 1124 C 108.831 -1.25909 1.96645 0
M  V30 1125 C 109.812 -1.48097 0.836734 0
M  V30 1126 O 110.997 -1.6003 1.10019 0
M  V30 1127 C 108.127 -2.6058 2.29599 0
M  V30 1128 C 107.081 -2.53024 3.452 0
M  V30 1129 C 106.407 -3.91861 3.63798 0
M  V30 1130 C 107.707 -2.06524 4.79734 0
M  V30 1131 H 109.401 -0.923369 2.84806 0
M  V30 1132 H 106.947 -0.442735 1.37025 0
M  V30 1133 H 108.9 -3.34375 2.56459 0
M  V30 1134 H 107.624 -2.95869 1.38307 0
M  V30 1135 H 106.283 -1.81684 3.18412 0
M  V30 1136 H 105.931 -4.24483 2.69857 0
M  V30 1137 H 105.631 -3.87683 4.4156 0
M  V30 1138 H 107.155 -4.67296 3.93022 0
M  V30 1139 H 108.569 -2.70072 5.05702 0
M  V30 1140 H 106.966 -2.13374 5.60885 0
M  V30 1141 H 108.036 -1.01802 4.74093 0
M  V30 1142 N 109.379 -1.50304 -0.473955 0
M  V30 1143 C 110.289 -1.7174 -1.5982 0
M  V30 1144 C 111.305 -0.600457 -1.63311 0
M  V30 1145 O 112.481 -0.878441 -1.81233 0
M  V30 1146 C 109.546 -1.80427 -2.96052 0
M  V30 1147 C 108.607 -3.04148 -3.02972 0
M  V30 1148 C 107.84 -3.12411 -4.32706 0
M  V30 1149 O 108.063 -2.27542 -5.23049 0
M  V30 1150 O 106.997 -4.05113 -4.45159 0
M  V30 1151 H 110.823 -2.67035 -1.44657 0
M  V30 1152 H 108.408 -1.34366 -0.653148 0
M  V30 1153 H 110.29 -1.88338 -3.7697 0
M  V30 1154 H 108.965 -0.883156 -3.11419 0
M  V30 1155 H 107.872 -3.0174 -2.21142 0
M  V30 1156 H 109.205 -3.95829 -2.92541 0
M  V30 1157 N 110.857 0.726932 -1.39834 0
M  V30 1158 C 111.804 1.841 -1.39197 0
M  V30 1159 C 112.774 1.642 -0.250502 0
M  V30 1160 O 113.959 1.85494 -0.446846 0
M  V30 1161 C 111.099 3.21697 -1.24919 0
M  V30 1162 C 110.212 3.53247 -2.48678 0
M  V30 1163 C 109.347 4.80289 -2.26928 0
M  V30 1164 C 108.386 5.04707 -3.4632 0
M  V30 1165 N 107.523 6.22956 -3.23836 0
M  V30 1166 H 112.363 1.83979 -2.34427 0
M  V30 1167 H 109.9 0.898876 -1.16442 0
M  V30 1168 H 111.858 4.01137 -1.1465 0
M  V30 1169 H 110.488 3.21076 -0.333153 0
M  V30 1170 H 109.54 2.68447 -2.69519 0
M  V30 1171 H 110.852 3.67205 -3.37582 0
M  V30 1172 H 110.006 5.67725 -2.13947 0
M  V30 1173 H 108.745 4.68519 -1.35431 0
M  V30 1174 H 107.75 4.1573 -3.5979 0
M  V30 1175 H 108.975 5.18357 -4.38729 0
M  V30 1176 H 106.921 6.12459 -2.35011 0
M  V30 1177 H 106.838 6.37539 -4.063 0
M  V30 1178 H 108.106 7.1321 -3.14566 0
M  V30 1179 N 112.336 1.25143 0.95797 0
M  V30 1180 C 113.752 1.01892 1.22842 0
M  V30 1181 C 113.952 -0.266311 1.99732 0
M  V30 1182 O 113.008 -0.979913 2.3271 0
M  V30 1183 C 114.321 2.24004 2.00606 0
M  V30 1184 C 115.869 2.28731 2.13662 0
M  V30 1185 C 116.344 3.5049 2.94823 0
M  V30 1186 N 117.835 3.50866 3.02403 0
M  V30 1187 C 118.57 4.4174 3.65586 0
M  V30 1188 N 118.066 5.42882 4.30408 0
M  V30 1189 N 119.859 4.29429 3.62694 0
M  V30 1190 H 112.01 2.07718 0.443493 0
M  V30 1191 H 114.273 0.912031 0.258657 0
M  V30 1192 H 113.979 3.17395 1.51503 0
M  V30 1193 H 113.853 2.26907 3.01319 0
M  V30 1194 H 116.24 1.35865 2.61963 0
M  V30 1195 H 116.321 2.29848 1.12265 0
M  V30 1196 H 115.965 4.43676 2.47213 0
M  V30 1197 H 115.895 3.46617 3.96439 0
M  V30 1198 H 118.386 2.777 2.56302 0
M  V30 1199 H 118.699 6.0844 4.76467 0
M  V30 1200 H 117.044 5.46758 4.29047 0
M  V30 1201 H 120.235 3.49643 3.11236 0
M  V30 1202 H 120.408 5.00448 4.1165 0
M  V30 1203 N 113.814 -1.1601 1.06675 0
M  V30 1204 C 115.062 -1.86264 0.784229 0
M  V30 1205 C 115.383 -1.82328 -0.691488 0
M  V30 1206 O 114.653 -1.25947 -1.50047 0
M  V30 1207 H 113.233 -0.689621 0.28711 0
M  V30 1208 H 115.895 -1.40664 1.34906 0
M  V30 1209 H 114.991 -2.91595 1.11259 0
M  V30 1210 N 115.292 -0.849877 -1.32721 0
M  V30 1211 C 116.532 -0.457146 -1.99222 0
M  V30 1212 C 116.896 0.968038 -1.6581 0
M  V30 1213 O 118.097 1.46507 -2.25364 0
M  V30 1214 C 116.368 -0.683966 -3.50794 0
M  V30 1215 S 117.927 -0.388095 -4.3708 0
M  V30 1216 H 114.745 -0.171464 -0.690015 0
M  V30 1217 H 117.347 -1.10155 -1.61512 0
M  V30 1218 H 116.051 -1.72038 -3.726 0
M  V30 1219 H 115.582 -0.0258086 -3.93392 0
M  V30 1220 H 117.597 0.787791 -4.89906 0
M  V30 1221 N 116.77 1.45427 -0.607355 0
M  V30 1222 C 118.018 2.01841 -0.102253 0
M  V30 1223 C 118.339 1.47832 1.27164 0
M  V30 1224 O 117.609 0.672497 1.83995 0
M  V30 1225 H 116.189 0.746188 -0.0348101 0
M  V30 1226 H 118.851 1.78229 -0.7887 0
M  V30 1227 H 117.947 3.12057 -0.0518585 0
M  V30 1228 N 118.248 0.346503 1.53744 0
M  V30 1229 C 119.476 -0.25041 2.05379 0
M  V30 1230 C 119.891 -1.43979 1.22129 0
M  V30 1231 O 119.248 -1.80677 0.257321 0
M  V30 1232 C 119.299 -0.662575 3.55376 0
M  V30 1233 O 119.02 0.479515 4.35468 0
M  V30 1234 C 120.521 -1.31989 4.23195 0
M  V30 1235 H 117.741 -0.0478198 0.669294 0
M  V30 1236 H 120.285 0.499346 1.9831 0
M  V30 1237 H 118.44 -1.36227 3.62658 0
M  V30 1238 H 118.854 0.15037 5.24284 0
M  V30 1239 H 120.328 -1.55902 5.29527 0
M  V30 1240 H 120.805 -2.27436 3.75725 0
M  V30 1241 H 121.411 -0.662154 4.20114 0
M  V30 1242 N 119.726 -1.57421 0.075193 0
M  V30 1243 C 120.673 -2.12915 -0.890843 0
M  V30 1244 C 121.643 -1.04252 -1.29309 0
M  V30 1245 O 122.828 -1.31933 -1.37834 0
M  V30 1246 C 119.968 -2.69795 -2.15186 0
M  V30 1247 C 119.081 -3.92624 -1.80194 0
M  V30 1248 C 118.216 -4.37736 -3.00933 0
M  V30 1249 C 117.255 -5.53205 -2.61974 0
M  V30 1250 N 116.392 -5.9326 -3.75483 0
M  V30 1251 H 121.232 -2.95156 -0.410735 0
M  V30 1252 H 118.769 -1.45854 -0.191086 0
M  V30 1253 H 120.727 -3.00883 -2.89008 0
M  V30 1254 H 119.357 -1.90313 -2.60731 0
M  V30 1255 H 118.409 -3.67977 -0.964218 0
M  V30 1256 H 119.721 -4.76482 -1.47534 0
M  V30 1257 H 118.875 -4.70503 -3.8303 0
M  V30 1258 H 117.614 -3.52739 -3.36789 0
M  V30 1259 H 116.619 -5.20086 -1.783 0
M  V30 1260 H 117.844 -6.39936 -2.27284 0
M  V30 1261 H 115.79 -5.11212 -4.11094 0
M  V30 1262 H 115.707 -6.71865 -3.46602 0
M  V30 1263 H 116.975 -6.30651 -4.58148 0
M  V30 1264 N 121.204 0.198386 -1.56346 0
M  V30 1265 C 122.451 0.919286 -1.80431 0
M  V30 1266 C 122.779 1.83393 -0.647866 0
M  V30 1267 O 122.034 1.92236 0.366556 0
M  V30 1268 C 122.333 1.77031 -3.10475 0
M  V30 1269 C 121.999 1.00693 -4.39513 0
M  V30 1270 C 120.661 0.796145 -4.74568 0
M  V30 1271 C 123.013 0.469559 -5.19081 0
M  V30 1272 C 120.341 0.0364588 -5.86689 0
M  V30 1273 C 122.693 -0.2769 -6.31994 0
M  V30 1274 C 121.357 -0.49873 -6.65634 0
M  V30 1275 H 120.627 0.336391 -0.660244 0
M  V30 1276 H 123.274 0.185872 -1.90596 0
M  V30 1277 H 121.579 2.5723 -2.95533 0
M  V30 1278 H 123.276 2.33065 -3.26315 0
M  V30 1279 H 119.866 1.18122 -4.12001 0
M  V30 1280 H 124.05 0.619816 -4.92414 0
M  V30 1281 H 119.306 -0.145412 -6.11227 0
M  V30 1282 H 123.48 -0.700684 -6.92866 0
M  V30 1283 H 121.107 -1.0893 -7.52355 0
M  V30 1284 N 122.682 1.50554 0.465978 0
M  V30 1285 C 123.612 1.72722 1.57128 0
M  V30 1286 C 124.593 0.576294 1.6004 0
M  V30 1287 O 125.778 0.81598 1.76225 0
M  V30 1288 C 122.908 1.82605 2.95419 0
M  V30 1289 C 121.862 2.97835 3.07373 0
M  V30 1290 C 121.188 2.92867 4.47363 0
M  V30 1291 C 122.488 4.38265 2.84114 0
M  V30 1292 H 124.182 2.65267 1.38829 0
M  V30 1293 H 121.728 1.2765 0.666441 0
M  V30 1294 H 123.681 1.96698 3.72677 0
M  V30 1295 H 122.405 0.866858 3.14886 0
M  V30 1296 H 121.064 2.83401 2.3255 0
M  V30 1297 H 120.712 1.94783 4.63755 0
M  V30 1298 H 120.412 3.70227 4.56296 0
M  V30 1299 H 121.936 3.09015 5.26633 0
M  V30 1300 H 123.35 4.53198 3.51118 0
M  V30 1301 H 121.747 5.17115 3.04487 0
M  V30 1302 H 122.817 4.50281 1.7993 0
M  V30 1303 N 124.16 -0.719506 1.40217 0
M  V30 1304 C 125.385 -1.51371 1.4178 0
M  V30 1305 C 125.81 -1.88091 0.0182355 0
M  V30 1306 O 125.168 -1.52997 -0.972707 0
M  V30 1307 C 125.216 -2.768 2.31115 0
M  V30 1308 O 124.32 -3.73349 1.7517 0
M  V30 1309 H 123.661 -0.456529 0.482159 0
M  V30 1310 H 126.191 -0.88644 1.844 0
M  V30 1311 H 126.201 -3.25371 2.46167 0
M  V30 1312 H 124.876 -2.49407 3.3282 0
M  V30 1313 H 123.453 -3.32179 1.69444 0
M  V30 1314 N 125.638 -1.25649 -0.95132 0
M  V30 1315 C 126.868 -1.13179 -1.72841 0
M  V30 1316 C 127.276 0.316827 -1.86528 0
M  V30 1317 O 126.619 1.22948 -1.3649 0
M  V30 1318 C 126.681 -1.71644 -3.15878 0
M  V30 1319 C 126.345 -3.20667 -3.25609 0
M  V30 1320 C 127.342 -4.17616 -3.09666 0
M  V30 1321 C 125.027 -3.6094 -3.49324 0
M  V30 1322 C 127.021 -5.52817 -3.17289 0
M  V30 1323 C 124.708 -4.96278 -3.56584 0
M  V30 1324 C 125.706 -5.92025 -3.40581 0
M  V30 1325 O 125.394 -7.24899 -3.47528 0
M  V30 1326 H 125.126 -0.395389 -0.54831 0
M  V30 1327 H 127.68 -1.66566 -1.20187 0
M  V30 1328 H 125.91 -1.12707 -3.69911 0
M  V30 1329 H 127.599 -1.54225 -3.75459 0
M  V30 1330 H 128.365 -3.87842 -2.91211 0
M  V30 1331 H 124.244 -2.86907 -3.6084 0
M  V30 1332 H 127.788 -6.2753 -3.04716 0
M  V30 1333 H 123.685 -5.25716 -3.74556 0
M  V30 1334 H 124.453 -7.33039 -3.64138 0
M  V30 1335 N 127.117 1.15442 -1.07289 0
M  V30 1336 C 128.064 2.20161 -0.692653 0
M  V30 1337 C 129.034 1.63073 0.31564 0
M  V30 1338 O 130.219 1.89725 0.202235 0
M  V30 1339 C 127.359 3.44967 -0.0959509 0
M  V30 1340 C 126.472 4.16256 -1.15564 0
M  V30 1341 C 125.607 5.28609 -0.524011 0
M  V30 1342 C 124.646 5.91715 -1.56653 0
M  V30 1343 N 123.783 6.9554 -0.957531 0
M  V30 1344 H 128.623 2.52037 -1.59002 0
M  V30 1345 H 126.16 1.2378 -0.794798 0
M  V30 1346 H 128.118 4.16341 0.267628 0
M  V30 1347 H 126.748 3.1361 0.764772 0
M  V30 1348 H 125.8 3.43385 -1.6368 0
M  V30 1349 H 127.112 4.59268 -1.94613 0
M  V30 1350 H 126.266 6.06604 -0.108032 0
M  V30 1351 H 125.005 4.86787 0.29825 0
M  V30 1352 H 124.01 5.12433 -1.9923 0
M  V30 1353 H 125.235 6.35614 -2.39107 0
M  V30 1354 H 123.181 6.55814 -0.156162 0
M  V30 1355 H 123.098 7.36977 -1.68526 0
M  V30 1356 H 124.366 7.77435 -0.567032 0
M  V30 1357 N 128.595 0.856903 1.32268 0
M  V30 1358 C 129.842 0.461386 1.97174 0
M  V30 1359 C 130.17 -0.983491 1.67803 0
M  V30 1360 O 129.425 -1.70541 0.959903 0
M  V30 1361 C 129.724 0.649919 3.51441 0
M  V30 1362 C 129.39 2.0656 4.00804 0
M  V30 1363 C 128.052 2.45279 4.13995 0
M  V30 1364 C 130.404 2.98947 4.26943 0
M  V30 1365 C 127.732 3.75653 4.50668 0
M  V30 1366 C 130.084 4.28822 4.65075 0
M  V30 1367 C 128.748 4.67472 4.76472 0
M  V30 1368 H 128.018 0.168833 0.72151 0
M  V30 1369 H 130.665 1.08739 1.57633 0
M  V30 1370 H 128.97 -0.0593018 3.91755 0
M  V30 1371 H 130.667 0.32391 3.9969 0
M  V30 1372 H 127.257 1.75495 3.91024 0
M  V30 1373 H 131.441 2.70265 4.16258 0
M  V30 1374 H 126.697 4.05379 4.57688 0
M  V30 1375 H 130.871 5.0047 4.84255 0
M  V30 1376 H 128.498 5.68539 5.04646 0
M  V30 1377 N 130.073 -1.45103 0.615059 0
M  V30 1378 C 131.298 -2.07064 0.117988 0
M  V30 1379 C 131.723 -1.4554 -1.19163 0
M  V30 1380 O 131.081 -0.550855 -1.72729 0
M  V30 1381 C 131.129 -3.606 -0.000288387 0
M  V30 1382 O 130.233 -3.98847 -1.04856 0
M  V30 1383 H 129.574 -0.659467 0.0774581 0
M  V30 1384 H 132.104 -1.86236 0.847186 0
M  V30 1385 H 132.114 -4.07529 -0.196091 0
M  V30 1386 H 130.789 -4.04765 0.955932 0
M  V30 1387 H 129.366 -3.63577 -0.828619 0
M  V30 1388 N 131.551 -0.354651 -1.53558 0
M  V30 1389 C 132.499 0.512195 -2.26891 0
M  V30 1390 C 133.493 1.09263 -1.29452 0
M  V30 1391 O 134.699 1.03709 -1.47121 0
M  V30 1392 H 131.074 0.183878 -0.729173 0
M  V30 1393 H 133.045 -0.128202 -2.98124 0
M  V30 1394 C 131.794 1.64563 -3.06291 0
M  V30 1395 H 131.117 1.20829 -3.81104 0
M  V30 1396 H 132.557 2.22711 -3.60799 0
M  V30 1397 C 131.016 2.58158 -2.16462 0
M  V30 1398 O 131.546 3.60695 -1.76811 0
M  V30 1399 N 129.752 2.27096 -1.81317 0
M  V30 1400 H 129.299 1.43751 -2.1376 0
M  V30 1401 H 129.257 2.89975 -1.21498 0
M  V30 1402 N 133.029 1.57378 -0.0835403 0
M  V30 1403 C 134.254 1.98682 0.594987 0
M  V30 1404 C 134.679 0.961969 1.61641 0
M  V30 1405 O 134.037 -0.0709989 1.81161 0
M  V30 1406 C 134.085 3.38988 1.2296 0
M  V30 1407 O 133.189 3.39208 2.34546 0
M  V30 1408 H 132.53 0.646368 0.152002 0
M  V30 1409 H 135.06 2.03961 -0.161533 0
M  V30 1410 H 135.07 3.76431 1.57366 0
M  V30 1411 H 133.745 4.13107 0.481228 0
M  V30 1412 H 132.322 3.13548 2.01846 0
M  V30 1413 N 134.507 -0.190092 1.56449 0
M  V30 1414 C 135.755 -0.907908 1.80559 0
M  V30 1415 C 136.076 -1.83583 0.657438 0
M  V30 1416 O 135.346 -1.93203 -0.323924 0
M  V30 1417 H 133.926 -0.338247 0.666032 0
M  V30 1418 H 136.588 -0.194403 1.93928 0
M  V30 1419 H 135.684 -1.49604 2.73907 0
M  V30 1420 N 135.985 -1.50799 -0.457987 0
M  V30 1421 C 137.21 -1.66496 -1.23668 0
M  V30 1422 C 137.635 -0.353288 -1.84752 0
M  V30 1423 O 136.993 0.684346 -1.67888 0
M  V30 1424 C 137.041 -2.76763 -2.3116 0
M  V30 1425 O 136.145 -2.38928 -3.36136 0
M  V30 1426 H 135.486 -0.555828 -0.363252 0
M  V30 1427 H 138.016 -1.9725 -0.543474 0
M  V30 1428 H 138.026 -3.00232 -2.76269 0
M  V30 1429 H 136.701 -3.71954 -1.86073 0
M  V30 1430 H 135.278 -2.25953 -2.96647 0
M  V30 1431 N 137.463 0.71206 -1.40597 0
M  V30 1432 C 138.879 1.02058 -1.22704 0
M  V30 1433 C 139.079 2.01228 -0.104729 0
M  V30 1434 O 138.135 2.4674 0.53624 0
M  V30 1435 C 139.448 1.56094 -2.57012 0
M  V30 1436 C 140.996 1.6806 -2.64054 0
M  V30 1437 C 141.471 2.25501 -3.9864 0
M  V30 1438 N 142.962 2.32882 -4.004 0
M  V30 1439 C 143.697 2.78317 -5.01325 0
M  V30 1440 N 143.193 3.23478 -6.12645 0
M  V30 1441 N 144.986 2.77733 -4.88693 0
M  V30 1442 H 137.137 0.0547896 -2.12329 0
M  V30 1443 H 139.4 0.0869027 -0.944008 0
M  V30 1444 H 139.106 0.906865 -3.39807 0
M  V30 1445 H 138.98 2.54564 -2.78347 0
M  V30 1446 H 141.367 2.32583 -1.81629 0
M  V30 1447 H 141.448 0.681802 -2.46546 0
M  V30 1448 H 141.092 1.61598 -4.81506 0
M  V30 1449 H 141.022 3.26102 -4.13479 0
M  V30 1450 H 143.513 2.00991 -3.20017 0
M  V30 1451 H 143.826 3.56725 -6.85542 0
M  V30 1452 H 142.171 3.21429 -6.16205 0
M  V30 1453 H 145.362 2.4179 -4.00818 0
M  V30 1454 H 145.535 3.12826 -5.67489 0
M  V30 1455 N 138.941 1.26152 0.944643 0
M  V30 1456 C 140.19 1.10883 1.68487 0
M  V30 1457 C 140.503 -0.348153 1.92477 0
M  V30 1458 O 141.709 -0.621459 2.64292 0
M  V30 1459 C 140.165 1.93624 3.03377 0
M  V30 1460 C 139.773 3.43875 2.87148 0
M  V30 1461 C 141.517 1.86954 3.81115 0
M  V30 1462 C 139.424 4.18875 4.1749 0
M  V30 1463 H 138.354 0.41135 0.631907 0
M  V30 1464 H 141.005 1.50433 1.05082 0
M  V30 1465 H 139.387 1.46904 3.67743 0
M  V30 1466 H 140.561 3.98338 2.31653 0
M  V30 1467 H 138.876 3.51744 2.22856 0
M  V30 1468 H 141.473 2.40275 4.77673 0
M  V30 1469 H 141.816 0.839518 4.07747 0
M  V30 1470 H 142.349 2.31477 3.23517 0
M  V30 1471 H 139.088 5.22332 3.96043 0
M  V30 1472 H 138.608 3.69193 4.72712 0
M  V30 1473 H 140.287 4.27134 4.85968 0
M  V30 1474 N 140.419 -1.14872 1.07899 0
M  V30 1475 C 141.647 -1.89661 0.82683 0
M  V30 1476 C 142.062 -1.78312 -0.620519 0
M  V30 1477 O 141.419 -1.13888 -1.42604 0
M  V30 1478 C 141.47 -3.39817 1.23316 0
M  V30 1479 O 141.191 -3.50845 2.62372 0
M  V30 1480 C 142.692 -4.31615 1.0111 0
M  V30 1481 H 139.912 -0.60092 0.298557 0
M  V30 1482 H 142.456 -1.4551 1.43691 0
M  V30 1483 H 140.611 -3.8161 0.667286 0
M  V30 1484 H 141.025 -4.44076 2.79101 0
M  V30 1485 H 142.499 -5.35367 1.34486 0
M  V30 1486 H 142.976 -4.39169 -0.0522168 0
M  V30 1487 H 143.582 -3.95572 1.56215 0
M  V30 1488 N 141.898 -0.863906 -1.31812 0
M  V30 1489 C 143.138 -0.47825 -1.98726 0
M  V30 1490 C 143.502 0.950397 -1.66828 0
M  V30 1491 O 144.703 1.44109 -2.26905 0
M  V30 1492 C 142.974 -0.721134 -3.50049 0
M  V30 1493 S 144.533 -0.434432 -4.36644 0
M  V30 1494 H 141.351 -0.178773 -0.688158 0
M  V30 1495 H 143.953 -1.11862 -1.60334 0
M  V30 1496 H 142.657 -1.75981 -3.70755 0
M  V30 1497 H 142.188 -0.0675315 -3.93342 0
M  V30 1498 H 144.203 0.735786 -4.90714 0
M  V30 1499 N 143.376 1.44774 -0.622745 0
M  V30 1500 C 144.339 2.29069 0.0774015 0
M  V30 1501 C 145.339 1.4059 0.780461 0
M  V30 1502 O 146.529 1.62551 0.626322 0
M  V30 1503 C 143.661 3.21974 1.12006 0
M  V30 1504 H 144.854 2.92459 -0.663901 0
M  V30 1505 H 142.407 1.51548 -0.382486 0
M  V30 1506 H 143.142 2.63417 1.89162 0
M  V30 1507 H 142.927 3.87168 0.619951 0
M  V30 1508 H 144.417 3.85318 1.60995 0
M  V30 1509 N 144.854 0.36279 1.53368 0
M  V30 1510 C 145.801 -0.485008 2.25646 0
M  V30 1511 C 146.771 -1.07982 1.2621 0
M  V30 1512 O 147.956 -1.11284 1.54986 0
M  V30 1513 C 145.096 -1.62023 3.04701 0
M  V30 1514 C 144.209 -1.05086 4.19024 0
M  V30 1515 C 143.344 -2.15496 4.85525 0
M  V30 1516 C 142.383 -1.5601 5.91884 0
M  V30 1517 N 141.52 -2.60241 6.52088 0
M  V30 1518 H 146.36 0.137864 2.97681 0
M  V30 1519 H 143.897 0.0798061 1.46883 0
M  V30 1520 H 145.855 -2.28887 3.48807 0
M  V30 1521 H 144.485 -2.2138 2.34927 0
M  V30 1522 H 143.537 -0.27259 3.79422 0
M  V30 1523 H 144.849 -0.575926 4.95464 0
M  V30 1524 H 144.003 -2.90186 5.32801 0
M  V30 1525 H 142.742 -2.66341 4.08551 0
M  V30 1526 H 141.747 -0.798338 5.43973 0
M  V30 1527 H 142.972 -1.05994 6.70777 0
M  V30 1528 H 140.918 -3.10304 5.77968 0
M  V30 1529 H 140.835 -2.17426 7.24059 0
M  V30 1530 H 142.103 -3.34641 7.04014 0
M  V30 1531 N 146.332 -1.57332 0.0918853 0
M  V30 1532 C 147.264 -2.10869 -0.898168 0
M  V30 1533 C 148.277 -1.04521 -1.24817 0
M  V30 1534 O 149.466 -1.31977 -1.20184 0
M  V30 1535 C 146.566 -2.57083 -2.2082 0
M  V30 1536 C 145.739 -3.87229 -2.03402 0
M  V30 1537 C 144.798 -4.19324 -3.17889 0
M  V30 1538 O 143.824 -4.88598 -2.91994 0
M  V30 1539 N 145.026 -3.74471 -4.43567 0
M  V30 1540 H 147.791 -2.96439 -0.440943 0
M  V30 1541 H 145.352 -1.61631 -0.0933064 0
M  V30 1542 H 147.344 -2.75602 -2.96354 0
M  V30 1543 H 145.914 -1.76541 -2.57977 0
M  V30 1544 H 145.134 -3.7789 -1.12218 0
M  V30 1545 H 146.422 -4.72379 -1.89038 0
M  V30 1546 H 145.82 -3.18546 -4.67488 0
M  V30 1547 H 144.377 -3.98151 -5.16061 0
M  V30 1548 N 147.81 0.181792 -1.56548 0
M  V30 1549 C 149.087 0.926765 -1.72251 0
M  V30 1550 C 149.467 2.00831 -0.650386 0
M  V30 1551 O 148.815 2.26008 0.336521 0
M  V30 1552 C 149.025 1.50106 -3.1507 0
M  V30 1553 C 150.373 1.97805 -3.75711 0
M  V30 1554 O 151.397 1.59922 -3.18282 0
M  V30 1555 O 150.256 2.67555 -4.76525 0
M  V30 1556 H 147.35 0.435506 -0.703039 0
M  V30 1557 H 149.896 0.170443 -1.68842 0
M  V30 1558 H 148.668 0.72212 -3.84579 0
M  V30 1559 H 148.291 2.32186 -3.22763 0
M  V30 1560 N 149.288 1.51039 0.449983 0
M  V30 1561 C 150.513 1.6715 1.22783 0
M  V30 1562 C 150.938 0.363081 1.84563 0
M  V30 1563 O 150.296 -0.675433 1.68249 0
M  V30 1564 C 150.344 2.77985 2.29689 0
M  V30 1565 O 149.448 2.40707 3.34864 0
M  V30 1566 H 148.789 0.557746 0.360299 0
M  V30 1567 H 151.319 1.97535 0.533005 0
M  V30 1568 H 151.329 3.01693 2.74673 0
M  V30 1569 H 150.004 3.72935 1.84098 0
M  V30 1570 H 148.581 2.27523 2.95445 0
M  V30 1571 N 150.766 -0.704594 1.40972 0
M  V30 1572 C 152.006 -1.47691 1.41304 0
M  V30 1573 C 152.37 -1.91992 0.0178582 0
M  V30 1574 O 153.571 -2.68599 -0.103996 0
M  V30 1575 C 151.842 -2.66254 2.38419 0
M  V30 1576 S 153.401 -3.55516 2.57204 0
M  V30 1577 H 150.219 -0.504808 0.500689 0
M  V30 1578 H 152.821 -0.822962 1.77335 0
M  V30 1579 H 151.525 -2.31897 3.38603 0
M  V30 1580 H 151.056 -3.3655 2.03711 0
M  V30 1581 H 153.071 -4.61115 1.83268 0
M  V30 1582 N 152.244 -1.26651 -0.937939 0
M  V30 1583 C 153.66 -1.03834 -1.21205 0
M  V30 1584 C 153.86 0.234502 -2.00131 0
M  V30 1585 O 152.916 0.942767 -2.3424 0
M  V30 1586 C 154.229 -2.27167 -1.97017 0
M  V30 1587 C 155.777 -2.32101 -2.09996 0
M  V30 1588 C 156.252 -3.55136 -2.8921 0
M  V30 1589 N 157.743 -3.55632 -2.96783 0
M  V30 1590 C 158.478 -4.475 -3.58512 0
M  V30 1591 N 157.974 -5.4966 -4.21717 0
M  V30 1592 N 159.767 -4.35145 -3.55816 0
M  V30 1593 H 151.918 -2.08398 -0.410391 0
M  V30 1594 H 154.181 -0.916031 -0.244114 0
M  V30 1595 H 153.887 -3.19765 -1.46434 0
M  V30 1596 H 153.761 -2.31672 -2.97671 0
M  V30 1597 H 156.148 -1.40015 -2.59769 0
M  V30 1598 H 156.229 -2.31605 -1.08594 0
M  V30 1599 H 155.873 -4.47553 -2.40123 0
M  V30 1600 H 155.803 -3.5288 -3.90875 0
M  V30 1601 H 158.294 -2.81743 -2.51852 0
M  V30 1602 H 158.607 -6.15943 -4.66727 0
M  V30 1603 H 156.952 -5.53514 -4.20294 0
M  V30 1604 H 160.143 -3.5455 -3.05634 0
M  V30 1605 H 160.316 -5.06934 -4.03636 0
M  V30 1606 N 153.722 1.14298 -1.08507 0
M  V30 1607 C 154.947 1.8976 -0.837001 0
M  V30 1608 C 155.372 1.78097 0.605228 0
M  V30 1609 O 154.73 1.12188 1.4242 0
M  V30 1610 C 154.778 3.37685 -1.26495 0
M  V30 1611 O 153.882 4.10281 -0.417514 0
M  V30 1612 H 153.223 0.590365 -0.303917 0
M  V30 1613 H 155.753 1.44672 -1.44676 0
M  V30 1614 H 155.763 3.88501 -1.24625 0
M  V30 1615 H 154.438 3.45492 -2.31534 0
M  V30 1616 H 153.015 3.69536 -0.499722 0
M  V30 1617 N 155.201 0.870884 1.31352 0
M  V30 1618 C 156.133 0.28455 2.27427 0
M  V30 1619 C 157.146 -0.552927 1.53123 0
M  V30 1620 O 158.335 -0.374771 1.74521 0
M  V30 1621 C 155.435 -0.615164 3.3327 0
M  V30 1622 C 154.608 0.190079 4.36987 0
M  V30 1623 C 153.667 -0.637917 5.22319 0
M  V30 1624 O 152.693 -0.065626 5.69162 0
M  V30 1625 N 153.895 -1.94973 5.46778 0
M  V30 1626 H 156.66 1.11017 2.7838 0
M  V30 1627 H 154.221 0.732458 1.44384 0
M  V30 1628 H 156.213 -1.1748 3.87273 0
M  V30 1629 H 154.783 -1.34146 2.82354 0
M  V30 1630 H 154.003 0.931165 3.83044 0
M  V30 1631 H 155.291 0.742579 5.03352 0
M  V30 1632 H 154.689 -2.4378 5.10478 0
M  V30 1633 H 153.246 -2.45713 6.03712 0
M  V30 1634 N 156.679 -1.44442 0.630414 0
M  V30 1635 C 157.609 -2.33418 -0.0618083 0
M  V30 1636 C 158.59 -1.48165 -0.835541 0
M  V30 1637 O 159.775 -1.76886 -0.801564 0
M  V30 1638 C 156.905 -3.31222 -1.04449 0
M  V30 1639 C 155.859 -4.26288 -0.382436 0
M  V30 1640 C 155.185 -5.13954 -1.47497 0
M  V30 1641 C 156.485 -5.1744 0.710865 0
M  V30 1642 H 158.179 -2.91548 0.681184 0
M  V30 1643 H 155.725 -1.40191 0.329026 0
M  V30 1644 H 157.678 -3.92351 -1.53748 0
M  V30 1645 H 156.402 -2.71299 -1.81836 0
M  V30 1646 H 155.061 -3.6649 0.0899054 0
M  V30 1647 H 154.709 -4.50385 -2.2397 0
M  V30 1648 H 154.409 -5.7837 -1.03737 0
M  V30 1649 H 155.933 -5.77955 -1.96979 0
M  V30 1650 H 157.347 -5.72509 0.300996 0
M  V30 1651 H 155.744 -5.90455 1.07156 0
M  V30 1652 H 156.814 -4.58496 1.57829 0
M  V30 1653 N 158.157 -0.370918 -1.53173 0
M  V30 1654 C 159.397 0.217106 -2.03244 0
M  V30 1655 C 159.761 1.45558 -1.25207 0
M  V30 1656 O 160.962 2.11957 -1.65311 0
M  V30 1657 C 159.233 0.496664 -3.53932 0
M  V30 1658 S 160.792 1.0576 -4.25864 0
M  V30 1659 H 157.61 0.0627827 -0.708223 0
M  V30 1660 H 160.212 -0.515019 -1.88594 0
M  V30 1661 H 158.916 -0.412096 -4.08326 0
M  V30 1662 H 158.447 1.25772 -3.72753 0
M  V30 1663 H 160.462 2.34145 -4.37482 0
M  V30 1664 N 159.635 1.57281 -0.100228 0
M  V30 1665 C 160.545 2.17833 0.870965 0
M  V30 1666 C 161.561 1.14921 1.30649 0
M  V30 1667 O 162.737 1.47313 1.37335 0
M  V30 1668 C 159.802 2.75085 2.1102 0
M  V30 1669 C 158.863 3.9297 1.72838 0
M  V30 1670 C 158.096 4.47482 2.90854 0
M  V30 1671 O 158.319 4.00922 4.05731 0
M  V30 1672 O 157.253 5.38433 2.69023 0
M  V30 1673 H 161.079 3.0124 0.38575 0
M  V30 1674 H 158.664 1.48881 0.124397 0
M  V30 1675 H 160.546 3.11656 2.83634 0
M  V30 1676 H 159.221 1.94721 2.58584 0
M  V30 1677 H 158.128 3.61201 0.973883 0
M  V30 1678 H 159.461 4.74713 1.30033 0
M  V30 1679 N 161.113 -0.173488 1.56642 0
M  V30 1680 C 162.353 -0.896984 1.83667 0
M  V30 1681 C 162.717 -1.79523 0.680842 0
M  V30 1682 O 163.918 -2.55616 0.831488 0
M  V30 1683 C 162.189 -1.67351 3.15798 0
M  V30 1684 S 163.748 -2.44607 3.64298 0
M  V30 1685 H 160.566 -0.300464 0.644393 0
M  V30 1686 H 163.168 -0.158775 1.94854 0
M  V30 1687 H 161.872 -1.00462 3.97914 0
M  V30 1688 H 161.403 -2.45313 3.07546 0
M  V30 1689 H 163.418 -3.69261 3.31452 0
M  V30 1690 N 162.591 -1.51276 -0.441967 0
M  V30 1691 C 163.868 -1.54252 -1.20273 0
M  V30 1692 C 164.248 -0.30408 -2.08898 0
M  V30 1693 O 163.596 0.711084 -2.17154 0
M  V30 1694 C 163.806 -2.85406 -2.00859 0
M  V30 1695 C 165.154 -3.37181 -2.58059 0
M  V30 1696 O 166.178 -2.86925 -2.11074 0
M  V30 1697 O 165.037 -4.24858 -3.43741 0
M  V30 1698 H 162.131 -0.619969 -0.547328 0
M  V30 1699 H 164.677 -1.63586 -0.451413 0
M  V30 1700 H 163.449 -3.67003 -1.35736 0
M  V30 1701 H 163.072 -2.79213 -2.83065 0
M  V30 1702 N 164.069 0.697108 -1.41344 0
M  V30 1703 C 165.016 1.81106 -1.43071 0
M  V30 1704 C 165.986 1.63632 -0.285275 0
M  V30 1705 O 167.171 1.84504 -0.486091 0
M  V30 1706 C 164.311 3.18975 -1.31715 0
M  V30 1707 C 163.424 3.47892 -2.56115 0
M  V30 1708 C 162.559 4.75367 -2.37064 0
M  V30 1709 C 161.598 4.97247 -3.56948 0
M  V30 1710 N 160.735 6.15947 -3.36977 0
M  V30 1711 H 165.575 1.78965 -2.38276 0
M  V30 1712 H 163.112 0.873975 -1.18322 0
M  V30 1713 H 165.07 3.98615 -1.23133 0
M  V30 1714 H 163.7 3.20297 -0.401183 0
M  V30 1715 H 162.752 2.62669 -2.75153 0
M  V30 1716 H 164.064 3.59962 -3.45295 0
M  V30 1717 H 163.218 5.63059 -2.25941 0
M  V30 1718 H 161.957 4.65541 -1.45338 0
M  V30 1719 H 160.962 4.08004 -3.68527 0
M  V30 1720 H 162.187 5.08934 -4.49626 0
M  V30 1721 H 160.133 6.07336 -2.47949 0
M  V30 1722 H 160.05 6.28777 -4.19732 0
M  V30 1723 H 161.318 7.06377 -3.29623 0
M  V30 1724 N 165.547 1.27147 0.931209 0
M  V30 1725 C 166.51 1.09615 2.01289 0
M  V30 1726 C 167.51 0.0412581 1.60747 0
M  V30 1727 O 168.7 0.285545 1.71844 0
M  V30 1728 C 165.832 0.669447 3.34262 0
M  V30 1729 H 167.025 2.05662 2.18273 0
M  V30 1730 H 164.578 1.09885 1.11153 0
M  V30 1731 H 165.313 -0.292572 3.22978 0
M  V30 1732 H 165.098 1.43127 3.65044 0
M  V30 1733 H 166.588 0.568921 4.13706 0
M  V30 1734 N 167.025 -1.13721 1.09112 0
M  V30 1735 C 167.988 -2.17222 0.731241 0
M  V30 1736 C 168.988 -1.59035 -0.237566 0
M  V30 1737 O 170.178 -1.74192 -0.0161704 0
M  V30 1738 C 167.31 -3.40804 0.0808443 0
M  V30 1739 H 168.503 -2.50573 1.64783 0
M  V30 1740 H 166.056 -1.28493 0.889897 0
M  V30 1741 H 166.791 -3.1304 -0.847127 0
M  V30 1742 H 166.576 -3.84306 0.777896 0
M  V30 1743 H 168.066 -4.1731 -0.155657 0
M  V30 1744 N 168.503 -0.877838 -1.30888 0
M  V30 1745 C 169.466 -0.344265 -2.266 0
M  V30 1746 C 170.466 0.50922 -1.52524 0
M  V30 1747 O 171.656 0.317398 -1.71284 0
M  V30 1748 C 168.788 0.510198 -3.37061 0
M  V30 1749 H 169.981 -1.1893 -2.7531 0
M  V30 1750 H 167.534 -0.654088 -1.41956 0
M  V30 1751 H 168.269 1.37612 -2.93655 0
M  V30 1752 H 168.054 -0.101047 -3.9197 0
M  V30 1753 H 169.544 0.875537 -4.08319 0
M  V30 1754 N 169.982 1.44106 -0.638065 0
M  V30 1755 C 171.21 2.06336 -0.152615 0
M  V30 1756 C 171.625 1.47731 1.17563 0
M  V30 1757 O 170.982 0.602806 1.72257 0
M  V30 1758 C 171.033 3.61479 -0.0391491 0
M  V30 1759 O 170.754 4.17903 -1.31487 0
M  V30 1760 C 172.255 4.40757 0.474176 0
M  V30 1761 H 169.475 0.665862 -0.0828776 0
M  V30 1762 H 172.019 1.84862 -0.87443 0
M  V30 1763 H 170.174 3.82191 0.633142 0
M  V30 1764 H 170.588 5.11416 -1.16421 0
M  V30 1765 H 172.062 5.49707 0.502562 0
M  V30 1766 H 172.539 4.12697 1.50258 0
M  V30 1767 H 173.145 4.24979 -0.165102 0
M  V30 1768 N 171.46 0.379036 1.52974 0
M  V30 1769 C 172.7 -0.206325 2.03356 0
M  V30 1770 C 173.064 -1.44892 1.25977 0
M  V30 1771 O 174.265 -2.11078 1.66432 0
M  V30 1772 C 172.536 -0.477887 3.54191 0
M  V30 1773 S 174.095 -1.035 4.26419 0
M  V30 1774 H 170.913 -0.0590259 0.708546 0
M  V30 1775 H 173.515 0.525013 1.88319 0
M  V30 1776 H 172.219 0.433745 4.08101 0
M  V30 1777 H 171.75 -1.23793 3.73415 0
M  V30 1778 H 173.765 -2.31821 4.38718 0
M  V30 1779 N 172.938 -1.57226 0.108567 0
M  V30 1780 C 174.185 -1.94833 -0.551943 0
M  V30 1781 C 174.513 -0.991204 -1.67348 0
M  V30 1782 O 173.768 -0.0131878 -1.95696 0
M  V30 1783 C 174.067 -3.38911 -1.13463 0
M  V30 1784 C 173.733 -4.50696 -0.135509 0
M  V30 1785 C 172.395 -4.80998 0.139252 0
M  V30 1786 C 174.747 -5.18333 0.545957 0
M  V30 1787 C 172.075 -5.76259 1.10194 0
M  V30 1788 C 174.427 -6.14627 1.49721 0
M  V30 1789 C 173.091 -6.43327 1.78006 0
M  V30 1790 H 172.361 -0.712944 -0.20197 0
M  V30 1791 H 175.008 -1.90582 0.18726 0
M  V30 1792 H 173.313 -3.39805 -1.95037 0
M  V30 1793 H 175.01 -3.65317 -1.65362 0
M  V30 1794 H 171.6 -4.27087 -0.359846 0
M  V30 1795 H 175.784 -4.95087 0.346842 0
M  V30 1796 H 171.04 -5.96804 1.32795 0
M  V30 1797 H 175.214 -6.66126 2.03099 0
M  V30 1798 H 172.841 -7.1695 2.52759 0
M  V30 1799 N 174.416 0.165178 -1.56732 0
M  V30 1800 C 175.379 1.18822 -1.95995 0
M  V30 1801 C 176.379 1.3685 -0.84431 0
M  V30 1802 O 177.569 1.34152 -1.11126 0
M  V30 1803 C 174.701 2.5521 -2.26011 0
M  V30 1804 H 175.894 0.851825 -2.87548 0
M  V30 1805 H 173.447 0.407857 -1.50885 0
M  V30 1806 H 174.182 2.93852 -1.37191 0
M  V30 1807 H 173.967 2.43489 -3.07336 0
M  V30 1808 H 175.457 3.28927 -2.57288 0
M  V30 1809 N 175.894 1.51508 0.433938 0
M  V30 1810 C 177.31 1.39759 0.770682 0
M  V30 1811 C 177.51 0.482594 1.95636 0
M  V30 1812 O 176.566 -0.0609691 2.52426 0
M  V30 1813 C 177.879 2.81851 1.04787 0
M  V30 1814 C 179.427 2.91025 1.1521 0
M  V30 1815 C 179.902 4.34032 1.46219 0
M  V30 1816 N 181.393 4.37154 1.53136 0
M  V30 1817 C 182.128 5.4484 1.78709 0
M  V30 1818 N 181.624 6.62682 2.02051 0
M  V30 1819 N 183.417 5.32324 1.80519 0
M  V30 1820 H 175.568 2.09548 -0.346892 0
M  V30 1821 H 177.831 0.943446 -0.0928074 0
M  V30 1822 H 177.537 3.50815 0.249304 0
M  V30 1823 H 177.411 3.21386 1.97461 0
M  V30 1824 H 179.798 2.22257 1.94128 0
M  V30 1825 H 179.879 2.54983 0.204281 0
M  V30 1826 H 179.523 5.03351 0.678274 0
M  V30 1827 H 179.453 4.6759 2.42212 0
M  V30 1828 H 181.944 3.52197 1.36987 0
M  V30 1829 H 182.257 7.40543 2.20943 0
M  V30 1830 H 180.602 6.65791 1.99366 0
M  V30 1831 H 183.793 4.39246 1.61805 0
M  V30 1832 H 183.966 6.16328 2.00111 0
M  V30 1833 N 177.372 -0.689602 1.41712 0
M  V30 1834 C 178.32 -1.82475 1.44242 0
M  V30 1835 C 179.314 -1.66354 0.319774 0
M  V30 1836 O 180.52 -1.73143 0.492089 0
M  V30 1837 H 176.895 -0.601416 0.451445 0
M  V30 1838 H 178.866 -1.77458 2.39899 0
M  V30 1839 C 177.615 -3.20535 1.3473 0
M  V30 1840 H 176.938 -3.33559 2.20405 0
M  V30 1841 H 178.378 -4.00023 1.40562 0
M  V30 1842 C 176.837 -3.36846 0.0603281 0
M  V30 1843 O 177.367 -3.91656 -0.892663 0
M  V30 1844 N 175.573 -2.90595 -0.0177039 0
M  V30 1845 H 175.12 -2.46178 0.758572 0
M  V30 1846 H 175.078 -3.01886 -0.878201 0
M  V30 1847 N 178.85 -1.27639 -0.924453 0
M  V30 1848 C 179.797 -1.10644 -2.0255 0
M  V30 1849 C 180.767 -0.00658438 -1.66099 0
M  V30 1850 O 181.952 -0.16952 -1.90045 0
M  V30 1851 C 179.092 -0.76309 -3.36557 0
M  V30 1852 C 178.205 -1.94091 -3.85944 0
M  V30 1853 C 177.34 -1.53914 -5.08413 0
M  V30 1854 C 176.379 -2.68425 -5.50104 0
M  V30 1855 N 175.516 -2.28815 -6.63768 0
M  V30 1856 H 180.356 -2.04858 -2.16419 0
M  V30 1857 H 177.893 -1.01974 -1.06017 0
M  V30 1858 H 179.851 -0.544822 -4.13627 0
M  V30 1859 H 178.481 0.142102 -3.22487 0
M  V30 1860 H 177.533 -2.27162 -3.05125 0
M  V30 1861 H 178.845 -2.7998 -4.12811 0
M  V30 1862 H 177.999 -1.28231 -5.92994 0
M  V30 1863 H 176.738 -0.651391 -4.8333 0
M  V30 1864 H 175.743 -2.94819 -4.64071 0
M  V30 1865 H 176.968 -3.57826 -5.7718 0
M  V30 1866 H 174.914 -1.42495 -6.40337 0
M  V30 1867 H 174.831 -3.08242 -6.90306 0
M  V30 1868 H 176.099 -2.06387 -7.51681 0
M  V30 1869 N 180.328 1.1314 -1.09713 0
M  V30 1870 C 181.556 1.88321 -0.856898 0
M  V30 1871 C 181.971 1.79276 0.592073 0
M  V30 1872 O 181.328 1.16142 1.40774 0
M  V30 1873 C 181.379 3.37812 -1.28706 0
M  V30 1874 O 181.1 3.46627 -2.67921 0
M  V30 1875 C 182.601 4.29952 -1.07964 0
M  V30 1876 H 179.821 0.596094 -0.308079 0
M  V30 1877 H 182.365 1.43205 -1.45988 0
M  V30 1878 H 180.52 3.805 -0.727912 0
M  V30 1879 H 180.934 4.39579 -2.8613 0
M  V30 1880 H 182.408 5.33159 -1.42986 0
M  V30 1881 H 182.885 4.39196 -0.0176577 0
M  V30 1882 H 183.491 3.93036 -1.62489 0
M  V30 1883 N 181.806 0.884767 1.30421 0
M  V30 1884 C 183.034 0.518044 2.0031 0
M  V30 1885 C 183.449 -0.893408 1.66324 0
M  V30 1886 O 182.806 -1.5875 0.900262 0
M  V30 1887 C 182.857 0.682997 3.54989 0
M  V30 1888 O 182.578 2.03888 3.87764 0
M  V30 1889 C 184.079 0.31924 4.42149 0
M  V30 1890 H 181.299 0.200265 0.640418 0
M  V30 1891 H 183.843 1.19001 1.6631 0
M  V30 1892 H 181.998 0.0584052 3.87356 0
M  V30 1893 H 182.412 2.05735 4.82466 0
M  V30 1894 H 183.886 0.485555 5.4986 0
M  V30 1895 H 184.363 -0.742717 4.32875 0
M  V30 1896 H 184.969 0.920147 4.15227 0
M  V30 1897 N 183.284 -1.43765 0.645699 0
M  V30 1898 C 184.514 -2.05953 0.163318 0
M  V30 1899 C 184.922 -1.48432 -1.17322 0
M  V30 1900 O 184.265 -0.607295 -1.73371 0
M  V30 1901 C 184.327 -3.59499 -0.0103065 0
M  V30 1902 C 183.991 -4.39563 1.25035 0
M  V30 1903 C 184.988 -4.72108 2.17739 0
M  V30 1904 C 182.673 -4.79697 1.48983 0
M  V30 1905 C 184.667 -5.43688 3.3269 0
M  V30 1906 C 182.354 -5.51023 2.64229 0
M  V30 1907 C 183.352 -5.8294 3.55908 0
M  V30 1908 O 183.04 -6.5281 4.69142 0
M  V30 1909 H 182.772 -0.670798 0.0836986 0
M  V30 1910 H 185.326 -1.85384 0.884407 0
M  V30 1911 H 183.556 -3.78613 -0.78669 0
M  V30 1912 H 185.245 -4.03408 -0.449087 0
M  V30 1913 H 186.011 -4.41627 2.00476 0
M  V30 1914 H 181.89 -4.54266 0.785078 0
M  V30 1915 H 185.434 -5.68517 4.04269 0
M  V30 1916 H 181.331 -5.8092 2.81429 0
M  V30 1917 H 182.099 -6.71288 4.6831 0
M  V30 1918 N 184.763 -0.387143 -1.52771 0
M  V30 1919 C 185.711 0.463953 -2.27926 0
M  V30 1920 C 186.705 1.06493 -1.31741 0
M  V30 1921 O 187.911 1.00565 -1.49287 0
M  V30 1922 H 184.286 0.16837 -0.732909 0
M  V30 1923 H 186.257 -0.19141 -2.97785 0
M  V30 1924 C 185.006 1.5803 -3.09713 0
M  V30 1925 H 184.329 1.12718 -3.83581 0
M  V30 1926 H 185.769 2.15008 -3.65442 0
M  V30 1927 C 184.228 2.53509 -2.2189 0
M  V30 1928 O 184.758 3.56863 -1.84422 0
M  V30 1929 N 182.964 2.23199 -1.86093 0
M  V30 1930 H 182.511 1.39185 -2.16761 0
M  V30 1931 H 182.469 2.87333 -1.27621 0
M  V30 1932 N 186.241 1.57166 -0.116904 0
M  V30 1933 C 187.188 2.15202 0.83408 0
M  V30 1934 C 188.158 1.07644 1.26499 0
M  V30 1935 O 189.343 1.35541 1.34288 0
M  V30 1936 C 186.483 2.75405 2.07957 0
M  V30 1937 C 185.596 3.97264 1.69721 0
M  V30 1938 C 184.731 4.45561 2.89221 0
M  V30 1939 C 183.77 5.59956 2.47215 0
M  V30 1940 N 182.907 6.03006 3.59622 0
M  V30 1941 H 187.747 2.96141 0.332335 0
M  V30 1942 H 185.284 1.46309 0.152349 0
M  V30 1943 H 187.242 3.08439 2.80929 0
M  V30 1944 H 185.872 1.97159 2.55594 0
M  V30 1945 H 184.924 3.70404 0.866316 0
M  V30 1946 H 186.236 4.80226 1.34849 0
M  V30 1947 H 185.39 4.80493 3.7042 0
M  V30 1948 H 184.129 3.61544 3.27318 0
M  V30 1949 H 183.134 5.2463 1.64448 0
M  V30 1950 H 184.359 6.45738 2.10238 0
M  V30 1951 H 182.305 5.21931 3.97396 0
M  V30 1952 H 182.222 6.80819 3.28667 0
M  V30 1953 H 183.49 6.42576 4.41267 0
M  V30 1954 N 187.719 -0.156864 1.56817 0
M  V30 1955 C 188.666 -1.19394 1.97519 0
M  V30 1956 C 189.636 -1.4322 0.841265 0
M  V30 1957 O 190.821 -1.55719 1.10255 0
M  V30 1958 C 187.961 -2.52483 2.35258 0
M  V30 1959 C 187.074 -2.35914 3.61896 0
M  V30 1960 C 186.209 -3.61969 3.88782 0
M  V30 1961 C 185.248 -3.40395 5.08722 0
M  V30 1962 N 184.385 -4.58556 5.31668 0
M  V30 1963 H 189.225 -0.839845 2.85921 0
M  V30 1964 H 186.762 -0.403264 1.41464 0
M  V30 1965 H 188.72 -3.30071 2.55165 0
M  V30 1966 H 187.35 -2.85859 1.49949 0
M  V30 1967 H 186.402 -1.49429 3.49821 0
M  V30 1968 H 187.714 -2.15926 4.49641 0
M  V30 1969 H 186.868 -4.47989 4.09135 0
M  V30 1970 H 185.607 -3.84951 2.9944 0
M  V30 1971 H 184.612 -2.52763 4.88253 0
M  V30 1972 H 185.837 -3.18822 5.99608 0
M  V30 1973 H 183.783 -4.81729 4.45279 0
M  V30 1974 H 183.7 -4.41535 6.13664 0
M  V30 1975 H 184.968 -5.45817 5.5651 0
M  V30 1976 N 189.197 -1.51736 -0.425897 0
M  V30 1977 C 190.427 -1.68549 -1.19476 0
M  V30 1978 C 190.835 -0.387288 -1.85194 0
M  V30 1979 O 190.178 0.645142 -1.71999 0
M  V30 1980 C 190.24 -2.75275 -2.31223 0
M  V30 1981 C 189.904 -4.17534 -1.8578 0
M  V30 1982 C 190.901 -5.01936 -1.35485 0
M  V30 1983 C 188.586 -4.6369 -1.93123 0
M  V30 1984 C 190.58 -6.30559 -0.931347 0
M  V30 1985 C 188.267 -5.92307 -1.50384 0
M  V30 1986 C 189.265 -6.75569 -1.00473 0
M  V30 1987 O 188.953 -8.0178 -0.583452 0
M  V30 1988 H 188.685 -0.568525 -0.365725 0
M  V30 1989 H 191.239 -1.98982 -0.509444 0
M  V30 1990 H 189.469 -2.40182 -3.03067 0
M  V30 1991 H 191.158 -2.80853 -2.93047 0
M  V30 1992 H 191.924 -4.67475 -1.29197 0
M  V30 1993 H 187.803 -3.98997 -2.30916 0
M  V30 1994 H 191.347 -6.95498 -0.541084 0
M  V30 1995 H 187.244 -6.2628 -1.56346 0
M  V30 1996 H 188.012 -8.1543 -0.708275 0
M  V30 1997 N 190.675 0.682077 -1.42076 0
M  V30 1998 C 191.607 1.80755 -1.40926 0
M  V30 1999 C 192.62 1.59833 -0.309398 0
M  V30 2000 O 193.809 1.69087 -0.572014 0
M  V30 2001 C 190.909 3.17744 -1.17865 0
M  V30 2002 C 190.082 3.65578 -2.40149 0
M  V30 2003 C 189.141 4.81277 -2.12742 0
M  V30 2004 O 188.167 4.92197 -2.85887 0
M  V30 2005 N 189.369 5.69474 -1.12602 0
M  V30 2006 H 192.134 1.82229 -2.37935 0
M  V30 2007 H 189.695 0.864903 -1.36861 0
M  V30 2008 H 191.687 3.9279 -0.9746 0
M  V30 2009 H 190.257 3.11214 -0.294068 0
M  V30 2010 H 189.477 2.81291 -2.76169 0
M  V30 2011 H 190.765 3.94278 -3.21593 0
M  V30 2012 H 190.163 5.63297 -0.520899 0
M  V30 2013 H 188.72 6.44363 -0.981842 0
M  V30 2014 N 192.153 1.28127 0.917671 0
M  V30 2015 C 193.383 1.17722 1.6978 0
M  V30 2016 C 193.791 -0.267261 1.87303 0
M  V30 2017 O 193.134 -1.19286 1.39702 0
M  V30 2018 C 193.196 1.79958 3.11216 0
M  V30 2019 C 192.86 3.29187 3.16993 0
M  V30 2020 C 193.857 4.25679 2.98485 0
M  V30 2021 C 191.542 3.70075 3.39632 0
M  V30 2022 C 193.536 5.61035 3.02521 0
M  V30 2023 C 191.223 5.05557 3.433 0
M  V30 2024 C 192.221 6.00847 3.24764 0
M  V30 2025 O 191.909 7.33859 3.28187 0
M  V30 2026 H 191.641 0.409788 0.537634 0
M  V30 2027 H 194.195 1.69694 1.15728 0
M  V30 2028 H 192.425 1.22475 3.66793 0
M  V30 2029 H 194.114 1.64125 3.71238 0
M  V30 2030 H 194.88 3.95426 2.80826 0
M  V30 2031 H 190.759 2.96373 3.53106 0
M  V30 2032 H 194.303 6.35388 2.87971 0
M  V30 2033 H 190.2 5.35462 3.60486 0
M  V30 2034 H 190.968 7.42436 3.44575 0
M  V30 2035 N 193.631 -1.12557 1.10312 0
M  V30 2036 C 194.861 -1.87592 0.865617 0
M  V30 2037 C 195.269 -1.79851 -0.587389 0
M  V30 2038 O 194.612 -1.16949 -1.41664 0
M  V30 2039 C 194.674 -3.37665 1.23381 0
M  V30 2040 C 194.338 -3.69181 2.69359 0
M  V30 2041 C 195.335 -3.67652 3.67597 0
M  V30 2042 C 193.02 -3.98555 3.05711 0
M  V30 2043 C 195.014 -3.95053 5.00212 0
M  V30 2044 C 192.701 -4.25616 4.38514 0
M  V30 2045 C 193.699 -4.23851 5.35574 0
M  V30 2046 O 193.387 -4.50242 6.65986 0
M  V30 2047 H 193.119 -0.600442 0.310557 0
M  V30 2048 H 195.673 -1.4335 1.47105 0
M  V30 2049 H 193.903 -3.82454 0.571467 0
M  V30 2050 H 195.592 -3.94041 0.973994 0
M  V30 2051 H 196.358 -3.45024 3.40857 0
M  V30 2052 H 192.237 -3.99071 2.30789 0
M  V30 2053 H 195.781 -3.93591 5.75962 0
M  V30 2054 H 191.678 -4.47718 4.64994 0
M  V30 2055 H 192.446 -4.67867 6.71597 0
M  V30 2056 N 195.109 -0.891671 -1.2995 0
M  V30 2057 C 196.334 -0.527932 -2.00568 0
M  V30 2058 C 196.759 0.877969 -1.66353 0
M  V30 2059 O 196.117 1.58301 -0.883762 0
M  V30 2060 C 196.165 -0.717745 -3.53385 0
M  V30 2061 O 195.269 0.233376 -4.11739 0
M  V30 2062 H 194.61 -0.20722 -0.630837 0
M  V30 2063 H 197.14 -1.20105 -1.65638 0
M  V30 2064 H 197.15 -0.619307 -4.03272 0
M  V30 2065 H 195.825 -1.74276 -3.77625 0
M  V30 2066 H 194.402 0.0880706 -3.72796 0
M  V30 2067 N 196.587 1.43421 -0.653314 0
M  V30 2068 C 197.535 2.32546 0.0501531 0
M  V30 2069 C 198.529 1.48617 0.812985 0
M  V30 2070 O 199.735 1.64825 0.723375 0
M  V30 2071 H 196.11 0.751185 0.0350032 0
M  V30 2072 H 198.081 2.89602 -0.719261 0
M  V30 2073 C 196.83 3.32925 1.00279 0
M  V30 2074 H 196.153 3.97532 0.425236 0
M  V30 2075 H 197.593 3.9792 1.46409 0
M  V30 2076 C 196.052 2.63532 2.09886 0
M  V30 2077 O 196.582 2.45092 3.18265 0
M  V30 2078 N 194.788 2.22905 1.86445 0
M  V30 2079 H 194.335 2.38103 0.98309 0
M  V30 2080 H 194.293 1.76805 2.59976 0
M  V30 2081 N 198.065 0.39524 1.52563 0
M  V30 2082 C 199.012 -0.437036 2.26624 0
M  V30 2083 C 199.982 -1.05281 1.28472 0
M  V30 2084 O 201.167 -1.07971 1.57311 0
M  V30 2085 C 198.307 -1.55524 3.08069 0
M  V30 2086 C 197.42 -0.961745 4.21158 0
M  V30 2087 C 196.555 -2.05149 4.89987 0
M  V30 2088 C 195.594 -1.4342 5.95061 0
M  V30 2089 N 194.731 -2.46351 6.57462 0
M  V30 2090 H 199.571 0.200976 2.97322 0
M  V30 2091 H 197.108 0.110944 1.46681 0
M  V30 2092 H 199.066 -2.21437 3.53584 0
M  V30 2093 H 197.696 -2.16348 2.3957 0
M  V30 2094 H 196.748 -0.192048 3.79915 0
M  V30 2095 H 198.06 -0.470701 4.96574 0
M  V30 2096 H 197.214 -2.78819 5.38837 0
M  V30 2097 H 195.953 -2.57615 4.14109 0
M  V30 2098 H 194.958 -0.682774 5.45544 0
M  V30 2099 H 196.183 -0.917416 6.72875 0
M  V30 2100 H 194.129 -2.97975 5.8442 0
M  V30 2101 H 194.046 -2.02019 7.28508 0
M  V30 2102 H 195.314 -3.19633 7.10954 0
M  V30 2103 N 199.544 -1.57102 0.125237 0
M  V30 2104 C 200.494 -2.12202 -0.833936 0
M  V30 2105 C 201.478 -1.04433 -1.22403 0
M  V30 2106 O 202.67 -1.30655 -1.19408 0
M  V30 2107 C 199.799 -2.72994 -2.08157 0
M  V30 2108 C 198.885 -3.87852 -1.71556 0
M  V30 2109 N 199.276 -4.9464 -1.05662 0
M  V30 2110 C 197.574 -3.98153 -2.00973 0
M  V30 2111 C 198.275 -5.74953 -0.883376 0
M  V30 2112 N 197.251 -5.24985 -1.41036 0
M  V30 2113 H 201.053 -2.92141 -0.321035 0
M  V30 2114 H 198.567 -1.62217 -0.0770315 0
M  V30 2115 H 200.564 -3.10816 -2.77847 0
M  V30 2116 H 199.224 -1.9452 -2.59985 0
M  V30 2117 H 200.235 -5.12872 -0.719878 0
M  V30 2118 H 196.912 -3.30728 -2.54804 0
M  V30 2119 H 198.302 -6.70904 -0.365675 0
M  V30 2120 N 201.022 0.148545 -1.56898 0
M  V30 2121 C 202.262 0.86765 -1.85071 0
M  V30 2122 C 202.626 1.78417 -0.709317 0
M  V30 2123 O 203.827 2.54261 -0.872049 0
M  V30 2124 C 202.098 1.62306 -3.1842 0
M  V30 2125 S 203.657 2.3878 -3.68143 0
M  V30 2126 H 200.475 0.290174 -0.649092 0
M  V30 2127 H 203.077 0.127755 -1.95082 0
M  V30 2128 H 201.781 0.941192 -3.99462 0
M  V30 2129 H 201.312 2.4039 -3.1141 0
M  V30 2130 H 203.327 3.63942 -3.37285 0
M  V30 2131 N 202.5 1.5196 0.417844 0
M  V30 2132 C 203.916 1.40569 0.755816 0
M  V30 2133 C 204.116 0.503316 1.95113 0
M  V30 2134 O 203.172 -0.0341925 2.52477 0
M  V30 2135 C 204.485 2.82947 1.01791 0
M  V30 2136 C 206.033 2.92231 1.12116 0
M  V30 2137 C 206.508 4.35559 1.41608 0
M  V30 2138 N 207.999 4.38753 1.48491 0
M  V30 2139 C 208.734 5.46705 1.7292 0
M  V30 2140 N 208.23 6.64788 1.95011 0
M  V30 2141 N 210.023 5.34209 1.74863 0
M  V30 2142 H 202.174 2.09168 -0.369098 0
M  V30 2143 H 204.437 0.942409 -0.102809 0
M  V30 2144 H 204.143 3.5106 0.212081 0
M  V30 2145 H 204.017 3.23462 1.94042 0
M  V30 2146 H 206.404 2.24304 1.9176 0
M  V30 2147 H 206.485 2.55185 0.177225 0
M  V30 2148 H 206.129 5.04042 0.624848 0
M  V30 2149 H 206.059 4.70133 2.37239 0
M  V30 2150 H 208.55 3.5363 1.33244 0
M  V30 2151 H 208.863 7.42845 2.13076 0
M  V30 2152 H 207.208 6.67869 1.92293 0
M  V30 2153 H 210.399 4.40937 1.57137 0
M  V30 2154 H 210.572 6.18415 1.93563 0
M  V30 2155 N 203.978 -0.674533 1.42435 0
M  V30 2156 C 205.226 -1.43175 1.42637 0
M  V30 2157 C 205.547 -1.94951 0.0438992 0
M  V30 2158 O 204.817 -1.7308 -0.917607 0
M  V30 2159 H 203.397 -0.531307 0.525092 0
M  V30 2160 H 206.059 -0.797006 1.77859 0
M  V30 2161 H 205.155 -2.28463 2.12629 0
M  V30 2162 N 205.456 -1.28612 -0.910864 0
M  V30 2163 C 206.681 -1.1891 -1.69927 0
M  V30 2164 C 207.106 0.248372 -1.86453 0
M  V30 2165 O 206.464 1.17961 -1.37676 0
M  V30 2166 C 206.512 -1.89578 -3.06745 0
M  V30 2167 O 205.616 -1.20521 -3.94396 0
M  V30 2168 H 204.957 -0.412632 -0.520222 0
M  V30 2169 H 207.487 -1.69985 -1.1387 0
M  V30 2170 H 207.497 -1.97597 -3.56958 0
M  V30 2171 H 206.172 -2.94136 -2.94035 0
M  V30 2172 H 204.749 -1.20684 -3.52831 0
M  V30 2173 N 206.934 1.1197 -1.10907 0
M  V30 2174 C 208.162 1.87402 -0.876824 0
M  V30 2175 C 208.577 1.79894 0.573025 0
M  V30 2176 O 207.934 1.17629 1.39534 0
M  V30 2177 C 207.985 3.36428 -1.32282 0
M  V30 2178 O 207.706 3.43765 -2.71582 0
M  V30 2179 C 209.207 4.28783 -1.12518 0
M  V30 2180 H 206.427 0.592793 -0.314384 0
M  V30 2181 H 208.971 1.41649 -1.47499 0
M  V30 2182 H 207.126 3.79706 -0.768229 0
M  V30 2183 H 207.54 4.3652 -2.90776 0
M  V30 2184 H 209.014 5.31613 -1.48633 0
M  V30 2185 H 209.491 4.39153 -0.0642394 0
M  V30 2186 H 210.097 3.91291 -1.66648 0
M  V30 2187 N 208.412 0.89855 1.29475 0
M  V30 2188 C 209.823 0.572537 1.77705 0
M  V30 2189 C 210.174 -0.911778 1.73727 0
M  V30 2190 O 209.299 -1.71288 1.32247 0
M  V30 2191 C 209.894 1.03252 3.22683 0
M  V30 2192 C 208.453 0.757687 3.68695 0
M  V30 2193 C 207.6 1.20787 2.49612 0
M  V30 2194 H 210.551 1.08139 1.16153 0
M  V30 2195 H 210.572 0.367307 3.78723 0
M  V30 2196 H 210.084 2.11285 3.25546 0
M  V30 2197 H 208.185 -0.310079 3.71308 0
M  V30 2198 H 208.298 1.35476 4.59547 0
M  V30 2199 H 206.662 0.626888 2.46865 0
M  V30 2200 H 207.445 2.29622 2.55203 0
M  V30 2201 N 209.89 -1.43072 0.660911 0
M  V30 2202 C 211.306 -1.56169 0.329173 0
M  V30 2203 C 211.506 -1.64317 -1.16629 0
M  V30 2204 O 210.562 -1.60245 -1.95135 0
M  V30 2205 C 211.875 -2.81873 1.04729 0
M  V30 2206 C 213.423 -2.95627 1.02828 0
M  V30 2207 C 213.898 -4.24174 1.72744 0
M  V30 2208 N 215.389 -4.31055 1.69545 0
M  V30 2209 C 216.124 -5.29304 2.20511 0
M  V30 2210 N 215.62 -6.33786 2.79799 0
M  V30 2211 N 217.413 -5.21008 2.10966 0
M  V30 2212 H 209.564 -1.36027 1.63127 0
M  V30 2213 H 211.827 -0.653823 0.686454 0
M  V30 2214 H 211.533 -2.81942 2.10242 0
M  V30 2215 H 211.407 -3.72338 0.603702 0
M  V30 2216 H 213.794 -2.95094 -0.0184742 0
M  V30 2217 H 213.875 -2.06431 1.51063 0
M  V30 2218 H 213.519 -4.25467 2.7738 0
M  V30 2219 H 213.449 -5.1228 1.2197 0
M  V30 2220 H 215.94 -3.56174 1.26288 0
M  V30 2221 H 216.253 -7.05086 3.16344 0
M  V30 2222 H 214.598 -6.34387 2.83863 0
M  V30 2223 H 217.789 -4.38301 1.64347 0
M  V30 2224 H 217.962 -5.97416 2.50993 0
M  V30 2225 N 211.368 -0.403325 -1.52352 0
M  V30 2226 C 212.608 0.173946 -2.03659 0
M  V30 2227 C 212.972 1.42869 -1.28267 0
M  V30 2228 O 214.173 2.08403 -1.69769 0
M  V30 2229 C 212.444 0.421478 -3.54906 0
M  V30 2230 S 214.003 0.967027 -4.28012 0
M  V30 2231 H 210.821 0.0477461 -0.709395 0
M  V30 2232 H 213.423 -0.554906 -1.87459 0
M  V30 2233 H 212.127 -0.498616 -4.0736 0
M  V30 2234 H 211.658 1.17837 -3.75337 0
M  V30 2235 H 213.673 2.24812 -4.4235 0
M  V30 2236 O 212.885 1.59156 -0.274172 0
M  V30 2237 H 213.576 1.91425 0.295987 0
M  V30 END ATOM
M  V30 BEGIN BOND
M  V30 END BOND
M  V30 END CTAB
M  END
$$$$
