drugbank_target|Q07785 Cell division control protein 2 homolog (DB02519; DB02733)
 OpenBabel12092120003D

  0  0  0     0  0            999 V3000
M  V30 BEGIN CTAB
M  V30 COUNTS 4699 4750 0 0 0
M  V30 BEGIN ATOM
M  V30 1 H -0.908 1.98254 -0.117106 0
M  V30 2 N 0 1.576 0 0
M  V30 3 C 0.933 2.03868 1.02534 0
M  V30 4 C 1.911 0.928543 1.3348 0
M  V30 5 O 3.095 1.19667 1.45644 0
M  V30 6 C 0.222 2.43627 2.35294 0
M  V30 7 C -0.732 3.65373 2.2001 0
M  V30 8 S 0.101 5.13292 1.52614 0
M  V30 9 C 1.257 5.56322 2.86805 0
M  V30 10 H 1.49 2.90518 0.631377 0
M  V30 11 H -0.977 1.52953 0.210867 0
M  V30 12 H 0.981 2.67203 3.11629 0
M  V30 13 H -0.358 1.57376 2.7183 0
M  V30 14 H -1.165 3.90944 3.18086 0
M  V30 15 H -1.563 3.418 1.51819 0
M  V30 16 H 0.729 5.58782 3.83104 0
M  V30 17 H 1.672 6.56266 2.65933 0
M  V30 18 H 2.08 4.83886 2.90714 0
M  V30 19 N 1.4781 -0.272755 1.55222 0
M  V30 20 C 2.3881 -1.35918 1.91216 0
M  V30 21 C 3.4041 -1.54026 0.809436 0
M  V30 22 O 4.5801 -1.68148 1.10852 0
M  V30 23 C 1.6451 -2.69834 2.17693 0
M  V30 24 C 0.7061 -2.6047 3.41253 0
M  V30 25 C -0.0609 -3.88 3.66458 0
M  V30 26 O 0.1621 -4.88693 2.94169 0
M  V30 27 O -0.9039 -3.88189 4.59992 0
M  V30 28 H 2.9221 -1.0839 2.83699 0
M  V30 29 H 0.5071 -0.471301 1.41771 0
M  V30 30 H 2.3891 -3.49017 2.36147 0
M  V30 31 H 1.0641 -2.97148 1.28392 0
M  V30 32 H -0.0289 -1.79663 3.28134 0
M  V30 33 H 1.3041 -2.38106 4.30774 0
M  V30 34 N 2.9562 -1.48159 -0.537278 0
M  V30 35 C 3.9032 -1.62138 -1.64256 0
M  V30 36 C 4.8732 -0.463668 -1.59497 0
M  V30 37 O 6.0582 -0.686241 -1.78032 0
M  V30 38 C 3.1982 -1.66028 -3.02537 0
M  V30 39 C 2.3112 -2.92855 -3.17585 0
M  V30 40 C 1.4462 -2.87952 -4.46382 0
M  V30 41 C 0.4852 -4.09516 -4.54932 0
M  V30 42 N -0.3778 -4.02733 -5.75109 0
M  V30 43 H 4.4622 -2.56529 -1.51647 0
M  V30 44 H 1.9992 -1.27224 -0.738414 0
M  V30 45 H 3.9572 -1.66265 -3.82638 0
M  V30 46 H 2.5872 -0.751331 -3.13934 0
M  V30 47 H 1.6392 -3.02395 -2.30784 0
M  V30 48 H 2.9512 -3.82822 -3.19764 0
M  V30 49 H 2.1052 -2.8655 -5.34765 0
M  V30 50 H 0.8442 -1.95702 -4.46712 0
M  V30 51 H -0.1508 -4.11201 -3.64957 0
M  V30 52 H 1.0742 -5.02917 -4.56346 0
M  V30 53 H -0.9798 -3.13299 -5.76351 0
M  V30 54 H -1.0628 -4.86397 -5.78752 0
M  V30 55 H 0.2052 -4.05379 -6.65799 0
M  V30 56 N 4.4343 0.785586 -1.36625 0
M  V30 57 C 5.6643 1.5722 -1.34036 0
M  V30 58 C 6.0723 1.89033 0.0795062 0
M  V30 59 O 5.4153 1.50881 1.04789 0
M  V30 60 C 5.4773 2.91759 -2.10041 0
M  V30 61 C 5.1413 2.82654 -3.59104 0
M  V30 62 C 6.1383 2.54634 -4.53274 0
M  V30 63 C 3.8233 3.01111 -4.02042 0
M  V30 64 C 5.8173 2.45177 -5.88359 0
M  V30 65 C 3.5043 2.91276 -5.37216 0
M  V30 66 C 4.5023 2.63348 -6.30188 0
M  V30 67 O 4.1903 2.53514 -7.6288 0
M  V30 68 H 3.9223 0.494177 -0.461265 0
M  V30 69 H 6.4763 0.982632 -1.8037 0
M  V30 70 H 4.7063 3.52781 -1.58375 0
M  V30 71 H 6.3953 3.53059 -2.00261 0
M  V30 72 H 7.1613 2.40073 -4.21414 0
M  V30 73 H 3.0403 3.21854 -3.30047 0
M  V30 74 H 6.5843 2.23299 -6.60896 0
M  V30 75 H 2.4813 3.054 -5.68684 0
M  V30 76 H 3.2493 2.68967 -7.73045 0
M  V30 77 N 5.9124 1.20967 1.01018 0
M  V30 78 C 6.8624 0.93182 2.08089 0
M  V30 79 C 7.8464 -0.110898 1.60517 0
M  V30 80 O 9.0384 0.0973392 1.76732 0
M  V30 81 C 6.1674 0.492719 3.39746 0
M  V30 82 C 5.2534 1.56922 3.94 0
M  V30 83 N 5.6444 2.79312 4.21686 0
M  V30 84 C 3.9424 1.43688 4.2222 0
M  V30 85 C 4.6434 3.48797 4.65527 0
M  V30 86 N 3.6194 2.76224 4.68189 0
M  V30 87 H 7.4214 1.86175 2.27412 0
M  V30 88 H 4.9354 1.10463 1.19045 0
M  V30 89 H 6.9324 0.275044 4.15992 0
M  V30 90 H 5.5924 -0.430509 3.21833 0
M  V30 91 H 6.6034 3.15903 4.10397 0
M  V30 92 H 3.2804 0.578548 4.13472 0
M  V30 93 H 4.6704 4.53561 4.95714 0
M  V30 94 N 7.3905 -1.2043 1.01659 0
M  V30 95 C 8.6385 -1.89423 0.704522 0
M  V30 96 C 8.9595 -1.79231 -0.768197 0
M  V30 97 O 8.2295 -1.1947 -1.55254 0
M  V30 98 H 6.8095 -0.701178 0.257602 0
M  V30 99 H 9.4715 -1.4626 1.28818 0
M  V30 100 H 8.5675 -2.96052 0.987916 0
M  V30 101 N 8.8686 -0.792821 -1.36206 0
M  V30 102 C 9.7986 -0.207853 -2.32573 0
M  V30 103 C 10.7796 0.659055 -1.56813 0
M  V30 104 O 11.9646 0.592176 -1.84951 0
M  V30 105 C 9.0946 0.655449 -3.41059 0
M  V30 106 C 8.0486 -0.111842 -4.27854 0
M  V30 107 C 7.3746 0.872274 -5.27537 0
M  V30 108 C 8.6746 -1.30299 -5.05786 0
M  V30 109 H 10.3686 -1.01294 -2.81744 0
M  V30 110 H 7.9146 -0.48854 -1.3546 0
M  V30 111 H 9.8676 1.07464 -4.07467 0
M  V30 112 H 8.5916 1.49328 -2.90463 0
M  V30 113 H 7.2506 -0.512053 -3.63006 0
M  V30 114 H 6.8986 1.70523 -4.73214 0
M  V30 115 H 6.5986 0.363291 -5.86476 0
M  V30 116 H 8.1226 1.28996 -5.96818 0
M  V30 117 H 9.5366 -0.959379 -5.65216 0
M  V30 118 H 7.9336 -1.7455 -5.74154 0
M  V30 119 H 9.0036 -2.09663 -4.37229 0
M  V30 120 N 10.3467 1.47872 -0.545128 0
M  V30 121 C 11.2567 2.33633 0.212746 0
M  V30 122 C 12.2727 1.4744 0.923983 0
M  V30 123 O 13.4487 1.80393 0.895572 0
M  V30 124 C 10.5137 3.23884 1.23693 0
M  V30 125 C 9.5747 4.25961 0.534417 0
M  V30 126 C 8.8077 5.11899 1.5098 0
M  V30 127 O 9.0307 5.00077 2.7437 0
M  V30 128 O 7.9647 5.92831 1.0409 0
M  V30 129 H 11.7907 2.99714 -0.490416 0
M  V30 130 H 9.3757 1.46235 -0.305871 0
M  V30 131 H 11.2577 3.79666 1.82843 0
M  V30 132 H 9.9327 2.60446 1.92222 0
M  V30 133 H 8.8397 3.73972 -0.0979679 0
M  V30 134 H 10.1727 4.92079 -0.109213 0
M  V30 135 N 11.8248 0.280983 1.55075 0
M  V30 136 C 12.7718 -0.603937 2.22758 0
M  V30 137 C 13.7418 -1.1452 1.20309 0
M  V30 138 O 14.9268 -1.19343 1.48869 0
M  V30 139 C 12.0668 -1.77947 2.95684 0
M  V30 140 C 11.1798 -1.2715 4.12864 0
M  V30 141 C 10.3148 -2.4093 4.7342 0
M  V30 142 C 9.3538 -1.87165 5.82783 0
M  V30 143 N 8.4908 -2.94441 6.37377 0
M  V30 144 H 13.3308 -0.020124 2.97993 0
M  V30 145 H 10.8678 0.00183425 1.471 0
M  V30 146 H 12.8258 -2.47055 3.36184 0
M  V30 147 H 11.4558 -2.33522 2.22861 0
M  V30 148 H 10.5078 -0.473331 3.77444 0
M  V30 149 H 11.8198 -0.837751 4.91715 0
M  V30 150 H 10.9738 -3.18021 5.1667 0
M  V30 151 H 9.7128 -2.87623 3.93859 0
M  V30 152 H 8.7178 -1.08556 5.38976 0
M  V30 153 H 9.9428 -1.41401 6.64216 0
M  V30 154 H 7.8888 -3.40505 5.60707 0
M  V30 155 H 7.8058 -2.55501 7.11516 0
M  V30 156 H 9.0738 -3.71489 6.85285 0
M  V30 157 N 13.3029 -1.57598 0.00835791 0
M  V30 158 C 14.5519 -1.90107 -0.673968 0
M  V30 159 C 14.8649 -0.884275 -1.7447 0
M  V30 160 O 16.0709 -1.09987 -2.48224 0
M  V30 161 C 14.5269 -3.37497 -1.24995 0
M  V30 162 C 14.1349 -4.47491 -0.2136 0
M  V30 163 C 15.8789 -3.79104 -1.90999 0
M  V30 164 C 13.7859 -5.85963 -0.80005 0
M  V30 165 H 12.7159 -0.709393 -0.255495 0
M  V30 166 H 15.3669 -1.83365 0.0702693 0
M  V30 167 H 13.7489 -3.39102 -2.04513 0
M  V30 168 H 14.9229 -4.57414 0.557596 0
M  V30 169 H 13.2379 -4.14956 0.346474 0
M  V30 170 H 15.8349 -4.79901 -2.35795 0
M  V30 171 H 16.1779 -3.1306 -2.74407 0
M  V30 172 H 16.7109 -3.79833 -1.18203 0
M  V30 173 H 13.4499 -6.555 -0.00456708 0
M  V30 174 H 12.9699 -5.79687 -1.54021 0
M  V30 175 H 14.6489 -6.33884 -1.29615 0
M  V30 176 N 14.781 0.264519 -1.55364 0
M  V30 177 C 16.029 0.993021 -1.76021 0
M  V30 178 C 16.35 1.86511 -0.569099 0
M  V30 179 O 15.62 1.91438 0.415735 0
M  V30 180 H 14.2 0.369639 -0.649135 0
M  V30 181 H 16.862 0.286707 -1.9278 0
M  V30 182 H 15.958 1.62502 -2.66457 0
M  V30 183 N 16.2591 1.48442 0.529413 0
M  V30 184 C 17.1691 1.6569 1.66084 0
M  V30 185 C 18.1851 0.539432 1.65427 0
M  V30 186 O 19.3611 0.810572 1.84368 0
M  V30 187 C 16.4261 1.69315 3.02545 0
M  V30 188 C 15.4871 2.92694 3.14052 0
M  V30 189 C 14.7201 2.96137 4.44003 0
M  V30 190 O 14.9431 2.07973 5.31134 0
M  V30 191 O 13.8771 3.88312 4.59888 0
M  V30 192 H 17.7031 2.61483 1.54469 0
M  V30 193 H 15.2881 1.3185 0.702567 0
M  V30 194 H 17.1701 1.74217 3.83701 0
M  V30 195 H 15.8451 0.766966 3.14483 0
M  V30 196 H 14.7521 2.93324 2.32189 0
M  V30 197 H 16.0851 3.84699 3.0703 0
M  V30 198 N 17.7372 -0.778329 1.37039 0
M  V30 199 C 18.9852 -1.53361 1.31623 0
M  V30 200 C 19.3062 -1.94739 -0.100831 0
M  V30 201 O 18.5762 -1.65797 -1.04347 0
M  V30 202 H 17.1562 -0.568794 0.484234 0
M  V30 203 H 19.8182 -0.926742 1.71457 0
M  V30 204 H 18.9142 -2.43606 1.95096 0
M  V30 205 N 19.2153 -1.21501 -1.00376 0
M  V30 206 C 20.4433 -1.059 -1.77744 0
M  V30 207 C 20.8583 0.391125 -1.84704 0
M  V30 208 O 20.2153 1.27133 -1.30933 0
M  V30 209 C 20.2663 -1.65111 -3.21591 0
M  V30 210 O 19.9873 -3.0445 -3.15027 0
M  V30 211 C 21.4883 -1.54637 -4.15454 0
M  V30 212 H 18.7083 -0.371825 -0.558558 0
M  V30 213 H 21.2523 -1.60865 -1.26264 0
M  V30 214 H 19.4073 -1.14235 -3.70175 0
M  V30 215 H 19.8213 -3.3278 -4.0541 0
M  V30 216 H 21.2953 -2.00808 -5.14179 0
M  V30 217 H 21.7723 -0.501022 -4.36333 0
M  V30 218 H 22.3783 -2.04767 -3.72761 0
M  V30 219 N 20.6934 1.19889 -1.02296 0
M  V30 220 C 21.9234 1.93109 -0.734332 0
M  V30 221 C 22.3314 1.75377 0.709889 0
M  V30 222 O 21.6744 1.06912 1.49384 0
M  V30 223 C 21.7364 3.45362 -0.99827 0
M  V30 224 C 21.4004 3.8686 -2.43287 0
M  V30 225 C 22.3974 3.92102 -3.41397 0
M  V30 226 C 20.0824 4.18668 -2.77529 0
M  V30 227 C 22.0764 4.28573 -4.71809 0
M  V30 228 C 19.7634 4.54813 -4.08153 0
M  V30 229 C 20.7614 4.59739 -5.05103 0
M  V30 230 O 20.4494 4.95051 -6.33388 0
M  V30 231 H 20.1814 0.620409 -0.268456 0
M  V30 232 H 22.7354 1.53144 -1.3688 0
M  V30 233 H 20.9654 3.85482 -0.306645 0
M  V30 234 H 22.6544 3.99814 -0.700234 0
M  V30 235 H 23.4204 3.67685 -3.1628 0
M  V30 236 H 19.2994 4.14021 -2.0275 0
M  V30 237 H 22.8434 4.32333 -5.4748 0
M  V30 238 H 18.7404 4.78687 -4.33047 0
M  V30 239 H 19.5084 5.1302 -6.37772 0
M  V30 240 N 22.1715 0.800033 1.35784 0
M  V30 241 C 23.4195 0.376597 1.9856 0
M  V30 242 C 23.7405 -1.05812 1.63795 0
M  V30 243 O 23.0105 -1.73103 0.917171 0
M  V30 244 H 21.5905 0.136261 0.734467 0
M  V30 245 H 24.2525 1.02442 1.65806 0
M  V30 246 H 23.3485 0.477002 3.08433 0
M  V30 247 N 23.6496 -1.47581 0.552962 0
M  V30 248 C 24.8956 -2.02782 0.0273648 0
M  V30 249 C 25.2286 -1.42687 -1.31734 0
M  V30 250 O 24.5036 -0.580897 -1.85623 0
M  V30 251 C 24.7866 -3.60031 -0.0702371 0
M  V30 252 C 24.6396 -4.30566 1.30126 0
M  V30 253 C 25.9586 -4.33028 -0.785771 0
M  V30 254 H 23.0776 -0.736912 0.0114185 0
M  V30 255 H 25.7196 -1.76056 0.714432 0
M  V30 256 H 23.8696 -3.82932 -0.655382 0
M  V30 257 H 25.5416 -4.19018 1.92929 0
M  V30 258 H 23.7846 -3.91086 1.87709 0
M  V30 259 H 24.4556 -5.39114 1.18573 0
M  V30 260 H 26.9316 -4.15095 -0.288982 0
M  V30 261 H 25.8076 -5.42695 -0.823013 0
M  V30 262 H 26.0686 -4.01945 -1.841 0
M  V30 263 N 25.1277 -0.289203 -1.54924 0
M  V30 264 C 26.3737 0.323998 -2.00195 0
M  V30 265 C 26.7067 1.54441 -1.17735 0
M  V30 266 O 25.9817 1.92875 -0.250878 0
M  V30 267 C 26.2647 0.692276 -3.53383 0
M  V30 268 C 26.1177 -0.536457 -4.46589 0
M  V30 269 C 27.4367 1.52335 -4.12895 0
M  V30 270 H 24.5557 0.116289 -0.727768 0
M  V30 271 H 27.1977 -0.398954 -1.85764 0
M  V30 272 H 25.3477 1.30822 -3.65811 0
M  V30 273 H 27.0197 -1.17499 -4.46085 0
M  V30 274 H 25.2627 -1.17192 -4.1767 0
M  V30 275 H 25.9337 -0.234806 -5.515 0
M  V30 276 H 28.4097 1.00302 -4.0383 0
M  V30 277 H 27.2857 1.74982 -5.20262 0
M  V30 278 H 27.5467 2.50886 -3.64018 0
M  V30 279 N 26.6058 1.57591 -0.0167156 0
M  V30 280 C 27.8358 1.95292 0.674149 0
M  V30 281 C 28.2438 0.891097 1.66901 0
M  V30 282 O 27.5868 -0.136908 1.83189 0
M  V30 283 C 27.6488 3.29072 1.44747 0
M  V30 284 C 27.3128 4.52879 0.612331 0
M  V30 285 C 28.3098 5.1979 -0.107126 0
M  V30 286 C 25.9948 4.99242 0.553381 0
M  V30 287 C 27.9888 6.31375 -0.874339 0
M  V30 288 C 25.6758 6.10713 -0.217546 0
M  V30 289 C 26.6738 6.76637 -0.930123 0
M  V30 290 O 26.3618 7.85969 -1.68844 0
M  V30 291 H 26.0938 0.648275 0.191615 0
M  V30 292 H 28.6478 2.05284 -0.0690148 0
M  V30 293 H 26.8778 3.15535 2.2355 0
M  V30 294 H 28.5668 3.51764 2.02526 0
M  V30 295 H 29.3328 4.84948 -0.0708392 0
M  V30 296 H 25.2118 4.47744 1.09757 0
M  V30 297 H 28.7558 6.82764 -1.43106 0
M  V30 298 H 24.6528 6.44994 -0.255593 0
M  V30 299 H 25.4208 8.02571 -1.6069 0
M  V30 300 N 28.0839 -0.256276 1.55502 0
M  V30 301 C 29.0309 -1.31714 1.89526 0
M  V30 302 C 30.0009 -1.4828 0.748479 0
M  V30 303 O 31.1859 -1.62416 1.00128 0
M  V30 304 C 28.3259 -2.66933 2.18725 0
M  V30 305 C 27.4389 -2.58452 3.4616 0
M  V30 306 C 26.5739 -3.85961 3.64976 0
M  V30 307 C 25.6129 -3.72059 4.86044 0
M  V30 308 N 24.7499 -4.9144 5.01429 0
M  V30 309 H 29.5899 -1.01998 2.80001 0
M  V30 310 H 27.1269 -0.492413 1.38613 0
M  V30 311 H 29.0849 -3.4563 2.33657 0
M  V30 312 H 27.7149 -2.94816 1.31466 0
M  V30 313 H 26.7669 -1.71374 3.3961 0
M  V30 314 H 28.0789 -2.44085 4.34999 0
M  V30 315 H 27.2329 -4.73101 3.79816 0
M  V30 316 H 25.9719 -4.03215 2.74353 0
M  V30 317 H 24.9769 -2.83302 4.7119 0
M  V30 318 H 26.2019 -3.56309 5.78118 0
M  V30 319 H 24.1479 -5.09072 4.13741 0
M  V30 320 H 24.0649 -4.79668 5.84341 0
M  V30 321 H 25.3329 -5.80104 5.20672 0
M  V30 322 N 29.562 -1.4872 -0.521534 0
M  V30 323 C 30.525 -1.63379 -1.60748 0
M  V30 324 C 31.525 -0.50661 -1.52611 0
M  V30 325 O 32.715 -0.772601 -1.5613 0
M  V30 326 C 29.847 -1.61192 -3.00383 0
M  V30 327 H 31.04 -2.60217 -1.49087 0
M  V30 328 H 28.593 -1.37444 -0.744235 0
M  V30 329 H 29.328 -0.65863 -3.17541 0
M  V30 330 H 29.113 -2.43032 -3.07698 0
M  V30 331 H 30.603 -1.7466 -3.7932 0
M  V30 332 N 31.0401 0.771051 -1.3745 0
M  V30 333 C 31.9721 1.89352 -1.29146 0
M  V30 334 C 32.9851 1.61477 -0.207124 0
M  V30 335 O 34.1741 1.72382 -0.463324 0
M  V30 336 C 31.2741 3.24596 -0.974195 0
M  V30 337 C 30.4471 3.80111 -2.16413 0
M  V30 338 C 29.5061 4.93832 -1.81703 0
M  V30 339 O 28.5321 5.09382 -2.54006 0
M  V30 340 N 29.7341 5.75483 -0.761573 0
M  V30 341 H 32.4991 1.96991 -2.25864 0
M  V30 342 H 30.0601 0.950191 -1.31084 0
M  V30 343 H 32.0521 3.98193 -0.722828 0
M  V30 344 H 30.6221 3.12454 -0.0955527 0
M  V30 345 H 29.8421 2.98284 -2.57721 0
M  V30 346 H 31.1301 4.13932 -2.95867 0
M  V30 347 H 30.5281 5.65469 -0.161609 0
M  V30 348 H 29.0851 6.49302 -0.570064 0
M  V30 349 N 32.5182 1.22032 0.997298 0
M  V30 350 C 33.4662 0.983634 2.10778 0
M  V30 351 C 34.4602 -0.0717564 1.69248 0
M  V30 352 O 35.6662 0.080304 1.79821 0
M  V30 353 H 32.0412 0.300877 0.689186 0
M  V30 354 H 34.0122 1.92606 2.27916 0
M  V30 355 C 32.7612 0.57326 3.42942 0
M  V30 356 H 32.0842 1.37702 3.75338 0
M  V30 357 H 33.5242 0.447031 4.21637 0
M  V30 358 C 31.9832 -0.7167 3.29188 0
M  V30 359 O 32.5132 -1.77027 3.60589 0
M  V30 360 N 30.7192 -0.686167 2.82383 0
M  V30 361 H 30.2662 0.171507 2.57028 0
M  V30 362 H 30.2242 -1.54955 2.73562 0
M  V30 363 N 33.9963 -1.19345 1.0293 0
M  V30 364 C 34.9443 -2.24621 0.604001 0
M  V30 365 C 35.9383 -1.65452 -0.363587 0
M  V30 366 O 37.1443 -1.78497 -0.23212 0
M  V30 367 H 33.5193 -0.730858 0.177061 0
M  V30 368 H 35.4903 -2.5781 1.50255 0
M  V30 369 C 34.2393 -3.47688 -0.0289127 0
M  V30 370 H 33.5623 -3.93505 0.706651 0
M  V30 371 H 35.0023 -4.23011 -0.289432 0
M  V30 372 C 33.4613 -3.11817 -1.2756 0
M  V30 373 O 33.9913 -3.2451 -2.36762 0
M  V30 374 N 32.1973 -2.66246 -1.16453 0
M  V30 375 H 31.7443 -2.56118 -0.275914 0
M  V30 376 H 31.7023 -2.42617 -1.99961 0
M  V30 377 N 35.4744 -0.807222 -1.35358 0
M  V30 378 C 36.7044 -0.399796 -2.02695 0
M  V30 379 C 37.1124 0.994176 -1.60974 0
M  V30 380 O 36.4554 1.65209 -0.803226 0
M  V30 381 C 36.5174 -0.404445 -3.57218 0
M  V30 382 C 36.1814 -1.74904 -4.22206 0
M  V30 383 C 37.1784 -2.70743 -4.4384 0
M  V30 384 C 34.8634 -2.03322 -4.5931 0
M  V30 385 C 36.8574 -3.93183 -5.01683 0
M  V30 386 C 34.5444 -3.26026 -5.16866 0
M  V30 387 C 35.5424 -4.20774 -5.37994 0
M  V30 388 O 35.2304 -5.41312 -5.94337 0
M  V30 389 H 34.9624 -0.160517 -0.656666 0
M  V30 390 H 37.5164 -1.09235 -1.73945 0
M  V30 391 H 35.7464 0.344707 -3.85161 0
M  V30 392 H 37.4354 -0.0192429 -4.05895 0
M  V30 393 H 38.2014 -2.5008 -4.15554 0
M  V30 394 H 34.0804 -1.30384 -4.42178 0
M  V30 395 H 37.6244 -4.6715 -5.1809 0
M  V30 396 H 33.5214 -3.46559 -5.44579 0
M  V30 397 H 34.2894 -5.42618 -6.12787 0
M  V30 398 N 36.9525 1.47285 -0.560781 0
M  V30 399 C 38.2005 2.02064 -0.0379868 0
M  V30 400 C 38.5215 1.43711 1.31803 0
M  V30 401 O 37.7915 0.61362 1.86042 0
M  V30 402 H 36.3715 0.746918 -0.0110531 0
M  V30 403 H 39.0335 1.80648 -0.731598 0
M  V30 404 H 38.1295 3.12064 0.0474463 0
M  V30 405 N 38.4306 0.297415 1.54768 0
M  V30 406 C 39.3406 -0.58983 2.27064 0
M  V30 407 C 40.3566 -1.15144 1.30453 0
M  V30 408 O 41.5326 -1.17699 1.63428 0
M  V30 409 C 38.5976 -1.74714 2.9946 0
M  V30 410 C 37.6586 -1.21997 4.11601 0
M  V30 411 C 36.8916 -2.32212 4.80535 0
M  V30 412 O 37.1146 -3.52036 4.48806 0
M  V30 413 O 36.0486 -1.99106 5.68014 0
M  V30 414 H 39.8746 -0.00348199 3.037 0
M  V30 415 H 37.4596 0.0640035 1.49263 0
M  V30 416 H 39.3416 -2.42147 3.44881 0
M  V30 417 H 38.0166 -2.32016 2.25722 0
M  V30 418 H 36.9236 -0.511458 3.70587 0
M  V30 419 H 38.2566 -0.692419 4.87305 0
M  V30 420 N 39.9087 -1.5758 0.0250728 0
M  V30 421 C 41.1367 -1.9593 -0.664747 0
M  V30 422 C 41.5517 -0.901352 -1.65895 0
M  V30 423 O 40.9087 0.117255 -1.82123 0
M  V30 424 C 40.9597 -3.34342 -1.37468 0
M  V30 425 O 40.6807 -4.36079 -0.420324 0
M  V30 426 C 42.1817 -3.873 -2.1567 0
M  V30 427 H 39.4017 -0.645405 -0.183557 0
M  V30 428 H 41.9457 -2.04329 0.0836372 0
M  V30 429 H 40.1007 -3.27175 -2.0745 0
M  V30 430 H 40.5147 -5.16297 -0.923991 0
M  V30 431 H 41.9887 -4.86504 -2.60803 0
M  V30 432 H 42.4657 -3.21331 -2.99405 0
M  V30 433 H 43.0717 -3.97723 -1.50654 0
M  V30 434 N 41.3868 0.248026 -1.55636 0
M  V30 435 C 42.6338 0.976224 -1.77415 0
M  V30 436 C 42.9618 1.85361 -0.589193 0
M  V30 437 O 42.2168 1.90973 0.427529 0
M  V30 438 C 42.5158 1.86819 -3.04686 0
M  V30 439 C 42.1818 1.14625 -4.36087 0
M  V30 440 C 40.8438 0.946723 -4.71795 0
M  V30 441 C 43.1958 0.634463 -5.17324 0
M  V30 442 C 40.5238 0.223091 -5.86276 0
M  V30 443 C 42.8758 -0.0756959 -6.32555 0
M  V30 444 C 41.5398 -0.286711 -6.66884 0
M  V30 445 H 40.8098 0.357226 -0.649208 0
M  V30 446 H 43.4568 0.246415 -1.89908 0
M  V30 447 H 41.7618 2.66502 -2.872 0
M  V30 448 H 43.4588 2.43329 -3.18735 0
M  V30 449 H 40.0488 1.3117 -4.08035 0
M  V30 450 H 44.2328 0.77616 -4.90193 0
M  V30 451 H 39.4888 0.0491185 -6.1138 0
M  V30 452 H 43.6628 -0.479899 -6.94745 0
M  V30 453 H 41.2898 -0.849389 -7.5544 0
M  V30 454 N 42.8649 1.48995 0.513639 0
M  V30 455 C 43.8279 1.64229 1.59879 0
M  V30 456 C 44.8279 0.514696 1.5234 0
M  V30 457 O 46.0179 0.78087 1.55718 0
M  V30 458 C 43.1499 1.62783 2.99524 0
M  V30 459 H 44.3429 2.61004 1.47705 0
M  V30 460 H 41.8959 1.37837 0.736936 0
M  V30 461 H 42.6309 0.675461 3.17188 0
M  V30 462 H 42.4159 2.4466 3.06404 0
M  V30 463 H 43.9059 1.76669 3.78388 0
M  V30 464 N 44.343 -0.763751 1.37857 0
M  V30 465 C 45.273 -1.89103 1.36975 0
M  V30 466 C 46.254 -1.68439 0.237152 0
M  V30 467 O 47.439 -1.8918 0.438713 0
M  V30 468 C 44.569 -3.26496 1.18395 0
M  V30 469 C 43.523 -3.61741 2.28751 0
M  V30 470 C 42.849 -4.97762 1.95286 0
M  V30 471 C 44.149 -3.67665 3.70972 0
M  V30 472 H 45.843 -1.90099 2.31307 0
M  V30 473 H 43.389 -0.91319 1.11341 0
M  V30 474 H 45.342 -4.05003 1.16406 0
M  V30 475 H 44.066 -3.25955 0.205215 0
M  V30 476 H 42.725 -2.85547 2.29909 0
M  V30 477 H 42.373 -4.93769 0.959221 0
M  V30 478 H 42.073 -5.22313 2.69189 0
M  V30 479 H 43.597 -5.7866 1.94898 0
M  V30 480 H 45.011 -4.36307 3.719 0
M  V30 481 H 43.408 -4.03718 4.43995 0
M  V30 482 H 44.478 -2.68134 4.0402 0
M  V30 483 N 45.8211 -1.22559 -0.990812 0
M  V30 484 C 46.7681 -0.997519 -2.0813 0
M  V30 485 C 47.7381 0.0814702 -1.659 0
M  V30 486 O 48.9231 -0.0685424 -1.90677 0
M  V30 487 C 46.0631 -0.583615 -3.40129 0
M  V30 488 C 45.1761 -1.7336 -3.9569 0
M  V30 489 C 44.3111 -1.26748 -5.15857 0
M  V30 490 C 43.3501 -2.38888 -5.63559 0
M  V30 491 N 42.4871 -1.93308 -6.74964 0
M  V30 492 H 47.3271 -1.93099 -2.26973 0
M  V30 493 H 44.8641 -0.962114 -1.11273 0
M  V30 494 H 46.8221 -0.324801 -4.15934 0
M  V30 495 H 45.4521 0.312845 -3.2128 0
M  V30 496 H 44.5041 -2.10669 -3.16738 0
M  V30 497 H 45.8161 -2.57704 -4.27071 0
M  V30 498 H 44.9701 -0.966173 -5.98957 0
M  V30 499 H 43.7091 -0.394272 -4.86104 0
M  V30 500 H 42.7141 -2.69805 -4.79046 0
M  V30 501 H 43.9391 -3.26728 -5.95336 0
M  V30 502 H 41.8851 -1.08352 -6.4699 0
M  V30 503 H 41.8021 -2.71217 -7.05675 0
M  V30 504 H 43.0701 -1.66252 -7.61564 0
M  V30 505 N 47.2992 1.18797 -1.03562 0
M  V30 506 C 48.2462 2.22253 -0.622259 0
M  V30 507 C 49.2162 1.61987 0.36736 0
M  V30 508 O 50.4012 1.88986 0.262492 0
M  V30 509 C 47.5412 3.45097 0.0138462 0
M  V30 510 C 46.6542 4.19722 -1.02263 0
M  V30 511 C 45.7892 5.30009 -0.355573 0
M  V30 512 C 44.8282 5.96399 -1.37749 0
M  V30 513 N 43.9652 6.98234 -0.735766 0
M  V30 514 H 48.8052 2.56968 -1.50903 0
M  V30 515 H 46.3422 1.26245 -0.755017 0
M  V30 516 H 48.3002 4.15279 0.399948 0
M  V30 517 H 46.9302 3.11018 0.864158 0
M  V30 518 H 45.9822 3.48418 -1.52673 0
M  V30 519 H 47.2942 4.65227 -1.79903 0
M  V30 520 H 46.4482 6.0664 0.0850095 0
M  V30 521 H 45.1872 4.85592 0.452967 0
M  V30 522 H 44.1922 5.18512 -1.82826 0
M  V30 523 H 45.4172 6.42899 -2.18764 0
M  V30 524 H 43.3632 6.55979 0.0525597 0
M  V30 525 H 43.2802 7.41965 -1.44995 0
M  V30 526 H 44.5482 7.78845 -0.31941 0
M  V30 527 N 48.7773 0.814389 1.34928 0
M  V30 528 C 50.0263 0.394871 1.97797 0
M  V30 529 C 50.3393 -1.04555 1.65311 0
M  V30 530 O 51.5453 -1.56856 2.21604 0
M  V30 531 C 50.0013 0.655103 3.53888 0
M  V30 532 C 49.6093 2.10858 3.95276 0
M  V30 533 C 51.3533 0.301329 4.23429 0
M  V30 534 C 49.2603 2.31415 5.44244 0
M  V30 535 H 48.1903 0.143913 0.740139 0
M  V30 536 H 50.8413 0.999544 1.53888 0
M  V30 537 H 49.2233 -0.0196253 3.95995 0
M  V30 538 H 50.3973 2.82176 3.64298 0
M  V30 539 H 48.7123 2.42297 3.38646 0
M  V30 540 H 51.3093 0.432869 5.32945 0
M  V30 541 H 51.6523 -0.75331 4.09428 0
M  V30 542 H 52.1853 0.930288 3.86769 0
M  V30 543 H 48.9243 3.35353 5.63222 0
M  V30 544 H 48.4443 1.6463 5.76764 0
M  V30 545 H 50.1233 2.13352 6.10811 0
M  V30 546 N 50.2554 -1.46986 0.568584 0
M  V30 547 C 51.6714 -1.57946 0.229189 0
M  V30 548 C 51.8714 -1.56567 -1.26843 0
M  V30 549 O 50.9274 -1.47511 -2.04931 0
M  V30 550 C 52.2404 -2.87963 0.865909 0
M  V30 551 C 53.7884 -3.01568 0.838188 0
M  V30 552 C 54.2634 -4.34301 1.45419 0
M  V30 553 N 55.7544 -4.40965 1.41788 0
M  V30 554 C 56.4894 -5.42256 1.86403 0
M  V30 555 N 55.9854 -6.50297 2.38926 0
M  V30 556 N 57.7784 -5.3337 1.77405 0
M  V30 557 H 49.9294 -1.46126 1.54146 0
M  V30 558 H 52.1924 -0.696156 0.643484 0
M  V30 559 H 51.8984 -2.94742 1.91886 0
M  V30 560 H 51.7724 -3.75423 0.365687 0
M  V30 561 H 54.1594 -2.94379 -0.206106 0
M  V30 562 H 54.2404 -2.1562 1.37629 0
M  V30 563 H 53.8844 -4.42247 2.49761 0
M  V30 564 H 53.8144 -5.19 0.891435 0
M  V30 565 H 56.3054 -3.63484 1.03381 0
M  V30 566 H 56.6184 -7.23777 2.70863 0
M  V30 567 H 54.9634 -6.51155 2.42944 0
M  V30 568 H 58.1544 -4.47865 1.3614 0
M  V30 569 H 58.3274 -6.12169 2.12492 0
M  V30 570 N 51.7335 -0.305618 -1.54608 0
M  V30 571 C 52.6635 0.561482 -2.26649 0
M  V30 572 C 53.6445 1.13415 -1.26772 0
M  V30 573 O 54.8295 1.16262 -1.55553 0
M  V30 574 C 51.9595 1.73122 -3.01075 0
M  V30 575 C 50.9135 1.2887 -4.08138 0
M  V30 576 C 50.2395 2.54396 -4.70305 0
M  V30 577 C 51.5395 0.416578 -5.20636 0
M  V30 578 H 53.2335 -0.0393902 -2.99374 0
M  V30 579 H 50.7795 -0.020385 -1.43986 0
M  V30 580 H 52.7325 2.34396 -3.50195 0
M  V30 581 H 51.4565 2.3584 -2.25936 0
M  V30 582 H 50.1155 0.698991 -3.59875 0
M  V30 583 H 49.7635 3.15439 -3.918 0
M  V30 584 H 49.4635 2.25486 -5.42614 0
M  V30 585 H 50.9875 3.16464 -5.2219 0
M  V30 586 H 52.4015 0.935116 -5.65622 0
M  V30 587 H 50.7985 0.221046 -5.99693 0
M  V30 588 H 51.8685 -0.557162 -4.81688 0
M  V30 589 N 53.2116 1.57565 -0.0334293 0
M  V30 590 C 54.1216 2.13943 0.962572 0
M  V30 591 C 55.1376 1.09276 1.35406 0
M  V30 592 O 56.3136 1.41355 1.4346 0
M  V30 593 C 53.3786 2.65887 2.22497 0
M  V30 594 C 52.4396 3.85286 1.8935 0
M  V30 595 C 51.6726 4.34743 3.09571 0
M  V30 596 O 51.8956 3.83352 4.22371 0
M  V30 597 O 50.8296 5.26538 2.91618 0
M  V30 598 H 54.6556 2.99333 0.513169 0
M  V30 599 H 52.2406 1.4822 0.18743 0
M  V30 600 H 54.1226 2.99346 2.96598 0
M  V30 601 H 52.7976 1.83578 2.6661 0
M  V30 602 H 51.7046 3.56746 1.1262 0
M  V30 603 H 53.0376 4.68771 1.5005 0
M  V30 604 N 54.6897 -0.239769 1.55765 0
M  V30 605 C 55.6367 -1.29696 1.90913 0
M  V30 606 C 56.6067 -1.47478 0.764164 0
M  V30 607 O 57.7917 -1.61345 1.01845 0
M  V30 608 C 54.9317 -2.64598 2.21544 0
M  V30 609 C 54.0447 -2.54765 3.48882 0
M  V30 610 C 53.1797 -3.82069 3.69049 0
M  V30 611 C 52.2187 -3.66883 4.89963 0
M  V30 612 N 51.3557 -4.86094 5.06614 0
M  V30 613 H 56.1957 -0.990224 2.81067 0
M  V30 614 H 53.7327 -0.477684 1.39128 0
M  V30 615 H 55.6907 -3.43132 2.3731 0
M  V30 616 H 54.3207 -2.93405 1.34585 0
M  V30 617 H 53.3727 -1.67763 3.41409 0
M  V30 618 H 54.6847 -2.39457 4.37563 0
M  V30 619 H 53.8387 -4.69046 3.84812 0
M  V30 620 H 52.5777 -4.00282 2.78614 0
M  V30 621 H 51.5827 -2.78289 4.74168 0
M  V30 622 H 52.8077 -3.50157 5.81865 0
M  V30 623 H 50.7537 -5.04655 4.19117 0
M  V30 624 H 50.6707 -4.73443 5.89396 0
M  V30 625 H 51.9387 -5.74549 5.26795 0
M  V30 626 N 56.1678 -1.49265 -0.50573 0
M  V30 627 C 57.0778 -1.68312 -1.63427 0
M  V30 628 C 58.0938 -0.565682 -1.64548 0
M  V30 629 O 59.2698 -0.839801 -1.83055 0
M  V30 630 C 56.3348 -1.74107 -2.99813 0
M  V30 631 C 55.3958 -2.97653 -3.09356 0
M  V30 632 C 54.6288 -3.03163 -4.39236 0
M  V30 633 O 54.8518 -2.16396 -5.27758 0
M  V30 634 O 53.7858 -3.9558 -4.53652 0
M  V30 635 H 57.6118 -2.63907 -1.50289 0
M  V30 636 H 55.1968 -1.32951 -0.681502 0
M  V30 637 H 57.0788 -1.803 -3.80881 0
M  V30 638 H 55.7538 -0.816901 -3.13223 0
M  V30 639 H 54.6608 -2.96981 -2.27493 0
M  V30 640 H 55.9938 -3.89535 -3.00871 0
M  V30 641 N 57.6459 0.756429 -1.3826 0
M  V30 642 C 58.9229 1.50584 -1.24835 0
M  V30 643 C 59.3029 2.10556 0.151485 0
M  V30 644 O 58.6509 1.96825 1.1607 0
M  V30 645 C 58.8609 2.57448 -2.3563 0
M  V30 646 C 60.2089 3.24429 -2.73917 0
M  V30 647 O 61.2329 2.67751 -2.34921 0
M  V30 648 O 60.0919 4.26937 -3.41156 0
M  V30 649 H 57.1859 0.667664 -0.48801 0
M  V30 650 H 59.7319 0.792083 -1.5008 0
M  V30 651 H 58.5039 2.11362 -3.29305 0
M  V30 652 H 58.1269 3.36408 -2.11933 0
M  V30 653 N 59.124 1.23083 0.984299 0
M  V30 654 C 60.034 1.02515 2.11016 0
M  V30 655 C 61.05 -0.0291702 1.73976 0
M  V30 656 O 62.226 0.165434 2.00719 0
M  V30 657 C 59.291 0.614673 3.41208 0
M  V30 658 C 58.352 1.74359 3.92297 0
M  V30 659 C 57.585 1.35261 5.16275 0
M  V30 660 O 57.808 0.235136 5.69915 0
M  V30 661 O 56.742 2.17227 5.61334 0
M  V30 662 H 60.568 1.96862 2.31255 0
M  V30 663 H 58.153 1.01753 1.09392 0
M  V30 664 H 60.035 0.396518 4.1953 0
M  V30 665 H 58.71 -0.299851 3.22308 0
M  V30 666 H 57.617 2.01635 3.1511 0
M  V30 667 H 58.95 2.63629 4.15645 0
M  V30 668 N 60.6021 -1.18246 1.0419 0
M  V30 669 C 61.8501 -1.87886 0.744543 0
M  V30 670 C 62.1711 -1.8082 -0.730006 0
M  V30 671 O 61.4411 -1.22736 -1.52685 0
M  V30 672 H 60.0211 -0.695556 0.272417 0
M  V30 673 H 62.6831 -1.43494 1.31892 0
M  V30 674 H 61.7791 -2.9389 1.05049 0
M  V30 675 N 62.0802 -0.821533 -1.34494 0
M  V30 676 C 63.3292 -0.405355 -1.97585 0
M  V30 677 C 63.6422 1.03677 -1.65863 0
M  V30 678 O 64.8482 1.55679 -2.22433 0
M  V30 679 C 63.3042 -0.673861 -3.53535 0
M  V30 680 C 62.9122 -2.12951 -3.94152 0
M  V30 681 C 64.6562 -0.32378 -4.23263 0
M  V30 682 C 62.5632 -2.34298 -5.43009 0
M  V30 683 H 61.4932 -0.147836 -0.739365 0
M  V30 684 H 64.1442 -1.00769 -1.53355 0
M  V30 685 H 62.5262 -0.00137554 -3.96 0
M  V30 686 H 63.7002 -2.84104 -3.62797 0
M  V30 687 H 62.0152 -2.44089 -3.37356 0
M  V30 688 H 64.6122 -0.461126 -5.32708 0
M  V30 689 H 64.9552 0.731586 -4.09821 0
M  V30 690 H 65.4882 -0.950786 -3.8627 0
M  V30 691 H 62.2272 -3.38335 -5.61435 0
M  V30 692 H 61.7472 -1.67687 -5.75883 0
M  V30 693 H 63.4262 -2.16588 -6.09671 0
M  V30 694 N 63.5583 1.46682 -0.576371 0
M  V30 695 C 64.9693 1.86112 -0.148091 0
M  V30 696 C 65.3203 1.48073 1.2872 0
M  V30 697 O 64.4453 0.892656 1.97131 0
M  V30 698 C 65.0403 3.37786 -0.261982 0
M  V30 699 C 63.5993 3.76235 0.111384 0
M  V30 700 C 62.7463 2.70713 -0.60083 0
M  V30 701 H 65.6973 1.37927 -0.78497 0
M  V30 702 H 65.7183 3.77007 0.514364 0
M  V30 703 H 65.2303 3.6544 -1.30671 0
M  V30 704 H 63.3313 3.54198 1.15649 0
M  V30 705 H 63.4443 4.78391 -0.26052 0
M  V30 706 H 61.8083 2.54666 -0.0417783 0
M  V30 707 H 62.5913 3.01208 -1.64708 0
M  V30 708 N 65.0364 0.313813 1.54444 0
M  V30 709 C 66.2614 -0.296681 2.05267 0
M  V30 710 C 66.6864 -1.45757 1.18897 0
M  V30 711 O 66.0444 -1.80239 0.195886 0
M  V30 712 C 66.0924 -0.71831 3.53373 0
M  V30 713 O 65.1964 -1.82175 3.69981 0
M  V30 714 H 64.5374 -0.0554061 0.661684 0
M  V30 715 H 67.0674 0.459387 1.99376 0
M  V30 716 H 67.0774 -1.00364 3.95463 0
M  V30 717 H 65.7524 0.130821 4.15694 0
M  V30 718 H 64.3294 -1.53598 3.39797 0
M  V30 719 N 66.5145 -1.57545 0.0417849 0
M  V30 720 C 67.7425 -1.96624 -0.643928 0
M  V30 721 C 68.1575 -0.918897 -1.64929 0
M  V30 722 O 67.5145 0.0979323 -1.82237 0
M  V30 723 C 67.5655 -3.35781 -1.33914 0
M  V30 724 O 67.2865 -4.365 -0.374048 0
M  V30 725 C 68.7875 -3.89566 -2.1155 0
M  V30 726 H 66.0075 -0.647316 -0.176702 0
M  V30 727 H 68.5515 -2.04229 0.105304 0
M  V30 728 H 66.7065 -3.29357 -2.03968 0
M  V30 729 H 67.1205 -5.17248 -0.869179 0
M  V30 730 H 68.5945 -4.89242 -2.55628 0
M  V30 731 H 69.0715 -3.24488 -2.9598 0
M  V30 732 H 69.6775 -3.99298 -1.46427 0
M  V30 733 N 67.9926 0.231505 -1.5589 0
M  V30 734 C 69.2206 0.974505 -1.82513 0
M  V30 735 C 69.6356 1.78344 -0.619591 0
M  V30 736 O 68.9926 1.77792 0.411848 0
M  V30 737 C 69.0436 1.90007 -3.07538 0
M  V30 738 O 68.7646 1.12385 -4.2344 0
M  V30 739 C 70.2656 2.75779 -3.47075 0
M  V30 740 H 67.4856 0.286065 -0.606966 0
M  V30 741 H 70.0296 0.249739 -2.02969 0
M  V30 742 H 68.1846 2.57891 -2.89086 0
M  V30 743 H 68.5986 1.75125 -4.944 0
M  V30 744 H 70.0726 3.36443 -4.37619 0
M  V30 745 H 70.5496 3.47672 -2.68367 0
M  V30 746 H 71.1556 2.13323 -3.67931 0
M  V30 747 N 69.4707 1.49531 0.497807 0
M  V30 748 C 70.7197 1.58426 1.24837 0
M  V30 749 C 71.0327 0.277643 1.93619 0
M  V30 750 O 72.2387 0.24517 2.70391 0
M  V30 751 C 70.6947 2.79538 2.26686 0
M  V30 752 C 70.3027 4.16971 1.63828 0
M  V30 753 C 72.0467 2.97764 3.0255 0
M  V30 754 C 69.9537 5.29301 2.63807 0
M  V30 755 H 68.8837 0.58989 0.469623 0
M  V30 756 H 71.5347 1.75923 0.521857 0
M  V30 757 H 69.9167 2.55542 3.02514 0
M  V30 758 H 71.0907 4.51116 0.939711 0
M  V30 759 H 69.4057 4.04129 1.00342 0
M  V30 760 H 72.0027 3.78856 3.77323 0
M  V30 761 H 72.3457 2.08448 3.60354 0
M  V30 762 H 72.8787 3.21815 2.33838 0
M  V30 763 H 69.6177 6.20687 2.10779 0
M  V30 764 H 69.1377 4.99606 3.31894 0
M  V30 765 H 70.8167 5.58768 3.2617 0
M  V30 766 N 70.9488 -0.749086 1.3866 0
M  V30 767 C 72.3648 -1.05276 1.19955 0
M  V30 768 C 72.5648 -2.01435 0.05134 0
M  V30 769 O 71.6208 -2.45232 -0.60147 0
M  V30 770 C 72.9338 -1.62853 2.52783 0
M  V30 771 C 74.4818 -1.75002 2.59506 0
M  V30 772 C 74.9568 -2.35991 3.92521 0
M  V30 773 N 76.4478 -2.43416 3.94085 0
M  V30 774 C 77.1828 -2.91511 4.9377 0
M  V30 775 N 76.6788 -3.39608 6.03853 0
M  V30 776 N 78.4718 -2.90592 4.81157 0
M  V30 777 H 70.6228 -0.111066 2.12109 0
M  V30 778 H 72.8858 -0.111901 0.941373 0
M  V30 779 H 72.5918 -0.99664 3.37283 0
M  V30 780 H 72.4658 -2.61854 2.715 0
M  V30 781 H 74.8528 -2.37317 1.75398 0
M  V30 782 H 74.9338 -0.74693 2.44652 0
M  V30 783 H 74.5778 -1.74308 4.77053 0
M  V30 784 H 74.5078 -3.3695 4.04688 0
M  V30 785 H 76.9988 -2.09405 3.14576 0
M  V30 786 H 77.3118 -3.74775 6.75843 0
M  V30 787 H 75.6568 -3.37653 6.07466 0
M  V30 788 H 78.8478 -2.52332 3.94267 0
M  V30 789 H 79.0208 -3.27762 5.58996 0
M  V30 790 N 72.4269 -1.23603 -0.977757 0
M  V30 791 C 73.3369 -1.03632 -2.1047 0
M  V30 792 C 74.3529 0.0199435 -1.73989 0
M  V30 793 O 75.5289 -0.176076 -2.00629 0
M  V30 794 C 72.5939 -0.63276 -3.40877 0
M  V30 795 C 71.6549 -1.76437 -3.91367 0
M  V30 796 C 70.8879 -1.37997 -5.15551 0
M  V30 797 O 71.1109 -0.265357 -5.69782 0
M  V30 798 O 70.0449 -2.20201 -5.60174 0
M  V30 799 H 73.8709 -1.98086 -2.30208 0
M  V30 800 H 71.4559 -1.02332 -1.08851 0
M  V30 801 H 73.3379 -0.418761 -4.19314 0
M  V30 802 H 72.0129 0.282754 -3.22463 0
M  V30 803 H 70.9199 -2.03304 -3.14036 0
M  V30 804 H 72.2529 -2.6583 -4.14241 0
M  V30 805 N 73.905 1.17692 -1.04816 0
M  V30 806 C 75.154 1.87192 -0.751132 0
M  V30 807 C 75.467 1.8169 0.724441 0
M  V30 808 O 76.673 2.46625 1.13527 0
M  V30 809 C 75.129 3.35857 -1.29338 0
M  V30 810 C 74.737 3.4987 -2.79812 0
M  V30 811 C 76.481 4.10709 -1.07322 0
M  V30 812 C 74.388 4.92536 -3.27356 0
M  V30 813 H 73.318 0.701162 -0.277288 0
M  V30 814 H 75.969 1.32932 -1.26496 0
M  V30 815 H 74.351 3.89631 -0.707376 0
M  V30 816 H 75.525 3.06332 -3.44235 0
M  V30 817 H 73.84 2.88433 -3.00325 0
M  V30 818 H 76.437 5.15952 -1.4035 0
M  V30 819 H 76.78 4.16299 -0.0108001 0
M  V30 820 H 77.313 3.6313 -1.62423 0
M  V30 821 H 74.052 4.92119 -4.33012 0
M  V30 822 H 73.572 5.3676 -2.67673 0
M  V30 823 H 75.251 5.61288 -3.21815 0
M  V30 824 N 75.3831 0.828654 1.34056 0
M  V30 825 C 76.6081 0.431637 2.02859 0
M  V30 826 C 77.0331 -0.956339 1.61975 0
M  V30 827 O 76.3911 -1.62338 0.807228 0
M  V30 828 C 76.4391 0.548323 3.56407 0
M  V30 829 O 75.5431 -0.429556 4.10157 0
M  V30 830 H 74.8841 0.176886 0.640006 0
M  V30 831 H 77.4141 1.12066 1.71179 0
M  V30 832 H 77.4241 0.426196 4.05768 0
M  V30 833 H 76.0991 1.5606 3.8551 0
M  V30 834 H 74.6761 -0.265836 3.71951 0
M  V30 835 N 76.8612 -1.46375 0.584142 0
M  V30 836 C 78.1102 -2.01585 0.0679741 0
M  V30 837 C 78.4232 -1.46109 -1.30045 0
M  V30 838 O 79.6292 -1.93148 -1.90804 0
M  V30 839 C 78.0852 -3.5983 0.0709207 0
M  V30 840 C 77.6932 -4.24303 1.43775 0
M  V30 841 C 79.4372 -4.22693 -0.391228 0
M  V30 842 C 77.3442 -5.74631 1.39834 0
M  V30 843 H 76.2742 -0.753689 0.0216421 0
M  V30 844 H 78.9252 -1.68093 0.736001 0
M  V30 845 H 77.3072 -3.90405 -0.663299 0
M  V30 846 H 78.4812 -4.05335 2.19181 0
M  V30 847 H 76.7962 -3.73539 1.84004 0
M  V30 848 H 79.3932 -5.3289 -0.439524 0
M  V30 849 H 79.7362 -3.91728 -1.40906 0
M  V30 850 H 80.2692 -3.96749 0.288974 0
M  V30 851 H 77.0082 -6.10258 2.39303 0
M  V30 852 H 76.5282 -5.95858 0.686505 0
M  V30 853 H 78.2072 -6.37375 1.11187 0
M  V30 854 N 78.3393 -0.321999 -1.54275 0
M  V30 855 C 79.2693 0.537411 -2.27231 0
M  V30 856 C 80.2503 1.12064 -1.27968 0
M  V30 857 O 81.4353 1.14606 -1.56777 0
M  V30 858 C 78.5653 1.69919 -3.02894 0
M  V30 859 C 77.5193 1.24534 -4.09482 0
M  V30 860 C 76.8453 2.49394 -4.72977 0
M  V30 861 C 78.1453 0.361335 -5.21049 0
M  V30 862 H 79.8393 -0.0711406 -2.99315 0
M  V30 863 H 77.3853 -0.0356555 -1.43956 0
M  V30 864 H 79.3383 2.30668 -3.52662 0
M  V30 865 H 78.0623 2.33431 -2.28424 0
M  V30 866 H 76.7213 0.660782 -3.60596 0
M  V30 867 H 76.3693 3.11265 -3.95124 0
M  V30 868 H 76.0693 2.19718 -5.44975 0
M  V30 869 H 77.5933 3.10908 -5.25517 0
M  V30 870 H 79.0073 0.875072 -5.66582 0
M  V30 871 H 77.4043 0.157428 -5.99893 0
M  V30 872 H 78.4743 -0.60822 -4.8107 0
M  V30 873 N 79.8174 1.5752 -0.0501392 0
M  V30 874 C 80.7644 2.1147 0.924603 0
M  V30 875 C 81.7344 1.02182 1.30951 0
M  V30 876 O 82.9194 1.29723 1.39916 0
M  V30 877 C 80.0594 2.66337 2.19451 0
M  V30 878 C 79.1724 3.89708 1.86418 0
M  V30 879 C 78.3074 4.32893 3.07859 0
M  V30 880 C 77.3464 5.48967 2.70742 0
M  V30 881 N 76.4834 5.87211 3.84874 0
M  V30 882 H 81.3234 2.94465 0.457639 0
M  V30 883 H 78.8604 1.45531 0.214266 0
M  V30 884 H 80.8184 2.96247 2.93758 0
M  V30 885 H 79.4484 1.86141 2.63726 0
M  V30 886 H 78.5004 3.66396 1.02264 0
M  V30 887 H 79.8124 4.74074 1.55096 0
M  V30 888 H 78.9664 4.6435 3.90466 0
M  V30 889 H 77.7054 3.47336 3.42358 0
M  V30 890 H 76.7104 5.17183 1.86551 0
M  V30 891 H 77.9354 6.3624 2.37436 0
M  V30 892 H 75.8814 5.04607 4.19175 0
M  V30 893 H 75.7984 6.66266 3.57247 0
M  V30 894 H 77.0664 6.23282 4.68123 0
M  V30 895 N 81.2955 -0.223234 1.56011 0
M  V30 896 C 82.2055 -1.29766 1.95443 0
M  V30 897 C 83.2215 -1.51373 0.858028 0
M  V30 898 O 84.3975 -1.64536 1.16146 0
M  V30 899 C 81.4625 -2.62772 2.26167 0
M  V30 900 C 80.5235 -2.49482 3.49367 0
M  V30 901 C 79.7565 -3.76145 3.78616 0
M  V30 902 O 79.9795 -4.79087 3.09568 0
M  V30 903 O 78.9135 -3.73358 4.72109 0
M  V30 904 H 82.7395 -0.99309 2.87004 0
M  V30 905 H 80.3245 -0.425958 1.43199 0
M  V30 906 H 82.2065 -3.41327 2.47131 0
M  V30 907 H 80.8815 -2.92913 1.37781 0
M  V30 908 H 79.7885 -1.69133 3.33684 0
M  V30 909 H 81.1215 -2.2428 4.38131 0
M  V30 910 N 82.7736 -1.49793 -0.48987 0
M  V30 911 C 83.7036 -1.70201 -1.59856 0
M  V30 912 C 84.6846 -0.55076 -1.60937 0
M  V30 913 O 85.8696 -0.787841 -1.77501 0
M  V30 914 C 82.9996 -1.77882 -2.98287 0
M  V30 915 C 81.9536 -2.92907 -3.12073 0
M  V30 916 C 81.2796 -2.85712 -4.51965 0
M  V30 917 C 82.5796 -4.3369 -2.91051 0
M  V30 918 H 84.2736 -2.63025 -1.43032 0
M  V30 919 H 81.8196 -1.26574 -0.686664 0
M  V30 920 H 83.7726 -1.90744 -3.75759 0
M  V30 921 H 82.4966 -0.816653 -3.16225 0
M  V30 922 H 81.1556 -2.79665 -2.37029 0
M  V30 923 H 80.8036 -1.8738 -4.66795 0
M  V30 924 H 80.5036 -3.62921 -4.62128 0
M  V30 925 H 82.0276 -3.00598 -5.31482 0
M  V30 926 H 83.4416 -4.47555 -3.58284 0
M  V30 927 H 81.8386 -5.12205 -3.12675 0
M  V30 928 H 82.9086 -4.47362 -1.87071 0
M  V30 929 N 84.2517 0.741722 -1.39055 0
M  V30 930 C 85.1987 1.85566 -1.37237 0
M  V30 931 C 86.1687 1.64457 -0.233072 0
M  V30 932 O 87.3537 1.85957 -0.427147 0
M  V30 933 C 84.4937 3.23004 -1.215 0
M  V30 934 C 83.6067 3.55864 -2.44918 0
M  V30 935 C 82.7417 4.82669 -2.21821 0
M  V30 936 C 81.7807 5.08351 -3.40948 0
M  V30 937 N 80.9177 6.26356 -3.17211 0
M  V30 938 H 85.7577 1.86455 -2.32462 0
M  V30 939 H 83.2947 0.911176 -1.15482 0
M  V30 940 H 85.2527 4.02331 -1.10389 0
M  V30 941 H 83.8827 3.21411 -0.29908 0
M  V30 942 H 82.9347 2.7129 -2.66657 0
M  V30 943 H 84.2467 3.70765 -3.33668 0
M  V30 944 H 83.4007 5.69962 -2.07914 0
M  V30 945 H 82.1397 4.69929 -1.30454 0
M  V30 946 H 81.1447 4.19522 -3.55361 0
M  V30 947 H 82.3697 5.22981 -4.33207 0
M  V30 948 H 80.3157 6.14917 -2.28502 0
M  V30 949 H 80.2327 6.41813 -3.99515 0
M  V30 950 H 81.5007 7.16506 -3.06984 0
M  V30 951 N 85.7298 1.2412 0.971189 0
M  V30 952 C 86.6798 0.997551 2.05019 0
M  V30 953 C 87.6638 -0.0597747 1.60789 0
M  V30 954 O 88.8558 0.153516 1.76333 0
M  V30 955 C 85.9848 0.600557 3.38006 0
M  V30 956 C 85.0708 1.69377 3.88809 0
M  V30 957 N 85.4618 2.92586 4.12586 0
M  V30 958 C 83.7598 1.57048 4.17435 0
M  V30 959 C 84.4608 3.63431 4.54195 0
M  V30 960 N 83.4368 2.90979 4.59165 0
M  V30 961 H 87.2388 1.93316 2.21374 0
M  V30 962 H 84.7528 1.14194 1.1547 0
M  V30 963 H 86.7498 0.40725 4.14906 0
M  V30 964 H 85.4098 -0.327903 3.2304 0
M  V30 965 H 86.4208 3.288 4.00139 0
M  V30 966 H 83.0978 0.709798 4.11422 0
M  V30 967 H 84.4878 4.69102 4.81033 0
M  V30 968 N 87.2079 -1.17134 1.05439 0
M  V30 969 C 88.4329 -1.91913 0.786396 0
M  V30 970 C 88.8579 -1.7643 -0.652234 0
M  V30 971 O 88.2159 -1.08372 -1.45345 0
M  V30 972 C 88.2639 -3.40921 1.17497 0
M  V30 973 O 87.3679 -4.11244 0.308589 0
M  V30 974 H 86.7089 -0.598215 0.288158 0
M  V30 975 H 89.2389 -1.48457 1.4079 0
M  V30 976 H 89.2489 -3.91668 1.14281 0
M  V30 977 H 87.9239 -3.5151 2.22292 0
M  V30 978 H 86.5009 -3.70731 0.40157 0
M  V30 979 N 88.686 -0.835752 -1.33615 0
M  V30 980 C 89.634 -0.255238 -2.31195 0
M  V30 981 C 90.628 0.61107 -1.57995 0
M  V30 982 O 91.834 0.500979 -1.72888 0
M  V30 983 H 88.209 -0.0638085 -0.749288 0
M  V30 984 H 90.18 -1.09283 -2.77669 0
M  V30 985 C 88.929 0.55754 -3.43201 0
M  V30 986 H 88.252 -0.0997553 -3.99676 0
M  V30 987 H 89.692 0.929622 -4.13683 0
M  V30 988 C 88.151 1.73515 -2.88781 0
M  V30 989 O 88.681 2.83376 -2.84712 0
M  V30 990 N 86.887 1.55603 -2.4543 0
M  V30 991 H 86.434 0.662354 -2.48939 0
M  V30 992 H 86.392 2.34545 -2.09371 0
M  V30 993 N 90.1641 1.46063 -0.591896 0
M  V30 994 C 91.4131 2.01547 -0.0786637 0
M  V30 995 C 91.7261 1.46796 1.29268 0
M  V30 996 O 92.9321 1.94157 1.89777 0
M  V30 997 C 91.3881 3.59787 -0.0900024 0
M  V30 998 C 90.9961 4.23534 -1.46023 0
M  V30 999 C 92.7401 4.22895 0.368806 0
M  V30 1000 C 90.6471 5.73881 -1.4288 0
M  V30 1001 H 89.5771 0.753564 -0.0256388 0
M  V30 1002 H 92.2281 1.677 -0.744905 0
M  V30 1003 H 90.6101 3.90752 0.642586 0
M  V30 1004 H 91.7841 4.04167 -2.21328 0
M  V30 1005 H 90.0991 3.72558 -1.85982 0
M  V30 1006 H 92.6961 5.33116 0.411258 0
M  V30 1007 H 93.0391 3.9247 1.38827 0
M  V30 1008 H 93.5721 3.9659 -0.31001 0
M  V30 1009 H 90.3111 6.0898 -2.42536 0
M  V30 1010 H 89.8311 5.95486 -0.718095 0
M  V30 1011 H 91.5101 6.36776 -1.14565 0
M  V30 1012 N 91.6422 0.330177 1.54103 0
M  V30 1013 C 92.8882 -0.270806 2.00984 0
M  V30 1014 C 93.2212 -1.51265 1.21789 0
M  V30 1015 O 92.4962 -1.92142 0.301927 0
M  V30 1016 C 92.7792 -0.598339 3.55094 0
M  V30 1017 C 92.6322 0.654674 4.4501 0
M  V30 1018 C 93.9512 -1.41334 4.16789 0
M  V30 1019 H 91.0702 -0.0969531 0.730595 0
M  V30 1020 H 93.7122 0.448066 1.84641 0
M  V30 1021 H 91.8622 -1.21078 3.69151 0
M  V30 1022 H 93.5342 1.29285 4.42813 0
M  V30 1023 H 91.7772 1.28224 4.14416 0
M  V30 1024 H 92.4482 0.380944 5.50684 0
M  V30 1025 H 94.9242 -0.895597 4.06347 0
M  V30 1026 H 93.8002 -1.61127 5.24718 0
M  V30 1027 H 94.0612 -2.41146 3.70541 0
M  V30 1028 N 93.1203 -1.57491 0.0584922 0
M  V30 1029 C 94.0673 -2.11958 -0.913376 0
M  V30 1030 C 95.0373 -1.02875 -1.30407 0
M  V30 1031 O 96.2223 -1.30464 -1.39226 0
M  V30 1032 C 93.3623 -2.67497 -2.18035 0
M  V30 1033 C 92.4753 -3.90691 -1.84349 0
M  V30 1034 C 91.6103 -4.3452 -3.05559 0
M  V30 1035 C 90.6493 -5.50395 -2.67827 0
M  V30 1036 N 89.7863 -5.89244 -3.81754 0
M  V30 1037 H 94.6263 -2.94704 -0.442017 0
M  V30 1038 H 92.1633 -1.45643 -0.206545 0
M  V30 1039 H 94.1213 -2.978 -2.92183 0
M  V30 1040 H 92.7513 -1.87537 -2.62735 0
M  V30 1041 H 91.8033 -3.66934 -1.00319 0
M  V30 1042 H 93.1153 -4.7489 -1.5258 0
M  V30 1043 H 92.2693 -4.66414 -3.87998 0
M  V30 1044 H 91.0083 -3.49147 -3.40511 0
M  V30 1045 H 90.0133 -5.18165 -1.83806 0
M  V30 1046 H 91.2383 -6.3749 -2.34059 0
M  V30 1047 H 89.1843 -5.06823 -4.16493 0
M  V30 1048 H 89.1013 -6.68151 -3.53708 0
M  V30 1049 H 90.3693 -6.25756 -4.64811 0
M  V30 1050 N 94.5984 0.214957 -1.56127 0
M  V30 1051 C 95.5284 1.2695 -1.95974 0
M  V30 1052 C 96.5094 1.48539 -0.828868 0
M  V30 1053 O 97.6944 1.60611 -1.09168 0
M  V30 1054 C 94.8244 2.61794 -2.28214 0
M  V30 1055 C 93.7784 2.54851 -3.43853 0
M  V30 1056 C 93.1044 3.93785 -3.61715 0
M  V30 1057 C 94.4044 2.09065 -4.78632 0
M  V30 1058 H 96.0984 0.93846 -2.84312 0
M  V30 1059 H 93.6444 0.449996 -1.36788 0
M  V30 1060 H 95.5974 3.35731 -2.54682 0
M  V30 1061 H 94.3214 2.96599 -1.36736 0
M  V30 1062 H 92.9804 1.8337 -3.17444 0
M  V30 1063 H 92.6284 4.25908 -2.67602 0
M  V30 1064 H 92.3284 3.90019 -4.39498 0
M  V30 1065 H 93.8524 4.69374 -3.90539 0
M  V30 1066 H 95.2664 2.7275 -5.04262 0
M  V30 1067 H 93.6634 2.16346 -5.59745 0
M  V30 1068 H 94.7334 1.04315 -4.73547 0
M  V30 1069 N 96.0765 1.50051 0.48192 0
M  V30 1070 C 97.3065 1.63999 1.2565 0
M  V30 1071 C 97.7145 0.318288 1.86504 0
M  V30 1072 O 97.0575 -0.708534 1.69486 0
M  V30 1073 C 97.1195 2.66504 2.4128 0
M  V30 1074 C 96.7835 4.10352 2.01148 0
M  V30 1075 C 97.7805 4.96562 1.54021 0
M  V30 1076 C 95.4655 4.56203 2.10199 0
M  V30 1077 C 97.4595 6.26668 1.16473 0
M  V30 1078 C 95.1465 5.86318 1.72264 0
M  V30 1079 C 96.1445 6.71375 1.25477 0
M  V30 1080 O 95.8325 7.99062 0.880626 0
M  V30 1081 H 95.5645 0.55456 0.386574 0
M  V30 1082 H 98.1185 1.96954 0.582944 0
M  V30 1083 H 96.3485 2.28769 3.11772 0
M  V30 1084 H 98.0375 2.69783 3.03268 0
M  V30 1085 H 98.8035 4.62358 1.46458 0
M  V30 1086 H 94.6825 3.90152 2.45566 0
M  V30 1087 H 98.2265 6.93011 0.798841 0
M  V30 1088 H 94.1235 6.20046 1.79482 0
M  V30 1089 H 94.8915 8.12239 1.01043 0
M  V30 1090 N 97.5546 -0.734337 1.39446 0
M  V30 1091 C 98.8316 -1.48579 1.27215 0
M  V30 1092 C 99.2116 -2.1077 -0.117968 0
M  V30 1093 O 98.5596 -1.98646 -1.12924 0
M  V30 1094 C 98.7696 -2.53667 2.39696 0
M  V30 1095 C 100.118 -3.20031 2.79044 0
M  V30 1096 O 101.142 -2.6398 2.39151 0
M  V30 1097 O 100.001 -4.21455 3.47905 0
M  V30 1098 H 97.0946 -0.659816 0.49857 0
M  V30 1099 H 99.6406 -0.768106 1.51322 0
M  V30 1100 H 98.4126 -2.06096 3.32626 0
M  V30 1101 H 98.0356 -3.32994 2.17258 0
M  V30 1102 N 99.0327 -1.24633 -0.964593 0
M  V30 1103 C 100.279 -1.08949 -1.71049 0
M  V30 1104 C 100.612 0.370302 -1.90637 0
M  V30 1105 O 99.8867 1.27349 -1.47011 0
M  V30 1106 C 100.17 -1.83329 -3.0994 0
M  V30 1107 C 100.023 -3.37077 -2.97824 0
M  V30 1108 C 101.342 -1.60846 -4.09654 0
M  V30 1109 H 98.4607 -0.397178 -0.620821 0
M  V30 1110 H 101.103 -1.5334 -1.12191 0
M  V30 1111 H 99.2527 -1.45597 -3.60186 0
M  V30 1112 H 100.925 -3.84425 -2.5498 0
M  V30 1113 H 99.1677 -3.65298 -2.33965 0
M  V30 1114 H 99.8387 -3.84324 -3.96231 0
M  V30 1115 H 102.315 -1.93674 -3.68279 0
M  V30 1116 H 101.191 -2.1534 -5.04896 0
M  V30 1117 H 101.452 -0.547434 -4.38698 0
M  V30 1118 N 100.511 1.16574 -1.06058 0
M  V30 1119 C 101.76 1.86385 -0.770944 0
M  V30 1120 C 102.073 1.82448 0.705129 0
M  V30 1121 O 103.279 2.47815 1.10905 0
M  V30 1122 C 101.735 3.34466 -1.32893 0
M  V30 1123 C 101.343 3.46883 -2.83507 0
M  V30 1124 C 103.087 4.09548 -1.11672 0
M  V30 1125 C 100.994 4.89036 -3.32562 0
M  V30 1126 H 99.9238 0.698181 -0.284709 0
M  V30 1127 H 102.575 1.31583 -1.27899 0
M  V30 1128 H 100.957 3.88859 -0.748662 0
M  V30 1129 H 102.131 3.02663 -3.47465 0
M  V30 1130 H 100.446 2.85232 -3.03368 0
M  V30 1131 H 103.043 5.14434 -1.45814 0
M  V30 1132 H 103.386 4.16264 -0.0549535 0
M  V30 1133 H 103.919 3.61387 -1.66265 0
M  V30 1134 H 100.658 4.87499 -4.38207 0
M  V30 1135 H 100.178 5.3389 -2.73351 0
M  V30 1136 H 101.857 5.57843 -3.2775 0
M  V30 1137 N 101.989 0.842826 1.3317 0
M  V30 1138 C 102.939 0.250877 2.26616 0
M  V30 1139 C 103.923 -0.596427 1.49437 0
M  V30 1140 O 105.115 -0.447747 1.71243 0
M  V30 1141 C 102.244 -0.569779 3.38539 0
M  V30 1142 C 101.33 0.289254 4.23112 0
M  V30 1143 N 101.721 1.36987 4.86897 0
M  V30 1144 C 100.019 0.0769631 4.45934 0
M  V30 1145 C 100.72 1.89737 5.49886 0
M  V30 1146 N 99.6959 1.19827 5.30229 0
M  V30 1147 H 103.498 1.07718 2.73448 0
M  V30 1148 H 101.012 0.687693 1.47121 0
M  V30 1149 H 103.009 -1.01018 4.04476 0
M  V30 1150 H 101.669 -1.39401 2.93253 0
M  V30 1151 H 102.68 1.75277 4.87338 0
M  V30 1152 H 99.3569 -0.713507 4.11358 0
M  V30 1153 H 100.747 2.80253 6.10662 0
M  V30 1154 N 103.467 -1.45747 0.599634 0
M  V30 1155 C 104.695 -2.06668 0.0978551 0
M  V30 1156 C 105.11 -1.44562 -1.21439 0
M  V30 1157 O 104.467 -0.556923 -1.73795 0
M  V30 1158 C 104.518 -3.61456 -0.0567044 0
M  V30 1159 O 104.239 -4.21242 1.20361 0
M  V30 1160 C 105.74 -4.39345 -0.590869 0
M  V30 1161 H 102.96 -0.667825 0.0651943 0
M  V30 1162 H 105.504 -1.87115 0.82511 0
M  V30 1163 H 103.659 -3.80378 -0.734251 0
M  V30 1164 H 104.073 -5.14323 1.02821 0
M  V30 1165 H 105.547 -5.48182 -0.648131 0
M  V30 1166 H 106.024 -4.08568 -1.61147 0
M  V30 1167 H 106.63 -4.25268 0.0523679 0
M  V30 1168 N 104.945 -0.338344 -1.53925 0
M  V30 1169 C 105.892 0.520845 -2.24846 0
M  V30 1170 C 106.862 1.09976 -1.24477 0
M  V30 1171 O 108.047 1.13735 -1.53196 0
M  V30 1172 C 105.187 1.6685 -3.02084 0
M  V30 1173 C 104.3 1.11739 -4.17299 0
M  V30 1174 C 103.435 2.23193 -4.82036 0
M  V30 1175 C 102.474 1.65407 -5.89328 0
M  V30 1176 N 101.611 2.70582 -6.47866 0
M  V30 1177 H 106.451 -0.0904881 -2.97863 0
M  V30 1178 H 103.988 -0.0564282 -1.46992 0
M  V30 1179 H 105.946 2.34407 -3.45122 0
M  V30 1180 H 104.576 2.2509 -2.31375 0
M  V30 1181 H 103.628 0.332919 -3.7894 0
M  V30 1182 H 104.94 0.654677 -4.94485 0
M  V30 1183 H 104.094 2.98626 -5.28117 0
M  V30 1184 H 102.833 2.72807 -4.04262 0
M  V30 1185 H 101.838 0.884779 -5.42634 0
M  V30 1186 H 103.063 1.16652 -6.69006 0
M  V30 1187 H 101.009 3.1946 -5.72959 0
M  V30 1188 H 100.926 2.28917 -7.20509 0
M  V30 1189 H 102.194 3.45799 -6.98601 0
M  V30 1190 N 106.423 1.57458 -0.0668435 0
M  V30 1191 C 107.37 2.12439 0.902122 0
M  V30 1192 C 108.34 1.03565 1.2986 0
M  V30 1193 O 109.525 1.312 1.38532 0
M  V30 1194 C 106.665 2.6865 2.16614 0
M  V30 1195 C 105.778 3.91663 1.82274 0
M  V30 1196 C 104.913 4.36134 3.0325 0
M  V30 1197 C 103.952 5.51808 2.64904 0
M  V30 1198 N 103.089 5.9126 3.78624 0
M  V30 1199 H 107.929 2.94934 0.426382 0
M  V30 1200 H 105.466 1.4575 0.198819 0
M  V30 1201 H 107.424 2.99346 2.90599 0
M  V30 1202 H 106.054 1.88928 2.61737 0
M  V30 1203 H 105.106 3.6746 0.983719 0
M  V30 1204 H 106.418 4.75693 1.50059 0
M  V30 1205 H 105.572 4.68465 3.85519 0
M  V30 1206 H 104.311 3.50948 3.38655 0
M  V30 1207 H 103.316 5.19133 1.81055 0
M  V30 1208 H 104.541 6.38722 2.30675 0
M  V30 1209 H 102.487 5.09024 4.138 0
M  V30 1210 H 102.404 6.70018 3.5016 0
M  V30 1211 H 103.672 6.28212 4.61486 0
M  V30 1212 N 107.901 -0.206675 1.56239 0
M  V30 1213 C 109.317 -0.557025 1.49564 0
M  V30 1214 C 109.517 -1.86424 0.764735 0
M  V30 1215 O 108.573 -2.50584 0.310491 0
M  V30 1216 C 109.886 -0.622478 2.94186 0
M  V30 1217 C 111.434 -0.712099 3.04792 0
M  V30 1218 C 111.909 -0.808767 4.50803 0
M  V30 1219 N 113.4 -0.8726 4.54907 0
M  V30 1220 C 114.135 -0.967365 5.65181 0
M  V30 1221 N 113.631 -1.02515 6.85173 0
M  V30 1222 N 115.424 -1.00366 5.53067 0
M  V30 1223 H 107.575 0.650943 2.02179 0
M  V30 1224 H 109.838 0.230387 0.919579 0
M  V30 1225 H 109.544 0.268727 3.50672 0
M  V30 1226 H 109.418 -1.4811 3.46905 0
M  V30 1227 H 111.805 -1.59374 2.48363 0
M  V30 1228 H 111.886 0.172489 2.55218 0
M  V30 1229 H 111.53 0.0684754 5.07854 0
M  V30 1230 H 111.46 -1.70899 4.98098 0
M  V30 1231 H 113.951 -0.837657 3.68499 0
M  V30 1232 H 114.264 -1.09765 7.64965 0
M  V30 1233 H 112.609 -0.994026 6.87855 0
M  V30 1234 H 115.8 -0.95527 4.58249 0
M  V30 1235 H 115.973 -1.07405 6.39037 0
M  V30 1236 N 109.379 -1.50304 -0.473955 0
M  V30 1237 C 110.309 -1.71886 -1.58042 0
M  V30 1238 C 111.29 -0.567799 -1.60344 0
M  V30 1239 O 112.475 -0.806623 -1.76656 0
M  V30 1240 C 109.605 -1.81036 -2.96384 0
M  V30 1241 C 108.559 -2.962 -3.08949 0
M  V30 1242 C 107.885 -2.9049 -4.48909 0
M  V30 1243 C 109.185 -4.36752 -2.86434 0
M  V30 1244 H 110.879 -2.64527 -1.40234 0
M  V30 1245 H 108.425 -1.27295 -0.673201 0
M  V30 1246 H 110.378 -1.94719 -3.73714 0
M  V30 1247 H 109.102 -0.850147 -3.15341 0
M  V30 1248 H 107.761 -2.82164 -2.3405 0
M  V30 1249 H 107.409 -1.92321 -4.64781 0
M  V30 1250 H 107.109 -3.67802 -4.58253 0
M  V30 1251 H 108.633 -3.06218 -5.28264 0
M  V30 1252 H 110.047 -4.5133 -3.53517 0
M  V30 1253 H 108.444 -5.15493 -3.07225 0
M  V30 1254 H 109.514 -4.49321 -1.82316 0
M  V30 1255 N 110.857 0.726932 -1.39834 0
M  V30 1256 C 112.103 1.48884 -1.377 0
M  V30 1257 C 112.436 1.94185 0.0244852 0
M  V30 1258 O 111.711 1.67361 0.990986 0
M  V30 1259 C 111.994 2.72288 -2.3565 0
M  V30 1260 C 111.847 2.32956 -3.84775 0
M  V30 1261 C 113.166 3.74414 -2.31306 0
M  V30 1262 H 110.285 0.540062 -0.5015 0
M  V30 1263 H 112.927 0.830547 -1.70886 0
M  V30 1264 H 111.077 3.28457 -2.07481 0
M  V30 1265 H 112.749 1.82356 -4.23726 0
M  V30 1266 H 110.992 1.65088 -4.01159 0
M  V30 1267 H 111.663 3.21362 -4.4881 0
M  V30 1268 H 114.139 3.27849 -2.56231 0
M  V30 1269 H 113.015 4.58414 -3.01907 0
M  V30 1270 H 113.276 4.21909 -1.32081 0
M  V30 1271 N 112.336 1.25143 0.95797 0
M  V30 1272 C 113.266 1.07711 2.07173 0
M  V30 1273 C 114.247 -0.0128462 1.70095 0
M  V30 1274 O 115.432 0.156061 1.93572 0
M  V30 1275 C 112.562 0.691503 3.40346 0
M  V30 1276 C 111.516 1.73132 3.9142 0
M  V30 1277 C 110.842 1.20049 5.21049 0
M  V30 1278 C 112.142 3.1294 4.1817 0
M  V30 1279 H 113.836 2.00873 2.22014 0
M  V30 1280 H 111.382 0.967191 1.06684 0
M  V30 1281 H 113.335 0.556505 4.17709 0
M  V30 1282 H 112.059 -0.275819 3.25433 0
M  V30 1283 H 110.718 1.8547 3.16222 0
M  V30 1284 H 110.366 0.223499 5.02503 0
M  V30 1285 H 110.066 1.89545 5.56189 0
M  V30 1286 H 111.59 1.07782 6.01012 0
M  V30 1287 H 113.004 3.03775 4.86203 0
M  V30 1288 H 111.401 3.79875 4.64559 0
M  V30 1289 H 112.471 3.6025 3.24573 0
M  V30 1290 N 113.814 -1.1601 1.06675 0
M  V30 1291 C 115.06 -1.86909 0.786945 0
M  V30 1292 C 115.393 -1.81717 -0.685018 0
M  V30 1293 O 114.668 -1.23551 -1.50218 0
M  V30 1294 C 114.951 -3.36313 1.28707 0
M  V30 1295 C 114.804 -3.50175 2.82308 0
M  V30 1296 C 116.123 -4.3084 0.898071 0
M  V30 1297 H 113.242 -0.678677 0.287343 0
M  V30 1298 H 115.884 -1.36336 1.32334 0
M  V30 1299 H 114.034 -3.79513 0.830768 0
M  V30 1300 H 115.706 -3.15886 3.36175 0
M  V30 1301 H 113.949 -2.91959 3.20847 0
M  V30 1302 H 114.62 -4.55116 3.12368 0
M  V30 1303 H 117.096 -3.95561 1.29114 0
M  V30 1304 H 115.972 -5.33876 1.27543 0
M  V30 1305 H 116.233 -4.41662 -0.196651 0
M  V30 1306 N 115.292 -0.849877 -1.32721 0
M  V30 1307 C 116.539 -0.450923 -1.97416 0
M  V30 1308 C 116.867 0.992376 -1.67279 0
M  V30 1309 O 116.122 1.71048 -0.950845 0
M  V30 1310 C 116.421 -0.631272 -3.51781 0
M  V30 1311 C 116.087 -2.04432 -4.01894 0
M  V30 1312 C 114.749 -2.4308 -4.1529 0
M  V30 1313 C 117.101 -2.96679 -4.28522 0
M  V30 1314 C 114.429 -3.73257 -4.52654 0
M  V30 1315 C 116.781 -4.26349 -4.67343 0
M  V30 1316 C 115.445 -4.64939 -4.78945 0
M  V30 1317 H 114.715 -0.165004 -0.722395 0
M  V30 1318 H 117.362 -1.07901 -1.58207 0
M  V30 1319 H 115.667 0.0800767 -3.91718 0
M  V30 1320 H 117.364 -0.302709 -3.99856 0
M  V30 1321 H 113.954 -1.73419 -3.91949 0
M  V30 1322 H 118.138 -2.68054 -4.17685 0
M  V30 1323 H 113.394 -4.02946 -4.59831 0
M  V30 1324 H 117.568 -4.97895 -4.86902 0
M  V30 1325 H 115.195 -5.65855 -5.07654 0
M  V30 1326 N 116.77 1.45427 -0.607355 0
M  V30 1327 C 117.68 2.34325 0.113463 0
M  V30 1328 C 118.696 1.51226 0.860617 0
M  V30 1329 O 119.872 1.84029 0.818255 0
M  V30 1330 C 116.937 3.28839 1.09844 0
M  V30 1331 C 115.998 4.27844 0.353271 0
M  V30 1332 C 115.231 5.17842 1.29133 0
M  V30 1333 O 115.454 5.11264 2.52913 0
M  V30 1334 O 114.388 5.96713 0.788523 0
M  V30 1335 H 118.214 2.97364 -0.617094 0
M  V30 1336 H 115.799 1.44807 -0.367619 0
M  V30 1337 H 117.681 3.8708 1.66575 0
M  V30 1338 H 116.356 2.68365 1.81003 0
M  V30 1339 H 115.263 3.7322 -0.256494 0
M  V30 1340 H 116.596 4.91173 -0.317822 0
M  V30 1341 N 118.248 0.346503 1.53744 0
M  V30 1342 C 119.198 -0.524953 2.21874 0
M  V30 1343 C 120.182 -1.06376 1.20718 0
M  V30 1344 O 121.374 -0.996972 1.46251 0
M  V30 1345 C 118.503 -1.6739 2.99726 0
M  V30 1346 C 117.589 -1.14888 4.08242 0
M  V30 1347 N 117.98 -0.345329 5.0462 0
M  V30 1348 C 116.278 -1.4255 4.22606 0
M  V30 1349 C 116.979 -0.0600706 5.81669 0
M  V30 1350 N 115.955 -0.65252 5.39669 0
M  V30 1351 H 119.757 0.0960091 2.93743 0
M  V30 1352 H 117.271 0.15352 1.61673 0
M  V30 1353 H 119.268 -2.3102 3.47038 0
M  V30 1354 H 117.928 -2.29811 2.29384 0
M  V30 1355 H 118.939 0.0138439 5.17898 0
M  V30 1356 H 115.616 -2.05389 3.63486 0
M  V30 1357 H 117.006 0.588321 6.69319 0
M  V30 1358 N 119.726 -1.57421 0.075193 0
M  V30 1359 C 120.656 -2.15942 -0.888324 0
M  V30 1360 C 121.637 -1.08737 -1.30806 0
M  V30 1361 O 122.822 -1.36787 -1.37851 0
M  V30 1362 C 119.952 -2.72379 -2.1547 0
M  V30 1363 C 118.906 -3.8478 -1.87425 0
M  V30 1364 C 118.232 -4.27834 -3.20721 0
M  V30 1365 C 119.532 -5.08869 -1.17684 0
M  V30 1366 H 121.226 -2.96705 -0.400799 0
M  V30 1367 H 118.772 -1.42723 -0.191342 0
M  V30 1368 H 120.725 -3.11965 -2.83295 0
M  V30 1369 H 119.449 -1.88841 -2.6647 0
M  V30 1370 H 118.108 -3.45703 -1.22004 0
M  V30 1371 H 117.756 -3.41214 -3.6957 0
M  V30 1372 H 117.456 -5.03605 -3.02746 0
M  V30 1373 H 118.98 -4.70039 -3.89738 0
M  V30 1374 H 120.394 -5.4575 -1.75584 0
M  V30 1375 H 118.791 -5.8994 -1.09956 0
M  V30 1376 H 119.861 -4.84648 -0.156453 0
M  V30 1377 N 121.204 0.198386 -1.56346 0
M  V30 1378 C 122.481 0.944982 -1.71258 0
M  V30 1379 C 122.861 2.0151 -0.629048 0
M  V30 1380 O 122.209 2.25639 0.360473 0
M  V30 1381 C 122.419 1.5344 -3.1346 0
M  V30 1382 C 123.767 2.01778 -3.73591 0
M  V30 1383 O 124.791 1.63288 -3.16568 0
M  V30 1384 O 123.65 2.72594 -4.73661 0
M  V30 1385 H 120.744 0.442939 -0.69838 0
M  V30 1386 H 123.29 0.188342 -1.68652 0
M  V30 1387 H 122.062 0.762869 -3.83792 0
M  V30 1388 H 121.685 2.35596 -3.20282 0
M  V30 1389 N 122.682 1.50554 0.465978 0
M  V30 1390 C 123.614 1.65949 1.58093 0
M  V30 1391 C 124.627 0.540827 1.53554 0
M  V30 1392 O 125.816 0.814187 1.5885 0
M  V30 1393 C 122.916 1.63261 2.96983 0
M  V30 1394 C 122.089 2.91245 3.26336 0
M  V30 1395 C 121.148 2.8113 4.44806 0
M  V30 1396 O 120.174 3.55086 4.44862 0
M  V30 1397 N 121.376 1.95032 5.46756 0
M  V30 1398 H 124.141 2.62122 1.45301 0
M  V30 1399 H 121.702 1.48082 0.65448 0
M  V30 1400 H 123.694 1.54101 3.74212 0
M  V30 1401 H 122.264 0.748032 3.03518 0
M  V30 1402 H 121.484 3.14493 2.37672 0
M  V30 1403 H 122.772 3.76022 3.42761 0
M  V30 1404 H 122.17 1.3427 5.49534 0
M  V30 1405 H 120.727 1.91772 6.2295 0
M  V30 1406 N 124.16 -0.719506 1.40217 0
M  V30 1407 C 125.437 -1.47221 1.28784 0
M  V30 1408 C 125.817 -2.10883 -0.0956067 0
M  V30 1409 O 125.165 -1.99833 -1.10811 0
M  V30 1410 C 125.375 -2.5111 2.42373 0
M  V30 1411 C 126.723 -3.17053 2.82423 0
M  V30 1412 O 127.747 -2.61429 2.41937 0
M  V30 1413 O 126.606 -4.17742 3.52355 0
M  V30 1414 H 123.7 -0.654491 0.50554 0
M  V30 1415 H 126.246 -0.752014 1.52128 0
M  V30 1416 H 125.018 -2.02556 3.34793 0
M  V30 1417 H 124.641 -3.3067 2.20778 0
M  V30 1418 N 125.638 -1.25649 -0.95132 0
M  V30 1419 C 126.568 -1.08808 -2.06599 0
M  V30 1420 C 127.549 0.00382547 -1.701 0
M  V30 1421 O 128.734 -0.166325 -1.93486 0
M  V30 1422 C 125.864 -0.709542 -3.39975 0
M  V30 1423 C 124.818 -1.75206 -3.90496 0
M  V30 1424 C 124.144 -1.22811 -5.20405 0
M  V30 1425 C 125.444 -3.15153 -4.16504 0
M  V30 1426 H 127.138 -2.02048 -2.20946 0
M  V30 1427 H 124.684 -0.972835 -1.06169 0
M  V30 1428 H 126.637 -0.578649 -4.17408 0
M  V30 1429 H 125.361 0.258556 -3.25575 0
M  V30 1430 H 124.02 -1.87145 -3.15234 0
M  V30 1431 H 123.668 -0.250145 -5.02378 0
M  V30 1432 H 123.368 -1.92492 -5.55176 0
M  V30 1433 H 124.892 -1.10968 -6.00432 0
M  V30 1434 H 126.306 -3.06349 -4.84586 0
M  V30 1435 H 124.703 -3.82333 -4.62538 0
M  V30 1436 H 125.773 -3.61966 -3.22658 0
M  V30 1437 N 127.117 1.15442 -1.07289 0
M  V30 1438 C 128.064 2.20161 -0.692653 0
M  V30 1439 C 129.034 1.63073 0.31564 0
M  V30 1440 O 130.219 1.89725 0.202235 0
M  V30 1441 C 127.359 3.44967 -0.0959509 0
M  V30 1442 C 126.472 4.16256 -1.15564 0
M  V30 1443 C 125.607 5.28609 -0.524011 0
M  V30 1444 C 124.646 5.91715 -1.56653 0
M  V30 1445 N 123.783 6.9554 -0.957531 0
M  V30 1446 H 128.623 2.52037 -1.59002 0
M  V30 1447 H 126.16 1.2378 -0.794798 0
M  V30 1448 H 128.118 4.16341 0.267628 0
M  V30 1449 H 126.748 3.1361 0.764772 0
M  V30 1450 H 125.8 3.43385 -1.6368 0
M  V30 1451 H 127.112 4.59268 -1.94613 0
M  V30 1452 H 126.266 6.06604 -0.108032 0
M  V30 1453 H 125.005 4.86787 0.29825 0
M  V30 1454 H 124.01 5.12433 -1.9923 0
M  V30 1455 H 125.235 6.35614 -2.39107 0
M  V30 1456 H 123.181 6.55814 -0.156162 0
M  V30 1457 H 123.098 7.36977 -1.68526 0
M  V30 1458 H 124.366 7.77435 -0.567032 0
M  V30 1459 N 128.595 0.856903 1.32268 0
M  V30 1460 C 129.542 0.301172 2.28827 0
M  V30 1461 C 130.512 -0.593104 1.5515 0
M  V30 1462 O 131.697 -0.527537 1.83362 0
M  V30 1463 C 128.837 -0.502523 3.41422 0
M  V30 1464 C 127.95 0.417797 4.29975 0
M  V30 1465 C 127.085 -0.398749 5.29701 0
M  V30 1466 C 126.124 0.518827 6.09897 0
M  V30 1467 N 125.261 -0.260674 7.01616 0
M  V30 1468 H 130.101 1.12983 2.75751 0
M  V30 1469 H 127.638 0.568582 1.35667 0
M  V30 1470 H 129.596 -0.984141 4.05426 0
M  V30 1471 H 128.226 -1.29599 2.95642 0
M  V30 1472 H 127.278 1.01781 3.66531 0
M  V30 1473 H 128.59 1.12191 4.86019 0
M  V30 1474 H 127.744 -0.943435 5.9932 0
M  V30 1475 H 126.483 -1.13622 4.7428 0
M  V30 1476 H 125.488 1.07538 5.39181 0
M  V30 1477 H 126.713 1.25495 6.67404 0
M  V30 1478 H 124.659 -0.981198 6.4862 0
M  V30 1479 H 124.576 0.384364 7.55022 0
M  V30 1480 H 125.844 -0.787014 7.75517 0
M  V30 1481 N 130.073 -1.45103 0.615059 0
M  V30 1482 C 131.003 -2.33339 -0.0865619 0
M  V30 1483 C 131.984 -1.4727 -0.851209 0
M  V30 1484 O 133.169 -1.76026 -0.820281 0
M  V30 1485 C 130.299 -3.30095 -1.07956 0
M  V30 1486 C 129.253 -4.25858 -0.427628 0
M  V30 1487 C 128.579 -5.12361 -1.5294 0
M  V30 1488 C 129.879 -5.18165 0.655944 0
M  V30 1489 H 131.573 -2.92254 0.650224 0
M  V30 1490 H 129.119 -1.40532 0.314138 0
M  V30 1491 H 131.072 -3.90698 -1.57901 0
M  V30 1492 H 129.796 -2.69355 -1.84703 0
M  V30 1493 H 128.455 -3.66564 0.0510292 0
M  V30 1494 H 128.103 -4.47984 -2.28734 0
M  V30 1495 H 127.803 -5.77238 -1.09865 0
M  V30 1496 H 129.327 -5.75833 -2.03098 0
M  V30 1497 H 130.741 -5.72796 0.240257 0
M  V30 1498 H 129.138 -5.91559 1.00888 0
M  V30 1499 H 130.208 -4.60144 1.52957 0
M  V30 1500 N 131.551 -0.354651 -1.53558 0
M  V30 1501 C 132.481 0.489091 -2.2832 0
M  V30 1502 C 133.462 1.09324 -1.30316 0
M  V30 1503 O 134.647 1.11255 -1.59173 0
M  V30 1504 C 131.777 1.63456 -3.0643 0
M  V30 1505 C 130.731 1.1582 -4.12031 0
M  V30 1506 C 130.057 2.39305 -4.7816 0
M  V30 1507 C 131.357 0.250731 -5.21698 0
M  V30 1508 H 133.051 -0.134614 -2.99097 0
M  V30 1509 H 130.597 -0.0661826 -1.43848 0
M  V30 1510 H 132.55 2.23136 -3.57475 0
M  V30 1511 H 131.274 2.28533 -2.33325 0
M  V30 1512 H 129.933 0.584146 -3.61916 0
M  V30 1513 H 129.581 3.02814 -4.01637 0
M  V30 1514 H 129.281 2.08109 -5.49513 0
M  V30 1515 H 130.805 2.99691 -5.31994 0
M  V30 1516 H 132.219 0.754695 -5.68311 0
M  V30 1517 H 130.616 0.0301468 -6.00092 0
M  V30 1518 H 131.686 -0.710125 -4.79672 0
M  V30 1519 N 133.029 1.57378 -0.0835403 0
M  V30 1520 C 134.306 1.85363 0.624507 0
M  V30 1521 C 134.686 0.978239 1.87066 0
M  V30 1522 O 134.034 0.0475908 2.2845 0
M  V30 1523 C 134.244 3.35795 0.950947 0
M  V30 1524 C 135.592 4.03581 1.31939 0
M  V30 1525 O 136.616 3.40609 1.04232 0
M  V30 1526 O 135.475 5.14672 1.83779 0
M  V30 1527 H 132.569 0.766162 0.311329 0
M  V30 1528 H 135.115 1.69307 -0.115362 0
M  V30 1529 H 133.887 3.91244 0.0663899 0
M  V30 1530 H 133.51 3.57154 1.74719 0
M  V30 1531 N 134.507 -0.190092 1.56449 0
M  V30 1532 C 135.753 -0.911052 1.81184 0
M  V30 1533 C 136.086 -1.82699 0.658396 0
M  V30 1534 O 135.361 -1.91491 -0.340775 0
M  V30 1535 C 135.644 -1.72297 3.16205 0
M  V30 1536 C 135.497 -0.831419 4.42049 0
M  V30 1537 C 136.816 -2.69454 3.47969 0
M  V30 1538 H 133.935 -0.32977 0.659106 0
M  V30 1539 H 136.577 -0.178169 1.89163 0
M  V30 1540 H 134.727 -2.34778 3.09534 0
M  V30 1541 H 136.399 -0.220929 4.60771 0
M  V30 1542 H 134.642 -0.138406 4.33579 0
M  V30 1543 H 135.313 -1.43461 5.33032 0
M  V30 1544 H 137.789 -2.17104 3.54972 0
M  V30 1545 H 136.665 -3.23342 4.43555 0
M  V30 1546 H 136.926 -3.48744 2.71717 0
M  V30 1547 N 135.985 -1.50799 -0.457987 0
M  V30 1548 C 137.225 -1.64088 -1.21879 0
M  V30 1549 C 137.589 -0.339848 -1.88968 0
M  V30 1550 O 138.79 -0.348301 -2.66534 0
M  V30 1551 C 137.061 -2.79726 -2.2246 0
M  V30 1552 S 138.62 -3.13225 -3.07303 0
M  V30 1553 H 135.438 -0.578314 -0.41361 0
M  V30 1554 H 138.04 -1.88632 -0.513645 0
M  V30 1555 H 136.744 -3.72722 -1.71775 0
M  V30 1556 H 136.275 -2.57308 -2.97584 0
M  V30 1557 H 138.29 -2.58062 -4.23814 0
M  V30 1558 N 137.463 0.71206 -1.40597 0
M  V30 1559 C 138.373 1.8562 -1.43466 0
M  V30 1560 C 139.389 1.70902 -0.326902 0
M  V30 1561 O 140.565 1.93105 -0.572043 0
M  V30 1562 C 137.63 3.21451 -1.29884 0
M  V30 1563 C 136.691 3.48398 -2.50833 0
M  V30 1564 C 135.924 4.77749 -2.3789 0
M  V30 1565 O 136.147 5.53089 -1.39459 0
M  V30 1566 O 135.081 5.05111 -3.27333 0
M  V30 1567 H 138.907 1.86155 -2.39958 0
M  V30 1568 H 136.492 0.86295 -1.21957 0
M  V30 1569 H 138.374 4.02579 -1.24531 0
M  V30 1570 H 137.049 3.21636 -0.364997 0
M  V30 1571 H 135.956 2.67265 -2.61763 0
M  V30 1572 H 137.289 3.53014 -3.4299 0
M  V30 1573 N 138.941 1.26152 0.944643 0
M  V30 1574 C 140.189 1.11271 1.6871 0
M  V30 1575 C 140.51 -0.345166 1.91921 0
M  V30 1576 O 139.78 -1.24387 1.51343 0
M  V30 1577 H 138.36 0.408783 0.625224 0
M  V30 1578 H 141.022 1.58427 1.1352 0
M  V30 1579 H 140.118 1.62879 2.66227 0
M  V30 1580 N 140.419 -1.14872 1.07899 0
M  V30 1581 C 141.667 -1.85422 0.803941 0
M  V30 1582 C 141.988 -1.83051 -0.67211 0
M  V30 1583 O 141.258 -1.27532 -1.48703 0
M  V30 1584 H 139.838 -0.686537 0.294408 0
M  V30 1585 H 142.5 -1.39226 1.3639 0
M  V30 1586 H 141.596 -2.90399 1.14346 0
M  V30 1587 N 141.898 -0.863906 -1.31812 0
M  V30 1588 C 142.828 -0.330843 -2.31144 0
M  V30 1589 C 143.809 0.575005 -1.60087 0
M  V30 1590 O 144.994 0.493304 -1.8783 0
M  V30 1591 C 142.124 0.47374 -3.44054 0
M  V30 1592 C 141.078 -0.338481 -4.26659 0
M  V30 1593 C 140.404 0.591412 -5.31419 0
M  V30 1594 C 141.704 -1.56926 -4.98168 0
M  V30 1595 H 143.398 -1.16086 -2.75979 0
M  V30 1596 H 140.944 -0.559657 -1.32679 0
M  V30 1597 H 142.897 0.857143 -4.12591 0
M  V30 1598 H 141.621 1.33721 -2.9797 0
M  V30 1599 H 140.28 -0.703754 -3.59782 0
M  V30 1600 H 139.928 1.45199 -4.81587 0
M  V30 1601 H 139.628 0.0519022 -5.87577 0
M  V30 1602 H 141.152 0.97179 -6.02817 0
M  V30 1603 H 142.566 -1.25764 -5.59336 0
M  V30 1604 H 140.963 -2.04739 -5.64094 0
M  V30 1605 H 142.033 -2.32544 -4.25501 0
M  V30 1606 N 143.376 1.44774 -0.622745 0
M  V30 1607 C 144.286 2.34433 0.0886031 0
M  V30 1608 C 145.302 1.52131 0.844529 0
M  V30 1609 O 146.478 1.84886 0.798691 0
M  V30 1610 C 143.543 3.29986 1.0635 0
M  V30 1611 C 142.604 4.28195 0.307873 0
M  V30 1612 C 141.837 5.19183 1.23633 0
M  V30 1613 O 142.06 5.13918 2.47476 0
M  V30 1614 O 140.994 5.97515 0.725189 0
M  V30 1615 H 144.82 2.96693 -0.648599 0
M  V30 1616 H 142.405 1.44408 -0.382957 0
M  V30 1617 H 144.287 3.88825 1.6246 0
M  V30 1618 H 142.962 2.70269 1.78146 0
M  V30 1619 H 141.869 3.72927 -0.296064 0
M  V30 1620 H 143.202 4.90808 -0.3699 0
M  V30 1621 N 144.854 0.36279 1.53368 0
M  V30 1622 C 146.079 -0.231226 2.06107 0
M  V30 1623 C 146.504 -1.419 1.23474 0
M  V30 1624 O 145.862 -1.79524 0.253128 0
M  V30 1625 C 145.91 -0.605523 3.5548 0
M  V30 1626 O 145.014 -1.70312 3.7559 0
M  V30 1627 H 144.355 -0.034327 0.663112 0
M  V30 1628 H 146.885 0.522584 1.97814 0
M  V30 1629 H 146.895 -0.877314 3.98456 0
M  V30 1630 H 145.57 0.263004 4.15068 0
M  V30 1631 H 144.147 -1.4271 3.44512 0
M  V30 1632 N 146.332 -1.57332 0.0918853 0
M  V30 1633 C 147.578 -1.94524 -0.573425 0
M  V30 1634 C 147.911 -0.973578 -1.68033 0
M  V30 1635 O 147.186 -0.00609226 -1.94499 0
M  V30 1636 C 147.469 -3.41858 -1.13161 0
M  V30 1637 C 147.322 -4.4979 -0.0299747 0
M  V30 1638 C 148.641 -3.90435 -2.03098 0
M  V30 1639 H 145.76 -0.70734 -0.206975 0
M  V30 1640 H 148.402 -1.89309 0.161942 0
M  V30 1641 H 146.552 -3.46433 -1.7583 0
M  V30 1642 H 148.224 -4.57327 0.604112 0
M  V30 1643 H 146.467 -4.291 0.636833 0
M  V30 1644 H 147.138 -5.50069 -0.461287 0
M  V30 1645 H 149.614 -3.87992 -1.50338 0
M  V30 1646 H 148.49 -4.94097 -2.39081 0
M  V30 1647 H 148.751 -3.29541 -2.94712 0
M  V30 1648 N 147.81 0.181792 -1.56548 0
M  V30 1649 C 149.038 0.915947 -1.85521 0
M  V30 1650 C 149.453 1.76282 -0.676016 0
M  V30 1651 O 148.81 1.79012 0.355077 0
M  V30 1652 C 148.861 1.80126 -3.13427 0
M  V30 1653 O 148.582 0.988562 -4.26801 0
M  V30 1654 C 150.083 2.64597 -3.55673 0
M  V30 1655 H 147.303 0.26661 -0.61576 0
M  V30 1656 H 149.847 0.185039 -2.03661 0
M  V30 1657 H 148.002 2.48563 -2.97145 0
M  V30 1658 H 148.416 1.59308 -4.99721 0
M  V30 1659 H 149.89 3.2235 -4.48101 0
M  V30 1660 H 150.367 3.38958 -2.79292 0
M  V30 1661 H 150.973 2.0151 -3.74532 0
M  V30 1662 N 149.288 1.51039 0.449983 0
M  V30 1663 C 150.251 1.70863 1.5277 0
M  V30 1664 C 151.251 0.578846 1.5002 0
M  V30 1665 O 152.441 0.846213 1.52266 0
M  V30 1666 C 149.573 1.75341 2.9235 0
M  V30 1667 H 150.766 2.67034 1.36502 0
M  V30 1668 H 148.319 1.40838 0.677812 0
M  V30 1669 H 149.054 0.809383 3.14037 0
M  V30 1670 H 148.839 2.57436 2.95752 0
M  V30 1671 H 150.329 1.92559 3.70555 0
M  V30 1672 N 150.766 -0.704594 1.40972 0
M  V30 1673 C 151.713 -1.81862 1.42109 0
M  V30 1674 C 152.683 -1.63781 0.276593 0
M  V30 1675 O 153.868 -1.84759 0.4763 0
M  V30 1676 C 151.008 -3.19669 1.30022 0
M  V30 1677 C 150.121 -3.49246 2.54267 0
M  V30 1678 C 149.256 -4.76618 2.3454 0
M  V30 1679 C 148.295 -4.99133 3.54306 0
M  V30 1680 N 147.432 -6.17726 3.33706 0
M  V30 1681 H 152.272 -1.80226 2.37324 0
M  V30 1682 H 149.809 -0.880238 1.17857 0
M  V30 1683 H 151.767 -3.99263 1.21018 0
M  V30 1684 H 150.397 -3.20506 0.384192 0
M  V30 1685 H 149.449 -2.64125 2.73756 0
M  V30 1686 H 150.761 -3.61788 3.43381 0
M  V30 1687 H 149.915 -5.64249 2.22952 0
M  V30 1688 H 148.654 -4.66305 1.42867 0
M  V30 1689 H 147.659 -4.09953 3.66359 0
M  V30 1690 H 148.884 -5.11311 4.4692 0
M  V30 1691 H 146.83 -6.08642 2.44725 0
M  V30 1692 H 146.747 -6.30995 4.16391 0
M  V30 1693 H 148.015 -7.08115 3.25873 0
M  V30 1694 N 152.244 -1.26651 -0.937939 0
M  V30 1695 C 153.469 -1.15279 -1.72411 0
M  V30 1696 C 153.894 0.287866 -1.85884 0
M  V30 1697 O 153.252 1.20855 -1.35143 0
M  V30 1698 C 153.3 -1.83028 -3.10698 0
M  V30 1699 O 152.404 -1.12128 -3.96864 0
M  V30 1700 H 151.745 -0.401504 -0.528858 0
M  V30 1701 H 154.275 -1.67531 -1.1745 0
M  V30 1702 H 154.285 -1.89981 -3.6107 0
M  V30 1703 H 152.96 -2.87833 -3.00208 0
M  V30 1704 H 151.537 -1.13173 -3.55312 0
M  V30 1705 N 153.722 1.14298 -1.08507 0
M  V30 1706 C 154.969 1.85359 -0.815373 0
M  V30 1707 C 155.297 1.83001 0.658865 0
M  V30 1708 O 154.552 1.25655 1.50031 0
M  V30 1709 C 154.851 3.33547 -1.28379 0
M  V30 1710 C 154.517 3.56093 -2.76602 0
M  V30 1711 C 153.179 3.61955 -3.17084 0
M  V30 1712 C 155.531 3.64834 -3.72217 0
M  V30 1713 C 152.859 3.74082 -4.51973 0
M  V30 1714 C 155.211 3.78487 -5.06883 0
M  V30 1715 C 153.875 3.82598 -5.46969 0
M  V30 1716 H 153.145 0.678276 -0.298366 0
M  V30 1717 H 155.792 1.35002 -1.35819 0
M  V30 1718 H 154.097 3.86191 -0.660593 0
M  V30 1719 H 155.794 3.86959 -1.05186 0
M  V30 1720 H 152.384 3.52179 -2.4427 0
M  V30 1721 H 156.568 3.59595 -3.42061 0
M  V30 1722 H 151.824 3.75527 -4.82483 0
M  V30 1723 H 155.998 3.84193 -5.80834 0
M  V30 1724 H 153.625 3.91747 -6.51489 0
M  V30 1725 N 155.201 0.870884 1.31352 0
M  V30 1726 C 156.131 0.343096 2.30966 0
M  V30 1727 C 157.112 -0.566507 1.60389 0
M  V30 1728 O 158.297 -0.483336 1.88089 0
M  V30 1729 C 155.427 -0.455487 3.443 0
M  V30 1730 C 154.381 0.361103 4.26474 0
M  V30 1731 C 153.707 -0.563221 5.31725 0
M  V30 1732 C 155.007 1.59566 4.97329 0
M  V30 1733 H 156.701 1.17548 2.75359 0
M  V30 1734 H 154.247 0.566686 1.32381 0
M  V30 1735 H 156.2 -0.83525 4.13039 0
M  V30 1736 H 154.924 -1.32139 2.98675 0
M  V30 1737 H 153.583 0.722825 3.59403 0
M  V30 1738 H 153.231 -1.42643 4.82351 0
M  V30 1739 H 152.931 -0.0207409 5.87596 0
M  V30 1740 H 154.455 -0.939808 6.03324 0
M  V30 1741 H 155.869 1.28728 5.58661 0
M  V30 1742 H 154.266 2.07728 5.63 0
M  V30 1743 H 155.336 2.34798 4.24262 0
M  V30 1744 N 156.679 -1.44442 0.630414 0
M  V30 1745 C 157.609 -2.33418 -0.0618083 0
M  V30 1746 C 158.59 -1.48165 -0.835541 0
M  V30 1747 O 159.775 -1.76886 -0.801564 0
M  V30 1748 C 156.905 -3.31222 -1.04449 0
M  V30 1749 C 155.859 -4.26288 -0.382436 0
M  V30 1750 C 155.185 -5.13954 -1.47497 0
M  V30 1751 C 156.485 -5.1744 0.710865 0
M  V30 1752 H 158.179 -2.91548 0.681184 0
M  V30 1753 H 155.725 -1.40191 0.329026 0
M  V30 1754 H 157.678 -3.92351 -1.53748 0
M  V30 1755 H 156.402 -2.71299 -1.81836 0
M  V30 1756 H 155.061 -3.6649 0.0899054 0
M  V30 1757 H 154.709 -4.50385 -2.2397 0
M  V30 1758 H 154.409 -5.7837 -1.03737 0
M  V30 1759 H 155.933 -5.77955 -1.96979 0
M  V30 1760 H 157.347 -5.72509 0.300996 0
M  V30 1761 H 155.744 -5.90455 1.07156 0
M  V30 1762 H 156.814 -4.58496 1.57829 0
M  V30 1763 N 158.157 -0.370918 -1.53173 0
M  V30 1764 C 159.089 0.507823 -2.23503 0
M  V30 1765 C 160.102 1.04182 -1.251 0
M  V30 1766 O 161.291 0.947286 -1.5129 0
M  V30 1767 C 158.391 1.71447 -2.92334 0
M  V30 1768 C 157.564 1.31105 -4.17289 0
M  V30 1769 C 156.623 2.38035 -4.69282 0
M  V30 1770 O 155.649 2.00204 -5.32829 0
M  V30 1771 N 156.851 3.69697 -4.47554 0
M  V30 1772 H 159.616 -0.0946382 -2.99551 0
M  V30 1773 H 157.177 -0.196358 -1.60705 0
M  V30 1774 H 159.169 2.42469 -3.24023 0
M  V30 1775 H 157.739 2.22368 -2.19707 0
M  V30 1776 H 156.959 0.430462 -3.91843 0
M  V30 1777 H 158.247 1.0179 -4.98514 0
M  V30 1778 H 157.645 4.03205 -3.9679 0
M  V30 1779 H 156.202 4.36807 -4.8378 0
M  V30 1780 N 159.635 1.57281 -0.100228 0
M  V30 1781 C 160.565 2.17328 0.853857 0
M  V30 1782 C 161.546 1.10804 1.2906 0
M  V30 1783 O 162.731 1.38963 1.35657 0
M  V30 1784 C 159.861 2.75772 2.11109 0
M  V30 1785 C 158.815 3.87713 1.81279 0
M  V30 1786 C 158.141 4.32882 3.13874 0
M  V30 1787 C 159.441 5.10677 1.09574 0
M  V30 1788 H 161.135 2.97305 0.353545 0
M  V30 1789 H 158.681 1.43009 0.168612 0
M  V30 1790 H 160.634 3.16433 2.78296 0
M  V30 1791 H 159.358 1.93057 2.63432 0
M  V30 1792 H 158.017 3.476 1.16489 0
M  V30 1793 H 157.665 3.47051 3.64095 0
M  V30 1794 H 157.365 5.08358 2.94696 0
M  V30 1795 H 158.889 4.7618 3.82211 0
M  V30 1796 H 160.303 5.48474 1.66879 0
M  V30 1797 H 158.7 5.91615 1.00557 0
M  V30 1798 H 159.77 4.84835 0.0793299 0
M  V30 1799 N 161.113 -0.173488 1.56642 0
M  V30 1800 C 162.043 -1.2171 1.99271 0
M  V30 1801 C 163.024 -1.46289 0.867959 0
M  V30 1802 O 164.209 -1.5766 1.13388 0
M  V30 1803 C 161.339 -2.55651 2.35074 0
M  V30 1804 C 160.293 -2.45645 3.50489 0
M  V30 1805 C 159.619 -3.84056 3.72028 0
M  V30 1806 C 160.919 -1.96302 4.84007 0
M  V30 1807 H 162.613 -0.86275 2.867 0
M  V30 1808 H 160.159 -0.413571 1.37933 0
M  V30 1809 H 162.112 -3.2886 2.63494 0
M  V30 1810 H 160.836 -2.92869 1.44552 0
M  V30 1811 H 159.495 -1.7489 3.22194 0
M  V30 1812 H 159.143 -4.18664 2.788 0
M  V30 1813 H 158.843 -3.7823 4.49684 0
M  V30 1814 H 160.367 -4.58854 4.02846 0
M  V30 1815 H 161.781 -2.59284 5.11317 0
M  V30 1816 H 160.178 -2.01429 5.65284 0
M  V30 1817 H 161.248 -0.917226 4.76146 0
M  V30 1818 N 162.591 -1.51276 -0.441967 0
M  V30 1819 C 163.539 -1.72823 -1.55676 0
M  V30 1820 C 164.533 -0.59445 -1.58627 0
M  V30 1821 O 165.739 -0.775715 -1.62427 0
M  V30 1822 H 162.114 -0.545983 -0.517113 0
M  V30 1823 H 164.085 -2.6628 -1.34675 0
M  V30 1824 C 162.834 -1.86619 -2.93375 0
M  V30 1825 H 162.157 -2.73264 -2.91834 0
M  V30 1826 H 163.597 -2.05709 -3.70756 0
M  V30 1827 C 162.056 -0.624842 -3.31055 0
M  V30 1828 O 162.586 0.222636 -4.01083 0
M  V30 1829 N 160.792 -0.470288 -2.86769 0
M  V30 1830 H 160.339 -1.161 -2.29953 0
M  V30 1831 H 160.297 0.359051 -3.12343 0
M  V30 1832 N 164.069 0.697108 -1.41344 0
M  V30 1833 C 165.317 1.45426 -1.40341 0
M  V30 1834 C 165.638 1.94996 -0.0128787 0
M  V30 1835 O 164.908 1.71599 0.945027 0
M  V30 1836 H 163.488 0.539594 -0.516573 0
M  V30 1837 H 166.15 0.825201 -1.76569 0
M  V30 1838 H 165.246 2.31817 -2.08967 0
M  V30 1839 N 165.547 1.27147 0.931209 0
M  V30 1840 C 166.796 1.12664 1.67302 0
M  V30 1841 C 167.109 -0.327718 1.92835 0
M  V30 1842 O 168.315 -0.593392 2.64936 0
M  V30 1843 C 166.771 1.9683 3.01307 0
M  V30 1844 C 166.379 3.46901 2.83485 0
M  V30 1845 C 168.123 1.90985 3.79111 0
M  V30 1846 C 166.03 4.23279 4.13024 0
M  V30 1847 H 164.96 0.41803 0.627509 0
M  V30 1848 H 167.611 1.51539 1.03481 0
M  V30 1849 H 165.993 1.50797 3.66164 0
M  V30 1850 H 167.167 4.00773 2.27415 0
M  V30 1851 H 165.482 3.54088 2.19113 0
M  V30 1852 H 168.079 2.45328 4.75098 0
M  V30 1853 H 168.422 0.882718 4.06834 0
M  V30 1854 H 168.955 2.34895 3.21044 0
M  V30 1855 H 165.694 5.26503 3.90481 0
M  V30 1856 H 165.214 3.74186 4.6877 0
M  V30 1857 H 166.893 4.32265 4.81411 0
M  V30 1858 N 167.025 -1.13721 1.09112 0
M  V30 1859 C 167.988 -2.17222 0.731241 0
M  V30 1860 C 168.988 -1.59035 -0.237566 0
M  V30 1861 O 170.178 -1.74192 -0.0161704 0
M  V30 1862 C 167.31 -3.40804 0.0808443 0
M  V30 1863 H 168.503 -2.50573 1.64783 0
M  V30 1864 H 166.056 -1.28493 0.889897 0
M  V30 1865 H 166.791 -3.1304 -0.847127 0
M  V30 1866 H 166.576 -3.84306 0.777896 0
M  V30 1867 H 168.066 -4.1731 -0.155657 0
M  V30 1868 N 168.503 -0.877838 -1.30888 0
M  V30 1869 C 169.733 -0.506678 -2.00291 0
M  V30 1870 C 170.141 0.907449 -1.66018 0
M  V30 1871 O 169.484 1.60719 -0.88967 0
M  V30 1872 C 169.546 -0.59323 -3.54572 0
M  V30 1873 C 169.21 -1.97038 -4.12341 0
M  V30 1874 C 170.207 -2.93889 -4.28865 0
M  V30 1875 C 167.892 -2.27383 -4.47886 0
M  V30 1876 C 169.886 -4.19224 -4.80136 0
M  V30 1877 C 167.573 -3.52965 -4.98857 0
M  V30 1878 C 168.571 -4.48701 -5.14934 0
M  V30 1879 O 168.259 -5.72056 -5.64808 0
M  V30 1880 H 167.991 -0.1951 -0.647234 0
M  V30 1881 H 170.545 -1.18301 -1.6791 0
M  V30 1882 H 168.775 0.140057 -3.86446 0
M  V30 1883 H 170.464 -0.234372 -4.05223 0
M  V30 1884 H 171.23 -2.71756 -4.01714 0
M  V30 1885 H 167.109 -1.53639 -4.34645 0
M  V30 1886 H 170.653 -4.93956 -4.92599 0
M  V30 1887 H 166.55 -3.74939 -5.25443 0
M  V30 1888 H 167.318 -5.74337 -5.83163 0
M  V30 1889 N 169.982 1.44106 -0.638065 0
M  V30 1890 C 171.222 2.03858 -0.148733 0
M  V30 1891 C 171.586 1.49153 1.20903 0
M  V30 1892 O 172.787 2.00452 1.79088 0
M  V30 1893 C 171.058 3.57117 -0.142314 0
M  V30 1894 S 172.617 4.37897 0.281385 0
M  V30 1895 H 169.435 0.708069 -0.0644912 0
M  V30 1896 H 172.037 1.7639 -0.843009 0
M  V30 1897 H 170.741 3.94436 -1.13349 0
M  V30 1898 H 170.272 3.89205 0.572988 0
M  V30 1899 H 172.287 4.72218 1.52395 0
M  V30 1900 N 171.46 0.379036 1.52974 0
M  V30 1901 C 172.41 -0.477772 2.22938 0
M  V30 1902 C 173.394 -1.03792 1.22948 0
M  V30 1903 O 174.586 -0.965725 1.48333 0
M  V30 1904 C 171.715 -1.60994 3.03209 0
M  V30 1905 C 170.801 -1.06203 4.10587 0
M  V30 1906 N 171.192 -0.238214 5.05239 0
M  V30 1907 C 169.49 -1.33554 4.25534 0
M  V30 1908 C 170.191 0.0633235 5.81666 0
M  V30 1909 N 169.167 -0.537901 5.40932 0
M  V30 1910 H 172.969 0.158295 2.93473 0
M  V30 1911 H 170.483 0.187778 1.61311 0
M  V30 1912 H 172.48 -2.23607 3.5186 0
M  V30 1913 H 171.14 -2.24893 2.34207 0
M  V30 1914 H 172.151 0.123695 5.17752 0
M  V30 1915 H 168.828 -1.97632 3.6776 0
M  V30 1916 H 170.218 0.730161 6.67921 0
M  V30 1917 N 172.938 -1.57226 0.108567 0
M  V30 1918 C 174.215 -1.86333 -0.594939 0
M  V30 1919 C 174.595 -1.00788 -1.85486 0
M  V30 1920 O 173.943 -0.0839293 -2.28346 0
M  V30 1921 C 174.153 -3.37265 -0.897405 0
M  V30 1922 C 175.501 -4.05629 -1.25501 0
M  V30 1923 O 176.525 -3.42224 -0.987998 0
M  V30 1924 O 175.384 -5.17531 -1.75567 0
M  V30 1925 H 172.478 -0.771018 -0.2991 0
M  V30 1926 H 175.024 -1.69102 0.142283 0
M  V30 1927 H 173.796 -3.913 -0.00413806 0
M  V30 1928 H 173.419 -3.59889 -1.69014 0
M  V30 1929 N 174.416 0.165178 -1.56732 0
M  V30 1930 C 175.832 0.517174 -1.50988 0
M  V30 1931 C 176.032 1.84331 -0.813894 0
M  V30 1932 O 175.088 2.49672 -0.37682 0
M  V30 1933 C 176.401 0.544261 -2.95733 0
M  V30 1934 C 177.949 0.631039 -3.06573 0
M  V30 1935 C 178.424 0.68896 -4.52788 0
M  V30 1936 N 179.915 0.751683 -4.5706 0
M  V30 1937 C 180.65 0.817177 -5.67547 0
M  V30 1938 N 180.146 0.843129 -6.8765 0
M  V30 1939 N 181.939 0.856668 -5.55534 0
M  V30 1940 H 174.09 -0.704318 -2.00382 0
M  V30 1941 H 176.353 -0.254687 -0.913148 0
M  V30 1942 H 176.059 -0.361607 -3.49836 0
M  V30 1943 H 175.933 1.3886 -3.5071 0
M  V30 1944 H 178.32 1.52733 -2.52501 0
M  V30 1945 H 178.401 -0.240095 -2.54671 0
M  V30 1946 H 178.045 -0.2031 -5.07494 0
M  V30 1947 H 177.975 1.57633 -5.02454 0
M  V30 1948 H 180.466 0.739661 -3.70591 0
M  V30 1949 H 180.779 0.894448 -7.67606 0
M  V30 1950 H 179.124 0.811304 -6.90248 0
M  V30 1951 H 182.315 0.833437 -4.60621 0
M  V30 1952 H 182.488 0.904247 -6.4166 0
M  V30 1953 N 175.894 1.51508 0.433938 0
M  V30 1954 C 177.31 1.39759 0.770682 0
M  V30 1955 C 177.51 0.482594 1.95636 0
M  V30 1956 O 176.566 -0.0609691 2.52426 0
M  V30 1957 C 177.879 2.81851 1.04787 0
M  V30 1958 C 179.427 2.91025 1.1521 0
M  V30 1959 C 179.902 4.34032 1.46219 0
M  V30 1960 N 181.393 4.37154 1.53136 0
M  V30 1961 C 182.128 5.4484 1.78709 0
M  V30 1962 N 181.624 6.62682 2.02051 0
M  V30 1963 N 183.417 5.32324 1.80519 0
M  V30 1964 H 175.568 2.09548 -0.346892 0
M  V30 1965 H 177.831 0.943446 -0.0928074 0
M  V30 1966 H 177.537 3.50815 0.249304 0
M  V30 1967 H 177.411 3.21386 1.97461 0
M  V30 1968 H 179.798 2.22257 1.94128 0
M  V30 1969 H 179.879 2.54983 0.204281 0
M  V30 1970 H 179.523 5.03351 0.678274 0
M  V30 1971 H 179.453 4.6759 2.42212 0
M  V30 1972 H 181.944 3.52197 1.36987 0
M  V30 1973 H 182.257 7.40543 2.20943 0
M  V30 1974 H 180.602 6.65791 1.99366 0
M  V30 1975 H 183.793 4.39246 1.61805 0
M  V30 1976 H 183.966 6.16328 2.00111 0
M  V30 1977 N 177.372 -0.689602 1.41712 0
M  V30 1978 C 178.618 -1.45181 1.41599 0
M  V30 1979 C 178.951 -1.94181 0.0270081 0
M  V30 1980 O 178.226 -1.6993 -0.946265 0
M  V30 1981 C 178.509 -2.65945 2.42787 0
M  V30 1982 C 178.362 -2.22672 3.90816 0
M  V30 1983 C 179.681 -3.68149 2.41151 0
M  V30 1984 H 176.8 -0.526576 0.515642 0
M  V30 1985 H 179.442 -0.784947 1.73028 0
M  V30 1986 H 177.592 -3.2284 2.16116 0
M  V30 1987 H 179.264 -1.71058 4.28412 0
M  V30 1988 H 177.507 -1.54394 4.05395 0
M  V30 1989 H 178.178 -3.0935 4.57172 0
M  V30 1990 H 180.654 -3.2094 2.64834 0
M  V30 1991 H 179.53 -4.50248 3.13955 0
M  V30 1992 H 179.791 -4.18259 1.43221 0
M  V30 1993 N 178.85 -1.27639 -0.924453 0
M  V30 1994 C 179.78 -1.13166 -2.04244 0
M  V30 1995 C 180.761 -0.032256 -1.70069 0
M  V30 1996 O 181.946 -0.207328 -1.9309 0
M  V30 1997 C 179.076 -0.781496 -3.38393 0
M  V30 1998 C 178.03 -1.83449 -3.86692 0
M  V30 1999 C 177.356 -1.33822 -5.17683 0
M  V30 2000 C 178.656 -3.23917 -4.09726 0
M  V30 2001 H 180.35 -2.06689 -2.1661 0
M  V30 2002 H 177.896 -0.995136 -1.04082 0
M  V30 2003 H 179.849 -0.667057 -4.16087 0
M  V30 2004 H 178.573 0.189439 -3.2605 0
M  V30 2005 H 177.232 -1.93789 -3.11193 0
M  V30 2006 H 176.88 -0.35665 -5.01734 0
M  V30 2007 H 176.58 -2.04224 -5.50968 0
M  V30 2008 H 178.104 -1.23679 -5.97943 0
M  V30 2009 H 179.518 -3.16559 -4.77978 0
M  V30 2010 H 177.915 -3.92059 -4.54324 0
M  V30 2011 H 178.985 -3.68729 -3.14908 0
M  V30 2012 N 180.328 1.1314 -1.09713 0
M  V30 2013 C 181.278 2.16709 -0.708593 0
M  V30 2014 C 182.262 1.58471 0.278523 0
M  V30 2015 O 183.454 1.76779 0.088427 0
M  V30 2016 C 180.583 3.43039 -0.133923 0
M  V30 2017 C 179.669 4.08277 -1.14763 0
M  V30 2018 N 180.06 4.48637 -2.33577 0
M  V30 2019 C 178.358 4.34954 -0.986446 0
M  V30 2020 C 179.059 4.9952 -2.98085 0
M  V30 2021 N 178.035 4.94561 -2.25632 0
M  V30 2022 H 181.837 2.45672 -1.61315 0
M  V30 2023 H 179.351 1.29967 -0.973775 0
M  V30 2024 H 181.348 4.16583 0.162465 0
M  V30 2025 H 180.008 3.15549 0.765447 0
M  V30 2026 H 181.019 4.41246 -2.7115 0
M  V30 2027 H 177.696 4.17258 -0.142008 0
M  V30 2028 H 179.086 5.40521 -3.99108 0
M  V30 2029 N 181.806 0.884767 1.30421 0
M  V30 2030 C 183.222 0.57874 1.48737 0
M  V30 2031 C 183.422 -0.883567 1.81095 0
M  V30 2032 O 182.478 -1.6648 1.89844 0
M  V30 2033 C 183.791 1.49171 2.61091 0
M  V30 2034 C 185.339 1.49532 2.74971 0
M  V30 2035 C 185.814 2.39421 3.90438 0
M  V30 2036 N 187.305 2.37383 3.97748 0
M  V30 2037 C 188.04 3.03647 4.86401 0
M  V30 2038 N 187.536 3.79136 5.79852 0
M  V30 2039 N 189.329 2.9288 4.79768 0
M  V30 2040 H 181.48 1.83075 1.0769 0
M  V30 2041 H 183.743 0.783637 0.533495 0
M  V30 2042 H 183.449 2.53291 2.44001 0
M  V30 2043 H 183.323 1.20113 3.57565 0
M  V30 2044 H 185.71 0.46163 2.91467 0
M  V30 2045 H 185.791 1.8262 1.79119 0
M  V30 2046 H 185.435 3.42874 3.74699 0
M  V30 2047 H 185.365 2.03649 4.85628 0
M  V30 2048 H 187.856 1.82525 3.30897 0
M  V30 2049 H 188.169 4.26789 6.4426 0
M  V30 2050 H 186.514 3.83243 5.79784 0
M  V30 2051 H 189.705 2.33433 4.05742 0
M  V30 2052 H 189.878 3.448 5.4865 0
M  V30 2053 N 183.284 -1.43765 0.645699 0
M  V30 2054 C 184.561 -1.9541 0.0862963 0
M  V30 2055 C 184.941 -1.58725 -1.39175 0
M  V30 2056 O 184.289 -0.868581 -2.11348 0
M  V30 2057 C 184.499 -3.47488 0.324565 0
M  V30 2058 C 185.847 -4.24001 0.225497 0
M  V30 2059 O 186.871 -3.55274 0.256715 0
M  V30 2060 O 185.73 -5.46313 0.142801 0
M  V30 2061 H 182.824 -0.826882 -0.0139483 0
M  V30 2062 H 185.37 -1.53743 0.718415 0
M  V30 2063 H 184.142 -3.67289 1.3496 0
M  V30 2064 H 183.765 -3.96135 -0.340987 0
M  V30 2065 N 184.763 -0.387143 -1.52771 0
M  V30 2066 C 185.693 0.440551 -2.29306 0
M  V30 2067 C 186.674 1.06535 -1.32606 0
M  V30 2068 O 187.859 1.07853 -1.61497 0
M  V30 2069 C 184.989 1.56919 -3.09829 0
M  V30 2070 C 183.943 1.07054 -4.14395 0
M  V30 2071 C 183.269 2.29109 -4.83129 0
M  V30 2072 C 184.569 0.140015 -5.22112 0
M  V30 2073 H 186.263 -0.198026 -2.98744 0
M  V30 2074 H 183.809 -0.09668 -1.43675 0
M  V30 2075 H 185.762 2.15503 -3.62128 0
M  V30 2076 H 184.486 2.23532 -2.3812 0
M  V30 2077 H 183.145 0.507247 -3.63074 0
M  V30 2078 H 182.793 2.94227 -4.0797 0
M  V30 2079 H 182.493 1.96406 -5.53804 0
M  V30 2080 H 184.017 2.88339 -5.38231 0
M  V30 2081 H 185.431 0.633978 -5.69784 0
M  V30 2082 H 183.828 -0.0971485 -6.00021 0
M  V30 2083 H 184.898 -0.811711 -4.78058 0
M  V30 2084 N 186.241 1.57166 -0.116904 0
M  V30 2085 C 187.188 2.15202 0.83408 0
M  V30 2086 C 188.158 1.07644 1.26499 0
M  V30 2087 O 189.343 1.35541 1.34288 0
M  V30 2088 C 186.483 2.75405 2.07957 0
M  V30 2089 C 185.596 3.97264 1.69721 0
M  V30 2090 C 184.731 4.45561 2.89221 0
M  V30 2091 C 183.77 5.59956 2.47215 0
M  V30 2092 N 182.907 6.03006 3.59622 0
M  V30 2093 H 187.747 2.96141 0.332335 0
M  V30 2094 H 185.284 1.46309 0.152349 0
M  V30 2095 H 187.242 3.08439 2.80929 0
M  V30 2096 H 185.872 1.97159 2.55594 0
M  V30 2097 H 184.924 3.70404 0.866316 0
M  V30 2098 H 186.236 4.80226 1.34849 0
M  V30 2099 H 185.39 4.80493 3.7042 0
M  V30 2100 H 184.129 3.61544 3.27318 0
M  V30 2101 H 183.134 5.2463 1.64448 0
M  V30 2102 H 184.359 6.45738 2.10238 0
M  V30 2103 H 182.305 5.21931 3.97396 0
M  V30 2104 H 182.222 6.80819 3.28667 0
M  V30 2105 H 183.49 6.42576 4.41267 0
M  V30 2106 N 187.719 -0.156864 1.56817 0
M  V30 2107 C 189.13 -0.717916 1.72345 0
M  V30 2108 C 189.481 -1.82124 0.729747 0
M  V30 2109 O 188.606 -2.16141 -0.105781 0
M  V30 2110 C 189.201 -1.30904 3.12489 0
M  V30 2111 C 187.76 -1.81676 3.29653 0
M  V30 2112 C 186.907 -0.701349 2.68284 0
M  V30 2113 H 189.858 0.0686989 1.58551 0
M  V30 2114 H 189.879 -2.17882 3.11942 0
M  V30 2115 H 189.391 -0.505796 3.8479 0
M  V30 2116 H 187.492 -2.64598 2.62333 0
M  V30 2117 H 187.605 -1.95226 4.3752 0
M  V30 2118 H 185.969 -1.12548 2.28484 0
M  V30 2119 H 186.752 0.0902846 3.43181 0
M  V30 2120 N 189.197 -1.51736 -0.425897 0
M  V30 2121 C 190.129 -1.70083 -1.53638 0
M  V30 2122 C 191.142 -0.581349 -1.52066 0
M  V30 2123 O 192.331 -0.856017 -1.56635 0
M  V30 2124 C 189.431 -1.71078 -2.9255 0
M  V30 2125 C 188.604 -2.99795 -3.185 0
M  V30 2126 C 187.663 -2.92825 -4.37196 0
M  V30 2127 O 186.689 -3.66756 -4.35291 0
M  V30 2128 N 187.891 -2.0946 -5.41393 0
M  V30 2129 H 190.656 -2.65882 -1.383 0
M  V30 2130 H 188.217 -1.49765 -0.614988 0
M  V30 2131 H 190.209 -1.63969 -3.69995 0
M  V30 2132 H 188.779 -0.828242 -3.01428 0
M  V30 2133 H 187.999 -3.20684 -2.2925 0
M  V30 2134 H 189.287 -3.84977 -3.32671 0
M  V30 2135 H 188.685 -1.48792 -5.45781 0
M  V30 2136 H 187.242 -2.08221 -6.17647 0
M  V30 2137 N 190.675 0.682077 -1.42076 0
M  V30 2138 C 191.623 1.81707 -1.45208 0
M  V30 2139 C 192.617 1.66183 -0.328591 0
M  V30 2140 O 193.823 1.7288 -0.501264 0
M  V30 2141 H 190.198 0.599014 -0.454628 0
M  V30 2142 H 192.169 1.76183 -2.40836 0
M  V30 2143 C 190.918 3.19816 -1.36428 0
M  V30 2144 H 190.241 3.32385 -2.22171 0
M  V30 2145 H 191.681 3.99272 -1.42681 0
M  V30 2146 C 190.14 3.36809 -0.078191 0
M  V30 2147 O 190.67 3.92124 0.87188 0
M  V30 2148 N 188.876 2.906 0.00229266 0
M  V30 2149 H 188.423 2.45772 -0.771616 0
M  V30 2150 H 188.381 3.02347 0.862179 0
M  V30 2151 N 192.153 1.28127 0.917671 0
M  V30 2152 C 193.083 1.14248 2.03641 0
M  V30 2153 C 194.064 0.0412748 1.7005 0
M  V30 2154 O 195.249 0.217566 1.92977 0
M  V30 2155 C 192.379 0.799431 3.37974 0
M  V30 2156 C 191.333 1.85497 3.85713 0
M  V30 2157 C 190.659 1.36565 5.16966 0
M  V30 2158 C 191.959 3.26085 4.08002 0
M  V30 2159 H 193.653 2.07835 2.15511 0
M  V30 2160 H 191.199 1.00064 1.03553 0
M  V30 2161 H 193.152 0.689114 4.15727 0
M  V30 2162 H 191.876 -0.172145 3.26146 0
M  V30 2163 H 190.535 1.95437 3.10161 0
M  V30 2164 H 190.183 0.383253 5.01538 0
M  V30 2165 H 189.883 2.07143 5.49878 0
M  V30 2166 H 191.407 1.26848 5.97279 0
M  V30 2167 H 192.821 3.19089 4.76293 0
M  V30 2168 H 191.218 3.94462 4.52238 0
M  V30 2169 H 192.288 3.70394 3.12948 0
M  V30 2170 N 193.631 -1.12557 1.10312 0
M  V30 2171 C 194.561 -2.20341 0.772798 0
M  V30 2172 C 195.542 -1.68198 -0.25365 0
M  V30 2173 O 196.727 -1.93831 -0.119699 0
M  V30 2174 C 193.857 -3.46709 0.202443 0
M  V30 2175 C 192.811 -4.11996 1.15943 0
M  V30 2176 C 192.137 -5.328 0.450345 0
M  V30 2177 C 193.437 -4.5828 2.50552 0
M  V30 2178 H 195.131 -2.48229 1.674 0
M  V30 2179 H 192.677 -1.19308 0.806326 0
M  V30 2180 H 194.63 -4.2138 -0.0407752 0
M  V30 2181 H 193.354 -3.18245 -0.734001 0
M  V30 2182 H 192.013 -3.39305 1.38808 0
M  V30 2183 H 191.661 -5.00602 -0.490531 0
M  V30 2184 H 191.361 -5.7743 1.08851 0
M  V30 2185 H 192.885 -6.10219 0.215642 0
M  V30 2186 H 194.299 -5.2433 2.31843 0
M  V30 2187 H 192.696 -5.13683 3.10242 0
M  V30 2188 H 193.766 -3.72329 3.10643 0
M  V30 2189 N 195.109 -0.891671 -1.2995 0
M  V30 2190 C 196.358 -0.509521 -1.95158 0
M  V30 2191 C 196.671 0.947388 -1.71125 0
M  V30 2192 O 197.877 1.43669 -2.30372 0
M  V30 2193 C 196.333 -0.860315 -3.49466 0
M  V30 2194 C 195.941 -2.33545 -3.8231 0
M  V30 2195 C 197.685 -0.547687 -4.20952 0
M  V30 2196 C 195.592 -2.62752 -5.29826 0
M  V30 2197 H 194.522 -0.18682 -0.730489 0
M  V30 2198 H 197.173 -1.08756 -1.47798 0
M  V30 2199 H 195.555 -0.211285 -3.95436 0
M  V30 2200 H 196.729 -3.02936 -3.47227 0
M  V30 2201 H 195.044 -2.61629 -3.23944 0
M  V30 2202 H 197.641 -0.742854 -5.29515 0
M  V30 2203 H 197.984 0.51332 -4.13123 0
M  V30 2204 H 198.517 -1.1542 -3.80688 0
M  V30 2205 H 195.256 -3.6762 -5.42712 0
M  V30 2206 H 194.776 -1.97977 -5.66185 0
M  V30 2207 H 196.455 -2.48601 -5.97333 0
M  V30 2208 N 196.587 1.43421 -0.653314 0
M  V30 2209 C 197.535 2.32546 0.0501531 0
M  V30 2210 C 198.529 1.48617 0.812985 0
M  V30 2211 O 199.735 1.64825 0.723375 0
M  V30 2212 H 196.11 0.751185 0.0350032 0
M  V30 2213 H 198.081 2.89602 -0.719261 0
M  V30 2214 C 196.83 3.32925 1.00279 0
M  V30 2215 H 196.153 3.97532 0.425236 0
M  V30 2216 H 197.593 3.9792 1.46409 0
M  V30 2217 C 196.052 2.63532 2.09886 0
M  V30 2218 O 196.582 2.45092 3.18265 0
M  V30 2219 N 194.788 2.22905 1.86445 0
M  V30 2220 H 194.335 2.38103 0.98309 0
M  V30 2221 H 194.293 1.76805 2.59976 0
M  V30 2222 N 198.065 0.39524 1.52563 0
M  V30 2223 C 199.481 0.0454682 1.59535 0
M  V30 2224 C 199.681 -1.44056 1.4089 0
M  V30 2225 O 198.737 -2.20579 1.22888 0
M  V30 2226 C 200.05 0.527963 2.96029 0
M  V30 2227 C 201.598 0.484733 3.09224 0
M  V30 2228 C 202.073 0.943512 4.48176 0
M  V30 2229 N 203.564 0.899765 4.54377 0
M  V30 2230 C 204.299 1.22609 5.60138 0
M  V30 2231 N 203.795 1.62319 6.73516 0
M  V30 2232 N 205.588 1.14696 5.50274 0
M  V30 2233 H 197.739 1.36261 1.62931 0
M  V30 2234 H 200.002 0.558887 0.765735 0
M  V30 2235 H 199.708 1.56607 3.14908 0
M  V30 2236 H 199.582 -0.0698056 3.77135 0
M  V30 2237 H 201.969 -0.544298 2.90037 0
M  V30 2238 H 202.05 1.11838 2.30056 0
M  V30 2239 H 201.694 1.9708 4.68104 0
M  V30 2240 H 201.624 0.286817 5.25818 0
M  V30 2241 H 204.115 0.607632 3.72983 0
M  V30 2242 H 204.428 1.85567 7.5019 0
M  V30 2243 H 202.773 1.66211 6.74833 0
M  V30 2244 H 205.964 0.835701 4.6058 0
M  V30 2245 H 206.137 1.40459 6.32594 0
M  V30 2246 N 199.544 -1.57102 0.125237 0
M  V30 2247 C 200.454 -2.19191 -0.8362 0
M  V30 2248 C 201.47 -1.16985 -1.28805 0
M  V30 2249 O 202.646 -1.49479 -1.34974 0
M  V30 2250 C 199.711 -2.78407 -2.06617 0
M  V30 2251 C 198.772 -3.9567 -1.66565 0
M  V30 2252 C 198.005 -4.52052 -2.83698 0
M  V30 2253 O 198.228 -4.07326 -3.99302 0
M  V30 2254 O 197.162 -5.42645 -2.60423 0
M  V30 2255 H 200.988 -3.01816 -0.337776 0
M  V30 2256 H 198.573 -1.4906 -0.100695 0
M  V30 2257 H 200.455 -3.16129 -2.7864 0
M  V30 2258 H 199.13 -1.9881 -2.55453 0
M  V30 2259 H 198.037 -3.62705 -0.916296 0
M  V30 2260 H 199.37 -4.76722 -1.22464 0
M  V30 2261 N 201.022 0.148545 -1.56898 0
M  V30 2262 C 202.27 0.859717 -1.82902 0
M  V30 2263 C 202.591 1.81775 -0.70588 0
M  V30 2264 O 201.861 1.93994 0.272586 0
M  V30 2265 H 200.441 0.320469 -0.674766 0
M  V30 2266 H 203.103 0.142918 -1.94375 0
M  V30 2267 H 202.199 1.4229 -2.77777 0
M  V30 2268 N 202.5 1.5196 0.417844 0
M  V30 2269 C 203.41 1.77554 1.53336 0
M  V30 2270 C 204.426 0.660655 1.6097 0
M  V30 2271 O 205.602 0.945099 1.77848 0
M  V30 2272 C 202.667 1.91291 2.89152 0
M  V30 2273 C 201.728 3.15183 2.91475 0
M  V30 2274 C 200.961 3.28256 4.20813 0
M  V30 2275 O 201.184 2.46798 5.14244 0
M  V30 2276 O 200.118 4.21356 4.29817 0
M  V30 2277 H 203.944 2.7222 1.34647 0
M  V30 2278 H 201.529 1.36698 0.602828 0
M  V30 2279 H 203.411 2.02199 3.69721 0
M  V30 2280 H 202.086 0.998129 3.07927 0
M  V30 2281 H 200.993 3.09739 2.09791 0
M  V30 2282 H 202.326 4.06414 2.77648 0
M  V30 2283 N 203.978 -0.674533 1.42435 0
M  V30 2284 C 204.908 -1.80009 1.48724 0
M  V30 2285 C 205.889 -1.6659 0.343793 0
M  V30 2286 O 207.074 -1.86007 0.558137 0
M  V30 2287 C 204.204 -3.18306 1.38919 0
M  V30 2288 C 203.158 -3.46461 2.51294 0
M  V30 2289 C 202.484 -4.84335 2.26547 0
M  V30 2290 C 203.784 -3.43328 3.93603 0
M  V30 2291 H 205.478 -1.75004 2.42928 0
M  V30 2292 H 203.024 -0.840533 1.16923 0
M  V30 2293 H 204.977 -3.9678 1.41927 0
M  V30 2294 H 203.701 -3.2399 0.412094 0
M  V30 2295 H 202.36 -2.70348 2.47604 0
M  V30 2296 H 202.008 -4.86669 1.2713 0
M  V30 2297 H 201.708 -5.04136 3.01861 0
M  V30 2298 H 203.232 -5.65094 2.31304 0
M  V30 2299 H 204.646 -4.11772 3.98894 0
M  V30 2300 H 203.043 -3.74664 4.68771 0
M  V30 2301 H 204.113 -2.41897 4.20255 0
M  V30 2302 N 205.456 -1.28612 -0.910864 0
M  V30 2303 C 206.403 -1.12786 -2.01365 0
M  V30 2304 C 207.373 -0.024201 -1.66082 0
M  V30 2305 O 208.558 -0.189667 -1.89855 0
M  V30 2306 C 205.698 -0.798743 -3.35729 0
M  V30 2307 C 204.811 -1.98173 -3.83864 0
M  V30 2308 C 203.946 -1.59298 -5.06752 0
M  V30 2309 C 202.985 -2.74245 -5.47226 0
M  V30 2310 N 202.122 -2.35842 -6.61304 0
M  V30 2311 H 206.962 -2.07142 -2.14234 0
M  V30 2312 H 204.499 -1.03093 -1.0493 0
M  V30 2313 H 206.457 -0.588662 -4.13026 0
M  V30 2314 H 205.087 0.10789 -3.2262 0
M  V30 2315 H 204.139 -2.30386 -3.02699 0
M  V30 2316 H 205.451 -2.84343 -4.09818 0
M  V30 2317 H 204.605 -1.34513 -5.916 0
M  V30 2318 H 203.344 -0.702618 -4.82612 0
M  V30 2319 H 202.349 -2.99725 -4.60918 0
M  V30 2320 H 203.574 -3.63928 -5.73353 0
M  V30 2321 H 201.52 -1.49279 -6.38789 0
M  V30 2322 H 201.437 -3.15546 -6.86998 0
M  V30 2323 H 202.705 -2.14348 -7.4945 0
M  V30 2324 N 206.934 1.1197 -1.10907 0
M  V30 2325 C 208.183 1.82947 -0.849302 0
M  V30 2326 C 208.496 1.85275 0.627112 0
M  V30 2327 O 209.702 2.52296 1.00295 0
M  V30 2328 C 208.158 3.28529 -1.46959 0
M  V30 2329 C 207.766 3.34546 -2.97965 0
M  V30 2330 C 209.51 4.04443 -1.28942 0
M  V30 2331 C 207.417 4.74491 -3.53004 0
M  V30 2332 H 206.347 0.685477 -0.314065 0
M  V30 2333 H 208.998 1.2604 -1.33365 0
M  V30 2334 H 207.38 3.85333 -0.912917 0
M  V30 2335 H 208.554 2.87654 -3.59989 0
M  V30 2336 H 206.869 2.72108 -3.15192 0
M  V30 2337 H 209.466 5.07787 -1.67502 0
M  V30 2338 H 209.809 4.15656 -0.231456 0
M  V30 2339 H 210.342 3.5401 -1.81443 0
M  V30 2340 H 207.081 4.68474 -4.58489 0
M  V30 2341 H 206.601 5.21816 -2.9575 0
M  V30 2342 H 208.28 5.4344 -3.51115 0
M  V30 2343 N 208.412 0.89855 1.29475 0
M  V30 2344 C 209.375 0.380272 2.26023 0
M  V30 2345 C 210.375 -0.484891 1.53315 0
M  V30 2346 O 211.565 -0.290108 1.71767 0
M  V30 2347 C 208.697 -0.45651 3.3783 0
M  V30 2348 H 209.89 1.23295 2.73383 0
M  V30 2349 H 207.443 0.676589 1.40897 0
M  V30 2350 H 208.178 -1.32922 2.95808 0
M  V30 2351 H 207.963 0.163393 3.91759 0
M  V30 2352 H 209.453 -0.810466 4.0966 0
M  V30 2353 N 209.89 -1.43072 0.660911 0
M  V30 2354 C 211.167 -1.95307 0.107017 0
M  V30 2355 C 211.547 -1.60192 -1.37484 0
M  V30 2356 O 210.895 -0.890949 -2.10415 0
M  V30 2357 C 211.105 -3.47124 0.361402 0
M  V30 2358 C 212.453 -4.23738 0.270455 0
M  V30 2359 O 213.477 -3.54981 0.294382 0
M  V30 2360 O 212.336 -5.46131 0.200737 0
M  V30 2361 H 209.43 -0.826984 -0.00517729 0
M  V30 2362 H 211.976 -1.52972 0.734681 0
M  V30 2363 H 210.748 -3.65837 1.38848 0
M  V30 2364 H 210.371 -3.96475 -0.298953 0
M  V30 2365 N 211.368 -0.403325 -1.52352 0
M  V30 2366 C 212.615 0.174347 -2.01748 0
M  V30 2367 C 212.943 1.45636 -1.2892 0
M  V30 2368 O 212.198 1.9193 -0.382258 0
M  V30 2369 C 212.497 0.474665 -3.54234 0
M  V30 2370 C 212.163 -0.717458 -4.45155 0
M  V30 2371 C 210.825 -1.04447 -4.69728 0
M  V30 2372 C 213.177 -1.51432 -4.98716 0
M  V30 2373 C 210.505 -2.16963 -5.45109 0
M  V30 2374 C 212.857 -2.6302 -5.75329 0
M  V30 2375 C 211.521 -2.96213 -5.98175 0
M  V30 2376 H 210.791 0.0637981 -0.738248 0
M  V30 2377 H 213.438 -0.543553 -1.83624 0
M  V30 2378 H 211.743 1.27406 -3.70506 0
M  V30 2379 H 213.44 0.934496 -3.89959 0
M  V30 2380 H 210.03 -0.452596 -4.26204 0
M  V30 2381 H 214.214 -1.27491 -4.79645 0
M  V30 2382 H 209.47 -2.43034 -5.61021 0
M  V30 2383 H 213.644 -3.25158 -6.15829 0
M  V30 2384 H 211.271 -3.83516 -6.56368 0
M  V30 2385 N 212.846 1.57033 -0.133567 0
M  V30 2386 C 214.094 1.953 0.519848 0
M  V30 2387 C 214.415 1.01866 1.66278 0
M  V30 2388 O 213.685 0.0776513 1.95746 0
M  V30 2389 H 212.265 0.721091 0.195032 0
M  V30 2390 H 214.927 1.93809 -0.205921 0
M  V30 2391 H 214.023 2.98695 0.904854 0
M  V30 2392 N 214.325 -0.140222 1.56975 0
M  V30 2393 C 215.255 -1.17456 2.01808 0
M  V30 2394 C 216.236 -1.44415 0.898794 0
M  V30 2395 O 217.421 -1.5522 1.16707 0
M  V30 2396 C 214.551 -2.50607 2.40444 0
M  V30 2397 C 213.505 -2.38155 3.55621 0
M  V30 2398 C 212.831 -3.76078 3.80091 0
M  V30 2399 C 214.131 -1.85991 4.88062 0
M  V30 2400 H 215.825 -0.801743 2.88466 0
M  V30 2401 H 213.371 -0.38422 1.38779 0
M  V30 2402 H 215.324 -3.23197 2.7041 0
M  V30 2403 H 214.048 -2.89737 1.50732 0
M  V30 2404 H 212.707 -1.68016 3.25832 0
M  V30 2405 H 212.355 -4.12656 2.87618 0
M  V30 2406 H 212.055 -3.68606 4.57606 0
M  V30 2407 H 213.579 -4.50206 4.12488 0
M  V30 2408 H 214.993 -2.4838 5.16701 0
M  V30 2409 H 213.39 -1.89393 5.6943 0
M  V30 2410 H 214.46 -0.816023 4.77984 0
M  V30 2411 N 215.803 -1.52179 -0.40978 0
M  V30 2412 C 216.766 -1.74853 -1.48186 0
M  V30 2413 C 217.766 -0.618417 -1.48433 0
M  V30 2414 O 218.956 -0.886286 -1.49969 0
M  V30 2415 C 216.088 -1.8303 -2.87598 0
M  V30 2416 H 217.281 -2.70559 -1.29374 0
M  V30 2417 H 214.834 -1.42586 -0.640233 0
M  V30 2418 H 215.569 -0.89236 -3.11781 0
M  V30 2419 H 215.354 -2.65187 -2.88822 0
M  V30 2420 H 216.844 -2.02316 -3.65319 0
M  V30 2421 N 217.281 0.66697 -1.42791 0
M  V30 2422 C 218.697 0.981027 -1.25889 0
M  V30 2423 C 218.897 2.00793 -0.168695 0
M  V30 2424 O 217.953 2.48321 0.45747 0
M  V30 2425 C 219.266 1.47838 -2.61848 0
M  V30 2426 C 220.814 1.59575 -2.69267 0
M  V30 2427 C 221.289 2.12704 -4.05612 0
M  V30 2428 N 222.78 2.20026 -4.07606 0
M  V30 2429 C 223.515 2.62227 -5.09926 0
M  V30 2430 N 223.011 3.03824 -6.22626 0
M  V30 2431 N 224.804 2.62045 -4.97281 0
M  V30 2432 H 216.955 -0.0127891 -2.12396 0
M  V30 2433 H 219.218 0.0568258 -0.946295 0
M  V30 2434 H 218.924 0.798299 -3.4252 0
M  V30 2435 H 218.798 2.45579 -2.86305 0
M  V30 2436 H 221.185 2.26687 -1.88936 0
M  V30 2437 H 221.266 0.60302 -2.48591 0
M  V30 2438 H 220.91 1.46198 -4.86404 0
M  V30 2439 H 220.84 3.12782 -4.23645 0
M  V30 2440 H 223.331 1.90708 -3.2625 0
M  V30 2441 H 223.644 3.34734 -6.96544 0
M  V30 2442 H 221.989 3.01662 -6.26119 0
M  V30 2443 H 225.18 2.28916 -4.08308 0
M  V30 2444 H 225.353 2.94613 -5.77154 0
M  V30 2445 N 218.759 1.29093 0.90403 0
M  V30 2446 C 219.722 1.1386 1.98919 0
M  V30 2447 C 220.722 0.0753457 1.60623 0
M  V30 2448 O 221.912 0.321931 1.71199 0
M  V30 2449 C 219.044 0.740198 3.32767 0
M  V30 2450 H 220.237 2.10246 2.13861 0
M  V30 2451 H 217.79 1.12218 1.08797 0
M  V30 2452 H 218.525 -0.223997 3.23525 0
M  V30 2453 H 218.31 1.50838 3.61926 0
M  V30 2454 H 219.8 0.656546 4.12407 0
M  V30 2455 N 220.237 -1.11381 1.11499 0
M  V30 2456 C 221.484 -1.83132 0.864231 0
M  V30 2457 C 221.812 -1.84683 -0.610114 0
M  V30 2458 O 221.067 -1.29589 -1.46646 0
M  V30 2459 C 221.366 -3.30026 1.37177 0
M  V30 2460 C 221.032 -3.48634 2.85946 0
M  V30 2461 C 219.694 -3.53421 3.26569 0
M  V30 2462 C 222.046 -3.54837 3.81759 0
M  V30 2463 C 219.374 -3.61967 4.61733 0
M  V30 2464 C 221.726 -3.64915 5.1674 0
M  V30 2465 C 220.39 -3.67962 5.5692 0
M  V30 2466 H 219.66 -0.670127 0.316245 0
M  V30 2467 H 222.307 -1.31354 1.3935 0
M  V30 2468 H 220.612 -3.84304 0.762753 0
M  V30 2469 H 222.309 -3.84034 1.15408 0
M  V30 2470 H 218.899 -3.45579 2.53521 0
M  V30 2471 H 223.083 -3.50399 3.51474 0
M  V30 2472 H 218.339 -3.62603 4.92269 0
M  V30 2473 H 222.513 -3.68658 5.90816 0
M  V30 2474 H 220.14 -3.74336 6.61647 0
M  V30 2475 N 221.715 -0.905404 -1.28997 0
M  V30 2476 C 222.963 -0.533192 -1.9494 0
M  V30 2477 C 223.284 0.924618 -1.71685 0
M  V30 2478 O 222.554 1.65268 -1.05183 0
M  V30 2479 H 221.134 -0.194194 -0.721317 0
M  V30 2480 H 223.796 -1.15294 -1.57141 0
M  V30 2481 H 222.892 -0.72059 -3.03667 0
M  V30 2482 N 223.193 1.4272 -0.668489 0
M  V30 2483 C 224.442 2.00846 -0.185389 0
M  V30 2484 C 224.755 1.53442 1.21305 0
M  V30 2485 O 225.961 2.03944 1.79218 0
M  V30 2486 C 224.417 3.58805 -0.280591 0
M  V30 2487 C 224.025 4.15198 -1.68268 0
M  V30 2488 C 225.769 4.24255 0.14412 0
M  V30 2489 C 223.676 5.655 -1.73099 0
M  V30 2490 H 222.606 0.751145 -0.0655475 0
M  V30 2491 H 225.257 1.63516 -0.832752 0
M  V30 2492 H 223.639 3.93608 0.434553 0
M  V30 2493 H 224.813 3.91866 -2.42441 0
M  V30 2494 H 223.128 3.62176 -2.05469 0
M  V30 2495 H 225.725 5.34547 0.128086 0
M  V30 2496 H 226.068 3.99277 1.17827 0
M  V30 2497 H 226.601 3.94389 -0.519798 0
M  V30 2498 H 223.34 5.95268 -2.74475 0
M  V30 2499 H 222.86 5.90842 -1.03274 0
M  V30 2500 H 224.539 6.29808 -1.48158 0
M  V30 2501 N 224.671 0.411399 1.52136 0
M  V30 2502 C 226.082 -0.0576826 1.86611 0
M  V30 2503 C 226.433 -1.44238 1.33003 0
M  V30 2504 O 225.558 -2.05759 0.670228 0
M  V30 2505 C 226.153 -0.111448 3.38617 0
M  V30 2506 C 224.712 -0.52487 3.72723 0
M  V30 2507 C 223.859 0.299176 2.75681 0
M  V30 2508 H 226.81 0.628368 1.4573 0
M  V30 2509 H 226.831 -0.926252 3.69054 0
M  V30 2510 H 226.343 0.896488 3.77604 0
M  V30 2511 H 224.444 -1.53936 3.39315 0
M  V30 2512 H 224.557 -0.267681 4.78352 0
M  V30 2513 H 222.921 -0.238814 2.53578 0
M  V30 2514 H 223.704 1.3055 3.17508 0
M  V30 2515 N 226.149 -1.5696 0.141893 0
M  V30 2516 C 227.395 -1.9625 -0.511248 0
M  V30 2517 C 227.728 -1.02654 -1.64851 0
M  V30 2518 O 227.003 -0.0679676 -1.94381 0
M  V30 2519 C 227.286 -3.45285 -1.02227 0
M  V30 2520 C 227.139 -4.49658 0.113138 0
M  V30 2521 C 228.458 -3.96698 -1.90574 0
M  V30 2522 H 225.577 -0.713567 -0.184367 0
M  V30 2523 H 228.219 -1.88698 0.222087 0
M  V30 2524 H 226.369 -3.51852 -1.64719 0
M  V30 2525 H 228.041 -4.55174 0.749302 0
M  V30 2526 H 226.284 -4.26857 0.773026 0
M  V30 2527 H 226.955 -5.51258 -0.286053 0
M  V30 2528 H 229.431 -3.92578 -1.37918 0
M  V30 2529 H 228.307 -5.01453 -2.2324 0
M  V30 2530 H 228.568 -3.3875 -2.84079 0
M  V30 2531 N 227.627 0.131896 -1.57047 0
M  V30 2532 C 229.043 0.485031 -1.52051 0
M  V30 2533 C 229.243 1.82563 -0.85281 0
M  V30 2534 O 228.299 2.48817 -0.429694 0
M  V30 2535 C 229.612 0.481409 -2.96821 0
M  V30 2536 C 231.16 0.565868 -3.07842 0
M  V30 2537 C 231.635 0.592762 -4.54148 0
M  V30 2538 N 233.126 0.654564 -4.58552 0
M  V30 2539 C 233.861 0.696608 -5.69153 0
M  V30 2540 N 233.357 0.697078 -6.89284 0
M  V30 2541 N 235.15 0.738639 -5.57226 0
M  V30 2542 H 227.301 -0.746664 -1.98843 0
M  V30 2543 H 229.564 -0.273999 -0.90754 0
M  V30 2544 H 229.27 -0.435731 -3.4899 0
M  V30 2545 H 229.144 1.3139 -3.53577 0
M  V30 2546 H 231.531 1.47343 -2.55684 0
M  V30 2547 H 231.612 -0.29406 -2.54104 0
M  V30 2548 H 231.256 -0.310701 -5.06949 0
M  V30 2549 H 231.186 1.46939 -5.05684 0
M  V30 2550 H 233.677 0.660887 -3.72076 0
M  V30 2551 H 233.99 0.731426 -7.69331 0
M  V30 2552 H 232.335 0.66471 -6.91814 0
M  V30 2553 H 235.526 0.735545 -4.62285 0
M  V30 2554 H 235.699 0.767938 -6.43434 0
M  V30 2555 N 229.106 1.52395 0.401703 0
M  V30 2556 C 230.053 1.76268 1.48991 0
M  V30 2557 C 231.023 0.605386 1.54675 0
M  V30 2558 O 232.208 0.843742 1.7113 0
M  V30 2559 C 229.348 1.92592 2.86361 0
M  V30 2560 C 228.461 3.20259 2.89928 0
M  V30 2561 C 227.596 3.26972 4.18644 0
M  V30 2562 C 226.635 4.48812 4.16214 0
M  V30 2563 N 225.772 4.52877 5.36514 0
M  V30 2564 H 230.612 2.6914 1.27935 0
M  V30 2565 H 228.149 1.33355 0.620871 0
M  V30 2566 H 230.107 2.0004 3.66115 0
M  V30 2567 H 228.737 1.03093 3.05895 0
M  V30 2568 H 227.789 3.21945 2.02621 0
M  V30 2569 H 229.101 4.10056 2.83999 0
M  V30 2570 H 228.255 3.33533 5.06794 0
M  V30 2571 H 226.994 2.35126 4.27278 0
M  V30 2572 H 225.999 4.4239 3.26453 0
M  V30 2573 H 227.224 5.41961 4.09213 0
M  V30 2574 H 225.17 3.63917 5.45802 0
M  V30 2575 H 225.087 5.36529 5.32609 0
M  V30 2576 H 226.355 4.63676 6.26597 0
M  V30 2577 N 230.584 -0.659388 1.43143 0
M  V30 2578 C 231.814 -1.44513 1.47646 0
M  V30 2579 C 232.222 -1.88981 0.0910095 0
M  V30 2580 O 231.565 -1.59702 -0.907789 0
M  V30 2581 C 231.627 -2.71663 2.35456 0
M  V30 2582 C 231.291 -2.49175 3.83094 0
M  V30 2583 C 232.288 -2.1279 4.74359 0
M  V30 2584 C 229.973 -2.63691 4.27519 0
M  V30 2585 C 231.967 -1.9121 6.08044 0
M  V30 2586 C 229.654 -2.41726 5.61259 0
M  V30 2587 C 230.652 -2.0554 6.51339 0
M  V30 2588 O 230.34 -1.838 7.82606 0
M  V30 2589 H 230.072 -0.45064 0.503884 0
M  V30 2590 H 232.626 -0.816248 1.88485 0
M  V30 2591 H 230.856 -3.37089 1.89493 0
M  V30 2592 H 232.545 -3.33595 2.31235 0
M  V30 2593 H 233.311 -2.01157 4.41317 0
M  V30 2594 H 229.19 -2.90832 3.57684 0
M  V30 2595 H 232.734 -1.62889 6.78316 0
M  V30 2596 H 228.631 -2.52959 5.9387 0
M  V30 2597 H 229.399 -1.98275 7.94122 0
M  V30 2598 N 232.062 -1.29571 -0.897171 0
M  V30 2599 C 233.29 -1.20583 -1.68129 0
M  V30 2600 C 233.705 0.233181 -1.87354 0
M  V30 2601 O 233.062 1.15579 -1.41236 0
M  V30 2602 C 233.113 -1.91772 -3.06441 0
M  V30 2603 O 232.834 -3.30053 -2.88091 0
M  V30 2604 C 234.335 -1.89291 -4.00854 0
M  V30 2605 H 231.555 -0.417826 -0.525036 0
M  V30 2606 H 234.099 -1.70987 -1.12177 0
M  V30 2607 H 232.254 -1.45196 -3.59161 0
M  V30 2608 H 232.668 -3.65942 -3.75748 0
M  V30 2609 H 234.142 -2.43662 -4.95311 0
M  V30 2610 H 234.619 -0.869014 -4.30517 0
M  V30 2611 H 235.225 -2.35622 -3.54066 0
M  V30 2612 N 233.54 1.10788 -1.12088 0
M  V30 2613 C 234.49 2.15158 -0.754401 0
M  V30 2614 C 235.474 1.59026 0.244846 0
M  V30 2615 O 236.666 1.76927 0.0509097 0
M  V30 2616 C 233.795 3.42677 -0.206657 0
M  V30 2617 C 232.881 4.05751 -1.23398 0
M  V30 2618 N 233.272 4.43582 -2.43041 0
M  V30 2619 C 231.57 4.32764 -1.07848 0
M  V30 2620 C 232.271 4.93085 -3.08613 0
M  V30 2621 N 231.247 4.89664 -2.36072 0
M  V30 2622 H 235.049 2.42195 -1.6649 0
M  V30 2623 H 232.563 1.27872 -1.00112 0
M  V30 2624 H 234.56 4.16834 0.0740646 0
M  V30 2625 H 233.22 3.17101 0.698342 0
M  V30 2626 H 234.231 4.35395 -2.80449 0
M  V30 2627 H 230.908 4.16863 -0.230483 0
M  V30 2628 H 232.298 5.31933 -4.10483 0
M  V30 2629 N 235.018 0.912232 1.28515 0
M  V30 2630 C 235.928 0.404506 2.31086 0
M  V30 2631 C 236.944 -0.50707 1.66448 0
M  V30 2632 O 238.12 -0.393624 1.97516 0
M  V30 2633 C 235.185 -0.348572 3.44943 0
M  V30 2634 C 234.246 0.59604 4.25142 0
M  V30 2635 C 233.479 -0.121194 5.33562 0
M  V30 2636 O 233.702 -1.34317 5.5436 0
M  V30 2637 O 232.636 0.542716 5.99448 0
M  V30 2638 H 236.462 1.25579 2.76521 0
M  V30 2639 H 234.047 0.676998 1.33181 0
M  V30 2640 H 235.929 -0.77395 4.14232 0
M  V30 2641 H 234.604 -1.17571 3.01594 0
M  V30 2642 H 233.511 1.07079 3.58448 0
M  V30 2643 H 234.844 1.38995 4.72167 0
M  V30 2644 N 236.496 -1.42363 0.676048 0
M  V30 2645 C 237.742 -2.0182 0.199125 0
M  V30 2646 C 238.075 -1.53339 -1.19168 0
M  V30 2647 O 237.35 -0.736124 -1.80032 0
M  V30 2648 C 237.633 -3.59331 0.235144 0
M  V30 2649 C 237.486 -4.17989 1.66149 0
M  V30 2650 C 238.805 -4.3813 -0.41595 0
M  V30 2651 H 235.924 -0.733293 0.0738311 0
M  V30 2652 H 238.566 -1.69368 0.86107 0
M  V30 2653 H 236.716 -3.87109 -0.328487 0
M  V30 2654 H 238.388 -4.0116 2.27747 0
M  V30 2655 H 236.631 -3.7377 2.20178 0
M  V30 2656 H 237.302 -5.27126 1.63837 0
M  V30 2657 H 239.778 -4.16051 0.0638529 0
M  V30 2658 H 238.654 -5.47717 -0.360115 0
M  V30 2659 H 238.915 -4.16101 -1.49373 0
M  V30 2660 N 237.974 -0.419461 -1.51915 0
M  V30 2661 C 239.22 0.153166 -2.02221 0
M  V30 2662 C 239.553 1.43907 -1.30401 0
M  V30 2663 O 238.828 1.90055 -0.413438 0
M  V30 2664 C 239.111 0.390291 -3.57979 0
M  V30 2665 C 238.964 -0.913014 -4.40436 0
M  V30 2666 C 240.283 1.16794 -4.2432 0
M  V30 2667 H 237.402 0.0541924 -0.735005 0
M  V30 2668 H 240.044 -0.554955 -1.81715 0
M  V30 2669 H 238.194 0.993491 -3.75582 0
M  V30 2670 H 239.866 -1.54882 -4.34522 0
M  V30 2671 H 238.109 -1.52168 -4.06236 0
M  V30 2672 H 238.78 -0.701361 -5.47526 0
M  V30 2673 H 241.256 0.657161 -4.10878 0
M  V30 2674 H 240.132 1.3026 -5.3322 0
M  V30 2675 H 240.393 2.19132 -3.83971 0
M  V30 2676 N 239.452 1.56882 -0.150215 0
M  V30 2677 C 240.68 2.00593 0.506948 0
M  V30 2678 C 241.095 1.03033 1.58208 0
M  V30 2679 O 240.452 0.0278396 1.82479 0
M  V30 2680 C 240.503 3.44209 1.10465 0
M  V30 2681 O 240.224 4.3804 0.0724636 0
M  V30 2682 C 241.725 4.03214 1.84211 0
M  V30 2683 H 238.945 0.65795 0.13169 0
M  V30 2684 H 241.489 2.03018 -0.245743 0
M  V30 2685 H 239.644 3.42625 1.80795 0
M  V30 2686 H 240.058 5.22007 0.510793 0
M  V30 2687 H 241.532 5.0569 2.21318 0
M  V30 2688 H 242.009 3.44107 2.72923 0
M  V30 2689 H 242.615 4.08437 1.18572 0
M  V30 2690 N 240.93 -0.123565 1.57115 0
M  V30 2691 C 241.86 -1.15309 2.03042 0
M  V30 2692 C 242.841 -1.43454 0.914061 0
M  V30 2693 O 244.026 -1.53973 1.18347 0
M  V30 2694 C 241.156 -2.48043 2.43089 0
M  V30 2695 C 240.11 -2.3437 3.58127 0
M  V30 2696 C 239.436 -3.72026 3.84059 0
M  V30 2697 C 240.736 -1.80804 4.90007 0
M  V30 2698 H 242.43 -0.771102 2.893 0
M  V30 2699 H 239.976 -0.369479 1.39179 0
M  V30 2700 H 241.929 -3.20311 2.73823 0
M  V30 2701 H 240.653 -2.88122 1.53796 0
M  V30 2702 H 239.312 -1.64551 3.27595 0
M  V30 2703 H 238.96 -4.09582 2.91979 0
M  V30 2704 H 238.66 -3.63732 4.6149 0
M  V30 2705 H 240.184 -4.45806 4.1724 0
M  V30 2706 H 241.598 -2.42886 5.19307 0
M  V30 2707 H 239.995 -1.83343 5.71407 0
M  V30 2708 H 241.065 -0.76528 4.78823 0
M  V30 2709 N 242.408 -1.52605 -0.393616 0
M  V30 2710 C 243.654 -1.68624 -1.13743 0
M  V30 2711 C 244.009 -0.418687 -1.87789 0
M  V30 2712 O 243.302 0.58747 -1.82371 0
M  V30 2713 C 243.496 -2.85721 -2.14705 0
M  V30 2714 C 243.325 -4.23742 -1.50575 0
M  V30 2715 C 242.095 -4.89033 -1.2718 0
M  V30 2716 C 244.293 -5.05293 -0.958311 0
M  V30 2717 N 242.275 -6.11048 -0.591058 0
M  V30 2718 C 243.646 -6.18673 -0.405367 0
M  V30 2719 C 245.701 -4.90517 -0.854274 0
M  V30 2720 C 244.404 -7.18895 0.241434 0
M  V30 2721 C 246.43 -5.90986 -0.221301 0
M  V30 2722 C 245.792 -7.03669 0.320894 0
M  V30 2723 H 241.891 -0.670556 -0.402342 0
M  V30 2724 H 244.475 -1.89946 -0.427607 0
M  V30 2725 H 242.646 -2.65987 -2.83029 0
M  V30 2726 H 244.378 -2.90699 -2.8156 0
M  V30 2727 H 241.133 -4.47672 -1.54554 0
M  V30 2728 H 241.557 -6.76474 -0.266862 0
M  V30 2729 H 246.199 -4.03612 -1.25926 0
M  V30 2730 H 243.917 -8.05413 0.658448 0
M  V30 2731 H 247.503 -5.81626 -0.142111 0
M  V30 2732 H 246.383 -7.80078 0.802956 0
M  V30 2733 N 243.887 0.651787 -1.4349 0
M  V30 2734 C 245.117 1.43728 -1.48411 0
M  V30 2735 C 245.525 1.8893 -0.10103 0
M  V30 2736 O 244.868 1.60182 0.899307 0
M  V30 2737 C 244.93 2.70411 -2.36893 0
M  V30 2738 C 244.594 2.4714 -3.8441 0
M  V30 2739 C 245.591 2.10271 -4.75481 0
M  V30 2740 C 243.276 2.6142 -4.28912 0
M  V30 2741 C 245.27 1.87982 -6.0905 0
M  V30 2742 C 242.957 2.38746 -5.62533 0
M  V30 2743 C 243.955 2.02083 -6.5242 0
M  V30 2744 O 243.643 1.79647 -7.8357 0
M  V30 2745 H 243.375 0.447962 -0.506267 0
M  V30 2746 H 245.929 0.80624 -1.88915 0
M  V30 2747 H 244.159 3.36079 -1.91278 0
M  V30 2748 H 245.848 3.32364 -2.33 0
M  V30 2749 H 246.614 1.98814 -4.42378 0
M  V30 2750 H 242.493 2.88931 -3.59222 0
M  V30 2751 H 246.037 1.5929 -6.7917 0
M  V30 2752 H 241.934 2.49806 -5.95203 0
M  V30 2753 H 242.702 1.9406 -7.95162 0
M  V30 2754 N 245.365 1.30045 0.890287 0
M  V30 2755 C 246.781 1.08261 1.17268 0
M  V30 2756 C 246.981 -0.160063 2.00863 0
M  V30 2757 O 246.037 -0.855181 2.37577 0
M  V30 2758 C 247.35 2.34323 1.8845 0
M  V30 2759 C 248.898 2.39735 2.01237 0
M  V30 2760 C 249.373 3.65625 2.7583 0
M  V30 2761 N 250.864 3.66402 2.83379 0
M  V30 2762 C 251.599 4.60498 3.41657 0
M  V30 2763 N 251.095 5.64933 4.01026 0
M  V30 2764 N 252.888 4.48051 3.39421 0
M  V30 2765 H 245.039 2.09777 0.332762 0
M  V30 2766 H 247.302 0.92446 0.209948 0
M  V30 2767 H 247.008 3.2498 1.34465 0
M  V30 2768 H 246.882 2.4256 2.88867 0
M  V30 2769 H 249.269 1.4956 2.54393 0
M  V30 2770 H 249.35 2.35476 0.999232 0
M  V30 2771 H 248.994 4.56156 2.23347 0
M  V30 2772 H 248.924 3.67144 3.77509 0
M  V30 2773 H 251.415 2.90896 2.41222 0
M  V30 2774 H 251.728 6.32841 4.43545 0
M  V30 2775 H 250.073 5.68732 3.99461 0
M  V30 2776 H 253.264 3.65649 2.92264 0
M  V30 2777 H 253.437 5.21565 3.84544 0
M  V30 2778 N 246.843 -1.10192 1.12674 0
M  V30 2779 C 247.806 -2.14786 0.799979 0
M  V30 2780 C 248.806 -1.59711 -0.18685 0
M  V30 2781 O 249.996 -1.74156 0.0392558 0
M  V30 2782 C 247.128 -3.40374 0.189228 0
M  V30 2783 H 248.321 -2.45203 1.72671 0
M  V30 2784 H 245.874 -1.25597 0.930326 0
M  V30 2785 H 246.609 -3.15577 -0.747107 0
M  V30 2786 H 246.394 -3.81637 0.899766 0
M  V30 2787 H 247.884 -4.17594 -0.0228143 0
M  V30 2788 N 248.321 -0.919034 -1.28029 0
M  V30 2789 C 249.732 -0.600735 -1.76771 0
M  V30 2790 C 250.083 0.884024 -1.75156 0
M  V30 2791 O 249.208 1.69163 -1.34956 0
M  V30 2792 C 249.803 -1.08372 -3.21 0
M  V30 2793 C 248.362 -0.816248 -3.67443 0
M  V30 2794 C 247.509 -1.24742 -2.47658 0
M  V30 2795 H 250.46 -1.09974 -1.14418 0
M  V30 2796 H 250.481 -0.427512 -3.78091 0
M  V30 2797 H 249.993 -2.16437 -3.22144 0
M  V30 2798 H 248.094 0.250968 -3.71754 0
M  V30 2799 H 248.207 -1.4277 -4.57333 0
M  V30 2800 H 246.571 -0.666083 -2.45836 0
M  V30 2801 H 247.354 -2.33653 -2.51518 0
M  V30 2802 N 249.799 1.42003 -0.683588 0
M  V30 2803 C 251.076 1.95112 -0.138075 0
M  V30 2804 C 251.456 1.62359 1.34918 0
M  V30 2805 O 250.804 0.924311 2.08971 0
M  V30 2806 C 251.014 3.46505 -0.416581 0
M  V30 2807 C 252.362 4.23254 -0.337834 0
M  V30 2808 O 253.386 3.54468 -0.35082 0
M  V30 2809 O 252.245 5.45743 -0.287596 0
M  V30 2810 H 249.339 0.826961 -0.00797996 0
M  V30 2811 H 251.885 1.51784 -0.758924 0
M  V30 2812 H 250.657 3.63582 -1.4465 0
M  V30 2813 H 250.28 3.969 0.235839 0
M  V30 2814 N 251.277 0.427512 1.51691 0
M  V30 2815 C 252.523 -0.142439 2.02299 0
M  V30 2816 C 252.856 -1.43214 1.31162 0
M  V30 2817 O 252.131 -1.89833 0.423511 0
M  V30 2818 C 252.414 -0.371301 3.58181 0
M  V30 2819 C 252.267 0.936358 4.39946 0
M  V30 2820 C 253.586 -1.14542 4.24933 0
M  V30 2821 H 250.705 -0.0502937 0.735282 0
M  V30 2822 H 253.347 0.564584 1.81418 0
M  V30 2823 H 251.497 -0.973559 3.76104 0
M  V30 2824 H 253.169 1.57184 4.33694 0
M  V30 2825 H 251.412 1.5432 4.05423 0
M  V30 2826 H 252.083 0.730388 5.47147 0
M  V30 2827 H 254.559 -0.635362 4.11221 0
M  V30 2828 H 253.435 -1.27431 5.33903 0
M  V30 2829 H 253.696 -2.17093 3.85127 0
M  V30 2830 N 252.755 -1.56801 0.158532 0
M  V30 2831 C 253.685 -2.20347 -0.772609 0
M  V30 2832 C 254.666 -1.15518 -1.24859 0
M  V30 2833 O 255.851 -1.43902 -1.30406 0
M  V30 2834 C 252.981 -2.83417 -2.00729 0
M  V30 2835 C 251.935 -3.94174 -1.66765 0
M  V30 2836 C 251.261 -4.44233 -2.97592 0
M  V30 2837 C 252.561 -5.14392 -0.905447 0
M  V30 2838 H 254.255 -2.98413 -0.242959 0
M  V30 2839 H 251.801 -1.43537 -0.115419 0
M  V30 2840 H 253.754 -3.26543 -2.6636 0
M  V30 2841 H 252.478 -2.02701 -2.56086 0
M  V30 2842 H 251.137 -3.51684 -1.03508 0
M  V30 2843 H 250.785 -3.60325 -3.50963 0
M  V30 2844 H 250.485 -5.18945 -2.75626 0
M  V30 2845 H 252.009 -4.90037 -3.64274 0
M  V30 2846 H 253.423 -5.5429 -1.46408 0
M  V30 2847 H 251.82 -5.9494 -0.7853 0
M  V30 2848 H 252.89 -4.84795 0.100668 0
M  V30 2849 N 254.233 0.115231 -1.57178 0
M  V30 2850 C 255.166 1.17166 -1.95825 0
M  V30 2851 C 256.144 1.39912 -0.828463 0
M  V30 2852 O 257.328 1.54004 -1.08697 0
M  V30 2853 C 254.455 2.52478 -2.25771 0
M  V30 2854 C 253.501 2.46136 -3.48309 0
M  V30 2855 S 254.334 1.89736 -5.0076 0
M  V30 2856 C 255.49 3.26713 -5.33863 0
M  V30 2857 H 255.723 0.842103 -2.85124 0
M  V30 2858 H 253.256 0.322136 -1.51002 0
M  V30 2859 H 255.214 3.30332 -2.43702 0
M  V30 2860 H 253.875 2.82609 -1.37079 0
M  V30 2861 H 253.068 3.45819 -3.66641 0
M  V30 2862 H 252.67 1.76404 -3.29784 0
M  V30 2863 H 254.962 4.22935 -5.29275 0
M  V30 2864 H 255.905 3.13205 -6.35065 0
M  V30 2865 H 256.313 3.25316 -4.61335 0
M  V30 2866 N 255.711 1.52812 0.385517 0
M  V30 2867 C 256.959 1.67694 1.12797 0
M  V30 2868 C 257.28 0.421115 1.90399 0
M  V30 2869 O 256.55 -0.564551 1.87589 0
M  V30 2870 H 255.13 0.618155 0.419396 0
M  V30 2871 H 257.792 1.89938 0.436972 0
M  V30 2872 H 256.888 2.52896 1.82894 0
M  V30 2873 N 257.189 -0.644168 1.43834 0
M  V30 2874 C 258.414 -1.43642 1.49605 0
M  V30 2875 C 258.839 -1.8773 0.117913 0
M  V30 2876 O 258.197 -1.57938 -0.890239 0
M  V30 2877 C 258.245 -2.6416 2.45463 0
M  V30 2878 O 257.349 -3.63538 1.94714 0
M  V30 2879 H 256.69 -0.430329 0.50568 0
M  V30 2880 H 259.22 -0.787448 1.8884 0
M  V30 2881 H 259.23 -3.11864 2.63068 0
M  V30 2882 H 257.905 -2.31414 3.45572 0
M  V30 2883 H 256.482 -3.2273 1.86814 0
M  V30 2884 N 258.668 -1.30515 -0.883378 0
M  V30 2885 C 259.615 -1.17032 -1.98927 0
M  V30 2886 C 260.585 -0.0594241 -1.65994 0
M  V30 2887 O 261.77 -0.229895 -1.8941 0
M  V30 2888 C 258.91 -0.869777 -3.33959 0
M  V30 2889 C 258.023 -2.06271 -3.79574 0
M  V30 2890 C 257.158 -1.70011 -5.03259 0
M  V30 2891 C 256.197 -2.8579 -5.41286 0
M  V30 2892 N 255.334 -2.49816 -6.56153 0
M  V30 2893 H 260.174 -2.1164 -2.09792 0
M  V30 2894 H 257.711 -1.05296 -1.02719 0
M  V30 2895 H 259.669 -0.676138 -4.11685 0
M  V30 2896 H 258.299 0.0394332 -3.22776 0
M  V30 2897 H 257.351 -2.36755 -2.97744 0
M  V30 2898 H 258.663 -2.92971 -4.03694 0
M  V30 2899 H 257.817 -1.47032 -5.88614 0
M  V30 2900 H 256.556 -0.804829 -4.81013 0
M  V30 2901 H 255.561 -3.09434 -4.54456 0
M  V30 2902 H 256.786 -3.76008 -5.65504 0
M  V30 2903 H 254.732 -1.62795 -6.35479 0
M  V30 2904 H 254.649 -3.30048 -6.8015 0
M  V30 2905 H 255.917 -2.30197 -7.44735 0
M  V30 2906 N 260.146 1.09593 -1.13257 0
M  V30 2907 C 261.093 2.1618 -0.808381 0
M  V30 2908 C 262.063 1.64517 0.228754 0
M  V30 2909 O 263.248 1.9053 0.101381 0
M  V30 2910 C 260.388 3.43973 -0.278675 0
M  V30 2911 C 259.501 4.09545 -1.37466 0
M  V30 2912 C 258.636 5.25088 -0.803479 0
M  V30 2913 C 257.675 5.82579 -1.87799 0
M  V30 2914 N 256.812 6.89486 -1.32488 0
M  V30 2915 H 261.652 2.43254 -1.72138 0
M  V30 2916 H 259.189 1.19392 -0.859294 0
M  V30 2917 H 261.147 4.17174 0.0465583 0
M  V30 2918 H 259.777 3.17223 0.597459 0
M  V30 2919 H 258.829 3.34226 -1.81652 0
M  V30 2920 H 260.141 4.48307 -2.18684 0
M  V30 2921 H 259.295 6.05178 -0.429427 0
M  V30 2922 H 258.034 4.87684 0.0397956 0
M  V30 2923 H 257.039 5.01152 -2.26113 0
M  V30 2924 H 258.264 6.22045 -2.72463 0
M  V30 2925 H 256.21 6.54064 -0.503575 0
M  V30 2926 H 256.127 7.27007 -2.07355 0
M  V30 2927 H 257.395 7.73336 -0.978336 0
M  V30 2928 N 261.624 0.925811 1.2754 0
M  V30 2929 C 262.854 0.580666 1.98272 0
M  V30 2930 C 263.262 -0.845207 1.69272 0
M  V30 2931 O 262.605 -1.57306 0.948707 0
M  V30 2932 C 262.667 0.724418 3.52126 0
M  V30 2933 C 262.331 2.12206 4.04744 0
M  V30 2934 C 263.328 3.09604 4.17662 0
M  V30 2935 C 261.013 2.4385 4.39138 0
M  V30 2936 C 263.007 4.36755 4.64246 0
M  V30 2937 C 260.694 3.71237 4.85414 0
M  V30 2938 C 261.692 4.67503 4.97926 0
M  V30 2939 O 261.38 5.92624 5.43187 0
M  V30 2940 H 261.112 0.218987 0.639547 0
M  V30 2941 H 263.666 1.24452 1.63404 0
M  V30 2942 H 261.896 0.0034663 3.867 0
M  V30 2943 H 263.585 0.384607 4.04074 0
M  V30 2944 H 264.351 2.86478 3.91351 0
M  V30 2945 H 260.23 1.69665 4.28643 0
M  V30 2946 H 263.774 5.11898 4.73927 0
M  V30 2947 H 259.671 3.94182 5.11166 0
M  V30 2948 H 260.439 5.95585 5.61445 0
M  V30 2949 N 263.102 -1.41638 0.69111 0
M  V30 2950 C 264.327 -2.06148 0.227583 0
M  V30 2951 C 264.752 -1.51652 -1.11281 0
M  V30 2952 O 264.11 -0.64164 -1.69566 0
M  V30 2953 C 264.158 -3.60095 0.190858 0
M  V30 2954 O 263.262 -4.03845 -0.835664 0
M  V30 2955 H 262.603 -0.654434 0.112306 0
M  V30 2956 H 265.133 -1.81484 0.944714 0
M  V30 2957 H 265.143 -4.07995 0.020207 0
M  V30 2958 H 263.818 -3.99129 1.16915 0
M  V30 2959 H 262.395 -3.67458 -0.63473 0
M  V30 2960 N 264.58 -0.43555 -1.51462 0
M  V30 2961 C 265.808 0.130242 -2.0649 0
M  V30 2962 C 266.223 1.36614 -1.30315 0
M  V30 2963 O 265.58 1.78869 -0.362223 0
M  V30 2964 C 265.631 0.454253 -3.58635 0
M  V30 2965 O 265.352 -0.73259 -4.31931 0
M  V30 2966 C 266.853 1.07091 -4.3017 0
M  V30 2967 H 264.073 0.00871669 -0.670943 0
M  V30 2968 H 266.617 -0.614117 -1.95061 0
M  V30 2969 H 264.772 1.14851 -3.69984 0
M  V30 2970 H 265.186 -0.455787 -5.22516 0
M  V30 2971 H 266.66 1.24764 -5.37716 0
M  V30 2972 H 267.137 2.05144 -3.88346 0
M  V30 2973 H 267.743 0.416089 -4.2326 0
M  V30 2974 N 266.058 1.56714 -0.166846 0
M  V30 2975 C 267.286 2.0112 0.485644 0
M  V30 2976 C 267.701 1.04705 1.57106 0
M  V30 2977 O 267.058 0.0471923 1.82439 0
M  V30 2978 C 267.109 3.45361 1.06808 0
M  V30 2979 O 266.83 4.38092 0.0259995 0
M  V30 2980 C 268.331 4.05145 1.79924 0
M  V30 2981 H 265.551 0.65931 0.124704 0
M  V30 2982 H 268.095 2.02746 -0.267262 0
M  V30 2983 H 266.25 3.44524 1.7715 0
M  V30 2984 H 266.664 5.22519 0.455398 0
M  V30 2985 H 268.138 5.08009 2.15942 0
M  V30 2986 H 268.615 3.46982 2.69258 0
M  V30 2987 H 269.221 4.09672 1.14234 0
M  V30 2988 N 267.536 -0.106894 1.57237 0
M  V30 2989 C 268.785 -0.811163 1.8467 0
M  V30 2990 C 269.098 -1.80469 0.754342 0
M  V30 2991 O 270.304 -2.55601 0.915439 0
M  V30 2992 C 268.76 -1.49337 3.27454 0
M  V30 2993 C 268.368 -0.540217 4.44731 0
M  V30 2994 C 270.112 -2.18206 3.64124 0
M  V30 2995 C 268.019 -1.22634 5.78545 0
M  V30 2996 H 266.949 -0.306679 0.688813 0
M  V30 2997 H 269.6 -0.0639887 1.83388 0
M  V30 2998 H 267.982 -2.2876 3.23241 0
M  V30 2999 H 269.156 0.221659 4.60267 0
M  V30 3000 H 267.471 0.042146 4.16379 0
M  V30 3001 H 270.068 -2.70253 4.61376 0
M  V30 3002 H 270.411 -2.96562 2.92158 0
M  V30 3003 H 270.944 -1.45658 3.70174 0
M  V30 3004 H 267.683 -0.483832 6.53712 0
M  V30 3005 H 267.203 -1.95993 5.66874 0
M  V30 3006 H 268.882 -1.75615 6.2271 0
M  V30 3007 N 269.014 -1.53014 -0.377408 0
M  V30 3008 C 270.291 -1.59215 -1.13622 0
M  V30 3009 C 270.671 -0.392407 -2.07421 0
M  V30 3010 O 270.019 0.618342 -2.19975 0
M  V30 3011 C 270.229 -2.93669 -1.88573 0
M  V30 3012 C 271.577 -3.47822 -2.43526 0
M  V30 3013 O 272.601 -2.9562 -1.98715 0
M  V30 3014 O 271.46 -4.39055 -3.25412 0
M  V30 3015 H 268.554 -0.642625 -0.52054 0
M  V30 3016 H 271.1 -1.65353 -0.381625 0
M  V30 3017 H 269.872 -3.7243 -1.20048 0
M  V30 3018 H 269.495 -2.90968 -2.70968 0
M  V30 3019 N 270.492 0.636531 -1.44174 0
M  V30 3020 C 271.741 1.39213 -1.45954 0
M  V30 3021 C 272.054 1.95374 -0.0939119 0
M  V30 3022 O 273.26 2.71498 0.0107767 0
M  V30 3023 C 271.716 2.52025 -2.56927 0
M  V30 3024 C 271.324 2.024 -3.99673 0
M  V30 3025 C 273.068 3.29269 -2.67922 0
M  V30 3026 C 270.975 3.12521 -5.0208 0
M  V30 3027 H 269.905 0.523132 -0.542999 0
M  V30 3028 H 272.556 0.685349 -1.70221 0
M  V30 3029 H 270.938 3.25253 -2.25891 0
M  V30 3030 H 272.112 1.36073 -4.40251 0
M  V30 3031 H 270.427 1.37987 -3.92872 0
M  V30 3032 H 273.024 4.11352 -3.41605 0
M  V30 3033 H 273.367 3.78397 -1.73555 0
M  V30 3034 H 273.9 2.63129 -2.98342 0
M  V30 3035 H 270.639 2.68343 -5.98057 0
M  V30 3036 H 270.159 3.77507 -4.66099 0
M  V30 3037 H 271.838 3.77385 -5.25538 0
M  V30 3038 N 271.97 1.30982 0.876444 0
M  V30 3039 C 273.216 1.21484 1.63136 0
M  V30 3040 C 273.571 -0.226339 1.91064 0
M  V30 3041 O 272.864 -1.15788 1.52656 0
M  V30 3042 C 273.058 1.98572 2.9716 0
M  V30 3043 C 272.887 3.50039 2.82317 0
M  V30 3044 C 271.657 4.19393 2.81847 0
M  V30 3045 C 273.855 4.45111 2.57644 0
M  V30 3046 N 271.837 5.57061 2.57985 0
M  V30 3047 C 273.208 5.70402 2.42986 0
M  V30 3048 C 275.263 4.3461 2.42937 0
M  V30 3049 C 273.966 6.8638 2.15115 0
M  V30 3050 C 275.992 5.50365 2.16454 0
M  V30 3051 C 275.354 6.74642 2.02578 0
M  V30 3052 H 271.453 0.499632 0.601575 0
M  V30 3053 H 274.037 1.65094 1.03209 0
M  V30 3054 H 272.208 1.5734 3.55104 0
M  V30 3055 H 273.94 1.81146 3.61895 0
M  V30 3056 H 270.695 3.71303 2.93991 0
M  V30 3057 H 271.119 6.29529 2.49043 0
M  V30 3058 H 275.761 3.39199 2.52396 0
M  V30 3059 H 273.479 7.81824 2.04394 0
M  V30 3060 H 277.065 5.44154 2.05884 0
M  V30 3061 H 275.945 7.62699 1.82374 0
M  V30 3062 N 273.449 -1.08991 1.13837 0
M  V30 3063 C 274.674 -1.85551 0.926585 0
M  V30 3064 C 275.099 -1.80782 -0.519566 0
M  V30 3065 O 274.457 -1.18855 -1.36906 0
M  V30 3066 C 274.505 -3.31266 1.42462 0
M  V30 3067 O 273.609 -4.07822 0.612789 0
M  V30 3068 H 272.95 -0.575192 0.331738 0
M  V30 3069 H 275.48 -1.37604 1.51414 0
M  V30 3070 H 275.49 -3.82112 1.43019 0
M  V30 3071 H 274.165 -3.34052 2.47754 0
M  V30 3072 H 272.742 -3.66731 0.675463 0
M  V30 3073 N 274.927 -0.932562 -1.27047 0
M  V30 3074 C 276.173 -0.576412 -1.94436 0
M  V30 3075 C 276.506 0.880891 -1.73072 0
M  V30 3076 O 275.781 1.62905 -1.06264 0
M  V30 3077 C 276.064 -0.909031 -3.48437 0
M  V30 3078 C 275.917 -2.42044 -3.79123 0
M  V30 3079 C 277.236 -0.418341 -4.38107 0
M  V30 3080 H 274.355 -0.210888 -0.706184 0
M  V30 3081 H 276.997 -1.16522 -1.50075 0
M  V30 3082 H 275.147 -0.407947 -3.86352 0
M  V30 3083 H 276.819 -2.99359 -3.50973 0
M  V30 3084 H 275.062 -2.86758 -3.25503 0
M  V30 3085 H 275.733 -2.6037 -4.86736 0
M  V30 3086 H 278.209 -0.847856 -4.0737 0
M  V30 3087 H 277.085 -0.679981 -5.44672 0
M  V30 3088 H 277.346 0.681642 -4.36814 0
M  V30 3089 N 276.405 1.4127 -0.698611 0
M  V30 3090 C 277.653 2.00782 -0.230409 0
M  V30 3091 C 277.974 1.5562 1.17505 0
M  V30 3092 O 277.244 0.78815 1.79346 0
M  V30 3093 H 275.824 0.742464 -0.0821944 0
M  V30 3094 H 278.486 1.72852 -0.90045 0
M  V30 3095 H 277.582 3.11095 -0.25021 0
M  V30 3096 N 277.883 0.443576 1.51229 0
M  V30 3097 C 279.123 -0.119889 2.04048 0
M  V30 3098 C 279.487 -1.39418 1.32009 0
M  V30 3099 O 280.688 -2.03829 1.75235 0
M  V30 3100 C 278.959 -0.327233 3.55899 0
M  V30 3101 S 280.518 -0.853208 4.30425 0
M  V30 3102 H 277.336 -0.028921 0.710412 0
M  V30 3103 H 279.938 0.604413 1.85922 0
M  V30 3104 H 278.642 0.606445 4.05895 0
M  V30 3105 H 278.173 -1.07844 3.7833 0
M  V30 3106 H 280.188 -2.13005 4.48155 0
M  V30 3107 N 279.361 -1.56624 0.175154 0
M  V30 3108 C 280.61 -1.96173 -0.468921 0
M  V30 3109 C 280.923 -1.06401 -1.64128 0
M  V30 3110 O 282.129 -1.35648 -2.35185 0
M  V30 3111 C 280.585 -3.48833 -0.885633 0
M  V30 3112 C 280.193 -4.47237 0.261343 0
M  V30 3113 C 281.937 -3.97194 -1.49791 0
M  V30 3114 C 279.844 -5.9114 -0.175214 0
M  V30 3115 H 278.774 -0.732455 -0.178958 0
M  V30 3116 H 281.425 -1.81591 0.263997 0
M  V30 3117 H 279.807 -3.58848 -1.67464 0
M  V30 3118 H 280.981 -4.4894 1.03871 0
M  V30 3119 H 279.296 -4.08956 0.783827 0
M  V30 3120 H 281.893 -5.02167 -1.83665 0
M  V30 3121 H 282.236 -3.40351 -2.39722 0
M  V30 3122 H 282.769 -3.90212 -0.773267 0
M  V30 3123 H 279.508 -6.51865 0.689414 0
M  V30 3124 H 279.028 -5.92735 -0.91786 0
M  V30 3125 H 280.707 -6.44044 -0.617792 0
M  V30 3126 N 280.839 0.0985539 -1.57292 0
M  V30 3127 C 282.086 0.802678 -1.85912 0
M  V30 3128 C 282.414 1.78901 -0.763186 0
M  V30 3129 O 281.669 1.94178 0.243559 0
M  V30 3130 C 281.968 1.56927 -3.21105 0
M  V30 3131 C 281.634 0.725376 -4.45027 0
M  V30 3132 C 280.296 0.492726 -4.78671 0
M  V30 3133 C 282.648 0.138493 -5.21016 0
M  V30 3134 C 279.976 -0.336727 -5.85733 0
M  V30 3135 C 282.328 -0.678264 -6.28953 0
M  V30 3136 C 280.992 -0.921039 -6.61115 0
M  V30 3137 H 280.262 0.293721 -0.680301 0
M  V30 3138 H 282.909 0.0642841 -1.91392 0
M  V30 3139 H 281.214 2.37914 -3.11294 0
M  V30 3140 H 282.911 2.11841 -3.40477 0
M  V30 3141 H 279.501 0.916815 -4.18679 0
M  V30 3142 H 283.685 0.305404 -4.95359 0
M  V30 3143 H 278.941 -0.533836 -6.09065 0
M  V30 3144 H 283.115 -1.1399 -6.87007 0
M  V30 3145 H 280.742 -1.56556 -7.43905 0
M  V30 3146 N 282.317 1.53212 0.369288 0
M  V30 3147 C 283.28 1.7872 1.43498 0
M  V30 3148 C 284.28 0.657554 1.46741 0
M  V30 3149 O 285.47 0.925736 1.47566 0
M  V30 3150 C 282.602 1.90591 2.82645 0
M  V30 3151 H 283.795 2.73894 1.22156 0
M  V30 3152 H 281.348 1.44233 0.602203 0
M  V30 3153 H 282.083 0.974709 3.09306 0
M  V30 3154 H 281.868 2.72751 2.8169 0
M  V30 3155 H 283.358 2.11931 3.59826 0
M  V30 3156 N 283.795 -0.628877 1.44509 0
M  V30 3157 C 284.705 -1.7694 1.54044 0
M  V30 3158 C 285.721 -1.68705 0.425987 0
M  V30 3159 O 286.897 -1.89442 0.683656 0
M  V30 3160 C 283.962 -3.13332 1.48405 0
M  V30 3161 C 283.023 -3.33181 2.70719 0
M  V30 3162 C 282.256 -4.63067 2.6534 0
M  V30 3163 O 282.479 -5.44017 1.71469 0
M  V30 3164 O 281.413 -4.85167 3.56226 0
M  V30 3165 H 285.239 -1.71848 2.50403 0
M  V30 3166 H 282.824 -0.790378 1.26781 0
M  V30 3167 H 284.706 -3.94634 1.47791 0
M  V30 3168 H 283.381 -3.1896 0.551898 0
M  V30 3169 H 282.288 -2.51549 2.769 0
M  V30 3170 H 283.621 -3.32416 3.62988 0
M  V30 3171 N 285.273 -1.31445 -0.869486 0
M  V30 3172 C 286.206 -1.13465 -1.97992 0
M  V30 3173 C 287.184 -0.0380291 -1.62556 0
M  V30 3174 O 288.368 -0.194544 -1.87493 0
M  V30 3175 C 285.495 -0.733822 -3.30655 0
M  V30 3176 C 284.541 -1.83356 -3.85075 0
M  V30 3177 S 285.374 -3.43909 -4.10472 0
M  V30 3178 C 286.53 -3.05763 -5.46132 0
M  V30 3179 H 286.763 -2.07471 -2.1294 0
M  V30 3180 H 284.296 -1.15936 -1.01972 0
M  V30 3181 H 286.254 -0.509306 -4.07328 0
M  V30 3182 H 284.915 0.187123 -3.13542 0
M  V30 3183 H 284.108 -1.50574 -4.80982 0
M  V30 3184 H 283.71 -2.01315 -3.15195 0
M  V30 3185 H 286.002 -2.54686 -6.27807 0
M  V30 3186 H 286.945 -4.00635 -5.83864 0
M  V30 3187 H 287.353 -2.43192 -5.09429 0
M  V30 3188 N 286.751 1.08385 -1.14413 0
M  V30 3189 C 287.997 1.81044 -0.913834 0
M  V30 3190 C 288.33 1.86004 0.558209 0
M  V30 3191 O 287.605 1.33606 1.4135 0
M  V30 3192 C 287.888 3.26648 -1.51569 0
M  V30 3193 C 287.741 3.29895 -3.0576 0
M  V30 3194 C 289.06 4.23629 -1.19273 0
M  V30 3195 H 286.179 0.65727 -0.333414 0
M  V30 3196 H 288.821 1.26896 -1.41412 0
M  V30 3197 H 286.971 3.72889 -1.09023 0
M  V30 3198 H 288.643 2.91977 -3.57137 0
M  V30 3199 H 286.886 2.69163 -3.40197 0
M  V30 3200 H 287.557 4.32516 -3.42977 0
M  V30 3201 H 290.033 3.85727 -1.56057 0
M  V30 3202 H 288.909 5.23822 -1.64017 0
M  V30 3203 H 289.17 4.41968 -0.108068 0
M  V30 3204 N 288.23 0.939286 1.26551 0
M  V30 3205 C 289.178 0.43815 2.28436 0
M  V30 3206 C 290.172 -0.483587 1.62351 0
M  V30 3207 O 291.378 -0.362009 1.76322 0
M  V30 3208 H 287.753 0.123149 0.741848 0
M  V30 3209 H 289.724 1.31002 2.68106 0
M  V30 3210 C 288.473 -0.283052 3.46546 0
M  V30 3211 H 287.796 0.417043 3.97619 0
M  V30 3212 H 289.236 -0.597948 4.19763 0
M  V30 3213 C 287.695 -1.50018 3.01656 0
M  V30 3214 O 288.225 -2.59855 3.0633 0
M  V30 3215 N 286.431 -1.35608 2.57019 0
M  V30 3216 H 285.978 -0.46244 2.53415 0
M  V30 3217 H 285.936 -2.17165 2.27347 0
M  V30 3218 N 289.708 -1.40897 0.706093 0
M  V30 3219 C 290.956 -2.00657 0.241054 0
M  V30 3220 C 291.277 -1.56241 -1.16678 0
M  V30 3221 O 290.547 -0.79765 -1.78926 0
M  V30 3222 H 289.127 -0.742018 0.0861308 0
M  V30 3223 H 291.789 -1.72372 0.909604 0
M  V30 3224 H 290.885 -3.10958 0.266705 0
M  V30 3225 N 291.186 -0.45159 -1.50991 0
M  V30 3226 C 292.414 0.108334 -2.06616 0
M  V30 3227 C 292.829 1.35224 -1.31757 0
M  V30 3228 O 292.186 1.78475 -0.381174 0
M  V30 3229 C 292.237 0.41619 -3.59096 0
M  V30 3230 O 291.958 -0.778361 -4.3113 0
M  V30 3231 C 293.459 1.02523 -4.31282 0
M  V30 3232 H 290.679 0.00159995 -0.670998 0
M  V30 3233 H 293.223 -0.634771 -1.94399 0
M  V30 3234 H 291.378 1.10921 -3.71181 0
M  V30 3235 H 291.792 -0.511181 -5.22003 0
M  V30 3236 H 293.266 1.19053 -5.39009 0
M  V30 3237 H 293.743 2.01013 -3.905 0
M  V30 3238 H 294.349 0.371173 -4.23677 0
M  V30 3239 N 292.664 1.56529 -0.183458 0
M  V30 3240 C 294.075 1.83739 0.331177 0
M  V30 3241 C 294.426 1.10373 1.62211 0
M  V30 3242 O 293.551 0.36071 2.13373 0
M  V30 3243 C 294.146 3.33306 0.607646 0
M  V30 3244 C 292.705 3.60969 1.06668 0
M  V30 3245 C 291.852 2.77086 0.109029 0
M  V30 3246 H 294.803 1.53379 -0.407484 0
M  V30 3247 H 294.824 3.51444 1.45832 0
M  V30 3248 H 294.336 3.86677 -0.332086 0
M  V30 3249 H 292.437 3.13021 2.0211 0
M  V30 3250 H 292.55 4.69231 0.967447 0
M  V30 3251 H 290.914 2.47319 0.608714 0
M  V30 3252 H 291.697 3.33241 -0.82494 0
M  V30 3253 N 294.142 -0.090211 1.57342 0
M  V30 3254 C 295.072 -1.10976 2.05443 0
M  V30 3255 C 296.053 -1.41482 0.944284 0
M  V30 3256 O 297.238 -1.51428 1.21586 0
M  V30 3257 C 294.368 -2.42831 2.48295 0
M  V30 3258 C 293.322 -2.26721 3.63018 0
M  V30 3259 C 292.648 -3.63796 3.91863 0
M  V30 3260 C 293.948 -1.7037 4.93732 0
M  V30 3261 H 295.642 -0.709564 2.9087 0
M  V30 3262 H 293.188 -0.339874 1.39932 0
M  V30 3263 H 295.141 -3.14431 2.80555 0
M  V30 3264 H 293.865 -2.84795 1.59873 0
M  V30 3265 H 292.524 -1.57565 3.31012 0
M  V30 3266 H 292.172 -4.03297 3.00601 0
M  V30 3267 H 291.872 -3.53861 4.69101 0
M  V30 3268 H 293.396 -4.36855 4.26603 0
M  V30 3269 H 294.81 -2.31816 5.24342 0
M  V30 3270 H 293.207 -1.71181 5.75167 0
M  V30 3271 H 294.277 -0.663542 4.80339 0
M  V30 3272 N 295.62 -1.53406 -0.361157 0
M  V30 3273 C 296.867 -1.69802 -1.10333 0
M  V30 3274 C 297.195 -0.452087 -1.89173 0
M  V30 3275 O 296.45 0.566017 -1.87336 0
M  V30 3276 C 296.749 -2.90211 -2.08596 0
M  V30 3277 C 296.415 -4.26539 -1.46203 0
M  V30 3278 C 295.077 -4.6361 -1.28915 0
M  V30 3279 C 297.429 -5.113 -1.01101 0
M  V30 3280 C 294.757 -5.83075 -0.651157 0
M  V30 3281 C 297.109 -6.31415 -0.387007 0
M  V30 3282 C 295.773 -6.67195 -0.201657 0
M  V30 3283 H 295.043 -0.621351 -0.403737 0
M  V30 3284 H 297.69 -1.87598 -0.384609 0
M  V30 3285 H 295.995 -2.66946 -2.86788 0
M  V30 3286 H 297.692 -3.00091 -2.65982 0
M  V30 3287 H 294.282 -3.97352 -1.60653 0
M  V30 3288 H 298.466 -4.83206 -1.13249 0
M  V30 3289 H 293.722 -6.09385 -0.496006 0
M  V30 3290 H 297.896 -6.96394 -0.0293563 0
M  V30 3291 H 295.523 -7.59628 0.294766 0
M  V30 3292 N 297.098 0.621204 -1.44841 0
M  V30 3293 C 298.509 1.20298 -1.42777 0
M  V30 3294 C 298.86 1.95639 -0.148259 0
M  V30 3295 O 297.985 2.02955 0.750892 0
M  V30 3296 C 298.58 2.1882 -2.58657 0
M  V30 3297 C 297.139 2.72403 -2.59756 0
M  V30 3298 C 296.286 1.4757 -2.34773 0
M  V30 3299 H 299.237 0.411297 -1.53278 0
M  V30 3300 H 299.258 3.01607 -2.31977 0
M  V30 3301 H 298.77 1.63957 -3.51766 0
M  V30 3302 H 296.871 3.31242 -1.70615 0
M  V30 3303 H 296.984 3.17765 -3.58556 0
M  V30 3304 H 295.348 1.76051 -1.8406 0
M  V30 3305 H 296.131 0.945954 -3.3001 0
M  V30 3306 N 298.576 1.31904 0.862503 0
M  V30 3307 C 299.824 1.21776 1.61292 0
M  V30 3308 C 300.145 -0.222413 1.93727 0
M  V30 3309 O 299.415 -1.1451 1.58947 0
M  V30 3310 H 297.995 0.447717 0.597962 0
M  V30 3311 H 300.657 1.65326 1.03215 0
M  V30 3312 H 299.753 1.7948 2.5533 0
M  V30 3313 N 300.054 -1.07777 1.14986 0
M  V30 3314 C 301.3 -1.80557 0.923422 0
M  V30 3315 C 301.633 -1.86298 -0.548337 0
M  V30 3316 O 300.908 -1.34354 -1.40639 0
M  V30 3317 C 301.191 -3.25839 1.53299 0
M  V30 3318 C 301.044 -3.28269 3.07505 0
M  V30 3319 C 302.363 -4.22991 1.21518 0
M  V30 3320 H 299.482 -0.655493 0.336894 0
M  V30 3321 H 302.124 -1.26144 1.42083 0
M  V30 3322 H 300.274 -3.72306 1.10999 0
M  V30 3323 H 301.946 -2.90079 3.58681 0
M  V30 3324 H 300.189 -2.67355 3.4162 0
M  V30 3325 H 300.86 -4.30691 3.45266 0
M  V30 3326 H 303.336 -3.84894 1.581 0
M  V30 3327 H 302.212 -5.22945 1.66793 0
M  V30 3328 H 302.473 -4.41904 0.131505 0
M  V30 3329 N 301.532 -0.945985 -1.26051 0
M  V30 3330 C 302.757 -0.612525 -1.98149 0
M  V30 3331 C 303.182 0.806623 -1.69927 0
M  V30 3332 O 302.54 1.54411 -0.950108 0
M  V30 3333 C 302.588 -0.866981 -3.50023 0
M  V30 3334 O 301.692 0.0585333 -4.12358 0
M  V30 3335 H 301.033 -0.23379 -0.621481 0
M  V30 3336 H 303.563 -1.27023 -1.60395 0
M  V30 3337 H 303.573 -0.789792 -4.00283 0
M  V30 3338 H 302.248 -1.90135 -3.69894 0
M  V30 3339 H 300.825 -0.0701241 -3.72834 0
M  V30 3340 N 303.011 1.40521 -0.713556 0
M  V30 3341 C 303.921 2.34522 -0.0606667 0
M  V30 3342 C 304.937 1.57193 0.74607 0
M  V30 3343 O 306.113 1.89591 0.679493 0
M  V30 3344 C 303.178 3.36081 0.851491 0
M  V30 3345 C 302.239 4.29286 0.0349339 0
M  V30 3346 C 301.472 5.25994 0.903649 0
M  V30 3347 O 301.695 5.28616 2.14292 0
M  V30 3348 O 300.629 6.00918 0.343723 0
M  V30 3349 H 304.455 2.91968 -0.835972 0
M  V30 3350 H 302.04 1.41681 -0.47402 0
M  V30 3351 H 303.922 3.98369 1.37404 0
M  V30 3352 H 302.597 2.81052 1.60598 0
M  V30 3353 H 301.504 3.70289 -0.532633 0
M  V30 3354 H 302.837 4.87462 -0.681287 0
M  V30 3355 N 304.489 0.459591 1.5075 0
M  V30 3356 C 305.452 -0.329093 2.26825 0
M  V30 3357 C 306.452 -0.930481 1.31144 0
M  V30 3358 O 307.642 -0.801453 1.54669 0
M  V30 3359 C 304.774 -1.46768 3.07688 0
M  V30 3360 H 305.967 0.337924 2.9799 0
M  V30 3361 H 303.52 0.213336 1.54837 0
M  V30 3362 H 304.255 -2.17009 2.40993 0
M  V30 3363 H 304.04 -1.04238 3.77991 0
M  V30 3364 H 305.53 -2.02433 3.65254 0
M  V30 3365 N 305.967 -1.56429 0.191757 0
M  V30 3366 C 307.244 -1.89224 -0.495332 0
M  V30 3367 C 307.624 -1.10478 -1.79883 0
M  V30 3368 O 306.972 -0.204852 -2.2758 0
M  V30 3369 C 307.182 -3.41548 -0.717367 0
M  V30 3370 C 308.53 -4.11711 -1.03823 0
M  V30 3371 O 309.554 -3.4698 -0.805204 0
M  V30 3372 O 308.413 -5.2611 -1.47887 0
M  V30 3373 H 305.507 -0.785788 -0.25781 0
M  V30 3374 H 308.053 -1.68111 0.231721 0
M  V30 3375 H 306.825 -3.90772 0.203287 0
M  V30 3376 H 306.448 -3.68342 -1.497 0
M  V30 3377 N 307.445 0.0818655 -1.57387 0
M  V30 3378 C 308.377 1.12484 -1.997 0
M  V30 3379 C 309.39 1.35564 -0.90146 0
M  V30 3380 O 310.579 1.33982 -1.17945 0
M  V30 3381 C 307.679 2.47778 -2.31213 0
M  V30 3382 C 306.852 2.44793 -3.62485 0
M  V30 3383 C 305.911 3.62117 -3.81782 0
M  V30 3384 O 304.937 3.44005 -4.53486 0
M  V30 3385 N 306.139 4.82094 -3.23367 0
M  V30 3386 H 308.904 0.764585 -2.89783 0
M  V30 3387 H 306.465 0.270664 -1.59621 0
M  V30 3388 H 308.457 3.24891 -2.41304 0
M  V30 3389 H 307.027 2.75843 -1.4707 0
M  V30 3390 H 306.247 1.53134 -3.6324 0
M  V30 3391 H 307.535 2.39889 -4.48699 0
M  V30 3392 H 306.933 4.99713 -2.65148 0
M  V30 3393 H 305.49 5.56753 -3.38923 0
M  V30 3394 N 308.923 1.53595 0.353017 0
M  V30 3395 C 309.853 1.83902 1.43883 0
M  V30 3396 C 310.834 0.693421 1.55324 0
M  V30 3397 O 312.019 0.944452 1.69687 0
M  V30 3398 C 309.149 2.04016 2.8106 0
M  V30 3399 C 308.103 3.19814 2.84434 0
M  V30 3400 C 307.429 3.25244 4.24406 0
M  V30 3401 C 308.729 4.58133 2.50822 0
M  V30 3402 H 310.423 2.74835 1.1877 0
M  V30 3403 H 307.969 1.32242 0.569917 0
M  V30 3404 H 309.922 2.238 3.57059 0
M  V30 3405 H 308.646 1.09804 3.07588 0
M  V30 3406 H 307.305 2.9987 2.10887 0
M  V30 3407 H 306.953 2.28646 4.48029 0
M  V30 3408 H 306.653 4.03054 4.27576 0
M  V30 3409 H 308.177 3.47228 5.0226 0
M  V30 3410 H 309.591 4.77995 3.16534 0
M  V30 3411 H 307.988 5.38276 2.6529 0
M  V30 3412 H 309.058 4.62387 1.46034 0
M  V30 3413 N 310.401 -0.613514 1.45168 0
M  V30 3414 C 311.334 -1.73809 1.47871 0
M  V30 3415 C 312.312 -1.59097 0.33568 0
M  V30 3416 O 313.496 -1.8074 0.535299 0
M  V30 3417 C 310.623 -3.11574 1.32813 0
M  V30 3418 C 309.669 -3.4489 2.50905 0
M  V30 3419 S 310.502 -3.40393 4.13392 0
M  V30 3420 C 311.658 -4.80749 4.00789 0
M  V30 3421 H 311.891 -1.71252 2.43023 0
M  V30 3422 H 309.424 -0.789658 1.32679 0
M  V30 3423 H 311.382 -3.91065 1.24812 0
M  V30 3424 H 310.043 -3.11652 0.391418 0
M  V30 3425 H 309.236 -4.45183 2.36279 0
M  V30 3426 H 308.838 -2.72901 2.55736 0
M  V30 3427 H 311.13 -5.7041 3.65567 0
M  V30 3428 H 312.073 -5.00431 5.00974 0
M  V30 3429 H 312.481 -4.56151 3.32545 0
M  V30 3430 N 311.879 -1.3236 -0.855495 0
M  V30 3431 C 313.295 -1.11332 -1.14356 0
M  V30 3432 C 313.495 0.106751 -2.01217 0
M  V30 3433 O 312.551 0.791891 -2.39761 0
M  V30 3434 C 313.864 -2.39237 -1.82171 0
M  V30 3435 C 315.412 -2.44986 -1.9481 0
M  V30 3436 C 315.887 -3.7281 -2.66039 0
M  V30 3437 N 317.378 -3.73787 -2.73565 0
M  V30 3438 C 318.113 -4.69394 -3.29327 0
M  V30 3439 N 317.609 -5.75367 -3.85907 0
M  V30 3440 N 319.402 -4.56893 -3.27423 0
M  V30 3441 H 311.553 -2.10586 -0.277027 0
M  V30 3442 H 313.816 -0.929701 -0.185364 0
M  V30 3443 H 313.522 -3.28431 -1.25802 0
M  V30 3444 H 313.396 -2.50134 -2.82335 0
M  V30 3445 H 315.783 -1.56252 -2.50338 0
M  V30 3446 H 315.864 -2.38043 -0.936448 0
M  V30 3447 H 315.508 -4.61918 -2.11174 0
M  V30 3448 H 315.438 -3.77024 -3.67642 0
M  V30 3449 H 317.929 -2.97189 -2.33424 0
M  V30 3450 H 318.242 -6.44378 -4.26611 0
M  V30 3451 H 316.587 -5.79123 -3.84242 0
M  V30 3452 H 319.778 -3.73269 -2.82467 0
M  V30 3453 H 319.951 -5.31577 -3.7058 0
M  V30 3454 N 313.357 1.07166 -1.15556 0
M  V30 3455 C 314.606 1.79181 -0.926132 0
M  V30 3456 C 314.919 1.87768 0.547967 0
M  V30 3457 O 316.125 2.56323 0.895036 0
M  V30 3458 C 314.581 3.22 -1.60761 0
M  V30 3459 C 314.189 3.21607 -3.11886 0
M  V30 3460 C 315.933 3.9861 -1.4598 0
M  V30 3461 C 313.84 4.59092 -3.72812 0
M  V30 3462 H 312.77 0.67154 -0.342856 0
M  V30 3463 H 315.421 1.2027 -1.3859 0
M  V30 3464 H 313.803 3.81115 -1.07553 0
M  V30 3465 H 314.977 2.72127 -3.71865 0
M  V30 3466 H 313.292 2.58495 -3.2645 0
M  V30 3467 H 315.889 5.00225 -1.88888 0
M  V30 3468 H 316.232 4.143 -0.407541 0
M  V30 3469 H 316.765 3.45996 -1.96295 0
M  V30 3470 H 313.504 4.48606 -4.77946 0
M  V30 3471 H 313.024 5.08803 -3.17616 0
M  V30 3472 H 314.703 5.28059 -3.73848 0
M  V30 3473 N 314.835 0.952656 1.25548 0
M  V30 3474 C 316.082 0.606373 1.93208 0
M  V30 3475 C 316.41 -0.85631 1.74636 0
M  V30 3476 O 315.665 -1.62951 1.08376 0
M  V30 3477 C 315.964 0.908818 3.45652 0
M  V30 3478 C 315.63 2.35722 3.84378 0
M  V30 3479 C 314.292 2.75312 3.9466 0
M  V30 3480 C 316.644 3.29793 4.03591 0
M  V30 3481 C 313.972 4.08047 4.21562 0
M  V30 3482 C 316.324 4.62138 4.31985 0
M  V30 3483 C 314.988 5.01528 4.40484 0
M  V30 3484 H 314.258 0.221888 0.706998 0
M  V30 3485 H 316.905 1.20132 1.49133 0
M  V30 3486 H 315.21 0.231456 3.91116 0
M  V30 3487 H 316.907 0.619498 3.96186 0
M  V30 3488 H 313.497 2.04017 3.76928 0
M  V30 3489 H 317.681 3.00397 3.95064 0
M  V30 3490 H 312.937 4.38212 4.26357 0
M  V30 3491 H 317.111 5.35012 4.45797 0
M  V30 3492 H 314.738 6.04406 4.61083 0
M  V30 3493 N 316.313 -1.40141 0.720998 0
M  V30 3494 C 317.729 -1.54632 0.395113 0
M  V30 3495 C 317.929 -1.69115 -1.09555 0
M  V30 3496 O 316.985 -1.68377 -1.88163 0
M  V30 3497 C 318.298 -2.77177 1.1659 0
M  V30 3498 C 319.846 -2.91 1.15274 0
M  V30 3499 C 320.321 -4.16465 1.90579 0
M  V30 3500 N 321.812 -4.23476 1.87675 0
M  V30 3501 C 322.547 -5.19475 2.42762 0
M  V30 3502 N 322.043 -6.21348 3.06428 0
M  V30 3503 N 323.836 -5.11592 2.32874 0
M  V30 3504 H 315.987 -1.28986 1.68749 0
M  V30 3505 H 318.25 -0.62412 0.713567 0
M  V30 3506 H 317.956 -2.72771 2.22011 0
M  V30 3507 H 317.83 -3.69442 0.76108 0
M  V30 3508 H 320.217 -2.94907 0.106702 0
M  V30 3509 H 320.298 -1.99838 1.59682 0
M  V30 3510 H 319.942 -4.1332 2.95176 0
M  V30 3511 H 319.872 -5.06646 1.43587 0
M  V30 3512 H 322.363 -3.50497 1.41281 0
M  V30 3513 H 322.676 -6.91034 3.45965 0
M  V30 3514 H 321.021 -6.21777 3.10514 0
M  V30 3515 H 324.212 -4.30936 1.82789 0
M  V30 3516 H 324.385 -5.86233 2.76106 0
M  V30 3517 N 317.792 -0.46758 -1.50504 0
M  V30 3518 C 319.041 0.0902868 -2.01498 0
M  V30 3519 C 319.354 1.411 -1.35463 0
M  V30 3520 O 320.56 2.0536 -1.77594 0
M  V30 3521 C 319.016 0.21142 -3.59278 0
M  V30 3522 C 318.624 -1.10065 -4.34269 0
M  V30 3523 C 320.368 0.721433 -4.18325 0
M  V30 3524 C 318.275 -0.943505 -5.83825 0
M  V30 3525 H 317.205 0.037517 -0.753066 0
M  V30 3526 H 319.856 -0.601943 -1.73346 0
M  V30 3527 H 318.238 0.967352 -3.84003 0
M  V30 3528 H 319.412 -1.86726 -4.21272 0
M  V30 3529 H 317.727 -1.5415 -3.86816 0
M  V30 3530 H 320.324 0.85598 -5.27804 0
M  V30 3531 H 320.667 1.71186 -3.79475 0
M  V30 3532 H 321.2 0.0229843 -3.97793 0
M  V30 3533 H 317.939 -1.90719 -6.27141 0
M  V30 3534 H 317.459 -0.217213 -5.99407 0
M  V30 3535 H 319.138 -0.608715 -6.4413 0
M  V30 3536 N 319.27 1.56325 -0.20005 0
M  V30 3537 C 320.2 2.22318 0.713916 0
M  V30 3538 C 321.181 1.18788 1.21752 0
M  V30 3539 O 322.366 1.47309 1.26545 0
M  V30 3540 C 319.496 2.88639 1.93144 0
M  V30 3541 C 318.45 3.98457 1.56255 0
M  V30 3542 C 317.776 4.51967 2.85709 0
M  V30 3543 C 319.076 5.16612 0.768747 0
M  V30 3544 H 320.77 2.98952 0.163755 0
M  V30 3545 H 318.316 1.43792 0.0773219 0
M  V30 3546 H 320.269 3.33491 2.57608 0
M  V30 3547 H 318.993 2.09419 2.50621 0
M  V30 3548 H 317.652 3.54305 0.941471 0
M  V30 3549 H 317.3 3.69503 3.41287 0
M  V30 3550 H 317 5.26071 2.6177 0
M  V30 3551 H 318.524 4.99523 3.51154 0
M  V30 3552 H 319.938 5.57977 1.3166 0
M  V30 3553 H 318.335 5.96812 0.627286 0
M  V30 3554 H 319.405 4.84358 -0.229168 0
M  V30 3555 N 320.748 -0.0735177 1.57428 0
M  V30 3556 C 321.996 -0.771472 1.86796 0
M  V30 3557 C 322.317 -1.78201 0.791804 0
M  V30 3558 O 321.587 -1.95074 -0.179718 0
M  V30 3559 H 320.167 -0.28791 0.689287 0
M  V30 3560 H 322.829 -0.0500161 1.94836 0
M  V30 3561 H 321.925 -1.28874 2.8425 0
M  V30 3562 N 322.226 -1.5378 -0.344866 0
M  V30 3563 C 323.454 -1.74899 -1.10534 0
M  V30 3564 C 323.869 -0.487534 -1.82397 0
M  V30 3565 O 323.226 0.540741 -1.74305 0
M  V30 3566 C 323.277 -2.92822 -2.11984 0
M  V30 3567 O 322.998 -4.14089 -1.43044 0
M  V30 3568 C 324.499 -3.25982 -3.00417 0
M  V30 3569 H 321.719 -0.584426 -0.329678 0
M  V30 3570 H 324.263 -2.006 -0.397474 0
M  V30 3571 H 322.418 -2.69457 -2.78338 0
M  V30 3572 H 322.832 -4.80272 -2.10805 0
M  V30 3573 H 324.306 -4.11848 -3.67539 0
M  V30 3574 H 324.783 -2.42228 -3.66363 0
M  V30 3575 H 325.389 -3.51349 -2.39654 0
M  V30 3576 N 323.704 0.605807 -1.45491 0
M  V30 3577 C 325.115 1.18777 -1.44045 0
M  V30 3578 C 325.466 1.95471 -0.169001 0
M  V30 3579 O 324.591 2.0374 0.729324 0
M  V30 3580 C 325.186 2.16064 -2.60963 0
M  V30 3581 C 323.745 2.69633 -2.62631 0
M  V30 3582 C 322.892 1.45072 -2.36325 0
M  V30 3583 H 325.843 0.395017 -1.53705 0
M  V30 3584 H 325.864 2.9913 -2.35163 0
M  V30 3585 H 325.376 1.60217 -3.53486 0
M  V30 3586 H 323.477 3.29414 -1.74119 0
M  V30 3587 H 323.59 3.13944 -3.61906 0
M  V30 3588 H 321.954 1.74089 -1.85917 0
M  V30 3589 H 322.737 0.910899 -3.30995 0
M  V30 3590 N 325.182 1.32811 0.848464 0
M  V30 3591 C 326.13 1.22231 1.97895 0
M  V30 3592 C 327.124 0.125749 1.68933 0
M  V30 3593 O 328.33 0.289083 1.77663 0
M  V30 3594 H 324.705 0.379058 0.649476 0
M  V30 3595 H 326.676 2.17828 2.03945 0
M  V30 3596 C 325.425 0.968572 3.33937 0
M  V30 3597 H 324.748 1.80458 3.56756 0
M  V30 3598 H 326.188 0.934808 4.13567 0
M  V30 3599 C 324.647 -0.328628 3.35293 0
M  V30 3600 O 325.177 -1.33848 3.78745 0
M  V30 3601 N 323.383 -0.352788 2.88451 0
M  V30 3602 H 322.93 0.469541 2.53285 0
M  V30 3603 H 322.888 -1.22057 2.89741 0
M  V30 3604 N 326.66 -1.06551 1.16123 0
M  V30 3605 C 327.885 -1.83544 0.965735 0
M  V30 3606 C 328.31 -1.81843 -0.481102 0
M  V30 3607 O 327.668 -1.21732 -1.34354 0
M  V30 3608 C 327.716 -3.28169 1.49457 0
M  V30 3609 O 326.82 -4.0643 0.699157 0
M  V30 3610 H 326.161 -0.568026 0.343864 0
M  V30 3611 H 328.691 -1.34362 1.54299 0
M  V30 3612 H 328.701 -3.78992 1.51092 0
M  V30 3613 H 327.376 -3.28722 2.54784 0
M  V30 3614 H 325.953 -3.65216 0.7531 0
M  V30 3615 N 328.138 -0.959301 -1.25041 0
M  V30 3616 C 329.085 -0.482057 -2.2571 0
M  V30 3617 C 330.055 0.467939 -1.59372 0
M  V30 3618 O 331.24 0.380159 -1.86974 0
M  V30 3619 C 328.38 0.229623 -3.44335 0
M  V30 3620 C 327.493 -0.758156 -4.25295 0
M  V30 3621 C 326.628 -0.0234403 -5.31195 0
M  V30 3622 C 325.667 -1.00184 -6.03846 0
M  V30 3623 N 324.804 -0.29769 -7.01469 0
M  V30 3624 H 329.644 -1.34538 -2.65901 0
M  V30 3625 H 327.181 -0.674592 -1.3072 0
M  V30 3626 H 329.139 0.658856 -4.11965 0
M  V30 3627 H 327.769 1.05696 -3.05005 0
M  V30 3628 H 326.821 -1.30586 -3.57284 0
M  V30 3629 H 328.133 -1.50458 -4.75567 0
M  V30 3630 H 327.287 0.464201 -6.04922 0
M  V30 3631 H 326.026 0.755741 -4.81809 0
M  V30 3632 H 325.031 -1.50044 -5.2893 0
M  V30 3633 H 326.256 -1.78133 -6.55321 0
M  V30 3634 H 324.202 0.462668 -6.54366 0
M  V30 3635 H 324.119 -0.983128 -7.4958 0
M  V30 3636 H 325.387 0.16826 -7.79318 0
M  V30 3637 N 329.616 1.39756 -0.72842 0
M  V30 3638 C 330.564 2.32485 -0.0731849 0
M  V30 3639 C 331.558 1.52717 0.733063 0
M  V30 3640 O 332.764 1.68428 0.634988 0
M  V30 3641 H 329.139 0.751984 -0.00486469 0
M  V30 3642 H 331.11 2.85382 -0.871761 0
M  V30 3643 C 329.859 3.37773 0.824908 0
M  V30 3644 H 329.182 3.99227 0.213915 0
M  V30 3645 H 330.622 4.05121 1.25111 0
M  V30 3646 C 329.081 2.74287 1.95622 0
M  V30 3647 O 329.611 2.61618 3.04826 0
M  V30 3648 N 327.817 2.32475 1.74367 0
M  V30 3649 H 327.364 2.4298 0.855494 0
M  V30 3650 H 327.322 1.90337 2.50238 0
M  V30 3651 N 331.094 0.475555 1.50254 0
M  V30 3652 C 332.34 -0.0701075 2.03279 0
M  V30 3653 C 332.695 -1.37007 1.35081 0
M  V30 3654 O 331.988 -1.8577 0.469052 0
M  V30 3655 C 332.182 -0.305114 3.56095 0
M  V30 3656 C 332.011 0.970515 4.39103 0
M  V30 3657 C 330.781 1.51509 4.82051 0
M  V30 3658 C 332.979 1.8671 4.79212 0
M  V30 3659 N 330.961 2.73928 5.49397 0
M  V30 3660 C 332.332 2.93715 5.46014 0
M  V30 3661 C 334.387 1.87695 4.61167 0
M  V30 3662 C 333.09 4.01699 5.96683 0
M  V30 3663 C 335.116 2.94637 5.12779 0
M  V30 3664 C 334.478 4.00361 5.79561 0
M  V30 3665 H 330.577 0.014486 0.781866 0
M  V30 3666 H 333.161 0.644755 1.83714 0
M  V30 3667 H 331.332 -0.989019 3.75597 0
M  V30 3668 H 333.064 -0.845516 3.95769 0
M  V30 3669 H 329.819 1.06367 4.61501 0
M  V30 3670 H 330.243 3.36109 5.87673 0
M  V30 3671 H 334.885 1.07273 4.08965 0
M  V30 3672 H 332.603 4.82934 6.4792 0
M  V30 3673 H 336.189 2.96388 5.00645 0
M  V30 3674 H 335.069 4.81751 6.18778 0
M  V30 3675 N 332.573 -1.56217 0.208337 0
M  V30 3676 C 333.984 -1.84243 -0.301904 0
M  V30 3677 C 334.335 -1.12939 -1.60434 0
M  V30 3678 O 333.46 -0.39461 -2.12772 0
M  V30 3679 C 334.055 -3.34231 -0.554543 0
M  V30 3680 C 332.614 -3.62621 -1.00912 0
M  V30 3681 C 331.761 -2.77224 -0.064933 0
M  V30 3682 H 334.712 -1.52712 0.431833 0
M  V30 3683 H 334.733 -3.5372 -1.40223 0
M  V30 3684 H 334.245 -3.86099 0.393561 0
M  V30 3685 H 332.346 -3.16197 -1.97104 0
M  V30 3686 H 332.459 -4.7071 -0.892674 0
M  V30 3687 H 330.823 -2.48256 -0.56929 0
M  V30 3688 H 331.606 -3.31887 0.877851 0
M  V30 3689 N 334.051 0.0651679 -1.57465 0
M  V30 3690 C 334.999 1.09542 -2.05191 0
M  V30 3691 C 335.993 1.39675 -0.958509 0
M  V30 3692 O 337.199 1.39003 -1.14359 0
M  V30 3693 H 333.574 0.370623 -0.654326 0
M  V30 3694 H 335.545 0.666802 -2.90854 0
M  V30 3695 C 334.294 2.39881 -2.51699 0
M  V30 3696 H 333.617 2.17547 -3.3543 0
M  V30 3697 H 335.057 3.104 -2.88839 0
M  V30 3698 C 333.516 3.0631 -1.40271 0
M  V30 3699 O 334.046 3.94664 -0.748523 0
M  V30 3700 N 332.252 2.67041 -1.14618 0
M  V30 3701 H 331.799 1.95281 -1.67997 0
M  V30 3702 H 331.757 3.1181 -0.402688 0
M  V30 3703 N 335.529 1.53961 0.336706 0
M  V30 3704 C 336.775 1.7179 1.07777 0
M  V30 3705 C 337.108 0.483263 1.88091 0
M  V30 3706 O 336.383 -0.519747 1.87427 0
M  V30 3707 C 336.666 2.98558 2.01334 0
M  V30 3708 C 336.519 4.32245 1.24437 0
M  V30 3709 C 337.838 3.21023 3.01052 0
M  V30 3710 H 334.957 0.625089 0.390426 0
M  V30 3711 H 337.599 1.86641 0.35567 0
M  V30 3712 H 335.749 2.86028 2.62908 0
M  V30 3713 H 337.421 4.56637 0.654243 0
M  V30 3714 H 335.664 4.30344 0.546458 0
M  V30 3715 H 336.335 5.17137 1.93063 0
M  V30 3716 H 338.811 3.32929 2.49595 0
M  V30 3717 H 337.687 4.11104 3.6371 0
M  V30 3718 H 337.948 2.37637 3.72802 0
M  V30 3719 N 337.007 -0.598083 1.45811 0
M  V30 3720 C 338.235 -1.38322 1.53866 0
M  V30 3721 C 338.65 -1.87992 0.174479 0
M  V30 3722 O 338.007 -1.62756 -0.825627 0
M  V30 3723 C 338.058 -2.58125 2.53089 0
M  V30 3724 O 337.779 -2.10516 3.84206 0
M  V30 3725 C 339.28 -3.50869 2.70935 0
M  V30 3726 H 336.5 -0.423093 0.520801 0
M  V30 3727 H 339.044 -0.728527 1.91083 0
M  V30 3728 H 337.199 -3.19615 2.18917 0
M  V30 3729 H 337.613 -2.88425 4.38077 0
M  V30 3730 H 339.087 -4.31451 3.44317 0
M  V30 3731 H 339.564 -4.01822 1.77301 0
M  V30 3732 H 340.17 -2.95225 3.06141 0
M  V30 3733 N 338.485 -1.33259 -0.841409 0
M  V30 3734 C 339.395 -1.25332 -1.98316 0
M  V30 3735 C 340.411 -0.164364 -1.73222 0
M  V30 3736 O 341.587 -0.387486 -1.97637 0
M  V30 3737 C 338.652 -0.990078 -3.32262 0
M  V30 3738 C 337.713 -2.16879 -3.70489 0
M  V30 3739 C 336.946 -1.91801 -4.98044 0
M  V30 3740 O 337.169 -0.867075 -5.63771 0
M  V30 3741 O 336.103 -2.78267 -5.33714 0
M  V30 3742 H 339.929 -2.21344 -2.07944 0
M  V30 3743 H 337.514 -1.1328 -0.974058 0
M  V30 3744 H 339.396 -0.860321 -4.12524 0
M  V30 3745 H 338.071 -0.0602155 -3.23644 0
M  V30 3746 H 336.978 -2.35407 -2.90748 0
M  V30 3747 H 338.311 -3.0819 -3.8377 0
M  V30 3748 N 339.963 1.05934 -1.16686 0
M  V30 3749 C 340.893 2.1546 -0.899949 0
M  V30 3750 C 341.874 1.69391 0.155154 0
M  V30 3751 O 343.059 1.94199 0.00648693 0
M  V30 3752 C 340.189 3.44939 -0.404241 0
M  V30 3753 C 339.143 4.04536 -1.39767 0
M  V30 3754 C 338.469 5.29268 -0.760216 0
M  V30 3755 C 339.769 4.42893 -2.76845 0
M  V30 3756 H 341.463 2.38046 -1.81588 0
M  V30 3757 H 339.009 1.14404 -0.874514 0
M  V30 3758 H 340.962 4.20901 -0.204971 0
M  V30 3759 H 339.686 3.21983 0.547206 0
M  V30 3760 H 338.345 3.30635 -1.58355 0
M  V30 3761 H 337.993 5.02611 0.197831 0
M  V30 3762 H 337.693 5.70101 -1.42332 0
M  V30 3763 H 339.217 6.07924 -0.57105 0
M  V30 3764 H 340.631 5.09921 -2.62019 0
M  V30 3765 H 339.028 4.94721 -3.39663 0
M  V30 3766 H 340.098 3.53584 -3.31823 0
M  V30 3767 N 341.441 0.965919 1.2453 0
M  V30 3768 C 342.852 0.665929 1.7442 0
M  V30 3769 C 343.203 -0.818407 1.78316 0
M  V30 3770 O 342.328 -1.64037 1.41141 0
M  V30 3771 C 342.923 1.20211 3.16757 0
M  V30 3772 C 341.482 0.952059 3.6416 0
M  V30 3773 C 340.629 1.33848 2.42858 0
M  V30 3774 H 343.58 1.14144 1.10258 0
M  V30 3775 H 343.601 0.567544 3.76244 0
M  V30 3776 H 343.113 2.28244 3.13889 0
M  V30 3777 H 341.214 -0.112821 3.72429 0
M  V30 3778 H 341.327 1.59645 4.51719 0
M  V30 3779 H 339.691 0.756864 2.43195 0
M  V30 3780 H 340.474 2.42827 2.42673 0
M  V30 3781 N 342.919 -1.39368 0.735821 0
M  V30 3782 C 343.866 -2.30599 0.0963825 0
M  V30 3783 C 344.836 -1.49257 -0.728794 0
M  V30 3784 O 346.021 -1.77941 -0.688588 0
M  V30 3785 C 343.161 -3.35596 -0.804305 0
M  V30 3786 C 342.274 -4.31987 0.0335761 0
M  V30 3787 C 341.409 -5.24053 -0.868461 0
M  V30 3788 C 340.448 -6.12095 -0.0258776 0
M  V30 3789 N 339.585 -6.96514 -0.883893 0
M  V30 3790 H 344.425 -2.8471 0.880002 0
M  V30 3791 H 341.962 -1.40188 0.445619 0
M  V30 3792 H 343.92 -3.95062 -1.34096 0
M  V30 3793 H 342.55 -2.82938 -1.55389 0
M  V30 3794 H 341.602 -3.74133 0.68766 0
M  V30 3795 H 342.914 -4.94074 0.685036 0
M  V30 3796 H 342.068 -5.88549 -1.47293 0
M  V30 3797 H 340.807 -4.62289 -1.5537 0
M  V30 3798 H 339.812 -5.4661 0.591386 0
M  V30 3799 H 341.037 -6.75923 0.656156 0
M  V30 3800 H 338.983 -6.37318 -1.55441 0
M  V30 3801 H 338.9 -7.55448 -0.288931 0
M  V30 3802 H 340.168 -7.65439 -1.4739 0
M  V30 3803 N 344.397 -0.483516 -1.5 0
M  V30 3804 C 345.627 0.0643896 -2.065 0
M  V30 3805 C 346.035 1.32949 -1.34615 0
M  V30 3806 O 345.378 1.79003 -0.412756 0
M  V30 3807 C 345.44 0.405983 -3.572 0
M  V30 3808 C 345.104 -0.758875 -4.50655 0
M  V30 3809 C 346.101 -1.64445 -4.93208 0
M  V30 3810 C 343.786 -0.952725 -4.93182 0
M  V30 3811 C 345.78 -2.70818 -5.77006 0
M  V30 3812 C 343.467 -2.01966 -5.76761 0
M  V30 3813 C 344.465 -2.89574 -6.18576 0
M  V30 3814 O 344.153 -3.94429 -7.00486 0
M  V30 3815 H 343.885 -0.00934786 -0.675935 0
M  V30 3816 H 346.439 -0.674959 -1.93993 0
M  V30 3817 H 344.669 1.19869 -3.67652 0
M  V30 3818 H 346.358 0.890433 -3.96013 0
M  V30 3819 H 347.124 -1.50643 -4.61012 0
M  V30 3820 H 343.003 -0.280247 -4.60147 0
M  V30 3821 H 346.547 -3.3923 -6.09565 0
M  V30 3822 H 342.444 -2.1577 -6.0837 0
M  V30 3823 H 343.212 -3.91568 -7.1876 0
M  V30 3824 N 345.875 1.56104 -0.216619 0
M  V30 3825 C 347.152 1.89988 0.465165 0
M  V30 3826 C 347.532 1.13326 1.78102 0
M  V30 3827 O 346.88 0.241033 2.27225 0
M  V30 3828 C 347.09 3.42646 0.662939 0
M  V30 3829 C 348.438 4.13311 0.972602 0
M  V30 3830 O 349.462 3.48217 0.749901 0
M  V30 3831 O 348.321 5.28396 1.39499 0
M  V30 3832 H 345.415 0.78979 0.245276 0
M  V30 3833 H 347.961 1.67721 -0.258436 0
M  V30 3834 H 346.733 3.90399 -0.26543 0
M  V30 3835 H 346.356 3.70677 1.43821 0
M  V30 3836 N 347.353 -0.0568162 1.57498 0
M  V30 3837 C 348.764 -0.606858 1.76562 0
M  V30 3838 C 349.115 -1.77114 0.844094 0
M  V30 3839 O 348.24 -2.16376 0.0318911 0
M  V30 3840 C 348.835 -1.10766 3.20182 0
M  V30 3841 C 347.394 -1.60344 3.40539 0
M  V30 3842 C 346.541 -0.529311 2.72201 0
M  V30 3843 H 349.492 0.169393 1.57793 0
M  V30 3844 H 349.513 -1.97602 3.25167 0
M  V30 3845 H 349.025 -0.26006 3.87228 0
M  V30 3846 H 347.126 -2.47379 2.78629 0
M  V30 3847 H 347.239 -1.67006 4.4905 0
M  V30 3848 H 345.603 -0.977893 2.35179 0
M  V30 3849 H 346.386 0.308352 3.41912 0
M  V30 3850 N 348.832 -1.54138 -0.328536 0
M  V30 3851 C 349.78 -1.83894 -1.42428 0
M  V30 3852 C 350.774 -0.710478 -1.53781 0
M  V30 3853 O 351.98 -0.894062 -1.56226 0
M  V30 3854 H 348.355 -0.582837 -0.475189 0
M  V30 3855 H 350.326 -2.75537 -1.14552 0
M  V30 3856 C 349.075 -2.07866 -2.78724 0
M  V30 3857 H 348.398 -2.94158 -2.7076 0
M  V30 3858 H 349.838 -2.32644 -3.54476 0
M  V30 3859 C 348.297 -0.868689 -3.25508 0
M  V30 3860 O 348.827 -0.0754908 -4.01629 0
M  V30 3861 N 347.033 -0.681711 -2.82491 0
M  V30 3862 H 346.58 -1.32838 -2.20708 0
M  V30 3863 H 346.538 0.126374 -3.14146 0
M  V30 3864 N 350.31 0.590341 -1.46126 0
M  V30 3865 C 351.557 1.34882 -1.5104 0
M  V30 3866 C 351.885 1.93849 -0.159021 0
M  V30 3867 O 351.14 1.76544 0.844436 0
M  V30 3868 C 351.439 2.5032 -2.55097 0
M  V30 3869 C 351.105 2.09394 -3.99331 0
M  V30 3870 C 349.767 1.97947 -4.38601 0
M  V30 3871 C 352.119 1.77712 -4.89967 0
M  V30 3872 C 349.447 1.53065 -5.66381 0
M  V30 3873 C 351.799 1.34312 -6.18177 0
M  V30 3874 C 350.463 1.21436 -6.56361 0
M  V30 3875 H 349.733 0.493568 -0.552695 0
M  V30 3876 H 352.38 0.665539 -1.79563 0
M  V30 3877 H 350.685 3.24062 -2.20207 0
M  V30 3878 H 352.382 3.08541 -2.56132 0
M  V30 3879 H 348.972 2.19235 -3.68285 0
M  V30 3880 H 353.156 1.85445 -4.60352 0
M  V30 3881 H 348.412 1.41733 -5.94745 0
M  V30 3882 H 352.586 1.08849 -6.87841 0
M  V30 3883 H 350.213 0.864345 -7.5527 0
M  V30 3884 N 351.788 1.33704 0.83433 0
M  V30 3885 C 353.016 1.28467 1.62185 0
M  V30 3886 C 353.431 -0.143526 1.88254 0
M  V30 3887 O 352.788 -1.08709 1.4659 0
M  V30 3888 C 352.839 2.06174 2.96942 0
M  V30 3889 O 352.56 3.43422 2.72016 0
M  V30 3890 C 354.061 2.08201 3.91366 0
M  V30 3891 H 351.281 0.4424 0.504503 0
M  V30 3892 H 353.825 1.76145 1.03891 0
M  V30 3893 H 351.98 1.62167 3.51825 0
M  V30 3894 H 352.394 3.83453 3.57861 0
M  V30 3895 H 353.868 2.67017 4.83121 0
M  V30 3896 H 354.345 1.07343 4.2588 0
M  V30 3897 H 354.951 2.52246 3.42421 0
M  V30 3898 N 353.266 -1.05314 1.17247 0
M  V30 3899 C 354.512 -1.78557 0.961513 0
M  V30 3900 C 354.845 -1.87419 -0.508697 0
M  V30 3901 O 354.12 -1.37307 -1.37757 0
M  V30 3902 C 354.403 -3.22514 1.60176 0
M  V30 3903 C 354.256 -3.21673 3.14399 0
M  V30 3904 C 355.575 -4.20318 1.30463 0
M  V30 3905 H 352.694 -0.6482 0.350723 0
M  V30 3906 H 355.336 -1.23102 1.44727 0
M  V30 3907 H 353.486 -3.69867 1.18871 0
M  V30 3908 H 355.158 -2.82405 3.64753 0
M  V30 3909 H 353.401 -2.60048 3.47214 0
M  V30 3910 H 354.072 -4.23271 3.54324 0
M  V30 3911 H 356.548 -3.81454 1.66229 0
M  V30 3912 H 355.424 -5.19289 1.77848 0
M  V30 3913 H 355.685 -4.41526 0.22521 0
M  V30 3914 N 354.744 -0.972509 -1.24016 0
M  V30 3915 C 355.974 -0.653853 -1.9598 0
M  V30 3916 C 356.382 0.781801 -1.72292 0
M  V30 3917 O 355.725 1.53677 -1.00644 0
M  V30 3918 C 355.787 -0.854608 -3.49194 0
M  V30 3919 C 355.451 -2.27082 -3.96589 0
M  V30 3920 C 356.448 -3.24892 -4.05883 0
M  V30 3921 C 354.133 -2.5998 -4.29786 0
M  V30 3922 C 356.127 -4.53684 -4.47716 0
M  V30 3923 C 353.814 -3.88997 -4.71301 0
M  V30 3924 C 354.812 -4.85661 -4.80232 0
M  V30 3925 O 354.5 -6.12376 -5.20818 0
M  V30 3926 H 354.232 -0.242572 -0.630979 0
M  V30 3927 H 356.786 -1.30431 -1.58673 0
M  V30 3928 H 355.016 -0.146985 -3.86421 0
M  V30 3929 H 356.705 -0.534311 -4.02368 0
M  V30 3930 H 357.471 -3.00805 -3.80449 0
M  V30 3931 H 353.35 -1.85457 -4.22051 0
M  V30 3932 H 356.894 -5.29135 -4.54601 0
M  V30 3933 H 352.791 -4.12882 -4.96184 0
M  V30 3934 H 353.559 -6.16013 -5.38953 0
M  V30 3935 N 356.222 1.38976 -0.743202 0
M  V30 3936 C 357.132 2.3434 -0.110399 0
M  V30 3937 C 358.148 1.58741 0.712559 0
M  V30 3938 O 359.324 1.9099 0.639125 0
M  V30 3939 C 356.389 3.37812 0.780012 0
M  V30 3940 C 355.45 4.29263 -0.0561319 0
M  V30 3941 C 354.683 5.27793 0.791875 0
M  V30 3942 O 354.906 5.33043 2.03031 0
M  V30 3943 O 353.84 6.01512 0.216183 0
M  V30 3944 H 357.666 2.90129 -0.897714 0
M  V30 3945 H 355.251 1.40643 -0.503966 0
M  V30 3946 H 357.133 4.01194 1.28923 0
M  V30 3947 H 355.808 2.84395 1.546 0
M  V30 3948 H 354.715 3.69076 -0.611056 0
M  V30 3949 H 356.048 4.85907 -0.784531 0
M  V30 3950 N 357.7 0.491464 1.49741 0
M  V30 3951 C 359.111 0.0413169 1.86654 0
M  V30 3952 C 359.462 -1.36985 1.40462 0
M  V30 3953 O 358.587 -2.01917 0.778354 0
M  V30 3954 C 359.182 0.0682023 3.38731 0
M  V30 3955 C 357.741 -0.32656 3.74981 0
M  V30 3956 C 356.888 0.444888 2.73708 0
M  V30 3957 H 359.839 0.704733 1.42194 0
M  V30 3958 H 359.86 -0.729322 3.73445 0
M  V30 3959 H 359.372 1.09539 3.72321 0
M  V30 3960 H 357.473 -1.35734 3.46997 0
M  V30 3961 H 357.586 -0.013741 4.79098 0
M  V30 3962 H 355.95 -0.104062 2.54487 0
M  V30 3963 H 356.733 1.47197 3.10142 0
M  V30 3964 N 359.178 -1.55987 0.224894 0
M  V30 3965 C 360.108 -2.23426 -0.678457 0
M  V30 3966 C 361.089 -1.20709 -1.19847 0
M  V30 3967 O 362.274 -1.49304 -1.24186 0
M  V30 3968 C 359.404 -2.91676 -1.88527 0
M  V30 3969 C 358.358 -4.00893 -1.49896 0
M  V30 3970 C 357.684 -4.56455 -2.78483 0
M  V30 3971 C 358.984 -5.17769 -0.686461 0
M  V30 3972 H 360.678 -2.99175 -0.116173 0
M  V30 3973 H 358.224 -1.43897 -0.054436 0
M  V30 3974 H 360.177 -3.37547 -2.5227 0
M  V30 3975 H 358.901 -2.1338 -2.47258 0
M  V30 3976 H 357.56 -3.55758 -0.884985 0
M  V30 3977 H 357.208 -3.74886 -3.35365 0
M  V30 3978 H 356.908 -5.30169 -2.53368 0
M  V30 3979 H 358.432 -5.05047 -3.43162 0
M  V30 3980 H 359.846 -5.60001 -1.22767 0
M  V30 3981 H 358.243 -5.97735 -0.532259 0
M  V30 3982 H 359.313 -4.83932 0.306196 0
M  V30 3983 N 360.656 0.0484629 -1.57525 0
M  V30 3984 C 362.067 0.597486 -1.76881 0
M  V30 3985 C 362.418 1.76664 -0.853475 0
M  V30 3986 O 361.543 2.16357 -0.0433656 0
M  V30 3987 C 362.138 1.09066 -3.20765 0
M  V30 3988 C 360.697 1.58535 -3.41385 0
M  V30 3989 C 359.844 0.514868 -2.72478 0
M  V30 3990 H 362.795 -0.177758 -1.57701 0
M  V30 3991 H 362.816 1.95875 -3.2621 0
M  V30 3992 H 362.328 0.239521 -3.8736 0
M  V30 3993 H 360.429 2.45898 -2.79937 0
M  V30 3994 H 360.542 1.64622 -4.49929 0
M  V30 3995 H 358.906 0.965407 -2.35695 0
M  V30 3996 H 359.689 -0.32648 -3.41744 0
M  V30 3997 N 362.134 1.5431 0.320358 0
M  V30 3998 C 363.38 1.73859 1.05568 0
M  V30 3999 C 363.735 0.507807 1.85578 0
M  V30 4000 O 363.028 -0.499789 1.84967 0
M  V30 4001 C 363.222 2.95639 2.00828 0
M  V30 4002 C 363.051 4.30444 1.30186 0
M  V30 4003 C 361.821 4.94544 1.03703 0
M  V30 4004 C 364.019 5.0929 0.716138 0
M  V30 4005 N 362.001 6.13172 0.298846 0
M  V30 4006 C 363.372 6.19903 0.109729 0
M  V30 4007 C 365.427 4.94034 0.619269 0
M  V30 4008 C 364.13 7.16924 -0.584153 0
M  V30 4009 C 366.156 5.91369 -0.0609184 0
M  V30 4010 C 365.518 7.01336 -0.656258 0
M  V30 4011 H 361.617 0.688988 0.36989 0
M  V30 4012 H 364.201 1.9177 0.336494 0
M  V30 4013 H 362.372 2.79188 2.70016 0
M  V30 4014 H 364.104 3.03802 2.6737 0
M  V30 4015 H 360.859 4.54536 1.33019 0
M  V30 4016 H 361.283 6.76977 -0.0561964 0
M  V30 4017 H 365.925 4.0916 1.06526 0
M  V30 4018 H 363.643 8.01354 -1.04197 0
M  V30 4019 H 367.229 5.81642 -0.135552 0
M  V30 4020 H 366.109 7.75359 -1.17423 0
M  V30 4021 N 363.613 -0.582584 1.46437 0
M  V30 4022 C 364.523 -1.71949 1.59595 0
M  V30 4023 C 365.539 -1.67264 0.479443 0
M  V30 4024 O 366.715 -1.87171 0.743579 0
M  V30 4025 C 363.78 -3.08452 1.58298 0
M  V30 4026 C 362.841 -3.244 2.81182 0
M  V30 4027 C 362.074 -4.54391 2.79937 0
M  V30 4028 O 362.297 -5.38287 1.8869 0
M  V30 4029 O 361.231 -4.73588 3.71481 0
M  V30 4030 H 365.057 -1.63795 2.55744 0
M  V30 4031 H 362.642 -0.749643 1.29231 0
M  V30 4032 H 364.524 -3.89732 1.60271 0
M  V30 4033 H 363.199 -3.17043 0.653094 0
M  V30 4034 H 362.106 -2.42613 2.84763 0
M  V30 4035 H 363.439 -3.20699 3.7338 0
M  V30 4036 N 365.091 -1.34144 -0.827227 0
M  V30 4037 C 366.316 -1.29476 -1.62021 0
M  V30 4038 C 366.741 0.129292 -1.87655 0
M  V30 4039 O 366.099 1.08967 -1.449 0
M  V30 4040 C 366.147 -2.08702 -2.94068 0
M  V30 4041 O 365.251 -1.45359 -3.85933 0
M  V30 4042 H 364.592 -0.444881 -0.492927 0
M  V30 4043 H 367.122 -1.76882 -1.02829 0
M  V30 4044 H 367.132 -2.19898 -3.43669 0
M  V30 4045 H 365.807 -3.12241 -2.74734 0
M  V30 4046 H 364.384 -1.42879 -3.44442 0
M  V30 4047 N 366.569 1.04691 -1.17803 0
M  V30 4048 C 367.816 1.77782 -0.969532 0
M  V30 4049 C 368.144 1.87926 0.501401 0
M  V30 4050 O 367.399 1.37918 1.38842 0
M  V30 4051 C 367.698 3.21467 -1.56186 0
M  V30 4052 C 367.364 3.3137 -3.05786 0
M  V30 4053 C 366.026 3.3378 -3.46619 0
M  V30 4054 C 368.378 3.31976 -4.01797 0
M  V30 4055 C 365.706 3.34431 -4.82051 0
M  V30 4056 C 368.058 3.34167 -5.37136 0
M  V30 4057 C 366.722 3.34866 -5.77426 0
M  V30 4058 H 365.992 0.650549 -0.354777 0
M  V30 4059 H 368.639 1.23006 -1.46772 0
M  V30 4060 H 366.944 3.79203 -0.985515 0
M  V30 4061 H 368.641 3.76652 -1.37602 0
M  V30 4062 H 365.231 3.3021 -2.73238 0
M  V30 4063 H 369.415 3.29311 -3.71306 0
M  V30 4064 H 364.671 3.33285 -5.12573 0
M  V30 4065 H 368.845 3.33585 -6.11305 0
M  V30 4066 H 366.472 3.35124 -6.82346 0
M  V30 4067 N 368.047 0.979072 1.23499 0
M  V30 4068 C 368.977 0.537606 2.27227 0
M  V30 4069 C 369.958 -0.428539 1.64613 0
M  V30 4070 O 371.143 -0.322191 1.91509 0
M  V30 4071 C 368.273 -0.162052 3.46922 0
M  V30 4072 C 367.227 0.721242 4.21879 0
M  V30 4073 C 366.553 -0.110555 5.34586 0
M  V30 4074 C 367.853 2.01141 4.82016 0
M  V30 4075 H 369.547 1.40462 2.64406 0
M  V30 4076 H 367.093 0.67684 1.27102 0
M  V30 4077 H 369.046 -0.482192 4.18632 0
M  V30 4078 H 367.77 -1.06351 3.08799 0
M  V30 4079 H 366.429 1.02482 3.51984 0
M  V30 4080 H 366.077 -1.0125 4.92704 0
M  V30 4081 H 365.777 0.477325 5.85658 0
M  V30 4082 H 367.301 -0.425107 6.09118 0
M  V30 4083 H 368.715 1.75612 5.45741 0
M  V30 4084 H 367.112 2.54695 5.43369 0
M  V30 4085 H 368.182 2.69909 4.02836 0
M  V30 4086 N 369.525 -1.3858 0.750561 0
M  V30 4087 C 370.472 -2.30483 0.120835 0
M  V30 4088 C 371.442 -1.50022 -0.712923 0
M  V30 4089 O 372.627 -1.78662 -0.669676 0
M  V30 4090 C 369.767 -3.36431 -0.768666 0
M  V30 4091 C 368.88 -4.31927 0.0793922 0
M  V30 4092 C 368.015 -5.24944 -0.81283 0
M  V30 4093 C 367.054 -6.12088 0.0390447 0
M  V30 4094 N 366.191 -6.97412 -0.809969 0
M  V30 4095 H 371.031 -2.83761 0.91015 0
M  V30 4096 H 368.568 -1.39707 0.460463 0
M  V30 4097 H 370.526 -3.96462 -1.29898 0
M  V30 4098 H 369.156 -2.8457 -1.5238 0
M  V30 4099 H 368.208 -3.73382 0.727303 0
M  V30 4100 H 369.52 -4.93319 0.737401 0
M  V30 4101 H 368.674 -5.90078 -1.41042 0
M  V30 4102 H 367.413 -4.63911 -1.50458 0
M  V30 4103 H 366.418 -5.45952 0.649328 0
M  V30 4104 H 367.643 -6.75189 0.727809 0
M  V30 4105 H 365.589 -6.38931 -1.48672 0
M  V30 4106 H 365.506 -7.55712 -0.208789 0
M  V30 4107 H 366.774 -7.66959 -1.39263 0
M  V30 4108 N 371.003 -0.499398 -1.49478 0
M  V30 4109 C 372.251 0.0455996 -2.02049 0
M  V30 4110 C 372.572 1.37633 -1.38138 0
M  V30 4111 O 371.842 1.8842 -0.536166 0
M  V30 4112 H 370.422 0.0198416 -0.746736 0
M  V30 4113 H 373.084 -0.656274 -1.83519 0
M  V30 4114 H 372.18 0.176445 -3.11601 0
M  V30 4115 N 372.481 1.55866 -0.233164 0
M  V30 4116 C 373.411 2.23783 0.666599 0
M  V30 4117 C 374.392 1.21343 1.19205 0
M  V30 4118 O 375.577 1.4996 1.23392 0
M  V30 4119 C 372.707 2.92671 1.86978 0
M  V30 4120 C 371.661 4.01682 1.47768 0
M  V30 4121 C 370.987 4.57926 2.76058 0
M  V30 4122 C 372.287 5.18126 0.658993 0
M  V30 4123 H 373.981 2.99232 0.100306 0
M  V30 4124 H 371.527 1.43924 0.046804 0
M  V30 4125 H 373.48 3.3888 2.50476 0
M  V30 4126 H 372.204 2.14688 2.46123 0
M  V30 4127 H 370.863 3.56222 0.866106 0
M  V30 4128 H 370.511 3.76659 3.33372 0
M  V30 4129 H 370.211 5.31505 2.50552 0
M  V30 4130 H 371.735 5.06859 3.40479 0
M  V30 4131 H 373.149 5.60644 1.19795 0
M  V30 4132 H 371.546 5.98009 0.500552 0
M  V30 4133 H 372.616 4.83763 -0.331856 0
M  V30 4134 N 373.959 -0.0401083 1.57549 0
M  V30 4135 C 375.236 -0.767917 1.79896 0
M  V30 4136 C 375.616 -1.9416 0.82856 0
M  V30 4137 O 374.964 -2.2812 -0.131671 0
M  V30 4138 C 375.174 -1.2113 3.27305 0
M  V30 4139 C 376.522 -1.63175 3.91994 0
M  V30 4140 O 377.546 -1.30616 3.31388 0
M  V30 4141 O 376.405 -2.23565 4.98679 0
M  V30 4142 H 373.499 -0.370441 0.739393 0
M  V30 4143 H 376.045 -0.017737 1.69691 0
M  V30 4144 H 374.817 -0.372937 3.89519 0
M  V30 4145 H 374.44 -2.02183 3.42356 0
M  V30 4146 N 375.437 -1.54477 -0.31217 0
M  V30 4147 C 376.347 -1.87695 -1.4074 0
M  V30 4148 C 377.363 -0.769975 -1.56036 0
M  V30 4149 O 378.539 -1.06537 -1.70915 0
M  V30 4150 C 375.604 -2.10755 -2.75287 0
M  V30 4151 C 374.665 -3.34514 -2.69071 0
M  V30 4152 C 373.898 -3.56465 -3.97201 0
M  V30 4153 O 374.121 -2.81637 -4.96021 0
M  V30 4154 O 373.055 -4.49964 -3.9977 0
M  V30 4155 H 376.881 -2.80849 -1.15574 0
M  V30 4156 H 374.466 -1.40526 -0.507228 0
M  V30 4157 H 376.348 -2.27188 -3.54913 0
M  V30 4158 H 375.023 -1.20788 -3.0032 0
M  V30 4159 H 373.93 -3.23456 -1.87955 0
M  V30 4160 H 375.263 -4.24575 -2.48992 0
M  V30 4161 N 376.915 0.57481 -1.46744 0
M  V30 4162 C 378.14 1.36341 -1.56288 0
M  V30 4163 C 378.565 1.86954 -0.207347 0
M  V30 4164 O 377.923 1.62006 0.813871 0
M  V30 4165 C 377.971 2.52147 -2.57787 0
M  V30 4166 O 377.075 3.53834 -2.11838 0
M  V30 4167 H 376.416 0.405713 -0.525636 0
M  V30 4168 H 378.946 0.696453 -1.92382 0
M  V30 4169 H 378.956 2.98958 -2.77648 0
M  V30 4170 H 377.631 2.14663 -3.5622 0
M  V30 4171 H 376.208 3.1345 -2.01999 0
M  V30 4172 N 378.394 1.34581 0.820102 0
M  V30 4173 C 379.642 1.26845 1.57336 0
M  V30 4174 C 379.963 -0.160667 1.94337 0
M  V30 4175 O 379.233 -1.09396 1.6251 0
M  V30 4176 H 377.813 0.466514 0.583415 0
M  V30 4177 H 380.475 1.68526 0.979027 0
M  V30 4178 H 379.571 1.87513 2.4949 0
M  V30 4179 N 379.872 -1.04064 1.18357 0
M  V30 4180 C 381.121 -1.76662 0.973313 0
M  V30 4181 C 381.434 -1.89154 -0.497991 0
M  V30 4182 O 382.64 -2.58606 -0.826762 0
M  V30 4183 C 381.096 -3.17624 1.69242 0
M  V30 4184 C 380.704 -3.13225 3.20303 0
M  V30 4185 C 382.448 -3.946 1.56497 0
M  V30 4186 C 380.355 -4.49046 3.84853 0
M  V30 4187 H 379.285 -0.662214 0.36054 0
M  V30 4188 H 381.936 -1.16553 1.41731 0
M  V30 4189 H 380.318 -3.78129 1.1762 0
M  V30 4190 H 381.492 -2.62172 3.78949 0
M  V30 4191 H 379.807 -2.49749 3.33189 0
M  V30 4192 H 382.404 -4.95042 2.02084 0
M  V30 4193 H 382.747 -4.13074 0.517243 0
M  V30 4194 H 383.28 -3.4067 2.05399 0
M  V30 4195 H 380.019 -4.35777 4.89672 0
M  V30 4196 H 379.539 -5.00203 3.30994 0
M  V30 4197 H 381.218 -5.17961 3.87718 0
M  V30 4198 N 381.35 -0.985608 -1.22978 0
M  V30 4199 C 382.627 -0.573599 -1.87001 0
M  V30 4200 C 383.007 0.949213 -1.88555 0
M  V30 4201 O 382.355 1.82811 -1.37086 0
M  V30 4202 C 382.565 -1.18564 -3.28243 0
M  V30 4203 C 383.913 -1.28163 -4.04796 0
M  V30 4204 O 384.937 -1.13949 -3.37482 0
M  V30 4205 O 383.796 -1.50832 -5.25273 0
M  V30 4206 H 380.89 -0.193868 -0.803955 0
M  V30 4207 H 383.436 -1.08102 -1.30813 0
M  V30 4208 H 382.208 -2.22758 -3.21706 0
M  V30 4209 H 381.831 -0.663363 -3.92027 0
M  V30 4210 N 382.828 1.3818 -0.7579 0
M  V30 4211 C 383.758 2.33027 -0.148597 0
M  V30 4212 C 384.739 1.55085 0.69875 0
M  V30 4213 O 385.924 1.83384 0.639053 0
M  V30 4214 C 383.054 3.3928 0.742034 0
M  V30 4215 C 382.008 4.28 -0.00291946 0
M  V30 4216 C 381.334 5.25146 1.00625 0
M  V30 4217 C 382.634 5.08938 -1.17385 0
M  V30 4218 H 384.328 2.84231 -0.940909 0
M  V30 4219 H 381.874 1.36659 -0.453908 0
M  V30 4220 H 383.827 4.046 1.17799 0
M  V30 4221 H 382.551 2.86569 1.56671 0
M  V30 4222 H 381.21 3.64192 -0.419504 0
M  V30 4223 H 380.858 4.68721 1.8251 0
M  V30 4224 H 380.558 5.85361 0.512428 0
M  V30 4225 H 382.082 5.93342 1.44143 0
M  V30 4226 H 383.496 5.67474 -0.815224 0
M  V30 4227 H 381.893 5.7841 -1.59882 0
M  V30 4228 H 382.963 4.42424 -1.98468 0
M  V30 4229 N 384.306 0.507319 1.49211 0
M  V30 4230 C 385.236 -0.256939 2.32082 0
M  V30 4231 C 386.217 -0.956609 1.40652 0
M  V30 4232 O 387.402 -0.946788 1.69557 0
M  V30 4233 C 384.532 -1.31802 3.21318 0
M  V30 4234 C 383.486 -0.737855 4.21592 0
M  V30 4235 C 382.812 -1.89992 4.99807 0
M  V30 4236 C 384.112 0.275325 5.21574 0
M  V30 4237 H 385.806 0.434798 2.96226 0
M  V30 4238 H 383.352 0.210546 1.42452 0
M  V30 4239 H 385.305 -1.86045 3.78107 0
M  V30 4240 H 384.029 -2.03903 2.5513 0
M  V30 4241 H 382.688 -0.217126 3.65956 0
M  V30 4242 H 382.336 -2.60877 4.30061 0
M  V30 4243 H 382.036 -1.51777 5.6766 0
M  V30 4244 H 383.56 -2.44657 5.59442 0
M  V30 4245 H 384.974 -0.179193 5.7302 0
M  V30 4246 H 383.371 0.573649 5.97352 0
M  V30 4247 H 384.441 1.18903 4.70096 0
M  V30 4248 N 385.784 -1.5574 0.241426 0
M  V30 4249 C 387.009 -2.0366 -0.392111 0
M  V30 4250 C 387.434 -1.11969 -1.51144 0
M  V30 4251 O 386.792 -0.111594 -1.80956 0
M  V30 4252 C 386.84 -3.49638 -0.882371 0
M  V30 4253 O 385.944 -3.6108 -1.99235 0
M  V30 4254 H 385.285 -0.658379 -0.0862122 0
M  V30 4255 H 387.815 -2.01302 0.365881 0
M  V30 4256 H 387.825 -3.90351 -1.18702 0
M  V30 4257 H 386.5 -4.15852 -0.0632361 0
M  V30 4258 H 385.077 -3.32262 -1.69282 0
M  V30 4259 N 387.262 0.0317525 -1.57568 0
M  V30 4260 C 388.209 1.0332 -2.06382 0
M  V30 4261 C 389.179 1.36082 -0.952414 0
M  V30 4262 O 390.364 1.46466 -1.2228 0
M  V30 4263 C 387.504 2.32989 -2.54578 0
M  V30 4264 C 386.617 2.0641 -3.79498 0
M  V30 4265 C 385.752 3.2993 -4.16317 0
M  V30 4266 C 384.791 2.98893 -5.34162 0
M  V30 4267 N 383.928 4.14857 -5.66426 0
M  V30 4268 H 388.768 0.609982 -2.9169 0
M  V30 4269 H 386.305 0.289573 -1.44222 0
M  V30 4270 H 388.263 3.0875 -2.80587 0
M  V30 4271 H 386.893 2.73039 -1.7219 0
M  V30 4272 H 385.945 1.21158 -3.6059 0
M  V30 4273 H 387.257 1.79513 -4.65378 0
M  V30 4274 H 386.411 4.1406 -4.4344 0
M  V30 4275 H 385.15 3.59938 -3.29083 0
M  V30 4276 H 384.155 2.13164 -5.06795 0
M  V30 4277 H 385.38 2.70165 -6.23047 0
M  V30 4278 H 383.326 4.44821 -4.82151 0
M  V30 4279 H 383.243 3.91374 -6.4681 0
M  V30 4280 H 384.511 4.99868 -5.98124 0
M  V30 4281 N 388.74 1.54641 0.303973 0
M  V30 4282 C 389.673 1.80263 1.3993 0
M  V30 4283 C 390.651 0.653657 1.48883 0
M  V30 4284 O 391.835 0.893284 1.6599 0
M  V30 4285 C 388.962 1.9367 2.77866 0
M  V30 4286 C 388.008 3.16078 2.86351 0
M  V30 4287 S 388.841 4.74219 2.4875 0
M  V30 4288 C 389.997 4.90558 3.88721 0
M  V30 4289 H 390.23 2.72886 1.17986 0
M  V30 4290 H 387.763 1.46014 0.501918 0
M  V30 4291 H 389.721 2.0208 3.57315 0
M  V30 4292 H 388.382 1.01991 2.9708 0
M  V30 4293 H 387.575 3.22252 3.87517 0
M  V30 4294 H 387.177 3.06099 2.14893 0
M  V30 4295 H 389.469 4.74398 4.83687 0
M  V30 4296 H 390.412 5.92651 3.87518 0
M  V30 4297 H 390.82 4.18728 3.78585 0
M  V30 4298 N 390.218 -0.567019 1.47046 0
M  V30 4299 C 391.148 -1.68482 1.61667 0
M  V30 4300 C 392.129 -1.6358 0.466418 0
M  V30 4301 O 393.314 -1.81354 0.694574 0
M  V30 4302 C 390.444 -3.07124 1.62148 0
M  V30 4303 C 389.398 -3.26867 2.76301 0
M  V30 4304 C 388.724 -4.66196 2.61849 0
M  V30 4305 C 390.024 -3.13186 4.17986 0
M  V30 4306 H 391.718 -1.56502 2.5524 0
M  V30 4307 H 389.264 -0.751486 1.22836 0
M  V30 4308 H 391.217 -3.8516 1.70968 0
M  V30 4309 H 389.941 -3.2004 0.651287 0
M  V30 4310 H 388.6 -2.51237 2.66975 0
M  V30 4311 H 388.248 -4.75898 1.62879 0
M  V30 4312 H 387.948 -4.80356 3.38425 0
M  V30 4313 H 389.472 -5.46379 2.72584 0
M  V30 4314 H 390.886 -3.81049 4.2834 0
M  V30 4315 H 389.283 -3.3886 4.95272 0
M  V30 4316 H 390.353 -2.10057 4.3704 0
M  V30 4317 N 391.696 -1.35014 -0.812953 0
M  V30 4318 C 392.643 -1.27412 -1.92444 0
M  V30 4319 C 393.613 -0.14733 -1.65445 0
M  V30 4320 O 394.798 -0.329974 -1.87925 0
M  V30 4321 C 391.938 -1.04558 -3.28879 0
M  V30 4322 C 391.051 -2.26101 -3.68106 0
M  V30 4323 C 390.186 -1.96449 -4.9354 0
M  V30 4324 C 389.225 -3.14081 -5.25376 0
M  V30 4325 N 388.362 -2.84246 -6.41988 0
M  V30 4326 H 393.202 -2.22463 -1.98278 0
M  V30 4327 H 390.739 -1.10593 -0.969933 0
M  V30 4328 H 392.697 -0.893413 -4.07522 0
M  V30 4329 H 391.327 -0.131719 -3.22531 0
M  V30 4330 H 390.379 -2.52204 -2.84775 0
M  V30 4331 H 391.691 -3.13959 -3.87597 0
M  V30 4332 H 390.845 -1.78026 -5.79993 0
M  V30 4333 H 389.584 -1.05867 -4.76071 0
M  V30 4334 H 388.589 -3.33089 -4.37415 0
M  V30 4335 H 389.814 -4.05455 -5.44778 0
M  V30 4336 H 387.76 -1.96252 -6.25956 0
M  V30 4337 H 387.677 -3.65637 -6.61699 0
M  V30 4338 H 388.945 -2.6935 -7.31485 0
M  V30 4339 N 393.175 1.03435 -1.18907 0
M  V30 4340 C 394.105 2.13503 -0.945448 0
M  V30 4341 C 395.086 1.69682 0.119189 0
M  V30 4342 O 396.271 1.94169 -0.034707 0
M  V30 4343 C 393.401 3.44004 -0.477316 0
M  V30 4344 C 392.355 4.0148 -1.48316 0
M  V30 4345 C 391.681 5.27537 -0.872311 0
M  V30 4346 C 392.981 4.36921 -2.86177 0
M  V30 4347 H 394.675 2.34141 -1.86597 0
M  V30 4348 H 392.221 1.12523 -0.898584 0
M  V30 4349 H 394.174 4.20372 -0.294204 0
M  V30 4350 H 392.898 3.23072 0.478786 0
M  V30 4351 H 391.557 3.27201 -1.65332 0
M  V30 4352 H 391.205 5.02917 0.0911752 0
M  V30 4353 H 390.905 5.66954 -1.54393 0
M  V30 4354 H 392.429 6.06576 -0.699871 0
M  V30 4355 H 393.843 5.04248 -2.72776 0
M  V30 4356 H 392.24 4.87405 -3.50081 0
M  V30 4357 H 393.31 3.46466 -3.39248 0
M  V30 4358 N 394.653 0.992116 1.22453 0
M  V30 4359 C 395.93 0.583508 1.86694 0
M  V30 4360 C 396.31 -0.9392 1.89056 0
M  V30 4361 O 395.658 -1.82081 1.38053 0
M  V30 4362 C 395.868 1.20304 3.2761 0
M  V30 4363 C 397.216 1.30308 4.0411 0
M  V30 4364 O 398.24 1.15737 3.36873 0
M  V30 4365 O 397.099 1.53615 5.24466 0
M  V30 4366 H 394.193 0.198129 0.802916 0
M  V30 4367 H 396.739 1.08794 1.30238 0
M  V30 4368 H 395.511 2.24461 3.2052 0
M  V30 4369 H 395.134 0.684144 3.9167 0
M  V30 4370 N 396.131 -1.37776 0.765217 0
M  V30 4371 C 397.542 -1.82521 0.392819 0
M  V30 4372 C 397.893 -1.63789 -1.08017 0
M  V30 4373 O 397.018 -1.14542 -1.83601 0
M  V30 4374 C 397.613 -3.31358 0.706214 0
M  V30 4375 C 396.172 -3.74406 0.386952 0
M  V30 4376 C 395.319 -2.60394 0.953422 0
M  V30 4377 H 398.27 -1.2634 0.960412 0
M  V30 4378 H 398.291 -3.80498 -0.0114706 0
M  V30 4379 H 397.803 -3.44959 1.77833 0
M  V30 4380 H 395.904 -3.66377 -0.678112 0
M  V30 4381 H 396.017 -4.70749 0.890636 0
M  V30 4382 H 394.381 -2.51878 0.378064 0
M  V30 4383 H 395.164 -2.76791 2.03081 0
M  V30 4384 N 397.609 -0.515225 -1.4894 0
M  V30 4385 C 398.557 0.269115 -2.31038 0
M  V30 4386 C 399.551 0.949443 -1.40292 0
M  V30 4387 O 400.757 0.87551 -1.57273 0
M  V30 4388 H 397.132 0.10565 -0.744542 0
M  V30 4389 H 399.103 -0.443096 -2.95092 0
M  V30 4390 C 397.852 1.31213 -3.21991 0
M  V30 4391 H 397.175 0.798034 -3.91754 0
M  V30 4392 H 398.615 1.83263 -3.82349 0
M  V30 4393 C 397.074 2.33791 -2.42576 0
M  V30 4394 O 397.604 3.3995 -2.14003 0
M  V30 4395 N 395.81 2.06625 -2.0434 0
M  V30 4396 H 395.357 1.20314 -2.27777 0
M  V30 4397 H 395.315 2.75483 -1.51514 0
M  V30 4398 N 399.087 1.5561 -0.249682 0
M  V30 4399 C 400.019 2.18834 0.681496 0
M  V30 4400 C 401.032 1.16546 1.1367 0
M  V30 4401 O 402.221 1.43397 1.06299 0
M  V30 4402 C 399.321 2.77992 1.9384 0
M  V30 4403 C 398.494 4.05725 1.63419 0
M  V30 4404 C 397.553 4.49174 2.74096 0
M  V30 4405 O 396.579 5.15492 2.41364 0
M  V30 4406 N 397.781 4.17191 4.03649 0
M  V30 4407 H 400.546 2.9937 0.140514 0
M  V30 4408 H 398.107 1.6175 -0.0697541 0
M  V30 4409 H 400.099 3.04015 2.67127 0
M  V30 4410 H 398.669 2.01596 2.38909 0
M  V30 4411 H 397.889 3.87261 0.736358 0
M  V30 4412 H 399.177 4.88999 1.40562 0
M  V30 4413 H 398.575 3.63955 4.33074 0
M  V30 4414 H 397.132 4.48043 4.73393 0
M  V30 4415 N 400.565 -0.0233959 1.57583 0
M  V30 4416 C 401.981 -0.379134 1.55031 0
M  V30 4417 C 402.181 -1.76255 0.976548 0
M  V30 4418 O 401.237 -2.45266 0.600078 0
M  V30 4419 C 402.55 -0.275792 2.99433 0
M  V30 4420 C 404.098 -0.352458 3.11009 0
M  V30 4421 C 404.573 -0.278501 4.57152 0
M  V30 4422 N 406.064 -0.337123 4.61972 0
M  V30 4423 C 406.799 -0.302876 5.726 0
M  V30 4424 N 406.295 -0.220589 6.92449 0
M  V30 4425 N 408.088 -0.353023 5.6099 0
M  V30 4426 H 400.239 0.881869 1.93227 0
M  V30 4427 H 402.502 0.335867 0.886509 0
M  V30 4428 H 402.208 0.675108 3.4516 0
M  V30 4429 H 402.082 -1.06721 3.61788 0
M  V30 4430 H 404.469 -1.29379 2.65226 0
M  V30 4431 H 404.55 0.468409 2.51475 0
M  V30 4432 H 404.194 0.659189 5.03604 0
M  V30 4433 H 404.124 -1.11755 5.14605 0
M  V30 4434 H 406.615 -0.403002 3.75745 0
M  V30 4435 H 406.928 -0.199713 7.72542 0
M  V30 4436 H 405.273 -0.186555 6.9475 0
M  V30 4437 H 408.464 -0.415339 4.66254 0
M  V30 4438 H 408.637 -0.322866 6.47195 0
M  V30 4439 N 402.043 -1.548 -0.295768 0
M  V30 4440 C 403.292 -1.73538 -1.02798 0
M  V30 4441 C 403.605 -0.531159 -1.8825 0
M  V30 4442 O 404.811 -0.600458 -2.64777 0
M  V30 4443 C 403.267 -3.07051 -1.87744 0
M  V30 4444 C 402.875 -4.34968 -1.07269 0
M  V30 4445 C 404.619 -3.35146 -2.60533 0
M  V30 4446 C 402.526 -5.5953 -1.91521 0
M  V30 4447 H 401.456 -0.646794 -0.387522 0
M  V30 4448 H 404.107 -1.81278 -0.284718 0
M  V30 4449 H 402.489 -2.93289 -2.66078 0
M  V30 4450 H 403.663 -4.5958 -0.335117 0
M  V30 4451 H 401.978 -4.13847 -0.460384 0
M  V30 4452 H 404.575 -4.2541 -3.23929 0
M  V30 4453 H 404.918 -2.54255 -3.29636 0
M  V30 4454 H 405.451 -3.49902 -1.89244 0
M  V30 4455 H 402.19 -6.43103 -1.26878 0
M  V30 4456 H 401.71 -5.39096 -2.62937 0
M  V30 4457 H 403.389 -5.96982 -2.49442 0
M  V30 4458 N 403.521 0.559213 -1.47345 0
M  V30 4459 C 404.749 1.34194 -1.57479 0
M  V30 4460 C 405.164 1.87463 -0.224261 0
M  V30 4461 O 404.521 1.64888 0.782185 0
M  V30 4462 C 404.572 2.51324 -2.59843 0
M  V30 4463 O 404.293 2.00256 -3.89653 0
M  V30 4464 C 405.794 3.43563 -2.80142 0
M  V30 4465 H 403.014 0.409136 -0.531835 0
M  V30 4466 H 405.558 0.677609 -1.92947 0
M  V30 4467 H 403.713 3.13699 -2.27314 0
M  V30 4468 H 404.127 2.76708 -4.4557 0
M  V30 4469 H 405.601 4.2217 -3.55635 0
M  V30 4470 H 406.078 3.9698 -1.87892 0
M  V30 4471 H 406.684 2.87005 -3.1386 0
M  V30 4472 N 404.999 1.35443 0.805782 0
M  V30 4473 C 405.962 1.28301 1.89925 0
M  V30 4474 C 406.962 0.194285 1.59622 0
M  V30 4475 O 408.152 0.448036 1.6834 0
M  V30 4476 C 405.284 0.984997 3.2636 0
M  V30 4477 H 406.477 2.2553 1.97677 0
M  V30 4478 H 404.03 1.19979 1.00173 0
M  V30 4479 H 404.765 0.016603 3.24296 0
M  V30 4480 H 404.55 1.77269 3.4974 0
M  V30 4481 H 406.04 0.960651 4.064 0
M  V30 4482 N 406.477 -1.02803 1.19454 0
M  V30 4483 C 407.424 -2.11099 0.933046 0
M  V30 4484 C 408.394 -1.65571 -0.132447 0
M  V30 4485 O 409.579 -1.90797 0.00987576 0
M  V30 4486 C 406.719 -3.41763 0.478747 0
M  V30 4487 C 405.832 -4.00833 1.6111 0
M  V30 4488 C 404.967 -5.19511 1.10825 0
M  V30 4489 C 404.006 -5.70639 2.21445 0
M  V30 4490 N 403.143 -6.80589 1.72461 0
M  V30 4491 H 407.983 -2.32804 1.86028 0
M  V30 4492 H 405.52 -1.14179 0.927441 0
M  V30 4493 H 407.478 -4.16736 0.196745 0
M  V30 4494 H 406.108 -3.20166 -0.411493 0
M  V30 4495 H 405.16 -3.23066 2.00829 0
M  V30 4496 H 406.472 -4.34794 2.4445 0
M  V30 4497 H 405.626 -6.01645 0.781533 0
M  V30 4498 H 404.365 -4.87086 0.244606 0
M  V30 4499 H 403.37 -4.87116 2.54947 0
M  V30 4500 H 404.595 -6.05102 3.08267 0
M  V30 4501 H 402.541 -6.50016 0.884056 0
M  V30 4502 H 402.458 -7.13681 2.49389 0
M  V30 4503 H 403.726 -7.66317 1.42755 0
M  V30 4504 N 407.956 -0.998596 -1.21925 0
M  V30 4505 C 408.888 -0.511879 -2.23411 0
M  V30 4506 C 409.901 0.396094 -1.57908 0
M  V30 4507 O 411.09 0.197316 -1.77406 0
M  V30 4508 C 408.19 0.276802 -3.37768 0
M  V30 4509 C 407.363 -0.628687 -4.32858 0
M  V30 4510 C 406.422 0.109272 -5.26087 0
M  V30 4511 O 405.448 -0.507237 -5.66935 0
M  V30 4512 N 406.65 1.38983 -5.63617 0
M  V30 4513 H 409.415 -1.38457 -2.658 0
M  V30 4514 H 406.976 -0.873981 -1.36283 0
M  V30 4515 H 408.968 0.77928 -3.97126 0
M  V30 4516 H 407.538 1.05063 -2.94415 0
M  V30 4517 H 406.758 -1.31175 -3.71735 0
M  V30 4518 H 408.046 -1.24514 -4.93329 0
M  V30 4519 H 407.444 1.91194 -5.32411 0
M  V30 4520 H 406.001 1.83739 -6.25367 0
M  V30 4521 N 409.434 1.37368 -0.772513 0
M  V30 4522 C 410.397 2.28601 -0.165541 0
M  V30 4523 C 411.397 1.48062 0.627238 0
M  V30 4524 O 412.587 1.68268 0.450715 0
M  V30 4525 C 409.719 3.32023 0.772897 0
M  V30 4526 H 410.912 2.83787 -0.969787 0
M  V30 4527 H 408.465 1.46647 -0.540775 0
M  V30 4528 H 409.2 2.81962 1.60212 0
M  V30 4529 H 408.985 3.91555 0.206585 0
M  V30 4530 H 410.475 4.00197 1.19298 0
M  V30 4531 N 410.912 0.523116 1.48665 0
M  V30 4532 C 411.842 -0.23231 2.32342 0
M  V30 4533 C 412.823 -0.941637 1.41659 0
M  V30 4534 O 414.008 -0.928751 1.70552 0
M  V30 4535 C 411.138 -1.28387 3.22698 0
M  V30 4536 C 410.092 -0.693098 4.22351 0
M  V30 4537 C 409.418 -1.8468 5.01794 0
M  V30 4538 C 410.718 0.33063 5.21252 0
M  V30 4539 H 412.412 0.466192 2.95748 0
M  V30 4540 H 409.958 0.225643 1.42221 0
M  V30 4541 H 411.911 -1.82024 3.80059 0
M  V30 4542 H 410.635 -2.01186 2.57278 0
M  V30 4543 H 409.294 -0.178299 3.66166 0
M  V30 4544 H 408.942 -2.56301 4.32804 0
M  V30 4545 H 408.642 -1.45747 5.69238 0
M  V30 4546 H 410.166 -2.38709 5.62006 0
M  V30 4547 H 411.58 -0.118407 5.73178 0
M  V30 4548 H 409.977 0.636974 5.9671 0
M  V30 4549 H 411.047 1.23883 4.68808 0
M  V30 4550 N 412.39 -1.55475 0.257931 0
M  V30 4551 C 413.3 -2.2549 -0.647425 0
M  V30 4552 C 414.316 -1.2748 -1.18427 0
M  V30 4553 O 415.492 -1.6038 -1.2182 0
M  V30 4554 C 412.557 -2.94916 -1.82278 0
M  V30 4555 C 411.618 -4.08363 -1.32432 0
M  V30 4556 C 410.851 -4.74469 -2.44366 0
M  V30 4557 O 411.074 -4.39701 -3.63344 0
M  V30 4558 O 410.008 -5.62763 -2.13497 0
M  V30 4559 H 413.834 -3.03593 -0.0807707 0
M  V30 4560 H 411.419 -1.49377 0.0259962 0
M  V30 4561 H 413.301 -3.38606 -2.50846 0
M  V30 4562 H 411.976 -2.19744 -2.37685 0
M  V30 4563 H 410.883 -3.69166 -0.605605 0
M  V30 4564 H 412.216 -4.85385 -0.816211 0
M  V30 4565 N 413.868 0.0150385 -1.57593 0
M  V30 4566 C 414.818 1.01943 -2.0394 0
M  V30 4567 C 415.802 1.31209 -0.931286 0
M  V30 4568 O 416.994 1.30559 -1.19513 0
M  V30 4569 C 414.123 2.31621 -2.53391 0
M  V30 4570 C 413.209 2.05384 -3.7105 0
M  V30 4571 N 413.6 1.49253 -4.83278 0
M  V30 4572 C 411.898 2.35601 -3.78693 0
M  V30 4573 C 412.599 1.39143 -5.64813 0
M  V30 4574 N 411.575 1.87187 -5.10355 0
M  V30 4575 H 415.377 0.57969 -2.88126 0
M  V30 4576 H 412.891 0.221056 -1.60888 0
M  V30 4577 H 414.888 3.044 -2.84862 0
M  V30 4578 H 413.548 2.76261 -1.70616 0
M  V30 4579 H 414.559 1.17334 -5.04433 0
M  V30 4580 H 411.236 2.8322 -3.06746 0
M  V30 4581 H 412.626 0.961153 -6.6499 0
M  V30 4582 N 415.346 1.54954 0.287554 0
M  V30 4583 C 416.309 1.86076 1.33823 0
M  V30 4584 C 417.309 0.734414 1.43049 0
M  V30 4585 O 418.499 1.00266 1.42452 0
M  V30 4586 C 415.631 2.05305 2.72144 0
M  V30 4587 H 416.824 2.79984 1.07465 0
M  V30 4588 H 414.377 1.47223 0.524902 0
M  V30 4589 H 415.112 1.1373 3.03704 0
M  V30 4590 H 414.897 2.873 2.66836 0
M  V30 4591 H 416.387 2.30706 3.48087 0
M  V30 4592 N 416.824 -0.551391 1.4764 0
M  V30 4593 C 418.054 -1.33163 1.57959 0
M  V30 4594 C 418.462 -1.87785 0.23094 0
M  V30 4595 O 417.805 -1.65996 -0.786825 0
M  V30 4596 C 417.867 -2.53449 2.54958 0
M  V30 4597 C 417.531 -2.20071 4.00522 0
M  V30 4598 C 418.528 -1.77017 4.88836 0
M  V30 4599 C 416.213 -2.31252 4.45901 0
M  V30 4600 C 418.207 -1.4558 6.20552 0
M  V30 4601 C 415.894 -1.99427 5.77644 0
M  V30 4602 C 416.892 -1.56659 6.64791 0
M  V30 4603 O 416.58 -1.25242 7.94084 0
M  V30 4604 H 416.312 -0.412022 0.535923 0
M  V30 4605 H 418.866 -0.674186 1.9402 0
M  V30 4606 H 417.096 -3.22104 2.13976 0
M  V30 4607 H 418.785 -3.15523 2.55343 0
M  V30 4608 H 419.551 -1.67867 4.55023 0
M  V30 4609 H 415.43 -2.63498 3.78272 0
M  V30 4610 H 418.974 -1.12125 6.8853 0
M  V30 4611 H 414.871 -2.08211 6.10998 0
M  V30 4612 H 415.639 -1.38822 8.06642 0
M  V30 4613 N 418.302 -1.35869 -0.798587 0
M  V30 4614 C 419.549 -1.29588 -1.55606 0
M  V30 4615 C 419.877 0.127456 -1.94082 0
M  V30 4616 O 419.132 1.09461 -1.62225 0
M  V30 4617 C 419.431 -2.1556 -2.85077 0
M  V30 4618 C 419.097 -3.6424 -2.65781 0
M  V30 4619 C 417.759 -4.04766 -2.60227 0
M  V30 4620 C 420.111 -4.58547 -2.47758 0
M  V30 4621 C 417.439 -5.37753 -2.34603 0
M  V30 4622 C 419.791 -5.91742 -2.23662 0
M  V30 4623 C 418.455 -6.31402 -2.16534 0
M  V30 4624 H 417.725 -0.474197 -0.569402 0
M  V30 4625 H 420.372 -1.67839 -0.922086 0
M  V30 4626 H 418.677 -1.70216 -3.52893 0
M  V30 4627 H 420.374 -2.08031 -3.42818 0
M  V30 4628 H 416.964 -3.32086 -2.70956 0
M  V30 4629 H 421.148 -4.28117 -2.51056 0
M  V30 4630 H 416.404 -5.67474 -2.2756 0
M  V30 4631 H 420.578 -6.6439 -2.08708 0
M  V30 4632 H 418.205 -7.34381 -1.96441 0
M  V30 4633 N 419.78 1.02168 -1.19998 0
M  V30 4634 C 420.727 2.10601 -0.944228 0
M  V30 4635 C 421.697 1.65639 0.123664 0
M  V30 4636 O 422.882 1.9079 -0.0199941 0
M  V30 4637 C 420.022 3.41504 -0.496865 0
M  V30 4638 C 419.135 3.99973 -1.63234 0
M  V30 4639 C 418.27 5.18915 -1.13579 0
M  V30 4640 C 417.309 5.69456 -2.24468 0
M  V30 4641 N 416.446 6.79665 -1.76068 0
M  V30 4642 H 421.286 2.31814 -1.8726 0
M  V30 4643 H 418.823 1.13686 -0.933483 0
M  V30 4644 H 420.781 4.16626 -0.218843 0
M  V30 4645 H 419.411 3.2038 0.394508 0
M  V30 4646 H 418.463 3.21997 -2.0254 0
M  V30 4647 H 419.775 4.33492 -2.46752 0
M  V30 4648 H 418.929 6.01222 -0.813429 0
M  V30 4649 H 417.668 4.8695 -0.270434 0
M  V30 4650 H 416.673 4.85757 -2.57526 0
M  V30 4651 H 417.898 6.03459 -3.11472 0
M  V30 4652 H 415.844 6.49538 -0.918516 0
M  V30 4653 H 415.761 7.12349 -2.5317 0
M  V30 4654 H 417.029 7.65549 -1.46817 0
M  V30 4655 N 421.258 1.00505 1.21394 0
M  V30 4656 C 422.168 0.574806 2.27449 0
M  V30 4657 C 423.184 -0.382206 1.6975 0
M  V30 4658 O 424.36 -0.246027 1.99892 0
M  V30 4659 C 421.425 -0.0917414 3.46579 0
M  V30 4660 C 420.486 0.909758 4.1955 0
M  V30 4661 C 419.719 0.274924 5.32991 0
M  V30 4662 O 419.942 -0.928254 5.62796 0
M  V30 4663 O 418.876 0.985877 5.93771 0
M  V30 4664 H 422.702 1.45744 2.66444 0
M  V30 4665 H 420.287 0.773923 1.27792 0
M  V30 4666 H 422.169 -0.464551 4.18832 0
M  V30 4667 H 420.844 -0.948755 3.09484 0
M  V30 4668 H 419.751 1.33372 3.49518 0
M  V30 4669 H 421.084 1.73636 4.60555 0
M  V30 4670 N 422.737 -1.36956 0.779787 0
M  V30 4671 C 423.685 -2.32053 0.15942 0
M  V30 4672 C 424.679 -1.55333 -0.675878 0
M  V30 4673 O 425.885 -1.70668 -0.57204 0
M  V30 4674 H 422.26 -0.751286 0.0327707 0
M  V30 4675 H 424.231 -2.8195 0.977078 0
M  V30 4676 C 422.98 -3.40602 -0.698977 0
M  V30 4677 H 422.303 -3.99746 -0.0655966 0
M  V30 4678 H 423.743 -4.09486 -1.09989 0
M  V30 4679 C 422.202 -2.81359 -1.85307 0
M  V30 4680 O 422.732 -2.72751 -2.94906 0
M  V30 4681 N 420.938 -2.38786 -1.65619 0
M  V30 4682 H 420.485 -2.45987 -0.764725 0
M  V30 4683 H 420.443 -1.99493 -2.43002 0
M  V30 4684 N 424.215 -0.530993 -1.48385 0
M  V30 4685 C 425.163 0.244595 -2.3131 0
M  V30 4686 C 426.157 0.93451 -1.41291 0
M  V30 4687 O 427.363 0.85878 -1.58193 0
M  V30 4688 H 423.738 0.0977472 -0.74562 0
M  V30 4689 H 425.709 -0.474369 -2.94605 0
M  V30 4690 C 424.458 1.2779 -3.23365 0
M  V30 4691 H 423.781 0.756439 -3.92579 0
M  V30 4692 H 425.221 1.79198 -3.84271 0
M  V30 4693 C 423.68 2.31205 -2.45042 0
M  V30 4694 O 424.21 3.37661 -2.17596 0
M  V30 4695 N 422.416 2.04446 -2.0652 0
M  V30 4696 H 421.963 1.17891 -2.2904 0
M  V30 4697 H 421.921 2.73861 -1.54427 0
M  V30 4698 O 425.732 1.56259 -0.408071 0
M  V30 4699 H 426.423 1.93245 0.132688 0
M  V30 END ATOM
M  V30 BEGIN BOND
M  V30 END BOND
M  V30 END CTAB
M  END
$$$$
