drugbank_target|Q16568 Cocaine- and amphetamine-regulated transcript protein (DB00182)
 OpenBabel12092119423D

  0  0  0     0  0            999 V3000
M  V30 BEGIN CTAB
M  V30 COUNTS 1838 1848 0 0 0
M  V30 BEGIN ATOM
M  V30 1 H -0.908 1.98254 -0.117106 0
M  V30 2 N 0 1.576 0 0
M  V30 3 C 0.933 2.03868 1.02534 0
M  V30 4 C 1.911 0.928543 1.3348 0
M  V30 5 O 3.095 1.19667 1.45644 0
M  V30 6 C 0.222 2.43627 2.35294 0
M  V30 7 C -0.732 3.65373 2.2001 0
M  V30 8 S 0.101 5.13292 1.52614 0
M  V30 9 C 1.257 5.56322 2.86805 0
M  V30 10 H 1.49 2.90518 0.631377 0
M  V30 11 H -0.977 1.52953 0.210867 0
M  V30 12 H 0.981 2.67203 3.11629 0
M  V30 13 H -0.358 1.57376 2.7183 0
M  V30 14 H -1.165 3.90944 3.18086 0
M  V30 15 H -1.563 3.418 1.51819 0
M  V30 16 H 0.729 5.58782 3.83104 0
M  V30 17 H 1.672 6.56266 2.65933 0
M  V30 18 H 2.08 4.83886 2.90714 0
M  V30 19 N 1.4781 -0.272755 1.55222 0
M  V30 20 C 2.3881 -1.35918 1.91216 0
M  V30 21 C 3.4041 -1.54026 0.809436 0
M  V30 22 O 4.5801 -1.68148 1.10852 0
M  V30 23 C 1.6451 -2.69834 2.17693 0
M  V30 24 C 0.7061 -2.6047 3.41253 0
M  V30 25 C -0.0609 -3.88 3.66458 0
M  V30 26 O 0.1621 -4.88693 2.94169 0
M  V30 27 O -0.9039 -3.88189 4.59992 0
M  V30 28 H 2.9221 -1.0839 2.83699 0
M  V30 29 H 0.5071 -0.471301 1.41771 0
M  V30 30 H 2.3891 -3.49017 2.36147 0
M  V30 31 H 1.0641 -2.97148 1.28392 0
M  V30 32 H -0.0289 -1.79663 3.28134 0
M  V30 33 H 1.3041 -2.38106 4.30774 0
M  V30 34 N 2.9562 -1.48159 -0.537278 0
M  V30 35 C 4.1812 -1.59707 -1.32319 0
M  V30 36 C 4.6062 -0.254859 -1.86365 0
M  V30 37 O 3.9642 0.772378 -1.64024 0
M  V30 38 C 4.0122 -2.6412 -2.45505 0
M  V30 39 O 3.1162 -2.20774 -3.48328 0
M  V30 40 H 2.4572 -0.535791 -0.392204 0
M  V30 41 H 4.9872 -1.94092 -0.647268 0
M  V30 42 H 4.9972 -2.85166 -2.91795 0
M  V30 43 H 3.6722 -3.61567 -2.05528 0
M  V30 44 H 2.2492 -2.09911 -3.08207 0
M  V30 45 N 4.4343 0.785586 -1.36625 0
M  V30 46 C 5.6593 1.57963 -1.34397 0
M  V30 47 C 6.0843 1.87964 0.071526 0
M  V30 48 O 5.4423 1.48182 1.0446 0
M  V30 49 C 5.4903 2.87511 -2.17646 0
M  V30 50 O 4.5943 3.81281 -1.57158 0
M  V30 51 H 3.9353 0.479014 -0.459828 0
M  V30 52 H 6.4653 0.973411 -1.79961 0
M  V30 53 H 6.4753 3.36745 -2.30362 0
M  V30 54 H 5.1503 2.65002 -3.20541 0
M  V30 55 H 3.7273 3.39885 -1.53403 0
M  V30 56 N 5.9124 1.20967 1.01018 0
M  V30 57 C 7.3284 0.965905 1.27053 0
M  V30 58 C 7.5284 -0.350785 1.98423 0
M  V30 59 O 6.5844 -1.07773 2.28344 0
M  V30 60 C 7.8974 2.15294 2.09926 0
M  V30 61 C 9.4454 2.19463 2.23171 0
M  V30 62 C 9.9204 3.3767 3.09424 0
M  V30 63 N 11.4114 3.37724 3.17012 0
M  V30 64 C 12.1464 4.25837 3.83993 0
M  V30 65 N 11.6424 5.24138 4.53047 0
M  V30 66 N 13.4354 4.1366 3.80581 0
M  V30 67 H 5.5864 2.0565 0.531194 0
M  V30 68 H 7.8494 0.90024 0.297106 0
M  V30 69 H 7.5554 3.10684 1.64828 0
M  V30 70 H 7.4294 2.13923 3.10672 0
M  V30 71 H 9.8164 1.24632 2.6749 0
M  V30 72 H 9.8974 2.2488 1.21912 0
M  V30 73 H 9.5414 4.32791 2.65808 0
M  V30 74 H 9.4714 3.29491 4.10784 0
M  V30 75 H 11.9624 2.6658 2.6785 0
M  V30 76 H 12.2754 5.87684 5.01844 0
M  V30 77 H 10.6204 5.28068 4.5185 0
M  V30 78 H 13.8114 3.36127 3.25785 0
M  V30 79 H 13.9844 4.82538 4.32505 0
M  V30 80 N 7.3905 -1.2043 1.01659 0
M  V30 81 C 8.6365 -1.90079 0.706963 0
M  V30 82 C 8.9695 -1.78648 -0.761474 0
M  V30 83 O 8.2445 -1.17069 -1.55323 0
M  V30 84 C 8.5275 -3.41469 1.14327 0
M  V30 85 C 8.3805 -3.61833 2.67201 0
M  V30 86 C 9.6995 -4.34261 0.714529 0
M  V30 87 H 6.8185 -0.690254 0.2583 0
M  V30 88 H 9.4605 -1.41826 1.26433 0
M  V30 89 H 7.6105 -3.82696 0.669056 0
M  V30 90 H 9.2825 -3.2986 3.22475 0
M  V30 91 H 7.5255 -3.05304 3.08175 0
M  V30 92 H 8.1965 -4.67955 2.92783 0
M  V30 93 H 10.6725 -4.00682 1.12221 0
M  V30 94 H 9.5485 -5.38806 1.04784 0
M  V30 95 H 9.8095 -4.40431 -0.383799 0
M  V30 96 N 8.8686 -0.792821 -1.36206 0
M  V30 97 C 10.2846 -0.474903 -1.52371 0
M  V30 98 C 10.4846 1.00622 -1.74578 0
M  V30 99 O 9.5406 1.79162 -1.77924 0
M  V30 100 C 10.8536 -1.3083 -2.70747 0
M  V30 101 C 12.4016 -1.30234 -2.84619 0
M  V30 102 C 12.8766 -2.11956 -4.06004 0
M  V30 103 N 14.3676 -2.09419 -4.13156 0
M  V30 104 C 15.1026 -2.69419 -5.06163 0
M  V30 105 N 14.5986 -3.3829 -6.04592 0
M  V30 106 N 16.3916 -2.59134 -4.98804 0
M  V30 107 H 8.5426 -1.75222 -1.20046 0
M  V30 108 H 10.8056 -0.745024 -0.586211 0
M  V30 109 H 10.5116 -2.35881 -2.6087 0
M  V30 110 H 10.3856 -0.95196 -3.6499 0
M  V30 111 H 12.7726 -0.259748 -2.93955 0
M  V30 112 H 12.8536 -1.69847 -1.91274 0
M  V30 113 H 12.4976 -3.16248 -3.97429 0
M  V30 114 H 12.4276 -1.69711 -4.98503 0
M  V30 115 H 14.9186 -1.59297 -3.42685 0
M  V30 116 H 15.2316 -3.81394 -6.7213 0
M  V30 117 H 13.5766 -3.42393 -6.04807 0
M  V30 118 H 16.7676 -2.04927 -4.20859 0
M  V30 119 H 16.9406 -3.06185 -5.711 0
M  V30 120 N 10.3467 1.47872 -0.545128 0
M  V30 121 C 11.2767 2.32661 0.197793 0
M  V30 122 C 12.2577 1.43041 0.920504 0
M  V30 123 O 13.4427 1.71912 0.90333 0
M  V30 124 C 10.5727 3.24569 1.23582 0
M  V30 125 C 9.5267 4.23333 0.630323 0
M  V30 126 C 8.8527 5.0448 1.77211 0
M  V30 127 C 10.1527 5.20704 -0.407974 0
M  V30 128 H 11.8467 2.95024 -0.510045 0
M  V30 129 H 9.3927 1.4187 -0.246731 0
M  V30 130 H 11.3457 3.8272 1.76362 0
M  V30 131 H 10.0697 2.60236 1.97344 0
M  V30 132 H 8.7287 3.6639 0.123922 0
M  V30 133 H 8.3767 4.36561 2.49847 0
M  V30 134 H 8.0767 5.71339 1.37281 0
M  V30 135 H 9.6007 5.65487 2.3034 0
M  V30 136 H 11.0147 5.7329 0.033305 0
M  V30 137 H 9.4117 5.95699 -0.725486 0
M  V30 138 H 10.4817 4.66917 -1.30828 0
M  V30 139 N 11.8248 0.280983 1.55075 0
M  V30 140 C 12.7548 -0.597469 2.25727 0
M  V30 141 C 13.7358 -1.15417 1.24952 0
M  V30 142 O 14.9208 -1.18722 1.53684 0
M  V30 143 C 12.0508 -1.7789 2.98283 0
M  V30 144 C 11.0048 -1.35347 4.06036 0
M  V30 145 C 10.3308 -2.61846 4.66198 0
M  V30 146 C 11.6308 -0.499354 5.19907 0
M  V30 147 H 13.3248 -0.00824265 2.99399 0
M  V30 148 H 10.8708 -0.0025244 1.44 0
M  V30 149 H 12.8238 -2.39937 3.46422 0
M  V30 150 H 11.5478 -2.39405 2.22155 0
M  V30 151 H 10.2068 -0.756156 3.58717 0
M  V30 152 H 9.8548 -3.21632 3.86732 0
M  V30 153 H 9.5548 -2.3409 5.38958 0
M  V30 154 H 11.0788 -3.24732 5.1709 0
M  V30 155 H 12.4928 -1.02498 5.64063 0
M  V30 156 H 10.8898 -0.316424 5.99265 0
M  V30 157 H 11.9598 0.480459 4.82514 0
M  V30 158 N 13.3029 -1.57598 0.00835791 0
M  V30 159 C 14.7139 -1.7892 -0.53333 0
M  V30 160 C 15.0649 -0.916609 -1.73473 0
M  V30 161 O 14.1899 -0.121336 -2.1606 0
M  V30 162 C 14.7849 -3.24488 -0.974313 0
M  V30 163 C 13.3439 -3.46878 -1.46125 0
M  V30 164 C 12.4909 -2.74157 -0.416302 0
M  V30 165 H 15.4419 -1.56958 0.234495 0
M  V30 166 H 15.4629 -3.3306 -1.83988 0
M  V30 167 H 14.9749 -3.87972 -0.099718 0
M  V30 168 H 13.0759 -2.8862 -2.35646 0
M  V30 169 H 13.1889 -4.55572 -1.48295 0
M  V30 170 H 11.5529 -2.39022 -0.87981 0
M  V30 171 H 12.3359 -3.40345 0.44947 0
M  V30 172 N 14.781 0.264519 -1.55364 0
M  V30 173 C 15.711 1.33121 -1.91836 0
M  V30 174 C 16.692 1.51101 -0.781192 0
M  V30 175 O 17.877 1.64003 -1.04003 0
M  V30 176 C 15.007 2.68921 -2.19769 0
M  V30 177 C 13.961 2.65661 -3.35571 0
M  V30 178 C 13.287 4.05093 -3.49004 0
M  V30 179 C 14.587 2.24187 -4.71739 0
M  V30 180 H 16.281 1.02844 -2.81182 0
M  V30 181 H 13.827 0.493286 -1.35287 0
M  V30 182 H 15.78 3.43663 -2.43872 0
M  V30 183 H 14.504 3.00799 -1.27231 0
M  V30 184 H 13.163 1.93377 -3.1145 0
M  V30 185 H 12.811 4.34206 -2.53917 0
M  V30 186 H 12.511 4.03804 -4.26868 0
M  V30 187 H 14.035 4.81561 -3.75408 0
M  V30 188 H 15.449 2.88654 -4.9533 0
M  V30 189 H 13.846 2.34044 -5.52579 0
M  V30 190 H 14.916 1.19327 -4.69988 0
M  V30 191 N 16.2591 1.48442 0.529413 0
M  V30 192 C 17.1891 1.65902 1.64313 0
M  V30 193 C 18.1701 0.507897 1.6234 0
M  V30 194 O 19.3551 0.740503 1.79528 0
M  V30 195 C 16.4851 1.69911 3.02898 0
M  V30 196 C 15.4391 2.8453 3.19729 0
M  V30 197 C 14.7651 2.73629 4.59381 0
M  V30 198 C 16.0651 4.25821 3.02447 0
M  V30 199 H 17.7591 2.5914 1.49955 0
M  V30 200 H 15.3051 1.24709 0.719982 0
M  V30 201 H 17.2581 1.80715 3.80684 0
M  V30 202 H 15.9821 0.732524 3.18279 0
M  V30 203 H 14.6411 2.73283 2.44361 0
M  V30 204 H 14.2891 1.74938 4.71599 0
M  V30 205 H 13.9891 3.50541 4.71588 0
M  V30 206 H 15.5131 2.86401 5.39265 0
M  V30 207 H 16.9271 4.37898 3.70024 0
M  V30 208 H 15.3241 5.03735 3.26146 0
M  V30 209 H 16.3941 4.42244 1.98867 0
M  V30 210 N 17.7372 -0.778329 1.37039 0
M  V30 211 C 18.9852 -1.53361 1.31623 0
M  V30 212 C 19.3062 -1.94739 -0.100831 0
M  V30 213 O 18.5762 -1.65797 -1.04347 0
M  V30 214 H 17.1562 -0.568794 0.484234 0
M  V30 215 H 19.8182 -0.926742 1.71457 0
M  V30 216 H 18.9142 -2.43606 1.95096 0
M  V30 217 N 19.2153 -1.21501 -1.00376 0
M  V30 218 C 20.1783 -0.976927 -2.07337 0
M  V30 219 C 21.1783 0.0525322 -1.60714 0
M  V30 220 O 22.3683 -0.184869 -1.73216 0
M  V30 221 C 19.5003 -0.473423 -3.37597 0
M  V30 222 H 20.6933 -1.92587 -2.29892 0
M  V30 223 H 18.2463 -1.03217 -1.17371 0
M  V30 224 H 18.9813 0.480379 -3.20722 0
M  V30 225 H 18.7663 -1.216 -3.72768 0
M  V30 226 H 20.2563 -0.32675 -4.1632 0
M  V30 227 N 20.6934 1.19889 -1.02296 0
M  V30 228 C 21.6564 2.21116 -0.603351 0
M  V30 229 C 22.6564 1.5738 0.329884 0
M  V30 230 O 23.8464 1.73802 0.117702 0
M  V30 231 C 20.9784 3.40696 0.117992 0
M  V30 232 H 22.1714 2.59754 -1.49893 0
M  V30 233 H 19.7244 1.33463 -0.813468 0
M  V30 234 H 20.4594 3.07569 1.0282 0
M  V30 235 H 20.2444 3.88188 -0.552511 0
M  V30 236 H 21.7344 4.15692 0.398696 0
M  V30 237 N 22.1715 0.800033 1.35784 0
M  V30 238 C 23.1015 0.220184 2.3246 0
M  V30 239 C 24.0825 -0.65073 1.57161 0
M  V30 240 O 25.2675 -0.582359 1.85263 0
M  V30 241 C 22.3975 -0.637353 3.41402 0
M  V30 242 C 21.3515 0.134531 4.27789 0
M  V30 243 C 20.6775 -0.844285 5.27992 0
M  V30 244 C 21.9775 1.32979 5.05088 0
M  V30 245 H 23.6715 1.02787 2.81203 0
M  V30 246 H 21.2175 0.495717 1.35199 0
M  V30 247 H 23.1705 -1.05302 4.08031 0
M  V30 248 H 21.8945 -1.47785 2.91251 0
M  V30 249 H 20.5535 0.531296 3.6273 0
M  V30 250 H 20.2015 -1.68011 4.74111 0
M  V30 251 H 19.9015 -0.332184 5.8666 0
M  V30 252 H 21.4255 -1.2583 5.97494 0
M  V30 253 H 22.8395 0.98934 5.64699 0
M  V30 254 H 21.2365 1.77593 5.7322 0
M  V30 255 H 22.3065 2.11978 4.36111 0
M  V30 256 N 23.6496 -1.47581 0.552962 0
M  V30 257 C 24.5796 -2.32762 -0.185451 0
M  V30 258 C 25.5606 -1.43527 -0.912905 0
M  V30 259 O 26.7456 -1.72388 -0.894201 0
M  V30 260 C 23.8756 -3.25219 -1.21859 0
M  V30 261 C 22.8296 -4.23661 -0.607864 0
M  V30 262 C 22.1556 -5.05413 -1.74533 0
M  V30 263 C 23.4556 -5.20481 0.435582 0
M  V30 264 H 25.1496 -2.94749 0.525684 0
M  V30 265 H 22.6956 -1.41738 0.254251 0
M  V30 266 H 24.6486 -3.8365 -1.7433 0
M  V30 267 H 23.3726 -2.61279 -1.95961 0
M  V30 268 H 22.0316 -3.66451 -0.104489 0
M  V30 269 H 21.6796 -4.3788 -2.47529 0
M  V30 270 H 21.3796 -5.72059 -1.34249 0
M  V30 271 H 22.9036 -5.66701 -2.27338 0
M  V30 272 H 24.3176 -5.733 -0.00290157 0
M  V30 273 H 22.7146 -5.95305 0.757067 0
M  V30 274 H 23.7846 -4.66217 1.33303 0
M  V30 275 N 25.1277 -0.289203 -1.54924 0
M  V30 276 C 26.0577 0.58549 -2.2604 0
M  V30 277 C 27.0387 1.14753 -1.25562 0
M  V30 278 O 28.2237 1.17906 -1.54311 0
M  V30 279 C 25.3537 1.76305 -2.99222 0
M  V30 280 C 24.3077 1.33191 -4.06748 0
M  V30 281 C 23.6337 2.5937 -4.6758 0
M  V30 282 C 24.9337 0.471775 -5.20165 0
M  V30 283 H 26.6277 -0.00763532 -2.99399 0
M  V30 284 H 24.1737 -0.00511229 -1.43999 0
M  V30 285 H 26.1267 2.38097 -3.47689 0
M  V30 286 H 24.8507 2.38223 -2.23422 0
M  V30 287 H 23.5097 0.737121 -3.59113 0
M  V30 288 H 23.1577 3.19576 -3.88433 0
M  V30 289 H 22.8577 2.31228 -5.40192 0
M  V30 290 H 24.3817 3.21985 -5.18804 0
M  V30 291 H 25.7957 0.995056 -5.64599 0
M  V30 292 H 24.1927 0.284639 -5.99425 0
M  V30 293 H 25.2627 -0.506041 -4.82252 0
M  V30 294 N 26.6058 1.57591 -0.0167156 0
M  V30 295 C 27.5388 2.04944 1.00366 0
M  V30 296 C 28.5168 0.942648 1.32487 0
M  V30 297 O 29.7008 1.21205 1.44367 0
M  V30 298 C 26.8278 2.46109 2.32697 0
M  V30 299 C 25.8738 3.67686 2.16123 0
M  V30 300 S 26.7068 5.14882 1.47161 0
M  V30 301 C 27.8628 5.59332 2.80888 0
M  V30 302 H 28.0958 2.91172 0.600528 0
M  V30 303 H 25.6288 1.53168 0.194632 0
M  V30 304 H 27.5868 2.70493 3.08778 0
M  V30 305 H 26.2478 1.6025 2.70146 0
M  V30 306 H 25.4408 3.94296 3.13922 0
M  V30 307 H 25.0428 3.43391 1.48185 0
M  V30 308 H 27.3348 5.62814 3.77156 0
M  V30 309 H 28.2778 6.5905 2.58958 0
M  V30 310 H 28.6858 4.86942 2.85565 0
M  V30 311 N 28.0839 -0.256276 1.55502 0
M  V30 312 C 29.0139 -1.32102 1.92539 0
M  V30 313 C 29.9949 -1.50684 0.789194 0
M  V30 314 O 31.1799 -1.63449 1.04872 0
M  V30 315 C 28.3099 -2.67752 2.21192 0
M  V30 316 C 27.2639 -2.63878 3.36975 0
M  V30 317 C 26.5899 -4.03236 3.51147 0
M  V30 318 C 27.8899 -2.21682 4.72921 0
M  V30 319 H 29.5839 -1.01351 2.81724 0
M  V30 320 H 27.1299 -0.486105 1.35547 0
M  V30 321 H 29.0829 -3.42365 2.45691 0
M  V30 322 H 27.8069 -3.0012 1.28824 0
M  V30 323 H 26.4659 -1.91722 3.12471 0
M  V30 324 H 26.1139 -4.32854 2.56216 0
M  V30 325 H 25.8139 -4.01535 4.29003 0
M  V30 326 H 27.3379 -4.79563 3.77957 0
M  V30 327 H 28.7519 -2.86023 4.96854 0
M  V30 328 H 27.1489 -2.3111 5.53812 0
M  V30 329 H 28.2189 -1.16833 4.70615 0
M  V30 330 N 29.562 -1.4872 -0.521534 0
M  V30 331 C 30.973 -1.50607 -1.10337 0
M  V30 332 C 31.324 -0.280612 -1.94183 0
M  V30 333 O 30.449 0.611507 -2.0758 0
M  V30 334 C 31.044 -2.72903 -2.00772 0
M  V30 335 C 29.603 -2.77634 -2.54158 0
M  V30 336 C 28.75 -2.44241 -1.31307 0
M  V30 337 H 31.701 -1.55714 -0.306388 0
M  V30 338 H 31.722 -2.519 -2.85178 0
M  V30 339 H 31.234 -3.62077 -1.39721 0
M  V30 340 H 29.335 -1.92689 -3.18907 0
M  V30 341 H 29.448 -3.79283 -2.92714 0
M  V30 342 H 27.812 -1.95577 -1.63161 0
M  V30 343 H 28.595 -3.35666 -0.719943 0
M  V30 344 N 31.0401 0.771051 -1.3745 0
M  V30 345 C 31.9701 1.89827 -1.3597 0
M  V30 346 C 32.9511 1.68562 -0.228216 0
M  V30 347 O 34.1361 1.8941 -0.428675 0
M  V30 348 C 31.2661 3.2712 -1.16662 0
M  V30 349 C 30.2201 3.6295 -2.2683 0
M  V30 350 C 29.5461 4.98791 -1.92644 0
M  V30 351 C 30.8461 3.69627 -3.69017 0
M  V30 352 H 32.5401 1.91323 -2.30295 0
M  V30 353 H 30.0861 0.919082 -1.10855 0
M  V30 354 H 32.0391 4.05615 -1.14256 0
M  V30 355 H 30.7631 3.26059 -0.187926 0
M  V30 356 H 29.4221 2.86763 -2.28392 0
M  V30 357 H 29.0701 4.94271 -0.933021 0
M  V30 358 H 28.7701 5.23733 -2.66416 0
M  V30 359 H 30.2941 5.79685 -1.91826 0
M  V30 360 H 31.7081 4.38273 -3.69581 0
M  V30 361 H 30.1051 4.06067 -4.41848 0
M  V30 362 H 31.1751 2.70273 -4.02592 0
M  V30 363 N 32.5182 1.22032 0.997298 0
M  V30 364 C 33.4482 1.01065 2.10495 0
M  V30 365 C 34.4292 -0.0669542 1.69968 0
M  V30 366 O 35.6142 0.0943987 1.9397 0
M  V30 367 C 32.7442 0.582874 3.42374 0
M  V30 368 C 31.6982 1.60592 3.96729 0
M  V30 369 C 31.0242 1.03412 5.24605 0
M  V30 370 C 32.3242 2.99478 4.27914 0
M  V30 371 H 34.0182 1.93708 2.28292 0
M  V30 372 H 31.5642 0.932761 1.09707 0
M  V30 373 H 33.5172 0.423332 4.19268 0
M  V30 374 H 32.2412 -0.379213 3.24391 0
M  V30 375 H 30.9002 1.75316 3.21963 0
M  V30 376 H 30.5482 0.063518 5.0296 0
M  V30 377 H 30.2482 1.71754 5.61938 0
M  V30 378 H 31.7722 0.886066 6.04137 0
M  V30 379 H 33.1862 2.88153 4.95622 0
M  V30 380 H 31.5832 3.64903 4.76409 0
M  V30 381 H 32.6532 3.49742 3.3587 0
M  V30 382 N 33.9963 -1.19345 1.0293 0
M  V30 383 C 35.2443 -1.88665 0.724574 0
M  V30 384 C 35.5653 -1.80036 -0.749144 0
M  V30 385 O 34.8353 -1.2111 -1.53978 0
M  V30 386 H 33.4153 -0.698406 0.265025 0
M  V30 387 H 36.0773 -1.44885 1.30362 0
M  V30 388 H 35.1733 -2.94987 1.01926 0
M  V30 389 N 35.4744 -0.807222 -1.35358 0
M  V30 390 C 36.7024 -0.400377 -2.02989 0
M  V30 391 C 37.1174 0.988859 -1.60832 0
M  V30 392 O 36.4744 1.63729 -0.806175 0
M  V30 393 C 36.5254 -0.474867 -3.58368 0
M  V30 394 O 36.2464 -1.80933 -3.98992 0
M  V30 395 C 37.7474 -0.0609112 -4.43258 0
M  V30 396 H 34.9674 -0.162587 -0.651004 0
M  V30 397 H 37.5114 -1.09102 -1.72965 0
M  V30 398 H 35.6664 0.167534 -3.87038 0
M  V30 399 H 36.0804 -1.77256 -4.9364 0
M  V30 400 H 37.5544 -0.164145 -5.51756 0
M  V30 401 H 38.0314 0.993831 -4.27808 0
M  V30 402 H 38.6374 -0.676492 -4.19885 0
M  V30 403 N 36.9525 1.47285 -0.560781 0
M  V30 404 C 38.3685 1.58065 -0.22081 0
M  V30 405 C 38.5685 1.55892 1.27671 0
M  V30 406 O 37.6245 1.46422 2.0571 0
M  V30 407 C 38.9375 2.88418 -0.850625 0
M  V30 408 C 40.4855 3.02009 -0.822184 0
M  V30 409 C 40.9605 4.35066 -1.43113 0
M  V30 410 N 42.4515 4.41711 -1.39448 0
M  V30 411 C 43.1865 5.43237 -1.83525 0
M  V30 412 N 42.6825 6.51555 -2.35474 0
M  V30 413 N 44.4755 5.34304 -1.74574 0
M  V30 414 H 36.6265 1.46941 -1.53369 0
M  V30 415 H 38.8895 0.699558 -0.639783 0
M  V30 416 H 38.5955 2.95755 -1.9032 0
M  V30 417 H 38.4695 3.75612 -0.345773 0
M  V30 418 H 40.8565 2.94266 0.221714 0
M  V30 419 H 40.9375 2.16347 -1.36483 0
M  V30 420 H 40.5815 4.43565 -2.47412 0
M  V30 421 H 40.5115 5.19465 -0.863899 0
M  V30 422 H 43.0025 3.64027 -1.01452 0
M  V30 423 H 43.3155 7.25203 -2.67021 0
M  V30 424 H 41.6605 6.52435 -2.39487 0
M  V30 425 H 44.8515 4.48581 -1.33763 0
M  V30 426 H 45.0245 6.13288 -2.09242 0
M  V30 427 N 38.4306 0.297415 1.54768 0
M  V30 428 C 39.3936 -0.567375 2.22066 0
M  V30 429 C 40.3936 -1.06409 1.20556 0
M  V30 430 O 41.5836 -0.960691 1.45315 0
M  V30 431 C 38.7156 -1.78517 2.90421 0
M  V30 432 H 39.9086 0.0205534 2.99893 0
M  V30 433 H 37.4616 0.0482163 1.56226 0
M  V30 434 H 38.1966 -2.41303 2.16664 0
M  V30 435 H 37.9816 -1.43669 3.64831 0
M  V30 436 H 39.4716 -2.39964 3.41771 0
M  V30 437 N 39.9087 -1.5758 0.0250728 0
M  V30 438 C 40.8407 -2.06869 -0.986796 0
M  V30 439 C 41.8537 -0.991332 -1.29137 0
M  V30 440 O 43.0427 -1.26761 -1.25674 0
M  V30 441 C 40.1427 -2.47486 -2.31525 0
M  V30 442 C 39.3157 -3.78253 -2.19643 0
M  V30 443 C 38.3747 -4.05464 -3.35388 0
M  V30 444 O 37.4007 -4.75774 -3.12454 0
M  V30 445 N 38.6027 -3.55321 -4.59051 0
M  V30 446 H 41.3677 -2.94302 -0.566276 0
M  V30 447 H 38.9287 -1.6109 -0.161776 0
M  V30 448 H 40.9207 -2.62785 -3.07776 0
M  V30 449 H 39.4907 -1.65441 -2.65232 0
M  V30 450 H 38.7107 -3.7279 -1.28144 0
M  V30 451 H 39.9987 -4.63936 -2.08903 0
M  V30 452 H 39.3967 -2.98431 -4.80578 0
M  V30 453 H 37.9537 -3.75905 -5.32483 0
M  V30 454 N 41.3868 0.248026 -1.55636 0
M  V30 455 C 42.2968 1.32859 -1.93354 0
M  V30 456 C 43.3128 1.52719 -0.833838 0
M  V30 457 O 44.4888 1.66363 -1.13513 0
M  V30 458 C 41.5538 2.66337 -2.21958 0
M  V30 459 C 40.6148 2.55008 -3.45354 0
M  V30 460 C 39.8478 3.82121 -3.72584 0
M  V30 461 O 40.0708 4.83951 -3.01907 0
M  V30 462 O 39.0048 3.80822 -4.6611 0
M  V30 463 H 42.8308 1.03862 -2.85388 0
M  V30 464 H 40.4158 0.448686 -1.42503 0
M  V30 465 H 42.2978 3.45216 -2.4167 0
M  V30 466 H 40.9728 2.95068 -1.33103 0
M  V30 467 H 39.8798 1.7442 -3.30951 0
M  V30 468 H 41.2128 2.31222 -4.34508 0
M  V30 469 N 42.8649 1.48995 0.513639 0
M  V30 470 C 44.1419 1.48338 1.27495 0
M  V30 471 C 44.5219 0.204065 2.10111 0
M  V30 472 O 43.8699 -0.813881 2.13514 0
M  V30 473 C 44.0799 2.75498 2.14247 0
M  V30 474 C 45.4279 3.24484 2.73852 0
M  V30 475 O 46.4519 2.76528 2.24523 0
M  V30 476 O 45.3109 4.07974 3.6362 0
M  V30 477 H 42.4049 0.593149 0.576284 0
M  V30 478 H 44.9509 1.61246 0.528948 0
M  V30 479 H 43.7229 3.60109 1.53092 0
M  V30 480 H 43.3459 2.6539 2.96064 0
M  V30 481 N 44.343 -0.763751 1.37857 0
M  V30 482 C 45.306 -1.85889 1.34081 0
M  V30 483 C 46.306 -1.58949 0.243277 0
M  V30 484 O 47.496 -1.66882 0.499589 0
M  V30 485 C 44.628 -3.23176 1.08489 0
M  V30 486 H 45.821 -1.90648 2.31502 0
M  V30 487 H 43.374 -0.964367 1.23003 0
M  V30 488 H 44.109 -3.24091 0.116318 0
M  V30 489 H 43.894 -3.44124 1.8794 0
M  V30 490 H 45.384 -4.03254 1.08517 0
M  V30 491 N 45.8211 -1.22559 -0.990812 0
M  V30 492 C 46.7311 -1.01394 -2.11557 0
M  V30 493 C 47.7471 0.0383962 -1.73958 0
M  V30 494 O 48.9231 -0.154787 -2.00804 0
M  V30 495 C 45.9881 -0.596569 -3.41529 0
M  V30 496 C 45.0491 -1.72276 -3.93217 0
M  V30 497 C 44.2821 -1.32521 -5.16985 0
M  V30 498 O 44.5051 -0.204909 -5.70032 0
M  V30 499 O 43.4391 -2.14247 -5.62478 0
M  V30 500 H 47.2651 -1.95633 -2.32296 0
M  V30 501 H 44.8501 -1.01172 -1.0993 0
M  V30 502 H 46.7321 -0.374263 -4.19735 0
M  V30 503 H 45.4071 0.316939 -3.22145 0
M  V30 504 H 44.3141 -1.99961 -3.16174 0
M  V30 505 H 45.6471 -2.61421 -4.17037 0
M  V30 506 N 47.2992 1.18797 -1.03562 0
M  V30 507 C 48.2292 2.24472 -0.643019 0
M  V30 508 C 49.2102 1.66433 0.351283 0
M  V30 509 O 50.3952 1.92803 0.232505 0
M  V30 510 C 47.5252 3.473 4.24935e-05 0
M  V30 511 C 46.4792 4.18055 -0.917257 0
M  V30 512 C 45.8052 5.34519 -0.138941 0
M  V30 513 C 47.1052 4.72109 -2.23407 0
M  V30 514 H 48.7992 2.57566 -1.52643 0
M  V30 515 H 46.3452 1.23806 -0.735394 0
M  V30 516 H 48.2982 4.20426 0.286383 0
M  V30 517 H 47.0222 3.13424 0.918299 0
M  V30 518 H 45.6812 3.46821 -1.1879 0
M  V30 519 H 45.3292 4.96891 0.781562 0
M  V30 520 H 45.0292 5.82794 -0.750005 0
M  V30 521 H 46.5532 6.10438 0.1405 0
M  V30 522 H 47.9672 5.36955 -2.00879 0
M  V30 523 H 46.3642 5.30897 -2.79765 0
M  V30 524 H 47.4342 3.89807 -2.88407 0
M  V30 525 N 48.7773 0.814389 1.34928 0
M  V30 526 C 49.7093 0.187834 2.28429 0
M  V30 527 C 50.7223 -0.617374 1.5064 0
M  V30 528 O 51.9113 -0.448454 1.72775 0
M  V30 529 C 49.0113 -0.755962 3.30361 0
M  V30 530 C 48.1843 0.00456686 4.374 0
M  V30 531 C 47.2433 -0.858876 5.19143 0
M  V30 532 O 46.2693 -0.306968 5.68372 0
M  V30 533 N 47.4713 -2.17988 5.38016 0
M  V30 534 H 50.2363 0.991105 2.82838 0
M  V30 535 H 47.7973 0.670561 1.4736 0
M  V30 536 H 49.7893 -1.338 3.81942 0
M  V30 537 H 48.3593 -1.46001 2.7641 0
M  V30 538 H 47.5793 0.767865 3.86649 0
M  V30 539 H 48.8673 0.528422 5.06049 0
M  V30 540 H 48.2653 -2.65212 4.99679 0
M  V30 541 H 46.8223 -2.71098 5.92747 0
M  V30 542 N 50.2554 -1.46986 0.568584 0
M  V30 543 C 51.6664 -1.86188 0.138219 0
M  V30 544 C 52.0174 -1.47388 -1.29504 0
M  V30 545 O 51.1424 -0.88219 -1.97602 0
M  V30 546 C 51.7374 -3.3792 0.244065 0
M  V30 547 C 50.2964 -3.76171 -0.131335 0
M  V30 548 C 49.4434 -2.71027 0.586465 0
M  V30 549 H 52.3944 -1.38342 0.777645 0
M  V30 550 H 52.4154 -3.76729 -0.534351 0
M  V30 551 H 51.9274 -3.66128 1.28731 0
M  V30 552 H 50.0284 -3.5358 -1.17526 0
M  V30 553 H 50.1414 -4.78523 0.235146 0
M  V30 554 H 48.5054 -2.54684 0.0282722 0
M  V30 555 H 49.2884 -3.02077 1.63109 0
M  V30 556 N 51.7335 -0.305618 -1.54608 0
M  V30 557 C 53.1495 0.0476228 -1.59529 0
M  V30 558 C 53.3495 1.52025 -1.32252 0
M  V30 559 O 52.4055 2.27368 -1.09818 0
M  V30 560 C 53.7185 -0.354471 -2.98603 0
M  V30 561 C 55.2665 -0.303622 -3.11524 0
M  V30 562 C 55.7415 -0.680608 -4.52915 0
M  V30 563 N 57.2325 -0.63332 -4.5885 0
M  V30 564 C 57.9675 -0.897432 -5.66334 0
M  V30 565 N 57.4635 -1.22775 -6.81834 0
M  V30 566 N 59.2565 -0.824186 -5.56025 0
M  V30 567 H 51.4075 -1.2653 -1.70599 0
M  V30 568 H 53.6705 -0.513291 -0.797017 0
M  V30 569 H 53.3765 -1.3798 -3.23503 0
M  V30 570 H 53.2505 0.289568 -3.76087 0
M  V30 571 H 55.6375 0.712472 -2.8637 0
M  V30 572 H 55.7185 -0.982348 -2.36185 0
M  V30 573 H 55.3625 -1.69453 -4.78799 0
M  V30 574 H 55.2925 0.0202385 -5.26596 0
M  V30 575 H 57.7835 -0.389138 -3.75891 0
M  V30 576 H 58.0965 -1.41513 -7.59733 0
M  V30 577 H 56.4415 -1.26583 -6.83375 0
M  V30 578 H 59.6325 -0.565748 -4.64669 0
M  V30 579 H 59.8055 -1.03338 -6.39707 0
M  V30 580 N 53.2116 1.57565 -0.0334293 0
M  V30 581 C 54.1746 2.09393 0.932048 0
M  V30 582 C 55.1746 1.00986 1.25134 0
M  V30 583 O 56.3646 1.27129 1.19096 0
M  V30 584 C 53.4966 2.56338 2.2473 0
M  V30 585 H 54.6896 2.95984 0.483085 0
M  V30 586 H 52.2426 1.54819 0.21468 0
M  V30 587 H 52.9776 1.7309 2.74245 0
M  V30 588 H 52.7626 3.35542 2.02865 0
M  V30 589 H 54.2526 2.96646 2.93923 0
M  V30 590 N 54.6897 -0.239769 1.55765 0
M  V30 591 C 55.6197 -1.30052 1.9393 0
M  V30 592 C 56.6007 -1.49839 0.805132 0
M  V30 593 O 57.7857 -1.62328 1.06599 0
M  V30 594 C 54.9157 -2.65391 2.2402 0
M  V30 595 C 53.8697 -2.60289 3.39755 0
M  V30 596 C 53.1957 -3.99489 3.55405 0
M  V30 597 C 54.4957 -2.16654 4.75246 0
M  V30 598 H 56.1897 -0.983573 2.82783 0
M  V30 599 H 53.7357 -0.471701 1.36055 0
M  V30 600 H 55.6887 -3.3974 2.49308 0
M  V30 601 H 54.4127 -2.98736 1.32 0
M  V30 602 H 53.0717 -1.88398 3.14487 0
M  V30 603 H 52.7197 -4.30112 2.60793 0
M  V30 604 H 52.4197 -3.96962 4.33238 0
M  V30 605 H 53.9437 -4.75528 3.83022 0
M  V30 606 H 55.3577 -2.80737 4.99859 0
M  V30 607 H 53.7547 -2.25223 5.56232 0
M  V30 608 H 54.8247 -1.11835 4.71827 0
M  V30 609 N 56.1678 -1.49265 -0.50573 0
M  V30 610 C 57.4448 -1.49012 -1.26707 0
M  V30 611 C 57.8248 -0.215205 -2.1 0
M  V30 612 O 57.1728 0.802547 -2.13943 0
M  V30 613 C 57.3828 -2.7663 -2.12783 0
M  V30 614 C 58.7308 -3.25932 -2.72127 0
M  V30 615 O 59.7548 -2.77715 -2.23054 0
M  V30 616 O 58.6138 -4.09897 -3.61451 0
M  V30 617 H 55.7078 -0.596197 -0.57313 0
M  V30 618 H 58.2538 -1.61524 -0.52039 0
M  V30 619 H 57.0258 -3.60916 -1.5118 0
M  V30 620 H 56.6488 -2.66956 -2.94653 0
M  V30 621 N 57.6459 0.756429 -1.3826 0
M  V30 622 C 58.8949 1.51082 -1.3363 0
M  V30 623 C 59.2079 1.95467 0.0720068 0
M  V30 624 O 60.4139 2.7043 0.240834 0
M  V30 625 C 58.8699 2.72893 -2.34644 0
M  V30 626 C 58.4779 2.35544 -3.81081 0
M  V30 627 C 60.2219 3.50791 -2.39052 0
M  V30 628 C 58.1289 3.53948 -4.73787 0
M  V30 629 H 57.0589 0.56727 -0.49671 0
M  V30 630 H 59.7099 0.827147 -1.638 0
M  V30 631 H 58.0919 3.43227 -1.97513 0
M  V30 632 H 59.2659 1.72894 -4.27135 0
M  V30 633 H 57.5809 1.70786 -3.79764 0
M  V30 634 H 60.1779 4.38823 -3.05513 0
M  V30 635 H 60.5209 3.91745 -1.40861 0
M  V30 636 H 61.0539 2.87467 -2.74968 0
M  V30 637 H 57.7929 3.18064 -5.73163 0
M  V30 638 H 57.3129 4.15651 -4.32428 0
M  V30 639 H 58.9919 4.20566 -4.91663 0
M  V30 640 N 59.124 1.23083 0.984299 0
M  V30 641 C 60.354 1.08556 1.75781 0
M  V30 642 C 60.762 -0.366171 1.85623 0
M  V30 643 O 60.105 -1.26524 1.33182 0
M  V30 644 C 60.167 1.63208 3.20318 0
M  V30 645 C 59.831 3.11922 3.33997 0
M  V30 646 C 60.828 4.09259 3.2063 0
M  V30 647 C 58.513 3.51552 3.58771 0
M  V30 648 C 60.507 5.4421 3.31835 0
M  V30 649 C 58.194 4.86649 3.69616 0
M  V30 650 C 59.192 5.82787 3.56157 0
M  V30 651 O 58.88 7.15431 3.66626 0
M  V30 652 H 58.612 0.380713 0.5586 0
M  V30 653 H 61.166 1.63321 1.2456 0
M  V30 654 H 59.396 1.0286 3.72769 0
M  V30 655 H 61.085 1.44216 3.79416 0
M  V30 656 H 61.851 3.79984 3.01392 0
M  V30 657 H 57.73 2.77239 3.6832 0
M  V30 658 H 61.274 6.1923 3.21247 0
M  V30 659 H 57.171 5.15601 3.88363 0
M  V30 660 H 57.939 7.23127 3.83445 0
M  V30 661 N 60.6021 -1.18246 1.0419 0
M  V30 662 C 61.8271 -1.92736 0.765996 0
M  V30 663 C 62.2521 -1.75728 -0.67091 0
M  V30 664 O 61.6101 -1.06825 -1.46486 0
M  V30 665 C 61.6581 -3.42148 1.13875 0
M  V30 666 O 60.7621 -4.11548 0.264954 0
M  V30 667 H 60.1031 -0.601238 0.281797 0
M  V30 668 H 62.6331 -1.49942 1.39207 0
M  V30 669 H 62.6431 -3.92858 1.1012 0
M  V30 670 H 61.3181 -3.53848 2.18551 0
M  V30 671 H 59.8951 -3.71137 0.362226 0
M  V30 672 N 62.0802 -0.821533 -1.34494 0
M  V30 673 C 63.0432 -0.247847 -2.27856 0
M  V30 674 C 64.0432 0.573453 -1.50227 0
M  V30 675 O 65.2332 0.389759 -1.69784 0
M  V30 676 C 62.3652 0.652698 -3.34593 0
M  V30 677 H 63.5582 -1.07146 -2.80107 0
M  V30 678 H 61.1112 -0.593291 -1.44602 0
M  V30 679 H 61.8462 1.49943 -2.87555 0
M  V30 680 H 61.6312 0.065292 -3.92046 0
M  V30 681 H 63.1212 1.04793 -4.04238 0
M  V30 682 N 63.5583 1.46682 -0.576371 0
M  V30 683 C 64.8043 2.02712 -0.0596221 0
M  V30 684 C 65.1373 1.44765 1.29448 0
M  V30 685 O 64.4123 0.610355 1.84675 0
M  V30 686 C 64.6953 3.60098 0.0129503 0
M  V30 687 C 64.5483 4.28441 -1.3696 0
M  V30 688 C 65.8673 4.34224 0.71678 0
M  V30 689 H 62.9863 0.736637 -0.0231407 0
M  V30 690 H 65.6283 1.74898 -0.742351 0
M  V30 691 H 63.7783 3.83926 0.594378 0
M  V30 692 H 65.4503 4.15896 -1.9957 0
M  V30 693 H 63.6933 3.8805 -1.93907 0
M  V30 694 H 64.3643 5.3716 -1.27135 0
M  V30 695 H 66.8403 4.15503 0.222908 0
M  V30 696 H 65.7163 5.43936 0.73657 0
M  V30 697 H 65.9773 4.04823 1.77682 0
M  V30 698 N 65.0364 0.313813 1.54444 0
M  V30 699 C 66.3134 -0.345447 1.92525 0
M  V30 700 C 66.6934 -1.70667 1.24242 0
M  V30 701 O 66.0414 -2.25273 0.382654 0
M  V30 702 C 66.2514 -0.44737 3.46121 0
M  V30 703 C 67.5994 -0.712238 4.18584 0
M  V30 704 O 68.6234 -0.530678 3.52225 0
M  V30 705 O 67.4824 -1.06183 5.36085 0
M  V30 706 H 64.5764 -0.195407 0.803583 0
M  V30 707 H 67.1224 0.362813 1.65776 0
M  V30 708 H 65.8944 0.509043 3.87975 0
M  V30 709 H 65.5174 -1.20359 3.78945 0
M  V30 710 N 66.5145 -1.57545 0.0417849 0
M  V30 711 C 67.7915 -1.83642 -0.673433 0
M  V30 712 C 68.1715 -0.928298 -1.89594 0
M  V30 713 O 67.5195 0.0129955 -2.28496 0
M  V30 714 C 67.7295 -3.33155 -1.03964 0
M  V30 715 C 69.0775 -3.99941 -1.42592 0
M  V30 716 O 70.1015 -3.37725 -1.13226 0
M  V30 717 O 68.9605 -5.09619 -1.9736 0
M  V30 718 H 66.0545 -0.757638 -0.331533 0
M  V30 719 H 68.6005 -1.69554 0.070433 0
M  V30 720 H 67.3725 -3.9093 -0.170098 0
M  V30 721 H 66.9955 -3.52396 -1.84126 0
M  V30 722 N 67.9926 0.231505 -1.5589 0
M  V30 723 C 68.9556 1.27028 -1.90779 0
M  V30 724 C 69.9556 1.40308 -0.785507 0
M  V30 725 O 71.1456 1.38744 -1.05336 0
M  V30 726 C 68.2776 2.64566 -2.14983 0
M  V30 727 H 69.4706 0.973017 -2.83677 0
M  V30 728 H 67.0236 0.471486 -1.49019 0
M  V30 729 H 67.7586 2.99406 -1.24604 0
M  V30 730 H 67.5436 2.56305 -2.96732 0
M  V30 731 H 69.0336 3.39543 -2.43105 0
M  V30 732 N 69.4707 1.49531 0.497807 0
M  V30 733 C 70.6957 1.63159 1.28039 0
M  V30 734 C 71.1207 0.30418 1.85624 0
M  V30 735 O 70.4787 -0.728618 1.66015 0
M  V30 736 C 70.5267 2.70537 2.38416 0
M  V30 737 O 69.6307 2.29931 3.42353 0
M  V30 738 H 68.9717 0.546001 0.377861 0
M  V30 739 H 71.5017 1.9574 0.59558 0
M  V30 740 H 71.5117 2.92802 2.84132 0
M  V30 741 H 70.1867 3.6689 1.95869 0
M  V30 742 H 68.7637 2.18009 3.02533 0
M  V30 743 N 70.9488 -0.749086 1.3866 0
M  V30 744 C 71.8988 -1.85368 1.32751 0
M  V30 745 C 72.8828 -1.59511 0.210945 0
M  V30 746 O 74.0748 -1.71255 0.447299 0
M  V30 747 C 71.2038 -3.23131 1.15935 0
M  V30 748 C 70.2898 -3.54864 2.32233 0
M  V30 749 N 70.6808 -3.57625 3.57684 0
M  V30 750 C 68.9788 -3.85154 2.24883 0
M  V30 751 C 69.6798 -3.86753 4.34508 0
M  V30 752 N 68.6558 -4.03812 3.63918 0
M  V30 753 H 72.4578 -1.85787 2.27729 0
M  V30 754 H 69.9718 -0.946658 1.31955 0
M  V30 755 H 71.9688 -4.02185 1.09786 0
M  V30 756 H 70.6288 -3.23961 0.218947 0
M  V30 757 H 71.6398 -3.39276 3.91295 0
M  V30 758 H 68.3168 -3.93672 1.39027 0
M  V30 759 H 69.7068 -3.95474 5.43185 0
M  V30 760 N 72.4269 -1.23603 -0.977757 0
M  V30 761 C 73.3369 -1.03632 -2.1047 0
M  V30 762 C 74.3529 0.0199435 -1.73989 0
M  V30 763 O 75.5289 -0.176076 -2.00629 0
M  V30 764 C 72.5939 -0.63276 -3.40877 0
M  V30 765 C 71.6549 -1.76437 -3.91367 0
M  V30 766 C 70.8879 -1.37997 -5.15551 0
M  V30 767 O 71.1109 -0.265357 -5.69782 0
M  V30 768 O 70.0449 -2.20201 -5.60174 0
M  V30 769 H 73.8709 -1.98086 -2.30208 0
M  V30 770 H 71.4559 -1.02332 -1.08851 0
M  V30 771 H 73.3379 -0.418761 -4.19314 0
M  V30 772 H 72.0129 0.282754 -3.22463 0
M  V30 773 H 70.9199 -2.03304 -3.14036 0
M  V30 774 H 72.2529 -2.6583 -4.14241 0
M  V30 775 N 73.905 1.17692 -1.04816 0
M  V30 776 C 74.852 2.21581 -0.645797 0
M  V30 777 C 75.822 1.62367 0.350159 0
M  V30 778 O 77.007 1.89254 0.242433 0
M  V30 779 C 74.147 3.45092 -0.0227568 0
M  V30 780 C 73.26 4.18613 -1.06709 0
M  V30 781 C 72.395 5.29602 -0.411767 0
M  V30 782 C 71.434 5.94904 -1.44067 0
M  V30 783 N 70.571 6.97414 -0.809781 0
M  V30 784 H 75.411 2.55353 -1.5362 0
M  V30 785 H 72.948 1.25438 -0.768364 0
M  V30 786 H 74.906 4.15679 0.35588 0
M  V30 787 H 73.536 3.11917 0.831122 0
M  V30 788 H 72.588 3.46779 -1.5636 0
M  V30 789 H 73.9 4.63293 -1.84827 0
M  V30 790 H 73.054 6.06696 0.0206623 0
M  V30 791 H 71.793 4.86045 0.401438 0
M  V30 792 H 70.798 5.16544 -1.88316 0
M  V30 793 H 72.023 6.40542 -2.25571 0
M  V30 794 H 69.969 6.55998 -0.0170186 0
M  V30 795 H 69.886 7.40386 -1.52856 0
M  V30 796 H 71.154 7.78463 -0.401999 0
M  V30 797 N 75.3831 0.828654 1.34056 0
M  V30 798 C 76.2931 0.256725 2.33191 0
M  V30 799 C 77.3091 -0.611898 1.62886 0
M  V30 800 O 78.4851 -0.51844 1.94613 0
M  V30 801 C 75.5501 -0.567238 3.42028 0
M  V30 802 C 74.6111 0.324458 4.28072 0
M  V30 803 C 73.8441 -0.460274 5.31712 0
M  V30 804 O 74.0671 -1.693 5.44696 0
M  V30 805 O 73.0011 0.160391 6.01686 0
M  V30 806 H 76.8271 1.07739 2.83947 0
M  V30 807 H 74.4121 0.59093 1.37217 0
M  V30 808 H 76.2941 -1.03582 4.08471 0
M  V30 809 H 74.9691 -1.36513 2.93506 0
M  V30 810 H 73.8761 0.840659 3.64532 0
M  V30 811 H 75.2091 1.08685 4.8005 0
M  V30 812 N 76.8612 -1.46375 0.584142 0
M  V30 813 C 77.7912 -2.33103 -0.136037 0
M  V30 814 C 78.7722 -1.45431 -0.882255 0
M  V30 815 O 79.9572 -1.74246 -0.857434 0
M  V30 816 C 77.0872 -3.27731 -1.14933 0
M  V30 817 C 76.0412 -4.24855 -0.517862 0
M  V30 818 C 75.3672 -5.09001 -1.63773 0
M  V30 819 C 76.6672 -5.19439 0.545886 0
M  V30 820 H 78.3612 -2.93568 0.588086 0
M  V30 821 H 75.9072 -1.41166 0.284259 0
M  V30 822 H 77.8602 -3.87261 -1.66153 0
M  V30 823 H 76.5842 -2.65377 -1.90375 0
M  V30 824 H 75.2432 -3.6659 -0.0267361 0
M  V30 825 H 74.8912 -4.43031 -2.38185 0
M  V30 826 H 74.5912 -5.74777 -1.22085 0
M  V30 827 H 76.1152 -5.71396 -2.15266 0
M  V30 828 H 77.5292 -5.73177 0.118704 0
M  V30 829 H 75.9262 -5.93566 0.88317 0
M  V30 830 H 76.9962 -4.63285 1.43162 0
M  V30 831 N 78.3393 -0.321999 -1.54275 0
M  V30 832 C 79.5883 0.281931 -1.9972 0
M  V30 833 C 79.9013 1.53369 -1.21397 0
M  V30 834 O 81.1073 2.21352 -1.57211 0
M  V30 835 C 79.5633 0.5529 -3.55628 0
M  V30 836 C 79.1713 -0.681721 -4.42783 0
M  V30 837 C 80.9153 1.11687 -4.09544 0
M  V30 838 C 78.8223 -0.382742 -5.9016 0
M  V30 839 H 77.7523 0.109124 -0.746062 0
M  V30 840 H 80.4033 -0.43398 -1.78294 0
M  V30 841 H 78.7853 1.32896 -3.73035 0
M  V30 842 H 79.9593 -1.45723 -4.37151 0
M  V30 843 H 78.2743 -1.1658 -3.99748 0
M  V30 844 H 80.8713 1.35515 -5.17242 0
M  V30 845 H 81.2143 2.06575 -3.61431 0
M  V30 846 H 81.7473 0.402032 -3.95763 0
M  V30 847 H 78.4863 -1.30076 -6.42464 0
M  V30 848 H 78.0063 0.355094 -5.98748 0
M  V30 849 H 79.6853 0.00800157 -6.47 0
M  V30 850 N 79.8174 1.5752 -0.0501392 0
M  V30 851 C 80.7274 2.14952 0.939827 0
M  V30 852 C 81.7434 1.10706 1.34239 0
M  V30 853 O 82.9194 1.42869 1.41952 0
M  V30 854 C 79.9844 2.68232 2.19665 0
M  V30 855 C 79.0454 3.87272 1.85253 0
M  V30 856 C 78.2784 4.38002 3.04943 0
M  V30 857 O 78.5014 3.87811 4.18281 0
M  V30 858 O 77.4354 5.29602 2.86017 0
M  V30 859 H 81.2614 2.9986 0.481392 0
M  V30 860 H 78.8464 1.4841 0.171699 0
M  V30 861 H 80.7284 3.02475 2.93406 0
M  V30 862 H 79.4034 1.86395 2.64648 0
M  V30 863 H 78.3104 3.5792 1.0883 0
M  V30 864 H 79.6434 4.70336 1.4507 0
M  V30 865 N 81.2955 -0.223234 1.56011 0
M  V30 866 C 82.2585 -1.26014 1.9145 0
M  V30 867 C 83.2585 -1.3989 0.792937 0
M  V30 868 O 84.4485 -1.38184 1.0607 0
M  V30 869 C 81.5805 -2.63422 2.16383 0
M  V30 870 H 82.7735 -0.95796 2.84189 0
M  V30 871 H 80.3265 -0.463576 1.49267 0
M  V30 872 H 81.0615 -2.98741 1.2619 0
M  V30 873 H 80.8465 -2.54728 2.98088 0
M  V30 874 H 82.3365 -3.38249 2.44903 0
M  V30 875 N 82.7736 -1.49793 -0.48987 0
M  V30 876 C 83.7036 -1.70201 -1.59856 0
M  V30 877 C 84.6846 -0.55076 -1.60937 0
M  V30 878 O 85.8696 -0.787841 -1.77501 0
M  V30 879 C 82.9996 -1.77882 -2.98287 0
M  V30 880 C 81.9536 -2.92907 -3.12073 0
M  V30 881 C 81.2796 -2.85712 -4.51965 0
M  V30 882 C 82.5796 -4.3369 -2.91051 0
M  V30 883 H 84.2736 -2.63025 -1.43032 0
M  V30 884 H 81.8196 -1.26574 -0.686664 0
M  V30 885 H 83.7726 -1.90744 -3.75759 0
M  V30 886 H 82.4966 -0.816653 -3.16225 0
M  V30 887 H 81.1556 -2.79665 -2.37029 0
M  V30 888 H 80.8036 -1.8738 -4.66795 0
M  V30 889 H 80.5036 -3.62921 -4.62128 0
M  V30 890 H 82.0276 -3.00598 -5.31482 0
M  V30 891 H 83.4416 -4.47555 -3.58284 0
M  V30 892 H 81.8386 -5.12205 -3.12675 0
M  V30 893 H 82.9086 -4.47362 -1.87071 0
M  V30 894 N 84.2517 0.741722 -1.39055 0
M  V30 895 C 85.1837 1.8657 -1.33133 0
M  V30 896 C 86.1967 1.61001 -0.241329 0
M  V30 897 O 87.3857 1.7136 -0.499784 0
M  V30 898 C 84.4857 3.22457 -1.04283 0
M  V30 899 C 83.6587 3.75435 -2.24427 0
M  V30 900 C 82.7177 4.89867 -1.92138 0
M  V30 901 O 81.7437 5.03879 -2.64754 0
M  V30 902 N 82.9457 5.73738 -0.88347 0
M  V30 903 H 85.7107 1.92156 -2.29991 0
M  V30 904 H 83.2717 0.922172 -1.3307 0
M  V30 905 H 85.2637 3.9657 -0.807128 0
M  V30 906 H 83.8337 3.12181 -0.161807 0
M  V30 907 H 83.0537 2.92751 -2.6399 0
M  V30 908 H 84.3417 4.07563 -3.04581 0
M  V30 909 H 83.7397 5.64999 -0.281517 0
M  V30 910 H 82.2967 6.47947 -0.707662 0
M  V30 911 N 85.7298 1.2412 0.971189 0
M  V30 912 C 86.6398 1.04747 2.09917 0
M  V30 913 C 87.6558 -0.0107162 1.73997 0
M  V30 914 O 88.8318 0.186714 2.00533 0
M  V30 915 C 85.8968 0.650828 3.40537 0
M  V30 916 C 84.9578 1.7851 3.90426 0
M  V30 917 C 84.1908 1.40729 5.14812 0
M  V30 918 O 84.4138 0.29557 5.69634 0
M  V30 919 O 83.3478 2.23168 5.58999 0
M  V30 920 H 87.1738 1.99304 2.29154 0
M  V30 921 H 84.7588 1.02908 1.08307 0
M  V30 922 H 86.6408 0.440992 4.19086 0
M  V30 923 H 85.3158 -0.265649 3.22608 0
M  V30 924 H 84.2228 2.04966 3.12953 0
M  V30 925 H 85.5558 2.68023 4.12825 0
M  V30 926 N 87.2079 -1.17134 1.05439 0
M  V30 927 C 88.4539 -1.87733 0.767077 0
M  V30 928 C 88.7869 -1.8098 -0.704253 0
M  V30 929 O 88.0619 -1.21951 -1.5152 0
M  V30 930 C 88.3449 -3.37659 1.25133 0
M  V30 931 C 88.1979 -3.53149 2.78578 0
M  V30 932 C 89.5169 -4.31768 0.852324 0
M  V30 933 H 86.6359 -0.681687 0.280129 0
M  V30 934 H 89.2779 -1.37732 1.30881 0
M  V30 935 H 87.4279 -3.80373 0.790469 0
M  V30 936 H 89.0999 -3.19434 3.32806 0
M  V30 937 H 87.3429 -2.95345 3.17732 0
M  V30 938 H 88.0139 -4.58403 3.07523 0
M  V30 939 H 90.4899 -3.96909 1.24911 0
M  V30 940 H 89.3659 -5.35199 1.21873 0
M  V30 941 H 89.6269 -4.41429 -0.243485 0
M  V30 942 N 88.686 -0.835752 -1.33615 0
M  V30 943 C 89.616 -0.281739 -2.31794 0
M  V30 944 C 90.597 0.608833 -1.58831 0
M  V30 945 O 91.782 0.533035 -1.86741 0
M  V30 946 C 88.912 0.546612 -3.42971 0
M  V30 947 C 87.866 -0.247904 -4.27281 0
M  V30 948 C 87.192 0.704001 -5.30045 0
M  V30 949 C 88.492 -1.46324 -5.01385 0
M  V30 950 H 90.186 -1.10206 -2.78379 0
M  V30 951 H 87.732 -0.531388 -1.33837 0
M  V30 952 H 89.685 0.944467 -4.1068 0
M  V30 953 H 88.409 1.40011 -2.95067 0
M  V30 954 H 87.068 -0.627281 -3.61194 0
M  V30 955 H 86.716 1.55381 -4.78399 0
M  V30 956 H 86.416 0.176524 -5.87335 0
M  V30 957 H 87.94 1.09944 -6.0062 0
M  V30 958 H 89.354 -1.13871 -5.61877 0
M  V30 959 H 87.751 -1.92728 -5.6831 0
M  V30 960 H 88.821 -2.23467 -4.30338 0
M  V30 961 N 90.1641 1.46063 -0.591896 0
M  V30 962 C 91.1111 2.30399 0.136069 0
M  V30 963 C 92.0811 1.41169 0.875238 0
M  V30 964 O 93.2661 1.70112 0.86409 0
M  V30 965 C 90.4061 3.25804 1.13781 0
M  V30 966 C 89.5191 4.30134 0.401137 0
M  V30 967 C 88.6541 5.12659 1.39121 0
M  V30 968 C 87.6931 6.0873 0.641462 0
M  V30 969 N 86.8301 6.8409 1.58004 0
M  V30 970 H 91.6701 2.92118 -0.589144 0
M  V30 971 H 89.2071 1.43959 -0.302342 0
M  V30 972 H 91.1651 3.79569 1.73156 0
M  V30 973 H 89.7951 2.65872 1.83062 0
M  V30 974 H 88.8471 3.79152 -0.307826 0
M  V30 975 H 90.1591 4.98458 -0.184565 0
M  V30 976 H 89.3131 5.70747 2.05749 0
M  V30 977 H 88.0521 4.44316 2.01084 0
M  V30 978 H 87.0571 5.49786 -0.0385419 0
M  V30 979 H 88.2821 6.79095 0.0270945 0
M  V30 980 H 86.2281 6.18449 2.18761 0
M  V30 981 H 86.1451 7.48709 1.04738 0
M  V30 982 H 87.4131 7.4673 2.23639 0
M  V30 983 N 91.6422 0.330177 1.54103 0
M  V30 984 C 92.5892 -0.532762 2.24567 0
M  V30 985 C 93.5592 -1.10635 1.23892 0
M  V30 986 O 94.7442 -1.14546 1.5259 0
M  V30 987 C 91.8842 -1.6845 3.01195 0
M  V30 988 C 90.9972 -1.13951 4.167 0
M  V30 989 C 90.1322 -2.25746 4.80845 0
M  V30 990 C 89.1712 -1.6853 5.88442 0
M  V30 991 N 88.3082 -2.74014 6.46421 0
M  V30 992 H 93.1482 0.0746905 2.97906 0
M  V30 993 H 90.6852 0.048632 1.4702 0
M  V30 994 H 92.6432 -2.36234 3.43874 0
M  V30 995 H 91.2732 -2.26314 2.30178 0
M  V30 996 H 90.3252 -0.35301 3.78758 0
M  V30 997 H 91.6372 -0.680892 4.94131 0
M  V30 998 H 90.7912 -3.01422 5.26526 0
M  V30 999 H 89.5302 -2.74947 4.0281 0
M  V30 1000 H 88.5352 -0.913543 5.42157 0
M  V30 1001 H 89.7602 -1.20198 6.68378 0
M  V30 1002 H 87.7062 -3.22494 5.71256 0
M  V30 1003 H 87.6232 -2.32735 7.19285 0
M  V30 1004 H 88.8912 -3.49499 6.96757 0
M  V30 1005 N 93.1203 -1.57491 0.0584922 0
M  V30 1006 C 94.0503 -2.14988 -0.911178 0
M  V30 1007 C 95.0313 -1.07343 -1.31952 0
M  V30 1008 O 96.2163 -1.35318 -1.39294 0
M  V30 1009 C 93.3463 -2.70078 -2.18347 0
M  V30 1010 C 92.3003 -3.82771 -1.91495 0
M  V30 1011 C 91.6263 -4.24408 -3.25241 0
M  V30 1012 C 92.9263 -5.07592 -1.23075 0
M  V30 1013 H 94.6203 -2.96263 -0.432246 0
M  V30 1014 H 92.1663 -1.42512 -0.206469 0
M  V30 1015 H 94.1193 -3.08943 -2.86587 0
M  V30 1016 H 92.8433 -1.86005 -2.68458 0
M  V30 1017 H 91.5023 -3.44389 -1.25664 0
M  V30 1018 H 91.1503 -3.37275 -3.73168 0
M  V30 1019 H 90.8503 -5.00366 -3.08071 0
M  V30 1020 H 92.3743 -4.65879 -3.94701 0
M  V30 1021 H 93.7883 -5.43857 -1.81362 0
M  V30 1022 H 92.1853 -5.88741 -1.16207 0
M  V30 1023 H 93.2553 -4.84454 -0.207847 0
M  V30 1024 N 94.5984 0.214957 -1.56127 0
M  V30 1025 C 95.5454 1.26642 -1.92952 0
M  V30 1026 C 96.5154 1.46244 -0.78753 0
M  V30 1027 O 97.7004 1.59704 -1.04399 0
M  V30 1028 C 94.8404 2.6104 -2.25726 0
M  V30 1029 C 93.9534 2.49183 -3.52891 0
M  V30 1030 C 93.0884 3.76149 -3.7508 0
M  V30 1031 C 92.1274 3.59041 -4.95738 0
M  V30 1032 N 91.2644 4.77972 -5.14283 0
M  V30 1033 H 96.1044 0.945384 -2.82607 0
M  V30 1034 H 93.6414 0.455489 -1.3987 0
M  V30 1035 H 95.5994 3.39313 -2.42739 0
M  V30 1036 H 94.2294 2.91227 -1.39236 0
M  V30 1037 H 93.2814 1.6231 -3.44034 0
M  V30 1038 H 94.5934 2.32466 -4.41318 0
M  V30 1039 H 93.7474 4.62865 -3.92226 0
M  V30 1040 H 92.4864 3.95799 -2.84947 0
M  V30 1041 H 91.4914 2.7071 -4.78535 0
M  V30 1042 H 92.7164 3.40856 -5.87362 0
M  V30 1043 H 90.6624 4.97923 -4.27093 0
M  V30 1044 H 90.5794 4.64006 -5.96853 0
M  V30 1045 H 91.8474 5.66096 -5.35869 0
M  V30 1046 N 96.0765 1.50051 0.48192 0
M  V30 1047 C 97.3015 1.64508 1.26301 0
M  V30 1048 C 97.7265 0.323851 1.85291 0
M  V30 1049 O 97.0845 -0.710969 1.66778 0
M  V30 1050 C 97.1325 2.7305 2.35533 0
M  V30 1051 O 96.2365 2.3355 3.39895 0
M  V30 1052 H 95.5775 0.549978 0.372048 0
M  V30 1053 H 98.1075 1.9636 0.574786 0
M  V30 1054 H 98.1175 2.95799 2.8101 0
M  V30 1055 H 96.7925 3.68946 1.91967 0
M  V30 1056 H 95.3695 2.21205 3.00204 0
M  V30 1057 N 97.5546 -0.734337 1.39446 0
M  V30 1058 C 98.5016 -1.84835 1.38219 0
M  V30 1059 C 99.4716 -1.64331 0.24179 0
M  V30 1060 O 100.657 -1.85728 0.437002 0
M  V30 1061 C 97.7966 -3.22355 1.23212 0
M  V30 1062 C 96.9096 -3.5456 2.46801 0
M  V30 1063 C 96.0446 -4.81485 2.24377 0
M  V30 1064 C 95.0836 -5.06536 3.43639 0
M  V30 1065 N 94.2206 -6.24665 3.20528 0
M  V30 1066 H 99.0606 -1.85219 2.33448 0
M  V30 1067 H 96.5976 -0.905039 1.15963 0
M  V30 1068 H 98.5556 -4.0174 1.12522 0
M  V30 1069 H 97.1856 -3.21248 0.316121 0
M  V30 1070 H 96.2376 -2.69872 2.68092 0
M  V30 1071 H 97.5496 -3.6899 3.3563 0
M  V30 1072 H 96.7036 -5.68852 2.10933 0
M  V30 1073 H 95.4426 -4.6923 1.32944 0
M  V30 1074 H 94.4476 -4.17632 3.5758 0
M  V30 1075 H 95.6726 -5.20676 4.35974 0
M  V30 1076 H 93.6186 -6.13696 2.3176 0
M  V30 1077 H 93.5356 -6.39685 4.02913 0
M  V30 1078 H 94.8036 -7.14868 3.10779 0
M  V30 1079 N 99.0327 -1.24633 -0.964593 0
M  V30 1080 C 100.449 -1.01239 -1.2338 0
M  V30 1081 C 100.649 0.2769 -1.99588 0
M  V30 1082 O 99.7047 0.992241 -2.32187 0
M  V30 1083 C 101.018 -2.22937 -2.01791 0
M  V30 1084 C 102.566 -2.27594 -2.14872 0
M  V30 1085 C 103.041 -3.48921 -2.96678 0
M  V30 1086 N 104.532 -3.49257 -3.04259 0
M  V30 1087 C 105.267 -4.39795 -3.67924 0
M  V30 1088 N 104.763 -5.40591 -4.33281 0
M  V30 1089 N 106.556 -4.275 -3.64966 0
M  V30 1090 H 98.7067 -2.0748 -0.454502 0
M  V30 1091 H 100.97 -0.910647 -0.26349 0
M  V30 1092 H 100.676 -3.16587 -1.53184 0
M  V30 1093 H 100.55 -2.25306 -3.02518 0
M  V30 1094 H 102.937 -1.34473 -2.6268 0
M  V30 1095 H 103.018 -2.2925 -1.13482 0
M  V30 1096 H 102.662 -4.42359 -2.49562 0
M  V30 1097 H 102.592 -3.4451 -3.98272 0
M  V30 1098 H 105.083 -2.76337 -2.57771 0
M  V30 1099 H 105.396 -6.05904 -4.79687 0
M  V30 1100 H 103.741 -5.44475 -4.3194 0
M  V30 1101 H 106.932 -3.47987 -3.13086 0
M  V30 1102 H 107.105 -4.98258 -4.14298 0
M  V30 1103 N 100.511 1.16574 -1.06058 0
M  V30 1104 C 101.757 1.87324 -0.777022 0
M  V30 1105 C 102.09 1.81351 0.694645 0
M  V30 1106 O 101.365 1.22753 1.50871 0
M  V30 1107 C 101.648 3.36991 -1.26922 0
M  V30 1108 C 101.501 3.51667 -2.80447 0
M  V30 1109 C 102.82 4.3131 -0.87521 0
M  V30 1110 H 99.9388 0.680191 -0.28374 0
M  V30 1111 H 102.581 1.37036 -1.3161 0
M  V30 1112 H 100.731 3.79949 -0.81063 0
M  V30 1113 H 102.403 3.17664 -3.34495 0
M  V30 1114 H 100.646 2.93656 -3.19294 0
M  V30 1115 H 101.317 4.56766 -3.0995 0
M  V30 1116 H 103.793 3.9624 -1.27014 0
M  V30 1117 H 102.669 5.34545 -1.2471 0
M  V30 1118 H 102.93 4.41552 0.220071 0
M  V30 1119 N 101.989 0.842826 1.3317 0
M  V30 1120 C 103.4 0.496651 1.79973 0
M  V30 1121 C 103.751 -0.984641 1.69703 0
M  V30 1122 O 102.876 -1.76743 1.24863 0
M  V30 1123 C 103.471 0.894727 3.26772 0
M  V30 1124 C 102.03 0.600629 3.71577 0
M  V30 1125 C 101.177 1.10091 2.5451 0
M  V30 1126 H 104.128 1.03116 1.20635 0
M  V30 1127 H 104.149 0.206347 3.7994 0
M  V30 1128 H 103.661 1.97287 3.34215 0
M  V30 1129 H 101.762 -0.467284 3.69658 0
M  V30 1130 H 101.875 1.15863 4.64879 0
M  V30 1131 H 100.239 0.52162 2.49301 0
M  V30 1132 H 101.022 2.18591 2.64713 0
M  V30 1133 N 103.467 -1.45747 0.599634 0
M  V30 1134 C 104.716 -2.01502 0.0893511 0
M  V30 1135 C 105.029 -1.4748 -1.28488 0
M  V30 1136 O 106.235 -1.95161 -1.88745 0
M  V30 1137 C 104.691 -3.59735 0.109082 0
M  V30 1138 C 104.299 -4.22754 1.48267 0
M  V30 1139 C 106.043 -4.23085 -0.346374 0
M  V30 1140 C 103.95 -5.73115 1.45921 0
M  V30 1141 H 102.88 -0.753417 0.0296347 0
M  V30 1142 H 105.531 -1.67303 0.753788 0
M  V30 1143 H 103.913 -3.91087 -0.621854 0
M  V30 1144 H 105.087 -4.02987 2.23468 0
M  V30 1145 H 103.402 -3.71567 1.87955 0
M  V30 1146 H 105.999 -5.33327 -0.38298 0
M  V30 1147 H 106.342 -3.93201 -1.36743 0
M  V30 1148 H 106.875 -3.9642 0.331038 0
M  V30 1149 H 103.614 -6.07685 2.45762 0
M  V30 1150 H 103.134 -5.95097 0.749665 0
M  V30 1151 H 104.813 -6.3616 1.17941 0
M  V30 1152 N 104.945 -0.338344 -1.53925 0
M  V30 1153 C 106.175 0.260919 -2.04946 0
M  V30 1154 C 106.583 1.45174 -1.2133 0
M  V30 1155 O 105.926 1.82122 -0.240262 0
M  V30 1156 C 105.988 0.744596 -3.51704 0
M  V30 1157 C 105.652 -0.325883 -4.55837 0
M  V30 1158 C 106.649 -1.16687 -5.06636 0
M  V30 1159 C 104.334 -0.478317 -5.00017 0
M  V30 1160 C 106.328 -2.14588 -6.00192 0
M  V30 1161 C 104.015 -1.46073 -5.93385 0
M  V30 1162 C 105.013 -2.29297 -6.4336 0
M  V30 1163 O 104.701 -3.25867 -7.34892 0
M  V30 1164 H 104.433 0.0551207 -0.673749 0
M  V30 1165 H 106.987 -0.486984 -1.99544 0
M  V30 1166 H 105.217 1.54366 -3.54553 0
M  V30 1167 H 106.906 1.26383 -3.85723 0
M  V30 1168 H 107.672 -1.06016 -4.73271 0
M  V30 1169 H 103.551 0.159613 -4.60724 0
M  V30 1170 H 107.095 -2.79585 -6.39123 0
M  V30 1171 H 102.992 -1.56802 -6.26166 0
M  V30 1172 H 103.76 -3.21278 -7.5281 0
M  V30 1173 N 106.423 1.57458 -0.0668435 0
M  V30 1174 C 107.333 2.15937 0.916975 0
M  V30 1175 C 108.349 1.12123 1.33058 0
M  V30 1176 O 109.525 1.44366 1.40429 0
M  V30 1177 C 106.59 2.70547 2.16807 0
M  V30 1178 C 105.651 3.89215 1.81135 0
M  V30 1179 C 104.884 4.41211 3.0028 0
M  V30 1180 O 105.107 3.92225 4.14144 0
M  V30 1181 O 104.041 5.32605 2.80384 0
M  V30 1182 H 107.867 3.00354 0.449561 0
M  V30 1183 H 105.452 1.48584 0.155949 0
M  V30 1184 H 107.334 3.0557 2.90181 0
M  V30 1185 H 106.009 1.89192 2.62656 0
M  V30 1186 H 104.916 3.59054 1.05028 0
M  V30 1187 H 106.249 4.71848 1.40073 0
M  V30 1188 N 107.901 -0.206675 1.56239 0
M  V30 1189 C 108.848 -1.25617 1.93621 0
M  V30 1190 C 109.818 -1.45824 0.795274 0
M  V30 1191 O 111.003 -1.59148 1.05245 0
M  V30 1192 C 108.143 -2.59839 2.27107 0
M  V30 1193 C 107.256 -2.47308 3.54207 0
M  V30 1194 C 106.391 -3.74155 3.7707 0
M  V30 1195 C 105.43 -3.56407 4.97635 0
M  V30 1196 N 104.567 -4.75238 5.1681 0
M  V30 1197 H 109.407 -0.930383 2.83104 0
M  V30 1198 H 106.944 -0.448065 1.4011 0
M  V30 1199 H 108.902 -3.38021 2.44535 0
M  V30 1200 H 107.532 -2.90485 1.40778 0
M  V30 1201 H 106.584 -1.60483 3.4489 0
M  V30 1202 H 107.896 -2.30122 4.42544 0
M  V30 1203 H 107.05 -4.60778 3.94675 0
M  V30 1204 H 105.789 -3.94282 2.87042 0
M  V30 1205 H 104.794 -2.68168 4.79964 0
M  V30 1206 H 106.019 -3.37736 5.89161 0
M  V30 1207 H 103.965 -4.95651 4.29728 0
M  V30 1208 H 103.882 -4.60835 5.99306 0
M  V30 1209 H 105.15 -5.63246 5.38864 0
M  V30 1210 N 109.379 -1.50304 -0.473955 0
M  V30 1211 C 110.326 -1.68959 -1.57231 0
M  V30 1212 C 111.296 -0.530899 -1.57387 0
M  V30 1213 O 112.481 -0.761133 -1.74961 0
M  V30 1214 C 109.621 -1.7871 -2.95223 0
M  V30 1215 C 108.734 -3.06061 -3.04878 0
M  V30 1216 C 107.869 -3.06626 -4.33767 0
M  V30 1217 C 106.908 -4.28443 -4.37154 0
M  V30 1218 N 106.045 -4.26763 -5.5751 0
M  V30 1219 H 110.885 -2.6273 -1.40631 0
M  V30 1220 H 108.422 -1.30241 -0.683789 0
M  V30 1221 H 110.38 -1.82344 -3.75242 0
M  V30 1222 H 109.01 -0.883806 -3.10465 0
M  V30 1223 H 108.062 -3.11911 -2.17751 0
M  V30 1224 H 109.374 -3.96039 -3.0324 0
M  V30 1225 H 108.528 -3.08973 -5.22131 0
M  V30 1226 H 107.267 -2.14473 -4.3801 0
M  V30 1227 H 106.272 -4.2631 -3.47188 0
M  V30 1228 H 107.497 -5.2182 -4.34605 0
M  V30 1229 H 105.443 -3.37462 -5.62544 0
M  V30 1230 H 105.36 -5.10507 -5.57601 0
M  V30 1231 H 106.628 -4.33253 -6.48006 0
M  V30 1232 N 110.857 0.726932 -1.39834 0
M  V30 1233 C 112.087 1.51393 -1.40583 0
M  V30 1234 C 112.495 1.892 -0.000740625 0
M  V30 1235 O 111.838 1.55189 0.982951 0
M  V30 1236 C 111.9 2.82588 -2.22226 0
M  V30 1237 C 111.564 2.67169 -3.70769 0
M  V30 1238 C 112.561 2.3518 -4.63666 0
M  V30 1239 C 110.246 2.83788 -4.14451 0
M  V30 1240 C 112.24 2.20002 -5.98229 0
M  V30 1241 C 109.927 2.68229 -5.49087 0
M  V30 1242 C 110.925 2.36382 -6.4079 0
M  V30 1243 O 110.613 2.2093 -7.72946 0
M  V30 1244 H 110.345 0.474168 -0.48181 0
M  V30 1245 H 112.899 0.905247 -1.84376 0
M  V30 1246 H 111.129 3.45746 -1.73195 0
M  V30 1247 H 112.818 3.44247 -2.15055 0
M  V30 1248 H 113.584 2.21984 -4.31217 0
M  V30 1249 H 109.463 3.07566 -3.43401 0
M  V30 1250 H 113.007 1.95067 -6.69772 0
M  V30 1251 H 108.904 2.81006 -5.81125 0
M  V30 1252 H 109.672 2.35937 -7.83757 0
M  V30 1253 N 112.336 1.25143 0.95797 0
M  V30 1254 C 113.584 1.09476 1.69881 0
M  V30 1255 C 113.905 -0.365502 1.91544 0
M  V30 1256 O 113.175 -1.25985 1.50015 0
M  V30 1257 H 111.755 0.402128 0.629525 0
M  V30 1258 H 114.417 1.57214 1.15194 0
M  V30 1259 H 113.513 1.60046 2.6794 0
M  V30 1260 N 113.814 -1.1601 1.06675 0
M  V30 1261 C 114.746 -2.20115 0.638921 0
M  V30 1262 C 115.759 -1.59916 -0.305057 0
M  V30 1263 O 116.948 -1.78245 -0.0954446 0
M  V30 1264 C 114.048 -3.38798 -0.0830083 0
M  V30 1265 C 113.221 -4.2855 0.875426 0
M  V30 1266 C 112.28 -5.25849 0.192042 0
M  V30 1267 O 111.306 -5.63102 0.830921 0
M  V30 1268 N 112.508 -5.70648 -1.06493 0
M  V30 1269 H 115.273 -2.57439 1.53444 0
M  V30 1270 H 112.834 -1.31057 0.950557 0
M  V30 1271 H 114.826 -4.00936 -0.550685 0
M  V30 1272 H 113.396 -2.99947 -0.880386 0
M  V30 1273 H 112.616 -3.63617 1.52238 0
M  V30 1274 H 113.904 -4.85393 1.52548 0
M  V30 1275 H 113.302 -5.42482 -1.60405 0
M  V30 1276 H 111.859 -6.34859 -1.47641 0
M  V30 1277 N 115.292 -0.849877 -1.32721 0
M  V30 1278 C 116.538 -0.451591 -1.97708 0
M  V30 1279 C 116.871 0.989175 -1.6712 0
M  V30 1280 O 116.146 1.69334 -0.956891 0
M  V30 1281 C 116.429 -0.685598 -3.53513 0
M  V30 1282 C 116.282 -2.17444 -3.93749 0
M  V30 1283 C 117.601 -0.138874 -4.39881 0
M  V30 1284 H 114.72 -0.16555 -0.718166 0
M  V30 1285 H 117.362 -1.06742 -1.57182 0
M  V30 1286 H 115.512 -0.161416 -3.88165 0
M  V30 1287 H 117.184 -2.76433 -3.693 0
M  V30 1288 H 115.427 -2.65476 -3.43081 0
M  V30 1289 H 116.098 -2.28888 -5.02309 0
M  V30 1290 H 118.574 -0.587068 -4.11938 0
M  V30 1291 H 117.45 -0.332213 -5.47894 0
M  V30 1292 H 117.711 0.95806 -4.31594 0
M  V30 1293 N 116.77 1.45427 -0.607355 0
M  V30 1294 C 118.181 1.85756 -0.187535 0
M  V30 1295 C 118.532 1.5077 1.25551 0
M  V30 1296 O 117.657 0.93427 1.95193 0
M  V30 1297 C 118.252 3.37154 -0.333572 0
M  V30 1298 C 116.811 3.76387 0.0315542 0
M  V30 1299 C 115.958 2.69377 -0.658117 0
M  V30 1300 H 118.909 1.36231 -0.81405 0
M  V30 1301 H 118.93 3.78014 0.43428 0
M  V30 1302 H 118.442 3.62586 -1.38393 0
M  V30 1303 H 116.543 3.56571 1.0811 0
M  V30 1304 H 116.656 4.77731 -0.361935 0
M  V30 1305 H 115.02 2.5452 -0.0957873 0
M  V30 1306 H 115.803 2.97646 -1.7106 0
M  V30 1307 N 118.248 0.346503 1.53744 0
M  V30 1308 C 119.181 -0.552023 2.21423 0
M  V30 1309 C 120.159 -1.09798 1.19929 0
M  V30 1310 O 121.343 -1.1577 1.4876 0
M  V30 1311 C 118.47 -1.75972 2.89398 0
M  V30 1312 C 117.516 -1.34295 4.04805 0
M  V30 1313 S 118.349 -0.360263 5.34287 0
M  V30 1314 C 119.505 -1.57473 6.05767 0
M  V30 1315 H 119.738 0.0228119 2.97291 0
M  V30 1316 H 117.271 0.130579 1.53847 0
M  V30 1317 H 119.229 -2.45256 3.2918 0
M  V30 1318 H 117.89 -2.30578 2.1329 0
M  V30 1319 H 117.083 -2.24349 4.51313 0
M  V30 1320 H 116.685 -0.729555 3.66815 0
M  V30 1321 H 118.977 -2.50875 6.29339 0
M  V30 1322 H 119.92 -1.15138 6.98676 0
M  V30 1323 H 120.328 -1.77212 5.35963 0
M  V30 1324 N 119.726 -1.57421 0.075193 0
M  V30 1325 C 120.966 -1.95495 -0.596757 0
M  V30 1326 C 121.33 -0.954886 -1.66571 0
M  V30 1327 O 122.531 -1.22341 -2.39345 0
M  V30 1328 C 120.802 -3.382 -1.15566 0
M  V30 1329 S 122.361 -3.98254 -1.84226 0
M  V30 1330 H 119.179 -0.683649 -0.195307 0
M  V30 1331 H 121.781 -1.94925 0.149859 0
M  V30 1332 H 120.485 -4.08766 -0.36588 0
M  V30 1333 H 120.016 -3.42321 -1.93856 0
M  V30 1334 H 122.031 -3.85435 -3.12497 0
M  V30 1335 N 121.204 0.198386 -1.56346 0
M  V30 1336 C 122.481 0.944982 -1.71258 0
M  V30 1337 C 122.861 2.0151 -0.629048 0
M  V30 1338 O 122.209 2.25639 0.360473 0
M  V30 1339 C 122.419 1.5344 -3.1346 0
M  V30 1340 C 123.767 2.01778 -3.73591 0
M  V30 1341 O 124.791 1.63288 -3.16568 0
M  V30 1342 O 123.65 2.72594 -4.73661 0
M  V30 1343 H 120.744 0.442939 -0.69838 0
M  V30 1344 H 123.29 0.188342 -1.68652 0
M  V30 1345 H 122.062 0.762869 -3.83792 0
M  V30 1346 H 121.685 2.35596 -3.20282 0
M  V30 1347 N 122.682 1.50554 0.465978 0
M  V30 1348 C 123.645 1.69233 1.54574 0
M  V30 1349 C 124.645 0.562901 1.50626 0
M  V30 1350 O 125.835 0.830016 1.53155 0
M  V30 1351 C 122.967 1.7223 2.94193 0
M  V30 1352 H 124.16 2.65571 1.39327 0
M  V30 1353 H 121.713 1.40111 0.692711 0
M  V30 1354 H 122.448 0.77603 3.14878 0
M  V30 1355 H 122.233 2.54285 2.98466 0
M  V30 1356 H 123.723 1.88618 3.72576 0
M  V30 1357 N 124.16 -0.719506 1.40217 0
M  V30 1358 C 125.408 -1.47641 1.3801 0
M  V30 1359 C 125.729 -1.94992 -0.018145 0
M  V30 1360 O 124.999 -1.70073 -0.972207 0
M  V30 1361 H 123.579 -0.547744 0.507923 0
M  V30 1362 H 126.241 -0.853187 1.75233 0
M  V30 1363 H 125.337 -2.35112 2.05253 0
M  V30 1364 N 125.638 -1.25649 -0.95132 0
M  V30 1365 C 126.548 -1.08073 -2.08224 0
M  V30 1366 C 127.564 -0.0169666 -1.73992 0
M  V30 1367 O 128.74 -0.218593 -2.0021 0
M  V30 1368 C 125.805 -0.704922 -3.39458 0
M  V30 1369 C 124.866 -1.84699 -3.87537 0
M  V30 1370 C 124.099 -1.48902 -5.12508 0
M  V30 1371 O 124.322 -0.386156 -5.69091 0
M  V30 1372 O 123.256 -2.32033 -5.55378 0
M  V30 1373 H 127.082 -2.02924 -2.25954 0
M  V30 1374 H 124.667 -1.04618 -1.06656 0
M  V30 1375 H 126.549 -0.507609 -4.18332 0
M  V30 1376 H 125.224 0.214291 -3.2299 0
M  V30 1377 H 124.131 -2.09919 -3.09653 0
M  V30 1378 H 125.464 -2.74557 -4.08509 0
M  V30 1379 N 127.117 1.15442 -1.07289 0
M  V30 1380 C 128.049 2.19773 -0.650585 0
M  V30 1381 C 129.062 1.60076 0.296572 0
M  V30 1382 O 130.251 1.78293 0.0859905 0
M  V30 1383 C 127.351 3.38838 0.0650398 0
M  V30 1384 C 126.524 4.2808 -0.898141 0
M  V30 1385 C 125.583 5.2574 -0.219926 0
M  V30 1386 O 124.609 5.62654 -0.860773 0
M  V30 1387 N 125.811 5.71205 1.03466 0
M  V30 1388 H 128.576 2.56622 -1.54808 0
M  V30 1389 H 126.137 1.30551 -0.957494 0
M  V30 1390 H 128.129 4.01222 0.529415 0
M  V30 1391 H 126.699 3.00409 0.864466 0
M  V30 1392 H 125.919 3.62804 -1.54165 0
M  V30 1393 H 127.207 4.84577 -1.5512 0
M  V30 1394 H 126.605 5.43325 1.57526 0
M  V30 1395 H 125.162 6.35633 1.44272 0
M  V30 1396 N 128.595 0.856903 1.32268 0
M  V30 1397 C 129.835 0.467705 1.98977 0
M  V30 1398 C 130.199 -0.959231 1.66321 0
M  V30 1399 O 131.4 -1.4531 2.26138 0
M  V30 1400 C 129.671 0.70256 3.50427 0
M  V30 1401 S 131.23 0.411269 4.36868 0
M  V30 1402 H 128.048 0.175121 0.689096 0
M  V30 1403 H 130.65 1.1101 1.60925 0
M  V30 1404 H 129.354 1.74012 3.71683 0
M  V30 1405 H 128.885 0.0466707 3.93372 0
M  V30 1406 H 130.9 -0.761799 4.90317 0
M  V30 1407 N 130.073 -1.45103 0.615059 0
M  V30 1408 C 131.036 -2.29025 -0.0895485 0
M  V30 1409 C 132.036 -1.40174 -0.787906 0
M  V30 1410 O 133.226 -1.62217 -0.634933 0
M  V30 1411 C 130.358 -3.21376 -1.13711 0
M  V30 1412 H 131.551 -2.92807 0.648382 0
M  V30 1413 H 129.104 -1.51749 0.374444 0
M  V30 1414 H 129.839 -2.6241 -1.90556 0
M  V30 1415 H 129.624 -3.86834 -0.640475 0
M  V30 1416 H 131.114 -3.84459 -1.63036 0
M  V30 1417 N 131.551 -0.354651 -1.53558 0
M  V30 1418 C 132.797 0.238797 -2.01389 0
M  V30 1419 C 133.13 1.49309 -1.2418 0
M  V30 1420 O 132.405 1.91638 -0.332457 0
M  V30 1421 C 132.688 0.541771 -3.56001 0
M  V30 1422 C 132.541 -0.725388 -4.43912 0
M  V30 1423 C 133.86 1.34685 -4.18984 0
M  V30 1424 H 130.979 0.0853177 -0.732045 0
M  V30 1425 H 133.621 -0.477384 -1.83905 0
M  V30 1426 H 131.771 1.15189 -3.71031 0
M  V30 1427 H 133.443 -1.36313 -4.407 0
M  V30 1428 H 131.686 -1.34801 -4.12324 0
M  V30 1429 H 132.357 -0.468505 -5.50008 0
M  V30 1430 H 134.833 0.830837 -4.07721 0
M  V30 1431 H 133.709 1.52759 -5.27215 0
M  V30 1432 H 133.97 2.35221 -3.74331 0
M  V30 1433 N 133.029 1.57378 -0.0835403 0
M  V30 1434 C 134.445 1.57246 0.273109 0
M  V30 1435 C 134.645 1.09385 1.69225 0
M  V30 1436 O 133.701 0.765051 2.40631 0
M  V30 1437 C 135.014 3.00614 0.0720628 0
M  V30 1438 C 136.562 3.12684 0.1407 0
M  V30 1439 C 137.037 4.57989 -0.0322094 0
M  V30 1440 N 138.528 4.63194 0.0230085 0
M  V30 1441 C 139.263 5.73335 -0.0861941 0
M  V30 1442 N 138.759 6.9235 -0.24958 0
M  V30 1443 N 140.552 5.62093 -0.0282886 0
M  V30 1444 H 132.703 1.86801 -1.0109 0
M  V30 1445 H 134.966 0.861687 -0.395222 0
M  V30 1446 H 134.672 3.39786 -0.907662 0
M  V30 1447 H 134.546 3.68193 0.81936 0
M  V30 1448 H 136.933 2.73391 1.11092 0
M  V30 1449 H 137.014 2.47719 -0.637896 0
M  V30 1450 H 136.658 4.97973 -0.999247 0
M  V30 1451 H 136.588 5.21 0.765937 0
M  V30 1452 H 139.079 3.77613 0.14722 0
M  V30 1453 H 139.392 7.72117 -0.324733 0
M  V30 1454 H 137.737 6.94415 -0.285097 0
M  V30 1455 H 140.928 4.67997 0.0981408 0
M  V30 1456 H 141.101 6.47895 -0.116845 0
M  V30 1457 N 134.507 -0.190092 1.56449 0
M  V30 1458 C 135.454 -1.23557 1.94942 0
M  V30 1459 C 136.424 -1.44972 0.810696 0
M  V30 1460 O 137.609 -1.58023 1.06927 0
M  V30 1461 C 134.749 -2.57416 2.2985 0
M  V30 1462 C 133.862 -2.43537 3.5681 0
M  V30 1463 C 132.997 -3.70134 3.81017 0
M  V30 1464 C 132.036 -3.51109 5.01387 0
M  V30 1465 N 131.173 -4.6973 5.21822 0
M  V30 1466 H 136.013 -0.900304 2.84075 0
M  V30 1467 H 133.55 -0.43318 1.40577 0
M  V30 1468 H 135.508 -3.35409 2.48106 0
M  V30 1469 H 134.138 -2.88975 1.43852 0
M  V30 1470 H 133.19 -1.56816 3.46573 0
M  V30 1471 H 134.502 -2.25415 4.4496 0
M  V30 1472 H 133.656 -4.56566 3.9954 0
M  V30 1473 H 132.395 -3.91215 2.91207 0
M  V30 1474 H 131.4 -2.63063 4.82782 0
M  V30 1475 H 132.625 -3.31468 5.9271 0
M  V30 1476 H 130.571 -4.91065 4.34961 0
M  V30 1477 H 130.488 -4.54452 6.0416 0
M  V30 1478 H 131.756 -5.57499 5.44808 0
M  V30 1479 N 135.985 -1.50799 -0.457987 0
M  V30 1480 C 137.233 -1.62121 -1.2067 0
M  V30 1481 C 137.554 -0.329793 -1.92191 0
M  V30 1482 O 136.824 0.653409 -1.84682 0
M  V30 1483 H 135.404 -0.597441 -0.448411 0
M  V30 1484 H 138.066 -1.87637 -0.527096 0
M  V30 1485 H 137.162 -2.43882 -1.94751 0
M  V30 1486 N 137.463 0.71206 -1.40597 0
M  V30 1487 C 138.426 1.80785 -1.40888 0
M  V30 1488 C 139.426 1.57937 -0.302103 0
M  V30 1489 O 140.616 1.64913 -0.561182 0
M  V30 1490 C 137.748 3.18927 -1.20409 0
M  V30 1491 H 138.941 1.81924 -2.38419 0
M  V30 1492 H 136.494 0.91805 -1.26497 0
M  V30 1493 H 137.229 3.23436 -0.236522 0
M  V30 1494 H 137.014 3.36911 -2.00582 0
M  V30 1495 H 138.504 3.98949 -1.23408 0
M  V30 1496 N 138.941 1.26152 0.944643 0
M  V30 1497 C 140.357 1.03189 1.21754 0
M  V30 1498 C 140.557 -0.245112 2.00004 0
M  V30 1499 O 139.613 -0.955176 2.33736 0
M  V30 1500 C 140.926 2.26119 1.98219 0
M  V30 1501 C 142.474 2.30984 2.11224 0
M  V30 1502 C 142.949 3.53597 2.91089 0
M  V30 1503 N 144.44 3.54053 2.98664 0
M  V30 1504 C 145.175 4.45593 3.60881 0
M  V30 1505 N 144.671 5.47416 4.24626 0
M  V30 1506 N 146.464 4.33252 3.58119 0
M  V30 1507 H 138.615 2.08177 0.421437 0
M  V30 1508 H 140.878 0.914723 0.248969 0
M  V30 1509 H 140.584 3.18984 1.48128 0
M  V30 1510 H 140.458 2.3009 2.98895 0
M  V30 1511 H 142.845 1.38635 2.60508 0
M  V30 1512 H 142.926 2.31026 1.09821 0
M  V30 1513 H 142.57 4.46273 2.42493 0
M  V30 1514 H 142.5 3.50802 3.92741 0
M  V30 1515 H 144.991 2.80403 2.53343 0
M  V30 1516 H 145.304 6.13459 4.69987 0
M  V30 1517 H 143.649 5.51278 4.23223 0
M  V30 1518 H 146.84 3.52924 3.0751 0
M  V30 1519 H 147.013 5.04786 4.06319 0
M  V30 1520 N 140.419 -1.14872 1.07899 0
M  V30 1521 C 141.668 -1.85135 0.800499 0
M  V30 1522 C 141.981 -1.83547 -0.676014 0
M  V30 1523 O 143.187 -2.49548 -1.06948 0
M  V30 1524 C 141.643 -3.3231 1.38197 0
M  V30 1525 C 141.251 -3.42329 2.8899 0
M  V30 1526 C 142.995 -4.0772 1.18174 0
M  V30 1527 C 140.902 -4.83684 3.403 0
M  V30 1528 H 139.832 -0.693563 0.29578 0
M  V30 1529 H 142.483 -1.29532 1.29976 0
M  V30 1530 H 140.865 -3.87618 0.810431 0
M  V30 1531 H 142.039 -2.97097 3.52236 0
M  V30 1532 H 140.354 -2.80369 3.07867 0
M  V30 1533 H 142.951 -5.12049 1.5398 0
M  V30 1534 H 143.294 -4.16124 0.12117 0
M  V30 1535 H 143.827 -3.58696 1.71994 0
M  V30 1536 H 140.566 -4.80465 4.45907 0
M  V30 1537 H 140.086 -5.29474 2.81811 0
M  V30 1538 H 141.765 -5.52558 3.36584 0
M  V30 1539 N 141.898 -0.863906 -1.31812 0
M  V30 1540 C 143.146 -0.470904 -1.96537 0
M  V30 1541 C 143.467 0.978771 -1.68657 0
M  V30 1542 O 142.737 1.6853 -0.998717 0
M  V30 1543 H 141.317 -0.171148 -0.72713 0
M  V30 1544 H 143.979 -1.10236 -1.60729 0
M  V30 1545 H 143.075 -0.623616 -3.05806 0
M  V30 1546 N 143.376 1.44774 -0.622745 0
M  V30 1547 C 144.323 2.30635 0.0871679 0
M  V30 1548 C 145.293 1.42994 0.845097 0
M  V30 1549 O 146.478 1.71907 0.827812 0
M  V30 1550 C 143.618 3.28144 1.06844 0
M  V30 1551 C 142.731 4.30888 0.309809 0
M  V30 1552 C 141.866 5.15494 1.28215 0
M  V30 1553 C 140.905 6.09953 0.512198 0
M  V30 1554 N 140.042 6.87287 1.43458 0
M  V30 1555 H 144.882 2.90803 -0.650974 0
M  V30 1556 H 142.419 1.43286 -0.33281 0
M  V30 1557 H 144.377 3.83157 1.65066 0
M  V30 1558 H 143.007 2.69695 1.77382 0
M  V30 1559 H 142.059 3.78414 -0.388181 0
M  V30 1560 H 143.371 4.97955 -0.290254 0
M  V30 1561 H 142.525 5.74983 1.93596 0
M  V30 1562 H 141.264 4.48481 1.91614 0
M  V30 1563 H 140.269 5.49581 -0.155151 0
M  V30 1564 H 141.494 6.78999 -0.116958 0
M  V30 1565 H 139.44 6.2295 2.05594 0
M  V30 1566 H 139.357 7.50763 0.888335 0
M  V30 1567 H 140.625 7.51306 2.07749 0
M  V30 1568 N 144.854 0.36279 1.53368 0
M  V30 1569 C 145.784 -0.476976 2.28576 0
M  V30 1570 C 146.765 -1.08631 1.30894 0
M  V30 1571 O 147.95 -1.10409 1.59761 0
M  V30 1572 C 145.08 -1.61828 3.07293 0
M  V30 1573 C 144.034 -1.13633 4.1264 0
M  V30 1574 C 143.36 -2.36766 4.79423 0
M  V30 1575 C 144.66 -0.223061 5.21823 0
M  V30 1576 H 146.354 0.150474 2.99022 0
M  V30 1577 H 143.9 0.0738103 1.43811 0
M  V30 1578 H 145.853 -2.21237 3.58653 0
M  V30 1579 H 144.577 -2.27292 2.34533 0
M  V30 1580 H 143.236 -0.564945 3.62221 0
M  V30 1581 H 142.884 -3.0068 4.03238 0
M  V30 1582 H 142.584 -2.05192 5.50609 0
M  V30 1583 H 144.108 -2.96865 5.33576 0
M  V30 1584 H 145.522 -0.724545 5.68703 0
M  V30 1585 H 143.919 0.001678 6.001 0
M  V30 1586 H 144.989 0.735553 4.79289 0
M  V30 1587 N 146.332 -1.57332 0.0918853 0
M  V30 1588 C 147.572 -1.96117 -0.575988 0
M  V30 1589 C 147.936 -0.972499 -1.65549 0
M  V30 1590 O 149.137 -1.24872 -2.38034 0
M  V30 1591 C 147.408 -3.39407 -1.11973 0
M  V30 1592 S 148.967 -4.00185 -1.79992 0
M  V30 1593 H 145.785 -0.685682 -0.188045 0
M  V30 1594 H 148.387 -1.94755 0.170525 0
M  V30 1595 H 147.091 -4.09131 -0.322504 0
M  V30 1596 H 146.622 -3.44358 -1.90214 0
M  V30 1597 H 148.637 -3.88728 -3.08391 0
M  V30 1598 N 147.81 0.181792 -1.56548 0
M  V30 1599 C 149.087 0.926765 -1.72251 0
M  V30 1600 C 149.467 2.00831 -0.650386 0
M  V30 1601 O 148.815 2.26008 0.336521 0
M  V30 1602 C 149.025 1.50106 -3.1507 0
M  V30 1603 C 150.373 1.97805 -3.75711 0
M  V30 1604 O 151.397 1.59922 -3.18282 0
M  V30 1605 O 150.256 2.67555 -4.76525 0
M  V30 1606 H 147.35 0.435506 -0.703039 0
M  V30 1607 H 149.896 0.170443 -1.68842 0
M  V30 1608 H 148.668 0.72212 -3.84579 0
M  V30 1609 H 148.291 2.32186 -3.22763 0
M  V30 1610 N 149.288 1.51039 0.449983 0
M  V30 1611 C 150.528 1.64732 1.21007 0
M  V30 1612 C 150.892 0.349865 1.88785 0
M  V30 1613 O 152.093 0.362431 2.66345 0
M  V30 1614 C 150.364 2.80902 2.20973 0
M  V30 1615 S 151.923 3.14851 3.05638 0
M  V30 1616 H 148.741 0.5805 0.410538 0
M  V30 1617 H 151.343 1.88901 0.503634 0
M  V30 1618 H 150.047 3.73627 1.69796 0
M  V30 1619 H 149.578 2.58882 2.96215 0
M  V30 1620 H 151.593 2.60306 4.22439 0
M  V30 1621 N 150.766 -0.704594 1.40972 0
M  V30 1622 C 152.177 -1.28418 1.3552 0
M  V30 1623 C 152.528 -1.96171 0.0339434 0
M  V30 1624 O 151.653 -1.98231 -0.867944 0
M  V30 1625 C 152.248 -2.33528 2.45459 0
M  V30 1626 C 150.807 -2.87085 2.43433 0
M  V30 1627 C 149.954 -1.61007 2.2577 0
M  V30 1628 H 152.905 -0.499963 1.50619 0
M  V30 1629 H 152.926 -3.14619 2.13998 0
M  V30 1630 H 152.438 -1.84187 3.41609 0
M  V30 1631 H 150.539 -3.40626 1.51013 0
M  V30 1632 H 150.652 -3.3813 3.39419 0
M  V30 1633 H 149.016 -1.86482 1.73483 0
M  V30 1634 H 149.799 -1.13675 3.23933 0
M  V30 1635 N 152.244 -1.26651 -0.937939 0
M  V30 1636 C 153.66 -1.03834 -1.21205 0
M  V30 1637 C 153.86 0.234502 -2.00131 0
M  V30 1638 O 152.916 0.942767 -2.3424 0
M  V30 1639 C 154.229 -2.27167 -1.97017 0
M  V30 1640 C 155.777 -2.32101 -2.09996 0
M  V30 1641 C 156.252 -3.55136 -2.8921 0
M  V30 1642 N 157.743 -3.55632 -2.96783 0
M  V30 1643 C 158.478 -4.475 -3.58512 0
M  V30 1644 N 157.974 -5.4966 -4.21717 0
M  V30 1645 N 159.767 -4.35145 -3.55816 0
M  V30 1646 H 151.918 -2.08398 -0.410391 0
M  V30 1647 H 154.181 -0.916031 -0.244114 0
M  V30 1648 H 153.887 -3.19765 -1.46434 0
M  V30 1649 H 153.761 -2.31672 -2.97671 0
M  V30 1650 H 156.148 -1.40015 -2.59769 0
M  V30 1651 H 156.229 -2.31605 -1.08594 0
M  V30 1652 H 155.873 -4.47553 -2.40123 0
M  V30 1653 H 155.803 -3.5288 -3.90875 0
M  V30 1654 H 158.294 -2.81743 -2.51852 0
M  V30 1655 H 158.607 -6.15943 -4.66727 0
M  V30 1656 H 156.952 -5.53514 -4.20294 0
M  V30 1657 H 160.143 -3.5455 -3.05634 0
M  V30 1658 H 160.316 -5.06934 -4.03636 0
M  V30 1659 N 153.722 1.14298 -1.08507 0
M  V30 1660 C 154.97 1.84993 -0.813763 0
M  V30 1661 C 155.291 1.83405 0.662393 0
M  V30 1662 O 154.561 1.28319 1.48024 0
M  V30 1663 H 153.141 0.684966 -0.298045 0
M  V30 1664 H 155.803 1.385 -1.37126 0
M  V30 1665 H 154.899 2.89788 -1.15884 0
M  V30 1666 N 155.201 0.870884 1.31352 0
M  V30 1667 C 156.429 0.49677 2.00848 0
M  V30 1668 C 156.844 -0.910998 1.65367 0
M  V30 1669 O 156.201 -1.59696 0.883374 0
M  V30 1670 C 156.252 0.645308 3.55694 0
M  V30 1671 O 155.973 1.99764 3.89905 0
M  V30 1672 C 157.474 0.272326 4.42463 0
M  V30 1673 H 154.694 0.193462 0.642506 0
M  V30 1674 H 157.238 1.1723 1.67563 0
M  V30 1675 H 155.393 0.0173176 3.87396 0
M  V30 1676 H 155.807 2.00607 4.84621 0
M  V30 1677 H 157.281 0.427208 5.50344 0
M  V30 1678 H 157.758 -0.788587 4.32062 0
M  V30 1679 H 158.364 0.876054 4.1618 0
M  V30 1680 N 156.679 -1.44442 0.630414 0
M  V30 1681 C 157.904 -2.06927 0.139944 0
M  V30 1682 C 158.329 -1.46795 -1.17613 0
M  V30 1683 O 157.687 -0.569144 -1.72135 0
M  V30 1684 C 157.735 -3.6058 0.0379581 0
M  V30 1685 O 156.839 -3.99937 -1.0062 0
M  V30 1686 H 156.18 -0.658608 0.0844483 0
M  V30 1687 H 158.71 -1.85327 0.866891 0
M  V30 1688 H 158.72 -4.07714 -0.152856 0
M  V30 1689 H 157.395 -4.03728 0.998809 0
M  V30 1690 H 155.972 -3.64436 -0.79001 0
M  V30 1691 N 158.157 -0.370918 -1.53173 0
M  V30 1692 C 159.397 0.217106 -2.03244 0
M  V30 1693 C 159.761 1.45558 -1.25207 0
M  V30 1694 O 160.962 2.11957 -1.65311 0
M  V30 1695 C 159.233 0.496664 -3.53932 0
M  V30 1696 S 160.792 1.0576 -4.25864 0
M  V30 1697 H 157.61 0.0627827 -0.708223 0
M  V30 1698 H 160.212 -0.515019 -1.88594 0
M  V30 1699 H 158.916 -0.412096 -4.08326 0
M  V30 1700 H 158.447 1.25772 -3.72753 0
M  V30 1701 H 160.462 2.34145 -4.37482 0
M  V30 1702 N 159.635 1.57281 -0.100228 0
M  V30 1703 C 160.583 2.15542 0.874328 0
M  V30 1704 C 161.577 1.09962 1.28859 0
M  V30 1705 O 162.783 1.28298 1.26252 0
M  V30 1706 H 159.158 0.689567 0.300003 0
M  V30 1707 H 161.129 2.96241 0.35829 0
M  V30 1708 C 159.878 2.75454 2.1218 0
M  V30 1709 H 159.201 3.56384 1.81193 0
M  V30 1710 H 160.641 3.19781 2.78417 0
M  V30 1711 C 159.1 1.71602 2.89921 0
M  V30 1712 O 159.63 1.15804 3.84646 0
M  V30 1713 N 157.836 1.41975 2.53558 0
M  V30 1714 H 157.383 1.87539 1.76598 0
M  V30 1715 H 157.341 0.727274 3.05873 0
M  V30 1716 N 161.113 -0.173488 1.56642 0
M  V30 1717 C 162.338 -0.910149 1.86363 0
M  V30 1718 C 162.763 -1.75132 0.686318 0
M  V30 1719 O 162.121 -1.77595 -0.364643 0
M  V30 1720 C 162.169 -1.76447 3.14482 0
M  V30 1721 O 161.273 -2.86584 2.96553 0
M  V30 1722 H 160.614 -0.255086 0.613047 0
M  V30 1723 H 163.144 -0.172283 2.03873 0
M  V30 1724 H 163.154 -2.16483 3.45831 0
M  V30 1725 H 161.829 -1.14658 3.99783 0
M  V30 1726 H 160.406 -2.50146 2.76553 0
M  V30 1727 N 162.591 -1.51276 -0.441967 0
M  V30 1728 C 163.838 -1.63715 -1.19179 0
M  V30 1729 C 164.166 -0.351175 -1.91303 0
M  V30 1730 O 163.421 0.664524 -1.84072 0
M  V30 1731 C 163.72 -2.78746 -2.23686 0
M  V30 1732 C 163.386 -4.18189 -1.68607 0
M  V30 1733 C 162.048 -4.56125 -1.53308 0
M  V30 1734 C 164.4 -5.05222 -1.28062 0
M  V30 1735 C 161.728 -5.78804 -0.959317 0
M  V30 1736 C 164.08 -6.28476 -0.721162 0
M  V30 1737 C 162.744 -6.65188 -0.55504 0
M  V30 1738 H 162.014 -0.599076 -0.436106 0
M  V30 1739 H 164.661 -1.85296 -0.48351 0
M  V30 1740 H 162.966 -2.51369 -3.00535 0
M  V30 1741 H 164.663 -2.8557 -2.81515 0
M  V30 1742 H 161.253 -3.88277 -1.8149 0
M  V30 1743 H 165.437 -4.76524 -1.38704 0
M  V30 1744 H 160.693 -6.05899 -0.81833 0
M  V30 1745 H 164.867 -6.95259 -0.398458 0
M  V30 1746 H 162.494 -7.60123 -0.108311 0
M  V30 1747 N 164.069 0.697108 -1.41344 0
M  V30 1748 C 164.999 1.82353 -1.45841 0
M  V30 1749 C 165.98 1.67115 -0.317247 0
M  V30 1750 O 167.165 1.86871 -0.528474 0
M  V30 1751 C 164.295 3.20476 -1.33838 0
M  V30 1752 C 163.249 3.50415 -2.4575 0
M  V30 1753 C 162.575 4.87878 -2.18813 0
M  V30 1754 C 163.875 3.49546 -3.88091 0
M  V30 1755 H 165.569 1.78846 -2.40113 0
M  V30 1756 H 163.115 0.859028 -1.15571 0
M  V30 1757 H 165.068 3.98988 -1.35596 0
M  V30 1758 H 163.792 3.24604 -0.360498 0
M  V30 1759 H 162.451 2.74253 -2.43271 0
M  V30 1760 H 162.099 4.8863 -1.19371 0
M  V30 1761 H 161.799 5.08875 -2.93803 0
M  V30 1762 H 163.323 5.68702 -2.22284 0
M  V30 1763 H 164.737 4.18066 -3.92293 0
M  V30 1764 H 163.134 3.82075 -4.62751 0
M  V30 1765 H 164.204 2.48552 -4.16353 0
M  V30 1766 N 165.547 1.27147 0.931209 0
M  V30 1767 C 166.477 1.12081 2.04842 0
M  V30 1768 C 167.458 0.0232364 1.70084 0
M  V30 1769 O 168.643 0.197085 1.93197 0
M  V30 1770 C 165.773 0.76354 3.38803 0
M  V30 1771 C 164.727 1.81396 3.87659 0
M  V30 1772 C 164.053 1.31075 5.18385 0
M  V30 1773 C 165.353 3.21739 4.11438 0
M  V30 1774 H 167.047 2.05537 2.17703 0
M  V30 1775 H 164.593 0.989603 1.04608 0
M  V30 1776 H 166.546 0.644982 4.16435 0
M  V30 1777 H 165.27 -0.206727 3.25945 0
M  V30 1778 H 163.929 1.92136 3.12217 0
M  V30 1779 H 163.577 0.330037 5.01916 0
M  V30 1780 H 163.277 2.013 5.52044 0
M  V30 1781 H 164.801 1.20506 5.98591 0
M  V30 1782 H 166.215 3.14019 4.79651 0
M  V30 1783 H 164.612 3.89644 4.56397 0
M  V30 1784 H 165.682 3.67054 3.16859 0
M  V30 1785 N 167.025 -1.13721 1.09112 0
M  V30 1786 C 167.972 -2.19031 0.727591 0
M  V30 1787 C 168.942 -1.63555 -0.289656 0
M  V30 1788 O 170.127 -1.90023 -0.172026 0
M  V30 1789 C 167.267 -3.4477 0.15082 0
M  V30 1790 C 166.38 -4.14365 1.22172 0
M  V30 1791 C 165.515 -5.27709 0.608042 0
M  V30 1792 C 164.554 -5.89147 1.66047 0
M  V30 1793 N 163.691 -6.93929 1.06806 0
M  V30 1794 H 168.531 -2.49475 1.62991 0
M  V30 1795 H 166.068 -1.22499 0.81439 0
M  V30 1796 H 168.026 -4.16714 -0.201358 0
M  V30 1797 H 166.656 -3.14787 -0.714783 0
M  V30 1798 H 165.708 -3.40737 1.69122 0
M  V30 1799 H 167.02 -4.56114 2.01895 0
M  V30 1800 H 166.174 -6.06355 0.204523 0
M  V30 1801 H 164.913 -4.872 -0.220769 0
M  V30 1802 H 163.918 -5.09198 2.07357 0
M  V30 1803 H 165.143 -6.31729 2.49189 0
M  V30 1804 H 163.089 -6.55483 0.260476 0
M  V30 1805 H 163.006 -7.34202 1.8023 0
M  V30 1806 H 164.274 -7.76434 0.690644 0
M  V30 1807 N 168.503 -0.877838 -1.30888 0
M  V30 1808 C 169.743 -0.499301 -1.98208 0
M  V30 1809 C 170.107 0.932649 -1.67826 0
M  V30 1810 O 171.308 1.41694 -2.28421 0
M  V30 1811 C 169.579 -0.758221 -3.49265 0
M  V30 1812 S 171.138 -0.480719 -4.36159 0
M  V30 1813 H 167.956 -0.186062 -0.686223 0
M  V30 1814 H 170.558 -1.13556 -1.59139 0
M  V30 1815 H 169.262 -1.79903 -3.68867 0
M  V30 1816 H 168.793 -0.109247 -3.93248 0
M  V30 1817 H 170.808 0.683698 -4.91467 0
M  V30 1818 N 169.982 1.44106 -0.638065 0
M  V30 1819 C 170.912 2.33448 0.0494287 0
M  V30 1820 C 171.893 1.48606 0.827672 0
M  V30 1821 O 173.078 1.77308 0.792173 0
M  V30 1822 C 170.208 3.31771 1.02691 0
M  V30 1823 C 169.162 4.26485 0.359823 0
M  V30 1824 C 168.488 5.14729 1.44769 0
M  V30 1825 C 169.788 5.17056 -0.738296 0
M  V30 1826 H 171.482 2.91183 -0.696636 0
M  V30 1827 H 169.028 1.40014 -0.336456 0
M  V30 1828 H 170.981 3.93161 1.51666 0
M  V30 1829 H 169.705 2.7226 1.80395 0
M  V30 1830 H 168.364 3.66437 -0.10934 0
M  V30 1831 H 168.012 4.51566 2.21578 0
M  V30 1832 H 167.712 5.78913 1.00668 0
M  V30 1833 H 169.236 5.78991 1.93911 0
M  V30 1834 H 170.65 5.72342 -0.331354 0
M  V30 1835 H 169.047 5.89879 -1.10286 0
M  V30 1836 H 170.117 4.57652 -1.60258 0
M  V30 1837 O 171.499 0.52123 1.52858 0
M  V30 1838 H 172.19 0.00896083 1.93698 0
M  V30 END ATOM
M  V30 BEGIN BOND
M  V30 END BOND
M  V30 END CTAB
M  END
$$$$
