drugbank_target|Q12879 Glutamate receptor ionotropic, NMDA 2A (DB00193; DB00289; DB00312; DB00333; DB00418; DB00843; DB00874; DB01174; DB01708; DB04896; DB06738; DB11823)
 OpenBabel12092119393D

  0  0  0     0  0            999 V3000
M  V30 BEGIN CTAB
M  V30 COUNTS 23011 23288 0 0 0
M  V30 BEGIN ATOM
M  V30 1 H -0.908 1.98254 -0.117106 0
M  V30 2 N 0 1.576 0 0
M  V30 3 C 0.933 2.03868 1.02534 0
M  V30 4 C 1.911 0.928543 1.3348 0
M  V30 5 O 3.095 1.19667 1.45644 0
M  V30 6 C 0.222 2.43627 2.35294 0
M  V30 7 C -0.732 3.65373 2.2001 0
M  V30 8 S 0.101 5.13292 1.52614 0
M  V30 9 C 1.257 5.56322 2.86805 0
M  V30 10 H 1.49 2.90518 0.631377 0
M  V30 11 H -0.977 1.52953 0.210867 0
M  V30 12 H 0.981 2.67203 3.11629 0
M  V30 13 H -0.358 1.57376 2.7183 0
M  V30 14 H -1.165 3.90944 3.18086 0
M  V30 15 H -1.563 3.418 1.51819 0
M  V30 16 H 0.729 5.58782 3.83104 0
M  V30 17 H 1.672 6.56266 2.65933 0
M  V30 18 H 2.08 4.83886 2.90714 0
M  V30 19 N 1.4781 -0.272755 1.55222 0
M  V30 20 C 2.7261 -1.00234 1.75492 0
M  V30 21 C 3.0471 -1.8681 0.5592 0
M  V30 22 O 2.3171 -1.91215 -0.425882 0
M  V30 23 H 0.8971 -0.373076 0.647166 0
M  V30 24 H 3.5591 -0.296926 1.92625 0
M  V30 25 H 2.6551 -1.63913 2.65592 0
M  V30 26 N 2.9562 -1.48159 -0.537278 0
M  V30 27 C 4.3722 -1.34118 -0.865129 0
M  V30 28 C 4.5722 -0.346678 -1.98495 0
M  V30 29 O 3.6282 0.234715 -2.51407 0
M  V30 30 C 4.9412 -2.73963 -1.23954 0
M  V30 31 C 6.4892 -2.82397 -1.34984 0
M  V30 32 C 6.9642 -4.22928 -1.75772 0
M  V30 33 N 8.4552 -4.25566 -1.82887 0
M  V30 34 C 9.1902 -5.31235 -2.15817 0
M  V30 35 N 8.6862 -6.47189 -2.47222 0
M  V30 36 N 10.4792 -5.18624 -2.16761 0
M  V30 37 H 2.6302 -2.1144 0.201715 0
M  V30 38 H 4.8932 -0.947598 0.0275949 0
M  V30 39 H 4.5992 -3.48264 -0.490381 0
M  V30 40 H 4.4732 -3.0702 -2.19132 0
M  V30 41 H 6.8602 -2.08356 -2.08978 0
M  V30 42 H 6.9412 -2.5297 -0.379448 0
M  V30 43 H 6.5852 -4.97482 -1.02341 0
M  V30 44 H 6.5152 -4.49794 -2.73848 0
M  V30 45 H 9.0062 -3.41924 -1.60924 0
M  V30 46 H 9.3192 -7.23564 -2.71433 0
M  V30 47 H 7.6642 -6.50476 -2.44757 0
M  V30 48 H 10.8552 -4.27056 -1.91679 0
M  V30 49 H 11.0282 -6.01078 -2.42093 0
M  V30 50 N 4.4343 0.785586 -1.36625 0
M  V30 51 C 5.6803 1.54591 -1.31261 0
M  V30 52 C 6.0133 1.93906 0.106823 0
M  V30 53 O 5.2883 1.63007 1.06108 0
M  V30 54 C 5.5713 2.82038 -2.23889 0
M  V30 55 C 5.4243 2.49066 -3.74548 0
M  V30 56 C 6.7433 3.83887 -2.15217 0
M  V30 57 H 3.8623 0.560846 -0.478143 0
M  V30 58 H 6.5043 0.902278 -1.67209 0
M  V30 59 H 4.6543 3.36961 -1.93363 0
M  V30 60 H 6.3263 2.00164 -4.15611 0
M  V30 61 H 4.5693 1.81954 -3.93796 0
M  V30 62 H 5.2403 3.40109 -4.34776 0
M  V30 63 H 7.7163 3.38421 -2.42096 0
M  V30 64 H 6.5923 4.70806 -2.82193 0
M  V30 65 H 6.8533 4.27131 -1.14068 0
M  V30 66 N 5.9124 1.20967 1.01018 0
M  V30 67 C 7.1604 1.02172 1.74371 0
M  V30 68 C 7.4814 -0.446414 1.89821 0
M  V30 69 O 6.7514 -1.32234 1.44537 0
M  V30 70 H 5.3314 0.375066 0.646014 0
M  V30 71 H 7.9934 1.52187 1.21758 0
M  V30 72 H 7.0894 1.48538 2.74487 0
M  V30 73 N 7.3905 -1.2043 1.01659 0
M  V30 74 C 8.6205 -1.93496 0.724081 0
M  V30 75 C 9.0285 -1.74998 -0.71918 0
M  V30 76 O 8.3715 -1.06118 -1.49949 0
M  V30 77 C 8.4335 -3.45886 0.97994 0
M  V30 78 C 8.0975 -3.88145 2.41232 0
M  V30 79 C 9.0945 -3.93907 3.39313 0
M  V30 80 C 6.7795 -4.20134 2.75305 0
M  V30 81 C 8.7735 -4.31069 4.6953 0
M  V30 82 C 6.4605 -4.56971 4.05735 0
M  V30 83 C 7.4585 -4.62411 5.02658 0
M  V30 84 O 7.1465 -4.98403 6.30754 0
M  V30 85 H 6.8785 -0.621824 0.265162 0
M  V30 86 H 9.4325 -1.53867 1.36066 0
M  V30 87 H 7.6625 -3.85639 0.286198 0
M  V30 88 H 9.3515 -4.0018 0.679021 0
M  V30 89 H 10.1175 -3.69357 3.14325 0
M  V30 90 H 5.9965 -4.1509 2.00551 0
M  V30 91 H 9.5405 -4.3523 5.45179 0
M  V30 92 H 5.4375 -4.80977 4.30502 0
M  V30 93 H 6.2055 -5.16395 6.35042 0
M  V30 94 N 8.8686 -0.792821 -1.36206 0
M  V30 95 C 10.1146 -0.376415 -1.99887 0
M  V30 96 C 10.4696 1.04127 -1.61788 0
M  V30 97 O 9.7626 1.71004 -0.864193 0
M  V30 98 C 9.9566 -0.481501 -3.54142 0
M  V30 99 C 9.7856 -1.90786 -4.07223 0
M  V30 100 C 8.5556 -2.53322 -4.37214 0
M  V30 101 C 10.7536 -2.87048 -4.26741 0
M  V30 102 N 8.7356 -3.8751 -4.7614 0
M  V30 103 C 10.1066 -4.06077 -4.6851 0
M  V30 104 C 12.1616 -2.8406 -4.08918 0
M  V30 105 C 10.8646 -5.22532 -4.94321 0
M  V30 106 C 12.8906 -3.99705 -4.35878 0
M  V30 107 C 12.2526 -5.1748 -4.77906 0
M  V30 108 H 8.3516 -0.185226 -0.759747 0
M  V30 109 H 10.9356 -1.03114 -1.65153 0
M  V30 110 H 9.1066 0.143154 -3.88136 0
M  V30 111 H 10.8386 -0.0410128 -4.04679 0
M  V30 112 H 7.5936 -2.04777 -4.2704 0
M  V30 113 H 8.0176 -4.5656 -4.99882 0
M  V30 114 H 12.6596 -1.94165 -3.75579 0
M  V30 115 H 10.3776 -6.1301 -5.2654 0
M  V30 116 H 13.9636 -3.98758 -4.23655 0
M  V30 117 H 12.8436 -6.05478 -4.98363 0
M  V30 118 N 10.3467 1.47872 -0.545128 0
M  V30 119 C 11.5747 2.06889 -0.021084 0
M  V30 120 C 11.9897 1.39955 1.2672 0
M  V30 121 O 11.3467 0.492036 1.75742 0
M  V30 122 C 11.3977 3.60996 0.190817 0
M  V30 123 O 11.1187 4.25419 -1.04644 0
M  V30 124 C 12.6197 4.36849 0.753521 0
M  V30 125 H 9.8397 0.669785 -0.0403635 0
M  V30 126 H 12.3837 1.90049 -0.755095 0
M  V30 127 H 10.5387 3.77391 0.87492 0
M  V30 128 H 10.9527 5.17785 -0.836611 0
M  V30 129 H 12.4267 5.45399 0.851139 0
M  V30 130 H 12.9037 4.02306 1.762 0
M  V30 131 H 13.5097 4.25169 0.105503 0
M  V30 132 N 11.8248 0.280983 1.55075 0
M  V30 133 C 12.7548 -0.597469 2.25727 0
M  V30 134 C 13.7358 -1.15417 1.24952 0
M  V30 135 O 14.9208 -1.18722 1.53684 0
M  V30 136 C 12.0508 -1.7789 2.98283 0
M  V30 137 C 11.0048 -1.35347 4.06036 0
M  V30 138 C 10.3308 -2.61846 4.66198 0
M  V30 139 C 11.6308 -0.499354 5.19907 0
M  V30 140 H 13.3248 -0.00824265 2.99399 0
M  V30 141 H 10.8708 -0.0025244 1.44 0
M  V30 142 H 12.8238 -2.39937 3.46422 0
M  V30 143 H 11.5478 -2.39405 2.22155 0
M  V30 144 H 10.2068 -0.756156 3.58717 0
M  V30 145 H 9.8548 -3.21632 3.86732 0
M  V30 146 H 9.5548 -2.3409 5.38958 0
M  V30 147 H 11.0788 -3.24732 5.1709 0
M  V30 148 H 12.4928 -1.02498 5.64063 0
M  V30 149 H 10.8898 -0.316424 5.99265 0
M  V30 150 H 11.9598 0.480459 4.82514 0
M  V30 151 N 13.3029 -1.57598 0.00835791 0
M  V30 152 C 14.2329 -2.1198 -0.979113 0
M  V30 153 C 15.2139 -1.03091 -1.35301 0
M  V30 154 O 16.3989 -1.30818 -1.43528 0
M  V30 155 C 13.5289 -2.62995 -2.26828 0
M  V30 156 C 12.4829 -3.76485 -2.03576 0
M  V30 157 C 11.8089 -4.13846 -3.38579 0
M  V30 158 C 13.1089 -5.0342 -1.39161 0
M  V30 159 H 14.8029 -2.94738 -0.526281 0
M  V30 160 H 12.3489 -1.41783 -0.251704 0
M  V30 161 H 14.3019 -2.99669 -2.96271 0
M  V30 162 H 13.0259 -1.7737 -2.7424 0
M  V30 163 H 11.6849 -3.40217 -1.36557 0
M  V30 164 H 11.3329 -3.25232 -3.83709 0
M  V30 165 H 11.0329 -4.90312 -3.23834 0
M  V30 166 H 12.5569 -4.53086 -4.09323 0
M  V30 167 H 13.9709 -5.37812 -1.98573 0
M  V30 168 H 12.3679 -5.84746 -1.34878 0
M  V30 169 H 13.4379 -4.83548 -0.361868 0
M  V30 170 N 14.781 0.264519 -1.55364 0
M  V30 171 C 16.027 0.99646 -1.76631 0
M  V30 172 C 16.36 1.85632 -0.570478 0
M  V30 173 O 15.635 1.89647 0.43175 0
M  V30 174 C 15.918 1.87187 -3.07625 0
M  V30 175 C 15.771 1.04138 -4.37579 0
M  V30 176 C 17.09 2.85749 -3.34717 0
M  V30 177 H 14.209 0.360841 -0.642622 0
M  V30 178 H 16.851 0.268218 -1.88097 0
M  V30 179 H 15.001 2.49279 -2.9798 0
M  V30 180 H 16.673 0.440517 -4.59192 0
M  V30 181 H 14.916 0.345115 -4.32425 0
M  V30 182 H 15.587 1.68729 -5.2558 0
M  V30 183 H 18.063 2.33793 -3.4421 0
M  V30 184 H 16.939 3.44136 -4.27623 0
M  V30 185 H 17.2 3.61311 -2.54768 0
M  V30 186 N 16.2591 1.48442 0.529413 0
M  V30 187 C 17.1891 1.65902 1.64313 0
M  V30 188 C 18.1701 0.507897 1.6234 0
M  V30 189 O 19.3551 0.740503 1.79528 0
M  V30 190 C 16.4851 1.69911 3.02898 0
M  V30 191 C 15.4391 2.8453 3.19729 0
M  V30 192 C 14.7651 2.73629 4.59381 0
M  V30 193 C 16.0651 4.25821 3.02447 0
M  V30 194 H 17.7591 2.5914 1.49955 0
M  V30 195 H 15.3051 1.24709 0.719982 0
M  V30 196 H 17.2581 1.80715 3.80684 0
M  V30 197 H 15.9821 0.732524 3.18279 0
M  V30 198 H 14.6411 2.73283 2.44361 0
M  V30 199 H 14.2891 1.74938 4.71599 0
M  V30 200 H 13.9891 3.50541 4.71588 0
M  V30 201 H 15.5131 2.86401 5.39265 0
M  V30 202 H 16.9271 4.37898 3.70024 0
M  V30 203 H 15.3241 5.03735 3.26146 0
M  V30 204 H 16.3941 4.42244 1.98867 0
M  V30 205 N 17.7372 -0.778329 1.37039 0
M  V30 206 C 19.1482 -1.35421 1.28523 0
M  V30 207 C 19.4992 -1.96075 -0.0700901 0
M  V30 208 O 18.6242 -1.93352 -0.971801 0
M  V30 209 C 19.2192 -2.46211 2.32735 0
M  V30 210 C 17.7782 -2.99585 2.27873 0
M  V30 211 C 16.9252 -1.72748 2.16918 0
M  V30 212 H 19.8762 -0.5791 1.47757 0
M  V30 213 H 19.8972 -3.2552 1.9702 0
M  V30 214 H 19.4092 -2.02036 3.31365 0
M  V30 215 H 17.5102 -3.48152 1.32745 0
M  V30 216 H 17.6232 -3.55646 3.21018 0
M  V30 217 H 15.9872 -1.95416 1.63354 0
M  V30 218 H 16.7702 -1.30686 3.17452 0
M  V30 219 N 19.2153 -1.21501 -1.00376 0
M  V30 220 C 20.1783 -0.976927 -2.07337 0
M  V30 221 C 21.1783 0.0525322 -1.60714 0
M  V30 222 O 22.3683 -0.184869 -1.73216 0
M  V30 223 C 19.5003 -0.473423 -3.37597 0
M  V30 224 H 20.6933 -1.92587 -2.29892 0
M  V30 225 H 18.2463 -1.03217 -1.17371 0
M  V30 226 H 18.9813 0.480379 -3.20722 0
M  V30 227 H 18.7663 -1.216 -3.72768 0
M  V30 228 H 20.2563 -0.32675 -4.1632 0
M  V30 229 N 20.6934 1.19889 -1.02296 0
M  V30 230 C 21.6234 2.25141 -0.619174 0
M  V30 231 C 22.6044 1.66051 0.368915 0
M  V30 232 O 23.7894 1.92546 0.252941 0
M  V30 233 C 20.9194 3.4728 0.0368783 0
M  V30 234 C 19.8734 4.19005 -0.872865 0
M  V30 235 C 19.1994 5.34637 -0.0822402 0
M  V30 236 C 20.4994 4.74452 -2.18387 0
M  V30 237 H 22.1934 2.59171 -1.49903 0
M  V30 238 H 19.7394 1.24579 -0.722222 0
M  V30 239 H 21.6924 4.20098 0.330958 0
M  V30 240 H 20.4164 3.12433 0.95149 0
M  V30 241 H 19.0754 3.48061 -1.15105 0
M  V30 242 H 18.7234 4.96034 0.83422 0
M  V30 243 H 18.4234 5.83557 -0.688149 0
M  V30 244 H 19.9474 6.10255 0.205238 0
M  V30 245 H 21.3614 5.39055 -1.95172 0
M  V30 246 H 19.7584 5.33834 -2.74119 0
M  V30 247 H 20.8284 3.92844 -2.84257 0
M  V30 248 N 22.1715 0.800033 1.35784 0
M  V30 249 C 23.1015 0.220184 2.3246 0
M  V30 250 C 24.0825 -0.65073 1.57161 0
M  V30 251 O 25.2675 -0.582359 1.85263 0
M  V30 252 C 22.3975 -0.637353 3.41402 0
M  V30 253 C 21.3515 0.134531 4.27789 0
M  V30 254 C 20.6775 -0.844285 5.27992 0
M  V30 255 C 21.9775 1.32979 5.05088 0
M  V30 256 H 23.6715 1.02787 2.81203 0
M  V30 257 H 21.2175 0.495717 1.35199 0
M  V30 258 H 23.1705 -1.05302 4.08031 0
M  V30 259 H 21.8945 -1.47785 2.91251 0
M  V30 260 H 20.5535 0.531296 3.6273 0
M  V30 261 H 20.2015 -1.68011 4.74111 0
M  V30 262 H 19.9015 -0.332184 5.8666 0
M  V30 263 H 21.4255 -1.2583 5.97494 0
M  V30 264 H 22.8395 0.98934 5.64699 0
M  V30 265 H 21.2365 1.77593 5.7322 0
M  V30 266 H 22.3065 2.11978 4.36111 0
M  V30 267 N 23.6496 -1.47581 0.552962 0
M  V30 268 C 24.8956 -2.02782 0.0273648 0
M  V30 269 C 25.2286 -1.42687 -1.31734 0
M  V30 270 O 24.5036 -0.580897 -1.85623 0
M  V30 271 C 24.7866 -3.60031 -0.0702371 0
M  V30 272 C 24.6396 -4.30566 1.30126 0
M  V30 273 C 25.9586 -4.33028 -0.785771 0
M  V30 274 H 23.0776 -0.736912 0.0114185 0
M  V30 275 H 25.7196 -1.76056 0.714432 0
M  V30 276 H 23.8696 -3.82932 -0.655382 0
M  V30 277 H 25.5416 -4.19018 1.92929 0
M  V30 278 H 23.7846 -3.91086 1.87709 0
M  V30 279 H 24.4556 -5.39114 1.18573 0
M  V30 280 H 26.9316 -4.15095 -0.288982 0
M  V30 281 H 25.8076 -5.42695 -0.823013 0
M  V30 282 H 26.0686 -4.01945 -1.841 0
M  V30 283 N 25.1277 -0.289203 -1.54924 0
M  V30 284 C 26.3737 0.316922 -2.00916 0
M  V30 285 C 26.7287 1.52424 -1.17408 0
M  V30 286 O 26.0217 1.90097 -0.239536 0
M  V30 287 C 26.2157 0.736119 -3.49737 0
M  V30 288 C 26.0447 -0.429036 -4.47649 0
M  V30 289 C 24.8147 -0.917311 -4.96904 0
M  V30 290 C 27.0127 -1.27016 -4.98369 0
M  V30 291 N 24.9947 -2.05046 -5.78644 0
M  V30 292 C 26.3657 -2.25097 -5.77695 0
M  V30 293 C 28.4207 -1.30188 -4.80578 0
M  V30 294 C 27.1237 -3.26114 -6.41126 0
M  V30 295 C 29.1497 -2.30057 -5.44819 0
M  V30 296 C 28.5117 -3.2687 -6.23968 0
M  V30 297 H 24.6107 0.0807535 -0.777819 0
M  V30 298 H 27.1947 -0.416434 -1.90194 0
M  V30 299 H 25.3657 1.43867 -3.60773 0
M  V30 300 H 27.0977 1.32078 -3.82541 0
M  V30 301 H 23.8527 -0.494248 -4.71014 0
M  V30 302 H 24.2767 -2.62108 -6.24202 0
M  V30 303 H 28.9187 -0.567163 -4.18979 0
M  V30 304 H 26.6367 -4.00512 -7.01866 0
M  V30 305 H 30.2227 -2.33271 -5.32988 0
M  V30 306 H 29.1027 -4.02883 -6.72796 0
M  V30 307 N 26.6058 1.57591 -0.0167156 0
M  V30 308 C 28.0218 1.55946 0.339557 0
M  V30 309 C 28.2218 1.02109 1.73713 0
M  V30 310 O 27.2778 0.662303 2.43659 0
M  V30 311 C 28.5908 3.00037 0.199499 0
M  V30 312 C 30.1388 3.11805 0.273193 0
M  V30 313 C 30.6138 4.57713 0.162068 0
M  V30 314 N 32.1048 4.6268 0.219444 0
M  V30 315 C 32.8398 5.73185 0.157054 0
M  V30 316 N 32.3358 6.92786 0.0442936 0
M  V30 317 N 34.1288 5.61707 0.21014 0
M  V30 318 H 26.2798 1.90921 -0.930758 0
M  V30 319 H 28.5428 0.877674 -0.358319 0
M  V30 320 H 28.2488 3.4333 -0.76273 0
M  V30 321 H 28.1228 3.64387 0.974786 0
M  V30 322 H 30.5098 2.68433 1.22587 0
M  V30 323 H 30.5908 2.50201 -0.532256 0
M  V30 324 H 30.2348 5.01763 -0.78714 0
M  V30 325 H 30.1648 5.17283 0.986222 0
M  V30 326 H 32.6558 3.76649 0.307246 0
M  V30 327 H 32.9688 7.728 0.00304069 0
M  V30 328 H 31.3138 6.94999 0.00968457 0
M  V30 329 H 34.5048 4.6716 0.296546 0
M  V30 330 H 34.6778 6.47807 0.158054 0
M  V30 331 N 28.0839 -0.256276 1.55502 0
M  V30 332 C 29.3319 -0.983672 1.76545 0
M  V30 333 C 29.6529 -1.86206 0.578982 0
M  V30 334 O 28.9229 -1.91656 -0.405577 0
M  V30 335 H 27.5029 -0.366191 0.651086 0
M  V30 336 H 30.1649 -0.276479 1.92929 0
M  V30 337 H 29.2609 -1.61087 2.67315 0
M  V30 338 N 29.562 -1.4872 -0.521534 0
M  V30 339 C 30.973 -1.50607 -1.10337 0
M  V30 340 C 31.324 -0.280612 -1.94183 0
M  V30 341 O 30.449 0.611507 -2.0758 0
M  V30 342 C 31.044 -2.72903 -2.00772 0
M  V30 343 C 29.603 -2.77634 -2.54158 0
M  V30 344 C 28.75 -2.44241 -1.31307 0
M  V30 345 H 31.701 -1.55714 -0.306388 0
M  V30 346 H 31.722 -2.519 -2.85178 0
M  V30 347 H 31.234 -3.62077 -1.39721 0
M  V30 348 H 29.335 -1.92689 -3.18907 0
M  V30 349 H 29.448 -3.79283 -2.92714 0
M  V30 350 H 27.812 -1.95577 -1.63161 0
M  V30 351 H 28.595 -3.35666 -0.719943 0
M  V30 352 N 31.0401 0.771051 -1.3745 0
M  V30 353 C 32.0031 1.86598 -1.33093 0
M  V30 354 C 33.0031 1.59076 -0.234845 0
M  V30 355 O 34.1931 1.67145 -0.490732 0
M  V30 356 C 31.3251 3.23747 -1.06773 0
M  V30 357 H 32.5181 1.91873 -2.30488 0
M  V30 358 H 30.0711 0.970876 -1.2249 0
M  V30 359 H 30.8061 3.24148 -0.099129 0
M  V30 360 H 30.5911 3.45115 -1.86112 0
M  V30 361 H 32.0811 4.03824 -1.06377 0
M  V30 362 N 32.5182 1.22032 0.997298 0
M  V30 363 C 33.9292 1.0397 1.55071 0
M  V30 364 C 34.2802 -0.398192 1.92117 0
M  V30 365 O 33.4052 -1.28254 1.74298 0
M  V30 366 C 34.0002 1.88109 2.81781 0
M  V30 367 C 32.5592 1.74357 3.33581 0
M  V30 368 C 31.7062 1.84846 2.06706 0
M  V30 369 H 34.6572 1.35941 0.818883 0
M  V30 370 H 34.6782 1.39589 3.53971 0
M  V30 371 H 34.1902 2.92754 2.54787 0
M  V30 372 H 32.2912 0.72427 3.65493 0
M  V30 373 H 32.4042 2.56772 4.04481 0
M  V30 374 H 30.7682 1.28238 2.20062 0
M  V30 375 H 31.5512 2.91014 1.82114 0
M  V30 376 N 33.9963 -1.19345 1.0293 0
M  V30 377 C 35.2213 -1.93538 0.745511 0
M  V30 378 C 35.6463 -1.75007 -0.689511 0
M  V30 379 O 35.0043 -1.05265 -1.47611 0
M  V30 380 C 35.0523 -3.43336 1.10239 0
M  V30 381 O 34.1563 -4.11806 0.221289 0
M  V30 382 H 33.4973 -0.604193 0.275404 0
M  V30 383 H 36.0273 -1.5141 1.37609 0
M  V30 384 H 36.0373 -3.94004 1.05947 0
M  V30 385 H 34.7123 -3.56146 2.14786 0
M  V30 386 H 33.2893 -3.715 0.322842 0
M  V30 387 N 35.4744 -0.807222 -1.35358 0
M  V30 388 C 36.4374 -0.223665 -2.28106 0
M  V30 389 C 37.4374 0.589354 -1.4961 0
M  V30 390 O 38.6274 0.407745 -1.69361 0
M  V30 391 C 35.7594 0.688149 -3.33882 0
M  V30 392 H 36.9524 -1.04169 -2.81227 0
M  V30 393 H 34.5054 -0.577921 -1.45223 0
M  V30 394 H 35.2404 1.52984 -2.85948 0
M  V30 395 H 35.0254 0.10687 -3.91954 0
M  V30 396 H 36.5154 1.09075 -4.03104 0
M  V30 397 N 36.9525 1.47285 -0.560781 0
M  V30 398 C 37.9155 2.28535 0.174488 0
M  V30 399 C 38.9155 1.37153 0.839388 0
M  V30 400 O 40.1055 1.59748 0.694702 0
M  V30 401 C 37.2375 3.16934 1.25561 0
M  V30 402 H 38.4305 2.95012 -0.539262 0
M  V30 403 H 35.9835 1.53034 -0.317865 0
M  V30 404 H 36.7185 2.55157 2.00164 0
M  V30 405 H 36.5035 3.8419 0.783604 0
M  V30 406 H 37.9935 3.78143 1.77193 0
M  V30 407 N 38.4306 0.297415 1.54768 0
M  V30 408 C 39.3936 -0.567375 2.22066 0
M  V30 409 C 40.3936 -1.06409 1.20556 0
M  V30 410 O 41.5836 -0.960691 1.45315 0
M  V30 411 C 38.7156 -1.78517 2.90421 0
M  V30 412 H 39.9086 0.0205534 2.99893 0
M  V30 413 H 37.4616 0.0482163 1.56226 0
M  V30 414 H 38.1966 -2.41303 2.16664 0
M  V30 415 H 37.9816 -1.43669 3.64831 0
M  V30 416 H 39.4716 -2.39964 3.41771 0
M  V30 417 N 39.9087 -1.5758 0.0250728 0
M  V30 418 C 40.8187 -2.1343 -0.973905 0
M  V30 419 C 41.8347 -1.08556 -1.35984 0
M  V30 420 O 43.0107 -1.40592 -1.44207 0
M  V30 421 C 40.0757 -2.64703 -2.23904 0
M  V30 422 C 39.1367 -3.84276 -1.91391 0
M  V30 423 C 38.3697 -4.33095 -3.11873 0
M  V30 424 O 38.5927 -3.81107 -4.24398 0
M  V30 425 O 37.5267 -5.24984 -2.94406 0
M  V30 426 H 41.3527 -2.99057 -0.529036 0
M  V30 427 H 38.9377 -1.48118 -0.195288 0
M  V30 428 H 40.8197 -2.97769 -2.98181 0
M  V30 429 H 39.4947 -1.82161 -2.6758 0
M  V30 430 H 38.4017 -3.56143 -1.14511 0
M  V30 431 H 39.7347 -4.67968 -1.52534 0
M  V30 432 N 41.3868 0.248026 -1.55636 0
M  V30 433 C 42.3338 1.30707 -1.90222 0
M  V30 434 C 43.3038 1.47881 -0.756332 0
M  V30 435 O 44.4888 1.61883 -1.00988 0
M  V30 436 C 41.6288 2.65769 -2.20138 0
M  V30 437 C 40.7418 2.56612 -3.47526 0
M  V30 438 C 39.8768 3.8402 -3.67017 0
M  V30 439 C 38.9158 3.69476 -4.8801 0
M  V30 440 N 38.0528 4.88774 -5.04029 0
M  V30 441 H 42.8928 1.00512 -2.80538 0
M  V30 442 H 40.4298 0.485055 -1.38873 0
M  V30 443 H 42.3878 3.44386 -2.35487 0
M  V30 444 H 41.0178 2.94115 -1.33027 0
M  V30 445 H 40.0698 1.69571 -3.40514 0
M  V30 446 H 41.3818 2.41774 -4.36287 0
M  V30 447 H 40.5358 4.7108 -3.8232 0
M  V30 448 H 39.2748 4.01754 -2.76487 0
M  V30 449 H 38.2798 2.80799 -4.72686 0
M  V30 450 H 39.5048 3.53238 -5.8 0
M  V30 451 H 37.4508 5.0687 -4.16435 0
M  V30 452 H 37.3678 4.76562 -5.86877 0
M  V30 453 H 38.6358 5.77335 -5.23741 0
M  V30 454 N 42.8649 1.48995 0.513639 0
M  V30 455 C 44.1129 1.57531 1.26604 0
M  V30 456 C 44.4339 0.258236 1.93283 0
M  V30 457 O 43.7039 -0.721502 1.8213 0
M  V30 458 H 42.2839 0.580387 0.470276 0
M  V30 459 H 44.9459 1.85552 0.596373 0
M  V30 460 H 44.0419 2.36486 2.03669 0
M  V30 461 N 44.343 -0.763751 1.37857 0
M  V30 462 C 45.754 -1.3405 1.29952 0
M  V30 463 C 46.105 -1.96138 -0.0492898 0
M  V30 464 O 45.23 -1.94372 -0.951239 0
M  V30 465 C 45.825 -2.43729 2.35333 0
M  V30 466 C 44.384 -2.97151 2.31037 0
M  V30 467 C 43.531 -1.70438 2.18738 0
M  V30 468 H 46.482 -0.563396 1.48363 0
M  V30 469 H 46.503 -3.23412 2.00462 0
M  V30 470 H 46.015 -1.9851 3.33489 0
M  V30 471 H 44.116 -3.46724 1.3643 0
M  V30 472 H 44.229 -3.52221 3.24772 0
M  V30 473 H 42.593 -1.93673 1.65418 0
M  V30 474 H 43.376 -1.27312 3.18821 0
M  V30 475 N 45.8211 -1.22559 -0.990812 0
M  V30 476 C 47.2321 -1.04791 -1.54518 0
M  V30 477 C 47.5831 0.387998 -1.92325 0
M  V30 478 O 46.7081 1.27328 -1.74976 0
M  V30 479 C 47.3031 -1.896 -2.80779 0
M  V30 480 C 45.8621 -1.76124 -3.32652 0
M  V30 481 C 45.0091 -1.8594 -2.05722 0
M  V30 482 H 47.9601 -1.36374 -0.811662 0
M  V30 483 H 47.9811 -1.41464 -3.53225 0
M  V30 484 H 47.4931 -2.94101 -2.53231 0
M  V30 485 H 45.5941 -0.743643 -3.65104 0
M  V30 486 H 45.7071 -2.58913 -4.03114 0
M  V30 487 H 44.0711 -1.29403 -2.19379 0
M  V30 488 H 44.8541 -2.91976 -1.80568 0
M  V30 489 N 47.2992 1.18797 -1.03562 0
M  V30 490 C 48.2622 2.20464 -0.626769 0
M  V30 491 C 49.2622 1.57721 0.313173 0
M  V30 492 O 50.4522 1.73917 0.0992615 0
M  V30 493 C 47.5842 3.40802 0.0818498 0
M  V30 494 H 48.7772 2.58149 -1.5264 0
M  V30 495 H 46.3302 1.32593 -0.827578 0
M  V30 496 H 47.0652 3.08642 0.995518 0
M  V30 497 H 46.8502 3.8758 -0.593652 0
M  V30 498 H 48.3402 4.16092 0.354584 0
M  V30 499 N 48.7773 0.814389 1.34928 0
M  V30 500 C 49.7073 0.244827 2.32213 0
M  V30 501 C 50.6883 -0.634024 1.57842 0
M  V30 502 O 51.8733 -0.562676 1.8587 0
M  V30 503 C 49.0033 -0.601106 3.42058 0
M  V30 504 C 47.9573 0.179896 4.27622 0
M  V30 505 C 47.2833 -0.788237 5.28858 0
M  V30 506 C 48.5833 1.38329 5.03649 0
M  V30 507 H 50.2773 1.05763 2.80097 0
M  V30 508 H 47.8233 0.510029 1.34665 0
M  V30 509 H 49.7763 -1.00968 4.09125 0
M  V30 510 H 48.5003 -1.44688 2.92802 0
M  V30 511 H 47.1593 0.569739 3.62146 0
M  V30 512 H 46.8073 -1.62973 4.75866 0
M  V30 513 H 46.5073 -0.269942 5.8698 0
M  V30 514 H 48.0313 -1.19485 5.98795 0
M  V30 515 H 49.4453 1.04918 5.63618 0
M  V30 516 H 47.8423 1.83662 5.71304 0
M  V30 517 H 48.9123 2.16592 4.33839 0
M  V30 518 N 50.2554 -1.46986 0.568584 0
M  V30 519 C 51.2034 -2.31858 -0.185649 0
M  V30 520 C 52.1974 -1.43624 -0.898249 0
M  V30 521 O 53.4034 -1.60327 -0.818242 0
M  V30 522 H 49.7784 -0.747866 -0.0787399 0
M  V30 523 H 51.7494 -2.93303 0.549191 0
M  V30 524 C 50.4984 -3.26513 -1.19519 0
M  V30 525 H 49.8214 -3.94377 -0.656285 0
M  V30 526 H 51.2614 -3.88707 -1.6936 0
M  V30 527 C 49.7204 -2.50847 -2.24894 0
M  V30 528 O 50.2504 -2.26119 -3.32014 0
M  V30 529 N 48.4564 -2.11656 -1.99124 0
M  V30 530 H 48.0034 -2.31966 -1.12024 0
M  V30 531 H 47.9614 -1.61347 -2.69842 0
M  V30 532 N 51.7335 -0.305618 -1.54608 0
M  V30 533 C 52.9825 0.303098 -1.9941 0
M  V30 534 C 53.2955 1.54648 -1.19764 0
M  V30 535 O 54.5015 2.23007 -1.54855 0
M  V30 536 C 52.9575 0.590588 -3.55021 0
M  V30 537 C 52.5655 -0.634719 -4.43481 0
M  V30 538 C 54.3095 1.16025 -4.08336 0
M  V30 539 C 52.2165 -0.320126 -5.90533 0
M  V30 540 H 51.1465 0.117031 -0.744862 0
M  V30 541 H 53.7975 -0.415045 -1.78745 0
M  V30 542 H 52.1795 1.36845 -3.71604 0
M  V30 543 H 53.3535 -1.41079 -4.38672 0
M  V30 544 H 51.6685 -1.12333 -4.00962 0
M  V30 545 H 54.2655 1.40994 -5.15776 0
M  V30 546 H 54.6085 2.10397 -3.5922 0
M  V30 547 H 55.1415 0.443985 -3.95315 0
M  V30 548 H 51.8805 -1.23254 -6.43808 0
M  V30 549 H 51.4005 0.418579 -5.98338 0
M  V30 550 H 53.0795 0.0766241 -6.46955 0
M  V30 551 N 53.2116 1.57565 -0.0334293 0
M  V30 552 C 54.1746 2.09393 0.932048 0
M  V30 553 C 55.1746 1.00986 1.25134 0
M  V30 554 O 56.3646 1.27129 1.19096 0
M  V30 555 C 53.4966 2.56338 2.2473 0
M  V30 556 H 54.6896 2.95984 0.483085 0
M  V30 557 H 52.2426 1.54819 0.21468 0
M  V30 558 H 52.9776 1.7309 2.74245 0
M  V30 559 H 52.7626 3.35542 2.02865 0
M  V30 560 H 54.2526 2.96646 2.93923 0
M  V30 561 N 54.6897 -0.239769 1.55765 0
M  V30 562 C 55.9357 -0.968234 1.78194 0
M  V30 563 C 56.2687 -1.84701 0.599938 0
M  V30 564 O 55.5437 -1.9031 -0.401524 0
M  V30 565 C 55.8267 -1.8227 3.10564 0
M  V30 566 C 55.6797 -0.971633 4.3918 0
M  V30 567 C 56.9987 -2.80388 3.39221 0
M  V30 568 H 54.1177 -0.350572 0.648281 0
M  V30 569 H 56.7597 -0.238259 1.885 0
M  V30 570 H 54.9097 -2.44507 3.01908 0
M  V30 571 H 56.5817 -0.367408 4.59835 0
M  V30 572 H 54.8247 -0.276276 4.32919 0
M  V30 573 H 55.4957 -1.60346 5.28198 0
M  V30 574 H 57.9717 -2.28287 3.47885 0
M  V30 575 H 56.8477 -3.3729 4.33044 0
M  V30 576 H 57.1087 -3.57212 2.60484 0
M  V30 577 N 56.1678 -1.49265 -0.50573 0
M  V30 578 C 57.1008 -1.60183 -1.62532 0
M  V30 579 C 58.0788 -0.451107 -1.56217 0
M  V30 580 O 59.2628 -0.666016 -1.76342 0
M  V30 581 C 56.3898 -1.55238 -3.01029 0
M  V30 582 C 55.4358 -2.7545 -3.25621 0
M  V30 583 S 56.2688 -4.37174 -3.09256 0
M  V30 584 C 57.4248 -4.34866 -4.50158 0
M  V30 585 H 57.6578 -2.54894 -1.53025 0
M  V30 586 H 55.1908 -1.38098 -0.690535 0
M  V30 587 H 57.1488 -1.53071 -3.80893 0
M  V30 588 H 55.8098 -0.618238 -3.07956 0
M  V30 589 H 55.0028 -2.68197 -4.26716 0
M  V30 590 H 54.6048 -2.75005 -2.53472 0
M  V30 591 H 56.8968 -4.06295 -5.42154 0
M  V30 592 H 57.8398 -5.36223 -4.62462 0
M  V30 593 H 58.2478 -3.65007 -4.30616 0
M  V30 594 N 57.6459 0.756429 -1.3826 0
M  V30 595 C 58.5759 1.88374 -1.37976 0
M  V30 596 C 59.5569 1.68311 -0.246082 0
M  V30 597 O 60.7419 1.88944 -0.44874 0
M  V30 598 C 57.8719 3.25864 -1.20125 0
M  V30 599 C 56.8259 3.60523 -2.30666 0
M  V30 600 C 56.1519 4.9672 -1.97923 0
M  V30 601 C 57.4519 3.65692 -3.72916 0
M  V30 602 H 59.1459 1.88869 -2.32312 0
M  V30 603 H 56.6919 0.907272 -1.11824 0
M  V30 604 H 58.6449 4.0438 -1.18552 0
M  V30 605 H 57.3689 3.25841 -0.222498 0
M  V30 606 H 56.0279 2.84324 -2.3142 0
M  V30 607 H 55.6759 4.93253 -0.985393 0
M  V30 608 H 55.3759 5.20878 -2.71955 0
M  V30 609 H 56.8999 5.77618 -1.97964 0
M  V30 610 H 58.3139 4.34328 -3.74208 0
M  V30 611 H 56.7109 4.01358 -4.4613 0
M  V30 612 H 57.7809 2.65987 -4.05436 0
M  V30 613 N 59.124 1.23083 0.984299 0
M  V30 614 C 60.372 1.05848 1.72165 0
M  V30 615 C 60.693 -0.406049 1.90726 0
M  V30 616 O 59.963 -1.29139 1.47309 0
M  V30 617 H 58.543 0.388685 0.637913 0
M  V30 618 H 61.205 1.54736 1.18503 0
M  V30 619 H 60.301 1.54327 2.71274 0
M  V30 620 N 60.6021 -1.18246 1.0419 0
M  V30 621 C 61.5521 -2.19843 0.604392 0
M  V30 622 C 62.5361 -1.56962 -0.353814 0
M  V30 623 O 63.7281 -1.76156 -0.17267 0
M  V30 624 C 60.8571 -3.43287 -0.0298975 0
M  V30 625 C 59.9431 -4.13288 0.951531 0
M  V30 626 N 60.3341 -4.59271 2.11906 0
M  V30 627 C 58.6321 -4.39165 0.7778 0
M  V30 628 C 59.3331 -5.13173 2.73912 0
M  V30 629 N 58.3091 -5.04763 2.01779 0
M  V30 630 H 62.1111 -2.53089 1.4941 0
M  V30 631 H 59.6251 -1.34465 0.910658 0
M  V30 632 H 61.6221 -4.15334 -0.361037 0
M  V30 633 H 60.2821 -3.11537 -0.915127 0
M  V30 634 H 61.2931 -4.5368 2.49789 0
M  V30 635 H 57.9701 -4.17461 -0.0572331 0
M  V30 636 H 59.3601 -5.58947 3.72864 0
M  V30 637 N 62.0802 -0.821533 -1.34494 0
M  V30 638 C 63.3052 -0.420873 -2.03085 0
M  V30 639 C 63.7302 0.964915 -1.61465 0
M  V30 640 O 63.0882 1.62763 -0.798607 0
M  V30 641 C 63.1362 -0.529414 -3.56693 0
M  V30 642 O 62.2402 0.451302 -4.09923 0
M  V30 643 H 61.5812 -0.173489 -0.640935 0
M  V30 644 H 64.1112 -1.11157 -1.71771 0
M  V30 645 H 64.1212 -0.404671 -4.05988 0
M  V30 646 H 62.7962 -1.54014 -3.86332 0
M  V30 647 H 61.3732 0.285558 -3.71805 0
M  V30 648 N 63.5583 1.46682 -0.576371 0
M  V30 649 C 64.5083 2.27278 0.181288 0
M  V30 650 C 65.4923 1.35497 0.867721 0
M  V30 651 O 66.6843 1.59717 0.762863 0
M  V30 652 C 63.8133 3.21703 1.19841 0
M  V30 653 C 62.8993 4.20969 0.51442 0
M  V30 654 N 63.2903 5.03999 -0.426407 0
M  V30 655 C 61.5883 4.39373 0.765963 0
M  V30 656 C 62.2893 5.75812 -0.825565 0
M  V30 657 N 61.2653 5.43315 -0.176116 0
M  V30 658 H 65.0673 2.88863 -0.541785 0
M  V30 659 H 62.5813 1.57455 -0.397697 0
M  V30 660 H 64.5783 3.78145 1.75533 0
M  V30 661 H 63.2383 2.61677 1.92238 0
M  V30 662 H 64.2493 5.11659 -0.8016 0
M  V30 663 H 60.9263 3.90502 1.47698 0
M  V30 664 H 62.3163 6.52577 -1.59976 0
M  V30 665 N 65.0364 0.313813 1.54444 0
M  V30 666 C 66.3134 -0.345447 1.92525 0
M  V30 667 C 66.6934 -1.70667 1.24242 0
M  V30 668 O 66.0414 -2.25273 0.382654 0
M  V30 669 C 66.2514 -0.44737 3.46121 0
M  V30 670 C 67.5994 -0.712238 4.18584 0
M  V30 671 O 68.6234 -0.530678 3.52225 0
M  V30 672 O 67.4824 -1.06183 5.36085 0
M  V30 673 H 64.5764 -0.195407 0.803583 0
M  V30 674 H 67.1224 0.362813 1.65776 0
M  V30 675 H 65.8944 0.509043 3.87975 0
M  V30 676 H 65.5174 -1.20359 3.78945 0
M  V30 677 N 66.5145 -1.57545 0.0417849 0
M  V30 678 C 67.7605 -1.92601 -0.635021 0
M  V30 679 C 68.0935 -0.919627 -1.71045 0
M  V30 680 O 67.3685 0.0557892 -1.9442 0
M  V30 681 C 67.6515 -3.38085 -1.23979 0
M  V30 682 C 67.5045 -4.49467 -0.173057 0
M  V30 683 C 68.8235 -3.83776 -2.15416 0
M  V30 684 H 65.9425 -0.700397 -0.229374 0
M  V30 685 H 68.5845 -1.89728 0.101633 0
M  V30 686 H 66.7345 -3.40664 -1.86762 0
M  V30 687 H 68.4065 -4.59018 0.458312 0
M  V30 688 H 66.6495 -4.30909 0.499996 0
M  V30 689 H 67.3205 -5.48323 -0.636054 0
M  V30 690 H 69.7965 -3.83013 -1.62605 0
M  V30 691 H 68.6725 -4.8624 -2.54679 0
M  V30 692 H 68.9335 -3.19998 -3.05047 0
M  V30 693 N 67.9926 0.231505 -1.5589 0
M  V30 694 C 69.2206 0.974505 -1.82513 0
M  V30 695 C 69.6356 1.78344 -0.619591 0
M  V30 696 O 68.9926 1.77792 0.411848 0
M  V30 697 C 69.0436 1.90007 -3.07538 0
M  V30 698 O 68.7646 1.12385 -4.2344 0
M  V30 699 C 70.2656 2.75779 -3.47075 0
M  V30 700 H 67.4856 0.286065 -0.606966 0
M  V30 701 H 70.0296 0.249739 -2.02969 0
M  V30 702 H 68.1846 2.57891 -2.89086 0
M  V30 703 H 68.5986 1.75125 -4.944 0
M  V30 704 H 70.0726 3.36443 -4.37619 0
M  V30 705 H 70.5496 3.47672 -2.68367 0
M  V30 706 H 71.1556 2.13323 -3.67931 0
M  V30 707 N 69.4707 1.49531 0.497807 0
M  V30 708 C 70.3807 1.69176 1.62532 0
M  V30 709 C 71.3967 0.5744 1.64246 0
M  V30 710 O 72.5727 0.849497 1.82608 0
M  V30 711 C 69.6377 1.75695 2.98885 0
M  V30 712 C 68.6987 2.9929 3.07773 0
M  V30 713 C 67.9317 3.05488 4.37622 0
M  V30 714 O 68.1547 2.19192 5.26603 0
M  V30 715 O 67.0887 3.9798 4.51548 0
M  V30 716 H 70.9147 2.647 1.48887 0
M  V30 717 H 68.4997 1.3331 0.674441 0
M  V30 718 H 70.3817 1.82317 3.79919 0
M  V30 719 H 69.0567 0.8335 3.12785 0
M  V30 720 H 67.9637 2.98183 2.25915 0
M  V30 721 H 69.2967 3.91125 2.98801 0
M  V30 722 N 70.9488 -0.749086 1.3866 0
M  V30 723 C 72.3648 -1.05276 1.19955 0
M  V30 724 C 72.5648 -2.01435 0.05134 0
M  V30 725 O 71.6208 -2.45232 -0.60147 0
M  V30 726 C 72.9338 -1.62853 2.52783 0
M  V30 727 C 74.4818 -1.75002 2.59506 0
M  V30 728 C 74.9568 -2.35991 3.92521 0
M  V30 729 N 76.4478 -2.43416 3.94085 0
M  V30 730 C 77.1828 -2.91511 4.9377 0
M  V30 731 N 76.6788 -3.39608 6.03853 0
M  V30 732 N 78.4718 -2.90592 4.81157 0
M  V30 733 H 70.6228 -0.111066 2.12109 0
M  V30 734 H 72.8858 -0.111901 0.941373 0
M  V30 735 H 72.5918 -0.99664 3.37283 0
M  V30 736 H 72.4658 -2.61854 2.715 0
M  V30 737 H 74.8528 -2.37317 1.75398 0
M  V30 738 H 74.9338 -0.74693 2.44652 0
M  V30 739 H 74.5778 -1.74308 4.77053 0
M  V30 740 H 74.5078 -3.3695 4.04688 0
M  V30 741 H 76.9988 -2.09405 3.14576 0
M  V30 742 H 77.3118 -3.74775 6.75843 0
M  V30 743 H 75.6568 -3.37653 6.07466 0
M  V30 744 H 78.8478 -2.52332 3.94267 0
M  V30 745 H 79.0208 -3.27762 5.58996 0
M  V30 746 N 72.4269 -1.23603 -0.977757 0
M  V30 747 C 73.3369 -1.03632 -2.1047 0
M  V30 748 C 74.3529 0.0199435 -1.73989 0
M  V30 749 O 75.5289 -0.176076 -2.00629 0
M  V30 750 C 72.5939 -0.63276 -3.40877 0
M  V30 751 C 71.6549 -1.76437 -3.91367 0
M  V30 752 C 70.8879 -1.37997 -5.15551 0
M  V30 753 O 71.1109 -0.265357 -5.69782 0
M  V30 754 O 70.0449 -2.20201 -5.60174 0
M  V30 755 H 73.8709 -1.98086 -2.30208 0
M  V30 756 H 71.4559 -1.02332 -1.08851 0
M  V30 757 H 73.3379 -0.418761 -4.19314 0
M  V30 758 H 72.0129 0.282754 -3.22463 0
M  V30 759 H 70.9199 -2.03304 -3.14036 0
M  V30 760 H 72.2529 -2.6583 -4.14241 0
M  V30 761 N 73.905 1.17692 -1.04816 0
M  V30 762 C 74.835 2.23777 -0.666791 0
M  V30 763 C 75.816 1.66796 0.33361 0
M  V30 764 O 77.001 1.93039 0.212042 0
M  V30 765 C 74.131 3.47281 -0.0367933 0
M  V30 766 C 73.085 4.17059 -0.961546 0
M  V30 767 C 72.411 5.34342 -0.195626 0
M  V30 768 C 73.711 4.69713 -2.28402 0
M  V30 769 H 75.405 2.55933 -1.55367 0
M  V30 770 H 72.951 1.23019 -0.748484 0
M  V30 771 H 74.904 4.20706 0.241775 0
M  V30 772 H 73.628 3.14381 0.885004 0
M  V30 773 H 72.287 3.45541 -1.22462 0
M  V30 774 H 71.935 4.97692 0.728816 0
M  V30 775 H 71.635 5.81966 -0.811775 0
M  V30 776 H 73.159 6.10553 0.0757473 0
M  V30 777 H 74.573 5.34794 -2.06563 0
M  V30 778 H 72.97 5.279 -2.8538 0
M  V30 779 H 74.04 3.86726 -2.92525 0
M  V30 780 N 75.3831 0.828654 1.34056 0
M  V30 781 C 76.7991 0.515135 1.51058 0
M  V30 782 C 76.9991 -0.959581 1.77184 0
M  V30 783 O 76.0551 -1.74382 1.82612 0
M  V30 784 C 77.3681 1.37963 2.67183 0
M  V30 785 C 78.9161 1.37735 2.81066 0
M  V30 786 C 79.3911 2.22645 4.00241 0
M  V30 787 N 80.8821 2.203 4.07458 0
M  V30 788 C 81.6171 2.82744 4.98842 0
M  V30 789 N 81.1131 3.54201 5.9541 0
M  V30 790 N 82.9061 2.72268 4.91759 0
M  V30 791 H 75.0571 1.78343 1.15358 0
M  V30 792 H 77.3201 0.760304 0.566252 0
M  V30 793 H 77.0261 2.42714 2.54525 0
M  V30 794 H 76.9001 1.0484 3.62338 0
M  V30 795 H 79.2871 0.337593 2.93163 0
M  V30 796 H 79.3681 1.74859 1.86703 0
M  V30 797 H 79.0121 3.26674 3.88905 0
M  V30 798 H 78.9421 1.82869 4.93829 0
M  V30 799 H 81.4331 1.68327 3.38341 0
M  V30 800 H 81.7461 3.9908 6.61782 0
M  V30 801 H 80.0911 3.58308 5.95517 0
M  V30 802 H 83.2821 2.16014 4.15278 0
M  V30 803 H 83.4551 3.21219 5.62781 0
M  V30 804 N 76.8612 -1.46375 0.584142 0
M  V30 805 C 78.0892 -2.06761 0.0759296 0
M  V30 806 C 78.5042 -1.43266 -1.22965 0
M  V30 807 O 77.8612 -0.538458 -1.74376 0
M  V30 808 C 77.9122 -3.61375 -0.0950384 0
M  V30 809 O 77.6332 -4.22495 1.15887 0
M  V30 810 C 79.1342 -4.38693 -0.637434 0
M  V30 811 H 76.3542 -0.668479 0.0581075 0
M  V30 812 H 78.8982 -1.8798 0.805218 0
M  V30 813 H 77.0532 -3.79578 -0.774554 0
M  V30 814 H 77.4672 -5.15385 0.973598 0
M  V30 815 H 78.9412 -5.47464 -0.706237 0
M  V30 816 H 79.4182 -4.06836 -1.65472 0
M  V30 817 H 80.0242 -4.25299 0.00725967 0
M  V30 818 N 78.3393 -0.321999 -1.54275 0
M  V30 819 C 79.2693 0.537411 -2.27231 0
M  V30 820 C 80.2503 1.12064 -1.27968 0
M  V30 821 O 81.4353 1.14606 -1.56777 0
M  V30 822 C 78.5653 1.69919 -3.02894 0
M  V30 823 C 77.5193 1.24534 -4.09482 0
M  V30 824 C 76.8453 2.49394 -4.72977 0
M  V30 825 C 78.1453 0.361335 -5.21049 0
M  V30 826 H 79.8393 -0.0711406 -2.99315 0
M  V30 827 H 77.3853 -0.0356555 -1.43956 0
M  V30 828 H 79.3383 2.30668 -3.52662 0
M  V30 829 H 78.0623 2.33431 -2.28424 0
M  V30 830 H 76.7213 0.660782 -3.60596 0
M  V30 831 H 76.3693 3.11265 -3.95124 0
M  V30 832 H 76.0693 2.19718 -5.44975 0
M  V30 833 H 77.5933 3.10908 -5.25517 0
M  V30 834 H 79.0073 0.875072 -5.66582 0
M  V30 835 H 77.4043 0.157428 -5.99893 0
M  V30 836 H 78.4743 -0.60822 -4.8107 0
M  V30 837 N 79.8174 1.5752 -0.0501392 0
M  V30 838 C 81.0634 1.93755 0.618901 0
M  V30 839 C 81.4184 0.928514 1.68512 0
M  V30 840 O 80.7114 -0.0524613 1.91528 0
M  V30 841 C 80.9054 3.34467 1.25963 0
M  V30 842 C 80.7344 4.48965 0.257 0
M  V30 843 C 79.5044 5.05075 -0.150656 0
M  V30 844 C 81.7024 5.11891 -0.497166 0
M  V30 845 N 79.6844 6.03104 -1.14626 0
M  V30 846 C 81.0554 6.05216 -1.34588 0
M  V30 847 C 83.1104 4.9479 -0.55559 0
M  V30 848 C 81.8134 6.83277 -2.24778 0
M  V30 849 C 83.8394 5.73477 -1.44492 0
M  V30 850 C 83.2014 6.66433 -2.28136 0
M  V30 851 H 79.3004 0.756479 0.198149 0
M  V30 852 H 81.8844 1.94316 -0.122229 0
M  V30 853 H 80.0554 3.34685 1.97079 0
M  V30 854 H 81.7874 3.57994 1.88739 0
M  V30 855 H 78.5424 4.7305 0.228094 0
M  V30 856 H 78.9664 6.56813 -1.64092 0
M  V30 857 H 83.6084 4.2273 0.0768625 0
M  V30 858 H 81.3264 7.54629 -2.89069 0
M  V30 859 H 84.9124 5.62273 -1.49468 0
M  V30 860 H 83.7924 7.26258 -2.95835 0
M  V30 861 N 81.2955 -0.223234 1.56011 0
M  V30 862 C 82.5435 -0.946003 1.78592 0
M  V30 863 C 82.8645 -1.84936 0.618349 0
M  V30 864 O 82.1345 -1.92473 -0.364833 0
M  V30 865 H 80.7145 -0.352298 0.658707 0
M  V30 866 H 83.3765 -0.235494 1.93472 0
M  V30 867 H 82.4725 -1.55381 2.70672 0
M  V30 868 N 82.7736 -1.49793 -0.48987 0
M  V30 869 C 84.1846 -1.52914 -1.07118 0
M  V30 870 C 84.5356 -0.321738 -1.93544 0
M  V30 871 O 83.6606 0.567338 -2.08831 0
M  V30 872 C 84.2556 -2.771 -1.94938 0
M  V30 873 C 82.8146 -2.82963 -2.48212 0
M  V30 874 C 81.9616 -2.46972 -1.26096 0
M  V30 875 H 84.9126 -1.56329 -0.273289 0
M  V30 876 H 84.9336 -2.57892 -2.79771 0
M  V30 877 H 84.4456 -3.64959 -1.32009 0
M  V30 878 H 82.5466 -1.99411 -3.14748 0
M  V30 879 H 82.6596 -3.85406 -2.84603 0
M  V30 880 H 81.0236 -1.98994 -1.58976 0
M  V30 881 H 81.8066 -3.37118 -0.648581 0
M  V30 882 N 84.2517 0.741722 -1.39055 0
M  V30 883 C 85.1617 1.88621 -1.39496 0
M  V30 884 C 86.1777 1.71557 -0.290578 0
M  V30 885 O 87.3537 1.94275 -0.530954 0
M  V30 886 C 84.4187 3.24134 -1.23037 0
M  V30 887 C 83.4797 3.5364 -2.43387 0
M  V30 888 C 82.7127 4.82687 -2.27703 0
M  V30 889 O 82.9357 5.55922 -1.27696 0
M  V30 890 O 81.8697 5.1194 -3.16545 0
M  V30 891 H 85.6957 1.91203 -2.35956 0
M  V30 892 H 83.2807 0.888625 -1.20099 0
M  V30 893 H 85.1627 4.0513 -1.15964 0
M  V30 894 H 83.8377 3.22337 -0.296691 0
M  V30 895 H 82.7447 2.72758 -2.56035 0
M  V30 896 H 84.0777 3.60209 -3.35425 0
M  V30 897 N 85.7298 1.2412 0.971189 0
M  V30 898 C 86.6618 0.988349 2.06795 0
M  V30 899 C 87.6748 -0.0409541 1.62748 0
M  V30 900 O 88.8638 0.195673 1.77424 0
M  V30 901 C 85.9638 0.469023 3.35639 0
M  V30 902 C 85.1368 1.56065 4.08611 0
M  V30 903 C 84.1958 1.04458 5.15728 0
M  V30 904 O 83.2218 1.73553 5.42096 0
M  V30 905 N 84.4238 -0.122817 5.8037 0
M  V30 906 H 87.1888 1.93265 2.29061 0
M  V30 907 H 84.7498 1.15102 1.13856 0
M  V30 908 H 86.7418 0.108613 4.04554 0
M  V30 909 H 85.3118 -0.380919 3.1027 0
M  V30 910 H 84.5318 2.09341 3.34021 0
M  V30 911 H 85.8198 2.29449 4.54126 0
M  V30 912 H 85.2178 -0.700563 5.61345 0
M  V30 913 H 83.7748 -0.424404 6.50417 0
M  V30 914 N 87.2079 -1.17134 1.05439 0
M  V30 915 C 88.1709 -2.19439 0.661764 0
M  V30 916 C 89.1709 -1.58199 -0.288042 0
M  V30 917 O 90.3609 -1.74053 -0.0715803 0
M  V30 918 C 87.4929 -3.40889 -0.0276209 0
M  V30 919 H 88.6859 -2.55688 1.56728 0
M  V30 920 H 86.2389 -1.31259 0.848567 0
M  V30 921 H 86.9739 -3.10187 -0.94629 0
M  V30 922 H 86.7589 -3.86586 0.655238 0
M  V30 923 H 88.2489 -4.16603 -0.288342 0
M  V30 924 N 88.686 -0.835752 -1.33615 0
M  V30 925 C 89.649 -0.272 -2.2758 0
M  V30 926 C 90.649 0.557487 -1.50827 0
M  V30 927 O 91.839 0.37173 -1.70188 0
M  V30 928 C 88.971 0.617173 -3.35267 0
M  V30 929 H 90.164 -1.10111 -2.78954 0
M  V30 930 H 87.717 -0.608594 -1.43965 0
M  V30 931 H 88.452 1.46884 -2.89129 0
M  V30 932 H 88.237 0.0237066 -3.92093 0
M  V30 933 H 89.727 1.005 -4.05326 0
M  V30 934 N 90.1641 1.46063 -0.591896 0
M  V30 935 C 91.4121 2.01938 -0.0808391 0
M  V30 936 C 91.7331 1.46475 1.28725 0
M  V30 937 O 91.0031 0.652944 1.84698 0
M  V30 938 H 89.5831 0.746516 -0.0268938 0
M  V30 939 H 92.2451 1.79055 -0.769752 0
M  V30 940 H 91.3411 3.12094 -0.0187578 0
M  V30 941 N 91.6422 0.330177 1.54103 0
M  V30 942 C 92.5722 -0.525353 2.27513 0
M  V30 943 C 93.5532 -1.11383 1.2856 0
M  V30 944 O 94.7382 -1.13773 1.57383 0
M  V30 945 C 91.8682 -1.6831 3.03791 0
M  V30 946 C 90.8222 -1.2236 4.10137 0
M  V30 947 C 90.1482 -2.46882 4.74293 0
M  V30 948 C 91.4482 -0.333697 5.21233 0
M  V30 949 H 93.1422 0.087013 2.99274 0
M  V30 950 H 90.6882 0.0432893 1.43935 0
M  V30 951 H 92.6412 -2.28795 3.5388 0
M  V30 952 H 91.3652 -2.32216 2.29659 0
M  V30 953 H 90.0242 -0.64165 3.60941 0
M  V30 954 H 89.6722 -3.09165 3.96769 0
M  V30 955 H 89.3722 -2.16825 5.46133 0
M  V30 956 H 90.8962 -3.08117 5.27159 0
M  V30 957 H 92.3102 -0.845013 5.67038 0
M  V30 958 H 90.7072 -0.125612 5.99969 0
M  V30 959 H 91.7772 0.633724 4.80741 0
M  V30 960 N 93.1203 -1.57491 0.0584922 0
M  V30 961 C 94.5313 -1.80526 -0.476138 0
M  V30 962 C 94.8823 -0.971334 -1.70469 0
M  V30 963 O 94.0073 -0.190012 -2.15564 0
M  V30 964 C 94.6023 -3.27424 -0.870587 0
M  V30 965 C 93.1613 -3.51351 -1.35015 0
M  V30 966 C 92.3083 -2.75343 -0.32887 0
M  V30 967 H 95.2593 -1.56133 0.284312 0
M  V30 968 H 95.2803 -3.38745 -1.73299 0
M  V30 969 H 94.7923 -3.88093 0.0237627 0
M  V30 970 H 92.8933 -2.95971 -2.26345 0
M  V30 971 H 93.0063 -4.60059 -1.33726 0
M  V30 972 H 91.3703 -2.417 -0.803321 0
M  V30 973 H 92.1533 -3.38743 0.557521 0
M  V30 974 N 94.5984 0.214957 -1.56127 0
M  V30 975 C 95.5284 1.2695 -1.95974 0
M  V30 976 C 96.5094 1.48539 -0.828868 0
M  V30 977 O 97.6944 1.60611 -1.09168 0
M  V30 978 C 94.8244 2.61794 -2.28214 0
M  V30 979 C 93.7784 2.54851 -3.43853 0
M  V30 980 C 93.1044 3.93785 -3.61715 0
M  V30 981 C 94.4044 2.09065 -4.78632 0
M  V30 982 H 96.0984 0.93846 -2.84312 0
M  V30 983 H 93.6444 0.449996 -1.36788 0
M  V30 984 H 95.5974 3.35731 -2.54682 0
M  V30 985 H 94.3214 2.96599 -1.36736 0
M  V30 986 H 92.9804 1.8337 -3.17444 0
M  V30 987 H 92.6284 4.25908 -2.67602 0
M  V30 988 H 92.3284 3.90019 -4.39498 0
M  V30 989 H 93.8524 4.69374 -3.90539 0
M  V30 990 H 95.2664 2.7275 -5.04262 0
M  V30 991 H 93.6634 2.16346 -5.59745 0
M  V30 992 H 94.7334 1.04315 -4.73547 0
M  V30 993 N 96.0765 1.50051 0.48192 0
M  V30 994 C 97.3535 1.51009 1.2432 0
M  V30 995 C 97.7335 0.248587 2.09631 0
M  V30 996 O 97.0815 -0.768409 2.15192 0
M  V30 997 C 97.2915 2.79981 2.08355 0
M  V30 998 C 98.6395 3.3022 2.66908 0
M  V30 999 O 99.6635 2.81228 2.18607 0
M  V30 1000 O 98.5225 4.15595 3.54884 0
M  V30 1001 H 95.6165 0.605239 0.563573 0
M  V30 1002 H 98.1625 1.62332 0.494627 0
M  V30 1003 H 96.9345 3.63275 1.45419 0
M  V30 1004 H 96.5575 2.7161 2.90368 0
M  V30 1005 N 97.5546 -0.734337 1.39446 0
M  V30 1006 C 98.8006 -1.49613 1.36908 0
M  V30 1007 C 99.1336 -1.94169 -0.0347829 0
M  V30 1008 O 98.4086 -1.66833 -0.999847 0
M  V30 1009 C 98.6916 -2.73534 2.34203 0
M  V30 1010 C 98.5446 -2.34993 3.83534 0
M  V30 1011 C 99.8636 -3.75635 2.29317 0
M  V30 1012 H 96.9826 -0.542714 0.498629 0
M  V30 1013 H 99.6246 -0.839597 1.70443 0
M  V30 1014 H 97.7746 -3.29553 2.05736 0
M  V30 1015 H 99.4466 -1.84601 4.22753 0
M  V30 1016 H 97.6896 -1.67213 4.00278 0
M  V30 1017 H 98.3606 -3.23738 4.47099 0
M  V30 1018 H 100.837 -3.29203 2.54489 0
M  V30 1019 H 99.7126 -4.60008 2.99472 0
M  V30 1020 H 99.9736 -4.22603 1.29842 0
M  V30 1021 N 99.0327 -1.24633 -0.964593 0
M  V30 1022 C 99.9807 -1.03917 -2.08096 0
M  V30 1023 C 100.975 0.0268581 -1.69379 0
M  V30 1024 O 102.181 -0.127952 -1.79545 0
M  V30 1025 H 98.5557 -0.319044 -0.680966 0
M  V30 1026 H 100.527 -1.98581 -2.22729 0
M  V30 1027 C 99.2757 -0.663983 -3.41301 0
M  V30 1028 H 98.5987 -1.47605 -3.71555 0
M  V30 1029 H 100.039 -0.558663 -4.20303 0
M  V30 1030 C 98.4977 0.629169 -3.30973 0
M  V30 1031 O 99.0277 1.67404 -3.65156 0
M  V30 1032 N 97.2337 0.611057 -2.84103 0
M  V30 1033 H 96.7807 -0.239593 -2.56483 0
M  V30 1034 H 96.7387 1.47647 -2.77575 0
M  V30 1035 N 100.511 1.16574 -1.06058 0
M  V30 1036 C 101.757 1.87324 -0.777022 0
M  V30 1037 C 102.09 1.81351 0.694645 0
M  V30 1038 O 101.365 1.22753 1.50871 0
M  V30 1039 C 101.648 3.36991 -1.26922 0
M  V30 1040 C 101.501 3.51667 -2.80447 0
M  V30 1041 C 102.82 4.3131 -0.87521 0
M  V30 1042 H 99.9388 0.680191 -0.28374 0
M  V30 1043 H 102.581 1.37036 -1.3161 0
M  V30 1044 H 100.731 3.79949 -0.81063 0
M  V30 1045 H 102.403 3.17664 -3.34495 0
M  V30 1046 H 100.646 2.93656 -3.19294 0
M  V30 1047 H 101.317 4.56766 -3.0995 0
M  V30 1048 H 103.793 3.9624 -1.27014 0
M  V30 1049 H 102.669 5.34545 -1.2471 0
M  V30 1050 H 102.93 4.41552 0.220071 0
M  V30 1051 N 101.989 0.842826 1.3317 0
M  V30 1052 C 103.235 0.441099 1.97945 0
M  V30 1053 C 103.568 -0.998024 1.66593 0
M  V30 1054 O 102.843 -1.69839 0.947898 0
M  V30 1055 C 103.126 0.666841 3.53872 0
M  V30 1056 C 102.979 2.15352 3.94897 0
M  V30 1057 C 104.298 0.115544 4.39948 0
M  V30 1058 H 101.417 0.161739 0.719034 0
M  V30 1059 H 104.059 1.05907 1.57746 0
M  V30 1060 H 102.209 0.140828 3.88245 0
M  V30 1061 H 103.881 2.7447 3.70761 0
M  V30 1062 H 102.124 2.63653 3.44484 0
M  V30 1063 H 102.795 2.26221 5.03516 0
M  V30 1064 H 105.271 0.565213 4.12243 0
M  V30 1065 H 104.147 0.303152 5.48062 0
M  V30 1066 H 104.408 -0.980935 4.3108 0
M  V30 1067 N 103.467 -1.45747 0.599634 0
M  V30 1068 C 104.43 -2.28917 -0.113835 0
M  V30 1069 C 105.43 -1.3933 -0.802729 0
M  V30 1070 O 106.62 -1.61534 -0.652103 0
M  V30 1071 C 103.752 -3.20152 -1.17114 0
M  V30 1072 H 104.945 -2.93478 0.617289 0
M  V30 1073 H 102.498 -1.52137 0.358327 0
M  V30 1074 H 103.233 -2.60374 -1.93329 0
M  V30 1075 H 103.018 -3.86133 -0.681468 0
M  V30 1076 H 104.508 -3.82708 -1.67105 0
M  V30 1077 N 104.945 -0.338344 -1.53925 0
M  V30 1078 C 105.875 0.51328 -2.27789 0
M  V30 1079 C 106.856 1.107 -1.29149 0
M  V30 1080 O 108.041 1.12937 -1.57984 0
M  V30 1081 C 105.171 1.66697 -3.04679 0
M  V30 1082 C 104.125 1.20183 -4.1078 0
M  V30 1083 C 103.451 2.44363 -4.75595 0
M  V30 1084 C 104.751 0.30605 -5.21403 0
M  V30 1085 H 106.445 -0.102883 -2.99223 0
M  V30 1086 H 103.991 -0.0509219 -1.4391 0
M  V30 1087 H 105.944 2.26915 -3.55088 0
M  V30 1088 H 104.668 2.30995 -2.30887 0
M  V30 1089 H 103.327 0.622499 -3.61276 0
M  V30 1090 H 102.975 3.07057 -3.98403 0
M  V30 1091 H 102.675 2.13925 -5.47275 0
M  V30 1092 H 104.199 3.05317 -5.28786 0
M  V30 1093 H 105.613 0.814929 -5.67478 0
M  V30 1094 H 104.01 0.0937929 -6.00027 0
M  V30 1095 H 105.08 -0.65921 -4.80398 0
M  V30 1096 N 106.423 1.57458 -0.0668435 0
M  V30 1097 C 107.353 2.15468 0.899764 0
M  V30 1098 C 108.334 1.08042 1.31381 0
M  V30 1099 O 109.519 1.36054 1.38574 0
M  V30 1100 C 106.649 2.71232 2.16911 0
M  V30 1101 C 105.603 3.83781 1.89463 0
M  V30 1102 C 104.929 4.26127 3.22986 0
M  V30 1103 C 106.229 5.08238 1.20381 0
M  V30 1104 H 107.923 2.96488 0.416529 0
M  V30 1105 H 105.469 1.4262 0.198908 0
M  V30 1106 H 107.422 3.10458 2.84945 0
M  V30 1107 H 106.146 1.87426 2.67468 0
M  V30 1108 H 104.805 3.45051 1.23836 0
M  V30 1109 H 104.453 3.39249 3.71374 0
M  V30 1110 H 104.153 5.01993 3.05413 0
M  V30 1111 H 105.677 4.67966 3.92225 0
M  V30 1112 H 107.091 5.44811 1.78475 0
M  V30 1113 H 105.488 5.89349 1.13083 0
M  V30 1114 H 106.558 4.84558 0.182153 0
M  V30 1115 N 107.901 -0.206675 1.56239 0
M  V30 1116 C 108.834 -1.28383 1.88661 0
M  V30 1117 C 109.812 -1.44504 0.745481 0
M  V30 1118 O 110.996 -1.60079 0.995336 0
M  V30 1119 C 108.123 -2.65211 2.10667 0
M  V30 1120 C 107.169 -2.66025 3.33366 0
M  V30 1121 S 108.002 -2.18609 4.88846 0
M  V30 1122 C 109.158 -3.57283 5.13906 0
M  V30 1123 H 109.391 -1.00691 2.7973 0
M  V30 1124 H 106.924 -0.409627 1.48867 0
M  V30 1125 H 108.882 -3.43979 2.24029 0
M  V30 1126 H 107.543 -2.90121 1.20369 0
M  V30 1127 H 106.736 -3.66607 3.45855 0
M  V30 1128 H 106.338 -1.95331 3.18938 0
M  V30 1129 H 108.63 -4.53074 5.03717 0
M  V30 1130 H 109.573 -3.49699 6.15724 0
M  V30 1131 H 109.981 -3.51659 4.41583 0
M  V30 1132 N 109.379 -1.50304 -0.473955 0
M  V30 1133 C 110.327 -1.69482 -1.59307 0
M  V30 1134 C 111.321 -0.560669 -1.59853 0
M  V30 1135 O 112.527 -0.741087 -1.64036 0
M  V30 1136 H 108.902 -0.534892 -0.528578 0
M  V30 1137 H 110.873 -2.63364 -1.40293 0
M  V30 1138 C 109.622 -1.80354 -2.97267 0
M  V30 1139 H 108.945 -2.67012 -2.97564 0
M  V30 1140 H 110.385 -1.97798 -3.75036 0
M  V30 1141 C 108.844 -0.55448 -3.32306 0
M  V30 1142 O 109.374 0.307661 -4.0052 0
M  V30 1143 N 107.58 -0.409354 -2.87702 0
M  V30 1144 H 107.127 -1.11196 -2.32364 0
M  V30 1145 H 107.085 0.425223 -3.11511 0
M  V30 1146 N 110.857 0.726932 -1.39834 0
M  V30 1147 C 112.273 1.03354 -1.21615 0
M  V30 1148 C 112.473 2.01327 -0.08338 0
M  V30 1149 O 111.529 2.46158 0.56238 0
M  V30 1150 C 112.842 1.58811 -2.55342 0
M  V30 1151 C 114.39 1.70851 -2.62257 0
M  V30 1152 C 114.865 2.29716 -3.96225 0
M  V30 1153 N 116.356 2.37116 -3.97907 0
M  V30 1154 C 117.091 2.83619 -4.98345 0
M  V30 1155 N 116.587 3.29958 -6.09179 0
M  V30 1156 N 118.38 2.82901 -4.8572 0
M  V30 1157 H 110.531 0.0773069 -2.12259 0
M  V30 1158 H 112.794 0.0969102 -0.943034 0
M  V30 1159 H 112.5 0.942855 -3.38826 0
M  V30 1160 H 112.374 2.57502 -2.75632 0
M  V30 1161 H 114.761 2.34497 -1.79152 0
M  V30 1162 H 114.842 0.707913 -2.45809 0
M  V30 1163 H 114.486 1.66696 -4.79765 0
M  V30 1164 H 114.416 3.30469 -4.09997 0
M  V30 1165 H 116.907 2.04374 -3.17868 0
M  V30 1166 H 117.22 3.63976 -6.8172 0
M  V30 1167 H 115.565 3.27946 -6.12761 0
M  V30 1168 H 118.756 2.46027 -3.98231 0
M  V30 1169 H 118.929 3.18827 -5.6414 0
M  V30 1170 N 112.336 1.25143 0.95797 0
M  V30 1171 C 113.564 1.12424 1.73691 0
M  V30 1172 C 113.979 -0.322304 1.86029 0
M  V30 1173 O 113.336 -1.22186 1.35561 0
M  V30 1174 C 113.387 1.76933 3.15241 0
M  V30 1175 O 113.108 3.15932 3.03511 0
M  V30 1176 C 114.609 1.6995 4.09429 0
M  V30 1177 H 111.829 0.3923 0.544373 0
M  V30 1178 H 114.373 1.6544 1.20207 0
M  V30 1179 H 112.528 1.27895 3.6568 0
M  V30 1180 H 112.942 3.47598 3.9278 0
M  V30 1181 H 114.416 2.19753 5.06372 0
M  V30 1182 H 114.893 0.662619 4.34173 0
M  V30 1183 H 115.499 2.18461 3.64904 0
M  V30 1184 N 113.814 -1.1601 1.06675 0
M  V30 1185 C 115.091 -1.82679 0.699114 0
M  V30 1186 C 115.471 -1.94559 -0.819137 0
M  V30 1187 O 114.819 -1.49169 -1.73092 0
M  V30 1188 C 115.029 -3.19445 1.40555 0
M  V30 1189 C 116.377 -3.95171 1.55323 0
M  V30 1190 O 117.401 -3.28976 1.36577 0
M  V30 1191 O 116.26 -5.13833 1.86112 0
M  V30 1192 H 113.354 -0.788954 0.247951 0
M  V30 1193 H 115.9 -1.23179 1.16726 0
M  V30 1194 H 114.672 -3.05856 2.44065 0
M  V30 1195 H 114.295 -3.86625 0.927733 0
M  V30 1196 N 115.292 -0.849877 -1.32721 0
M  V30 1197 C 116.703 -0.506188 -1.79707 0
M  V30 1198 C 117.054 0.975627 -1.70223 0
M  V30 1199 O 116.179 1.76078 -1.25799 0
M  V30 1200 C 116.774 -0.912044 -3.26293 0
M  V30 1201 C 115.333 -0.620326 -3.71253 0
M  V30 1202 C 114.48 -1.11439 -2.53922 0
M  V30 1203 H 117.431 -1.03754 -1.20087 0
M  V30 1204 H 117.452 -0.226493 -3.79825 0
M  V30 1205 H 116.964 -1.99057 -3.33164 0
M  V30 1206 H 115.065 0.447674 -3.69901 0
M  V30 1207 H 115.178 -1.18327 -4.64258 0
M  V30 1208 H 113.542 -0.534834 -2.49021 0
M  V30 1209 H 114.325 -2.19992 -2.6355 0
M  V30 1210 N 116.77 1.45427 -0.607355 0
M  V30 1211 C 117.717 2.3053 0.111625 0
M  V30 1212 C 118.687 1.4209 0.860216 0
M  V30 1213 O 119.872 1.71019 0.845998 0
M  V30 1214 C 117.012 3.26992 1.10319 0
M  V30 1215 C 116.125 4.30535 0.355493 0
M  V30 1216 C 115.26 5.14105 1.33676 0
M  V30 1217 C 114.299 6.09376 0.576862 0
M  V30 1218 N 113.436 6.85727 1.5074 0
M  V30 1219 H 118.276 2.91477 -0.620093 0
M  V30 1220 H 115.813 1.43631 -0.317594 0
M  V30 1221 H 117.771 3.81385 1.6912 0
M  V30 1222 H 116.401 2.67799 1.80232 0
M  V30 1223 H 115.453 3.78805 -0.348023 0
M  V30 1224 H 116.765 4.98235 -0.237423 0
M  V30 1225 H 115.919 5.72897 1.99684 0
M  V30 1226 H 114.658 4.46423 1.9636 0
M  V30 1227 H 113.663 5.49715 -0.0968519 0
M  V30 1228 H 114.888 6.79085 -0.0449341 0
M  V30 1229 H 112.834 6.20735 2.12189 0
M  V30 1230 H 112.751 7.49778 0.967913 0
M  V30 1231 H 114.019 7.4906 2.15706 0
M  V30 1232 N 118.248 0.346503 1.53744 0
M  V30 1233 C 119.473 -0.253074 2.0585 0
M  V30 1234 C 119.898 -1.43202 1.21962 0
M  V30 1235 O 119.256 -1.79783 0.234073 0
M  V30 1236 C 119.304 -0.643193 3.54817 0
M  V30 1237 O 118.408 -1.74286 3.73762 0
M  V30 1238 H 117.749 -0.0413583 0.662711 0
M  V30 1239 H 120.279 0.501574 1.98357 0
M  V30 1240 H 120.289 -0.919526 3.97503 0
M  V30 1241 H 118.964 0.218966 4.15323 0
M  V30 1242 H 117.541 -1.46356 3.42979 0
M  V30 1243 N 119.726 -1.57421 0.075193 0
M  V30 1244 C 120.656 -2.15942 -0.888324 0
M  V30 1245 C 121.637 -1.08737 -1.30806 0
M  V30 1246 O 122.822 -1.36787 -1.37851 0
M  V30 1247 C 119.952 -2.72379 -2.1547 0
M  V30 1248 C 118.906 -3.8478 -1.87425 0
M  V30 1249 C 118.232 -4.27834 -3.20721 0
M  V30 1250 C 119.532 -5.08869 -1.17684 0
M  V30 1251 H 121.226 -2.96705 -0.400799 0
M  V30 1252 H 118.772 -1.42723 -0.191342 0
M  V30 1253 H 120.725 -3.11965 -2.83295 0
M  V30 1254 H 119.449 -1.88841 -2.6647 0
M  V30 1255 H 118.108 -3.45703 -1.22004 0
M  V30 1256 H 117.756 -3.41214 -3.6957 0
M  V30 1257 H 117.456 -5.03605 -3.02746 0
M  V30 1258 H 118.98 -4.70039 -3.89738 0
M  V30 1259 H 120.394 -5.4575 -1.75584 0
M  V30 1260 H 118.791 -5.8994 -1.09956 0
M  V30 1261 H 119.861 -4.84648 -0.156453 0
M  V30 1262 N 121.204 0.198386 -1.56346 0
M  V30 1263 C 122.453 0.917451 -1.79627 0
M  V30 1264 C 122.766 1.8456 -0.64784 0
M  V30 1265 O 123.972 2.60504 -0.764859 0
M  V30 1266 C 122.428 1.68175 -3.18191 0
M  V30 1267 C 122.036 0.798589 -4.40825 0
M  V30 1268 C 123.78 2.39065 -3.50782 0
M  V30 1269 C 121.687 1.56157 -5.70411 0
M  V30 1270 H 120.617 0.346317 -0.669762 0
M  V30 1271 H 123.268 0.170801 -1.82703 0
M  V30 1272 H 121.65 2.47216 -3.09354 0
M  V30 1273 H 122.824 0.0470665 -4.60776 0
M  V30 1274 H 121.139 0.200686 -4.15916 0
M  V30 1275 H 123.736 2.96692 -4.44835 0
M  V30 1276 H 124.079 3.13091 -2.74371 0
M  V30 1277 H 124.612 1.66993 -3.61052 0
M  V30 1278 H 121.351 0.864142 -6.49779 0
M  V30 1279 H 120.871 2.2871 -5.54483 0
M  V30 1280 H 122.55 2.11622 -6.11412 0
M  V30 1281 N 122.682 1.50554 0.465978 0
M  V30 1282 C 123.91 1.65563 1.24083 0
M  V30 1283 C 124.325 0.341051 1.85694 0
M  V30 1284 O 123.682 -0.677543 1.69457 0
M  V30 1285 C 123.733 2.75051 2.34583 0
M  V30 1286 O 123.454 4.01413 1.75497 0
M  V30 1287 C 124.955 3.01078 3.25372 0
M  V30 1288 H 122.175 0.55638 0.375077 0
M  V30 1289 H 124.719 1.96807 0.555624 0
M  V30 1290 H 122.874 2.46486 2.9887 0
M  V30 1291 H 123.288 4.62002 2.48303 0
M  V30 1292 H 124.762 3.81339 3.99105 0
M  V30 1293 H 125.239 2.12349 3.84453 0
M  V30 1294 H 125.845 3.31194 2.66816 0
M  V30 1295 N 124.16 -0.719506 1.40217 0
M  V30 1296 C 125.11 -1.8251 1.36653 0
M  V30 1297 C 126.094 -1.59028 0.244732 0
M  V30 1298 O 127.286 -1.70268 0.483524 0
M  V30 1299 C 124.415 -3.20599 1.22763 0
M  V30 1300 C 123.501 -3.49858 2.39708 0
M  V30 1301 N 123.892 -3.49957 3.6519 0
M  V30 1302 C 122.19 -3.80297 2.33002 0
M  V30 1303 C 122.891 -3.77449 4.42614 0
M  V30 1304 N 121.867 -3.96002 3.72402 0
M  V30 1305 H 125.669 -1.80914 2.31619 0
M  V30 1306 H 123.183 -0.918455 1.33933 0
M  V30 1307 H 125.18 -3.99766 1.18292 0
M  V30 1308 H 123.84 -3.23424 0.287614 0
M  V30 1309 H 124.851 -3.309 3.98404 0
M  V30 1310 H 121.528 -3.90635 1.47346 0
M  V30 1311 H 122.918 -3.83863 5.51451 0
M  V30 1312 N 125.638 -1.25649 -0.95132 0
M  V30 1313 C 126.884 -1.10757 -1.69884 0
M  V30 1314 C 127.217 0.350061 -1.91019 0
M  V30 1315 O 126.492 1.25783 -1.48354 0
M  V30 1316 C 126.775 -1.86606 -3.07978 0
M  V30 1317 C 126.628 -3.40217 -2.94232 0
M  V30 1318 C 127.947 -1.65182 -4.07925 0
M  V30 1319 H 125.066 -0.40374 -0.616574 0
M  V30 1320 H 127.708 -1.54521 -1.10558 0
M  V30 1321 H 125.858 -1.49409 -3.58621 0
M  V30 1322 H 127.53 -3.87108 -2.50889 0
M  V30 1323 H 125.773 -3.67759 -2.30078 0
M  V30 1324 H 126.444 -3.88505 -3.92133 0
M  V30 1325 H 128.92 -1.9757 -3.66204 0
M  V30 1326 H 127.796 -2.20683 -5.02583 0
M  V30 1327 H 128.057 -0.593933 -4.38092 0
M  V30 1328 N 127.117 1.15442 -1.07289 0
M  V30 1329 C 128.357 1.8788 -0.805012 0
M  V30 1330 C 128.721 1.80413 0.656907 0
M  V30 1331 O 129.922 2.47874 1.0398 0
M  V30 1332 C 128.193 3.3298 -1.29843 0
M  V30 1333 S 129.752 4.23158 -1.16114 0
M  V30 1334 H 126.57 0.64839 -0.291739 0
M  V30 1335 H 129.172 1.39285 -1.37186 0
M  V30 1336 H 127.876 3.35958 -2.35712 0
M  V30 1337 H 127.407 3.86629 -0.726767 0
M  V30 1338 H 129.422 4.96103 -0.0982778 0
M  V30 1339 N 128.595 0.856903 1.32268 0
M  V30 1340 C 129.872 0.382583 1.91822 0
M  V30 1341 C 130.252 -1.13407 1.78051 0
M  V30 1342 O 129.6 -1.95673 1.18001 0
M  V30 1343 C 129.81 0.849446 3.38505 0
M  V30 1344 C 131.158 0.867936 4.15634 0
M  V30 1345 O 132.182 0.794232 3.47232 0
M  V30 1346 O 131.041 0.972286 5.37781 0
M  V30 1347 H 128.135 0.112014 0.819379 0
M  V30 1348 H 130.681 0.943952 1.41024 0
M  V30 1349 H 129.453 1.89267 3.42482 0
M  V30 1350 H 129.076 0.265652 3.96712 0
M  V30 1351 N 130.073 -1.45103 0.615059 0
M  V30 1352 C 131.003 -2.33339 -0.0865619 0
M  V30 1353 C 131.984 -1.4727 -0.851209 0
M  V30 1354 O 133.169 -1.76026 -0.820281 0
M  V30 1355 C 130.299 -3.30095 -1.07956 0
M  V30 1356 C 129.253 -4.25858 -0.427628 0
M  V30 1357 C 128.579 -5.12361 -1.5294 0
M  V30 1358 C 129.879 -5.18165 0.655944 0
M  V30 1359 H 131.573 -2.92254 0.650224 0
M  V30 1360 H 129.119 -1.40532 0.314138 0
M  V30 1361 H 131.072 -3.90698 -1.57901 0
M  V30 1362 H 129.796 -2.69355 -1.84703 0
M  V30 1363 H 128.455 -3.66564 0.0510292 0
M  V30 1364 H 128.103 -4.47984 -2.28734 0
M  V30 1365 H 127.803 -5.77238 -1.09865 0
M  V30 1366 H 129.327 -5.75833 -2.03098 0
M  V30 1367 H 130.741 -5.72796 0.240257 0
M  V30 1368 H 129.138 -5.91559 1.00888 0
M  V30 1369 H 130.208 -4.60144 1.52957 0
M  V30 1370 N 131.551 -0.354651 -1.53558 0
M  V30 1371 C 132.484 0.540273 -2.21712 0
M  V30 1372 C 133.462 1.09161 -1.2051 0
M  V30 1373 O 134.646 1.14979 -1.49372 0
M  V30 1374 C 131.773 1.74435 -2.90328 0
M  V30 1375 C 130.819 1.32146 -4.05512 0
M  V30 1376 S 131.652 0.331924 -5.3447 0
M  V30 1377 C 132.808 1.54258 -6.06593 0
M  V30 1378 H 133.041 -0.0385776 -2.97275 0
M  V30 1379 H 130.574 -0.138736 -1.53775 0
M  V30 1380 H 132.532 2.43507 -3.30476 0
M  V30 1381 H 131.193 2.29444 -2.1451 0
M  V30 1382 H 130.386 2.21952 -4.52497 0
M  V30 1383 H 129.988 0.710091 -3.67197 0
M  V30 1384 H 132.28 2.47534 -6.30661 0
M  V30 1385 H 133.223 1.11431 -6.99277 0
M  V30 1386 H 133.631 1.74367 -5.36895 0
M  V30 1387 N 133.029 1.57378 -0.0835403 0
M  V30 1388 C 134.254 1.98682 0.594987 0
M  V30 1389 C 134.679 0.961969 1.61641 0
M  V30 1390 O 134.037 -0.0709989 1.81161 0
M  V30 1391 C 134.085 3.38988 1.2296 0
M  V30 1392 O 133.189 3.39208 2.34546 0
M  V30 1393 H 132.53 0.646368 0.152002 0
M  V30 1394 H 135.06 2.03961 -0.161533 0
M  V30 1395 H 135.07 3.76431 1.57366 0
M  V30 1396 H 133.745 4.13107 0.481228 0
M  V30 1397 H 132.322 3.13548 2.01846 0
M  V30 1398 N 134.507 -0.190092 1.56449 0
M  V30 1399 C 135.755 -0.907908 1.80559 0
M  V30 1400 C 136.076 -1.83583 0.657438 0
M  V30 1401 O 135.346 -1.93203 -0.323924 0
M  V30 1402 H 133.926 -0.338247 0.666032 0
M  V30 1403 H 136.588 -0.194403 1.93928 0
M  V30 1404 H 135.684 -1.49604 2.73907 0
M  V30 1405 N 135.985 -1.50799 -0.457987 0
M  V30 1406 C 136.948 -1.7005 -1.53674 0
M  V30 1407 C 137.948 -0.570881 -1.50325 0
M  V30 1408 O 139.138 -0.838126 -1.52712 0
M  V30 1409 C 136.27 -1.73788 -2.93276 0
M  V30 1410 H 137.463 -2.66306 -1.37917 0
M  V30 1411 H 135.016 -1.40477 -0.685271 0
M  V30 1412 H 135.751 -0.792717 -3.14462 0
M  V30 1413 H 135.536 -2.55864 -2.97113 0
M  V30 1414 H 137.026 -1.90591 -3.71571 0
M  V30 1415 N 137.463 0.71206 -1.40597 0
M  V30 1416 C 138.879 1.02058 -1.22704 0
M  V30 1417 C 139.079 2.01228 -0.104729 0
M  V30 1418 O 138.135 2.4674 0.53624 0
M  V30 1419 C 139.448 1.56094 -2.57012 0
M  V30 1420 C 140.996 1.6806 -2.64054 0
M  V30 1421 C 141.471 2.25501 -3.9864 0
M  V30 1422 N 142.962 2.32882 -4.004 0
M  V30 1423 C 143.697 2.78317 -5.01325 0
M  V30 1424 N 143.193 3.23478 -6.12645 0
M  V30 1425 N 144.986 2.77733 -4.88693 0
M  V30 1426 H 137.137 0.0547896 -2.12329 0
M  V30 1427 H 139.4 0.0869027 -0.944008 0
M  V30 1428 H 139.106 0.906865 -3.39807 0
M  V30 1429 H 138.98 2.54564 -2.78347 0
M  V30 1430 H 141.367 2.32583 -1.81629 0
M  V30 1431 H 141.448 0.681802 -2.46546 0
M  V30 1432 H 141.092 1.61598 -4.81506 0
M  V30 1433 H 141.022 3.26102 -4.13479 0
M  V30 1434 H 143.513 2.00991 -3.20017 0
M  V30 1435 H 143.826 3.56725 -6.85542 0
M  V30 1436 H 142.171 3.21429 -6.16205 0
M  V30 1437 H 145.362 2.4179 -4.00818 0
M  V30 1438 H 145.535 3.12826 -5.67489 0
M  V30 1439 N 138.941 1.26152 0.944643 0
M  V30 1440 C 140.19 1.10883 1.68487 0
M  V30 1441 C 140.503 -0.348153 1.92477 0
M  V30 1442 O 141.709 -0.621459 2.64292 0
M  V30 1443 C 140.165 1.93624 3.03377 0
M  V30 1444 C 139.773 3.43875 2.87148 0
M  V30 1445 C 141.517 1.86954 3.81115 0
M  V30 1446 C 139.424 4.18875 4.1749 0
M  V30 1447 H 138.354 0.41135 0.631907 0
M  V30 1448 H 141.005 1.50433 1.05082 0
M  V30 1449 H 139.387 1.46904 3.67743 0
M  V30 1450 H 140.561 3.98338 2.31653 0
M  V30 1451 H 138.876 3.51744 2.22856 0
M  V30 1452 H 141.473 2.40275 4.77673 0
M  V30 1453 H 141.816 0.839518 4.07747 0
M  V30 1454 H 142.349 2.31477 3.23517 0
M  V30 1455 H 139.088 5.22332 3.96043 0
M  V30 1456 H 138.608 3.69193 4.72712 0
M  V30 1457 H 140.287 4.27134 4.85968 0
M  V30 1458 N 140.419 -1.14872 1.07899 0
M  V30 1459 C 141.369 -2.17809 0.674027 0
M  V30 1460 C 142.353 -1.58008 -0.303699 0
M  V30 1461 O 143.545 -1.76616 -0.11654 0
M  V30 1462 C 140.674 -3.43208 0.0793318 0
M  V30 1463 C 139.76 -4.10051 1.08253 0
M  V30 1464 N 140.151 -4.52296 2.2641 0
M  V30 1465 C 138.449 -4.36469 0.917124 0
M  V30 1466 C 139.15 -5.04199 2.901 0
M  V30 1467 N 138.126 -4.98088 2.17736 0
M  V30 1468 H 141.928 -2.48207 1.57386 0
M  V30 1469 H 139.442 -1.315 0.952976 0
M  V30 1470 H 141.439 -4.16272 -0.228719 0
M  V30 1471 H 140.099 -3.14291 -0.815551 0
M  V30 1472 H 141.11 -4.45504 2.64096 0
M  V30 1473 H 137.787 -4.17432 0.0756078 0
M  V30 1474 H 139.177 -5.46802 3.90458 0
M  V30 1475 N 141.898 -0.863906 -1.31812 0
M  V30 1476 C 143.146 -0.470904 -1.96537 0
M  V30 1477 C 143.467 0.978771 -1.68657 0
M  V30 1478 O 142.737 1.6853 -0.998717 0
M  V30 1479 H 141.317 -0.171148 -0.72713 0
M  V30 1480 H 143.979 -1.10236 -1.60729 0
M  V30 1481 H 143.075 -0.623616 -3.05806 0
M  V30 1482 N 143.376 1.44774 -0.622745 0
M  V30 1483 C 144.306 2.33382 0.0741861 0
M  V30 1484 C 145.287 1.47719 0.843387 0
M  V30 1485 O 146.472 1.76458 0.810934 0
M  V30 1486 C 143.602 3.30663 1.06204 0
M  V30 1487 C 142.556 4.26079 0.405037 0
M  V30 1488 C 141.882 5.13165 1.5022 0
M  V30 1489 C 143.182 5.1781 -0.683414 0
M  V30 1490 H 144.876 2.91905 -0.665713 0
M  V30 1491 H 142.422 1.40363 -0.321587 0
M  V30 1492 H 144.375 3.9153 1.55827 0
M  V30 1493 H 143.099 2.70331 1.83272 0
M  V30 1494 H 141.758 3.66532 -0.0704683 0
M  V30 1495 H 141.406 4.49191 2.26355 0
M  V30 1496 H 141.106 5.77812 1.06803 0
M  V30 1497 H 142.63 5.76902 2.00041 0
M  V30 1498 H 144.044 5.72661 -0.270631 0
M  V30 1499 H 142.441 5.91015 -1.04023 0
M  V30 1500 H 143.511 4.59326 -1.55395 0
M  V30 1501 N 144.854 0.36279 1.53368 0
M  V30 1502 C 146.1 -0.228113 2.01513 0
M  V30 1503 C 146.433 -1.48648 1.2497 0
M  V30 1504 O 145.708 -1.91459 0.342616 0
M  V30 1505 C 145.991 -0.522884 3.56284 0
M  V30 1506 C 145.844 0.74892 4.43521 0
M  V30 1507 C 147.163 -1.32461 4.19693 0
M  V30 1508 H 144.282 -0.0814343 0.732487 0
M  V30 1509 H 146.924 0.48713 1.83649 0
M  V30 1510 H 145.074 -1.1322 3.71636 0
M  V30 1511 H 146.746 1.38648 4.39971 0
M  V30 1512 H 144.989 1.36986 4.11603 0
M  V30 1513 H 145.66 0.497667 5.49752 0
M  V30 1514 H 148.136 -0.809203 4.08156 0
M  V30 1515 H 147.012 -1.49961 5.28018 0
M  V30 1516 H 147.273 -2.33232 3.75573 0
M  V30 1517 N 146.332 -1.57332 0.0918853 0
M  V30 1518 C 147.579 -1.94236 -0.572577 0
M  V30 1519 C 147.907 -0.973398 -1.6839 0
M  V30 1520 O 147.162 0.00756912 -1.95699 0
M  V30 1521 C 147.461 -3.37689 -1.17051 0
M  V30 1522 C 147.127 -4.50527 -0.183304 0
M  V30 1523 C 145.789 -4.81119 0.0882276 0
M  V30 1524 C 148.141 -5.18883 0.49095 0
M  V30 1525 C 145.469 -5.77395 1.04076 0
M  V30 1526 C 147.821 -6.1618 1.43193 0
M  V30 1527 C 146.485 -6.45179 1.71173 0
M  V30 1528 H 145.755 -0.710762 -0.209521 0
M  V30 1529 H 148.402 -1.9077 0.167036 0
M  V30 1530 H 146.707 -3.37718 -1.9863 0
M  V30 1531 H 148.404 -3.63543 -1.69227 0
M  V30 1532 H 144.994 -4.26681 -0.405124 0
M  V30 1533 H 149.178 -4.95427 0.294312 0
M  V30 1534 H 144.434 -5.98179 1.26457 0
M  V30 1535 H 148.608 -6.68243 1.96023 0
M  V30 1536 H 146.235 -7.1959 2.4514 0
M  V30 1537 N 147.81 0.181792 -1.56548 0
M  V30 1538 C 149.058 0.89832 -1.81038 0
M  V30 1539 C 149.379 1.83232 -0.667164 0
M  V30 1540 O 148.649 1.93372 0.313673 0
M  V30 1541 H 147.229 0.33471 -0.667816 0
M  V30 1542 H 149.891 0.184116 -1.94028 0
M  V30 1543 H 148.987 1.4815 -2.74696 0
M  V30 1544 N 149.288 1.51039 0.449983 0
M  V30 1545 C 150.565 1.53612 1.21089 0
M  V30 1546 C 150.945 0.292997 2.09057 0
M  V30 1547 O 150.293 -0.72259 2.16774 0
M  V30 1548 C 150.503 2.84337 2.0237 0
M  V30 1549 C 151.851 3.35807 2.59843 0
M  V30 1550 O 152.875 2.85802 2.12593 0
M  V30 1551 O 151.734 4.23029 3.45989 0
M  V30 1552 H 148.828 0.617057 0.550608 0
M  V30 1553 H 151.374 1.63344 0.460082 0
M  V30 1554 H 150.146 3.66278 1.37681 0
M  V30 1555 H 149.769 2.77708 2.84542 0
M  V30 1556 N 150.766 -0.704594 1.40972 0
M  V30 1557 C 152.043 -1.45847 1.30338 0
M  V30 1558 C 152.423 -2.10973 -0.0732344 0
M  V30 1559 O 151.771 -2.00997 -1.08685 0
M  V30 1560 C 151.981 -2.48525 2.45023 0
M  V30 1561 C 153.329 -3.1404 2.8577 0
M  V30 1562 O 154.353 -2.58848 2.44696 0
M  V30 1563 O 153.212 -4.13981 3.56766 0
M  V30 1564 H 150.306 -0.649092 0.512454 0
M  V30 1565 H 152.852 -0.735836 1.52917 0
M  V30 1566 H 151.624 -1.98994 3.36923 0
M  V30 1567 H 151.247 -3.2831 2.24272 0
M  V30 1568 N 152.244 -1.26651 -0.937939 0
M  V30 1569 C 153.472 -1.15173 -1.7188 0
M  V30 1570 C 153.887 0.292668 -1.86518 0
M  V30 1571 O 153.244 1.20014 -1.37488 0
M  V30 1572 C 153.295 -1.81925 -3.12387 0
M  V30 1573 O 153.016 -3.2072 -2.98446 0
M  V30 1574 C 154.517 -1.76442 -4.06673 0
M  V30 1575 H 151.737 -0.400911 -0.538063 0
M  V30 1576 H 154.281 -1.67332 -1.1756 0
M  V30 1577 H 152.436 -1.33696 -3.63599 0
M  V30 1578 H 152.85 -3.53802 -3.872 0
M  V30 1579 H 154.324 -2.27781 -5.02812 0
M  V30 1580 H 154.801 -0.731608 -4.33064 0
M  V30 1581 H 155.407 -2.24238 -3.61382 0
M  V30 1582 N 153.722 1.14298 -1.08507 0
M  V30 1583 C 154.999 1.81544 -0.728088 0
M  V30 1584 C 155.379 1.95838 0.78808 0
M  V30 1585 O 154.727 1.51904 1.70697 0
M  V30 1586 C 154.937 3.17169 -1.45619 0
M  V30 1587 C 156.285 3.9265 -1.61591 0
M  V30 1588 O 157.309 3.26762 -1.41793 0
M  V30 1589 O 156.168 5.10807 -1.94263 0
M  V30 1590 H 153.262 0.78491 -0.260471 0
M  V30 1591 H 155.808 1.21307 -1.18671 0
M  V30 1592 H 154.58 3.01934 -2.489 0
M  V30 1593 H 154.203 3.851 -0.989124 0
M  V30 1594 N 155.201 0.870884 1.31352 0
M  V30 1595 C 156.133 0.28455 2.27427 0
M  V30 1596 C 157.146 -0.552927 1.53123 0
M  V30 1597 O 158.335 -0.374771 1.74521 0
M  V30 1598 C 155.435 -0.615164 3.3327 0
M  V30 1599 C 154.608 0.190079 4.36987 0
M  V30 1600 C 153.667 -0.637917 5.22319 0
M  V30 1601 O 152.693 -0.065626 5.69162 0
M  V30 1602 N 153.895 -1.94973 5.46778 0
M  V30 1603 H 156.66 1.11017 2.7838 0
M  V30 1604 H 154.221 0.732458 1.44384 0
M  V30 1605 H 156.213 -1.1748 3.87273 0
M  V30 1606 H 154.783 -1.34146 2.82354 0
M  V30 1607 H 154.003 0.931165 3.83044 0
M  V30 1608 H 155.291 0.742579 5.03352 0
M  V30 1609 H 154.689 -2.4378 5.10478 0
M  V30 1610 H 153.246 -2.45713 6.03712 0
M  V30 1611 N 156.679 -1.44442 0.630414 0
M  V30 1612 C 157.589 -2.34476 -0.0761693 0
M  V30 1613 C 158.605 -1.52576 -0.836449 0
M  V30 1614 O 159.781 -1.85307 -0.788874 0
M  V30 1615 C 156.846 -3.30545 -1.04599 0
M  V30 1616 C 155.907 -4.28352 -0.28516 0
M  V30 1617 C 155.14 -5.19831 -1.20878 0
M  V30 1618 O 155.363 -5.15223 -2.44747 0
M  V30 1619 O 154.297 -5.97892 -0.693491 0
M  V30 1620 H 158.123 -2.96345 0.664324 0
M  V30 1621 H 155.708 -1.44203 0.39061 0
M  V30 1622 H 157.59 -3.89681 -1.60396 0
M  V30 1623 H 156.265 -2.7121 -1.76711 0
M  V30 1624 H 155.172 -3.72764 0.315837 0
M  V30 1625 H 156.505 -4.90605 0.395924 0
M  V30 1626 N 158.157 -0.370918 -1.53173 0
M  V30 1627 C 159.12 0.460778 -2.24521 0
M  V30 1628 C 160.12 1.00536 -1.25496 0
M  V30 1629 O 161.31 0.890266 -1.49733 0
M  V30 1630 C 158.442 1.64457 -2.98608 0
M  V30 1631 H 159.635 -0.163613 -2.99453 0
M  V30 1632 H 157.188 -0.122699 -1.55818 0
M  V30 1633 H 157.923 2.30691 -2.2793 0
M  V30 1634 H 157.708 1.26099 -3.7127 0
M  V30 1635 H 159.198 2.23384 -3.5283 0
M  V30 1636 N 159.635 1.57281 -0.100228 0
M  V30 1637 C 160.881 1.94826 0.563101 0
M  V30 1638 C 161.214 0.982475 1.67514 0
M  V30 1639 O 160.489 0.0164069 1.94493 0
M  V30 1640 C 160.772 3.42453 1.11346 0
M  V30 1641 C 160.625 4.498 0.00612081 0
M  V30 1642 C 161.944 3.91506 2.01024 0
M  V30 1643 H 159.063 0.708428 0.203221 0
M  V30 1644 H 161.705 1.8922 -0.171979 0
M  V30 1645 H 159.855 3.47361 1.7399 0
M  V30 1646 H 161.527 4.57 -0.628357 0
M  V30 1647 H 159.77 4.28756 -0.659581 0
M  V30 1648 H 160.441 5.50306 0.432109 0
M  V30 1649 H 162.917 3.88784 1.48278 0
M  V30 1650 H 161.793 4.95358 2.36457 0
M  V30 1651 H 162.054 3.31099 2.92961 0
M  V30 1652 N 161.113 -0.173488 1.56642 0
M  V30 1653 C 162.076 -1.19859 1.95362 0
M  V30 1654 C 163.076 -1.37296 0.83704 0
M  V30 1655 O 164.266 -1.34739 1.10413 0
M  V30 1656 C 161.398 -2.56405 2.24654 0
M  V30 1657 H 162.591 -0.867062 2.87092 0
M  V30 1658 H 160.144 -0.415853 1.50666 0
M  V30 1659 H 160.879 -2.94576 1.35631 0
M  V30 1660 H 160.664 -2.45115 3.06041 0
M  V30 1661 H 162.154 -3.30287 2.5554 0
M  V30 1662 N 162.591 -1.51276 -0.441967 0
M  V30 1663 C 163.523 -1.68444 -1.55433 0
M  V30 1664 C 164.536 -0.565187 -1.52674 0
M  V30 1665 O 165.725 -0.839356 -1.57534 0
M  V30 1666 C 162.825 -1.67966 -2.94348 0
M  V30 1667 C 161.998 -2.964 -3.21661 0
M  V30 1668 C 161.057 -2.88171 -4.40277 0
M  V30 1669 O 160.083 -3.62119 -4.39157 0
M  V30 1670 N 161.285 -2.03706 -5.43584 0
M  V30 1671 H 164.05 -2.644 -1.41112 0
M  V30 1672 H 161.611 -1.49104 -0.630838 0
M  V30 1673 H 163.603 -1.60035 -3.71713 0
M  V30 1674 H 162.173 -0.796225 -3.0229 0
M  V30 1675 H 161.393 -3.18234 -2.32638 0
M  V30 1676 H 162.681 -3.81427 -3.36736 0
M  V30 1677 H 162.079 -1.42995 -5.47329 0
M  V30 1678 H 160.636 -2.01658 -6.1982 0
M  V30 1679 N 164.069 0.697108 -1.41344 0
M  V30 1680 C 165.002 1.82134 -1.37486 0
M  V30 1681 C 165.98 1.60784 -0.242351 0
M  V30 1682 O 167.164 1.83553 -0.429012 0
M  V30 1683 C 164.291 3.18788 -1.14421 0
M  V30 1684 C 163.337 3.58932 -2.3037 0
M  V30 1685 S 164.17 3.63916 -3.92843 0
M  V30 1686 C 165.326 5.03298 -3.72078 0
M  V30 1687 H 165.559 1.85129 -2.32625 0
M  V30 1688 H 163.092 0.865671 -1.2785 0
M  V30 1689 H 165.05 3.97677 -1.018 0
M  V30 1690 H 163.711 3.13404 -0.20905 0
M  V30 1691 H 162.904 4.58202 -2.09922 0
M  V30 1692 H 162.506 2.87347 -2.39391 0
M  V30 1693 H 164.798 5.90753 -3.31688 0
M  V30 1694 H 165.741 5.28788 -4.70945 0
M  V30 1695 H 166.149 4.74764 -3.05384 0
M  V30 1696 N 165.547 1.27147 0.931209 0
M  V30 1697 C 166.477 1.12081 2.04842 0
M  V30 1698 C 167.458 0.0232364 1.70084 0
M  V30 1699 O 168.643 0.197085 1.93197 0
M  V30 1700 C 165.773 0.76354 3.38803 0
M  V30 1701 C 164.727 1.81396 3.87659 0
M  V30 1702 C 164.053 1.31075 5.18385 0
M  V30 1703 C 165.353 3.21739 4.11438 0
M  V30 1704 H 167.047 2.05537 2.17703 0
M  V30 1705 H 164.593 0.989603 1.04608 0
M  V30 1706 H 166.546 0.644982 4.16435 0
M  V30 1707 H 165.27 -0.206727 3.25945 0
M  V30 1708 H 163.929 1.92136 3.12217 0
M  V30 1709 H 163.577 0.330037 5.01916 0
M  V30 1710 H 163.277 2.013 5.52044 0
M  V30 1711 H 164.801 1.20506 5.98591 0
M  V30 1712 H 166.215 3.14019 4.79651 0
M  V30 1713 H 164.612 3.89644 4.56397 0
M  V30 1714 H 165.682 3.67054 3.16859 0
M  V30 1715 N 167.025 -1.13721 1.09112 0
M  V30 1716 C 168.302 -1.81155 0.737706 0
M  V30 1717 C 168.682 -1.96253 -0.777683 0
M  V30 1718 O 168.03 -1.52807 -1.69889 0
M  V30 1719 C 168.24 -3.16392 1.47299 0
M  V30 1720 C 169.588 -3.91787 1.63671 0
M  V30 1721 O 170.612 -3.26005 1.43524 0
M  V30 1722 O 169.471 -5.0977 1.96969 0
M  V30 1723 H 166.565 -0.783518 0.26463 0
M  V30 1724 H 169.111 -1.20676 1.19312 0
M  V30 1725 H 167.883 -3.0061 2.50498 0
M  V30 1726 H 167.506 -3.8457 1.00953 0
M  V30 1727 N 168.503 -0.877838 -1.30888 0
M  V30 1728 C 169.75 -0.492696 -1.96415 0
M  V30 1729 C 170.078 0.956671 -1.69346 0
M  V30 1730 O 169.333 1.68993 -0.986913 0
M  V30 1731 C 169.632 -0.705748 -3.50363 0
M  V30 1732 C 169.298 -2.1291 -3.97467 0
M  V30 1733 C 167.96 -2.51834 -4.1004 0
M  V30 1734 C 170.312 -3.05702 -4.22132 0
M  V30 1735 C 167.64 -3.82775 -4.44635 0
M  V30 1736 C 169.992 -4.36166 -4.58194 0
M  V30 1737 C 168.656 -4.74993 -4.68975 0
M  V30 1738 H 167.926 -0.18029 -0.718733 0
M  V30 1739 H 170.573 -1.11233 -1.55883 0
M  V30 1740 H 168.878 -0.00303058 -3.918 0
M  V30 1741 H 170.575 -0.387456 -3.99124 0
M  V30 1742 H 167.165 -1.81694 -3.88182 0
M  V30 1743 H 171.349 -2.76853 -4.11906 0
M  V30 1744 H 166.605 -4.12609 -4.51181 0
M  V30 1745 H 170.779 -5.08111 -4.76231 0
M  V30 1746 H 168.406 -5.76495 -4.95537 0
M  V30 1747 N 169.982 1.44106 -0.638065 0
M  V30 1748 C 171.231 2.01194 -0.142744 0
M  V30 1749 C 171.544 1.50835 1.24532 0
M  V30 1750 O 172.75 2.00096 1.83504 0
M  V30 1751 C 171.206 3.59319 -0.20442 0
M  V30 1752 C 170.814 4.18674 -1.59423 0
M  V30 1753 C 172.558 4.23854 0.234079 0
M  V30 1754 C 170.465 5.69045 -1.61065 0
M  V30 1755 H 169.395 0.752367 -0.0495998 0
M  V30 1756 H 172.046 1.65246 -0.797881 0
M  V30 1757 H 170.428 3.92598 0.517946 0
M  V30 1758 H 171.602 3.96921 -2.34074 0
M  V30 1759 H 169.917 3.66453 -1.97741 0
M  V30 1760 H 172.514 5.34155 0.241443 0
M  V30 1761 H 172.857 3.96688 1.2627 0
M  V30 1762 H 173.39 3.95403 -0.436025 0
M  V30 1763 H 170.129 6.00956 -2.61787 0
M  V30 1764 H 169.649 5.929 -0.90718 0
M  V30 1765 H 171.328 6.32809 -1.34766 0
M  V30 1766 N 171.46 0.379036 1.52974 0
M  V30 1767 C 172.685 -0.209353 2.06341 0
M  V30 1768 C 173.11 -1.40583 1.24972 0
M  V30 1769 O 172.468 -1.79246 0.272155 0
M  V30 1770 C 172.516 -0.567786 3.56102 0
M  V30 1771 O 171.62 -1.66318 3.77375 0
M  V30 1772 H 170.961 -0.0272919 0.663439 0
M  V30 1773 H 173.491 0.543536 1.97248 0
M  V30 1774 H 173.501 -0.835003 3.99364 0
M  V30 1775 H 172.176 0.307013 4.14765 0
M  V30 1776 H 170.753 -1.39048 3.46006 0
M  V30 1777 N 172.938 -1.57226 0.108567 0
M  V30 1778 C 174.163 -1.99604 -0.563303 0
M  V30 1779 C 174.588 -0.987563 -1.6009 0
M  V30 1780 O 173.946 0.0421687 -1.81251 0
M  V30 1781 C 173.994 -3.40902 -1.17552 0
M  V30 1782 O 173.098 -3.42896 -2.2912 0
M  V30 1783 H 172.439 -0.648704 -0.1417 0
M  V30 1784 H 174.969 -2.03679 0.193961 0
M  V30 1785 H 174.979 -3.78886 -1.51357 0
M  V30 1786 H 173.654 -4.1382 -0.415445 0
M  V30 1787 H 172.231 -3.1672 -1.96832 0
M  V30 1788 N 174.416 0.165178 -1.56732 0
M  V30 1789 C 175.366 1.20917 -1.93295 0
M  V30 1790 C 176.35 1.39488 -0.801985 0
M  V30 1791 O 177.542 1.41356 -1.06525 0
M  V30 1792 C 174.671 2.54718 -2.3016 0
M  V30 1793 C 173.757 2.39815 -3.49785 0
M  V30 1794 N 174.148 1.94637 -4.66851 0
M  V30 1795 C 172.446 2.70623 -3.54513 0
M  V30 1796 C 173.147 1.92344 -5.4898 0
M  V30 1797 N 172.123 2.34978 -4.9019 0
M  V30 1798 H 175.925 0.851675 -2.81289 0
M  V30 1799 H 173.439 0.373399 -1.58049 0
M  V30 1800 H 175.436 3.30165 -2.54552 0
M  V30 1801 H 174.096 2.91265 -1.43508 0
M  V30 1802 H 175.107 1.6488 -4.90953 0
M  V30 1803 H 171.784 3.11167 -2.78354 0
M  V30 1804 H 173.174 1.5906 -6.52801 0
M  V30 1805 N 175.894 1.51508 0.433938 0
M  V30 1806 C 177.122 1.68157 1.20543 0
M  V30 1807 C 177.537 0.380362 1.84929 0
M  V30 1808 O 176.894 -0.641446 1.70856 0
M  V30 1809 C 176.945 2.79965 2.28696 0
M  V30 1810 O 176.666 4.05045 1.66943 0
M  V30 1811 C 178.167 3.07912 3.18912 0
M  V30 1812 H 175.387 0.56421 0.363191 0
M  V30 1813 H 177.931 1.97941 0.513754 0
M  V30 1814 H 176.086 2.5277 2.93574 0
M  V30 1815 H 176.5 4.67165 2.38448 0
M  V30 1816 H 177.974 3.89719 3.90926 0
M  V30 1817 H 178.451 2.20456 3.79863 0
M  V30 1818 H 179.057 3.36779 2.59731 0
M  V30 1819 N 177.372 -0.689602 1.41712 0
M  V30 1820 C 178.619 -1.44966 1.4139 0
M  V30 1821 C 178.947 -1.94484 0.025105 0
M  V30 1822 O 178.202 -1.70307 -0.964048 0
M  V30 1823 C 178.501 -2.67298 2.37247 0
M  V30 1824 C 178.167 -2.36405 3.83958 0
M  V30 1825 C 176.829 -2.27691 4.23923 0
M  V30 1826 C 179.181 -2.11043 4.76561 0
M  V30 1827 C 176.509 -1.91719 5.54492 0
M  V30 1828 C 178.861 -1.76578 6.07456 0
M  V30 1829 C 177.525 -1.66363 6.46436 0
M  V30 1830 H 176.795 -0.53047 0.517381 0
M  V30 1831 H 179.442 -0.787655 1.74552 0
M  V30 1832 H 177.747 -3.38461 1.9736 0
M  V30 1833 H 179.444 -3.25452 2.34269 0
M  V30 1834 H 176.034 -2.44085 3.52308 0
M  V30 1835 H 180.218 -2.16717 4.46483 0
M  V30 1836 H 175.474 -1.82367 5.83568 0
M  V30 1837 H 179.648 -1.55974 6.78708 0
M  V30 1838 H 177.275 -1.38258 7.47522 0
M  V30 1839 N 178.85 -1.27639 -0.924453 0
M  V30 1840 C 180.096 -1.14336 -1.67497 0
M  V30 1841 C 180.429 0.309465 -1.91718 0
M  V30 1842 O 179.704 1.22608 -1.50989 0
M  V30 1843 C 179.987 -1.93096 -3.0395 0
M  V30 1844 C 179.84 -3.46381 -2.8695 0
M  V30 1845 C 181.159 -1.73798 -4.0433 0
M  V30 1846 H 178.278 -0.416728 -0.607871 0
M  V30 1847 H 180.92 -1.56832 -1.07256 0
M  V30 1848 H 179.07 -1.56982 -3.55372 0
M  V30 1849 H 180.742 -3.92343 -2.42621 0
M  V30 1850 H 178.985 -3.72557 -2.22225 0
M  V30 1851 H 179.656 -3.96735 -3.83804 0
M  V30 1852 H 182.132 -2.05293 -3.61931 0
M  V30 1853 H 181.008 -2.31294 -4.97789 0
M  V30 1854 H 181.269 -0.686725 -4.36734 0
M  V30 1855 N 180.328 1.1314 -1.09713 0
M  V30 1856 C 181.739 1.66029 -0.853885 0
M  V30 1857 C 182.09 1.86241 0.617142 0
M  V30 1858 O 181.215 1.5834 1.47503 0
M  V30 1859 C 181.81 3.01599 -1.5435 0
M  V30 1860 C 180.369 3.51467 -1.34714 0
M  V30 1861 C 179.516 2.26648 -1.59769 0
M  V30 1862 H 182.467 0.970226 -1.25588 0
M  V30 1863 H 182.488 3.67709 -0.978267 0
M  V30 1864 H 182 2.86856 -2.6141 0
M  V30 1865 H 180.101 3.71408 -0.297838 0
M  V30 1866 H 180.214 4.314 -2.08401 0
M  V30 1867 H 178.578 2.33385 -1.01998 0
M  V30 1868 H 179.361 2.14467 -2.68065 0
M  V30 1869 N 181.806 0.884767 1.30421 0
M  V30 1870 C 183.055 0.499164 1.95426 0
M  V30 1871 C 183.368 -0.95645 1.70621 0
M  V30 1872 O 184.574 -1.44889 2.29607 0
M  V30 1873 C 183.03 0.84177 3.49917 0
M  V30 1874 C 182.638 2.31514 3.83543 0
M  V30 1875 C 184.382 0.525355 4.21237 0
M  V30 1876 C 182.289 2.59939 5.31212 0
M  V30 1877 H 181.219 0.182944 0.73147 0
M  V30 1878 H 183.87 1.07971 1.48373 0
M  V30 1879 H 182.252 0.190311 3.95542 0
M  V30 1880 H 183.426 3.0109 3.48829 0
M  V30 1881 H 181.741 2.59907 3.25326 0
M  V30 1882 H 184.338 0.714762 5.29901 0
M  V30 1883 H 184.681 -0.535222 4.12845 0
M  V30 1884 H 185.214 1.134 3.81294 0
M  V30 1885 H 181.953 3.64736 5.44654 0
M  V30 1886 H 181.473 1.94972 5.67227 0
M  V30 1887 H 183.152 2.45429 5.98643 0
M  V30 1888 N 183.284 -1.43765 0.645699 0
M  V30 1889 C 184.214 -2.33471 -0.0370477 0
M  V30 1890 C 185.195 -1.49042 -0.819779 0
M  V30 1891 O 186.38 -1.77726 -0.782758 0
M  V30 1892 C 183.51 -3.32311 -1.0093 0
M  V30 1893 C 182.464 -4.2667 -0.337201 0
M  V30 1894 C 181.79 -5.1549 -1.42037 0
M  V30 1895 C 183.09 -5.16657 0.765706 0
M  V30 1896 H 184.784 -2.90809 0.712069 0
M  V30 1897 H 182.33 -1.39834 0.343876 0
M  V30 1898 H 184.283 -3.9396 -1.49578 0
M  V30 1899 H 183.007 -2.73213 -1.78948 0
M  V30 1900 H 181.666 -3.66374 0.128771 0
M  V30 1901 H 181.314 -4.52735 -2.1918 0
M  V30 1902 H 181.014 -5.79438 -0.975966 0
M  V30 1903 H 182.538 -5.80012 -1.90838 0
M  V30 1904 H 183.952 -5.72158 0.361702 0
M  V30 1905 H 182.349 -5.89286 1.13413 0
M  V30 1906 H 183.419 -4.56796 1.62683 0
M  V30 1907 N 184.763 -0.387143 -1.52771 0
M  V30 1908 C 186.011 0.195349 -2.01154 0
M  V30 1909 C 186.332 1.475 -1.27549 0
M  V30 1910 O 185.602 1.91878 -0.394924 0
M  V30 1911 H 184.182 0.075178 -0.743207 0
M  V30 1912 H 186.844 -0.518337 -1.87881 0
M  V30 1913 H 185.94 0.407096 -3.09434 0
M  V30 1914 N 186.241 1.57166 -0.116904 0
M  V30 1915 C 187.49 1.94298 0.541407 0
M  V30 1916 C 187.803 1.00236 1.67964 0
M  V30 1917 O 189.009 1.26826 2.40057 0
M  V30 1918 C 187.465 3.45306 1.01449 0
M  V30 1919 C 187.073 4.47899 -0.0951738 0
M  V30 1920 C 188.817 3.91361 1.6443 0
M  V30 1921 C 186.724 5.90083 0.394491 0
M  V30 1922 H 185.654 0.725308 0.206019 0
M  V30 1923 H 188.305 1.82446 -0.196419 0
M  V30 1924 H 186.687 3.52385 1.80667 0
M  V30 1925 H 187.861 4.52486 -0.871374 0
M  V30 1926 H 186.176 4.11583 -0.631505 0
M  V30 1927 H 188.773 4.95004 2.02176 0
M  V30 1928 H 189.116 3.3122 2.52189 0
M  V30 1929 H 189.649 3.87073 0.917559 0
M  V30 1930 H 186.388 6.53974 -0.447004 0
M  V30 1931 H 185.908 5.88921 1.13722 0
M  V30 1932 H 187.587 6.41307 0.856399 0
M  V30 1933 N 187.719 -0.156864 1.56817 0
M  V30 1934 C 188.669 -1.19891 1.93934 0
M  V30 1935 C 189.653 -1.39061 0.809372 0
M  V30 1936 O 190.845 -1.40789 1.07273 0
M  V30 1937 C 187.974 -2.53493 2.31508 0
M  V30 1938 C 187.06 -2.37957 3.51052 0
M  V30 1939 N 187.451 -1.92158 4.67877 0
M  V30 1940 C 185.749 -2.68739 3.55943 0
M  V30 1941 C 186.45 -1.8943 5.49992 0
M  V30 1942 N 185.426 -2.32375 4.91429 0
M  V30 1943 H 189.228 -0.836746 2.81737 0
M  V30 1944 H 186.742 -0.365012 1.58245 0
M  V30 1945 H 188.739 -3.28811 2.56299 0
M  V30 1946 H 187.399 -2.905 1.45051 0
M  V30 1947 H 188.41 -1.62274 4.91821 0
M  V30 1948 H 185.087 -3.09687 2.80001 0
M  V30 1949 H 186.477 -1.55596 6.53636 0
M  V30 1950 N 189.197 -1.51736 -0.425897 0
M  V30 1951 C 190.445 -1.64644 -1.17204 0
M  V30 1952 C 190.766 -0.370486 -1.91448 0
M  V30 1953 O 190.036 0.614088 -1.86026 0
M  V30 1954 H 188.616 -0.606819 -0.435638 0
M  V30 1955 H 191.278 -1.88713 -0.487177 0
M  V30 1956 H 190.374 -2.47958 -1.89534 0
M  V30 1957 N 190.675 0.682077 -1.42076 0
M  V30 1958 C 191.923 1.4393 -1.41876 0
M  V30 1959 C 192.244 1.94971 -0.0335599 0
M  V30 1960 O 191.514 1.72591 0.926773 0
M  V30 1961 H 190.094 0.534085 -0.522267 0
M  V30 1962 H 192.756 0.806427 -1.77434 0
M  V30 1963 H 191.852 2.29588 -2.11414 0
M  V30 1964 N 192.153 1.28127 0.917671 0
M  V30 1965 C 193.116 1.11744 2.00115 0
M  V30 1966 C 194.116 0.0583052 1.60694 0
M  V30 1967 O 195.306 0.303755 1.71531 0
M  V30 1968 C 192.438 0.704862 3.33533 0
M  V30 1969 H 193.631 2.07966 2.16079 0
M  V30 1970 H 191.184 1.11058 1.09981 0
M  V30 1971 H 191.919 -0.258299 3.2327 0
M  V30 1972 H 191.704 1.4699 3.63505 0
M  V30 1973 H 193.194 0.612768 4.1308 0
M  V30 1974 N 193.631 -1.12557 1.10312 0
M  V30 1975 C 194.856 -1.88405 0.867085 0
M  V30 1976 C 195.281 -1.79038 -0.576817 0
M  V30 1977 O 194.639 -1.14439 -1.40618 0
M  V30 1978 C 194.687 -3.3563 1.31851 0
M  V30 1979 O 193.791 -4.09565 0.482734 0
M  V30 1980 H 193.132 -0.585455 0.313271 0
M  V30 1981 H 195.662 -1.42352 1.4696 0
M  V30 1982 H 195.672 -3.86469 1.3079 0
M  V30 1983 H 194.347 -3.41765 2.37001 0
M  V30 1984 H 192.924 -3.68695 0.558448 0
M  V30 1985 N 195.109 -0.891671 -1.2995 0
M  V30 1986 C 196.042 -0.307994 -2.26112 0
M  V30 1987 C 197.02 0.575262 -1.52084 0
M  V30 1988 O 198.204 0.523864 -1.81074 0
M  V30 1989 C 195.331 0.561734 -3.34009 0
M  V30 1990 C 194.377 -0.253107 -4.25748 0
M  V30 1991 S 195.21 -1.64572 -5.09584 0
M  V30 1992 C 196.366 -0.782699 -6.20987 0
M  V30 1993 H 196.599 -1.12309 -2.75271 0
M  V30 1994 H 194.132 -0.691509 -1.38049 0
M  V30 1995 H 196.09 1.05777 -3.96638 0
M  V30 1996 H 194.751 1.35099 -2.83561 0
M  V30 1997 H 193.944 0.410908 -5.02322 0
M  V30 1998 H 193.546 -0.682004 -3.67729 0
M  V30 1999 H 195.838 -0.00257476 -6.775 0
M  V30 2000 H 196.781 -1.52026 -6.91588 0
M  V30 2001 H 197.189 -0.340638 -5.63471 0
M  V30 2002 N 196.587 1.43421 -0.653314 0
M  V30 2003 C 197.836 2.01032 -0.164076 0
M  V30 2004 C 198.149 1.52147 1.22926 0
M  V30 2005 O 199.355 2.02031 1.81371 0
M  V30 2006 C 197.811 3.59082 -0.24252 0
M  V30 2007 C 197.419 4.1696 -1.63855 0
M  V30 2008 C 199.163 4.24079 0.18911 0
M  V30 2009 C 197.07 5.67304 -1.67092 0
M  V30 2010 H 196 0.751798 -0.0575769 0
M  V30 2011 H 198.651 1.6439 -0.815362 0
M  V30 2012 H 197.033 3.93125 0.476276 0
M  V30 2013 H 198.207 3.94416 -2.38271 0
M  V30 2014 H 196.522 3.64335 -2.01616 0
M  V30 2015 H 199.119 5.34381 0.184775 0
M  V30 2016 H 199.462 3.98005 1.22056 0
M  V30 2017 H 199.995 3.94918 -0.477938 0
M  V30 2018 H 196.734 5.98145 -2.68146 0
M  V30 2019 H 196.254 5.91904 -0.970014 0
M  V30 2020 H 197.933 6.31344 -1.4147 0
M  V30 2021 N 198.065 0.39524 1.52563 0
M  V30 2022 C 198.998 -0.4813 2.23067 0
M  V30 2023 C 199.976 -1.05927 1.23362 0
M  V30 2024 O 201.16 -1.10979 1.52368 0
M  V30 2025 C 198.287 -1.66676 2.9485 0
M  V30 2026 C 197.333 -1.21348 4.08873 0
M  V30 2027 S 198.166 -0.190102 5.35162 0
M  V30 2028 C 199.322 -1.38121 6.1047 0
M  V30 2029 H 199.555 0.117381 2.97068 0
M  V30 2030 H 197.088 0.179458 1.53354 0
M  V30 2031 H 199.046 -2.3466 3.36816 0
M  V30 2032 H 197.707 -2.23676 2.20518 0
M  V30 2033 H 196.9 -2.09877 4.58222 0
M  V30 2034 H 196.502 -0.612486 3.68951 0
M  V30 2035 H 198.794 -2.30726 6.37002 0
M  V30 2036 H 199.737 -0.928521 7.01986 0
M  V30 2037 H 200.145 -1.60071 5.41329 0
M  V30 2038 N 199.544 -1.57102 0.125237 0
M  V30 2039 C 200.507 -2.14471 -0.80838 0
M  V30 2040 C 201.507 -1.0811 -1.19033 0
M  V30 2041 O 202.697 -1.33856 -1.11482 0
M  V30 2042 C 199.829 -2.69005 -2.09402 0
M  V30 2043 H 201.022 -2.98297 -0.309696 0
M  V30 2044 H 198.575 -1.55807 -0.124051 0
M  V30 2045 H 199.31 -1.88785 -2.63687 0
M  V30 2046 H 199.095 -3.46799 -1.82957 0
M  V30 2047 H 200.585 -3.13278 -2.76128 0
M  V30 2048 N 201.022 0.148545 -1.56898 0
M  V30 2049 C 202.299 0.890019 -1.74178 0
M  V30 2050 C 202.679 1.99407 -0.692839 0
M  V30 2051 O 202.027 2.26671 0.288505 0
M  V30 2052 C 202.237 1.43389 -3.18183 0
M  V30 2053 C 203.585 1.89791 -3.79822 0
M  V30 2054 O 204.609 1.53134 -3.21603 0
M  V30 2055 O 203.468 2.57387 -4.82093 0
M  V30 2056 H 200.562 0.420496 -0.712118 0
M  V30 2057 H 203.108 0.134591 -1.69165 0
M  V30 2058 H 201.88 0.640383 -3.86024 0
M  V30 2059 H 201.503 2.25287 -3.27615 0
M  V30 2060 N 202.5 1.5196 0.417844 0
M  V30 2061 C 203.447 1.74678 1.50852 0
M  V30 2062 C 204.417 0.588947 1.55308 0
M  V30 2063 O 205.602 0.825544 1.72016 0
M  V30 2064 C 202.742 1.89544 2.88387 0
M  V30 2065 C 201.855 3.17166 2.93309 0
M  V30 2066 C 200.99 3.22513 4.22088 0
M  V30 2067 C 200.029 4.44372 4.20951 0
M  V30 2068 N 199.166 4.47161 5.41287 0
M  V30 2069 H 204.006 2.67768 1.30783 0
M  V30 2070 H 201.543 1.32689 0.63498 0
M  V30 2071 H 203.501 1.96146 3.68216 0
M  V30 2072 H 202.131 0.998424 3.06971 0
M  V30 2073 H 201.183 3.19778 2.06024 0
M  V30 2074 H 202.495 4.07021 2.88332 0
M  V30 2075 H 201.649 3.28139 5.10303 0
M  V30 2076 H 200.388 2.30581 4.29748 0
M  V30 2077 H 199.393 4.38902 3.31127 0
M  V30 2078 H 200.618 5.3759 4.14938 0
M  V30 2079 H 198.564 3.58108 5.49632 0
M  V30 2080 H 198.481 5.3085 5.3827 0
M  V30 2081 H 199.749 4.57005 6.3148 0
M  V30 2082 N 203.978 -0.674533 1.42435 0
M  V30 2083 C 205.255 -1.4305 1.33402 0
M  V30 2084 C 205.635 -2.11081 -0.0284674 0
M  V30 2085 O 204.983 -2.03257 -1.04397 0
M  V30 2086 C 205.193 -2.43272 2.50239 0
M  V30 2087 C 206.541 -3.07907 2.92367 0
M  V30 2088 O 207.565 -2.53599 2.50132 0
M  V30 2089 O 206.424 -4.0632 3.65467 0
M  V30 2090 H 203.518 -0.638076 0.526106 0
M  V30 2091 H 206.064 -0.703235 1.54443 0
M  V30 2092 H 204.836 -1.91803 3.41068 0
M  V30 2093 H 204.459 -3.23479 2.31186 0
M  V30 2094 N 205.456 -1.28612 -0.910864 0
M  V30 2095 C 206.867 -1.14406 -1.47541 0
M  V30 2096 C 207.218 0.264901 -1.94403 0
M  V30 2097 O 206.343 1.15942 -1.82719 0
M  V30 2098 C 206.938 -2.07073 -2.68153 0
M  V30 2099 C 205.497 -1.96923 -3.20778 0
M  V30 2100 C 204.644 -1.98646 -1.93481 0
M  V30 2101 H 207.595 -1.41259 -0.723291 0
M  V30 2102 H 207.616 -1.63642 -3.43514 0
M  V30 2103 H 207.128 -3.09611 -2.34015 0
M  V30 2104 H 205.229 -0.97433 -3.59635 0
M  V30 2105 H 205.342 -2.84026 -3.85832 0
M  V30 2106 H 203.706 -1.43093 -2.10705 0
M  V30 2107 H 204.489 -3.02868 -1.61634 0
M  V30 2108 N 206.934 1.1197 -1.10907 0
M  V30 2109 C 208.162 1.87402 -0.876824 0
M  V30 2110 C 208.577 1.79894 0.573025 0
M  V30 2111 O 207.934 1.17629 1.39534 0
M  V30 2112 C 207.985 3.36428 -1.32282 0
M  V30 2113 O 207.706 3.43765 -2.71582 0
M  V30 2114 C 209.207 4.28783 -1.12518 0
M  V30 2115 H 206.427 0.592793 -0.314384 0
M  V30 2116 H 208.971 1.41649 -1.47499 0
M  V30 2117 H 207.126 3.79706 -0.768229 0
M  V30 2118 H 207.54 4.3652 -2.90776 0
M  V30 2119 H 209.014 5.31613 -1.48633 0
M  V30 2120 H 209.491 4.39153 -0.0642394 0
M  V30 2121 H 210.097 3.91291 -1.66648 0
M  V30 2122 N 208.412 0.89855 1.29475 0
M  V30 2123 C 209.637 0.538561 2.00285 0
M  V30 2124 C 210.062 -0.869135 1.66816 0
M  V30 2125 O 209.42 -1.57831 0.892145 0
M  V30 2126 C 209.468 0.736475 3.52999 0
M  V30 2127 O 208.572 -0.211537 4.11857 0
M  V30 2128 H 207.913 0.210563 0.62973 0
M  V30 2129 H 210.443 1.20982 1.64998 0
M  V30 2130 H 210.453 0.640685 4.02938 0
M  V30 2131 H 209.128 1.76276 3.76696 0
M  V30 2132 H 207.705 -0.0682991 3.72837 0
M  V30 2133 N 209.89 -1.43072 0.660911 0
M  V30 2134 C 211.118 -2.06067 0.185422 0
M  V30 2135 C 211.533 -1.49582 -1.15198 0
M  V30 2136 O 210.89 -0.630134 -1.71276 0
M  V30 2137 C 210.941 -3.61371 0.0966523 0
M  V30 2138 O 210.662 -4.15758 1.38119 0
M  V30 2139 C 212.163 -4.41455 -0.403996 0
M  V30 2140 H 209.383 -0.664459 0.0934604 0
M  V30 2141 H 211.927 -1.83447 0.90373 0
M  V30 2142 H 210.082 -3.8315 -0.572259 0
M  V30 2143 H 210.496 -5.09499 1.24542 0
M  V30 2144 H 211.97 -5.50437 -0.415045 0
M  V30 2145 H 212.447 -4.15036 -1.43674 0
M  V30 2146 H 213.053 -4.24663 0.232691 0
M  V30 2147 N 211.368 -0.403325 -1.52352 0
M  V30 2148 C 212.615 0.174347 -2.01748 0
M  V30 2149 C 212.943 1.45636 -1.2892 0
M  V30 2150 O 212.198 1.9193 -0.382258 0
M  V30 2151 C 212.497 0.474665 -3.54234 0
M  V30 2152 C 212.163 -0.717458 -4.45155 0
M  V30 2153 C 210.825 -1.04447 -4.69728 0
M  V30 2154 C 213.177 -1.51432 -4.98716 0
M  V30 2155 C 210.505 -2.16963 -5.45109 0
M  V30 2156 C 212.857 -2.6302 -5.75329 0
M  V30 2157 C 211.521 -2.96213 -5.98175 0
M  V30 2158 H 210.791 0.0637981 -0.738248 0
M  V30 2159 H 213.438 -0.543553 -1.83624 0
M  V30 2160 H 211.743 1.27406 -3.70506 0
M  V30 2161 H 213.44 0.934496 -3.89959 0
M  V30 2162 H 210.03 -0.452596 -4.26204 0
M  V30 2163 H 214.214 -1.27491 -4.79645 0
M  V30 2164 H 209.47 -2.43034 -5.61021 0
M  V30 2165 H 213.644 -3.25158 -6.15829 0
M  V30 2166 H 211.271 -3.83516 -6.56368 0
M  V30 2167 N 212.846 1.57033 -0.133567 0
M  V30 2168 C 214.093 1.95686 0.520877 0
M  V30 2169 C 214.421 1.0177 1.6575 0
M  V30 2170 O 213.676 0.0443195 1.9565 0
M  V30 2171 C 213.975 3.40674 1.08057 0
M  V30 2172 C 213.641 4.50855 0.0637899 0
M  V30 2173 C 212.303 4.80716 -0.215757 0
M  V30 2174 C 214.655 5.17398 -0.62835 0
M  V30 2175 C 211.983 5.74433 -1.19348 0
M  V30 2176 C 214.335 6.12167 -1.5948 0
M  V30 2177 C 212.999 6.40414 -1.88218 0
M  V30 2178 H 212.269 0.716067 0.190602 0
M  V30 2179 H 214.916 1.9026 -0.217556 0
M  V30 2180 H 213.221 3.42865 1.89606 0
M  V30 2181 H 214.918 3.67902 1.59529 0
M  V30 2182 H 211.508 4.27605 0.291855 0
M  V30 2183 H 215.692 4.94472 -0.425562 0
M  V30 2184 H 210.948 5.94616 -1.42272 0
M  V30 2185 H 215.122 6.6281 -2.13671 0
M  V30 2186 H 212.749 7.12838 -2.64133 0
M  V30 2187 N 214.325 -0.140222 1.56975 0
M  V30 2188 C 215.257 -1.19818 1.95388 0
M  V30 2189 C 216.27 -1.38816 0.850525 0
M  V30 2190 O 217.459 -1.38267 1.12891 0
M  V30 2191 C 214.559 -2.56189 2.21857 0
M  V30 2192 C 213.732 -2.58077 3.5315 0
M  V30 2193 C 212.791 -3.76037 3.6808 0
M  V30 2194 O 211.817 -3.60598 4.40406 0
M  V30 2195 N 213.019 -4.93763 3.05251 0
M  V30 2196 H 215.784 -0.871609 2.86746 0
M  V30 2197 H 213.345 -0.32972 1.58507 0
M  V30 2198 H 215.337 -3.33623 2.2908 0
M  V30 2199 H 213.907 -2.81111 1.36731 0
M  V30 2200 H 213.127 -1.6651 3.57307 0
M  V30 2201 H 214.415 -2.56377 4.39486 0
M  V30 2202 H 213.813 -5.09209 2.46419 0
M  V30 2203 H 212.37 -5.68949 3.18026 0
M  V30 2204 N 215.803 -1.52179 -0.40978 0
M  V30 2205 C 217.05 -1.66206 -1.15679 0
M  V30 2206 C 217.378 -0.391674 -1.90516 0
M  V30 2207 O 216.633 0.62533 -1.8544 0
M  V30 2208 C 216.932 -2.83428 -2.17723 0
M  V30 2209 C 216.598 -4.21672 -1.59699 0
M  V30 2210 C 215.26 -4.59274 -1.43599 0
M  V30 2211 C 217.612 -5.07825 -1.17317 0
M  V30 2212 C 214.94 -5.80709 -0.836328 0
M  V30 2213 C 217.292 -6.29864 -0.587691 0
M  V30 2214 C 215.956 -6.66216 -0.413818 0
M  V30 2215 H 215.226 -0.608192 -0.423301 0
M  V30 2216 H 217.873 -1.86279 -0.444097 0
M  V30 2217 H 216.178 -2.57687 -2.95135 0
M  V30 2218 H 217.875 -2.91477 -2.75394 0
M  V30 2219 H 214.465 -3.9204 -1.73213 0
M  V30 2220 H 218.649 -4.79359 -1.28565 0
M  V30 2221 H 213.905 -6.07498 -0.689626 0
M  V30 2222 H 218.079 -6.95948 -0.250894 0
M  V30 2223 H 215.706 -7.60182 0.0529471 0
M  V30 2224 N 217.281 0.66697 -1.42791 0
M  V30 2225 C 218.529 1.42417 -1.43394 0
M  V30 2226 C 218.85 1.94925 -0.0542373 0
M  V30 2227 O 218.12 1.73564 0.908415 0
M  V30 2228 H 216.7 0.528515 -0.527902 0
M  V30 2229 H 219.362 0.787562 -1.78279 0
M  V30 2230 H 218.458 2.27333 -2.13837 0
M  V30 2231 N 218.759 1.29093 0.90403 0
M  V30 2232 C 219.722 1.1386 1.98919 0
M  V30 2233 C 220.722 0.0753457 1.60623 0
M  V30 2234 O 221.912 0.321931 1.71199 0
M  V30 2235 C 219.044 0.740198 3.32767 0
M  V30 2236 H 220.237 2.10246 2.13861 0
M  V30 2237 H 217.79 1.12218 1.08797 0
M  V30 2238 H 218.525 -0.223997 3.23525 0
M  V30 2239 H 218.31 1.50838 3.61926 0
M  V30 2240 H 219.8 0.656546 4.12407 0
M  V30 2241 N 220.237 -1.11381 1.11499 0
M  V30 2242 C 221.462 -1.87475 0.887019 0
M  V30 2243 C 221.887 -1.79639 -0.557796 0
M  V30 2244 O 221.245 -1.15924 -1.39396 0
M  V30 2245 C 221.293 -3.34213 1.35403 0
M  V30 2246 O 220.397 -4.0903 0.526146 0
M  V30 2247 H 219.738 -0.582099 0.319463 0
M  V30 2248 H 222.268 -1.40785 1.48461 0
M  V30 2249 H 222.278 -3.8506 1.34881 0
M  V30 2250 H 220.953 -3.39232 2.40612 0
M  V30 2251 H 219.53 -3.68082 0.597522 0
M  V30 2252 N 221.715 -0.905404 -1.28997 0
M  V30 2253 C 222.964 -0.530191 -1.94607 0
M  V30 2254 C 223.277 0.929185 -1.72121 0
M  V30 2255 O 224.483 1.41218 -2.31883 0
M  V30 2256 C 222.939 -0.897333 -3.48534 0
M  V30 2257 C 222.547 -2.37587 -3.79811 0
M  V30 2258 C 224.291 -0.592304 -4.20347 0
M  V30 2259 C 222.198 -2.68357 -5.27009 0
M  V30 2260 H 221.128 -0.194558 -0.728466 0
M  V30 2261 H 223.779 -1.10318 -1.46636 0
M  V30 2262 H 222.161 -0.253214 -3.9519 0
M  V30 2263 H 223.335 -3.06602 -3.43994 0
M  V30 2264 H 221.65 -2.6505 -3.2115 0
M  V30 2265 H 224.247 -0.798975 -5.28697 0
M  V30 2266 H 224.59 0.469474 -4.13644 0
M  V30 2267 H 225.123 -1.19452 -3.79442 0
M  V30 2268 H 221.862 -3.73355 -5.38782 0
M  V30 2269 H 221.382 -2.03971 -5.64053 0
M  V30 2270 H 223.061 -2.54922 -5.94663 0
M  V30 2271 N 223.193 1.4272 -0.668489 0
M  V30 2272 C 224.125 2.2914 0.052613 0
M  V30 2273 C 225.138 1.43339 0.771857 0
M  V30 2274 O 226.327 1.67123 0.627067 0
M  V30 2275 C 223.427 3.20618 1.09804 0
M  V30 2276 C 222.6 4.35039 0.45389 0
M  V30 2277 C 221.659 5.07282 1.39825 0
M  V30 2278 O 220.685 5.62024 0.900978 0
M  V30 2279 N 221.887 5.12206 2.73176 0
M  V30 2280 H 224.652 2.91668 -0.689209 0
M  V30 2281 H 222.213 1.53577 -0.512422 0
M  V30 2282 H 224.205 3.65815 1.73094 0
M  V30 2283 H 222.775 2.59585 1.74167 0
M  V30 2284 H 221.995 3.92567 -0.358396 0
M  V30 2285 H 223.283 5.088 0.00486972 0
M  V30 2286 H 222.681 4.6913 3.16122 0
M  V30 2287 H 221.238 5.61069 3.31729 0
M  V30 2288 N 224.671 0.411399 1.52136 0
M  V30 2289 C 225.603 -0.448386 2.24771 0
M  V30 2290 C 226.616 -1.00828 1.27818 0
M  V30 2291 O 227.805 -0.906841 1.53749 0
M  V30 2292 C 224.905 -1.63636 2.96777 0
M  V30 2293 C 224.078 -1.19995 4.20618 0
M  V30 2294 C 223.137 -2.25509 4.75428 0
M  V30 2295 O 222.163 -1.86007 5.3795 0
M  V30 2296 N 223.365 -3.577 4.57199 0
M  V30 2297 H 226.13 0.174025 2.99194 0
M  V30 2298 H 223.691 0.238897 1.60128 0
M  V30 2299 H 225.683 -2.33793 3.30338 0
M  V30 2300 H 224.253 -2.16465 2.25526 0
M  V30 2301 H 223.473 -0.326421 3.92846 0
M  V30 2302 H 224.761 -0.885365 5.01038 0
M  V30 2303 H 224.159 -3.92543 4.07341 0
M  V30 2304 H 222.716 -4.23827 4.95191 0
M  V30 2305 N 226.149 -1.5696 0.141893 0
M  V30 2306 C 227.081 -2.13619 -0.830627 0
M  V30 2307 C 228.094 -1.08439 -1.21428 0
M  V30 2308 O 229.283 -1.35734 -1.15925 0
M  V30 2309 C 226.383 -2.63978 -2.12529 0
M  V30 2310 C 225.556 -3.93504 -1.9098 0
M  V30 2311 C 224.615 -4.29225 -3.04388 0
M  V30 2312 O 223.641 -4.97641 -2.76302 0
M  V30 2313 N 224.843 -3.88393 -4.31429 0
M  V30 2314 H 227.608 -2.97691 -0.34641 0
M  V30 2315 H 225.169 -1.61846 -0.0418375 0
M  V30 2316 H 227.161 -2.84891 -2.87436 0
M  V30 2317 H 225.731 -1.84659 -2.52229 0
M  V30 2318 H 224.951 -3.81269 -1.00139 0
M  V30 2319 H 226.239 -4.78154 -1.73914 0
M  V30 2320 H 225.637 -3.33257 -4.57117 0
M  V30 2321 H 224.194 -4.14368 -5.03133 0
M  V30 2322 N 227.627 0.131896 -1.57047 0
M  V30 2323 C 228.59 1.14638 -1.98471 0
M  V30 2324 C 229.59 1.35029 -0.873148 0
M  V30 2325 O 230.78 1.31764 -1.13946 0
M  V30 2326 C 227.912 2.50358 -2.31373 0
M  V30 2327 H 229.105 0.79064 -2.8929 0
M  V30 2328 H 226.658 0.375761 -1.51716 0
M  V30 2329 H 227.393 2.90876 -1.43393 0
M  V30 2330 H 227.178 2.36915 -3.12432 0
M  V30 2331 H 228.668 3.23395 -2.64207 0
M  V30 2332 N 229.106 1.52395 0.401703 0
M  V30 2333 C 230.334 1.70676 1.16949 0
M  V30 2334 C 230.749 0.419503 1.8408 0
M  V30 2335 O 230.106 -0.605061 1.72178 0
M  V30 2336 C 230.157 2.84753 2.22706 0
M  V30 2337 O 229.878 4.08495 1.58314 0
M  V30 2338 C 231.379 3.14608 3.12309 0
M  V30 2339 H 228.599 0.571787 0.351142 0
M  V30 2340 H 231.143 1.98987 0.471652 0
M  V30 2341 H 229.298 2.58941 2.88147 0
M  V30 2342 H 229.712 4.72117 2.28485 0
M  V30 2343 H 231.186 3.97923 3.82572 0
M  V30 2344 H 231.663 2.28464 3.75101 0
M  V30 2345 H 232.269 3.42212 2.52529 0
M  V30 2346 N 230.584 -0.659388 1.43143 0
M  V30 2347 C 231.83 -1.42145 1.44647 0
M  V30 2348 C 232.163 -1.9408 0.0681907 0
M  V30 2349 O 231.438 -1.71899 -0.910007 0
M  V30 2350 C 231.721 -2.60735 2.48373 0
M  V30 2351 C 231.574 -2.14332 3.95451 0
M  V30 2352 C 232.893 -3.62951 2.48906 0
M  V30 2353 H 230.012 -0.51552 0.526696 0
M  V30 2354 H 232.654 -0.748069 1.74654 0
M  V30 2355 H 230.804 -3.18184 2.22916 0
M  V30 2356 H 232.476 -1.61932 4.31944 0
M  V30 2357 H 230.719 -1.4576 4.08578 0
M  V30 2358 H 231.39 -2.99583 4.63631 0
M  V30 2359 H 233.866 -3.1525 2.71582 0
M  V30 2360 H 232.742 -4.43487 3.23435 0
M  V30 2361 H 233.003 -4.15126 1.52061 0
M  V30 2362 N 232.062 -1.29571 -0.897171 0
M  V30 2363 C 232.995 -1.0924 -2.00354 0
M  V30 2364 C 233.973 -0.00354011 -1.626 0
M  V30 2365 O 235.157 -0.15473 -1.87864 0
M  V30 2366 C 232.284 -0.66352 -3.32137 0
M  V30 2367 C 231.33 -1.75146 -3.88878 0
M  V30 2368 S 232.163 -3.35124 -4.17674 0
M  V30 2369 C 233.319 -2.9411 -5.52494 0
M  V30 2370 H 233.552 -2.02907 -2.17292 0
M  V30 2371 H 231.085 -1.13746 -1.04408 0
M  V30 2372 H 233.043 -0.422791 -4.08317 0
M  V30 2373 H 231.704 0.253588 -3.13075 0
M  V30 2374 H 230.897 -1.40337 -4.84068 0
M  V30 2375 H 230.499 -1.94584 -3.19395 0
M  V30 2376 H 232.791 -2.41312 -6.33068 0
M  V30 2377 H 233.734 -3.88161 -5.9223 0
M  V30 2378 H 234.142 -2.32332 -5.14473 0
M  V30 2379 N 233.54 1.10788 -1.12088 0
M  V30 2380 C 234.47 2.19083 -0.807755 0
M  V30 2381 C 235.451 1.6858 0.226859 0
M  V30 2382 O 236.636 1.93997 0.0888475 0
M  V30 2383 C 233.766 3.46344 -0.257576 0
M  V30 2384 C 232.72 4.101 -1.22483 0
M  V30 2385 C 232.046 5.32016 -0.535052 0
M  V30 2386 C 233.346 4.54236 -2.57811 0
M  V30 2387 H 235.04 2.45534 -1.71328 0
M  V30 2388 H 232.586 1.1801 -0.825205 0
M  V30 2389 H 234.539 4.21392 -0.0262679 0
M  V30 2390 H 233.263 3.19373 0.683278 0
M  V30 2391 H 231.922 3.37054 -1.44189 0
M  V30 2392 H 231.57 5.01319 0.410827 0
M  V30 2393 H 231.27 5.75625 -1.18024 0
M  V30 2394 H 232.794 6.09799 -0.312695 0
M  V30 2395 H 234.208 5.20575 -2.40155 0
M  V30 2396 H 232.605 5.08682 -3.18375 0
M  V30 2397 H 233.675 3.6734 -3.16528 0
M  V30 2398 N 235.018 0.912232 1.28515 0
M  V30 2399 C 235.965 0.397954 2.27343 0
M  V30 2400 C 236.935 -0.526766 1.57526 0
M  V30 2401 O 238.12 -0.449292 1.85435 0
M  V30 2402 C 235.26 -0.357263 3.43246 0
M  V30 2403 C 234.373 0.599788 4.27816 0
M  V30 2404 C 233.508 -0.173725 5.30916 0
M  V30 2405 C 232.547 0.777039 6.07148 0
M  V30 2406 N 231.684 0.0371398 7.0209 0
M  V30 2407 H 236.524 1.24577 2.70711 0
M  V30 2408 H 234.061 0.625612 1.33133 0
M  V30 2409 H 236.019 -0.8113 4.09236 0
M  V30 2410 H 234.649 -1.16943 3.00872 0
M  V30 2411 H 233.701 1.17235 3.61884 0
M  V30 2412 H 235.013 1.32704 4.80823 0
M  V30 2413 H 234.167 -0.688394 6.02782 0
M  V30 2414 H 232.906 -0.934041 4.78672 0
M  V30 2415 H 231.911 1.3031 5.34134 0
M  V30 2416 H 233.136 1.53689 6.61481 0
M  V30 2417 H 231.082 -0.705213 6.52198 0
M  V30 2418 H 230.999 0.704249 7.52713 0
M  V30 2419 H 232.267 -0.457383 7.78157 0
M  V30 2420 N 236.496 -1.42363 0.676048 0
M  V30 2421 C 237.745 -2.00745 0.196037 0
M  V30 2422 C 238.058 -1.54083 -1.20489 0
M  V30 2423 O 239.264 -2.04891 -1.78134 0
M  V30 2424 C 237.72 -3.58651 0.299616 0
M  V30 2425 C 237.328 -4.143 1.70468 0
M  V30 2426 C 239.072 -4.24326 -0.121619 0
M  V30 2427 C 236.979 -5.64574 1.76096 0
M  V30 2428 H 235.909 -0.750787 0.0695301 0
M  V30 2429 H 238.56 -1.63072 0.841412 0
M  V30 2430 H 236.942 -3.93833 -0.413673 0
M  V30 2431 H 238.116 -3.90575 2.44515 0
M  V30 2432 H 236.431 -3.61081 2.07387 0
M  V30 2433 H 239.028 -5.34607 -0.0997362 0
M  V30 2434 H 239.371 -3.99897 -1.15708 0
M  V30 2435 H 239.904 -3.94108 0.540706 0
M  V30 2436 H 236.643 -5.93804 2.77628 0
M  V30 2437 H 236.163 -5.90286 1.06406 0
M  V30 2438 H 237.842 -6.29013 1.51496 0
M  V30 2439 N 237.974 -0.419461 -1.51915 0
M  V30 2440 C 238.907 0.445751 -2.23804 0
M  V30 2441 C 239.885 1.03951 -1.25031 0
M  V30 2442 O 241.069 1.08541 -1.54114 0
M  V30 2443 C 238.196 1.61964 -2.97465 0
M  V30 2444 C 237.242 1.14828 -4.10751 0
M  V30 2445 S 238.075 0.104938 -5.35397 0
M  V30 2446 C 239.231 1.28391 -6.1259 0
M  V30 2447 H 239.464 -0.164627 -2.96844 0
M  V30 2448 H 236.997 -0.203833 -1.53049 0
M  V30 2449 H 238.955 2.29271 -3.40507 0
M  V30 2450 H 237.616 2.20139 -2.24048 0
M  V30 2451 H 236.809 2.02561 -4.61503 0
M  V30 2452 H 236.411 0.553712 -3.69878 0
M  V30 2453 H 238.703 2.20563 -6.40592 0
M  V30 2454 H 239.646 0.816724 -7.03374 0
M  V30 2455 H 240.054 1.51439 -5.43807 0
M  V30 2456 N 239.452 1.56882 -0.150215 0
M  V30 2457 C 240.384 2.14057 0.819286 0
M  V30 2458 C 241.397 1.09082 1.20851 0
M  V30 2459 O 242.586 1.36347 1.15203 0
M  V30 2460 C 239.686 2.65102 2.11127 0
M  V30 2461 C 238.859 3.94511 1.88891 0
M  V30 2462 C 237.918 4.30834 3.02107 0
M  V30 2463 O 236.944 4.99099 2.73659 0
M  V30 2464 N 238.146 3.90676 4.29363 0
M  V30 2465 H 240.911 2.97871 0.330618 0
M  V30 2466 H 238.472 1.61866 0.0332538 0
M  V30 2467 H 240.464 2.86411 2.85921 0
M  V30 2468 H 239.034 1.85994 2.51247 0
M  V30 2469 H 238.254 3.81795 0.981152 0
M  V30 2470 H 239.542 4.7907 1.71376 0
M  V30 2471 H 238.94 3.35677 4.55343 0
M  V30 2472 H 237.497 4.1703 5.00928 0
M  V30 2473 N 240.93 -0.123565 1.57115 0
M  V30 2474 C 242.207 -0.862196 1.75572 0
M  V30 2475 C 242.587 -1.98279 0.724475 0
M  V30 2476 O 241.935 -2.27102 -0.252407 0
M  V30 2477 C 242.145 -1.38309 3.20424 0
M  V30 2478 C 243.493 -1.83724 3.82793 0
M  V30 2479 O 244.517 -1.47999 3.23998 0
M  V30 2480 O 243.376 -2.49685 4.86127 0
M  V30 2481 H 240.47 -0.409113 0.718718 0
M  V30 2482 H 243.016 -0.107661 1.69358 0
M  V30 2483 H 241.788 -0.578889 3.86994 0
M  V30 2484 H 241.411 -2.20046 3.31158 0
M  V30 2485 N 242.408 -1.52605 -0.393616 0
M  V30 2486 C 243.638 -1.71046 -1.15874 0
M  V30 2487 C 244.046 -0.426483 -1.84331 0
M  V30 2488 O 243.389 0.608513 -1.73329 0
M  V30 2489 C 243.451 -2.80118 -2.25332 0
M  V30 2490 C 243.115 -4.21381 -1.76881 0
M  V30 2491 C 244.112 -5.04697 -1.24808 0
M  V30 2492 C 241.797 -4.67683 -1.83244 0
M  V30 2493 C 243.791 -6.32393 -0.797387 0
M  V30 2494 C 241.478 -5.95364 -1.37787 0
M  V30 2495 C 242.476 -6.77549 -0.861208 0
M  V30 2496 O 242.164 -8.02837 -0.413252 0
M  V30 2497 H 241.896 -0.576155 -0.353583 0
M  V30 2498 H 244.45 -2.00018 -0.467123 0
M  V30 2499 H 242.68 -2.46557 -2.97904 0
M  V30 2500 H 244.369 -2.87006 -2.87023 0
M  V30 2501 H 245.135 -4.70111 -1.19252 0
M  V30 2502 H 241.014 -4.03805 -2.22401 0
M  V30 2503 H 244.558 -6.9649 -0.393437 0
M  V30 2504 H 240.455 -6.29455 -1.43026 0
M  V30 2505 H 241.223 -8.16749 -0.53515 0
M  V30 2506 N 243.887 0.651787 -1.4349 0
M  V30 2507 C 245.164 1.40909 -1.35661 0
M  V30 2508 C 245.544 2.11099 -0.00511733 0
M  V30 2509 O 244.892 2.04892 1.0115 0
M  V30 2510 C 245.102 2.3926 -2.54078 0
M  V30 2511 C 246.45 3.03217 -2.97228 0
M  V30 2512 O 247.474 2.49588 -2.54135 0
M  V30 2513 O 246.333 4.00455 -3.71885 0
M  V30 2514 H 243.427 0.629625 -0.536191 0
M  V30 2515 H 245.973 0.678575 -1.55542 0
M  V30 2516 H 244.745 1.86352 -3.44076 0
M  V30 2517 H 244.368 3.1976 -2.36303 0
M  V30 2518 N 245.365 1.30045 0.890287 0
M  V30 2519 C 246.611 1.19747 1.64415 0
M  V30 2520 C 246.966 -0.246591 1.90813 0
M  V30 2521 O 246.259 -1.174 1.51419 0
M  V30 2522 C 246.453 1.95409 2.99249 0
M  V30 2523 C 246.282 3.47025 2.86013 0
M  V30 2524 C 245.052 4.1638 2.86279 0
M  V30 2525 C 247.25 4.42353 2.62351 0
M  V30 2526 N 245.232 5.54293 2.63879 0
M  V30 2527 C 246.603 5.67792 2.49022 0
M  V30 2528 C 248.658 4.32009 2.47533 0
M  V30 2529 C 247.361 6.8406 2.22383 0
M  V30 2530 C 249.387 5.48038 2.22279 0
M  V30 2531 C 248.749 6.72455 2.09722 0
M  V30 2532 H 244.848 0.493223 0.60684 0
M  V30 2533 H 247.432 1.6399 1.04954 0
M  V30 2534 H 245.603 1.53565 3.56752 0
M  V30 2535 H 247.335 1.77298 3.63796 0
M  V30 2536 H 244.09 3.68164 2.97913 0
M  V30 2537 H 244.514 6.26852 2.55706 0
M  V30 2538 H 249.156 3.36503 2.55979 0
M  V30 2539 H 246.874 7.79612 2.12675 0
M  V30 2540 H 250.46 5.41939 2.11643 0
M  V30 2541 H 249.34 7.60722 1.90453 0
M  V30 2542 N 246.843 -1.10192 1.12674 0
M  V30 2543 C 247.793 -2.14754 0.765801 0
M  V30 2544 C 248.777 -1.59154 -0.236409 0
M  V30 2545 O 249.969 -1.76951 -0.0415261 0
M  V30 2546 C 247.098 -3.42563 0.224827 0
M  V30 2547 C 246.184 -4.05091 1.25548 0
M  V30 2548 N 246.575 -4.42287 2.4539 0
M  V30 2549 C 244.873 -4.32186 1.10142 0
M  V30 2550 C 245.574 -4.91441 3.11224 0
M  V30 2551 N 244.55 -4.88405 2.38666 0
M  V30 2552 H 248.352 -2.41309 1.67772 0
M  V30 2553 H 245.866 -1.27339 1.00789 0
M  V30 2554 H 247.863 -4.16868 -0.0519578 0
M  V30 2555 H 246.523 -3.17467 -0.681515 0
M  V30 2556 H 247.534 -4.33902 2.82754 0
M  V30 2557 H 244.211 -4.16735 0.252587 0
M  V30 2558 H 245.601 -5.29749 4.13298 0
M  V30 2559 N 248.321 -0.919034 -1.28029 0
M  V30 2560 C 249.567 -0.555757 -1.95036 0
M  V30 2561 C 249.9 0.899198 -1.72128 0
M  V30 2562 O 249.175 1.64023 -1.04531 0
M  V30 2563 C 249.458 -0.872024 -3.49382 0
M  V30 2564 C 249.311 -2.3801 -3.81669 0
M  V30 2565 C 250.63 -0.37185 -4.38526 0
M  V30 2566 H 247.749 -0.203386 -0.708381 0
M  V30 2567 H 250.391 -1.14924 -1.51303 0
M  V30 2568 H 248.541 -0.366946 -3.86763 0
M  V30 2569 H 250.213 -2.9562 -3.54128 0
M  V30 2570 H 248.456 -2.83289 -3.28526 0
M  V30 2571 H 249.127 -2.55192 -4.8947 0
M  V30 2572 H 251.603 -0.804602 -4.08247 0
M  V30 2573 H 250.479 -0.622173 -5.45362 0
M  V30 2574 H 250.74 0.727934 -4.36066 0
M  V30 2575 N 249.799 1.42003 -0.683588 0
M  V30 2576 C 251.046 2.01413 -0.209514 0
M  V30 2577 C 251.374 1.54088 1.1869 0
M  V30 2578 O 250.629 0.737591 1.81268 0
M  V30 2579 C 250.928 3.56827 -0.202357 0
M  V30 2580 C 250.594 4.23617 -1.54464 0
M  V30 2581 C 249.256 4.41577 -1.91215 0
M  V30 2582 C 251.608 4.61178 -2.42826 0
M  V30 2583 C 248.936 4.9437 -3.15935 0
M  V30 2584 C 251.288 5.15355 -3.66867 0
M  V30 2585 C 249.952 5.31528 -4.03776 0
M  V30 2586 H 249.222 0.737023 -0.0766668 0
M  V30 2587 H 251.869 1.70067 -0.880312 0
M  V30 2588 H 250.174 3.87892 0.551969 0
M  V30 2589 H 251.871 4.00588 0.181793 0
M  V30 2590 H 248.461 4.10004 -1.24877 0
M  V30 2591 H 252.645 4.46968 -2.15717 0
M  V30 2592 H 247.901 5.05076 -3.44541 0
M  V30 2593 H 252.075 5.43402 -4.35531 0
M  V30 2594 H 249.702 5.72199 -5.00492 0
M  V30 2595 N 251.277 0.427512 1.51691 0
M  V30 2596 C 252.502 -0.143601 2.06902 0
M  V30 2597 C 252.927 -1.36536 1.29382 0
M  V30 2598 O 252.285 -1.78289 0.329043 0
M  V30 2599 C 252.333 -0.454207 3.57728 0
M  V30 2600 O 251.437 -1.54228 3.82475 0
M  V30 2601 H 250.778 -0.00617128 0.663971 0
M  V30 2602 H 253.308 0.606014 1.95419 0
M  V30 2603 H 253.318 -0.707525 4.01818 0
M  V30 2604 H 251.993 0.438812 4.13579 0
M  V30 2605 H 250.57 -1.2797 3.50254 0
M  V30 2606 N 252.755 -1.56801 0.158532 0
M  V30 2607 C 253.685 -2.20347 -0.772609 0
M  V30 2608 C 254.666 -1.15518 -1.24859 0
M  V30 2609 O 255.851 -1.43902 -1.30406 0
M  V30 2610 C 252.981 -2.83417 -2.00729 0
M  V30 2611 C 251.935 -3.94174 -1.66765 0
M  V30 2612 C 251.261 -4.44233 -2.97592 0
M  V30 2613 C 252.561 -5.14392 -0.905447 0
M  V30 2614 H 254.255 -2.98413 -0.242959 0
M  V30 2615 H 251.801 -1.43537 -0.115419 0
M  V30 2616 H 253.754 -3.26543 -2.6636 0
M  V30 2617 H 252.478 -2.02701 -2.56086 0
M  V30 2618 H 251.137 -3.51684 -1.03508 0
M  V30 2619 H 250.785 -3.60325 -3.50963 0
M  V30 2620 H 250.485 -5.18945 -2.75626 0
M  V30 2621 H 252.009 -4.90037 -3.64274 0
M  V30 2622 H 253.423 -5.5429 -1.46408 0
M  V30 2623 H 251.82 -5.9494 -0.7853 0
M  V30 2624 H 252.89 -4.84795 0.100668 0
M  V30 2625 N 254.233 0.115231 -1.57178 0
M  V30 2626 C 255.479 0.82357 -1.85325 0
M  V30 2627 C 255.812 1.79349 -0.744814 0
M  V30 2628 O 255.087 1.92899 0.249024 0
M  V30 2629 C 255.37 1.57014 -3.24066 0
M  V30 2630 C 255.223 0.619565 -4.45513 0
M  V30 2631 C 256.542 2.52545 -3.60429 0
M  V30 2632 H 253.661 0.297948 -0.674089 0
M  V30 2633 H 256.303 0.0877138 -1.89797 0
M  V30 2634 H 254.453 2.19742 -3.20383 0
M  V30 2635 H 256.125 0.000837639 -4.613 0
M  V30 2636 H 254.368 -0.0686174 -4.33746 0
M  V30 2637 H 255.039 1.17866 -5.3927 0
M  V30 2638 H 257.515 1.9992 -3.64926 0
M  V30 2639 H 256.391 3.01811 -4.58477 0
M  V30 2640 H 256.652 3.35383 -2.88047 0
M  V30 2641 N 255.711 1.52812 0.385517 0
M  V30 2642 C 256.939 1.71907 1.15133 0
M  V30 2643 C 257.354 0.439004 1.83625 0
M  V30 2644 O 256.711 -0.586765 1.7281 0
M  V30 2645 C 256.762 2.87099 2.19673 0
M  V30 2646 O 256.483 4.10151 1.53973 0
M  V30 2647 C 257.984 3.17902 3.08955 0
M  V30 2648 H 255.204 0.575479 0.345057 0
M  V30 2649 H 257.748 1.99476 0.45052 0
M  V30 2650 H 255.903 2.61982 2.85384 0
M  V30 2651 H 256.317 4.74514 2.23465 0
M  V30 2652 H 257.791 4.01959 3.7833 0
M  V30 2653 H 258.268 2.3243 3.72657 0
M  V30 2654 H 258.874 3.44871 2.48885 0
M  V30 2655 N 257.189 -0.644168 1.43834 0
M  V30 2656 C 258.417 -1.43147 1.49387 0
M  V30 2657 C 258.832 -1.88452 0.114583 0
M  V30 2658 O 258.189 -1.60047 -0.876989 0
M  V30 2659 C 258.24 -2.66046 2.44748 0
M  V30 2660 O 257.961 -2.22633 3.77314 0
M  V30 2661 C 259.462 -3.59311 2.59635 0
M  V30 2662 H 256.682 -0.439447 0.507077 0
M  V30 2663 H 259.226 -0.78895 1.88669 0
M  V30 2664 H 257.381 -3.26418 2.08638 0
M  V30 2665 H 257.795 -3.02216 4.28679 0
M  V30 2666 H 259.269 -4.42187 3.30416 0
M  V30 2667 H 259.746 -4.07259 1.64427 0
M  V30 2668 H 260.352 -3.04816 2.96593 0
M  V30 2669 N 258.668 -1.30515 -0.883378 0
M  V30 2670 C 259.917 -1.18795 -1.63005 0
M  V30 2671 C 260.23 0.255923 -1.93919 0
M  V30 2672 O 261.436 0.494654 -2.66956 0
M  V30 2673 C 259.892 -2.07878 -2.93794 0
M  V30 2674 C 259.5 -3.57184 -2.70414 0
M  V30 2675 C 261.244 -2.04924 -3.71761 0
M  V30 2676 C 259.151 -4.38317 -3.97029 0
M  V30 2677 H 258.081 -0.441031 -0.611562 0
M  V30 2678 H 260.732 -1.55275 -0.977854 0
M  V30 2679 H 259.114 -1.64283 -3.60315 0
M  V30 2680 H 260.288 -4.08937 -2.12384 0
M  V30 2681 H 258.603 -3.61976 -2.0582 0
M  V30 2682 H 261.2 -2.62792 -4.65665 0
M  V30 2683 H 261.543 -1.0331 -4.03277 0
M  V30 2684 H 262.076 -2.46649 -3.12104 0
M  V30 2685 H 258.815 -5.40632 -3.70671 0
M  V30 2686 H 258.335 -3.91326 -4.54559 0
M  V30 2687 H 260.014 -4.49834 -4.65036 0
M  V30 2688 N 260.146 1.09593 -1.13257 0
M  V30 2689 C 261.393 1.81734 -0.893257 0
M  V30 2690 C 261.721 1.8563 0.580656 0
M  V30 2691 O 260.976 1.31906 1.44566 0
M  V30 2692 C 261.275 3.27802 -1.42411 0
M  V30 2693 C 260.941 3.44041 -2.91456 0
M  V30 2694 C 259.603 3.48181 -3.3215 0
M  V30 2695 C 261.955 3.48719 -3.87356 0
M  V30 2696 C 259.283 3.54575 -4.67433 0
M  V30 2697 C 261.635 3.56648 -5.2248 0
M  V30 2698 C 260.299 3.59055 -5.62704 0
M  V30 2699 H 259.569 0.665011 -0.326866 0
M  V30 2700 H 262.216 1.2912 -1.41422 0
M  V30 2701 H 260.521 3.83042 -0.823795 0
M  V30 2702 H 262.218 3.82149 -1.21503 0
M  V30 2703 H 258.808 3.41502 -2.58987 0
M  V30 2704 H 262.992 3.44763 -3.57004 0
M  V30 2705 H 258.248 3.54725 -4.97976 0
M  V30 2706 H 262.422 3.59212 -5.96607 0
M  V30 2707 H 260.049 3.63763 -6.67518 0
M  V30 2708 N 261.624 0.925811 1.2754 0
M  V30 2709 C 263.035 0.610102 1.7645 0
M  V30 2710 C 263.386 -0.874723 1.75622 0
M  V30 2711 O 262.511 -1.68444 1.35851 0
M  V30 2712 C 263.106 1.10073 3.20421 0
M  V30 2713 C 261.665 0.835723 3.67005 0
M  V30 2714 C 260.812 1.26054 2.46993 0
M  V30 2715 H 263.763 1.10579 1.13833 0
M  V30 2716 H 263.784 0.447557 3.77859 0
M  V30 2717 H 263.296 2.18143 3.20991 0
M  V30 2718 H 261.397 -0.231249 3.71882 0
M  V30 2719 H 261.51 1.45193 4.56569 0
M  V30 2720 H 259.874 0.679111 2.45479 0
M  V30 2721 H 260.657 2.34984 2.50275 0
M  V30 2722 N 263.102 -1.41638 0.69111 0
M  V30 2723 C 264.35 -2.00902 0.219758 0
M  V30 2724 C 264.671 -1.54994 -1.18329 0
M  V30 2725 O 263.941 -0.778628 -1.79762 0
M  V30 2726 H 262.521 -0.74289 0.0782558 0
M  V30 2727 H 265.183 -1.73327 0.891271 0
M  V30 2728 H 264.279 -3.11224 0.233708 0
M  V30 2729 N 264.58 -0.43555 -1.51462 0
M  V30 2730 C 265.81 0.130053 -2.0619 0
M  V30 2731 C 266.218 1.37164 -1.30317 0
M  V30 2732 O 265.561 1.80225 -0.355598 0
M  V30 2733 C 265.623 0.519418 -3.55728 0
M  V30 2734 C 265.287 -0.615119 -4.52841 0
M  V30 2735 C 266.284 -1.48671 -4.9819 0
M  V30 2736 C 263.969 -0.795341 -4.95963 0
M  V30 2737 C 265.963 -2.52324 -5.8533 0
M  V30 2738 C 263.65 -1.83514 -5.82894 0
M  V30 2739 C 264.648 -2.69748 -6.27475 0
M  V30 2740 O 264.336 -3.71944 -7.1268 0
M  V30 2741 H 264.068 0.0121612 -0.675891 0
M  V30 2742 H 266.622 -0.6129 -1.96043 0
M  V30 2743 H 264.852 1.31505 -3.63653 0
M  V30 2744 H 266.541 1.01597 -3.92979 0
M  V30 2745 H 267.307 -1.359 -4.65571 0
M  V30 2746 H 263.186 -0.133713 -4.60806 0
M  V30 2747 H 266.73 -3.19665 -6.20048 0
M  V30 2748 H 262.627 -1.96306 -6.14926 0
M  V30 2749 H 263.395 -3.68503 -7.30854 0
M  V30 2750 N 266.058 1.56714 -0.166846 0
M  V30 2751 C 267.474 1.58473 0.189372 0
M  V30 2752 C 267.674 1.18201 1.63189 0
M  V30 2753 O 266.73 0.891528 2.36237 0
M  V30 2754 C 268.043 3.00573 -0.0873872 0
M  V30 2755 C 269.591 3.1299 -0.0252443 0
M  V30 2756 C 270.066 4.57174 -0.274934 0
M  V30 2757 N 271.557 4.62665 -0.222553 0
M  V30 2758 C 272.292 5.72072 -0.389985 0
M  V30 2759 N 271.788 6.90054 -0.616229 0
M  V30 2760 N 273.581 5.61153 -0.326202 0
M  V30 2761 H 265.732 1.8118 -1.10849 0
M  V30 2762 H 267.995 0.839525 -0.440342 0
M  V30 2763 H 267.701 3.34497 -1.0865 0
M  V30 2764 H 267.575 3.72019 0.623037 0
M  V30 2765 H 269.962 2.78895 0.96444 0
M  V30 2766 H 270.043 2.43989 -0.768309 0
M  V30 2767 H 269.687 4.91976 -1.26181 0
M  V30 2768 H 269.617 5.24328 0.48869 0
M  V30 2769 H 272.108 3.77863 -0.0531512 0
M  V30 2770 H 272.421 7.69311 -0.733559 0
M  V30 2771 H 270.766 6.91927 -0.652791 0
M  V30 2772 H 273.957 4.67859 -0.150072 0
M  V30 2773 H 274.13 6.46364 -0.460116 0
M  V30 2774 N 267.536 -0.106894 1.57237 0
M  V30 2775 C 268.446 -1.14911 2.0453 0
M  V30 2776 C 269.462 -1.44592 0.96795 0
M  V30 2777 O 270.638 -1.55468 1.2803 0
M  V30 2778 C 267.703 -2.45272 2.45036 0
M  V30 2779 C 266.764 -2.22879 3.66911 0
M  V30 2780 C 265.997 -3.47024 4.05475 0
M  V30 2781 O 266.22 -4.54804 3.44252 0
M  V30 2782 O 265.154 -3.3731 4.98504 0
M  V30 2783 H 268.98 -0.777461 2.9358 0
M  V30 2784 H 266.565 -0.318563 1.45964 0
M  V30 2785 H 268.447 -3.22055 2.71769 0
M  V30 2786 H 267.122 -2.81886 1.59129 0
M  V30 2787 H 266.029 -1.43915 3.45311 0
M  V30 2788 H 267.362 -1.91163 4.53561 0
M  V30 2789 N 269.014 -1.53014 -0.377408 0
M  V30 2790 C 270.261 -1.68623 -1.12128 0
M  V30 2791 C 270.589 -0.431997 -1.89642 0
M  V30 2792 O 269.844 0.585855 -1.86725 0
M  V30 2793 C 270.143 -2.87982 -2.11663 0
M  V30 2794 C 269.809 -4.24964 -1.50719 0
M  V30 2795 C 268.471 -4.62217 -1.33825 0
M  V30 2796 C 270.823 -5.10199 -1.06519 0
M  V30 2797 C 268.151 -5.82352 -0.712963 0
M  V30 2798 C 270.503 -6.30969 -0.453955 0
M  V30 2799 C 269.167 -6.66944 -0.272411 0
M  V30 2800 H 268.437 -0.617034 -0.410305 0
M  V30 2801 H 271.084 -1.8718 -0.404484 0
M  V30 2802 H 269.389 -2.63889 -2.89603 0
M  V30 2803 H 271.086 -2.97253 -2.6915 0
M  V30 2804 H 267.676 -3.95626 -1.64858 0
M  V30 2805 H 271.86 -4.81978 -1.18368 0
M  V30 2806 H 267.116 -6.08824 -0.560611 0
M  V30 2807 H 271.29 -6.96324 -0.103217 0
M  V30 2808 H 268.917 -7.59898 0.214181 0
M  V30 2809 N 270.492 0.636531 -1.44174 0
M  V30 2810 C 271.741 1.39213 -1.45954 0
M  V30 2811 C 272.054 1.95374 -0.0939119 0
M  V30 2812 O 273.26 2.71498 0.0107767 0
M  V30 2813 C 271.716 2.52025 -2.56927 0
M  V30 2814 C 271.324 2.024 -3.99673 0
M  V30 2815 C 273.068 3.29269 -2.67922 0
M  V30 2816 C 270.975 3.12521 -5.0208 0
M  V30 2817 H 269.905 0.523132 -0.542999 0
M  V30 2818 H 272.556 0.685349 -1.70221 0
M  V30 2819 H 270.938 3.25253 -2.25891 0
M  V30 2820 H 272.112 1.36073 -4.40251 0
M  V30 2821 H 270.427 1.37987 -3.92872 0
M  V30 2822 H 273.024 4.11352 -3.41605 0
M  V30 2823 H 273.367 3.78397 -1.73555 0
M  V30 2824 H 273.9 2.63129 -2.98342 0
M  V30 2825 H 270.639 2.68343 -5.98057 0
M  V30 2826 H 270.159 3.77507 -4.66099 0
M  V30 2827 H 271.838 3.77385 -5.25538 0
M  V30 2828 N 271.97 1.30982 0.876444 0
M  V30 2829 C 273.195 1.23373 1.66715 0
M  V30 2830 C 273.62 -0.19885 1.87046 0
M  V30 2831 O 272.978 -1.1427 1.40756 0
M  V30 2832 C 273.026 1.97644 3.01611 0
M  V30 2833 O 272.13 1.30935 3.91062 0
M  V30 2834 H 271.471 0.426279 0.509099 0
M  V30 2835 H 274.001 1.72944 1.09323 0
M  V30 2836 H 274.011 2.06992 3.51594 0
M  V30 2837 H 272.686 3.01829 2.86133 0
M  V30 2838 H 271.263 1.29996 3.49507 0
M  V30 2839 N 273.449 -1.08991 1.13837 0
M  V30 2840 C 274.696 -1.81258 0.902882 0
M  V30 2841 C 275.024 -1.85936 -0.570803 0
M  V30 2842 O 274.279 -1.3267 -1.43865 0
M  V30 2843 C 274.578 -3.27042 1.44147 0
M  V30 2844 C 274.244 -3.4249 2.93276 0
M  V30 2845 C 272.906 -3.46414 3.33992 0
M  V30 2846 C 275.258 -3.4666 3.892 0
M  V30 2847 C 272.586 -3.52091 4.69307 0
M  V30 2848 C 274.938 -3.53872 5.24364 0
M  V30 2849 C 273.602 -3.56066 5.646 0
M  V30 2850 H 272.872 -0.663268 0.330388 0
M  V30 2851 H 275.519 -1.28368 1.42105 0
M  V30 2852 H 273.824 -3.82599 0.844097 0
M  V30 2853 H 275.521 -3.81499 1.23528 0
M  V30 2854 H 272.111 -3.40124 2.60794 0
M  V30 2855 H 276.295 -3.42865 3.58828 0
M  V30 2856 H 271.551 -3.52079 4.9985 0
M  V30 2857 H 275.725 -3.56043 5.98503 0
M  V30 2858 H 273.352 -3.60218 6.69438 0
M  V30 2859 N 274.927 -0.932562 -1.27047 0
M  V30 2860 C 276.173 -0.576412 -1.94436 0
M  V30 2861 C 276.506 0.880891 -1.73072 0
M  V30 2862 O 275.781 1.62905 -1.06264 0
M  V30 2863 C 276.064 -0.909031 -3.48437 0
M  V30 2864 C 275.917 -2.42044 -3.79123 0
M  V30 2865 C 277.236 -0.418341 -4.38107 0
M  V30 2866 H 274.355 -0.210888 -0.706184 0
M  V30 2867 H 276.997 -1.16522 -1.50075 0
M  V30 2868 H 275.147 -0.407947 -3.86352 0
M  V30 2869 H 276.819 -2.99359 -3.50973 0
M  V30 2870 H 275.062 -2.86758 -3.25503 0
M  V30 2871 H 275.733 -2.6037 -4.86736 0
M  V30 2872 H 278.209 -0.847856 -4.0737 0
M  V30 2873 H 277.085 -0.679981 -5.44672 0
M  V30 2874 H 277.346 0.681642 -4.36814 0
M  V30 2875 N 276.405 1.4127 -0.698611 0
M  V30 2876 C 277.352 2.30773 -0.0352094 0
M  V30 2877 C 278.322 1.47273 0.768111 0
M  V30 2878 O 279.507 1.76053 0.735524 0
M  V30 2879 C 276.647 3.33346 0.893 0
M  V30 2880 C 275.76 4.31924 0.0809695 0
M  V30 2881 C 274.895 5.21566 1.0071 0
M  V30 2882 C 273.934 6.11811 0.188155 0
M  V30 2883 N 273.071 6.93926 1.06825 0
M  V30 2884 H 277.911 2.86943 -0.804207 0
M  V30 2885 H 275.448 1.4132 -0.408294 0
M  V30 2886 H 277.406 3.91368 1.44523 0
M  V30 2887 H 276.036 2.78719 1.62836 0
M  V30 2888 H 275.088 3.75825 -0.588224 0
M  V30 2889 H 276.4 4.95716 -0.553801 0
M  V30 2890 H 275.554 5.84437 1.62845 0
M  V30 2891 H 274.293 4.58008 1.67572 0
M  V30 2892 H 273.298 5.47986 -0.446254 0
M  V30 2893 H 274.523 6.77425 -0.476716 0
M  V30 2894 H 272.469 6.32973 1.72283 0
M  V30 2895 H 272.386 7.54416 0.489123 0
M  V30 2896 H 273.654 7.61262 1.67632 0
M  V30 2897 N 277.883 0.443576 1.51229 0
M  V30 2898 C 279.111 -0.11929 2.06556 0
M  V30 2899 C 279.526 -1.35921 1.31038 0
M  V30 2900 O 278.883 -1.78675 0.371704 0
M  V30 2901 C 278.934 -0.435228 3.5887 0
M  V30 2902 O 278.655 0.755486 4.31537 0
M  V30 2903 C 280.156 -1.04808 4.30732 0
M  V30 2904 H 277.376 -0.0051584 0.67098 0
M  V30 2905 H 279.92 0.624453 1.94733 0
M  V30 2906 H 278.075 -1.12887 3.70588 0
M  V30 2907 H 278.489 0.483491 5.22267 0
M  V30 2908 H 279.963 -1.2191 5.3837 0
M  V30 2909 H 280.44 -2.03081 3.89429 0
M  V30 2910 H 281.046 -0.393637 4.23474 0
M  V30 2911 N 279.361 -1.56624 0.175154 0
M  V30 2912 C 280.589 -2.01374 -0.474971 0
M  V30 2913 C 281.004 -1.05537 -1.56548 0
M  V30 2914 O 280.361 -0.0568668 -1.82411 0
M  V30 2915 C 280.412 -3.45923 -1.04975 0
M  V30 2916 O 280.133 -4.381 -0.00276605 0
M  V30 2917 C 281.634 -4.06093 -1.77773 0
M  V30 2918 H 278.854 -0.659962 -0.121206 0
M  V30 2919 H 281.398 -2.02601 0.27801 0
M  V30 2920 H 279.553 -3.45458 -1.75321 0
M  V30 2921 H 279.967 -5.22753 -0.427681 0
M  V30 2922 H 281.441 -5.09147 -2.13245 0
M  V30 2923 H 281.918 -3.48405 -2.67414 0
M  V30 2924 H 282.524 -4.10272 -1.12059 0
M  V30 2925 N 280.839 0.0985539 -1.57292 0
M  V30 2926 C 282.085 0.803867 -1.86188 0
M  V30 2927 C 282.418 1.78549 -0.763794 0
M  V30 2928 O 281.693 1.93153 0.22855 0
M  V30 2929 C 281.976 1.53568 -3.25713 0
M  V30 2930 C 281.829 0.572277 -4.46145 0
M  V30 2931 C 283.148 2.48708 -3.63087 0
M  V30 2932 H 280.267 0.290781 -0.677211 0
M  V30 2933 H 282.909 0.0675783 -1.8988 0
M  V30 2934 H 281.059 2.16332 -3.22696 0
M  V30 2935 H 282.731 -0.0480894 -4.61275 0
M  V30 2936 H 280.974 -0.114618 -4.33649 0
M  V30 2937 H 281.645 1.12139 -5.40489 0
M  V30 2938 H 284.121 1.96039 -3.67026 0
M  V30 2939 H 282.997 2.96932 -4.61652 0
M  V30 2940 H 283.258 3.32309 -2.91588 0
M  V30 2941 N 282.317 1.53212 0.369288 0
M  V30 2942 C 283.594 1.59815 1.12776 0
M  V30 2943 C 283.974 0.403402 2.0721 0
M  V30 2944 O 283.322 -0.606667 2.20299 0
M  V30 2945 C 283.532 2.94664 1.87013 0
M  V30 2946 C 284.88 3.49109 2.41677 0
M  V30 2947 O 285.904 2.96669 1.97144 0
M  V30 2948 O 284.763 4.40775 3.23079 0
M  V30 2949 H 281.857 0.645376 0.517125 0
M  V30 2950 H 284.403 1.65553 0.37285 0
M  V30 2951 H 283.175 3.73061 1.18071 0
M  V30 2952 H 282.798 2.92401 2.69421 0
M  V30 2953 N 283.795 -0.628877 1.44509 0
M  V30 2954 C 284.743 -1.76193 1.51852 0
M  V30 2955 C 285.737 -1.64849 0.390042 0
M  V30 2956 O 286.943 -1.709 0.565082 0
M  V30 2957 H 283.318 -0.581728 0.476547 0
M  V30 2958 H 285.289 -1.67123 2.47209 0
M  V30 2959 C 284.038 -3.14533 1.48204 0
M  V30 2960 H 283.361 -3.23911 2.34354 0
M  V30 2961 H 284.801 -3.93701 1.57402 0
M  V30 2962 C 283.26 -3.36287 0.203142 0
M  V30 2963 O 283.79 -3.9509 -0.725745 0
M  V30 2964 N 281.996 -2.90408 0.105563 0
M  V30 2965 H 281.543 -2.42739 0.862301 0
M  V30 2966 H 281.501 -3.05339 -0.749371 0
M  V30 2967 N 285.273 -1.31445 -0.869486 0
M  V30 2968 C 286.498 -1.24256 -1.66058 0
M  V30 2969 C 286.923 0.188928 -1.87149 0
M  V30 2970 O 286.281 1.13522 -1.4136 0
M  V30 2971 C 286.329 -1.9924 -3.00559 0
M  V30 2972 O 285.433 -1.33007 -3.90362 0
M  V30 2973 H 284.774 -0.428973 -0.506831 0
M  V30 2974 H 287.304 -1.73521 -1.08404 0
M  V30 2975 H 287.314 -2.08854 -3.50491 0
M  V30 2976 H 285.989 -3.03342 -2.84528 0
M  V30 2977 H 284.566 -1.31848 -3.48813 0
M  V30 2978 N 286.751 1.08385 -1.14413 0
M  V30 2979 C 287.998 1.80776 -0.912482 0
M  V30 2980 C 288.326 1.86236 0.560934 0
M  V30 2981 O 287.581 1.33431 1.43159 0
M  V30 2982 C 287.88 3.26273 -1.45879 0
M  V30 2983 C 287.546 3.4093 -2.95089 0
M  V30 2984 C 286.208 3.44638 -3.35824 0
M  V30 2985 C 288.56 3.44591 -3.91033 0
M  V30 2986 C 285.888 3.49597 -4.71167 0
M  V30 2987 C 288.24 3.51086 -5.26233 0
M  V30 2988 C 286.904 3.53067 -5.6648 0
M  V30 2989 H 286.174 0.661507 -0.333901 0
M  V30 2990 H 288.821 1.27613 -1.42784 0
M  V30 2991 H 287.126 3.82146 -0.864376 0
M  V30 2992 H 288.823 3.80839 -1.2555 0
M  V30 2993 H 285.413 3.38736 -2.62594 0
M  V30 2994 H 289.597 3.40957 -3.60641 0
M  V30 2995 H 284.853 3.49424 -5.0171 0
M  V30 2996 H 289.027 3.52864 -6.00383 0
M  V30 2997 H 286.654 3.56662 -6.71339 0
M  V30 2998 N 288.23 0.939286 1.26551 0
M  V30 2999 C 289.476 0.586715 1.94128 0
M  V30 3000 C 289.809 -0.8717 1.73537 0
M  V30 3001 O 289.084 -1.62339 1.07127 0
M  V30 3002 C 289.367 0.927497 3.4795 0
M  V30 3003 C 289.22 2.44052 3.77834 0
M  V30 3004 C 290.539 0.441569 4.37879 0
M  V30 3005 H 287.658 0.21463 0.705055 0
M  V30 3006 H 290.3 1.17316 1.49455 0
M  V30 3007 H 288.45 0.428431 3.8613 0
M  V30 3008 H 290.122 3.01216 3.4938 0
M  V30 3009 H 288.365 2.8848 3.23978 0
M  V30 3010 H 289.036 2.62947 4.85348 0
M  V30 3011 H 291.512 0.869448 4.06915 0
M  V30 3012 H 290.388 0.708856 5.44304 0
M  V30 3013 H 290.649 -0.658467 4.37169 0
M  V30 3014 N 289.708 -1.40897 0.706093 0
M  V30 3015 C 290.956 -2.00657 0.241054 0
M  V30 3016 C 291.277 -1.56241 -1.16678 0
M  V30 3017 O 290.547 -0.79765 -1.78926 0
M  V30 3018 H 289.127 -0.742018 0.0861308 0
M  V30 3019 H 291.789 -1.72372 0.909604 0
M  V30 3020 H 290.885 -3.10958 0.266705 0
M  V30 3021 N 291.186 -0.45159 -1.50991 0
M  V30 3022 C 292.432 0.102439 -2.03142 0
M  V30 3023 C 292.787 1.39138 -1.32884 0
M  V30 3024 O 292.08 1.86493 -0.439438 0
M  V30 3025 C 292.274 0.361728 -3.55565 0
M  V30 3026 C 292.103 -0.900535 -4.40591 0
M  V30 3027 C 290.873 -1.43821 -4.844 0
M  V30 3028 C 293.071 -1.79063 -4.82121 0
M  V30 3029 N 291.053 -2.65153 -5.53685 0
M  V30 3030 C 292.424 -2.84991 -5.50618 0
M  V30 3031 C 294.479 -1.80334 -4.64095 0
M  V30 3032 C 293.182 -3.92155 -6.02998 0
M  V30 3033 C 295.208 -2.86442 -5.17402 0
M  V30 3034 C 294.57 -3.9109 -5.85857 0
M  V30 3035 H 290.669 -0.00204537 -0.781997 0
M  V30 3036 H 293.253 -0.615446 -1.84717 0
M  V30 3037 H 291.424 1.04865 -3.73976 0
M  V30 3038 H 293.156 0.908372 -3.94374 0
M  V30 3039 H 289.911 -0.990117 -4.63135 0
M  V30 3040 H 290.335 -3.26717 -5.92946 0
M  V30 3041 H 294.977 -1.00753 -4.1062 0
M  V30 3042 H 292.695 -4.72565 -6.55521 0
M  V30 3043 H 296.281 -2.88386 -5.05297 0
M  V30 3044 H 295.161 -4.71845 -6.26364 0
M  V30 3045 N 292.664 1.56529 -0.183458 0
M  V30 3046 C 293.941 1.88959 0.50536 0
M  V30 3047 C 294.321 1.09523 1.80466 0
M  V30 3048 O 293.669 0.19278 2.27685 0
M  V30 3049 C 293.879 3.41162 0.73547 0
M  V30 3050 C 295.227 4.11155 1.06005 0
M  V30 3051 O 296.251 3.46548 0.823594 0
M  V30 3052 O 295.11 5.25318 1.50675 0
M  V30 3053 H 292.204 0.78441 0.261973 0
M  V30 3054 H 294.75 1.68231 -0.222802 0
M  V30 3055 H 293.522 3.90874 -0.182561 0
M  V30 3056 H 293.145 3.67543 1.51651 0
M  V30 3057 N 294.142 -0.090211 1.57342 0
M  V30 3058 C 295.075 -1.14035 1.97664 0
M  V30 3059 C 296.053 -1.38576 0.850616 0
M  V30 3060 O 297.237 -1.52255 1.11134 0
M  V30 3061 C 294.364 -2.48854 2.2976 0
M  V30 3062 C 293.41 -2.40564 3.52181 0
M  V30 3063 S 294.243 -1.81745 5.03715 0
M  V30 3064 C 295.399 -3.18178 5.38993 0
M  V30 3065 H 295.632 -0.796636 2.86428 0
M  V30 3066 H 293.165 -0.298072 1.51496 0
M  V30 3067 H 295.123 -3.26413 2.48927 0
M  V30 3068 H 293.784 -2.80393 1.41558 0
M  V30 3069 H 292.977 -3.39942 3.72096 0
M  V30 3070 H 292.579 -1.71135 3.32549 0
M  V30 3071 H 294.871 -4.14461 5.35937 0
M  V30 3072 H 295.814 -3.03062 6.39968 0
M  V30 3073 H 296.222 -3.17935 4.66452 0
M  V30 3074 N 295.62 -1.53406 -0.361157 0
M  V30 3075 C 296.552 -1.76446 -1.46286 0
M  V30 3076 C 297.565 -0.645322 -1.49464 0
M  V30 3077 O 298.754 -0.921681 -1.52864 0
M  V30 3078 C 295.854 -1.83332 -2.85031 0
M  V30 3079 C 295.027 -3.13033 -3.05498 0
M  V30 3080 C 294.086 -3.11104 -4.24383 0
M  V30 3081 O 293.112 -3.84888 -4.19344 0
M  V30 3082 N 294.314 -2.32234 -5.32022 0
M  V30 3083 H 297.079 -2.71508 -1.26899 0
M  V30 3084 H 294.64 -1.52238 -0.550915 0
M  V30 3085 H 296.632 -1.79514 -3.62708 0
M  V30 3086 H 295.202 -0.955342 -2.97644 0
M  V30 3087 H 294.422 -3.30119 -2.15442 0
M  V30 3088 H 295.71 -3.9874 -3.16044 0
M  V30 3089 H 295.108 -1.71807 -5.38979 0
M  V30 3090 H 293.665 -2.3423 -6.08259 0
M  V30 3091 N 297.098 0.621204 -1.44841 0
M  V30 3092 C 298.046 1.75385 -1.52784 0
M  V30 3093 C 299.04 1.64639 -0.398779 0
M  V30 3094 O 300.246 1.70598 -0.574137 0
M  V30 3095 H 296.621 0.579193 -0.479625 0
M  V30 3096 H 298.592 1.6581 -2.48092 0
M  V30 3097 C 297.341 3.13742 -1.4987 0
M  V30 3098 H 296.664 3.22663 -2.36069 0
M  V30 3099 H 298.104 3.92861 -1.59487 0
M  V30 3100 C 296.563 3.36175 -0.220973 0
M  V30 3101 O 297.093 3.95469 0.704782 0
M  V30 3102 N 295.299 2.90348 -0.120963 0
M  V30 3103 H 294.846 2.42278 -0.875162 0
M  V30 3104 H 294.804 3.05732 0.733168 0
M  V30 3105 N 298.576 1.31904 0.862503 0
M  V30 3106 C 299.822 1.22197 1.61851 0
M  V30 3107 C 300.155 -0.217641 1.92977 0
M  V30 3108 O 299.43 -1.15264 1.56666 0
M  V30 3109 C 299.713 2.07378 2.94391 0
M  V30 3110 C 299.566 3.59678 2.70096 0
M  V30 3111 C 300.885 1.92891 3.95577 0
M  V30 3112 H 298.004 0.445255 0.587296 0
M  V30 3113 H 300.646 1.6177 0.99651 0
M  V30 3114 H 298.796 1.73758 3.47477 0
M  V30 3115 H 300.468 4.03472 2.23625 0
M  V30 3116 H 298.711 3.82735 2.04197 0
M  V30 3117 H 299.382 4.14595 3.64438 0
M  V30 3118 H 301.858 2.22327 3.51724 0
M  V30 3119 H 300.734 2.54781 4.86187 0
M  V30 3120 H 300.995 0.894315 4.3296 0
M  V30 3121 N 300.054 -1.07777 1.14986 0
M  V30 3122 C 301.303 -1.79669 0.916617 0
M  V30 3123 C 301.616 -1.87474 -0.557917 0
M  V30 3124 O 302.822 -2.55845 -0.908617 0
M  V30 3125 C 301.278 -3.22848 1.59051 0
M  V30 3126 C 300.886 -3.23257 3.10176 0
M  V30 3127 C 302.63 -3.99379 1.43864 0
M  V30 3128 C 300.537 -4.61063 3.70372 0
M  V30 3129 H 299.467 -0.673349 0.33929 0
M  V30 3130 H 302.118 -1.21003 1.37951 0
M  V30 3131 H 300.5 -3.8168 1.0553 0
M  V30 3132 H 301.674 -2.74095 3.70417 0
M  V30 3133 H 299.989 -2.60222 3.25074 0
M  V30 3134 H 302.586 -5.0122 1.86232 0
M  V30 3135 H 302.929 -4.14511 0.385564 0
M  V30 3136 H 303.462 -3.47032 1.94457 0
M  V30 3137 H 300.201 -4.51135 4.7556 0
M  V30 3138 H 299.721 -5.1048 3.14913 0
M  V30 3139 H 301.4 -5.30034 3.71043 0
M  V30 3140 N 301.532 -0.945985 -1.26051 0
M  V30 3141 C 302.76 -0.613025 -1.9761 0
M  V30 3142 C 303.175 0.813035 -1.70397 0
M  V30 3143 O 302.532 1.54274 -0.974979 0
M  V30 3144 C 302.583 -0.85159 -3.51326 0
M  V30 3145 O 302.304 -2.22157 -3.77595 0
M  V30 3146 C 303.805 -0.529831 -4.40122 0
M  V30 3147 H 301.025 -0.230593 -0.630133 0
M  V30 3148 H 303.569 -1.268 -1.60443 0
M  V30 3149 H 301.724 -0.243151 -3.86636 0
M  V30 3150 H 302.138 -2.2852 -4.721 0
M  V30 3151 H 303.612 -0.747348 -5.46917 0
M  V30 3152 H 304.089 0.535341 -4.35925 0
M  V30 3153 H 304.695 -1.11721 -4.10364 0
M  V30 3154 N 303.011 1.40521 -0.713556 0
M  V30 3155 C 303.941 2.33381 -0.0743864 0
M  V30 3156 C 304.922 1.52784 0.747735 0
M  V30 3157 O 306.107 1.81258 0.697071 0
M  V30 3158 C 303.237 3.36748 0.849598 0
M  V30 3159 C 302.191 4.27793 0.133247 0
M  V30 3160 C 301.517 5.21679 1.17281 0
M  V30 3161 C 302.817 5.12415 -1.01134 0
M  V30 3162 H 304.511 2.87081 -0.850007 0
M  V30 3163 H 302.057 1.38034 -0.410201 0
M  V30 3164 H 304.01 4.00648 1.30612 0
M  V30 3165 H 302.734 2.81439 1.65709 0
M  V30 3166 H 301.393 3.65342 -0.303426 0
M  V30 3167 H 301.041 4.62677 1.9733 0
M  V30 3168 H 300.741 5.83435 0.698397 0
M  V30 3169 H 302.265 5.88456 1.62947 0
M  V30 3170 H 303.679 5.69781 -0.634274 0
M  V30 3171 H 302.076 5.83203 -1.41399 0
M  V30 3172 H 303.146 4.48514 -1.84292 0
M  V30 3173 N 304.489 0.459591 1.5075 0
M  V30 3174 C 305.766 -0.160371 1.94941 0
M  V30 3175 C 306.146 -1.58048 1.39943 0
M  V30 3176 O 305.494 -2.206 0.595629 0
M  V30 3177 C 305.704 -0.115432 3.48809 0
M  V30 3178 C 307.052 -0.310026 4.23467 0
M  V30 3179 O 308.076 -0.192543 3.55679 0
M  V30 3180 O 306.935 -0.546031 5.43765 0
M  V30 3181 H 304.029 -0.117925 0.818549 0
M  V30 3182 H 306.575 0.519169 1.61563 0
M  V30 3183 H 305.347 0.87652 3.81357 0
M  V30 3184 H 304.97 -0.836928 3.88692 0
M  V30 3185 N 305.967 -1.56429 0.191757 0
M  V30 3186 C 307.195 -2.01867 -0.453586 0
M  V30 3187 C 307.61 -1.07191 -1.5542 0
M  V30 3188 O 306.967 -0.0762108 -1.82341 0
M  V30 3189 C 307.018 -3.47017 -1.013 0
M  V30 3190 O 306.739 -4.38078 0.0437005 0
M  V30 3191 C 308.24 -4.07956 -1.73456 0
M  V30 3192 H 305.46 -0.661211 -0.114199 0
M  V30 3193 H 308.004 -2.02295 0.299483 0
M  V30 3194 H 306.159 -3.47298 -1.71647 0
M  V30 3195 H 306.573 -5.23178 -0.372212 0
M  V30 3196 H 308.047 -5.1138 -2.07833 0
M  V30 3197 H 308.524 -3.51222 -2.63704 0
M  V30 3198 H 309.13 -4.11437 -1.07702 0
M  V30 3199 N 307.445 0.0818655 -1.57387 0
M  V30 3200 C 308.67 0.799946 -1.91352 0
M  V30 3201 C 309.095 1.70833 -0.787258 0
M  V30 3202 O 308.453 1.79419 0.26048 0
M  V30 3203 C 308.501 1.57812 -3.24234 0
M  V30 3204 O 307.605 2.68806 -3.12757 0
M  V30 3205 H 306.946 0.21891 -0.626877 0
M  V30 3206 H 309.476 0.0531256 -2.04531 0
M  V30 3207 H 309.486 1.95952 -3.57864 0
M  V30 3208 H 308.161 0.911548 -4.05788 0
M  V30 3209 H 306.738 2.33597 -2.90666 0
M  V30 3210 N 308.923 1.53595 0.353017 0
M  V30 3211 C 310.17 1.70385 1.09431 0
M  V30 3212 C 310.498 0.462113 1.88931 0
M  V30 3213 O 309.753 -0.556074 1.87633 0
M  V30 3214 C 310.052 2.91313 2.07054 0
M  V30 3215 C 309.718 4.27308 1.43939 0
M  V30 3216 C 308.38 4.64287 1.26454 0
M  V30 3217 C 310.732 5.11829 0.983883 0
M  V30 3218 C 308.06 5.83412 0.620226 0
M  V30 3219 C 310.412 6.31611 0.353516 0
M  V30 3220 C 309.076 6.67293 0.166272 0
M  V30 3221 H 308.346 0.623484 0.400436 0
M  V30 3222 H 310.993 1.87799 0.374655 0
M  V30 3223 H 309.298 2.68463 2.85368 0
M  V30 3224 H 310.995 3.01497 2.64387 0
M  V30 3225 H 307.585 3.98198 1.58543 0
M  V30 3226 H 311.769 4.838 1.10685 0
M  V30 3227 H 307.025 6.09639 0.463681 0
M  V30 3228 H 311.199 6.964 -0.00757555 0
M  V30 3229 H 308.826 7.59461 -0.335047 0
M  V30 3230 N 310.401 -0.613514 1.45168 0
M  V30 3231 C 311.311 -1.75296 1.55912 0
M  V30 3232 C 312.327 -1.68244 0.443856 0
M  V30 3233 O 313.503 -1.88706 0.70371 0
M  V30 3234 C 310.568 -3.1174 1.5172 0
M  V30 3235 C 309.629 -3.30291 2.74238 0
M  V30 3236 C 308.862 -4.60226 2.70236 0
M  V30 3237 O 309.085 -5.42168 1.77229 0
M  V30 3238 O 308.019 -4.81361 3.61352 0
M  V30 3239 H 311.845 -1.69183 2.52212 0
M  V30 3240 H 309.43 -0.776886 1.27612 0
M  V30 3241 H 311.312 -3.93044 1.51968 0
M  V30 3242 H 309.987 -3.18357 0.585697 0
M  V30 3243 H 308.894 -2.48598 2.79553 0
M  V30 3244 H 310.227 -3.28547 3.66494 0
M  V30 3245 N 311.879 -1.3236 -0.855495 0
M  V30 3246 C 313.156 -1.13491 -1.59309 0
M  V30 3247 C 313.536 0.30503 -2.08885 0
M  V30 3248 O 312.884 1.30151 -1.87811 0
M  V30 3249 C 313.094 -2.16176 -2.73987 0
M  V30 3250 C 314.442 -2.49463 -3.43589 0
M  V30 3251 O 315.466 -2.14715 -2.84211 0
M  V30 3252 O 314.325 -3.09027 -4.50738 0
M  V30 3253 H 311.419 -0.437887 -0.701559 0
M  V30 3254 H 313.965 -1.43887 -0.899696 0
M  V30 3255 H 312.737 -3.1297 -2.34873 0
M  V30 3256 H 312.36 -1.86769 -3.51003 0
M  V30 3257 N 313.357 1.07166 -1.15556 0
M  V30 3258 C 314.32 2.12589 -0.856644 0
M  V30 3259 C 315.32 1.6015 0.14444 0
M  V30 3260 O 316.51 1.7399 -0.0854163 0
M  V30 3261 C 313.642 3.39753 -0.279405 0
M  V30 3262 H 314.835 2.40539 -1.79112 0
M  V30 3263 H 312.388 1.23086 -0.963298 0
M  V30 3264 H 313.123 3.17447 0.663174 0
M  V30 3265 H 312.908 3.79117 -1.00063 0
M  V30 3266 H 314.398 4.17507 -0.0879113 0
M  V30 3267 N 314.835 0.952656 1.25548 0
M  V30 3268 C 315.782 0.47008 2.25962 0
M  V30 3269 C 316.752 -0.476384 1.59122 0
M  V30 3270 O 317.937 -0.39007 1.8677 0
M  V30 3271 C 315.077 -0.247881 3.44209 0
M  V30 3272 C 314.19 0.735591 4.25691 0
M  V30 3273 C 313.325 -0.0047306 5.312 0
M  V30 3274 C 312.364 0.969805 6.04368 0
M  V30 3275 N 311.501 0.260486 7.01617 0
M  V30 3276 H 316.341 1.33126 2.66611 0
M  V30 3277 H 313.878 0.66765 1.31076 0
M  V30 3278 H 315.836 -0.680695 4.1161 0
M  V30 3279 H 314.466 -1.07312 3.0444 0
M  V30 3280 H 313.518 1.28689 3.57971 0
M  V30 3281 H 314.83 1.47934 4.76358 0
M  V30 3282 H 313.984 -0.496275 6.04667 0
M  V30 3283 H 312.723 -0.781282 4.81401 0
M  V30 3284 H 311.728 1.47237 5.29718 0
M  V30 3285 H 312.953 1.74655 6.56256 0
M  V30 3286 H 310.899 -0.497364 6.54112 0
M  V30 3287 H 310.816 0.943362 7.50091 0
M  V30 3288 H 312.084 -0.209587 7.79218 0
M  V30 3289 N 316.313 -1.40141 0.720998 0
M  V30 3290 C 317.541 -2.05096 0.272656 0
M  V30 3291 C 317.956 -1.54334 -1.0875 0
M  V30 3292 O 317.313 -0.702211 -1.6845 0
M  V30 3293 C 317.364 -3.60636 0.249835 0
M  V30 3294 O 317.085 -4.09526 1.55629 0
M  V30 3295 C 318.586 -4.42772 -0.216396 0
M  V30 3296 H 315.806 -0.659897 0.121558 0
M  V30 3297 H 318.35 -1.79449 0.980723 0
M  V30 3298 H 316.505 -3.85232 -0.409237 0
M  V30 3299 H 316.919 -5.03758 1.4604 0
M  V30 3300 H 318.393 -5.51702 -0.181212 0
M  V30 3301 H 318.87 -4.20756 -1.25941 0
M  V30 3302 H 319.476 -4.23294 0.412596 0
M  V30 3303 N 317.792 -0.46758 -1.50504 0
M  V30 3304 C 318.724 0.364655 -2.26281 0
M  V30 3305 C 319.737 0.960151 -1.31472 0
M  V30 3306 O 320.926 0.849153 -1.57008 0
M  V30 3307 C 318.026 1.52509 -3.02645 0
M  V30 3308 C 317.199 1.04302 -4.24782 0
M  V30 3309 C 316.258 2.07709 -4.8347 0
M  V30 3310 O 315.284 1.65913 -5.44483 0
M  V30 3311 N 316.486 3.40485 -4.70159 0
M  V30 3312 H 319.251 -0.28495 -2.98342 0
M  V30 3313 H 316.812 -0.298163 -1.59131 0
M  V30 3314 H 318.804 2.21371 -3.38787 0
M  V30 3315 H 317.374 2.07945 -2.33404 0
M  V30 3316 H 316.594 0.180393 -3.93787 0
M  V30 3317 H 317.882 0.698798 -5.03978 0
M  V30 3318 H 317.28 3.77155 -4.21629 0
M  V30 3319 H 315.837 4.05156 -5.1058 0
M  V30 3320 N 319.27 1.56325 -0.20005 0
M  V30 3321 C 320.516 1.98012 0.438059 0
M  V30 3322 C 320.849 1.08702 1.60927 0
M  V30 3323 O 320.124 0.140064 1.93995 0
M  V30 3324 C 320.407 3.48841 0.893419 0
M  V30 3325 C 320.26 4.48928 -0.279947 0
M  V30 3326 C 321.579 4.03498 1.75719 0
M  V30 3327 H 318.698 0.719918 0.157757 0
M  V30 3328 H 321.34 1.87743 -0.291968 0
M  V30 3329 H 319.49 3.57723 1.51547 0
M  V30 3330 H 321.162 4.52079 -0.91772 0
M  V30 3331 H 319.405 4.23694 -0.930919 0
M  V30 3332 H 320.076 5.5194 0.0812601 0
M  V30 3333 H 322.552 3.97427 1.23253 0
M  V30 3334 H 321.428 5.09393 2.04476 0
M  V30 3335 H 321.689 3.4906 2.71311 0
M  V30 3336 N 320.748 -0.0735177 1.57428 0
M  V30 3337 C 321.68 -1.11423 2.00294 0
M  V30 3338 C 322.693 -1.35084 0.908637 0
M  V30 3339 O 323.882 -1.33355 1.18654 0
M  V30 3340 C 320.982 -2.46548 2.32523 0
M  V30 3341 C 320.155 -2.42867 3.63778 0
M  V30 3342 C 319.214 -3.60087 3.83697 0
M  V30 3343 O 318.24 -3.41595 4.55304 0
M  V30 3344 N 319.442 -4.80372 3.25919 0
M  V30 3345 H 322.207 -0.749206 2.90184 0
M  V30 3346 H 319.768 -0.262195 1.59763 0
M  V30 3347 H 321.76 -3.23607 2.43024 0
M  V30 3348 H 320.33 -2.75059 1.48531 0
M  V30 3349 H 319.55 -1.51206 3.64047 0
M  V30 3350 H 320.838 -2.37506 4.49965 0
M  V30 3351 H 320.236 -4.983 2.67795 0
M  V30 3352 H 318.793 -5.54948 3.41871 0
M  V30 3353 N 322.226 -1.5378 -0.344866 0
M  V30 3354 C 323.156 -1.84662 -1.42906 0
M  V30 3355 C 324.137 -0.701648 -1.54955 0
M  V30 3356 O 325.322 -0.953438 -1.69184 0
M  V30 3357 C 322.452 -2.05503 -2.79974 0
M  V30 3358 C 321.406 -3.21318 -2.82734 0
M  V30 3359 C 320.732 -3.2749 -4.22675 0
M  V30 3360 C 322.032 -4.59456 -2.48389 0
M  V30 3361 H 323.726 -2.75461 -1.17311 0
M  V30 3362 H 321.272 -1.32542 -0.562896 0
M  V30 3363 H 323.225 -2.25691 -3.55867 0
M  V30 3364 H 321.949 -1.11434 -3.07002 0
M  V30 3365 H 320.608 -3.00984 -2.09294 0
M  V30 3366 H 320.256 -2.31019 -4.4681 0
M  V30 3367 H 319.956 -4.05316 -4.25433 0
M  V30 3368 H 321.48 -3.49887 -5.00412 0
M  V30 3369 H 322.894 -4.79667 -3.13995 0
M  V30 3370 H 321.291 -5.39675 -2.62432 0
M  V30 3371 H 322.361 -4.63155 -1.4358 0
M  V30 3372 N 323.704 0.605807 -1.45491 0
M  V30 3373 C 324.651 1.7164 -1.54299 0
M  V30 3374 C 325.621 1.61486 -0.388761 0
M  V30 3375 O 326.806 1.81039 -0.602445 0
M  V30 3376 C 323.946 3.09953 -1.51734 0
M  V30 3377 C 323.059 3.309 -2.77721 0
M  V30 3378 C 322.194 4.59329 -2.66816 0
M  V30 3379 C 321.233 4.7354 -3.87848 0
M  V30 3380 N 320.37 5.9327 -3.75467 0
M  V30 3381 H 325.21 1.63449 -2.49176 0
M  V30 3382 H 322.747 0.796957 -1.23641 0
M  V30 3383 H 324.705 3.89977 -1.48235 0
M  V30 3384 H 323.335 3.17098 -0.604068 0
M  V30 3385 H 322.387 2.44639 -2.913 0
M  V30 3386 H 323.699 3.37274 -3.67488 0
M  V30 3387 H 322.853 5.4755 -2.61292 0
M  V30 3388 H 321.592 4.55355 -1.74651 0
M  V30 3389 H 320.597 3.83741 -3.93729 0
M  V30 3390 H 321.822 4.79309 -4.81082 0
M  V30 3391 H 319.768 5.90338 -2.86072 0
M  V30 3392 H 319.685 6.00811 -4.5887 0
M  V30 3393 H 320.953 6.83984 -3.73879 0
M  V30 3394 N 325.182 1.32811 0.848464 0
M  V30 3395 C 326.129 1.22265 1.95755 0
M  V30 3396 C 327.099 0.103413 1.65778 0
M  V30 3397 O 328.284 0.280033 1.88734 0
M  V30 3398 C 325.424 0.958014 3.31536 0
M  V30 3399 C 324.537 2.16262 3.73971 0
M  V30 3400 C 323.672 1.83295 4.98575 0
M  V30 3401 C 322.711 3.00041 5.33518 0
M  V30 3402 N 321.848 2.67125 6.49299 0
M  V30 3403 H 326.688 2.17128 2.04107 0
M  V30 3404 H 324.225 1.07982 0.998913 0
M  V30 3405 H 326.183 0.785052 4.09747 0
M  V30 3406 H 324.813 0.046159 3.22767 0
M  V30 3407 H 323.865 2.44565 2.91362 0
M  V30 3408 H 325.177 3.03572 3.95785 0
M  V30 3409 H 324.331 1.62586 5.84509 0
M  V30 3410 H 323.07 0.932078 4.7871 0
M  V30 3411 H 322.075 3.21374 4.46093 0
M  V30 3412 H 323.3 3.90869 5.55336 0
M  V30 3413 H 321.246 1.79586 6.3094 0
M  V30 3414 H 321.163 3.47965 6.71161 0
M  V30 3415 H 322.431 2.49861 7.3837 0
M  V30 3416 N 326.66 -1.06551 1.16123 0
M  V30 3417 C 327.909 -1.78687 0.935622 0
M  V30 3418 C 328.222 -1.88056 -0.538001 0
M  V30 3419 O 329.428 -2.56794 -0.88143 0
M  V30 3420 C 327.884 -3.21143 1.62466 0
M  V30 3421 C 327.492 -3.19949 3.13587 0
M  V30 3422 C 329.236 -3.9783 1.48092 0
M  V30 3423 C 327.143 -4.57108 3.75241 0
M  V30 3424 H 326.073 -0.669712 0.346412 0
M  V30 3425 H 328.724 -1.19534 1.39226 0
M  V30 3426 H 327.106 -3.80539 1.09572 0
M  V30 3427 H 328.28 -2.70151 3.73303 0
M  V30 3428 H 326.595 -2.5676 3.27816 0
M  V30 3429 H 329.192 -4.99217 1.91538 0
M  V30 3430 H 329.535 -4.14078 0.429507 0
M  V30 3431 H 330.068 -3.4495 1.98127 0
M  V30 3432 H 326.807 -4.46065 4.80319 0
M  V30 3433 H 326.327 -5.07111 3.20309 0
M  V30 3434 H 328.006 -5.26069 3.76644 0
M  V30 3435 N 328.138 -0.959301 -1.25041 0
M  V30 3436 C 329.088 -0.453888 -2.23436 0
M  V30 3437 C 330.072 0.459461 -1.542 0
M  V30 3438 O 331.264 0.291752 -1.74579 0
M  V30 3439 C 328.393 0.262667 -3.42294 0
M  V30 3440 C 327.479 -0.669022 -4.1879 0
M  V30 3441 N 327.87 -1.80267 -4.72586 0
M  V30 3442 C 326.168 -0.47814 -4.4343 0
M  V30 3443 C 326.869 -2.38475 -5.3057 0
M  V30 3444 N 325.845 -1.67078 -5.17287 0
M  V30 3445 H 329.647 -1.319 -2.6264 0
M  V30 3446 H 327.161 -0.817358 -1.40332 0
M  V30 3447 H 329.158 0.641911 -4.11929 0
M  V30 3448 H 327.818 1.12432 -3.04613 0
M  V30 3449 H 328.829 -2.18442 -4.69578 0
M  V30 3450 H 325.506 0.340249 -4.16111 0
M  V30 3451 H 326.896 -3.34094 -5.8295 0
M  V30 3452 N 329.616 1.39756 -0.72842 0
M  V30 3453 C 330.841 2.05472 -0.282159 0
M  V30 3454 C 331.266 1.54549 1.07221 0
M  V30 3455 O 330.624 0.686372 1.67805 0
M  V30 3456 C 330.672 3.59462 -0.286264 0
M  V30 3457 O 329.776 4.05918 0.728298 0
M  V30 3458 H 329.117 0.651226 -0.129618 0
M  V30 3459 H 331.647 1.78915 -0.992499 0
M  V30 3460 H 331.657 4.07798 -0.128373 0
M  V30 3461 H 330.332 3.95889 -1.27456 0
M  V30 3462 H 328.909 3.69012 0.537081 0
M  V30 3463 N 331.094 0.475555 1.50254 0
M  V30 3464 C 332.319 -0.0777042 2.07254 0
M  V30 3465 C 332.744 -1.3235 1.3366 0
M  V30 3466 O 332.102 -1.77152 0.385597 0
M  V30 3467 C 332.15 -0.340169 3.58992 0
M  V30 3468 O 331.254 -1.41982 3.87188 0
M  V30 3469 H 330.595 0.0149556 0.663832 0
M  V30 3470 H 333.125 0.667878 1.93392 0
M  V30 3471 H 333.135 -0.579332 4.03866 0
M  V30 3472 H 331.81 0.570167 4.11973 0
M  V30 3473 H 330.387 -1.16762 3.54148 0
M  V30 3474 N 332.573 -1.56217 0.208337 0
M  V30 3475 C 333.819 -1.98242 -0.427552 0
M  V30 3476 C 334.152 -1.09554 -1.60348 0
M  V30 3477 O 333.427 -0.15035 -1.93918 0
M  V30 3478 C 333.71 -3.4931 -0.874907 0
M  V30 3479 C 333.563 -4.48773 0.303751 0
M  V30 3480 C 334.882 -4.04424 -1.73577 0
M  V30 3481 H 332.001 -0.720744 -0.153936 0
M  V30 3482 H 334.643 -1.87586 0.30192 0
M  V30 3483 H 332.793 -3.58522 -1.49648 0
M  V30 3484 H 334.465 -4.51586 0.941682 0
M  V30 3485 H 332.708 -4.23194 0.953375 0
M  V30 3486 H 333.379 -5.51976 -0.0519883 0
M  V30 3487 H 335.855 -3.98075 -1.21143 0
M  V30 3488 H 334.731 -5.1047 -2.01771 0
M  V30 3489 H 334.992 -3.50494 -2.69456 0
M  V30 3490 N 334.051 0.0651679 -1.57465 0
M  V30 3491 C 335.3 0.761916 -1.86756 0
M  V30 3492 C 335.613 1.78406 -0.801925 0
M  V30 3493 O 336.819 2.53084 -0.982885 0
M  V30 3494 C 335.275 1.40603 -3.31299 0
M  V30 3495 C 334.883 0.422115 -4.46007 0
M  V30 3496 C 336.627 2.08476 -3.69781 0
M  V30 3497 C 334.534 1.07252 -5.81593 0
M  V30 3498 H 333.464 0.288308 -0.696702 0
M  V30 3499 H 336.115 0.015344 -1.83494 0
M  V30 3500 H 334.497 2.20109 -3.29193 0
M  V30 3501 H 335.671 -0.343613 -4.59517 0
M  V30 3502 H 333.986 -0.152527 -4.16121 0
M  V30 3503 H 336.583 2.57925 -4.68379 0
M  V30 3504 H 336.926 2.88712 -2.99919 0
M  V30 3505 H 337.459 1.35792 -3.73905 0
M  V30 3506 H 334.198 0.310342 -6.54765 0
M  V30 3507 H 333.718 1.80895 -5.71872 0
M  V30 3508 H 335.397 1.59043 -6.27148 0
M  V30 3509 N 335.529 1.53961 0.336706 0
M  V30 3510 C 336.459 1.85417 1.41925 0
M  V30 3511 C 337.44 0.709856 1.5458 0
M  V30 3512 O 338.625 0.962396 1.68676 0
M  V30 3513 C 335.755 2.06985 2.78881 0
M  V30 3514 C 334.709 3.22813 2.81026 0
M  V30 3515 C 334.035 3.29727 4.20932 0
M  V30 3516 C 335.335 4.60767 2.45949 0
M  V30 3517 H 337.029 2.76079 1.15848 0
M  V30 3518 H 334.575 1.32839 0.555859 0
M  V30 3519 H 336.528 2.27575 3.54665 0
M  V30 3520 H 335.252 1.13061 3.06406 0
M  V30 3521 H 333.911 3.0209 2.07695 0
M  V30 3522 H 333.559 2.33385 4.45579 0
M  V30 3523 H 333.259 4.07566 4.23277 0
M  V30 3524 H 334.783 3.52536 4.98549 0
M  V30 3525 H 336.197 4.81325 3.11446 0
M  V30 3526 H 334.594 5.4106 2.59566 0
M  V30 3527 H 335.664 4.6391 1.41122 0
M  V30 3528 N 337.007 -0.598083 1.45811 0
M  V30 3529 C 337.937 -1.71873 1.58057 0
M  V30 3530 C 338.918 -1.64533 0.431615 0
M  V30 3531 O 340.103 -1.82787 0.65595 0
M  V30 3532 C 337.233 -3.10495 1.55597 0
M  V30 3533 C 336.187 -3.32654 2.69305 0
M  V30 3534 C 335.513 -4.71646 2.51902 0
M  V30 3535 C 336.813 -3.21981 4.11248 0
M  V30 3536 H 338.507 -1.61881 2.51863 0
M  V30 3537 H 336.053 -0.777372 1.21214 0
M  V30 3538 H 338.006 -3.88699 1.6276 0
M  V30 3539 H 336.73 -3.2135 0.583255 0
M  V30 3540 H 335.389 -2.56843 2.61586 0
M  V30 3541 H 335.037 -4.79246 1.52748 0
M  V30 3542 H 334.737 -4.87426 3.2816 0
M  V30 3543 H 336.261 -5.52038 2.60933 0
M  V30 3544 H 337.675 -3.90049 4.20161 0
M  V30 3545 H 336.072 -3.49289 4.87972 0
M  V30 3546 H 337.142 -2.1928 4.32486 0
M  V30 3547 N 338.485 -1.33259 -0.841409 0
M  V30 3548 C 339.715 -1.2742 -1.62628 0
M  V30 3549 C 340.123 0.157604 -1.88542 0
M  V30 3550 O 339.466 1.10938 -1.46419 0
M  V30 3551 C 339.528 -1.97797 -3.00194 0
M  V30 3552 C 339.192 -3.47109 -2.97261 0
M  V30 3553 C 340.189 -4.42358 -2.73159 0
M  V30 3554 C 337.874 -3.89247 -3.17478 0
M  V30 3555 C 339.868 -5.77718 -2.69296 0
M  V30 3556 C 337.555 -5.24713 -3.13241 0
M  V30 3557 C 338.553 -6.1876 -2.89181 0
M  V30 3558 O 338.241 -7.51745 -2.84843 0
M  V30 3559 H 337.973 -0.440436 -0.512827 0
M  V30 3560 H 340.527 -1.76153 -1.05638 0
M  V30 3561 H 338.757 -1.43652 -3.59028 0
M  V30 3562 H 340.446 -1.8549 -3.61038 0
M  V30 3563 H 341.212 -4.11127 -2.57294 0
M  V30 3564 H 337.091 -3.16456 -3.35226 0
M  V30 3565 H 340.635 -6.51097 -2.50436 0
M  V30 3566 H 336.532 -5.55569 -3.28654 0
M  V30 3567 H 337.3 -7.61262 -3.00702 0
M  V30 3568 N 339.963 1.05934 -1.16686 0
M  V30 3569 C 341.203 1.80382 -0.961345 0
M  V30 3570 C 341.567 1.85331 0.501643 0
M  V30 3571 O 342.768 2.55795 0.825986 0
M  V30 3572 C 341.039 3.20777 -1.57596 0
M  V30 3573 S 342.598 4.11795 -1.51559 0
M  V30 3574 H 339.416 0.621332 -0.345641 0
M  V30 3575 H 342.018 1.27157 -1.48497 0
M  V30 3576 H 340.722 3.14773 -2.63337 0
M  V30 3577 H 340.253 3.79078 -1.05182 0
M  V30 3578 H 342.268 4.93485 -0.518374 0
M  V30 3579 N 341.441 0.965919 1.2453 0
M  V30 3580 C 342.666 0.643971 1.97149 0
M  V30 3581 C 343.091 -0.779487 1.71189 0
M  V30 3582 O 342.449 -1.5288 0.974553 0
M  V30 3583 C 342.497 0.922557 3.48599 0
M  V30 3584 O 341.601 0.00707672 4.12399 0
M  V30 3585 H 340.942 0.243647 0.617683 0
M  V30 3586 H 343.472 1.29558 1.58353 0
M  V30 3587 H 343.482 0.853373 3.98976 0
M  V30 3588 H 342.157 1.95996 3.66822 0
M  V30 3589 H 340.734 0.12943 3.72675 0
M  V30 3590 N 342.919 -1.39368 0.735821 0
M  V30 3591 C 343.866 -2.30599 0.0963825 0
M  V30 3592 C 344.836 -1.49257 -0.728794 0
M  V30 3593 O 346.021 -1.77941 -0.688588 0
M  V30 3594 C 343.161 -3.35596 -0.804305 0
M  V30 3595 C 342.274 -4.31987 0.0335761 0
M  V30 3596 C 341.409 -5.24053 -0.868461 0
M  V30 3597 C 340.448 -6.12095 -0.0258776 0
M  V30 3598 N 339.585 -6.96514 -0.883893 0
M  V30 3599 H 344.425 -2.8471 0.880002 0
M  V30 3600 H 341.962 -1.40188 0.445619 0
M  V30 3601 H 343.92 -3.95062 -1.34096 0
M  V30 3602 H 342.55 -2.82938 -1.55389 0
M  V30 3603 H 341.602 -3.74133 0.68766 0
M  V30 3604 H 342.914 -4.94074 0.685036 0
M  V30 3605 H 342.068 -5.88549 -1.47293 0
M  V30 3606 H 340.807 -4.62289 -1.5537 0
M  V30 3607 H 339.812 -5.4661 0.591386 0
M  V30 3608 H 341.037 -6.75923 0.656156 0
M  V30 3609 H 338.983 -6.37318 -1.55441 0
M  V30 3610 H 338.9 -7.55448 -0.288931 0
M  V30 3611 H 340.168 -7.65439 -1.4739 0
M  V30 3612 N 344.397 -0.483516 -1.5 0
M  V30 3613 C 345.674 0.129337 -1.95172 0
M  V30 3614 C 346.054 1.55802 -1.4244 0
M  V30 3615 O 345.402 2.19625 -0.630649 0
M  V30 3616 C 345.612 0.0599251 -3.48949 0
M  V30 3617 C 346.96 0.242617 -4.23906 0
M  V30 3618 O 347.984 0.135933 -3.55941 0
M  V30 3619 O 346.843 0.459454 -5.44565 0
M  V30 3620 H 343.937 0.104887 -0.820322 0
M  V30 3621 H 346.483 -0.544807 -1.60717 0
M  V30 3622 H 345.255 -0.937079 -3.79914 0
M  V30 3623 H 344.878 0.774984 -3.89974 0
M  V30 3624 N 345.875 1.56104 -0.216619 0
M  V30 3625 C 346.785 2.23694 0.706982 0
M  V30 3626 C 347.801 1.24295 1.21765 0
M  V30 3627 O 348.977 1.57094 1.2603 0
M  V30 3628 C 346.042 2.8998 1.90033 0
M  V30 3629 C 345.103 4.04708 1.43213 0
M  V30 3630 C 344.336 4.67824 2.56859 0
M  V30 3631 O 344.559 4.29913 3.74874 0
M  V30 3632 O 343.493 5.56905 2.28343 0
M  V30 3633 H 347.319 3.03272 0.161235 0
M  V30 3634 H 344.904 1.49394 0.0136177 0
M  V30 3635 H 346.786 3.31837 2.59735 0
M  V30 3636 H 345.461 2.13365 2.43428 0
M  V30 3637 H 344.368 3.6743 0.70327 0
M  V30 3638 H 345.701 4.83051 0.944615 0
M  V30 3639 N 347.353 -0.0568162 1.57498 0
M  V30 3640 C 348.316 -1.05038 2.03715 0
M  V30 3641 C 349.316 -1.30709 0.936577 0
M  V30 3642 O 350.506 -1.26178 1.20103 0
M  V30 3643 C 347.638 -2.39034 2.43055 0
M  V30 3644 H 348.831 -0.651715 2.92733 0
M  V30 3645 H 346.384 -0.302947 1.53336 0
M  V30 3646 H 347.119 -2.83703 1.57108 0
M  V30 3647 H 346.904 -2.21739 3.2338 0
M  V30 3648 H 348.394 -3.10421 2.79336 0
M  V30 3649 N 348.832 -1.54138 -0.328536 0
M  V30 3650 C 350.078 -1.7236 -1.06865 0
M  V30 3651 C 350.411 -0.493231 -1.87832 0
M  V30 3652 O 349.686 0.5098 -1.877 0
M  V30 3653 C 349.969 -2.99621 -1.99747 0
M  V30 3654 C 349.822 -4.32899 -1.22143 0
M  V30 3655 C 351.141 -3.22615 -2.99345 0
M  V30 3656 H 348.26 -0.627151 -0.387105 0
M  V30 3657 H 350.902 -1.86827 -0.345767 0
M  V30 3658 H 349.052 -2.87418 -2.61387 0
M  V30 3659 H 350.724 -4.56978 -0.630017 0
M  V30 3660 H 348.967 -4.30628 -0.523628 0
M  V30 3661 H 349.638 -5.18154 -1.90318 0
M  V30 3662 H 352.114 -3.34248 -2.47826 0
M  V30 3663 H 350.99 -4.13027 -3.61524 0
M  V30 3664 H 351.251 -2.3961 -3.71536 0
M  V30 3665 N 350.31 0.590341 -1.46126 0
M  V30 3666 C 351.24 1.71032 -1.58966 0
M  V30 3667 C 352.221 1.64302 -0.440335 0
M  V30 3668 O 353.406 1.82436 -0.665634 0
M  V30 3669 C 350.536 3.09665 -1.57241 0
M  V30 3670 C 349.49 3.31221 -2.71066 0
M  V30 3671 C 348.816 4.70303 -2.54399 0
M  V30 3672 C 350.116 3.19796 -4.1295 0
M  V30 3673 H 351.81 1.60543 -2.52718 0
M  V30 3674 H 349.356 0.770933 -1.21625 0
M  V30 3675 H 351.309 3.87831 -1.64819 0
M  V30 3676 H 350.033 3.21036 -0.600289 0
M  V30 3677 H 348.692 2.55452 -2.62944 0
M  V30 3678 H 348.34 4.78429 -1.55288 0
M  V30 3679 H 348.04 4.85679 -3.30741 0
M  V30 3680 H 349.564 5.50647 -2.63857 0
M  V30 3681 H 350.978 3.87815 -4.22223 0
M  V30 3682 H 349.375 3.46696 -4.89818 0
M  V30 3683 H 350.445 2.16983 -4.33643 0
M  V30 3684 N 351.788 1.33704 0.83433 0
M  V30 3685 C 353.037 1.24763 1.58484 0
M  V30 3686 C 353.35 -0.183775 1.94735 0
M  V30 3687 O 354.556 -0.395234 2.68608 0
M  V30 3688 C 353.012 2.18638 2.85876 0
M  V30 3689 C 352.62 3.66974 2.56971 0
M  V30 3690 C 354.364 2.18581 3.63899 0
M  V30 3691 C 352.271 4.5275 3.80488 0
M  V30 3692 H 351.201 0.463425 0.594772 0
M  V30 3693 H 353.852 1.58797 0.919551 0
M  V30 3694 H 352.234 1.77542 3.5397 0
M  V30 3695 H 353.408 4.16538 1.9706 0
M  V30 3696 H 351.723 3.69366 1.92244 0
M  V30 3697 H 354.32 2.79894 4.55591 0
M  V30 3698 H 354.663 1.18207 3.99165 0
M  V30 3699 H 355.196 2.58062 3.02735 0
M  V30 3700 H 351.935 5.54017 3.5035 0
M  V30 3701 H 351.455 4.07927 4.39722 0
M  V30 3702 H 353.134 4.66784 4.4802 0
M  V30 3703 N 353.266 -1.05314 1.17247 0
M  V30 3704 C 354.196 -2.1498 0.911362 0
M  V30 3705 C 355.177 -1.69471 -0.146169 0
M  V30 3706 O 356.362 -1.942 0.003812 0
M  V30 3707 C 353.492 -3.4472 0.422528 0
M  V30 3708 C 352.446 -4.03789 1.4191 0
M  V30 3709 C 351.772 -5.28858 0.788274 0
M  V30 3710 C 353.072 -4.41418 2.7919 0
M  V30 3711 H 354.766 -2.3708 1.82848 0
M  V30 3712 H 352.312 -1.13938 0.880569 0
M  V30 3713 H 354.265 -4.20787 0.227289 0
M  V30 3714 H 352.989 -3.22269 -0.530123 0
M  V30 3715 H 351.648 -3.2979 1.60106 0
M  V30 3716 H 351.296 -5.02709 -0.171173 0
M  V30 3717 H 350.996 -5.69338 1.45353 0
M  V30 3718 H 352.52 -6.07612 0.603282 0
M  V30 3719 H 353.934 -5.08524 2.64719 0
M  V30 3720 H 352.331 -4.92913 3.42282 0
M  V30 3721 H 353.401 -3.51819 3.33693 0
M  V30 3722 N 354.744 -0.972509 -1.24016 0
M  V30 3723 C 355.969 -0.654417 -1.96805 0
M  V30 3724 C 356.394 0.770398 -1.716 0
M  V30 3725 O 355.752 1.52361 -0.982647 0
M  V30 3726 C 355.8 -0.941031 -3.48105 0
M  V30 3727 O 354.904 -0.0289472 -4.1239 0
M  V30 3728 H 354.245 -0.24692 -0.616382 0
M  V30 3729 H 356.775 -1.30396 -1.57664 0
M  V30 3730 H 356.785 -0.87452 -3.98517 0
M  V30 3731 H 355.46 -1.97939 -3.65777 0
M  V30 3732 H 354.037 -0.149192 -3.72601 0
M  V30 3733 N 356.222 1.38976 -0.743202 0
M  V30 3734 C 357.132 2.3434 -0.110399 0
M  V30 3735 C 358.148 1.58741 0.712559 0
M  V30 3736 O 359.324 1.9099 0.639125 0
M  V30 3737 C 356.389 3.37812 0.780012 0
M  V30 3738 C 355.45 4.29263 -0.0561319 0
M  V30 3739 C 354.683 5.27793 0.791875 0
M  V30 3740 O 354.906 5.33043 2.03031 0
M  V30 3741 O 353.84 6.01512 0.216183 0
M  V30 3742 H 357.666 2.90129 -0.897714 0
M  V30 3743 H 355.251 1.40643 -0.503966 0
M  V30 3744 H 357.133 4.01194 1.28923 0
M  V30 3745 H 355.808 2.84395 1.546 0
M  V30 3746 H 354.715 3.69076 -0.611056 0
M  V30 3747 H 356.048 4.85907 -0.784531 0
M  V30 3748 N 357.7 0.491464 1.49741 0
M  V30 3749 C 358.663 -0.280906 2.27472 0
M  V30 3750 C 359.663 -0.902454 1.33088 0
M  V30 3751 O 360.853 -0.768465 1.56334 0
M  V30 3752 C 357.985 -1.40209 3.10732 0
M  V30 3753 H 359.178 0.401056 2.97206 0
M  V30 3754 H 356.731 0.246131 1.5435 0
M  V30 3755 H 357.466 -2.11849 2.45541 0
M  V30 3756 H 357.251 -0.961969 3.80117 0
M  V30 3757 H 358.741 -1.9464 3.69466 0
M  V30 3758 N 359.178 -1.55987 0.224894 0
M  V30 3759 C 360.594 -1.59066 -0.130426 0
M  V30 3760 C 360.794 -1.24176 -1.5869 0
M  V30 3761 O 359.85 -0.978592 -2.32766 0
M  V30 3762 C 361.163 -3.00042 0.198883 0
M  V30 3763 C 362.711 -3.1268 0.141391 0
M  V30 3764 C 363.186 -4.55839 0.444422 0
M  V30 3765 N 364.677 -4.6152 0.394115 0
M  V30 3766 C 365.412 -5.70231 0.602038 0
M  V30 3767 N 364.908 -6.87291 0.871914 0
M  V30 3768 N 366.701 -5.59555 0.534245 0
M  V30 3769 H 358.852 -1.76941 1.17497 0
M  V30 3770 H 361.115 -0.822604 0.471197 0
M  V30 3771 H 360.821 -3.30234 1.2099 0
M  V30 3772 H 360.695 -3.74075 -0.484535 0
M  V30 3773 H 363.082 -2.82283 -0.860265 0
M  V30 3774 H 363.163 -2.40969 0.858335 0
M  V30 3775 H 362.807 -4.86954 1.44353 0
M  V30 3776 H 362.737 -5.2578 -0.293752 0
M  V30 3777 H 365.228 -3.77405 0.193356 0
M  V30 3778 H 365.541 -7.66058 1.01858 0
M  V30 3779 H 363.886 -6.89028 0.909145 0
M  V30 3780 H 367.077 -4.6698 0.323612 0
M  V30 3781 H 367.25 -6.44211 0.699693 0
M  V30 3782 N 360.656 0.0484629 -1.57525 0
M  V30 3783 C 361.881 0.759177 -1.93006 0
M  V30 3784 C 362.306 1.69125 -0.823317 0
M  V30 3785 O 361.664 1.79931 0.222364 0
M  V30 3786 C 361.712 1.50899 -3.27509 0
M  V30 3787 O 360.816 2.62112 -3.18388 0
M  V30 3788 H 360.157 0.205564 -0.631379 0
M  V30 3789 H 362.687 0.00972959 -2.04598 0
M  V30 3790 H 362.697 1.88317 -3.6194 0
M  V30 3791 H 361.372 0.825269 -4.0763 0
M  V30 3792 H 359.949 2.27379 -2.95556 0
M  V30 3793 N 362.134 1.5431 0.320358 0
M  V30 3794 C 363.064 1.86912 1.3995 0
M  V30 3795 C 364.045 0.726211 1.53819 0
M  V30 3796 O 365.23 0.980233 1.67646 0
M  V30 3797 C 362.36 2.09932 2.7667 0
M  V30 3798 C 361.314 3.25776 2.77586 0
M  V30 3799 C 360.64 3.34173 4.17412 0
M  V30 3800 C 361.94 4.6335 2.41048 0
M  V30 3801 H 363.634 2.77292 1.12914 0
M  V30 3802 H 361.18 1.33421 0.541738 0
M  V30 3803 H 363.133 2.31324 3.52232 0
M  V30 3804 H 361.857 1.16304 3.0519 0
M  V30 3805 H 360.516 3.04276 2.04479 0
M  V30 3806 H 360.164 2.38098 4.43078 0
M  V30 3807 H 359.864 4.12033 4.18931 0
M  V30 3808 H 361.388 3.57803 4.94782 0
M  V30 3809 H 362.802 4.84602 3.06324 0
M  V30 3810 H 361.199 5.43782 2.53813 0
M  V30 3811 H 362.269 4.65381 1.36193 0
M  V30 3812 N 363.613 -0.582584 1.46437 0
M  V30 3813 C 364.861 -1.33814 1.51453 0
M  V30 3814 C 365.182 -1.94277 0.167792 0
M  V30 3815 O 364.452 -1.78566 -0.805677 0
M  V30 3816 H 363.032 -0.496838 0.557818 0
M  V30 3817 H 365.694 -0.682281 1.82568 0
M  V30 3818 H 364.79 -2.14479 2.26728 0
M  V30 3819 N 365.091 -1.34144 -0.827227 0
M  V30 3820 C 366.021 -1.28005 -1.95287 0
M  V30 3821 C 367.002 -0.158321 -1.69362 0
M  V30 3822 O 368.187 -0.349987 -1.9102 0
M  V30 3823 C 365.317 -1.03036 -3.31664 0
M  V30 3824 C 364.271 -2.11628 -3.72019 0
M  V30 3825 C 363.597 -1.71854 -5.0633 0
M  V30 3826 C 364.897 -3.53417 -3.8457 0
M  V30 3827 H 366.591 -2.22187 -2.00682 0
M  V30 3828 H 364.137 -1.0696 -0.964135 0
M  V30 3829 H 366.09 -0.973863 -4.09993 0
M  V30 3830 H 364.814 -0.0529391 -3.26557 0
M  V30 3831 H 363.473 -2.16339 -2.95961 0
M  V30 3832 H 363.121 -0.727841 -4.97706 0
M  V30 3833 H 362.821 -2.44531 -5.34302 0
M  V30 3834 H 364.345 -1.67692 -5.87122 0
M  V30 3835 H 365.759 -3.51142 -4.5318 0
M  V30 3836 H 364.156 -4.24679 -4.2399 0
M  V30 3837 H 365.226 -3.91072 -2.86689 0
M  V30 3838 N 366.569 1.04691 -1.17803 0
M  V30 3839 C 367.797 1.81446 -0.99423 0
M  V30 3840 C 368.212 1.83174 0.457459 0
M  V30 3841 O 367.569 1.26265 1.31771 0
M  V30 3842 C 367.62 3.27334 -1.5341 0
M  V30 3843 O 367.341 3.25798 -2.92895 0
M  V30 3844 C 368.842 4.20759 -1.39559 0
M  V30 3845 H 366.062 0.571599 -0.351447 0
M  V30 3846 H 368.606 1.31982 -1.56208 0
M  V30 3847 H 366.761 3.74052 -1.00815 0
M  V30 3848 H 367.175 4.17144 -3.17949 0
M  V30 3849 H 368.649 5.21084 -1.82141 0
M  V30 3850 H 369.126 4.37856 -0.343394 0
M  V30 3851 H 369.732 3.79901 -1.91195 0
M  V30 3852 N 368.047 0.979072 1.23499 0
M  V30 3853 C 369.295 0.645941 1.91499 0
M  V30 3854 C 369.616 -0.822948 1.76784 0
M  V30 3855 O 368.886 -1.58854 1.14639 0
M  V30 3856 H 367.466 0.235919 0.708767 0
M  V30 3857 H 370.128 1.2426 1.50152 0
M  V30 3858 H 369.224 0.896411 2.9895 0
M  V30 3859 N 369.525 -1.3858 0.750561 0
M  V30 3860 C 370.755 -2.04175 0.31564 0
M  V30 3861 C 371.163 -1.56726 -1.05989 0
M  V30 3862 O 370.506 -0.734225 -1.68389 0
M  V30 3863 C 370.568 -3.58585 0.256389 0
M  V30 3864 C 370.232 -4.29077 1.57296 0
M  V30 3865 C 371.229 -4.54656 2.52159 0
M  V30 3866 C 368.914 -4.67324 1.84156 0
M  V30 3867 C 370.908 -5.17512 3.72103 0
M  V30 3868 C 368.595 -5.29905 3.04374 0
M  V30 3869 C 369.593 -5.54933 3.98168 0
M  V30 3870 O 369.281 -6.16212 5.16273 0
M  V30 3871 H 369.013 -0.662742 0.133226 0
M  V30 3872 H 371.567 -1.78313 1.01948 0
M  V30 3873 H 369.797 -3.83406 -0.503677 0
M  V30 3874 H 371.486 -4.05628 -0.148612 0
M  V30 3875 H 372.252 -4.25539 2.32683 0
M  V30 3876 H 368.131 -4.47191 1.11988 0
M  V30 3877 H 371.675 -5.36963 4.45327 0
M  V30 3878 H 367.572 -5.58444 3.23745 0
M  V30 3879 H 368.34 -6.34701 5.16815 0
M  V30 3880 N 371.003 -0.499398 -1.49478 0
M  V30 3881 C 372.28 0.108629 -1.95298 0
M  V30 3882 C 372.66 1.54282 -1.44084 0
M  V30 3883 O 372.008 2.18944 -0.653908 0
M  V30 3884 C 372.218 0.0229111 -3.48992 0
M  V30 3885 C 373.566 0.197643 -4.2414 0
M  V30 3886 O 374.59 0.0981735 -3.56065 0
M  V30 3887 O 373.449 0.401669 -5.45022 0
M  V30 3888 H 370.543 0.096181 -0.821388 0
M  V30 3889 H 373.089 -0.561822 -1.6013 0
M  V30 3890 H 371.861 -0.977321 -3.78899 0
M  V30 3891 H 371.484 0.733579 -3.90774 0
M  V30 3892 N 372.481 1.55866 -0.233164 0
M  V30 3893 C 373.728 1.98603 0.395374 0
M  V30 3894 C 374.056 1.12105 1.58942 0
M  V30 3895 O 373.311 0.168656 1.94972 0
M  V30 3896 C 373.61 3.46856 0.861724 0
M  V30 3897 C 373.276 4.50348 -0.223066 0
M  V30 3898 C 371.938 4.78371 -0.521038 0
M  V30 3899 C 374.29 5.12355 -0.956124 0
M  V30 3900 C 371.618 5.6568 -1.55638 0
M  V30 3901 C 373.97 6.00786 -1.98089 0
M  V30 3902 C 372.634 6.27148 -2.28565 0
M  V30 3903 H 371.904 0.726739 0.144677 0
M  V30 3904 H 374.551 1.88491 -0.338114 0
M  V30 3905 H 372.856 3.5423 1.67418 0
M  V30 3906 H 374.553 3.77302 1.35809 0
M  V30 3907 H 371.143 4.28596 0.0193234 0
M  V30 3908 H 375.327 4.90765 -0.739166 0
M  V30 3909 H 370.583 5.84365 -1.798 0
M  V30 3910 H 374.757 6.4788 -2.55391 0
M  V30 3911 H 372.384 6.94597 -3.08932 0
M  V30 3912 N 373.959 -0.0401083 1.57549 0
M  V30 3913 C 375.206 -0.733125 1.88763 0
M  V30 3914 C 375.534 -1.75946 0.829058 0
M  V30 3915 O 374.789 -1.94949 -0.171323 0
M  V30 3916 C 375.088 -1.44902 3.26708 0
M  V30 3917 C 374.754 -0.559707 4.47413 0
M  V30 3918 C 373.416 -0.314731 4.8017 0
M  V30 3919 C 375.768 0.0549743 5.21171 0
M  V30 3920 C 373.096 0.553886 5.8408 0
M  V30 3921 C 375.448 0.911229 6.26003 0
M  V30 3922 C 374.112 1.16577 6.57241 0
M  V30 3923 H 373.382 -0.268269 0.690733 0
M  V30 3924 H 376.029 0.00679408 1.91499 0
M  V30 3925 H 374.334 -2.26197 3.1991 0
M  V30 3926 H 376.031 -1.99058 3.48105 0
M  V30 3927 H 372.621 -0.760793 4.21794 0
M  V30 3928 H 376.805 -0.121344 4.96152 0
M  V30 3929 H 372.061 0.759518 6.06664 0
M  V30 3930 H 376.235 1.3941 6.82303 0
M  V30 3931 H 373.862 1.84058 7.37582 0
M  V30 3932 N 375.437 -1.54477 -0.31217 0
M  V30 3933 C 376.683 -1.74417 -1.04644 0
M  V30 3934 C 377.038 -0.517641 -1.85306 0
M  V30 3935 O 376.331 0.489973 -1.85229 0
M  V30 3936 C 376.525 -2.967 -1.99258 0
M  V30 3937 C 376.354 -4.31128 -1.27901 0
M  V30 3938 C 375.124 -4.95087 -1.01079 0
M  V30 3939 C 377.322 -5.09662 -0.689119 0
M  V30 3940 N 375.304 -6.13322 -0.266323 0
M  V30 3941 C 376.675 -6.19952 -0.0768523 0
M  V30 3942 C 378.73 -4.94355 -0.593061 0
M  V30 3943 C 377.433 -7.16604 0.622165 0
M  V30 3944 C 379.459 -5.91328 0.0922792 0
M  V30 3945 C 378.821 -7.00978 0.693443 0
M  V30 3946 H 374.92 -0.69094 -0.366231 0
M  V30 3947 H 377.504 -1.91946 -0.326319 0
M  V30 3948 H 375.675 -2.80616 -2.68532 0
M  V30 3949 H 377.407 -3.05216 -2.65755 0
M  V30 3950 H 374.162 -4.55235 -1.30607 0
M  V30 3951 H 374.586 -6.76937 0.0920973 0
M  V30 3952 H 379.228 -4.09719 -1.04355 0
M  V30 3953 H 376.946 -8.0079 1.08445 0
M  V30 3954 H 380.532 -5.81562 0.166396 0
M  V30 3955 H 379.412 -7.74725 1.21533 0
M  V30 3956 N 376.915 0.57481 -1.46744 0
M  V30 3957 C 378.164 1.32898 -1.51727 0
M  V30 3958 C 378.477 1.948 -0.176692 0
M  V30 3959 O 379.683 2.71299 -0.104385 0
M  V30 3960 C 378.139 2.40901 -2.67385 0
M  V30 3961 C 377.747 1.85266 -4.07898 0
M  V30 3962 C 379.491 3.17609 -2.81646 0
M  V30 3963 C 377.398 2.90945 -5.14883 0
M  V30 3964 H 376.328 0.499631 -0.564699 0
M  V30 3965 H 378.979 0.612536 -1.72975 0
M  V30 3966 H 377.361 3.15379 -2.39483 0
M  V30 3967 H 378.535 1.17278 -4.45626 0
M  V30 3968 H 376.85 1.21199 -3.98371 0
M  V30 3969 H 379.447 3.96493 -3.58744 0
M  V30 3970 H 379.79 3.70696 -1.89448 0
M  V30 3971 H 380.323 2.50239 -3.09233 0
M  V30 3972 H 377.062 2.42736 -6.089 0
M  V30 3973 H 376.582 3.57398 -4.81691 0
M  V30 3974 H 378.261 3.54755 -5.41071 0
M  V30 3975 N 378.394 1.34581 0.820102 0
M  V30 3976 C 379.64 1.27285 1.57881 0
M  V30 3977 C 379.973 -0.156137 1.93571 0
M  V30 3978 O 379.248 -1.10222 1.60254 0
M  V30 3979 C 379.531 2.16639 2.87645 0
M  V30 3980 C 379.384 3.68088 2.58517 0
M  V30 3981 C 380.703 2.05378 3.8924 0
M  V30 3982 H 377.822 0.463714 0.572833 0
M  V30 3983 H 380.464 1.64859 0.944539 0
M  V30 3984 H 378.614 1.84725 3.41773 0
M  V30 3985 H 380.286 4.10382 2.10676 0
M  V30 3986 H 378.529 3.89038 1.91917 0
M  V30 3987 H 379.2 4.2598 3.51063 0
M  V30 3988 H 381.676 2.33404 3.44473 0
M  V30 3989 H 380.552 2.7012 4.77835 0
M  V30 3990 H 380.813 1.0316 4.29896 0
M  V30 3991 N 379.872 -1.04064 1.18357 0
M  V30 3992 C 381.283 -1.58719 0.98312 0
M  V30 3993 C 381.634 -1.90556 -0.467193 0
M  V30 3994 O 380.759 -1.69561 -1.34454 0
M  V30 3995 C 381.354 -2.88379 1.77828 0
M  V30 3996 C 379.913 -3.3965 1.62218 0
M  V30 3997 C 379.06 -2.13235 1.77274 0
M  V30 3998 H 382.011 -0.867359 1.32901 0
M  V30 3999 H 382.032 -3.58773 1.26737 0
M  V30 4000 H 381.544 -2.65176 2.83379 0
M  V30 4001 H 379.645 -3.67866 0.592036 0
M  V30 4002 H 379.758 -4.13475 2.42023 0
M  V30 4003 H 378.122 -2.24542 1.20221 0
M  V30 4004 H 378.905 -1.92487 2.8426 0
M  V30 4005 N 381.35 -0.985608 -1.22978 0
M  V30 4006 C 382.575 -0.675254 -1.961 0
M  V30 4007 C 383 0.752154 -1.72407 0
M  V30 4008 O 382.358 1.5131 -0.998751 0
M  V30 4009 C 382.406 -0.977899 -3.47087 0
M  V30 4010 O 381.51 -0.072685 -4.12336 0
M  V30 4011 H 380.851 -0.253443 -0.613728 0
M  V30 4012 H 383.381 -1.32061 -1.56272 0
M  V30 4013 H 383.391 -0.916739 -3.97567 0
M  V30 4014 H 382.066 -2.01807 -3.63657 0
M  V30 4015 H 380.643 -0.188703 -3.72422 0
M  V30 4016 N 382.828 1.3818 -0.7579 0
M  V30 4017 C 383.758 2.33027 -0.148597 0
M  V30 4018 C 384.739 1.55085 0.69875 0
M  V30 4019 O 385.924 1.83384 0.639053 0
M  V30 4020 C 383.054 3.3928 0.742034 0
M  V30 4021 C 382.008 4.28 -0.00291946 0
M  V30 4022 C 381.334 5.25146 1.00625 0
M  V30 4023 C 382.634 5.08938 -1.17385 0
M  V30 4024 H 384.328 2.84231 -0.940909 0
M  V30 4025 H 381.874 1.36659 -0.453908 0
M  V30 4026 H 383.827 4.046 1.17799 0
M  V30 4027 H 382.551 2.86569 1.56671 0
M  V30 4028 H 381.21 3.64192 -0.419504 0
M  V30 4029 H 380.858 4.68721 1.8251 0
M  V30 4030 H 380.558 5.85361 0.512428 0
M  V30 4031 H 382.082 5.93342 1.44143 0
M  V30 4032 H 383.496 5.67474 -0.815224 0
M  V30 4033 H 381.893 5.7841 -1.59882 0
M  V30 4034 H 382.963 4.42424 -1.98468 0
M  V30 4035 N 384.306 0.507319 1.49211 0
M  V30 4036 C 385.552 -0.0350047 2.0277 0
M  V30 4037 C 385.885 -1.3606 1.38569 0
M  V30 4038 O 385.16 -1.87321 0.523542 0
M  V30 4039 C 385.443 -0.180916 3.59645 0
M  V30 4040 C 385.296 1.16825 4.34364 0
M  V30 4041 C 386.615 -0.918558 4.30407 0
M  V30 4042 H 383.734 -0.0112473 0.736914 0
M  V30 4043 H 386.376 0.659956 1.7817 0
M  V30 4044 H 384.526 -0.772826 3.80736 0
M  V30 4045 H 386.198 1.79952 4.24753 0
M  V30 4046 H 384.441 1.75594 3.96673 0
M  V30 4047 H 385.112 1.01939 5.42506 0
M  V30 4048 H 387.588 -0.41649 4.1401 0
M  V30 4049 H 386.464 -0.989505 5.39907 0
M  V30 4050 H 386.725 -1.96373 3.96093 0
M  V30 4051 N 385.784 -1.5574 0.241426 0
M  V30 4052 C 387.009 -2.0366 -0.392111 0
M  V30 4053 C 387.434 -1.11969 -1.51144 0
M  V30 4054 O 386.792 -0.111594 -1.80956 0
M  V30 4055 C 386.84 -3.49638 -0.882371 0
M  V30 4056 O 385.944 -3.6108 -1.99235 0
M  V30 4057 H 385.285 -0.658379 -0.0862122 0
M  V30 4058 H 387.815 -2.01302 0.365881 0
M  V30 4059 H 387.825 -3.90351 -1.18702 0
M  V30 4060 H 386.5 -4.15852 -0.0632361 0
M  V30 4061 H 385.077 -3.32262 -1.69282 0
M  V30 4062 N 387.262 0.0317525 -1.57568 0
M  V30 4063 C 388.51 0.721676 -1.88776 0
M  V30 4064 C 388.831 1.76039 -0.838772 0
M  V30 4065 O 388.101 1.95482 0.127935 0
M  V30 4066 H 386.681 0.269534 -0.696678 0
M  V30 4067 H 389.343 -0.00165879 -1.949 0
M  V30 4068 H 388.439 1.21293 -2.87566 0
M  V30 4069 N 388.74 1.54641 0.303973 0
M  V30 4070 C 389.688 1.86137 1.39484 0
M  V30 4071 C 390.682 0.734854 1.52631 0
M  V30 4072 O 391.888 0.918803 1.54784 0
M  V30 4073 H 388.263 0.590324 0.465856 0
M  V30 4074 H 390.234 2.77324 1.10154 0
M  V30 4075 C 388.983 2.12274 2.75382 0
M  V30 4076 H 388.306 2.98429 2.66046 0
M  V30 4077 H 389.746 2.38254 3.5073 0
M  V30 4078 C 388.205 0.920365 3.24085 0
M  V30 4079 O 388.735 0.139377 4.01458 0
M  V30 4080 N 386.941 0.726566 2.81371 0
M  V30 4081 H 386.488 1.36332 2.18567 0
M  V30 4082 H 386.446 -0.0763799 3.14307 0
M  V30 4083 N 390.218 -0.567019 1.47046 0
M  V30 4084 C 391.446 -1.35027 1.56765 0
M  V30 4085 C 391.861 -1.8758 0.214316 0
M  V30 4086 O 391.218 -1.64471 -0.790919 0
M  V30 4087 C 391.269 -2.52698 2.58507 0
M  V30 4088 O 390.99 -2.0232 3.88585 0
M  V30 4089 C 392.491 -3.45043 2.78316 0
M  V30 4090 H 389.711 -0.41195 0.529658 0
M  V30 4091 H 392.255 -0.687832 1.92585 0
M  V30 4092 H 390.41 -3.149 2.25648 0
M  V30 4093 H 390.824 -2.79068 4.44096 0
M  V30 4094 H 392.298 -4.2405 3.53391 0
M  V30 4095 H 392.775 -3.97971 1.85784 0
M  V30 4096 H 393.381 -2.88665 3.12334 0
M  V30 4097 N 391.696 -1.35014 -0.812953 0
M  V30 4098 C 392.606 -1.2951 -1.95613 0
M  V30 4099 C 393.622 -0.20107 -1.72834 0
M  V30 4100 O 394.798 -0.42932 -1.96771 0
M  V30 4101 C 391.863 -1.06033 -3.30088 0
M  V30 4102 C 390.924 -2.24688 -3.65805 0
M  V30 4103 C 390.157 -2.02322 -4.93864 0
M  V30 4104 O 390.38 -0.986464 -5.61805 0
M  V30 4105 O 389.314 -2.89525 -5.27692 0
M  V30 4106 H 393.14 -2.25705 -2.03202 0
M  V30 4107 H 390.725 -1.15321 -0.949811 0
M  V30 4108 H 392.607 -0.94763 -4.10607 0
M  V30 4109 H 391.282 -0.128852 -3.23443 0
M  V30 4110 H 390.189 -2.41521 -2.85689 0
M  V30 4111 H 391.522 -3.16261 -3.77147 0
M  V30 4112 N 393.175 1.03435 -1.18907 0
M  V30 4113 C 394.105 2.13503 -0.945448 0
M  V30 4114 C 395.086 1.69682 0.119189 0
M  V30 4115 O 396.271 1.94169 -0.034707 0
M  V30 4116 C 393.401 3.44004 -0.477316 0
M  V30 4117 C 392.355 4.0148 -1.48316 0
M  V30 4118 C 391.681 5.27537 -0.872311 0
M  V30 4119 C 392.981 4.36921 -2.86177 0
M  V30 4120 H 394.675 2.34141 -1.86597 0
M  V30 4121 H 392.221 1.12523 -0.898584 0
M  V30 4122 H 394.174 4.20372 -0.294204 0
M  V30 4123 H 392.898 3.23072 0.478786 0
M  V30 4124 H 391.557 3.27201 -1.65332 0
M  V30 4125 H 391.205 5.02917 0.0911752 0
M  V30 4126 H 390.905 5.66954 -1.54393 0
M  V30 4127 H 392.429 6.06576 -0.699871 0
M  V30 4128 H 393.843 5.04248 -2.72776 0
M  V30 4129 H 392.24 4.87405 -3.50081 0
M  V30 4130 H 393.31 3.46466 -3.39248 0
M  V30 4131 N 394.653 0.992116 1.22453 0
M  V30 4132 C 395.902 0.662992 1.90492 0
M  V30 4133 C 396.215 -0.808407 1.78113 0
M  V30 4134 O 397.421 -1.24908 2.41061 0
M  V30 4135 C 395.877 1.1353 3.41524 0
M  V30 4136 C 395.485 2.63187 3.62542 0
M  V30 4137 C 397.229 0.880465 4.15269 0
M  V30 4138 C 395.136 3.04024 5.0727 0
M  V30 4139 H 394.066 0.244278 0.713333 0
M  V30 4140 H 396.717 1.20157 1.38688 0
M  V30 4141 H 395.099 0.52485 3.92506 0
M  V30 4142 H 396.273 3.2957 3.22056 0
M  V30 4143 H 394.588 2.86543 3.02129 0
M  V30 4144 H 397.185 1.16128 5.21937 0
M  V30 4145 H 397.528 -0.183408 4.15896 0
M  V30 4146 H 398.061 1.45307 3.70312 0
M  V30 4147 H 394.8 4.09584 5.11782 0
M  V30 4148 H 394.32 2.42343 5.48662 0
M  V30 4149 H 395.999 2.95282 5.75689 0
M  V30 4150 N 396.131 -1.37776 0.765217 0
M  V30 4151 C 397.542 -1.82521 0.392819 0
M  V30 4152 C 397.893 -1.63789 -1.08017 0
M  V30 4153 O 397.018 -1.14542 -1.83601 0
M  V30 4154 C 397.613 -3.31358 0.706214 0
M  V30 4155 C 396.172 -3.74406 0.386952 0
M  V30 4156 C 395.319 -2.60394 0.953422 0
M  V30 4157 H 398.27 -1.2634 0.960412 0
M  V30 4158 H 398.291 -3.80498 -0.0114706 0
M  V30 4159 H 397.803 -3.44959 1.77833 0
M  V30 4160 H 395.904 -3.66377 -0.678112 0
M  V30 4161 H 396.017 -4.70749 0.890636 0
M  V30 4162 H 394.381 -2.51878 0.378064 0
M  V30 4163 H 395.164 -2.76791 2.03081 0
M  V30 4164 N 397.609 -0.515225 -1.4894 0
M  V30 4165 C 398.556 0.255567 -2.29381 0
M  V30 4166 C 399.526 0.947387 -1.36432 0
M  V30 4167 O 400.711 0.951288 -1.65394 0
M  V30 4168 C 397.851 1.30551 -3.19453 0
M  V30 4169 C 396.964 0.624029 -4.27469 0
M  V30 4170 C 396.099 1.65563 -5.0474 0
M  V30 4171 C 395.138 0.956802 -6.04576 0
M  V30 4172 N 394.275 1.93326 -6.74959 0
M  V30 4173 H 399.115 -0.436607 -2.94784 0
M  V30 4174 H 396.652 -0.227154 -1.45336 0
M  V30 4175 H 398.61 1.92639 -3.70062 0
M  V30 4176 H 397.24 1.96626 -2.56004 0
M  V30 4177 H 396.292 -0.110459 -3.8024 0
M  V30 4178 H 397.604 0.0746092 -4.98744 0
M  V30 4179 H 396.758 2.35119 -5.59289 0
M  V30 4180 H 395.497 2.23893 -4.3327 0
M  V30 4181 H 394.502 0.247097 -5.49244 0
M  V30 4182 H 395.727 0.379814 -6.78037 0
M  V30 4183 H 393.673 2.50591 -6.06251 0
M  V30 4184 H 393.59 1.43489 -7.42258 0
M  V30 4185 H 394.858 2.62126 -7.34105 0
M  V30 4186 N 399.087 1.5561 -0.249682 0
M  V30 4187 C 399.997 2.25143 0.659375 0
M  V30 4188 C 401.013 1.2685 1.19101 0
M  V30 4189 O 402.189 1.59732 1.22669 0
M  V30 4190 C 399.254 2.93945 1.8384 0
M  V30 4191 C 398.315 4.07655 1.34596 0
M  V30 4192 C 397.548 4.73167 2.46878 0
M  V30 4193 O 397.771 4.37768 3.65671 0
M  V30 4194 O 396.705 5.61623 2.16478 0
M  V30 4195 H 400.531 3.03545 0.0968698 0
M  V30 4196 H 398.116 1.49389 -0.018074 0
M  V30 4197 H 399.998 3.37271 2.52638 0
M  V30 4198 H 398.673 2.18481 2.38847 0
M  V30 4199 H 397.58 3.68839 0.625174 0
M  V30 4200 H 398.913 4.84946 0.841941 0
M  V30 4201 N 400.565 -0.0233959 1.57583 0
M  V30 4202 C 401.812 -0.713063 1.8953 0
M  V30 4203 C 402.14 -1.75056 0.847673 0
M  V30 4204 O 401.395 -1.95119 -0.150636 0
M  V30 4205 C 401.694 -1.41428 3.28227 0
M  V30 4206 C 401.36 -0.512222 4.47981 0
M  V30 4207 C 400.022 -0.263785 4.80476 0
M  V30 4208 C 402.374 0.110248 5.21083 0
M  V30 4209 C 399.702 0.615804 5.83459 0
M  V30 4210 C 402.054 0.977573 6.25001 0
M  V30 4211 C 400.718 1.23542 6.55968 0
M  V30 4212 H 399.988 -0.260928 0.69354 0
M  V30 4213 H 402.635 0.0271047 1.91481 0
M  V30 4214 H 400.94 -2.22791 3.22291 0
M  V30 4215 H 402.637 -1.95355 3.50196 0
M  V30 4216 H 399.227 -0.716013 4.22577 0
M  V30 4217 H 403.411 -0.0687137 4.96252 0
M  V30 4218 H 398.667 0.82382 6.05824 0
M  V30 4219 H 402.841 1.46638 6.80786 0
M  V30 4220 H 400.468 1.91871 7.35588 0
M  V30 4221 N 402.043 -1.548 -0.295768 0
M  V30 4222 C 403.454 -1.65274 -0.868411 0
M  V30 4223 C 403.805 -0.56481 -1.87894 0
M  V30 4224 O 402.93 0.29767 -2.14343 0
M  V30 4225 C 403.525 -2.99603 -1.58188 0
M  V30 4226 C 402.084 -3.12181 -2.10286 0
M  V30 4227 C 401.231 -2.6098 -0.93727 0
M  V30 4228 H 404.182 -1.58534 -0.0726422 0
M  V30 4229 H 404.203 -2.91319 -2.44772 0
M  V30 4230 H 403.715 -3.78764 -0.846151 0
M  V30 4231 H 401.816 -2.3775 -2.8689 0
M  V30 4232 H 401.929 -4.18415 -2.33379 0
M  V30 4233 H 400.293 -2.17564 -1.32431 0
M  V30 4234 H 401.076 -3.42623 -0.215414 0
M  V30 4235 N 403.521 0.559213 -1.47345 0
M  V30 4236 C 404.746 1.34676 -1.57725 0
M  V30 4237 C 405.171 1.86723 -0.227164 0
M  V30 4238 O 404.529 1.6286 0.796642 0
M  V30 4239 C 404.577 2.49399 -2.60447 0
M  V30 4240 O 403.681 3.51567 -2.15578 0
M  V30 4241 H 403.022 0.400115 -0.52991 0
M  V30 4242 H 405.552 0.676009 -1.93109 0
M  V30 4243 H 405.562 2.95996 -2.80803 0
M  V30 4244 H 404.237 2.10873 -3.58477 0
M  V30 4245 H 402.814 3.11289 -2.05313 0
M  V30 4246 N 404.999 1.35443 0.805782 0
M  V30 4247 C 406.247 1.28507 1.55982 0
M  V30 4248 C 406.568 -0.140046 1.94496 0
M  V30 4249 O 405.838 -1.07666 1.63661 0
M  V30 4250 H 404.418 0.472676 0.578434 0
M  V30 4251 H 407.08 1.69555 0.961098 0
M  V30 4252 H 406.176 1.90148 2.47488 0
M  V30 4253 N 406.477 -1.02803 1.19454 0
M  V30 4254 C 407.407 -2.12999 0.956758 0
M  V30 4255 C 408.388 -1.69743 -0.110188 0
M  V30 4256 O 409.573 -1.94148 0.0450038 0
M  V30 4257 C 406.703 -3.43746 0.495553 0
M  V30 4258 C 405.657 -4.00688 1.50443 0
M  V30 4259 C 404.983 -5.27067 0.900275 0
M  V30 4260 C 406.283 -4.35397 2.8849 0
M  V30 4261 H 407.977 -2.33148 1.87836 0
M  V30 4262 H 405.523 -1.12045 0.904539 0
M  V30 4263 H 407.476 -4.2021 0.316493 0
M  V30 4264 H 406.2 -3.23321 -0.461646 0
M  V30 4265 H 404.859 -3.2632 1.67065 0
M  V30 4266 H 404.507 -5.02959 -0.064503 0
M  V30 4267 H 404.207 -5.66127 1.57397 0
M  V30 4268 H 405.731 -6.06196 0.73203 0
M  V30 4269 H 407.145 -5.02795 2.75446 0
M  V30 4270 H 405.542 -4.85541 3.52661 0
M  V30 4271 H 406.612 -3.44662 3.41081 0
M  V30 4272 N 407.956 -0.998596 -1.21925 0
M  V30 4273 C 409.205 -0.673085 -1.90138 0
M  V30 4274 C 409.518 0.79895 -1.78539 0
M  V30 4275 O 410.724 1.23628 -2.4172 0
M  V30 4276 C 409.18 -1.15339 -3.40918 0
M  V30 4277 C 408.788 -2.65106 -3.61141 0
M  V30 4278 C 410.532 -0.902476 -4.14796 0
M  V30 4279 C 408.439 -3.0671 -5.05651 0
M  V30 4280 H 407.369 -0.248057 -0.712028 0
M  V30 4281 H 410.02 -1.20891 -1.38049 0
M  V30 4282 H 408.402 -0.545658 -3.92223 0
M  V30 4283 H 409.576 -3.31274 -3.20304 0
M  V30 4284 H 407.891 -2.88142 -3.00605 0
M  V30 4285 H 410.488 -1.18895 -5.21314 0
M  V30 4286 H 410.831 0.161349 -4.15987 0
M  V30 4287 H 411.364 -1.47269 -3.69536 0
M  V30 4288 H 408.103 -4.12292 -5.09603 0
M  V30 4289 H 407.623 -2.45249 -5.47369 0
M  V30 4290 H 409.302 -2.9833 -5.74115 0
M  V30 4291 N 409.434 1.37368 -0.772513 0
M  V30 4292 C 410.659 2.0447 -0.347386 0
M  V30 4293 C 411.084 1.57882 1.0225 0
M  V30 4294 O 410.442 0.73941 1.65537 0
M  V30 4295 C 410.49 3.58369 -0.400479 0
M  V30 4296 O 409.594 4.0803 0.598789 0
M  V30 4297 H 408.935 0.646773 -0.15027 0
M  V30 4298 H 411.465 1.75667 -1.04892 0
M  V30 4299 H 411.475 4.07183 -0.258045 0
M  V30 4300 H 410.15 3.91633 -1.39986 0
M  V30 4301 H 408.727 3.70534 0.419411 0
M  V30 4302 N 410.912 0.523116 1.48665 0
M  V30 4303 C 412.158 -0.0134963 2.02796 0
M  V30 4304 C 412.491 -1.34582 1.40004 0
M  V30 4305 O 411.766 -1.86756 0.543381 0
M  V30 4306 C 412.049 -0.14276 3.59817 0
M  V30 4307 C 411.902 1.21425 4.331 0
M  V30 4308 C 413.221 -0.872856 4.31357 0
M  V30 4309 H 410.34 -0.00343074 0.736992 0
M  V30 4310 H 412.982 0.678816 1.7746 0
M  V30 4311 H 411.132 -0.732401 3.81534 0
M  V30 4312 H 412.804 1.84447 4.2282 0
M  V30 4313 H 411.047 1.79791 3.94788 0
M  V30 4314 H 411.718 1.07687 5.41394 0
M  V30 4315 H 414.194 -0.372555 4.14429 0
M  V30 4316 H 413.07 -0.932185 5.40927 0
M  V30 4317 H 413.331 -1.92161 3.98154 0
M  V30 4318 N 412.39 -1.55475 0.257931 0
M  V30 4319 C 413.615 -2.04064 -0.370488 0
M  V30 4320 C 414.04 -1.13565 -1.49948 0
M  V30 4321 O 413.398 -0.130781 -1.80828 0
M  V30 4322 C 413.446 -3.50554 -0.845237 0
M  V30 4323 O 412.55 -3.63173 -1.95394 0
M  V30 4324 H 411.891 -0.659257 -0.0792243 0
M  V30 4325 H 414.421 -2.00903 0.387212 0
M  V30 4326 H 414.431 -3.91588 -1.14555 0
M  V30 4327 H 413.106 -4.15896 -0.0191259 0
M  V30 4328 H 411.683 -3.34039 -1.65748 0
M  V30 4329 N 413.868 0.0150385 -1.57593 0
M  V30 4330 C 415.098 0.713359 -1.93894 0
M  V30 4331 C 415.506 1.68663 -0.857289 0
M  V30 4332 O 414.849 1.82876 0.173788 0
M  V30 4333 C 414.911 1.51348 -3.26089 0
M  V30 4334 C 414.575 0.703451 -4.51554 0
M  V30 4335 C 415.572 -0.00237924 -5.199 0
M  V30 4336 C 413.257 0.653854 -4.98026 0
M  V30 4337 C 415.251 -0.746955 -6.33008 0
M  V30 4338 C 412.938 -0.0944578 -6.11027 0
M  V30 4339 C 413.936 -0.793609 -6.78374 0
M  V30 4340 O 413.624 -1.52974 -7.89211 0
M  V30 4341 H 413.356 0.204637 -0.644282 0
M  V30 4342 H 415.91 -0.0276411 -2.05381 0
M  V30 4343 H 414.14 2.29862 -3.10967 0
M  V30 4344 H 415.829 2.09572 -3.47612 0
M  V30 4345 H 416.595 0.0268803 -4.84993 0
M  V30 4346 H 412.474 1.18756 -4.45441 0
M  V30 4347 H 416.018 -1.2932 -6.85509 0
M  V30 4348 H 411.915 -0.125591 -6.45378 0
M  V30 4349 H 412.683 -1.44488 -8.05646 0
M  V30 4350 N 415.346 1.54954 0.287554 0
M  V30 4351 C 416.623 1.65569 1.04146 0
M  V30 4352 C 417.003 0.512672 2.0478 0
M  V30 4353 O 416.351 -0.489038 2.23205 0
M  V30 4354 C 416.561 3.04163 1.71131 0
M  V30 4355 C 417.909 3.61429 2.22832 0
M  V30 4356 O 418.933 3.06702 1.81141 0
M  V30 4357 O 417.792 4.57281 2.9926 0
M  V30 4358 H 414.886 0.671881 0.482188 0
M  V30 4359 H 417.432 1.67297 0.28457 0
M  V30 4360 H 416.204 3.78796 0.981303 0
M  V30 4361 H 415.827 3.06271 2.53543 0
M  V30 4362 N 416.824 -0.551391 1.4764 0
M  V30 4363 C 418.101 -1.31229 1.45046 0
M  V30 4364 C 418.481 -2.10563 0.150527 0
M  V30 4365 O 417.829 -2.11374 -0.867956 0
M  V30 4366 C 418.039 -2.21189 2.69956 0
M  V30 4367 C 419.387 -2.82021 3.1741 0
M  V30 4368 O 420.411 -2.31488 2.70724 0
M  V30 4369 O 419.27 -3.73885 3.98588 0
M  V30 4370 H 416.364 -0.591193 0.578291 0
M  V30 4371 H 418.91 -0.569813 1.59847 0
M  V30 4372 H 417.682 -1.62207 3.56096 0
M  V30 4373 H 417.305 -3.02722 2.57769 0
M  V30 4374 N 418.302 -1.35869 -0.798587 0
M  V30 4375 C 419.548 -1.30788 -1.55775 0
M  V30 4376 C 419.903 0.114558 -1.92059 0
M  V30 4377 O 419.196 1.06691 -1.59147 0
M  V30 4378 C 419.39 -2.1556 -2.85077 0
M  V30 4379 C 419.219 -3.65904 -2.61428 0
M  V30 4380 C 417.989 -4.35112 -2.56915 0
M  V30 4381 C 420.187 -4.59375 -2.31255 0
M  V30 4382 N 418.169 -5.71155 -2.25068 0
M  V30 4383 C 419.54 -5.83598 -2.09316 0
M  V30 4384 C 421.595 -4.48035 -2.17185 0
M  V30 4385 C 420.298 -6.97755 -1.74731 0
M  V30 4386 C 422.324 -5.62049 -1.83998 0
M  V30 4387 C 421.686 -6.85305 -1.629 0
M  V30 4388 H 417.785 -0.533855 -0.571422 0
M  V30 4389 H 420.369 -1.7083 -0.934079 0
M  V30 4390 H 418.54 -1.77776 -3.45326 0
M  V30 4391 H 420.272 -2.01938 -3.50718 0
M  V30 4392 H 417.027 -3.87812 -2.71843 0
M  V30 4393 H 417.451 -6.42978 -2.11916 0
M  V30 4394 H 422.093 -3.53338 -2.3219 0
M  V30 4395 H 419.811 -7.92411 -1.58464 0
M  V30 4396 H 423.397 -5.55232 -1.73808 0
M  V30 4397 H 422.277 -7.72034 -1.37596 0
M  V30 4398 N 419.78 1.02168 -1.19998 0
M  V30 4399 C 421.057 1.72816 -0.916191 0
M  V30 4400 C 421.437 2.03081 0.576325 0
M  V30 4401 O 420.785 1.69122 1.53656 0
M  V30 4402 C 420.995 2.9997 -1.78378 0
M  V30 4403 C 422.343 3.73336 -2.02251 0
M  V30 4404 O 423.367 3.09914 -1.75589 0
M  V30 4405 O 422.226 4.87371 -2.47249 0
M  V30 4406 H 419.32 0.752924 -0.342103 0
M  V30 4407 H 421.866 1.08062 -1.30846 0
M  V30 4408 H 420.638 2.73888 -2.79466 0
M  V30 4409 H 420.261 3.72464 -1.39126 0
M  V30 4410 N 421.258 1.00505 1.21394 0
M  V30 4411 C 422.488 0.705584 1.94178 0
M  V30 4412 C 422.896 -0.735846 1.74304 0
M  V30 4413 O 422.239 -1.50954 1.04683 0
M  V30 4414 C 422.301 0.94689 3.46806 0
M  V30 4415 C 421.965 2.37517 3.90429 0
M  V30 4416 C 422.962 3.35539 3.97127 0
M  V30 4417 C 420.647 2.71284 4.22742 0
M  V30 4418 C 422.641 4.65395 4.3553 0
M  V30 4419 C 420.328 4.01356 4.60822 0
M  V30 4420 C 421.326 4.98223 4.67186 0
M  V30 4421 O 421.014 6.25969 5.04399 0
M  V30 4422 H 420.746 0.259216 0.624326 0
M  V30 4423 H 423.3 1.34592 1.55159 0
M  V30 4424 H 421.53 0.249386 3.85895 0
M  V30 4425 H 423.219 0.640804 4.0081 0
M  V30 4426 H 423.985 3.10786 3.7234 0
M  V30 4427 H 419.864 1.96581 4.16985 0
M  V30 4428 H 423.408 5.41002 4.40412 0
M  V30 4429 H 419.305 4.25893 4.85063 0
M  V30 4430 H 420.073 6.30085 5.22431 0
M  V30 4431 N 422.737 -1.36956 0.779787 0
M  V30 4432 C 423.962 -2.04283 0.358224 0
M  V30 4433 C 424.387 -1.58422 -1.01411 0
M  V30 4434 O 423.745 -0.748179 -1.65142 0
M  V30 4435 C 423.793 -3.58152 0.419479 0
M  V30 4436 O 422.897 -4.08342 -0.577142 0
M  V30 4437 H 422.238 -0.645967 0.153698 0
M  V30 4438 H 424.768 -1.75108 1.05822 0
M  V30 4439 H 424.778 -4.07041 0.279636 0
M  V30 4440 H 423.453 -3.90886 1.42061 0
M  V30 4441 H 422.03 -3.70751 -0.399755 0
M  V30 4442 N 424.215 -0.530993 -1.48385 0
M  V30 4443 C 425.145 0.219985 -2.32461 0
M  V30 4444 C 426.126 0.934111 -1.42156 0
M  V30 4445 O 427.311 0.919694 -1.71042 0
M  V30 4446 C 424.441 1.26674 -3.23375 0
M  V30 4447 C 423.395 0.67069 -4.22712 0
M  V30 4448 C 422.721 1.82017 -5.02766 0
M  V30 4449 C 424.021 -0.358268 -5.2107 0
M  V30 4450 H 425.715 -0.48187 -2.95497 0
M  V30 4451 H 423.261 -0.233182 -1.42099 0
M  V30 4452 H 425.214 1.80006 -3.81019 0
M  V30 4453 H 423.938 1.99818 -2.58341 0
M  V30 4454 H 422.597 0.158878 -3.66256 0
M  V30 4455 H 422.245 2.54002 -4.34157 0
M  V30 4456 H 421.945 1.42727 -5.70003 0
M  V30 4457 H 423.469 2.35725 -5.63264 0
M  V30 4458 H 424.883 0.0880081 -5.73232 0
M  V30 4459 H 423.28 -0.66861 -5.96364 0
M  V30 4460 H 424.35 -1.26367 -4.68145 0
M  V30 4461 N 425.693 1.55336 -0.266172 0
M  V30 4462 C 426.603 2.2583 0.635458 0
M  V30 4463 C 427.619 1.28106 1.17749 0
M  V30 4464 O 428.795 1.61024 1.20968 0
M  V30 4465 C 425.86 2.95879 1.80712 0
M  V30 4466 C 424.921 4.09059 1.30265 0
M  V30 4467 C 424.154 4.75759 2.41846 0
M  V30 4468 O 424.377 4.41622 3.61007 0
M  V30 4469 O 423.311 5.63888 2.1051 0
M  V30 4470 H 427.137 3.03631 0.0646693 0
M  V30 4471 H 424.722 1.49361 -0.0339177 0
M  V30 4472 H 426.604 3.39932 2.49047 0
M  V30 4473 H 425.279 2.21002 2.36516 0
M  V30 4474 H 424.186 3.69482 0.586019 0
M  V30 4475 H 425.519 4.85811 0.790458 0
M  V30 4476 N 427.171 -0.0066808 1.57599 0
M  V30 4477 C 428.134 -0.985035 2.06953 0
M  V30 4478 C 429.134 -1.27663 0.977687 0
M  V30 4479 O 430.324 -1.22293 1.24057 0
M  V30 4480 C 427.456 -2.3118 2.50536 0
M  V30 4481 H 428.649 -0.558255 2.94658 0
M  V30 4482 H 426.202 -0.254011 1.54222 0
M  V30 4483 H 426.937 -2.78561 1.66054 0
M  V30 4484 H 426.722 -2.11338 3.3027 0
M  V30 4485 H 428.212 -3.01377 2.8907 0
M  V30 4486 N 428.649 -1.55105 -0.279332 0
M  V30 4487 C 430.065 -1.46803 -0.626187 0
M  V30 4488 C 430.265 -0.676939 -1.89789 0
M  V30 4489 O 429.321 -0.19326 -2.51759 0
M  V30 4490 C 430.634 -2.90962 -0.759034 0
M  V30 4491 C 432.182 -3.01138 -0.853504 0
M  V30 4492 C 432.657 -4.46539 -1.01818 0
M  V30 4493 N 434.148 -4.50341 -1.08386 0
M  V30 4494 C 434.883 -5.60053 -1.22996 0
M  V30 4495 N 434.379 -6.79645 -1.34366 0
M  V30 4496 N 436.172 -5.47783 -1.26056 0
M  V30 4497 H 428.323 -2.04996 0.555921 0
M  V30 4498 H 430.586 -0.929325 0.187239 0
M  V30 4499 H 430.292 -3.51544 0.104852 0
M  V30 4500 H 430.166 -3.39619 -1.64131 0
M  V30 4501 H 432.553 -2.40658 -1.70786 0
M  V30 4502 H 432.634 -2.55745 0.0532466 0
M  V30 4503 H 432.278 -5.0762 -0.168504 0
M  V30 4504 H 432.208 -4.89583 -1.93948 0
M  V30 4505 H 434.699 -3.64191 -1.00864 0
M  V30 4506 H 435.012 -7.59012 -1.4533 0
M  V30 4507 H 433.357 -6.82469 -1.31382 0
M  V30 4508 H 436.548 -4.53294 -1.168 0
M  V30 4509 H 436.721 -6.33331 -1.37098 0
M  V30 4510 N 430.127 0.543554 -1.4793 0
M  V30 4511 C 431.373 1.30201 -1.55485 0
M  V30 4512 C 431.706 1.92925 -0.222201 0
M  V30 4513 O 430.981 1.78586 0.77053 0
M  V30 4514 C 431.264 2.40174 -2.68307 0
M  V30 4515 C 431.117 1.8223 -4.11233 0
M  V30 4516 C 432.436 3.42024 -2.76961 0
M  V30 4517 H 429.555 0.472036 -0.565996 0
M  V30 4518 H 432.197 0.606914 -1.80046 0
M  V30 4519 H 430.347 2.99463 -2.47495 0
M  V30 4520 H 432.019 1.27096 -4.43446 0
M  V30 4521 H 430.262 1.12832 -4.18869 0
M  V30 4522 H 430.933 2.61793 -4.85972 0
M  V30 4523 H 433.409 2.92672 -2.95774 0
M  V30 4524 H 432.285 4.16383 -3.57654 0
M  V30 4525 H 432.546 4.0173 -1.84568 0
M  V30 4526 N 431.605 1.3629 0.791371 0
M  V30 4527 C 433.021 1.16661 1.08914 0
M  V30 4528 C 433.221 -0.0106266 2.01497 0
M  V30 4529 O 432.277 -0.676596 2.43266 0
M  V30 4530 C 433.59 2.47656 1.70549 0
M  V30 4531 C 435.138 2.54002 1.82899 0
M  V30 4532 C 435.613 3.85078 2.47949 0
M  V30 4533 N 437.104 3.86413 2.5542 0
M  V30 4534 C 437.839 4.84572 3.06557 0
M  V30 4535 N 437.335 5.93124 3.58016 0
M  V30 4536 N 439.128 4.71994 3.05251 0
M  V30 4537 H 431.279 2.11668 0.176238 0
M  V30 4538 H 433.542 0.937486 0.140796 0
M  V30 4539 H 433.248 3.34059 1.09989 0
M  V30 4540 H 433.122 2.63319 2.70079 0
M  V30 4541 H 435.509 1.68018 2.42598 0
M  V30 4542 H 435.59 2.42239 0.821808 0
M  V30 4543 H 435.234 4.71467 1.88895 0
M  V30 4544 H 435.164 3.94135 3.49235 0
M  V30 4545 H 437.655 3.07988 2.18979 0
M  V30 4546 H 437.968 6.63999 3.95381 0
M  V30 4547 H 436.313 5.96796 3.56173 0
M  V30 4548 H 439.504 3.86321 2.64336 0
M  V30 4549 H 439.677 5.48653 3.44796 0
M  V30 4550 N 433.083 -1.0153 1.20538 0
M  V30 4551 C 434.36 -1.72327 0.925343 0
M  V30 4552 C 434.74 -2.03383 -0.565547 0
M  V30 4553 O 434.088 -1.69934 -1.52757 0
M  V30 4554 C 434.298 -2.9902 1.79967 0
M  V30 4555 C 435.646 -3.72258 2.04228 0
M  V30 4556 O 436.67 -3.08979 1.77231 0
M  V30 4557 O 435.529 -4.86053 2.4983 0
M  V30 4558 H 432.623 -0.751099 0.346092 0
M  V30 4559 H 435.169 -1.07366 1.31417 0
M  V30 4560 H 433.941 -2.72402 2.80915 0
M  V30 4561 H 433.564 -3.71721 1.41099 0
M  V30 4562 N 434.561 -1.01147 -1.20859 0
M  V30 4563 C 435.809 -0.696486 -1.89719 0
M  V30 4564 C 436.13 0.775788 -1.78904 0
M  V30 4565 O 435.4 1.55759 -1.18811 0
M  V30 4566 H 433.98 -0.254628 -0.702263 0
M  V30 4567 H 436.642 -1.28197 -1.46804 0
M  V30 4568 H 435.738 -0.975357 -2.96468 0
M  V30 4569 N 436.039 1.36541 -0.78704 0
M  V30 4570 C 437.288 1.98552 -0.35494 0
M  V30 4571 C 437.601 1.63171 1.07864 0
M  V30 4572 O 438.807 2.18399 1.61289 0
M  V30 4573 C 437.263 3.55136 -0.583671 0
M  V30 4574 C 436.871 3.99444 -2.02851 0
M  V30 4575 C 438.615 4.2395 -0.215957 0
M  V30 4576 C 436.522 5.48796 -2.20403 0
M  V30 4577 H 435.452 0.742888 -0.128972 0
M  V30 4578 H 438.103 1.5587 -0.968337 0
M  V30 4579 H 436.485 3.95875 0.0994046 0
M  V30 4580 H 437.659 3.6991 -2.74779 0
M  V30 4581 H 435.974 3.43459 -2.35425 0
M  V30 4582 H 438.571 5.33709 -0.325405 0
M  V30 4583 H 438.914 4.07827 0.835646 0
M  V30 4584 H 439.447 3.88565 -0.852175 0
M  V30 4585 H 436.186 5.69864 -3.23937 0
M  V30 4586 H 435.706 5.79964 -1.52977 0
M  V30 4587 H 437.385 6.14986 -2.01002 0
M  V30 4588 N 437.518 0.538854 1.48102 0
M  V30 4589 C 438.766 0.00798599 2.02098 0
M  V30 4590 C 439.087 -1.33922 1.41739 0
M  V30 4591 O 438.357 -1.86932 0.585934 0
M  V30 4592 H 436.937 -3.62179e-05 0.747 0
M  V30 4593 H 439.599 0.7047 1.81714 0
M  V30 4594 H 438.695 -0.0937672 3.11959 0
M  V30 4595 N 438.996 -1.55193 0.274407 0
M  V30 4596 C 440.245 -1.98758 -0.343213 0
M  V30 4597 C 440.558 -1.16624 -1.5703 0
M  V30 4598 O 441.764 -1.5033 -2.26082 0
M  V30 4599 C 440.22 -3.53759 -0.661996 0
M  V30 4600 C 439.828 -4.4467 0.54524 0
M  V30 4601 C 441.572 -4.05916 -1.24228 0
M  V30 4602 C 439.479 -5.91058 0.201084 0
M  V30 4603 H 438.409 -0.742353 -0.132014 0
M  V30 4604 H 441.06 -1.79545 0.378948 0
M  V30 4605 H 439.442 -3.68772 -1.44304 0
M  V30 4606 H 440.616 -4.41426 1.32212 0
M  V30 4607 H 438.931 -4.03143 1.04232 0
M  V30 4608 H 441.528 -5.12831 -1.51357 0
M  V30 4609 H 441.871 -3.54908 -2.17592 0
M  V30 4610 H 442.404 -3.9434 -0.523542 0
M  V30 4611 H 439.143 -6.46161 1.10258 0
M  V30 4612 H 438.663 -5.97373 -0.539045 0
M  V30 4613 H 440.342 -6.46669 -0.206954 0
M  V30 4614 N 440.474 -0.00167713 -1.576 0
M  V30 4615 C 441.404 0.988091 -2.11563 0
M  V30 4616 C 442.385 1.35736 -1.02517 0
M  V30 4617 O 443.57 1.44082 -1.30208 0
M  V30 4618 C 440.7 2.27941 -2.62031 0
M  V30 4619 C 439.654 2.0517 -3.75619 0
M  V30 4620 C 438.98 3.4033 -4.12407 0
M  V30 4621 C 440.28 1.41294 -5.02825 0
M  V30 4622 H 441.974 0.538771 -2.94513 0
M  V30 4623 H 439.52 0.257712 -1.41675 0
M  V30 4624 H 441.473 2.97539 -2.9841 0
M  V30 4625 H 440.197 2.74989 -1.76205 0
M  V30 4626 H 438.856 1.37998 -3.39635 0
M  V30 4627 H 438.504 3.85085 -3.23603 0
M  V30 4628 H 438.204 3.25909 -4.88935 0
M  V30 4629 H 439.728 4.1124 -4.51347 0
M  V30 4630 H 441.142 2.00851 -5.36965 0
M  V30 4631 H 439.539 1.37356 -5.84169 0
M  V30 4632 H 440.609 0.382362 -4.8339 0
M  V30 4633 N 441.952 1.55251 0.271103 0
M  V30 4634 C 443.18 1.79974 1.02064 0
M  V30 4635 C 443.595 0.574003 1.79863 0
M  V30 4636 O 442.952 -0.456962 1.76686 0
M  V30 4637 C 443.003 3.02603 1.97772 0
M  V30 4638 O 442.724 4.20443 1.23124 0
M  V30 4639 C 444.225 3.39944 2.84522 0
M  V30 4640 H 441.445 0.599489 0.301419 0
M  V30 4641 H 443.989 2.02268 0.301313 0
M  V30 4642 H 442.144 2.8243 2.65165 0
M  V30 4643 H 442.558 4.89783 1.87651 0
M  V30 4644 H 444.032 4.28915 3.47471 0
M  V30 4645 H 444.509 2.59432 3.54389 0
M  V30 4646 H 445.115 3.62383 2.22618 0
M  V30 4647 N 443.43 -0.535701 1.48216 0
M  V30 4648 C 444.658 -1.31671 1.59594 0
M  V30 4649 C 445.073 -1.87083 0.254056 0
M  V30 4650 O 444.43 -1.66112 -0.755854 0
M  V30 4651 C 444.481 -2.47158 2.63809 0
M  V30 4652 O 444.202 -1.94032 3.92789 0
M  V30 4653 C 445.703 -3.39062 2.85573 0
M  V30 4654 H 442.923 -0.400623 0.538277 0
M  V30 4655 H 445.467 -0.646827 1.94001 0
M  V30 4656 H 443.622 -3.10043 2.32276 0
M  V30 4657 H 444.036 -2.69585 4.49916 0
M  V30 4658 H 445.51 -4.16459 3.62306 0
M  V30 4659 H 445.987 -3.93941 1.94184 0
M  V30 4660 H 446.593 -2.81975 3.18387 0
M  V30 4661 N 444.908 -1.36708 -0.784132 0
M  V30 4662 C 445.871 -1.31307 -1.87859 0
M  V30 4663 C 446.871 -0.219654 -1.59293 0
M  V30 4664 O 448.061 -0.47476 -1.67606 0
M  V30 4665 C 445.193 -1.03679 -3.24751 0
M  V30 4666 H 446.386 -2.28647 -1.94064 0
M  V30 4667 H 443.939 -1.21558 -0.98252 0
M  V30 4668 H 444.674 -0.0681936 -3.24228 0
M  V30 4669 H 444.459 -1.82811 -3.46876 0
M  V30 4670 H 445.949 -1.02518 -4.04821 0
M  V30 4671 N 446.386 1.0089 -1.21074 0
M  V30 4672 C 447.349 2.0775 -0.968129 0
M  V30 4673 C 448.349 1.6069 0.0593445 0
M  V30 4674 O 449.539 1.73293 -0.177525 0
M  V30 4675 C 446.671 3.37794 -0.459108 0
M  V30 4676 H 447.864 2.30707 -1.9161 0
M  V30 4677 H 445.417 1.17807 -1.02719 0
M  V30 4678 H 446.152 3.20516 0.49397 0
M  V30 4679 H 445.937 3.7328 -1.20019 0
M  V30 4680 H 447.427 4.16454 -0.309099 0
M  V30 4681 N 447.864 1.01787 1.20321 0
M  V30 4682 C 449.089 0.727009 1.9424 0
M  V30 4683 C 449.514 -0.706179 1.74341 0
M  V30 4684 O 448.872 -1.48609 1.03852 0
M  V30 4685 C 448.92 1.06958 3.44372 0
M  V30 4686 O 448.024 0.181983 4.11998 0
M  V30 4687 H 447.365 0.269626 0.606793 0
M  V30 4688 H 449.895 1.36158 1.52716 0
M  V30 4689 H 449.905 1.02182 3.94997 0
M  V30 4690 H 448.58 2.11378 3.58179 0
M  V30 4691 H 447.157 0.287378 3.71791 0
M  V30 4692 N 449.342 -1.36122 0.79427 0
M  V30 4693 C 450.567 -2.03891 0.379871 0
M  V30 4694 C 450.992 -1.59488 -0.997251 0
M  V30 4695 O 450.35 -0.765652 -1.64339 0
M  V30 4696 C 450.398 -3.57687 0.457442 0
M  V30 4697 O 449.502 -4.08931 -0.5338 0
M  V30 4698 H 448.843 -0.6443 0.160541 0
M  V30 4699 H 451.373 -1.73976 1.07673 0
M  V30 4700 H 451.383 -4.06721 0.322792 0
M  V30 4701 H 450.058 -3.89357 1.46199 0
M  V30 4702 H 448.635 -3.71154 -0.360409 0
M  V30 4703 N 450.82 -0.546701 -1.47814 0
M  V30 4704 C 451.753 0.254472 -2.26777 0
M  V30 4705 C 452.731 0.929809 -1.33392 0
M  V30 4706 O 453.915 0.950889 -1.62759 0
M  V30 4707 C 451.042 1.36171 -3.10121 0
M  V30 4708 C 450.088 0.796038 -4.19005 0
M  V30 4709 S 450.921 -0.349191 -5.3436 0
M  V30 4710 C 452.077 0.760122 -6.21267 0
M  V30 4711 H 452.31 -0.415612 -2.94381 0
M  V30 4712 H 449.843 -0.332809 -1.5077 0
M  V30 4713 H 451.801 1.99588 -3.58713 0
M  V30 4714 H 450.462 2.00359 -2.41899 0
M  V30 4715 H 449.655 1.62719 -4.7701 0
M  V30 4716 H 449.257 0.238246 -3.7324 0
M  V30 4717 H 451.549 1.65479 -6.5698 0
M  V30 4718 H 452.492 0.217673 -7.07765 0
M  V30 4719 H 452.9 1.04806 -5.54685 0
M  V30 4720 N 452.299 1.55045 -0.282633 0
M  V30 4721 C 453.229 2.2579 0.595066 0
M  V30 4722 C 454.21 1.25074 1.15284 0
M  V30 4723 O 455.395 1.5381 1.18559 0
M  V30 4724 C 452.525 2.98472 1.77572 0
M  V30 4725 C 451.479 4.0618 1.34914 0
M  V30 4726 C 450.805 4.66477 2.6135 0
M  V30 4727 C 452.105 5.1996 0.493821 0
M  V30 4728 H 453.799 2.994 0.00505653 0
M  V30 4729 H 451.345 1.44 0.000992001 0
M  V30 4730 H 453.298 3.46677 2.39568 0
M  V30 4731 H 452.022 2.2241 2.39168 0
M  V30 4732 H 450.681 3.58797 0.752338 0
M  V30 4733 H 450.329 3.87074 3.2122 0
M  V30 4734 H 450.029 5.39207 2.33516 0
M  V30 4735 H 451.553 5.17435 3.24181 0
M  V30 4736 H 452.967 5.64172 1.01898 0
M  V30 4737 H 451.364 5.99299 0.310047 0
M  V30 4738 H 452.434 4.82462 -0.485593 0
M  V30 4739 N 453.777 0.010035 1.57597 0
M  V30 4740 C 454.687 -0.994226 2.12491 0
M  V30 4741 C 455.703 -1.37013 1.07254 0
M  V30 4742 O 456.879 -1.45542 1.3921 0
M  V30 4743 C 453.944 -2.2642 2.62555 0
M  V30 4744 C 453.005 -1.95049 3.82432 0
M  V30 4745 C 452.238 -3.15991 4.30099 0
M  V30 4746 O 452.461 -4.28015 3.7704 0
M  V30 4747 O 451.395 -2.99403 5.22151 0
M  V30 4748 H 455.221 -0.557549 2.98538 0
M  V30 4749 H 452.806 -0.209413 1.47925 0
M  V30 4750 H 454.688 -3.01009 2.9491 0
M  V30 4751 H 453.363 -2.69306 1.796 0
M  V30 4752 H 452.27 -1.17904 3.55034 0
M  V30 4753 H 453.603 -1.56992 4.66491 0
M  V30 4754 N 455.255 -1.55392 -0.262866 0
M  V30 4755 C 456.202 -1.88966 -1.32516 0
M  V30 4756 C 457.172 -0.742187 -1.48596 0
M  V30 4757 O 458.357 -0.99439 -1.62839 0
M  V30 4758 C 455.497 -2.17592 -2.67858 0
M  V30 4759 C 454.61 -3.45061 -2.59917 0
M  V30 4760 C 453.745 -3.63336 -3.87505 0
M  V30 4761 C 452.784 -4.84462 -3.74116 0
M  V30 4762 N 451.921 -4.99342 -4.93561 0
M  V30 4763 H 456.761 -2.79566 -1.03184 0
M  V30 4764 H 454.298 -1.38404 -0.498285 0
M  V30 4765 H 456.256 -2.3219 -3.46617 0
M  V30 4766 H 454.886 -1.30215 -2.95371 0
M  V30 4767 H 453.938 -3.38881 -1.72812 0
M  V30 4768 H 455.25 -4.3396 -2.45926 0
M  V30 4769 H 454.404 -3.77807 -4.74707 0
M  V30 4770 H 453.143 -2.72641 -4.04374 0
M  V30 4771 H 452.148 -4.69985 -2.85297 0
M  V30 4772 H 453.373 -5.76603 -3.58757 0
M  V30 4773 H 451.319 -4.1158 -5.10821 0
M  V30 4774 H 451.236 -5.82303 -4.82141 0
M  V30 4775 H 452.504 -5.18208 -5.82306 0
M  V30 4776 N 456.733 0.527833 -1.48498 0
M  V30 4777 C 457.98 1.28354 -1.56625 0
M  V30 4778 C 458.308 1.93 -0.241096 0
M  V30 4779 O 457.563 1.79967 0.768798 0
M  V30 4780 C 457.862 2.39275 -2.65485 0
M  V30 4781 C 457.528 1.92268 -4.07853 0
M  V30 4782 C 456.19 1.79166 -4.46602 0
M  V30 4783 C 458.542 1.56771 -4.97064 0
M  V30 4784 C 455.87 1.28905 -5.72364 0
M  V30 4785 C 458.222 1.07972 -6.23318 0
M  V30 4786 C 456.886 0.934887 -6.60921 0
M  V30 4787 H 456.156 0.469682 -0.573131 0
M  V30 4788 H 458.803 0.588781 -1.82224 0
M  V30 4789 H 457.108 3.1443 -2.33754 0
M  V30 4790 H 458.805 2.974 -2.68988 0
M  V30 4791 H 455.395 2.03417 -3.77252 0
M  V30 4792 H 459.579 1.65753 -4.67803 0
M  V30 4793 H 454.835 1.16381 -6.00221 0
M  V30 4794 H 459.009 0.795775 -6.91838 0
M  V30 4795 H 456.636 0.543231 -7.58257 0
M  V30 4796 N 458.211 1.37122 0.776871 0
M  V30 4797 C 459.436 1.354 1.57104 0
M  V30 4798 C 459.861 -0.0595562 1.88006 0
M  V30 4799 O 459.219 -1.03514 1.48844 0
M  V30 4800 C 459.267 2.19472 2.8612 0
M  V30 4801 O 458.371 1.59582 3.80273 0
M  V30 4802 H 457.712 0.462869 0.476076 0
M  V30 4803 H 460.242 1.80577 0.961932 0
M  V30 4804 H 460.252 2.32502 3.35271 0
M  V30 4805 H 458.927 3.22222 2.62956 0
M  V30 4806 H 457.504 1.55564 3.38902 0
M  V30 4807 N 459.689 -1.00246 1.21608 0
M  V30 4808 C 460.919 -1.77373 1.05935 0
M  V30 4809 C 461.327 -1.85059 -0.393686 0
M  V30 4810 O 460.67 -1.31289 -1.28487 0
M  V30 4811 C 460.732 -3.22705 1.58435 0
M  V30 4812 C 460.396 -3.38591 3.06929 0
M  V30 4813 C 461.393 -3.2667 4.04454 0
M  V30 4814 C 459.078 -3.6395 3.46187 0
M  V30 4815 C 461.072 -3.39877 5.39224 0
M  V30 4816 C 458.759 -3.768 4.81108 0
M  V30 4817 C 459.757 -3.6477 5.77436 0
M  V30 4818 O 459.445 -3.77206 7.09909 0
M  V30 4819 H 459.177 -0.56419 0.372378 0
M  V30 4820 H 461.731 -1.26971 1.61454 0
M  V30 4821 H 459.961 -3.74255 0.973147 0
M  V30 4822 H 461.65 -3.81515 1.38568 0
M  V30 4823 H 462.416 -3.06999 3.75468 0
M  V30 4824 H 458.295 -3.72395 2.71741 0
M  V30 4825 H 461.839 -3.30404 6.14393 0
M  V30 4826 H 457.736 -3.95975 5.09779 0
M  V30 4827 H 458.504 -3.94138 7.17355 0
M  V30 4828 N 461.167 -1.02423 -1.1978 0
M  V30 4829 C 462.416 -0.713265 -1.88667 0
M  V30 4830 C 462.729 0.7609 -1.80193 0
M  V30 4831 O 463.935 1.18473 -2.44288 0
M  V30 4832 C 462.391 -1.22545 -3.38394 0
M  V30 4833 C 461.999 -2.72706 -3.55437 0
M  V30 4834 C 463.743 -0.990257 -4.12788 0
M  V30 4835 C 461.65 -3.17367 -4.99031 0
M  V30 4836 H 460.58 -0.263105 -0.706606 0
M  V30 4837 H 463.231 -1.23792 -1.35454 0
M  V30 4838 H 461.613 -0.628732 -3.90977 0
M  V30 4839 H 462.787 -3.37993 -3.13205 0
M  V30 4840 H 461.102 -2.94453 -2.94425 0
M  V30 4841 H 463.699 -1.29926 -5.18675 0
M  V30 4842 H 464.042 0.0730761 -4.16236 0
M  V30 4843 H 464.575 -1.55074 -3.66329 0
M  V30 4844 H 461.314 -4.23009 -5.00743 0
M  V30 4845 H 460.834 -2.56805 -5.42044 0
M  V30 4846 H 462.513 -3.10441 -5.67658 0
M  V30 4847 N 462.645 1.35699 -0.801477 0
M  V30 4848 C 464.056 1.81415 -0.441073 0
M  V30 4849 C 464.407 1.66595 1.03636 0
M  V30 4850 O 463.532 1.19369 1.80499 0
M  V30 4851 C 464.127 3.29369 -0.793819 0
M  V30 4852 C 462.686 3.73248 -0.486083 0
M  V30 4853 C 461.833 2.57775 -1.02213 0
M  V30 4854 H 464.784 1.23749 -0.993572 0
M  V30 4855 H 464.805 3.80395 -0.0894158 0
M  V30 4856 H 464.317 3.40123 -1.86917 0
M  V30 4857 H 462.418 3.68046 0.580735 0
M  V30 4858 H 462.531 4.68222 -1.01513 0
M  V30 4859 H 460.895 2.50788 -0.444712 0
M  V30 4860 H 461.678 2.71309 -2.10348 0
M  V30 4861 N 464.123 0.554532 1.47522 0
M  V30 4862 C 465.033 -0.197865 2.33764 0
M  V30 4863 C 466.049 -0.914576 1.48025 0
M  V30 4864 O 467.225 -0.884067 1.80959 0
M  V30 4865 C 464.29 -1.21628 3.24665 0
M  V30 4866 C 463.351 -0.507283 4.26292 0
M  V30 4867 C 462.584 -1.47718 5.1285 0
M  V30 4868 O 462.807 -2.7118 5.01814 0
M  V30 4869 O 461.741 -1.00313 5.93482 0
M  V30 4870 H 465.567 0.50949 2.99396 0
M  V30 4871 H 463.152 0.315176 1.46038 0
M  V30 4872 H 465.034 -1.80421 3.80823 0
M  V30 4873 H 463.709 -1.9056 2.61665 0
M  V30 4874 H 462.616 0.121778 3.73902 0
M  V30 4875 H 463.949 0.140544 4.91999 0
M  V30 4876 N 465.601 -1.54893 0.290851 0
M  V30 4877 C 466.564 -2.21824 -0.576784 0
M  V30 4878 C 467.564 -1.20104 -1.06919 0
M  V30 4879 O 468.754 -1.44906 -0.966843 0
M  V30 4880 C 465.886 -2.89662 -1.79747 0
M  V30 4881 H 467.079 -2.99899 0.00784051 0
M  V30 4882 H 464.632 -1.56245 0.0415934 0
M  V30 4883 H 465.367 -2.15639 -2.42219 0
M  V30 4884 H 465.152 -3.64219 -1.45214 0
M  V30 4885 H 466.642 -3.4075 -2.4141 0
M  V30 4886 N 467.08 -0.0183926 -1.57589 0
M  V30 4887 C 468.027 0.967022 -2.09565 0
M  V30 4888 C 468.997 1.32983 -0.995225 0
M  V30 4889 O 470.182 1.42501 -1.26878 0
M  V30 4890 C 467.322 2.24772 -2.61861 0
M  V30 4891 C 466.435 1.94232 -3.85873 0
M  V30 4892 C 465.57 3.16518 -4.26603 0
M  V30 4893 C 464.609 2.81748 -5.43401 0
M  V30 4894 N 463.746 3.96626 -5.79338 0
M  V30 4895 H 468.586 0.516874 -2.93483 0
M  V30 4896 H 466.123 0.243544 -1.4507 0
M  V30 4897 H 468.081 2.99667 -2.90268 0
M  V30 4898 H 466.711 2.67423 -1.8079 0
M  V30 4899 H 465.763 1.09625 -3.64262 0
M  V30 4900 H 467.075 1.64616 -4.70853 0
M  V30 4901 H 466.229 3.99743 -4.56389 0
M  V30 4902 H 464.968 3.49286 -3.40368 0
M  V30 4903 H 463.973 1.96933 -5.1332 0
M  V30 4904 H 465.198 2.50207 -6.31327 0
M  V30 4905 H 463.144 4.29257 -4.96059 0
M  V30 4906 H 463.061 3.70598 -6.58933 0
M  V30 4907 H 464.329 4.80586 -6.13724 0
M  V30 4908 N 468.558 1.5553 0.254621 0
M  V30 4909 C 469.521 1.88872 1.29846 0
M  V30 4910 C 470.521 0.764591 1.41459 0
M  V30 4911 O 471.711 1.03265 1.40293 0
M  V30 4912 C 468.843 2.11032 2.67728 0
M  V30 4913 H 470.036 2.82201 1.01502 0
M  V30 4914 H 467.589 1.48303 0.493556 0
M  V30 4915 H 468.324 1.20146 3.01223 0
M  V30 4916 H 468.109 2.92895 2.60682 0
M  V30 4917 H 469.599 2.38038 3.43115 0
M  V30 4918 N 470.036 -0.519951 1.48776 0
M  V30 4919 C 471.261 -1.30447 1.6124 0
M  V30 4920 C 471.686 -1.86055 0.276591 0
M  V30 4921 O 471.044 -1.64915 -0.753183 0
M  V30 4922 C 471.092 -2.42406 2.66967 0
M  V30 4923 O 470.196 -3.45728 2.24824 0
M  V30 4924 H 469.537 -0.385924 0.540332 0
M  V30 4925 H 472.067 -0.624572 1.94834 0
M  V30 4926 H 472.077 -2.88447 2.88552 0
M  V30 4927 H 470.752 -2.01294 3.63941 0
M  V30 4928 H 469.329 -3.05737 2.13494 0
M  V30 4929 N 471.514 -1.37532 -0.769588 0
M  V30 4930 C 472.754 -1.34261 -1.54122 0
M  V30 4931 C 473.118 0.0717222 -1.91866 0
M  V30 4932 O 474.319 0.22918 -2.67821 0
M  V30 4933 C 472.59 -2.2574 -2.77086 0
M  V30 4934 S 474.149 -2.40339 -3.67127 0
M  V30 4935 H 470.967 -0.476595 -0.527615 0
M  V30 4936 H 473.569 -1.73303 -0.90479 0
M  V30 4937 H 472.273 -3.27417 -2.4744 0
M  V30 4938 H 471.804 -1.87789 -3.45686 0
M  V30 4939 H 473.819 -1.61558 -4.69163 0
M  V30 4940 N 472.992 0.995999 -1.22138 0
M  V30 4941 C 474.222 1.76809 -1.06874 0
M  V30 4942 C 474.63 1.85265 0.383866 0
M  V30 4943 O 473.973 1.31969 1.27789 0
M  V30 4944 C 474.035 3.2186 -1.60144 0
M  V30 4945 C 473.699 3.36958 -3.0872 0
M  V30 4946 C 474.696 3.2452 -4.0618 0
M  V30 4947 C 472.381 3.62109 -3.48112 0
M  V30 4948 C 474.375 3.37013 -5.41019 0
M  V30 4949 C 472.062 3.74243 -4.831 0
M  V30 4950 C 473.06 3.61702 -5.79362 0
M  V30 4951 O 472.748 3.73436 -7.119 0
M  V30 4952 H 472.48 0.562207 -0.375365 0
M  V30 4953 H 475.034 1.26113 -1.62125 0
M  V30 4954 H 473.264 3.73734 -0.992981 0
M  V30 4955 H 474.953 3.80775 -1.40589 0
M  V30 4956 H 475.719 3.05004 -3.77091 0
M  V30 4957 H 471.598 3.70949 -2.73712 0
M  V30 4958 H 475.142 3.27141 -6.16137 0
M  V30 4959 H 471.039 3.93266 -5.11872 0
M  V30 4960 H 471.807 3.90328 -7.19435 0
M  V30 4961 N 474.47 1.03057 1.19235 0
M  V30 4962 C 475.718 0.726581 1.88587 0
M  V30 4963 C 476.039 -0.747227 1.80115 0
M  V30 4964 O 475.309 -1.53849 1.21274 0
M  V30 4965 H 473.889 0.265768 0.698124 0
M  V30 4966 H 476.551 1.30516 1.44746 0
M  V30 4967 H 475.647 1.0224 2.94879 0
M  V30 4968 N 475.948 -1.35272 0.808662 0
M  V30 4969 C 476.88 -2.28507 0.178149 0
M  V30 4970 C 477.893 -1.50377 -0.623754 0
M  V30 4971 O 479.082 -1.72583 -0.455774 0
M  V30 4972 C 476.182 -3.30038 -0.769959 0
M  V30 4973 C 475.355 -4.37398 -0.0139749 0
M  V30 4974 C 474.414 -5.18775 -0.880875 0
M  V30 4975 O 473.44 -5.68236 -0.331059 0
M  V30 4976 N 474.642 -5.37087 -2.20267 0
M  V30 4977 H 477.407 -2.83255 0.979106 0
M  V30 4978 H 474.968 -1.47643 0.664308 0
M  V30 4979 H 476.96 -3.81371 -1.35418 0
M  V30 4980 H 475.53 -2.75789 -1.47171 0
M  V30 4981 H 474.75 -3.86971 0.751468 0
M  V30 4982 H 476.038 -5.06268 0.506965 0
M  V30 4983 H 475.436 -4.9855 -2.67328 0
M  V30 4984 H 473.993 -5.91593 -2.73608 0
M  V30 4985 N 477.426 -0.562348 -1.47226 0
M  V30 4986 C 478.359 0.230405 -2.27034 0
M  V30 4987 C 479.337 0.915609 -1.3437 0
M  V30 4988 O 480.521 0.933573 -1.63758 0
M  V30 4989 C 477.648 1.32874 -3.11548 0
M  V30 4990 C 476.694 0.751552 -4.19826 0
M  V30 4991 S 477.527 -0.405848 -5.3396 0
M  V30 4992 C 478.683 0.694186 -6.22038 0
M  V30 4993 H 478.916 -0.446811 -2.93923 0
M  V30 4994 H 476.449 -0.348781 -1.50409 0
M  V30 4995 H 478.407 1.95773 -3.60809 0
M  V30 4996 H 477.068 1.97782 -2.44011 0
M  V30 4997 H 476.261 1.57651 -4.78709 0
M  V30 4998 H 475.863 0.198645 -3.73472 0
M  V30 4999 H 478.155 1.58501 -6.58698 0
M  V30 5000 H 479.098 0.142592 -7.07956 0
M  V30 5001 H 479.506 0.989169 -5.55766 0
M  V30 5002 N 478.904 1.54736 -0.299062 0
M  V30 5003 C 479.814 2.27127 0.587413 0
M  V30 5004 C 480.83 1.30575 1.15005 0
M  V30 5005 O 482.006 1.63554 1.17525 0
M  V30 5006 C 479.071 2.99645 1.74395 0
M  V30 5007 C 478.132 4.11731 1.21559 0
M  V30 5008 C 477.365 4.80781 2.317 0
M  V30 5009 O 477.588 4.4918 3.51558 0
M  V30 5010 O 476.522 5.68226 1.98501 0
M  V30 5011 H 480.348 3.037 0.000250109 0
M  V30 5012 H 477.933 1.49256 -0.0655919 0
M  V30 5013 H 479.815 3.45138 2.4178 0
M  V30 5014 H 478.49 2.25969 2.31775 0
M  V30 5015 H 477.397 3.70641 0.507514 0
M  V30 5016 H 478.73 4.87379 0.687233 0
M  V30 5017 N 480.382 0.0267497 1.57577 0
M  V30 5018 C 481.798 -0.32962 1.56159 0
M  V30 5019 C 481.998 -1.73059 1.03213 0
M  V30 5020 O 481.054 -2.43233 0.677804 0
M  V30 5021 C 482.367 -0.18039 3.00158 0
M  V30 5022 C 483.915 -0.253334 3.11973 0
M  V30 5023 C 484.39 -0.132921 4.57807 0
M  V30 5024 N 485.881 -0.189979 4.6281 0
M  V30 5025 C 486.616 -0.120554 5.73273 0
M  V30 5026 N 486.112 -0.000180315 6.928 0
M  V30 5027 N 487.905 -0.174369 5.61829 0
M  V30 5028 H 480.056 0.942896 1.90324 0
M  V30 5029 H 482.319 0.3639 0.875375 0
M  V30 5030 H 482.025 0.784576 3.42837 0
M  V30 5031 H 481.899 -0.951565 3.65 0
M  V30 5032 H 484.286 -1.20876 2.69208 0
M  V30 5033 H 484.367 0.548177 2.49857 0
M  V30 5034 H 484.011 0.819073 5.01252 0
M  V30 5035 H 483.941 -0.953264 5.179 0
M  V30 5036 H 486.432 -0.283257 3.76837 0
M  V30 5037 H 486.745 0.0461666 7.72786 0
M  V30 5038 H 485.09 0.034569 6.94991 0
M  V30 5039 H 488.281 -0.266794 4.67339 0
M  V30 5040 H 488.454 -0.116802 6.47895 0
M  V30 5041 N 481.861 -1.55662 -0.24637 0
M  V30 5042 C 483.272 -1.67953 -0.81539 0
M  V30 5043 C 483.623 -0.624302 -1.86002 0
M  V30 5044 O 482.748 0.229328 -2.15181 0
M  V30 5045 C 483.343 -3.04484 -1.48576 0
M  V30 5046 C 481.902 -3.18713 -2.00248 0
M  V30 5047 C 481.049 -2.6383 -0.853766 0
M  V30 5048 H 484 -1.58685 -0.0221692 0
M  V30 5049 H 484.021 -2.98959 -2.3538 0
M  V30 5050 H 483.533 -3.81264 -0.725222 0
M  V30 5051 H 481.634 -2.46757 -2.79181 0
M  V30 5052 H 481.747 -4.25628 -2.1995 0
M  V30 5053 H 480.111 -2.21667 -1.25442 0
M  V30 5054 H 480.894 -3.43135 -0.106302 0
M  V30 5055 N 483.339 0.512053 -1.4905 0
M  V30 5056 C 484.249 1.64139 -1.67617 0
M  V30 5057 C 485.265 1.64786 -0.558701 0
M  V30 5058 O 486.441 1.8341 -0.832034 0
M  V30 5059 C 483.506 3.00548 -1.72835 0
M  V30 5060 C 482.567 3.10615 -2.96339 0
M  V30 5061 C 481.8 4.40517 -3.01298 0
M  V30 5062 O 482.023 5.28671 -2.14157 0
M  V30 5063 O 480.957 4.55325 -3.93653 0
M  V30 5064 H 484.783 1.51407 -2.63267 0
M  V30 5065 H 482.368 0.687131 -1.32661 0
M  V30 5066 H 484.25 3.81641 -1.78683 0
M  V30 5067 H 482.925 3.13566 -0.803616 0
M  V30 5068 H 481.832 2.2875 -2.96014 0
M  V30 5069 H 483.165 3.0252 -3.88256 0
M  V30 5070 N 484.817 1.37938 0.762283 0
M  V30 5071 C 486.063 1.33866 1.52341 0
M  V30 5072 C 486.396 -0.0738961 1.94059 0
M  V30 5073 O 485.671 -1.03326 1.64785 0
M  V30 5074 C 485.954 2.28644 2.78197 0
M  V30 5075 C 485.807 3.78722 2.42672 0
M  V30 5076 C 487.126 2.21702 3.80179 0
M  V30 5077 H 484.245 0.487593 0.55265 0
M  V30 5078 H 486.887 1.68717 0.873767 0
M  V30 5079 H 485.037 1.99055 3.33631 0
M  V30 5080 H 486.709 4.18948 1.93081 0
M  V30 5081 H 484.952 3.96827 1.75244 0
M  V30 5082 H 485.623 4.40486 3.3268 0
M  V30 5083 H 488.099 2.47805 3.34263 0
M  V30 5084 H 486.975 2.90143 4.65949 0
M  V30 5085 H 487.236 1.21301 4.25133 0
M  V30 5086 N 486.295 -0.989507 1.22664 0
M  V30 5087 C 487.706 -1.54406 1.04955 0
M  V30 5088 C 488.057 -1.92366 -0.385951 0
M  V30 5089 O 487.182 -1.75111 -1.27142 0
M  V30 5090 C 487.777 -2.80578 1.89899 0
M  V30 5091 C 486.336 -3.32464 1.76478 0
M  V30 5092 C 485.483 -2.05524 1.86159 0
M  V30 5093 H 488.434 -0.810211 1.3646 0
M  V30 5094 H 488.455 -3.53075 1.4184 0
M  V30 5095 H 487.967 -2.52918 2.94371 0
M  V30 5096 H 486.068 -3.65024 0.747528 0
M  V30 5097 H 486.181 -4.02838 2.59342 0
M  V30 5098 H 484.545 -2.19241 1.29636 0
M  V30 5099 H 485.328 -1.80258 2.92168 0
M  V30 5100 N 487.773 -1.03688 -1.18687 0
M  V30 5101 C 488.706 -0.569112 -2.2099 0
M  V30 5102 C 489.684 0.394315 -1.57746 0
M  V30 5103 O 490.868 0.309519 -1.85941 0
M  V30 5104 C 487.995 0.169104 -3.38278 0
M  V30 5105 C 487.041 -0.746989 -4.19908 0
M  V30 5106 S 487.874 -2.22773 -4.86963 0
M  V30 5107 C 489.03 -1.50025 -6.07654 0
M  V30 5108 H 489.263 -1.43589 -2.60326 0
M  V30 5109 H 486.796 -0.847507 -1.29061 0
M  V30 5110 H 488.754 0.588868 -4.06254 0
M  V30 5111 H 487.415 1.01172 -2.9736 0
M  V30 5112 H 486.608 -0.176626 -5.0369 0
M  V30 5113 H 486.21 -1.10543 -3.5729 0
M  V30 5114 H 488.502 -0.791217 -6.72864 0
M  V30 5115 H 489.445 -2.31498 -6.69189 0
M  V30 5116 H 489.853 -0.994245 -5.55675 0
M  V30 5117 N 489.251 1.34841 -0.815825 0
M  V30 5118 C 490.201 2.27075 -0.205169 0
M  V30 5119 C 491.185 1.48205 0.626414 0
M  V30 5120 O 492.377 1.70306 0.482157 0
M  V30 5121 C 489.506 3.37322 0.637871 0
M  V30 5122 C 488.592 4.23609 -0.203948 0
M  V30 5123 N 488.983 4.89558 -1.27149 0
M  V30 5124 C 487.281 4.45998 0.0128971 0
M  V30 5125 C 487.982 5.53597 -1.7862 0
M  V30 5126 N 486.958 5.32535 -1.0912 0
M  V30 5127 H 490.76 2.75563 -1.02187 0
M  V30 5128 H 488.274 1.48477 -0.657912 0
M  V30 5129 H 490.271 4.02359 1.09146 0
M  V30 5130 H 488.931 2.90385 1.45281 0
M  V30 5131 H 489.942 4.9077 -1.65423 0
M  V30 5132 H 486.619 4.09837 0.79624 0
M  V30 5133 H 488.009 6.16184 -2.67892 0
M  V30 5134 N 490.729 0.570148 1.46925 0
M  V30 5135 C 491.957 0.0561966 2.06824 0
M  V30 5136 C 492.372 -1.24326 1.42086 0
M  V30 5137 O 491.729 -1.74882 0.521794 0
M  V30 5138 C 491.78 -0.129517 3.61268 0
M  V30 5139 O 491.501 1.1185 4.23581 0
M  V30 5140 C 493.002 -0.679266 4.38065 0
M  V30 5141 H 490.222 0.0517261 0.669003 0
M  V30 5142 H 492.766 0.787243 1.8874 0
M  V30 5143 H 490.921 -0.810739 3.78822 0
M  V30 5144 H 491.335 0.924375 5.1629 0
M  V30 5145 H 492.809 -0.758445 5.46765 0
M  V30 5146 H 493.286 -1.69346 4.05239 0
M  V30 5147 H 493.892 -0.0333237 4.25287 0
M  V30 5148 N 492.207 -1.54576 0.307264 0
M  V30 5149 C 493.137 -2.26708 -0.55907 0
M  V30 5150 C 494.118 -1.26893 -1.1328 0
M  V30 5151 O 495.303 -1.55677 -1.16097 0
M  V30 5152 C 492.433 -3.01259 -1.72801 0
M  V30 5153 C 491.387 -4.08275 -1.28435 0
M  V30 5154 C 490.713 -4.70575 -2.53895 0
M  V30 5155 C 492.013 -5.2068 -0.411038 0
M  V30 5156 H 493.707 -2.9937 0.042576 0
M  V30 5157 H 491.253 -1.43983 0.0219173 0
M  V30 5158 H 493.206 -3.50444 -2.34023 0
M  V30 5159 H 491.93 -2.26187 -2.356 0
M  V30 5160 H 490.589 -3.59949 -0.695161 0
M  V30 5161 H 490.237 -3.92136 -3.15021 0
M  V30 5162 H 489.937 -5.42854 -2.24908 0
M  V30 5163 H 491.461 -5.22527 -3.15908 0
M  V30 5164 H 492.875 -5.65721 -0.929097 0
M  V30 5165 H 491.272 -5.99716 -0.214664 0
M  V30 5166 H 492.342 -4.81629 0.562287 0
M  V30 5167 N 493.685 -0.035106 -1.57561 0
M  V30 5168 C 494.635 0.954034 -2.0708 0
M  V30 5169 C 495.619 1.2818 -0.972558 0
M  V30 5170 O 496.811 1.26691 -1.23606 0
M  V30 5171 C 493.94 2.23442 -2.60631 0
M  V30 5172 C 493.026 1.93475 -3.77396 0
M  V30 5173 N 493.417 1.33802 -4.87781 0
M  V30 5174 C 491.715 2.23434 -3.85996 0
M  V30 5175 C 492.416 1.21103 -5.68954 0
M  V30 5176 N 491.392 1.70855 -5.16052 0
M  V30 5177 H 495.194 0.487731 -2.89825 0
M  V30 5178 H 492.708 0.169759 -1.6151 0
M  V30 5179 H 494.705 2.95183 -2.94402 0
M  V30 5180 H 493.365 2.70693 -1.79319 0
M  V30 5181 H 494.376 1.01227 -5.07911 0
M  V30 5182 H 491.053 2.73317 -3.15601 0
M  V30 5183 H 492.443 0.749105 -6.67711 0
M  V30 5184 N 495.163 1.55791 0.238111 0
M  V30 5185 C 496.574 1.68383 0.806472 0
M  V30 5186 C 496.925 0.634157 1.85669 0
M  V30 5187 O 496.05 -0.217913 2.153 0
M  V30 5188 C 496.645 3.05268 1.46959 0
M  V30 5189 C 495.204 3.1977 1.98555 0
M  V30 5190 C 494.351 2.64279 0.839763 0
M  V30 5191 H 497.302 1.58694 0.0137535 0
M  V30 5192 H 497.323 3.00203 2.33792 0
M  V30 5193 H 496.835 3.81643 0.704993 0
M  V30 5194 H 494.936 2.48234 2.77868 0
M  V30 5195 H 495.049 4.26788 2.17689 0
M  V30 5196 H 493.413 2.22329 1.24265 0
M  V30 5197 H 494.196 3.43187 0.0881032 0
M  V30 5198 N 496.642 -0.504142 1.49319 0
M  V30 5199 C 497.889 -1.25846 1.58647 0
M  V30 5200 C 498.217 -1.92592 0.27177 0
M  V30 5201 O 497.472 -1.81167 -0.74007 0
M  V30 5202 C 497.771 -2.35021 2.69258 0
M  V30 5203 C 497.437 -1.85755 4.1086 0
M  V30 5204 C 496.099 -1.72038 4.49395 0
M  V30 5205 C 498.451 -1.48844 4.99495 0
M  V30 5206 C 495.779 -1.19783 5.74342 0
M  V30 5207 C 498.131 -0.980422 6.24956 0
M  V30 5208 C 496.795 -0.829622 6.62324 0
M  V30 5209 H 496.065 -0.460505 0.580531 0
M  V30 5210 H 498.712 -0.559716 1.83138 0
M  V30 5211 H 497.017 -3.10672 2.38726 0
M  V30 5212 H 498.714 -2.93083 2.73685 0
M  V30 5213 H 495.304 -1.9739 3.80441 0
M  V30 5214 H 499.488 -1.5829 4.70381 0
M  V30 5215 H 494.744 -1.06817 6.01997 0
M  V30 5216 H 498.918 -0.685608 6.93017 0
M  V30 5217 H 496.545 -0.42253 7.59025 0
M  V30 5218 N 498.12 -1.38341 -0.754957 0
M  V30 5219 C 499.053 -1.29837 -1.87663 0
M  V30 5220 C 500.031 -0.175659 -1.61648 0
M  V30 5221 O 501.215 -0.352745 -1.8517 0
M  V30 5222 C 498.342 -1.01141 -3.23246 0
M  V30 5223 C 497.388 -2.15331 -3.6815 0
M  V30 5224 S 498.221 -3.77459 -3.79849 0
M  V30 5225 C 499.377 -3.50948 -5.18253 0
M  V30 5226 H 499.61 -2.24771 -1.9459 0
M  V30 5227 H 497.143 -1.24161 -0.917796 0
M  V30 5228 H 499.101 -0.852687 -4.01546 0
M  V30 5229 H 497.762 -0.0792784 -3.14 0
M  V30 5230 H 496.955 -1.90795 -4.6649 0
M  V30 5231 H 496.557 -2.27304 -2.97 0
M  V30 5232 H 498.849 -3.06977 -6.03963 0
M  V30 5233 H 499.792 -4.48677 -5.47809 0
M  V30 5234 H 500.2 -2.85492 -4.86985 0
M  V30 5235 N 499.598 0.982988 -1.23187 0
M  V30 5236 C 500.844 1.72648 -1.06398 0
M  V30 5237 C 501.177 1.90066 0.398561 0
M  V30 5238 O 500.452 1.45105 1.29518 0
M  V30 5239 C 500.735 3.12627 -1.78707 0
M  V30 5240 C 500.588 3.02795 -3.32618 0
M  V30 5241 C 501.907 4.11997 -1.54747 0
M  V30 5242 H 499.026 0.626649 -0.387918 0
M  V30 5243 H 501.668 1.14455 -1.51658 0
M  V30 5244 H 499.818 3.62308 -1.40234 0
M  V30 5245 H 501.49 2.60659 -3.80598 0
M  V30 5246 H 499.733 2.39362 -3.61785 0
M  V30 5247 H 500.404 4.01893 -3.78399 0
M  V30 5248 H 502.88 3.71114 -1.88186 0
M  V30 5249 H 501.756 5.08037 -2.07821 0
M  V30 5250 H 502.017 4.39462 -0.482249 0
M  V30 5251 N 501.076 1.04316 1.18135 0
M  V30 5252 C 502.024 0.630175 2.23901 0
M  V30 5253 C 503.018 -0.344254 1.65865 0
M  V30 5254 O 504.224 -0.211273 1.78756 0
M  V30 5255 H 500.599 0.185578 0.728742 0
M  V30 5256 H 502.57 1.53253 2.56039 0
M  V30 5257 C 501.319 0.011666 3.47698 0
M  V30 5258 H 500.642 0.752526 3.92654 0
M  V30 5259 H 502.082 -0.240046 4.2332 0
M  V30 5260 C 500.541 -1.23913 3.13285 0
M  V30 5261 O 501.071 -2.32959 3.27251 0
M  V30 5262 N 499.277 -1.13338 2.67587 0
M  V30 5263 H 498.824 -0.246006 2.56423 0
M  V30 5264 H 498.782 -1.97116 2.44934 0
M  V30 5265 N 502.554 -1.34406 0.822964 0
M  V30 5266 C 503.8 -1.98578 0.411666 0
M  V30 5267 C 504.133 -1.65093 -1.02264 0
M  V30 5268 O 503.408 -0.92258 -1.71227 0
M  V30 5269 C 503.691 -3.54823 0.614235 0
M  V30 5270 C 503.544 -3.9805 2.09466 0
M  V30 5271 C 504.863 -4.40071 0.050221 0
M  V30 5272 H 501.982 -0.721355 0.151047 0
M  V30 5273 H 504.624 -1.59301 1.03554 0
M  V30 5274 H 502.774 -3.88411 0.0831774 0
M  V30 5275 H 504.446 -3.74795 2.68936 0
M  V30 5276 H 502.689 -3.4836 2.5851 0
M  V30 5277 H 503.36 -5.06819 2.18721 0
M  V30 5278 H 505.836 -4.13037 0.503953 0
M  V30 5279 H 504.712 -5.48452 0.221759 0
M  V30 5280 H 504.973 -4.29576 -1.04482 0
M  V30 5281 N 504.032 -0.577932 -1.46621 0
M  V30 5282 C 505.26 -0.0671642 -2.06791 0
M  V30 5283 C 505.675 1.23571 -1.42743 0
M  V30 5284 O 505.032 1.74602 -0.531062 0
M  V30 5285 C 505.083 0.110357 -3.61332 0
M  V30 5286 O 504.804 -1.14095 -4.22982 0
M  V30 5287 C 506.305 0.656025 -4.38419 0
M  V30 5288 H 503.525 -0.0552732 -0.66872 0
M  V30 5289 H 506.069 -0.797242 -1.8832 0
M  V30 5290 H 504.224 0.790637 -3.79246 0
M  V30 5291 H 504.638 -0.951742 -5.15793 0
M  V30 5292 H 506.112 0.729438 -5.47159 0
M  V30 5293 H 506.589 1.67195 -4.06131 0
M  V30 5294 H 507.195 0.0107692 -4.25299 0
M  V30 5295 N 505.51 1.54411 -0.315457 0
M  V30 5296 C 506.756 2.01425 0.282775 0
M  V30 5297 C 507.111 1.19978 1.5041 0
M  V30 5298 O 506.404 0.271766 1.89663 0
M  V30 5299 C 506.598 3.50936 0.676652 0
M  V30 5300 C 506.427 4.46856 -0.504954 0
M  V30 5301 C 505.197 4.95275 -1.00152 0
M  V30 5302 C 507.395 4.96141 -1.35456 0
M  V30 5303 N 505.377 5.75081 -2.14838 0
M  V30 5304 C 506.748 5.73791 -2.3487 0
M  V30 5305 C 508.803 4.78299 -1.38327 0
M  V30 5306 C 507.506 6.35498 -3.36949 0
M  V30 5307 C 509.532 5.40836 -2.39271 0
M  V30 5308 C 508.894 6.1833 -3.37413 0
M  V30 5309 H 504.993 0.779078 0.0675398 0
M  V30 5310 H 507.577 1.8946 -0.448656 0
M  V30 5311 H 505.748 3.63162 1.37723 0
M  V30 5312 H 507.48 3.84728 1.25566 0
M  V30 5313 H 504.235 4.70107 -0.574123 0
M  V30 5314 H 504.659 6.19664 -2.72665 0
M  V30 5315 H 509.301 4.17956 -0.638196 0
M  V30 5316 H 507.019 6.94967 -4.12367 0
M  V30 5317 H 510.605 5.28952 -2.42284 0
M  V30 5318 H 509.485 6.65861 -4.14244 0
M  V30 5319 N 506.988 0.0434614 1.5754 0
M  V30 5320 C 508.265 -0.671479 1.83713 0
M  V30 5321 C 508.645 -1.89495 0.930315 0
M  V30 5322 O 507.993 -2.28498 -0.0105639 0
M  V30 5323 C 508.203 -1.0361 3.33266 0
M  V30 5324 C 509.551 -1.42167 4.00092 0
M  V30 5325 O 510.575 -1.12866 3.37846 0
M  V30 5326 O 509.434 -1.96817 5.09829 0
M  V30 5327 H 506.528 -0.330726 0.75799 0
M  V30 5328 H 509.074 0.0722373 1.69546 0
M  V30 5329 H 507.846 -0.165938 3.90948 0
M  V30 5330 H 507.469 -1.83751 3.52592 0
M  V30 5331 N 508.466 -1.55915 -0.229846 0
M  V30 5332 C 509.714 -1.7819 -0.953565 0
M  V30 5333 C 510.035 -0.610504 -1.85197 0
M  V30 5334 O 509.305 0.372988 -1.92316 0
M  V30 5335 H 507.885 -0.657208 -0.355087 0
M  V30 5336 H 510.547 -1.9337 -0.243693 0
M  V30 5337 H 509.643 -2.70011 -1.56527 0
M  V30 5338 N 509.944 0.496216 -1.49584 0
M  V30 5339 C 510.891 1.59722 -1.66606 0
M  V30 5340 C 511.861 1.58158 -0.507477 0
M  V30 5341 O 513.046 1.76072 -0.735076 0
M  V30 5342 C 510.186 2.97844 -1.74308 0
M  V30 5343 C 509.299 3.09388 -3.01502 0
M  V30 5344 C 508.434 4.38271 -3.00153 0
M  V30 5345 C 507.473 4.43466 -4.21906 0
M  V30 5346 N 506.61 5.63784 -4.1844 0
M  V30 5347 H 511.45 1.44515 -2.60613 0
M  V30 5348 H 508.987 0.703048 -1.29212 0
M  V30 5349 H 510.945 3.77907 -1.76754 0
M  V30 5350 H 509.575 3.11743 -0.837619 0
M  V30 5351 H 508.627 2.22357 -3.08645 0
M  V30 5352 H 509.939 3.09085 -3.91494 0
M  V30 5353 H 509.093 5.2666 -3.01188 0
M  V30 5354 H 507.832 4.41146 -2.07947 0
M  V30 5355 H 506.837 3.53478 -4.21109 0
M  V30 5356 H 508.062 4.42303 -5.1531 0
M  V30 5357 H 506.008 5.67491 -3.29074 0
M  V30 5358 H 505.925 5.65118 -5.02173 0
M  V30 5359 H 507.193 6.54367 -4.23585 0
M  V30 5360 N 511.423 1.38739 0.74761 0
M  V30 5361 C 512.7 1.25791 1.49786 0
M  V30 5362 C 513.08 -0.138075 2.10648 0
M  V30 5363 O 512.428 -1.14815 1.9756 0
M  V30 5364 C 512.638 2.37265 2.55942 0
M  V30 5365 C 513.986 2.75978 3.22679 0
M  V30 5366 O 515.01 2.36621 2.6625 0
M  V30 5367 O 513.869 3.43867 4.24756 0
M  V30 5368 H 510.963 0.492251 0.664543 0
M  V30 5369 H 513.509 1.50582 0.782511 0
M  V30 5370 H 512.281 3.30644 2.0926 0
M  V30 5371 H 511.904 2.14071 3.35051 0
M  V30 5372 N 512.901 -0.976442 1.23707 0
M  V30 5373 C 513.831 -2.08749 1.04624 0
M  V30 5374 C 514.812 -1.70057 -0.0380956 0
M  V30 5375 O 515.997 -1.93782 0.127308 0
M  V30 5376 C 513.127 -3.41335 0.640902 0
M  V30 5377 C 512.081 -3.93947 1.67302 0
M  V30 5378 C 511.407 -5.22774 1.12301 0
M  V30 5379 C 512.707 -4.22769 3.06697 0
M  V30 5380 H 514.401 -2.24972 1.97555 0
M  V30 5381 H 511.947 -1.08108 0.951247 0
M  V30 5382 H 513.9 -4.18489 0.494434 0
M  V30 5383 H 512.624 -3.24988 -0.324099 0
M  V30 5384 H 511.283 -3.18941 1.80755 0
M  V30 5385 H 510.931 -5.0278 0.148877 0
M  V30 5386 H 510.631 -5.58942 1.81267 0
M  V30 5387 H 512.155 -6.02546 0.988479 0
M  V30 5388 H 513.569 -4.90659 2.96524 0
M  V30 5389 H 511.966 -4.70147 3.72937 0
M  V30 5390 H 513.036 -3.29885 3.55392 0
M  V30 5391 N 514.379 -1.04941 -1.1758 0
M  V30 5392 C 515.604 -0.778253 -1.92245 0
M  V30 5393 C 516.029 0.659707 -1.76152 0
M  V30 5394 O 515.387 1.45803 -1.07755 0
M  V30 5395 C 515.435 -1.16051 -3.41416 0
M  V30 5396 O 514.539 -0.291153 -4.11371 0
M  V30 5397 H 513.88 -0.285619 -0.599431 0
M  V30 5398 H 516.41 -1.40159 -1.49052 0
M  V30 5399 H 516.42 -1.12619 -3.92149 0
M  V30 5400 H 515.095 -2.208 -3.52449 0
M  V30 5401 H 513.672 -0.385851 -3.70898 0
M  V30 5402 N 515.857 1.33968 -0.830081 0
M  V30 5403 C 517.104 1.98063 -0.421566 0
M  V30 5404 C 517.432 1.65787 1.0171 0
M  V30 5405 O 516.687 0.925348 1.72441 0
M  V30 5406 C 516.986 3.52679 -0.57898 0
M  V30 5407 C 516.652 4.04884 -1.98443 0
M  V30 5408 C 515.314 4.18852 -2.36888 0
M  V30 5409 C 517.666 4.32879 -2.90285 0
M  V30 5410 C 514.994 4.58145 -3.66497 0
M  V30 5411 C 517.346 4.7362 -4.19364 0
M  V30 5412 C 516.01 4.85794 -4.57778 0
M  V30 5413 H 515.28 0.724765 -0.154262 0
M  V30 5414 H 517.927 1.59792 -1.05541 0
M  V30 5415 H 516.232 3.91556 0.138219 0
M  V30 5416 H 517.929 4.00261 -0.243317 0
M  V30 5417 H 514.519 3.9448 -1.67581 0
M  V30 5418 H 518.703 4.21619 -2.61823 0
M  V30 5419 H 513.959 4.65762 -3.96075 0
M  V30 5420 H 518.133 4.9424 -4.90612 0
M  V30 5421 H 515.76 5.15998 -5.58256 0
M  V30 5422 N 517.335 0.585699 1.46312 0
M  V30 5423 C 518.563 0.0781299 2.06752 0
M  V30 5424 C 518.978 -1.22812 1.43396 0
M  V30 5425 O 518.335 -1.74318 0.540314 0
M  V30 5426 C 518.386 -0.0911927 3.61385 0
M  V30 5427 O 518.107 1.16336 4.22371 0
M  V30 5428 C 519.608 -0.632765 4.38761 0
M  V30 5429 H 516.828 0.0588188 0.668417 0
M  V30 5430 H 519.372 0.807218 1.87894 0
M  V30 5431 H 517.527 -0.770514 3.7966 0
M  V30 5432 H 517.941 0.979082 5.15281 0
M  V30 5433 H 519.415 -0.70041 5.47538 0
M  V30 5434 H 519.892 -1.65039 4.07012 0
M  V30 5435 H 520.498 0.0117856 4.25298 0
M  V30 5436 N 518.813 -1.54241 0.323641 0
M  V30 5437 C 519.723 -2.28033 -0.551205 0
M  V30 5438 C 520.739 -1.32388 -1.12913 0
M  V30 5439 O 521.915 -1.65403 -1.14908 0
M  V30 5440 C 518.98 -3.02382 -1.69606 0
M  V30 5441 C 518.041 -4.13612 -1.14993 0
M  V30 5442 C 517.274 -4.84407 -2.24022 0
M  V30 5443 O 517.497 -4.54716 -3.44368 0
M  V30 5444 O 516.431 -5.71312 -1.89436 0
M  V30 5445 H 520.257 -3.03662 0.048066 0
M  V30 5446 H 517.842 -1.49133 0.0893289 0
M  V30 5447 H 519.724 -3.48941 -2.36259 0
M  V30 5448 H 518.399 -2.29628 -2.28151 0
M  V30 5449 H 517.306 -3.71402 -0.448484 0
M  V30 5450 H 518.639 -4.8841 -0.609608 0
M  V30 5451 N 520.291 -0.0518155 -1.57515 0
M  V30 5452 C 521.201 0.937539 -2.15052 0
M  V30 5453 C 522.217 1.34121 -1.10849 0
M  V30 5454 O 523.393 1.418 -1.4302 0
M  V30 5455 C 520.458 2.19379 -2.68466 0
M  V30 5456 C 519.519 1.84841 -3.87469 0
M  V30 5457 C 518.752 3.04477 -4.38326 0
M  V30 5458 O 518.975 4.17868 -3.88256 0
M  V30 5459 O 517.909 2.85453 -5.29906 0
M  V30 5460 H 521.735 0.478201 -2.99912 0
M  V30 5461 H 519.32 0.17012 -1.48428 0
M  V30 5462 H 521.202 2.93084 -3.02787 0
M  V30 5463 H 519.877 2.64449 -1.86677 0
M  V30 5464 H 518.784 1.08449 -3.58036 0
M  V30 5465 H 520.117 1.44569 -4.7049 0
M  V30 5466 N 521.769 1.56035 0.221574 0
M  V30 5467 C 523.017 1.78693 0.944102 0
M  V30 5468 C 523.338 0.620317 1.8487 0
M  V30 5469 O 522.608 -0.362784 1.92512 0
M  V30 5470 H 521.188 0.659082 0.351597 0
M  V30 5471 H 523.85 1.93497 0.233435 0
M  V30 5472 H 522.946 2.70837 1.55093 0
M  V30 5473 N 523.247 -0.488276 1.49845 0
M  V30 5474 C 524.477 -1.26344 1.63465 0
M  V30 5475 C 524.885 -1.86637 0.310379 0
M  V30 5476 O 524.228 -1.69184 -0.715712 0
M  V30 5477 C 524.29 -2.42407 2.65479 0
M  V30 5478 C 523.954 -2.02886 4.09495 0
M  V30 5479 C 524.951 -1.56124 4.95904 0
M  V30 5480 C 522.636 -2.12131 4.55308 0
M  V30 5481 C 524.63 -1.19129 6.26169 0
M  V30 5482 C 522.317 -1.74747 5.85582 0
M  V30 5483 C 523.315 -1.28322 6.70837 0
M  V30 5484 O 523.003 -0.914491 7.98682 0
M  V30 5485 H 522.735 -0.388921 0.552916 0
M  V30 5486 H 525.289 -0.591288 1.96705 0
M  V30 5487 H 523.519 -3.12739 2.27445 0
M  V30 5488 H 525.208 -3.04409 2.68495 0
M  V30 5489 H 525.974 -1.48417 4.61733 0
M  V30 5490 H 521.853 -2.47217 3.89107 0
M  V30 5491 H 525.397 -0.828211 6.92666 0
M  V30 5492 H 521.294 -1.82109 6.19279 0
M  V30 5493 H 522.062 -1.04485 8.11804 0
M  V30 5494 N 524.725 -1.39134 -0.740242 0
M  V30 5495 C 525.657 -1.33332 -1.86428 0
M  V30 5496 C 526.67 -0.243042 -1.60976 0
M  V30 5497 O 527.859 -0.501608 -1.71307 0
M  V30 5498 C 524.959 -1.04626 -3.22346 0
M  V30 5499 C 524.132 -2.24826 -3.75196 0
M  V30 5500 C 523.191 -1.92659 -4.89662 0
M  V30 5501 O 522.217 -2.6529 -5.03597 0
M  V30 5502 N 523.419 -0.889575 -5.73643 0
M  V30 5503 H 526.184 -2.30196 -1.91911 0
M  V30 5504 H 523.745 -1.33168 -0.920756 0
M  V30 5505 H 525.737 -0.811347 -3.96484 0
M  V30 5506 H 524.307 -0.165129 -3.12164 0
M  V30 5507 H 523.527 -2.64301 -2.9247 0
M  V30 5508 H 524.815 -3.05015 -4.07239 0
M  V30 5509 H 524.213 -0.287529 -5.64969 0
M  V30 5510 H 522.77 -0.714557 -6.47871 0
M  V30 5511 N 526.204 0.969867 -1.24223 0
M  V30 5512 C 527.45 1.7151 -1.08223 0
M  V30 5513 C 527.783 1.90478 0.37838 0
M  V30 5514 O 527.058 1.4647 1.27971 0
M  V30 5515 C 527.341 3.10714 -1.82013 0
M  V30 5516 C 527.194 2.9925 -3.35811 0
M  V30 5517 C 528.513 4.10332 -1.59108 0
M  V30 5518 H 525.632 0.622499 -0.394543 0
M  V30 5519 H 528.274 1.1284 -1.52863 0
M  V30 5520 H 526.424 3.608 -1.44068 0
M  V30 5521 H 528.096 2.56608 -3.83341 0
M  V30 5522 H 526.339 2.35512 -3.64303 0
M  V30 5523 H 527.01 3.97857 -3.82641 0
M  V30 5524 H 529.486 3.69097 -1.92111 0
M  V30 5525 H 528.362 5.05804 -2.13198 0
M  V30 5526 H 528.623 4.38926 -0.528832 0
M  V30 5527 N 527.682 1.05563 1.17022 0
M  V30 5528 C 528.632 0.630007 2.19123 0
M  V30 5529 C 529.616 -0.335472 1.57364 0
M  V30 5530 O 530.808 -0.1521 1.76345 0
M  V30 5531 C 527.937 0.0101676 3.43298 0
M  V30 5532 C 527.023 0.999698 4.12149 0
M  V30 5533 N 527.414 2.17251 4.56766 0
M  V30 5534 C 525.712 0.829 4.38228 0
M  V30 5535 C 526.413 2.79883 5.09942 0
M  V30 5536 N 525.389 2.07656 5.02374 0
M  V30 5537 H 529.191 1.52353 2.51328 0
M  V30 5538 H 526.705 0.926288 1.33393 0
M  V30 5539 H 528.702 -0.312541 4.15727 0
M  V30 5540 H 527.362 -0.878707 3.12584 0
M  V30 5541 H 528.373 2.55067 4.50734 0
M  V30 5542 H 525.05 -0.00850974 4.17499 0
M  V30 5543 H 526.44 3.79362 5.54558 0
M  V30 5544 N 529.16 -1.33526 0.837174 0
M  V30 5545 C 530.571 -1.80182 0.489017 0
M  V30 5546 C 530.922 -1.69285 -0.991826 0
M  V30 5547 O 530.047 -1.24113 -1.77271 0
M  V30 5548 C 530.642 -3.27149 0.880866 0
M  V30 5549 C 529.201 -3.71828 0.584872 0
M  V30 5550 C 528.348 -2.54974 1.09011 0
M  V30 5551 H 531.299 -1.21071 1.02603 0
M  V30 5552 H 531.32 -3.80024 0.190239 0
M  V30 5553 H 530.832 -3.35048 1.95869 0
M  V30 5554 H 528.933 -3.69457 -0.48295 0
M  V30 5555 H 529.046 -4.65366 1.13892 0
M  V30 5556 H 527.41 -2.4952 0.511047 0
M  V30 5557 H 528.193 -2.65637 2.17467 0
M  V30 5558 N 530.638 -0.59345 -1.46 0
M  V30 5559 C 532.054 -0.255965 -1.57534 0
M  V30 5560 C 532.254 1.24167 -1.58697 0
M  V30 5561 O 531.31 2.02398 -1.50968 0
M  V30 5562 C 532.623 -0.91466 -2.86451 0
M  V30 5563 C 534.171 -0.889253 -3.00102 0
M  V30 5564 C 534.646 -1.52769 -4.3177 0
M  V30 5565 N 536.137 -1.49253 -4.38495 0
M  V30 5566 C 536.872 -1.9558 -5.39014 0
M  V30 5567 N 536.368 -2.49929 -6.46148 0
M  V30 5568 N 538.161 -1.86432 -5.30282 0
M  V30 5569 H 530.312 -1.56604 -1.43489 0
M  V30 5570 H 532.575 -0.655207 -0.685133 0
M  V30 5571 H 532.281 -1.96861 -2.91442 0
M  V30 5572 H 532.155 -0.429356 -3.74748 0
M  V30 5573 H 534.542 0.156111 -2.94687 0
M  V30 5574 H 534.623 -1.41268 -2.13253 0
M  V30 5575 H 534.267 -2.57231 -4.37944 0
M  V30 5576 H 534.197 -0.979398 -5.17412 0
M  V30 5577 H 536.688 -1.09536 -3.61677 0
M  V30 5578 H 537.001 -2.83109 -7.19075 0
M  V30 5579 H 535.346 -2.53961 -6.46938 0
M  V30 5580 H 538.537 -1.43722 -4.4549 0
M  V30 5581 H 538.71 -2.22852 -6.08474 0
M  V30 5582 N 532.116 1.54067 -0.331816 0
M  V30 5583 C 533.046 2.27569 0.522932 0
M  V30 5584 C 534.027 1.28679 1.11247 0
M  V30 5585 O 535.212 1.57504 1.13605 0
M  V30 5586 C 532.342 3.0397 1.67987 0
M  V30 5587 C 531.296 4.10267 1.21924 0
M  V30 5588 C 530.622 4.74555 2.46377 0
M  V30 5589 C 531.922 5.21268 0.32815 0
M  V30 5590 H 533.616 2.99264 -0.0901977 0
M  V30 5591 H 531.162 1.4393 -0.044821 0
M  V30 5592 H 533.115 3.54123 2.28418 0
M  V30 5593 H 531.839 2.29906 2.31971 0
M  V30 5594 H 530.498 3.61009 0.637809 0
M  V30 5595 H 530.146 3.97098 3.08743 0
M  V30 5596 H 529.846 5.46363 2.16243 0
M  V30 5597 H 531.37 5.27487 3.07555 0
M  V30 5598 H 532.784 5.67128 0.838978 0
M  V30 5599 H 531.181 5.99982 0.119228 0
M  V30 5600 H 532.251 4.80673 -0.638839 0
M  V30 5601 N 533.594 0.0601682 1.57485 0
M  V30 5602 C 534.84 -0.612501 1.93329 0
M  V30 5603 C 535.173 -1.6996 0.939526 0
M  V30 5604 O 534.448 -1.94472 -0.0330957 0
M  V30 5605 C 534.731 -1.20025 3.39508 0
M  V30 5606 C 534.584 -0.12059 4.49638 0
M  V30 5607 C 535.903 -2.10923 3.86264 0
M  V30 5608 H 533.022 -0.221185 0.703027 0
M  V30 5609 H 535.664 0.123768 1.89596 0
M  V30 5610 H 533.814 -1.82774 3.42821 0
M  V30 5611 H 535.486 0.51185 4.58452 0
M  V30 5612 H 533.729 0.550251 4.30296 0
M  V30 5613 H 534.4 -0.572019 5.49028 0
M  V30 5614 H 536.876 -1.58124 3.84884 0
M  V30 5615 H 535.752 -2.48987 4.8918 0
M  V30 5616 H 536.013 -3.01292 3.23536 0
M  V30 5617 N 535.072 -1.5615 -0.213296 0
M  V30 5618 C 536.318 -1.79812 -0.937849 0
M  V30 5619 C 536.651 -0.631201 -1.83656 0
M  V30 5620 O 535.926 0.369165 -1.90964 0
M  V30 5621 C 536.209 -3.13613 -1.76972 0
M  V30 5622 C 536.062 -4.40766 -0.89695 0
M  V30 5623 C 537.381 -3.43931 -2.7459 0
M  V30 5624 H 534.5 -0.654138 -0.339518 0
M  V30 5625 H 537.142 -1.88877 -0.20623 0
M  V30 5626 H 535.292 -3.06015 -2.39347 0
M  V30 5627 H 536.964 -4.60392 -0.289306 0
M  V30 5628 H 535.207 -4.33326 -0.202756 0
M  V30 5629 H 535.878 -5.30843 -1.51358 0
M  V30 5630 H 538.354 -3.5171 -2.22349 0
M  V30 5631 H 537.23 -4.38706 -3.29891 0
M  V30 5632 H 537.491 -2.6651 -3.52739 0
M  V30 5633 N 536.55 0.480323 -1.50102 0
M  V30 5634 C 537.799 1.22979 -1.59872 0
M  V30 5635 C 538.112 1.93282 -0.30022 0
M  V30 5636 O 539.318 2.70086 -0.276709 0
M  V30 5637 C 537.774 2.23408 -2.82164 0
M  V30 5638 C 537.382 1.5895 -4.18854 0
M  V30 5639 C 539.126 2.99055 -3.01275 0
M  V30 5640 C 537.033 2.57611 -5.32344 0
M  V30 5641 H 535.963 0.462707 -0.59533 0
M  V30 5642 H 538.614 0.501291 -1.7652 0
M  V30 5643 H 536.996 2.99511 -2.59055 0
M  V30 5644 H 538.17 0.887 -4.52182 0
M  V30 5645 H 536.485 0.956191 -4.05273 0
M  V30 5646 H 539.082 3.72876 -3.83233 0
M  V30 5647 H 539.425 3.57897 -2.12639 0
M  V30 5648 H 539.958 2.30066 -3.24522 0
M  V30 5649 H 536.697 2.03521 -6.23105 0
M  V30 5650 H 536.217 3.26041 -5.03445 0
M  V30 5651 H 537.896 3.19627 -5.62537 0
M  V30 5652 N 538.028 1.39524 0.732853 0
M  V30 5653 C 539.274 1.37068 1.49467 0
M  V30 5654 C 539.607 -0.0327166 1.94172 0
M  V30 5655 O 538.882 -0.998071 1.66939 0
M  V30 5656 C 539.165 2.34494 2.73285 0
M  V30 5657 C 539.018 3.83784 2.34585 0
M  V30 5658 C 540.337 2.29717 3.75391 0
M  V30 5659 H 537.456 0.499206 0.542183 0
M  V30 5660 H 540.098 1.70532 0.837783 0
M  V30 5661 H 538.248 2.06087 3.29333 0
M  V30 5662 H 539.92 4.22949 1.84151 0
M  V30 5663 H 538.163 4.00455 1.66787 0
M  V30 5664 H 538.834 4.47444 3.23262 0
M  V30 5665 H 541.31 2.54839 3.28932 0
M  V30 5666 H 540.186 2.99962 4.59689 0
M  V30 5667 H 540.447 1.30291 4.22465 0
M  V30 5668 N 539.506 -0.963266 1.24736 0
M  V30 5669 C 540.436 -2.07628 1.06832 0
M  V30 5670 C 541.417 -1.70088 -0.0200566 0
M  V30 5671 O 542.602 -1.93636 0.147854 0
M  V30 5672 C 539.732 -3.40636 0.677069 0
M  V30 5673 C 538.686 -3.9215 1.71471 0
M  V30 5674 C 538.012 -5.21553 1.1784 0
M  V30 5675 C 539.312 -4.19493 3.11164 0
M  V30 5676 H 541.006 -2.22864 1.9993 0
M  V30 5677 H 538.552 -1.07093 0.96266 0
M  V30 5678 H 540.505 -4.17941 0.538792 0
M  V30 5679 H 539.229 -3.25313 -0.289612 0
M  V30 5680 H 537.888 -3.17005 1.84128 0
M  V30 5681 H 537.536 -5.02593 0.202195 0
M  V30 5682 H 537.236 -5.56988 1.87185 0
M  V30 5683 H 538.76 -6.01463 1.05233 0
M  V30 5684 H 540.174 -4.87487 3.01711 0
M  V30 5685 H 538.571 -4.66165 3.77902 0
M  V30 5686 H 539.641 -3.26097 3.58871 0
M  V30 5687 N 540.985 -1.06182 -1.16461 0
M  V30 5688 C 541.933 -0.665716 -2.2287 0
M  V30 5689 C 542.927 0.317822 -1.66392 0
M  V30 5690 O 544.133 0.182807 -1.79069 0
M  V30 5691 H 540.508 -0.197148 -0.725697 0
M  V30 5692 H 542.479 -1.57307 -2.53569 0
M  V30 5693 C 541.228 -0.0669803 -3.47635 0
M  V30 5694 H 540.551 -0.814899 -3.91407 0
M  V30 5695 H 541.991 0.172669 -4.23648 0
M  V30 5696 C 540.45 1.18913 -3.15216 0
M  V30 5697 O 540.98 2.27723 -3.30916 0
M  V30 5698 N 539.186 1.09066 -2.69357 0
M  V30 5699 H 538.733 0.20518 -2.56782 0
M  V30 5700 H 538.691 1.93195 -2.48039 0
M  V30 5701 N 542.463 1.3308 -0.844243 0
M  V30 5702 C 543.41 2.29104 -0.279323 0
M  V30 5703 C 544.38 1.54577 0.607882 0
M  V30 5704 O 545.565 1.8285 0.545009 0
M  V30 5705 C 542.705 3.40927 0.53508 0
M  V30 5706 C 541.818 4.30354 -0.376749 0
M  V30 5707 C 540.953 5.29297 0.449276 0
M  V30 5708 C 539.992 6.10365 -0.460606 0
M  V30 5709 N 539.129 7.01335 0.327612 0
M  V30 5710 H 543.969 2.76817 -1.10346 0
M  V30 5711 H 541.506 1.36203 -0.555611 0
M  V30 5712 H 543.464 4.04469 1.02278 0
M  V30 5713 H 542.094 2.94391 1.32414 0
M  V30 5714 H 541.146 3.67485 -0.982791 0
M  V30 5715 H 542.458 4.87067 -1.07549 0
M  V30 5716 H 541.612 5.98392 1.00058 0
M  V30 5717 H 540.351 4.73174 1.18143 0
M  V30 5718 H 539.356 5.40182 -1.02388 0
M  V30 5719 H 540.581 6.68571 -1.1912 0
M  V30 5720 H 538.527 6.47655 1.04305 0
M  V30 5721 H 538.444 7.55355 -0.3123 0
M  V30 5722 H 539.712 7.74731 0.86098 0
M  V30 5723 N 543.941 0.601185 1.45683 0
M  V30 5724 C 545.218 0.0261659 1.95582 0
M  V30 5725 C 545.598 -1.4399 1.5437 0
M  V30 5726 O 544.946 -2.13919 0.80318 0
M  V30 5727 C 545.156 0.217557 3.48321 0
M  V30 5728 C 546.504 0.0950076 4.24494 0
M  V30 5729 O 547.528 0.147345 3.55895 0
M  V30 5730 O 546.387 -0.025261 5.46494 0
M  V30 5731 H 543.481 -0.0393688 0.826062 0
M  V30 5732 H 546.027 0.670798 1.55879 0
M  V30 5733 H 544.799 1.23601 3.71266 0
M  V30 5734 H 544.422 -0.46264 3.94899 0
M  V30 5735 N 545.419 -1.53889 0.339982 0
M  V30 5736 C 546.835 -1.59595 -0.0120752 0
M  V30 5737 C 547.035 -1.35605 -1.49042 0
M  V30 5738 O 546.091 -1.14856 -2.24865 0
M  V30 5739 C 547.404 -2.9774 0.420898 0
M  V30 5740 C 548.952 -3.1077 0.37294 0
M  V30 5741 C 549.427 -4.51286 0.781327 0
M  V30 5742 N 550.918 -4.57325 0.735374 0
M  V30 5743 C 551.653 -5.64194 1.02336 0
M  V30 5744 N 551.149 -6.7893 1.37933 0
M  V30 5745 N 552.942 -5.54051 0.947838 0
M  V30 5746 H 545.093 -1.67738 1.30299 0
M  V30 5747 H 547.356 -0.785385 0.530918 0
M  V30 5748 H 547.062 -3.20349 1.45152 0
M  V30 5749 H 546.936 -3.76639 -0.205721 0
M  V30 5750 H 549.323 -2.87886 -0.648505 0
M  V30 5751 H 549.404 -2.33939 1.03472 0
M  V30 5752 H 549.048 -4.74905 1.80077 0
M  V30 5753 H 548.978 -5.26511 0.0970679 0
M  V30 5754 H 551.469 -3.74931 0.472773 0
M  V30 5755 H 551.782 -7.56392 1.58402 0
M  V30 5756 H 550.127 -6.80386 1.41774 0
M  V30 5757 H 553.318 -4.63293 0.669115 0
M  V30 5758 H 553.491 -6.37246 1.17563 0
M  V30 5759 N 546.897 -0.0685191 -1.57451 0
M  V30 5760 C 547.807 0.914677 -2.16034 0
M  V30 5761 C 548.823 1.32938 -1.12265 0
M  V30 5762 O 549.999 1.40275 -1.44516 0
M  V30 5763 C 547.064 2.16519 -2.70777 0
M  V30 5764 C 546.125 1.80721 -3.89408 0
M  V30 5765 C 545.358 2.9981 -4.41531 0
M  V30 5766 O 545.581 4.13727 -3.92666 0
M  V30 5767 O 544.515 2.79817 -5.32903 0
M  V30 5768 H 548.341 0.446364 -3.00402 0
M  V30 5769 H 545.926 0.154367 -1.486 0
M  V30 5770 H 547.808 2.89856 -3.05878 0
M  V30 5771 H 546.483 2.62454 -1.89471 0
M  V30 5772 H 545.39 1.04646 -3.59166 0
M  V30 5773 H 546.723 1.39571 -4.71997 0
M  V30 5774 N 548.375 1.56261 0.205012 0
M  V30 5775 C 549.621 1.81211 0.923805 0
M  V30 5776 C 549.976 0.644065 1.813 0
M  V30 5777 O 549.269 -0.361208 1.88164 0
M  V30 5778 C 549.463 3.09722 1.78345 0
M  V30 5779 C 549.292 4.38915 0.978979 0
M  V30 5780 C 548.062 5.00874 0.667332 0
M  V30 5781 C 550.26 5.13199 0.336386 0
M  V30 5782 N 548.242 6.137 -0.156814 0
M  V30 5783 C 549.613 6.19009 -0.350402 0
M  V30 5784 C 551.668 4.97266 0.251101 0
M  V30 5785 C 550.371 7.10616 -1.11434 0
M  V30 5786 C 552.397 5.89288 -0.499413 0
M  V30 5787 C 551.759 6.94536 -1.17468 0
M  V30 5788 H 547.858 0.714528 0.317764 0
M  V30 5789 H 550.442 1.93738 0.193317 0
M  V30 5790 H 548.613 2.98448 2.48563 0
M  V30 5791 H 550.345 3.22798 2.44098 0
M  V30 5792 H 547.1 4.63151 0.989366 0
M  V30 5793 H 547.524 6.74695 -0.558206 0
M  V30 5794 H 552.166 4.15935 0.758823 0
M  V30 5795 H 549.884 7.91417 -1.63353 0
M  V30 5796 H 553.47 5.79034 -0.566627 0
M  V30 5797 H 552.35 7.64513 -1.74613 0
M  V30 5798 N 549.853 -0.472356 1.50355 0
M  V30 5799 C 550.763 -1.59637 1.7191 0
M  V30 5800 C 551.779 -1.63247 0.602195 0
M  V30 5801 O 552.955 -1.81139 0.880369 0
M  V30 5802 C 550.02 -2.9586 1.80742 0
M  V30 5803 C 549.081 -3.02649 3.04471 0
M  V30 5804 C 548.314 -4.32374 3.12872 0
M  V30 5805 O 548.537 -5.22807 2.28099 0
M  V30 5806 O 547.471 -4.44728 4.05587 0
M  V30 5807 H 551.297 -1.44373 2.67189 0
M  V30 5808 H 548.882 -0.651717 1.34436 0
M  V30 5809 H 550.764 -3.7677 1.88739 0
M  V30 5810 H 549.439 -3.11325 0.88647 0
M  V30 5811 H 548.346 -2.20821 3.01975 0
M  V30 5812 H 549.679 -2.92119 3.9614 0
M  V30 5813 N 551.331 -1.39911 -0.725443 0
M  V30 5814 C 552.278 -1.39393 -1.83952 0
M  V30 5815 C 553.248 -0.252249 -1.64173 0
M  V30 5816 O 554.433 -0.44882 -1.85446 0
M  V30 5817 C 551.573 -1.25262 -3.21564 0
M  V30 5818 C 550.686 -2.49054 -3.52982 0
M  V30 5819 C 549.821 -2.27439 -4.80047 0
M  V30 5820 C 548.86 -3.46857 -5.04338 0
M  V30 5821 N 547.997 -3.24499 -6.22611 0
M  V30 5822 H 552.837 -2.34622 -1.83729 0
M  V30 5823 H 550.374 -1.16537 -0.897636 0
M  V30 5824 H 552.332 -1.15077 -4.01015 0
M  V30 5825 H 550.962 -0.33657 -3.21041 0
M  V30 5826 H 550.014 -2.69805 -2.6816 0
M  V30 5827 H 551.326 -3.37973 -3.66846 0
M  V30 5828 H 550.48 -2.14551 -5.67497 0
M  V30 5829 H 549.219 -1.35929 -4.68374 0
M  V30 5830 H 548.224 -3.60232 -4.15346 0
M  V30 5831 H 549.449 -4.3928 -5.17889 0
M  V30 5832 H 547.395 -2.35663 -6.12208 0
M  V30 5833 H 547.312 -4.06978 -6.37106 0
M  V30 5834 H 548.58 -3.15325 -7.12875 0
M  V30 5835 N 552.809 0.956637 -1.25245 0
M  V30 5836 C 554.055 1.70352 -1.10036 0
M  V30 5837 C 554.388 1.90869 0.358156 0
M  V30 5838 O 553.663 1.47819 1.26411 0
M  V30 5839 C 553.946 3.08766 -1.85298 0
M  V30 5840 C 553.799 2.95672 -3.38966 0
M  V30 5841 C 555.118 4.08622 -1.63451 0
M  V30 5842 H 552.237 0.618279 -0.401123 0
M  V30 5843 H 554.879 1.11212 -1.54051 0
M  V30 5844 H 553.029 3.59252 -1.47887 0
M  V30 5845 H 554.701 2.52527 -3.86041 0
M  V30 5846 H 552.944 2.31634 -3.6678 0
M  V30 5847 H 553.615 3.93776 -3.86839 0
M  V30 5848 H 556.091 3.67038 -1.96015 0
M  V30 5849 H 554.967 5.03514 -2.18551 0
M  V30 5850 H 555.228 4.3834 -0.575357 0
M  V30 5851 N 554.287 1.06798 1.15896 0
M  V30 5852 C 555.535 0.786211 1.8618 0
M  V30 5853 C 555.856 -0.689547 1.82401 0
M  V30 5854 O 555.126 -1.49913 1.26107 0
M  V30 5855 H 553.706 0.287843 0.689315 0
M  V30 5856 H 556.368 1.35055 1.40521 0
M  V30 5857 H 555.464 1.1157 2.91477 0
M  V30 5858 N 555.766 -1.3263 0.851289 0
M  V30 5859 C 556.713 -2.28952 0.291469 0
M  V30 5860 C 557.683 -1.54897 -0.599676 0
M  V30 5861 O 558.868 -1.83137 -0.535305 0
M  V30 5862 C 556.008 -3.41206 -0.516992 0
M  V30 5863 C 555.121 -4.30148 0.399566 0
M  V30 5864 C 554.256 -5.29527 -0.4212 0
M  V30 5865 C 553.295 -6.10112 0.492969 0
M  V30 5866 N 552.432 -7.01499 -0.290414 0
M  V30 5867 H 557.272 -2.76228 1.11813 0
M  V30 5868 H 554.809 -1.35907 0.562826 0
M  V30 5869 H 556.767 -4.05005 -1.00132 0
M  V30 5870 H 555.397 -2.9509 -1.30851 0
M  V30 5871 H 554.449 -3.66959 1.00227 0
M  V30 5872 H 555.761 -4.8649 1.1013 0
M  V30 5873 H 554.915 -5.98914 -0.968832 0
M  V30 5874 H 553.654 -4.73794 -1.15632 0
M  V30 5875 H 552.659 -5.39632 1.05251 0
M  V30 5876 H 553.884 -6.6793 1.22664 0
M  V30 5877 H 551.83 -6.48199 -1.00868 0
M  V30 5878 H 551.747 -7.55178 0.352354 0
M  V30 5879 H 553.015 -7.75176 -0.819882 0
M  V30 5880 N 557.244 -0.608902 -1.45362 0
M  V30 5881 C 558.49 -0.113196 -2.03085 0
M  V30 5882 C 558.845 1.24288 -1.46868 0
M  V30 5883 O 558.138 1.80792 -0.634402 0
M  V30 5884 C 558.332 -0.0167296 -3.57396 0
M  V30 5885 C 558.161 -1.36191 -4.28581 0
M  V30 5886 C 556.931 -1.94295 -4.66452 0
M  V30 5887 C 559.129 -2.29097 -4.60455 0
M  V30 5888 N 557.111 -3.2228 -5.22503 0
M  V30 5889 C 558.482 -3.41681 -5.17353 0
M  V30 5890 C 560.537 -2.28453 -4.42395 0
M  V30 5891 C 559.24 -4.53789 -5.58093 0
M  V30 5892 C 561.266 -3.39608 -4.8417 0
M  V30 5893 C 560.628 -4.50915 -5.41161 0
M  V30 5894 H 556.727 -0.0848213 -0.777386 0
M  V30 5895 H 559.311 -0.807541 -1.77163 0
M  V30 5896 H 557.482 0.646839 -3.82976 0
M  V30 5897 H 559.214 0.485757 -4.01774 0
M  V30 5898 H 555.969 -1.47486 -4.5005 0
M  V30 5899 H 556.393 -3.87654 -5.55025 0
M  V30 5900 H 561.035 -1.43658 -3.97646 0
M  V30 5901 H 558.753 -5.39307 -6.01808 0
M  V30 5902 H 562.339 -3.40259 -4.71927 0
M  V30 5903 H 561.219 -5.35505 -5.72891 0
M  V30 5904 N 558.722 1.53707 -0.348139 0
M  V30 5905 C 559.632 2.28881 0.514857 0
M  V30 5906 C 560.648 1.34168 1.10793 0
M  V30 5907 O 561.824 1.6721 1.12262 0
M  V30 5908 C 558.889 3.05042 1.64774 0
M  V30 5909 C 557.95 4.15389 1.08398 0
M  V30 5910 C 557.183 4.87909 2.16287 0
M  V30 5911 O 557.406 4.60137 3.3709 0
M  V30 5912 O 556.34 5.74254 1.80323 0
M  V30 5913 H 560.166 3.03547 -0.0963699 0
M  V30 5914 H 557.751 1.48972 -0.113043 0
M  V30 5915 H 559.633 3.52656 2.30677 0
M  V30 5916 H 558.308 2.33228 2.24469 0
M  V30 5917 H 557.215 3.72068 0.389341 0
M  V30 5918 H 558.548 4.89318 0.531829 0
M  V30 5919 N 560.2 0.0768682 1.57412 0
M  V30 5920 C 561.148 -0.906229 2.1422 0
M  V30 5921 C 562.142 -1.30477 1.08037 0
M  V30 5922 O 563.348 -1.28143 1.2641 0
M  V30 5923 H 559.723 -0.310207 0.685037 0
M  V30 5924 H 561.694 -0.402228 2.95677 0
M  V30 5925 C 560.443 -2.16245 2.72274 0
M  V30 5926 H 559.766 -1.86463 3.53655 0
M  V30 5927 H 561.206 -2.83134 3.15613 0
M  V30 5928 C 559.665 -2.92437 1.67279 0
M  V30 5929 O 560.195 -3.86322 1.10081 0
M  V30 5930 N 558.401 -2.55637 1.38195 0
M  V30 5931 H 557.948 -1.79363 1.84897 0
M  V30 5932 H 557.906 -3.06919 0.681787 0
M  V30 5933 N 561.678 -1.56367 -0.196722 0
M  V30 5934 C 562.628 -1.9082 -1.24787 0
M  V30 5935 C 563.612 -0.773719 -1.41076 0
M  V30 5936 O 564.804 -1.03655 -1.43474 0
M  V30 5937 C 561.933 -2.24982 -2.59303 0
M  V30 5938 C 561.019 -3.44882 -2.46814 0
M  V30 5939 N 561.41 -4.62835 -2.04003 0
M  V30 5940 C 559.708 -3.48988 -2.77711 0
M  V30 5941 C 560.409 -5.44993 -2.03366 0
M  V30 5942 N 559.385 -4.85356 -2.44807 0
M  V30 5943 H 563.187 -2.79516 -0.908175 0
M  V30 5944 H 560.701 -1.57265 -0.405166 0
M  V30 5945 H 562.698 -2.47848 -3.35227 0
M  V30 5946 H 561.358 -1.37611 -2.94098 0
M  V30 5947 H 562.369 -4.87532 -1.74738 0
M  V30 5948 H 559.046 -2.72029 -3.16712 0
M  V30 5949 H 560.436 -6.49464 -1.72181 0
M  V30 5950 N 563.156 0.464375 -1.50603 0
M  V30 5951 C 564.384 1.23907 -1.65695 0
M  V30 5952 C 564.799 1.85658 -0.343027 0
M  V30 5953 O 564.156 1.69529 0.675739 0
M  V30 5954 C 564.207 2.3429 -2.75301 0
M  V30 5955 O 563.928 1.7507 -4.01599 0
M  V30 5956 C 565.429 3.25051 -3.01424 0
M  V30 5957 H 562.649 0.374485 -0.556778 0
M  V30 5958 H 565.193 0.55353 -1.96866 0
M  V30 5959 H 563.348 2.98607 -2.46804 0
M  V30 5960 H 563.762 2.47812 -4.62266 0
M  V30 5961 H 565.236 3.98699 -3.81763 0
M  V30 5962 H 565.713 3.84227 -2.12758 0
M  V30 5963 H 566.319 2.66463 -3.31477 0
M  V30 5964 N 564.634 1.40294 0.718013 0
M  V30 5965 C 565.564 1.43118 1.84498 0
M  V30 5966 C 566.545 0.292403 1.67568 0
M  V30 5967 O 567.73 0.500675 1.87635 0
M  V30 5968 C 564.86 1.29065 3.22427 0
M  V30 5969 C 563.814 2.40521 3.54025 0
M  V30 5970 C 563.14 2.11546 4.91073 0
M  V30 5971 C 564.44 3.82859 3.55269 0
M  V30 5972 H 566.134 2.37432 1.82391 0
M  V30 5973 H 563.68 1.14283 0.87609 0
M  V30 5974 H 565.633 1.29658 4.00957 0
M  V30 5975 H 564.357 0.312271 3.25104 0
M  V30 5976 H 563.016 2.39173 2.77834 0
M  V30 5977 H 562.664 1.12104 4.90348 0
M  V30 5978 H 562.364 2.86216 5.1318 0
M  V30 5979 H 563.888 2.13817 5.71939 0
M  V30 5980 H 565.302 3.86044 4.23843 0
M  V30 5981 H 563.699 4.57029 3.88902 0
M  V30 5982 H 564.769 4.12617 2.54706 0
M  V30 5983 N 566.112 -0.949982 1.2575 0
M  V30 5984 C 567.337 -1.73503 1.13628 0
M  V30 5985 C 567.762 -1.85601 -0.30559 0
M  V30 5986 O 567.12 -1.33984 -1.22139 0
M  V30 5987 C 567.168 -3.1243 1.80055 0
M  V30 5988 O 566.272 -3.97916 1.08336 0
M  V30 5989 H 565.613 -0.532665 0.396439 0
M  V30 5990 H 568.143 -1.19043 1.66403 0
M  V30 5991 H 568.153 -3.62866 1.86527 0
M  V30 5992 H 566.828 -3.02941 2.84956 0
M  V30 5993 H 565.405 -3.56375 1.09777 0
M  V30 5994 N 567.59 -1.07411 -1.15328 0
M  V30 5995 C 568.52 -0.716472 -2.22236 0
M  V30 5996 C 569.501 0.296373 -1.67498 0
M  V30 5997 O 570.686 0.168989 -1.93463 0
M  V30 5998 C 567.816 -0.114142 -3.47112 0
M  V30 5999 C 566.77 -1.05421 -4.14814 0
M  V30 6000 C 566.096 -0.314604 -5.33774 0
M  V30 6001 C 567.396 -2.38808 -4.64508 0
M  V30 6002 H 569.09 -1.61029 -2.52408 0
M  V30 6003 H 566.636 -0.775702 -1.21321 0
M  V30 6004 H 568.589 0.148001 -4.2114 0
M  V30 6005 H 567.313 0.814755 -3.16274 0
M  V30 6006 H 565.972 -1.30128 -3.42728 0
M  V30 6007 H 565.62 0.617772 -4.99192 0
M  V30 6008 H 565.32 -0.941209 -5.80013 0
M  V30 6009 H 566.844 -0.0602747 -6.1057 0
M  V30 6010 H 568.258 -2.18424 -5.3006 0
M  V30 6011 H 566.655 -2.97069 -5.21412 0
M  V30 6012 H 567.725 -3.01067 -3.80114 0
M  V30 6013 N 569.068 1.32177 -0.85831 0
M  V30 6014 C 570.484 1.49873 -0.548656 0
M  V30 6015 C 570.684 1.79278 0.919874 0
M  V30 6016 O 569.74 1.86451 1.70271 0
M  V30 6017 C 571.053 2.64043 -1.4388 0
M  V30 6018 C 572.601 2.77928 -1.43961 0
M  V30 6019 C 573.076 3.95182 -2.31506 0
M  V30 6020 N 574.567 4.0245 -2.29321 0
M  V30 6021 C 575.302 4.9242 -2.93786 0
M  V30 6022 N 574.798 5.87373 -3.67376 0
M  V30 6023 N 576.591 4.85572 -2.83155 0
M  V30 6024 H 568.742 1.11357 -1.80868 0
M  V30 6025 H 571.005 0.549175 -0.772729 0
M  V30 6026 H 570.711 2.49055 -2.48324 0
M  V30 6027 H 570.585 3.59912 -1.12885 0
M  V30 6028 H 572.972 2.92338 -0.402813 0
M  V30 6029 H 573.053 1.82762 -1.78974 0
M  V30 6030 H 572.697 3.81531 -3.35256 0
M  V30 6031 H 572.627 4.89633 -1.93823 0
M  V30 6032 H 575.118 3.34507 -1.75822 0
M  V30 6033 H 575.431 6.52728 -4.13722 0
M  V30 6034 H 573.776 5.87388 -3.71484 0
M  V30 6035 H 576.967 4.10363 -2.25211 0
M  V30 6036 H 577.14 5.55486 -3.33676 0
M  V30 6037 N 570.547 0.616602 1.45037 0
M  V30 6038 C 571.497 -0.118543 2.27692 0
M  V30 6039 C 572.481 -0.830025 1.37838 0
M  V30 6040 O 573.673 -0.718528 1.6176 0
M  V30 6041 C 570.802 -1.10924 3.24886 0
M  V30 6042 C 569.888 -0.398134 4.22227 0
M  V30 6043 N 570.279 0.565233 5.02632 0
M  V30 6044 C 568.577 -0.644506 4.41319 0
M  V30 6045 C 569.278 0.984043 5.73316 0
M  V30 6046 N 568.254 0.325879 5.42622 0
M  V30 6047 H 572.056 0.621239 2.87259 0
M  V30 6048 H 569.57 0.440968 1.56299 0
M  V30 6049 H 571.567 -1.65038 3.82842 0
M  V30 6050 H 570.227 -1.84948 2.66879 0
M  V30 6051 H 571.238 0.942395 5.09254 0
M  V30 6052 H 567.915 -1.36873 3.94426 0
M  V30 6053 H 569.305 1.77911 6.47918 0
M  V30 6054 N 572.025 -1.5352 0.356285 0
M  V30 6055 C 572.988 -2.24071 -0.482182 0
M  V30 6056 C 573.988 -1.24531 -1.01729 0
M  V30 6057 O 575.178 -1.48876 -0.904513 0
M  V30 6058 C 572.31 -2.97025 -1.67299 0
M  V30 6059 H 573.503 -2.99596 0.135031 0
M  V30 6060 H 571.056 -1.55928 0.107825 0
M  V30 6061 H 571.791 -2.25719 -2.32855 0
M  V30 6062 H 571.576 -3.7005 -1.29636 0
M  V30 6063 H 573.066 -3.50683 -2.26741 0
M  V30 6064 N 573.503 -0.0852151 -1.57369 0
M  V30 6065 C 574.749 0.581666 -1.94279 0
M  V30 6066 C 575.082 1.68444 -0.966446 0
M  V30 6067 O 574.357 1.945 0.00215277 0
M  V30 6068 C 574.64 1.14609 -3.41375 0
M  V30 6069 C 574.493 0.0490414 -4.49773 0
M  V30 6070 C 575.812 2.04751 -3.8957 0
M  V30 6071 H 572.931 0.209972 -0.706456 0
M  V30 6072 H 575.573 -0.153915 -1.89376 0
M  V30 6073 H 573.723 1.77297 -3.45685 0
M  V30 6074 H 575.395 -0.584721 -4.57579 0
M  V30 6075 H 573.638 -0.618638 -4.29366 0
M  V30 6076 H 574.309 0.484601 -5.49869 0
M  V30 6077 H 576.785 1.51981 -3.87351 0
M  V30 6078 H 575.661 2.41173 -4.93079 0
M  V30 6079 H 575.922 2.96107 -3.28288 0
M  V30 6080 N 574.981 1.5647 0.188427 0
M  V30 6081 C 576.227 1.82181 0.904534 0
M  V30 6082 C 576.582 0.663258 1.80606 0
M  V30 6083 O 575.875 -0.341231 1.88537 0
M  V30 6084 C 576.069 3.11596 1.7505 0
M  V30 6085 C 575.898 4.39928 0.932372 0
M  V30 6086 C 574.668 5.01554 0.61417 0
M  V30 6087 C 576.866 5.13527 0.281936 0
M  V30 6088 N 574.848 6.13499 -0.221896 0
M  V30 6089 C 576.219 6.18603 -0.416037 0
M  V30 6090 C 578.274 4.97505 0.198345 0
M  V30 6091 C 576.977 7.09394 -1.18965 0
M  V30 6092 C 579.003 5.88725 -0.561887 0
M  V30 6093 C 578.365 6.93251 -1.24828 0
M  V30 6094 H 574.464 0.717858 0.310168 0
M  V30 6095 H 577.048 1.93932 0.172757 0
M  V30 6096 H 575.219 3.01068 2.45383 0
M  V30 6097 H 576.951 3.25369 2.4066 0
M  V30 6098 H 573.706 4.64174 0.940187 0
M  V30 6099 H 574.13 6.74065 -0.629735 0
M  V30 6100 H 578.772 4.16716 0.714665 0
M  V30 6101 H 576.49 7.8964 -1.71737 0
M  V30 6102 H 580.076 5.78401 -0.628009 0
M  V30 6103 H 578.956 7.62618 -1.82712 0
M  V30 6104 N 576.459 -0.456382 1.50847 0
M  V30 6105 C 577.87 -1.03685 1.55262 0
M  V30 6106 C 578.221 -1.92779 0.364771 0
M  V30 6107 O 577.346 -2.10043 -0.52068 0
M  V30 6108 C 577.941 -1.88718 2.81374 0
M  V30 6109 C 576.5 -2.41847 2.88422 0
M  V30 6110 C 575.647 -1.20564 2.49719 0
M  V30 6111 H 578.598 -0.238399 1.56899 0
M  V30 6112 H 578.619 -2.73957 2.6406 0
M  V30 6113 H 578.131 -1.23847 3.67809 0
M  V30 6114 H 576.232 -3.10228 2.06372 0
M  V30 6115 H 576.345 -2.75947 3.9165 0
M  V30 6116 H 574.709 -1.54504 2.02486 0
M  V30 6117 H 575.492 -0.573326 3.38479 0
M  V30 6118 N 577.937 -1.40673 -0.710563 0
M  V30 6119 C 579.353 -1.22813 -1.01928 0
M  V30 6120 C 579.553 -0.10687 -2.01216 0
M  V30 6121 O 578.609 0.533614 -2.46797 0
M  V30 6122 C 579.922 -2.57178 -1.5582 0
M  V30 6123 C 581.47 -2.64233 -1.67779 0
M  V30 6124 C 581.945 -3.98879 -2.25076 0
M  V30 6125 N 583.436 -4.00647 -2.32456 0
M  V30 6126 C 584.171 -5.01621 -2.77784 0
M  V30 6127 N 583.667 -6.12989 -3.22826 0
M  V30 6128 N 585.46 -4.88988 -2.77213 0
M  V30 6129 H 577.611 -2.12335 -0.05253 0
M  V30 6130 H 579.874 -0.9441 -0.085898 0
M  V30 6131 H 579.58 -3.39903 -0.903249 0
M  V30 6132 H 579.454 -2.78618 -2.54267 0
M  V30 6133 H 581.841 -1.81876 -2.3239 0
M  V30 6134 H 581.922 -2.46619 -0.679178 0
M  V30 6135 H 581.566 -4.81678 -1.61086 0
M  V30 6136 H 581.496 -4.13826 -3.25661 0
M  V30 6137 H 583.987 -3.20231 -2.0065 0
M  V30 6138 H 584.3 -6.85921 -3.55995 0
M  V30 6139 H 582.645 -6.16547 -3.20773 0
M  V30 6140 H 585.836 -4.01075 -2.41363 0
M  V30 6141 H 586.009 -5.67822 -3.12221 0
M  V30 6142 N 579.415 0.9433 -1.26252 0
M  V30 6143 C 580.645 1.72117 -1.14277 0
M  V30 6144 C 581.053 1.86726 0.304944 0
M  V30 6145 O 580.396 1.3727 1.22076 0
M  V30 6146 C 580.458 3.14778 -1.73651 0
M  V30 6147 C 580.122 3.23561 -3.22734 0
M  V30 6148 C 581.119 3.07001 -4.19579 0
M  V30 6149 C 578.804 3.47019 -3.63157 0
M  V30 6150 C 580.798 3.13763 -5.54826 0
M  V30 6151 C 578.485 3.53416 -4.98538 0
M  V30 6152 C 579.483 3.36804 -5.94182 0
M  V30 6153 O 579.171 3.42906 -7.27098 0
M  V30 6154 H 578.903 0.545781 -0.398873 0
M  V30 6155 H 581.457 1.19123 -1.67328 0
M  V30 6156 H 579.687 3.69186 -1.1506 0
M  V30 6157 H 581.376 3.74469 -1.56613 0
M  V30 6158 H 582.142 2.88736 -3.89688 0
M  V30 6159 H 578.021 3.59006 -2.89199 0
M  V30 6160 H 581.565 3.00714 -6.29458 0
M  V30 6161 H 577.462 3.71201 -5.28091 0
M  V30 6162 H 578.23 3.59463 -7.35342 0
M  V30 6163 N 580.893 1.08022 1.14757 0
M  V30 6164 C 581.84 0.706657 2.19716 0
M  V30 6165 C 582.81 -0.30525 1.63271 0
M  V30 6166 O 583.995 -0.19015 1.8985 0
M  V30 6167 C 581.135 0.117914 3.44898 0
M  V30 6168 C 580.248 1.18212 4.15512 0
M  V30 6169 C 579.383 0.557659 5.28265 0
M  V30 6170 C 578.422 1.60418 5.90705 0
M  V30 6171 N 577.559 1.0018 6.94916 0
M  V30 6172 H 582.399 1.60603 2.51019 0
M  V30 6173 H 579.936 0.802664 1.23271 0
M  V30 6174 H 581.894 -0.241112 4.16503 0
M  V30 6175 H 580.524 -0.744788 3.1409 0
M  V30 6176 H 579.576 1.65863 3.42335 0
M  V30 6177 H 580.888 1.97533 4.5802 0
M  V30 6178 H 580.042 0.146654 6.06523 0
M  V30 6179 H 578.781 -0.267249 4.86967 0
M  V30 6180 H 577.786 2.02489 5.11154 0
M  V30 6181 H 579.011 2.43149 6.34078 0
M  V30 6182 H 576.957 0.197917 6.55701 0
M  V30 6183 H 576.874 1.73216 7.35889 0
M  V30 6184 H 578.142 0.616523 7.77058 0
M  V30 6185 N 582.371 -1.3172 0.865308 0
M  V30 6186 C 583.596 -2.01591 0.487415 0
M  V30 6187 C 584.021 -1.6455 -0.911307 0
M  V30 6188 O 583.379 -0.851689 -1.6005 0
M  V30 6189 C 583.427 -3.54759 0.646401 0
M  V30 6190 O 582.531 -4.11185 -0.316284 0
M  V30 6191 H 581.872 -0.634884 0.194468 0
M  V30 6192 H 584.402 -1.68024 1.16744 0
M  V30 6193 H 584.412 -4.04438 0.537932 0
M  V30 6194 H 583.087 -3.8106 1.66632 0
M  V30 6195 H 581.664 -3.72543 -0.163162 0
M  V30 6196 N 583.85 -0.624285 -1.44708 0
M  V30 6197 C 585.096 -0.126051 -2.02107 0
M  V30 6198 C 585.425 1.2496 -1.49048 0
M  V30 6199 O 584.68 1.84163 -0.662005 0
M  V30 6200 C 584.979 -0.0546353 -3.57358 0
M  V30 6201 C 584.644 -1.36815 -4.29642 0
M  V30 6202 C 583.307 -1.72792 -4.49106 0
M  V30 6203 C 585.659 -2.23549 -4.70824 0
M  V30 6204 C 582.986 -2.95222 -5.07012 0
M  V30 6205 C 585.339 -3.45243 -5.30085 0
M  V30 6206 C 584.003 -3.81452 -5.47769 0
M  V30 6207 H 583.273 -0.0461252 -0.739563 0
M  V30 6208 H 585.92 -0.809236 -1.73562 0
M  V30 6209 H 584.225 0.711891 -3.85278 0
M  V30 6210 H 585.922 0.347282 -3.99493 0
M  V30 6211 H 582.512 -1.07817 -4.14817 0
M  V30 6212 H 586.696 -1.9705 -4.55505 0
M  V30 6213 H 581.952 -3.23361 -5.18891 0
M  V30 6214 H 586.125 -4.12689 -5.60946 0
M  V30 6215 H 583.753 -4.76403 -5.92405 0
M  V30 6216 N 585.328 1.53329 -0.364422 0
M  V30 6217 C 586.553 2.06132 0.229033 0
M  V30 6218 C 586.978 1.23625 1.41769 0
M  V30 6219 O 586.336 0.255038 1.79497 0
M  V30 6220 C 586.384 3.55544 0.60174 0
M  V30 6221 O 585.488 3.75771 1.69912 0
M  V30 6222 H 584.829 0.663148 0.0336213 0
M  V30 6223 H 587.359 1.97758 -0.524689 0
M  V30 6224 H 587.369 3.98549 0.873073 0
M  V30 6225 H 586.044 4.15039 -0.267421 0
M  V30 6226 H 584.621 3.44663 1.42343 0
M  V30 6227 N 586.806 0.0935595 1.57322 0
M  V30 6228 C 588.083 -0.612692 1.85756 0
M  V30 6229 C 588.463 -1.86439 0.99013 0
M  V30 6230 O 587.811 -2.28416 0.0621362 0
M  V30 6231 C 588.021 -0.929547 3.36393 0
M  V30 6232 C 589.369 -1.29366 4.04413 0
M  V30 6233 O 590.393 -1.02061 3.41265 0
M  V30 6234 O 589.252 -1.80498 5.15832 0
M  V30 6235 H 586.346 -0.306444 0.768128 0
M  V30 6236 H 588.892 0.126141 1.69231 0
M  V30 6237 H 587.664 -0.0414766 3.91278 0
M  V30 6238 H 587.287 -1.72441 3.5826 0
M  V30 6239 N 588.284 -1.56567 -0.180126 0
M  V30 6240 C 589.524 -1.83285 -0.904761 0
M  V30 6241 C 589.888 -0.673226 -1.7981 0
M  V30 6242 O 591.089 -0.820645 -2.55967 0
M  V30 6243 C 589.36 -3.15086 -1.68688 0
M  V30 6244 S 590.919 -3.63258 -2.46149 0
M  V30 6245 H 587.737 -0.643114 -0.303193 0
M  V30 6246 H 590.339 -1.94785 -0.167034 0
M  V30 6247 H 589.043 -3.97484 -1.02148 0
M  V30 6248 H 588.574 -3.06504 -2.46615 0
M  V30 6249 H 590.589 -3.29884 -3.70663 0
M  V30 6250 N 589.762 0.448376 -1.51087 0
M  V30 6251 C 590.672 1.56882 -1.74428 0
M  V30 6252 C 591.688 1.62268 -0.62809 0
M  V30 6253 O 592.864 1.79716 -0.909075 0
M  V30 6254 C 589.929 2.92947 -1.85426 0
M  V30 6255 C 588.99 2.97766 -3.09247 0
M  V30 6256 C 588.223 4.27341 -3.19711 0
M  V30 6257 O 588.446 5.19112 -2.36387 0
M  V30 6258 O 587.38 4.38219 -4.12611 0
M  V30 6259 H 591.206 1.40104 -2.69452 0
M  V30 6260 H 588.791 0.630247 -1.35456 0
M  V30 6261 H 590.673 3.73719 -1.94709 0
M  V30 6262 H 589.348 3.09876 -0.935887 0
M  V30 6263 H 588.255 2.15989 -3.0545 0
M  V30 6264 H 589.588 2.8578 -4.00738 0
M  V30 6265 N 591.24 1.41047 0.703093 0
M  V30 6266 C 592.651 1.35657 1.28274 0
M  V30 6267 C 593.002 0.0360309 1.96167 0
M  V30 6268 O 592.127 -0.865833 1.98324 0
M  V30 6269 C 592.722 2.45707 2.33267 0
M  V30 6270 C 591.281 2.43738 2.86825 0
M  V30 6271 C 590.428 2.25941 1.60767 0
M  V30 6272 H 593.379 1.50672 0.49836 0
M  V30 6273 H 593.4 2.14333 3.14391 0
M  V30 6274 H 592.912 3.41805 1.83824 0
M  V30 6275 H 591.013 1.51375 3.40465 0
M  V30 6276 H 591.126 3.39779 3.37768 0
M  V30 6277 H 589.49 1.73681 1.86298 0
M  V30 6278 H 590.273 3.24054 1.1333 0
M  V30 6279 N 592.718 -0.936591 1.26751 0
M  V30 6280 C 593.995 -1.66094 1.03306 0
M  V30 6281 C 594.375 -2.06568 -0.435058 0
M  V30 6282 O 593.723 -1.79305 -1.41641 0
M  V30 6283 C 593.933 -2.86969 1.98619 0
M  V30 6284 C 595.281 -3.58516 2.27489 0
M  V30 6285 O 596.305 -2.97082 1.96522 0
M  V30 6286 O 595.164 -4.69181 2.80235 0
M  V30 6287 H 592.258 -0.727568 0.393158 0
M  V30 6288 H 594.804 -0.987914 1.3798 0
M  V30 6289 H 593.576 -2.53985 2.9767 0
M  V30 6290 H 593.199 -3.61996 1.64454 0
M  V30 6291 N 594.196 -1.08629 -1.14182 0
M  V30 6292 C 595.473 -0.73002 -1.81466 0
M  V30 6293 C 595.853 0.785996 -1.95922 0
M  V30 6294 O 595.201 1.70535 -1.52086 0
M  V30 6295 C 595.411 -1.45957 -3.17014 0
M  V30 6296 C 596.759 -1.62008 -3.92477 0
M  V30 6297 O 597.783 -1.42141 -3.26611 0
M  V30 6298 O 596.642 -1.94806 -5.106 0
M  V30 6299 H 593.736 -0.261307 -0.784632 0
M  V30 6300 H 596.282 -1.188 -1.2118 0
M  V30 6301 H 595.054 -2.49221 -3.01669 0
M  V30 6302 H 594.677 -0.993222 -3.84995 0
M  V30 6303 N 595.674 1.31259 -0.872281 0
M  V30 6304 C 596.622 2.30404 -0.318897 0
M  V30 6305 C 597.616 1.5962 0.567267 0
M  V30 6306 O 598.822 1.74204 0.453111 0
M  V30 6307 H 595.197 0.747243 -0.0844474 0
M  V30 6308 H 597.168 2.74549 -1.16899 0
M  V30 6309 C 595.917 3.44608 0.462683 0
M  V30 6310 H 595.24 3.99248 -0.209936 0
M  V30 6311 H 596.68 4.1609 0.815187 0
M  V30 6312 C 595.139 2.93456 1.65485 0
M  V30 6313 O 595.669 2.92418 2.75417 0
M  V30 6314 N 593.875 2.49628 1.48776 0
M  V30 6315 H 593.422 2.50671 0.593452 0
M  V30 6316 H 593.38 2.15759 2.28682 0
M  V30 6317 N 597.152 0.631951 1.44375 0
M  V30 6318 C 598.102 -0.0943862 2.27805 0
M  V30 6319 C 599.086 -0.815359 1.38711 0
M  V30 6320 O 600.278 -0.701331 1.62513 0
M  V30 6321 C 597.407 -1.07472 3.26044 0
M  V30 6322 C 596.493 -0.353329 4.22626 0
M  V30 6323 N 596.884 0.618512 5.02004 0
M  V30 6324 C 595.182 -0.597662 4.41977 0
M  V30 6325 C 595.883 1.0448 5.7224 0
M  V30 6326 N 594.859 0.383413 5.42246 0
M  V30 6327 H 598.661 0.651672 2.86584 0
M  V30 6328 H 596.175 0.45752 1.55822 0
M  V30 6329 H 598.172 -1.60969 3.84571 0
M  V30 6330 H 596.832 -1.82107 2.68825 0
M  V30 6331 H 597.843 0.996356 5.08226 0
M  V30 6332 H 594.52 -1.32682 3.95856 0
M  V30 6333 H 595.91 1.84773 6.45994 0
M  V30 6334 N 598.631 -1.53133 0.372548 0
M  V30 6335 C 599.561 -2.28876 -0.462412 0
M  V30 6336 C 600.542 -1.31583 -1.07796 0
M  V30 6337 O 601.727 -1.60461 -1.09389 0
M  V30 6338 C 598.857 -3.08317 -1.59868 0
M  V30 6339 C 597.811 -4.13355 -1.11003 0
M  V30 6340 C 597.137 -4.8092 -2.33708 0
M  V30 6341 C 598.437 -5.21955 -0.18983 0
M  V30 6342 H 600.131 -2.9892 0.169511 0
M  V30 6343 H 597.677 -1.43761 0.0829658 0
M  V30 6344 H 599.63 -3.60055 -2.18949 0
M  V30 6345 H 598.354 -2.35976 -2.25794 0
M  V30 6346 H 597.013 -3.62573 -0.541869 0
M  V30 6347 H 596.661 -4.05144 -2.98106 0
M  V30 6348 H 596.361 -5.51904 -2.01682 0
M  V30 6349 H 597.885 -5.35455 -2.93462 0
M  V30 6350 H 599.299 -5.69153 -0.688319 0
M  V30 6351 H 597.696 -6.00087 0.0398887 0
M  V30 6352 H 598.766 -4.78811 0.766057 0
M  V30 6353 N 600.109 -0.101901 -1.5727 0
M  V30 6354 C 601.334 0.571759 -1.99363 0
M  V30 6355 C 601.759 1.60507 -0.980768 0
M  V30 6356 O 601.117 1.81231 0.0498517 0
M  V30 6357 C 601.165 1.18996 -3.404 0
M  V30 6358 O 600.269 2.30572 -3.41922 0
M  V30 6359 H 599.61 0.144449 -0.648098 0
M  V30 6360 H 602.14 -0.185325 -2.03759 0
M  V30 6361 H 602.15 1.52962 -3.78241 0
M  V30 6362 H 600.825 0.432984 -4.1364 0
M  V30 6363 H 599.402 1.98173 -3.15883 0
M  V30 6364 N 601.587 1.56661 0.17182 0
M  V30 6365 C 602.836 1.81158 0.886831 0
M  V30 6366 C 603.149 0.679072 1.83434 0
M  V30 6367 O 604.355 0.808964 2.59168 0
M  V30 6368 C 602.811 3.20999 1.6275 0
M  V30 6369 C 602.419 4.42117 0.723652 0
M  V30 6370 C 604.163 3.5479 2.33076 0
M  V30 6371 C 602.07 5.7298 1.46452 0
M  V30 6372 H 601 0.675543 0.334899 0
M  V30 6373 H 603.651 1.82967 0.139765 0
M  V30 6374 H 602.033 3.13506 2.4193 0
M  V30 6375 H 603.207 4.60789 -0.0311485 0
M  V30 6376 H 601.522 4.16197 0.130063 0
M  V30 6377 H 604.119 4.49806 2.89099 0
M  V30 6378 H 604.462 2.79646 3.08389 0
M  V30 6379 H 604.995 3.63834 1.6084 0
M  V30 6380 H 601.734 6.51152 0.753729 0
M  V30 6381 H 601.254 5.58285 2.19266 0
M  V30 6382 H 602.933 6.14916 2.01214 0
M  V30 6383 N 603.065 -0.440357 1.51323 0
M  V30 6384 C 604.311 -1.19181 1.64085 0
M  V30 6385 C 604.644 -1.90936 0.354575 0
M  V30 6386 O 603.919 -1.8347 -0.645675 0
M  V30 6387 C 604.202 -2.2112 2.84215 0
M  V30 6388 C 604.055 -1.53468 4.22809 0
M  V30 6389 C 605.374 -3.22133 2.99864 0
M  V30 6390 H 602.493 -0.431924 0.597169 0
M  V30 6391 H 605.135 -0.481443 1.83799 0
M  V30 6392 H 603.285 -2.81703 2.67537 0
M  V30 6393 H 604.957 -0.962455 4.51148 0
M  V30 6394 H 603.2 -0.837086 4.25647 0
M  V30 6395 H 603.871 -2.27694 5.02852 0
M  V30 6396 H 606.347 -2.71601 3.15233 0
M  V30 6397 H 605.223 -3.90756 3.85488 0
M  V30 6398 H 605.484 -3.88061 2.11804 0
M  V30 6399 N 604.543 -1.41418 -0.695603 0
M  V30 6400 C 605.771 -1.4413 -1.48439 0
M  V30 6401 C 606.186 -0.0465698 -1.88743 0
M  V30 6402 O 605.543 0.934117 -1.56782 0
M  V30 6403 C 605.594 -2.34998 -2.74696 0
M  V30 6404 O 605.315 -3.69043 -2.36091 0
M  V30 6405 C 606.816 -2.46513 -3.68438 0
M  V30 6406 H 604.036 -0.490905 -0.457442 0
M  V30 6407 H 606.58 -1.85702 -0.856454 0
M  V30 6408 H 604.735 -1.96735 -3.33728 0
M  V30 6409 H 605.149 -4.17505 -3.17474 0
M  V30 6410 H 606.623 -3.1426 -4.53811 0
M  V30 6411 H 607.1 -1.49638 -4.12922 0
M  V30 6412 H 607.706 -2.85412 -3.1531 0
M  V30 6413 N 606.021 0.929856 -1.27246 0
M  V30 6414 C 606.951 2.04722 -1.12299 0
M  V30 6415 C 607.932 1.70082 -0.0250464 0
M  V30 6416 O 609.117 1.93176 -0.199141 0
M  V30 6417 C 606.247 3.38721 -0.767145 0
M  V30 6418 C 605.201 3.87466 -1.81808 0
M  V30 6419 C 604.527 5.18246 -1.31626 0
M  V30 6420 C 605.827 4.11095 -3.22177 0
M  V30 6421 H 607.521 2.17485 -2.05769 0
M  V30 6422 H 605.067 1.04503 -0.990715 0
M  V30 6423 H 607.02 4.16366 -0.649413 0
M  V30 6424 H 605.744 3.25967 0.203259 0
M  V30 6425 H 604.403 3.12012 -1.92468 0
M  V30 6426 H 604.051 5.01881 -0.335378 0
M  V30 6427 H 603.751 5.51829 -2.01887 0
M  V30 6428 H 605.275 5.98462 -1.21143 0
M  V30 6429 H 606.689 4.79316 -3.1453 0
M  V30 6430 H 605.086 4.55982 -3.90129 0
M  V30 6431 H 606.156 3.16468 -3.67391 0
M  V30 6432 N 607.499 1.09233 1.13605 0
M  V30 6433 C 608.409 0.741939 2.22559 0
M  V30 6434 C 609.425 -0.255236 1.72118 0
M  V30 6435 O 610.601 -0.0970747 2.01166 0
M  V30 6436 C 607.666 0.165595 3.46304 0
M  V30 6437 C 606.727 1.21846 4.11645 0
M  V30 6438 C 605.96 0.669526 5.29484 0
M  V30 6439 O 606.183 -0.508228 5.68131 0
M  V30 6440 O 605.117 1.42361 5.84822 0
M  V30 6441 H 608.943 1.65107 2.54899 0
M  V30 6442 H 606.528 0.866584 1.21699 0
M  V30 6443 H 608.41 -0.152592 4.21124 0
M  V30 6444 H 607.085 -0.716573 3.15669 0
M  V30 6445 H 605.992 1.58931 3.38662 0
M  V30 6446 H 607.325 2.07321 4.46407 0
M  V30 6447 N 608.977 -1.30795 0.87923 0
M  V30 6448 C 609.887 -2.32041 0.345565 0
M  V30 6449 C 610.903 -1.65103 -0.549265 0
M  V30 6450 O 612.079 -1.9645 -0.443763 0
M  V30 6451 C 609.144 -3.43944 -0.436245 0
M  V30 6452 C 608.205 -4.26521 0.48765 0
M  V30 6453 C 607.438 -5.33081 -0.256943 0
M  V30 6454 O 607.661 -5.50762 -1.48381 0
M  V30 6455 O 606.595 -6.00635 0.389985 0
M  V30 6456 H 610.421 -2.79627 1.18501 0
M  V30 6457 H 608.006 -1.3486 0.642885 0
M  V30 6458 H 609.888 -4.12128 -0.879119 0
M  V30 6459 H 608.563 -2.98504 -1.25208 0
M  V30 6460 H 607.47 -3.61057 0.979216 0
M  V30 6461 H 608.803 -4.75551 1.26933 0
M  V30 6462 N 610.455 -0.639598 -1.44038 0
M  V30 6463 C 611.418 0.0506628 -2.29144 0
M  V30 6464 C 612.418 0.764001 -1.41491 0
M  V30 6465 O 613.608 0.607309 -1.63271 0
M  V30 6466 C 610.74 1.0824 -3.2326 0
M  V30 6467 H 611.933 -0.697987 -2.91664 0
M  V30 6468 H 609.486 -0.400146 -1.51091 0
M  V30 6469 H 610.221 1.86075 -2.65606 0
M  V30 6470 H 610.006 0.574725 -3.87865 0
M  V30 6471 H 611.496 1.56487 -3.87171 0
M  V30 6472 N 611.933 1.52934 -0.380664 0
M  V30 6473 C 613.344 1.86457 0.0952684 0
M  V30 6474 C 613.695 1.3007 1.46889 0
M  V30 6475 O 612.82 0.628636 2.07068 0
M  V30 6476 C 613.415 3.38323 0.179648 0
M  V30 6477 C 611.974 3.71589 0.599858 0
M  V30 6478 C 611.121 2.76228 -0.243572 0
M  V30 6479 H 614.072 1.46966 -0.59888 0
M  V30 6480 H 614.093 3.67113 1.00042 0
M  V30 6481 H 613.605 3.79333 -0.820228 0
M  V30 6482 H 611.706 3.36144 1.60742 0
M  V30 6483 H 611.819 4.77715 0.364003 0
M  V30 6484 H 610.183 2.53045 0.289855 0
M  V30 6485 H 610.966 3.20074 -1.24127 0
M  V30 6486 N 613.412 0.11024 1.57214 0
M  V30 6487 C 614.659 -0.54987 1.94891 0
M  V30 6488 C 614.987 -1.67243 0.992984 0
M  V30 6489 O 614.242 -1.95694 0.0152703 0
M  V30 6490 C 614.541 -1.13102 3.39032 0
M  V30 6491 C 614.207 -0.130713 4.5071 0
M  V30 6492 C 612.869 0.14437 4.80983 0
M  V30 6493 C 615.221 0.551472 5.18274 0
M  V30 6494 C 612.549 1.10807 5.76141 0
M  V30 6495 C 614.901 1.50375 6.14467 0
M  V30 6496 C 613.565 1.78691 6.43138 0
M  V30 6497 H 612.835 -0.201212 0.713158 0
M  V30 6498 H 615.482 0.189288 1.90562 0
M  V30 6499 H 613.787 -1.94675 3.40013 0
M  V30 6500 H 615.484 -1.64973 3.65493 0
M  V30 6501 H 612.074 -0.355301 4.27125 0
M  V30 6502 H 616.258 0.35211 4.95049 0
M  V30 6503 H 611.514 1.3343 5.96663 0
M  V30 6504 H 615.688 2.03808 6.65909 0
M  V30 6505 H 613.315 2.53522 7.1668 0
M  V30 6506 N 614.89 -1.56749 -0.16351 0
M  V30 6507 C 616.136 -1.82704 -0.880168 0
M  V30 6508 C 616.469 -0.689311 -1.81555 0
M  V30 6509 O 615.744 0.308224 -1.92042 0
M  V30 6510 C 616.027 -3.19084 -1.66905 0
M  V30 6511 C 615.88 -4.43397 -0.756269 0
M  V30 6512 C 617.199 -3.52493 -2.63509 0
M  V30 6513 H 614.318 -0.664608 -0.318535 0
M  V30 6514 H 616.96 -1.89438 -0.146036 0
M  V30 6515 H 615.11 -3.13475 -2.2949 0
M  V30 6516 H 616.782 -4.61079 -0.14269 0
M  V30 6517 H 615.025 -4.33752 -0.0647944 0
M  V30 6518 H 615.696 -5.3539 -1.34393 0
M  V30 6519 H 618.172 -3.58606 -2.11047 0
M  V30 6520 H 617.048 -4.48979 -3.15767 0
M  V30 6521 H 617.309 -2.77597 -3.44082 0
M  V30 6522 N 616.368 0.432326 -1.51554 0
M  V30 6523 C 617.617 1.17831 -1.63703 0
M  V30 6524 C 617.93 1.92229 -0.36156 0
M  V30 6525 O 619.136 2.69069 -0.362495 0
M  V30 6526 C 617.592 2.14318 -2.89129 0
M  V30 6527 C 617.2 1.45544 -4.23699 0
M  V30 6528 C 618.944 2.89319 -3.10636 0
M  V30 6529 C 616.851 2.40545 -5.4027 0
M  V30 6530 H 615.781 0.443533 -0.60975 0
M  V30 6531 H 618.432 0.444878 -1.78026 0
M  V30 6532 H 616.814 2.91117 -2.68452 0
M  V30 6533 H 617.988 0.742693 -4.54775 0
M  V30 6534 H 616.303 0.826772 -4.0811 0
M  V30 6535 H 618.9 3.60495 -3.94902 0
M  V30 6536 H 619.243 3.50951 -2.23918 0
M  V30 6537 H 619.776 2.19625 -3.31677 0
M  V30 6538 H 616.515 1.83594 -6.29264 0
M  V30 6539 H 616.035 3.09859 -5.13563 0
M  V30 6540 H 617.714 3.01569 -5.72421 0
M  V30 6541 N 617.846 1.41785 0.688094 0
M  V30 6542 C 619.092 1.41753 1.4503 0
M  V30 6543 C 619.425 0.0290745 1.94178 0
M  V30 6544 O 618.7 -0.944456 1.7003 0
M  V30 6545 C 618.983 2.43069 2.65686 0
M  V30 6546 C 618.836 3.91053 2.22256 0
M  V30 6547 C 620.155 2.41543 3.67893 0
M  V30 6548 H 617.274 0.516202 0.526027 0
M  V30 6549 H 619.916 1.73111 0.783105 0
M  V30 6550 H 618.066 2.1646 3.2261 0
M  V30 6551 H 619.738 4.28594 1.70602 0
M  V30 6552 H 617.981 4.05559 1.53963 0
M  V30 6553 H 618.652 4.57501 3.08863 0
M  V30 6554 H 621.128 2.65175 3.20658 0
M  V30 6555 H 620.004 3.14434 4.49914 0
M  V30 6556 H 620.265 1.43666 4.18106 0
M  V30 6557 N 619.324 -0.923095 1.27737 0
M  V30 6558 C 620.234 -2.05765 1.12685 0
M  V30 6559 C 621.25 -1.73911 0.0557197 0
M  V30 6560 O 622.426 -1.99674 0.263137 0
M  V30 6561 C 619.491 -3.37804 0.780363 0
M  V30 6562 C 618.552 -3.83326 1.93286 0
M  V30 6563 C 617.785 -5.09064 1.60281 0
M  V30 6564 O 618.008 -5.6809 0.512828 0
M  V30 6565 O 616.942 -5.50071 2.44347 0
M  V30 6566 H 620.768 -2.21378 2.07907 0
M  V30 6567 H 618.353 -1.04299 1.06968 0
M  V30 6568 H 620.235 -4.17097 0.600668 0
M  V30 6569 H 618.91 -3.23387 -0.142291 0
M  V30 6570 H 617.817 -3.049 2.16764 0
M  V30 6571 H 619.15 -4.02292 2.83588 0
M  V30 6572 N 620.802 -1.09834 -1.13024 0
M  V30 6573 C 622.079 -0.749225 -1.80682 0
M  V30 6574 C 622.459 0.765171 -1.96744 0
M  V30 6575 O 621.807 1.68912 -1.53886 0
M  V30 6576 C 622.017 -1.49311 -3.15448 0
M  V30 6577 C 623.365 -1.66162 -3.90737 0
M  V30 6578 O 624.389 -1.45597 -3.25085 0
M  V30 6579 O 623.248 -2.00211 -5.08505 0
M  V30 6580 H 620.342 -0.269614 -0.781817 0
M  V30 6581 H 622.888 -1.20078 -1.19914 0
M  V30 6582 H 621.66 -2.52407 -2.99009 0
M  V30 6583 H 621.283 -1.034 -3.8392 0
M  V30 6584 N 622.28 1.30327 -0.886154 0
M  V30 6585 C 623.529 1.95373 -0.501243 0
M  V30 6586 C 623.842 1.70722 0.954634 0
M  V30 6587 O 625.048 2.29761 1.44644 0
M  V30 6588 C 623.504 3.49828 -0.845493 0
M  V30 6589 C 623.112 3.83296 -2.31922 0
M  V30 6590 C 624.856 4.2118 -0.529838 0
M  V30 6591 C 622.763 5.30935 -2.60504 0
M  V30 6592 H 621.693 0.731274 -0.183722 0
M  V30 6593 H 624.344 1.48258 -1.08129 0
M  V30 6594 H 622.726 3.95522 -0.19452 0
M  V30 6595 H 623.9 3.48508 -3.01461 0
M  V30 6596 H 622.215 3.2505 -2.60253 0
M  V30 6597 H 624.812 5.29825 -0.720401 0
M  V30 6598 H 625.155 4.12902 0.530828 0
M  V30 6599 H 625.688 3.81173 -1.13806 0
M  V30 6600 H 622.427 5.44265 -3.65316 0
M  V30 6601 H 621.947 5.67019 -1.95575 0
M  V30 6602 H 623.626 5.98381 -2.46066 0
M  V30 6603 N 623.758 0.647228 1.43697 0
M  V30 6604 C 625.035 0.0883758 1.954 0
M  V30 6605 C 625.415 -1.39006 1.58873 0
M  V30 6606 O 624.763 -2.11255 0.87083 0
M  V30 6607 C 624.973 0.328263 3.47453 0
M  V30 6608 C 626.321 0.230009 4.23977 0
M  V30 6609 O 627.345 0.260496 3.55246 0
M  V30 6610 O 626.204 0.148615 5.46298 0
M  V30 6611 H 623.298 -0.0130683 0.826897 0
M  V30 6612 H 625.844 0.72005 1.53666 0
M  V30 6613 H 624.616 1.3535 3.67146 0
M  V30 6614 H 624.239 -0.336772 3.96171 0
M  V30 6615 N 625.236 -1.5273 0.388769 0
M  V30 6616 C 626.647 -1.86505 -0.0853788 0
M  V30 6617 C 626.998 -1.30847 -1.46197 0
M  V30 6618 O 626.123 -0.639609 -2.06732 0
M  V30 6619 C 626.718 -3.38414 -0.161703 0
M  V30 6620 C 625.277 -3.71902 -0.580144 0
M  V30 6621 C 624.424 -2.76095 0.258218 0
M  V30 6622 H 627.375 -1.46647 0.606665 0
M  V30 6623 H 627.396 -3.67638 -0.980936 0
M  V30 6624 H 626.908 -3.78893 0.840333 0
M  V30 6625 H 625.009 -3.36992 -1.58957 0
M  V30 6626 H 625.122 -4.77902 -0.338663 0
M  V30 6627 H 623.486 -2.53195 -0.276432 0
M  V30 6628 H 624.269 -3.19411 1.25822 0
M  V30 6629 N 626.714 -0.118576 -1.57153 0
M  V30 6630 C 627.644 0.828436 -2.1831 0
M  V30 6631 C 628.625 1.27758 -1.12303 0
M  V30 6632 O 629.81 1.34026 -1.40537 0
M  V30 6633 C 626.94 2.07876 -2.78217 0
M  V30 6634 C 625.894 1.76742 -3.89803 0
M  V30 6635 C 625.22 3.08801 -4.36516 0
M  V30 6636 C 626.52 1.03606 -5.11921 0
M  V30 6637 H 628.214 0.318824 -2.97698 0
M  V30 6638 H 625.76 0.151911 -1.43196 0
M  V30 6639 H 627.713 2.74584 -3.19659 0
M  V30 6640 H 626.437 2.61161 -1.96118 0
M  V30 6641 H 625.096 1.12424 -3.48936 0
M  V30 6642 H 624.744 3.6002 -3.51276 0
M  V30 6643 H 624.444 2.88743 -5.11763 0
M  V30 6644 H 625.968 3.76627 -4.80608 0
M  V30 6645 H 627.382 1.60467 -5.50385 0
M  V30 6646 H 625.779 0.936454 -5.92748 0
M  V30 6647 H 626.849 0.0227421 -4.84895 0
M  V30 6648 N 628.193 1.56834 0.155195 0
M  V30 6649 C 629.421 1.87049 0.884326 0
M  V30 6650 C 629.836 0.705839 1.7511 0
M  V30 6651 O 629.193 -0.324641 1.79589 0
M  V30 6652 C 629.244 3.1644 1.74781 0
M  V30 6653 O 628.965 4.28417 0.915978 0
M  V30 6654 C 630.466 3.60113 2.58522 0
M  V30 6655 H 627.686 0.620196 0.25612 0
M  V30 6656 H 630.23 2.03946 0.150445 0
M  V30 6657 H 628.385 3.01321 2.43484 0
M  V30 6658 H 628.799 5.02353 1.50803 0
M  V30 6659 H 630.273 4.53508 3.14698 0
M  V30 6660 H 630.75 2.85005 3.34169 0
M  V30 6661 H 631.356 3.77898 1.95124 0
M  V30 6662 N 629.671 -0.424282 1.51781 0
M  V30 6663 C 630.581 -1.54087 1.76902 0
M  V30 6664 C 631.597 -1.61249 0.653826 0
M  V30 6665 O 632.773 -1.78247 0.937552 0
M  V30 6666 C 629.838 -2.8996 1.90063 0
M  V30 6667 C 628.899 -2.92809 3.13945 0
M  V30 6668 C 628.132 -4.22201 3.26469 0
M  V30 6669 O 628.355 -5.15286 2.44616 0
M  V30 6670 O 627.289 -4.31599 4.1953 0
M  V30 6671 H 631.115 -1.358 2.71647 0
M  V30 6672 H 628.7 -0.608618 1.36441 0
M  V30 6673 H 630.582 -3.70575 2.0063 0
M  V30 6674 H 629.257 -3.08347 0.985067 0
M  V30 6675 H 628.164 -2.11102 3.08847 0
M  V30 6676 H 629.497 -2.79369 4.05233 0
M  V30 6677 N 631.149 -1.42148 -0.680565 0
M  V30 6678 C 632.377 -1.45696 -1.46902 0
M  V30 6679 C 632.792 -0.0665858 -1.88683 0
M  V30 6680 O 632.149 0.917436 -1.57764 0
M  V30 6681 C 632.2 -2.37898 -2.72188 0
M  V30 6682 O 631.921 -3.71526 -2.32163 0
M  V30 6683 C 633.422 -2.50407 -3.65802 0
M  V30 6684 H 630.642 -0.495729 -0.45221 0
M  V30 6685 H 633.186 -1.866 -0.836709 0
M  V30 6686 H 631.341 -2.00263 -3.31622 0
M  V30 6687 H 631.755 -4.20849 -3.13027 0
M  V30 6688 H 633.229 -3.19056 -4.50452 0
M  V30 6689 H 633.706 -1.5401 -4.11312 0
M  V30 6690 H 634.312 -2.8874 -3.12265 0
M  V30 6691 N 632.627 0.916307 -1.28225 0
M  V30 6692 C 633.867 1.67964 -1.16479 0
M  V30 6693 C 634.231 1.8991 0.282494 0
M  V30 6694 O 635.432 2.63671 0.522607 0
M  V30 6695 C 633.703 3.00251 -1.93866 0
M  V30 6696 S 635.262 3.91353 -1.98465 0
M  V30 6697 H 632.08 0.576873 -0.415619 0
M  V30 6698 H 634.682 1.09006 -1.62289 0
M  V30 6699 H 633.386 2.81978 -2.98189 0
M  V30 6700 H 632.917 3.64257 -1.48595 0
M  V30 6701 H 634.932 4.84096 -1.0893 0
M  V30 6702 N 634.105 1.10431 1.1244 0
M  V30 6703 C 635.351 0.847972 1.84221 0
M  V30 6704 C 635.684 -0.624903 1.83871 0
M  V30 6705 O 634.959 -1.46074 1.28423 0
M  V30 6706 C 635.242 1.39695 3.319 0
M  V30 6707 C 635.095 2.93668 3.40704 0
M  V30 6708 C 636.414 1.03924 4.27654 0
M  V30 6709 H 633.533 0.309502 0.668863 0
M  V30 6710 H 636.175 1.36745 1.31912 0
M  V30 6711 H 634.325 0.955095 3.76577 0
M  V30 6712 H 635.997 3.46379 3.04662 0
M  V30 6713 H 634.24 3.30272 2.81252 0
M  V30 6714 H 634.911 3.27162 4.446 0
M  V30 6715 H 637.387 1.42049 3.91102 0
M  V30 6716 H 636.263 1.45027 5.29394 0
M  V30 6717 H 636.524 -0.051336 4.4207 0
M  V30 6718 N 635.583 -1.29855 0.893053 0
M  V30 6719 C 636.999 -1.48366 0.588199 0
M  V30 6720 C 637.199 -1.81654 -0.872018 0
M  V30 6721 O 636.255 -1.909 -1.65268 0
M  V30 6722 C 637.568 -2.60136 1.5083 0
M  V30 6723 C 639.116 -2.74014 1.51279 0
M  V30 6724 C 639.591 -3.88905 2.41902 0
M  V30 6725 N 641.082 -3.96228 2.39911 0
M  V30 6726 C 641.817 -4.84458 3.06738 0
M  V30 6727 N 641.313 -5.77426 3.8282 0
M  V30 6728 N 643.106 -4.77894 2.95929 0
M  V30 6729 H 635.257 -1.06522 1.83757 0
M  V30 6730 H 637.52 -0.528495 0.787018 0
M  V30 6731 H 637.226 -2.42383 2.54839 0
M  V30 6732 H 637.1 -3.56793 1.22388 0
M  V30 6733 H 639.487 -2.91167 0.480179 0
M  V30 6734 H 639.568 -1.77952 1.83757 0
M  V30 6735 H 639.212 -3.72508 3.45253 0
M  V30 6736 H 639.142 -4.84322 2.06737 0
M  V30 6737 H 641.633 -3.29728 1.84629 0
M  V30 6738 H 641.946 -6.41529 4.30883 0
M  V30 6739 H 640.291 -5.77332 3.86927 0
M  V30 6740 H 643.482 -4.04248 2.36012 0
M  V30 6741 H 643.655 -5.46444 3.48286 0
M  V30 6742 N 637.061 -0.65484 -1.43351 0
M  V30 6743 C 638.009 0.0476784 -2.32551 0
M  V30 6744 C 639.003 0.811403 -1.48703 0
M  V30 6745 O 640.209 0.721621 -1.64902 0
M  V30 6746 H 636.584 0.0342038 -0.751222 0
M  V30 6747 H 638.555 -0.722342 -2.89525 0
M  V30 6748 C 637.304 0.999251 -3.33032 0
M  V30 6749 H 636.627 0.421005 -3.97577 0
M  V30 6750 H 638.067 1.45986 -3.98076 0
M  V30 6751 C 636.526 2.09606 -2.63756 0
M  V30 6752 O 637.056 3.18004 -2.4543 0
M  V30 6753 N 635.262 1.86207 -2.23103 0
M  V30 6754 H 634.809 0.980555 -2.38208 0
M  V30 6755 H 634.767 2.59787 -1.77081 0
M  V30 6756 N 638.539 1.52521 -0.396863 0
M  V30 6757 C 639.767 2.06091 0.18275 0
M  V30 6758 C 640.182 1.26796 1.39886 0
M  V30 6759 O 639.539 0.316585 1.79733 0
M  V30 6760 C 639.59 3.57362 0.545377 0
M  V30 6761 O 639.311 4.33656 -0.622428 0
M  V30 6762 C 640.812 4.27305 1.18004 0
M  V30 6763 H 638.032 0.670504 0.025789 0
M  V30 6764 H 640.576 1.96561 -0.564276 0
M  V30 6765 H 638.731 3.66941 1.2423 0
M  V30 6766 H 639.145 5.23507 -0.322662 0
M  V30 6767 H 640.619 5.34366 1.38408 0
M  V30 6768 H 641.096 3.83 2.1496 0
M  V30 6769 H 641.702 4.22064 0.523671 0
M  V30 6770 N 640.017 0.126909 1.57088 0
M  V30 6771 C 641.263 -0.529952 1.95753 0
M  V30 6772 C 641.596 -1.65823 1.01077 0
M  V30 6773 O 640.871 -1.94437 0.0494162 0
M  V30 6774 C 641.154 -1.05517 3.44294 0
M  V30 6775 C 641.007 0.0702253 4.49745 0
M  V30 6776 C 642.326 -1.9435 3.94862 0
M  V30 6777 H 639.445 -0.191168 0.711775 0
M  V30 6778 H 642.087 0.204071 1.88901 0
M  V30 6779 H 640.237 -1.68069 3.50264 0
M  V30 6780 H 641.909 0.705834 4.55868 0
M  V30 6781 H 640.152 0.732259 4.27575 0
M  V30 6782 H 640.823 -0.338642 5.5096 0
M  V30 6783 H 643.299 -1.41658 3.91244 0
M  V30 6784 H 642.175 -2.28015 4.993 0
M  V30 6785 H 642.436 -2.87299 3.36024 0
M  V30 6786 N 641.495 -1.56914 -0.146875 0
M  V30 6787 C 642.906 -1.72799 -0.706928 0
M  V30 6788 C 643.257 -0.741329 -1.81656 0
M  V30 6789 O 642.382 0.0920162 -2.16204 0
M  V30 6790 C 642.977 -3.13317 -1.28911 0
M  V30 6791 C 641.536 -3.30803 -1.79573 0
M  V30 6792 C 640.683 -2.68725 -0.684252 0
M  V30 6793 H 643.634 -1.58504 0.0787931 0
M  V30 6794 H 643.655 -3.13323 -2.15891 0
M  V30 6795 H 643.167 -3.85104 -0.481284 0
M  V30 6796 H 641.268 -2.64012 -2.62923 0
M  V30 6797 H 641.381 -4.38754 -1.92436 0
M  V30 6798 H 639.745 -2.29196 -1.11091 0
M  V30 6799 H 640.528 -3.43117 0.112134 0
M  V30 6800 N 642.974 0.416227 -1.52004 0
M  V30 6801 C 644.214 1.17307 -1.67387 0
M  V30 6802 C 644.578 1.87959 -0.39183 0
M  V30 6803 O 645.779 2.65472 -0.421671 0
M  V30 6804 C 644.05 2.14661 -2.85754 0
M  V30 6805 S 645.609 2.98549 -3.21581 0
M  V30 6806 H 642.427 0.397505 -0.5895 0
M  V30 6807 H 645.029 0.461431 -1.89976 0
M  V30 6808 H 643.733 1.61431 -3.77317 0
M  V30 6809 H 643.264 2.90375 -2.65417 0
M  V30 6810 H 645.279 4.16536 -2.69652 0
M  V30 6811 N 644.452 1.42507 0.673017 0
M  V30 6812 C 645.868 1.25472 0.986355 0
M  V30 6813 C 646.068 0.160181 2.00862 0
M  V30 6814 O 645.124 -0.467993 2.48125 0
M  V30 6815 C 646.437 2.61219 1.48947 0
M  V30 6816 C 647.985 2.68589 1.60715 0
M  V30 6817 C 648.46 4.04707 2.14422 0
M  V30 6818 N 649.951 4.0667 2.21752 0
M  V30 6819 C 650.686 5.0881 2.64386 0
M  V30 6820 N 650.182 6.21332 3.0646 0
M  V30 6821 N 651.975 4.96166 2.64151 0
M  V30 6822 H 644.126 2.124 -0.00378532 0
M  V30 6823 H 646.389 0.946046 0.0608367 0
M  V30 6824 H 646.095 3.42179 0.812812 0
M  V30 6825 H 645.969 2.85261 2.46791 0
M  V30 6826 H 648.356 1.87974 2.27486 0
M  V30 6827 H 648.437 2.48333 0.613552 0
M  V30 6828 H 648.081 4.8578 1.48258 0
M  V30 6829 H 648.011 4.22315 3.14575 0
M  V30 6830 H 650.502 3.25438 1.92089 0
M  V30 6831 H 650.815 6.95118 3.37684 0
M  V30 6832 H 649.16 6.24835 3.04313 0
M  V30 6833 H 652.351 4.07334 2.30644 0
M  V30 6834 H 652.524 5.759 2.97057 0
M  V30 6835 N 645.93 -0.909495 1.28709 0
M  V30 6836 C 646.877 -2.01245 1.13 0
M  V30 6837 C 647.847 -1.6608 0.0259684 0
M  V30 6838 O 649.032 -1.89835 0.191687 0
M  V30 6839 C 646.172 -3.35644 0.802315 0
M  V30 6840 C 645.285 -3.83653 1.98582 0
M  V30 6841 C 644.42 -5.06582 1.59837 0
M  V30 6842 C 643.459 -5.46934 2.74827 0
M  V30 6843 N 642.596 -6.61053 2.36546 0
M  V30 6844 H 647.436 -2.14013 2.0737 0
M  V30 6845 H 644.973 -1.0482 1.03205 0
M  V30 6846 H 646.931 -4.12963 0.593057 0
M  V30 6847 H 645.561 -3.22631 -0.104457 0
M  V30 6848 H 644.613 -3.02454 2.30708 0
M  V30 6849 H 645.925 -4.09515 2.84779 0
M  V30 6850 H 645.079 -5.91457 1.35143 0
M  V30 6851 H 643.818 -4.82537 0.707753 0
M  V30 6852 H 642.823 -4.60599 3.00215 0
M  V30 6853 H 644.048 -5.72965 3.64538 0
M  V30 6854 H 641.994 -6.3863 1.49959 0
M  V30 6855 H 641.911 -6.86662 3.16277 0
M  V30 6856 H 643.179 -7.49221 2.15146 0
M  V30 6857 N 647.408 -1.11026 -1.11852 0
M  V30 6858 C 648.655 -0.85646 -1.83497 0
M  V30 6859 C 648.983 0.617938 -1.84423 0
M  V30 6860 O 648.238 1.47194 -1.28966 0
M  V30 6861 C 648.537 -1.35777 -3.30604 0
M  V30 6862 C 648.203 -2.84465 -3.49843 0
M  V30 6863 C 646.865 -3.25068 -3.54802 0
M  V30 6864 C 649.217 -3.80251 -3.56453 0
M  V30 6865 C 646.545 -4.60194 -3.63921 0
M  V30 6866 C 648.897 -5.15188 -3.67102 0
M  V30 6867 C 647.561 -5.55356 -3.70319 0
M  V30 6868 H 646.831 -0.313401 -0.671462 0
M  V30 6869 H 649.478 -1.38792 -1.31943 0
M  V30 6870 H 647.783 -0.746455 -3.84624 0
M  V30 6871 H 649.48 -1.13779 -3.8452 0
M  V30 6872 H 646.07 -2.52054 -3.46651 0
M  V30 6873 H 650.254 -3.49986 -3.51886 0
M  V30 6874 H 645.51 -4.90728 -3.64686 0
M  V30 6875 H 649.684 -5.89248 -3.71159 0
M  V30 6876 H 647.311 -6.60054 -3.77138 0
M  V30 6877 N 648.886 1.2938 -0.899927 0
M  V30 6878 C 650.132 1.9584 -0.526742 0
M  V30 6879 C 650.465 1.70774 0.924651 0
M  V30 6880 O 649.74 1.02084 1.65557 0
M  V30 6881 C 650.023 3.50638 -0.820062 0
M  V30 6882 C 649.876 3.85161 -2.32317 0
M  V30 6883 C 651.195 4.3903 -0.30671 0
M  V30 6884 H 648.314 0.711322 -0.192848 0
M  V30 6885 H 650.956 1.52992 -1.12665 0
M  V30 6886 H 649.106 3.87265 -0.309491 0
M  V30 6887 H 650.778 3.58477 -2.9033 0
M  V30 6888 H 649.021 3.32696 -2.78381 0
M  V30 6889 H 649.692 4.93204 -2.47898 0
M  V30 6890 H 652.168 4.09396 -0.743908 0
M  V30 6891 H 651.044 5.46226 -0.541144 0
M  V30 6892 H 651.305 4.34937 0.792588 0
M  V30 6893 N 650.364 0.662433 1.43002 0
M  V30 6894 C 651.311 -0.0235324 2.30788 0
M  V30 6895 C 652.281 -0.805342 1.4527 0
M  V30 6896 O 653.466 -0.78009 1.74124 0
M  V30 6897 C 650.606 -0.977545 3.30965 0
M  V30 6898 C 649.719 -0.190865 4.31578 0
M  V30 6899 C 648.854 -1.13951 5.18834 0
M  V30 6900 C 647.893 -0.343796 6.11134 0
M  V30 6901 N 647.03 -1.2445 6.90982 0
M  V30 6902 H 651.87 0.730921 2.88897 0
M  V30 6903 H 649.407 0.372197 1.42313 0
M  V30 6904 H 651.365 -1.54437 3.87563 0
M  V30 6905 H 649.995 -1.69877 2.74484 0
M  V30 6906 H 649.047 0.492388 3.772 0
M  V30 6907 H 650.359 0.427464 4.96965 0
M  V30 6908 H 649.513 -1.77666 5.80103 0
M  V30 6909 H 648.252 -1.79174 4.53595 0
M  V30 6910 H 647.257 0.30665 5.48944 0
M  V30 6911 H 648.482 0.304161 6.78419 0
M  V30 6912 H 646.428 -1.88336 6.28383 0
M  V30 6913 H 646.345 -0.680959 7.52927 0
M  V30 6914 H 647.613 -1.86952 7.56749 0
M  V30 6915 N 651.842 -1.52309 0.404946 0
M  V30 6916 C 653.091 -2.00952 -0.173529 0
M  V30 6917 C 653.404 -1.29512 -1.46581 0
M  V30 6918 O 654.61 -1.6895 -2.12528 0
M  V30 6919 C 653.066 -3.58097 -0.359801 0
M  V30 6920 C 652.674 -4.38449 0.920138 0
M  V30 6921 C 654.418 -4.14984 -0.893794 0
M  V30 6922 C 652.325 -5.87227 0.701285 0
M  V30 6923 H 651.255 -0.750871 -0.0686244 0
M  V30 6924 H 653.906 -1.75687 0.529749 0
M  V30 6925 H 652.288 -3.79675 -1.12531 0
M  V30 6926 H 653.462 -4.28633 1.69147 0
M  V30 6927 H 651.777 -3.92859 1.38024 0
M  V30 6928 H 654.374 -5.23813 -1.0735 0
M  V30 6929 H 654.717 -3.72072 -1.8673 0
M  V30 6930 H 655.25 -3.97358 -0.187453 0
M  V30 6931 H 651.989 -6.34491 1.64624 0
M  V30 6932 H 651.509 -5.99792 -0.0308288 0
M  V30 6933 H 653.188 -6.46096 0.341846 0
M  V30 6934 N 653.32 -0.135238 -1.57019 0
M  V30 6935 C 654.268 0.826099 -2.17436 0
M  V30 6936 C 655.262 1.26378 -1.12805 0
M  V30 6937 O 656.468 1.23363 -1.31079 0
M  V30 6938 H 652.843 0.284568 -0.696078 0
M  V30 6939 H 654.814 0.292212 -2.96966 0
M  V30 6940 C 653.563 2.05991 -2.80112 0
M  V30 6941 H 652.886 1.73209 -3.60331 0
M  V30 6942 H 654.326 2.71225 -3.25903 0
M  V30 6943 C 652.785 2.86027 -1.78017 0
M  V30 6944 O 653.315 3.81971 -1.24344 0
M  V30 6945 N 651.521 2.50332 -1.47588 0
M  V30 6946 H 651.068 1.72377 -1.91426 0
M  V30 6947 H 651.026 3.04177 -0.795228 0
M  V30 6948 N 654.798 1.5699 0.138552 0
M  V30 6949 C 655.746 1.99858 1.18994 0
M  V30 6950 C 656.74 0.89231 1.43994 0
M  V30 6951 O 657.946 1.0775 1.44187 0
M  V30 6952 H 654.321 0.636325 0.400743 0
M  V30 6953 H 656.292 2.87427 0.801755 0
M  V30 6954 C 655.041 2.40235 2.51361 0
M  V30 6955 H 654.364 3.24917 2.32957 0
M  V30 6956 H 655.804 2.74045 3.23535 0
M  V30 6957 C 654.263 1.25829 3.1252 0
M  V30 6958 O 654.793 0.563604 3.97727 0
M  V30 6959 N 652.999 1.02036 2.72097 0
M  V30 6960 H 652.546 1.58705 2.02905 0
M  V30 6961 H 652.504 0.256796 3.1335 0
M  V30 6962 N 656.276 -0.40816 1.52223 0
M  V30 6963 C 657.501 -1.18127 1.70472 0
M  V30 6964 C 657.926 -1.83491 0.41384 0
M  V30 6965 O 657.284 -1.70047 -0.628778 0
M  V30 6966 C 657.332 -2.21935 2.84213 0
M  V30 6967 O 656.436 -3.28099 2.4985 0
M  V30 6968 H 655.777 -0.344781 0.56747 0
M  V30 6969 H 658.307 -0.478328 1.9893 0
M  V30 6970 H 658.317 -2.66248 3.09153 0
M  V30 6971 H 656.992 -1.73744 3.7787 0
M  V30 6972 H 655.569 -2.89058 2.35584 0
M  V30 6973 N 657.755 -1.42862 -0.66545 0
M  V30 6974 C 658.983 -1.47246 -1.45349 0
M  V30 6975 C 659.398 -0.0865944 -1.88601 0
M  V30 6976 O 658.755 0.900652 -1.58728 0
M  V30 6977 C 658.806 -2.40772 -2.6965 0
M  V30 6978 O 658.527 -3.73968 -2.2821 0
M  V30 6979 C 660.028 -2.54272 -3.63126 0
M  V30 6980 H 657.248 -0.500497 -0.446927 0
M  V30 6981 H 659.792 -1.87477 -0.816871 0
M  V30 6982 H 657.947 -2.0377 -3.29479 0
M  V30 6983 H 658.361 -4.24146 -3.08546 0
M  V30 6984 H 659.835 -3.23815 -4.47043 0
M  V30 6985 H 660.312 -1.58364 -4.09656 0
M  V30 6986 H 660.918 -2.92036 -3.09185 0
M  V30 6987 N 659.233 0.902656 -1.29189 0
M  V30 6988 C 660.181 2.0278 -1.13943 0
M  V30 6989 C 661.175 1.69308 -0.055787 0
M  V30 6990 O 662.381 1.78707 -0.215371 0
M  V30 6991 H 658.756 0.664595 -0.351877 0
M  V30 6992 H 660.727 2.12778 -2.09208 0
M  V30 6993 C 659.476 3.37657 -0.82966 0
M  V30 6994 H 658.799 3.63913 -1.65551 0
M  V30 6995 H 660.239 4.17078 -0.762998 0
M  V30 6996 C 658.698 3.33648 0.466991 0
M  V30 6997 O 659.228 3.72886 1.49395 0
M  V30 6998 N 657.434 2.86745 0.471761 0
M  V30 6999 H 656.981 2.55009 -0.364406 0
M  V30 7000 H 656.939 2.84446 1.33933 0
M  V30 7001 N 660.711 1.11618 1.11262 0
M  V30 7002 C 661.621 0.78898 2.20935 0
M  V30 7003 C 662.637 -0.21867 1.7262 0
M  V30 7004 O 663.813 -0.0543826 2.01327 0
M  V30 7005 C 660.878 0.239014 3.45875 0
M  V30 7006 C 659.939 1.3055 4.08968 0
M  V30 7007 C 659.172 0.781687 5.27944 0
M  V30 7008 O 659.395 -0.387605 5.69082 0
M  V30 7009 O 658.329 1.54734 5.81671 0
M  V30 7010 H 662.155 1.70477 2.51339 0
M  V30 7011 H 659.74 0.892203 1.19834 0
M  V30 7012 H 661.622 -0.0632312 4.21353 0
M  V30 7013 H 660.297 -0.649454 3.17118 0
M  V30 7014 H 659.204 1.66079 3.35214 0
M  V30 7015 H 660.537 2.16743 4.41909 0
M  V30 7016 N 662.189 -1.289 0.906776 0
M  V30 7017 C 663.437 -1.94883 0.535266 0
M  V30 7018 C 663.758 -1.71784 -0.922791 0
M  V30 7019 O 663.028 -1.05359 -1.65156 0
M  V30 7020 H 661.608 -0.721109 0.194962 0
M  V30 7021 H 664.27 -1.57018 1.15461 0
M  V30 7022 H 663.366 -3.03591 0.723821 0
M  V30 7023 N 663.667 -0.670007 -1.42649 0
M  V30 7024 C 664.6 0.0613623 -2.28117 0
M  V30 7025 C 665.578 0.813414 -1.40792 0
M  V30 7026 O 666.762 0.809529 -1.70232 0
M  V30 7027 C 663.889 1.09399 -3.20546 0
M  V30 7028 C 662.935 0.438064 -4.24244 0
M  V30 7029 S 663.768 -0.800808 -5.29478 0
M  V30 7030 C 664.924 0.23086 -6.25474 0
M  V30 7031 H 665.157 -0.663606 -2.89799 0
M  V30 7032 H 662.69 -0.45939 -1.47407 0
M  V30 7033 H 664.648 1.68469 -3.74337 0
M  V30 7034 H 663.309 1.79137 -2.58009 0
M  V30 7035 H 662.502 1.21707 -4.89084 0
M  V30 7036 H 662.104 -0.0789346 -3.73917 0
M  V30 7037 H 664.396 1.09204 -6.68641 0
M  V30 7038 H 665.339 -0.382945 -7.07064 0
M  V30 7039 H 665.747 0.574191 -5.61572 0
M  V30 7040 N 665.145 1.52092 -0.413018 0
M  V30 7041 C 666.093 2.28681 0.425199 0
M  V30 7042 C 667.087 1.3353 1.04241 0
M  V30 7043 O 668.293 1.50973 0.980166 0
M  V30 7044 H 664.668 0.735661 0.155906 0
M  V30 7045 H 666.639 2.97418 -0.241926 0
M  V30 7046 C 665.388 3.1235 1.5275 0
M  V30 7047 H 664.711 3.85439 1.06191 0
M  V30 7048 H 666.151 3.69038 2.08774 0
M  V30 7049 C 664.61 2.26161 2.49706 0
M  V30 7050 O 665.14 1.90452 3.53682 0
M  V30 7051 N 663.346 1.89854 2.20008 0
M  V30 7052 H 662.893 2.19092 1.35486 0
M  V30 7053 H 662.851 1.3248 2.85125 0
M  V30 7054 N 666.623 0.143563 1.56945 0
M  V30 7055 C 667.869 -0.50916 1.96304 0
M  V30 7056 C 668.202 -1.64741 1.0283 0
M  V30 7057 O 667.477 -1.94374 0.0700361 0
M  V30 7058 C 667.76 -1.0186 3.45393 0
M  V30 7059 C 667.613 0.117923 4.49645 0
M  V30 7060 C 668.932 -1.90151 3.96901 0
M  V30 7061 H 666.051 -0.183608 0.713763 0
M  V30 7062 H 668.693 0.224095 1.88674 0
M  V30 7063 H 666.843 -1.64345 3.52027 0
M  V30 7064 H 668.515 0.754145 4.55094 0
M  V30 7065 H 666.758 0.777568 4.26774 0
M  V30 7066 H 667.429 -0.280187 5.51288 0
M  V30 7067 H 669.905 -1.375 3.92725 0
M  V30 7068 H 668.781 -2.22707 5.0169 0
M  V30 7069 H 669.042 -2.83718 3.39052 0
M  V30 7070 N 668.101 -1.57061 -0.130224 0
M  V30 7071 C 669.048 -1.99517 -1.16024 0
M  V30 7072 C 670.018 -0.865452 -1.41771 0
M  V30 7073 O 671.203 -1.12882 -1.53826 0
M  V30 7074 C 668.343 -2.3951 -2.48453 0
M  V30 7075 C 667.456 -3.65848 -2.29737 0
M  V30 7076 C 666.591 -3.9487 -3.55318 0
M  V30 7077 C 665.63 -5.14426 -3.31711 0
M  V30 7078 N 664.767 -5.39375 -4.49466 0
M  V30 7079 H 669.607 -2.87305 -0.791194 0
M  V30 7080 H 667.144 -1.42129 -0.379195 0
M  V30 7081 H 669.102 -2.60731 -3.25692 0
M  V30 7082 H 667.732 -1.54779 -2.83272 0
M  V30 7083 H 666.784 -3.52307 -1.4347 0
M  V30 7084 H 668.096 -4.53241 -2.08263 0
M  V30 7085 H 667.25 -4.16679 -4.4098 0
M  V30 7086 H 665.989 -3.05931 -3.79813 0
M  V30 7087 H 664.994 -4.92473 -2.44439 0
M  V30 7088 H 666.219 -6.04933 -3.08598 0
M  V30 7089 H 664.165 -4.53391 -4.74102 0
M  V30 7090 H 664.082 -6.21069 -4.31055 0
M  V30 7091 H 665.35 -5.65694 -5.36293 0
M  V30 7092 N 669.579 0.400081 -1.52437 0
M  V30 7093 C 670.526 1.48803 -1.76426 0
M  V30 7094 C 671.496 1.5461 -0.607032 0
M  V30 7095 O 672.681 1.71041 -0.845563 0
M  V30 7096 C 669.821 2.86156 -1.92896 0
M  V30 7097 C 668.934 2.89587 -3.20567 0
M  V30 7098 C 668.069 4.18296 -3.27417 0
M  V30 7099 C 667.108 4.15736 -4.49255 0
M  V30 7100 N 666.245 5.36032 -4.53447 0
M  V30 7101 H 671.085 1.27649 -2.69276 0
M  V30 7102 H 668.622 0.619451 -1.33421 0
M  V30 7103 H 670.58 3.65901 -2.00429 0
M  V30 7104 H 669.21 3.05785 -1.03418 0
M  V30 7105 H 668.262 2.02278 -3.22161 0
M  V30 7106 H 669.574 2.83562 -4.10358 0
M  V30 7107 H 668.728 5.06439 -3.34072 0
M  V30 7108 H 667.467 4.27028 -2.35581 0
M  V30 7109 H 666.472 3.25982 -4.42737 0
M  V30 7110 H 667.697 4.08636 -5.42396 0
M  V30 7111 H 665.643 5.45415 -3.64498 0
M  V30 7112 H 665.56 5.32038 -5.37096 0
M  V30 7113 H 666.828 6.26104 -4.64343 0
M  V30 7114 N 671.057 1.43213 0.657864 0
M  V30 7115 C 672.297 1.46083 1.42965 0
M  V30 7116 C 672.661 0.0809712 1.91829 0
M  V30 7117 O 673.862 -0.0156305 2.68795 0
M  V30 7118 C 672.133 2.47044 2.58271 0
M  V30 7119 S 673.692 2.68753 3.46868 0
M  V30 7120 H 670.51 0.517015 0.488074 0
M  V30 7121 H 673.112 1.79945 0.764213 0
M  V30 7122 H 671.816 3.46044 2.20639 0
M  V30 7123 H 671.347 2.14665 3.2967 0
M  V30 7124 H 673.362 1.98329 4.54841 0
M  V30 7125 N 672.536 -0.895792 1.29666 0
M  V30 7126 C 673.776 -1.6609 1.19136 0
M  V30 7127 C 674.14 -1.90336 -0.252245 0
M  V30 7128 O 675.341 -2.64469 -0.480593 0
M  V30 7129 C 673.612 -2.97129 1.98618 0
M  V30 7130 S 675.171 -3.88146 2.04666 0
M  V30 7131 H 671.989 -0.570188 0.424744 0
M  V30 7132 H 674.591 -1.06411 1.64003 0
M  V30 7133 H 673.295 -2.77199 3.02637 0
M  V30 7134 H 672.826 -3.61847 1.54371 0
M  V30 7135 H 674.841 -4.82301 1.16618 0
M  V30 7136 N 674.014 -1.12206 -1.10668 0
M  V30 7137 C 674.961 -0.787716 -2.16942 0
M  V30 7138 C 675.931 0.244442 -1.64291 0
M  V30 7139 O 677.116 0.119558 -1.90425 0
M  V30 7140 C 674.256 -0.24584 -3.44223 0
M  V30 7141 C 673.369 -1.33552 -4.10838 0
M  V30 7142 C 672.504 -0.753337 -5.25831 0
M  V30 7143 C 671.543 -1.82231 -5.84344 0
M  V30 7144 N 670.68 -1.25902 -6.90719 0
M  V30 7145 H 675.52 -1.69809 -2.44885 0
M  V30 7146 H 673.057 -0.847862 -1.20207 0
M  V30 7147 H 675.015 0.0863639 -4.17111 0
M  V30 7148 H 673.645 0.627702 -3.16638 0
M  V30 7149 H 672.697 -1.78454 -3.35944 0
M  V30 7150 H 674.009 -2.14396 -4.50373 0
M  V30 7151 H 673.163 -0.37166 -6.05561 0
M  V30 7152 H 671.902 0.0863297 -4.87624 0
M  V30 7153 H 670.907 -2.2132 -5.03287 0
M  V30 7154 H 672.132 -2.66515 -6.24617 0
M  V30 7155 H 670.078 -0.44114 -6.54515 0
M  V30 7156 H 669.995 -2.00408 -7.28953 0
M  V30 7157 H 671.263 -0.904498 -7.74235 0
M  V30 7158 N 675.492 1.28418 -0.913599 0
M  V30 7159 C 676.74 1.94596 -0.545594 0
M  V30 7160 C 677.061 1.7227 0.913668 0
M  V30 7161 O 676.331 1.06233 1.64595 0
M  V30 7162 H 674.911 0.720065 -0.198783 0
M  V30 7163 H 677.573 1.56404 -1.16292 0
M  V30 7164 H 676.669 3.03202 -0.739911 0
M  V30 7165 N 676.97 0.677563 1.42291 0
M  V30 7166 C 678.217 0.200975 2.015 0
M  V30 7167 C 678.545 -1.19342 1.53583 0
M  V30 7168 O 677.8 -1.81579 0.7299 0
M  V30 7169 C 678.099 0.187229 3.56909 0
M  V30 7170 C 677.765 1.52667 4.24268 0
M  V30 7171 C 676.427 1.89341 4.42384 0
M  V30 7172 C 678.779 2.40869 4.62203 0
M  V30 7173 C 676.107 3.13836 4.95705 0
M  V30 7174 C 678.459 3.64679 5.16906 0
M  V30 7175 C 677.123 4.01519 5.33234 0
M  V30 7176 H 676.393 0.0735418 0.737342 0
M  V30 7177 H 679.04 0.873095 1.70439 0
M  V30 7178 H 677.345 -0.568407 3.87655 0
M  V30 7179 H 679.042 -0.198773 4.00507 0
M  V30 7180 H 675.632 1.23138 4.1053 0
M  V30 7181 H 679.816 2.1382 4.47878 0
M  V30 7182 H 675.072 3.42396 5.06532 0
M  V30 7183 H 679.246 4.33224 5.45243 0
M  V30 7184 H 676.873 4.98062 5.74316 0
M  V30 7185 N 678.448 -1.51871 0.421078 0
M  V30 7186 C 679.688 -2.03848 -0.150167 0
M  V30 7187 C 680.052 -1.29925 -1.41363 0
M  V30 7188 O 681.253 -1.7219 -2.06408 0
M  V30 7189 C 679.524 -3.55374 -0.38003 0
M  V30 7190 S 681.083 -4.29111 -0.917011 0
M  V30 7191 H 677.901 -0.709904 -0.0394639 0
M  V30 7192 H 680.503 -1.86799 0.576746 0
M  V30 7193 H 679.207 -4.0675 0.546122 0
M  V30 7194 H 678.738 -3.76687 -1.13448 0
M  V30 7195 H 680.753 -4.44944 -2.19635 0
M  V30 7196 N 679.926 -0.151884 -1.56866 0
M  V30 7197 C 681.175 0.497992 -1.95456 0
M  V30 7198 C 681.488 1.6569 -1.03953 0
M  V30 7199 O 682.694 2.37173 -1.32142 0
M  V30 7200 C 681.15 0.93732 -3.4748 0
M  V30 7201 C 680.758 -0.194921 -4.47576 0
M  V30 7202 C 682.502 1.55671 -3.94926 0
M  V30 7203 C 680.409 0.26295 -5.90815 0
M  V30 7204 H 679.339 0.189811 -0.729717 0
M  V30 7205 H 681.99 -0.237011 -1.81963 0
M  V30 7206 H 680.372 1.72773 -3.56322 0
M  V30 7207 H 681.546 -0.971951 -4.50433 0
M  V30 7208 H 679.861 -0.72303 -4.10075 0
M  V30 7209 H 682.458 1.91099 -4.99385 0
M  V30 7210 H 682.801 2.44748 -3.36755 0
M  V30 7211 H 683.334 0.831109 -3.89021 0
M  V30 7212 H 680.073 -0.592568 -6.52816 0
M  V30 7213 H 679.593 1.00575 -5.91308 0
M  V30 7214 H 681.272 0.713333 -6.43056 0
M  V30 7215 N 681.404 1.57128 0.121893 0
M  V30 7216 C 682.681 1.75664 0.860327 0
M  V30 7217 C 683.061 0.726585 1.98202 0
M  V30 7218 O 682.409 -0.24999 2.27128 0
M  V30 7219 C 682.619 3.20571 1.37968 0
M  V30 7220 C 683.967 3.82988 1.83317 0
M  V30 7221 O 684.991 3.24156 1.47654 0
M  V30 7222 O 683.85 4.86393 2.49168 0
M  V30 7223 H 680.944 0.719153 0.408348 0
M  V30 7224 H 683.49 1.6937 0.105859 0
M  V30 7225 H 682.262 3.87056 0.57477 0
M  V30 7226 H 681.885 3.31392 2.19694 0
M  V30 7227 N 682.882 -0.391992 1.52647 0
M  V30 7228 C 684.131 -1.13449 1.6677 0
M  V30 7229 C 684.444 -1.91203 0.412399 0
M  V30 7230 O 685.65 -2.68013 0.433707 0
M  V30 7231 C 684.106 -2.06577 2.9471 0
M  V30 7232 C 683.714 -1.3426 4.27409 0
M  V30 7233 C 685.458 -2.80981 3.18198 0
M  V30 7234 C 683.365 -2.26136 5.46458 0
M  V30 7235 H 682.295 -0.427211 0.621295 0
M  V30 7236 H 684.946 -0.397522 1.79142 0
M  V30 7237 H 683.328 -2.83898 2.76076 0
M  V30 7238 H 684.502 -0.621856 4.56585 0
M  V30 7239 H 682.817 -0.718279 4.10158 0
M  V30 7240 H 685.414 -3.49898 4.04321 0
M  V30 7241 H 685.757 -3.44891 2.33144 0
M  V30 7242 H 686.29 -2.10754 3.37383 0
M  V30 7243 H 683.029 -1.66846 6.33911 0
M  V30 7244 H 682.549 -2.96134 5.21598 0
M  V30 7245 H 684.228 -2.86286 5.80215 0
M  V30 7246 N 684.36 -1.4356 -0.65026 0
M  V30 7247 C 685.29 -1.51758 -1.77459 0
M  V30 7248 C 686.271 -0.372019 -1.65982 0
M  V30 7249 O 687.456 -0.589627 -1.85033 0
M  V30 7250 C 684.586 -1.44302 -3.15902 0
M  V30 7251 C 683.54 -2.57138 -3.42146 0
M  V30 7252 C 682.866 -2.34735 -4.8042 0
M  V30 7253 C 684.166 -3.99373 -3.36598 0
M  V30 7254 H 685.86 -2.45863 -1.70855 0
M  V30 7255 H 683.406 -1.18333 -0.820566 0
M  V30 7256 H 685.359 -1.48641 -3.94314 0
M  V30 7257 H 684.083 -0.467026 -3.23244 0
M  V30 7258 H 682.742 -2.52157 -2.66106 0
M  V30 7259 H 682.39 -1.35372 -4.84441 0
M  V30 7260 H 682.09 -3.10375 -4.9894 0
M  V30 7261 H 683.614 -2.40862 -5.61086 0
M  V30 7262 H 685.028 -4.05826 -4.04942 0
M  V30 7263 H 683.425 -4.75063 -3.66654 0
M  V30 7264 H 684.495 -4.243 -2.34729 0
M  V30 7265 N 685.838 0.888903 -1.30139 0
M  V30 7266 C 686.785 1.99422 -1.16188 0
M  V30 7267 C 687.755 1.66017 -0.0523869 0
M  V30 7268 O 688.94 1.89506 -0.221864 0
M  V30 7269 C 686.08 3.34325 -0.855612 0
M  V30 7270 C 685.193 3.80445 -2.0466 0
M  V30 7271 C 684.328 5.03975 -1.67876 0
M  V30 7272 C 683.367 5.42492 -2.83493 0
M  V30 7273 N 682.504 6.57206 -2.47032 0
M  V30 7274 H 687.344 2.10687 -2.10749 0
M  V30 7275 H 684.881 1.03165 -1.04859 0
M  V30 7276 H 686.839 4.11968 -0.658681 0
M  V30 7277 H 685.469 3.22756 0.0531155 0
M  V30 7278 H 684.521 2.98745 -2.3549 0
M  V30 7279 H 685.833 4.04933 -2.91257 0
M  V30 7280 H 684.987 5.89232 -1.44535 0
M  V30 7281 H 683.726 4.8135 -0.784431 0
M  V30 7282 H 682.731 4.55764 -3.07505 0
M  V30 7283 H 683.956 5.67093 -3.73607 0
M  V30 7284 H 681.902 6.36164 -1.601 0
M  V30 7285 H 681.819 6.81543 -3.27161 0
M  V30 7286 H 683.087 7.45704 -2.27038 0
M  V30 7287 N 687.317 1.12792 1.10072 0
M  V30 7288 C 688.264 0.79921 2.16521 0
M  V30 7289 C 689.234 -0.235726 1.64419 0
M  V30 7290 O 690.419 -0.109457 1.90486 0
M  V30 7291 C 687.559 0.264091 3.44088 0
M  V30 7292 C 686.672 1.35729 4.10124 0
M  V30 7293 C 685.807 0.781212 5.25424 0
M  V30 7294 C 684.846 1.85327 5.8337 0
M  V30 7295 N 683.983 1.29564 6.90042 0
M  V30 7296 H 688.823 1.71105 2.43981 0
M  V30 7297 H 686.36 0.854225 1.19756 0
M  V30 7298 H 688.318 -0.0642423 4.17151 0
M  V30 7299 H 686.948 -0.610901 3.16967 0
M  V30 7300 H 686 1.80234 3.34993 0
M  V30 7301 H 687.312 2.16782 4.4923 0
M  V30 7302 H 686.466 0.403769 6.05355 0
M  V30 7303 H 685.205 -0.0604686 4.87663 0
M  V30 7304 H 684.21 2.23986 5.02106 0
M  V30 7305 H 685.435 2.69824 6.23195 0
M  V30 7306 H 683.381 0.475844 6.54272 0
M  V30 7307 H 683.298 2.04271 7.2788 0
M  V30 7308 H 684.566 0.945545 7.73744 0
M  V30 7309 N 688.795 -1.27931 0.920396 0
M  V30 7310 C 689.725 -2.29487 0.431024 0
M  V30 7311 C 690.706 -1.62435 -0.504861 0
M  V30 7312 O 691.891 -1.89797 -0.411176 0
M  V30 7313 C 689.021 -3.45788 -0.323709 0
M  V30 7314 C 687.975 -4.24784 0.523658 0
M  V30 7315 C 687.301 -5.33488 -0.359809 0
M  V30 7316 C 688.601 -4.90874 1.78437 0
M  V30 7317 H 690.295 -2.70671 1.27975 0
M  V30 7318 H 687.841 -1.30121 0.616813 0
M  V30 7319 H 689.794 -4.15927 -0.676952 0
M  V30 7320 H 688.518 -3.03502 -1.2064 0
M  V30 7321 H 687.177 -3.56382 0.85951 0
M  V30 7322 H 686.825 -4.87445 -1.24124 0
M  V30 7323 H 686.525 -5.87247 0.203605 0
M  V30 7324 H 688.049 -6.06472 -0.708787 0
M  V30 7325 H 689.463 -5.53339 1.49963 0
M  V30 7326 H 687.86 -5.54659 2.29071 0
M  V30 7327 H 688.93 -4.14988 2.50824 0
M  V30 7328 N 690.273 -0.685099 -1.4193 0
M  V30 7329 C 691.498 -0.218842 -2.06242 0
M  V30 7330 C 691.923 1.11923 -1.51178 0
M  V30 7331 O 691.281 1.69837 -0.634446 0
M  V30 7332 C 691.329 -0.175592 -3.60172 0
M  V30 7333 O 690.433 0.852776 -4.03487 0
M  V30 7334 H 689.774 -0.109531 -0.654904 0
M  V30 7335 H 692.304 -0.937013 -1.81882 0
M  V30 7336 H 692.314 -0.00291151 -4.08 0
M  V30 7337 H 690.989 -1.15222 -3.99621 0
M  V30 7338 H 689.566 0.650301 -3.67186 0
M  V30 7339 N 691.751 1.51645 -0.429126 0
M  V30 7340 C 693.167 1.59394 -0.080994 0
M  V30 7341 C 693.367 1.44064 1.40882 0
M  V30 7342 O 692.423 1.27771 2.17786 0
M  V30 7343 C 693.736 2.94779 -0.593773 0
M  V30 7344 C 695.284 3.08067 -0.553494 0
M  V30 7345 C 695.759 4.45963 -1.04311 0
M  V30 7346 N 697.25 4.5226 -1.00076 0
M  V30 7347 C 697.985 5.57268 -1.35056 0
M  V30 7348 N 697.481 6.69734 -1.77282 0
M  V30 7349 N 699.274 5.47582 -1.26925 0
M  V30 7350 H 691.425 1.59856 -1.39857 0
M  V30 7351 H 693.688 0.753095 -0.575805 0
M  V30 7352 H 693.394 3.11342 -1.63583 0
M  V30 7353 H 693.268 3.77197 -0.0142202 0
M  V30 7354 H 695.655 2.91177 0.479556 0
M  V30 7355 H 695.736 2.27508 -1.16935 0
M  V30 7356 H 695.38 4.63598 -2.07459 0
M  V30 7357 H 695.31 5.25049 -0.403873 0
M  V30 7358 H 697.801 3.71537 -0.690564 0
M  V30 7359 H 698.114 7.4587 -2.02232 0
M  V30 7360 H 696.459 6.70963 -1.81202 0
M  V30 7361 H 699.65 4.58604 -0.93809 0
M  V30 7362 H 699.823 6.29308 -1.54516 0
M  V30 7363 N 693.229 0.160201 1.56784 0
M  V30 7364 C 694.457 -0.494165 2.00912 0
M  V30 7365 C 694.872 -1.57548 1.04038 0
M  V30 7366 O 694.229 -1.82457 0.0394581 0
M  V30 7367 C 694.28 -1.08271 3.44905 0
M  V30 7368 O 694.001 -0.0445704 4.38077 0
M  V30 7369 C 695.502 -1.8164 4.04378 0
M  V30 7370 H 692.722 -0.127498 0.658776 0
M  V30 7371 H 695.266 0.258665 2.02858 0
M  V30 7372 H 693.421 -1.78609 3.4377 0
M  V30 7373 H 693.835 -0.477544 5.22322 0
M  V30 7374 H 695.309 -2.18094 5.07089 0
M  V30 7375 H 695.786 -2.70727 3.45838 0
M  V30 7376 H 696.392 -1.15969 4.09184 0
M  V30 7377 N 694.707 -1.5719 -0.113559 0
M  V30 7378 C 695.953 -1.85412 -0.821597 0
M  V30 7379 C 696.286 -0.746722 -1.7927 0
M  V30 7380 O 695.561 0.246971 -1.92926 0
M  V30 7381 C 695.844 -3.24233 -1.56669 0
M  V30 7382 C 695.697 -4.45578 -0.614823 0
M  V30 7383 C 697.016 -3.60697 -2.52161 0
M  V30 7384 H 694.135 -0.674406 -0.29723 0
M  V30 7385 H 696.777 -1.89807 -0.085694 0
M  V30 7386 H 694.927 -3.20617 -2.19401 0
M  V30 7387 H 696.599 -4.613 0.00407137 0
M  V30 7388 H 694.842 -4.33738 0.0732332 0
M  V30 7389 H 695.513 -5.39395 -1.17292 0
M  V30 7390 H 697.989 -3.65139 -1.99532 0
M  V30 7391 H 696.865 -4.58798 -3.01323 0
M  V30 7392 H 697.126 -2.88403 -3.35076 0
M  V30 7393 N 696.185 0.383891 -1.52853 0
M  V30 7394 C 697.132 1.46924 -1.77995 0
M  V30 7395 C 698.102 1.53958 -0.623396 0
M  V30 7396 O 699.287 1.70134 -0.863657 0
M  V30 7397 C 696.427 2.84093 -1.95921 0
M  V30 7398 C 695.54 2.86171 -3.23621 0
M  V30 7399 C 694.675 4.14799 -3.31836 0
M  V30 7400 C 693.714 4.10948 -4.53639 0
M  V30 7401 N 692.851 5.31192 -4.59107 0
M  V30 7402 H 697.691 1.24786 -2.70615 0
M  V30 7403 H 695.228 0.605265 -1.34071 0
M  V30 7404 H 697.186 3.63755 -2.04299 0
M  V30 7405 H 695.816 3.04671 -1.06656 0
M  V30 7406 H 694.868 1.9885 -3.24288 0
M  V30 7407 H 696.18 2.79194 -4.13343 0
M  V30 7408 H 695.334 5.02867 -3.39425 0
M  V30 7409 H 694.073 4.24505 -2.40097 0
M  V30 7410 H 693.078 3.21268 -4.46169 0
M  V30 7411 H 694.303 4.0286 -5.467 0
M  V30 7412 H 692.249 5.41518 -3.70262 0
M  V30 7413 H 692.166 5.26311 -5.42708 0
M  V30 7414 H 693.434 6.21143 -4.70958 0
M  V30 7415 N 697.663 1.43903 0.642637 0
M  V30 7416 C 698.91 1.46079 1.40239 0
M  V30 7417 C 699.238 0.0890335 1.94296 0
M  V30 7418 O 698.493 -0.907533 1.73385 0
M  V30 7419 C 698.792 2.45907 2.59354 0
M  V30 7420 C 698.458 3.91522 2.23654 0
M  V30 7421 C 697.12 4.31179 2.1363 0
M  V30 7422 C 699.472 4.83242 1.95261 0
M  V30 7423 C 696.8 5.60495 1.73384 0
M  V30 7424 C 699.152 6.12933 1.56511 0
M  V30 7425 C 697.816 6.51556 1.4502 0
M  V30 7426 H 697.086 0.534542 0.513172 0
M  V30 7427 H 699.733 1.77047 0.72984 0
M  V30 7428 H 698.038 2.08381 3.3179 0
M  V30 7429 H 699.735 2.44842 3.17574 0
M  V30 7430 H 696.325 3.60142 2.32369 0
M  V30 7431 H 700.509 4.53367 2.0192 0
M  V30 7432 H 695.765 5.89249 1.63082 0
M  V30 7433 H 699.939 6.83469 1.33576 0
M  V30 7434 H 697.566 7.51663 1.13606 0
M  V30 7435 N 699.141 -0.881989 1.30609 0
M  V30 7436 C 700.369 -1.66711 1.22536 0
M  V30 7437 C 700.784 -1.87614 -0.2113 0
M  V30 7438 O 700.141 -1.42576 -1.13923 0
M  V30 7439 C 700.192 -3.04182 1.95335 0
M  V30 7440 O 699.913 -2.8422 3.33393 0
M  V30 7441 C 701.414 -3.98617 1.93956 0
M  V30 7442 H 698.634 -0.520124 0.423925 0
M  V30 7443 H 701.178 -1.10174 1.72285 0
M  V30 7444 H 699.333 -3.57442 1.49378 0
M  V30 7445 H 699.747 -3.71452 3.70302 0
M  V30 7446 H 701.221 -4.92433 2.49426 0
M  V30 7447 H 701.698 -4.29473 0.919198 0
M  V30 7448 H 702.304 -3.51292 2.39738 0
M  V30 7449 N 700.619 -1.13374 -1.09472 0
M  V30 7450 C 701.849 -0.917019 -1.85133 0
M  V30 7451 C 702.257 0.537568 -1.81402 0
M  V30 7452 O 701.6 1.38385 -1.20811 0
M  V30 7453 C 701.662 -1.32646 -3.34134 0
M  V30 7454 C 701.326 -2.79437 -3.61613 0
M  V30 7455 C 702.323 -3.77596 -3.57375 0
M  V30 7456 C 700.008 -3.16586 -3.89973 0
M  V30 7457 C 702.002 -5.10916 -3.81108 0
M  V30 7458 C 699.689 -4.50085 -4.13361 0
M  V30 7459 C 700.687 -5.47059 -4.0892 0
M  V30 7460 O 700.375 -6.78149 -4.31705 0
M  V30 7461 H 700.107 -0.326997 -0.591649 0
M  V30 7462 H 702.661 -1.51002 -1.39239 0
M  V30 7463 H 700.891 -0.676719 -3.80733 0
M  V30 7464 H 702.58 -1.08229 -3.91205 0
M  V30 7465 H 703.346 -3.50242 -3.35493 0
M  V30 7466 H 699.225 -2.41707 -3.92554 0
M  V30 7467 H 702.769 -5.86597 -3.77558 0
M  V30 7468 H 698.666 -4.77163 -4.34724 0
M  V30 7469 H 699.434 -6.84244 -4.49168 0
M  V30 7470 N 702.098 1.27442 -0.927168 0
M  V30 7471 C 703.375 1.89473 -0.485742 0
M  V30 7472 C 703.755 1.83922 1.03614 0
M  V30 7473 O 703.103 1.28409 1.89007 0
M  V30 7474 C 703.313 3.33417 -1.03123 0
M  V30 7475 C 704.661 4.10333 -1.0914 0
M  V30 7476 O 705.685 3.4243 -0.98082 0
M  V30 7477 O 704.544 5.31737 -1.26165 0
M  V30 7478 H 701.638 0.812124 -0.156154 0
M  V30 7479 H 704.184 1.35713 -1.01882 0
M  V30 7480 H 702.956 3.31747 -2.07508 0
M  V30 7481 H 702.579 3.94695 -0.479767 0
M  V30 7482 N 703.576 0.692616 1.41565 0
M  V30 7483 C 704.506 0.0397325 2.33466 0
M  V30 7484 C 705.487 -0.770334 1.51657 0
M  V30 7485 O 706.672 -0.723903 1.80203 0
M  V30 7486 C 703.802 -0.899495 3.3545 0
M  V30 7487 C 702.756 -0.196738 4.27548 0
M  V30 7488 C 702.082 -1.25012 5.19881 0
M  V30 7489 C 703.382 0.935158 5.1386 0
M  V30 7490 H 705.076 0.807296 2.88311 0
M  V30 7491 H 702.622 0.389665 1.38628 0
M  V30 7492 H 704.575 -1.36545 3.98665 0
M  V30 7493 H 703.299 -1.69869 2.78948 0
M  V30 7494 H 701.958 0.249158 3.65752 0
M  V30 7495 H 701.606 -2.04177 4.59696 0
M  V30 7496 H 701.306 -0.784931 5.82334 0
M  V30 7497 H 702.83 -1.71665 5.85972 0
M  V30 7498 H 704.244 0.549619 5.70659 0
M  V30 7499 H 702.641 1.32726 5.85238 0
M  V30 7500 H 703.711 1.77613 4.512 0
M  V30 7501 N 705.054 -1.51416 0.437162 0
M  V30 7502 C 706.284 -2.06204 -0.127859 0
M  V30 7503 C 706.692 -1.30463 -1.37026 0
M  V30 7504 O 706.035 -0.357516 -1.80187 0
M  V30 7505 C 706.097 -3.55783 -0.515632 0
M  V30 7506 C 705.761 -4.52776 0.619937 0
M  V30 7507 C 706.758 -4.98031 1.49201 0
M  V30 7508 C 704.443 -4.95878 0.800618 0
M  V30 7509 C 706.437 -5.85061 2.52947 0
M  V30 7510 C 704.124 -5.82699 1.84135 0
M  V30 7511 C 705.122 -6.27188 2.70416 0
M  V30 7512 O 704.81 -7.12284 3.72702 0
M  V30 7513 H 704.542 -0.675903 -0.011442 0
M  V30 7514 H 707.096 -1.95977 0.614986 0
M  V30 7515 H 705.326 -3.63793 -1.31118 0
M  V30 7516 H 707.015 -3.93087 -1.01179 0
M  V30 7517 H 707.781 -4.65426 1.36395 0
M  V30 7518 H 703.66 -4.60792 0.138617 0
M  V30 7519 H 707.204 -6.19708 3.20325 0
M  V30 7520 H 703.101 -6.14717 1.9696 0
M  V30 7521 H 703.869 -7.30462 3.69281 0
M  V30 7522 N 706.532 -0.168513 -1.56696 0
M  V30 7523 C 707.462 0.758563 -2.20835 0
M  V30 7524 C 708.443 1.24121 -1.1631 0
M  V30 7525 O 709.628 1.29487 -1.4473 0
M  V30 7526 C 706.758 1.9892 -2.8469 0
M  V30 7527 C 705.712 1.64252 -3.95228 0
M  V30 7528 C 705.038 2.94757 -4.46119 0
M  V30 7529 C 706.338 0.872675 -5.14958 0
M  V30 7530 H 708.032 0.223953 -2.98561 0
M  V30 7531 H 705.578 0.106277 -1.43607 0
M  V30 7532 H 707.531 2.64275 -3.28233 0
M  V30 7533 H 706.255 2.5479 -2.04327 0
M  V30 7534 H 704.914 1.01266 -3.52336 0
M  V30 7535 H 704.562 3.48662 -3.62552 0
M  V30 7536 H 704.262 2.72316 -5.2069 0
M  V30 7537 H 705.786 3.61147 -4.92347 0
M  V30 7538 H 707.2 1.42875 -5.55211 0
M  V30 7539 H 705.597 0.747402 -5.95428 0
M  V30 7540 H 706.667 -0.131535 -4.84722 0
M  V30 7541 N 708.01 1.57248 0.105221 0
M  V30 7542 C 709.256 1.85845 0.811753 0
M  V30 7543 C 709.589 0.756219 1.78871 0
M  V30 7544 O 708.864 -0.236736 1.93054 0
M  V30 7545 C 709.147 3.25059 1.54947 0
M  V30 7546 C 709 4.45898 0.591185 0
M  V30 7547 C 710.319 3.6203 2.50245 0
M  V30 7548 H 707.438 0.675973 0.293649 0
M  V30 7549 H 710.08 1.89849 0.0756269 0
M  V30 7550 H 708.23 3.21776 2.17698 0
M  V30 7551 H 709.902 4.61291 -0.0285352 0
M  V30 7552 H 708.145 4.33693 -0.0962343 0
M  V30 7553 H 708.816 5.40009 1.1443 0
M  V30 7554 H 711.292 3.66192 1.97593 0
M  V30 7555 H 710.168 4.60389 2.98886 0
M  V30 7556 H 710.429 2.90176 3.33542 0
M  V30 7557 N 709.488 -0.375779 1.53054 0
M  V30 7558 C 710.716 -1.14036 1.72637 0
M  V30 7559 C 711.131 -1.83342 0.450687 0
M  V30 7560 O 710.488 -1.7318 -0.575749 0
M  V30 7561 C 710.539 -2.17841 2.88492 0
M  V30 7562 O 710.26 -1.51358 4.11123 0
M  V30 7563 C 711.761 -3.06924 3.19863 0
M  V30 7564 H 708.981 -0.341386 0.577665 0
M  V30 7565 H 711.525 -0.437809 1.99759 0
M  V30 7566 H 709.68 -2.8371 2.63794 0
M  V30 7567 H 710.094 -2.20439 4.75928 0
M  V30 7568 H 711.568 -3.75763 4.04359 0
M  V30 7569 H 712.045 -3.71169 2.34798 0
M  V30 7570 H 712.651 -2.46684 3.46449 0
M  V30 7571 N 710.966 -1.44241 -0.634997 0
M  V30 7572 C 711.914 -1.51103 -1.76835 0
M  V30 7573 C 712.908 -0.383051 -1.65012 0
M  V30 7574 O 714.114 -0.557832 -1.71138 0
M  V30 7575 H 710.489 -0.474076 -0.583743 0
M  V30 7576 H 712.46 -2.46499 -1.68169 0
M  V30 7577 C 711.209 -1.4687 -3.15158 0
M  V30 7578 H 710.532 -2.32979 -3.24901 0
M  V30 7579 H 711.972 -1.55731 -3.94365 0
M  V30 7580 C 710.431 -0.188884 -3.3637 0
M  V30 7581 O 710.961 0.742487 -3.94778 0
M  V30 7582 N 709.167 -0.0932516 -2.9045 0
M  V30 7583 H 708.714 -0.852004 -2.43102 0
M  V30 7584 H 708.672 0.762308 -3.05018 0
M  V30 7585 N 712.444 0.87505 -1.31075 0
M  V30 7586 C 713.692 1.62447 -1.20231 0
M  V30 7587 C 714.013 1.93506 0.240888 0
M  V30 7588 O 713.283 1.57847 1.16022 0
M  V30 7589 H 711.863 0.602207 -0.441991 0
M  V30 7590 H 714.525 1.04788 -1.64334 0
M  V30 7591 H 713.621 2.57031 -1.77036 0
M  V30 7592 N 713.922 1.13953 1.08869 0
M  V30 7593 C 714.869 0.82213 2.15661 0
M  V30 7594 C 715.839 -0.218274 1.6466 0
M  V30 7595 O 717.024 -0.0892475 1.90591 0
M  V30 7596 C 714.164 0.300572 3.43789 0
M  V30 7597 C 713.277 1.40071 4.08661 0
M  V30 7598 C 712.412 0.836897 5.24566 0
M  V30 7599 C 711.451 1.91504 5.81371 0
M  V30 7600 N 710.588 1.36875 6.88629 0
M  V30 7601 H 715.428 1.73683 2.42153 0
M  V30 7602 H 712.965 0.866879 1.18843 0
M  V30 7603 H 714.923 -0.0199943 4.17195 0
M  V30 7604 H 713.553 -0.577248 3.17597 0
M  V30 7605 H 712.605 1.83776 3.33062 0
M  V30 7606 H 713.917 2.21534 4.46905 0
M  V30 7607 H 713.071 0.467953 6.04893 0
M  V30 7608 H 711.81 -0.00874207 4.87699 0
M  V30 7609 H 710.815 2.29299 4.99702 0
M  V30 7610 H 712.04 2.76419 6.20298 0
M  V30 7611 H 709.986 0.545211 6.5373 0
M  V30 7612 H 709.903 2.1198 7.25672 0
M  V30 7613 H 711.171 1.02756 7.72698 0
M  V30 7614 N 715.4 -1.26948 0.933913 0
M  V30 7615 C 716.35 -2.24306 0.408779 0
M  V30 7616 C 717.334 -1.53243 -0.490435 0
M  V30 7617 O 718.526 -1.73956 -0.326866 0
M  V30 7618 C 715.655 -3.41695 -0.331578 0
M  V30 7619 C 714.741 -4.20053 0.58451 0
M  V30 7620 N 715.132 -4.76122 1.70709 0
M  V30 7621 C 713.43 -4.44303 0.388703 0
M  V30 7622 C 714.131 -5.35267 2.27737 0
M  V30 7623 N 713.107 -5.20548 1.56622 0
M  V30 7624 H 716.909 -2.65244 1.26582 0
M  V30 7625 H 714.423 -1.4195 0.788919 0
M  V30 7626 H 716.42 -4.10552 -0.724774 0
M  V30 7627 H 715.08 -3.02286 -1.18547 0
M  V30 7628 H 716.091 -4.73884 2.08937 0
M  V30 7629 H 712.768 -4.15341 -0.424016 0
M  V30 7630 H 714.158 -5.89563 3.22282 0
M  V30 7631 N 716.879 -0.700114 -1.41195 0
M  V30 7632 C 718.127 -0.232546 -2.00758 0
M  V30 7633 C 718.448 1.1734 -1.55745 0
M  V30 7634 O 717.718 1.79262 -0.790058 0
M  V30 7635 H 716.298 -0.0829845 -0.742376 0
M  V30 7636 H 718.96 -0.902289 -1.72756 0
M  V30 7637 H 718.056 -0.253521 -3.11069 0
M  V30 7638 N 718.357 1.51182 -0.445186 0
M  V30 7639 C 719.304 2.27939 0.362291 0
M  V30 7640 C 720.274 1.31864 1.01 0
M  V30 7641 O 721.459 1.60776 1.02741 0
M  V30 7642 C 718.599 3.13016 1.45311 0
M  V30 7643 C 717.712 4.24093 0.822757 0
M  V30 7644 C 716.847 4.96467 1.88928 0
M  V30 7645 C 715.886 5.99454 1.23778 0
M  V30 7646 N 715.023 6.65206 2.24602 0
M  V30 7647 H 719.863 2.965 -0.29862 0
M  V30 7648 H 717.4 1.46237 -0.15911 0
M  V30 7649 H 719.358 3.60673 2.09692 0
M  V30 7650 H 717.988 2.46553 2.08354 0
M  V30 7651 H 717.04 3.80341 0.0670364 0
M  V30 7652 H 718.352 4.97853 0.307184 0
M  V30 7653 H 717.506 5.47712 2.60953 0
M  V30 7654 H 716.245 4.22355 2.4386 0
M  V30 7655 H 715.25 5.47494 0.503042 0
M  V30 7656 H 716.475 6.75527 0.695694 0
M  V30 7657 H 714.421 5.93901 2.78599 0
M  V30 7658 H 714.338 7.34756 1.77958 0
M  V30 7659 H 715.606 7.21078 2.96085 0
M  V30 7660 N 719.835 0.176821 1.56605 0
M  V30 7661 C 720.782 -0.751312 2.18229 0
M  V30 7662 C 721.752 -1.22297 1.12395 0
M  V30 7663 O 722.937 -1.29015 1.40569 0
M  V30 7664 C 720.077 -1.97291 2.83143 0
M  V30 7665 C 719.19 -1.54431 4.03454 0
M  V30 7666 C 718.325 -2.72 4.56278 0
M  V30 7667 C 717.364 -2.25657 5.68986 0
M  V30 7668 N 716.501 -3.36338 6.16296 0
M  V30 7669 H 721.341 -0.219033 2.97194 0
M  V30 7670 H 718.878 -0.0963803 1.46784 0
M  V30 7671 H 720.836 -2.68949 3.1894 0
M  V30 7672 H 719.466 -2.4788 2.06773 0
M  V30 7673 H 718.518 -0.724273 3.73441 0
M  V30 7674 H 719.83 -1.16417 4.85024 0
M  V30 7675 H 718.984 -3.51806 4.94285 0
M  V30 7676 H 717.723 -3.13277 3.73777 0
M  V30 7677 H 716.728 -1.44299 5.30526 0
M  V30 7678 H 717.953 -1.85432 6.53293 0
M  V30 7679 H 715.899 -3.7718 5.36723 0
M  V30 7680 H 715.816 -3.02435 6.9287 0
M  V30 7681 H 717.084 -4.16413 6.58954 0
M  V30 7682 N 721.313 -1.57302 -0.09688 0
M  V30 7683 C 722.559 -1.86273 -0.801885 0
M  V30 7684 C 722.892 -0.765694 -1.78468 0
M  V30 7685 O 722.167 0.226495 -1.93177 0
M  V30 7686 C 722.45 -3.25876 -1.53221 0
M  V30 7687 C 722.303 -4.46205 -0.567529 0
M  V30 7688 C 723.622 -3.63352 -2.48321 0
M  V30 7689 H 720.741 -0.67752 -0.29006 0
M  V30 7690 H 723.383 -1.89887 -0.0655577 0
M  V30 7691 H 721.533 -3.22926 -2.15988 0
M  V30 7692 H 723.205 -4.6127 0.0529982 0
M  V30 7693 H 721.448 -4.33636 0.119233 0
M  V30 7694 H 722.119 -5.40608 -1.11564 0
M  V30 7695 H 724.595 -3.67234 -1.95648 0
M  V30 7696 H 723.471 -4.61968 -2.9644 0
M  V30 7697 H 723.732 -2.91941 -3.31998 0
M  V30 7698 N 722.791 0.367657 -1.53252 0
M  V30 7699 C 723.739 1.47061 -1.8021 0
M  V30 7700 C 724.733 1.55539 -0.671112 0
M  V30 7701 O 725.939 1.58451 -0.854014 0
M  V30 7702 H 722.314 0.489868 -0.570555 0
M  V30 7703 H 724.285 1.21527 -2.72532 0
M  V30 7704 C 723.034 2.83924 -2.00706 0
M  V30 7705 H 722.357 2.78158 -2.87172 0
M  V30 7706 H 723.797 3.60281 -2.23547 0
M  V30 7707 C 722.256 3.27613 -0.785568 0
M  V30 7708 O 722.786 4.01691 0.0267459 0
M  V30 7709 N 720.992 2.84134 -0.609597 0
M  V30 7710 H 720.539 2.24017 -1.27178 0
M  V30 7711 H 720.497 3.13723 0.206281 0
M  V30 7712 N 724.269 1.44576 0.627338 0
M  V30 7713 C 725.217 1.52039 1.76031 0
M  V30 7714 C 726.211 0.391796 1.64807 0
M  V30 7715 O 727.417 0.5669 1.7084 0
M  V30 7716 H 723.792 0.477165 0.581221 0
M  V30 7717 H 725.763 2.47387 1.6686 0
M  V30 7718 C 724.512 1.48539 3.14375 0
M  V30 7719 H 723.835 2.34699 3.23661 0
M  V30 7720 H 725.275 1.57821 3.93534 0
M  V30 7721 C 723.734 0.20672 3.36265 0
M  V30 7722 O 724.264 -0.72154 3.95167 0
M  V30 7723 N 722.47 0.108654 2.90397 0
M  V30 7724 H 722.017 0.864884 2.42647 0
M  V30 7725 H 721.975 -0.746121 3.05418 0
M  V30 7726 N 725.747 -0.868086 1.31537 0
M  V30 7727 C 726.993 -1.62367 1.2151 0
M  V30 7728 C 727.326 -1.92883 -0.225819 0
M  V30 7729 O 726.601 -1.56176 -1.15927 0
M  V30 7730 C 726.884 -2.95268 2.06129 0
M  V30 7731 C 726.737 -2.71619 3.58529 0
M  V30 7732 C 728.056 -3.96391 1.91212 0
M  V30 7733 H 725.175 -0.589178 0.442762 0
M  V30 7734 H 727.817 -1.00336 1.61347 0
M  V30 7735 H 725.967 -3.4821 1.72284 0
M  V30 7736 H 727.639 -2.25334 4.0252 0
M  V30 7737 H 725.882 -2.05817 3.81866 0
M  V30 7738 H 726.553 -3.66192 4.13047 0
M  V30 7739 H 729.029 -3.52663 2.20834 0
M  V30 7740 H 727.905 -4.87263 2.52718 0
M  V30 7741 H 728.166 -4.33335 0.875953 0
M  V30 7742 N 727.225 -1.14528 -1.08264 0
M  V30 7743 C 728.471 -0.925721 -1.81113 0
M  V30 7744 C 728.826 0.54185 -1.84612 0
M  V30 7745 O 728.119 1.39628 -1.31205 0
M  V30 7746 C 728.313 -1.46226 -3.26117 0
M  V30 7747 C 728.142 -2.98047 -3.36746 0
M  V30 7748 C 726.912 -3.66508 -3.4785 0
M  V30 7749 C 729.11 -3.95903 -3.28277 0
M  V30 7750 N 727.092 -5.06227 -3.47285 0
M  V30 7751 C 728.463 -5.21883 -3.34721 0
M  V30 7752 C 730.518 -3.88002 -3.12024 0
M  V30 7753 C 729.221 -6.40886 -3.26585 0
M  V30 7754 C 731.247 -5.06553 -3.05219 0
M  V30 7755 C 730.609 -6.31403 -3.12266 0
M  V30 7756 H 726.708 -0.392294 -0.676483 0
M  V30 7757 H 729.292 -1.45567 -1.293 0
M  V30 7758 H 727.463 -0.959076 -3.76373 0
M  V30 7759 H 729.195 -1.18247 -3.8704 0
M  V30 7760 H 725.95 -3.17067 -3.51804 0
M  V30 7761 H 726.374 -5.79172 -3.50555 0
M  V30 7762 H 731.016 -2.9235 -3.05436 0
M  V30 7763 H 728.734 -7.36781 -3.31934 0
M  V30 7764 H 732.32 -5.02191 -2.93761 0
M  V30 7765 H 731.2 -7.21596 -3.07032 0
M  V30 7766 N 728.703 1.26451 -0.940633 0
M  V30 7767 C 729.651 2.28389 -0.440581 0
M  V30 7768 C 730.645 1.62402 0.481859 0
M  V30 7769 O 731.851 1.76361 0.360132 0
M  V30 7770 H 728.226 0.741716 -0.123938 0
M  V30 7771 H 730.197 2.67967 -1.31288 0
M  V30 7772 C 728.946 3.46576 0.279364 0
M  V30 7773 H 728.269 3.97574 -0.421274 0
M  V30 7774 H 729.709 4.19826 0.59348 0
M  V30 7775 C 728.168 3.01815 1.49697 0
M  V30 7776 O 728.698 3.06607 2.59529 0
M  V30 7777 N 726.904 2.57163 1.35334 0
M  V30 7778 H 726.451 2.53464 0.459743 0
M  V30 7779 H 726.409 2.27578 2.16923 0
M  V30 7780 N 730.181 0.707592 1.40822 0
M  V30 7781 C 731.429 0.243189 2.00632 0
M  V30 7782 C 731.75 -1.16512 1.56365 0
M  V30 7783 O 731.02 -1.78841 0.799553 0
M  V30 7784 H 729.6 0.0869203 0.741926 0
M  V30 7785 H 732.262 0.911438 1.72275 0
M  V30 7786 H 731.358 0.270014 3.1093 0
M  V30 7787 N 731.66 -1.50943 0.453197 0
M  V30 7788 C 732.593 -2.24742 -0.395787 0
M  V30 7789 C 733.571 -1.27316 -1.01141 0
M  V30 7790 O 734.755 -1.56494 -1.05081 0
M  V30 7791 C 731.882 -3.00999 -1.55298 0
M  V30 7792 C 730.928 -4.13207 -1.0565 0
M  V30 7793 S 731.761 -5.35498 0.01435 0
M  V30 7794 C 732.917 -6.15298 -1.14714 0
M  V30 7795 H 733.15 -2.96403 0.23071 0
M  V30 7796 H 730.683 -1.52557 0.237874 0
M  V30 7797 H 732.641 -3.45529 -2.2163 0
M  V30 7798 H 731.302 -2.28896 -2.15094 0
M  V30 7799 H 730.495 -4.65901 -1.9223 0
M  V30 7800 H 730.097 -3.7102 -0.471182 0
M  V30 7801 H 732.389 -6.45346 -2.06239 0
M  V30 7802 H 733.332 -7.05019 -0.659842 0
M  V30 7803 H 733.74 -5.47046 -1.39288 0
M  V30 7804 N 733.138 -0.185124 -1.56509 0
M  V30 7805 C 734.387 0.456421 -1.96468 0
M  V30 7806 C 734.7 1.63448 -1.07444 0
M  V30 7807 O 735.906 2.34316 -1.37143 0
M  V30 7808 C 734.362 0.863404 -3.4939 0
M  V30 7809 C 733.97 -0.289815 -4.47062 0
M  V30 7810 C 735.714 1.47259 -3.98139 0
M  V30 7811 C 733.621 0.137571 -5.9124 0
M  V30 7812 H 732.551 0.17429 -0.733579 0
M  V30 7813 H 735.202 -0.275554 -1.81419 0
M  V30 7814 H 733.584 1.65176 -3.59907 0
M  V30 7815 H 734.758 -1.06728 -4.4827 0
M  V30 7816 H 733.073 -0.809851 -4.08449 0
M  V30 7817 H 735.67 1.80463 -5.03326 0
M  V30 7818 H 736.013 2.3755 -3.41871 0
M  V30 7819 H 736.546 0.748405 -3.90696 0
M  V30 7820 H 733.285 -0.730907 -6.51412 0
M  V30 7821 H 732.805 0.8801 -5.93308 0
M  V30 7822 H 734.484 0.576771 -6.44424 0
M  V30 7823 N 734.616 1.57351 0.0885366 0
M  V30 7824 C 735.864 1.86051 0.789262 0
M  V30 7825 C 736.185 0.774763 1.78948 0
M  V30 7826 O 735.455 -0.198324 1.94894 0
M  V30 7827 H 734.035 0.686508 0.294475 0
M  V30 7828 H 736.697 1.94779 0.0686055 0
M  V30 7829 H 735.793 2.83007 1.31581 0
M  V30 7830 N 736.094 -0.359525 1.53444 0
M  V30 7831 C 737.004 -1.46445 1.83278 0
M  V30 7832 C 738.02 -1.5833 0.721629 0
M  V30 7833 O 739.196 -1.7411 1.01231 0
M  V30 7834 C 736.261 -2.81638 2.02191 0
M  V30 7835 C 735.322 -2.7923 3.26082 0
M  V30 7836 C 734.555 -4.07974 3.44082 0
M  V30 7837 O 734.778 -5.04447 2.66251 0
M  V30 7838 O 733.712 -4.13417 4.37458 0
M  V30 7839 H 737.538 -1.24156 2.77162 0
M  V30 7840 H 735.123 -0.550201 1.389 0
M  V30 7841 H 737.005 -3.61732 2.16167 0
M  V30 7842 H 735.68 -3.03892 1.11496 0
M  V30 7843 H 734.587 -1.97813 3.17523 0
M  V30 7844 H 735.92 -2.6193 4.16718 0
M  V30 7845 N 737.572 -1.44907 -0.619662 0
M  V30 7846 C 738.818 -1.48512 -1.38102 0
M  V30 7847 C 739.151 -0.121686 -1.93818 0
M  V30 7848 O 738.426 0.862256 -1.74343 0
M  V30 7849 C 738.709 -2.55469 -2.53787 0
M  V30 7850 C 738.562 -4.01212 -2.03345 0
M  V30 7851 C 739.881 -2.58821 -3.55949 0
M  V30 7852 H 737 -0.540712 -0.500799 0
M  V30 7853 H 739.642 -1.7665 -0.69962 0
M  V30 7854 H 737.792 -2.31606 -3.11915 0
M  V30 7855 H 739.464 -4.36245 -1.49959 0
M  V30 7856 H 737.707 -4.12443 -1.34438 0
M  V30 7857 H 738.378 -4.71717 -2.86683 0
M  V30 7858 H 740.854 -2.80172 -3.07641 0
M  V30 7859 H 739.73 -3.35542 -4.34399 0
M  V30 7860 H 739.991 -1.63451 -4.10775 0
M  V30 7861 N 739.05 0.861098 -1.31996 0
M  V30 7862 C 740.296 1.61721 -1.22369 0
M  V30 7863 C 740.629 1.93 0.215587 0
M  V30 7864 O 739.904 1.56789 1.15098 0
M  V30 7865 C 740.187 2.9417 -2.07691 0
M  V30 7866 C 740.04 2.69714 -3.59965 0
M  V30 7867 C 741.359 3.95372 -1.93312 0
M  V30 7868 H 738.478 0.586822 -0.44588 0
M  V30 7869 H 741.12 0.994788 -1.61876 0
M  V30 7870 H 739.27 3.47292 -1.74128 0
M  V30 7871 H 740.942 2.23196 -4.03709 0
M  V30 7872 H 739.185 2.03789 -3.82952 0
M  V30 7873 H 739.856 3.63996 -4.14983 0
M  V30 7874 H 742.332 3.51487 -2.22701 0
M  V30 7875 H 741.208 4.85916 -2.55298 0
M  V30 7876 H 741.469 4.32865 -0.898922 0
M  V30 7877 N 740.528 1.15101 1.07655 0
M  V30 7878 C 741.758 0.946357 1.83651 0
M  V30 7879 C 742.166 -0.508641 1.82235 0
M  V30 7880 O 741.509 -1.36445 1.22997 0
M  V30 7881 C 741.571 1.37945 3.31981 0
M  V30 7882 C 741.235 2.85155 3.57122 0
M  V30 7883 C 742.232 3.83234 3.51323 0
M  V30 7884 C 739.917 3.2275 3.84887 0
M  V30 7885 C 741.911 5.16914 3.72932 0
M  V30 7886 C 739.598 4.56604 4.06148 0
M  V30 7887 C 740.596 5.53495 4.00165 0
M  V30 7888 O 740.284 6.84931 4.20861 0
M  V30 7889 H 740.016 0.336368 0.586372 0
M  V30 7890 H 742.57 1.53198 1.36819 0
M  V30 7891 H 740.8 0.737205 3.79608 0
M  V30 7892 H 742.489 1.14439 3.89434 0
M  V30 7893 H 743.255 3.55535 3.29878 0
M  V30 7894 H 739.134 2.47921 3.88659 0
M  V30 7895 H 742.678 5.92529 3.68178 0
M  V30 7896 H 738.575 4.84019 4.27078 0
M  V30 7897 H 739.343 6.91304 4.38226 0
M  V30 7898 N 742.006 -1.2595 0.947325 0
M  V30 7899 C 742.938 -2.25336 0.41906 0
M  V30 7900 C 743.951 -1.56135 -0.461051 0
M  V30 7901 O 745.14 -1.76438 -0.270505 0
M  V30 7902 C 742.24 -3.36334 -0.416233 0
M  V30 7903 C 741.413 -4.35088 0.449162 0
M  V30 7904 C 740.472 -5.25185 -0.326716 0
M  V30 7905 O 739.498 -5.68548 0.272374 0
M  V30 7906 N 740.7 -5.57388 -1.6217 0
M  V30 7907 H 743.465 -2.71298 1.27348 0
M  V30 7908 H 741.026 -1.39781 0.81688 0
M  V30 7909 H 743.018 -3.93564 -0.942826 0
M  V30 7910 H 741.588 -2.89819 -1.17148 0
M  V30 7911 H 740.808 -3.76841 1.15692 0
M  V30 7912 H 742.096 -4.98056 1.04008 0
M  V30 7913 H 741.494 -5.2405 -2.13046 0
M  V30 7914 H 740.051 -6.17234 -2.0944 0
M  V30 7915 N 743.484 -0.715051 -1.40445 0
M  V30 7916 C 744.9 -0.388555 -1.54798 0
M  V30 7917 C 745.1 1.10271 -1.68649 0
M  V30 7918 O 744.156 1.88875 -1.67578 0
M  V30 7919 C 745.469 -1.15414 -2.77669 0
M  V30 7920 C 747.017 -1.14039 -2.91486 0
M  V30 7921 C 747.492 -1.88812 -4.1727 0
M  V30 7922 N 748.983 -1.85878 -4.24268 0
M  V30 7923 C 749.718 -2.40558 -5.20499 0
M  V30 7924 N 749.214 -3.03791 -6.22642 0
M  V30 7925 N 751.007 -2.30703 -5.12574 0
M  V30 7926 H 743.158 -1.68201 -1.297 0
M  V30 7927 H 745.421 -0.710915 -0.627139 0
M  V30 7928 H 745.127 -2.20853 -2.7371 0
M  V30 7929 H 745.001 -0.745412 -3.69761 0
M  V30 7930 H 747.388 -0.0941996 -2.9495 0
M  V30 7931 H 747.469 -1.58834 -2.00513 0
M  V30 7932 H 747.113 -2.93422 -4.14568 0
M  V30 7933 H 747.043 -1.41438 -5.0725 0
M  V30 7934 H 749.534 -1.39794 -3.51093 0
M  V30 7935 H 749.847 -3.43032 -6.92495 0
M  V30 7936 H 748.192 -3.07875 -6.23087 0
M  V30 7937 H 751.383 -1.80961 -4.31707 0
M  V30 7938 H 751.556 -2.73618 -5.87398 0
M  V30 7939 N 744.962 1.50701 -0.461195 0
M  V30 7940 C 745.925 2.2686 0.326679 0
M  V30 7941 C 746.925 1.31243 0.929085 0
M  V30 7942 O 748.115 1.54754 0.799807 0
M  V30 7943 C 745.247 3.07844 1.46441 0
M  V30 7944 H 746.44 2.97954 -0.341095 0
M  V30 7945 H 743.993 1.54814 -0.214984 0
M  V30 7946 H 744.728 2.41223 2.16753 0
M  V30 7947 H 744.513 3.78101 1.03836 0
M  V30 7948 H 746.003 3.65469 2.02044 0
M  V30 7949 N 746.441 0.193421 1.56409 0
M  V30 7950 C 747.687 -0.446449 1.97825 0
M  V30 7951 C 748.02 -1.61386 1.08019 0
M  V30 7952 O 747.295 -1.94053 0.131839 0
M  V30 7953 C 747.578 -0.908199 3.48459 0
M  V30 7954 C 747.431 0.260914 4.49043 0
M  V30 7955 C 748.75 -1.77428 4.0275 0
M  V30 7956 H 745.869 -0.160807 0.719243 0
M  V30 7957 H 748.511 0.284006 1.87865 0
M  V30 7958 H 746.661 -1.53062 3.57077 0
M  V30 7959 H 748.333 0.898548 4.52464 0
M  V30 7960 H 746.576 0.912949 4.24085 0
M  V30 7961 H 747.247 -0.104657 5.51901 0
M  V30 7962 H 749.723 -1.24936 3.96901 0
M  V30 7963 H 748.599 -2.06633 5.08521 0
M  V30 7964 H 748.86 -2.72788 3.47907 0
M  V30 7965 N 747.919 -1.57396 -0.0801906 0
M  V30 7966 C 748.852 -1.98386 -1.12774 0
M  V30 7967 C 749.83 -0.859423 -1.38031 0
M  V30 7968 O 751.014 -1.12101 -1.51544 0
M  V30 7969 C 748.141 -2.3134 -2.47386 0
M  V30 7970 C 747.187 -3.53706 -2.38316 0
M  V30 7971 S 748.02 -5.04862 -1.78534 0
M  V30 7972 C 749.176 -5.41008 -3.1474 0
M  V30 7973 H 749.409 -2.86929 -0.778382 0
M  V30 7974 H 746.942 -1.51682 -0.28842 0
M  V30 7975 H 748.9 -2.51 -3.24822 0
M  V30 7976 H 747.561 -1.4334 -2.79486 0
M  V30 7977 H 746.754 -3.74253 -3.37566 0
M  V30 7978 H 746.356 -3.33632 -1.69014 0
M  V30 7979 H 748.648 -5.38565 -4.1104 0
M  V30 7980 H 749.591 -6.41885 -2.98981 0
M  V30 7981 H 749.999 -4.68467 -3.14958 0
M  V30 7982 N 749.397 0.351382 -1.53633 0
M  V30 7983 C 750.36 1.41403 -1.80383 0
M  V30 7984 C 751.36 1.45963 -0.674635 0
M  V30 7985 O 752.55 1.46476 -0.942895 0
M  V30 7986 C 749.682 2.80401 -1.93876 0
M  V30 7987 H 750.875 1.18951 -2.75301 0
M  V30 7988 H 748.428 0.58533 -1.44926 0
M  V30 7989 H 749.163 3.08147 -1.01074 0
M  V30 7990 H 748.948 2.78488 -2.7602 0
M  V30 7991 H 750.438 3.57329 -2.16116 0
M  V30 7992 N 750.875 1.45233 0.611969 0
M  V30 7993 C 752.121 1.49242 1.37312 0
M  V30 7994 C 752.454 0.131963 1.93751 0
M  V30 7995 O 751.729 -0.852999 1.74798 0
M  V30 7996 C 752.012 2.56811 2.52428 0
M  V30 7997 C 751.865 4.02284 2.01215 0
M  V30 7998 C 753.184 2.60705 3.54572 0
M  V30 7999 H 750.303 0.54336 0.497925 0
M  V30 8000 H 752.945 1.77019 0.690242 0
M  V30 8001 H 751.095 2.33256 3.10683 0
M  V30 8002 H 752.767 4.37035 1.47643 0
M  V30 8003 H 751.01 4.1315 1.32248 0
M  V30 8004 H 751.681 4.7323 2.84178 0
M  V30 8005 H 754.157 2.81799 3.06151 0
M  V30 8006 H 753.033 3.37841 4.32614 0
M  V30 8007 H 753.294 1.65627 4.09903 0
M  V30 8008 N 752.353 -0.854086 1.3245 0
M  V30 8009 C 753.601 -1.60513 1.228 0
M  V30 8010 C 753.922 -1.93865 -0.210073 0
M  V30 8011 O 753.192 -1.59673 -1.13496 0
M  V30 8012 H 751.772 -0.595099 0.451516 0
M  V30 8013 H 754.434 -1.0216 1.6598 0
M  V30 8014 H 753.53 -2.54182 1.81102 0
M  V30 8015 N 753.831 -1.1567 -1.07043 0
M  V30 8016 C 755.056 -0.957946 -1.83952 0
M  V30 8017 C 755.481 0.488807 -1.81638 0
M  V30 8018 O 754.839 1.34869 -1.21162 0
M  V30 8019 C 754.887 -1.48064 -3.288 0
M  V30 8020 O 753.991 -0.681921 -4.06723 0
M  V30 8021 H 753.332 -0.341453 -0.569479 0
M  V30 8022 H 755.862 -1.53728 -1.35015 0
M  V30 8023 H 755.872 -1.49484 -3.7963 0
M  V30 8024 H 754.547 -2.53388 -3.29799 0
M  V30 8025 H 753.124 -0.737612 -3.65532 0
M  V30 8026 N 755.309 1.25446 -0.953992 0
M  V30 8027 C 756.239 2.28264 -0.491717 0
M  V30 8028 C 757.22 1.63717 0.461617 0
M  V30 8029 O 758.405 1.90821 0.36071 0
M  V30 8030 C 755.535 3.46525 0.231915 0
M  V30 8031 C 754.489 4.23247 -0.636098 0
M  V30 8032 C 753.815 5.34254 0.218238 0
M  V30 8033 C 755.115 4.85971 -1.91389 0
M  V30 8034 H 756.809 2.67183 -1.35106 0
M  V30 8035 H 754.355 1.2844 -0.651095 0
M  V30 8036 H 756.308 4.17576 0.566439 0
M  V30 8037 H 755.032 3.06594 1.12551 0
M  V30 8038 H 753.691 3.53978 -0.953696 0
M  V30 8039 H 753.339 4.90564 1.11156 0
M  V30 8040 H 753.039 5.86501 -0.359232 0
M  V30 8041 H 754.563 6.08138 0.547743 0
M  V30 8042 H 755.977 5.49168 -1.64581 0
M  V30 8043 H 754.374 5.48391 -2.43696 0
M  V30 8044 H 755.444 4.08192 -2.61738 0
M  V30 8045 N 756.787 0.722489 1.40064 0
M  V30 8046 C 758.015 0.274838 2.05066 0
M  V30 8047 C 758.43 -1.08586 1.54449 0
M  V30 8048 O 757.787 -1.68375 0.704003 0
M  V30 8049 C 757.838 0.253673 3.60609 0
M  V30 8050 O 757.559 1.56064 4.0936 0
M  V30 8051 C 759.06 -0.211684 4.42794 0
M  V30 8052 H 756.28 0.12226 0.659768 0
M  V30 8053 H 758.824 0.982632 1.79345 0
M  V30 8054 H 756.979 -0.405137 3.85276 0
M  V30 8055 H 757.393 1.46576 5.03603 0
M  V30 8056 H 758.867 -0.175341 5.51721 0
M  V30 8057 H 759.344 -1.25493 4.2089 0
M  V30 8058 H 759.95 0.4171 4.2325 0
M  V30 8059 N 758.265 -1.50454 0.469181 0
M  V30 8060 C 759.514 -2.01507 -0.0881425 0
M  V30 8061 C 759.827 -1.35613 -1.40956 0
M  V30 8062 O 761.033 -1.77812 -2.05171 0
M  V30 8063 C 759.489 -3.59301 -0.207596 0
M  V30 8064 C 759.097 -4.34152 1.10527 0
M  V30 8065 C 760.841 -4.18401 -0.716981 0
M  V30 8066 C 758.748 -5.83725 0.949717 0
M  V30 8067 H 757.678 -0.753106 -0.0367156 0
M  V30 8068 H 760.329 -1.73282 0.603788 0
M  V30 8069 H 758.711 -3.84106 -0.963265 0
M  V30 8070 H 759.885 -4.21073 1.87175 0
M  V30 8071 H 758.2 -3.86652 1.54562 0
M  V30 8072 H 760.797 -5.27895 -0.850363 0
M  V30 8073 H 761.14 -3.79657 -1.70782 0
M  V30 8074 H 761.673 -3.97796 -0.0187511 0
M  V30 8075 H 758.412 -6.26938 1.91387 0
M  V30 8076 H 757.932 -5.99383 0.223591 0
M  V30 8077 H 759.611 -6.44065 0.61557 0
M  V30 8078 N 759.743 -0.201713 -1.56304 0
M  V30 8079 C 760.691 0.733133 -2.20744 0
M  V30 8080 C 761.685 1.2148 -1.18064 0
M  V30 8081 O 762.891 1.17692 -1.36193 0
M  V30 8082 H 759.266 0.254789 -0.707521 0
M  V30 8083 H 761.237 0.165996 -2.97938 0
M  V30 8084 C 759.986 1.93925 -2.88597 0
M  V30 8085 H 759.309 1.5777 -3.67353 0
M  V30 8086 H 760.749 2.57158 -3.37114 0
M  V30 8087 C 759.208 2.78219 -1.89989 0
M  V30 8088 O 759.738 3.76353 -1.40432 0
M  V30 8089 N 757.944 2.43847 -1.58072 0
M  V30 8090 H 757.491 1.64103 -1.98565 0
M  V30 8091 H 757.449 3.0053 -0.923524 0
M  V30 8092 N 761.222 1.57436 0.0718424 0
M  V30 8093 C 762.132 2.07039 1.10326 0
M  V30 8094 C 763.148 0.999918 1.424 0
M  V30 8095 O 764.324 1.31462 1.52577 0
M  V30 8096 C 761.389 2.50439 2.39752 0
M  V30 8097 C 760.45 3.71784 2.14651 0
M  V30 8098 C 759.683 4.13104 3.37906 0
M  V30 8099 O 759.906 3.54298 4.47023 0
M  V30 8100 O 758.84 5.05894 3.26121 0
M  V30 8101 H 762.666 2.95239 0.711872 0
M  V30 8102 H 760.251 1.46638 0.28597 0
M  V30 8103 H 762.133 2.78876 3.15921 0
M  V30 8104 H 760.808 1.65368 2.78271 0
M  V30 8105 H 759.715 3.48431 1.36187 0
M  V30 8106 H 761.048 4.57707 1.81012 0
M  V30 8107 N 762.7 -0.34323 1.53817 0
M  V30 8108 C 763.61 -1.44493 1.84821 0
M  V30 8109 C 764.626 -1.57556 0.738381 0
M  V30 8110 O 765.802 -1.73026 1.03072 0
M  V30 8111 C 762.867 -2.79478 2.05166 0
M  V30 8112 C 761.928 -2.75756 3.29025 0
M  V30 8113 C 761.161 -4.04302 3.4839 0
M  V30 8114 O 761.384 -5.01595 2.71586 0
M  V30 8115 O 760.318 -4.08754 4.41819 0
M  V30 8116 H 764.144 -1.21209 2.78464 0
M  V30 8117 H 761.729 -0.535437 1.39476 0
M  V30 8118 H 763.611 -3.59419 2.19991 0
M  V30 8119 H 762.286 -3.02692 1.14713 0
M  V30 8120 H 761.193 -1.94434 3.19603 0
M  V30 8121 H 762.526 -2.57495 4.19472 0
M  V30 8122 N 764.178 -1.45556 -0.604258 0
M  V30 8123 C 765.594 -1.30035 -0.925368 0
M  V30 8124 C 765.794 -0.255833 -1.99869 0
M  V30 8125 O 764.85 0.349076 -2.50075 0
M  V30 8126 C 766.163 -2.68028 -1.36314 0
M  V30 8127 C 767.711 -2.75951 -1.47717 0
M  V30 8128 C 768.186 -4.14476 -1.94868 0
M  V30 8129 N 769.677 -4.16787 -2.02097 0
M  V30 8130 C 770.412 -5.20845 -2.39809 0
M  V30 8131 N 769.908 -6.35246 -2.76467 0
M  V30 8132 N 771.701 -5.08204 -2.40177 0
M  V30 8133 H 763.852 -2.1214 0.10512 0
M  V30 8134 H 766.115 -0.947871 -0.0156303 0
M  V30 8135 H 765.821 -3.45667 -0.648628 0
M  V30 8136 H 765.695 -2.96711 -2.329 0
M  V30 8137 H 768.082 -1.98613 -2.18258 0
M  V30 8138 H 768.163 -2.50977 -0.494371 0
M  V30 8139 H 767.807 -4.923 -1.24912 0
M  V30 8140 H 767.737 -4.36843 -2.94068 0
M  V30 8141 H 770.228 -3.34233 -1.76343 0
M  V30 8142 H 770.541 -7.10438 -3.04134 0
M  V30 8143 H 768.886 -6.38642 -2.74155 0
M  V30 8144 H 772.077 -4.17874 -2.10947 0
M  V30 8145 H 772.25 -5.89417 -2.69242 0
M  V30 8146 N 765.656 0.84705 -1.32902 0
M  V30 8147 C 766.881 1.63925 -1.27056 0
M  V30 8148 C 767.306 1.87443 0.157136 0
M  V30 8149 O 766.664 1.43266 1.11106 0
M  V30 8150 C 766.712 2.97134 -2.04313 0
M  V30 8151 O 765.816 3.88049 -1.39614 0
M  V30 8152 H 765.157 0.499477 -0.437514 0
M  V30 8153 H 767.687 1.05443 -1.75336 0
M  V30 8154 H 767.697 3.46896 -2.14772 0
M  V30 8155 H 766.372 2.79339 -3.08128 0
M  V30 8156 H 764.949 3.46525 -1.3775 0
M  V30 8157 N 767.134 1.16236 1.06428 0
M  V30 8158 C 768.044 0.881976 2.1739 0
M  V30 8159 C 769.06 -0.145259 1.73393 0
M  V30 8160 O 770.236 0.0310558 2.01376 0
M  V30 8161 C 767.301 0.385496 3.4455 0
M  V30 8162 C 766.362 1.47779 4.03063 0
M  V30 8163 C 765.595 1.0049 5.24154 0
M  V30 8164 O 765.818 -0.145889 5.70213 0
M  V30 8165 O 764.752 1.79265 5.74585 0
M  V30 8166 H 768.578 1.80983 2.43883 0
M  V30 8167 H 766.163 0.942226 1.15942 0
M  V30 8168 H 768.045 0.115536 4.21242 0
M  V30 8169 H 766.72 -0.514369 3.19587 0
M  V30 8170 H 765.627 1.80147 3.27869 0
M  V30 8171 H 766.96 2.35291 4.32318 0
M  V30 8172 N 768.612 -1.24939 0.960631 0
M  V30 8173 C 769.858 -1.93104 0.61958 0
M  V30 8174 C 770.191 -1.74991 -0.84212 0
M  V30 8175 O 769.466 -1.09867 -1.60498 0
M  V30 8176 C 769.749 -3.46326 0.986422 0
M  V30 8177 C 769.602 -3.73638 2.50429 0
M  V30 8178 C 770.921 -4.37067 0.515827 0
M  V30 8179 H 768.04 -0.701311 0.226566 0
M  V30 8180 H 770.682 -1.47442 1.19836 0
M  V30 8181 H 768.832 -3.85348 0.493907 0
M  V30 8182 H 770.504 -3.44217 3.07103 0
M  V30 8183 H 768.747 -3.19035 2.93937 0
M  V30 8184 H 769.418 -4.80815 2.71147 0
M  V30 8185 H 771.894 -4.05381 0.938389 0
M  V30 8186 H 770.77 -5.43022 0.80114 0
M  V30 8187 H 771.031 -4.38224 -0.584171 0
M  V30 8188 N 770.09 -0.729906 -1.39679 0
M  V30 8189 C 771.336 -0.27603 -2.00913 0
M  V30 8190 C 771.669 1.13227 -1.57776 0
M  V30 8191 O 770.944 1.7709 -0.804319 0
M  V30 8192 C 771.227 -0.372157 -3.58172 0
M  V30 8193 C 771.08 -1.81986 -4.11341 0
M  V30 8194 C 772.399 0.248378 -4.39399 0
M  V30 8195 H 769.518 -0.101773 -0.729939 0
M  V30 8196 H 772.16 -0.925104 -1.65957 0
M  V30 8197 H 770.31 0.180459 -3.88081 0
M  V30 8198 H 771.982 -2.42896 -3.92172 0
M  V30 8199 H 770.225 -2.34287 -3.65092 0
M  V30 8200 H 770.896 -1.83842 -5.20486 0
M  V30 8201 H 773.372 -0.222645 -4.15504 0
M  V30 8202 H 772.248 0.150746 -5.48693 0
M  V30 8203 H 772.509 1.33378 -4.21501 0
M  V30 8204 N 771.568 1.50203 -0.477153 0
M  V30 8205 C 772.845 1.95115 0.137609 0
M  V30 8206 C 773.225 1.41778 1.56404 0
M  V30 8207 O 772.573 0.621333 2.1989 0
M  V30 8208 C 772.783 3.4892 0.0747168 0
M  V30 8209 C 774.131 4.238 0.260585 0
M  V30 8210 O 775.155 3.5588 0.151021 0
M  V30 8211 O 774.014 5.44366 0.482534 0
M  V30 8212 H 771.108 0.81987 0.108364 0
M  V30 8213 H 773.654 1.60946 -0.537989 0
M  V30 8214 H 772.426 3.80308 -0.920966 0
M  V30 8215 H 772.049 3.89642 0.791509 0
M  V30 8216 N 773.046 0.209999 1.56195 0
M  V30 8217 C 774.293 -0.424813 1.97994 0
M  V30 8218 C 774.621 -1.60589 1.09733 0
M  V30 8219 O 773.876 -1.95201 0.139693 0
M  V30 8220 C 774.175 -0.91312 3.45539 0
M  V30 8221 C 773.841 0.156187 4.50629 0
M  V30 8222 C 772.503 0.449966 4.79092 0
M  V30 8223 C 774.855 0.879959 5.13718 0
M  V30 8224 C 772.183 1.47223 5.67928 0
M  V30 8225 C 774.535 1.89148 6.0366 0
M  V30 8226 C 773.199 2.1923 6.30472 0
M  V30 8227 H 772.469 -0.15545 0.724511 0
M  V30 8228 H 775.116 0.310095 1.88973 0
M  V30 8229 H 773.421 -1.72658 3.51705 0
M  V30 8230 H 775.118 -1.41395 3.75245 0
M  V30 8231 H 771.708 -0.0829466 4.2852 0
M  V30 8232 H 775.892 0.66623 4.91808 0
M  V30 8233 H 771.148 1.71105 5.86969 0
M  V30 8234 H 775.322 2.45745 6.516 0
M  V30 8235 H 772.949 2.98587 6.99107 0
M  V30 8236 N 774.524 -1.57472 -0.0634922 0
M  V30 8237 C 775.749 -1.92273 -0.77756 0
M  V30 8238 C 776.174 -0.807141 -1.69902 0
M  V30 8239 O 775.532 0.239523 -1.79711 0
M  V30 8240 C 775.58 -3.26054 -1.54017 0
M  V30 8241 O 774.684 -3.15873 -2.65138 0
M  V30 8242 H 774.025 -0.629389 -0.211579 0
M  V30 8243 H 776.555 -2.04579 -0.0292523 0
M  V30 8244 H 776.565 -3.60127 -1.91763 0
M  V30 8245 H 775.24 -4.06824 -0.864128 0
M  V30 8246 H 773.817 -2.93373 -2.30189 0
M  V30 8247 N 776.003 0.335068 -1.53997 0
M  V30 8248 C 777.249 1.07594 -1.71905 0
M  V30 8249 C 777.582 1.88039 -0.485264 0
M  V30 8250 O 776.857 1.87482 0.517752 0
M  V30 8251 C 777.14 2.01016 -2.98772 0
M  V30 8252 C 776.993 1.23977 -4.32377 0
M  V30 8253 C 778.312 3.0071 -3.21343 0
M  V30 8254 H 775.431 0.38976 -0.625505 0
M  V30 8255 H 778.073 0.353684 -1.86679 0
M  V30 8256 H 776.223 2.62603 -2.86307 0
M  V30 8257 H 777.895 0.649383 -4.56706 0
M  V30 8258 H 776.138 0.541878 -4.30402 0
M  V30 8259 H 776.809 1.92512 -5.17342 0
M  V30 8260 H 779.285 2.4924 -3.33194 0
M  V30 8261 H 778.161 3.63272 -4.11491 0
M  V30 8262 H 778.422 3.72549 -2.38033 0
M  V30 8263 N 777.481 1.45874 0.596531 0
M  V30 8264 C 778.892 1.44798 1.17857 0
M  V30 8265 C 779.243 0.181443 1.95359 0
M  V30 8266 O 778.368 -0.716336 2.042 0
M  V30 8267 C 778.963 2.62333 2.14398 0
M  V30 8268 C 777.522 2.64342 2.67955 0
M  V30 8269 C 776.669 2.37244 1.43564 0
M  V30 8270 H 779.62 1.53954 0.385222 0
M  V30 8271 H 779.641 2.37063 2.97626 0
M  V30 8272 H 779.153 3.54499 1.57963 0
M  V30 8273 H 777.254 1.76213 3.28298 0
M  V30 8274 H 777.367 3.63897 3.11634 0
M  V30 8275 H 775.731 1.87022 1.72901 0
M  V30 8276 H 776.514 3.31568 0.889805 0
M  V30 8277 N 778.959 -0.83999 1.33349 0
M  V30 8278 C 780.206 -1.59517 1.24742 0
M  V30 8279 C 780.534 -1.93598 -0.187077 0
M  V30 8280 O 779.789 -1.58782 -1.14398 0
M  V30 8281 C 780.088 -2.91571 2.06691 0
M  V30 8282 C 779.754 -2.76856 3.55895 0
M  V30 8283 C 778.416 -2.72551 3.96572 0
M  V30 8284 C 780.768 -2.61741 4.50712 0
M  V30 8285 C 778.096 -2.51028 5.30285 0
M  V30 8286 C 780.448 -2.41752 5.84584 0
M  V30 8287 C 779.112 -2.35848 6.24445 0
M  V30 8288 H 778.382 -0.583714 0.456463 0
M  V30 8289 H 781.029 -0.973261 1.64924 0
M  V30 8290 H 779.334 -3.57961 1.59284 0
M  V30 8291 H 781.031 -3.49053 1.9739 0
M  V30 8292 H 777.621 -2.81039 3.23597 0
M  V30 8293 H 781.805 -2.64102 4.20195 0
M  V30 8294 H 777.061 -2.44903 5.60208 0
M  V30 8295 H 781.235 -2.2904 6.57658 0
M  V30 8296 H 778.862 -2.18931 7.27993 0
M  V30 8297 N 780.437 -1.16799 -1.0581 0
M  V30 8298 C 781.683 -0.953935 -1.78963 0
M  V30 8299 C 782.016 0.516638 -1.87202 0
M  V30 8300 O 781.291 1.38338 -1.36721 0
M  V30 8301 C 781.574 -1.58808 -3.23191 0
M  V30 8302 C 781.427 -3.13032 -3.23003 0
M  V30 8303 C 782.746 -1.2868 -4.20867 0
M  V30 8304 H 779.865 -0.347972 -0.64968 0
M  V30 8305 H 782.507 -1.44204 -1.23715 0
M  V30 8306 H 780.657 -1.17303 -3.70368 0
M  V30 8307 H 782.329 -3.63553 -2.83949 0
M  V30 8308 H 780.572 -3.46108 -2.61518 0
M  V30 8309 H 781.243 -3.52527 -4.24769 0
M  V30 8310 H 783.719 -1.6461 -3.82155 0
M  V30 8311 H 782.595 -1.75645 -5.20038 0
M  V30 8312 H 782.856 -0.206491 -4.41618 0
M  V30 8313 N 781.915 1.24427 -0.967243 0
M  V30 8314 C 782.825 2.29109 -0.504592 0
M  V30 8315 C 783.841 1.68495 0.434224 0
M  V30 8316 O 785.017 1.99041 0.307379 0
M  V30 8317 C 782.082 3.46133 0.198273 0
M  V30 8318 C 781.143 4.22149 -0.780313 0
M  V30 8319 C 780.376 5.33585 -0.110896 0
M  V30 8320 O 780.599 5.59676 1.10088 0
M  V30 8321 O 779.533 5.96522 -0.802823 0
M  V30 8322 H 783.359 2.708 -1.37482 0
M  V30 8323 H 780.944 1.30111 -0.73426 0
M  V30 8324 H 782.826 4.17205 0.593124 0
M  V30 8325 H 781.501 3.0642 1.04347 0
M  V30 8326 H 780.408 3.53454 -1.22561 0
M  V30 8327 H 781.741 4.65677 -1.59392 0
M  V30 8328 N 783.393 0.737304 1.3929 0
M  V30 8329 C 784.621 0.296573 2.04763 0
M  V30 8330 C 785.036 -1.06941 1.55592 0
M  V30 8331 O 784.393 -1.67619 0.721822 0
M  V30 8332 C 784.444 0.291906 3.6032 0
M  V30 8333 O 784.165 1.60397 4.07682 0
M  V30 8334 C 785.666 -0.164708 4.42994 0
M  V30 8335 H 782.886 0.129251 0.658434 0
M  V30 8336 H 785.43 1.0016 1.78293 0
M  V30 8337 H 783.585 -0.364251 3.85684 0
M  V30 8338 H 783.999 1.51909 5.0202 0
M  V30 8339 H 785.473 -0.116814 5.51876 0
M  V30 8340 H 785.95 -1.21022 4.22197 0
M  V30 8341 H 786.556 0.461968 4.22784 0
M  V30 8342 N 784.871 -1.49948 0.485112 0
M  V30 8343 C 786.119 -2.01996 -0.0648775 0
M  V30 8344 C 786.44 -1.36819 -1.38945 0
M  V30 8345 O 785.71 -0.518163 -1.88923 0
M  V30 8346 H 784.29 -0.746513 -0.0269662 0
M  V30 8347 H 786.952 -1.84136 0.638733 0
M  V30 8348 H 786.048 -3.11418 -0.20617 0
M  V30 8349 N 786.349 -0.21828 -1.56081 0
M  V30 8350 C 787.598 0.414644 -1.97392 0
M  V30 8351 C 787.911 1.61132 -1.10887 0
M  V30 8352 O 789.117 2.31355 -1.42082 0
M  V30 8353 C 787.573 0.789099 -3.51143 0
M  V30 8354 C 787.181 -0.384578 -4.46346 0
M  V30 8355 C 788.925 1.38781 -4.01173 0
M  V30 8356 C 786.832 0.0121288 -5.91399 0
M  V30 8357 H 785.762 0.158691 -0.737111 0
M  V30 8358 H 788.413 -0.313974 -1.80794 0
M  V30 8359 H 786.795 1.57505 -3.6333 0
M  V30 8360 H 787.969 -1.16212 -4.45905 0
M  V30 8361 H 786.284 -0.896306 -4.06639 0
M  V30 8362 H 788.881 1.69746 -5.07041 0
M  V30 8363 H 789.224 2.30245 -3.46833 0
M  V30 8364 H 789.757 0.665364 -3.92196 0
M  V30 8365 H 786.496 -0.868917 -6.49715 0
M  V30 8366 H 786.016 0.754053 -5.95041 0
M  V30 8367 H 787.695 0.439949 -6.45502 0
M  V30 8368 N 787.827 1.57504 0.0551401 0
M  V30 8369 C 789.052 1.92682 0.767352 0
M  V30 8370 C 789.477 0.81614 1.69472 0
M  V30 8371 O 788.835 -0.229989 1.79835 0
M  V30 8372 C 788.883 3.26866 1.52286 0
M  V30 8373 O 787.987 3.17274 2.63459 0
M  V30 8374 H 787.328 0.630502 0.208238 0
M  V30 8375 H 789.858 2.04592 0.0184026 0
M  V30 8376 H 789.868 3.61138 1.8985 0
M  V30 8377 H 788.543 4.07276 0.842541 0
M  V30 8378 H 787.12 2.94589 2.2863 0
M  V30 8379 N 789.305 -0.326896 1.54172 0
M  V30 8380 C 790.551 -1.06681 1.72473 0
M  V30 8381 C 790.884 -1.87779 0.49523 0
M  V30 8382 O 790.159 -1.87754 -0.507803 0
M  V30 8383 C 790.442 -1.99429 2.99834 0
M  V30 8384 C 790.295 -1.21682 4.33028 0
M  V30 8385 C 791.614 -2.99002 3.22933 0
M  V30 8386 H 788.733 -0.386438 0.627563 0
M  V30 8387 H 791.375 -0.343779 1.86864 0
M  V30 8388 H 789.525 -2.61081 2.87696 0
M  V30 8389 H 791.197 -0.625153 4.57044 0
M  V30 8390 H 789.44 -0.519045 4.30684 0
M  V30 8391 H 790.111 -1.89766 5.18356 0
M  V30 8392 H 792.587 -2.4747 3.34511 0
M  V30 8393 H 791.463 -3.61085 4.13412 0
M  V30 8394 H 791.724 -3.71281 2.40006 0
M  V30 8395 N 790.784 -1.46188 -0.588786 0
M  V30 8396 C 791.717 -1.508 -1.71274 0
M  V30 8397 C 792.695 -0.362635 -1.58505 0
M  V30 8398 O 793.879 -0.565899 -1.79805 0
M  V30 8399 C 791.006 -1.38082 -3.09275 0
M  V30 8400 C 790.052 -2.56723 -3.40581 0
M  V30 8401 S 790.885 -4.1911 -3.33327 0
M  V30 8402 C 792.041 -4.08891 -4.73877 0
M  V30 8403 H 792.274 -2.45895 -1.67102 0
M  V30 8404 H 789.807 -1.34 -0.767025 0
M  V30 8405 H 791.765 -1.31432 -3.88891 0
M  V30 8406 H 790.426 -0.444259 -3.10942 0
M  V30 8407 H 789.619 -2.43801 -4.41109 0
M  V30 8408 H 789.221 -2.60332 -2.68521 0
M  V30 8409 H 791.513 -3.75196 -5.64123 0
M  V30 8410 H 792.456 -5.09395 -4.91856 0
M  V30 8411 H 792.864 -3.40239 -4.50441 0
M  V30 8412 N 792.262 0.832906 -1.33792 0
M  V30 8413 C 793.508 1.59089 -1.25772 0
M  V30 8414 C 793.841 1.93414 0.174601 0
M  V30 8415 O 793.116 1.59195 1.11746 0
M  V30 8416 C 793.399 2.89699 -2.13885 0
M  V30 8417 C 793.252 2.62017 -3.65605 0
M  V30 8418 C 794.571 3.91182 -2.01654 0
M  V30 8419 H 791.69 0.577232 -0.458227 0
M  V30 8420 H 794.332 0.960227 -1.6395 0
M  V30 8421 H 792.482 3.4352 -1.81456 0
M  V30 8422 H 794.154 2.14582 -4.08353 0
M  V30 8423 H 792.397 1.95621 -3.87189 0
M  V30 8424 H 793.068 3.55112 -4.2261 0
M  V30 8425 H 795.544 3.46684 -2.30107 0
M  V30 8426 H 794.42 4.80391 -2.65548 0
M  V30 8427 H 794.681 4.30861 -0.990536 0
M  V30 8428 N 793.74 1.17359 1.05189 0
M  V30 8429 C 794.965 0.98709 1.82404 0
M  V30 8430 C 795.39 -0.459848 1.82392 0
M  V30 8431 O 794.748 -1.32924 1.23292 0
M  V30 8432 C 794.796 1.53276 3.26403 0
M  V30 8433 O 793.9 0.746541 4.05587 0
M  V30 8434 H 793.241 0.35047 0.563974 0
M  V30 8435 H 795.771 1.55856 1.32552 0
M  V30 8436 H 795.781 1.55504 3.77203 0
M  V30 8437 H 794.456 2.58603 3.25726 0
M  V30 8438 H 793.033 0.795671 3.64312 0
M  V30 8439 N 795.218 -1.23913 0.973828 0
M  V30 8440 C 796.634 -1.44325 0.681363 0
M  V30 8441 C 796.834 -1.86832 -0.754728 0
M  V30 8442 O 795.89 -2.01024 -1.52793 0
M  V30 8443 C 797.203 -2.50017 1.67069 0
M  V30 8444 C 798.751 -2.63838 1.68399 0
M  V30 8445 C 799.226 -3.72734 2.66145 0
M  V30 8446 N 800.717 -3.80169 2.64624 0
M  V30 8447 C 801.452 -4.6397 3.36927 0
M  V30 8448 N 800.948 -5.51911 4.18767 0
M  V30 8449 N 802.741 -4.58106 3.25722 0
M  V30 8450 H 794.892 -0.946204 1.9016 0
M  V30 8451 H 797.155 -0.477374 0.819035 0
M  V30 8452 H 796.861 -2.25686 2.69738 0
M  V30 8453 H 796.735 -3.48287 1.4483 0
M  V30 8454 H 799.122 -2.87524 0.664379 0
M  V30 8455 H 799.203 -1.65906 1.94702 0
M  V30 8456 H 798.847 -3.49797 3.68245 0
M  V30 8457 H 798.777 -4.70193 2.3712 0
M  V30 8458 H 801.268 -3.17319 2.05224 0
M  V30 8459 H 801.581 -6.12828 4.70809 0
M  V30 8460 H 799.926 -5.51556 4.2286 0
M  V30 8461 H 803.117 -3.8842 2.61242 0
M  V30 8462 H 803.29 -5.23188 3.82333 0
M  V30 8463 N 796.696 -0.74468 -1.38897 0
M  V30 8464 C 797.921 -0.306119 -2.05128 0
M  V30 8465 C 798.346 1.0541 -1.55789 0
M  V30 8466 O 797.704 1.66993 -0.705909 0
M  V30 8467 C 797.752 -0.328195 -3.59103 0
M  V30 8468 O 796.856 0.680876 -4.06741 0
M  V30 8469 H 796.197 -0.137209 -0.649669 0
M  V30 8470 H 798.727 -1.01331 -1.77745 0
M  V30 8471 H 798.737 -0.175956 -4.0762 0
M  V30 8472 H 797.412 -1.32067 -3.94374 0
M  V30 8473 H 795.989 0.49398 -3.69614 0
M  V30 8474 N 798.174 1.49689 -0.493057 0
M  V30 8475 C 799.122 2.30613 0.303383 0
M  V30 8476 C 800.116 1.38867 0.970165 0
M  V30 8477 O 801.322 1.55956 0.898761 0
M  V30 8478 H 797.697 0.742891 0.116691 0
M  V30 8479 H 799.668 2.95717 -0.39924 0
M  V30 8480 C 798.417 3.20008 1.35978 0
M  V30 8481 H 797.74 3.90526 0.856103 0
M  V30 8482 H 799.18 3.79586 1.88919 0
M  V30 8483 C 797.639 2.39079 2.37367 0
M  V30 8484 O 798.169 2.08933 3.43089 0
M  V30 8485 N 796.375 2.0125 2.09635 0
M  V30 8486 H 795.922 2.25966 1.23682 0
M  V30 8487 H 795.88 1.47408 2.77702 0
M  V30 8488 N 799.652 0.226554 1.55963 0
M  V30 8489 C 800.9 -0.402991 1.98041 0
M  V30 8490 C 801.221 -1.59938 1.11557 0
M  V30 8491 O 800.491 -1.9494 0.193719 0
M  V30 8492 H 799.071 -0.15188 0.731397 0
M  V30 8493 H 801.733 0.320613 1.92245 0
M  V30 8494 H 800.829 -0.725937 3.0354 0
M  V30 8495 N 801.13 -1.57531 -0.0467866 0
M  V30 8496 C 802.358 -1.92696 -0.753371 0
M  V30 8497 C 802.773 -0.824792 -1.69831 0
M  V30 8498 O 802.13 0.200155 -1.81399 0
M  V30 8499 C 802.181 -3.27728 -1.52566 0
M  V30 8500 O 801.902 -4.3371 -0.618674 0
M  V30 8501 C 803.403 -3.77066 -2.33101 0
M  V30 8502 H 800.623 -0.636367 -0.212788 0
M  V30 8503 H 803.167 -2.04498 -0.00959361 0
M  V30 8504 H 801.322 -3.17378 -2.22148 0
M  V30 8505 H 801.736 -5.11548 -1.15839 0
M  V30 8506 H 803.21 -4.74109 -2.82709 0
M  V30 8507 H 803.687 -3.07348 -3.13741 0
M  V30 8508 H 804.293 -3.90442 -1.68628 0
M  V30 8509 N 802.608 0.318715 -1.54344 0
M  V30 8510 C 803.854 1.05765 -1.73037 0
M  V30 8511 C 804.187 1.87514 -0.505181 0
M  V30 8512 O 803.462 1.88021 0.497838 0
M  V30 8513 C 803.745 1.97836 -3.00887 0
M  V30 8514 C 803.598 1.19384 -4.33668 0
M  V30 8515 C 804.917 2.97285 -3.24514 0
M  V30 8516 H 802.036 0.383104 -0.629603 0
M  V30 8517 H 804.678 0.333864 -1.87044 0
M  V30 8518 H 802.828 2.59552 -2.89076 0
M  V30 8519 H 804.5 0.600906 -4.57369 0
M  V30 8520 H 802.743 0.496198 -4.30953 0
M  V30 8521 H 803.414 1.87014 -5.19355 0
M  V30 8522 H 805.89 2.45693 -3.35819 0
M  V30 8523 H 804.766 3.58887 -4.15321 0
M  V30 8524 H 805.027 3.70003 -2.41971 0
M  V30 8525 N 804.086 1.46499 0.581025 0
M  V30 8526 C 805.311 1.55708 1.37002 0
M  V30 8527 C 805.736 0.19942 1.8704 0
M  V30 8528 O 805.094 -0.820731 1.61659 0
M  V30 8529 C 805.142 2.56716 2.53238 0
M  V30 8530 O 804.246 2.10336 3.54729 0
M  V30 8531 H 803.587 0.523912 0.407937 0
M  V30 8532 H 806.117 1.92085 0.704602 0
M  V30 8533 H 806.127 2.76378 3.00132 0
M  V30 8534 H 804.802 3.55307 2.16171 0
M  V30 8535 H 803.379 2.00669 3.14303 0
M  V30 8536 N 805.565 -0.825799 1.34232 0
M  V30 8537 C 806.976 -1.39835 1.23706 0
M  V30 8538 C 807.327 -1.95709 -0.138649 0
M  V30 8539 O 806.452 -1.89833 -1.03886 0
M  V30 8540 C 807.047 -2.54203 2.23978 0
M  V30 8541 C 805.606 -3.07374 2.17251 0
M  V30 8542 C 804.753 -1.80232 2.10741 0
M  V30 8543 H 807.704 -0.630442 1.4564 0
M  V30 8544 H 807.725 -3.32214 1.8551 0
M  V30 8545 H 807.237 -2.13506 3.24094 0
M  V30 8546 H 805.338 -3.52583 1.20483 0
M  V30 8547 H 805.451 -3.6666 3.08379 0
M  V30 8548 H 803.815 -2.01012 1.56417 0
M  V30 8549 H 804.598 -1.41713 3.12686 0
M  V30 8550 N 807.043 -1.17915 -1.04565 0
M  V30 8551 C 808.268 -0.996749 -1.81878 0
M  V30 8552 C 808.693 0.450169 -1.82634 0
M  V30 8553 O 808.051 1.32268 -1.23995 0
M  V30 8554 C 808.099 -1.55005 -3.25585 0
M  V30 8555 O 807.203 -0.76804 -4.05185 0
M  V30 8556 H 806.544 -0.353456 -0.562108 0
M  V30 8557 H 809.074 -1.56557 -1.31723 0
M  V30 8558 H 809.084 -1.57503 -3.76373 0
M  V30 8559 H 807.759 -2.60327 -3.2435 0
M  V30 8560 H 806.336 -0.81498 -3.63885 0
M  V30 8561 N 808.521 1.23394 -0.980386 0
M  V30 8562 C 809.484 2.23092 -0.525619 0
M  V30 8563 C 810.484 1.56129 0.384745 0
M  V30 8564 O 811.674 1.73284 0.178439 0
M  V30 8565 C 808.806 3.40074 0.23712 0
M  V30 8566 H 809.999 2.64839 -1.40714 0
M  V30 8567 H 807.552 1.36227 -0.766275 0
M  V30 8568 H 808.287 3.03783 1.13518 0
M  V30 8569 H 808.072 3.89883 -0.416356 0
M  V30 8570 H 809.562 4.14043 0.543892 0
M  V30 8571 N 809.999 0.752036 1.385 0
M  V30 8572 C 811.246 0.307503 2.00152 0
M  V30 8573 C 811.574 -1.11033 1.59693 0
M  V30 8574 O 810.829 -1.77455 0.825125 0
M  V30 8575 C 811.128 0.376155 3.55415 0
M  V30 8576 C 810.794 1.74942 4.15579 0
M  V30 8577 C 809.456 2.12525 4.31725 0
M  V30 8578 C 811.808 2.65031 4.48785 0
M  V30 8579 C 809.136 3.39671 4.78373 0
M  V30 8580 C 811.488 3.91567 4.96848 0
M  V30 8581 C 810.152 4.2922 5.11201 0
M  V30 8582 H 809.422 0.112523 0.732407 0
M  V30 8583 H 812.069 0.962213 1.65571 0
M  V30 8584 H 810.374 -0.362121 3.90123 0
M  V30 8585 H 812.071 0.0138065 4.00998 0
M  V30 8586 H 808.661 1.44726 4.03426 0
M  V30 8587 H 812.845 2.3726 4.35914 0
M  V30 8588 H 808.101 3.68765 4.8767 0
M  V30 8589 H 812.275 4.61517 5.21512 0
M  V30 8590 H 809.902 5.27805 5.47107 0
M  V30 8591 N 811.477 -1.49425 0.500989 0
M  V30 8592 C 812.407 -2.31971 -0.266775 0
M  V30 8593 C 813.388 -1.40245 -0.962563 0
M  V30 8594 O 814.573 -1.69154 -0.953968 0
M  V30 8595 C 811.703 -3.20757 -1.33163 0
M  V30 8596 C 810.657 -4.21275 -0.75572 0
M  V30 8597 C 809.983 -4.98997 -1.92109 0
M  V30 8598 C 811.283 -5.21686 0.253213 0
M  V30 8599 H 812.977 -2.96408 0.422237 0
M  V30 8600 H 810.523 -1.4254 0.204505 0
M  V30 8601 H 812.476 -3.77315 -1.87646 0
M  V30 8602 H 811.2 -2.54263 -2.04983 0
M  V30 8603 H 809.859 -3.65861 -0.232637 0
M  V30 8604 H 809.507 -4.28951 -2.62698 0
M  V30 8605 H 809.207 -5.67011 -1.54182 0
M  V30 8606 H 810.731 -5.584 -2.47026 0
M  V30 8607 H 812.145 -5.72939 -0.203483 0
M  V30 8608 H 810.542 -5.9759 0.548322 0
M  V30 8609 H 811.612 -4.70596 1.16909 0
M  V30 8610 N 812.955 -0.234822 -1.55841 0
M  V30 8611 C 813.865 0.680828 -2.24504 0
M  V30 8612 C 814.881 1.20306 -1.25708 0
M  V30 8613 O 816.057 1.24188 -1.58554 0
M  V30 8614 C 813.122 1.86636 -2.92178 0
M  V30 8615 C 812.183 1.3848 -4.06352 0
M  V30 8616 C 811.416 2.51382 -4.70789 0
M  V30 8617 O 811.639 3.69831 -4.34259 0
M  V30 8618 O 810.573 2.21828 -5.59532 0
M  V30 8619 H 814.399 0.12583 -3.03439 0
M  V30 8620 H 811.984 -0.00381817 -1.494 0
M  V30 8621 H 813.866 2.55845 -3.34845 0
M  V30 8622 H 812.541 2.40921 -2.16192 0
M  V30 8623 H 811.448 0.660341 -3.68226 0
M  V30 8624 H 812.781 0.888177 -4.8412 0
M  V30 8625 N 814.433 1.57553 0.0384317 0
M  V30 8626 C 815.844 1.77258 0.586211 0
M  V30 8627 C 816.195 0.864706 1.76117 0
M  V30 8628 O 815.32 0.057141 2.16325 0
M  V30 8629 C 815.915 3.21453 1.07021 0
M  V30 8630 C 814.474 3.42387 1.56358 0
M  V30 8631 C 813.621 2.72801 0.497508 0
M  V30 8632 H 816.572 1.57585 -0.187796 0
M  V30 8633 H 816.593 3.27451 1.93794 0
M  V30 8634 H 816.105 3.87505 0.214851 0
M  V30 8635 H 814.206 2.81497 2.44111 0
M  V30 8636 H 814.319 4.50968 1.61754 0
M  V30 8637 H 812.683 2.36305 0.95038 0
M  V30 8638 H 813.466 3.41529 -0.348234 0
M  V30 8639 N 815.911 -0.310526 1.54511 0
M  V30 8640 C 817.158 -1.04691 1.73338 0
M  V30 8641 C 817.486 -1.87584 0.514038 0
M  V30 8642 O 816.741 -1.89096 -0.504119 0
M  V30 8643 C 817.04 -1.98942 2.96912 0
M  V30 8644 C 816.706 -1.321 4.31115 0
M  V30 8645 C 815.368 -1.13603 4.67598 0
M  V30 8646 C 817.72 -0.842362 5.14348 0
M  V30 8647 C 815.048 -0.459102 5.84901 0
M  V30 8648 C 817.4 -0.179202 6.32346 0
M  V30 8649 C 816.064 0.0178111 6.67498 0
M  V30 8650 H 815.334 -0.38309 0.634289 0
M  V30 8651 H 817.981 -0.322723 1.88761 0
M  V30 8652 H 816.286 -2.77856 2.76231 0
M  V30 8653 H 817.983 -2.55972 3.08674 0
M  V30 8654 H 814.573 -1.47502 4.02419 0
M  V30 8655 H 818.757 -0.973013 4.86668 0
M  V30 8656 H 814.013 -0.295385 6.10686 0
M  V30 8657 H 818.187 0.199619 6.96114 0
M  V30 8658 H 815.814 0.544356 7.58249 0
M  V30 8659 N 817.389 -1.46805 -0.573248 0
M  V30 8660 C 818.614 -1.56433 -1.36175 0
M  V30 8661 C 819.039 -0.209336 -1.86932 0
M  V30 8662 O 818.397 0.812146 -1.62092 0
M  V30 8663 C 818.445 -2.58055 -2.51873 0
M  V30 8664 O 817.549 -2.12214 -3.53609 0
M  V30 8665 H 816.89 -0.526068 -0.405153 0
M  V30 8666 H 819.42 -1.92456 -0.694405 0
M  V30 8667 H 819.43 -2.77966 -2.98662 0
M  V30 8668 H 818.105 -3.56448 -2.14284 0
M  V30 8669 H 816.682 -2.02333 -3.13234 0
M  V30 8670 N 818.867 0.818669 -1.34668 0
M  V30 8671 C 819.83 1.9114 -1.26483 0
M  V30 8672 C 820.83 1.598 -0.179044 0
M  V30 8673 O 822.02 1.6876 -0.431952 0
M  V30 8674 C 819.152 3.27285 -0.95381 0
M  V30 8675 H 820.345 1.9982 -2.23634 0
M  V30 8676 H 817.898 1.01314 -1.19018 0
M  V30 8677 H 818.633 3.24297 0.0143428 0
M  V30 8678 H 818.418 3.51416 -1.73924 0
M  V30 8679 H 819.908 4.07299 -0.921827 0
M  V30 8680 N 820.346 1.18468 1.03938 0
M  V30 8681 C 821.571 1.00638 1.81347 0
M  V30 8682 C 821.996 -0.440477 1.8287 0
M  V30 8683 O 821.354 -1.31609 1.24695 0
M  V30 8684 C 821.402 1.5673 3.24759 0
M  V30 8685 O 820.506 0.789517 4.04772 0
M  V30 8686 H 819.847 0.356432 0.560225 0
M  V30 8687 H 822.377 1.57253 1.30891 0
M  V30 8688 H 822.387 1.59496 3.75533 0
M  V30 8689 H 821.062 2.62043 3.22965 0
M  V30 8690 H 819.639 0.834267 3.63448 0
M  V30 8691 N 821.824 -1.22873 0.986916 0
M  V30 8692 C 823.07 -1.91746 0.660401 0
M  V30 8693 C 823.403 -1.76738 -0.804812 0
M  V30 8694 O 822.678 -1.13246 -1.58131 0
M  V30 8695 C 822.961 -3.44156 1.05966 0
M  V30 8696 C 822.814 -3.68242 2.58298 0
M  V30 8697 C 824.133 -4.35874 0.60842 0
M  V30 8698 H 821.252 -0.696347 0.241391 0
M  V30 8699 H 823.894 -1.44867 1.22937 0
M  V30 8700 H 822.044 -3.84213 0.575534 0
M  V30 8701 H 823.716 -3.37626 3.14335 0
M  V30 8702 H 821.959 -3.12728 3.00638 0
M  V30 8703 H 822.63 -4.74956 2.81285 0
M  V30 8704 H 825.106 -4.03299 1.02417 0
M  V30 8705 H 823.982 -5.41201 0.916142 0
M  V30 8706 H 824.243 -4.39364 -0.491086 0
M  V30 8707 N 823.302 -0.75937 -1.38099 0
M  V30 8708 C 824.548 -0.327559 -2.00745 0
M  V30 8709 C 824.903 1.08042 -1.592 0
M  V30 8710 O 824.196 1.7306 -0.822236 0
M  V30 8711 C 824.39 -0.394999 -3.55211 0
M  V30 8712 C 824.219 -1.80798 -4.11755 0
M  V30 8713 C 822.989 -2.42585 -4.43262 0
M  V30 8714 C 825.187 -2.76556 -4.33614 0
M  V30 8715 N 823.169 -3.75784 -4.85448 0
M  V30 8716 C 824.54 -3.94532 -4.78273 0
M  V30 8717 C 826.595 -2.74004 -4.15724 0
M  V30 8718 C 825.298 -5.10322 -5.06916 0
M  V30 8719 C 827.324 -3.88957 -4.45496 0
M  V30 8720 C 826.686 -5.05672 -4.90383 0
M  V30 8721 H 822.785 -0.166644 -0.764038 0
M  V30 8722 H 825.369 -0.99056 -1.67619 0
M  V30 8723 H 823.54 0.237761 -3.87672 0
M  V30 8724 H 825.272 0.0576828 -4.04659 0
M  V30 8725 H 822.027 -1.94302 -4.31907 0
M  V30 8726 H 822.451 -4.44234 -5.10867 0
M  V30 8727 H 827.093 -1.84948 -3.80203 0
M  V30 8728 H 824.811 -5.99988 -5.41332 0
M  V30 8729 H 828.397 -3.88308 -4.33253 0
M  V30 8730 H 827.277 -5.93146 -5.1298 0
M  V30 8731 N 824.78 1.49157 -0.508906 0
M  V30 8732 C 826.026 2.02773 0.0328469 0
M  V30 8733 C 826.359 1.38714 1.35912 0
M  V30 8734 O 825.634 0.525536 1.87266 0
M  V30 8735 C 825.917 3.59664 0.177088 0
M  V30 8736 C 825.77 4.34239 -1.17287 0
M  V30 8737 C 827.089 4.30505 0.913977 0
M  V30 8738 H 824.208 0.736926 0.0104631 0
M  V30 8739 H 826.85 1.781 -0.661851 0
M  V30 8740 H 825 3.80818 0.768774 0
M  V30 8741 H 826.672 4.24561 -1.80404 0
M  V30 8742 H 824.915 3.96486 -1.76016 0
M  V30 8743 H 825.586 5.42397 -1.02516 0
M  V30 8744 H 828.062 4.14054 0.412084 0
M  V30 8745 H 826.938 5.40012 0.983759 0
M  V30 8746 H 827.199 3.96302 1.95951 0
M  V30 8747 N 826.258 0.243083 1.55714 0
M  V30 8748 C 827.191 -0.698623 2.17243 0
M  V30 8749 C 828.169 -1.1756 1.12331 0
M  V30 8750 O 829.353 -1.25444 1.40699 0
M  V30 8751 C 826.48 -1.94901 2.77004 0
M  V30 8752 C 825.526 -1.61022 3.94936 0
M  V30 8753 S 826.359 -0.716173 5.30689 0
M  V30 8754 C 827.515 -1.97565 5.93901 0
M  V30 8755 H 827.748 -0.175724 2.9678 0
M  V30 8756 H 825.281 0.0275727 1.54375 0
M  V30 8757 H 827.239 -2.66687 3.12071 0
M  V30 8758 H 825.9 -2.44304 1.9742 0
M  V30 8759 H 825.093 -2.5398 4.35328 0
M  V30 8760 H 824.695 -0.972829 3.61126 0
M  V30 8761 H 826.987 -2.92333 6.11186 0
M  V30 8762 H 827.93 -1.61528 6.8943 0
M  V30 8763 H 828.338 -2.126 5.22935 0
M  V30 8764 N 827.736 -1.57571 -0.0300757 0
M  V30 8765 C 828.669 -2.01874 -1.06406 0
M  V30 8766 C 829.647 -0.902901 -1.35227 0
M  V30 8767 O 830.831 -1.16865 -1.47901 0
M  V30 8768 C 827.958 -2.39093 -2.39901 0
M  V30 8769 C 827.004 -3.61108 -2.26943 0
M  V30 8770 S 827.837 -5.10287 -1.62382 0
M  V30 8771 C 828.993 -5.50747 -2.97369 0
M  V30 8772 H 829.226 -2.89261 -0.686703 0
M  V30 8773 H 826.759 -1.52523 -0.240017 0
M  V30 8774 H 828.717 -2.61207 -3.16672 0
M  V30 8775 H 827.378 -1.52159 -2.74784 0
M  V30 8776 H 826.571 -3.84803 -3.25489 0
M  V30 8777 H 826.173 -3.3884 -1.58314 0
M  V30 8778 H 828.465 -5.51369 -3.93698 0
M  V30 8779 H 829.408 -6.51071 -2.78409 0
M  V30 8780 H 829.816 -4.7825 -2.99895 0
M  V30 8781 N 829.214 0.302327 -1.54673 0
M  V30 8782 C 830.461 1.0377 -1.73891 0
M  V30 8783 C 830.789 1.87309 -0.523979 0
M  V30 8784 O 830.044 1.8936 0.494084 0
M  V30 8785 C 830.343 1.97365 -2.97963 0
M  V30 8786 C 830.009 1.29812 -4.3181 0
M  V30 8787 C 828.671 1.11121 -4.68194 0
M  V30 8788 C 831.023 0.815073 -5.14787 0
M  V30 8789 C 828.351 0.428077 -5.85136 0
M  V30 8790 C 830.703 0.145665 -6.32432 0
M  V30 8791 C 829.367 -0.0532098 -6.67479 0
M  V30 8792 H 828.637 0.379721 -0.636312 0
M  V30 8793 H 831.284 0.312708 -1.8893 0
M  V30 8794 H 829.589 2.76387 -2.777 0
M  V30 8795 H 831.286 2.54331 -3.10027 0
M  V30 8796 H 827.876 1.45366 -4.03196 0
M  V30 8797 H 832.06 0.947191 -4.87178 0
M  V30 8798 H 827.316 0.262995 -6.10834 0
M  V30 8799 H 831.49 -0.236533 -6.95998 0
M  V30 8800 H 829.117 -0.58456 -7.57949 0
M  V30 8801 N 830.692 1.47107 0.565454 0
M  V30 8802 C 831.938 1.53535 1.32495 0
M  V30 8803 C 832.271 0.193537 1.93233 0
M  V30 8804 O 831.546 -0.796956 1.77423 0
M  V30 8805 C 831.829 2.64712 2.4413 0
M  V30 8806 C 831.682 4.08482 1.88314 0
M  V30 8807 C 833.001 2.71853 3.46098 0
M  V30 8808 H 830.12 0.558926 0.480386 0
M  V30 8809 H 832.762 1.79125 0.633575 0
M  V30 8810 H 830.912 2.43023 3.03104 0
M  V30 8811 H 832.584 4.4151 1.33665 0
M  V30 8812 H 830.827 4.17148 1.19037 0
M  V30 8813 H 831.498 4.82032 2.68978 0
M  V30 8814 H 833.974 2.91397 2.97031 0
M  V30 8815 H 832.85 3.51433 4.21646 0
M  V30 8816 H 833.111 1.78584 4.04426 0
M  V30 8817 N 832.17 -0.811516 1.35101 0
M  V30 8818 C 833.103 -1.92872 1.21966 0
M  V30 8819 C 834.081 -1.62236 0.108667 0
M  V30 8820 O 835.265 -1.8647 0.275875 0
M  V30 8821 C 832.392 -3.27152 0.876886 0
M  V30 8822 C 831.438 -3.7674 1.99924 0
M  V30 8823 S 832.271 -3.95132 3.61429 0
M  V30 8824 C 833.427 -5.32322 3.29218 0
M  V30 8825 H 833.66 -2.03718 2.16532 0
M  V30 8826 H 831.193 -0.968352 1.20259 0
M  V30 8827 H 833.151 -4.04729 0.685917 0
M  V30 8828 H 831.812 -3.14059 -0.0506289 0
M  V30 8829 H 831.005 -4.73981 1.71343 0
M  V30 8830 H 830.607 -3.06145 2.14829 0
M  V30 8831 H 832.899 -6.1614 2.8174 0
M  V30 8832 H 833.842 -5.65893 4.25641 0
M  V30 8833 H 834.25 -4.98374 2.65111 0
M  V30 8834 N 833.648 -1.19017 -1.03309 0
M  V30 8835 C 834.578 -0.94772 -2.13402 0
M  V30 8836 C 835.559 0.117383 -1.69694 0
M  V30 8837 O 836.744 -0.0367733 -1.94165 0
M  V30 8838 C 833.874 -0.480977 -3.43953 0
M  V30 8839 C 832.828 -1.48743 -4.01322 0
M  V30 8840 C 832.154 -0.877924 -5.27443 0
M  V30 8841 C 833.454 -2.86642 -4.36616 0
M  V30 8842 H 835.148 -1.86846 -2.33942 0
M  V30 8843 H 832.694 -0.899781 -1.12427 0
M  V30 8844 H 834.647 -0.298677 -4.2034 0
M  V30 8845 H 833.371 0.475348 -3.23122 0
M  V30 8846 H 832.03 -1.65681 -3.27025 0
M  V30 8847 H 831.678 0.0858232 -5.02927 0
M  V30 8848 H 831.378 -1.54996 -5.66789 0
M  V30 8849 H 832.902 -0.706326 -6.06501 0
M  V30 8850 H 834.316 -2.73312 -5.03958 0
M  V30 8851 H 832.713 -3.50599 -4.87032 0
M  V30 8852 H 833.783 -3.39617 -3.46105 0
M  V30 8853 N 835.127 1.22348 -0.993418 0
M  V30 8854 C 836.057 2.26584 -0.564088 0
M  V30 8855 C 837.038 1.65102 0.409298 0
M  V30 8856 O 838.223 1.91872 0.299819 0
M  V30 8857 C 835.353 3.47087 0.121554 0
M  V30 8858 C 834.307 4.21009 -0.770429 0
M  V30 8859 C 833.633 5.34678 0.0481586 0
M  V30 8860 C 834.933 4.79636 -2.06752 0
M  V30 8861 H 836.627 2.62749 -1.43538 0
M  V30 8862 H 834.173 1.26303 -0.691628 0
M  V30 8863 H 836.126 4.19166 0.433303 0
M  V30 8864 H 834.85 3.1002 1.0274 0
M  V30 8865 H 833.509 3.50764 -1.06583 0
M  V30 8866 H 833.157 4.93852 0.954933 0
M  V30 8867 H 832.857 5.85061 -0.545641 0
M  V30 8868 H 834.381 6.09573 0.353991 0
M  V30 8869 H 835.795 5.43654 -1.81969 0
M  V30 8870 H 834.192 5.4036 -2.61019 0
M  V30 8871 H 835.262 3.99659 -2.74592 0
M  V30 8872 N 836.605 0.766683 1.37694 0
M  V30 8873 C 837.854 0.325425 1.99057 0
M  V30 8874 C 838.167 -1.10275 1.61551 0
M  V30 8875 O 839.373 -1.64513 2.1598 0
M  V30 8876 C 837.829 0.530886 3.55963 0
M  V30 8877 C 837.437 1.96899 4.02411 0
M  V30 8878 C 839.181 0.152997 4.24224 0
M  V30 8879 C 837.088 2.12232 5.52007 0
M  V30 8880 H 836.018 0.117929 0.744721 0
M  V30 8881 H 838.669 0.945091 1.5729 0
M  V30 8882 H 837.051 -0.158162 3.95684 0
M  V30 8883 H 838.225 2.69258 3.73948 0
M  V30 8884 H 836.54 2.303 3.46916 0
M  V30 8885 H 839.137 0.24614 5.34133 0
M  V30 8886 H 839.48 -0.896096 4.06541 0
M  V30 8887 H 840.013 0.794398 3.89787 0
M  V30 8888 H 836.752 3.15442 5.7461 0
M  V30 8889 H 836.272 1.4435 5.82171 0
M  V30 8890 H 837.951 1.9185 6.17902 0
M  V30 8891 N 838.083 -1.48885 0.516809 0
M  V30 8892 C 839.329 -2.02788 -0.0220928 0
M  V30 8893 C 839.662 -1.39433 -1.35175 0
M  V30 8894 O 838.937 -0.535459 -1.86984 0
M  V30 8895 C 839.22 -3.59753 -0.158012 0
M  V30 8896 C 839.073 -4.33611 1.19588 0
M  V30 8897 C 840.392 -4.30984 -0.891133 0
M  V30 8898 H 837.511 -0.736971 -0.00655488 0
M  V30 8899 H 840.153 -1.77746 0.671287 0
M  V30 8900 H 838.303 -3.8122 -0.748568 0
M  V30 8901 H 839.975 -4.23598 1.82653 0
M  V30 8902 H 838.218 -3.95547 1.78116 0
M  V30 8903 H 838.889 -5.41846 1.05391 0
M  V30 8904 H 841.365 -4.14267 -0.39012 0
M  V30 8905 H 840.241 -5.40527 -0.955107 0
M  V30 8906 H 840.502 -3.97336 -1.93847 0
M  V30 8907 N 839.561 -0.251338 -1.55583 0
M  V30 8908 C 840.786 0.379136 -2.03905 0
M  V30 8909 C 841.211 1.50428 -1.12929 0
M  V30 8910 O 840.569 1.80882 -0.123114 0
M  V30 8911 C 840.617 0.86009 -3.50193 0
M  V30 8912 O 839.721 1.96932 -3.62342 0
M  V30 8913 H 839.062 0.0820183 -0.658915 0
M  V30 8914 H 841.592 -0.378692 -2.01065 0
M  V30 8915 H 841.602 1.16214 -3.91099 0
M  V30 8916 H 840.277 0.0367559 -4.15884 0
M  V30 8917 H 838.854 1.67163 -3.33333 0
M  V30 8918 N 841.039 1.57585 0.0217189 0
M  V30 8919 C 842.002 2.06004 1.00474 0
M  V30 8920 C 843.002 0.965461 1.2859 0
M  V30 8921 O 844.192 1.22884 1.23471 0
M  V30 8922 C 841.324 2.48319 2.33561 0
M  V30 8923 H 842.517 2.94112 0.586346 0
M  V30 8924 H 840.07 1.53973 0.268716 0
M  V30 8925 H 840.805 1.63389 2.80133 0
M  V30 8926 H 840.59 3.28239 2.1448 0
M  V30 8927 H 842.08 2.86181 3.04122 0
M  V30 8928 N 842.517 -0.29412 1.54831 0
M  V30 8929 C 843.766 -1.02614 1.73647 0
M  V30 8930 C 844.079 -1.88193 0.533162 0
M  V30 8931 O 845.285 -2.64713 0.603275 0
M  V30 8932 C 843.741 -1.87417 3.07251 0
M  V30 8933 C 843.349 -1.06806 4.35082 0
M  V30 8934 C 845.093 -2.60176 3.35423 0
M  V30 8935 C 843 -1.90926 5.59733 0
M  V30 8936 H 841.93 -0.386834 0.647206 0
M  V30 8937 H 844.581 -0.282789 1.81308 0
M  V30 8938 H 842.963 -2.65765 2.93572 0
M  V30 8939 H 844.137 -0.330226 4.59615 0
M  V30 8940 H 842.452 -0.455979 4.13896 0
M  V30 8941 H 845.049 -3.23476 4.25755 0
M  V30 8942 H 845.392 -3.29365 2.54606 0
M  V30 8943 H 845.925 -1.88871 3.50103 0
M  V30 8944 H 842.664 -1.26194 6.43238 0
M  V30 8945 H 842.184 -2.62363 5.39375 0
M  V30 8946 H 843.863 -2.48807 5.97247 0
M  V30 8947 N 843.995 -1.47404 -0.557645 0
M  V30 8948 C 844.958 -1.59411 -1.64684 0
M  V30 8949 C 845.958 -0.469244 -1.53801 0
M  V30 8950 O 847.148 -0.734298 -1.57967 0
M  V30 8951 C 844.28 -1.5382 -3.04224 0
M  V30 8952 H 845.473 -2.56504 -1.55389 0
M  V30 8953 H 843.026 -1.35588 -0.777531 0
M  V30 8954 H 843.761 -0.581 -3.19053 0
M  V30 8955 H 843.546 -2.35456 -3.13533 0
M  V30 8956 H 845.036 -1.65358 -3.83466 0
M  V30 8957 N 845.473 0.80434 -1.35529 0
M  V30 8958 C 846.719 1.56385 -1.29118 0
M  V30 8959 C 847.052 1.9374 0.133536 0
M  V30 8960 O 846.327 1.6153 1.08344 0
M  V30 8961 C 846.61 2.85097 -2.19981 0
M  V30 8962 C 846.463 2.54204 -3.7108 0
M  V30 8963 C 847.782 3.86817 -2.09907 0
M  V30 8964 H 844.901 0.567382 -0.470368 0
M  V30 8965 H 847.543 0.925235 -1.6595 0
M  V30 8966 H 845.693 3.39594 -1.88701 0
M  V30 8967 H 847.365 2.05872 -4.12813 0
M  V30 8968 H 845.608 1.87364 -3.91251 0
M  V30 8969 H 846.279 3.46068 -4.30048 0
M  V30 8970 H 848.755 3.41725 -2.37409 0
M  V30 8971 H 847.631 4.7465 -2.75678 0
M  V30 8972 H 847.892 4.28663 -1.08171 0
M  V30 8973 N 846.951 1.19563 1.02676 0
M  V30 8974 C 848.198 0.999568 1.7611 0
M  V30 8975 C 848.526 -0.469432 1.8875 0
M  V30 8976 O 847.781 -1.36481 1.40255 0
M  V30 8977 C 848.08 1.61619 3.18769 0
M  V30 8978 C 847.746 3.11366 3.26132 0
M  V30 8979 C 846.408 3.52234 3.27848 0
M  V30 8980 C 848.76 4.07374 3.25109 0
M  V30 8981 C 846.088 4.87658 3.26201 0
M  V30 8982 C 848.44 5.42731 3.25002 0
M  V30 8983 C 847.104 5.83027 3.25017 0
M  V30 8984 H 846.374 0.365768 0.644434 0
M  V30 8985 H 849.021 1.48838 1.20497 0
M  V30 8986 H 847.326 1.04974 3.77476 0
M  V30 8987 H 849.023 1.43975 3.74262 0
M  V30 8988 H 845.613 2.78804 3.25525 0
M  V30 8989 H 849.797 3.76842 3.22961 0
M  V30 8990 H 845.053 5.18156 3.24537 0
M  V30 8991 H 849.227 6.16879 3.23161 0
M  V30 8992 H 846.854 6.87936 3.23494 0
M  V30 8993 N 848.429 -1.21819 0.999893 0
M  V30 8994 C 849.675 -1.91035 0.680701 0
M  V30 8995 C 850.008 -1.77582 -0.786021 0
M  V30 8996 O 849.283 -1.14917 -1.56921 0
M  V30 8997 C 849.566 -3.43013 1.0961 0
M  V30 8998 C 849.419 -3.65481 2.6219 0
M  V30 8999 C 850.738 -4.35204 0.654616 0
M  V30 9000 H 847.857 -0.693748 0.248763 0
M  V30 9001 H 850.499 -1.43555 1.24466 0
M  V30 9002 H 848.649 -3.83581 0.616253 0
M  V30 9003 H 850.321 -3.34273 3.17899 0
M  V30 9004 H 848.564 -3.09522 3.03938 0
M  V30 9005 H 849.235 -4.71945 2.86307 0
M  V30 9006 H 851.711 -4.0219 1.06688 0
M  V30 9007 H 850.587 -5.40198 0.973492 0
M  V30 9008 H 850.848 -4.3986 -0.444458 0
M  V30 9009 N 849.908 -0.773975 -1.37286 0
M  V30 9010 C 851.155 -0.339306 -1.99637 0
M  V30 9011 C 851.483 1.08478 -1.61439 0
M  V30 9012 O 850.738 1.7612 -0.853252 0
M  V30 9013 C 851.037 -0.432651 -3.54772 0
M  V30 9014 C 850.703 -1.81531 -4.12744 0
M  V30 9015 C 849.365 -2.19366 -4.2829 0
M  V30 9016 C 851.717 -2.72137 -4.44512 0
M  V30 9017 C 849.045 -3.47239 -4.72908 0
M  V30 9018 C 851.397 -3.99421 -4.90556 0
M  V30 9019 C 850.061 -4.37298 -5.04308 0
M  V30 9020 H 849.331 -0.124161 -0.730524 0
M  V30 9021 H 851.978 -0.988432 -1.64019 0
M  V30 9022 H 850.283 0.30001 -3.9065 0
M  V30 9023 H 851.98 -0.0776 -4.00925 0
M  V30 9024 H 848.57 -1.51126 -4.01072 0
M  V30 9025 H 852.754 -2.44165 -4.32084 0
M  V30 9026 H 848.01 -3.76477 -4.81742 0
M  V30 9027 H 852.184 -4.69756 -5.14104 0
M  V30 9028 H 849.811 -5.36442 -5.38641 0
M  V30 9029 N 851.386 1.48609 -0.524698 0
M  V30 9030 C 852.296 2.33318 0.244923 0
M  V30 9031 C 853.312 1.46153 0.944214 0
M  V30 9032 O 854.488 1.79141 0.920347 0
M  V30 9033 C 851.553 3.22149 1.28144 0
M  V30 9034 C 850.614 4.25184 0.593068 0
M  V30 9035 C 849.847 5.0977 1.5802 0
M  V30 9036 O 850.07 4.96249 2.81235 0
M  V30 9037 O 849.004 5.9134 1.1225 0
M  V30 9038 H 852.83 3.00362 -0.449066 0
M  V30 9039 H 850.415 1.46643 -0.285689 0
M  V30 9040 H 852.297 3.77111 1.88057 0
M  V30 9041 H 850.972 2.57772 1.95793 0
M  V30 9042 H 849.879 3.74071 -0.0464214 0
M  V30 9043 H 851.212 4.92183 -0.0413893 0
M  V30 9044 N 852.864 0.259585 1.55447 0
M  V30 9045 C 854.094 -0.364863 2.03353 0
M  V30 9046 C 854.502 -1.5116 1.13786 0
M  V30 9047 O 853.845 -1.83109 0.147283 0
M  V30 9048 C 853.907 -0.922587 3.4746 0
M  V30 9049 C 853.571 0.0935207 4.56904 0
M  V30 9050 C 854.568 0.907571 5.11917 0
M  V30 9051 C 852.253 0.223276 5.01804 0
M  V30 9052 C 854.247 1.83771 6.10333 0
M  V30 9053 C 851.934 1.15691 6.00049 0
M  V30 9054 C 852.932 1.96264 6.54194 0
M  V30 9055 O 852.62 2.88052 7.50521 0
M  V30 9056 H 852.352 -0.0893313 0.670072 0
M  V30 9057 H 854.906 0.384821 2.01763 0
M  V30 9058 H 853.136 -1.72206 3.4624 0
M  V30 9059 H 854.825 -1.45846 3.78792 0
M  V30 9060 H 855.591 0.817979 4.78052 0
M  V30 9061 H 851.47 -0.393834 4.59315 0
M  V30 9062 H 855.014 2.46703 6.52521 0
M  V30 9063 H 850.911 1.24738 6.33333 0
M  V30 9064 H 851.679 2.82557 7.68182 0
M  V30 9065 N 854.342 -1.57594 -0.0133615 0
M  V30 9066 C 855.589 -1.8998 -0.70098 0
M  V30 9067 C 855.917 -0.858802 -1.74513 0
M  V30 9068 O 855.172 0.138209 -1.95211 0
M  V30 9069 C 855.471 -3.29121 -1.39336 0
M  V30 9070 C 855.137 -4.48298 -0.483687 0
M  V30 9071 C 853.799 -4.80635 -0.233186 0
M  V30 9072 C 856.151 -5.21003 0.143426 0
M  V30 9073 C 853.479 -5.83055 0.652943 0
M  V30 9074 C 855.831 -6.24366 1.01735 0
M  V30 9075 C 854.495 -6.55168 1.27716 0
M  V30 9076 H 853.765 -0.695187 -0.256507 0
M  V30 9077 H 856.412 -1.9146 0.0392965 0
M  V30 9078 H 854.717 -3.23703 -2.20735 0
M  V30 9079 H 856.414 -3.51433 -1.93121 0
M  V30 9080 H 853.004 -4.23024 -0.689092 0
M  V30 9081 H 857.188 -4.96286 -0.0371139 0
M  V30 9082 H 852.444 -6.05288 0.862379 0
M  V30 9083 H 856.618 -6.79839 1.5097 0
M  V30 9084 H 854.245 -7.34351 1.9655 0
M  V30 9085 N 855.82 0.285905 -1.54985 0
M  V30 9086 C 857.045 1.04207 -1.7932 0
M  V30 9087 C 857.47 1.79622 -0.558343 0
M  V30 9088 O 856.828 1.74506 0.491661 0
M  V30 9089 C 856.876 1.98648 -3.0095 0
M  V30 9090 O 855.98 3.07207 -2.75132 0
M  V30 9091 H 855.321 0.298596 -0.593074 0
M  V30 9092 H 857.851 0.318736 -2.02102 0
M  V30 9093 H 857.861 2.4084 -3.29333 0
M  V30 9094 H 856.536 1.43167 -3.90482 0
M  V30 9095 H 855.113 2.69423 -2.57809 0
M  V30 9096 N 857.298 1.47698 0.54982 0
M  V30 9097 C 858.709 1.48474 1.13191 0
M  V30 9098 C 859.06 0.243504 1.94683 0
M  V30 9099 O 858.185 -0.651009 2.06375 0
M  V30 9100 C 858.78 2.69022 2.05944 0
M  V30 9101 C 857.339 2.72733 2.5941 0
M  V30 9102 C 856.486 2.41691 1.35944 0
M  V30 9103 H 859.437 1.55101 0.336048 0
M  V30 9104 H 859.458 2.46412 2.89934 0
M  V30 9105 H 858.97 3.59345 1.46605 0
M  V30 9106 H 857.071 1.86568 3.22526 0
M  V30 9107 H 857.184 3.73628 2.99899 0
M  V30 9108 H 855.548 1.92428 1.66864 0
M  V30 9109 H 856.331 3.34231 0.783869 0
M  V30 9110 N 858.776 -0.797141 1.35954 0
M  V30 9111 C 860.022 -1.55698 1.29946 0
M  V30 9112 C 860.355 -1.93808 -0.123259 0
M  V30 9113 O 859.63 -1.62102 -1.07486 0
M  V30 9114 C 859.913 -2.83926 2.2149 0
M  V30 9115 C 859.766 -2.52232 3.72423 0
M  V30 9116 C 861.085 -3.85698 2.11955 0
M  V30 9117 H 858.204 -0.56488 0.47337 0
M  V30 9118 H 860.846 -0.916421 1.66438 0
M  V30 9119 H 858.996 -3.38588 1.905 0
M  V30 9120 H 860.668 -2.0368 4.13899 0
M  V30 9121 H 858.911 -1.85286 3.92239 0
M  V30 9122 H 859.582 -3.43782 4.31877 0
M  V30 9123 H 862.058 -3.40462 2.39218 0
M  V30 9124 H 860.934 -4.73182 2.78191 0
M  V30 9125 H 861.195 -4.28083 1.10442 0
M  V30 9126 N 860.254 -1.20106 -1.0204 0
M  V30 9127 C 861.502 -1.0069 -1.75231 0
M  V30 9128 C 861.823 0.462491 -1.89436 0
M  V30 9129 O 861.093 1.33455 -1.4341 0
M  V30 9130 H 859.673 -0.369576 -0.649171 0
M  V30 9131 H 862.335 -1.51149 -1.23044 0
M  V30 9132 H 861.431 -1.46205 -2.75736 0
M  V30 9133 N 861.732 1.21287 -1.00634 0
M  V30 9134 C 862.962 1.94103 -0.70765 0
M  V30 9135 C 863.37 1.74382 0.733991 0
M  V30 9136 O 862.713 1.04843 1.50843 0
M  V30 9137 C 862.775 3.46705 -0.950581 0
M  V30 9138 C 862.439 3.90176 -2.37932 0
M  V30 9139 C 863.436 3.96769 -3.35961 0
M  V30 9140 C 861.121 4.22453 -2.71733 0
M  V30 9141 C 863.115 4.35034 -4.65858 0
M  V30 9142 C 860.802 4.60394 -4.01846 0
M  V30 9143 C 861.8 4.66656 -4.9872 0
M  V30 9144 O 861.488 5.03732 -6.26505 0
M  V30 9145 H 861.22 0.62405 -0.259881 0
M  V30 9146 H 863.774 1.55015 -1.34757 0
M  V30 9147 H 862.004 3.85868 -0.253492 0
M  V30 9148 H 863.693 4.00741 -0.645069 0
M  V30 9149 H 864.459 3.72009 -3.11182 0
M  V30 9150 H 860.338 4.16776 -1.97025 0
M  V30 9151 H 863.882 4.39836 -5.4147 0
M  V30 9152 H 859.779 4.84609 -4.26409 0
M  V30 9153 H 860.547 5.21761 -6.30641 0
M  V30 9154 N 863.21 0.781244 1.36873 0
M  V30 9155 C 864.158 0.161889 2.32036 0
M  V30 9156 C 865.152 -0.674225 1.55405 0
M  V30 9157 O 866.358 -0.570223 1.70729 0
M  V30 9158 H 862.733 0.0335702 0.75125 0
M  V30 9159 H 864.704 0.980078 2.81846 0
M  V30 9160 C 863.453 -0.695352 3.40676 0
M  V30 9161 H 862.776 -0.0613425 3.99753 0
M  V30 9162 H 864.216 -1.09553 4.09602 0
M  V30 9163 C 862.675 -1.85008 2.81556 0
M  V30 9164 O 863.205 -2.94616 2.73065 0
M  V30 9165 N 861.411 -1.65364 2.38962 0
M  V30 9166 H 860.958 -0.762106 2.46068 0
M  V30 9167 H 860.916 -2.42789 1.99752 0
M  V30 9168 N 864.689 -1.48329 0.532571 0
M  V30 9169 C 866.105 -1.58458 0.190605 0
M  V30 9170 C 866.305 -1.53427 -1.30623 0
M  V30 9171 O 865.361 -1.4247 -2.08467 0
M  V30 9172 C 866.674 -2.89989 0.79543 0
M  V30 9173 C 868.222 -3.03523 0.7644 0
M  V30 9174 C 868.697 -4.37718 1.34785 0
M  V30 9175 N 870.188 -4.44292 1.30993 0
M  V30 9176 C 870.923 -5.4664 1.73124 0
M  V30 9177 N 870.419 -6.5593 2.22997 0
M  V30 9178 N 872.212 -5.37538 1.64346 0
M  V30 9179 H 864.363 -1.49842 1.50537 0
M  V30 9180 H 866.626 -0.71164 0.626316 0
M  V30 9181 H 866.332 -2.99333 1.84642 0
M  V30 9182 H 866.206 -3.76203 0.27403 0
M  V30 9183 H 868.593 -2.93789 -0.277831 0
M  V30 9184 H 868.674 -2.18912 1.3233 0
M  V30 9185 H 868.318 -4.48206 2.38902 0
M  V30 9186 H 868.248 -5.21019 0.764609 0
M  V30 9187 H 870.739 -3.65897 0.944868 0
M  V30 9188 H 871.052 -7.30167 2.53133 0
M  V30 9189 H 869.397 -6.56886 2.26992 0
M  V30 9190 H 872.588 -4.51052 1.25178 0
M  V30 9191 H 872.761 -6.17169 1.97501 0
M  V30 9192 N 866.167 -0.267825 -1.55308 0
M  V30 9193 C 867.115 0.638848 -2.23655 0
M  V30 9194 C 868.109 1.16363 -1.2311 0
M  V30 9195 O 869.315 1.1181 -1.41062 0
M  V30 9196 H 865.69 0.224551 -0.717691 0
M  V30 9197 H 867.661 0.0394809 -2.98374 0
M  V30 9198 C 866.41 1.8151 -2.96562 0
M  V30 9199 H 865.733 1.42048 -3.73715 0
M  V30 9200 H 867.173 2.42629 -3.47717 0
M  V30 9201 C 865.632 2.69911 -2.01618 0
M  V30 9202 O 866.162 3.70058 -1.56268 0
M  V30 9203 N 864.368 2.36924 -1.68272 0
M  V30 9204 H 863.915 1.55533 -2.05347 0
M  V30 9205 H 863.873 2.96343 -1.05016 0
M  V30 9206 N 867.645 1.57599 0.00500368 0
M  V30 9207 C 868.575 2.11143 0.99705 0
M  V30 9208 C 869.556 1.0194 1.3617 0
M  V30 9209 O 870.741 1.29596 1.44632 0
M  V30 9210 C 867.871 2.61062 2.2905 0
M  V30 9211 C 866.825 3.74745 2.0676 0
M  V30 9212 C 866.151 4.10961 3.42075 0
M  V30 9213 C 867.451 5.02222 1.43424 0
M  V30 9214 H 869.145 2.94281 0.551251 0
M  V30 9215 H 866.691 1.41565 0.263715 0
M  V30 9216 H 868.644 2.97146 2.98801 0
M  V30 9217 H 867.368 1.75038 2.75734 0
M  V30 9218 H 866.027 3.39047 1.39436 0
M  V30 9219 H 865.675 3.21968 3.86453 0
M  V30 9220 H 865.375 4.87549 3.27979 0
M  V30 9221 H 866.899 4.49599 4.1315 0
M  V30 9222 H 868.313 5.36109 2.03125 0
M  V30 9223 H 866.71 5.83581 1.39831 0
M  V30 9224 H 867.78 4.83224 0.40285 0
M  V30 9225 N 869.123 -0.277682 1.55134 0
M  V30 9226 C 870.086 -1.32635 1.86924 0
M  V30 9227 C 871.086 -1.42578 0.743507 0
M  V30 9228 O 872.276 -1.4181 1.01171 0
M  V30 9229 C 869.408 -2.70832 2.07034 0
M  V30 9230 H 870.601 -1.0568 2.80663 0
M  V30 9231 H 868.154 -0.515517 1.47554 0
M  V30 9232 H 868.889 -3.02974 1.15661 0
M  V30 9233 H 868.674 -2.65001 2.88993 0
M  V30 9234 H 870.164 -3.46611 2.32918 0
M  V30 9235 N 870.601 -1.47988 -0.541979 0
M  V30 9236 C 871.548 -1.61615 -1.6477 0
M  V30 9237 C 872.518 -0.458602 -1.59644 0
M  V30 9238 O 873.703 -0.680585 -1.78249 0
M  V30 9239 C 870.843 -1.65066 -3.03063 0
M  V30 9240 C 869.956 -2.91845 -3.18513 0
M  V30 9241 C 869.091 -2.86534 -4.47294 0
M  V30 9242 C 868.13 -4.0807 -4.5623 0
M  V30 9243 N 867.267 -4.00905 -5.76385 0
M  V30 9244 H 872.107 -2.56046 -1.52461 0
M  V30 9245 H 869.644 -1.26989 -0.742449 0
M  V30 9246 H 871.602 -1.65049 -3.83164 0
M  V30 9247 H 870.232 -0.74136 -3.14171 0
M  V30 9248 H 869.284 -3.01661 -2.31743 0
M  V30 9249 H 870.596 -3.81804 -3.20978 0
M  V30 9250 H 869.75 -2.84851 -5.35672 0
M  V30 9251 H 868.489 -1.94283 -4.47332 0
M  V30 9252 H 867.494 -4.10041 -3.66261 0
M  V30 9253 H 868.719 -5.01465 -4.5794 0
M  V30 9254 H 866.665 -3.11467 -5.77342 0
M  V30 9255 H 866.582 -4.84557 -5.80293 0
M  V30 9256 H 867.85 -4.03263 -6.67083 0
M  V30 9257 N 872.079 0.78992 -1.36375 0
M  V30 9258 C 873.327 1.54472 -1.30319 0
M  V30 9259 C 873.648 1.94647 0.117338 0
M  V30 9260 O 872.918 1.64906 1.05748 0
M  V30 9261 H 871.498 0.572879 -0.479394 0
M  V30 9262 H 874.16 0.941245 -1.70665 0
M  V30 9263 H 873.256 2.45252 -1.93024 0
M  V30 9264 N 873.557 1.20646 1.01402 0
M  V30 9265 C 874.504 0.957618 2.09996 0
M  V30 9266 C 875.474 -0.113115 1.65714 0
M  V30 9267 O 876.659 0.032142 1.90773 0
M  V30 9268 C 873.799 0.5186 3.41181 0
M  V30 9269 C 872.912 1.65777 3.98926 0
M  V30 9270 C 872.047 1.16881 5.18182 0
M  V30 9271 C 871.086 2.2809 5.68015 0
M  V30 9272 N 870.223 1.80392 6.7853 0
M  V30 9273 H 875.063 1.88732 2.30617 0
M  V30 9274 H 872.6 0.940703 1.13089 0
M  V30 9275 H 874.558 0.245367 4.16478 0
M  V30 9276 H 873.188 -0.3741 3.20625 0
M  V30 9277 H 872.24 2.04586 3.207 0
M  V30 9278 H 873.552 2.49507 4.31912 0
M  V30 9279 H 872.706 0.851694 6.00692 0
M  V30 9280 H 871.445 0.301434 4.86768 0
M  V30 9281 H 870.45 2.60614 4.84108 0
M  V30 9282 H 871.675 3.15308 6.01463 0
M  V30 9283 H 869.621 0.959856 6.4894 0
M  V30 9284 H 869.538 2.57701 7.10722 0
M  V30 9285 H 870.806 1.51688 7.64598 0
M  V30 9286 N 875.035 -1.20752 1.01276 0
M  V30 9287 C 875.998 -2.2162 0.584583 0
M  V30 9288 C 876.998 -1.57094 -0.343215 0
M  V30 9289 O 878.188 -1.73696 -0.132433 0
M  V30 9290 C 875.32 -3.40583 -0.146872 0
M  V30 9291 H 876.513 -2.61015 1.47686 0
M  V30 9292 H 874.066 -1.34148 0.802123 0
M  V30 9293 H 874.801 -3.06686 -1.05424 0
M  V30 9294 H 874.586 -3.88642 0.51958 0
M  V30 9295 H 876.076 -4.15339 -0.433924 0
M  V30 9296 N 876.513 -0.788492 -1.36457 0
M  V30 9297 C 877.924 -0.423742 -1.81828 0
M  V30 9298 C 878.275 1.05221 -1.65599 0
M  V30 9299 O 877.4 1.8163 -1.17641 0
M  V30 9300 C 877.995 -0.762354 -3.30112 0
M  V30 9301 C 876.554 -0.450445 -3.73695 0
M  V30 9302 C 875.701 -0.997482 -2.58738 0
M  V30 9303 H 878.652 -0.981718 -1.24692 0
M  V30 9304 H 878.673 -0.0531136 -3.80463 0
M  V30 9305 H 878.185 -1.83662 -3.41891 0
M  V30 9306 H 876.286 0.615829 -3.67476 0
M  V30 9307 H 876.399 -0.970408 -4.69169 0
M  V30 9308 H 874.763 -0.420761 -2.51201 0
M  V30 9309 H 875.546 -2.07749 -2.73304 0
M  V30 9310 N 877.991 1.48044 -0.54043 0
M  V30 9311 C 878.941 2.26768 0.236657 0
M  V30 9312 C 879.925 1.33341 0.900505 0
M  V30 9313 O 881.117 1.57809 0.801584 0
M  V30 9314 C 878.246 3.18685 1.27651 0
M  V30 9315 C 877.332 4.19589 0.616923 0
M  V30 9316 N 877.723 5.04889 -0.303377 0
M  V30 9317 C 876.021 4.37375 0.872879 0
M  V30 9318 C 876.722 5.77654 -0.684905 0
M  V30 9319 N 875.698 5.43583 -0.0435728 0
M  V30 9320 H 879.5 2.90098 -0.471183 0
M  V30 9321 H 877.014 1.58378 -0.359183 0
M  V30 9322 H 879.011 3.73752 1.84702 0
M  V30 9323 H 877.671 2.56911 1.98562 0
M  V30 9324 H 878.682 5.13461 -0.676591 0
M  V30 9325 H 875.359 3.86784 1.57177 0
M  V30 9326 H 876.749 6.56285 -1.44015 0
M  V30 9327 N 879.47 0.276058 1.55163 0
M  V30 9328 C 880.718 -0.339782 1.99223 0
M  V30 9329 C 881.039 -1.56307 1.16589 0
M  V30 9330 O 880.309 -1.94225 0.25564 0
M  V30 9331 H 878.889 -0.128534 0.735859 0
M  V30 9332 H 881.551 0.381612 1.91128 0
M  V30 9333 H 880.647 -0.629 3.05696 0
M  V30 9334 N 880.948 -1.576 0.00335426 0
M  V30 9335 C 882.359 -1.7875 -0.539008 0
M  V30 9336 C 882.71 -0.911097 -1.73763 0
M  V30 9337 O 881.835 -0.114476 -2.16097 0
M  V30 9338 C 882.43 -3.24177 -0.984611 0
M  V30 9339 C 880.989 -3.46412 -1.47226 0
M  V30 9340 C 880.136 -2.74024 -0.425004 0
M  V30 9341 H 883.087 -1.57032 0.229511 0
M  V30 9342 H 883.108 -3.32474 -1.85044 0
M  V30 9343 H 882.62 -3.87938 -0.112035 0
M  V30 9344 H 880.721 -2.8787 -2.36562 0
M  V30 9345 H 880.834 -4.55098 -1.49741 0
M  V30 9346 H 879.198 -2.38741 -0.887394 0
M  V30 9347 H 879.981 -3.40486 0.438662 0
M  V30 9348 N 882.426 0.269451 -1.5528 0
M  V30 9349 C 883.651 1.02299 -1.80415 0
M  V30 9350 C 884.076 1.7902 -0.577363 0
M  V30 9351 O 883.434 1.75018 0.473125 0
M  V30 9352 C 883.482 1.95445 -3.0304 0
M  V30 9353 O 882.586 3.04271 -2.78375 0
M  V30 9354 H 881.927 0.292289 -0.596207 0
M  V30 9355 H 884.457 0.297282 -2.02429 0
M  V30 9356 H 884.467 2.37333 -3.31869 0
M  V30 9357 H 883.142 1.39017 -3.91978 0
M  V30 9358 H 881.719 2.66673 -2.60653 0
M  V30 9359 N 883.904 1.48273 0.534124 0
M  V30 9360 C 885.151 1.56079 1.29017 0
M  V30 9361 C 885.479 0.232912 1.931 0
M  V30 9362 O 884.734 -0.77642 1.79639 0
M  V30 9363 C 885.033 2.64468 2.40398 0
M  V30 9364 C 884.699 4.07034 1.93995 0
M  V30 9365 C 883.361 4.45838 1.81058 0
M  V30 9366 C 885.713 4.96395 1.58877 0
M  V30 9367 C 883.041 5.71812 1.31331 0
M  V30 9368 C 885.393 6.22854 1.10614 0
M  V30 9369 C 884.057 6.60518 0.962895 0
M  V30 9370 H 883.327 0.571135 0.472108 0
M  V30 9371 H 885.974 1.81973 0.5965 0
M  V30 9372 H 884.279 2.32419 3.15418 0
M  V30 9373 H 885.976 2.67725 2.98537 0
M  V30 9374 H 882.566 3.76387 2.05015 0
M  V30 9375 H 886.75 4.67096 1.67734 0
M  V30 9376 H 882.006 5.99722 1.18924 0
M  V30 9377 H 886.18 6.91495 0.825095 0
M  V30 9378 H 883.807 7.58019 0.575369 0
M  V30 9379 N 885.382 -0.782676 1.36792 0
M  V30 9380 C 886.61 -1.57162 1.34565 0
M  V30 9381 C 887.025 -1.88664 -0.0715501 0
M  V30 9382 O 886.382 -1.50633 -1.03033 0
M  V30 9383 C 886.433 -2.88854 2.1736 0
M  V30 9384 O 886.154 -2.58707 3.53557 0
M  V30 9385 C 887.655 -3.83132 2.2299 0
M  V30 9386 H 884.875 -0.487245 0.461338 0
M  V30 9387 H 887.419 -0.970905 1.79982 0
M  V30 9388 H 885.574 -3.45377 1.7548 0
M  V30 9389 H 885.988 -3.42961 3.96835 0
M  V30 9390 H 887.462 -4.72575 2.85266 0
M  V30 9391 H 887.939 -4.21472 1.23524 0
M  V30 9392 H 888.545 -3.32541 2.65135 0
M  V30 9393 N 886.86 -1.21182 -1.00761 0
M  V30 9394 C 888.109 -1.02166 -1.73911 0
M  V30 9395 C 888.422 0.445638 -1.90456 0
M  V30 9396 O 889.628 0.755132 -2.60787 0
M  V30 9397 C 888.084 -1.77936 -3.12837 0
M  V30 9398 C 887.692 -3.28819 -3.04273 0
M  V30 9399 C 889.436 -1.67319 -3.90134 0
M  V30 9400 C 887.343 -3.97089 -4.38262 0
M  V30 9401 H 886.273 -0.378665 -0.652019 0
M  V30 9402 H 888.924 -1.44891 -1.12601 0
M  V30 9403 H 887.306 -1.28003 -3.74742 0
M  V30 9404 H 888.48 -3.86035 -2.51622 0
M  V30 9405 H 886.795 -3.39949 -2.40465 0
M  V30 9406 H 889.392 -2.15659 -4.8928 0
M  V30 9407 H 889.735 -0.630959 -4.11491 0
M  V30 9408 H 890.268 -2.14716 -3.34876 0
M  V30 9409 H 887.007 -5.01503 -4.22107 0
M  V30 9410 H 886.527 -3.44662 -4.90885 0
M  V30 9411 H 888.206 -4.01854 -5.07072 0
M  V30 9412 N 888.338 1.20213 -1.01915 0
M  V30 9413 C 889.586 1.89272 -0.708552 0
M  V30 9414 C 889.907 1.79394 0.76438 0
M  V30 9415 O 889.177 1.198 1.54999 0
M  V30 9416 H 887.757 0.700628 -0.259094 0
M  V30 9417 H 890.419 1.45985 -1.29129 0
M  V30 9418 H 889.515 2.95841 -0.994215 0
M  V30 9419 N 889.816 0.795718 1.36037 0
M  V30 9420 C 890.763 0.196548 2.29962 0
M  V30 9421 C 891.733 -0.663213 1.52285 0
M  V30 9422 O 892.918 -0.610574 1.80767 0
M  V30 9423 C 890.058 -0.657639 3.38776 0
M  V30 9424 C 889.171 0.221358 4.31433 0
M  V30 9425 C 888.306 -0.6398 5.27333 0
M  V30 9426 C 887.345 0.240265 6.11628 0
M  V30 9427 N 886.482 -0.580237 6.99698 0
M  V30 9428 H 891.322 1.00295 2.80615 0
M  V30 9429 H 888.859 0.506147 1.38118 0
M  V30 9430 H 890.817 -1.16793 4.00519 0
M  V30 9431 H 889.447 -1.42941 2.89426 0
M  V30 9432 H 888.499 0.84967 3.70789 0
M  V30 9433 H 889.811 0.899195 4.90628 0
M  V30 9434 H 888.965 -1.21566 5.94396 0
M  V30 9435 H 887.704 -1.35124 4.68607 0
M  V30 9436 H 886.709 0.828474 5.43522 0
M  V30 9437 H 887.934 0.949403 6.72431 0
M  V30 9438 H 885.88 -1.27585 6.43473 0
M  V30 9439 H 885.797 0.0397853 7.5599 0
M  V30 9440 H 887.065 -1.13972 7.71123 0
M  V30 9441 N 891.294 -1.47756 0.548274 0
M  V30 9442 C 892.257 -2.28379 -0.193857 0
M  V30 9443 C 893.257 -1.36436 -0.850986 0
M  V30 9444 O 894.447 -1.59154 -0.70822 0
M  V30 9445 C 891.579 -3.15858 -1.28243 0
M  V30 9446 H 892.772 -2.95458 0.514231 0
M  V30 9447 H 890.325 -1.53298 0.304879 0
M  V30 9448 H 891.06 -2.5345 -2.0232 0
M  V30 9449 H 890.845 -3.83512 -0.816148 0
M  V30 9450 H 892.335 -3.76627 -1.80393 0
M  V30 9451 N 892.772 -0.284283 -1.55015 0
M  V30 9452 C 894.021 0.33055 -1.98973 0
M  V30 9453 C 894.334 1.56284 -1.17621 0
M  V30 9454 O 895.54 2.2512 -1.51767 0
M  V30 9455 C 893.996 0.639457 -3.54174 0
M  V30 9456 C 893.604 -0.573543 -4.44313 0
M  V30 9457 C 895.348 1.21641 -4.06699 0
M  V30 9458 C 893.255 -0.238715 -5.90918 0
M  V30 9459 H 892.185 0.127285 -0.743179 0
M  V30 9460 H 894.836 -0.390372 -1.793 0
M  V30 9461 H 893.218 1.41953 -3.69683 0
M  V30 9462 H 894.392 -1.3502 -4.40575 0
M  V30 9463 H 892.707 -1.06797 -4.02472 0
M  V30 9464 H 895.304 1.48088 -5.13784 0
M  V30 9465 H 895.647 2.15328 -3.56286 0
M  V30 9466 H 896.18 0.498422 -3.94665 0
M  V30 9467 H 892.919 -1.1437 -6.45445 0
M  V30 9468 H 892.439 0.500997 -5.97704 0
M  V30 9469 H 894.118 0.165774 -6.46788 0
M  V30 9470 N 894.251 1.57596 -0.0117121 0
M  V30 9471 C 895.497 1.92189 0.665966 0
M  V30 9472 C 895.852 0.887145 1.70726 0
M  V30 9473 O 895.145 -0.099151 1.91343 0
M  V30 9474 C 895.339 3.31296 1.34082 0
M  V30 9475 C 895.168 4.48205 0.366406 0
M  V30 9476 C 893.938 5.05293 -0.0274458 0
M  V30 9477 C 896.136 5.12951 -0.37219 0
M  V30 9478 N 894.118 6.0572 -0.998846 0
M  V30 9479 C 895.489 6.08318 -1.1979 0
M  V30 9480 C 897.544 4.95998 -0.434768 0
M  V30 9481 C 896.247 6.88555 -2.0805 0
M  V30 9482 C 898.273 5.7683 -1.30464 0
M  V30 9483 C 897.635 6.71798 -2.11816 0
M  V30 9484 H 893.734 0.751422 0.216537 0
M  V30 9485 H 896.318 1.94556 -0.0748079 0
M  V30 9486 H 894.489 3.2978 2.05182 0
M  V30 9487 H 896.221 3.53285 1.97413 0
M  V30 9488 H 892.976 4.72354 0.343382 0
M  V30 9489 H 893.4 6.60619 -1.48027 0
M  V30 9490 H 898.042 4.22417 0.179925 0
M  V30 9491 H 895.76 7.61453 -2.70581 0
M  V30 9492 H 899.346 5.6575 -1.35712 0
M  V30 9493 H 898.226 7.33256 -2.78037 0
M  V30 9494 N 895.729 -0.261212 1.5542 0
M  V30 9495 C 896.659 -1.32712 1.92119 0
M  V30 9496 C 897.64 -1.50934 0.784406 0
M  V30 9497 O 898.825 -1.63781 1.04352 0
M  V30 9498 C 895.955 -2.68453 2.20341 0
M  V30 9499 C 894.909 -2.64947 3.36136 0
M  V30 9500 C 894.235 -4.04349 3.49865 0
M  V30 9501 C 895.535 -2.23182 4.72215 0
M  V30 9502 H 897.229 -1.02245 2.81401 0
M  V30 9503 H 894.775 -0.490406 1.35392 0
M  V30 9504 H 896.728 -3.43144 2.44603 0
M  V30 9505 H 895.452 -3.00527 1.27871 0
M  V30 9506 H 894.111 -1.92714 3.11861 0
M  V30 9507 H 893.759 -4.33665 2.5484 0
M  V30 9508 H 893.459 -4.02895 4.27726 0
M  V30 9509 H 894.983 -4.80761 3.76432 0
M  V30 9510 H 896.397 -2.87599 4.95943 0
M  V30 9511 H 894.794 -2.32867 5.53076 0
M  V30 9512 H 895.864 -1.18327 4.70241 0
M  V30 9513 N 897.207 -1.48554 -0.526253 0
M  V30 9514 C 898.137 -1.66252 -1.63959 0
M  V30 9515 C 899.118 -0.511351 -1.62232 0
M  V30 9516 O 900.303 -0.744322 -1.7937 0
M  V30 9517 C 897.433 -1.70556 -3.02536 0
M  V30 9518 C 896.387 -2.8521 -3.19123 0
M  V30 9519 C 895.713 -2.74606 -4.58798 0
M  V30 9520 C 897.013 -4.26463 -3.0154 0
M  V30 9521 H 898.707 -2.59459 -1.49404 0
M  V30 9522 H 896.253 -1.24862 -0.717326 0
M  V30 9523 H 898.206 -1.81524 -3.80298 0
M  V30 9524 H 896.93 -0.739297 -3.18123 0
M  V30 9525 H 895.589 -2.73802 -2.43779 0
M  V30 9526 H 895.237 -1.75941 -4.71226 0
M  V30 9527 H 894.937 -3.51544 -4.70841 0
M  V30 9528 H 896.461 -2.87548 -5.38655 0
M  V30 9529 H 897.875 -4.38685 -3.69091 0
M  V30 9530 H 896.272 -5.04428 -3.25073 0
M  V30 9531 H 897.342 -4.42667 -1.97925 0
M  V30 9532 N 898.685 0.775411 -1.37205 0
M  V30 9533 C 899.931 1.53533 -1.33414 0
M  V30 9534 C 900.286 1.92225 0.0819435 0
M  V30 9535 O 899.579 1.60935 1.03974 0
M  V30 9536 C 899.773 2.81377 -2.20367 0
M  V30 9537 C 899.602 2.5518 -3.70288 0
M  V30 9538 C 898.372 2.49493 -4.3941 0
M  V30 9539 C 900.57 2.23425 -4.63234 0
M  V30 9540 N 898.552 2.15341 -5.74892 0
M  V30 9541 C 899.923 1.99381 -5.87067 0
M  V30 9542 C 901.978 2.09549 -4.51657 0
M  V30 9543 C 900.681 1.62863 -7.0062 0
M  V30 9544 C 902.707 1.74431 -5.65091 0
M  V30 9545 C 902.069 1.51245 -6.87971 0
M  V30 9546 H 898.168 0.562278 -0.543477 0
M  V30 9547 H 900.752 0.90495 -1.72391 0
M  V30 9548 H 898.923 3.42259 -1.83612 0
M  V30 9549 H 900.655 3.4724 -2.07861 0
M  V30 9550 H 897.41 2.65221 -3.9237 0
M  V30 9551 H 897.834 2.00972 -6.46482 0
M  V30 9552 H 902.476 2.26159 -3.57228 0
M  V30 9553 H 900.194 1.44991 -7.94986 0
M  V30 9554 H 903.78 1.64359 -5.58102 0
M  V30 9555 H 902.66 1.24472 -7.74259 0
M  V30 9556 N 900.163 1.21714 1.00117 0
M  V30 9557 C 901.411 1.03465 1.73607 0
M  V30 9558 C 901.732 -0.432295 1.90148 0
M  V30 9559 O 901.002 -1.31157 1.45515 0
M  V30 9560 H 899.582 0.379857 0.643209 0
M  V30 9561 H 902.244 1.53088 1.20624 0
M  V30 9562 H 901.34 1.50574 2.73375 0
M  V30 9563 N 901.641 -1.19671 1.02551 0
M  V30 9564 C 902.571 -2.25009 0.623965 0
M  V30 9565 C 903.552 -1.66129 -0.36538 0
M  V30 9566 O 904.737 -1.92599 -0.248842 0
M  V30 9567 C 901.867 -3.47287 -0.0294869 0
M  V30 9568 C 900.821 -4.18818 0.881781 0
M  V30 9569 C 900.147 -5.34618 0.0936189 0
M  V30 9570 C 901.447 -4.73986 2.19396 0
M  V30 9571 H 903.141 -2.58851 1.50454 0
M  V30 9572 H 900.687 -1.24425 0.724872 0
M  V30 9573 H 902.64 -4.20168 -0.322016 0
M  V30 9574 H 901.364 -3.12635 -0.944838 0
M  V30 9575 H 900.023 -3.47815 1.15845 0
M  V30 9576 H 899.671 -4.9621 -0.823661 0
M  V30 9577 H 899.371 -5.83409 0.700568 0
M  V30 9578 H 900.895 -6.10297 -0.192249 0
M  V30 9579 H 902.309 -5.38639 1.96319 0
M  V30 9580 H 900.706 -5.3325 2.75254 0
M  V30 9581 H 901.776 -3.92238 2.85092 0
M  V30 9582 N 903.119 -0.802921 -1.35613 0
M  V30 9583 C 904.365 -0.382141 -1.99167 0
M  V30 9584 C 904.698 1.04704 -1.63556 0
M  V30 9585 O 903.973 1.72578 -0.89706 0
M  V30 9586 C 904.256 -0.561493 -3.55695 0
M  V30 9587 C 904.109 -2.03534 -4.01116 0
M  V30 9588 C 905.428 0.0151135 -4.40097 0
M  V30 9589 H 902.547 -0.140322 -0.723518 0
M  V30 9590 H 905.189 -1.01177 -1.6082 0
M  V30 9591 H 903.339 -0.0255083 -3.88492 0
M  V30 9592 H 905.011 -2.63343 -3.78746 0
M  V30 9593 H 903.254 -2.5331 -3.52159 0
M  V30 9594 H 903.925 -2.11173 -5.1001 0
M  V30 9595 H 906.401 -0.442582 -4.1374 0
M  V30 9596 H 905.277 -0.140316 -5.48721 0
M  V30 9597 H 905.538 1.10848 -4.27978 0
M  V30 9598 N 904.597 1.47463 -0.556102 0
M  V30 9599 C 905.844 2.02475 -0.0316337 0
M  V30 9600 C 906.172 1.43057 1.31777 0
M  V30 9601 O 905.427 0.575376 1.87051 0
M  V30 9602 C 905.726 3.57224 0.112126 0
M  V30 9603 C 905.392 4.35557 -1.16624 0
M  V30 9604 C 904.054 4.56678 -1.51654 0
M  V30 9605 C 906.406 4.8074 -2.01342 0
M  V30 9606 C 903.734 5.20231 -2.7125 0
M  V30 9607 C 906.086 5.45613 -3.2014 0
M  V30 9608 C 904.75 5.64967 -3.55484 0
M  V30 9609 H 904.02 0.74091 -0.0115756 0
M  V30 9610 H 906.667 1.77148 -0.727392 0
M  V30 9611 H 904.972 3.81538 0.890842 0
M  V30 9612 H 906.669 3.97438 0.533261 0
M  V30 9613 H 903.259 4.19395 -0.883489 0
M  V30 9614 H 907.443 4.64201 -1.75587 0
M  V30 9615 H 902.699 5.3341 -2.98804 0
M  V30 9616 H 906.873 5.79587 -3.86073 0
M  V30 9617 H 904.5 6.13984 -4.4825 0
M  V30 9618 N 906.075 0.2925 1.54862 0
M  V30 9619 C 907.023 -0.603186 2.24643 0
M  V30 9620 C 908.017 -1.1439 1.24946 0
M  V30 9621 O 909.223 -1.09552 1.42823 0
M  V30 9622 H 905.598 -0.213105 0.721173 0
M  V30 9623 H 907.569 0.00799278 2.98399 0
M  V30 9624 C 906.318 -1.76769 2.99413 0
M  V30 9625 H 905.641 -1.36084 3.75927 0
M  V30 9626 H 907.081 -2.37066 3.51533 0
M  V30 9627 C 905.54 -2.66669 2.05886 0
M  V30 9628 O 906.07 -3.67525 1.62136 0
M  V30 9629 N 904.276 -2.34216 1.7202 0
M  V30 9630 H 903.823 -1.52246 2.07795 0
M  V30 9631 H 903.781 -2.94635 1.09717 0
M  V30 9632 N 907.553 -1.57587 0.0200696 0
M  V30 9633 C 908.501 -2.10814 -0.982868 0
M  V30 9634 C 909.495 -1.03263 -1.34287 0
M  V30 9635 O 910.701 -1.21708 -1.32617 0
M  V30 9636 H 907.076 -0.673409 -0.334701 0
M  V30 9637 H 909.047 -2.94034 -0.50856 0
M  V30 9638 C 907.796 -2.64301 -2.25921 0
M  V30 9639 H 907.119 -3.46703 -1.99091 0
M  V30 9640 H 908.559 -3.052 -2.94328 0
M  V30 9641 C 907.018 -1.56628 -2.98277 0
M  V30 9642 O 907.548 -0.960825 -3.9004 0
M  V30 9643 N 905.754 -1.28889 -2.60453 0
M  V30 9644 H 905.301 -1.7831 -1.85912 0
M  V30 9645 H 905.259 -0.570697 -3.09177 0
M  V30 9646 N 909.032 0.252966 -1.55557 0
M  V30 9647 C 910.257 1.0038 -1.8149 0
M  V30 9648 C 910.682 1.78397 -0.596318 0
M  V30 9649 O 910.04 1.7551 0.454535 0
M  V30 9650 C 910.088 1.9222 -3.05096 0
M  V30 9651 O 909.192 3.01302 -2.81587 0
M  V30 9652 H 908.533 0.285949 -0.599274 0
M  V30 9653 H 911.063 0.275795 -2.02733 0
M  V30 9654 H 911.073 2.338 -3.34368 0
M  V30 9655 H 909.748 1.34852 -3.93431 0
M  V30 9656 H 908.325 2.63894 -2.63466 0
M  V30 9657 N 910.51 1.48831 0.518367 0
M  V30 9658 C 911.756 1.57672 1.27543 0
M  V30 9659 C 912.089 0.254915 1.9252 0
M  V30 9660 O 911.364 -0.740107 1.79868 0
M  V30 9661 C 911.647 2.72345 2.35585 0
M  V30 9662 C 911.5 4.14267 1.75224 0
M  V30 9663 C 912.819 2.82726 3.37274 0
M  V30 9664 H 909.938 0.573926 0.462361 0
M  V30 9665 H 912.58 1.8105 0.576267 0
M  V30 9666 H 910.73 2.52543 2.95219 0
M  V30 9667 H 912.402 4.45539 1.19551 0
M  V30 9668 H 910.645 4.20724 1.05706 0
M  V30 9669 H 911.316 4.90345 2.53507 0
M  V30 9670 H 913.792 3.00699 2.8761 0
M  V30 9671 H 912.668 3.6467 4.10252 0
M  V30 9672 H 912.929 1.9136 3.9854 0
M  V30 9673 N 911.988 -0.768124 1.37614 0
M  V30 9674 C 913.399 -1.34462 1.29525 0
M  V30 9675 C 913.75 -1.96121 -0.0555168 0
M  V30 9676 O 912.875 -1.94069 -0.957406 0
M  V30 9677 C 913.47 -2.44475 2.34558 0
M  V30 9678 C 912.029 -2.97883 2.30093 0
M  V30 9679 C 911.176 -1.71131 2.18196 0
M  V30 9680 H 914.127 -0.568103 1.48183 0
M  V30 9681 H 914.148 -3.24047 1.99434 0
M  V30 9682 H 913.66 -1.99568 3.32858 0
M  V30 9683 H 911.761 -3.47156 1.35328 0
M  V30 9684 H 911.874 -3.53251 3.23652 0
M  V30 9685 H 910.238 -1.94197 1.64802 0
M  V30 9686 H 911.021 -1.28323 3.18415 0
M  V30 9687 N 913.466 -1.22244 -0.994698 0
M  V30 9688 C 914.712 -1.04746 -1.73655 0
M  V30 9689 C 915.045 0.41668 -1.89677 0
M  V30 9690 O 914.32 1.30897 -1.43862 0
M  V30 9691 C 914.603 -1.75716 -3.14318 0
M  V30 9692 C 914.456 -3.29714 -3.05955 0
M  V30 9693 C 915.775 -1.50809 -4.13455 0
M  V30 9694 H 912.894 -0.381921 -0.630322 0
M  V30 9695 H 915.536 -1.50559 -1.15897 0
M  V30 9696 H 913.686 -1.3677 -3.63629 0
M  V30 9697 H 915.358 -3.78093 -2.64279 0
M  V30 9698 H 913.601 -3.59484 -2.42804 0
M  V30 9699 H 914.272 -3.74547 -4.05485 0
M  V30 9700 H 916.748 -1.84636 -3.72892 0
M  V30 9701 H 915.624 -2.02964 -5.09997 0
M  V30 9702 H 915.885 -0.440292 -4.39902 0
M  V30 9703 N 914.944 1.19125 -1.03184 0
M  V30 9704 C 915.876 2.21914 -0.573294 0
M  V30 9705 C 916.889 1.5894 0.352397 0
M  V30 9706 O 918.078 1.77883 0.148318 0
M  V30 9707 C 915.178 3.38403 0.18355 0
M  V30 9708 C 914.351 4.3096 -0.747817 0
M  V30 9709 C 913.41 5.26188 -0.0358489 0
M  V30 9710 O 912.436 5.65321 -0.663388 0
M  V30 9711 N 913.638 5.67235 1.23387 0
M  V30 9712 H 916.403 2.61881 -1.45734 0
M  V30 9713 H 913.964 1.33821 -0.911231 0
M  V30 9714 H 915.956 3.99124 0.669468 0
M  V30 9715 H 914.526 2.97201 0.969043 0
M  V30 9716 H 913.746 3.67976 -1.41377 0
M  V30 9717 H 915.034 4.89708 -1.38071 0
M  V30 9718 H 914.432 5.37481 1.76439 0
M  V30 9719 H 912.989 6.30196 1.66423 0
M  V30 9720 N 916.422 0.810101 1.35185 0
M  V30 9721 C 917.37 0.211071 2.3164 0
M  V30 9722 C 918.364 -0.641109 1.568 0
M  V30 9723 O 919.57 -0.533881 1.719 0
M  V30 9724 H 915.945 0.0494978 0.750369 0
M  V30 9725 H 917.916 1.03964 2.79703 0
M  V30 9726 C 916.665 -0.622933 3.42074 0
M  V30 9727 H 915.988 0.0234648 3.99793 0
M  V30 9728 H 917.428 -1.0084 4.11834 0
M  V30 9729 C 915.887 -1.78994 2.85417 0
M  V30 9730 O 916.417 -2.88758 2.79252 0
M  V30 9731 N 914.623 -1.60259 2.42416 0
M  V30 9732 H 914.17 -0.70974 2.4763 0
M  V30 9733 H 914.128 -2.38498 2.04857 0
M  V30 9734 N 917.9 -1.47166 0.563914 0
M  V30 9735 C 919.311 -1.86231 0.132307 0
M  V30 9736 C 919.662 -1.46976 -1.29971 0
M  V30 9737 O 918.787 -0.875911 -1.97881 0
M  V30 9738 C 919.382 -3.37996 0.233335 0
M  V30 9739 C 917.941 -3.76127 -0.143278 0
M  V30 9740 C 917.088 -2.71212 0.577857 0
M  V30 9741 H 920.039 -1.38588 0.773249 0
M  V30 9742 H 920.06 -3.76558 -0.546309 0
M  V30 9743 H 919.572 -3.66535 1.27568 0
M  V30 9744 H 917.673 -3.53205 -1.18648 0
M  V30 9745 H 917.786 -4.78595 0.219952 0
M  V30 9746 H 916.15 -2.54692 0.020186 0
M  V30 9747 H 916.933 -3.02593 1.62149 0
M  V30 9748 N 919.378 -0.300708 -1.54705 0
M  V30 9749 C 920.325 0.57552 -2.23509 0
M  V30 9750 C 921.295 1.12979 -1.21758 0
M  V30 9751 O 922.48 1.17437 -1.50377 0
M  V30 9752 C 919.62 1.74167 -2.97926 0
M  V30 9753 C 918.733 1.21882 -4.1445 0
M  V30 9754 C 917.868 2.34881 -4.7645 0
M  V30 9755 C 916.907 1.79729 -5.85119 0
M  V30 9756 N 916.044 2.863 -6.41075 0
M  V30 9757 H 920.884 -0.0178257 -2.97995 0
M  V30 9758 H 918.421 -0.0205666 -1.47086 0
M  V30 9759 H 920.379 2.42753 -3.39303 0
M  V30 9760 H 919.009 2.30665 -2.25817 0
M  V30 9761 H 918.061 0.425227 -3.78016 0
M  V30 9762 H 919.373 0.775065 -4.92741 0
M  V30 9763 H 918.527 3.11415 -5.20678 0
M  V30 9764 H 917.266 2.82584 -3.97489 0
M  V30 9765 H 916.271 1.01684 -5.40315 0
M  V30 9766 H 917.496 1.32931 -6.65963 0
M  V30 9767 H 915.442 3.33337 -5.64998 0
M  V30 9768 H 915.359 2.46419 -7.14712 0
M  V30 9769 H 916.627 3.62732 -6.89961 0
M  V30 9770 N 920.856 1.57574 -0.0284266 0
M  V30 9771 C 922.104 1.91393 0.649079 0
M  V30 9772 C 922.425 0.905368 1.72708 0
M  V30 9773 O 921.695 -0.0532107 1.95828 0
M  V30 9774 H 920.275 0.70646 0.24274 0
M  V30 9775 H 922.937 1.94752 -0.076066 0
M  V30 9776 H 922.033 2.91988 1.10226 0
M  V30 9777 N 922.334 -0.244713 1.55689 0
M  V30 9778 C 923.562 -0.989944 1.8168 0
M  V30 9779 C 923.977 -1.78863 0.604449 0
M  V30 9780 O 923.334 -1.77437 -0.426907 0
M  V30 9781 C 923.385 -1.92607 3.05916 0
M  V30 9782 O 923.106 -1.1597 4.22472 0
M  V30 9783 C 924.607 -2.78711 3.44724 0
M  V30 9784 H 921.827 -0.2912 0.604519 0
M  V30 9785 H 924.371 -0.266938 2.0275 0
M  V30 9786 H 922.526 -2.60333 2.8689 0
M  V30 9787 H 922.94 -1.79311 4.92898 0
M  V30 9788 H 924.414 -3.40141 4.34751 0
M  V30 9789 H 924.891 -3.49935 2.6541 0
M  V30 9790 H 925.497 -2.16435 3.66109 0
M  V30 9791 N 923.813 -1.49104 -0.510467 0
M  V30 9792 C 925.041 -1.61806 -1.28944 0
M  V30 9793 C 925.456 -0.285774 -1.86625 0
M  V30 9794 O 924.813 0.727551 -1.67371 0
M  V30 9795 C 924.864 -2.67966 -2.42645 0
M  V30 9796 O 924.585 -3.96026 -1.87337 0
M  V30 9797 C 926.086 -2.91286 -3.34166 0
M  V30 9798 H 923.306 -0.544999 -0.391429 0
M  V30 9799 H 925.85 -1.95071 -0.613805 0
M  V30 9800 H 924.005 -2.37505 -3.06056 0
M  V30 9801 H 924.419 -4.54427 -2.61909 0
M  V30 9802 H 925.893 -3.69323 -4.1025 0
M  V30 9803 H 926.37 -2.00842 -3.90588 0
M  V30 9804 H 926.976 -3.23127 -2.76531 0
M  V30 9805 N 925.291 0.760815 -1.38019 0
M  V30 9806 C 926.516 1.55513 -1.37224 0
M  V30 9807 C 926.941 1.88062 0.037611 0
M  V30 9808 O 926.299 1.50042 1.0177 0
M  V30 9809 C 926.347 2.83539 -2.22796 0
M  V30 9810 O 925.451 3.78384 -1.64009 0
M  V30 9811 H 924.792 0.470642 -0.468393 0
M  V30 9812 H 927.322 0.940792 -1.81687 0
M  V30 9813 H 927.332 3.32535 -2.36399 0
M  V30 9814 H 926.007 2.59178 -3.25269 0
M  V30 9815 H 924.584 3.37063 -1.59508 0
M  V30 9816 N 926.769 1.22769 0.988202 0
M  V30 9817 C 927.716 1.00195 2.07917 0
M  V30 9818 C 928.686 -0.0779391 1.65917 0
M  V30 9819 O 929.871 0.0726005 1.90662 0
M  V30 9820 C 927.011 0.590853 3.40004 0
M  V30 9821 C 926.124 1.74202 3.9532 0
M  V30 9822 C 925.259 1.27846 5.15586 0
M  V30 9823 C 924.298 2.40087 5.63049 0
M  V30 9824 N 923.435 1.94744 6.74551 0
M  V30 9825 H 928.275 1.93581 2.26562 0
M  V30 9826 H 925.812 0.96448 1.11068 0
M  V30 9827 H 927.77 0.333653 4.15864 0
M  V30 9828 H 926.4 -0.306007 3.21346 0
M  V30 9829 H 925.452 2.11342 3.16289 0
M  V30 9830 H 926.764 2.58612 4.26522 0
M  V30 9831 H 925.918 0.978919 5.9875 0
M  V30 9832 H 924.657 0.404617 4.86019 0
M  V30 9833 H 923.662 2.70824 4.78471 0
M  V30 9834 H 924.887 3.27995 5.9464 0
M  V30 9835 H 922.833 1.09729 6.46758 0
M  V30 9836 H 922.75 2.72718 7.05096 0
M  V30 9837 H 924.018 1.67873 7.61209 0
M  V30 9838 N 928.247 -1.18576 1.03814 0
M  V30 9839 C 929.496 -1.87822 0.735235 0
M  V30 9840 C 929.809 -1.81069 -0.739819 0
M  V30 9841 O 931.015 -2.45654 -1.15614 0
M  V30 9842 C 929.471 -3.36941 1.26486 0
M  V30 9843 C 929.079 -3.5223 2.76836 0
M  V30 9844 C 930.823 -4.11604 1.03836 0
M  V30 9845 C 928.73 -4.95294 3.23169 0
M  V30 9846 H 927.66 -0.703487 0.271333 0
M  V30 9847 H 930.311 -1.34 1.25365 0
M  V30 9848 H 928.693 -3.90217 0.674318 0
M  V30 9849 H 929.867 -3.09239 3.41625 0
M  V30 9850 H 928.182 -2.90969 2.97869 0
M  V30 9851 H 930.779 -5.17123 1.3597 0
M  V30 9852 H 931.122 -4.16293 -0.0244945 0
M  V30 9853 H 931.655 -3.64494 1.59338 0
M  V30 9854 H 928.394 -4.95772 4.28824 0
M  V30 9855 H 927.914 -5.3901 2.63113 0
M  V30 9856 H 929.593 -5.63996 3.17045 0
M  V30 9857 N 929.725 -0.817259 -1.34754 0
M  V30 9858 C 930.658 -0.180483 -2.27485 0
M  V30 9859 C 931.636 0.659792 -1.48612 0
M  V30 9860 O 932.82 0.624761 -1.77845 0
M  V30 9861 C 929.947 0.748487 -3.30326 0
M  V30 9862 C 928.993 -0.0135304 -4.26498 0
M  V30 9863 S 929.826 -1.35685 -5.18025 0
M  V30 9864 C 930.982 -0.432605 -6.24403 0
M  V30 9865 H 931.215 -0.966677 -2.81145 0
M  V30 9866 H 928.748 -0.612864 -1.41716 0
M  V30 9867 H 930.706 1.27893 -3.90069 0
M  V30 9868 H 929.367 1.50816 -2.75524 0
M  V30 9869 H 928.56 0.692454 -4.9922 0
M  V30 9870 H 928.162 -0.474344 -3.7098 0
M  V30 9871 H 930.454 0.378035 -6.76444 0
M  V30 9872 H 931.397 -1.12934 -6.99036 0
M  V30 9873 H 931.805 -0.0235533 -5.64495 0
M  V30 9874 N 931.203 1.46865 -0.571711 0
M  V30 9875 C 932.449 2.0273 -0.0531858 0
M  V30 9876 C 932.782 1.44353 1.29907 0
M  V30 9877 O 932.057 0.604488 1.84868 0
M  V30 9878 C 932.34 3.60092 0.0243831 0
M  V30 9879 C 932.193 4.28874 -1.35599 0
M  V30 9880 C 933.512 4.33994 0.730563 0
M  V30 9881 H 930.631 0.736706 -0.0208018 0
M  V30 9882 H 933.273 1.75132 -0.736794 0
M  V30 9883 H 931.423 3.83736 0.606565 0
M  V30 9884 H 933.095 4.16527 -1.98249 0
M  V30 9885 H 931.338 3.88664 -1.92674 0
M  V30 9886 H 932.009 5.37561 -1.25429 0
M  V30 9887 H 934.485 4.1543 0.236098 0
M  V30 9888 H 933.361 5.43699 0.753836 0
M  V30 9889 H 933.622 4.04257 1.78967 0
M  V30 9890 N 932.681 0.308908 1.54543 0
M  V30 9891 C 933.906 -0.303196 2.05172 0
M  V30 9892 C 934.331 -1.46133 1.18434 0
M  V30 9893 O 933.689 -1.803 0.190162 0
M  V30 9894 C 933.737 -0.729526 3.53143 0
M  V30 9895 O 932.841 -1.83348 3.69401 0
M  V30 9896 H 932.182 -0.0575066 0.661505 0
M  V30 9897 H 934.712 0.453055 1.99521 0
M  V30 9898 H 934.722 -1.01619 3.95143 0
M  V30 9899 H 933.397 0.117622 4.15734 0
M  V30 9900 H 931.974 -1.54676 3.39308 0
M  V30 9901 N 934.159 -1.57557 0.0367827 0
M  V30 9902 C 935.405 -1.92399 -0.641133 0
M  V30 9903 C 935.738 -0.914191 -1.71336 0
M  V30 9904 O 935.013 0.0619616 -1.94401 0
M  V30 9905 C 935.296 -3.37689 -1.25052 0
M  V30 9906 C 935.149 -4.4941 -0.187326 0
M  V30 9907 C 936.468 -3.8309 -2.16634 0
M  V30 9908 H 933.587 -0.699666 -0.231597 0
M  V30 9909 H 936.229 -1.89759 0.0956083 0
M  V30 9910 H 934.379 -3.40069 -1.87843 0
M  V30 9911 H 936.051 -4.59161 0.443736 0
M  V30 9912 H 934.294 -4.31065 0.486313 0
M  V30 9913 H 934.965 -5.48119 -0.653459 0
M  V30 9914 H 937.441 -3.82494 -1.63821 0
M  V30 9915 H 936.317 -4.85429 -2.56222 0
M  V30 9916 H 936.578 -3.19028 -3.06062 0
M  V30 9917 N 935.637 0.236453 -1.55816 0
M  V30 9918 C 936.883 0.960127 -1.79313 0
M  V30 9919 C 937.238 1.8256 -0.607406 0
M  V30 9920 O 936.531 1.87398 0.399046 0
M  V30 9921 C 936.725 1.84549 -3.06066 0
M  V30 9922 C 936.554 1.06721 -4.36853 0
M  V30 9923 C 935.324 0.76811 -4.99428 0
M  V30 9924 C 937.522 0.439715 -5.12417 0
M  V30 9925 N 935.504 -0.0331365 -6.13891 0
M  V30 9926 C 936.875 -0.225616 -6.19589 0
M  V30 9927 C 938.93 0.351237 -4.9666 0
M  V30 9928 C 937.633 -0.970943 -7.12717 0
M  V30 9929 C 939.659 -0.380585 -5.90174 0
M  V30 9930 C 939.021 -1.03451 -6.96762 0
M  V30 9931 H 935.12 0.332095 -0.707981 0
M  V30 9932 H 937.704 0.232311 -1.93309 0
M  V30 9933 H 935.875 2.54525 -2.93379 0
M  V30 9934 H 937.607 2.50552 -3.17814 0
M  V30 9935 H 934.362 1.08248 -4.61063 0
M  V30 9936 H 934.786 -0.422159 -6.75682 0
M  V30 9937 H 939.428 0.842469 -4.14321 0
M  V30 9938 H 937.146 -1.47374 -7.94548 0
M  V30 9939 H 940.732 -0.449851 -5.80058 0
M  V30 9940 H 939.612 -1.59175 -7.67876 0
M  V30 9941 N 937.115 1.49373 0.502552 0
M  V30 9942 C 938.078 1.65413 1.58654 0
M  V30 9943 C 939.078 0.526003 1.51953 0
M  V30 9944 O 940.268 0.792421 1.55133 0
M  V30 9945 C 937.4 1.65005 2.98306 0
M  V30 9946 H 938.593 2.62095 1.45762 0
M  V30 9947 H 936.146 1.38381 0.726672 0
M  V30 9948 H 936.881 0.699014 3.16677 0
M  V30 9949 H 936.666 2.46931 3.04578 0
M  V30 9950 H 938.156 1.79477 3.77065 0
M  V30 9951 N 938.594 -0.753485 1.38421 0
M  V30 9952 C 939.841 -1.51261 1.34634 0
M  V30 9953 C 940.169 -1.94396 -0.0635771 0
M  V30 9954 O 939.424 -1.65736 -1.04068 0
M  V30 9955 C 939.723 -2.77836 2.24816 0
M  V30 9956 C 939.389 -2.53662 3.72782 0
M  V30 9957 C 938.051 -2.46779 4.13103 0
M  V30 9958 C 940.403 -2.32548 4.66445 0
M  V30 9959 C 937.731 -2.16796 5.45176 0
M  V30 9960 C 940.083 -2.04085 5.98775 0
M  V30 9961 C 938.747 -1.95658 6.3818 0
M  V30 9962 H 938.017 -0.553503 0.492661 0
M  V30 9963 H 940.664 -0.866406 1.7078 0
M  V30 9964 H 938.969 -3.47106 1.81726 0
M  V30 9965 H 940.666 -3.35793 2.19189 0
M  V30 9966 H 937.256 -2.59891 3.40815 0
M  V30 9967 H 941.44 -2.36845 4.3614 0
M  V30 9968 H 936.696 -2.0878 5.74648 0
M  V30 9969 H 940.87 -1.86751 6.70893 0
M  V30 9970 H 938.497 -1.7219 7.40442 0
M  V30 9971 N 940.072 -1.23292 -0.981677 0
M  V30 9972 C 941.319 -1.06424 -1.72279 0
M  V30 9973 C 941.647 0.399055 -1.90362 0
M  V30 9974 O 940.902 1.31181 -1.45224 0
M  V30 9975 C 941.201 -1.73339 -3.12551 0
M  V30 9976 C 940.867 -3.23256 -3.14351 0
M  V30 9977 C 939.529 -3.64159 -3.14549 0
M  V30 9978 C 941.881 -4.1916 -3.09765 0
M  V30 9979 C 939.209 -4.99428 -3.07877 0
M  V30 9980 C 941.561 -5.54419 -3.04635 0
M  V30 9981 C 940.225 -5.94688 -3.03154 0
M  V30 9982 H 939.495 -0.389434 -0.630415 0
M  V30 9983 H 942.142 -1.53208 -1.1489 0
M  V30 9984 H 940.447 -1.18911 -3.73319 0
M  V30 9985 H 942.144 -1.57767 -3.68661 0
M  V30 9986 H 938.734 -2.90693 -3.14953 0
M  V30 9987 H 942.918 -3.88569 -3.08753 0
M  V30 9988 H 938.174 -5.29844 -3.05083 0
M  V30 9989 H 942.348 -6.28448 -3.00043 0
M  V30 9990 H 939.975 -6.99468 -2.97739 0
M  V30 9991 N 941.55 1.18024 -1.04442 0
M  V30 9992 C 942.513 2.19992 -0.643136 0
M  V30 9993 C 943.513 1.57949 0.301444 0
M  V30 9994 O 944.703 1.73986 0.0863341 0
M  V30 9995 C 941.835 3.40853 0.0565208 0
M  V30 9996 H 943.028 2.57008 -1.54554 0
M  V30 9997 H 940.581 1.31974 -0.837408 0
M  V30 9998 H 941.316 3.09373 0.972553 0
M  V30 9999 H 941.101 3.87128 -0.622439 0
M  V30 10000 H 942.591 4.16344 0.323652 0
M  V30 10001 N 943.028 0.824394 1.34319 0
M  V30 10002 C 944.274 0.413779 1.98534 0
M  V30 10003 C 944.607 -1.02089 1.65201 0
M  V30 10004 O 943.882 -1.71129 0.924402 0
M  V30 10005 C 944.165 0.61801 3.54757 0
M  V30 10006 C 944.018 2.0989 3.97827 0
M  V30 10007 C 945.337 0.0549041 4.40066 0
M  V30 10008 H 942.456 0.151815 0.721194 0
M  V30 10009 H 945.098 1.03723 1.5919 0
M  V30 10010 H 943.248 0.0873107 3.88402 0
M  V30 10011 H 944.92 2.69335 3.74508 0
M  V30 10012 H 943.163 2.58881 3.48085 0
M  V30 10013 H 943.834 2.1926 5.06586 0
M  V30 10014 H 946.31 0.508348 4.12983 0
M  V30 10015 H 945.186 0.227595 5.48428 0
M  V30 10016 H 945.447 -1.04025 4.29687 0
M  V30 10017 N 944.506 -1.46559 0.579492 0
M  V30 10018 C 945.755 -2.01606 0.0615735 0
M  V30 10019 C 946.068 -1.45695 -1.30508 0
M  V30 10020 O 947.274 -1.92541 -1.91416 0
M  V30 10021 C 945.73 -3.59851 0.059496 0
M  V30 10022 C 945.338 -4.24757 1.42427 0
M  V30 10023 C 947.082 -4.22567 -0.404646 0
M  V30 10024 C 944.989 -5.75072 1.38009 0
M  V30 10025 H 943.919 -0.753754 0.0192491 0
M  V30 10026 H 946.57 -1.68326 0.73066 0
M  V30 10027 H 944.952 -3.90193 -0.675691 0
M  V30 10028 H 946.126 -4.06029 2.17893 0
M  V30 10029 H 944.441 -3.74121 1.82817 0
M  V30 10030 H 947.038 -5.32748 -0.456441 0
M  V30 10031 H 947.381 -3.91279 -1.42149 0
M  V30 10032 H 947.914 -3.96839 0.276376 0
M  V30 10033 H 944.653 -6.11014 2.37364 0
M  V30 10034 H 944.173 -5.96073 0.667583 0
M  V30 10035 H 945.852 -6.37724 1.09163 0
M  V30 10036 N 945.984 -0.3171 -1.54377 0
M  V30 10037 C 947.231 0.28741 -2.0045 0
M  V30 10038 C 947.559 1.52648 -1.20535 0
M  V30 10039 O 946.814 1.93775 -0.273831 0
M  V30 10040 C 947.113 0.672917 -3.51008 0
M  V30 10041 C 946.779 -0.466245 -4.48483 0
M  V30 10042 C 945.441 -0.778933 -4.74854 0
M  V30 10043 C 947.793 -1.23176 -5.06436 0
M  V30 10044 C 945.121 -1.85997 -5.56437 0
M  V30 10045 C 947.473 -2.30284 -5.89196 0
M  V30 10046 C 946.137 -2.62141 -6.13872 0
M  V30 10047 H 945.407 0.105171 -0.733499 0
M  V30 10048 H 948.054 -0.439538 -1.86388 0
M  V30 10049 H 946.359 1.48019 -3.62764 0
M  V30 10050 H 948.056 1.15209 -3.84094 0
M  V30 10051 H 944.646 -0.212449 -4.28073 0
M  V30 10052 H 948.83 -1.00344 -4.8605 0
M  V30 10053 H 944.086 -2.11134 -5.73788 0
M  V30 10054 H 948.26 -2.90048 -6.33123 0
M  V30 10055 H 945.887 -3.46037 -6.76877 0
M  V30 10056 N 947.462 1.57535 -0.0451378 0
M  V30 10057 C 948.392 2.14208 0.929372 0
M  V30 10058 C 949.373 1.06221 1.32858 0
M  V30 10059 O 950.558 1.34132 1.40436 0
M  V30 10060 C 947.688 2.68217 2.20629 0
M  V30 10061 C 946.642 3.81134 1.94734 0
M  V30 10062 C 945.968 4.21636 3.28828 0
M  V30 10063 C 947.268 5.06531 1.27374 0
M  V30 10064 H 948.962 2.95886 0.457348 0
M  V30 10065 H 946.508 1.42332 0.218544 0
M  V30 10066 H 948.461 3.06502 2.89196 0
M  V30 10067 H 947.185 1.83722 2.70026 0
M  V30 10068 H 945.844 3.43312 1.28579 0
M  V30 10069 H 945.492 3.34099 3.76014 0
M  V30 10070 H 945.192 4.97736 3.12302 0
M  V30 10071 H 946.716 4.62516 3.98637 0
M  V30 10072 H 948.13 5.423 1.85967 0
M  V30 10073 H 946.527 5.87735 1.21194 0
M  V30 10074 H 947.597 4.84261 0.248913 0
M  V30 10075 N 948.94 -0.228186 1.55939 0
M  V30 10076 C 949.903 -1.26621 1.91049 0
M  V30 10077 C 950.903 -1.40141 0.788491 0
M  V30 10078 O 952.093 -1.3852 1.05631 0
M  V30 10079 C 949.225 -2.64108 2.15545 0
M  V30 10080 H 950.418 -0.966978 2.83883 0
M  V30 10081 H 947.971 -0.468313 1.49119 0
M  V30 10082 H 948.706 -2.99141 1.25241 0
M  V30 10083 H 948.491 -2.55673 2.97277 0
M  V30 10084 H 949.981 -3.39025 2.43827 0
M  V30 10085 N 950.418 -1.49637 -0.494624 0
M  V30 10086 C 951.643 -1.63431 -1.27691 0
M  V30 10087 C 952.068 -0.30813 -1.85559 0
M  V30 10088 O 951.426 0.725083 -1.66169 0
M  V30 10089 C 951.474 -2.71043 -2.3784 0
M  V30 10090 O 950.578 -2.3066 -3.41862 0
M  V30 10091 H 949.919 -0.546804 -0.376698 0
M  V30 10092 H 952.449 -1.95866 -0.591413 0
M  V30 10093 H 952.459 -2.93406 -2.83508 0
M  V30 10094 H 951.134 -3.67306 -1.95088 0
M  V30 10095 H 949.711 -2.18652 -3.02069 0
M  V30 10096 N 951.896 0.746133 -1.38819 0
M  V30 10097 C 953.126 1.53316 -1.38484 0
M  V30 10098 C 953.534 1.89183 0.0253332 0
M  V30 10099 O 952.877 1.5382 1.00424 0
M  V30 10100 C 952.939 2.85623 -2.18311 0
M  V30 10101 C 952.603 2.72253 -3.67052 0
M  V30 10102 C 953.6 2.41547 -4.60381 0
M  V30 10103 C 951.285 2.89472 -4.10501 0
M  V30 10104 C 953.279 2.28226 -5.9514 0
M  V30 10105 C 950.966 2.7577 -5.45338 0
M  V30 10106 C 951.964 2.45191 -6.37472 0
M  V30 10107 O 951.652 2.31561 -7.69828 0
M  V30 10108 H 951.384 0.480763 -0.475229 0
M  V30 10109 H 953.938 0.93057 -1.83111 0
M  V30 10110 H 952.168 3.481 -1.68414 0
M  V30 10111 H 953.857 3.47178 -2.10291 0
M  V30 10112 H 954.623 2.27905 -4.28117 0
M  V30 10113 H 950.502 3.12269 -3.3913 0
M  V30 10114 H 954.046 2.04279 -6.6702 0
M  V30 10115 H 949.943 2.88987 -5.77197 0
M  V30 10116 H 950.711 2.46716 -7.80432 0
M  V30 10117 N 953.375 1.23811 0.975125 0
M  V30 10118 C 954.603 1.10019 1.75224 0
M  V30 10119 C 955.018 -0.34791 1.85567 0
M  V30 10120 O 954.375 -1.24043 1.33864 0
M  V30 10121 C 954.426 1.72572 3.1765 0
M  V30 10122 O 954.147 3.11719 3.07836 0
M  V30 10123 C 955.648 1.64292 4.11732 0
M  V30 10124 H 952.868 0.38476 0.549728 0
M  V30 10125 H 955.412 1.63768 1.22476 0
M  V30 10126 H 953.567 1.22843 3.67408 0
M  V30 10127 H 953.981 3.42152 3.97533 0
M  V30 10128 H 955.455 2.12754 5.09352 0
M  V30 10129 H 955.932 0.602722 4.35045 0
M  V30 10130 H 956.538 2.13411 3.6788 0
M  V30 10131 N 954.853 -1.17469 1.05066 0
M  V30 10132 C 955.816 -2.19648 0.654793 0
M  V30 10133 C 956.816 -1.58107 -0.293063 0
M  V30 10134 O 958.006 -1.74029 -0.077106 0
M  V30 10135 C 955.138 -3.40878 -0.0384437 0
M  V30 10136 H 956.331 -2.56184 1.55915 0
M  V30 10137 H 953.884 -1.31528 0.844396 0
M  V30 10138 H 954.619 -3.09885 -0.956133 0
M  V30 10139 H 954.404 -3.86792 0.642961 0
M  V30 10140 H 955.894 -4.1651 -0.301568 0
M  V30 10141 N 956.331 -0.831506 -1.3388 0
M  V30 10142 C 957.279 -0.247896 -2.31275 0
M  V30 10143 C 958.273 0.616083 -1.578 0
M  V30 10144 O 959.479 0.506465 -1.72728 0
M  V30 10145 H 955.854 -0.0614293 -0.749487 0
M  V30 10146 H 957.825 -1.08401 -2.78014 0
M  V30 10147 C 956.574 0.568434 -3.43022 0
M  V30 10148 H 955.897 -0.0870654 -3.99705 0
M  V30 10149 H 957.337 0.942751 -4.13386 0
M  V30 10150 C 955.796 1.74431 -2.88228 0
M  V30 10151 O 956.326 2.84278 -2.83811 0
M  V30 10152 N 954.532 1.56382 -2.44935 0
M  V30 10153 H 954.079 0.670255 -2.48727 0
M  V30 10154 H 954.037 2.35208 -2.08625 0
M  V30 10155 N 957.809 1.4625 -0.587256 0
M  V30 10156 C 958.739 2.33132 0.131076 0
M  V30 10157 C 959.72 1.45619 0.879158 0
M  V30 10158 O 960.905 1.74428 0.853723 0
M  V30 10159 C 958.035 3.27975 1.14236 0
M  V30 10160 C 956.989 4.24965 0.508819 0
M  V30 10161 C 956.315 5.09349 1.62689 0
M  V30 10162 C 957.615 5.19322 -0.55694 0
M  V30 10163 H 959.309 2.93442 -0.594333 0
M  V30 10164 H 956.855 1.41106 -0.287263 0
M  V30 10165 H 958.808 3.87614 1.65328 0
M  V30 10166 H 957.532 2.65781 1.8981 0
M  V30 10167 H 956.191 3.66595 0.0189337 0
M  V30 10168 H 955.839 4.43537 2.37242 0
M  V30 10169 H 955.539 5.75036 1.20861 0
M  V30 10170 H 957.063 5.71852 2.14049 0
M  V30 10171 H 958.477 5.73151 -0.130903 0
M  V30 10172 H 956.874 5.93376 -0.895801 0
M  V30 10173 H 957.944 4.62979 -1.44148 0
M  V30 10174 N 959.287 0.325282 1.54207 0
M  V30 10175 C 960.25 -0.527228 2.23054 0
M  V30 10176 C 961.25 -1.04217 1.22456 0
M  V30 10177 O 962.44 -0.934325 1.47024 0
M  V30 10178 C 959.572 -1.7325 2.93594 0
M  V30 10179 H 960.765 0.0746423 2.99807 0
M  V30 10180 H 958.318 0.0763872 1.56113 0
M  V30 10181 H 959.053 -2.37356 2.20981 0
M  V30 10182 H 958.838 -1.37065 3.67363 0
M  V30 10183 H 960.328 -2.3376 3.46043 0
M  V30 10184 N 960.765 -1.57509 0.0534917 0
M  V30 10185 C 961.728 -2.10563 -0.905307 0
M  V30 10186 C 962.728 -1.02571 -1.23838 0
M  V30 10187 O 963.918 -1.28635 -1.17468 0
M  V30 10188 C 961.05 -2.5918 -2.21447 0
M  V30 10189 H 962.243 -2.96575 -0.445354 0
M  V30 10190 H 959.796 -1.55079 -0.194947 0
M  V30 10191 H 960.531 -1.76568 -2.72019 0
M  V30 10192 H 960.316 -3.38098 -1.98575 0
M  V30 10193 H 961.806 -3.00365 -2.90122 0
M  V30 10194 N 962.243 0.219913 -1.56058 0
M  V30 10195 C 963.49 0.944064 -1.79147 0
M  V30 10196 C 963.818 1.84268 -0.622531 0
M  V30 10197 O 963.073 1.91713 0.393013 0
M  V30 10198 C 963.372 1.81293 -3.08006 0
M  V30 10199 C 963.038 1.0674 -4.38084 0
M  V30 10200 C 961.7 0.86147 -4.73426 0
M  V30 10201 C 964.052 0.541049 -5.18384 0
M  V30 10202 C 961.38 0.117307 -5.86583 0
M  V30 10203 C 963.732 -0.189779 -6.32315 0
M  V30 10204 C 962.396 -0.406951 -6.66258 0
M  V30 10205 H 961.666 0.345458 -0.655546 0
M  V30 10206 H 964.313 0.212121 -1.90322 0
M  V30 10207 H 962.618 2.61278 -2.9196 0
M  V30 10208 H 964.315 2.3754 -3.23072 0
M  V30 10209 H 960.905 1.23789 -4.10334 0
M  V30 10210 H 965.089 0.687617 -4.91514 0
M  V30 10211 H 960.345 -0.0611651 -6.11369 0
M  V30 10212 H 964.519 -0.605134 -6.93766 0
M  V30 10213 H 962.146 -0.985511 -7.53785 0
M  V30 10214 N 963.721 1.49897 0.486681 0
M  V30 10215 C 964.654 1.6224 1.60479 0
M  V30 10216 C 965.632 0.470964 1.5563 0
M  V30 10217 O 966.816 0.688418 1.75479 0
M  V30 10218 C 963.943 1.59059 2.99028 0
M  V30 10219 C 962.989 2.79575 3.22087 0
M  V30 10220 S 963.822 4.41077 3.03664 0
M  V30 10221 C 964.978 4.40564 4.44583 0
M  V30 10222 H 965.211 2.56822 1.49766 0
M  V30 10223 H 962.744 1.38966 0.672893 0
M  V30 10224 H 964.702 1.5791 3.78913 0
M  V30 10225 H 963.363 0.657405 3.07143 0
M  V30 10226 H 962.556 2.73609 4.23266 0
M  V30 10227 H 962.158 2.78211 2.49949 0
M  V30 10228 H 964.45 4.13166 5.36936 0
M  V30 10229 H 965.393 5.42068 4.55596 0
M  V30 10230 H 965.801 3.70461 4.25933 0
M  V30 10231 N 965.199 -0.738761 1.39212 0
M  V30 10232 C 966.448 -1.49368 1.35543 0
M  V30 10233 C 966.761 -1.95543 -0.0471091 0
M  V30 10234 O 967.967 -2.70714 -0.206376 0
M  V30 10235 C 966.423 -2.69882 2.381 0
M  V30 10236 C 966.031 -2.30672 3.8405 0
M  V30 10237 C 967.775 -3.47718 2.435 0
M  V30 10238 C 965.682 -3.47886 4.78256 0
M  V30 10239 H 964.612 -0.560898 0.503894 0
M  V30 10240 H 967.263 -0.806221 1.6484 0
M  V30 10241 H 965.645 -3.40684 2.01867 0
M  V30 10242 H 966.819 -1.67441 4.29302 0
M  V30 10243 H 965.134 -1.65936 3.81909 0
M  V30 10244 H 967.731 -4.34897 3.11077 0
M  V30 10245 H 968.074 -3.89919 1.45838 0
M  V30 10246 H 968.607 -2.83942 2.78606 0
M  V30 10247 H 965.346 -3.10739 5.77167 0
M  V30 10248 H 964.866 -4.10111 4.37686 0
M  V30 10249 H 966.545 -4.14271 4.96979 0
M  V30 10250 N 966.677 -1.24326 -0.968545 0
M  V30 10251 C 967.609 -0.992749 -2.06584 0
M  V30 10252 C 968.622 0.0374902 -1.62757 0
M  V30 10253 O 969.811 -0.199448 -1.77382 0
M  V30 10254 C 966.911 -0.476165 -3.35538 0
M  V30 10255 C 966.084 -1.56934 -4.08277 0
M  V30 10256 C 965.143 -1.05555 -5.15504 0
M  V30 10257 O 964.169 -1.74707 -5.41725 0
M  V30 10258 N 965.371 0.110465 -5.80395 0
M  V30 10259 H 968.136 -1.93752 -2.28649 0
M  V30 10260 H 965.697 -1.15344 -1.13611 0
M  V30 10261 H 967.689 -0.117223 -4.0453 0
M  V30 10262 H 966.259 0.374315 -3.10351 0
M  V30 10263 H 965.479 -2.10051 -3.33575 0
M  V30 10264 H 966.767 -2.30415 -4.53637 0
M  V30 10265 H 966.165 0.688614 -5.61493 0
M  V30 10266 H 964.722 0.41056 -6.50506 0
M  V30 10267 N 968.156 1.1691 -1.05688 0
M  V30 10268 C 969.066 2.24735 -0.67315 0
M  V30 10269 C 970.082 1.71252 0.308043 0
M  V30 10270 O 971.258 2.00772 0.158889 0
M  V30 10271 C 968.323 3.4665 -0.059026 0
M  V30 10272 C 967.384 4.15198 -1.0913 0
M  V30 10273 C 966.617 5.31292 -0.50639 0
M  V30 10274 O 966.84 5.663 0.682692 0
M  V30 10275 O 965.774 5.88923 -1.2431 0
M  V30 10276 H 969.6 2.59855 -1.57191 0
M  V30 10277 H 967.185 1.24306 -0.828751 0
M  V30 10278 H 969.067 4.20455 0.282018 0
M  V30 10279 H 967.742 3.13316 0.813304 0
M  V30 10280 H 966.649 3.43389 -1.48442 0
M  V30 10281 H 967.982 4.52571 -1.93495 0
M  V30 10282 N 969.634 0.838594 1.33437 0
M  V30 10283 C 970.544 0.274048 2.32994 0
M  V30 10284 C 971.56 -0.599776 1.63336 0
M  V30 10285 O 972.736 -0.503963 1.94993 0
M  V30 10286 C 969.801 -0.541804 3.4244 0
M  V30 10287 C 968.862 0.356262 4.27819 0
M  V30 10288 C 968.095 -0.420747 5.32039 0
M  V30 10289 O 968.318 -1.65247 5.45939 0
M  V30 10290 O 967.252 0.205101 6.0155 0
M  V30 10291 H 971.078 1.09846 2.83139 0
M  V30 10292 H 968.663 0.601111 1.36774 0
M  V30 10293 H 970.545 -1.00544 4.0923 0
M  V30 10294 H 969.22 -1.34328 2.94513 0
M  V30 10295 H 968.127 0.867726 3.63897 0
M  V30 10296 H 969.46 1.1225 4.79229 0
M  V30 10297 N 971.112 -1.45937 0.595003 0
M  V30 10298 C 972.359 -2.0232 0.0853053 0
M  V30 10299 C 972.687 -1.465 -1.27937 0
M  V30 10300 O 971.942 -0.624767 -1.85459 0
M  V30 10301 C 972.241 -3.57396 -0.0173747 0
M  V30 10302 C 971.907 -4.32311 1.28131 0
M  V30 10303 C 970.569 -4.52496 1.63708 0
M  V30 10304 C 972.921 -4.75233 2.14017 0
M  V30 10305 C 970.249 -5.12857 2.84947 0
M  V30 10306 C 972.601 -5.36933 3.34493 0
M  V30 10307 C 971.265 -5.55343 3.70338 0
M  V30 10308 H 970.535 -0.740342 0.0312154 0
M  V30 10309 H 973.182 -1.75157 0.774103 0
M  V30 10310 H 971.487 -3.83766 -0.789371 0
M  V30 10311 H 973.184 -3.98713 -0.427699 0
M  V30 10312 H 969.774 -4.16905 0.994374 0
M  V30 10313 H 973.958 -4.59383 1.87833 0
M  V30 10314 H 969.214 -5.253 3.12841 0
M  V30 10315 H 973.388 -5.69147 4.01304 0
M  V30 10316 H 971.015 -6.01883 4.64371 0
M  V30 10317 N 972.59 -0.333456 -1.54032 0
M  V30 10318 C 973.836 0.266527 -2.01041 0
M  V30 10319 C 974.169 1.51006 -1.2211 0
M  V30 10320 O 973.444 1.92078 -0.306016 0
M  V30 10321 C 973.727 0.59078 -3.55221 0
M  V30 10322 C 973.58 -0.664143 -4.4487 0
M  V30 10323 C 974.899 1.40447 -4.17088 0
M  V30 10324 H 972.018 0.0953979 -0.7308 0
M  V30 10325 H 974.66 -0.451995 -1.84545 0
M  V30 10326 H 972.81 1.20292 -3.69408 0
M  V30 10327 H 974.482 -1.30227 -4.42537 0
M  V30 10328 H 972.725 -1.29106 -4.14143 0
M  V30 10329 H 973.396 -0.392664 -5.50602 0
M  V30 10330 H 975.872 0.886946 -4.06537 0
M  V30 10331 H 974.748 1.6001 -5.2506 0
M  V30 10332 H 975.009 2.40357 -3.71054 0
M  V30 10333 N 974.068 1.57479 -0.061844 0
M  V30 10334 C 975.345 1.84484 0.649993 0
M  V30 10335 C 975.725 0.952366 1.88396 0
M  V30 10336 O 975.073 0.0161035 2.28494 0
M  V30 10337 C 975.283 3.34452 0.997133 0
M  V30 10338 C 976.631 4.01724 1.37488 0
M  V30 10339 O 977.655 3.3914 1.08916 0
M  V30 10340 O 976.514 5.12091 1.90854 0
M  V30 10341 H 973.608 0.761798 0.321858 0
M  V30 10342 H 976.154 1.6945 -0.0920192 0
M  V30 10343 H 974.926 3.91115 0.120301 0
M  V30 10344 H 974.549 3.54713 1.79624 0
M  V30 10345 N 975.546 -0.211634 1.56173 0
M  V30 10346 C 976.478 -1.286 1.89723 0
M  V30 10347 C 977.491 -1.42549 0.786361 0
M  V30 10348 O 978.68 -1.4327 1.06471 0
M  V30 10349 C 975.78 -2.66036 2.09948 0
M  V30 10350 C 974.953 -2.73908 3.41018 0
M  V30 10351 C 974.012 -3.92425 3.50555 0
M  V30 10352 O 973.038 -3.803 4.2351 0
M  V30 10353 N 974.24 -5.07165 2.82426 0
M  V30 10354 H 977.005 -1.00142 2.82474 0
M  V30 10355 H 974.566 -0.401633 1.56839 0
M  V30 10356 H 976.558 -3.43719 2.13634 0
M  V30 10357 H 975.128 -2.87052 1.23774 0
M  V30 10358 H 974.348 -1.82625 3.49345 0
M  V30 10359 H 975.636 -2.76145 4.27342 0
M  V30 10360 H 975.034 -5.19913 2.2295 0
M  V30 10361 H 973.591 -5.82855 2.9176 0
M  V30 10362 N 977.024 -1.50153 -0.478725 0
M  V30 10363 C 978.27 -1.60998 -1.23318 0
M  V30 10364 C 978.603 -0.305868 -1.91776 0
M  V30 10365 O 977.878 0.692158 -1.81767 0
M  V30 10366 C 978.161 -2.78495 -2.28282 0
M  V30 10367 C 978.014 -4.18767 -1.64178 0
M  V30 10368 C 979.333 -2.91569 -3.2966 0
M  V30 10369 H 976.452 -0.585983 -0.446982 0
M  V30 10370 H 979.094 -1.82514 -0.528063 0
M  V30 10371 H 977.244 -2.60281 -2.8842 0
M  V30 10372 H 978.916 -4.48552 -1.07696 0
M  V30 10373 H 977.159 -4.23379 -0.94514 0
M  V30 10374 H 977.83 -4.96894 -2.40417 0
M  V30 10375 H 980.306 -3.08219 -2.79536 0
M  V30 10376 H 979.182 -3.75419 -4.0044 0
M  V30 10377 H 979.443 -2.01859 -3.93326 0
M  V30 10378 N 978.502 0.731368 -1.39602 0
M  V30 10379 C 979.73 1.52059 -1.40305 0
M  V30 10380 C 980.145 1.888 0.00147921 0
M  V30 10381 O 979.502 1.54354 0.973715 0
M  V30 10382 C 979.553 2.80588 -2.27931 0
M  V30 10383 O 979.274 2.45406 -3.62915 0
M  V30 10384 C 980.775 3.74592 -2.37056 0
M  V30 10385 H 977.995 0.469787 -0.479104 0
M  V30 10386 H 980.539 0.903436 -1.83462 0
M  V30 10387 H 978.694 3.38626 -1.88178 0
M  V30 10388 H 979.108 3.27996 -4.09291 0
M  V30 10389 H 980.582 4.61662 -3.02609 0
M  V30 10390 H 981.059 4.16597 -1.39081 0
M  V30 10391 H 981.665 3.22471 -2.77295 0
M  V30 10392 N 979.98 1.24838 0.961938 0
M  V30 10393 C 981.228 1.08936 1.70227 0
M  V30 10394 C 981.549 -0.371582 1.91427 0
M  V30 10395 O 980.819 -1.26461 1.49614 0
M  V30 10396 H 979.399 0.400128 0.630799 0
M  V30 10397 H 982.061 1.56848 1.15692 0
M  V30 10398 H 981.157 1.59195 2.68446 0
M  V30 10399 N 981.458 -1.16348 1.06306 0
M  V30 10400 C 982.388 -2.2291 0.695234 0
M  V30 10401 C 983.369 -1.67208 -0.312343 0
M  V30 10402 O 984.554 -1.93293 -0.187442 0
M  V30 10403 C 981.684 -3.47205 0.0810149 0
M  V30 10404 C 980.638 -4.15801 1.01458 0
M  V30 10405 C 979.964 -5.3405 0.263656 0
M  V30 10406 C 981.264 -4.66766 2.34365 0
M  V30 10407 H 982.958 -2.53934 1.58613 0
M  V30 10408 H 980.504 -1.22056 0.76409 0
M  V30 10409 H 982.457 -4.2098 -0.18818 0
M  V30 10410 H 981.181 -3.15482 -0.844897 0
M  V30 10411 H 979.84 -3.43954 1.26852 0
M  V30 10412 H 979.488 -4.9858 -0.665378 0
M  V30 10413 H 979.188 -5.80885 0.88582 0
M  V30 10414 H 980.712 -6.106 0.00200994 0
M  V30 10415 H 982.126 -5.3212 2.13356 0
M  V30 10416 H 980.523 -5.24223 2.9208 0
M  V30 10417 H 981.593 -3.82969 2.97426 0
M  V30 10418 N 982.937 -0.845659 -1.3299 0
M  V30 10419 C 984.162 -0.457435 -2.02293 0
M  V30 10420 C 984.587 0.935634 -1.63179 0
M  V30 10421 O 983.945 1.61297 -0.827835 0
M  V30 10422 C 983.993 -0.593665 -3.5568 0
M  V30 10423 O 983.097 0.37729 -4.10671 0
M  V30 10424 H 982.438 -0.185022 -0.637701 0
M  V30 10425 H 984.968 -1.14237 -1.69738 0
M  V30 10426 H 984.978 -0.477834 -4.05192 0
M  V30 10427 H 983.653 -1.60957 -3.83491 0
M  V30 10428 H 982.23 0.218448 -3.7226 0
M  V30 10429 N 984.415 1.45619 -0.602734 0
M  V30 10430 C 985.692 1.9558 -0.0282472 0
M  V30 10431 C 986.072 1.54523 1.43826 0
M  V30 10432 O 985.42 0.805456 2.13833 0
M  V30 10433 C 985.63 3.48298 -0.221263 0
M  V30 10434 C 986.978 4.24483 -0.0995249 0
M  V30 10435 O 988.002 3.55879 -0.151132 0
M  V30 10436 O 986.861 5.46497 0.0194454 0
M  V30 10437 H 983.955 0.826104 0.0384897 0
M  V30 10438 H 986.501 1.55808 -0.672456 0
M  V30 10439 H 985.273 3.71134 -1.23997 0
M  V30 10440 H 984.896 3.94948 0.458437 0
M  V30 10441 N 985.893 0.34162 1.53853 0
M  V30 10442 C 986.84 -0.516058 2.24957 0
M  V30 10443 C 987.81 -1.09711 1.2471 0
M  V30 10444 O 988.995 -1.13409 1.53438 0
M  V30 10445 C 986.135 -1.66207 3.02439 0
M  V30 10446 C 985.248 -1.10851 4.17536 0
M  V30 10447 C 984.383 -2.22167 4.82509 0
M  V30 10448 C 983.422 -1.64152 5.89678 0
M  V30 10449 N 982.559 -2.69203 6.4844 0
M  V30 10450 H 987.399 0.0968275 2.97843 0
M  V30 10451 H 984.936 0.0595565 1.46979 0
M  V30 10452 H 986.894 -2.33672 3.4562 0
M  V30 10453 H 985.524 -2.24597 2.31853 0
M  V30 10454 H 984.576 -0.324853 3.7901 0
M  V30 10455 H 985.888 -0.644151 4.94623 0
M  V30 10456 H 985.042 -2.97501 5.28751 0
M  V30 10457 H 983.781 -2.71946 4.04842 0
M  V30 10458 H 982.786 -0.873228 5.42821 0
M  V30 10459 H 984.011 -1.15228 6.69253 0
M  V30 10460 H 981.957 -3.1824 5.73637 0
M  V30 10461 H 981.874 -2.27383 7.20994 0
M  V30 10462 H 983.142 -3.44312 6.99335 0
M  V30 10463 N 987.371 -1.57444 0.0701946 0
M  V30 10464 C 988.318 -2.12631 -0.897599 0
M  V30 10465 C 989.288 -1.03841 -1.29639 0
M  V30 10466 O 990.473 -1.31495 -1.38253 0
M  V30 10467 C 987.613 -2.6911 -2.16041 0
M  V30 10468 C 986.726 -3.9205 -1.8144 0
M  V30 10469 C 985.861 -4.36778 -3.02321 0
M  V30 10470 C 984.9 -5.52371 -2.63729 0
M  V30 10471 N 984.037 -5.92065 -3.77364 0
M  V30 10472 H 988.877 -2.95024 -0.420104 0
M  V30 10473 H 986.414 -1.45792 -0.195716 0
M  V30 10474 H 988.372 -2.99963 -2.89962 0
M  V30 10475 H 987.002 -1.89484 -2.61334 0
M  V30 10476 H 986.054 -3.67669 -0.975896 0
M  V30 10477 H 987.366 -4.76011 -1.49046 0
M  V30 10478 H 986.52 -4.69285 -3.84521 0
M  V30 10479 H 985.259 -3.51668 -3.37907 0
M  V30 10480 H 984.264 -5.19517 -1.7995 0
M  V30 10481 H 985.489 -6.39212 -2.29315 0
M  V30 10482 H 983.435 -5.09904 -4.12715 0
M  V30 10483 H 983.352 -6.70762 -3.48733 0
M  V30 10484 H 984.62 -6.29193 -4.60148 0
M  V30 10485 N 988.849 0.203349 -1.56283 0
M  V30 10486 C 990.096 0.92501 -1.80138 0
M  V30 10487 C 990.424 1.83598 -0.64204 0
M  V30 10488 O 989.679 1.92119 0.372658 0
M  V30 10489 C 989.978 1.78016 -3.09912 0
M  V30 10490 C 989.644 1.02088 -4.39191 0
M  V30 10491 C 988.306 0.811208 -4.74313 0
M  V30 10492 C 990.658 0.486037 -5.18929 0
M  V30 10493 C 987.986 0.0550856 -5.86674 0
M  V30 10494 C 990.338 -0.256833 -6.32078 0
M  V30 10495 C 989.002 -0.477594 -6.65789 0
M  V30 10496 H 988.272 0.338485 -0.659173 0
M  V30 10497 H 990.919 0.191923 -1.90536 0
M  V30 10498 H 989.224 2.58167 -2.94715 0
M  V30 10499 H 990.921 2.341 -3.25574 0
M  V30 10500 H 987.511 1.1943 -4.11624 0
M  V30 10501 H 991.695 0.635446 -4.92215 0
M  V30 10502 H 986.951 -0.126006 -6.1127 0
M  V30 10503 H 991.125 -0.678683 -6.93085 0
M  V30 10504 H 988.752 -1.0654 -7.52697 0
M  V30 10505 N 990.327 1.50405 0.470755 0
M  V30 10506 C 991.259 1.65447 1.58619 0
M  V30 10507 C 992.272 0.535949 1.53725 0
M  V30 10508 O 993.461 0.80914 1.59107 0
M  V30 10509 C 990.561 1.62318 2.975 0
M  V30 10510 C 989.734 2.90207 3.27259 0
M  V30 10511 C 988.793 2.79717 4.45696 0
M  V30 10512 O 987.819 3.53672 4.45987 0
M  V30 10513 N 989.021 1.93296 5.47373 0
M  V30 10514 H 991.786 2.61659 1.46132 0
M  V30 10515 H 989.347 1.47873 0.659178 0
M  V30 10516 H 991.339 1.52912 3.747 0
M  V30 10517 H 989.909 0.738392 3.03754 0
M  V30 10518 H 989.129 3.13737 2.38669 0
M  V30 10519 H 990.417 3.74931 3.43953 0
M  V30 10520 H 989.815 1.32524 5.49958 0
M  V30 10521 H 988.372 1.89793 6.23556 0
M  V30 10522 N 991.805 -0.723954 1.39988 0
M  V30 10523 C 993.221 -1.03095 1.21834 0
M  V30 10524 C 993.421 -2.01309 0.0876647 0
M  V30 10525 O 992.477 -2.46277 -0.55714 0
M  V30 10526 C 993.79 -1.58267 2.5568 0
M  V30 10527 C 995.338 -1.70293 2.6262 0
M  V30 10528 C 995.813 -2.28872 3.96713 0
M  V30 10529 N 997.304 -2.36269 3.98411 0
M  V30 10530 C 998.039 -2.82557 4.98948 0
M  V30 10531 N 997.535 -3.28661 6.0988 0
M  V30 10532 N 999.328 -2.81866 4.86321 0
M  V30 10533 H 991.479 -0.0727891 2.12275 0
M  V30 10534 H 993.742 -0.0949029 0.943238 0
M  V30 10535 H 993.448 -0.935642 3.39026 0
M  V30 10536 H 993.322 -2.56914 2.76179 0
M  V30 10537 H 995.709 -2.34115 1.7965 0
M  V30 10538 H 995.79 -0.70268 2.45959 0
M  V30 10539 H 995.434 -1.65675 4.80119 0
M  V30 10540 H 995.364 -3.29595 4.107 0
M  V30 10541 H 997.855 -2.03697 3.18302 0
M  V30 10542 H 998.168 -3.62524 6.82493 0
M  V30 10543 H 996.513 -3.26641 6.13458 0
M  V30 10544 H 999.704 -2.45179 3.98754 0
M  V30 10545 H 999.877 -3.17626 5.64817 0
M  V30 10546 N 993.283 -1.25346 -0.955304 0
M  V30 10547 C 994.694 -1.09173 -1.51453 0
M  V30 10548 C 995.045 0.332755 -1.93358 0
M  V30 10549 O 994.17 1.22264 -1.78551 0
M  V30 10550 C 994.765 -1.97564 -2.75234 0
M  V30 10551 C 993.324 -1.85579 -3.27471 0
M  V30 10552 C 992.471 -1.91755 -2.00313 0
M  V30 10553 H 995.422 -1.38642 -0.772271 0
M  V30 10554 H 995.443 -1.51523 -3.49029 0
M  V30 10555 H 994.955 -3.01233 -2.44704 0
M  V30 10556 H 993.056 -0.847906 -3.62824 0
M  V30 10557 H 993.169 -2.70353 -3.95533 0
M  V30 10558 H 991.533 -1.35633 -2.15582 0
M  V30 10559 H 992.316 -2.97028 -1.72132 0
M  V30 10560 N 994.761 1.15782 -1.06922 0
M  V30 10561 C 995.711 2.18373 -0.655537 0
M  V30 10562 C 996.695 1.57745 0.317084 0
M  V30 10563 O 997.887 1.76511 0.131509 0
M  V30 10564 C 995.016 3.43263 -0.0502314 0
M  V30 10565 C 994.102 4.10954 -1.04773 0
M  V30 10566 N 994.493 4.542 -2.22567 0
M  V30 10567 C 992.791 4.3723 -0.880087 0
M  V30 10568 C 993.492 5.06641 -2.85815 0
M  V30 10569 N 992.468 4.99917 -2.13505 0
M  V30 10570 H 996.27 2.49533 -1.55276 0
M  V30 10571 H 993.784 1.32303 -0.941793 0
M  V30 10572 H 995.781 4.16063 0.264003 0
M  V30 10573 H 994.441 3.13588 0.842167 0
M  V30 10574 H 995.452 4.47727 -2.60309 0
M  V30 10575 H 992.129 4.17481 -0.0402148 0
M  V30 10576 H 993.519 5.50092 -3.85808 0
M  V30 10577 N 996.239 0.8527 1.3254 0
M  V30 10578 C 997.516 0.376491 1.91942 0
M  V30 10579 C 997.896 -1.13972 1.7769 0
M  V30 10580 O 997.244 -1.96047 1.17379 0
M  V30 10581 C 997.454 0.838694 3.38773 0
M  V30 10582 C 998.802 0.854736 4.15908 0
M  V30 10583 O 999.826 0.783203 3.47483 0
M  V30 10584 O 998.685 0.955207 5.38087 0
M  V30 10585 H 995.779 0.109412 0.81973 0
M  V30 10586 H 998.325 0.93947 1.41322 0
M  V30 10587 H 997.097 1.88179 3.43081 0
M  V30 10588 H 996.72 0.253055 3.96794 0
M  V30 10589 N 997.718 -1.45297 0.610449 0
M  V30 10590 C 998.948 -2.0629 0.113047 0
M  V30 10591 C 999.356 -1.45527 -1.20907 0
M  V30 10592 O 998.699 -0.564837 -1.74801 0
M  V30 10593 C 998.761 -3.59366 -0.0979692 0
M  V30 10594 C 998.425 -4.42481 1.14279 0
M  V30 10595 C 999.422 -4.77277 2.06161 0
M  V30 10596 C 997.107 -4.83187 1.37241 0
M  V30 10597 C 999.101 -5.51639 3.19333 0
M  V30 10598 C 996.788 -5.57303 2.50713 0
M  V30 10599 C 997.786 -5.91445 3.41587 0
M  V30 10600 O 997.474 -6.64056 4.53083 0
M  V30 10601 H 997.206 -0.67264 0.0673159 0
M  V30 10602 H 999.76 -1.87486 0.838937 0
M  V30 10603 H 997.99 -3.76582 -0.878783 0
M  V30 10604 H 999.679 -4.02193 -0.547327 0
M  V30 10605 H 1000.44 -4.46384 1.89647 0
M  V30 10606 H 996.324 -4.56045 0.67407 0
M  V30 10607 H 999.868 -5.78207 3.90286 0
M  V30 10608 H 995.765 -5.8761 2.67179 0
M  V30 10609 H 996.533 -6.82509 4.51801 0
M  V30 10610 N 999.196 -0.349774 -1.5367 0
M  V30 10611 C 1000.42 0.248692 -2.05904 0
M  V30 10612 C 1000.85 1.42942 -1.22267 0
M  V30 10613 O 1000.2 1.79732 -0.237899 0
M  V30 10614 C 1000.25 0.635639 -3.54953 0
M  V30 10615 O 999.356 1.7349 -3.74132 0
M  V30 10616 H 998.697 0.0399477 -0.662797 0
M  V30 10617 H 1001.23 -0.505795 -1.9825 0
M  V30 10618 H 1001.24 0.911064 -3.97698 0
M  V30 10619 H 999.912 -0.227805 -4.15276 0
M  V30 10620 H 998.489 1.45626 -3.43289 0
M  V30 10621 N 1000.67 1.57404 -0.0785433 0
M  V30 10622 C 1002.08 1.81118 0.45311 0
M  V30 10623 C 1002.44 0.992963 1.69218 0
M  V30 10624 O 1001.56 0.217448 2.15305 0
M  V30 10625 C 1002.16 3.28506 0.82882 0
M  V30 10626 C 1000.71 3.53042 1.3053 0
M  V30 10627 C 999.862 2.75739 0.29378 0
M  V30 10628 H 1002.81 1.55758 -0.304171 0
M  V30 10629 H 1002.83 3.40924 1.68971 0
M  V30 10630 H 1002.35 3.88031 -0.0731826 0
M  V30 10631 H 1000.45 2.98829 2.22558 0
M  V30 10632 H 1000.56 4.61724 1.27857 0
M  V30 10633 H 998.924 2.42703 0.772477 0
M  V30 10634 H 999.707 3.38005 -0.600613 0
M  V30 10635 N 1002.15 -0.195058 1.56388 0
M  V30 10636 C 1003.56 -0.75973 1.70543 0
M  V30 10637 C 1003.91 -1.83849 0.685118 0
M  V30 10638 O 1003.04 -2.15819 -0.158457 0
M  V30 10639 C 1003.63 -1.38485 3.09204 0
M  V30 10640 C 1002.19 -1.89661 3.25124 0
M  V30 10641 C 1001.34 -0.766563 2.66494 0
M  V30 10642 H 1004.29 0.0300148 1.58672 0
M  V30 10643 H 1004.31 -2.25424 3.06536 0
M  V30 10644 H 1003.82 -0.599479 3.83442 0
M  V30 10645 H 1001.92 -2.70917 2.55802 0
M  V30 10646 H 1002.04 -2.05837 4.32629 0
M  V30 10647 H 1000.4 -1.18086 2.25672 0
M  V30 10648 H 1001.18 0.00657102 3.43299 0
M  V30 10649 N 1003.63 -1.50653 -0.462772 0
M  V30 10650 C 1004.88 -1.62057 -1.21424 0
M  V30 10651 C 1005.2 -0.324778 -1.91769 0
M  V30 10652 O 1004.46 0.689828 -1.83139 0
M  V30 10653 C 1004.76 -2.75637 -2.27507 0
M  V30 10654 C 1004.42 -4.15826 -1.74354 0
M  V30 10655 C 1003.09 -4.53969 -1.5958 0
M  V30 10656 C 1005.44 -5.03409 -1.35012 0
M  V30 10657 C 1002.77 -5.77427 -1.03899 0
M  V30 10658 C 1005.12 -6.27422 -0.807704 0
M  V30 10659 C 1003.78 -6.6436 -0.646657 0
M  V30 10660 H 1003.05 -0.59301 -0.44432 0
M  V30 10661 H 1005.7 -1.84612 -0.508999 0
M  V30 10662 H 1004 -2.47203 -3.0397 0
M  V30 10663 H 1005.7 -2.81663 -2.85424 0
M  V30 10664 H 1002.29 -3.85739 -1.86823 0
M  V30 10665 H 1006.48 -4.74567 -1.45258 0
M  V30 10666 H 1001.73 -6.04713 -0.901751 0
M  V30 10667 H 1005.91 -6.94644 -0.494234 0
M  V30 10668 H 1003.53 -7.59901 -0.213053 0
M  V30 10669 N 1005.11 0.71652 -1.4037 0
M  V30 10670 C 1006.52 1.02447 -1.22379 0
M  V30 10671 C 1006.72 2.0126 -0.0983394 0
M  V30 10672 O 1005.78 2.46569 0.544071 0
M  V30 10673 C 1007.09 1.56909 -2.56515 0
M  V30 10674 C 1008.64 1.68898 -2.6352 0
M  V30 10675 C 1009.12 2.26765 -3.97922 0
M  V30 10676 N 1010.61 2.34152 -3.99658 0
M  V30 10677 C 1011.34 2.79907 -5.00439 0
M  V30 10678 N 1010.84 3.25422 -6.11615 0
M  V30 10679 N 1012.63 2.79283 -4.87809 0
M  V30 10680 H 1004.78 0.0615306 -2.12311 0
M  V30 10681 H 1007.05 0.0898994 -0.943728 0
M  V30 10682 H 1006.75 0.917649 -3.39517 0
M  V30 10683 H 1006.63 2.55446 -2.77538 0
M  V30 10684 H 1009.01 2.33159 -1.8089 0
M  V30 10685 H 1009.09 0.689626 -2.46329 0
M  V30 10686 H 1008.74 1.63126 -4.80991 0
M  V30 10687 H 1008.67 3.27413 -4.12442 0
M  V30 10688 H 1011.16 2.02006 -3.19378 0
M  V30 10689 H 1011.47 3.58899 -6.84406 0
M  V30 10690 H 1009.82 3.23383 -6.15181 0
M  V30 10691 H 1013.01 2.43061 -4.00049 0
M  V30 10692 H 1013.18 3.14626 -5.66493 0
M  V30 10693 N 1006.59 1.25851 0.948643 0
M  V30 10694 C 1007.83 1.10954 1.69397 0
M  V30 10695 C 1008.16 -0.348443 1.91353 0
M  V30 10696 O 1007.42 -1.27285 1.48651 0
M  V30 10697 C 1007.72 1.81565 3.07846 0
M  V30 10698 C 1007.38 3.31477 3.0567 0
M  V30 10699 C 1006.04 3.72371 3.04784 0
M  V30 10700 C 1008.4 4.27225 2.98543 0
M  V30 10701 C 1005.72 5.07416 2.94527 0
M  V30 10702 C 1008.08 5.62301 2.89828 0
M  V30 10703 C 1006.74 6.02516 2.87281 0
M  V30 10704 H 1006.01 0.406011 0.619868 0
M  V30 10705 H 1008.66 1.562 1.10787 0
M  V30 10706 H 1006.96 1.28767 3.70035 0
M  V30 10707 H 1008.66 1.67486 3.64348 0
M  V30 10708 H 1005.25 2.98941 3.07135 0
M  V30 10709 H 1009.43 3.96618 2.98342 0
M  V30 10710 H 1004.69 5.37746 2.90928 0
M  V30 10711 H 1008.86 6.36182 2.83276 0
M  V30 10712 H 1006.49 7.07116 2.79089 0
M  V30 10713 N 1008.06 -1.15214 1.07534 0
M  V30 10714 C 1009.31 -1.85676 0.79805 0
M  V30 10715 C 1009.63 -1.82837 -0.677919 0
M  V30 10716 O 1008.9 -1.27059 -1.49107 0
M  V30 10717 H 1007.48 -0.687468 0.292227 0
M  V30 10718 H 1010.15 -1.39658 1.35947 0
M  V30 10719 H 1009.24 -2.9076 1.13423 0
M  V30 10720 N 1009.54 -0.859717 -1.32086 0
M  V30 10721 C 1010.77 -0.479724 -2.01262 0
M  V30 10722 C 1011.19 0.924985 -1.64589 0
M  V30 10723 O 1010.54 1.60439 -0.869803 0
M  V30 10724 C 1010.59 -0.615128 -3.56228 0
M  V30 10725 O 1010.31 -1.96451 -3.91585 0
M  V30 10726 C 1011.82 -0.234804 -4.42678 0
M  V30 10727 H 1009.04 -0.188007 -0.644123 0
M  V30 10728 H 1011.58 -1.15805 -1.68551 0
M  V30 10729 H 1009.73 0.0155268 -3.87397 0
M  V30 10730 H 1010.15 -1.96491 -4.86304 0
M  V30 10731 H 1011.62 -0.380534 -5.50687 0
M  V30 10732 H 1012.1 0.825189 -4.31378 0
M  V30 10733 H 1012.71 -0.840739 -4.16907 0
M  V30 10734 N 1011.02 1.44971 -0.618145 0
M  V30 10735 C 1012.27 2.02458 -0.117656 0
M  V30 10736 C 1012.6 1.48413 1.25248 0
M  V30 10737 O 1011.87 0.662997 1.82851 0
M  V30 10738 C 1012.16 3.59987 -0.0901897 0
M  V30 10739 C 1012.01 4.24343 -1.49175 0
M  V30 10740 C 1013.33 4.36099 0.592121 0
M  V30 10741 H 1010.45 0.735672 -0.0442291 0
M  V30 10742 H 1013.09 1.727 -0.792138 0
M  V30 10743 H 1011.24 3.85471 0.484175 0
M  V30 10744 H 1012.91 4.10009 -2.114 0
M  V30 10745 H 1011.16 3.82337 -2.04941 0
M  V30 10746 H 1011.83 5.33298 -1.42468 0
M  V30 10747 H 1014.3 4.1597 0.103813 0
M  V30 10748 H 1013.18 5.45822 0.580481 0
M  V30 10749 H 1013.44 4.09746 1.66015 0
M  V30 10750 N 1012.5 0.357919 1.53482 0
M  V30 10751 C 1013.91 -0.122938 1.86295 0
M  V30 10752 C 1014.26 -1.48803 1.27875 0
M  V30 10753 O 1013.39 -2.07978 0.597828 0
M  V30 10754 C 1013.98 -0.229853 3.38019 0
M  V30 10755 C 1012.54 -0.654955 3.70658 0
M  V30 10756 C 1011.69 0.202539 2.76559 0
M  V30 10757 H 1014.64 0.576997 1.47839 0
M  V30 10758 H 1014.66 -1.05481 3.65587 0
M  V30 10759 H 1014.17 0.763825 3.80509 0
M  V30 10760 H 1012.27 -1.65714 3.33721 0
M  V30 10761 H 1012.38 -0.43488 4.77122 0
M  V30 10762 H 1010.75 -0.327388 2.52587 0
M  V30 10763 H 1011.53 1.19361 3.21882 0
M  V30 10764 N 1013.98 -1.5736 0.0868897 0
M  V30 10765 C 1014.92 -2.14793 -0.892571 0
M  V30 10766 C 1015.92 -1.08866 -1.29787 0
M  V30 10767 O 1017.12 -1.27223 -1.27335 0
M  V30 10768 H 1013.5 -0.686998 -0.305838 0
M  V30 10769 H 1015.47 -2.95927 -0.383393 0
M  V30 10770 C 1014.22 -2.73646 -2.14507 0
M  V30 10771 H 1013.54 -3.54835 -1.84207 0
M  V30 10772 H 1014.98 -3.17409 -2.81118 0
M  V30 10773 C 1013.44 -1.69138 -2.91366 0
M  V30 10774 O 1013.97 -1.12539 -3.85614 0
M  V30 10775 N 1012.18 -1.3982 -2.54752 0
M  V30 10776 H 1011.72 -1.86035 -1.78182 0
M  V30 10777 H 1011.68 -0.701316 -3.06478 0
M  V30 10778 N 1015.45 0.186762 -1.56489 0
M  V30 10779 C 1016.7 0.904063 -1.80752 0
M  V30 10780 C 1017.02 1.83443 -0.661343 0
M  V30 10781 O 1016.29 1.93272 0.319811 0
M  V30 10782 H 1014.87 0.336828 -0.66675 0
M  V30 10783 H 1017.54 0.190275 -1.93969 0
M  V30 10784 H 1016.63 1.49021 -2.74225 0
M  V30 10785 N 1016.93 1.50896 0.454776 0
M  V30 10786 C 1018.16 1.66759 1.23313 0
M  V30 10787 C 1018.58 0.35722 1.84677 0
M  V30 10788 O 1017.94 -0.680771 1.68033 0
M  V30 10789 C 1017.99 2.77254 2.3057 0
M  V30 10790 O 1017.09 2.39642 3.35627 0
M  V30 10791 H 1016.43 0.556599 0.362068 0
M  V30 10792 H 1018.96 1.97365 0.539274 0
M  V30 10793 H 1018.97 3.0082 2.75629 0
M  V30 10794 H 1017.65 3.72349 1.85281 0
M  V30 10795 H 1016.23 2.26584 2.96165 0
M  V30 10796 N 1018.41 -0.709066 1.40748 0
M  V30 10797 C 1019.64 -1.49808 1.42707 0
M  V30 10798 C 1020.05 -1.88778 0.0285574 0
M  V30 10799 O 1019.41 -1.55883 -0.949035 0
M  V30 10800 C 1019.46 -2.76926 2.32366 0
M  V30 10801 O 1019.18 -2.39602 3.66773 0
M  V30 10802 C 1020.68 -3.70773 2.42986 0
M  V30 10803 H 1017.9 -0.462106 0.486517 0
M  V30 10804 H 1020.45 -0.874135 1.84876 0
M  V30 10805 H 1018.6 -3.3559 1.93541 0
M  V30 10806 H 1019.02 -3.21443 4.14457 0
M  V30 10807 H 1020.49 -4.56789 3.09916 0
M  V30 10808 H 1020.97 -4.14332 1.45691 0
M  V30 10809 H 1021.57 -3.18019 2.8239 0
M  V30 10810 N 1019.89 -1.26353 -0.941956 0
M  V30 10811 C 1020.8 -1.09618 -2.07415 0
M  V30 10812 C 1021.82 -0.0298963 -1.73974 0
M  V30 10813 O 1022.99 -0.233466 -2.00042 0
M  V30 10814 C 1020.06 -0.73013 -3.38925 0
M  V30 10815 C 1019.12 -1.87574 -3.86153 0
M  V30 10816 C 1018.35 -1.52706 -5.11387 0
M  V30 10817 O 1018.57 -0.428438 -5.68789 0
M  V30 10818 O 1017.51 -2.36154 -5.53638 0
M  V30 10819 H 1021.33 -2.04598 -2.2444 0
M  V30 10820 H 1018.92 -1.05407 -1.05876 0
M  V30 10821 H 1020.8 -0.538684 -4.17943 0
M  V30 10822 H 1019.48 0.190282 -3.2314 0
M  V30 10823 H 1018.38 -2.12214 -3.08084 0
M  V30 10824 H 1019.72 -2.77585 -4.06457 0
M  V30 10825 N 1021.37 1.14642 -1.08144 0
M  V30 10826 C 1022.78 1.37604 -0.808537 0
M  V30 10827 C 1022.98 1.92868 0.583452 0
M  V30 10828 O 1022.04 2.13964 1.34073 0
M  V30 10829 C 1023.35 2.3396 -1.889 0
M  V30 10830 C 1024.9 2.47605 -1.9147 0
M  V30 10831 C 1025.38 3.47258 -2.98623 0
M  V30 10832 N 1026.87 3.548 -2.97777 0
M  V30 10833 C 1027.6 4.31751 -3.77331 0
M  V30 10834 N 1027.1 5.11966 -4.66757 0
M  V30 10835 N 1028.89 4.2692 -3.65645 0
M  V30 10836 H 1021.04 0.771154 -1.97906 0
M  V30 10837 H 1023.3 0.401694 -0.858688 0
M  V30 10838 H 1023.01 2.00484 -2.88962 0
M  V30 10839 H 1022.88 3.33833 -1.756 0
M  V30 10840 H 1025.27 2.80375 -0.920548 0
M  V30 10841 H 1025.35 1.47702 -2.08848 0
M  V30 10842 H 1025 3.15223 -3.98243 0
M  V30 10843 H 1024.93 4.46935 -2.7849 0
M  V30 10844 H 1027.42 2.97553 -2.3296 0
M  V30 10845 H 1027.73 5.67951 -5.24072 0
M  V30 10846 H 1026.08 5.11245 -4.70801 0
M  V30 10847 H 1029.27 3.63322 -2.95152 0
M  V30 10848 H 1029.44 4.8664 -4.27885 0
M  V30 10849 N 1022.85 0.866709 1.31628 0
M  V30 10850 C 1023.79 0.309128 2.30537 0
M  V30 10851 C 1024.79 -0.574028 1.59378 0
M  V30 10852 O 1025.99 -0.460491 1.7401 0
M  V30 10853 H 1022.37 0.081279 0.747595 0
M  V30 10854 H 1024.34 1.15734 2.75042 0
M  V30 10855 C 1023.09 -0.477287 3.44409 0
M  V30 10856 H 1022.41 0.19301 3.99334 0
M  V30 10857 H 1023.85 -0.832818 4.1574 0
M  V30 10858 C 1022.31 -1.66727 2.92752 0
M  V30 10859 O 1022.84 -2.76654 2.91248 0
M  V30 10860 N 1021.05 -1.49833 2.48995 0
M  V30 10861 H 1020.59 -0.604073 2.50417 0
M  V30 10862 H 1020.55 -2.29594 2.14788 0
M  V30 10863 N 1024.32 -1.44642 0.625825 0
M  V30 10864 C 1025.57 -2.01308 0.125682 0
M  V30 10865 C 1025.89 -1.49773 -1.25807 0
M  V30 10866 O 1027.09 -1.98533 -1.85194 0
M  V30 10867 C 1025.55 -3.59479 0.17395 0
M  V30 10868 C 1025.16 -4.20011 1.55868 0
M  V30 10869 C 1026.9 -4.2364 -0.270005 0
M  V30 10870 C 1024.81 -5.7039 1.56235 0
M  V30 10871 H 1023.74 -0.75276 0.0432194 0
M  V30 10872 H 1026.39 -1.65916 0.783842 0
M  V30 10873 H 1024.77 -3.92145 -0.551212 0
M  V30 10874 H 1025.94 -3.98891 2.307 0
M  V30 10875 H 1024.26 -3.68116 1.94627 0
M  V30 10876 H 1026.86 -5.33931 -0.28672 0
M  V30 10877 H 1027.2 -3.95603 -1.29629 0
M  V30 10878 H 1027.73 -3.95759 0.402487 0
M  V30 10879 H 1024.47 -6.03154 2.56683 0
M  V30 10880 H 1023.99 -5.93648 0.856881 0
M  V30 10881 H 1025.67 -6.33929 1.29396 0
M  V30 10882 N 1025.8 -0.366053 -1.5329 0
M  V30 10883 C 1027.22 -0.0150149 -1.59593 0
M  V30 10884 C 1027.42 1.46719 -1.38116 0
M  V30 10885 O 1026.47 2.22884 -1.18656 0
M  V30 10886 C 1027.79 -0.471374 -2.96982 0
M  V30 10887 C 1029.33 -0.425634 -3.10092 0
M  V30 10888 C 1029.81 -0.857812 -4.49895 0
M  V30 10889 N 1031.3 -0.81289 -4.56011 0
M  V30 10890 C 1032.04 -1.11898 -5.62376 0
M  V30 10891 N 1031.53 -1.49436 -6.76491 0
M  V30 10892 N 1033.32 -1.04174 -5.52362 0
M  V30 10893 H 1025.48 -1.33127 -1.65502 0
M  V30 10894 H 1027.74 -0.544172 -0.776261 0
M  V30 10895 H 1027.44 -1.50569 -3.1784 0
M  V30 10896 H 1027.32 0.141764 -3.76934 0
M  V30 10897 H 1029.71 0.599548 -2.88945 0
M  V30 10898 H 1029.79 -1.07427 -2.32149 0
M  V30 10899 H 1029.43 -1.88111 -4.7178 0
M  V30 10900 H 1029.36 -0.186419 -5.2627 0
M  V30 10901 H 1031.85 -0.536343 -3.74075 0
M  V30 10902 H 1032.16 -1.71217 -7.53594 0
M  V30 10903 H 1030.51 -1.53302 -6.77882 0
M  V30 10904 H 1033.7 -0.747654 -4.62091 0
M  V30 10905 H 1033.87 -1.28362 -6.35159 0
M  V30 10906 N 1027.28 1.57312 -0.0952337 0
M  V30 10907 C 1028.23 2.15263 0.881167 0
M  V30 10908 C 1029.22 1.09552 1.29208 0
M  V30 10909 O 1030.43 1.27897 1.26659 0
M  V30 10910 H 1026.8 0.688611 0.302191 0
M  V30 10911 H 1028.77 2.96126 0.367694 0
M  V30 10912 C 1027.52 2.74779 2.13053 0
M  V30 10913 H 1026.85 3.55807 1.82323 0
M  V30 10914 H 1028.29 3.18895 2.79431 0
M  V30 10915 C 1026.74 1.7068 2.90465 0
M  V30 10916 O 1027.27 1.14582 3.85011 0
M  V30 10917 N 1025.48 1.41169 2.54007 0
M  V30 10918 H 1025.03 1.86977 1.77193 0
M  V30 10919 H 1024.99 0.717559 3.06102 0
M  V30 10920 N 1028.76 -0.17846 1.56586 0
M  V30 10921 C 1029.71 -1.24042 1.96765 0
M  V30 10922 C 1030.7 -1.46218 0.855375 0
M  V30 10923 O 1031.91 -1.46882 1.04046 0
M  V30 10924 H 1028.28 -0.416807 0.62592 0
M  V30 10925 H 1030.25 -0.874644 2.85294 0
M  V30 10926 C 1029 -2.57394 2.3376 0
M  V30 10927 H 1028.32 -2.41151 3.18883 0
M  V30 10928 H 1029.76 -3.30405 2.65723 0
M  V30 10929 C 1028.22 -3.15621 1.17835 0
M  V30 10930 O 1028.75 -3.99032 0.462202 0
M  V30 10931 N 1026.96 -2.74606 0.950783 0
M  V30 10932 H 1026.51 -2.06878 1.5349 0
M  V30 10933 H 1026.46 -3.13902 0.176967 0
M  V30 10934 N 1030.24 -1.51135 -0.446768 0
M  V30 10935 C 1031.47 -1.66887 -1.21788 0
M  V30 10936 C 1031.87 -0.361729 -1.8571 0
M  V30 10937 O 1031.22 0.668784 -1.71093 0
M  V30 10938 C 1031.28 -2.72062 -2.34994 0
M  V30 10939 C 1030.94 -4.14935 -1.91516 0
M  V30 10940 C 1031.94 -5.00021 -1.42389 0
M  V30 10941 C 1029.62 -4.60985 -1.99495 0
M  V30 10942 C 1031.62 -6.29216 -1.01816 0
M  V30 10943 C 1029.31 -5.90179 -1.58532 0
M  V30 10944 C 1030.3 -6.74121 -1.09774 0
M  V30 10945 O 1029.99 -8.009 -0.69389 0
M  V30 10946 H 1029.72 -0.563431 -0.373525 0
M  V30 10947 H 1032.28 -1.98261 -0.536818 0
M  V30 10948 H 1030.51 -2.35983 -3.06348 0
M  V30 10949 H 1032.2 -2.76788 -2.96889 0
M  V30 10950 H 1032.96 -4.6565 -1.35627 0
M  V30 10951 H 1028.84 -3.95777 -2.36393 0
M  V30 10952 H 1032.39 -6.94687 -0.636879 0
M  V30 10953 H 1028.28 -6.24066 -1.64962 0
M  V30 10954 H 1029.05 -8.14376 -0.820582 0
M  V30 10955 N 1031.71 0.701592 -1.41122 0
M  V30 10956 C 1033.12 1.28129 -1.35793 0
M  V30 10957 C 1033.48 1.96163 -0.0381185 0
M  V30 10958 O 1032.6 1.98416 0.863723 0
M  V30 10959 C 1033.2 2.33005 -2.45955 0
M  V30 10960 C 1031.75 2.86566 -2.44043 0
M  V30 10961 C 1030.9 1.60526 -2.26112 0
M  V30 10962 H 1033.85 0.496756 -1.50725 0
M  V30 10963 H 1033.87 3.14163 -2.14667 0
M  V30 10964 H 1033.39 1.8346 -3.42 0
M  V30 10965 H 1031.49 3.40304 -1.51737 0
M  V30 10966 H 1031.6 3.37406 -3.40138 0
M  V30 10967 H 1029.96 1.86113 -1.7388 0
M  V30 10968 H 1030.75 1.12985 -3.24175 0
M  V30 10969 N 1033.19 1.2685 0.935242 0
M  V30 10970 C 1034.42 1.15371 1.71386 0
M  V30 10971 C 1034.83 -0.293048 1.86917 0
M  V30 10972 O 1034.17 -1.212 1.38044 0
M  V30 10973 C 1034.23 1.75652 3.13666 0
M  V30 10974 C 1033.9 3.24788 3.215 0
M  V30 10975 C 1034.9 4.21525 3.04323 0
M  V30 10976 C 1032.58 3.65359 3.447 0
M  V30 10977 C 1034.57 5.56812 3.10224 0
M  V30 10978 C 1032.26 5.00778 3.50235 0
M  V30 10979 C 1033.26 5.96314 3.33014 0
M  V30 10980 O 1032.95 7.29266 3.38269 0
M  V30 10981 H 1032.68 0.40234 0.54323 0
M  V30 10982 H 1035.23 1.68083 1.18056 0
M  V30 10983 H 1033.46 1.17408 3.68446 0
M  V30 10984 H 1035.15 1.58994 3.73465 0
M  V30 10985 H 1035.92 3.91519 2.86249 0
M  V30 10986 H 1031.8 2.91479 3.57157 0
M  V30 10987 H 1035.34 6.3136 2.967 0
M  V30 10988 H 1031.24 5.30444 3.67831 0
M  V30 10989 H 1032.01 7.37616 3.54774 0
M  V30 10990 N 1034.67 -1.14067 1.0875 0
M  V30 10991 C 1035.6 -2.18306 0.664652 0
M  V30 10992 C 1036.58 -1.59312 -0.325359 0
M  V30 10993 O 1037.77 -1.87111 -0.228385 0
M  V30 10994 C 1034.89 -3.38693 -0.0218723 0
M  V30 10995 C 1033.94 -4.16263 0.928844 0
M  V30 10996 S 1034.77 -4.76817 2.43734 0
M  V30 10997 C 1035.93 -6.00557 1.76302 0
M  V30 10998 H 1036.16 -2.53837 1.54772 0
M  V30 10999 H 1033.69 -1.25254 0.902817 0
M  V30 11000 H 1035.65 -4.0843 -0.411686 0
M  V30 11001 H 1034.31 -3.01478 -0.881481 0
M  V30 11002 H 1033.51 -5.02446 0.395446 0
M  V30 11003 H 1033.11 -3.52146 1.25972 0
M  V30 11004 H 1035.4 -6.68788 1.08301 0
M  V30 11005 H 1036.34 -6.58492 2.60373 0
M  V30 11006 H 1036.75 -5.50827 1.23489 0
M  V30 11007 N 1036.15 -0.873678 -1.31166 0
M  V30 11008 C 1037.1 -0.303699 -2.25968 0
M  V30 11009 C 1038.08 0.561387 -1.50789 0
M  V30 11010 O 1039.27 0.407658 -1.72242 0
M  V30 11011 C 1036.4 0.490612 -3.39776 0
M  V30 11012 C 1035.49 -0.387927 -4.22322 0
M  V30 11013 N 1035.88 -1.48313 -4.83567 0
M  V30 11014 C 1034.18 -0.18102 -4.45632 0
M  V30 11015 C 1034.88 -2.0252 -5.45308 0
M  V30 11016 N 1033.86 -1.32169 -5.27288 0
M  V30 11017 H 1037.66 -1.14071 -2.7086 0
M  V30 11018 H 1035.17 -0.721843 -1.45476 0
M  V30 11019 H 1037.17 0.9155 -4.06724 0
M  V30 11020 H 1035.83 1.32519 -2.96427 0
M  V30 11021 H 1036.84 -1.86604 -4.83114 0
M  V30 11022 H 1033.52 0.617304 -4.12911 0
M  V30 11023 H 1034.91 -2.94429 -6.03955 0
M  V30 11024 N 1037.63 1.44308 -0.633487 0
M  V30 11025 C 1038.56 2.28943 0.108474 0
M  V30 11026 C 1039.57 1.41415 0.806582 0
M  V30 11027 O 1040.76 1.65544 0.667634 0
M  V30 11028 C 1037.86 3.17845 1.1759 0
M  V30 11029 C 1037.03 4.33802 0.559842 0
M  V30 11030 C 1036.09 5.03722 1.52154 0
M  V30 11031 O 1035.12 5.5966 1.03776 0
M  V30 11032 N 1036.32 5.05392 2.85586 0
M  V30 11033 H 1039.09 2.93262 -0.617879 0
M  V30 11034 H 1036.65 1.54781 -0.474819 0
M  V30 11035 H 1038.64 3.61485 1.81963 0
M  V30 11036 H 1037.21 2.55261 1.80445 0
M  V30 11037 H 1036.43 3.93325 -0.262559 0
M  V30 11038 H 1037.72 5.08637 0.128942 0
M  V30 11039 H 1037.11 4.61282 3.27468 0
M  V30 11040 H 1035.67 5.52813 3.45313 0
M  V30 11041 N 1039.1 0.374177 1.53094 0
M  V30 11042 C 1040.33 -0.213015 2.05499 0
M  V30 11043 C 1040.74 -1.42303 1.24686 0
M  V30 11044 O 1040.09 -1.81512 0.282702 0
M  V30 11045 C 1040.15 -0.662308 3.53346 0
M  V30 11046 C 1039.81 0.432183 4.54952 0
M  V30 11047 C 1040.81 1.2848 5.03775 0
M  V30 11048 C 1038.49 0.594887 4.98765 0
M  V30 11049 C 1040.49 2.28538 5.9502 0
M  V30 11050 C 1038.17 1.59882 5.89814 0
M  V30 11051 C 1039.17 2.4425 6.37833 0
M  V30 11052 O 1038.86 3.4293 7.27086 0
M  V30 11053 H 1038.59 -0.0393809 0.674852 0
M  V30 11054 H 1041.15 0.533423 1.98353 0
M  V30 11055 H 1039.38 -1.46049 3.5806 0
M  V30 11056 H 1041.07 -1.17347 3.88567 0
M  V30 11057 H 1041.83 1.17033 4.70668 0
M  V30 11058 H 1037.71 -0.0520401 4.60971 0
M  V30 11059 H 1041.25 2.94426 6.32423 0
M  V30 11060 H 1037.15 1.71373 6.22335 0
M  V30 11061 H 1037.92 3.3876 7.45107 0
M  V30 11062 N 1040.58 -1.57259 0.103575 0
M  V30 11063 C 1041.52 -2.10165 -0.889141 0
M  V30 11064 C 1042.49 -1.01426 -1.27089 0
M  V30 11065 O 1043.68 -1.2898 -1.37465 0
M  V30 11066 C 1040.8 -2.58564 -2.18774 0
M  V30 11067 C 1039.85 -3.79043 -1.95522 0
M  V30 11068 S 1040.68 -5.22213 -1.18551 0
M  V30 11069 C 1041.84 -5.73968 -2.49623 0
M  V30 11070 H 1042.07 -2.9404 -0.439083 0
M  V30 11071 H 1039.61 -1.54008 -0.10989 0
M  V30 11072 H 1041.56 -2.87106 -2.93395 0
M  V30 11073 H 1040.22 -1.749 -2.609 0
M  V30 11074 H 1039.42 -4.11004 -2.91705 0
M  V30 11075 H 1039.02 -3.51038 -1.29028 0
M  V30 11076 H 1041.31 -5.82752 -3.45553 0
M  V30 11077 H 1042.25 -6.72324 -2.22229 0
M  V30 11078 H 1042.66 -5.01946 -2.58284 0
M  V30 11079 N 1042.06 0.170153 -1.56679 0
M  V30 11080 C 1043.29 0.902134 -1.86197 0
M  V30 11081 C 1043.7 1.75775 -0.689098 0
M  V30 11082 O 1043.06 1.79271 0.341763 0
M  V30 11083 C 1043.11 1.77792 -3.14757 0
M  V30 11084 O 1042.83 0.956817 -4.27524 0
M  V30 11085 C 1044.33 2.61947 -3.57629 0
M  V30 11086 H 1041.55 0.262026 -0.617724 0
M  V30 11087 H 1044.1 0.169899 -2.03793 0
M  V30 11088 H 1042.25 2.46348 -2.98984 0
M  V30 11089 H 1042.67 1.5559 -5.00891 0
M  V30 11090 H 1044.14 3.19011 -4.50484 0
M  V30 11091 H 1044.62 3.36873 -2.81803 0
M  V30 11092 H 1045.22 1.98721 -3.76019 0
M  V30 11093 N 1043.54 1.5137 0.438746 0
M  V30 11094 C 1044.49 1.72582 1.53245 0
M  V30 11095 C 1045.46 0.567488 1.56105 0
M  V30 11096 O 1046.64 0.80176 1.73137 0
M  V30 11097 C 1043.78 1.85551 2.90972 0
M  V30 11098 C 1042.89 3.13094 2.97652 0
M  V30 11099 C 1042.03 3.16666 4.26493 0
M  V30 11100 C 1041.07 4.38529 4.27035 0
M  V30 11101 N 1040.2 4.39659 5.47398 0
M  V30 11102 H 1045.04 2.65941 1.3446 0
M  V30 11103 H 1042.58 1.31801 0.653206 0
M  V30 11104 H 1044.54 1.91053 3.70884 0
M  V30 11105 H 1043.17 0.956025 3.08318 0
M  V30 11106 H 1042.22 3.16909 2.10412 0
M  V30 11107 H 1043.53 4.03009 2.93914 0
M  V30 11108 H 1042.69 3.21075 5.14777 0
M  V30 11109 H 1041.43 2.24637 4.32885 0
M  V30 11110 H 1040.43 4.34297 3.37144 0
M  V30 11111 H 1041.66 5.31821 4.22307 0
M  V30 11112 H 1039.6 3.50499 5.54514 0
M  V30 11113 H 1039.52 5.23382 5.45534 0
M  V30 11114 H 1040.79 4.48259 6.37718 0
M  V30 11115 N 1045.02 -0.694098 1.41492 0
M  V30 11116 C 1046.26 -1.45415 1.40929 0
M  V30 11117 C 1046.59 -1.94491 0.0189301 0
M  V30 11118 O 1045.85 -1.7 -0.96945 0
M  V30 11119 C 1046.15 -2.6805 2.36398 0
M  V30 11120 C 1045.81 -2.37623 3.83205 0
M  V30 11121 C 1044.47 -2.29035 4.23198 0
M  V30 11122 C 1046.83 -2.12555 4.75888 0
M  V30 11123 C 1044.15 -1.93478 5.5388 0
M  V30 11124 C 1046.51 -1.78506 6.06892 0
M  V30 11125 C 1045.17 -1.68415 6.45905 0
M  V30 11126 H 1044.44 -0.53211 0.515694 0
M  V30 11127 H 1047.09 -0.793193 1.74301 0
M  V30 11128 H 1045.39 -3.39086 1.96285 0
M  V30 11129 H 1047.09 -3.26194 2.33234 0
M  V30 11130 H 1043.68 -2.45202 3.51531 0
M  V30 11131 H 1047.86 -2.18133 4.45793 0
M  V30 11132 H 1043.12 -1.84219 5.82986 0
M  V30 11133 H 1047.29 -1.58128 6.7821 0
M  V30 11134 H 1044.92 -1.40631 7.47079 0
M  V30 11135 N 1046.49 -1.27344 -0.928501 0
M  V30 11136 C 1047.44 -1.09835 -2.05034 0
M  V30 11137 C 1048.44 -0.0216643 -1.69386 0
M  V30 11138 O 1049.64 -0.179323 -1.79105 0
M  V30 11139 H 1046.02 -0.338416 -0.671549 0
M  V30 11140 H 1047.99 -2.04879 -2.1695 0
M  V30 11141 C 1046.74 -0.761462 -3.3926 0
M  V30 11142 H 1046.06 -1.58186 -3.67175 0
M  V30 11143 H 1047.5 -0.678812 -4.18531 0
M  V30 11144 C 1045.96 0.534118 -3.32639 0
M  V30 11145 O 1046.49 1.56877 -3.69801 0
M  V30 11146 N 1044.7 0.529437 -2.85736 0
M  V30 11147 H 1044.24 -0.312954 -2.55692 0
M  V30 11148 H 1044.2 1.39637 -2.81689 0
M  V30 11149 N 1047.97 1.13488 -1.09353 0
M  V30 11150 C 1048.9 2.18563 -0.69012 0
M  V30 11151 C 1049.92 1.60585 0.267651 0
M  V30 11152 O 1051.11 1.78419 0.0538176 0
M  V30 11153 C 1048.21 3.389 0.00391255 0
M  V30 11154 C 1047.38 4.2639 -0.975209 0
M  V30 11155 C 1046.44 5.25258 -0.314719 0
M  V30 11156 O 1045.46 5.6101 -0.962119 0
M  V30 11157 N 1046.67 5.72978 0.931458 0
M  V30 11158 H 1049.43 2.53788 -1.59411 0
M  V30 11159 H 1046.99 1.28803 -0.980886 0
M  V30 11160 H 1048.98 4.02112 0.45696 0
M  V30 11161 H 1047.55 3.0192 0.81014 0
M  V30 11162 H 1046.77 3.59964 -1.60684 0
M  V30 11163 H 1048.06 4.817 -1.63836 0
M  V30 11164 H 1047.46 5.46078 1.477 0
M  V30 11165 H 1046.02 6.38131 1.32784 0
M  V30 11166 N 1049.45 0.880621 1.30701 0
M  V30 11167 C 1050.4 0.342397 2.28246 0
M  V30 11168 C 1051.37 -0.565023 1.56194 0
M  V30 11169 O 1052.55 -0.494377 1.84284 0
M  V30 11170 C 1049.69 -0.440859 3.42272 0
M  V30 11171 C 1048.81 0.495284 4.29151 0
M  V30 11172 C 1047.94 -0.303141 5.30334 0
M  V30 11173 C 1046.98 0.628751 6.08862 0
M  V30 11174 N 1046.12 -0.13408 7.01972 0
M  V30 11175 H 1050.96 1.17938 2.73669 0
M  V30 11176 H 1048.49 0.59296 1.34619 0
M  V30 11177 H 1050.45 -0.910854 4.07135 0
M  V30 11178 H 1049.08 -1.24245 2.97931 0
M  V30 11179 H 1048.13 1.08376 3.64635 0
M  V30 11180 H 1049.45 1.2094 4.83916 0
M  V30 11181 H 1048.6 -0.835181 6.00924 0
M  V30 11182 H 1047.34 -1.05049 4.76252 0
M  V30 11183 H 1046.34 1.17246 5.37153 0
M  V30 11184 H 1047.57 1.37512 6.65032 0
M  V30 11185 H 1045.52 -0.864046 6.50285 0
M  V30 11186 H 1045.43 0.520486 7.54206 0
M  V30 11187 H 1046.7 -0.647005 7.7681 0
M  V30 11188 N 1050.93 -1.4397 0.641131 0
M  V30 11189 C 1052.18 -2.01548 0.149333 0
M  V30 11190 C 1052.5 -1.50759 -1.23679 0
M  V30 11191 O 1051.77 -0.715257 -1.82376 0
M  V30 11192 H 1050.35 -0.745173 0.0522161 0
M  V30 11193 H 1053.01 -1.7634 0.830082 0
M  V30 11194 H 1052.11 -3.11851 0.124676 0
M  V30 11195 N 1052.41 -0.382291 -1.52893 0
M  V30 11196 C 1053.65 0.202433 -2.01787 0
M  V30 11197 C 1053.99 1.47044 -1.26853 0
M  V30 11198 O 1053.26 1.91007 -0.366969 0
M  V30 11199 C 1053.54 0.477471 -3.5692 0
M  V30 11200 C 1053.4 -0.805339 -4.42532 0
M  V30 11201 C 1054.72 1.27106 -4.21346 0
M  V30 11202 H 1051.84 0.0720998 -0.733465 0
M  V30 11203 H 1054.48 -0.510478 -1.83014 0
M  V30 11204 H 1052.63 1.08478 -3.73048 0
M  V30 11205 H 1054.3 -1.4424 -4.3817 0
M  V30 11206 H 1052.54 -1.42216 -4.09826 0
M  V30 11207 H 1053.21 -0.567635 -5.49074 0
M  V30 11208 H 1055.69 0.757161 -4.09153 0
M  V30 11209 H 1054.57 1.43225 -5.29885 0
M  V30 11210 H 1054.83 2.28431 -3.78513 0
M  V30 11211 N 1053.89 1.57202 -0.111913 0
M  V30 11212 C 1054.8 2.18475 0.854753 0
M  V30 11213 C 1055.81 1.15888 1.29792 0
M  V30 11214 O 1056.99 1.48329 1.36237 0
M  V30 11215 C 1054.05 2.76645 2.0897 0
M  V30 11216 C 1053.11 3.94244 1.69913 0
M  V30 11217 C 1052.35 4.49631 2.8752 0
M  V30 11218 O 1052.57 4.03926 4.02741 0
M  V30 11219 O 1051.5 5.40417 2.65015 0
M  V30 11220 H 1055.33 3.01519 0.363352 0
M  V30 11221 H 1052.91 1.4897 0.113329 0
M  V30 11222 H 1054.8 3.13755 2.81311 0
M  V30 11223 H 1053.47 1.96637 2.5713 0
M  V30 11224 H 1052.38 3.61915 0.947013 0
M  V30 11225 H 1053.71 4.75666 1.26501 0
M  V30 11226 N 1055.36 -0.161842 1.56767 0
M  V30 11227 C 1056.64 -0.904754 1.73417 0
M  V30 11228 C 1057.02 -1.99987 0.675908 0
M  V30 11229 O 1056.37 -2.26419 -0.307712 0
M  V30 11230 C 1056.58 -1.46082 3.16956 0
M  V30 11231 C 1057.93 -1.93004 3.78199 0
M  V30 11232 O 1058.95 -1.55856 3.20293 0
M  V30 11233 O 1057.81 -2.61465 4.79894 0
M  V30 11234 H 1054.9 -0.426518 0.708528 0
M  V30 11235 H 1057.45 -0.148928 1.69045 0
M  V30 11236 H 1056.22 -0.673087 3.85468 0
M  V30 11237 H 1055.84 -2.28056 3.25693 0
M  V30 11238 N 1056.84 -1.516 -0.430713 0
M  V30 11239 C 1057.8 -1.72794 -1.50582 0
M  V30 11240 C 1058.8 -0.597903 -1.49271 0
M  V30 11241 O 1059.99 -0.865535 -1.51176 0
M  V30 11242 C 1057.13 -1.79049 -2.90093 0
M  V30 11243 H 1058.32 -2.68751 -1.33091 0
M  V30 11244 H 1055.87 -1.4169 -0.659822 0
M  V30 11245 H 1056.61 -0.849309 -3.12981 0
M  V30 11246 H 1056.39 -2.61181 -2.92449 0
M  V30 11247 H 1057.88 -1.97262 -3.68072 0
M  V30 11248 N 1058.32 0.686584 -1.41858 0
M  V30 11249 C 1059.25 1.81264 -1.47193 0
M  V30 11250 C 1060.23 1.66875 -0.329657 0
M  V30 11251 O 1061.42 1.86473 -0.542347 0
M  V30 11252 C 1058.55 3.19472 -1.36216 0
M  V30 11253 C 1057.5 3.4858 -2.48347 0
M  V30 11254 C 1056.83 4.86239 -2.22432 0
M  V30 11255 C 1058.13 3.46653 -3.90678 0
M  V30 11256 H 1059.82 1.77057 -2.41436 0
M  V30 11257 H 1057.37 0.850415 -1.16206 0
M  V30 11258 H 1059.32 3.97969 -1.38558 0
M  V30 11259 H 1058.04 3.24327 -0.384611 0
M  V30 11260 H 1056.7 2.72437 -2.45303 0
M  V30 11261 H 1056.35 4.8773 -1.22999 0
M  V30 11262 H 1056.05 5.06677 -2.97577 0
M  V30 11263 H 1057.57 5.67034 -2.26505 0
M  V30 11264 H 1058.99 4.15139 -3.95389 0
M  V30 11265 H 1057.38 3.78625 -4.65578 0
M  V30 11266 H 1058.45 2.45451 -4.18189 0
M  V30 11267 N 1059.8 1.27835 0.921735 0
M  V30 11268 C 1061.04 1.14692 1.67253 0
M  V30 11269 C 1061.38 -0.305384 1.91784 0
M  V30 11270 O 1060.65 -1.22286 1.51249 0
M  V30 11271 C 1060.93 1.93743 3.03539 0
M  V30 11272 C 1060.79 3.46991 2.86212 0
M  V30 11273 C 1062.11 1.74658 4.03959 0
M  V30 11274 H 1059.23 0.418021 0.606983 0
M  V30 11275 H 1061.87 1.5706 1.06922 0
M  V30 11276 H 1060.02 1.57738 3.55037 0
M  V30 11277 H 1061.69 3.92858 2.41785 0
M  V30 11278 H 1059.93 3.73029 2.21432 0
M  V30 11279 H 1060.6 3.97551 3.82958 0
M  V30 11280 H 1063.08 2.06063 3.61493 0
M  V30 11281 H 1061.96 2.32353 4.97296 0
M  V30 11282 H 1062.22 0.696019 4.36587 0
M  V30 11283 N 1061.28 -1.12907 1.09954 0
M  V30 11284 C 1062.5 -1.88679 0.861099 0
M  V30 11285 C 1062.93 -1.78853 -0.582499 0
M  V30 11286 O 1062.28 -1.13992 -1.4098 0
M  V30 11287 C 1062.33 -3.36047 1.30785 0
M  V30 11288 O 1061.44 -4.09716 0.469728 0
M  V30 11289 H 1060.78 -0.586447 0.31141 0
M  V30 11290 H 1063.31 -1.42818 1.46507 0
M  V30 11291 H 1063.32 -3.86882 1.29562 0
M  V30 11292 H 1061.99 -3.42516 2.35914 0
M  V30 11293 H 1060.57 -3.6887 0.54674 0
M  V30 11294 N 1062.75 -0.88754 -1.30232 0
M  V30 11295 C 1063.68 -0.372481 -2.3051 0
M  V30 11296 C 1064.66 0.546037 -1.61098 0
M  V30 11297 O 1065.85 0.459345 -1.88689 0
M  V30 11298 C 1062.98 0.411605 -3.44852 0
M  V30 11299 C 1061.93 -0.415383 -4.2598 0
M  V30 11300 C 1061.26 0.495463 -5.324 0
M  V30 11301 C 1062.56 -1.65886 -4.95257 0
M  V30 11302 H 1064.25 -1.21045 -2.7384 0
M  V30 11303 H 1061.8 -0.583498 -1.31648 0
M  V30 11304 H 1063.75 0.782584 -4.1407 0
M  V30 11305 H 1062.48 1.28325 -3.00334 0
M  V30 11306 H 1061.14 -0.768534 -3.58454 0
M  V30 11307 H 1060.78 1.36489 -4.84128 0
M  V30 11308 H 1060.48 -0.0540885 -5.87575 0
M  V30 11309 H 1062.01 0.862901 -6.04472 0
M  V30 11310 H 1063.42 -1.35832 -5.56976 0
M  V30 11311 H 1061.82 -2.14881 -5.60309 0
M  V30 11312 H 1062.89 -2.40181 -4.21237 0
M  V30 11313 N 1064.23 1.43628 -0.648757 0
M  V30 11314 C 1065.18 2.30755 0.0455536 0
M  V30 11315 C 1066.15 1.44495 0.819168 0
M  V30 11316 O 1067.33 1.73372 0.79667 0
M  V30 11317 C 1064.47 3.30017 1.00908 0
M  V30 11318 C 1063.59 4.31376 0.232039 0
M  V30 11319 C 1062.72 5.17723 1.18897 0
M  V30 11320 C 1061.76 6.10778 0.402096 0
M  V30 11321 N 1060.9 6.89763 1.31038 0
M  V30 11322 H 1065.74 2.89581 -0.70332 0
M  V30 11323 H 1063.28 1.42662 -0.3586 0
M  V30 11324 H 1065.23 3.86072 1.58128 0
M  V30 11325 H 1063.86 2.72851 1.72488 0
M  V30 11326 H 1062.92 3.77652 -0.456373 0
M  V30 11327 H 1064.23 4.9735 -0.380023 0
M  V30 11328 H 1063.38 5.78381 1.83194 0
M  V30 11329 H 1062.12 4.51864 1.83494 0
M  V30 11330 H 1061.13 5.49212 -0.254255 0
M  V30 11331 H 1062.35 6.78678 -0.239411 0
M  V30 11332 H 1060.3 6.26557 1.94324 0
M  V30 11333 H 1060.21 7.52243 0.752774 0
M  V30 11334 H 1061.48 7.54931 1.94164 0
M  V30 11335 N 1065.71 0.390394 1.52688 0
M  V30 11336 C 1066.94 -0.191485 2.06012 0
M  V30 11337 C 1067.35 -1.40422 1.26202 0
M  V30 11338 O 1066.71 -1.79866 0.308963 0
M  V30 11339 C 1066.76 -0.560521 3.57128 0
M  V30 11340 O 1066.48 0.60404 4.33916 0
M  V30 11341 C 1067.98 -1.19814 4.26801 0
M  V30 11342 H 1065.2 -0.0286311 0.670389 0
M  V30 11343 H 1067.75 0.555939 1.96798 0
M  V30 11344 H 1065.9 -1.25784 3.66411 0
M  V30 11345 H 1066.32 0.300467 5.23639 0
M  V30 11346 H 1067.79 -1.40672 5.33775 0
M  V30 11347 H 1068.27 -2.16582 3.82085 0
M  V30 11348 H 1068.87 -0.541558 4.21838 0
M  V30 11349 N 1067.19 -1.57141 0.120249 0
M  V30 11350 C 1068.44 -1.94852 -0.536387 0
M  V30 11351 C 1068.76 -1.00452 -1.67136 0
M  V30 11352 O 1068.03 -0.061053 -1.95805 0
M  V30 11353 H 1066.61 -0.719411 -0.201138 0
M  V30 11354 H 1069.27 -1.93977 0.189482 0
M  V30 11355 H 1068.37 -2.97917 -0.930145 0
M  V30 11356 N 1068.67 0.153526 -1.5685 0
M  V30 11357 C 1069.61 1.18973 -1.97773 0
M  V30 11358 C 1070.58 1.43041 -0.844311 0
M  V30 11359 O 1071.77 1.55484 -1.10586 0
M  V30 11360 C 1068.91 2.51981 -2.35795 0
M  V30 11361 C 1068.02 2.35143 -3.62397 0
M  V30 11362 C 1067.16 3.61141 -3.89552 0
M  V30 11363 C 1066.2 3.39311 -5.09445 0
M  V30 11364 N 1065.33 4.57423 -5.32643 0
M  V30 11365 H 1070.17 0.833758 -2.86099 0
M  V30 11366 H 1067.71 0.400252 -1.4155 0
M  V30 11367 H 1069.67 3.29527 -2.55867 0
M  V30 11368 H 1068.3 2.85539 -1.50557 0
M  V30 11369 H 1067.35 1.48684 -3.50139 0
M  V30 11370 H 1068.66 2.14969 -4.501 0
M  V30 11371 H 1067.82 4.47117 -4.10087 0
M  V30 11372 H 1066.55 3.84312 -3.00259 0
M  V30 11373 H 1065.56 2.51723 -4.8879 0
M  V30 11374 H 1066.78 3.17545 -6.00285 0
M  V30 11375 H 1064.73 4.8078 -4.46303 0
M  V30 11376 H 1064.65 4.40228 -6.14602 0
M  V30 11377 H 1065.92 5.44632 -5.57671 0
M  V30 11378 N 1070.14 1.51827 0.422667 0
M  V30 11379 C 1071.07 1.77152 1.52117 0
M  V30 11380 C 1072.06 0.621895 1.58324 0
M  V30 11381 O 1073.24 0.866118 1.73816 0
M  V30 11382 C 1070.37 1.90991 2.90068 0
M  V30 11383 C 1069.32 3.06516 2.98717 0
M  V30 11384 C 1068.65 3.05559 4.38791 0
M  V30 11385 C 1069.95 4.46223 2.71445 0
M  V30 11386 H 1071.64 2.69135 1.31175 0
M  V30 11387 H 1069.19 1.29507 0.629607 0
M  V30 11388 H 1071.14 2.07291 3.6689 0
M  V30 11389 H 1069.87 0.956688 3.12274 0
M  V30 11390 H 1068.53 2.89945 2.24338 0
M  V30 11391 H 1068.17 2.07985 4.57986 0
M  V30 11392 H 1067.87 3.83144 4.45505 0
M  V30 11393 H 1069.4 3.23971 5.17566 0
M  V30 11394 H 1070.81 4.63069 3.37994 0
M  V30 11395 H 1069.21 5.25623 2.89552 0
M  V30 11396 H 1070.28 4.5525 1.6696 0
M  V30 11397 N 1071.62 -0.679052 1.4222 0
M  V30 11398 C 1072.9 -1.43473 1.32947 0
M  V30 11399 C 1073.28 -2.11071 -0.0351689 0
M  V30 11400 O 1072.63 -2.02925 -1.05042 0
M  V30 11401 C 1072.84 -2.44065 2.49466 0
M  V30 11402 C 1074.19 -3.08834 2.91387 0
M  V30 11403 O 1075.21 -2.54392 2.49325 0
M  V30 11404 O 1074.07 -4.07478 3.64175 0
M  V30 11405 H 1071.16 -0.639743 0.524078 0
M  V30 11406 H 1073.71 -0.708134 1.54219 0
M  V30 11407 H 1072.48 -1.92884 3.40457 0
M  V30 11408 H 1072.1 -3.24212 2.30158 0
M  V30 11409 N 1073.1 -1.28322 -0.914942 0
M  V30 11410 C 1074.06 -1.12169 -1.99877 0
M  V30 11411 C 1075.06 -0.0617252 -1.60681 0
M  V30 11412 O 1076.25 -0.307405 -1.71466 0
M  V30 11413 C 1073.39 -0.711959 -3.33383 0
M  V30 11414 H 1074.58 -2.08425 -2.15636 0
M  V30 11415 H 1072.13 -1.11291 -1.09745 0
M  V30 11416 H 1072.87 0.251418 -3.23324 0
M  V30 11417 H 1072.65 -1.47764 -3.63192 0
M  V30 11418 H 1074.14 -0.621558 -4.12948 0
M  V30 11419 N 1074.58 1.12322 -1.10551 0
M  V30 11420 C 1075.83 1.83858 -0.848674 0
M  V30 11421 C 1076.15 1.84159 0.62575 0
M  V30 11422 O 1075.41 1.28341 1.4774 0
M  V30 11423 C 1075.71 3.31177 -1.34375 0
M  V30 11424 C 1075.37 3.51046 -2.8298 0
M  V30 11425 C 1074.04 3.56177 -3.23561 0
M  V30 11426 C 1076.39 3.58061 -3.78737 0
M  V30 11427 C 1073.72 3.65868 -4.58647 0
M  V30 11428 C 1076.07 3.69283 -5.13627 0
M  V30 11429 C 1074.73 3.7267 -5.53781 0
M  V30 11430 H 1074 0.672784 -0.310552 0
M  V30 11431 H 1076.65 1.3253 -1.38232 0
M  V30 11432 H 1074.95 3.84937 -0.730144 0
M  V30 11433 H 1076.65 3.84998 -1.12148 0
M  V30 11434 H 1073.24 3.47716 -2.50582 0
M  V30 11435 H 1077.42 3.53366 -3.48491 0
M  V30 11436 H 1072.68 3.66763 -4.89178 0
M  V30 11437 H 1076.85 3.73654 -5.8767 0
M  V30 11438 H 1074.48 3.79932 -6.58449 0
M  V30 11439 N 1076.06 0.894434 1.2976 0
M  V30 11440 C 1077.31 0.513673 1.95049 0
M  V30 11441 C 1077.62 -0.943744 1.71327 0
M  V30 11442 O 1078.82 -1.43179 2.30678 0
M  V30 11443 C 1077.28 0.867751 3.49282 0
M  V30 11444 C 1076.89 2.34358 3.81812 0
M  V30 11445 C 1078.63 0.556645 4.20835 0
M  V30 11446 C 1076.54 2.63879 5.29265 0
M  V30 11447 H 1075.47 0.188375 0.73009 0
M  V30 11448 H 1078.12 1.09071 1.47566 0
M  V30 11449 H 1076.5 0.2197 3.9539 0
M  V30 11450 H 1077.68 3.03674 3.46581 0
M  V30 11451 H 1075.99 2.62318 3.23386 0
M  V30 11452 H 1078.59 0.754123 5.29355 0
M  V30 11453 H 1078.93 -0.504526 4.13231 0
M  V30 11454 H 1079.46 1.1623 3.80441 0
M  V30 11455 H 1076.2 3.68774 5.41928 0
M  V30 11456 H 1075.72 1.99182 5.65762 0
M  V30 11457 H 1077.4 2.49871 5.96803 0
M  V30 11458 N 1077.53 -1.43282 0.656365 0
M  V30 11459 C 1078.76 -2.05826 0.178619 0
M  V30 11460 C 1079.17 -1.493 -1.16216 0
M  V30 11461 O 1078.52 -0.620163 -1.72915 0
M  V30 11462 C 1078.58 -3.59496 0.0164101 0
M  V30 11463 C 1078.24 -4.38621 1.28298 0
M  V30 11464 C 1079.24 -4.70477 2.21241 0
M  V30 11465 C 1076.92 -4.78577 1.52544 0
M  V30 11466 C 1078.92 -5.412 3.36721 0
M  V30 11467 C 1076.6 -5.49044 2.68316 0
M  V30 11468 C 1077.6 -5.80279 3.6023 0
M  V30 11469 O 1077.29 -6.49306 4.7398 0
M  V30 11470 H 1077.02 -0.670158 0.0886814 0
M  V30 11471 H 1079.58 -1.84722 0.89816 0
M  V30 11472 H 1077.81 -3.79188 -0.758532 0
M  V30 11473 H 1079.5 -4.03731 -0.419096 0
M  V30 11474 H 1080.26 -4.40125 2.03753 0
M  V30 11475 H 1076.14 -4.5367 0.818816 0
M  V30 11476 H 1079.68 -5.65497 4.08483 0
M  V30 11477 H 1075.58 -5.78813 2.85738 0
M  V30 11478 H 1076.35 -6.67789 4.73286 0
M  V30 11479 N 1079.01 -0.398486 -1.52479 0
M  V30 11480 C 1080.29 0.238776 -1.94137 0
M  V30 11481 C 1080.67 1.63558 -1.33462 0
M  V30 11482 O 1080.02 2.22821 -0.506272 0
M  V30 11483 C 1080.23 0.255863 -3.48061 0
M  V30 11484 C 1081.58 0.480376 -4.21874 0
M  V30 11485 O 1082.6 0.335679 -3.54615 0
M  V30 11486 O 1081.46 0.764654 -5.41124 0
M  V30 11487 H 1078.55 0.150806 -0.813134 0
M  V30 11488 H 1081.1 -0.453659 -1.63524 0
M  V30 11489 H 1079.87 -0.722171 -3.84578 0
M  V30 11490 H 1079.49 0.99284 -3.85004 0
M  V30 11491 N 1080.49 1.57075 -0.12858 0
M  V30 11492 C 1081.45 2.14643 0.803813 0
M  V30 11493 C 1082.45 1.08363 1.18803 0
M  V30 11494 O 1083.64 1.34093 1.11197 0
M  V30 11495 C 1080.78 2.6945 2.08829 0
M  V30 11496 H 1081.97 2.98362 0.303347 0
M  V30 11497 H 1079.52 1.55833 0.120735 0
M  V30 11498 H 1080.26 1.89345 2.63285 0
M  V30 11499 H 1080.04 3.47187 1.82218 0
M  V30 11500 H 1081.53 3.13865 2.7546 0
M  V30 11501 N 1081.97 -0.145205 1.5693 0
M  V30 11502 C 1082.93 -1.16316 1.97492 0
M  V30 11503 C 1083.93 -1.35764 0.861668 0
M  V30 11504 O 1085.12 -1.32726 1.12825 0
M  V30 11505 C 1082.25 -2.52311 2.29242 0
M  V30 11506 H 1083.45 -0.815138 2.8861 0
M  V30 11507 H 1081 -0.38861 1.51392 0
M  V30 11508 H 1081.74 -2.92081 1.40922 0
M  V30 11509 H 1081.52 -2.39555 3.10412 0
M  V30 11510 H 1083.01 -3.25624 2.61456 0
M  V30 11511 N 1083.45 -1.52049 -0.414609 0
M  V30 11512 C 1084.69 -1.66084 -1.16379 0
M  V30 11513 C 1085.03 -0.386932 -1.90306 0
M  V30 11514 O 1084.3 0.614441 -1.8454 0
M  V30 11515 C 1084.58 -2.87927 -2.16264 0
M  V30 11516 C 1084.44 -4.25353 -1.46269 0
M  V30 11517 C 1085.76 -3.05289 -3.16996 0
M  V30 11518 H 1082.88 -0.604414 -0.421726 0
M  V30 11519 H 1085.52 -1.8459 -0.450177 0
M  V30 11520 H 1083.67 -2.7228 -2.77121 0
M  V30 11521 H 1085.34 -4.52717 -0.885743 0
M  V30 11522 H 1083.58 -4.27006 -0.76472 0
M  V30 11523 H 1084.25 -5.06644 -2.19126 0
M  V30 11524 H 1086.73 -3.19798 -2.66212 0
M  V30 11525 H 1085.61 -3.92065 -3.84156 0
M  V30 11526 H 1085.87 -2.1836 -3.84411 0
M  V30 11527 N 1084.93 0.6715 -1.42579 0
M  V30 11528 C 1085.86 1.79693 -1.49107 0
M  V30 11529 C 1086.84 1.66516 -0.347338 0
M  V30 11530 O 1088.02 1.85887 -0.562094 0
M  V30 11531 C 1085.15 3.1801 -1.39596 0
M  V30 11532 C 1084.11 3.45926 -2.5203 0
M  V30 11533 C 1083.43 4.83852 -2.27577 0
M  V30 11534 C 1084.73 3.4249 -3.94333 0
M  V30 11535 H 1086.43 1.74486 -2.433 0
M  V30 11536 H 1083.97 0.838042 -1.17102 0
M  V30 11537 H 1085.92 3.96478 -1.42771 0
M  V30 11538 H 1084.65 3.23901 -0.418989 0
M  V30 11539 H 1083.31 2.6982 -2.48178 0
M  V30 11540 H 1082.96 4.86398 -1.28165 0
M  V30 11541 H 1082.66 5.03493 -3.02934 0
M  V30 11542 H 1084.18 5.646 -2.32506 0
M  V30 11543 H 1085.59 4.10922 -3.9977 0
M  V30 11544 H 1083.99 3.73666 -4.69568 0
M  V30 11545 H 1085.06 2.41002 -4.20768 0
M  V30 11546 N 1086.4 1.28806 0.908124 0
M  V30 11547 C 1087.35 1.13083 2.03261 0
M  V30 11548 C 1088.35 0.0486094 1.6933 0
M  V30 11549 O 1089.55 0.207794 1.78797 0
M  V30 11550 H 1085.93 0.349057 0.666081 0
M  V30 11551 H 1087.9 2.08304 2.13663 0
M  V30 11552 C 1086.65 0.815339 3.38005 0
M  V30 11553 H 1085.97 1.64007 3.64612 0
M  V30 11554 H 1087.41 0.745311 4.17398 0
M  V30 11555 C 1085.87 -0.48113 3.33447 0
M  V30 11556 O 1086.4 -1.50974 3.7225 0
M  V30 11557 N 1084.6 -0.483912 2.86543 0
M  V30 11558 H 1084.15 0.353593 2.55162 0
M  V30 11559 H 1084.11 -1.35138 2.83875 0
M  V30 11560 N 1087.88 -1.11734 1.11145 0
M  V30 11561 C 1089.11 -1.86943 0.879534 0
M  V30 11562 C 1089.52 -1.80283 -0.574007 0
M  V30 11563 O 1088.86 -1.17998 -1.40791 0
M  V30 11564 C 1088.92 -3.36738 1.25887 0
M  V30 11565 C 1088.59 -3.67169 2.72095 0
M  V30 11566 C 1089.59 -3.6491 3.7032 0
M  V30 11567 C 1087.27 -3.96272 3.08665 0
M  V30 11568 C 1089.26 -3.91325 5.03134 0
M  V30 11569 C 1086.95 -4.22345 4.41665 0
M  V30 11570 C 1087.95 -4.19859 5.38709 0
M  V30 11571 O 1087.64 -4.4528 6.69314 0
M  V30 11572 H 1087.37 -0.598117 0.315011 0
M  V30 11573 H 1089.92 -1.42253 1.48166 0
M  V30 11574 H 1088.15 -3.82019 0.599873 0
M  V30 11575 H 1089.84 -3.93306 1.00325 0
M  V30 11576 H 1090.61 -3.42481 3.43412 0
M  V30 11577 H 1086.49 -3.97344 2.33749 0
M  V30 11578 H 1090.03 -3.893 5.78871 0
M  V30 11579 H 1085.93 -4.4425 4.68308 0
M  V30 11580 H 1086.7 -4.62863 6.75056 0
M  V30 11581 N 1089.36 -0.901303 -1.29284 0
M  V30 11582 C 1090.31 -0.378666 -2.27672 0
M  V30 11583 C 1091.28 0.540102 -1.57074 0
M  V30 11584 O 1092.46 0.464997 -1.85047 0
M  V30 11585 C 1089.6 0.38635 -3.42931 0
M  V30 11586 C 1088.71 -0.563496 -4.28309 0
M  V30 11587 C 1087.85 0.218731 -5.30749 0
M  V30 11588 C 1086.89 -0.725536 -6.07785 0
M  V30 11589 N 1086.03 0.0223854 -7.02096 0
M  V30 11590 H 1090.87 -1.22277 -2.71758 0
M  V30 11591 H 1088.4 -0.614302 -1.33659 0
M  V30 11592 H 1090.36 0.845967 -4.08533 0
M  V30 11593 H 1088.99 1.1949 -2.9987 0
M  V30 11594 H 1088.04 -1.14163 -3.62865 0
M  V30 11595 H 1089.35 -1.28623 -4.81931 0
M  V30 11596 H 1088.51 0.739473 -6.02177 0
M  V30 11597 H 1087.25 0.97459 -4.77863 0
M  V30 11598 H 1086.25 -1.25776 -5.3522 0
M  V30 11599 H 1087.48 -1.48075 -6.6276 0
M  V30 11600 H 1085.42 0.760482 -6.51577 0
M  V30 11601 H 1085.34 -0.640408 -7.53283 0
M  V30 11602 H 1086.61 0.523339 -7.77741 0
M  V30 11603 N 1090.84 1.42931 -0.663954 0
M  V30 11604 C 1091.8 2.29197 0.0117626 0
M  V30 11605 C 1092.8 1.42767 0.739875 0
M  V30 11606 O 1093.99 1.64278 0.579509 0
M  V30 11607 C 1091.12 3.2505 1.02738 0
M  V30 11608 H 1092.32 2.90438 -0.747391 0
M  V30 11609 H 1089.87 1.5039 -0.425733 0
M  V30 11610 H 1090.6 2.68726 1.8154 0
M  V30 11611 H 1090.39 3.88785 0.508809 0
M  V30 11612 H 1091.88 3.89771 1.49893 0
M  V30 11613 N 1092.32 0.406567 1.52266 0
M  V30 11614 C 1093.56 -0.169717 2.01386 0
M  V30 11615 C 1093.88 -1.45864 1.29417 0
M  V30 11616 O 1093.15 -1.9136 0.419327 0
M  V30 11617 H 1091.73 -0.0657075 0.744105 0
M  V30 11618 H 1094.4 0.542221 1.87206 0
M  V30 11619 H 1093.49 -0.367659 3.09927 0
M  V30 11620 N 1093.79 -1.57004 0.136909 0
M  V30 11621 C 1095.21 -1.58082 -0.21958 0
M  V30 11622 C 1095.41 -1.15065 -1.65415 0
M  V30 11623 O 1094.47 -0.846284 -2.37896 0
M  V30 11624 C 1095.78 -3.00685 0.0300112 0
M  V30 11625 C 1097.33 -3.12981 -0.0344899 0
M  V30 11626 C 1097.8 -4.57615 0.187639 0
M  V30 11627 N 1099.29 -4.63005 0.134219 0
M  V30 11628 C 1100.03 -5.72712 0.280743 0
M  V30 11629 N 1099.52 -6.91104 0.48443 0
M  V30 11630 N 1101.32 -5.61673 0.219055 0
M  V30 11631 H 1093.47 -1.83262 1.07372 0
M  V30 11632 H 1095.73 -0.847776 0.424241 0
M  V30 11633 H 1095.44 -3.36509 1.02247 0
M  V30 11634 H 1095.31 -3.70762 -0.693918 0
M  V30 11635 H 1097.7 -2.77004 -1.01749 0
M  V30 11636 H 1097.78 -2.45411 0.721608 0
M  V30 11637 H 1097.42 -4.94295 1.16769 0
M  V30 11638 H 1097.35 -5.23299 -0.588661 0
M  V30 11639 H 1099.84 -3.77895 -0.0189681 0
M  V30 11640 H 1100.16 -7.7057 0.586613 0
M  V30 11641 H 1098.5 -6.93047 0.520627 0
M  V30 11642 H 1101.69 -4.68061 0.0607606 0
M  V30 11643 H 1101.87 -6.47125 0.336683 0
M  V30 11644 N 1095.27 0.136881 -1.57004 0
M  V30 11645 C 1096.55 0.87705 -1.74835 0
M  V30 11646 C 1096.93 1.98886 -0.707639 0
M  V30 11647 O 1096.28 2.26879 0.271652 0
M  V30 11648 C 1096.49 1.41021 -3.1924 0
M  V30 11649 C 1097.84 1.86963 -3.81222 0
M  V30 11650 O 1098.86 1.5074 -3.22732 0
M  V30 11651 O 1097.72 2.53798 -4.83993 0
M  V30 11652 H 1094.81 0.415192 -0.715223 0
M  V30 11653 H 1097.36 0.122016 -1.69261 0
M  V30 11654 H 1096.13 0.611677 -3.8649 0
M  V30 11655 H 1095.75 2.22846 -3.2928 0
M  V30 11656 N 1096.75 1.52266 0.40654 0
M  V30 11657 C 1097.66 1.78688 1.52012 0
M  V30 11658 C 1098.68 0.6726 1.60475 0
M  V30 11659 O 1099.85 0.95829 1.77141 0
M  V30 11660 C 1096.92 1.93434 2.87722 0
M  V30 11661 C 1095.98 3.17341 2.89125 0
M  V30 11662 C 1095.21 3.31374 4.18362 0
M  V30 11663 O 1095.43 2.50613 5.12396 0
M  V30 11664 O 1094.37 4.24539 4.26674 0
M  V30 11665 H 1098.19 2.73213 1.3262 0
M  V30 11666 H 1095.78 1.37142 0.592653 0
M  V30 11667 H 1097.66 2.04941 3.68208 0
M  V30 11668 H 1096.34 1.02099 3.07177 0
M  V30 11669 H 1095.24 3.1129 2.07483 0
M  V30 11670 H 1096.58 4.08466 2.7462 0
M  V30 11671 N 1098.23 -0.663929 1.42933 0
M  V30 11672 C 1099.48 -1.42111 1.43697 0
M  V30 11673 C 1099.8 -1.94913 0.0583858 0
M  V30 11674 O 1099.07 -1.73757 -0.904719 0
M  V30 11675 H 1097.65 -0.527391 0.529026 0
M  V30 11676 H 1100.31 -0.783766 1.78446 0
M  V30 11677 H 1099.41 -2.26877 2.1432 0
M  V30 11678 N 1099.71 -1.29285 -0.901281 0
M  V30 11679 C 1100.95 -1.18431 -1.66594 0
M  V30 11680 C 1101.31 0.260312 -1.90227 0
M  V30 11681 O 1102.51 0.4918 -2.64263 0
M  V30 11682 C 1100.78 -1.97357 -2.97968 0
M  V30 11683 S 1102.34 -2.03019 -3.8901 0
M  V30 11684 H 1099.16 -0.422323 -0.571983 0
M  V30 11685 H 1101.76 -1.63551 -1.07105 0
M  V30 11686 H 1100.47 -3.01459 -2.78479 0
M  V30 11687 H 1100 -1.52836 -3.62498 0
M  V30 11688 H 1102.01 -1.14572 -4.82791 0
M  V30 11689 N 1101.18 1.11143 -1.11736 0
M  V30 11690 C 1102.13 2.17274 -0.778513 0
M  V30 11691 C 1103.1 1.64186 0.251405 0
M  V30 11692 O 1104.29 1.90373 0.127629 0
M  V30 11693 C 1101.43 3.44324 -0.231246 0
M  V30 11694 C 1100.54 4.114 -1.31809 0
M  V30 11695 C 1099.67 5.26146 -0.73104 0
M  V30 11696 C 1098.71 5.85112 -1.79752 0
M  V30 11697 N 1097.85 6.91247 -1.22973 0
M  V30 11698 H 1102.69 2.45603 -1.68769 0
M  V30 11699 H 1100.23 1.20565 -0.842759 0
M  V30 11700 H 1102.19 4.1707 0.104045 0
M  V30 11701 H 1100.82 3.16369 0.641119 0
M  V30 11702 H 1099.87 3.36697 -1.77029 0
M  V30 11703 H 1101.18 4.51278 -2.12485 0
M  V30 11704 H 1100.33 6.05713 -0.345987 0
M  V30 11705 H 1099.07 4.87583 0.107 0
M  V30 11706 H 1098.08 5.0422 -2.19185 0
M  V30 11707 H 1099.3 6.25741 -2.63865 0
M  V30 11708 H 1097.25 6.54696 -0.41339 0
M  V30 11709 H 1097.17 7.29796 -1.97316 0
M  V30 11710 H 1098.43 7.74611 -0.87167 0
M  V30 11711 N 1102.66 0.908147 1.28804 0
M  V30 11712 C 1103.59 0.409106 2.29888 0
M  V30 11713 C 1104.57 -0.520338 1.61946 0
M  V30 11714 O 1105.76 -0.429268 1.89396 0
M  V30 11715 C 1102.89 -0.35669 3.45463 0
M  V30 11716 C 1101.84 0.4831 4.25265 0
M  V30 11717 C 1101.17 -0.4107 5.3312 0
M  V30 11718 C 1102.47 1.73744 4.92555 0
M  V30 11719 H 1104.16 1.25386 2.7188 0
M  V30 11720 H 1101.71 0.604368 1.30703 0
M  V30 11721 H 1103.66 -0.71661 4.15262 0
M  V30 11722 H 1102.39 -1.2353 3.02337 0
M  V30 11723 H 1101.04 0.825464 3.57186 0
M  V30 11724 H 1100.69 -1.28769 4.86238 0
M  V30 11725 H 1100.39 0.14756 5.87415 0
M  V30 11726 H 1101.92 -0.766626 6.05768 0
M  V30 11727 H 1103.33 1.44676 5.54745 0
M  V30 11728 H 1101.73 2.23767 5.5682 0
M  V30 11729 H 1102.8 2.46853 4.17363 0
M  V30 11730 N 1104.14 -1.42577 0.671525 0
M  V30 11731 C 1105.39 -2.01882 0.192716 0
M  V30 11732 C 1105.72 -1.52959 -1.19654 0
M  V30 11733 O 1104.99 -0.730404 -1.80265 0
M  V30 11734 C 1105.28 -3.59404 0.223734 0
M  V30 11735 C 1105.13 -4.18514 1.64821 0
M  V30 11736 C 1106.45 -4.37996 -0.429858 0
M  V30 11737 H 1103.57 -0.733523 0.0715026 0
M  V30 11738 H 1106.21 -1.69641 0.855689 0
M  V30 11739 H 1104.36 -3.87003 -0.340776 0
M  V30 11740 H 1106.03 -4.01881 2.26472 0
M  V30 11741 H 1104.28 -3.74467 2.1899 0
M  V30 11742 H 1104.95 -5.27643 1.62162 0
M  V30 11743 H 1107.42 -4.16069 0.0506433 0
M  V30 11744 H 1106.3 -5.476 -0.377503 0
M  V30 11745 H 1106.56 -4.15625 -1.50693 0
M  V30 11746 N 1105.62 -0.414636 -1.52048 0
M  V30 11747 C 1106.85 0.158686 -2.06291 0
M  V30 11748 C 1107.26 1.38397 -1.2842 0
M  V30 11749 O 1106.62 1.79351 -0.337539 0
M  V30 11750 C 1106.67 0.503634 -3.57975 0
M  V30 11751 O 1106.39 -0.672996 -4.329 0
M  V30 11752 C 1107.89 1.13009 -4.28653 0
M  V30 11753 H 1105.11 0.0179622 -0.67076 0
M  V30 11754 H 1107.66 -0.587177 -1.95889 0
M  V30 11755 H 1105.81 1.19939 -3.68366 0
M  V30 11756 H 1106.22 -0.383735 -5.23094 0
M  V30 11757 H 1107.7 1.32162 -5.35945 0
M  V30 11758 H 1108.18 2.10476 -3.85482 0
M  V30 11759 H 1108.78 0.474379 -4.22646 0
M  V30 11760 N 1107.1 1.56929 -0.145233 0
M  V30 11761 C 1108.35 1.95243 0.506273 0
M  V30 11762 C 1108.66 1.0325 1.66129 0
M  V30 11763 O 1109.86 1.31135 2.37731 0
M  V30 11764 C 1108.32 3.47079 0.952042 0
M  V30 11765 C 1107.93 4.47654 -0.175947 0
M  V30 11766 C 1109.67 3.94263 1.57344 0
M  V30 11767 C 1107.58 5.90698 0.287993 0
M  V30 11768 H 1106.51 0.728906 0.192903 0
M  V30 11769 H 1109.16 1.82062 -0.229295 0
M  V30 11770 H 1107.54 3.55587 1.74282 0
M  V30 11771 H 1108.72 4.50841 -0.952848 0
M  V30 11772 H 1107.03 4.10377 -0.70564 0
M  V30 11773 H 1109.63 4.9857 1.93214 0
M  V30 11774 H 1109.97 3.35714 2.46174 0
M  V30 11775 H 1110.5 3.88665 0.847593 0
M  V30 11776 H 1107.24 6.53061 -0.564889 0
M  V30 11777 H 1106.76 5.90876 1.03081 0
M  V30 11778 H 1108.44 6.42747 0.740586 0
M  V30 11779 N 1108.58 -0.128553 1.57075 0
M  V30 11780 C 1109.82 -0.836355 1.83982 0
M  V30 11781 C 1110.14 -1.80862 0.728971 0
M  V30 11782 O 1109.41 -1.94326 -0.247859 0
M  V30 11783 H 1107.99 -0.31185 0.678792 0
M  V30 11784 H 1110.66 -0.118153 1.94542 0
M  V30 11785 H 1109.75 -1.38741 2.79567 0
M  V30 11786 N 1110.05 -1.5248 -0.398459 0
M  V30 11787 C 1111.28 -1.71221 -1.17039 0
M  V30 11788 C 1111.7 -0.425515 -1.83224 0
M  V30 11789 O 1111.06 0.617938 -1.70444 0
M  V30 11790 C 1111.11 -2.8562 -2.20121 0
M  V30 11791 O 1110.21 -2.51934 -3.26501 0
M  V30 11792 H 1109.55 -0.569654 -0.34116 0
M  V30 11793 H 1112.08 -1.99231 -0.465652 0
M  V30 11794 H 1112.09 -3.10842 -2.64275 0
M  V30 11795 H 1110.77 -3.78969 -1.71334 0
M  V30 11796 H 1109.35 -2.3742 -2.87552 0
M  V30 11797 N 1111.53 0.65634 -1.43283 0
M  V30 11798 C 1112.78 1.41347 -1.44449 0
M  V30 11799 C 1113.1 1.94879 -0.0687217 0
M  V30 11800 O 1112.37 1.74235 0.895492 0
M  V30 11801 H 1110.95 0.524578 -0.531815 0
M  V30 11802 H 1113.61 0.774292 -1.7886 0
M  V30 11803 H 1112.71 2.25737 -2.15521 0
M  V30 11804 N 1113.01 1.29761 0.894412 0
M  V30 11805 C 1114.24 1.20765 1.67629 0
M  V30 11806 C 1114.65 -0.233434 1.87754 0
M  V30 11807 O 1113.99 -1.16747 1.4183 0
M  V30 11808 C 1114.05 1.85542 3.07919 0
M  V30 11809 C 1113.72 3.34852 3.11004 0
M  V30 11810 C 1114.71 4.30994 2.90758 0
M  V30 11811 C 1112.4 3.76141 3.32901 0
M  V30 11812 C 1114.39 5.664 2.92352 0
M  V30 11813 C 1112.08 5.11667 3.34126 0
M  V30 11814 C 1113.08 6.06607 3.13874 0
M  V30 11815 O 1112.77 7.39659 3.14897 0
M  V30 11816 H 1112.5 0.419418 0.530155 0
M  V30 11817 H 1115.05 1.71754 1.12648 0
M  V30 11818 H 1113.28 1.29071 3.64524 0
M  V30 11819 H 1114.97 1.70795 3.68217 0
M  V30 11820 H 1115.74 4.00427 2.73648 0
M  V30 11821 H 1111.62 3.02694 3.47703 0
M  V30 11822 H 1115.16 6.40479 2.76464 0
M  V30 11823 H 1111.06 5.41877 3.50769 0
M  V30 11824 H 1111.82 7.4853 3.31127 0
M  V30 11825 N 1114.49 -1.10549 1.12324 0
M  V30 11826 C 1115.74 -1.81851 0.872531 0
M  V30 11827 C 1116.05 -1.86058 -0.603468 0
M  V30 11828 O 1117.26 -2.53553 -0.970736 0
M  V30 11829 C 1115.71 -3.26631 1.51131 0
M  V30 11830 C 1115.32 -3.30725 3.02201 0
M  V30 11831 C 1117.06 -4.02768 1.34082 0
M  V30 11832 C 1114.97 -4.69957 3.59018 0
M  V30 11833 H 1113.9 -0.681422 0.322769 0
M  V30 11834 H 1116.55 -1.24332 1.34959 0
M  V30 11835 H 1114.93 -3.8414 0.961913 0
M  V30 11836 H 1116.11 -2.83046 3.63623 0
M  V30 11837 H 1114.42 -2.68072 3.18632 0
M  V30 11838 H 1117.02 -5.05612 1.73955 0
M  V30 11839 H 1117.36 -4.15328 0.284369 0
M  V30 11840 H 1117.9 -3.51671 1.85937 0
M  V30 11841 H 1114.63 -4.62597 4.64418 0
M  V30 11842 H 1114.15 -5.18008 3.02371 0
M  V30 11843 H 1115.83 -5.38925 3.58007 0
M  V30 11844 N 1115.97 -0.914965 -1.28321 0
M  V30 11845 C 1117.21 -0.548749 -1.94923 0
M  V30 11846 C 1117.54 0.907776 -1.72016 0
M  V30 11847 O 1116.8 1.66097 -1.03491 0
M  V30 11848 C 1117.09 -0.805805 -3.48198 0
M  V30 11849 C 1116.76 -2.24207 -3.91206 0
M  V30 11850 C 1115.42 -2.63475 -4.02659 0
M  V30 11851 C 1117.77 -3.17667 -4.13204 0
M  V30 11852 C 1115.1 -3.95353 -4.3349 0
M  V30 11853 C 1117.45 -4.4911 -4.45514 0
M  V30 11854 C 1116.12 -4.8823 -4.55179 0
M  V30 11855 H 1115.39 -0.200801 -0.713274 0
M  V30 11856 H 1118.04 -1.15652 -1.52633 0
M  V30 11857 H 1116.34 -0.115244 -3.9163 0
M  V30 11858 H 1118.04 -0.501609 -3.9785 0
M  V30 11859 H 1114.63 -1.92737 -3.82819 0
M  V30 11860 H 1118.81 -2.88537 -4.03807 0
M  V30 11861 H 1114.07 -4.25362 -4.39178 0
M  V30 11862 H 1118.24 -5.21542 -4.61483 0
M  V30 11863 H 1115.87 -5.90451 -4.78823 0
M  V30 11864 N 1117.44 1.42219 -0.679077 0
M  V30 11865 C 1118.41 2.29197 -0.0125475 0
M  V30 11866 C 1119.41 1.43544 0.724691 0
M  V30 11867 O 1120.6 1.64884 0.562052 0
M  V30 11868 C 1117.73 3.26122 0.992846 0
M  V30 11869 H 1118.92 2.89629 -0.778154 0
M  V30 11870 H 1116.47 1.4993 -0.44166 0
M  V30 11871 H 1117.21 2.70637 1.78679 0
M  V30 11872 H 1116.99 3.89302 0.467544 0
M  V30 11873 H 1118.48 3.91339 1.45751 0
M  V30 11874 N 1118.92 0.422693 1.51826 0
M  V30 11875 C 1120.15 -0.147744 2.06372 0
M  V30 11876 C 1120.56 -1.37714 1.29152 0
M  V30 11877 O 1119.92 -1.7917 0.347046 0
M  V30 11878 C 1119.97 -0.484642 3.58237 0
M  V30 11879 O 1119.69 0.695944 4.32537 0
M  V30 11880 C 1121.19 -1.10734 4.29247 0
M  V30 11881 H 1118.41 -0.0144047 0.670845 0
M  V30 11882 H 1120.96 0.597558 1.95575 0
M  V30 11883 H 1119.11 -1.17984 3.68997 0
M  V30 11884 H 1119.53 0.411471 5.22884 0
M  V30 11885 H 1121 -1.29318 5.36639 0
M  V30 11886 H 1121.48 -2.08429 3.86593 0
M  V30 11887 H 1122.08 -0.451958 4.22892 0
M  V30 11888 N 1120.4 -1.5685 0.153553 0
M  V30 11889 C 1121.63 -2.00701 -0.502678 0
M  V30 11890 C 1122.04 -1.0337 -1.57988 0
M  V30 11891 O 1121.4 -0.0317233 -1.82472 0
M  V30 11892 C 1121.45 -3.44443 -1.09732 0
M  V30 11893 O 1121.17 -4.38054 -0.0631405 0
M  V30 11894 C 1122.67 -4.03605 -1.83352 0
M  V30 11895 H 1119.89 -0.658229 -0.130289 0
M  V30 11896 H 1122.44 -2.02965 0.250063 0
M  V30 11897 H 1120.59 -3.43009 -1.80065 0
M  V30 11898 H 1121.01 -5.22114 -0.499681 0
M  V30 11899 H 1122.48 -5.0616 -2.20241 0
M  V30 11900 H 1122.96 -3.44687 -2.7219 0
M  V30 11901 H 1123.56 -4.08688 -1.17703 0
M  V30 11902 N 1121.88 0.120221 -1.57141 0
M  V30 11903 C 1123.13 0.826586 -1.84423 0
M  V30 11904 C 1123.45 1.80473 -0.738553 0
M  V30 11905 O 1122.72 1.94454 0.23755 0
M  V30 11906 H 1121.3 0.308246 -0.680436 0
M  V30 11907 H 1123.96 0.107835 -1.94601 0
M  V30 11908 H 1123.05 1.37256 -2.80298 0
M  V30 11909 N 1123.36 1.52689 0.390367 0
M  V30 11910 C 1124.59 1.71292 1.1551 0
M  V30 11911 C 1124.99 0.430405 1.84239 0
M  V30 11912 O 1124.34 -0.604823 1.73458 0
M  V30 11913 C 1124.4 2.80597 2.24735 0
M  V30 11914 C 1124.06 4.21757 1.75984 0
M  V30 11915 C 1125.06 5.04961 1.23733 0
M  V30 11916 C 1122.75 4.68071 1.82248 0
M  V30 11917 C 1124.74 6.32561 0.783926 0
M  V30 11918 C 1122.43 5.95656 1.36519 0
M  V30 11919 C 1123.42 6.7773 0.846786 0
M  V30 11920 O 1123.11 8.02923 0.396164 0
M  V30 11921 H 1122.84 0.576906 0.352356 0
M  V30 11922 H 1125.4 2.00117 0.462865 0
M  V30 11923 H 1123.63 2.4719 2.97378 0
M  V30 11924 H 1125.32 2.87616 2.86412 0
M  V30 11925 H 1126.08 4.70363 1.18251 0
M  V30 11926 H 1121.96 4.04278 2.21541 0
M  V30 11927 H 1125.51 6.96572 0.378612 0
M  V30 11928 H 1121.4 6.29758 1.41686 0
M  V30 11929 H 1122.17 8.16861 0.517766 0
M  V30 11930 N 1124.83 -0.648732 1.43629 0
M  V30 11931 C 1126.08 -1.40579 1.45196 0
M  V30 11932 C 1126.4 -1.9484 0.0790556 0
M  V30 11933 O 1125.67 -1.74707 -0.886239 0
M  V30 11934 H 1124.25 -0.52175 0.53459 0
M  V30 11935 H 1126.92 -0.764796 1.79268 0
M  V30 11936 H 1126.01 -2.24591 2.16715 0
M  V30 11937 N 1126.31 -1.30234 -0.887518 0
M  V30 11938 C 1127.56 -1.18277 -1.63381 0
M  V30 11939 C 1127.87 0.262079 -1.93836 0
M  V30 11940 O 1129.08 0.503127 -2.66797 0
M  V30 11941 C 1127.54 -2.06944 -2.94452 0
M  V30 11942 C 1127.14 -3.56323 -2.71547 0
M  V30 11943 C 1128.89 -2.03743 -3.7241 0
M  V30 11944 C 1126.8 -4.37054 -3.98419 0
M  V30 11945 H 1125.73 -0.439087 -0.612959 0
M  V30 11946 H 1128.38 -1.54964 -0.982779 0
M  V30 11947 H 1126.76 -1.63138 -3.60835 0
M  V30 11948 H 1127.93 -4.08261 -2.13681 0
M  V30 11949 H 1126.25 -3.61321 -2.06969 0
M  V30 11950 H 1128.84 -2.61312 -4.66497 0
M  V30 11951 H 1129.19 -1.02029 -4.03603 0
M  V30 11952 H 1129.72 -2.45657 -3.12886 0
M  V30 11953 H 1126.46 -5.39453 -3.72385 0
M  V30 11954 H 1125.98 -3.89881 -4.55799 0
M  V30 11955 H 1127.66 -4.48356 -4.66462 0
M  V30 11956 N 1127.79 1.09952 -1.12909 0
M  V30 11957 C 1128.75 2.14615 -0.804548 0
M  V30 11958 C 1129.75 1.5975 0.18345 0
M  V30 11959 O 1130.94 1.74147 -0.0429623 0
M  V30 11960 C 1128.08 3.40333 -0.196471 0
M  V30 11961 H 1129.27 2.44835 -1.73193 0
M  V30 11962 H 1126.82 1.25399 -0.932997 0
M  V30 11963 H 1127.56 3.15735 0.740388 0
M  V30 11964 H 1127.34 3.81444 -0.907886 0
M  V30 11965 H 1128.83 4.17598 0.0139264 0
M  V30 11966 N 1129.27 0.921757 1.27833 0
M  V30 11967 C 1130.2 0.433466 2.29441 0
M  V30 11968 C 1131.18 -0.503133 1.62489 0
M  V30 11969 O 1132.36 -0.409156 1.89841 0
M  V30 11970 C 1129.49 -0.320029 3.45822 0
M  V30 11971 C 1128.45 0.528178 4.24728 0
M  V30 11972 C 1127.77 -0.354132 5.33526 0
M  V30 11973 C 1129.07 1.78959 4.90684 0
M  V30 11974 H 1130.77 1.28263 2.70535 0
M  V30 11975 H 1128.31 0.618197 1.30055 0
M  V30 11976 H 1130.27 -0.672526 4.15999 0
M  V30 11977 H 1128.99 -1.20317 3.0363 0
M  V30 11978 H 1127.65 0.863302 3.5629 0
M  V30 11979 H 1127.3 -1.23605 4.87576 0
M  V30 11980 H 1127 0.209855 5.87225 0
M  V30 11981 H 1128.52 -0.702333 6.06547 0
M  V30 11982 H 1129.94 1.50552 5.53179 0
M  V30 11983 H 1128.33 2.29661 5.54415 0
M  V30 11984 H 1129.4 2.51265 4.14721 0
M  V30 11985 N 1130.75 -1.41857 0.686609 0
M  V30 11986 C 1131.68 -2.29188 -0.0234289 0
M  V30 11987 C 1132.69 -1.44311 -0.753541 0
M  V30 11988 O 1133.88 -1.67908 -0.605734 0
M  V30 11989 C 1130.98 -3.21991 -1.05713 0
M  V30 11990 C 1130.15 -4.35581 -0.398453 0
M  V30 11991 C 1129.21 -5.09022 -1.33354 0
M  V30 11992 O 1128.24 -5.63126 -0.829334 0
M  V30 11993 N 1129.44 -5.15643 -2.66632 0
M  V30 11994 H 1132.21 -2.90766 0.726295 0
M  V30 11995 H 1129.77 -1.52912 0.531937 0
M  V30 11996 H 1131.76 -3.6799 -1.68421 0
M  V30 11997 H 1130.33 -2.61782 -1.70847 0
M  V30 11998 H 1129.55 -3.92079 0.408358 0
M  V30 11999 H 1130.84 -5.08765 0.0599239 0
M  V30 12000 H 1130.23 -4.73118 -3.10122 0
M  V30 12001 H 1128.79 -5.65248 -3.24558 0
M  V30 12002 N 1132.22 -0.430739 -1.51599 0
M  V30 12003 C 1133.17 0.384024 -2.27583 0
M  V30 12004 C 1134.14 1.02254 -1.30895 0
M  V30 12005 O 1135.33 1.0427 -1.59789 0
M  V30 12006 C 1132.47 1.48291 -3.11615 0
M  V30 12007 C 1131.58 0.863187 -4.23288 0
M  V30 12008 C 1130.71 1.93657 -4.94642 0
M  V30 12009 C 1129.75 1.29493 -5.98246 0
M  V30 12010 N 1128.89 2.30939 -6.63032 0
M  V30 12011 H 1133.73 -0.270314 -2.96771 0
M  V30 12012 H 1131.27 -0.145148 -1.46382 0
M  V30 12013 H 1133.23 2.13124 -3.58656 0
M  V30 12014 H 1131.86 2.10697 -2.44554 0
M  V30 12015 H 1130.91 0.103326 -3.8026 0
M  V30 12016 H 1132.22 0.354676 -4.97537 0
M  V30 12017 H 1131.37 2.66167 -5.45197 0
M  V30 12018 H 1130.11 2.4788 -4.20008 0
M  V30 12019 H 1129.12 0.555262 -5.46989 0
M  V30 12020 H 1130.34 0.760122 -6.74833 0
M  V30 12021 H 1128.29 2.84254 -5.91216 0
M  V30 12022 H 1128.21 1.84961 -7.33025 0
M  V30 12023 H 1129.47 3.02953 -7.1822 0
M  V30 12024 N 1133.7 1.56767 -0.161869 0
M  V30 12025 C 1134.95 1.96206 0.484537 0
M  V30 12026 C 1135.27 1.04848 1.64414 0
M  V30 12027 O 1134.54 0.112946 1.95574 0
M  V30 12028 H 1133.12 0.724491 0.181994 0
M  V30 12029 H 1135.78 1.93406 -0.240845 0
M  V30 12030 H 1134.88 3.00279 0.85083 0
M  V30 12031 N 1135.18 -0.111886 1.57202 0
M  V30 12032 C 1136.41 -0.836317 1.89791 0
M  V30 12033 C 1136.83 -1.72304 0.754513 0
M  V30 12034 O 1136.19 -1.78889 -0.294672 0
M  V30 12035 C 1136.24 -1.63971 3.21164 0
M  V30 12036 O 1135.34 -2.74726 3.0757 0
M  V30 12037 H 1134.68 -0.230833 0.622585 0
M  V30 12038 H 1137.21 -0.0921478 2.04392 0
M  V30 12039 H 1137.22 -2.02746 3.54059 0
M  V30 12040 H 1135.9 -0.98882 4.03974 0
M  V30 12041 H 1134.47 -2.39101 2.86156 0
M  V30 12042 N 1136.66 -1.52894 -0.382264 0
M  V30 12043 C 1138.07 -1.60135 -0.959887 0
M  V30 12044 C 1138.42 -0.458363 -1.90771 0
M  V30 12045 O 1137.55 0.417614 -2.12332 0
M  V30 12046 C 1138.14 -2.90243 -1.74769 0
M  V30 12047 C 1136.7 -2.99874 -2.27491 0
M  V30 12048 C 1135.85 -2.55302 -1.0824 0
M  V30 12049 H 1138.8 -1.57875 -0.161589 0
M  V30 12050 H 1138.82 -2.77108 -2.60751 0
M  V30 12051 H 1138.33 -3.73412 -1.0576 0
M  V30 12052 H 1136.43 -2.21258 -2.99793 0
M  V30 12053 H 1136.54 -4.04643 -2.56516 0
M  V30 12054 H 1134.91 -2.09781 -1.44444 0
M  V30 12055 H 1135.69 -3.40872 -0.407553 0
M  V30 12056 N 1138.14 0.641106 -1.43971 0
M  V30 12057 C 1139.38 1.40118 -1.4744 0
M  V30 12058 C 1139.74 1.92131 -0.101647 0
M  V30 12059 O 1139.03 1.70112 0.881614 0
M  V30 12060 C 1139.23 2.59092 -2.46183 0
M  V30 12061 C 1139.05 2.18725 -3.92924 0
M  V30 12062 C 1137.82 2.06475 -4.6119 0
M  V30 12063 C 1140.02 1.78255 -4.82421 0
M  V30 12064 N 1138 1.59566 -5.928 0
M  V30 12065 C 1139.38 1.42517 -6.03398 0
M  V30 12066 C 1141.43 1.65546 -4.69573 0
M  V30 12067 C 1140.13 0.953428 -7.12953 0
M  V30 12068 C 1142.16 1.19776 -5.79144 0
M  V30 12069 C 1141.52 0.84983 -6.99255 0
M  V30 12070 H 1137.62 0.507917 -0.594596 0
M  V30 12071 H 1140.2 0.736517 -1.80232 0
M  V30 12072 H 1138.38 3.232 -2.15398 0
M  V30 12073 H 1140.11 3.25847 -2.40012 0
M  V30 12074 H 1136.86 2.26615 -4.15863 0
M  V30 12075 H 1137.29 1.38438 -6.62694 0
M  V30 12076 H 1141.93 1.91081 -3.77158 0
M  V30 12077 H 1139.65 0.68558 -8.05187 0
M  V30 12078 H 1143.23 1.10415 -5.71226 0
M  V30 12079 H 1142.11 0.501081 -7.82597 0
M  V30 12080 N 1139.62 1.30703 0.880598 0
M  V30 12081 C 1140.56 1.17455 1.98678 0
M  V30 12082 C 1141.53 0.0629569 1.65981 0
M  V30 12083 O 1142.72 0.233926 1.89361 0
M  V30 12084 C 1139.86 0.876882 3.33774 0
M  V30 12085 C 1138.97 2.07078 3.79134 0
M  V30 12086 C 1138.11 1.71082 5.02896 0
M  V30 12087 C 1137.14 2.86942 5.40676 0
M  V30 12088 N 1136.28 2.51212 6.55619 0
M  V30 12089 H 1141.12 2.12086 2.09341 0
M  V30 12090 H 1138.66 1.05514 1.02495 0
M  V30 12091 H 1140.62 0.684899 4.1154 0
M  V30 12092 H 1139.25 -0.0325633 3.22784 0
M  V30 12093 H 1138.3 2.37388 2.97239 0
M  V30 12094 H 1139.61 2.9383 4.0307 0
M  V30 12095 H 1138.76 1.48284 5.883 0
M  V30 12096 H 1137.5 0.815064 4.80841 0
M  V30 12097 H 1136.51 3.10401 4.53797 0
M  V30 12098 H 1137.73 3.77211 5.64703 0
M  V30 12099 H 1135.68 1.64147 6.35131 0
M  V30 12100 H 1135.6 3.31495 6.79446 0
M  V30 12101 H 1136.86 2.31781 7.44243 0
M  V30 12102 N 1141.09 -1.09351 1.1349 0
M  V30 12103 C 1142.51 -1.3359 0.873269 0
M  V30 12104 C 1142.71 -1.95432 -0.490767 0
M  V30 12105 O 1141.77 -2.20117 -1.23712 0
M  V30 12106 C 1143.08 -2.24681 1.99847 0
M  V30 12107 C 1144.63 -2.38188 2.03065 0
M  V30 12108 C 1145.1 -3.32615 3.14851 0
M  V30 12109 N 1146.59 -3.40188 3.14366 0
M  V30 12110 C 1147.33 -4.13256 3.97501 0
M  V30 12111 N 1146.82 -4.89114 4.90652 0
M  V30 12112 N 1148.62 -4.08988 3.85597 0
M  V30 12113 H 1140.77 -0.675852 2.0136 0
M  V30 12114 H 1143.03 -0.360268 0.876876 0
M  V30 12115 H 1142.74 -1.86469 2.98198 0
M  V30 12116 H 1142.61 -3.25075 1.91327 0
M  V30 12117 H 1145 -2.75663 1.05327 0
M  V30 12118 H 1145.08 -1.3757 2.15658 0
M  V30 12119 H 1144.72 -2.95863 4.12829 0
M  V30 12120 H 1144.65 -4.33139 2.99496 0
M  V30 12121 H 1147.14 -2.861 2.46892 0
M  V30 12122 H 1147.46 -5.423 5.50573 0
M  V30 12123 H 1145.8 -4.882 4.94657 0
M  V30 12124 H 1148.99 -3.48826 3.12151 0
M  V30 12125 H 1149.17 -4.65671 4.50615 0
M  V30 12126 N 1142.57 -0.928524 -1.27343 0
M  V30 12127 C 1143.5 -0.385563 -2.25934 0
M  V30 12128 C 1144.52 0.484178 -1.55433 0
M  V30 12129 O 1145.71 0.296668 -1.76017 0
M  V30 12130 C 1142.81 0.466116 -3.35679 0
M  V30 12131 C 1141.98 -0.384523 -4.35707 0
M  V30 12132 C 1141.04 0.404644 -5.24642 0
M  V30 12133 O 1140.06 -0.187943 -5.6889 0
M  V30 12134 N 1141.27 1.70426 -5.54919 0
M  V30 12135 H 1144.03 -1.23306 -2.73159 0
M  V30 12136 H 1141.59 -0.796039 -1.40978 0
M  V30 12137 H 1143.58 1.00115 -3.92121 0
M  V30 12138 H 1142.15 1.21437 -2.88048 0
M  V30 12139 H 1141.37 -1.10085 -3.78517 0
M  V30 12140 H 1142.66 -0.966033 -4.99545 0
M  V30 12141 H 1142.06 2.20802 -5.20829 0
M  V30 12142 H 1140.62 2.1858 -6.14057 0
M  V30 12143 N 1144.05 1.41491 -0.694123 0
M  V30 12144 C 1145.3 2.00479 -0.221585 0
M  V30 12145 C 1145.61 1.55605 1.18518 0
M  V30 12146 O 1146.82 2.07143 1.7551 0
M  V30 12147 C 1145.27 3.5824 -0.345264 0
M  V30 12148 C 1144.88 4.12096 -1.7573 0
M  V30 12149 C 1146.63 4.24446 0.0675731 0
M  V30 12150 C 1144.53 5.62286 -1.83271 0
M  V30 12151 H 1143.46 0.749841 -0.0790854 0
M  V30 12152 H 1146.11 1.61987 -0.86211 0
M  V30 12153 H 1144.5 3.94328 0.363487 0
M  V30 12154 H 1145.67 3.8743 -2.49469 0
M  V30 12155 H 1143.98 3.58411 -2.11969 0
M  V30 12156 H 1146.58 5.34691 0.0316485 0
M  V30 12157 H 1146.92 4.01338 1.10606 0
M  V30 12158 H 1147.46 3.93388 -0.59085 0
M  V30 12159 H 1144.2 5.9022 -2.85168 0
M  V30 12160 H 1143.72 5.88883 -1.13914 0
M  V30 12161 H 1145.4 6.27033 -1.59494 0
M  V30 12162 N 1145.53 0.438773 1.51369 0
M  V30 12163 C 1146.8 -0.18722 1.94702 0
M  V30 12164 C 1147.18 -1.59962 1.37752 0
M  V30 12165 O 1146.53 -2.214 0.565171 0
M  V30 12166 C 1146.74 -0.163491 3.48617 0
M  V30 12167 C 1148.09 -0.368355 4.22999 0
M  V30 12168 O 1149.11 -0.241541 3.5538 0
M  V30 12169 O 1147.97 -0.620916 5.42961 0
M  V30 12170 H 1145.07 -0.129194 0.816846 0
M  V30 12171 H 1147.61 0.496855 1.62263 0
M  V30 12172 H 1146.39 0.823882 3.82528 0
M  V30 12173 H 1146.01 -0.890414 3.87501 0
M  V30 12174 N 1147.01 -1.56678 0.170181 0
M  V30 12175 C 1147.94 -2.20916 -0.756213 0
M  V30 12176 C 1148.92 -1.16442 -1.23997 0
M  V30 12177 O 1150.1 -1.44867 -1.29333 0
M  V30 12178 C 1147.23 -2.84901 -1.98617 0
M  V30 12179 C 1146.19 -3.95403 -1.63831 0
M  V30 12180 C 1145.51 -4.46432 -2.94282 0
M  V30 12181 C 1146.81 -5.15051 -0.867195 0
M  V30 12182 H 1148.51 -2.98585 -0.220776 0
M  V30 12183 H 1146.05 -1.43619 -0.104748 0
M  V30 12184 H 1148 -3.28514 -2.63926 0
M  V30 12185 H 1146.73 -2.04598 -2.54572 0
M  V30 12186 H 1145.39 -3.52444 -1.00891 0
M  V30 12187 H 1145.04 -3.62923 -3.48276 0
M  V30 12188 H 1144.74 -5.20979 -2.71762 0
M  V30 12189 H 1146.26 -4.92731 -3.60622 0
M  V30 12190 H 1147.67 -5.55363 -1.42285 0
M  V30 12191 H 1146.07 -5.95507 -0.741065 0
M  V30 12192 H 1147.14 -4.84707 0.136693 0
M  V30 12193 N 1148.48 0.103547 -1.57259 0
M  V30 12194 C 1149.45 1.11039 -2.00507 0
M  V30 12195 C 1150.45 1.33432 -0.897361 0
M  V30 12196 O 1151.64 1.29688 -1.16304 0
M  V30 12197 C 1148.77 2.46144 -2.35851 0
M  V30 12198 H 1149.96 0.738332 -2.90669 0
M  V30 12199 H 1147.51 0.348334 -1.52369 0
M  V30 12200 H 1148.25 2.88242 -1.48617 0
M  V30 12201 H 1148.03 2.31241 -3.16654 0
M  V30 12202 H 1149.52 3.18577 -2.69997 0
M  V30 12203 N 1149.96 1.53094 0.37415 0
M  V30 12204 C 1150.89 1.81901 1.46404 0
M  V30 12205 C 1151.87 0.671949 1.56265 0
M  V30 12206 O 1153.06 0.920978 1.70973 0
M  V30 12207 C 1150.19 2.00123 2.83845 0
M  V30 12208 C 1149.14 3.15864 2.88814 0
M  V30 12209 C 1148.47 3.19364 4.28848 0
M  V30 12210 C 1149.77 4.54633 2.57112 0
M  V30 12211 H 1151.46 2.73172 1.22546 0
M  V30 12212 H 1149.01 1.31444 0.588087 0
M  V30 12213 H 1150.96 2.18859 3.6011 0
M  V30 12214 H 1149.68 1.05555 3.09072 0
M  V30 12215 H 1148.34 2.96935 2.15 0
M  V30 12216 H 1147.99 2.2245 4.51137 0
M  V30 12217 H 1147.69 3.97123 4.3309 0
M  V30 12218 H 1149.22 3.40273 5.06997 0
M  V30 12219 H 1150.63 4.73587 3.23091 0
M  V30 12220 H 1149.03 5.34569 2.72683 0
M  V30 12221 H 1150.1 4.60331 1.52392 0
M  V30 12222 N 1151.44 -0.633461 1.44309 0
M  V30 12223 C 1152.37 -1.75676 1.53819 0
M  V30 12224 C 1153.35 -1.65537 0.391365 0
M  V30 12225 O 1154.54 -1.84332 0.611181 0
M  V30 12226 C 1151.67 -3.14197 1.47979 0
M  V30 12227 C 1150.62 -3.39122 2.61113 0
M  V30 12228 C 1149.95 -4.77648 2.40325 0
M  V30 12229 C 1151.25 -3.31914 4.03274 0
M  V30 12230 H 1152.94 -1.67974 2.47841 0
M  V30 12231 H 1150.49 -0.8067 1.19283 0
M  V30 12232 H 1152.44 -3.92553 1.53233 0
M  V30 12233 H 1151.16 -3.22677 0.504718 0
M  V30 12234 H 1149.82 -2.63145 2.55245 0
M  V30 12235 H 1149.47 -4.82829 1.41016 0
M  V30 12236 H 1149.17 -4.95284 3.16177 0
M  V30 12237 H 1150.69 -5.58237 2.47394 0
M  V30 12238 H 1152.11 -4.00178 4.10524 0
M  V30 12239 H 1150.5 -3.61085 4.7931 0
M  V30 12240 H 1151.57 -2.29761 4.2701 0
M  V30 12241 N 1152.92 -1.31168 -0.873655 0
M  V30 12242 C 1153.85 -1.14325 -1.98651 0
M  V30 12243 C 1154.86 -0.0833421 -1.62587 0
M  V30 12244 O 1156.05 -0.330477 -1.75414 0
M  V30 12245 C 1153.15 -0.723747 -3.31082 0
M  V30 12246 C 1152.33 -1.86787 -3.95512 0
M  V30 12247 C 1151.38 -1.43503 -5.06254 0
M  V30 12248 O 1150.41 -2.14409 -5.27273 0
M  V30 12249 N 1151.61 -0.320362 -5.79615 0
M  V30 12250 H 1154.38 -2.10179 -2.13647 0
M  V30 12251 H 1151.94 -1.23454 -1.04742 0
M  V30 12252 H 1153.93 -0.416971 -4.02546 0
M  V30 12253 H 1152.5 0.143073 -3.12272 0
M  V30 12254 H 1151.72 -2.34216 -3.17075 0
M  V30 12255 H 1153.01 -2.6343 -4.35296 0
M  V30 12256 H 1152.41 0.270215 -5.65054 0
M  V30 12257 H 1150.96 -0.0731 -6.51759 0
M  V30 12258 N 1154.4 1.08748 -1.14068 0
M  V30 12259 C 1155.64 1.81065 -0.906738 0
M  V30 12260 C 1155.97 1.86057 0.566844 0
M  V30 12261 O 1155.23 1.32976 1.43582 0
M  V30 12262 C 1155.53 3.26734 -1.44843 0
M  V30 12263 C 1155.19 3.41866 -2.94005 0
M  V30 12264 C 1153.85 3.45703 -3.34729 0
M  V30 12265 C 1156.21 3.45831 -3.89937 0
M  V30 12266 C 1153.53 3.51092 -4.70055 0
M  V30 12267 C 1155.89 3.52755 -5.25116 0
M  V30 12268 C 1154.55 3.54863 -5.65357 0
M  V30 12269 H 1153.82 0.662564 -0.331799 0
M  V30 12270 H 1156.47 1.28065 -1.42378 0
M  V30 12271 H 1154.77 3.82419 -0.852239 0
M  V30 12272 H 1156.47 3.81236 -1.2434 0
M  V30 12273 H 1153.06 3.39568 -2.61518 0
M  V30 12274 H 1157.24 3.421 -3.59557 0
M  V30 12275 H 1152.5 3.51015 -5.00598 0
M  V30 12276 H 1156.67 3.54768 -5.9926 0
M  V30 12277 H 1154.3 3.58792 -6.70203 0
M  V30 12278 N 1155.87 0.935264 1.26849 0
M  V30 12279 C 1157.12 0.580548 1.94313 0
M  V30 12280 C 1157.45 -0.877205 1.73259 0
M  V30 12281 O 1156.73 -1.62679 1.06611 0
M  V30 12282 C 1157.01 0.916445 3.48243 0
M  V30 12283 C 1156.86 2.42851 3.78607 0
M  V30 12284 C 1158.18 0.427665 4.38017 0
M  V30 12285 H 1155.3 0.21239 0.705733 0
M  V30 12286 H 1157.94 1.16841 1.49827 0
M  V30 12287 H 1156.09 0.416169 3.86265 0
M  V30 12288 H 1157.77 3.00106 3.50335 0
M  V30 12289 H 1156.01 2.8745 3.24892 0
M  V30 12290 H 1156.68 2.61405 4.8618 0
M  V30 12291 H 1159.16 0.856525 4.07189 0
M  V30 12292 H 1158.03 0.691571 5.44526 0
M  V30 12293 H 1158.29 -0.672344 4.36958 0
M  V30 12294 N 1157.35 -1.41121 0.701616 0
M  V30 12295 C 1158.6 -2.00733 0.234682 0
M  V30 12296 C 1158.92 -1.55869 -1.17174 0
M  V30 12297 O 1158.19 -0.791965 -1.79178 0
M  V30 12298 H 1156.77 -0.742288 0.0837745 0
M  V30 12299 H 1159.43 -1.7266 0.904127 0
M  V30 12300 H 1158.53 -3.11041 0.256831 0
M  V30 12301 N 1158.83 -0.446794 -1.51134 0
M  V30 12302 C 1160.11 0.176892 -1.94798 0
M  V30 12303 C 1160.49 1.59229 -1.38598 0
M  V30 12304 O 1159.84 2.21097 -0.576905 0
M  V30 12305 C 1160.05 0.145 -3.48699 0
M  V30 12306 C 1161.39 0.345917 -4.23189 0
M  V30 12307 O 1162.42 0.222691 -3.55503 0
M  V30 12308 O 1161.28 0.592112 -5.43283 0
M  V30 12309 H 1158.37 0.12486 -0.81752 0
M  V30 12310 H 1160.92 -0.505453 -1.61998 0
M  V30 12311 H 1159.69 -0.844156 -3.82086 0
M  V30 12312 H 1159.31 0.869851 -3.87968 0
M  V30 12313 N 1160.31 1.56586 -0.178487 0
M  V30 12314 C 1161.56 1.96709 0.4637 0
M  V30 12315 C 1161.88 1.06586 1.63292 0
M  V30 12316 O 1161.15 0.133683 1.95443 0
M  V30 12317 H 1159.73 0.726381 0.174299 0
M  V30 12318 H 1162.39 1.9314 -0.261345 0
M  V30 12319 H 1161.49 3.01164 0.818934 0
M  V30 12320 N 1161.79 -0.095206 1.57312 0
M  V30 12321 C 1162.7 -1.13388 2.05379 0
M  V30 12322 C 1163.71 -1.43868 0.978668 0
M  V30 12323 O 1164.89 -1.54512 1.29182 0
M  V30 12324 C 1161.95 -2.43444 2.46852 0
M  V30 12325 C 1161.01 -2.20146 3.68557 0
M  V30 12326 C 1160.25 -3.44001 4.08043 0
M  V30 12327 O 1160.47 -4.52233 3.47623 0
M  V30 12328 O 1159.4 -3.33596 5.00997 0
M  V30 12329 H 1163.23 -0.755622 2.9415 0
M  V30 12330 H 1160.82 -0.307707 1.46197 0
M  V30 12331 H 1162.7 -3.20027 2.74155 0
M  V30 12332 H 1161.37 -2.80696 1.61219 0
M  V30 12333 H 1160.28 -1.41345 3.46371 0
M  V30 12334 H 1161.61 -1.87787 4.54969 0
M  V30 12335 N 1163.26 -1.53291 -0.366026 0
M  V30 12336 C 1164.2 -1.7448 -1.47079 0
M  V30 12337 C 1165.18 -0.593147 -1.51395 0
M  V30 12338 O 1166.36 -0.825686 -1.69454 0
M  V30 12339 C 1163.49 -1.82319 -2.85443 0
M  V30 12340 C 1162.53 -3.04285 -2.98852 0
M  V30 12341 S 1163.37 -4.63812 -2.67653 0
M  V30 12342 C 1164.52 -4.74499 -4.08168 0
M  V30 12343 H 1164.75 -2.67911 -1.28884 0
M  V30 12344 H 1162.29 -1.43874 -0.560335 0
M  V30 12345 H 1164.25 -1.87521 -3.65166 0
M  V30 12346 H 1162.91 -0.899398 -3.00948 0
M  V30 12347 H 1162.1 -3.06379 -4.00185 0
M  V30 12348 H 1161.7 -2.97193 -2.27051 0
M  V30 12349 H 1163.99 -4.54527 -5.02406 0
M  V30 12350 H 1164.94 -5.76558 -4.1108 0
M  V30 12351 H 1165.34 -4.03136 -3.95147 0
M  V30 12352 N 1164.74 0.6258 -1.44643 0
M  V30 12353 C 1165.65 1.76611 -1.5442 0
M  V30 12354 C 1166.67 1.68614 -0.429576 0
M  V30 12355 O 1167.84 1.89296 -0.687686 0
M  V30 12356 C 1164.91 3.13015 -1.49071 0
M  V30 12357 C 1163.97 3.32604 -2.71428 0
M  V30 12358 C 1163.2 4.62501 -2.66325 0
M  V30 12359 O 1163.43 5.43651 -1.72626 0
M  V30 12360 O 1162.36 4.84408 -3.57258 0
M  V30 12361 H 1166.19 1.71315 -2.50769 0
M  V30 12362 H 1163.77 0.787677 -1.26949 0
M  V30 12363 H 1165.65 3.94318 -1.48631 0
M  V30 12364 H 1164.33 3.18842 -0.558686 0
M  V30 12365 H 1163.24 2.50959 -2.77435 0
M  V30 12366 H 1164.57 3.31642 -3.63695 0
M  V30 12367 N 1166.22 1.31629 0.866686 0
M  V30 12368 C 1167.13 1.21524 2.00671 0
M  V30 12369 C 1168.15 0.131277 1.73504 0
M  V30 12370 O 1169.32 0.349699 1.98341 0
M  V30 12371 C 1166.39 0.926491 3.34091 0
M  V30 12372 C 1165.45 2.09769 3.7456 0
M  V30 12373 C 1164.68 1.82262 5.01614 0
M  V30 12374 O 1164.9 0.759329 5.65323 0
M  V30 12375 O 1163.84 2.68031 5.38928 0
M  V30 12376 H 1167.66 2.17335 2.1213 0
M  V30 12377 H 1165.25 1.11401 0.995499 0
M  V30 12378 H 1167.13 0.78144 4.14091 0
M  V30 12379 H 1165.81 -0.00155829 3.237 0
M  V30 12380 H 1164.71 2.29816 2.95187 0
M  V30 12381 H 1166.05 3.0081 3.89582 0
M  V30 12382 N 1167.7 -1.08142 1.14644 0
M  V30 12383 C 1168.63 -2.17139 0.858667 0
M  V30 12384 C 1169.61 -1.69064 -0.187452 0
M  V30 12385 O 1170.8 -1.94151 -0.0435458 0
M  V30 12386 C 1167.93 -3.45648 0.33834 0
M  V30 12387 C 1166.88 -4.07129 1.32021 0
M  V30 12388 C 1166.21 -5.30623 0.659075 0
M  V30 12389 C 1167.51 -4.48095 2.68343 0
M  V30 12390 H 1169.2 -2.41468 1.77012 0
M  V30 12391 H 1166.75 -1.16052 0.852523 0
M  V30 12392 H 1168.7 -4.21216 0.124611 0
M  V30 12393 H 1167.42 -3.2088 -0.608553 0
M  V30 12394 H 1166.08 -3.33596 1.52016 0
M  V30 12395 H 1165.73 -5.02142 -0.293711 0
M  V30 12396 H 1165.43 -5.72714 1.31427 0
M  V30 12397 H 1166.95 -6.08903 0.454933 0
M  V30 12398 H 1168.37 -5.14828 2.5224 0
M  V30 12399 H 1166.76 -5.01113 3.30161 0
M  V30 12400 H 1167.83 -3.59852 3.25015 0
M  V30 12401 N 1169.18 -0.941978 -1.26351 0
M  V30 12402 C 1170.09 -0.45833 -2.30079 0
M  V30 12403 C 1171.1 0.468084 -1.67586 0
M  V30 12404 O 1172.28 0.347418 -1.98381 0
M  V30 12405 C 1169.34 0.26797 -3.45663 0
M  V30 12406 C 1168.41 -0.695102 -4.23635 0
M  V30 12407 C 1167.64 -0.003369 -5.337 0
M  V30 12408 O 1167.86 1.21342 -5.57344 0
M  V30 12409 O 1166.8 -0.682476 -5.98018 0
M  V30 12410 H 1170.62 -1.31998 -2.73514 0
M  V30 12411 H 1168.21 -0.707897 -1.31564 0
M  V30 12412 H 1170.09 0.677061 -4.15925 0
M  V30 12413 H 1168.76 1.105 -3.04256 0
M  V30 12414 H 1167.67 -1.15415 -3.55851 0
M  V30 12415 H 1169 -1.49977 -4.68794 0
M  V30 12416 N 1170.66 1.40747 -0.709091 0
M  V30 12417 C 1171.88 2.05319 -0.255258 0
M  V30 12418 C 1172.3 1.53406 1.10054 0
M  V30 12419 O 1171.66 0.687905 1.69039 0
M  V30 12420 C 1171.71 3.60835 -0.219251 0
M  V30 12421 O 1171.43 4.1083 -1.52151 0
M  V30 12422 C 1172.93 4.42572 0.253927 0
M  V30 12423 H 1170.15 0.660904 -0.115959 0
M  V30 12424 H 1172.69 1.80274 -0.965474 0
M  V30 12425 H 1170.85 3.84872 0.441882 0
M  V30 12426 H 1171.26 5.04979 -1.41764 0
M  V30 12427 H 1172.74 5.51529 0.22798 0
M  V30 12428 H 1173.21 4.19673 1.29504 0
M  V30 12429 H 1173.82 4.23629 -0.376694 0
M  V30 12430 N 1172.13 0.454803 1.50895 0
M  V30 12431 C 1173.06 -0.337982 2.31041 0
M  V30 12432 C 1174.04 -1.00523 1.37219 0
M  V30 12433 O 1175.23 -1.00553 1.66141 0
M  V30 12434 C 1172.36 -1.42964 3.1651 0
M  V30 12435 C 1171.31 -0.884907 4.18752 0
M  V30 12436 C 1170.64 -2.07363 4.92854 0
M  V30 12437 C 1171.94 0.0926716 5.22218 0
M  V30 12438 H 1173.63 0.33089 2.97566 0
M  V30 12439 H 1171.18 0.160577 1.43102 0
M  V30 12440 H 1173.13 -1.9916 3.71367 0
M  V30 12441 H 1171.86 -2.12705 2.47839 0
M  V30 12442 H 1170.52 -0.345031 3.64973 0
M  V30 12443 H 1170.16 -2.75764 4.2067 0
M  V30 12444 H 1169.86 -1.71545 5.62002 0
M  V30 12445 H 1171.39 -2.6408 5.5054 0
M  V30 12446 H 1172.8 -0.379568 5.72042 0
M  V30 12447 H 1171.2 0.3643 5.98993 0
M  V30 12448 H 1172.27 1.02383 4.73968 0
M  V30 12449 N 1173.61 -1.56489 0.186789 0
M  V30 12450 C 1174.86 -1.98399 -0.448244 0
M  V30 12451 C 1175.21 -1.07139 -1.59809 0
M  V30 12452 O 1174.51 -0.114119 -1.9126 0
M  V30 12453 C 1174.7 -3.44145 -0.964315 0
M  V30 12454 C 1174.53 -4.495 0.133992 0
M  V30 12455 C 1173.3 -5.01857 0.588851 0
M  V30 12456 C 1175.5 -5.05637 0.939971 0
M  V30 12457 N 1173.48 -5.90866 1.66585 0
M  V30 12458 C 1174.85 -5.91236 1.86655 0
M  V30 12459 C 1176.9 -4.88093 0.983319 0
M  V30 12460 C 1175.61 -6.61167 2.83286 0
M  V30 12461 C 1177.63 -5.58757 1.93764 0
M  V30 12462 C 1177 -6.44096 2.85167 0
M  V30 12463 H 1173.09 -0.770833 -0.131684 0
M  V30 12464 H 1175.68 -1.9252 0.290571 0
M  V30 12465 H 1173.85 -3.50541 -1.6726 0
M  V30 12466 H 1175.58 -3.73036 -1.56926 0
M  V30 12467 H 1172.34 -4.73244 0.183712 0
M  V30 12468 H 1172.76 -6.40075 2.2053 0
M  V30 12469 H 1177.4 -4.218 0.290658 0
M  V30 12470 H 1175.12 -7.26664 3.53532 0
M  V30 12471 H 1178.71 -5.47163 1.97748 0
M  V30 12472 H 1177.59 -6.97813 3.57808 0
M  V30 12473 N 1175.09 0.086862 -1.5736 0
M  V30 12474 C 1176.02 1.10538 -2.05678 0
M  V30 12475 C 1177 1.41281 -0.947293 0
M  V30 12476 O 1178.19 1.51169 -1.21908 0
M  V30 12477 C 1175.32 2.42302 -2.48812 0
M  V30 12478 C 1174.27 2.25948 -3.63499 0
M  V30 12479 C 1173.6 3.62961 -3.92637 0
M  V30 12480 C 1174.9 1.69319 -4.94094 0
M  V30 12481 H 1176.59 0.703371 -2.91021 0
M  V30 12482 H 1174.14 0.336895 -1.40004 0
M  V30 12483 H 1176.09 3.13833 -2.81224 0
M  V30 12484 H 1174.81 2.84454 -1.60479 0
M  V30 12485 H 1173.47 1.5686 -3.31347 0
M  V30 12486 H 1173.12 4.02656 -3.01459 0
M  V30 12487 H 1172.82 3.52862 -4.69853 0
M  V30 12488 H 1174.34 4.35946 -4.27531 0
M  V30 12489 H 1175.76 2.30699 -5.24834 0
M  V30 12490 H 1174.15 1.69957 -5.7553 0
M  V30 12491 H 1175.22 0.653318 -4.80479 0
M  V30 12492 N 1176.57 1.53483 0.357892 0
M  V30 12493 C 1177.8 1.73956 1.12013 0
M  V30 12494 C 1178.21 0.472053 1.82803 0
M  V30 12495 O 1177.57 -0.555499 1.7384 0
M  V30 12496 C 1177.62 2.91015 2.14459 0
M  V30 12497 O 1177.34 4.12862 1.4655 0
M  V30 12498 C 1178.84 3.23423 3.0317 0
M  V30 12499 H 1176.06 0.58161 0.334621 0
M  V30 12500 H 1178.6 2.00256 0.414467 0
M  V30 12501 H 1176.76 2.67087 2.80612 0
M  V30 12502 H 1177.17 4.78468 2.14869 0
M  V30 12503 H 1178.65 4.08717 3.71018 0
M  V30 12504 H 1179.12 2.39114 3.68404 0
M  V30 12505 H 1179.73 3.49305 2.42624 0
M  V30 12506 N 1178.05 -0.61812 1.44973 0
M  V30 12507 C 1179.29 -1.37468 1.48145 0
M  V30 12508 C 1179.61 -1.94628 0.120366 0
M  V30 12509 O 1178.88 -1.76548 -0.848982 0
M  V30 12510 H 1177.46 -0.510293 0.545536 0
M  V30 12511 H 1180.13 -0.726598 1.8085 0
M  V30 12512 H 1179.22 -2.19944 2.2143 0
M  V30 12513 N 1179.52 -1.32087 -0.859693 0
M  V30 12514 C 1180.77 -1.21716 -1.60836 0
M  V30 12515 C 1181.09 0.220904 -1.94349 0
M  V30 12516 O 1182.29 0.446422 -2.67805 0
M  V30 12517 C 1180.75 -2.13143 -2.89997 0
M  V30 12518 C 1180.36 -3.62003 -2.63928 0
M  V30 12519 C 1182.1 -2.11596 -3.68004 0
M  V30 12520 C 1180.01 -4.45407 -3.89059 0
M  V30 12521 H 1178.94 -0.45199 -0.603507 0
M  V30 12522 H 1181.59 -1.57013 -0.949687 0
M  V30 12523 H 1179.97 -1.70755 -3.57294 0
M  V30 12524 H 1181.14 -4.12701 -2.04974 0
M  V30 12525 H 1179.46 -3.6563 -1.99258 0
M  V30 12526 H 1182.06 -2.71149 -4.6085 0
M  V30 12527 H 1182.4 -1.10568 -4.01348 0
M  V30 12528 H 1182.93 -2.52238 -3.07605 0
M  V30 12529 H 1179.67 -5.4723 -3.60859 0
M  V30 12530 H 1179.19 -3.99462 -4.47427 0
M  V30 12531 H 1180.87 -4.58149 -4.56846 0
M  V30 12532 N 1181 1.07532 -1.15215 0
M  V30 12533 C 1182.24 1.81689 -0.936396 0
M  V30 12534 C 1182.61 1.84622 0.527136 0
M  V30 12535 O 1183.81 2.54632 0.861159 0
M  V30 12536 C 1182.08 3.22919 -1.53161 0
M  V30 12537 S 1183.64 4.13845 -1.4587 0
M  V30 12538 H 1180.45 0.626036 -0.337045 0
M  V30 12539 H 1183.06 1.29191 -1.4673 0
M  V30 12540 H 1181.76 3.18372 -2.58974 0
M  V30 12541 H 1181.29 3.80492 -0.999482 0
M  V30 12542 H 1183.31 4.94152 -0.450317 0
M  V30 12543 N 1182.48 0.948665 1.2585 0
M  V30 12544 C 1183.43 0.434929 2.23813 0
M  V30 12545 C 1184.41 -0.472518 1.53805 0
M  V30 12546 O 1185.61 -0.306542 1.74325 0
M  V30 12547 C 1182.74 -0.291678 3.42059 0
M  V30 12548 C 1181.82 0.633493 4.19342 0
M  V30 12549 N 1182.21 1.76254 4.74097 0
M  V30 12550 C 1180.51 0.440528 4.43819 0
M  V30 12551 C 1181.21 2.33968 5.32573 0
M  V30 12552 N 1180.19 1.62687 5.18685 0
M  V30 12553 H 1183.99 1.29668 2.63749 0
M  V30 12554 H 1181.5 0.805431 1.4102 0
M  V30 12555 H 1183.5 -0.676811 4.1137 0
M  V30 12556 H 1182.16 -1.15011 3.03649 0
M  V30 12557 H 1183.17 2.14453 4.71413 0
M  V30 12558 H 1179.85 -0.375515 4.15808 0
M  V30 12559 H 1181.24 3.2914 5.85761 0
M  V30 12560 N 1183.96 -1.40369 0.716545 0
M  V30 12561 C 1184.91 -2.32539 0.053472 0
M  V30 12562 C 1185.9 -1.5209 -0.745984 0
M  V30 12563 O 1187.11 -1.67883 -0.649245 0
M  V30 12564 H 1183.48 -0.751998 -0.00151088 0
M  V30 12565 H 1185.45 -2.86111 0.847535 0
M  V30 12566 C 1184.2 -3.37061 -0.853515 0
M  V30 12567 H 1183.52 -3.99032 -0.247754 0
M  V30 12568 H 1184.96 -4.04046 -1.28541 0
M  V30 12569 C 1183.42 -2.72619 -1.97941 0
M  V30 12570 O 1183.95 -2.59024 -3.07033 0
M  V30 12571 N 1182.16 -2.30988 -1.76332 0
M  V30 12572 H 1181.71 -2.42246 -0.876063 0
M  V30 12573 H 1181.66 -1.88209 -2.51843 0
M  V30 12574 N 1185.44 -0.462799 -1.50652 0
M  V30 12575 C 1186.35 0.341191 -2.32106 0
M  V30 12576 C 1187.36 1.00384 -1.42123 0
M  V30 12577 O 1188.54 0.993635 -1.75182 0
M  V30 12578 C 1185.6 1.41356 -3.16575 0
M  V30 12579 C 1184.66 0.768375 -4.22368 0
M  V30 12580 C 1183.9 1.78964 -5.028 0
M  V30 12581 O 1184.12 3.01515 -4.84195 0
M  V30 12582 O 1183.05 1.36606 -5.86193 0
M  V30 12583 H 1186.88 -0.324482 -3.01962 0
M  V30 12584 H 1184.47 -0.224807 -1.47699 0
M  V30 12585 H 1186.35 2.0349 -3.69012 0
M  V30 12586 H 1185.02 2.06285 -2.49456 0
M  V30 12587 H 1183.93 0.108297 -3.73943 0
M  V30 12588 H 1185.26 0.162164 -4.91933 0
M  V30 12589 N 1186.91 1.56388 -0.195085 0
M  V30 12590 C 1187.86 2.19091 0.725793 0
M  V30 12591 C 1188.83 1.13814 1.20977 0
M  V30 12592 O 1190.02 1.42065 1.27366 0
M  V30 12593 C 1187.16 2.85427 1.93973 0
M  V30 12594 C 1186.27 4.05229 1.49712 0
M  V30 12595 C 1185.4 4.59421 2.66656 0
M  V30 12596 C 1184.44 5.71581 2.19001 0
M  V30 12597 N 1183.58 6.2018 3.29123 0
M  V30 12598 H 1188.42 2.97429 0.184334 0
M  V30 12599 H 1185.96 1.46886 0.0792434 0
M  V30 12600 H 1187.92 3.22057 2.65208 0
M  V30 12601 H 1186.55 2.09652 2.4545 0
M  V30 12602 H 1185.6 3.74261 0.680641 0
M  V30 12603 H 1186.91 4.8635 1.10749 0
M  V30 12604 H 1186.06 4.98357 3.46014 0
M  V30 12605 H 1184.8 3.77407 3.08893 0
M  V30 12606 H 1183.81 5.32174 1.38097 0
M  V30 12607 H 1185.03 6.55413 1.77795 0
M  V30 12608 H 1182.98 5.41088 3.70891 0
M  V30 12609 H 1182.9 6.96353 2.94328 0
M  V30 12610 H 1184.16 6.63769 4.08694 0
M  V30 12611 N 1188.39 -0.0785156 1.57404 0
M  V30 12612 C 1189.34 -1.11278 2.04255 0
M  V30 12613 C 1190.33 -1.40482 0.946633 0
M  V30 12614 O 1191.54 -1.39968 1.13177 0
M  V30 12615 H 1187.92 -0.376157 0.65116 0
M  V30 12616 H 1189.89 -0.691437 2.90279 0
M  V30 12617 C 1188.64 -2.42006 2.49656 0
M  V30 12618 H 1187.96 -2.20383 3.33574 0
M  V30 12619 H 1189.4 -3.12837 2.86197 0
M  V30 12620 C 1187.86 -3.07488 1.37669 0
M  V30 12621 O 1188.39 -3.95285 0.715036 0
M  V30 12622 N 1186.59 -2.68004 1.1235 0
M  V30 12623 H 1186.14 -1.96698 1.66336 0
M  V30 12624 H 1186.1 -3.12141 0.376238 0
M  V30 12625 N 1189.87 -1.5367 -0.349747 0
M  V30 12626 C 1190.78 -1.84207 -1.45275 0
M  V30 12627 C 1191.8 -0.731695 -1.57868 0
M  V30 12628 O 1192.97 -1.02337 -1.73462 0
M  V30 12629 C 1190.04 -2.0398 -2.80345 0
M  V30 12630 C 1189.1 -3.27853 -2.77148 0
M  V30 12631 C 1188.33 -3.46673 -4.05775 0
M  V30 12632 O 1188.55 -2.69457 -5.02741 0
M  V30 12633 O 1187.49 -4.40082 -4.10623 0
M  V30 12634 H 1191.31 -2.77947 -1.22389 0
M  V30 12635 H 1188.9 -1.39247 -0.541345 0
M  V30 12636 H 1190.78 -2.18466 -3.60348 0
M  V30 12637 H 1189.46 -1.13429 -3.03176 0
M  V30 12638 H 1188.36 -3.18776 -1.95787 0
M  V30 12639 H 1189.7 -4.18377 -2.59271 0
M  V30 12640 N 1191.35 0.610423 -1.45298 0
M  V30 12641 C 1192.59 1.37154 -1.49388 0
M  V30 12642 C 1192.93 1.93737 -0.134025 0
M  V30 12643 O 1192.2 1.74888 0.851138 0
M  V30 12644 C 1192.49 2.52155 -2.5708 0
M  V30 12645 C 1192.34 2.00786 -4.02498 0
M  V30 12646 C 1193.66 3.54294 -2.61082 0
M  V30 12647 H 1190.78 0.497346 -0.54389 0
M  V30 12648 H 1193.42 0.688358 -1.77092 0
M  V30 12649 H 1191.57 3.10434 -2.33587 0
M  V30 12650 H 1193.24 1.47178 -4.37191 0
M  V30 12651 H 1191.48 1.31809 -4.1329 0
M  V30 12652 H 1192.15 2.83674 -4.73533 0
M  V30 12653 H 1194.63 3.05851 -2.82125 0
M  V30 12654 H 1193.51 4.32254 -3.38301 0
M  V30 12655 H 1193.77 4.09726 -1.66063 0
M  V30 12656 N 1192.83 1.32541 0.852676 0
M  V30 12657 C 1193.76 1.15977 1.96531 0
M  V30 12658 C 1194.74 0.0587267 1.62494 0
M  V30 12659 O 1195.92 0.218404 1.8723 0
M  V30 12660 C 1193.05 0.77587 3.29694 0
M  V30 12661 C 1192.09 1.88244 3.82709 0
M  V30 12662 S 1192.93 3.49108 4.06059 0
M  V30 12663 C 1194.08 3.12693 5.42193 0
M  V30 12664 H 1194.32 2.10165 2.1028 0
M  V30 12665 H 1191.85 1.17225 1.00487 0
M  V30 12666 H 1193.81 0.561136 4.06647 0
M  V30 12667 H 1192.47 -0.14718 3.13755 0
M  V30 12668 H 1191.66 1.56687 4.79025 0
M  V30 12669 H 1191.26 2.05313 3.12606 0
M  V30 12670 H 1193.56 2.62661 6.24512 0
M  V30 12671 H 1194.5 4.08038 5.78714 0
M  V30 12672 H 1194.91 2.4966 5.06291 0
M  V30 12673 N 1194.3 -1.0692 1.15784 0
M  V30 12674 C 1195.53 -1.83849 0.959903 0
M  V30 12675 C 1195.95 -1.8169 -0.486873 0
M  V30 12676 O 1195.31 -1.21305 -1.34739 0
M  V30 12677 C 1195.36 -3.28642 1.48414 0
M  V30 12678 O 1194.46 -4.0665 0.686249 0
M  V30 12679 H 1193.81 -0.569115 0.342059 0
M  V30 12680 H 1196.34 -1.34851 1.53871 0
M  V30 12681 H 1196.35 -3.7947 1.49888 0
M  V30 12682 H 1195.02 -3.29529 2.53739 0
M  V30 12683 H 1193.6 -3.65453 0.741501 0
M  V30 12684 N 1195.78 -0.955326 -1.25345 0
M  V30 12685 C 1197.01 -0.627233 -1.97688 0
M  V30 12686 C 1197.43 0.793973 -1.70522 0
M  V30 12687 O 1196.79 1.537 -0.961556 0
M  V30 12688 C 1196.84 -0.892969 -3.49369 0
M  V30 12689 O 1195.94 0.0278871 -4.12391 0
M  V30 12690 H 1195.28 -0.238402 -0.619726 0
M  V30 12691 H 1197.81 -1.28211 -1.59446 0
M  V30 12692 H 1197.82 -0.819517 -3.99685 0
M  V30 12693 H 1196.5 -1.92879 -3.6847 0
M  V30 12694 H 1195.08 -0.0978295 -3.72772 0
M  V30 12695 N 1197.26 1.39987 -0.723979 0
M  V30 12696 C 1198.19 2.2917 -0.0373445 0
M  V30 12697 C 1199.21 1.46258 0.715015 0
M  V30 12698 O 1200.4 1.69455 0.561003 0
M  V30 12699 C 1197.5 3.2468 0.971384 0
M  V30 12700 C 1196.67 4.36485 0.282826 0
M  V30 12701 C 1195.73 5.12379 1.19811 0
M  V30 12702 O 1194.75 5.65127 0.67974 0
M  V30 12703 N 1195.96 5.22531 2.52866 0
M  V30 12704 H 1198.72 2.88738 -0.803131 0
M  V30 12705 H 1196.28 1.51448 -0.572292 0
M  V30 12706 H 1198.27 3.72326 1.58606 0
M  V30 12707 H 1196.84 2.6622 1.63846 0
M  V30 12708 H 1196.06 3.90859 -0.512167 0
M  V30 12709 H 1197.35 5.08427 -0.194793 0
M  V30 12710 H 1196.75 4.81174 2.97469 0
M  V30 12711 H 1195.31 5.73655 3.09457 0
M  V30 12712 N 1198.74 0.470782 1.50404 0
M  V30 12713 C 1199.67 -0.313458 2.31386 0
M  V30 12714 C 1200.65 -0.990623 1.38278 0
M  V30 12715 O 1201.84 -0.987854 1.67198 0
M  V30 12716 C 1198.97 -1.39599 3.18009 0
M  V30 12717 C 1197.92 -0.840443 4.19667 0
M  V30 12718 C 1197.25 -2.02124 4.95025 0
M  V30 12719 C 1198.55 0.148055 5.2209 0
M  V30 12720 H 1200.24 0.362432 2.97198 0
M  V30 12721 H 1197.79 0.175745 1.42924 0
M  V30 12722 H 1199.74 -1.9521 3.73458 0
M  V30 12723 H 1198.46 -2.10064 2.50081 0
M  V30 12724 H 1197.12 -0.306302 3.65318 0
M  V30 12725 H 1196.77 -2.71286 4.23571 0
M  V30 12726 H 1196.47 -1.65574 5.6379 0
M  V30 12727 H 1197.99 -2.58226 5.5331 0
M  V30 12728 H 1199.41 -0.318874 5.72413 0
M  V30 12729 H 1197.8 0.427811 5.98573 0
M  V30 12730 H 1198.87 1.07404 4.72855 0
M  V30 12731 N 1200.22 -1.56282 0.203376 0
M  V30 12732 C 1201.49 -1.89587 -0.481256 0
M  V30 12733 C 1201.87 -1.11812 -1.79057 0
M  V30 12734 O 1201.22 -0.221759 -2.27421 0
M  V30 12735 C 1201.43 -3.42071 -0.691965 0
M  V30 12736 C 1202.78 -4.12471 -1.00761 0
M  V30 12737 O 1203.8 -3.47568 -0.779396 0
M  V30 12738 O 1202.66 -5.27194 -1.43974 0
M  V30 12739 H 1199.76 -0.787682 -0.251963 0
M  V30 12740 H 1202.3 -1.67934 0.244207 0
M  V30 12741 H 1201.08 -3.9061 0.232322 0
M  V30 12742 H 1200.7 -3.69444 -1.46958 0
M  V30 12743 N 1201.7 0.070167 -1.57444 0
M  V30 12744 C 1202.94 0.767842 -1.86513 0
M  V30 12745 C 1203.26 1.78659 -0.796257 0
M  V30 12746 O 1204.46 2.53395 -0.974845 0
M  V30 12747 C 1202.92 1.41654 -3.30851 0
M  V30 12748 C 1202.53 0.436273 -4.45871 0
M  V30 12749 C 1204.27 2.09649 -3.69117 0
M  V30 12750 C 1202.18 1.09098 -5.8125 0
M  V30 12751 H 1201.11 0.290519 -0.695784 0
M  V30 12752 H 1203.76 0.0211697 -1.83488 0
M  V30 12753 H 1202.14 2.21153 -3.28493 0
M  V30 12754 H 1203.32 -0.329022 -4.59624 0
M  V30 12755 H 1201.63 -0.139314 -4.16167 0
M  V30 12756 H 1204.23 2.59411 -4.67558 0
M  V30 12757 H 1204.57 2.89663 -2.99 0
M  V30 12758 H 1205.1 1.36979 -3.73472 0
M  V30 12759 H 1201.84 0.331128 -6.54663 0
M  V30 12760 H 1201.36 1.8271 -5.71294 0
M  V30 12761 H 1203.04 1.61034 -6.2664 0
M  V30 12762 N 1203.17 1.53854 0.341593 0
M  V30 12763 C 1204.45 1.61823 1.09875 0
M  V30 12764 C 1204.83 0.440711 2.06448 0
M  V30 12765 O 1204.18 -0.566833 2.21358 0
M  V30 12766 C 1204.39 2.9799 1.81668 0
M  V30 12767 C 1205.74 3.53411 2.35341 0
M  V30 12768 O 1206.76 3.00177 1.91761 0
M  V30 12769 O 1205.62 4.4653 3.15076 0
M  V30 12770 H 1202.71 0.654599 0.5054 0
M  V30 12771 H 1205.26 1.66199 0.342929 0
M  V30 12772 H 1204.03 3.7513 1.11323 0
M  V30 12773 H 1203.65 2.97213 2.64103 0
M  V30 12774 N 1204.65 -0.602709 1.4562 0
M  V30 12775 C 1205.6 -1.73425 1.55005 0
M  V30 12776 C 1206.59 -1.64118 0.419713 0
M  V30 12777 O 1207.8 -1.69853 0.595815 0
M  V30 12778 H 1204.17 -0.573038 0.486962 0
M  V30 12779 H 1206.15 -1.62637 2.50184 0
M  V30 12780 C 1204.89 -3.11808 1.53853 0
M  V30 12781 H 1204.22 -3.19631 2.40158 0
M  V30 12782 H 1205.66 -3.90798 1.64477 0
M  V30 12783 C 1204.12 -3.35866 0.263765 0
M  V30 12784 O 1204.65 -3.96334 -0.654364 0
M  V30 12785 N 1202.85 -2.90171 0.157927 0
M  V30 12786 H 1202.4 -2.41144 0.905944 0
M  V30 12787 H 1202.36 -3.06641 -0.694175 0
M  V30 12788 N 1206.13 -1.32992 -0.845635 0
M  V30 12789 C 1207.06 -1.17018 -1.95913 0
M  V30 12790 C 1208.04 -0.0673433 -1.6246 0
M  V30 12791 O 1209.22 -0.22833 -1.87112 0
M  V30 12792 C 1206.35 -0.793343 -3.29278 0
M  V30 12793 C 1205.4 -1.90271 -3.81705 0
M  V30 12794 S 1206.23 -3.51256 -4.04202 0
M  V30 12795 C 1207.39 -3.15564 -5.40528 0
M  V30 12796 H 1207.62 -2.11278 -2.09163 0
M  V30 12797 H 1205.15 -1.17756 -0.998644 0
M  V30 12798 H 1207.11 -0.582694 -4.06343 0
M  V30 12799 H 1205.77 0.130539 -3.13829 0
M  V30 12800 H 1204.96 -1.59225 -4.78188 0
M  V30 12801 H 1204.57 -2.06968 -3.11513 0
M  V30 12802 H 1206.86 -2.65969 -6.23111 0
M  V30 12803 H 1207.8 -4.11102 -5.76542 0
M  V30 12804 H 1208.21 -2.52341 -5.04959 0
M  V30 12805 N 1207.61 1.06304 -1.1635 0
M  V30 12806 C 1208.57 2.11947 -0.872419 0
M  V30 12807 C 1209.57 1.60253 0.132534 0
M  V30 12808 O 1210.76 1.73922 -0.0983441 0
M  V30 12809 C 1207.89 3.39536 -0.304646 0
M  V30 12810 H 1209.09 2.39201 -1.80894 0
M  V30 12811 H 1206.64 1.22367 -0.972419 0
M  V30 12812 H 1207.37 3.17931 0.639565 0
M  V30 12813 H 1207.16 3.78363 -1.02878 0
M  V30 12814 H 1208.65 4.17431 -0.118936 0
M  V30 12815 N 1209.09 0.96196 1.24836 0
M  V30 12816 C 1210.33 0.619489 1.92371 0
M  V30 12817 C 1210.65 -0.847233 1.75633 0
M  V30 12818 O 1209.92 -1.60419 1.12439 0
M  V30 12819 H 1208.5 0.226129 0.711951 0
M  V30 12820 H 1211.17 1.22179 1.5185 0
M  V30 12821 H 1210.26 0.855128 3.00157 0
M  V30 12822 N 1210.56 -1.39601 0.731392 0
M  V30 12823 C 1211.81 -2.00883 0.278168 0
M  V30 12824 C 1212.14 -1.57897 -1.13059 0
M  V30 12825 O 1211.42 -0.806203 -1.77005 0
M  V30 12826 C 1211.7 -3.58132 0.375969 0
M  V30 12827 C 1211.55 -4.11147 1.82423 0
M  V30 12828 C 1212.87 -4.39425 -0.243702 0
M  V30 12829 H 1209.99 -0.729831 0.102549 0
M  V30 12830 H 1212.63 -1.65859 0.926869 0
M  V30 12831 H 1210.78 -3.881 -0.176329 0
M  V30 12832 H 1212.46 -3.91914 2.43313 0
M  V30 12833 H 1210.7 -3.64842 2.34675 0
M  V30 12834 H 1211.37 -5.20291 1.84396 0
M  V30 12835 H 1213.85 -4.1548 0.227067 0
M  V30 12836 H 1212.72 -5.48709 -0.144907 0
M  V30 12837 H 1212.98 -4.21642 -1.32929 0
M  V30 12838 N 1212.04 -0.478751 -1.50152 0
M  V30 12839 C 1213.29 0.073585 -2.02366 0
M  V30 12840 C 1213.62 1.3903 -1.36018 0
M  V30 12841 O 1212.87 1.89787 -0.477435 0
M  V30 12842 C 1213.17 0.297535 -3.56159 0
M  V30 12843 C 1212.84 -0.938419 -4.41027 0
M  V30 12844 C 1211.5 -1.27727 -4.63939 0
M  V30 12845 C 1213.85 -1.76098 -4.9055 0
M  V30 12846 C 1211.18 -2.4386 -5.33619 0
M  V30 12847 C 1213.53 -2.91366 -5.61506 0
M  V30 12848 C 1212.2 -3.25657 -5.8267 0
M  V30 12849 H 1211.47 0.0269267 -0.740511 0
M  V30 12850 H 1214.11 -0.63439 -1.80687 0
M  V30 12851 H 1212.42 1.08783 -3.76395 0
M  V30 12852 H 1214.11 0.73899 -3.94132 0
M  V30 12853 H 1210.7 -0.664441 -4.23418 0
M  V30 12854 H 1214.89 -1.51237 -4.72696 0
M  V30 12855 H 1210.14 -2.70692 -5.48211 0
M  V30 12856 H 1214.32 -3.55445 -5.98859 0
M  V30 12857 H 1211.95 -4.15751 -6.36439 0
M  V30 12858 N 1213.52 1.56172 -0.211661 0
M  V30 12859 C 1214.75 2.02135 0.427222 0
M  V30 12860 C 1215.16 1.09084 1.54587 0
M  V30 12861 O 1214.5 0.090906 1.83475 0
M  V30 12862 C 1214.56 3.44459 1.029 0
M  V30 12863 C 1214.23 4.56976 0.0470243 0
M  V30 12864 C 1215.22 5.14466 -0.749724 0
M  V30 12865 C 1212.91 5.02253 -0.0688634 0
M  V30 12866 C 1214.9 6.15696 -1.64916 0
M  V30 12867 C 1212.59 6.03323 -0.971844 0
M  V30 12868 C 1213.59 6.5992 -1.76055 0
M  V30 12869 O 1213.28 7.59024 -2.64837 0
M  V30 12870 H 1213.01 0.667008 0.109894 0
M  V30 12871 H 1215.56 2.02851 -0.322595 0
M  V30 12872 H 1213.79 3.4078 1.82772 0
M  V30 12873 H 1215.48 3.74128 1.57425 0
M  V30 12874 H 1216.25 4.80342 -0.670588 0
M  V30 12875 H 1212.13 4.57886 0.534889 0
M  V30 12876 H 1215.67 6.59798 -2.26521 0
M  V30 12877 H 1211.57 6.36869 -1.05203 0
M  V30 12878 H 1212.34 7.76508 -2.58801 0
M  V30 12879 N 1215 -0.0618163 1.57479 0
M  V30 12880 C 1215.93 -1.10452 1.99689 0
M  V30 12881 C 1216.91 -1.37019 0.875473 0
M  V30 12882 O 1218.09 -1.50226 1.13862 0
M  V30 12883 C 1215.22 -2.44669 2.34211 0
M  V30 12884 C 1214.27 -2.34172 3.56463 0
M  V30 12885 S 1215.1 -1.7263 5.06911 0
M  V30 12886 C 1216.26 -3.08405 5.44644 0
M  V30 12887 H 1216.49 -0.744843 2.87818 0
M  V30 12888 H 1214.02 -0.270698 1.52008 0
M  V30 12889 H 1215.98 -3.2187 2.54774 0
M  V30 12890 H 1214.64 -2.77794 1.46592 0
M  V30 12891 H 1213.83 -3.33175 3.78167 0
M  V30 12892 H 1213.44 -1.65109 3.35582 0
M  V30 12893 H 1215.73 -4.04727 5.43325 0
M  V30 12894 H 1216.67 -2.9147 6.4533 0
M  V30 12895 H 1217.08 -3.0947 4.72111 0
M  V30 12896 N 1216.48 -1.54033 -0.333429 0
M  V30 12897 C 1217.41 -1.85719 -1.4153 0
M  V30 12898 C 1218.39 -0.713144 -1.54429 0
M  V30 12899 O 1219.57 -0.965984 -1.68471 0
M  V30 12900 C 1216.7 -2.07578 -2.78439 0
M  V30 12901 C 1215.66 -3.23411 -2.80338 0
M  V30 12902 C 1214.98 -3.30622 -4.2023 0
M  V30 12903 C 1216.28 -4.6129 -2.44968 0
M  V30 12904 H 1217.98 -2.76325 -1.15261 0
M  V30 12905 H 1215.52 -1.32957 -0.55303 0
M  V30 12906 H 1217.48 -2.28329 -3.5418 0
M  V30 12907 H 1216.2 -1.13713 -3.06165 0
M  V30 12908 H 1214.86 -3.02531 -2.07052 0
M  V30 12909 H 1214.51 -2.34333 -4.45081 0
M  V30 12910 H 1214.21 -4.08466 -4.22409 0
M  V30 12911 H 1215.73 -3.53596 -4.97798 0
M  V30 12912 H 1217.14 -4.81987 -3.10421 0
M  V30 12913 H 1215.54 -5.41611 -2.58414 0
M  V30 12914 H 1216.61 -4.6421 -1.40134 0
M  V30 12915 N 1217.95 0.594978 -1.45938 0
M  V30 12916 C 1218.92 1.68688 -1.55168 0
M  V30 12917 C 1219.92 1.54945 -0.429951 0
M  V30 12918 O 1221.11 1.59785 -0.693859 0
M  V30 12919 C 1218.24 3.0804 -1.46027 0
M  V30 12920 H 1219.43 1.61866 -2.52467 0
M  V30 12921 H 1216.99 0.811785 -1.33565 0
M  V30 12922 H 1217.72 3.20428 -0.499614 0
M  V30 12923 H 1217.51 3.19423 -2.27401 0
M  V30 12924 H 1219 3.8755 -1.55546 0
M  V30 12925 N 1219.43 1.33438 0.838571 0
M  V30 12926 C 1220.4 1.23632 1.92997 0
M  V30 12927 C 1221.4 0.155302 1.60048 0
M  V30 12928 O 1222.59 0.406852 1.69382 0
M  V30 12929 C 1219.72 0.90512 3.28665 0
M  V30 12930 H 1220.91 2.20643 2.03117 0
M  V30 12931 H 1218.46 1.17501 1.03069 0
M  V30 12932 H 1219.2 -0.0624833 3.2424 0
M  V30 12933 H 1218.98 1.68688 3.53959 0
M  V30 12934 H 1220.47 0.861262 4.08622 0
M  V30 12935 N 1220.91 -1.05686 1.16912 0
M  V30 12936 C 1221.87 -2.11481 0.883647 0
M  V30 12937 C 1222.87 -1.60321 -0.124034 0
M  V30 12938 O 1224.06 -1.73868 0.107566 0
M  V30 12939 C 1221.2 -3.3937 0.322649 0
M  V30 12940 H 1222.39 -2.38239 1.8216 0
M  V30 12941 H 1219.94 -1.2185 0.978895 0
M  V30 12942 H 1220.68 -3.18266 -0.622695 0
M  V30 12943 H 1220.46 -3.77812 1.04883 0
M  V30 12944 H 1221.95 -4.17362 0.141072 0
M  V30 12945 N 1222.39 -0.968567 -1.24324 0
M  V30 12946 C 1223.32 -0.444065 -2.23838 0
M  V30 12947 C 1224.3 0.482311 -1.55282 0
M  V30 12948 O 1225.48 0.413489 -1.83909 0
M  V30 12949 C 1222.61 0.358874 -3.36793 0
M  V30 12950 C 1221.66 -0.509913 -4.23441 0
M  V30 12951 S 1222.49 -1.95064 -4.98708 0
M  V30 12952 C 1223.65 -1.15652 -6.15122 0
M  V30 12953 H 1223.88 -1.28738 -2.67981 0
M  V30 12954 H 1221.41 -0.773665 -1.33618 0
M  V30 12955 H 1223.37 0.816164 -4.02305 0
M  V30 12956 H 1222.03 1.17717 -2.91207 0
M  V30 12957 H 1221.22 0.106617 -5.03887 0
M  V30 12958 H 1220.83 -0.902967 -3.62936 0
M  V30 12959 H 1223.12 -0.411966 -6.76246 0
M  V30 12960 H 1224.06 -1.93539 -6.81137 0
M  V30 12961 H 1224.47 -0.680507 -5.60383 0
M  V30 12962 N 1223.87 1.39211 -0.738786 0
M  V30 12963 C 1224.83 2.28937 -0.109746 0
M  V30 12964 C 1225.83 1.46488 0.663157 0
M  V30 12965 O 1227.02 1.67119 0.491614 0
M  V30 12966 C 1224.15 3.30039 0.853633 0
M  V30 12967 H 1225.34 2.86068 -0.900295 0
M  V30 12968 H 1222.9 1.47922 -0.504853 0
M  V30 12969 H 1223.63 2.77971 1.6704 0
M  V30 12970 H 1223.42 3.90935 0.302007 0
M  V30 12971 H 1224.91 3.97169 1.29022 0
M  V30 12972 N 1225.34 0.486708 1.49896 0
M  V30 12973 C 1226.27 -0.288898 2.31706 0
M  V30 12974 C 1227.26 -0.975901 1.3932 0
M  V30 12975 O 1228.44 -0.970065 1.68236 0
M  V30 12976 C 1225.57 -1.36218 3.19471 0
M  V30 12977 C 1224.52 -0.795884 4.20535 0
M  V30 12978 C 1223.85 -1.96862 4.97141 0
M  V30 12979 C 1225.15 0.203421 5.21904 0
M  V30 12980 H 1226.84 0.393934 2.96797 0
M  V30 12981 H 1224.39 0.190894 1.42729 0
M  V30 12982 H 1226.34 -1.91238 3.75508 0
M  V30 12983 H 1225.07 -2.074 2.52295 0
M  V30 12984 H 1223.73 -0.267538 3.65622 0
M  V30 12985 H 1223.37 -2.66779 4.26425 0
M  V30 12986 H 1223.07 -1.59585 5.65514 0
M  V30 12987 H 1224.6 -2.52343 5.56017 0
M  V30 12988 H 1226.01 -0.258144 5.72719 0
M  V30 12989 H 1224.41 0.491273 5.98086 0
M  V30 12990 H 1225.48 1.12414 4.7169 0
M  V30 12991 N 1226.82 -1.56058 0.219941 0
M  V30 12992 C 1228.05 -2.031 -0.42014 0
M  V30 12993 C 1228.47 -1.09875 -1.52673 0
M  V30 12994 O 1227.83 -0.0866458 -1.81093 0
M  V30 12995 C 1227.88 -3.48389 -0.93047 0
M  V30 12996 O 1226.98 -3.583 -2.04192 0
M  V30 12997 H 1226.32 -0.657129 -0.0952772 0
M  V30 12998 H 1228.85 -2.01787 0.338105 0
M  V30 12999 H 1228.86 -3.88678 -1.2407 0
M  V30 13000 H 1227.54 -4.15725 -0.120539 0
M  V30 13001 H 1226.12 -3.29898 -1.73845 0
M  V30 13002 N 1228.3 0.053464 -1.57509 0
M  V30 13003 C 1229.23 1.06151 -2.07977 0
M  V30 13004 C 1230.21 1.3924 -0.977047 0
M  V30 13005 O 1231.4 1.48549 -1.25087 0
M  V30 13006 C 1228.53 2.36969 -2.53895 0
M  V30 13007 C 1227.48 2.18186 -3.6821 0
M  V30 13008 C 1226.81 3.54551 -4.00247 0
M  V30 13009 C 1228.11 1.588 -4.97574 0
M  V30 13010 H 1229.8 0.641483 -2.92447 0
M  V30 13011 H 1227.35 0.307122 -1.40687 0
M  V30 13012 H 1229.3 3.07797 -2.87817 0
M  V30 13013 H 1228.02 2.80986 -1.66476 0
M  V30 13014 H 1226.68 1.49796 -3.34599 0
M  V30 13015 H 1226.33 3.96171 -3.09932 0
M  V30 13016 H 1226.03 3.42816 -4.77232 0
M  V30 13017 H 1227.56 4.2678 -4.36682 0
M  V30 13018 H 1228.97 2.19515 -5.29609 0
M  V30 13019 H 1227.37 1.57711 -5.79006 0
M  V30 13020 H 1228.44 0.551254 -4.81756 0
M  V30 13021 N 1229.78 1.54207 0.325255 0
M  V30 13022 C 1231.03 1.71544 1.06091 0
M  V30 13023 C 1231.34 0.495137 1.89229 0
M  V30 13024 O 1232.55 0.54982 2.65874 0
M  V30 13025 C 1231 3.03412 1.93569 0
M  V30 13026 C 1230.61 4.32842 1.1555 0
M  V30 13027 C 1232.36 3.30113 2.66881 0
M  V30 13028 C 1230.26 5.55773 2.02164 0
M  V30 13029 H 1229.19 0.639281 0.399795 0
M  V30 13030 H 1231.84 1.80701 0.319261 0
M  V30 13031 H 1230.23 2.88158 2.71626 0
M  V30 13032 H 1231.4 4.58857 0.42276 0
M  V30 13033 H 1229.71 4.12893 0.539277 0
M  V30 13034 H 1232.31 4.19151 3.31988 0
M  V30 13035 H 1232.65 2.47918 3.34428 0
M  V30 13036 H 1233.19 3.46227 1.95887 0
M  V30 13037 H 1229.93 6.40565 1.39128 0
M  V30 13038 H 1229.45 5.3398 2.73177 0
M  V30 13039 H 1231.13 5.92113 2.60789 0
M  V30 13040 N 1231.26 -0.58723 1.46251 0
M  V30 13041 C 1232.49 -1.37174 1.5489 0
M  V30 13042 C 1232.9 -1.87857 0.188445 0
M  V30 13043 O 1232.26 -1.63365 -0.813509 0
M  V30 13044 C 1232.31 -2.56237 2.55 0
M  V30 13045 O 1232.03 -2.07655 3.8576 0
M  V30 13046 C 1233.53 -3.48846 2.73535 0
M  V30 13047 H 1230.75 -0.419211 0.523931 0
M  V30 13048 H 1233.29 -0.714307 1.91619 0
M  V30 13049 H 1231.45 -3.1798 2.21287 0
M  V30 13050 H 1231.86 -2.85161 4.40208 0
M  V30 13051 H 1233.34 -4.2888 3.47514 0
M  V30 13052 H 1233.81 -4.00493 1.80282 0
M  V30 13053 H 1234.42 -2.92942 3.08326 0
M  V30 13054 N 1232.74 -1.33881 -0.831482 0
M  V30 13055 C 1233.98 -1.25755 -1.58719 0
M  V30 13056 C 1234.31 0.174746 -1.93713 0
M  V30 13057 O 1233.57 1.13384 -1.59507 0
M  V30 13058 C 1233.86 -2.08544 -2.90249 0
M  V30 13059 C 1233.53 -3.57651 -2.74585 0
M  V30 13060 C 1232.19 -3.983 -2.7002 0
M  V30 13061 C 1234.54 -4.52369 -2.58866 0
M  V30 13062 C 1231.87 -5.31872 -2.47647 0
M  V30 13063 C 1234.22 -5.86112 -2.38025 0
M  V30 13064 C 1232.89 -6.25934 -2.31867 0
M  V30 13065 H 1232.16 -0.460171 -0.580796 0
M  V30 13066 H 1234.81 -1.6554 -0.96274 0
M  V30 13067 H 1233.11 -1.6156 -3.56939 0
M  V30 13068 H 1234.81 -1.99609 -3.47789 0
M  V30 13069 H 1231.4 -3.2538 -2.78973 0
M  V30 13070 H 1235.58 -4.21868 -2.61421 0
M  V30 13071 H 1230.84 -5.61756 -2.41331 0
M  V30 13072 H 1235.01 -6.59103 -2.24847 0
M  V30 13073 H 1232.64 -7.29372 -2.14291 0
M  V30 13074 N 1234.21 1.05064 -1.1747 0
M  V30 13075 C 1235.46 1.77481 -0.958301 0
M  V30 13076 C 1235.78 1.88725 0.51401 0
M  V30 13077 O 1236.98 2.57895 0.848657 0
M  V30 13078 C 1235.44 3.19048 -1.66543 0
M  V30 13079 C 1235.05 3.1593 -3.17636 0
M  V30 13080 C 1236.79 3.95912 -1.53146 0
M  V30 13081 C 1234.7 4.52293 -3.81032 0
M  V30 13082 H 1233.63 0.665247 -0.354913 0
M  V30 13083 H 1236.28 1.17751 -1.40737 0
M  V30 13084 H 1234.66 3.79113 -1.1441 0
M  V30 13085 H 1235.83 2.65375 -3.76713 0
M  V30 13086 H 1234.15 2.52564 -3.31059 0
M  V30 13087 H 1236.75 4.96737 -1.9788 0
M  V30 13088 H 1237.09 4.13498 -0.482203 0
M  V30 13089 H 1237.62 3.42399 -2.02504 0
M  V30 13090 H 1234.36 4.39913 -4.8596 0
M  V30 13091 H 1233.88 5.02991 -3.26741 0
M  V30 13092 H 1235.56 5.2123 -3.83312 0
M  V30 13093 N 1235.69 0.975146 1.23809 0
M  V30 13094 C 1236.94 0.651686 1.92677 0
M  V30 13095 C 1237.29 -0.805298 1.74736 0
M  V30 13096 O 1236.59 -1.5727 1.09438 0
M  V30 13097 C 1236.78 0.971016 3.43956 0
M  V30 13098 C 1236.61 2.45749 3.76613 0
M  V30 13099 C 1235.38 3.11859 3.97583 0
M  V30 13100 C 1237.58 3.43793 3.82506 0
M  V30 13101 N 1235.56 4.50166 4.17401 0
M  V30 13102 C 1236.93 4.67487 4.07254 0
M  V30 13103 C 1238.98 3.38347 3.65274 0
M  V30 13104 C 1237.69 5.86404 4.16561 0
M  V30 13105 C 1239.71 4.56623 3.75831 0
M  V30 13106 C 1239.08 5.7911 4.01012 0
M  V30 13107 H 1235.17 0.289441 0.726463 0
M  V30 13108 H 1237.76 1.25153 1.49147 0
M  V30 13109 H 1235.93 0.399915 3.86336 0
M  V30 13110 H 1237.66 0.605367 4.00147 0
M  V30 13111 H 1234.42 2.62369 3.94283 0
M  V30 13112 H 1234.84 5.21854 4.31274 0
M  V30 13113 H 1239.48 2.44679 3.44807 0
M  V30 13114 H 1237.2 6.80493 4.35838 0
M  V30 13115 H 1240.79 4.53979 3.6386 0
M  V30 13116 H 1239.67 6.69103 4.08988 0
M  V30 13117 N 1237.17 -1.38817 0.746158 0
M  V30 13118 C 1238.08 -2.34316 0.115386 0
M  V30 13119 C 1239.1 -1.58892 -0.709179 0
M  V30 13120 O 1240.27 -1.91126 -0.635059 0
M  V30 13121 C 1237.34 -3.37977 -0.772821 0
M  V30 13122 C 1236.4 -4.2925 0.0652679 0
M  V30 13123 C 1235.63 -5.2796 -0.78064 0
M  V30 13124 O 1235.85 -5.33474 -2.01896 0
M  V30 13125 O 1234.79 -6.01556 -0.20338 0
M  V30 13126 H 1238.61 -2.89937 0.903887 0
M  V30 13127 H 1236.2 -1.40536 0.506958 0
M  V30 13128 H 1238.08 -4.01468 -1.28068 0
M  V30 13129 H 1236.76 -2.84723 -1.53994 0
M  V30 13130 H 1235.66 -3.68945 0.61891 0
M  V30 13131 H 1237 -4.85739 0.794871 0
M  V30 13132 N 1238.65 -0.49465 -1.49636 0
M  V30 13133 C 1239.6 0.306278 -2.25933 0
M  V30 13134 C 1240.58 0.941082 -1.30508 0
M  V30 13135 O 1241.77 0.849732 -1.55269 0
M  V30 13136 C 1238.9 1.3739 -3.14609 0
M  V30 13137 C 1237.99 0.745657 -4.17493 0
M  V30 13138 N 1238.38 -0.147977 -5.05583 0
M  V30 13139 C 1236.68 1.00696 -4.34484 0
M  V30 13140 C 1237.38 -0.506949 -5.79487 0
M  V30 13141 N 1236.35 0.123603 -5.43459 0
M  V30 13142 H 1240.16 -0.381753 -2.9141 0
M  V30 13143 H 1237.67 -0.310311 -1.59408 0
M  V30 13144 H 1239.67 1.96108 -3.67896 0
M  V30 13145 H 1238.33 2.06368 -2.50684 0
M  V30 13146 H 1239.34 -0.518378 -5.15299 0
M  V30 13147 H 1236.02 1.68996 -3.81768 0
M  V30 13148 H 1237.41 -1.23766 -6.60403 0
M  V30 13149 N 1240.13 1.55939 -0.228214 0
M  V30 13150 C 1241.06 2.2357 0.6737 0
M  V30 13151 C 1242.04 1.20964 1.1959 0
M  V30 13152 O 1243.22 1.49568 1.23867 0
M  V30 13153 C 1240.35 2.92076 1.87906 0
M  V30 13154 C 1239.31 4.01211 1.49043 0
M  V30 13155 C 1238.63 4.57047 2.77511 0
M  V30 13156 C 1239.93 5.17914 0.67544 0
M  V30 13157 H 1241.63 2.99199 0.109806 0
M  V30 13158 H 1239.17 1.43908 0.0513732 0
M  V30 13159 H 1241.12 3.38083 2.51551 0
M  V30 13160 H 1239.85 2.13906 2.46803 0
M  V30 13161 H 1238.51 3.55945 0.877411 0
M  V30 13162 H 1238.16 3.75599 3.34566 0
M  V30 13163 H 1237.86 5.30707 2.52239 0
M  V30 13164 H 1239.38 5.05776 3.42087 0
M  V30 13165 H 1240.79 5.60261 1.21575 0
M  V30 13166 H 1239.19 5.97847 0.519536 0
M  V30 13167 H 1240.26 4.83866 -0.316495 0
M  V30 13168 N 1241.6 -0.0451101 1.57535 0
M  V30 13169 C 1242.85 -0.739114 1.88529 0
M  V30 13170 C 1243.18 -1.76208 0.823468 0
M  V30 13171 O 1242.43 -1.94893 -0.177512 0
M  V30 13172 C 1242.73 -1.45938 3.26247 0
M  V30 13173 C 1242.4 -0.57391 4.47233 0
M  V30 13174 C 1241.06 -0.329974 4.80067 0
M  V30 13175 C 1243.41 0.0384272 5.21186 0
M  V30 13176 C 1240.74 0.535339 5.84253 0
M  V30 13177 C 1243.09 0.891349 6.26289 0
M  V30 13178 C 1241.76 1.1449 6.57608 0
M  V30 13179 H 1241.03 -0.270461 0.689878 0
M  V30 13180 H 1243.67 0.000714103 1.915 0
M  V30 13181 H 1241.98 -2.27212 3.1919 0
M  V30 13182 H 1243.68 -2.00162 3.47471 0
M  V30 13183 H 1240.27 -0.774181 4.2155 0
M  V30 13184 H 1244.45 -0.137096 4.96111 0
M  V30 13185 H 1239.71 0.740253 6.06902 0
M  V30 13186 H 1243.88 1.37243 6.82743 0
M  V30 13187 H 1241.51 1.81715 7.38162 0
M  V30 13188 N 1243.08 -1.54377 -0.317073 0
M  V30 13189 C 1244.31 -1.76608 -1.07206 0
M  V30 13190 C 1244.72 -0.517818 -1.81976 0
M  V30 13191 O 1244.06 0.521375 -1.76146 0
M  V30 13192 C 1244.13 -2.91 -2.11091 0
M  V30 13193 C 1243.79 -4.29673 -1.55661 0
M  V30 13194 C 1244.79 -5.1029 -0.994999 0
M  V30 13195 C 1242.47 -4.76234 -1.59708 0
M  V30 13196 C 1244.47 -6.35581 -0.48123 0
M  V30 13197 C 1242.15 -6.01491 -1.07944 0
M  V30 13198 C 1243.15 -6.80999 -0.522467 0
M  V30 13199 O 1242.84 -8.03899 -0.0126274 0
M  V30 13200 H 1242.57 -0.593061 -0.32443 0
M  V30 13201 H 1245.12 -2.02097 -0.366859 0
M  V30 13202 H 1243.35 -2.61097 -2.85246 0
M  V30 13203 H 1245.04 -3.00954 -2.72363 0
M  V30 13204 H 1245.81 -4.7547 -0.956752 0
M  V30 13205 H 1241.69 -4.14387 -2.02 0
M  V30 13206 H 1245.23 -6.97585 -0.0458374 0
M  V30 13207 H 1241.13 -6.35801 -1.11478 0
M  V30 13208 H 1241.9 -8.18401 -0.127442 0
M  V30 13209 N 1244.56 0.579466 -1.4656 0
M  V30 13210 C 1245.81 1.33738 -1.5325 0
M  V30 13211 C 1246.16 1.91527 -0.183045 0
M  V30 13212 O 1245.45 1.73698 0.80867 0
M  V30 13213 C 1245.65 2.48417 -2.56951 0
M  V30 13214 C 1245.48 2.01862 -4.01848 0
M  V30 13215 C 1244.25 1.86729 -4.69532 0
M  V30 13216 C 1246.45 1.57633 -4.89547 0
M  V30 13217 N 1244.43 1.34279 -5.99034 0
M  V30 13218 C 1245.8 1.16797 -6.08899 0
M  V30 13219 C 1247.85 1.45481 -4.76172 0
M  V30 13220 C 1246.56 0.650182 -7.16355 0
M  V30 13221 C 1248.58 0.951049 -5.83703 0
M  V30 13222 C 1247.94 0.552488 -7.0223 0
M  V30 13223 H 1244.04 0.482241 -0.615603 0
M  V30 13224 H 1246.63 0.659411 -1.83193 0
M  V30 13225 H 1244.8 3.13773 -2.28912 0
M  V30 13226 H 1246.53 3.15374 -2.53616 0
M  V30 13227 H 1243.29 2.08773 -4.25101 0
M  V30 13228 H 1243.71 1.10207 -6.6797 0
M  V30 13229 H 1248.35 1.74912 -3.84923 0
M  V30 13230 H 1246.07 0.343456 -8.0737 0
M  V30 13231 H 1249.66 0.860884 -5.75396 0
M  V30 13232 H 1248.54 0.168703 -7.84019 0
M  V30 13233 N 1246.04 1.3432 0.824371 0
M  V30 13234 C 1246.99 1.25776 1.93517 0
M  V30 13235 C 1247.96 0.133298 1.65564 0
M  V30 13236 O 1249.14 0.31403 1.88198 0
M  V30 13237 C 1246.28 1.01766 3.29754 0
M  V30 13238 C 1245.39 2.22973 3.7001 0
M  V30 13239 C 1244.53 1.92258 4.95187 0
M  V30 13240 C 1243.57 3.09616 5.2802 0
M  V30 13241 N 1242.7 2.78793 6.44375 0
M  V30 13242 H 1247.54 2.20774 2.00157 0
M  V30 13243 H 1245.08 1.09766 0.979274 0
M  V30 13244 H 1247.04 0.858831 4.08265 0
M  V30 13245 H 1245.67 0.10437 3.22631 0
M  V30 13246 H 1244.72 2.49781 2.86903 0
M  V30 13247 H 1246.03 3.10661 3.90245 0
M  V30 13248 H 1245.19 1.73102 5.81481 0
M  V30 13249 H 1243.93 1.01827 4.76951 0
M  V30 13250 H 1242.93 3.29368 4.40223 0
M  V30 13251 H 1244.16 4.00822 5.48196 0
M  V30 13252 H 1242.1 1.90938 6.27598 0
M  V30 13253 H 1242.02 3.60014 6.64775 0
M  V30 13254 H 1243.29 2.63139 7.33743 0
M  V30 13255 N 1247.52 -1.0444 1.18026 0
M  V30 13256 C 1248.45 -2.14297 0.927314 0
M  V30 13257 C 1249.43 -1.69575 -0.13357 0
M  V30 13258 O 1250.61 -1.94191 0.0182439 0
M  V30 13259 C 1247.74 -3.44397 0.448134 0
M  V30 13260 C 1246.7 -4.02723 1.44907 0
M  V30 13261 C 1246.02 -5.28257 0.827555 0
M  V30 13262 C 1247.32 -4.39331 2.82463 0
M  V30 13263 H 1249.02 -2.35715 1.84605 0
M  V30 13264 H 1246.56 -1.13281 0.889012 0
M  V30 13265 H 1248.52 -4.20606 0.258554 0
M  V30 13266 H 1247.24 -3.22654 -0.506159 0
M  V30 13267 H 1245.9 -3.28591 1.62552 0
M  V30 13268 H 1245.55 -5.02822 -0.13381 0
M  V30 13269 H 1245.25 -5.68242 1.49581 0
M  V30 13270 H 1246.77 -6.07147 0.64842 0
M  V30 13271 H 1248.18 -5.06543 2.68491 0
M  V30 13272 H 1246.58 -4.90355 3.45936 0
M  V30 13273 H 1247.65 -3.4933 3.36299 0
M  V30 13274 N 1248.99 -0.981699 -1.2329 0
M  V30 13275 C 1250.41 -0.690539 -1.43888 0
M  V30 13276 C 1250.61 0.742816 -1.87309 0
M  V30 13277 O 1249.67 1.5151 -2.01993 0
M  V30 13278 C 1250.98 -1.68657 -2.48948 0
M  V30 13279 C 1252.53 -1.70076 -2.62761 0
M  V30 13280 C 1253 -2.68513 -3.71032 0
M  V30 13281 N 1254.49 -2.67039 -3.78476 0
M  V30 13282 C 1255.23 -3.39874 -4.61815 0
M  V30 13283 N 1254.72 -4.22273 -5.49233 0
M  V30 13284 N 1256.52 -3.28633 -4.56023 0
M  V30 13285 H 1248.67 -1.90758 -0.934077 0
M  V30 13286 H 1250.93 -0.822058 -0.472149 0
M  V30 13287 H 1250.64 -2.7117 -2.23964 0
M  V30 13288 H 1250.51 -1.47045 -3.47358 0
M  V30 13289 H 1252.9 -0.682673 -2.87095 0
M  V30 13290 H 1252.98 -1.95754 -1.64663 0
M  V30 13291 H 1252.62 -3.70464 -3.47446 0
M  V30 13292 H 1252.55 -2.40109 -4.68674 0
M  V30 13293 H 1255.04 -2.07241 -3.16006 0
M  V30 13294 H 1255.36 -4.74702 -6.09818 0
M  V30 13295 H 1253.7 -4.26364 -5.48852 0
M  V30 13296 H 1256.89 -2.6371 -3.86749 0
M  V30 13297 H 1257.07 -3.85656 -5.20743 0
M  V30 13298 N 1250.47 1.3842 -0.753509 0
M  V30 13299 C 1251.72 2.00119 -0.309633 0
M  V30 13300 C 1252.05 1.59811 1.10863 0
M  V30 13301 O 1251.3 0.827013 1.77367 0
M  V30 13302 C 1251.6 3.55375 -0.379937 0
M  V30 13303 C 1251.27 4.15393 -1.75384 0
M  V30 13304 C 1249.93 4.31499 -2.12984 0
M  V30 13305 C 1252.28 4.48503 -2.65508 0
M  V30 13306 C 1249.61 4.78011 -3.4018 0
M  V30 13307 C 1251.96 4.96431 -3.92095 0
M  V30 13308 C 1250.63 5.10744 -4.29764 0
M  V30 13309 H 1249.9 0.732286 -0.113303 0
M  V30 13310 H 1252.54 1.65468 -0.963975 0
M  V30 13311 H 1250.85 3.90161 0.357969 0
M  V30 13312 H 1252.54 4.00996 -0.0180738 0
M  V30 13313 H 1249.13 4.03271 -1.45156 0
M  V30 13314 H 1253.32 4.35661 -2.37724 0
M  V30 13315 H 1248.57 4.87277 -3.69284 0
M  V30 13316 H 1252.75 5.21021 -4.62072 0
M  V30 13317 H 1250.38 5.46545 -5.28387 0
M  V30 13318 N 1251.95 0.502579 1.49372 0
M  V30 13319 C 1253.19 -0.0397257 2.04361 0
M  V30 13320 C 1253.55 -1.34131 1.37379 0
M  V30 13321 O 1254.76 -1.96795 1.83099 0
M  V30 13322 C 1253.03 -0.187322 3.56909 0
M  V30 13323 S 1254.59 -0.683647 4.33442 0
M  V30 13324 H 1251.4 -0.00102134 0.710999 0
M  V30 13325 H 1254.01 0.676905 1.83407 0
M  V30 13326 H 1252.71 0.765255 4.03202 0
M  V30 13327 H 1252.24 -0.929146 3.8227 0
M  V30 13328 H 1254.26 -1.95255 4.56169 0
M  V30 13329 N 1253.43 -1.55816 0.23648 0
M  V30 13330 C 1254.68 -1.98686 -0.391146 0
M  V30 13331 C 1255 -1.12443 -1.58703 0
M  V30 13332 O 1254.26 -0.172805 -1.94936 0
M  V30 13333 C 1254.56 -3.47039 -0.85434 0
M  V30 13334 C 1254.22 -4.50299 0.232651 0
M  V30 13335 C 1252.89 -4.78259 0.531218 0
M  V30 13336 C 1255.24 -5.1215 0.967027 0
M  V30 13337 C 1252.57 -5.65347 1.56842 0
M  V30 13338 C 1254.92 -6.00363 1.99367 0
M  V30 13339 C 1253.58 -6.2666 2.299 0
M  V30 13340 H 1252.85 -0.727045 -0.14313 0
M  V30 13341 H 1255.5 -1.88419 0.342125 0
M  V30 13342 H 1253.8 -3.54585 -1.66663 0
M  V30 13343 H 1255.5 -3.7759 -1.35005 0
M  V30 13344 H 1252.09 -4.28599 -0.0102014 0
M  V30 13345 H 1256.27 -4.90606 0.749609 0
M  V30 13346 H 1251.53 -5.83981 1.81043 0
M  V30 13347 H 1255.7 -6.47335 2.56769 0
M  V30 13348 H 1253.33 -6.93938 3.1041 0
M  V30 13349 N 1254.91 0.036755 -1.57557 0
M  V30 13350 C 1256.13 0.741086 -1.93172 0
M  V30 13351 C 1256.55 1.69303 -0.835589 0
M  V30 13352 O 1255.91 1.81523 0.1886 0
M  V30 13353 C 1255.96 1.50477 -3.28693 0
M  V30 13354 O 1255.68 0.591046 -4.34095 0
M  V30 13355 C 1257.18 2.30695 -3.78543 0
M  V30 13356 H 1254.4 0.208731 -0.637709 0
M  V30 13357 H 1256.94 -0.00342776 -2.045 0
M  V30 13358 H 1255.1 2.20123 -3.18786 0
M  V30 13359 H 1255.51 1.12579 -5.12276 0
M  V30 13360 H 1256.99 2.79685 -4.759 0
M  V30 13361 H 1257.46 3.11778 -3.0934 0
M  V30 13362 H 1258.07 1.66138 -3.91508 0
M  V30 13363 N 1256.39 1.54543 0.308881 0
M  V30 13364 C 1257.63 1.73107 1.043 0
M  V30 13365 C 1257.95 0.515481 1.88063 0
M  V30 13366 O 1257.22 -0.47036 1.90169 0
M  V30 13367 H 1255.8 0.638289 0.388068 0
M  V30 13368 H 1258.47 1.9188 0.341769 0
M  V30 13369 H 1257.56 2.61697 1.70063 0
M  V30 13370 N 1257.86 -0.571685 1.46866 0
M  V30 13371 C 1259.11 -1.33145 1.52972 0
M  V30 13372 C 1259.44 -1.93314 0.185344 0
M  V30 13373 O 1258.72 -1.77083 -0.80447 0
M  V30 13374 C 1259 -2.4525 2.63675 0
M  V30 13375 C 1258.85 -1.90044 4.0768 0
M  V30 13376 C 1260.17 -3.47247 2.70384 0
M  V30 13377 H 1257.29 -0.482751 0.556885 0
M  V30 13378 H 1259.93 -0.641163 1.78855 0
M  V30 13379 H 1258.08 -3.04132 2.41735 0
M  V30 13380 H 1259.76 -1.35535 4.4094 0
M  V30 13381 H 1258 -1.20805 4.1664 0
M  V30 13382 H 1258.67 -2.71019 4.80887 0
M  V30 13383 H 1261.15 -2.98263 2.90135 0
M  V30 13384 H 1260.02 -4.23132 3.49643 0
M  V30 13385 H 1260.28 -4.05179 1.76868 0
M  V30 13386 N 1259.34 -1.34755 -0.817236 0
M  V30 13387 C 1260.58 -1.28786 -1.58725 0
M  V30 13388 C 1260.95 0.138807 -1.91498 0
M  V30 13389 O 1262.15 0.322743 -2.66855 0
M  V30 13390 C 1260.42 -2.15907 -2.84814 0
M  V30 13391 S 1261.98 -2.27347 -3.75311 0
M  V30 13392 H 1258.79 -0.457844 -0.543967 0
M  V30 13393 H 1261.4 -1.70031 -0.96487 0
M  V30 13394 H 1260.1 -3.18559 -2.58744 0
M  V30 13395 H 1259.63 -1.7558 -3.52044 0
M  V30 13396 H 1261.65 -1.45044 -4.74528 0
M  V30 13397 N 1260.82 1.03812 -1.18578 0
M  V30 13398 C 1262.04 1.8124 -1.00831 0
M  V30 13399 C 1262.47 1.82917 0.43853 0
M  V30 13400 O 1261.83 1.24835 1.31476 0
M  V30 13401 C 1261.88 3.24592 -1.57075 0
M  V30 13402 O 1260.98 4.04688 -0.793824 0
M  V30 13403 H 1260.32 0.559846 -0.357028 0
M  V30 13404 H 1262.85 1.30724 -1.57393 0
M  V30 13405 H 1262.86 3.75363 -1.59896 0
M  V30 13406 H 1261.54 3.22686 -2.62387 0
M  V30 13407 H 1260.11 3.63359 -0.838134 0
M  V30 13408 N 1262.3 0.988223 1.22768 0
M  V30 13409 C 1263.57 0.577578 1.86878 0
M  V30 13410 C 1263.95 -0.945197 1.88757 0
M  V30 13411 O 1263.3 -1.82519 1.37474 0
M  V30 13412 C 1263.51 1.19263 3.2799 0
M  V30 13413 C 1264.86 1.29024 4.04522 0
M  V30 13414 O 1265.88 1.14667 3.37239 0
M  V30 13415 O 1264.74 1.51949 5.24951 0
M  V30 13416 H 1261.84 0.195579 0.803541 0
M  V30 13417 H 1264.38 1.0838 1.30582 0
M  V30 13418 H 1263.16 2.23442 3.21231 0
M  V30 13419 H 1262.78 0.671706 3.91885 0
M  V30 13420 N 1263.78 -1.38018 0.760839 0
M  V30 13421 C 1265.19 -1.53437 0.439239 0
M  V30 13422 C 1265.39 -1.72184 -1.04666 0
M  V30 13423 O 1264.45 -1.73698 -1.83263 0
M  V30 13424 C 1265.76 -2.73724 1.24481 0
M  V30 13425 C 1267.31 -2.87579 1.23561 0
M  V30 13426 C 1267.78 -4.10836 2.02429 0
M  V30 13427 N 1269.27 -4.17928 1.99727 0
M  V30 13428 C 1270.01 -5.12309 2.57541 0
M  V30 13429 N 1269.51 -6.12317 3.24098 0
M  V30 13430 N 1271.3 -5.04712 2.47431 0
M  V30 13431 H 1263.45 -1.241 1.72375 0
M  V30 13432 H 1265.71 -0.603427 0.73115 0
M  V30 13433 H 1265.42 -2.663 2.29732 0
M  V30 13434 H 1265.29 -3.67111 0.866579 0
M  V30 13435 H 1267.68 -2.9448 0.191122 0
M  V30 13436 H 1267.76 -1.95183 1.6534 0
M  V30 13437 H 1267.4 -4.04696 3.06893 0
M  V30 13438 H 1267.33 -5.02326 1.58039 0
M  V30 13439 H 1269.83 -3.46307 1.51262 0
M  V30 13440 H 1270.14 -6.80842 3.65615 0
M  V30 13441 H 1268.48 -6.12628 3.28195 0
M  V30 13442 H 1271.67 -4.25524 1.95057 0
M  V30 13443 H 1271.85 -5.78085 2.92783 0
M  V30 13444 N 1265.25 -0.510493 -1.49103 0
M  V30 13445 C 1266.66 -0.0650831 -1.86587 0
M  V30 13446 C 1267.02 1.35185 -1.42195 0
M  V30 13447 O 1266.14 2.0091 -0.804004 0
M  V30 13448 C 1266.74 -0.111333 -3.38617 0
M  V30 13449 C 1265.29 0.278782 -3.75366 0
M  V30 13450 C 1264.44 -0.479707 -2.73119 0
M  V30 13451 H 1267.39 -0.722784 -1.41285 0
M  V30 13452 H 1267.41 0.681706 -3.74343 0
M  V30 13453 H 1266.93 -1.14271 -3.70896 0
M  V30 13454 H 1265.03 1.31304 -3.48698 0
M  V30 13455 H 1265.14 -0.047271 -4.79077 0
M  V30 13456 H 1263.5 0.0716459 -2.54599 0
M  V30 13457 H 1264.29 -1.51135 -3.08242 0
M  V30 13458 N 1266.73 1.55688 -0.24474 0
M  V30 13459 C 1267.98 1.98498 0.379852 0
M  V30 13460 C 1268.3 1.13416 1.58625 0
M  V30 13461 O 1267.57 0.216456 1.947 0
M  V30 13462 H 1266.15 0.73312 0.143334 0
M  V30 13463 H 1268.81 1.91858 -0.343027 0
M  V30 13464 H 1267.91 3.04367 0.690463 0
M  V30 13465 N 1268.21 -0.0283989 1.57574 0
M  V30 13466 C 1269.14 -1.02828 2.09639 0
M  V30 13467 C 1270.12 -1.37668 0.999076 0
M  V30 13468 O 1271.31 -1.4654 1.27435 0
M  V30 13469 C 1268.44 -2.329 2.57633 0
M  V30 13470 C 1267.39 -2.12301 3.71635 0
M  V30 13471 C 1266.72 -3.48138 4.05837 0
M  V30 13472 C 1268.02 -1.50864 5.00037 0
M  V30 13473 H 1269.71 -0.594876 2.93431 0
M  V30 13474 H 1267.26 -0.284701 1.41158 0
M  V30 13475 H 1269.21 -3.03179 2.92678 0
M  V30 13476 H 1267.93 -2.78302 1.70926 0
M  V30 13477 H 1266.59 -1.44454 3.3694 0
M  V30 13478 H 1266.24 -3.9119 3.16195 0
M  V30 13479 H 1265.94 -3.3518 4.82626 0
M  V30 13480 H 1267.46 -4.19779 4.43417 0
M  V30 13481 H 1268.88 -2.11062 5.33035 0
M  V30 13482 H 1267.27 -1.48479 5.81441 0
M  V30 13483 H 1268.34 -0.474541 4.82572 0
M  V30 13484 N 1269.69 -1.54705 -0.300681 0
M  V30 13485 C 1270.62 -1.88679 -1.37559 0
M  V30 13486 C 1271.6 -0.74574 -1.52881 0
M  V30 13487 O 1272.78 -1.0015 -1.66384 0
M  V30 13488 C 1269.91 -2.13438 -2.73974 0
M  V30 13489 C 1268.87 -3.29284 -2.73415 0
M  V30 13490 C 1268.19 -3.39462 -4.13122 0
M  V30 13491 C 1269.49 -4.66382 -2.35128 0
M  V30 13492 H 1271.19 -2.78707 -1.09373 0
M  V30 13493 H 1268.73 -1.341 -0.524704 0
M  V30 13494 H 1270.69 -2.35791 -3.49257 0
M  V30 13495 H 1269.41 -1.20181 -3.03684 0
M  V30 13496 H 1268.07 -3.06855 -2.00588 0
M  V30 13497 H 1267.72 -2.43721 -4.4001 0
M  V30 13498 H 1267.42 -4.17334 -4.1365 0
M  V30 13499 H 1268.94 -3.64075 -4.90185 0
M  V30 13500 H 1270.36 -4.88463 -3.00128 0
M  V30 13501 H 1268.75 -5.4697 -2.46867 0
M  V30 13502 H 1269.82 -4.67078 -1.30256 0
M  V30 13503 N 1271.17 0.563888 -1.47167 0
M  V30 13504 C 1272.41 1.32136 -1.53448 0
M  V30 13505 C 1272.74 1.9353 -0.19396 0
M  V30 13506 O 1272 1.78038 0.812456 0
M  V30 13507 C 1272.3 2.45678 -2.59571 0
M  V30 13508 C 1271.96 2.02157 -4.03043 0
M  V30 13509 C 1270.62 1.90003 -4.421 0
M  V30 13510 C 1272.98 1.68846 -4.93093 0
M  V30 13511 C 1270.3 1.42825 -5.6905 0
M  V30 13512 C 1272.66 1.2314 -6.20499 0
M  V30 13513 C 1271.32 1.09578 -6.58444 0
M  V30 13514 H 1270.59 0.483519 -0.561507 0
M  V30 13515 H 1273.24 0.633042 -1.80734 0
M  V30 13516 H 1271.54 3.20037 -2.26017 0
M  V30 13517 H 1273.24 3.03871 -2.61655 0
M  V30 13518 H 1269.83 2.12557 -3.7218 0
M  V30 13519 H 1274.01 1.77111 -4.63622 0
M  V30 13520 H 1269.27 1.30983 -5.97205 0
M  V30 13521 H 1273.44 0.964247 -6.89692 0
M  V30 13522 H 1271.07 0.727975 -7.56706 0
M  V30 13523 N 1272.64 1.35187 0.810078 0
M  V30 13524 C 1273.87 1.31528 1.60359 0
M  V30 13525 C 1274.29 -0.105385 1.87805 0
M  V30 13526 O 1273.65 -1.07113 1.46276 0
M  V30 13527 C 1273.7 2.12429 2.91386 0
M  V30 13528 O 1272.8 1.50262 3.84051 0
M  V30 13529 H 1272.15 0.451122 0.487222 0
M  V30 13530 H 1274.68 1.78178 1.00568 0
M  V30 13531 H 1274.69 2.24257 3.40841 0
M  V30 13532 H 1273.36 3.15714 2.70735 0
M  V30 13533 H 1271.94 1.47253 3.42594 0
M  V30 13534 N 1274.12 -1.03182 1.19127 0
M  V30 13535 C 1275.37 -1.75934 0.986415 0
M  V30 13536 C 1275.68 -1.89519 -0.48392 0
M  V30 13537 O 1276.89 -2.59213 -0.80752 0
M  V30 13538 C 1275.35 -3.16358 1.71597 0
M  V30 13539 C 1274.95 -3.10836 3.22622 0
M  V30 13540 C 1276.7 -3.93426 1.59425 0
M  V30 13541 C 1274.61 -4.46174 3.88179 0
M  V30 13542 H 1273.54 -0.659516 0.365451 0
M  V30 13543 H 1276.19 -1.15497 1.42593 0
M  V30 13544 H 1274.57 -3.77245 1.20426 0
M  V30 13545 H 1275.74 -2.59348 3.80887 0
M  V30 13546 H 1274.06 -2.47266 3.35035 0
M  V30 13547 H 1276.65 -4.93526 2.05757 0
M  V30 13548 H 1277 -4.12678 0.547926 0
M  V30 13549 H 1277.53 -3.39134 2.07925 0
M  V30 13550 H 1274.27 -4.32126 4.92897 0
M  V30 13551 H 1273.79 -4.97729 3.34702 0
M  V30 13552 H 1275.47 -5.15066 3.91556 0
M  V30 13553 N 1275.6 -0.99472 -1.22242 0
M  V30 13554 C 1276.83 -0.689809 -1.95592 0
M  V30 13555 C 1277.25 0.739321 -1.72961 0
M  V30 13556 O 1276.61 1.50563 -1.00997 0
M  V30 13557 C 1276.66 -1.00367 -3.46351 0
M  V30 13558 O 1275.76 -0.103326 -4.12271 0
M  V30 13559 H 1275.1 -0.257997 -0.611828 0
M  V30 13560 H 1277.63 -1.33219 -1.55286 0
M  V30 13561 H 1277.64 -0.946259 -3.96875 0
M  V30 13562 H 1276.32 -2.04504 -3.62148 0
M  V30 13563 H 1274.89 -0.216374 -3.72272 0
M  V30 13564 N 1277.08 1.37613 -0.768148 0
M  V30 13565 C 1278.49 1.53202 -0.44737 0
M  V30 13566 C 1278.69 1.72736 1.03752 0
M  V30 13567 O 1277.75 1.74667 1.8234 0
M  V30 13568 C 1279.06 2.7306 -1.25931 0
M  V30 13569 C 1280.61 2.8692 -1.25084 0
M  V30 13570 C 1281.09 4.09757 -2.04605 0
M  V30 13571 N 1282.58 4.16862 -2.0194 0
M  V30 13572 C 1283.31 5.10936 -2.60254 0
M  V30 13573 N 1282.81 6.1059 -3.27341 0
M  V30 13574 N 1284.6 5.03393 -2.50104 0
M  V30 13575 H 1276.75 1.23184 -1.7303 0
M  V30 13576 H 1279.02 0.599541 -0.73434 0
M  V30 13577 H 1278.72 2.65078 -2.31141 0
M  V30 13578 H 1278.6 3.66646 -0.886036 0
M  V30 13579 H 1280.98 2.94375 -0.206736 0
M  V30 13580 H 1281.06 1.94303 -1.66373 0
M  V30 13581 H 1280.71 4.03063 -3.09035 0
M  V30 13582 H 1280.64 5.01481 -1.60701 0
M  V30 13583 H 1283.13 3.455 -1.53096 0
M  V30 13584 H 1283.44 6.78893 -3.6922 0
M  V30 13585 H 1281.79 6.10879 -3.31439 0
M  V30 13586 H 1284.98 4.24483 -1.9731 0
M  V30 13587 H 1285.15 5.76524 -2.95844 0
M  V30 13588 N 1278.56 0.518393 1.4883 0
M  V30 13589 C 1279.8 -0.019866 2.0209 0
M  V30 13590 C 1280.13 -1.35863 1.3988 0
M  V30 13591 O 1279.4 -1.87722 0.560117 0
M  V30 13592 H 1277.98 -0.0103306 0.746929 0
M  V30 13593 H 1280.64 0.679591 1.82668 0
M  V30 13594 H 1279.73 -0.136749 3.118 0
M  V30 13595 N 1280.03 -1.55556 0.252993 0
M  V30 13596 C 1281.28 -1.98267 -0.370571 0
M  V30 13597 C 1281.6 -1.14449 -1.58622 0
M  V30 13598 O 1282.8 -1.472 -2.28132 0
M  V30 13599 C 1281.26 -3.52813 -0.710685 0
M  V30 13600 C 1280.87 -4.45379 0.483908 0
M  V30 13601 C 1282.61 -4.04165 -1.2981 0
M  V30 13602 C 1280.52 -5.91279 0.119611 0
M  V30 13603 H 1279.45 -0.740463 -0.142232 0
M  V30 13604 H 1282.1 -1.8005 0.354169 0
M  V30 13605 H 1280.48 -3.66748 -1.49372 0
M  V30 13606 H 1281.65 -4.43206 1.26116 0
M  V30 13607 H 1279.97 -4.04542 0.986664 0
M  V30 13608 H 1282.57 -5.10696 -1.5841 0
M  V30 13609 H 1282.91 -3.51875 -2.22462 0
M  V30 13610 H 1283.44 -3.93581 -0.577836 0
M  V30 13611 H 1280.18 -6.47619 1.01343 0
M  V30 13612 H 1279.7 -5.96573 -0.621318 0
M  V30 13613 H 1281.38 -6.46322 -0.296052 0
M  V30 13614 N 1281.51 0.0200419 -1.57587 0
M  V30 13615 C 1282.74 0.719511 -1.93666 0
M  V30 13616 C 1283.15 1.68934 -0.85193 0
M  V30 13617 O 1282.49 1.8282 0.179593 0
M  V30 13618 C 1282.56 1.52382 -3.25607 0
M  V30 13619 C 1282.22 0.717784 -4.51328 0
M  V30 13620 C 1283.22 0.0141272 -5.19898 0
M  V30 13621 C 1280.9 0.669662 -4.97816 0
M  V30 13622 C 1282.9 -0.726853 -6.33242 0
M  V30 13623 C 1280.58 -0.0750577 -6.11054 0
M  V30 13624 C 1281.58 -0.772067 -6.78622 0
M  V30 13625 O 1281.27 -1.50468 -7.89693 0
M  V30 13626 H 1281 0.206681 -0.643629 0
M  V30 13627 H 1283.55 -0.0211203 -2.05389 0
M  V30 13628 H 1281.78 2.30848 -3.10236 0
M  V30 13629 H 1283.47 2.10675 -3.46945 0
M  V30 13630 H 1284.24 0.0422784 -4.84982 0
M  V30 13631 H 1280.12 1.20169 -4.45062 0
M  V30 13632 H 1283.66 -1.27143 -6.85916 0
M  V30 13633 H 1279.56 -0.1051 -6.45414 0
M  V30 13634 H 1280.33 -1.41929 -8.06101 0
M  V30 13635 N 1282.99 1.54862 0.292472 0
M  V30 13636 C 1284.22 1.78877 1.04966 0
M  V30 13637 C 1284.64 0.550724 1.79857 0
M  V30 13638 O 1284 -0.499054 1.74296 0
M  V30 13639 C 1284.05 3.00106 1.99922 0
M  V30 13640 O 1283.15 2.73827 3.0837 0
M  V30 13641 H 1282.49 0.591802 0.301108 0
M  V30 13642 H 1285.02 2.01965 0.3273 0
M  V30 13643 H 1285.03 3.28309 2.42233 0
M  V30 13644 H 1283.71 3.89872 1.44821 0
M  V30 13645 H 1282.28 2.56665 2.70513 0
M  V30 13646 N 1284.47 -0.556076 1.47464 0
M  V30 13647 C 1285.71 -1.32397 1.55726 0
M  V30 13648 C 1286.07 -1.90793 0.214956 0
M  V30 13649 O 1287.27 -2.68246 0.172429 0
M  V30 13650 C 1285.54 -2.40358 2.64505 0
M  V30 13651 S 1287.1 -3.27219 2.92358 0
M  V30 13652 H 1283.92 -0.450713 0.549889 0
M  V30 13653 H 1286.52 -0.636471 1.84849 0
M  V30 13654 H 1285.23 -1.95893 3.6063 0
M  V30 13655 H 1284.76 -3.13847 2.372 0
M  V30 13656 H 1286.77 -4.39854 2.29659 0
M  V30 13657 N 1285.95 -1.35615 -0.802897 0
M  V30 13658 C 1287.2 -1.28428 -1.55528 0
M  V30 13659 C 1287.51 0.138275 -1.95111 0
M  V30 13660 O 1288.72 0.332435 -2.69457 0
M  V30 13661 C 1287.17 -2.25251 -2.80696 0
M  V30 13662 C 1286.78 -3.72871 -2.48336 0
M  V30 13663 C 1288.52 -2.27014 -3.58699 0
M  V30 13664 C 1286.43 -4.61507 -3.69817 0
M  V30 13665 H 1285.36 -0.47718 -0.583794 0
M  V30 13666 H 1288.01 -1.609 -0.882238 0
M  V30 13667 H 1286.39 -1.85755 -3.4973 0
M  V30 13668 H 1287.57 -4.21024 -1.87285 0
M  V30 13669 H 1285.88 -3.73752 -1.83571 0
M  V30 13670 H 1288.48 -2.90451 -4.48935 0
M  V30 13671 H 1288.82 -1.27491 -3.96298 0
M  V30 13672 H 1289.36 -2.65058 -2.9663 0
M  V30 13673 H 1286.09 -5.62043 -3.37324 0
M  V30 13674 H 1285.61 -4.18079 -4.30081 0
M  V30 13675 H 1287.29 -4.77113 -4.37004 0
M  V30 13676 N 1287.43 1.02549 -1.19673 0
M  V30 13677 C 1288.38 2.09257 -0.905282 0
M  V30 13678 C 1289.36 1.60363 0.131302 0
M  V30 13679 O 1290.55 1.76842 -0.0748563 0
M  V30 13680 C 1287.68 3.40345 -0.449474 0
M  V30 13681 C 1286.77 3.95964 -1.51899 0
M  V30 13682 N 1287.16 4.25203 -2.73926 0
M  V30 13683 C 1285.46 4.24013 -1.38307 0
M  V30 13684 C 1286.16 4.69925 -3.42849 0
M  V30 13685 N 1285.13 4.71664 -2.70248 0
M  V30 13686 H 1288.93 2.29761 -1.83268 0
M  V30 13687 H 1286.45 1.2044 -1.0894 0
M  V30 13688 H 1288.45 4.16308 -0.222121 0
M  V30 13689 H 1287.11 3.2126 0.471402 0
M  V30 13690 H 1288.12 4.14381 -3.10658 0
M  V30 13691 H 1284.79 4.14174 -0.52592 0
M  V30 13692 H 1286.18 5.01442 -4.4722 0
M  V30 13693 N 1288.9 1.00119 1.21713 0
M  V30 13694 C 1290.15 0.680377 1.90303 0
M  V30 13695 C 1290.47 -0.790927 1.7824 0
M  V30 13696 O 1289.74 -1.5676 1.17486 0
M  V30 13697 H 1288.32 0.248665 0.704397 0
M  V30 13698 H 1290.98 1.26948 1.47886 0
M  V30 13699 H 1290.08 0.950188 2.97284 0
M  V30 13700 N 1290.38 -1.37203 0.775435 0
M  V30 13701 C 1291.63 -1.99897 0.341936 0
M  V30 13702 C 1291.96 -1.61414 -1.07978 0
M  V30 13703 O 1291.24 -0.862108 -1.7435 0
M  V30 13704 C 1291.52 -3.56755 0.489715 0
M  V30 13705 C 1291.37 -4.05135 1.95411 0
M  V30 13706 C 1292.69 -4.39978 -0.103779 0
M  V30 13707 H 1289.81 -0.726199 0.125717 0
M  V30 13708 H 1292.45 -1.62826 0.979167 0
M  V30 13709 H 1290.6 -3.88464 -0.0527684 0
M  V30 13710 H 1292.27 -3.83975 2.55658 0
M  V30 13711 H 1290.52 -3.57192 2.46164 0
M  V30 13712 H 1291.19 -5.14161 2.00855 0
M  V30 13713 H 1293.66 -4.14547 0.359134 0
M  V30 13714 H 1292.54 -5.48892 0.0297337 0
M  V30 13715 H 1292.8 -4.25658 -1.19448 0
M  V30 13716 N 1291.86 -0.526279 -1.48553 0
M  V30 13717 C 1292.81 0.258285 -2.26532 0
M  V30 13718 C 1293.79 0.913187 -1.32475 0
M  V30 13719 O 1294.99 0.816606 -1.57037 0
M  V30 13720 C 1292.11 1.30686 -3.17452 0
M  V30 13721 C 1291.2 0.656933 -4.18981 0
M  V30 13722 N 1291.59 -0.255186 -5.05156 0
M  V30 13723 C 1289.89 0.914575 -4.36522 0
M  V30 13724 C 1290.59 -0.629753 -5.78281 0
M  V30 13725 N 1289.57 0.00829904 -5.43599 0
M  V30 13726 H 1293.37 -0.44348 -2.90535 0
M  V30 13727 H 1290.88 -0.344054 -1.58714 0
M  V30 13728 H 1292.88 1.8826 -3.71973 0
M  V30 13729 H 1291.54 2.01004 -2.55005 0
M  V30 13730 H 1292.55 -0.627564 -5.14084 0
M  V30 13731 H 1289.23 1.6086 -3.85266 0
M  V30 13732 H 1290.62 -1.37746 -6.57629 0
M  V30 13733 N 1293.34 1.5542 -0.261239 0
M  V30 13734 C 1294.59 1.9846 0.360052 0
M  V30 13735 C 1294.9 1.15288 1.58013 0
M  V30 13736 O 1296.11 1.48408 2.27348 0
M  V30 13737 C 1294.56 3.53185 0.691964 0
M  V30 13738 C 1294.17 4.45116 -0.507521 0
M  V30 13739 C 1295.91 4.04848 1.27665 0
M  V30 13740 C 1293.82 5.91207 -0.150966 0
M  V30 13741 H 1292.75 0.741207 0.138303 0
M  V30 13742 H 1295.4 1.79859 -0.363712 0
M  V30 13743 H 1293.78 3.67535 1.47425 0
M  V30 13744 H 1294.96 4.42531 -1.28465 0
M  V30 13745 H 1293.27 4.04013 -1.0081 0
M  V30 13746 H 1295.87 5.11529 1.55699 0
M  V30 13747 H 1296.21 3.5305 2.20593 0
M  V30 13748 H 1296.75 3.93882 0.556955 0
M  V30 13749 H 1293.48 6.47072 -1.04776 0
M  V30 13750 H 1293 5.96894 0.589671 0
M  V30 13751 H 1294.68 6.4647 0.261772 0
M  V30 13752 N 1294.82 -0.0116844 1.57596 0
M  V30 13753 C 1295.73 -1.02342 2.111 0
M  V30 13754 C 1296.74 -1.38478 1.05355 0
M  V30 13755 O 1297.92 -1.47447 1.37191 0
M  V30 13756 C 1294.98 -2.30016 2.5941 0
M  V30 13757 C 1294.04 -2.003 3.79708 0
M  V30 13758 C 1293.28 -3.21888 4.25704 0
M  V30 13759 O 1293.5 -4.33171 3.71106 0
M  V30 13760 O 1292.43 -3.0657 5.17975 0
M  V30 13761 H 1296.26 -0.598637 2.97742 0
M  V30 13762 H 1293.84 -0.229779 1.47622 0
M  V30 13763 H 1295.73 -3.05044 2.90733 0
M  V30 13764 H 1294.4 -2.71755 1.75871 0
M  V30 13765 H 1293.31 -1.22785 3.53376 0
M  V30 13766 H 1294.64 -1.63406 4.64284 0
M  V30 13767 N 1296.29 -1.55015 -0.284256 0
M  V30 13768 C 1297.2 -1.90203 -1.37332 0
M  V30 13769 C 1298.22 -0.797994 -1.54622 0
M  V30 13770 O 1299.4 -1.09602 -1.68965 0
M  V30 13771 C 1296.46 -2.15687 -2.71441 0
M  V30 13772 C 1295.52 -3.39313 -2.62993 0
M  V30 13773 C 1294.75 -3.63571 -3.90707 0
M  V30 13774 O 1294.98 -2.90538 -4.9086 0
M  V30 13775 O 1293.91 -4.57102 -3.91589 0
M  V30 13776 H 1297.74 -2.82888 -1.1049 0
M  V30 13777 H 1295.32 -1.41418 -0.481798 0
M  V30 13778 H 1297.2 -2.33553 -3.50758 0
M  V30 13779 H 1295.88 -1.26185 -2.98092 0
M  V30 13780 H 1294.79 -3.26793 -1.82091 0
M  V30 13781 H 1296.12 -4.28997 -2.41293 0
M  V30 13782 N 1297.77 0.548248 -1.47757 0
M  V30 13783 C 1298.72 1.65453 -1.60916 0
M  V30 13784 C 1299.69 1.59836 -0.451831 0
M  V30 13785 O 1300.87 1.78536 -0.673023 0
M  V30 13786 C 1298.01 3.0376 -1.6378 0
M  V30 13787 C 1297.13 3.19747 -2.90492 0
M  V30 13788 C 1296.26 4.48505 -2.84635 0
M  V30 13789 C 1295.3 4.57956 -4.06132 0
M  V30 13790 N 1294.44 5.78079 -3.98458 0
M  V30 13791 H 1299.28 1.53545 -2.55398 0
M  V30 13792 H 1296.81 0.747826 -1.26673 0
M  V30 13793 H 1298.77 3.8386 -1.63424 0
M  V30 13794 H 1297.4 3.14483 -0.728036 0
M  V30 13795 H 1296.45 2.3302 -3.00676 0
M  V30 13796 H 1297.77 3.22594 -3.8044 0
M  V30 13797 H 1296.92 5.36875 -2.82577 0
M  V30 13798 H 1295.66 4.48151 -1.92385 0
M  V30 13799 H 1294.66 3.67995 -4.08484 0
M  V30 13800 H 1295.89 4.60062 -4.9952 0
M  V30 13801 H 1293.84 5.78657 -3.09017 0
M  V30 13802 H 1293.75 5.82342 -4.82093 0
M  V30 13803 H 1295.02 6.68786 -4.00431 0
M  V30 13804 N 1299.25 1.36039 0.795694 0
M  V30 13805 C 1300.2 1.29853 1.90806 0
M  V30 13806 C 1301.17 0.168387 1.65244 0
M  V30 13807 O 1302.35 0.353879 1.8749 0
M  V30 13808 C 1299.49 1.08737 3.27521 0
M  V30 13809 C 1298.6 2.30771 3.65197 0
M  V30 13810 C 1297.74 2.02718 4.90998 0
M  V30 13811 C 1296.78 3.20746 5.21333 0
M  V30 13812 N 1295.92 2.92399 6.38316 0
M  V30 13813 H 1300.76 2.2497 1.95429 0
M  V30 13814 H 1298.29 1.11819 0.955771 0
M  V30 13815 H 1300.25 0.945236 4.06351 0
M  V30 13816 H 1298.88 0.172781 3.22337 0
M  V30 13817 H 1297.93 2.5581 2.81541 0
M  V30 13818 H 1299.24 3.18869 3.83568 0
M  V30 13819 H 1298.4 1.85398 5.77679 0
M  V30 13820 H 1297.14 1.11921 4.74684 0
M  V30 13821 H 1296.14 3.38632 4.33138 0
M  V30 13822 H 1297.37 4.1236 5.3957 0
M  V30 13823 H 1295.31 2.04207 6.23406 0
M  V30 13824 H 1295.23 3.74034 6.56989 0
M  V30 13825 H 1296.5 2.78643 7.27996 0
M  V30 13826 N 1300.73 -1.01913 1.20215 0
M  V30 13827 C 1301.68 -2.104 0.948708 0
M  V30 13828 C 1302.65 -1.65665 -0.120139 0
M  V30 13829 O 1303.83 -1.90785 0.0240547 0
M  V30 13830 C 1300.97 -3.41398 0.504132 0
M  V30 13831 C 1300.08 -3.99625 1.64085 0
M  V30 13832 C 1299.22 -5.18673 1.14683 0
M  V30 13833 C 1298.26 -5.68977 2.2568 0
M  V30 13834 N 1297.39 -6.79289 1.77514 0
M  V30 13835 H 1302.23 -2.31415 1.87753 0
M  V30 13836 H 1299.77 -1.13487 0.935901 0
M  V30 13837 H 1301.73 -4.16578 0.22771 0
M  V30 13838 H 1300.36 -3.20463 -0.387689 0
M  V30 13839 H 1299.41 -3.21565 2.03225 0
M  V30 13840 H 1300.72 -4.32965 2.47674 0
M  V30 13841 H 1299.88 -6.01048 0.826223 0
M  V30 13842 H 1298.62 -4.86891 0.280797 0
M  V30 13843 H 1297.62 -4.85208 2.5856 0
M  V30 13844 H 1298.85 -6.02794 3.12755 0
M  V30 13845 H 1296.79 -6.49341 0.932338 0
M  V30 13846 H 1296.71 -7.11808 2.54686 0
M  V30 13847 H 1297.98 -7.65235 1.48446 0
M  V30 13848 N 1302.21 -1.00763 -1.2118 0
M  V30 13849 C 1303.43 -0.710515 -1.9485 0
M  V30 13850 C 1303.86 0.720934 -1.73736 0
M  V30 13851 O 1303.21 1.49484 -1.02588 0
M  V30 13852 C 1303.26 -1.04035 -3.45267 0
M  V30 13853 O 1302.37 -0.147047 -4.12138 0
M  V30 13854 H 1301.71 -0.264472 -0.609057 0
M  V30 13855 H 1304.24 -1.34858 -1.53865 0
M  V30 13856 H 1304.25 -0.9883 -3.95849 0
M  V30 13857 H 1302.92 -2.08334 -3.59958 0
M  V30 13858 H 1301.5 -0.255847 -3.72021 0
M  V30 13859 N 1303.68 1.3679 -0.7827 0
M  V30 13860 C 1305.1 1.82006 -0.41603 0
M  V30 13861 C 1305.45 1.65151 1.05922 0
M  V30 13862 O 1304.57 1.1687 1.82127 0
M  V30 13863 C 1305.17 3.30432 -0.748353 0
M  V30 13864 C 1303.73 3.73883 -0.4346 0
M  V30 13865 C 1302.87 2.59159 -0.986505 0
M  V30 13866 H 1305.82 1.25107 -0.976423 0
M  V30 13867 H 1305.84 3.80482 -0.036985 0
M  V30 13868 H 1305.36 3.42667 -1.82212 0
M  V30 13869 H 1303.46 3.67211 0.631401 0
M  V30 13870 H 1303.57 4.69577 -0.950511 0
M  V30 13871 H 1301.93 2.51377 -0.410108 0
M  V30 13872 H 1302.72 2.74182 -2.06589 0
M  V30 13873 N 1305.16 0.53415 1.48272 0
M  V30 13874 C 1306.44 -0.0630181 1.95498 0
M  V30 13875 C 1306.82 -1.50877 1.47646 0
M  V30 13876 O 1306.17 -2.17358 0.704829 0
M  V30 13877 C 1306.38 0.0585475 3.48951 0
M  V30 13878 C 1307.73 -0.0985978 4.24486 0
M  V30 13879 O 1308.75 -0.0150438 3.56197 0
M  V30 13880 O 1307.61 -0.274356 5.45811 0
M  V30 13881 H 1304.7 -0.0769841 0.823409 0
M  V30 13882 H 1307.25 0.599043 1.58775 0
M  V30 13883 H 1306.02 1.06549 3.76514 0
M  V30 13884 H 1305.64 -0.642175 3.9238 0
M  V30 13885 N 1306.64 -1.55279 0.269478 0
M  V30 13886 C 1307.89 -1.99471 -0.348913 0
M  V30 13887 C 1308.22 -1.15784 -1.56283 0
M  V30 13888 O 1307.47 -0.214115 -1.94525 0
M  V30 13889 C 1307.77 -3.48773 -0.780535 0
M  V30 13890 C 1307.44 -4.49705 0.328113 0
M  V30 13891 C 1306.1 -4.77024 0.632544 0
M  V30 13892 C 1308.45 -5.09984 1.07544 0
M  V30 13893 C 1305.78 -5.61893 1.68798 0
M  V30 13894 C 1308.13 -5.95999 2.12057 0
M  V30 13895 C 1306.79 -6.21642 2.4314 0
M  V30 13896 H 1306.06 -0.729918 -0.127676 0
M  V30 13897 H 1308.71 -1.87651 0.382015 0
M  V30 13898 H 1307.02 -3.5804 -1.59105 0
M  V30 13899 H 1308.71 -3.80369 -1.26966 0
M  V30 13900 H 1305.3 -4.28524 0.0807131 0
M  V30 13901 H 1309.49 -4.88906 0.853506 0
M  V30 13902 H 1304.74 -5.80009 1.93389 0
M  V30 13903 H 1308.92 -6.41743 2.70442 0
M  V30 13904 H 1306.54 -6.87198 3.25059 0
M  V30 13905 N 1308.12 0.00332656 -1.576 0
M  V30 13906 C 1309.07 1.01406 -2.09331 0
M  V30 13907 C 1310.06 1.35806 -1.01258 0
M  V30 13908 O 1311.27 1.34409 -1.19726 0
M  V30 13909 H 1307.64 0.344661 -0.668366 0
M  V30 13910 H 1309.61 0.552154 -2.93247 0
M  V30 13911 C 1308.36 2.29819 -2.60918 0
M  V30 13912 H 1307.68 2.04216 -3.43709 0
M  V30 13913 H 1309.12 2.98826 -3.00797 0
M  V30 13914 C 1307.58 3.0057 -1.52182 0
M  V30 13915 O 1308.11 3.91423 -0.902817 0
M  V30 13916 N 1306.32 2.62338 -1.25009 0
M  V30 13917 H 1305.87 1.88538 -1.75531 0
M  V30 13918 H 1305.82 3.0999 -0.524736 0
M  V30 13919 N 1309.6 1.55164 0.276031 0
M  V30 13920 C 1310.53 1.90844 1.34539 0
M  V30 13921 C 1311.51 0.769968 1.51676 0
M  V30 13922 O 1312.69 1.02785 1.64769 0
M  V30 13923 C 1309.82 2.17769 2.70543 0
M  V30 13924 C 1308.78 3.33592 2.68142 0
M  V30 13925 C 1308.1 3.45991 4.07669 0
M  V30 13926 C 1309.4 4.70064 2.27678 0
M  V30 13927 H 1311.1 2.80412 1.04926 0
M  V30 13928 H 1308.64 1.34918 0.503303 0
M  V30 13929 H 1310.6 2.41317 3.45462 0
M  V30 13930 H 1309.32 1.24997 3.01734 0
M  V30 13931 H 1307.98 3.10007 1.95681 0
M  V30 13932 H 1307.63 2.50691 4.36077 0
M  V30 13933 H 1307.33 4.23862 4.06958 0
M  V30 13934 H 1308.85 3.71828 4.84331 0
M  V30 13935 H 1310.26 4.93176 2.92319 0
M  V30 13936 H 1308.66 5.50829 2.38134 0
M  V30 13937 H 1309.73 4.69091 1.22808 0
M  V30 13938 N 1311.07 -0.540404 1.48045 0
M  V30 13939 C 1312.3 -1.32177 1.59175 0
M  V30 13940 C 1312.72 -1.87163 0.248115 0
M  V30 13941 O 1312.07 -1.65871 -0.761124 0
M  V30 13942 C 1312.13 -2.47995 2.63023 0
M  V30 13943 O 1311.85 -1.95278 3.92171 0
M  V30 13944 C 1313.35 -3.39967 2.84495 0
M  V30 13945 H 1310.57 -0.40233 0.537002 0
M  V30 13946 H 1313.11 -0.652983 1.93795 0
M  V30 13947 H 1311.27 -3.10779 2.31291 0
M  V30 13948 H 1311.68 -2.71012 4.49058 0
M  V30 13949 H 1313.15 -4.17607 3.60982 0
M  V30 13950 H 1313.63 -3.94555 1.92932 0
M  V30 13951 H 1314.24 -2.82985 3.1749 0
M  V30 13952 N 1312.55 -1.36459 -0.788468 0
M  V30 13953 C 1313.8 -1.30483 -1.54333 0
M  V30 13954 C 1314.12 0.115266 -1.94659 0
M  V30 13955 O 1313.39 1.05573 -1.65019 0
M  V30 13956 H 1311.97 -0.480004 -0.572368 0
M  V30 13957 H 1314.63 -1.70765 -0.939428 0
M  V30 13958 H 1313.73 -1.93284 -2.45046 0
M  V30 13959 N 1314.03 1.01274 -1.20754 0
M  V30 13960 C 1315.26 1.7906 -1.04653 0
M  V30 13961 C 1315.68 1.83806 0.399632 0
M  V30 13962 O 1315.04 1.27596 1.28798 0
M  V30 13963 C 1315.09 3.21187 -1.63925 0
M  V30 13964 O 1314.19 4.02913 -0.879486 0
M  V30 13965 H 1313.53 0.552147 -0.368823 0
M  V30 13966 H 1316.06 1.27356 -1.6013 0
M  V30 13967 H 1316.07 3.71887 -1.67822 0
M  V30 13968 H 1314.75 3.17048 -2.69172 0
M  V30 13969 H 1313.32 3.61499 -0.915019 0
M  V30 13970 N 1315.51 1.01404 1.20644 0
M  V30 13971 C 1316.44 0.540288 2.22741 0
M  V30 13972 C 1317.45 -0.375953 1.584 0
M  V30 13973 O 1318.64 -0.174708 1.77643 0
M  V30 13974 C 1315.74 -0.233766 3.38093 0
M  V30 13975 C 1314.92 0.683759 4.32023 0
M  V30 13976 C 1313.98 -0.0422681 5.26183 0
M  V30 13977 O 1313 0.579392 5.66243 0
M  V30 13978 N 1314.2 -1.31794 5.65341 0
M  V30 13979 H 1316.97 1.41831 2.64015 0
M  V30 13980 H 1314.53 0.891265 1.35159 0
M  V30 13981 H 1316.52 -0.728645 3.98087 0
M  V30 13982 H 1315.09 -1.01306 2.9573 0
M  V30 13983 H 1314.31 1.35899 3.70034 0
M  V30 13984 H 1315.6 1.30786 4.91704 0
M  V30 13985 H 1315 -1.84399 5.34802 0
M  V30 13986 H 1313.55 -1.7576 6.27656 0
M  V30 13987 N 1316.99 -1.36373 0.789944 0
M  V30 13988 C 1318.21 -2.04011 0.373396 0
M  V30 13989 C 1318.64 -1.59171 -1.00231 0
M  V30 13990 O 1318 -0.760431 -1.64582 0
M  V30 13991 C 1318.04 -3.5783 0.446083 0
M  V30 13992 O 1317.15 -4.08759 -0.54678 0
M  V30 13993 H 1316.49 -0.644807 0.158495 0
M  V30 13994 H 1319.02 -1.74317 1.0712 0
M  V30 13995 H 1319.03 -4.06822 0.309877 0
M  V30 13996 H 1317.7 -3.89819 1.44962 0
M  V30 13997 H 1316.28 -3.71038 -0.372192 0
M  V30 13998 N 1318.47 -0.542005 -1.47987 0
M  V30 13999 C 1319.41 0.227398 -2.31486 0
M  V30 14000 C 1320.41 0.923984 -1.41982 0
M  V30 14001 O 1321.61 0.847 -1.58827 0
M  V30 14002 H 1317.99 0.0922034 -0.746326 0
M  V30 14003 H 1319.96 -0.49625 -2.94245 0
M  V30 14004 C 1318.71 1.25384 -3.24306 0
M  V30 14005 H 1318.03 0.727243 -3.9313 0
M  V30 14006 H 1319.47 1.76337 -3.85592 0
M  V30 14007 C 1317.93 2.29378 -2.46754 0
M  V30 14008 O 1318.46 3.36034 -2.201 0
M  V30 14009 N 1316.67 2.02905 -2.08033 0
M  V30 14010 H 1316.21 1.16186 -2.2991 0
M  V30 14011 H 1316.17 2.72705 -1.56458 0
M  V30 14012 N 1319.94 1.55134 -0.277709 0
M  V30 14013 C 1320.88 2.18745 0.650058 0
M  V30 14014 C 1321.85 1.14922 1.15029 0
M  V30 14015 O 1323.04 1.43458 1.22278 0
M  V30 14016 C 1320.17 2.81277 1.88683 0
M  V30 14017 C 1319.21 3.98425 1.52185 0
M  V30 14018 S 1320.04 5.32153 0.597782 0
M  V30 14019 C 1321.2 5.98155 1.84287 0
M  V30 14020 H 1321.43 2.97098 0.109571 0
M  V30 14021 H 1318.97 1.54276 -0.0619536 0
M  V30 14022 H 1320.92 3.17934 2.59669 0
M  V30 14023 H 1319.59 2.02813 2.39845 0
M  V30 14024 H 1318.78 4.40877 2.4422 0
M  V30 14025 H 1318.38 3.63203 0.892146 0
M  V30 14026 H 1320.67 6.17546 2.78646 0
M  V30 14027 H 1321.62 6.92857 1.46131 0
M  V30 14028 H 1322.02 5.27541 2.00899 0
M  V30 14029 N 1321.42 0.00503138 1.57599 0
M  V30 14030 C 1322.35 -0.983586 2.11773 0
M  V30 14031 C 1323.33 -1.35518 1.02805 0
M  V30 14032 O 1324.52 -1.43804 1.30514 0
M  V30 14033 C 1321.65 -2.27383 2.62515 0
M  V30 14034 C 1320.6 -2.0437 3.76054 0
M  V30 14035 C 1319.93 -3.39451 4.1313 0
M  V30 14036 C 1321.23 -1.40223 5.03125 0
M  V30 14037 H 1322.92 -0.532501 2.94627 0
M  V30 14038 H 1320.47 -0.254696 1.4173 0
M  V30 14039 H 1322.42 -2.96903 2.99043 0
M  V30 14040 H 1321.14 -2.74614 1.7679 0
M  V30 14041 H 1319.8 -1.37275 3.39928 0
M  V30 14042 H 1319.45 -3.84395 3.24422 0
M  V30 14043 H 1319.15 -3.24868 4.89627 0
M  V30 14044 H 1320.68 -4.10279 4.52221 0
M  V30 14045 H 1322.09 -1.99708 5.37392 0
M  V30 14046 H 1320.49 -1.36112 5.8446 0
M  V30 14047 H 1321.56 -0.372073 4.8347 0
M  V30 14048 N 1322.9 -1.55308 -0.267798 0
M  V30 14049 C 1323.85 -1.88544 -1.33115 0
M  V30 14050 C 1324.82 -0.737465 -1.48831 0
M  V30 14051 O 1326 -0.989215 -1.63154 0
M  V30 14052 C 1323.14 -2.1674 -2.68547 0
M  V30 14053 C 1322.25 -3.44234 -2.61011 0
M  V30 14054 C 1321.39 -3.62104 -3.88657 0
M  V30 14055 C 1320.43 -4.83272 -3.75652 0
M  V30 14056 N 1319.57 -4.97772 -4.95144 0
M  V30 14057 H 1324.41 -2.79237 -1.04071 0
M  V30 14058 H 1321.94 -1.38245 -0.502677 0
M  V30 14059 H 1323.9 -2.31088 -3.47353 0
M  V30 14060 H 1322.53 -1.29276 -2.95783 0
M  V30 14061 H 1321.58 -3.3833 -1.73887 0
M  V30 14062 H 1322.89 -4.33177 -2.47303 0
M  V30 14063 H 1322.05 -3.76298 -4.75904 0
M  V30 14064 H 1320.79 -2.71356 -4.05238 0
M  V30 14065 H 1319.79 -4.69076 -2.86788 0
M  V30 14066 H 1321.02 -5.75461 -3.60585 0
M  V30 14067 H 1318.96 -4.09956 -5.12125 0
M  V30 14068 H 1318.88 -5.80769 -4.83987 0
M  V30 14069 H 1320.15 -5.16357 -5.83949 0
M  V30 14070 N 1324.38 0.532545 -1.4833 0
M  V30 14071 C 1325.31 1.64662 -1.65555 0
M  V30 14072 C 1326.29 1.62447 -0.50447 0
M  V30 14073 O 1327.47 1.79684 -0.736712 0
M  V30 14074 C 1324.6 3.03256 -1.69272 0
M  V30 14075 C 1323.56 3.20329 -2.83854 0
M  V30 14076 C 1322.88 4.59958 -2.72659 0
M  V30 14077 C 1324.18 3.03345 -4.25181 0
M  V30 14078 H 1325.88 1.50502 -2.58823 0
M  V30 14079 H 1323.42 0.722612 -1.24556 0
M  V30 14080 H 1325.38 3.81064 -1.79911 0
M  V30 14081 H 1324.1 3.18433 -0.725805 0
M  V30 14082 H 1322.76 2.44937 -2.72766 0
M  V30 14083 H 1322.41 4.71967 -1.73942 0
M  V30 14084 H 1322.11 4.72327 -3.49544 0
M  V30 14085 H 1323.63 5.39869 -2.85262 0
M  V30 14086 H 1325.05 3.70948 -4.37116 0
M  V30 14087 H 1323.44 3.27208 -5.03045 0
M  V30 14088 H 1324.51 1.998 -4.41824 0
M  V30 14089 N 1325.86 1.36875 0.78122 0
M  V30 14090 C 1326.79 1.34559 1.9083 0
M  V30 14091 C 1327.77 0.215713 1.68727 0
M  V30 14092 O 1328.95 0.41462 1.89722 0
M  V30 14093 C 1326.08 1.14233 3.27976 0
M  V30 14094 C 1325.04 2.24132 3.64621 0
M  V30 14095 C 1324.36 1.8894 5.00206 0
M  V30 14096 C 1325.66 3.66266 3.72353 0
M  V30 14097 H 1327.36 2.28871 1.93025 0
M  V30 14098 H 1324.9 1.10171 0.927275 0
M  V30 14099 H 1326.85 1.11246 4.06451 0
M  V30 14100 H 1325.58 0.163747 3.26189 0
M  V30 14101 H 1324.24 2.26259 2.88448 0
M  V30 14102 H 1323.89 0.896351 4.94949 0
M  V30 14103 H 1323.59 2.62525 5.25694 0
M  V30 14104 H 1325.11 1.87523 5.81092 0
M  V30 14105 H 1326.52 3.66321 4.41001 0
M  V30 14106 H 1324.92 4.38825 4.09332 0
M  V30 14107 H 1325.99 4.00578 2.7325 0
M  V30 14108 N 1327.33 -1.00632 1.21289 0
M  V30 14109 C 1328.75 -1.26744 0.969956 0
M  V30 14110 C 1328.95 -1.98534 -0.344449 0
M  V30 14111 O 1328.01 -2.28687 -1.07044 0
M  V30 14112 C 1329.32 -2.09238 2.15963 0
M  V30 14113 C 1330.87 -2.22469 2.20174 0
M  V30 14114 C 1331.34 -3.08344 3.38656 0
M  V30 14115 N 1332.83 -3.15932 3.38734 0
M  V30 14116 C 1333.57 -3.82632 4.2706 0
M  V30 14117 N 1333.06 -4.51371 5.25582 0
M  V30 14118 N 1334.86 -3.79259 4.14872 0
M  V30 14119 H 1327.01 -0.524626 2.05819 0
M  V30 14120 H 1329.27 -0.294231 0.901184 0
M  V30 14121 H 1328.98 -1.63835 3.11209 0
M  V30 14122 H 1328.85 -3.09987 2.14914 0
M  V30 14123 H 1331.24 -2.67091 1.25485 0
M  V30 14124 H 1331.32 -1.21194 2.25268 0
M  V30 14125 H 1330.96 -2.64425 4.33638 0
M  V30 14126 H 1330.89 -4.0973 3.30801 0
M  V30 14127 H 1333.38 -2.66998 2.67434 0
M  V30 14128 H 1333.7 -4.99966 5.89283 0
M  V30 14129 H 1332.04 -4.50162 5.29508 0
M  V30 14130 H 1335.23 -3.2471 3.37166 0
M  V30 14131 H 1335.41 -4.30963 4.83916 0
M  V30 14132 N 1328.81 -1.02043 -1.20104 0
M  V30 14133 C 1330.04 -0.731142 -1.94085 0
M  V30 14134 C 1330.46 0.702467 -1.74491 0
M  V30 14135 O 1329.82 1.48387 -1.04168 0
M  V30 14136 C 1329.87 -1.07691 -3.44144 0
M  V30 14137 O 1328.97 -0.190751 -4.11959 0
M  V30 14138 H 1328.31 -0.270917 -0.606218 0
M  V30 14139 H 1330.84 -1.36483 -1.52426 0
M  V30 14140 H 1330.85 -1.03023 -3.94779 0
M  V30 14141 H 1329.53 -2.1214 -3.57728 0
M  V30 14142 H 1328.1 -0.29529 -3.71729 0
M  V30 14143 N 1330.29 1.35952 -0.797165 0
M  V30 14144 C 1331.25 2.28266 -0.206748 0
M  V30 14145 C 1332.25 1.49169 0.60043 0
M  V30 14146 O 1333.44 1.69054 0.42029 0
M  V30 14147 C 1330.58 3.33363 0.712884 0
M  V30 14148 H 1331.77 2.81992 -1.02082 0
M  V30 14149 H 1329.32 1.45648 -0.567138 0
M  V30 14150 H 1330.06 2.84806 1.551 0
M  V30 14151 H 1329.84 3.91864 0.135926 0
M  V30 14152 H 1331.33 4.02284 1.1206 0
M  V30 14153 N 1331.77 0.549846 1.47697 0
M  V30 14154 C 1332.72 -0.201961 2.29915 0
M  V30 14155 C 1333.69 -0.915287 1.38606 0
M  V30 14156 O 1334.87 -0.912427 1.67569 0
M  V30 14157 C 1332.01 -1.2306 3.22413 0
M  V30 14158 C 1331.12 -0.524091 4.28809 0
M  V30 14159 C 1330.26 -1.53738 5.08466 0
M  V30 14160 C 1329.3 -0.815437 6.06644 0
M  V30 14161 N 1328.43 -1.77521 6.79287 0
M  V30 14162 H 1333.27 0.505289 2.93685 0
M  V30 14163 H 1330.81 0.261012 1.44766 0
M  V30 14164 H 1332.77 -1.83949 3.74458 0
M  V30 14165 H 1331.4 -1.90597 2.60523 0
M  V30 14166 H 1330.45 0.199174 3.79878 0
M  V30 14167 H 1331.76 0.0418145 4.98782 0
M  V30 14168 H 1330.92 -2.22001 5.64624 0
M  V30 14169 H 1329.66 -2.1372 4.38378 0
M  V30 14170 H 1328.66 -0.11884 5.49672 0
M  V30 14171 H 1329.89 -0.221462 6.78739 0
M  V30 14172 H 1327.83 -2.36374 6.11934 0
M  V30 14173 H 1327.75 -1.26126 7.45405 0
M  V30 14174 H 1329.02 -2.44921 7.40023 0
M  V30 14175 N 1333.25 -1.54984 0.285932 0
M  V30 14176 C 1334.19 -2.24385 -0.612703 0
M  V30 14177 C 1335.19 -1.24459 -1.14918 0
M  V30 14178 O 1336.39 -1.42357 -1.10156 0
M  V30 14179 H 1332.77 -0.720263 -0.21616 0
M  V30 14180 H 1334.74 -2.984 -0.00465668 0
M  V30 14181 C 1333.49 -2.98661 -1.78037 0
M  V30 14182 H 1332.81 -3.75347 -1.37676 0
M  V30 14183 H 1334.25 -3.50525 -2.38554 0
M  V30 14184 C 1332.71 -2.04754 -2.67539 0
M  V30 14185 O 1333.24 -1.60577 -3.68209 0
M  V30 14186 N 1331.45 -1.71026 -2.34944 0
M  V30 14187 H 1330.99 -2.07148 -1.53126 0
M  V30 14188 H 1330.95 -1.08467 -2.95097 0
M  V30 14189 N 1334.72 -0.0133892 -1.57594 0
M  V30 14190 C 1335.97 0.667896 -1.90321 0
M  V30 14191 C 1336.29 1.74187 -0.88984 0
M  V30 14192 O 1337.49 2.47871 -1.10779 0
M  V30 14193 C 1335.95 1.23917 -3.37894 0
M  V30 14194 C 1335.56 0.199313 -4.47556 0
M  V30 14195 C 1337.3 1.89788 -3.79712 0
M  V30 14196 C 1335.21 0.781339 -5.86216 0
M  V30 14197 H 1334.14 0.253229 -0.710205 0
M  V30 14198 H 1336.79 -0.0761229 -1.83342 0
M  V30 14199 H 1335.17 2.03429 -3.39754 0
M  V30 14200 H 1336.34 -0.572196 -4.57234 0
M  V30 14201 H 1334.66 -0.359719 -4.14843 0
M  V30 14202 H 1337.26 2.34262 -4.80651 0
M  V30 14203 H 1337.6 2.73406 -3.13934 0
M  V30 14204 H 1338.13 1.16989 -3.80208 0
M  V30 14205 H 1334.87 -0.0163598 -6.55498 0
M  V30 14206 H 1334.39 1.5217 -5.80176 0
M  V30 14207 H 1336.07 1.2759 -6.34295 0
M  V30 14208 N 1336.2 1.55448 0.259558 0
M  V30 14209 C 1337.43 1.81063 1.01148 0
M  V30 14210 C 1337.85 0.58875 1.78649 0
M  V30 14211 O 1337.21 -0.461971 1.75315 0
M  V30 14212 C 1337.26 3.04279 1.93512 0
M  V30 14213 O 1336.36 2.80307 3.02493 0
M  V30 14214 H 1335.7 0.598056 0.288487 0
M  V30 14215 H 1338.23 2.02614 0.284387 0
M  V30 14216 H 1338.24 3.33373 2.35215 0
M  V30 14217 H 1336.92 3.92856 1.36518 0
M  V30 14218 H 1335.5 2.62345 2.65008 0
M  V30 14219 N 1337.68 -0.524672 1.4861 0
M  V30 14220 C 1338.91 -1.30958 1.60825 0
M  V30 14221 C 1339.33 -1.86142 0.270682 0
M  V30 14222 O 1338.69 -1.64675 -0.758415 0
M  V30 14223 C 1338.74 -2.43252 2.66197 0
M  V30 14224 O 1337.84 -3.4644 2.23725 0
M  V30 14225 H 1337.18 -0.387638 0.539104 0
M  V30 14226 H 1339.71 -0.630755 1.94635 0
M  V30 14227 H 1339.72 -2.89362 2.87635 0
M  V30 14228 H 1338.4 -2.02449 3.63301 0
M  V30 14229 H 1336.97 -3.06413 2.12522 0
M  V30 14230 N 1339.16 -1.37287 -0.77395 0
M  V30 14231 C 1340.09 -1.27239 -1.89435 0
M  V30 14232 C 1341.07 -0.153365 -1.61875 0
M  V30 14233 O 1342.25 -0.327193 -1.85639 0
M  V30 14234 C 1339.38 -0.966771 -3.24609 0
M  V30 14235 C 1338.43 -2.10237 -3.71083 0
M  V30 14236 S 1339.26 -3.72188 -3.85014 0
M  V30 14237 C 1340.42 -3.43773 -5.2304 0
M  V30 14238 H 1340.65 -2.22068 -1.97669 0
M  V30 14239 H 1338.18 -1.22884 -0.93482 0
M  V30 14240 H 1340.14 -0.797268 -4.02683 0
M  V30 14241 H 1338.8 -0.0359985 -3.14079 0
M  V30 14242 H 1337.99 -1.84349 -4.69075 0
M  V30 14243 H 1337.6 -2.23189 -3.00104 0
M  V30 14244 H 1339.89 -2.98625 -6.08136 0
M  V30 14245 H 1340.83 -4.41085 -5.5394 0
M  V30 14246 H 1341.24 -2.78753 -4.90873 0
M  V30 14247 N 1340.64 0.999871 -1.21821 0
M  V30 14248 C 1341.86 1.7794 -1.06546 0
M  V30 14249 C 1342.29 1.84219 0.380115 0
M  V30 14250 O 1341.64 1.28955 1.27438 0
M  V30 14251 C 1341.69 3.1943 -1.67322 0
M  V30 14252 O 1340.8 4.01957 -0.922171 0
M  V30 14253 H 1340.14 0.548204 -0.374658 0
M  V30 14254 H 1342.67 1.2565 -1.61472 0
M  V30 14255 H 1342.68 3.70086 -1.71757 0
M  V30 14256 H 1341.35 3.14175 -2.7252 0
M  V30 14257 H 1339.93 3.60509 -0.95331 0
M  V30 14258 N 1342.11 1.02678 1.19562 0
M  V30 14259 C 1343.06 0.599259 2.24748 0
M  V30 14260 C 1344.06 -0.367079 1.65375 0
M  V30 14261 O 1345.26 -0.235887 1.78448 0
M  V30 14262 H 1341.64 0.175517 0.73123 0
M  V30 14263 H 1343.61 1.4971 2.58127 0
M  V30 14264 C 1342.36 -0.0362515 3.47681 0
M  V30 14265 H 1341.68 0.698343 3.93654 0
M  V30 14266 H 1343.12 -0.298361 4.22949 0
M  V30 14267 C 1341.58 -1.28218 3.11547 0
M  V30 14268 O 1342.11 -2.37446 3.24009 0
M  V30 14269 N 1340.32 -1.17014 2.66 0
M  V30 14270 H 1339.86 -0.28132 2.56059 0
M  V30 14271 H 1339.82 -2.00473 2.42194 0
M  V30 14272 N 1343.59 -1.35528 0.804364 0
M  V30 14273 C 1344.53 -2.27647 0.158767 0
M  V30 14274 C 1345.5 -1.47976 -0.673942 0
M  V30 14275 O 1346.69 -1.77241 -0.641703 0
M  V30 14276 C 1343.81 -3.29597 -0.779973 0
M  V30 14277 C 1342.86 -4.26491 -0.0271676 0
M  V30 14278 S 1343.69 -5.19296 1.30736 0
M  V30 14279 C 1344.85 -6.24788 0.373003 0
M  V30 14280 H 1345.08 -2.82055 0.939805 0
M  V30 14281 H 1342.62 -1.42294 0.599313 0
M  V30 14282 H 1344.57 -3.88831 -1.31609 0
M  V30 14283 H 1343.23 -2.74072 -1.53438 0
M  V30 14284 H 1342.43 -4.98537 -0.740059 0
M  V30 14285 H 1342.03 -3.71415 0.438923 0
M  V30 14286 H 1344.32 -6.76053 -0.442566 0
M  V30 14287 H 1345.26 -7.00082 1.06258 0
M  V30 14288 H 1345.67 -5.64492 -0.0303131 0
M  V30 14289 N 1345.07 -0.557671 -1.47404 0
M  V30 14290 C 1346.02 0.202834 -2.31714 0
M  V30 14291 C 1347.01 0.908873 -1.42954 0
M  V30 14292 O 1348.22 0.830106 -1.59716 0
M  V30 14293 H 1344.59 0.0842824 -0.747262 0
M  V30 14294 H 1346.57 -0.527431 -2.93702 0
M  V30 14295 C 1345.31 1.21937 -3.25617 0
M  V30 14296 H 1344.64 0.685506 -3.93879 0
M  V30 14297 H 1346.08 1.72237 -3.87441 0
M  V30 14298 C 1344.54 2.26748 -2.49173 0
M  V30 14299 O 1345.07 3.33681 -2.23651 0
M  V30 14300 N 1343.27 2.00687 -2.10174 0
M  V30 14301 H 1342.82 1.13741 -2.3113 0
M  V30 14302 H 1342.78 2.71031 -1.59342 0
M  V30 14303 N 1346.55 1.54831 -0.294147 0
M  V30 14304 C 1347.77 2.04873 0.32276 0
M  V30 14305 C 1348.2 1.17034 1.47257 0
M  V30 14306 O 1347.56 0.172949 1.80473 0
M  V30 14307 C 1347.61 3.52431 0.76319 0
M  V30 14308 O 1346.71 3.67635 1.86865 0
M  V30 14309 H 1346.05 0.660926 0.0638162 0
M  V30 14310 H 1348.58 1.99944 -0.433995 0
M  V30 14311 H 1348.59 3.94155 1.05385 0
M  V30 14312 H 1347.27 4.15827 -0.0779464 0
M  V30 14313 H 1345.84 3.37816 1.57907 0
M  V30 14314 N 1348.03 0.0217466 1.57585 0
M  V30 14315 C 1349.25 -0.67246 1.96196 0
M  V30 14316 C 1349.68 -1.6529 0.897827 0
M  V30 14317 O 1349.04 -1.80743 -0.142002 0
M  V30 14318 C 1349.08 -1.36162 3.33905 0
M  V30 14319 O 1348.19 -2.47671 3.29747 0
M  V30 14320 H 1347.53 -0.177238 0.639908 0
M  V30 14321 H 1350.06 0.0814073 2.04438 0
M  V30 14322 H 1350.07 -1.7201 3.69968 0
M  V30 14323 H 1348.74 -0.642893 4.10901 0
M  V30 14324 H 1347.32 -2.13989 3.0539 0
M  V30 14325 N 1349.51 -1.55583 -0.251311 0
M  V30 14326 C 1350.92 -1.47908 -0.599606 0
M  V30 14327 C 1351.12 -0.711061 -1.88537 0
M  V30 14328 O 1350.18 -0.238639 -2.5137 0
M  V30 14329 C 1351.49 -2.92284 -0.706429 0
M  V30 14330 C 1353.04 -3.02629 -0.799049 0
M  V30 14331 C 1353.51 -4.48303 -0.93747 0
M  V30 14332 N 1355 -4.52222 -1.00245 0
M  V30 14333 C 1355.74 -5.62181 -1.12874 0
M  V30 14334 N 1355.24 -6.81958 -1.22085 0
M  V30 14335 N 1357.03 -5.49968 -1.16155 0
M  V30 14336 H 1349.18 -2.0396 0.592806 0
M  V30 14337 H 1351.44 -0.925797 0.203971 0
M  V30 14338 H 1351.15 -3.51297 0.168243 0
M  V30 14339 H 1351.02 -3.42524 -1.57979 0
M  V30 14340 H 1353.41 -2.43699 -1.66418 0
M  V30 14341 H 1353.49 -2.55607 0.099367 0
M  V30 14342 H 1353.13 -5.07842 -0.0769166 0
M  V30 14343 H 1353.06 -4.93002 -1.85086 0
M  V30 14344 H 1355.56 -3.65951 -0.94279 0
M  V30 14345 H 1355.87 -7.6151 -1.31616 0
M  V30 14346 H 1354.21 -6.84728 -1.1905 0
M  V30 14347 H 1357.4 -4.55327 -1.08604 0
M  V30 14348 H 1357.58 -6.35701 -1.25653 0
M  V30 14349 N 1350.98 0.516783 -1.48886 0
M  V30 14350 C 1351.92 1.63715 -1.58974 0
M  V30 14351 C 1352.89 1.56547 -0.439513 0
M  V30 14352 O 1354.08 1.76831 -0.652924 0
M  V30 14353 C 1351.21 3.02172 -1.53002 0
M  V30 14354 C 1350.25 3.27655 -2.73029 0
M  V30 14355 S 1351.08 3.12489 -4.34869 0
M  V30 14356 C 1352.24 4.53369 -4.31517 0
M  V30 14357 H 1352.47 1.5491 -2.53752 0
M  V30 14358 H 1350.01 0.700754 -1.37582 0
M  V30 14359 H 1351.96 3.82017 -1.50243 0
M  V30 14360 H 1350.63 3.08405 -0.59539 0
M  V30 14361 H 1349.82 4.28693 -2.65026 0
M  V30 14362 H 1349.42 2.55504 -2.73119 0
M  V30 14363 H 1351.71 5.45151 -4.02264 0
M  V30 14364 H 1352.66 4.66425 -5.32779 0
M  V30 14365 H 1353.06 4.3331 -3.61804 0
M  V30 14366 N 1352.46 1.37696 0.766659 0
M  V30 14367 C 1353.74 1.23715 1.51506 0
M  V30 14368 C 1354.12 -0.167091 2.10438 0
M  V30 14369 O 1353.47 -1.17526 1.95959 0
M  V30 14370 C 1353.68 2.33715 2.59188 0
M  V30 14371 C 1355.02 2.71504 3.26451 0
M  V30 14372 O 1356.05 2.32929 2.69486 0
M  V30 14373 O 1354.91 3.37981 4.29454 0
M  V30 14374 H 1352 0.483046 0.671264 0
M  V30 14375 H 1354.55 1.49489 0.803188 0
M  V30 14376 H 1353.32 3.27729 2.13797 0
M  V30 14377 H 1352.94 2.09433 3.3797 0
M  V30 14378 N 1353.94 -0.993397 1.22349 0
M  V30 14379 C 1355.16 -1.77373 1.07488 0
M  V30 14380 C 1355.59 -1.84418 -0.37034 0
M  V30 14381 O 1354.95 -1.29629 -1.26752 0
M  V30 14382 C 1355 -3.18538 1.69014 0
M  V30 14383 O 1354.1 -4.01463 0.943474 0
M  V30 14384 H 1353.44 -0.546209 0.37756 0
M  V30 14385 H 1355.97 -1.24792 1.62136 0
M  V30 14386 H 1355.98 -3.6917 1.73717 0
M  V30 14387 H 1354.66 -3.12725 2.74182 0
M  V30 14388 H 1353.23 -3.59998 0.972415 0
M  V30 14389 N 1355.42 -1.03311 -1.19015 0
M  V30 14390 C 1356.83 -0.761079 -1.70483 0
M  V30 14391 C 1357.18 0.718851 -1.82557 0
M  V30 14392 O 1356.3 1.56006 -1.4997 0
M  V30 14393 C 1356.9 -1.37492 -3.09647 0
M  V30 14394 C 1355.46 -1.15138 -3.58358 0
M  V30 14395 C 1354.61 -1.47034 -2.35109 0
M  V30 14396 H 1357.56 -1.2005 -1.03797 0
M  V30 14397 H 1357.58 -0.774115 -3.72542 0
M  V30 14398 H 1357.09 -2.45203 -3.00828 0
M  V30 14399 H 1355.19 -0.0926822 -3.72485 0
M  V30 14400 H 1355.3 -1.84307 -4.4223 0
M  V30 14401 H 1353.67 -0.889794 -2.38652 0
M  V30 14402 H 1354.45 -2.55837 -2.28916 0
M  V30 14403 N 1356.9 1.35099 -0.81154 0
M  V30 14404 C 1357.84 2.29717 -0.223372 0
M  V30 14405 C 1358.81 1.53049 0.645396 0
M  V30 14406 O 1360 1.81467 0.589436 0
M  V30 14407 C 1357.14 3.3952 0.618057 0
M  V30 14408 C 1356.25 4.31145 -0.271693 0
M  V30 14409 C 1355.39 5.28044 0.578214 0
M  V30 14410 C 1354.42 6.11306 -0.311628 0
M  V30 14411 N 1353.56 7.00328 0.498539 0
M  V30 14412 H 1358.4 2.79426 -1.03563 0
M  V30 14413 H 1355.94 1.37518 -0.522231 0
M  V30 14414 H 1357.9 4.01854 1.12111 0
M  V30 14415 H 1356.53 2.91075 1.39554 0
M  V30 14416 H 1355.58 3.69773 -0.892885 0
M  V30 14417 H 1356.89 4.89545 -0.956392 0
M  V30 14418 H 1356.04 5.95774 1.1462 0
M  V30 14419 H 1354.78 4.70152 1.29646 0
M  V30 14420 H 1353.79 5.42518 -0.891849 0
M  V30 14421 H 1355.01 6.71277 -1.02781 0
M  V30 14422 H 1352.96 6.44919 1.20067 0
M  V30 14423 H 1352.88 7.55892 -0.12801 0
M  V30 14424 H 1354.14 7.72401 1.04965 0
M  V30 14425 N 1358.37 0.56548 1.47106 0
M  V30 14426 C 1359.79 0.225855 1.57994 0
M  V30 14427 C 1359.99 -1.27173 1.56299 0
M  V30 14428 O 1359.05 -2.05242 1.47078 0
M  V30 14429 C 1360.36 0.859829 2.88145 0
M  V30 14430 C 1361.91 0.831821 3.01744 0
M  V30 14431 C 1362.38 1.44502 4.34607 0
M  V30 14432 N 1363.87 1.40857 4.41263 0
M  V30 14433 C 1364.61 1.85258 5.42648 0
M  V30 14434 N 1364.1 2.37553 6.508 0
M  V30 14435 N 1365.9 1.76279 5.33744 0
M  V30 14436 H 1358.05 1.53837 1.46451 0
M  V30 14437 H 1360.31 0.642013 0.697512 0
M  V30 14438 H 1360.02 1.91264 2.95146 0
M  V30 14439 H 1359.89 0.357762 3.755 0
M  V30 14440 H 1362.28 -0.212319 2.94335 0
M  V30 14441 H 1362.36 1.37173 2.1591 0
M  V30 14442 H 1362 2.48827 4.42773 0
M  V30 14443 H 1361.93 0.880479 5.19187 0
M  V30 14444 H 1364.42 1.02614 3.63702 0
M  V30 14445 H 1364.74 2.69335 7.24347 0
M  V30 14446 H 1363.08 2.41569 6.51667 0
M  V30 14447 H 1366.27 1.35195 4.48152 0
M  V30 14448 H 1366.45 2.11199 6.12616 0
M  V30 14449 N 1359.85 -1.54672 0.302354 0
M  V30 14450 C 1360.82 -2.22246 -0.560283 0
M  V30 14451 C 1361.82 -1.20895 -1.06023 0
M  V30 14452 O 1363.01 -1.45621 -0.956047 0
M  V30 14453 C 1360.14 -2.9099 -1.77589 0
M  V30 14454 H 1361.33 -2.99885 0.0301274 0
M  V30 14455 H 1358.88 -1.56209 0.0532036 0
M  V30 14456 H 1359.62 -2.17433 -2.4061 0
M  V30 14457 H 1359.4 -3.65288 -1.42503 0
M  V30 14458 H 1360.89 -3.42535 -2.38871 0
M  V30 14459 N 1361.33 -0.0301034 -1.57571 0
M  V30 14460 C 1362.29 0.936465 -2.09196 0
M  V30 14461 C 1363.29 1.25347 -1.00722 0
M  V30 14462 O 1364.48 1.19364 -1.26877 0
M  V30 14463 C 1361.62 2.2527 -2.55864 0
M  V30 14464 H 1362.81 0.489332 -2.95881 0
M  V30 14465 H 1360.36 0.217948 -1.54773 0
M  V30 14466 H 1361.1 2.7461 -1.72511 0
M  V30 14467 H 1360.88 2.03573 -3.35113 0
M  V30 14468 H 1362.37 2.94549 -2.96025 0
M  V30 14469 N 1362.81 1.55714 0.243056 0
M  V30 14470 C 1364.09 1.68483 0.993614 0
M  V30 14471 C 1364.47 0.571112 2.03228 0
M  V30 14472 O 1363.81 -0.42491 2.24515 0
M  V30 14473 C 1364.02 3.0894 1.62349 0
M  V30 14474 C 1365.37 3.67663 2.12389 0
M  V30 14475 O 1366.4 3.11764 1.72283 0
M  V30 14476 O 1365.25 4.65664 2.8604 0
M  V30 14477 H 1362.35 0.685415 0.462747 0
M  V30 14478 H 1364.89 1.68043 0.236538 0
M  V30 14479 H 1363.67 3.81451 0.87241 0
M  V30 14480 H 1363.29 3.13407 2.44667 0
M  V30 14481 N 1364.29 -0.50888 1.49158 0
M  V30 14482 C 1365.53 -1.2635 1.58247 0
M  V30 14483 C 1365.86 -1.92677 0.265654 0
M  V30 14484 O 1365.12 -1.80931 -0.745818 0
M  V30 14485 C 1365.42 -2.35875 2.6851 0
M  V30 14486 C 1365.08 -1.87059 4.10268 0
M  V30 14487 C 1363.74 -1.73464 4.48847 0
M  V30 14488 C 1366.1 -1.50429 4.9902 0
M  V30 14489 C 1363.42 -1.21606 5.73959 0
M  V30 14490 C 1365.78 -1.00026 6.24642 0
M  V30 14491 C 1364.44 -0.850646 6.62058 0
M  V30 14492 H 1363.71 -0.462346 0.579066 0
M  V30 14493 H 1366.36 -0.565528 1.82959 0
M  V30 14494 H 1364.66 -3.11428 2.37739 0
M  V30 14495 H 1366.36 -2.9395 2.72753 0
M  V30 14496 H 1362.95 -1.98597 3.79812 0
M  V30 14497 H 1367.13 -1.59782 4.69876 0
M  V30 14498 H 1362.39 -1.08728 6.01655 0
M  V30 14499 H 1366.56 -0.707608 6.92796 0
M  V30 14500 H 1364.19 -0.446627 7.58887 0
M  V30 14501 N 1365.76 -1.381 -0.759346 0
M  V30 14502 C 1367.01 -1.33311 -1.51364 0
M  V30 14503 C 1367.33 0.0761325 -1.95452 0
M  V30 14504 O 1368.53 0.246541 -2.70378 0
M  V30 14505 C 1366.99 -2.34067 -2.73387 0
M  V30 14506 C 1366.6 -3.80583 -2.36348 0
M  V30 14507 C 1368.34 -2.38311 -3.51295 0
M  V30 14508 C 1366.25 -4.73039 -3.54948 0
M  V30 14509 H 1365.18 -0.495512 -0.568317 0
M  V30 14510 H 1367.83 -1.63625 -0.830602 0
M  V30 14511 H 1366.21 -1.96788 -3.43643 0
M  V30 14512 H 1367.38 -4.26769 -1.73796 0
M  V30 14513 H 1365.7 -3.79403 -1.71587 0
M  V30 14514 H 1368.3 -3.04586 -4.39467 0
M  V30 14515 H 1368.64 -1.40034 -3.92041 0
M  V30 14516 H 1369.17 -2.74361 -2.88047 0
M  V30 14517 H 1365.91 -5.7249 -3.19273 0
M  V30 14518 H 1365.43 -4.3155 -4.16563 0
M  V30 14519 H 1367.11 -4.90775 -4.21603 0
M  V30 14520 N 1367.24 0.986894 -1.22875 0
M  V30 14521 C 1368.17 2.08035 -0.961971 0
M  V30 14522 C 1369.19 1.62683 0.0616475 0
M  V30 14523 O 1370.38 1.77659 -0.173094 0
M  V30 14524 C 1367.48 3.36208 -0.426302 0
M  V30 14525 C 1366.65 4.10562 -1.50856 0
M  V30 14526 C 1365.71 5.17014 -0.97891 0
M  V30 14527 O 1364.73 5.44259 -1.66645 0
M  V30 14528 N 1365.94 5.80167 0.196613 0
M  V30 14529 H 1368.7 2.315 -1.90336 0
M  V30 14530 H 1366.26 1.1531 -1.13645 0
M  V30 14531 H 1368.25 4.0466 -0.0571577 0
M  V30 14532 H 1366.82 3.09761 0.420345 0
M  V30 14533 H 1366.04 3.36656 -2.05076 0
M  V30 14534 H 1367.33 4.57007 -2.23655 0
M  V30 14535 H 1366.73 5.60409 0.771892 0
M  V30 14536 H 1365.29 6.49825 0.507083 0
M  V30 14537 N 1368.72 1.0394 1.18466 0
M  V30 14538 C 1370.14 0.758404 1.40429 0
M  V30 14539 C 1370.34 -0.652603 1.90639 0
M  V30 14540 O 1369.39 -1.417 2.08991 0
M  V30 14541 C 1370.71 1.80343 2.40618 0
M  V30 14542 C 1372.25 1.82419 2.54347 0
M  V30 14543 C 1372.73 2.8591 3.57798 0
M  V30 14544 N 1374.22 2.84793 3.65304 0
M  V30 14545 C 1374.95 3.61521 4.45073 0
M  V30 14546 N 1374.45 4.47997 5.28461 0
M  V30 14547 N 1376.24 3.50016 4.39824 0
M  V30 14548 H 1368.39 1.94998 0.842 0
M  V30 14549 H 1370.66 0.843649 0.43239 0
M  V30 14550 H 1370.36 2.81547 2.10771 0
M  V30 14551 H 1370.24 1.63451 3.39947 0
M  V30 14552 H 1372.62 0.818872 2.83511 0
M  V30 14553 H 1372.71 2.03388 1.55136 0
M  V30 14554 H 1372.35 3.8662 3.29375 0
M  V30 14555 H 1372.28 2.62196 4.56684 0
M  V30 14556 H 1374.77 2.22082 3.05758 0
M  V30 14557 H 1375.08 5.03257 5.86475 0
M  V30 14558 H 1373.43 4.52065 5.27885 0
M  V30 14559 H 1376.62 2.81862 3.73726 0
M  V30 14560 H 1376.79 4.10063 5.0175 0
M  V30 14561 N 1370.2 -1.34667 0.818693 0
M  V30 14562 C 1371.45 -1.98022 0.40396 0
M  V30 14563 C 1371.77 -1.65239 -1.03542 0
M  V30 14564 O 1371.04 -0.94097 -1.71821 0
M  V30 14565 H 1369.62 -0.732517 0.146382 0
M  V30 14566 H 1372.28 -1.64377 1.0472 0
M  V30 14567 H 1371.38 -3.07746 0.519516 0
M  V30 14568 N 1371.68 -0.573274 -1.46804 0
M  V30 14569 C 1372.9 -0.0586717 -2.07317 0
M  V30 14570 C 1373.33 1.2328 -1.42069 0
M  V30 14571 O 1372.68 1.74235 -0.501188 0
M  V30 14572 C 1372.73 0.103503 -3.60451 0
M  V30 14573 O 1371.84 1.16229 -3.95682 0
M  V30 14574 H 1371.18 -0.0585504 -0.661414 0
M  V30 14575 H 1373.71 -0.793532 -1.88585 0
M  V30 14576 H 1373.72 0.312658 -4.068 0
M  V30 14577 H 1372.39 -0.839684 -4.07335 0
M  V30 14578 H 1370.97 0.932347 -3.61056 0
M  V30 14579 N 1373.15 1.5451 -0.310553 0
M  V30 14580 C 1374.08 2.26827 0.554243 0
M  V30 14581 C 1375.07 1.27133 1.13009 0
M  V30 14582 O 1376.25 1.55923 1.15765 0
M  V30 14583 C 1373.38 3.01626 1.7216 0
M  V30 14584 C 1372.33 4.08547 1.27566 0
M  V30 14585 C 1371.66 4.71115 2.52893 0
M  V30 14586 C 1372.96 5.20766 0.399955 0
M  V30 14587 H 1374.65 2.9936 -0.0489475 0
M  V30 14588 H 1372.2 1.43978 -0.0249817 0
M  V30 14589 H 1374.15 3.50942 2.33276 0
M  V30 14590 H 1372.88 2.26688 2.35118 0
M  V30 14591 H 1371.54 3.60096 0.687499 0
M  V30 14592 H 1371.18 3.92805 3.14186 0
M  V30 14593 H 1370.88 5.43331 2.23752 0
M  V30 14594 H 1372.41 5.23198 3.14796 0
M  V30 14595 H 1373.82 5.65918 0.917054 0
M  V30 14596 H 1372.22 5.9976 0.2019 0
M  V30 14597 H 1373.29 4.81508 -0.572537 0
M  V30 14598 N 1374.63 0.0384594 1.57553 0
M  V30 14599 C 1375.88 -0.637533 1.91359 0
M  V30 14600 C 1376.2 -1.7275 0.91744 0
M  V30 14601 O 1377.4 -2.46078 1.14709 0
M  V30 14602 C 1375.86 -1.18526 3.39823 0
M  V30 14603 C 1375.47 -0.128086 4.47817 0
M  V30 14604 C 1377.21 -1.83723 3.82683 0
M  V30 14605 C 1375.12 -0.687978 5.87385 0
M  V30 14606 H 1374.05 -0.241898 0.714144 0
M  V30 14607 H 1376.7 0.105281 1.83198 0
M  V30 14608 H 1375.08 -1.97999 3.42947 0
M  V30 14609 H 1376.25 0.644865 4.56265 0
M  V30 14610 H 1374.57 0.425672 4.14219 0
M  V30 14611 H 1377.17 -2.26585 4.84317 0
M  V30 14612 H 1377.51 -2.68377 3.18244 0
M  V30 14613 H 1378.04 -1.10926 3.82021 0
M  V30 14614 H 1374.78 0.120642 6.55389 0
M  V30 14615 H 1374.3 -1.4292 5.82524 0
M  V30 14616 H 1375.98 -1.17483 6.36244 0
M  V30 14617 N 1376.11 -1.55841 -0.234795 0
M  V30 14618 C 1377.04 -1.86317 -1.31762 0
M  V30 14619 C 1378.02 -0.719321 -1.45824 0
M  V30 14620 O 1379.21 -0.966329 -1.61847 0
M  V30 14621 C 1376.33 -2.05854 -2.68964 0
M  V30 14622 C 1375.38 -3.28518 -2.71989 0
M  V30 14623 S 1376.21 -4.84827 -2.27382 0
M  V30 14624 C 1377.37 -5.07385 -3.66485 0
M  V30 14625 H 1377.6 -2.7787 -1.05715 0
M  V30 14626 H 1375.13 -1.48105 -0.436386 0
M  V30 14627 H 1377.09 -2.17794 -3.4796 0
M  V30 14628 H 1375.75 -1.15122 -2.92243 0
M  V30 14629 H 1374.95 -3.39192 -3.7278 0
M  V30 14630 H 1374.55 -3.15367 -2.01047 0
M  V30 14631 H 1376.84 -4.95471 -4.62077 0
M  V30 14632 H 1377.78 -6.09323 -3.60737 0
M  V30 14633 H 1378.19 -4.35175 -3.59559 0
M  V30 14634 N 1377.59 0.500963 -1.49426 0
M  V30 14635 C 1378.87 1.26231 -1.49416 0
M  V30 14636 C 1379.25 2.0993 -0.221908 0
M  V30 14637 O 1378.59 2.14198 0.795712 0
M  V30 14638 C 1378.8 2.11899 -2.77308 0
M  V30 14639 C 1380.15 2.71086 -3.26799 0
M  V30 14640 O 1381.18 2.22166 -2.78425 0
M  V30 14641 O 1380.04 3.60141 -4.11049 0
M  V30 14642 H 1377.13 0.571224 -0.598024 0
M  V30 14643 H 1379.68 0.51523 -1.61689 0
M  V30 14644 H 1378.45 1.50027 -3.61397 0
M  V30 14645 H 1378.07 2.93799 -2.67896 0
M  V30 14646 N 1379.07 1.38501 0.752011 0
M  V30 14647 C 1380 1.30236 1.87387 0
M  V30 14648 C 1380.98 0.179099 1.61611 0
M  V30 14649 O 1382.16 0.356686 1.85095 0
M  V30 14650 C 1379.29 1.01829 3.2303 0
M  V30 14651 C 1378.34 2.16114 3.67691 0
M  V30 14652 S 1379.17 3.78266 3.79044 0
M  V30 14653 C 1380.32 3.5205 5.17505 0
M  V30 14654 H 1380.56 2.25185 1.94111 0
M  V30 14655 H 1378.09 1.24356 0.915152 0
M  V30 14656 H 1380.05 0.861231 4.01364 0
M  V30 14657 H 1378.71 0.0859612 3.13982 0
M  V30 14658 H 1377.9 1.91788 4.66083 0
M  V30 14659 H 1377.5 2.27936 2.96515 0
M  V30 14660 H 1379.8 3.08262 6.03308 0
M  V30 14661 H 1380.74 4.49842 5.46853 0
M  V30 14662 H 1381.15 2.86528 4.86377 0
M  V30 14663 N 1380.55 -0.980364 1.23396 0
M  V30 14664 C 1381.79 -1.72421 1.06765 0
M  V30 14665 C 1382.12 -1.90151 -0.394515 0
M  V30 14666 O 1381.4 -1.4538 -1.29209 0
M  V30 14667 C 1381.68 -3.12246 1.79372 0
M  V30 14668 C 1381.54 -3.02087 3.33262 0
M  V30 14669 C 1382.85 -4.11667 1.55624 0
M  V30 14670 H 1379.97 -0.625822 0.389251 0
M  V30 14671 H 1382.62 -1.14132 1.51901 0
M  V30 14672 H 1380.77 -3.62008 1.41004 0
M  V30 14673 H 1382.44 -2.59848 3.81152 0
M  V30 14674 H 1380.68 -2.38592 3.62293 0
M  V30 14675 H 1381.35 -4.01087 3.79254 0
M  V30 14676 H 1383.83 -3.70712 1.88975 0
M  V30 14677 H 1382.7 -5.07593 2.08902 0
M  V30 14678 H 1382.96 -4.39358 0.491601 0
M  V30 14679 N 1382.02 -1.04567 -1.17913 0
M  V30 14680 C 1383.25 -0.772146 -1.92491 0
M  V30 14681 C 1383.67 0.665297 -1.75942 0
M  V30 14682 O 1383.03 1.46144 -1.07292 0
M  V30 14683 C 1383.08 -1.14966 -3.41782 0
M  V30 14684 O 1382.18 -0.278091 -4.11461 0
M  V30 14685 H 1381.52 -0.283715 -0.600335 0
M  V30 14686 H 1384.05 -1.39685 -1.49496 0
M  V30 14687 H 1384.06 -1.11374 -3.92505 0
M  V30 14688 H 1382.74 -2.1968 -3.53148 0
M  V30 14689 H 1381.32 -0.374073 -3.71019 0
M  V30 14690 N 1383.5 1.34231 -0.825823 0
M  V30 14691 C 1384.78 1.92662 -0.337743 0
M  V30 14692 C 1385.16 1.75358 1.17529 0
M  V30 14693 O 1384.51 1.13405 1.98372 0
M  V30 14694 C 1384.72 3.40394 -0.770269 0
M  V30 14695 C 1386.06 4.17546 -0.770767 0
M  V30 14696 O 1387.09 3.4899 -0.713035 0
M  V30 14697 O 1385.95 5.39903 -0.846602 0
M  V30 14698 H 1383.04 0.821768 -0.0928741 0
M  V30 14699 H 1385.59 1.43187 -0.910807 0
M  V30 14700 H 1384.36 3.46802 -1.81228 0
M  V30 14701 H 1383.98 3.97223 -0.17306 0
M  V30 14702 N 1384.98 0.581051 1.46498 0
M  V30 14703 C 1385.93 -0.153147 2.30291 0
M  V30 14704 C 1386.9 -0.885681 1.40517 0
M  V30 14705 O 1388.08 -0.876678 1.69467 0
M  V30 14706 C 1385.22 -1.16193 3.24951 0
M  V30 14707 C 1384.33 -0.433016 4.29824 0
M  V30 14708 C 1383.47 -1.42918 5.11613 0
M  V30 14709 C 1382.51 -0.686576 6.08237 0
M  V30 14710 N 1381.65 -1.63072 6.829 0
M  V30 14711 H 1386.49 0.56747 2.92547 0
M  V30 14712 H 1384.02 0.29166 1.4418 0
M  V30 14713 H 1385.98 -1.75965 3.78275 0
M  V30 14714 H 1384.61 -1.85028 2.64508 0
M  V30 14715 H 1383.66 0.279707 3.7937 0
M  V30 14716 H 1384.97 0.147604 4.98582 0
M  V30 14717 H 1384.13 -2.09975 5.69206 0
M  V30 14718 H 1382.87 -2.04373 4.42813 0
M  V30 14719 H 1381.87 -0.00222013 5.498 0
M  V30 14720 H 1383.1 -0.0774416 6.79056 0
M  V30 14721 H 1381.04 -2.2334 6.1681 0
M  V30 14722 H 1380.96 -1.10286 7.47912 0
M  V30 14723 H 1382.23 -2.29169 7.45052 0
M  V30 14724 N 1386.46 -1.54343 0.318742 0
M  V30 14725 C 1387.71 -2.00084 -0.284713 0
M  V30 14726 C 1388.03 -1.20855 -1.53033 0
M  V30 14727 O 1387.3 -0.309104 -1.93446 0
M  V30 14728 H 1385.88 -0.739123 -0.108193 0
M  V30 14729 H 1388.54 -1.90002 0.434174 0
M  V30 14730 H 1387.63 -3.07314 -0.544459 0
M  V30 14731 N 1387.94 -0.0468143 -1.5753 0
M  V30 14732 C 1388.88 0.946945 -2.12452 0
M  V30 14733 C 1389.88 1.32515 -1.05527 0
M  V30 14734 O 1391.08 1.30532 -1.23941 0
M  V30 14735 H 1387.46 0.323223 -0.678993 0
M  V30 14736 H 1389.43 0.45858 -2.94855 0
M  V30 14737 C 1388.18 2.21402 -2.68098 0
M  V30 14738 H 1387.5 1.93178 -3.50032 0
M  V30 14739 H 1388.94 2.89105 -3.10152 0
M  V30 14740 C 1387.4 2.95576 -1.61668 0
M  V30 14741 O 1387.93 3.88353 -1.02689 0
M  V30 14742 N 1386.14 2.58228 -1.33291 0
M  V30 14743 H 1385.68 1.82858 -1.8144 0
M  V30 14744 H 1385.64 3.08164 -0.623092 0
M  V30 14745 N 1389.41 1.55964 0.226527 0
M  V30 14746 C 1390.34 1.95028 1.284 0
M  V30 14747 C 1391.33 0.817833 1.49149 0
M  V30 14748 O 1392.51 1.07975 1.61416 0
M  V30 14749 C 1389.64 2.26266 2.63478 0
M  V30 14750 C 1388.59 3.41954 2.57393 0
M  V30 14751 C 1387.92 3.58786 3.96456 0
M  V30 14752 C 1389.22 4.77069 2.12608 0
M  V30 14753 H 1390.91 2.83608 0.959513 0
M  V30 14754 H 1388.46 1.36451 0.460125 0
M  V30 14755 H 1390.41 2.52186 3.3761 0
M  V30 14756 H 1389.14 1.34533 2.97604 0
M  V30 14757 H 1387.8 3.16076 1.85719 0
M  V30 14758 H 1387.44 2.64437 4.27881 0
M  V30 14759 H 1387.14 4.36595 3.93267 0
M  V30 14760 H 1388.67 3.87048 4.72256 0
M  V30 14761 H 1390.08 5.02226 2.76481 0
M  V30 14762 H 1388.48 5.58126 2.2049 0
M  V30 14763 H 1389.55 4.7276 1.07823 0
M  V30 14764 N 1390.89 -0.493031 1.4969 0
M  V30 14765 C 1391.83 -1.61165 1.61558 0
M  V30 14766 C 1392.8 -1.55828 0.464363 0
M  V30 14767 O 1393.99 -1.7577 0.680973 0
M  V30 14768 C 1391.11 -2.997 1.5779 0
M  V30 14769 C 1390.16 -3.2327 2.78207 0
M  V30 14770 S 1390.99 -3.05531 4.39785 0
M  V30 14771 C 1392.15 -4.46447 4.38675 0
M  V30 14772 H 1392.38 -1.50854 2.56185 0
M  V30 14773 H 1389.92 -0.678777 1.38679 0
M  V30 14774 H 1391.87 -3.79579 1.56302 0
M  V30 14775 H 1390.53 -3.07419 0.644379 0
M  V30 14776 H 1389.73 -4.24422 2.71812 0
M  V30 14777 H 1389.33 -2.51126 2.77149 0
M  V30 14778 H 1391.62 -5.38683 4.10886 0
M  V30 14779 H 1392.56 -4.5789 5.40132 0
M  V30 14780 H 1392.97 -4.27499 3.68652 0
M  V30 14781 N 1392.37 -1.38898 -0.744656 0
M  V30 14782 C 1393.6 -1.38647 -1.53169 0
M  V30 14783 C 1394.01 0.0233199 -1.89186 0
M  V30 14784 O 1393.35 1.00261 -1.53927 0
M  V30 14785 C 1393.41 -2.18615 -2.85391 0
M  V30 14786 C 1393.08 -3.67342 -2.71862 0
M  V30 14787 C 1394.07 -4.60638 -2.41057 0
M  V30 14788 C 1391.76 -4.10809 -2.89035 0
M  V30 14789 C 1393.75 -5.95383 -2.27592 0
M  V30 14790 C 1391.44 -5.45632 -2.7519 0
M  V30 14791 C 1392.44 -6.37733 -2.44512 0
M  V30 14792 O 1392.13 -7.70074 -2.30741 0
M  V30 14793 H 1391.86 -0.475741 -0.480257 0
M  V30 14794 H 1394.41 -1.8321 -0.928621 0
M  V30 14795 H 1392.64 -1.68784 -3.47921 0
M  V30 14796 H 1394.33 -2.1066 -3.46954 0
M  V30 14797 H 1395.1 -4.28359 -2.2745 0
M  V30 14798 H 1390.98 -3.39462 -3.11908 0
M  V30 14799 H 1394.52 -6.67237 -2.03569 0
M  V30 14800 H 1390.42 -5.77504 -2.88373 0
M  V30 14801 H 1391.19 -7.80694 -2.45885 0
M  V30 14802 N 1393.85 0.973806 -1.23914 0
M  V30 14803 C 1395.07 1.7564 -1.10296 0
M  V30 14804 C 1395.5 1.84984 0.340954 0
M  V30 14805 O 1394.86 1.31629 1.24674 0
M  V30 14806 C 1394.9 3.15809 -1.7406 0
M  V30 14807 O 1394.01 3.99911 -1.00722 0
M  V30 14808 H 1393.35 0.540133 -0.386202 0
M  V30 14809 H 1395.88 1.22197 -1.64101 0
M  V30 14810 H 1395.89 3.66359 -1.79568 0
M  V30 14811 H 1394.56 3.08324 -2.79122 0
M  V30 14812 H 1393.14 3.58405 -1.02956 0
M  V30 14813 N 1395.33 1.05191 1.17357 0
M  V30 14814 C 1396.6 0.675826 1.83554 0
M  V30 14815 C 1396.98 -0.843812 1.93502 0
M  V30 14816 O 1396.33 -1.74975 1.46956 0
M  V30 14817 C 1396.54 1.36481 3.21207 0
M  V30 14818 C 1397.89 1.50285 3.97114 0
M  V30 14819 O 1398.91 1.32382 3.30686 0
M  V30 14820 O 1397.77 1.79562 5.16159 0
M  V30 14821 H 1394.87 0.237898 0.792044 0
M  V30 14822 H 1397.41 1.1515 1.24654 0
M  V30 14823 H 1396.18 2.40156 3.08935 0
M  V30 14824 H 1395.81 0.878491 3.87774 0
M  V30 14825 N 1396.8 -1.33791 0.83293 0
M  V30 14826 C 1397.75 -2.31249 0.250357 0
M  V30 14827 C 1398.75 -1.57865 -0.614403 0
M  V30 14828 O 1399.95 -1.72782 -0.504627 0
M  V30 14829 H 1396.33 -0.749421 0.0622268 0
M  V30 14830 H 1398.3 -2.77899 1.08697 0
M  V30 14831 C 1397.05 -3.43082 -0.564783 0
M  V30 14832 H 1396.37 -3.99696 0.0913189 0
M  V30 14833 H 1397.81 -4.13486 -0.938351 0
M  V30 14834 C 1396.27 -2.88414 -1.74124 0
M  V30 14835 O 1396.8 -2.84113 -2.83976 0
M  V30 14836 N 1395.01 -2.45101 -1.56121 0
M  V30 14837 H 1394.55 -2.48799 -0.667607 0
M  V30 14838 H 1394.51 -2.08875 -2.34986 0
M  V30 14839 N 1398.28 -0.588812 -1.46187 0
M  V30 14840 C 1399.7 -0.250962 -1.57615 0
M  V30 14841 C 1399.9 1.2467 -1.58302 0
M  V30 14842 O 1398.95 2.02876 -1.50325 0
M  V30 14843 C 1400.27 -0.905561 -2.8674 0
M  V30 14844 C 1401.82 -0.879721 -3.00383 0
M  V30 14845 C 1402.29 -1.51398 -4.32253 0
M  V30 14846 N 1403.78 -1.4786 -4.38967 0
M  V30 14847 C 1404.52 -1.93868 -5.39632 0
M  V30 14848 N 1404.01 -2.47876 -6.46938 0
M  V30 14849 N 1405.81 -1.84748 -5.30872 0
M  V30 14850 H 1397.96 -1.56148 -1.43985 0
M  V30 14851 H 1400.22 -0.653028 -0.68721 0
M  V30 14852 H 1399.93 -1.95935 -2.92066 0
M  V30 14853 H 1399.8 -0.417456 -3.74883 0
M  V30 14854 H 1402.19 0.165466 -2.94636 0
M  V30 14855 H 1402.27 -1.40591 -2.137 0
M  V30 14856 H 1401.91 -2.55839 -4.38758 0
M  V30 14857 H 1401.84 -0.962965 -5.17721 0
M  V30 14858 H 1404.33 -1.08387 -3.62023 0
M  V30 14859 H 1404.65 -2.80824 -7.1997 0
M  V30 14860 H 1402.99 -2.51905 -6.47741 0
M  V30 14861 H 1406.18 -1.42307 -4.45944 0
M  V30 14862 H 1406.35 -2.20919 -6.09179 0
M  V30 14863 N 1399.76 1.54172 -0.326923 0
M  V30 14864 C 1400.99 2.05512 0.279231 0
M  V30 14865 C 1401.41 1.20131 1.44741 0
M  V30 14866 O 1400.77 0.211191 1.80066 0
M  V30 14867 C 1400.82 3.53971 0.688263 0
M  V30 14868 O 1399.92 3.71516 1.79025 0
M  V30 14869 H 1399.26 0.662131 0.0497826 0
M  V30 14870 H 1401.79 1.98979 -0.476309 0
M  V30 14871 H 1401.8 3.96302 0.970002 0
M  V30 14872 H 1400.48 4.15568 -0.166132 0
M  V30 14873 H 1399.05 3.4109 1.50706 0
M  V30 14874 N 1401.24 0.0551678 1.57503 0
M  V30 14875 C 1402.49 -0.61772 1.92848 0
M  V30 14876 C 1402.81 -1.70614 0.933862 0
M  V30 14877 O 1402.07 -1.95628 -0.0532073 0
M  V30 14878 C 1402.37 -1.24895 3.34867 0
M  V30 14879 C 1402.03 -0.288325 4.49977 0
M  V30 14880 C 1400.7 -0.0240016 4.81194 0
M  V30 14881 C 1403.05 0.369804 5.19886 0
M  V30 14882 C 1400.38 0.905818 5.79665 0
M  V30 14883 C 1402.73 1.28784 6.19352 0
M  V30 14884 C 1401.39 1.5608 6.48996 0
M  V30 14885 H 1400.66 -0.22604 0.705682 0
M  V30 14886 H 1403.31 0.1225 1.91108 0
M  V30 14887 H 1401.61 -2.06452 3.32993 0
M  V30 14888 H 1403.31 -1.77659 3.59497 0
M  V30 14889 H 1399.9 -0.504524 4.2562 0
M  V30 14890 H 1404.08 0.178689 4.95978 0
M  V30 14891 H 1399.34 1.12472 6.00966 0
M  V30 14892 H 1403.51 1.80385 6.72632 0
M  V30 14893 H 1401.14 2.28292 7.25112 0
M  V30 14894 N 1402.72 -1.56081 -0.218252 0
M  V30 14895 C 1403.65 -1.89176 -1.29403 0
M  V30 14896 C 1404.66 -0.780312 -1.42881 0
M  V30 14897 O 1405.85 -1.05863 -1.4372 0
M  V30 14898 C 1402.95 -2.08818 -2.66923 0
M  V30 14899 C 1402.12 -3.39854 -2.75351 0
M  V30 14900 C 1401.18 -3.48889 -3.93908 0
M  V30 14901 O 1400.21 -4.21894 -3.82091 0
M  V30 14902 N 1401.41 -2.80273 -5.08357 0
M  V30 14903 H 1404.18 -2.82047 -1.01338 0
M  V30 14904 H 1401.74 -1.56667 -0.408278 0
M  V30 14905 H 1403.73 -2.12175 -3.44622 0
M  V30 14906 H 1402.3 -1.22557 -2.87574 0
M  V30 14907 H 1401.52 -3.48568 -1.84104 0
M  V30 14908 H 1402.81 -4.26168 -2.77954 0
M  V30 14909 H 1402.2 -2.20744 -5.20854 0
M  V30 14910 H 1400.76 -2.89286 -5.84086 0
M  V30 14911 N 1404.2 0.485086 -1.49949 0
M  V30 14912 C 1405.44 1.23571 -1.5992 0
M  V30 14913 C 1405.76 1.92754 -0.295108 0
M  V30 14914 O 1405.03 1.83474 0.686582 0
M  V30 14915 H 1403.61 0.459104 -0.589264 0
M  V30 14916 H 1406.28 0.560822 -1.86657 0
M  V30 14917 H 1405.37 1.99114 -2.40333 0
M  V30 14918 N 1405.67 1.39291 0.737279 0
M  V30 14919 C 1406.62 1.37829 1.85127 0
M  V30 14920 C 1407.59 0.238321 1.64381 0
M  V30 14921 O 1408.78 0.433081 1.8582 0
M  V30 14922 C 1405.92 1.22531 3.22615 0
M  V30 14923 C 1405.03 2.46052 3.55081 0
M  V30 14924 C 1404.16 2.2336 4.81958 0
M  V30 14925 C 1403.2 3.42569 5.0726 0
M  V30 14926 N 1402.34 3.19209 6.2534 0
M  V30 14927 H 1407.18 2.33056 1.85712 0
M  V30 14928 H 1404.72 1.15772 0.907484 0
M  V30 14929 H 1406.67 1.11673 4.01976 0
M  V30 14930 H 1405.3 0.30934 3.21314 0
M  V30 14931 H 1404.36 2.67521 2.70438 0
M  V30 14932 H 1405.67 3.3485 3.69698 0
M  V30 14933 H 1404.82 2.09732 5.69295 0
M  V30 14934 H 1403.56 1.31953 4.6951 0
M  V30 14935 H 1402.57 3.56698 4.18386 0
M  V30 14936 H 1403.79 4.34874 5.21595 0
M  V30 14937 H 1401.74 2.30464 6.14184 0
M  V30 14938 H 1401.65 4.01562 6.40534 0
M  V30 14939 H 1402.92 3.09269 7.15523 0
M  V30 14940 N 1407.15 -0.967221 1.24429 0
M  V30 14941 C 1408.06 -2.09582 1.05417 0
M  V30 14942 C 1409.08 -1.73999 -0.00516127 0
M  V30 14943 O 1410.25 -2.00472 0.193115 0
M  V30 14944 C 1407.32 -3.40327 0.661697 0
M  V30 14945 C 1406.38 -3.89854 1.79756 0
M  V30 14946 C 1405.61 -5.1436 1.42372 0
M  V30 14947 O 1405.84 -5.69536 0.313754 0
M  V30 14948 O 1404.77 -5.58283 2.24952 0
M  V30 14949 H 1408.6 -2.28517 2.00034 0
M  V30 14950 H 1406.18 -1.07978 1.03253 0
M  V30 14951 H 1408.06 -4.18943 0.454369 0
M  V30 14952 H 1406.74 -3.22691 -0.255348 0
M  V30 14953 H 1405.64 -3.12297 2.05964 0
M  V30 14954 H 1406.98 -4.11967 2.69339 0
M  V30 14955 N 1408.63 -1.05812 -1.16797 0
M  V30 14956 C 1409.85 -0.792518 -1.91661 0
M  V30 14957 C 1410.28 0.646598 -1.76637 0
M  V30 14958 O 1409.64 1.44998 -1.08836 0
M  V30 14959 C 1409.69 -1.18585 -3.40544 0
M  V30 14960 O 1408.79 -0.321716 -4.11143 0
M  V30 14961 H 1408.13 -0.290066 -0.597292 0
M  V30 14962 H 1410.66 -1.41263 -1.48007 0
M  V30 14963 H 1410.67 -1.1553 -3.91301 0
M  V30 14964 H 1409.35 -2.23413 -3.50798 0
M  V30 14965 H 1407.92 -0.413403 -3.70601 0
M  V30 14966 N 1410.11 1.33347 -0.840014 0
M  V30 14967 C 1411.36 1.97007 -0.432581 0
M  V30 14968 C 1411.67 1.67278 1.01378 0
M  V30 14969 O 1412.88 2.2456 1.52595 0
M  V30 14970 C 1411.33 3.52572 -0.72258 0
M  V30 14971 C 1410.94 3.91176 -2.1837 0
M  V30 14972 C 1412.68 4.22776 -0.382153 0
M  V30 14973 C 1410.59 5.39724 -2.41768 0
M  V30 14974 H 1409.52 0.737255 -0.158024 0
M  V30 14975 H 1412.17 1.5195 -1.02876 0
M  V30 14976 H 1410.55 3.9596 -0.0560179 0
M  V30 14977 H 1411.73 3.58842 -2.89083 0
M  V30 14978 H 1410.04 3.33956 -2.48721 0
M  V30 14979 H 1412.64 5.32021 -0.534588 0
M  V30 14980 H 1412.98 4.10792 0.674967 0
M  V30 14981 H 1413.52 3.84922 -1.004 0
M  V30 14982 H 1410.25 5.56713 -3.4605 0
M  V30 14983 H 1409.77 5.73514 -1.75617 0
M  V30 14984 H 1411.45 6.06624 -2.2498 0
M  V30 14985 N 1411.59 0.596556 1.45873 0
M  V30 14986 C 1412.83 0.0874583 2.02311 0
M  V30 14987 C 1413.16 -1.27781 1.46636 0
M  V30 14988 O 1412.42 -1.85393 0.62674 0
M  V30 14989 C 1412.71 -0.0135714 3.57397 0
M  V30 14990 C 1412.38 1.28591 4.32175 0
M  V30 14991 C 1411.04 1.6419 4.52322 0
M  V30 14992 C 1413.39 2.14523 4.75005 0
M  V30 14993 C 1410.72 2.85493 5.12553 0
M  V30 14994 C 1413.07 3.35065 5.36577 0
M  V30 14995 C 1411.74 3.70929 5.54949 0
M  V30 14996 H 1411.01 0.0320033 0.740309 0
M  V30 14997 H 1413.66 0.775967 1.75074 0
M  V30 14998 H 1411.96 -0.785287 3.8385 0
M  V30 14999 H 1413.66 -0.423456 3.98758 0
M  V30 15000 H 1410.25 0.99881 4.16799 0
M  V30 15001 H 1414.43 1.88321 4.59183 0
M  V30 15002 H 1409.69 3.134 5.24967 0
M  V30 15003 H 1413.86 4.01909 5.6872 0
M  V30 15004 H 1411.49 4.65011 6.01389 0
M  V30 15005 N 1413.06 -1.53996 0.335095 0
M  V30 15006 C 1414.31 -2.00375 -0.263475 0
M  V30 15007 C 1414.63 -1.22471 -1.51742 0
M  V30 15008 O 1413.9 -0.329604 -1.93107 0
M  V30 15009 H 1412.48 -0.740229 -0.100347 0
M  V30 15010 H 1415.14 -1.89531 0.454302 0
M  V30 15011 H 1414.24 -3.07874 -0.511834 0
M  V30 15012 N 1414.54 -0.0635198 -1.57472 0
M  V30 15013 C 1415.82 0.648029 -1.84553 0
M  V30 15014 C 1416.2 1.88295 -0.954371 0
M  V30 15015 O 1415.55 2.28492 -0.0185351 0
M  V30 15016 C 1415.76 0.993573 -3.34558 0
M  V30 15017 C 1417.1 1.3706 -4.0187 0
M  V30 15018 O 1418.13 1.08555 -3.39255 0
M  V30 15019 O 1416.99 1.90309 -5.12294 0
M  V30 15020 H 1414.08 0.321047 -0.76214 0
M  V30 15021 H 1416.63 -0.0938223 -1.6944 0
M  V30 15022 H 1415.4 0.116139 -3.91128 0
M  V30 15023 H 1415.02 1.79246 -3.54904 0
M  V30 15024 N 1416.02 1.56195 0.209972 0
M  V30 15025 C 1416.97 1.94226 1.27981 0
M  V30 15026 C 1417.96 0.825742 1.47912 0
M  V30 15027 O 1419.17 1.01066 1.48949 0
M  V30 15028 H 1415.54 0.617395 0.429333 0
M  V30 15029 H 1417.51 2.83474 0.931946 0
M  V30 15030 C 1416.26 2.28527 2.62051 0
M  V30 15031 H 1415.59 3.1396 2.47526 0
M  V30 15032 H 1417.03 2.59012 3.35692 0
M  V30 15033 C 1415.48 1.11452 3.17931 0
M  V30 15034 O 1416.01 0.381713 3.99882 0
M  V30 15035 N 1414.22 0.895263 2.76466 0
M  V30 15036 H 1413.77 1.4929 2.09929 0
M  V30 15037 H 1413.73 0.113688 3.14194 0
M  V30 15038 N 1417.5 -0.477127 1.50204 0
M  V30 15039 C 1418.43 -1.59442 1.63259 0
M  V30 15040 C 1419.41 -1.55327 0.480864 0
M  V30 15041 O 1420.59 -1.75038 0.699578 0
M  V30 15042 C 1417.72 -2.98009 1.6096 0
M  V30 15043 C 1416.77 -3.20301 2.8162 0
M  V30 15044 S 1417.6 -3.00849 4.43001 0
M  V30 15045 C 1418.75 -4.41769 4.43386 0
M  V30 15046 H 1418.99 -1.48128 2.5777 0
M  V30 15047 H 1416.52 -0.66403 1.39392 0
M  V30 15048 H 1418.48 -3.779 1.60319 0
M  V30 15049 H 1417.14 -3.06718 0.676948 0
M  V30 15050 H 1416.33 -4.21515 2.76299 0
M  V30 15051 H 1415.93 -2.48173 2.79797 0
M  V30 15052 H 1418.23 -5.34294 4.16576 0
M  V30 15053 H 1419.17 -4.52135 5.44958 0
M  V30 15054 H 1419.58 -4.23565 3.73166 0
M  V30 15055 N 1418.98 -1.3968 -0.729882 0
M  V30 15056 C 1419.92 -1.3896 -1.86528 0
M  V30 15057 C 1420.92 -0.272027 -1.67202 0
M  V30 15058 O 1422.12 -0.442328 -1.74481 0
M  V30 15059 H 1418.5 -0.434045 -0.614092 0
M  V30 15060 H 1420.47 -2.34721 -1.84252 0
M  V30 15061 C 1419.22 -1.255 -3.24261 0
M  V30 15062 H 1418.54 -2.10767 -3.39731 0
M  V30 15063 H 1419.98 -1.29054 -4.03882 0
M  V30 15064 C 1418.44 0.0361127 -3.36881 0
M  V30 15065 O 1418.97 1.0044 -3.8894 0
M  V30 15066 N 1417.18 0.100874 -2.90425 0
M  V30 15067 H 1416.72 -0.687797 -2.48248 0
M  V30 15068 H 1416.68 0.964251 -2.99248 0
M  V30 15069 N 1420.45 0.960609 -1.2494 0
M  V30 15070 C 1421.36 2.0902 -1.06527 0
M  V30 15071 C 1422.38 1.74 -0.00406641 0
M  V30 15072 O 1423.56 2.00367 -0.203744 0
M  V30 15073 C 1420.62 3.39971 -0.679736 0
M  V30 15074 C 1419.68 3.88895 -1.81821 0
M  V30 15075 C 1418.92 5.13597 -1.45098 0
M  V30 15076 O 1419.14 5.69362 -0.343954 0
M  V30 15077 O 1418.07 5.57083 -2.27909 0
M  V30 15078 H 1421.9 2.27453 -2.01243 0
M  V30 15079 H 1419.48 1.07429 -1.03824 0
M  V30 15080 H 1421.37 4.18696 -0.47658 0
M  V30 15081 H 1420.04 3.22822 0.238231 0
M  V30 15082 H 1418.95 3.11201 -2.07617 0
M  V30 15083 H 1420.28 4.10533 -2.7152 0
M  V30 15084 N 1421.93 1.0643 1.16234 0
M  V30 15085 C 1422.86 0.697605 2.22836 0
M  V30 15086 C 1423.84 -0.310563 1.67241 0
M  V30 15087 O 1425.03 -0.185385 1.93313 0
M  V30 15088 C 1422.16 0.0847097 3.47197 0
M  V30 15089 C 1421.11 1.019 4.15693 0
M  V30 15090 C 1420.44 0.269339 5.34021 0
M  V30 15091 C 1421.74 2.34861 4.66516 0
M  V30 15092 H 1423.43 1.58883 2.53765 0
M  V30 15093 H 1420.98 0.765388 1.21975 0
M  V30 15094 H 1422.93 -0.1837 4.20999 0
M  V30 15095 H 1421.66 -0.84154 3.15572 0
M  V30 15096 H 1420.31 1.27218 3.43818 0
M  V30 15097 H 1419.96 -0.660072 4.9865 0
M  V30 15098 H 1419.66 0.892001 5.8079 0
M  V30 15099 H 1421.19 0.00850775 6.10599 0
M  V30 15100 H 1422.6 2.13922 5.31893 0
M  V30 15101 H 1421 2.92637 5.23912 0
M  V30 15102 H 1422.07 2.97834 3.82653 0
M  V30 15103 N 1423.41 -1.329 0.847073 0
M  V30 15104 C 1424.34 -2.27903 0.243522 0
M  V30 15105 C 1425.36 -1.52101 -0.58043 0
M  V30 15106 O 1426.54 -1.73818 -0.406158 0
M  V30 15107 C 1423.64 -3.32107 -0.675118 0
M  V30 15108 C 1422.82 -4.37258 0.111305 0
M  V30 15109 C 1421.88 -5.21085 -0.731933 0
M  V30 15110 O 1420.9 -5.68951 -0.168176 0
M  V30 15111 N 1422.1 -5.43175 -2.04794 0
M  V30 15112 H 1424.87 -2.80335 1.05983 0
M  V30 15113 H 1422.43 -1.4568 0.706322 0
M  V30 15114 H 1424.42 -3.85093 -1.2444 0
M  V30 15115 H 1422.99 -2.79891 -1.39212 0
M  V30 15116 H 1422.21 -3.8466 0.861991 0
M  V30 15117 H 1423.5 -5.04608 0.651756 0
M  V30 15118 H 1422.9 -5.06002 -2.5294 0
M  V30 15119 H 1421.46 -5.99186 -2.56552 0
M  V30 15120 N 1424.89 -0.604284 -1.45555 0
M  V30 15121 C 1426.12 -0.104452 -2.06636 0
M  V30 15122 C 1426.53 1.20976 -1.44949 0
M  V30 15123 O 1425.89 1.73616 -0.562468 0
M  V30 15124 C 1425.94 0.0451646 -3.61472 0
M  V30 15125 O 1425.66 -1.21705 -4.20856 0
M  V30 15126 C 1427.16 0.57684 -4.39531 0
M  V30 15127 H 1424.38 -0.067326 -0.667614 0
M  V30 15128 H 1426.93 -0.831079 -1.86851 0
M  V30 15129 H 1425.08 0.722104 -3.80611 0
M  V30 15130 H 1425.49 -1.04462 -5.13992 0
M  V30 15131 H 1426.97 0.630627 -5.48386 0
M  V30 15132 H 1427.45 1.59842 -4.09081 0
M  V30 15133 H 1428.05 -0.0659444 -4.25249 0
M  V30 15134 N 1426.37 1.53816 -0.343257 0
M  V30 15135 C 1427.61 2.00909 0.253346 0
M  V30 15136 C 1427.94 1.23109 1.5058 0
M  V30 15137 O 1427.2 0.306682 1.93282 0
M  V30 15138 C 1427.5 3.521 0.613243 0
M  V30 15139 C 1427.16 4.47627 -0.5423 0
M  V30 15140 C 1425.82 4.73463 -0.859418 0
M  V30 15141 C 1428.18 5.04272 -1.31754 0
M  V30 15142 C 1425.5 5.532 -1.95415 0
M  V30 15143 C 1427.86 5.85203 -2.40251 0
M  V30 15144 C 1426.52 6.09334 -2.72523 0
M  V30 15145 H 1425.79 0.735178 0.0927058 0
M  V30 15146 H 1428.44 1.85615 -0.471111 0
M  V30 15147 H 1426.74 3.65224 1.41841 0
M  V30 15148 H 1428.44 3.85994 1.08673 0
M  V30 15149 H 1425.03 4.27651 -0.285076 0
M  V30 15150 H 1429.21 4.84277 -1.0858 0
M  V30 15151 H 1424.47 5.70122 -2.20842 0
M  V30 15152 H 1428.64 6.28109 -3.00753 0
M  V30 15153 H 1426.27 6.70906 -3.57476 0
M  V30 15154 N 1427.84 0.0718701 1.57436 0
M  V30 15155 C 1429.09 -0.598116 1.93779 0
M  V30 15156 C 1429.42 -1.69258 0.952131 0
M  V30 15157 O 1428.7 -1.94491 -0.0186426 0
M  V30 15158 C 1428.98 -1.17499 3.40391 0
M  V30 15159 C 1428.83 -0.0871719 4.49716 0
M  V30 15160 C 1430.15 -2.08047 3.8782 0
M  V30 15161 H 1427.27 -0.215954 0.704651 0
M  V30 15162 H 1429.91 0.137854 1.89499 0
M  V30 15163 H 1428.06 -1.80221 3.44169 0
M  V30 15164 H 1429.74 0.545906 4.58058 0
M  V30 15165 H 1427.98 0.582213 4.29875 0
M  V30 15166 H 1428.65 -0.531202 5.49438 0
M  V30 15167 H 1431.13 -1.5526 3.86049 0
M  V30 15168 H 1430 -2.45345 4.91016 0
M  V30 15169 H 1430.26 -2.98879 3.25766 0
M  V30 15170 N 1429.32 -1.56304 -0.201686 0
M  V30 15171 C 1430.29 -1.93171 -1.2336 0
M  V30 15172 C 1431.29 -0.812164 -1.38782 0
M  V30 15173 O 1432.48 -1.07967 -1.36707 0
M  V30 15174 C 1429.61 -2.19997 -2.60411 0
M  V30 15175 H 1430.8 -2.85483 -0.918654 0
M  V30 15176 H 1428.35 -1.49893 -0.442935 0
M  V30 15177 H 1429.09 -1.30301 -2.96972 0
M  V30 15178 H 1428.87 -3.01574 -2.5059 0
M  V30 15179 H 1430.36 -2.49547 -3.34838 0
M  V30 15180 N 1430.8 0.469154 -1.50455 0
M  V30 15181 C 1431.75 1.58765 -1.6999 0
M  V30 15182 C 1432.74 1.59673 -0.56577 0
M  V30 15183 O 1433.95 1.63799 -0.74632 0
M  V30 15184 H 1430.32 0.526868 -0.536577 0
M  V30 15185 H 1432.29 1.39451 -2.6381 0
M  V30 15186 C 1431.04 2.9669 -1.81302 0
M  V30 15187 H 1430.37 2.96711 -2.67961 0
M  V30 15188 H 1431.81 3.74403 -1.98994 0
M  V30 15189 C 1430.27 3.32127 -0.565086 0
M  V30 15190 O 1430.8 4.00616 0.294873 0
M  V30 15191 N 1429 2.8757 -0.418537 0
M  V30 15192 H 1428.55 2.32008 -1.11938 0
M  V30 15193 H 1428.51 3.11645 0.415276 0
M  V30 15194 N 1432.28 1.40065 0.722464 0
M  V30 15195 C 1433.69 1.21944 1.02965 0
M  V30 15196 C 1433.89 0.0898069 2.013 0
M  V30 15197 O 1432.95 -0.554519 2.46336 0
M  V30 15198 C 1434.26 2.55848 1.57995 0
M  V30 15199 C 1435.81 2.62801 1.70013 0
M  V30 15200 C 1436.29 3.96957 2.2845 0
M  V30 15201 N 1437.78 3.98662 2.35844 0
M  V30 15202 C 1438.51 4.99248 2.82026 0
M  V30 15203 N 1438.01 6.1023 3.28012 0
M  V30 15204 N 1439.8 4.8662 2.81349 0
M  V30 15205 H 1431.95 2.12283 0.0705301 0
M  V30 15206 H 1434.22 0.943338 0.0938991 0
M  V30 15207 H 1433.92 3.39125 0.932034 0
M  V30 15208 H 1433.8 2.76452 2.5662 0
M  V30 15209 H 1436.18 1.799 2.33923 0
M  V30 15210 H 1436.26 2.46034 0.700062 0
M  V30 15211 H 1435.91 4.80295 1.65164 0
M  V30 15212 H 1435.84 4.1105 3.29158 0
M  V30 15213 H 1438.33 3.18518 2.03358 0
M  V30 15214 H 1438.64 6.82878 3.61797 0
M  V30 15215 H 1436.99 6.13805 3.25988 0
M  V30 15216 H 1440.18 3.99015 2.44755 0
M  V30 15217 H 1440.35 5.65155 3.17024 0
M  V30 15218 N 1433.76 -0.95397 1.25448 0
M  V30 15219 C 1434.69 -2.05412 1.01679 0
M  V30 15220 C 1435.7 -1.62789 -0.0184932 0
M  V30 15221 O 1436.89 -1.77137 0.220136 0
M  V30 15222 C 1433.99 -3.3496 0.515292 0
M  V30 15223 C 1433.16 -4.06418 1.61688 0
M  V30 15224 C 1432.22 -5.14237 1.11564 0
M  V30 15225 O 1431.25 -5.39649 1.81017 0
M  V30 15226 N 1432.45 -5.80484 -0.0427228 0
M  V30 15227 H 1435.22 -2.26372 1.96407 0
M  V30 15228 H 1432.78 -1.12257 1.16662 0
M  V30 15229 H 1434.77 -4.04366 0.164426 0
M  V30 15230 H 1433.34 -3.10767 -0.33807 0
M  V30 15231 H 1432.56 -3.31101 2.1393 0
M  V30 15232 H 1433.85 -4.50917 2.35693 0
M  V30 15233 H 1433.25 -5.62259 -0.623038 0
M  V30 15234 H 1431.8 -6.50941 -0.334615 0
M  V30 15235 N 1435.24 -1.07045 -1.15668 0
M  V30 15236 C 1436.18 -0.688004 -2.20307 0
M  V30 15237 C 1437.15 0.319081 -1.63006 0
M  V30 15238 O 1438.34 0.206239 -1.89682 0
M  V30 15239 C 1435.48 -0.0886692 -3.44986 0
M  V30 15240 C 1434.59 -1.14685 -4.16499 0
M  V30 15241 C 1433.73 -0.512852 -5.28719 0
M  V30 15242 C 1432.76 -1.55404 -5.92044 0
M  V30 15243 N 1431.9 -0.942848 -6.9574 0
M  V30 15244 H 1436.74 -1.58469 -2.52372 0
M  V30 15245 H 1434.28 -0.792184 -1.23947 0
M  V30 15246 H 1436.24 0.276415 -4.16283 0
M  V30 15247 H 1434.87 0.77139 -3.13448 0
M  V30 15248 H 1433.92 -1.62955 -3.43729 0
M  V30 15249 H 1435.23 -1.93643 -4.59678 0
M  V30 15250 H 1434.38 -0.0952274 -6.06625 0
M  V30 15251 H 1433.12 0.308524 -4.86723 0
M  V30 15252 H 1432.13 -1.98148 -5.12852 0
M  V30 15253 H 1433.35 -2.37765 -6.36117 0
M  V30 15254 H 1431.3 -0.142319 -6.55846 0
M  V30 15255 H 1431.22 -1.6697 -7.37331 0
M  V30 15256 H 1432.48 -0.550621 -7.77553 0
M  V30 15257 N 1436.71 1.32449 -0.85411 0
M  V30 15258 C 1437.99 1.91902 -0.378533 0
M  V30 15259 C 1438.37 1.77811 1.13782 0
M  V30 15260 O 1437.72 1.17588 1.95922 0
M  V30 15261 C 1437.93 3.38683 -0.842299 0
M  V30 15262 C 1439.28 4.15817 -0.859161 0
M  V30 15263 O 1440.3 3.47399 -0.786901 0
M  V30 15264 O 1439.16 5.37985 -0.960933 0
M  V30 15265 H 1436.25 0.819614 -0.110284 0
M  V30 15266 H 1438.8 1.41222 -0.940974 0
M  V30 15267 H 1437.57 3.4288 -1.88544 0
M  V30 15268 H 1437.19 3.96767 -0.257278 0
M  V30 15269 N 1438.19 0.611994 1.45232 0
M  V30 15270 C 1439.14 -0.116695 2.32307 0
M  V30 15271 C 1440.13 -0.85519 1.46229 0
M  V30 15272 O 1441.34 -0.770257 1.62687 0
M  V30 15273 H 1437.71 -0.0564902 0.749875 0
M  V30 15274 H 1439.69 0.636073 2.91542 0
M  V30 15275 C 1438.43 -1.09768 3.29919 0
M  V30 15276 H 1437.76 -0.538848 3.96152 0
M  V30 15277 H 1439.2 -1.57739 3.93566 0
M  V30 15278 C 1437.66 -2.17344 2.57417 0
M  V30 15279 O 1438.19 -3.2515 2.35882 0
M  V30 15280 N 1436.39 -1.92749 2.17477 0
M  V30 15281 H 1435.94 -1.05084 2.35192 0
M  V30 15282 H 1435.9 -2.6493 1.69291 0
M  V30 15283 N 1439.67 -1.53632 0.351409 0
M  V30 15284 C 1440.6 -2.28217 -0.49391 0
M  V30 15285 C 1441.58 -1.30085 -1.09599 0
M  V30 15286 O 1442.77 -1.58938 -1.1159 0
M  V30 15287 C 1439.9 -3.06085 -1.64102 0
M  V30 15288 C 1438.85 -4.11786 -1.16689 0
M  V30 15289 C 1438.18 -4.77654 -2.40314 0
M  V30 15290 C 1439.48 -5.21644 -0.261742 0
M  V30 15291 H 1441.17 -2.99125 0.1283 0
M  V30 15292 H 1438.72 -1.43861 0.0631462 0
M  V30 15293 H 1440.67 -3.57003 -2.2389 0
M  V30 15294 H 1439.39 -2.32842 -2.29025 0
M  V30 15295 H 1438.05 -3.61792 -0.591784 0
M  V30 15296 H 1437.7 -4.00997 -3.03661 0
M  V30 15297 H 1437.4 -5.49072 -2.09268 0
M  V30 15298 H 1438.92 -5.3136 -3.00813 0
M  V30 15299 H 1440.34 -5.6815 -0.766689 0
M  V30 15300 H 1438.73 -6.00085 -0.0428132 0
M  V30 15301 H 1439.8 -4.79821 0.699999 0
M  V30 15302 N 1441.15 -0.0802183 -1.57396 0
M  V30 15303 C 1442.1 0.901668 -2.14412 0
M  V30 15304 C 1443.09 1.30247 -1.08314 0
M  V30 15305 O 1444.3 1.27873 -1.26682 0
M  V30 15306 H 1440.67 0.308748 -0.685696 0
M  V30 15307 H 1442.64 0.395934 -2.95762 0
M  V30 15308 C 1441.39 2.15665 -2.72734 0
M  V30 15309 H 1440.71 1.8571 -3.54051 0
M  V30 15310 H 1442.15 2.82461 -3.16214 0
M  V30 15311 C 1440.61 2.9208 -1.67901 0
M  V30 15312 O 1441.14 3.86087 -1.10903 0
M  V30 15313 N 1439.35 2.55343 -1.38739 0
M  V30 15314 H 1438.9 1.78969 -1.85278 0
M  V30 15315 H 1438.85 3.06773 -0.688317 0
M  V30 15316 N 1442.63 1.56409 0.193394 0
M  V30 15317 C 1443.57 1.95572 1.25914 0
M  V30 15318 C 1444.57 0.841384 1.47028 0
M  V30 15319 O 1445.77 1.0264 1.47868 0
M  V30 15320 H 1442.15 0.621914 0.422761 0
M  V30 15321 H 1444.12 2.84446 0.901827 0
M  V30 15322 C 1442.87 2.31293 2.59613 0
M  V30 15323 H 1442.19 3.16568 2.44182 0
M  V30 15324 H 1443.63 2.62558 3.32926 0
M  V30 15325 C 1442.09 1.14818 3.16731 0
M  V30 15326 O 1442.62 0.424105 3.99455 0
M  V30 15327 N 1440.83 0.924536 2.75501 0
M  V30 15328 H 1440.37 1.51509 2.08334 0
M  V30 15329 H 1440.33 0.147006 3.14056 0
M  V30 15330 N 1444.1 -0.461169 1.50702 0
M  V30 15331 C 1445.33 -1.23375 1.65717 0
M  V30 15332 C 1445.74 -1.86047 0.343992 0
M  V30 15333 O 1445.08 -1.70447 -0.68508 0
M  V30 15334 C 1445.15 -2.3758 2.69808 0
M  V30 15335 C 1444.81 -1.95467 4.13088 0
M  V30 15336 C 1445.81 -1.47154 4.9864 0
M  V30 15337 C 1443.49 -2.03885 4.5906 0
M  V30 15338 C 1445.49 -1.07815 6.28215 0
M  V30 15339 C 1443.17 -1.64157 5.88639 0
M  V30 15340 C 1444.17 -1.16201 6.73043 0
M  V30 15341 O 1443.86 -0.770282 8.00201 0
M  V30 15342 H 1443.59 -0.378885 0.559841 0
M  V30 15343 H 1446.15 -0.555712 1.9774 0
M  V30 15344 H 1444.38 -3.08586 2.33049 0
M  V30 15345 H 1446.06 -2.99517 2.73942 0
M  V30 15346 H 1446.83 -1.40064 4.64335 0
M  V30 15347 H 1442.71 -2.40159 3.93503 0
M  V30 15348 H 1446.25 -0.703139 6.94047 0
M  V30 15349 H 1442.15 -1.70909 6.22463 0
M  V30 15350 H 1442.92 -0.898254 8.13556 0
M  V30 15351 N 1445.58 -1.40446 -0.715026 0
M  V30 15352 C 1446.83 -1.3896 -1.47709 0
M  V30 15353 C 1447.16 0.00798698 -1.94198 0
M  V30 15354 O 1446.44 0.976732 -1.68197 0
M  V30 15355 C 1446.72 -2.37955 -2.70277 0
M  V30 15356 C 1446.57 -3.8674 -2.29678 0
M  V30 15357 C 1447.89 -2.34478 -3.72435 0
M  V30 15358 H 1445.01 -0.50607 -0.535782 0
M  V30 15359 H 1447.65 -1.71585 -0.815999 0
M  V30 15360 H 1445.8 -2.10264 -3.26682 0
M  V30 15361 H 1447.47 -4.2526 -1.7875 0
M  V30 15362 H 1445.72 -4.02547 -1.61674 0
M  V30 15363 H 1446.39 -4.51524 -3.17538 0
M  V30 15364 H 1448.86 -2.59007 -3.2566 0
M  V30 15365 H 1447.74 -3.05791 -4.55832 0
M  V30 15366 H 1448 -1.35661 -4.20771 0
M  V30 15367 N 1447.06 0.947303 -1.25952 0
M  V30 15368 C 1448.31 1.69279 -1.11135 0
M  V30 15369 C 1448.63 1.9139 0.346407 0
M  V30 15370 O 1447.89 1.48786 1.27126 0
M  V30 15371 C 1448.19 3.07652 -1.81892 0
M  V30 15372 C 1447.85 3.05317 -3.31802 0
M  V30 15373 C 1446.52 3.04387 -3.72695 0
M  V30 15374 C 1448.87 2.98088 -4.27543 0
M  V30 15375 C 1446.2 2.93987 -5.07729 0
M  V30 15376 C 1448.55 2.89229 -5.62609 0
M  V30 15377 C 1447.21 2.86639 -6.02822 0
M  V30 15378 H 1446.48 0.619435 -0.40667 0
M  V30 15379 H 1449.13 1.10621 -1.56318 0
M  V30 15380 H 1447.43 3.69898 -1.29161 0
M  V30 15381 H 1449.13 3.6417 -1.67873 0
M  V30 15382 H 1445.72 3.06817 -2.99268 0
M  V30 15383 H 1449.91 2.9792 -3.96935 0
M  V30 15384 H 1445.16 2.90355 -5.38056 0
M  V30 15385 H 1449.34 2.82598 -6.36483 0
M  V30 15386 H 1446.96 2.78336 -7.07413 0
M  V30 15387 N 1448.54 1.07657 1.15099 0
M  V30 15388 C 1449.47 0.657598 2.19564 0
M  V30 15389 C 1450.48 -0.29146 1.6017 0
M  V30 15390 O 1451.67 -0.0802981 1.78319 0
M  V30 15391 C 1448.77 -0.0542221 3.38857 0
M  V30 15392 C 1447.95 0.911803 4.27791 0
M  V30 15393 C 1447 0.236709 5.25667 0
M  V30 15394 O 1446.03 0.878731 5.62376 0
M  V30 15395 N 1447.23 -1.01641 5.71532 0
M  V30 15396 H 1450 1.55626 2.56126 0
M  V30 15397 H 1447.56 0.961657 1.30245 0
M  V30 15398 H 1449.55 -0.516603 4.01389 0
M  V30 15399 H 1448.12 -0.854871 3.00684 0
M  V30 15400 H 1447.34 1.55322 3.6231 0
M  V30 15401 H 1448.63 1.56667 4.8408 0
M  V30 15402 H 1448.03 -1.55791 5.43825 0
M  V30 15403 H 1446.58 -1.42242 6.3609 0
M  V30 15404 N 1450.02 -1.31994 0.861122 0
M  V30 15405 C 1451.26 -1.96636 0.466754 0
M  V30 15406 C 1451.59 -1.6845 -0.982328 0
M  V30 15407 O 1450.86 -0.995157 -1.68741 0
M  V30 15408 H 1449.44 -0.727489 0.169613 0
M  V30 15409 H 1452.1 -1.60962 1.09897 0
M  V30 15410 H 1451.19 -3.05937 0.61716 0
M  V30 15411 N 1451.49 -0.619688 -1.44906 0
M  V30 15412 C 1452.43 0.130316 -2.28829 0
M  V30 15413 C 1453.44 0.820039 -1.40639 0
M  V30 15414 O 1454.63 0.683401 -1.649 0
M  V30 15415 C 1451.73 1.20618 -3.16709 0
M  V30 15416 C 1450.9 0.60121 -4.33248 0
M  V30 15417 C 1449.96 1.56954 -5.02247 0
M  V30 15418 O 1448.99 1.09112 -5.58644 0
M  V30 15419 N 1450.19 2.90395 -5.02644 0
M  V30 15420 H 1452.95 -0.589867 -2.93838 0
M  V30 15421 H 1450.51 -0.460028 -1.55227 0
M  V30 15422 H 1452.51 1.85404 -3.59732 0
M  V30 15423 H 1451.08 1.82873 -2.53528 0
M  V30 15424 H 1450.3 -0.225015 -3.93557 0
M  V30 15425 H 1451.58 0.177471 -5.0849 0
M  V30 15426 H 1450.98 3.31855 -4.58136 0
M  V30 15427 H 1449.54 3.50572 -5.49493 0
M  V30 15428 N 1452.97 1.53444 -0.359552 0
M  V30 15429 C 1453.92 2.22312 0.506084 0
M  V30 15430 C 1454.91 1.21618 1.05347 0
M  V30 15431 O 1456.1 1.47093 0.984511 0
M  V30 15432 C 1453.23 3.01137 1.64837 0
M  V30 15433 C 1452.31 4.09203 1.11416 0
M  V30 15434 N 1452.7 5.04895 0.302445 0
M  V30 15435 C 1451 4.23801 1.38954 0
M  V30 15436 C 1451.7 5.81699 0.0106517 0
M  V30 15437 N 1450.68 5.40204 0.606648 0
M  V30 15438 H 1454.48 2.93651 -0.120961 0
M  V30 15439 H 1452 1.61536 -0.167249 0
M  V30 15440 H 1453.99 3.48988 2.28063 0
M  V30 15441 H 1452.65 2.31328 2.27854 0
M  V30 15442 H 1453.66 5.17868 -0.0578423 0
M  V30 15443 H 1450.34 3.65217 2.02293 0
M  V30 15444 H 1451.73 6.68795 -0.645163 0
M  V30 15445 N 1454.45 0.0885642 1.57351 0
M  V30 15446 C 1455.86 -0.441569 1.81403 0
M  V30 15447 C 1456.21 -1.68582 1.00372 0
M  V30 15448 O 1455.34 -2.15162 0.231153 0
M  V30 15449 C 1455.93 -0.807886 3.29027 0
M  V30 15450 C 1454.49 -1.2828 3.53866 0
M  V30 15451 C 1453.64 -0.276217 2.75921 0
M  V30 15452 H 1456.59 0.314083 1.55561 0
M  V30 15453 H 1456.61 -1.66797 3.41993 0
M  V30 15454 H 1456.12 0.0978886 3.87977 0
M  V30 15455 H 1454.22 -2.2065 3.0024 0
M  V30 15456 H 1454.34 -1.24914 4.62529 0
M  V30 15457 H 1452.7 -0.757007 2.4319 0
M  V30 15458 H 1453.48 0.622123 3.37616 0
M  V30 15459 N 1455.93 -1.56509 -0.185096 0
M  V30 15460 C 1456.86 -1.98363 -1.23184 0
M  V30 15461 C 1457.84 -0.85709 -1.46929 0
M  V30 15462 O 1459.02 -1.12216 -1.58497 0
M  V30 15463 C 1456.15 -2.33172 -2.57387 0
M  V30 15464 C 1455.11 -3.48658 -2.48236 0
M  V30 15465 C 1454.43 -3.69171 -3.86804 0
M  V30 15466 C 1455.73 -4.82538 -1.99885 0
M  V30 15467 H 1457.43 -2.86053 -0.883982 0
M  V30 15468 H 1454.97 -1.37623 -0.423786 0
M  V30 15469 H 1456.93 -2.61048 -3.30805 0
M  V30 15470 H 1455.65 -1.42377 -2.93933 0
M  V30 15471 H 1454.31 -3.20889 -1.77273 0
M  V30 15472 H 1453.96 -2.75689 -4.20719 0
M  V30 15473 H 1453.66 -4.46868 -3.81553 0
M  V30 15474 H 1455.18 -3.99433 -4.61829 0
M  V30 15475 H 1456.6 -5.0938 -2.63068 0
M  V30 15476 H 1454.99 -5.63775 -2.05614 0
M  V30 15477 H 1456.06 -4.75453 -0.952503 0
M  V30 15478 N 1457.41 0.45317 -1.50944 0
M  V30 15479 C 1458.63 1.22672 -1.66611 0
M  V30 15480 C 1459.05 1.85398 -0.356814 0
M  V30 15481 O 1458.41 1.70026 0.663122 0
M  V30 15482 C 1458.46 2.32238 -2.77034 0
M  V30 15483 O 1458.18 1.72081 -4.02889 0
M  V30 15484 C 1459.68 3.22802 -3.03832 0
M  V30 15485 H 1456.9 0.370337 -0.559546 0
M  V30 15486 H 1459.44 0.538884 -1.97272 0
M  V30 15487 H 1457.6 2.96765 -2.49017 0
M  V30 15488 H 1458.01 2.4437 -4.64095 0
M  V30 15489 H 1459.49 3.95851 -3.84716 0
M  V30 15490 H 1459.96 3.82636 -2.15608 0
M  V30 15491 H 1460.57 2.63993 -3.33449 0
M  V30 15492 N 1458.88 1.40823 0.707568 0
M  V30 15493 C 1459.81 1.44485 1.83429 0
M  V30 15494 C 1460.8 0.304848 1.67346 0
M  V30 15495 O 1461.98 0.514605 1.87258 0
M  V30 15496 C 1459.11 1.31458 3.21459 0
M  V30 15497 C 1458.06 2.43145 3.52228 0
M  V30 15498 C 1457.39 2.15189 4.89487 0
M  V30 15499 C 1458.69 3.85489 3.52414 0
M  V30 15500 H 1460.38 2.38781 1.80622 0
M  V30 15501 H 1457.93 1.14931 0.867572 0
M  V30 15502 H 1459.88 1.32635 3.99983 0
M  V30 15503 H 1458.61 0.336422 3.24863 0
M  V30 15504 H 1457.27 2.41231 2.76049 0
M  V30 15505 H 1456.91 1.15745 4.89502 0
M  V30 15506 H 1456.61 2.90022 5.11039 0
M  V30 15507 H 1458.14 2.18062 5.70334 0
M  V30 15508 H 1459.55 3.89183 4.20963 0
M  V30 15509 H 1457.95 4.59906 3.85495 0
M  V30 15510 H 1459.02 4.14499 2.51632 0
M  V30 15511 N 1460.36 -0.94061 1.26453 0
M  V30 15512 C 1461.31 -2.06073 1.07873 0
M  V30 15513 C 1462.3 -1.69399 0.0055001 0
M  V30 15514 O 1463.51 -1.79267 0.162224 0
M  V30 15515 H 1459.89 -0.674748 0.331993 0
M  V30 15516 H 1461.86 -2.18895 2.02799 0
M  V30 15517 C 1460.61 -3.39971 0.729054 0
M  V30 15518 H 1459.93 -3.68667 1.54675 0
M  V30 15519 H 1461.37 -4.1916 0.638844 0
M  V30 15520 C 1459.83 -3.32114 -0.565835 0
M  V30 15521 O 1460.36 -3.68287 -1.60399 0
M  V30 15522 N 1458.56 -2.85218 -0.556679 0
M  V30 15523 H 1458.11 -2.55979 0.288541 0
M  V30 15524 H 1458.07 -2.80344 -1.42318 0
M  V30 15525 N 1461.84 -1.08266 -1.14527 0
M  V30 15526 C 1462.75 -0.723043 -2.2318 0
M  V30 15527 C 1463.77 0.269819 -1.71895 0
M  V30 15528 O 1464.94 0.114126 -2.01076 0
M  V30 15529 C 1462.01 -0.136229 -3.46432 0
M  V30 15530 C 1461.07 -1.18352 -4.12664 0
M  V30 15531 C 1460.3 -0.624612 -5.30032 0
M  V30 15532 O 1460.52 0.556377 -5.6768 0
M  V30 15533 O 1459.46 -1.37397 -5.86008 0
M  V30 15534 H 1463.28 -1.6294 -2.56289 0
M  V30 15535 H 1460.87 -0.856235 -1.22429 0
M  V30 15536 H 1462.75 0.18829 -4.20979 0
M  V30 15537 H 1461.43 0.74331 -3.1505 0
M  V30 15538 H 1460.33 -1.56054 -3.39997 0
M  V30 15539 H 1461.67 -2.03528 -4.48148 0
M  V30 15540 N 1463.32 1.31536 -0.86811 0
M  V30 15541 C 1464.54 2.01487 -0.491705 0
M  V30 15542 C 1464.97 1.64744 0.907803 0
M  V30 15543 O 1464.33 0.855093 1.59868 0
M  V30 15544 C 1464.38 3.54621 -0.65395 0
M  V30 15545 O 1463.48 4.11252 0.307532 0
M  V30 15546 H 1462.82 0.634469 -0.195819 0
M  V30 15547 H 1465.35 1.67775 -1.17101 0
M  V30 15548 H 1465.36 4.04323 -0.546539 0
M  V30 15549 H 1464.04 3.80704 -1.67443 0
M  V30 15550 H 1462.61 3.72577 0.155233 0
M  V30 15551 N 1464.8 0.627364 1.44575 0
M  V30 15552 C 1465.75 -0.0920488 2.32418 0
M  V30 15553 C 1466.74 -0.839633 1.47128 0
M  V30 15554 O 1467.95 -0.752958 1.63495 0
M  V30 15555 H 1464.32 -0.0485336 0.750432 0
M  V30 15556 H 1466.29 0.666959 2.90851 0
M  V30 15557 C 1465.04 -1.06262 3.31064 0
M  V30 15558 H 1464.36 -0.4968 3.96701 0
M  V30 15559 H 1465.8 -1.53556 3.95217 0
M  V30 15560 C 1464.26 -2.14601 2.59707 0
M  V30 15561 O 1464.79 -3.2263 2.39317 0
M  V30 15562 N 1463 -1.90431 2.19509 0
M  V30 15563 H 1462.55 -1.02584 2.36293 0
M  V30 15564 H 1462.5 -2.6312 1.72091 0
M  V30 15565 N 1466.28 -1.53251 0.367684 0
M  V30 15566 C 1467.69 -1.86369 -0.111073 0
M  V30 15567 C 1468.04 -1.2882 -1.47986 0
M  V30 15568 O 1467.16 -0.611058 -2.07593 0
M  V30 15569 C 1467.76 -3.38159 -0.208325 0
M  V30 15570 C 1466.32 -3.71067 -0.63134 0
M  V30 15571 C 1465.46 -2.76425 0.220144 0
M  V30 15572 H 1468.41 -1.47469 0.586398 0
M  V30 15573 H 1468.44 -3.66252 -1.03151 0
M  V30 15574 H 1467.95 -3.80015 0.788038 0
M  V30 15575 H 1466.05 -3.34769 -1.63586 0
M  V30 15576 H 1466.16 -4.77389 -0.404491 0
M  V30 15577 H 1464.53 -2.5279 -0.311298 0
M  V30 15578 H 1465.31 -3.21115 1.21409 0
M  V30 15579 N 1467.75 -0.0969077 -1.57302 0
M  V30 15580 C 1468.7 0.878876 -2.15357 0
M  V30 15581 C 1469.7 1.29091 -1.0969 0
M  V30 15582 O 1470.9 1.26523 -1.28031 0
M  V30 15583 H 1467.28 0.301458 -0.688932 0
M  V30 15584 H 1469.25 0.364542 -2.96165 0
M  V30 15585 C 1468 2.12761 -2.75006 0
M  V30 15586 H 1467.32 1.81944 -3.56 0
M  V30 15587 H 1468.76 2.79092 -3.19193 0
M  V30 15588 C 1467.22 2.90283 -1.70989 0
M  V30 15589 O 1467.75 3.84889 -1.14992 0
M  V30 15590 N 1465.95 2.53857 -1.41439 0
M  V30 15591 H 1465.5 1.76993 -1.87166 0
M  V30 15592 H 1465.46 3.06025 -0.720816 0
M  V30 15593 N 1469.23 1.56605 0.176793 0
M  V30 15594 C 1470.46 1.85812 0.910019 0
M  V30 15595 C 1470.87 0.68164 1.76066 0
M  V30 15596 O 1470.23 -0.34936 1.79125 0
M  V30 15597 C 1470.28 3.14001 1.79125 0
M  V30 15598 O 1470 4.27114 0.974931 0
M  V30 15599 C 1471.5 3.56516 2.6346 0
M  V30 15600 H 1468.72 0.616608 0.264643 0
M  V30 15601 H 1471.27 2.03719 0.178537 0
M  V30 15602 H 1469.42 2.97937 2.47613 0
M  V30 15603 H 1469.84 5.00227 1.57711 0
M  V30 15604 H 1471.31 4.49128 3.20918 0
M  V30 15605 H 1471.79 2.80373 3.38065 0
M  V30 15606 H 1472.39 3.75173 2.00313 0
M  V30 15607 N 1470.71 -0.445159 1.51182 0
M  V30 15608 C 1471.96 -1.19701 1.63705 0
M  V30 15609 C 1472.29 -1.91047 0.348511 0
M  V30 15610 O 1471.56 -1.83264 -0.651497 0
M  V30 15611 C 1471.85 -2.22021 2.83511 0
M  V30 15612 C 1471.7 -1.54809 4.2232 0
M  V30 15613 C 1473.02 -3.23083 2.9884 0
M  V30 15614 H 1470.14 -0.433818 0.595795 0
M  V30 15615 H 1472.78 -0.487276 1.83645 0
M  V30 15616 H 1470.93 -2.82551 2.66641 0
M  V30 15617 H 1472.6 -0.976774 4.5084 0
M  V30 15618 H 1470.84 -0.850596 4.25379 0
M  V30 15619 H 1471.52 -2.29289 5.02126 0
M  V30 15620 H 1473.99 -2.72601 3.14369 0
M  V30 15621 H 1472.87 -3.91978 3.84246 0
M  V30 15622 H 1473.13 -3.88732 2.1057 0
M  V30 15623 N 1472.19 -1.41197 -0.700089 0
M  V30 15624 C 1473.1 -1.45038 -1.84394 0
M  V30 15625 C 1474.11 -0.34141 -1.70618 0
M  V30 15626 O 1475.29 -0.588428 -1.92612 0
M  V30 15627 C 1472.35 -1.32611 -3.20336 0
M  V30 15628 C 1471.42 -2.53784 -3.46254 0
M  V30 15629 C 1470.65 -2.4194 -4.75711 0
M  V30 15630 O 1470.87 -1.44153 -5.51884 0
M  V30 15631 O 1469.81 -3.31613 -5.02311 0
M  V30 15632 H 1473.63 -2.41531 -1.8411 0
M  V30 15633 H 1471.22 -1.22686 -0.852558 0
M  V30 15634 H 1473.1 -1.27947 -4.01507 0
M  V30 15635 H 1471.77 -0.392309 -3.21314 0
M  V30 15636 H 1470.68 -2.64024 -2.65032 0
M  V30 15637 H 1472.01 -3.45977 -3.50087 0
M  V30 15638 N 1473.67 0.933891 -1.2695 0
M  V30 15639 C 1474.91 1.6834 -1.13091 0
M  V30 15640 C 1475.24 1.91484 0.32367 0
M  V30 15641 O 1474.52 1.50075 1.23724 0
M  V30 15642 C 1474.8 3.05374 -1.90838 0
M  V30 15643 C 1474.66 2.8951 -3.44244 0
M  V30 15644 C 1475.97 4.05607 -1.70795 0
M  V30 15645 H 1473.09 0.610944 -0.41221 0
M  V30 15646 H 1475.74 1.08416 -1.56032 0
M  V30 15647 H 1473.89 3.56526 -1.54343 0
M  V30 15648 H 1475.56 2.45523 -3.90533 0
M  V30 15649 H 1473.8 2.24981 -3.70899 0
M  V30 15650 H 1474.47 3.86734 -3.93879 0
M  V30 15651 H 1476.95 3.63443 -2.02604 0
M  V30 15652 H 1475.82 4.9949 -2.27597 0
M  V30 15653 H 1476.08 4.37231 -0.654327 0
M  V30 15654 N 1475.14 1.08871 1.13951 0
M  V30 15655 C 1476.11 0.726655 2.17376 0
M  V30 15656 C 1477.11 -0.240922 1.58985 0
M  V30 15657 O 1478.3 -0.0198472 1.74189 0
M  V30 15658 C 1475.43 0.0736505 3.4082 0
M  V30 15659 H 1476.62 1.64254 2.5092 0
M  V30 15660 H 1474.17 0.887183 1.28681 0
M  V30 15661 H 1474.91 -0.853733 3.12861 0
M  V30 15662 H 1474.69 0.769782 3.84469 0
M  V30 15663 H 1476.18 -0.164465 4.17276 0
M  V30 15664 N 1476.62 -1.31073 0.875073 0
M  V30 15665 C 1477.87 -1.96809 0.489273 0
M  V30 15666 C 1478.2 -1.68979 -0.957073 0
M  V30 15667 O 1477.48 -0.989061 -1.67475 0
M  V30 15668 C 1477.76 -3.52139 0.752998 0
M  V30 15669 C 1477.61 -3.89524 2.24925 0
M  V30 15670 C 1478.93 -4.39535 0.222871 0
M  V30 15671 H 1476.05 -0.714873 0.179238 0
M  V30 15672 H 1478.69 -1.55114 1.09725 0
M  V30 15673 H 1476.84 -3.87785 0.23553 0
M  V30 15674 H 1478.51 -3.63953 2.83436 0
M  V30 15675 H 1476.76 -3.37948 2.71981 0
M  V30 15676 H 1477.43 -4.97845 2.38441 0
M  V30 15677 H 1479.9 -4.10741 0.665645 0
M  V30 15678 H 1478.78 -5.47159 0.436806 0
M  V30 15679 H 1479.04 -4.33346 -0.875445 0
M  V30 15680 N 1478.1 -0.635022 -1.4424 0
M  V30 15681 C 1479.33 -0.146549 -2.06882 0
M  V30 15682 C 1479.75 1.17143 -1.4717 0
M  V30 15683 O 1479.11 1.71952 -0.574636 0
M  V30 15684 C 1479.16 -0.0494694 -3.60566 0
M  V30 15685 O 1478.26 0.993423 -4.00256 0
M  V30 15686 H 1477.6 -0.0865505 -0.658335 0
M  V30 15687 H 1480.13 -0.872803 -1.85049 0
M  V30 15688 H 1480.14 0.139839 -4.0776 0
M  V30 15689 H 1478.82 -1.01169 -4.03407 0
M  V30 15690 H 1477.39 0.778372 -3.64686 0
M  V30 15691 N 1479.58 1.53054 -0.375806 0
M  V30 15692 C 1480.81 2.0582 0.211135 0
M  V30 15693 C 1481.22 1.24856 1.4162 0
M  V30 15694 O 1480.58 0.291786 1.80152 0
M  V30 15695 C 1480.63 3.56577 0.594573 0
M  V30 15696 O 1480.35 4.34472 -0.562607 0
M  V30 15697 C 1481.85 4.25639 1.23882 0
M  V30 15698 H 1479.07 0.670085 0.0350268 0
M  V30 15699 H 1481.62 1.9732 -0.537135 0
M  V30 15700 H 1479.77 3.65194 1.29275 0
M  V30 15701 H 1480.18 5.23902 -0.250487 0
M  V30 15702 H 1481.66 5.32408 1.45759 0
M  V30 15703 H 1482.14 3.80001 2.20218 0
M  V30 15704 H 1482.74 4.21302 0.581786 0
M  V30 15705 N 1481.06 0.105248 1.57248 0
M  V30 15706 C 1481.97 -0.864007 2.1811 0
M  V30 15707 C 1482.98 -1.30282 1.15337 0
M  V30 15708 O 1484.16 -1.36864 1.4775 0
M  V30 15709 C 1481.22 -2.1014 2.75757 0
M  V30 15710 C 1480.28 -1.71583 3.9352 0
M  V30 15711 C 1479.52 -2.89424 4.48408 0
M  V30 15712 O 1479.74 -4.04449 4.02215 0
M  V30 15713 O 1478.67 -2.67303 5.39289 0
M  V30 15714 H 1482.5 -0.376131 3.01362 0
M  V30 15715 H 1480.09 -0.119643 1.4892 0
M  V30 15716 H 1481.97 -2.82638 3.1256 0
M  V30 15717 H 1480.64 -2.57961 1.95545 0
M  V30 15718 H 1479.55 -0.962347 3.6151 0
M  V30 15719 H 1480.88 -1.28517 4.75126 0
M  V30 15720 N 1482.53 -1.56697 -0.168486 0
M  V30 15721 C 1483.76 -1.86652 -0.904195 0
M  V30 15722 C 1484.18 -0.691906 -1.74912 0
M  V30 15723 O 1483.54 0.358971 -1.77711 0
M  V30 15724 C 1483.59 -3.15043 -1.75442 0
M  V30 15725 O 1482.69 -2.97466 -2.85636 0
M  V30 15726 H 1482.04 -0.613859 -0.253128 0
M  V30 15727 H 1484.57 -2.03927 -0.165773 0
M  V30 15728 H 1484.58 -3.4652 -2.15378 0
M  V30 15729 H 1483.25 -4.00147 -1.13381 0
M  V30 15730 H 1481.83 -2.7735 -2.49262 0
M  V30 15731 N 1484.01 0.437135 -1.51416 0
M  V30 15732 C 1484.96 1.53061 -1.72745 0
M  V30 15733 C 1485.93 1.56045 -0.569149 0
M  V30 15734 O 1487.11 1.73052 -0.803602 0
M  V30 15735 C 1484.25 2.90774 -1.85861 0
M  V30 15736 C 1483.37 2.97318 -3.1341 0
M  V30 15737 C 1482.5 4.26156 -3.1712 0
M  V30 15738 C 1481.54 4.26568 -4.38983 0
M  V30 15739 N 1480.68 5.4693 -4.40241 0
M  V30 15740 H 1485.52 1.34177 -2.66084 0
M  V30 15741 H 1483.06 0.651803 -1.31871 0
M  V30 15742 H 1485.01 3.7068 -1.91447 0
M  V30 15743 H 1483.64 3.08216 -0.959306 0
M  V30 15744 H 1482.7 2.10074 -3.17132 0
M  V30 15745 H 1484.01 2.93485 -4.03321 0
M  V30 15746 H 1483.16 5.14435 -3.21623 0
M  V30 15747 H 1481.9 4.32646 -2.25098 0
M  V30 15748 H 1480.91 3.36681 -4.34656 0
M  V30 15749 H 1482.13 4.21741 -5.3227 0
M  V30 15750 H 1480.08 5.54141 -3.51089 0
M  V30 15751 H 1479.99 5.44977 -5.23962 0
M  V30 15752 H 1481.26 6.37241 -4.48937 0
M  V30 15753 N 1485.49 1.41566 0.692592 0
M  V30 15754 C 1486.45 1.43369 1.78824 0
M  V30 15755 C 1487.45 0.323867 1.57505 0
M  V30 15756 O 1488.64 0.583885 1.64123 0
M  V30 15757 C 1485.78 1.24798 3.17235 0
M  V30 15758 H 1486.97 2.40906 1.78617 0
M  V30 15759 H 1484.52 1.27752 0.900508 0
M  V30 15760 H 1485.26 0.281129 3.23079 0
M  V30 15761 H 1485.04 2.05212 3.34111 0
M  V30 15762 H 1486.53 1.28902 3.97208 0
M  V30 15763 N 1486.97 -0.927146 1.27443 0
M  V30 15764 C 1487.92 -2.04917 1.10053 0
M  V30 15765 C 1488.91 -1.69384 0.0234668 0
M  V30 15766 O 1490.12 -1.79085 0.181228 0
M  V30 15767 H 1486.49 -0.671189 0.33913 0
M  V30 15768 H 1488.46 -2.16732 2.05109 0
M  V30 15769 C 1487.21 -3.39178 0.765072 0
M  V30 15770 H 1486.53 -3.67006 1.58577 0
M  V30 15771 H 1487.97 -4.18458 0.683266 0
M  V30 15772 C 1486.43 -3.32696 -0.530578 0
M  V30 15773 O 1486.96 -3.69967 -1.56484 0
M  V30 15774 N 1485.17 -2.85793 -0.526396 0
M  V30 15775 H 1484.72 -2.55658 0.315675 0
M  V30 15776 H 1484.67 -2.81838 -1.39337 0
M  V30 15777 N 1488.45 -1.09474 -1.13372 0
M  V30 15778 C 1489.67 -0.853093 -1.89043 0
M  V30 15779 C 1490.1 0.590075 -1.78605 0
M  V30 15780 O 1489.45 1.41462 -1.13394 0
M  V30 15781 C 1489.5 -1.29359 -3.36599 0
M  V30 15782 O 1488.61 -0.452355 -4.09912 0
M  V30 15783 H 1487.95 -0.308922 -0.587761 0
M  V30 15784 H 1490.48 -1.459 -1.43437 0
M  V30 15785 H 1490.49 -1.27921 -3.87428 0
M  V30 15786 H 1489.16 -2.3446 -3.43513 0
M  V30 15787 H 1487.74 -0.531098 -3.69099 0
M  V30 15788 N 1489.92 1.30607 -0.882012 0
M  V30 15789 C 1491.34 1.48859 -0.575599 0
M  V30 15790 C 1491.54 1.80908 0.887388 0
M  V30 15791 O 1490.6 1.89492 1.6688 0
M  V30 15792 C 1491.91 2.61405 -1.48619 0
M  V30 15793 C 1493.46 2.75286 -1.48951 0
M  V30 15794 C 1493.93 3.90942 -2.38596 0
M  V30 15795 N 1495.42 3.98248 -2.36543 0
M  V30 15796 C 1496.16 4.87041 -3.0262 0
M  V30 15797 N 1495.65 5.80651 -3.77911 0
M  V30 15798 N 1497.45 4.80385 -2.91867 0
M  V30 15799 H 1489.6 1.08076 -1.82848 0
M  V30 15800 H 1491.86 0.535148 -0.782509 0
M  V30 15801 H 1491.57 2.44535 -2.52775 0
M  V30 15802 H 1491.44 3.57818 -1.19358 0
M  V30 15803 H 1493.83 2.91564 -0.455477 0
M  V30 15804 H 1493.91 1.79504 -1.82242 0
M  V30 15805 H 1493.55 3.75422 -3.42083 0
M  V30 15806 H 1493.48 4.86057 -2.02623 0
M  V30 15807 H 1495.97 3.31282 -1.81827 0
M  V30 15808 H 1496.29 6.45159 -4.25428 0
M  V30 15809 H 1494.63 5.80592 -3.82019 0
M  V30 15810 H 1497.82 4.06234 -2.32576 0
M  V30 15811 H 1498 5.49377 -3.43641 0
M  V30 15812 N 1491.4 0.642663 1.43901 0
M  V30 15813 C 1492.81 0.232809 1.85243 0
M  V30 15814 C 1493.16 -1.21834 1.53789 0
M  V30 15815 O 1492.29 -1.92855 0.981625 0
M  V30 15816 C 1492.88 0.415749 3.36239 0
M  V30 15817 C 1491.44 0.0603055 3.76352 0
M  V30 15818 C 1490.59 0.723658 2.67691 0
M  V30 15819 H 1493.54 0.847052 1.34204 0
M  V30 15820 H 1493.56 -0.341903 3.78961 0
M  V30 15821 H 1493.07 1.472 3.59101 0
M  V30 15822 H 1491.18 -0.993761 3.59103 0
M  V30 15823 H 1491.29 0.478408 4.76705 0
M  V30 15824 H 1489.65 0.15787 2.5421 0
M  V30 15825 H 1490.44 1.78273 2.93383 0
M  V30 15826 N 1492.88 -1.52852 0.383918 0
M  V30 15827 C 1494.3 -1.59565 0.0336391 0
M  V30 15828 C 1494.5 -1.39819 -1.45097 0
M  V30 15829 O 1493.55 -1.21249 -2.21484 0
M  V30 15830 C 1494.87 -2.96412 0.506001 0
M  V30 15831 C 1496.41 -3.09575 0.461794 0
M  V30 15832 C 1496.89 -4.48863 0.910259 0
M  V30 15833 N 1498.38 -4.55032 0.866053 0
M  V30 15834 C 1499.12 -5.61032 1.18453 0
M  V30 15835 N 1498.61 -6.74701 1.57321 0
M  V30 15836 N 1500.4 -5.51109 1.10613 0
M  V30 15837 H 1492.56 -1.63937 1.3505 0
M  V30 15838 H 1494.82 -0.769857 0.553194 0
M  V30 15839 H 1494.52 -3.16061 1.54268 0
M  V30 15840 H 1494.4 -3.77073 -0.0977643 0
M  V30 15841 H 1496.79 -2.89625 -0.565786 0
M  V30 15842 H 1496.87 -2.30879 1.10129 0
M  V30 15843 H 1496.51 -4.69553 1.93604 0
M  V30 15844 H 1496.44 -5.26017 0.247825 0
M  V30 15845 H 1498.93 -3.73423 0.579962 0
M  V30 15846 H 1499.24 -7.51545 1.8 0
M  V30 15847 H 1497.59 -6.76046 1.61203 0
M  V30 15848 H 1500.78 -4.61187 0.801531 0
M  V30 15849 H 1500.95 -6.33618 1.35766 0
M  V30 15850 N 1494.36 -0.113586 -1.5719 0
M  V30 15851 C 1495.29 0.868985 -2.12088 0
M  V30 15852 C 1496.3 1.23362 -1.06233 0
M  V30 15853 O 1497.49 1.18352 -1.33623 0
M  V30 15854 C 1494.59 2.17252 -2.60106 0
M  V30 15855 C 1493.77 1.9804 -3.89999 0
M  V30 15856 C 1492.83 3.12073 -4.23671 0
M  V30 15857 O 1491.85 2.85224 -4.92581 0
M  V30 15858 N 1493.05 4.38358 -3.80556 0
M  V30 15859 H 1495.82 0.399996 -2.97019 0
M  V30 15860 H 1493.38 0.0709947 -1.61744 0
M  V30 15861 H 1495.37 2.92523 -2.79665 0
M  V30 15862 H 1493.94 2.55516 -1.80084 0
M  V30 15863 H 1493.16 1.06993 -3.79402 0
M  V30 15864 H 1494.45 1.82502 -4.74943 0
M  V30 15865 H 1493.85 4.63048 -3.24966 0
M  V30 15866 H 1492.4 5.10518 -4.05234 0
M  V30 15867 N 1495.84 1.56784 0.160173 0
M  V30 15868 C 1496.77 2.00298 1.20012 0
M  V30 15869 C 1497.75 0.880356 1.45546 0
M  V30 15870 O 1498.93 1.14724 1.56691 0
M  V30 15871 C 1496.06 2.37238 2.53645 0
M  V30 15872 C 1495.02 3.52563 2.42658 0
M  V30 15873 C 1494.34 3.75278 3.80881 0
M  V30 15874 C 1495.64 4.85657 1.92183 0
M  V30 15875 H 1497.34 2.87423 0.838362 0
M  V30 15876 H 1494.88 1.3828 0.401838 0
M  V30 15877 H 1496.84 2.66278 3.2661 0
M  V30 15878 H 1495.56 1.47035 2.9163 0
M  V30 15879 H 1494.22 3.23669 1.72146 0
M  V30 15880 H 1493.87 2.82347 4.1628 0
M  V30 15881 H 1493.57 4.52882 3.74396 0
M  V30 15882 H 1495.09 4.0673 4.55415 0
M  V30 15883 H 1496.51 5.13501 2.54931 0
M  V30 15884 H 1494.9 5.66975 1.96619 0
M  V30 15885 H 1495.97 4.76908 0.876742 0
M  V30 15886 N 1497.32 -0.429099 1.51646 0
M  V30 15887 C 1498.56 -1.17644 1.65926 0
M  V30 15888 C 1498.92 -1.88715 0.374777 0
M  V30 15889 O 1498.21 -1.80952 -0.629842 0
M  V30 15890 C 1498.4 -2.2131 2.80636 0
M  V30 15891 C 1498.23 -1.60416 4.20115 0
M  V30 15892 C 1497 -1.38551 4.85934 0
M  V30 15893 C 1499.2 -1.07589 5.0292 0
M  V30 15894 N 1497.18 -0.733404 6.09503 0
M  V30 15895 C 1498.55 -0.549542 6.1756 0
M  V30 15896 C 1500.61 -0.968438 4.88391 0
M  V30 15897 C 1499.31 0.07371 7.19262 0
M  V30 15898 C 1501.34 -0.359068 5.90309 0
M  V30 15899 C 1500.7 0.156699 7.04226 0
M  V30 15900 H 1496.8 -0.417871 0.66099 0
M  V30 15901 H 1499.38 -0.471789 1.88897 0
M  V30 15902 H 1497.55 -2.89155 2.59314 0
M  V30 15903 H 1499.29 -2.88263 2.84054 0
M  V30 15904 H 1496.04 -1.64953 4.43945 0
M  V30 15905 H 1496.46 -0.424555 6.75667 0
M  V30 15906 H 1501.11 -1.35305 4.00565 0
M  V30 15907 H 1498.82 0.470433 8.0673 0
M  V30 15908 H 1502.41 -0.277718 5.81137 0
M  V30 15909 H 1501.29 0.62081 7.81739 0
M  V30 15910 N 1498.79 -1.41931 -0.685074 0
M  V30 15911 C 1499.74 -1.44604 -1.79884 0
M  V30 15912 C 1500.71 -0.299166 -1.63384 0
M  V30 15913 O 1501.9 -0.501749 -1.84085 0
M  V30 15914 C 1499.04 -1.3442 -3.17845 0
M  V30 15915 C 1498.15 -2.59061 -3.45704 0
M  V30 15916 C 1497.28 -2.41094 -4.73336 0
M  V30 15917 C 1496.32 -3.61159 -4.94197 0
M  V30 15918 N 1495.46 -3.42198 -6.13062 0
M  V30 15919 H 1500.3 -2.39788 -1.76934 0
M  V30 15920 H 1497.84 -1.1906 -0.863891 0
M  V30 15921 H 1499.79 -1.26515 -3.97555 0
M  V30 15922 H 1498.42 -0.42838 -3.19945 0
M  V30 15923 H 1497.48 -2.77374 -2.60322 0
M  V30 15924 H 1498.79 -3.48341 -3.57016 0
M  V30 15925 H 1497.94 -2.30717 -5.61119 0
M  V30 15926 H 1496.68 -1.49288 -4.64289 0
M  V30 15927 H 1495.69 -3.7198 -4.04859 0
M  V30 15928 H 1496.91 -4.53933 -5.05096 0
M  V30 15929 H 1494.86 -2.531 -6.05208 0
M  V30 15930 H 1494.77 -4.25059 -6.25189 0
M  V30 15931 H 1496.04 -3.35612 -7.03551 0
M  V30 15932 N 1500.27 0.920374 -1.27933 0
M  V30 15933 C 1501.22 2.02196 -1.1129 0
M  V30 15934 C 1502.19 1.66096 -0.0118871 0
M  V30 15935 O 1503.37 1.8999 -0.175586 0
M  V30 15936 C 1500.51 3.36312 -0.77383 0
M  V30 15937 C 1499.63 3.85322 -1.95322 0
M  V30 15938 C 1498.76 5.07919 -1.55537 0
M  V30 15939 C 1497.8 5.49244 -2.7018 0
M  V30 15940 N 1496.94 6.63034 -2.30933 0
M  V30 15941 H 1501.78 2.15764 -2.05548 0
M  V30 15942 H 1499.31 1.05691 -1.02312 0
M  V30 15943 H 1501.27 4.13451 -0.558024 0
M  V30 15944 H 1499.9 3.22531 0.131806 0
M  V30 15945 H 1498.95 3.04399 -2.28135 0
M  V30 15946 H 1500.27 4.11915 -2.81296 0
M  V30 15947 H 1499.42 5.92581 -1.30123 0
M  V30 15948 H 1498.16 4.8312 -0.666818 0
M  V30 15949 H 1497.16 4.63127 -2.96299 0
M  V30 15950 H 1498.39 5.76035 -3.59667 0
M  V30 15951 H 1496.34 6.39878 -1.44539 0
M  V30 15952 H 1496.25 6.89319 -3.10444 0
M  V30 15953 H 1497.52 7.51018 -2.08786 0
M  V30 15954 N 1501.75 1.10074 1.1279 0
M  V30 15955 C 1502.97 0.863106 1.88587 0
M  V30 15956 C 1503.4 -0.580595 1.78915 0
M  V30 15957 O 1502.76 -1.40859 1.14142 0
M  V30 15958 C 1502.81 1.31142 3.35908 0
M  V30 15959 O 1501.91 0.474088 4.09666 0
M  V30 15960 H 1501.25 0.312034 0.586115 0
M  V30 15961 H 1503.78 1.46659 1.42662 0
M  V30 15962 H 1503.79 1.29974 3.86744 0
M  V30 15963 H 1502.47 2.36279 3.42265 0
M  V30 15964 H 1501.04 0.550665 3.68812 0
M  V30 15965 N 1503.23 -1.30138 0.888926 0
M  V30 15966 C 1504.47 -1.96279 0.51012 0
M  V30 15967 C 1504.81 -1.69984 -0.939096 0
M  V30 15968 O 1504.08 -1.00677 -1.66416 0
M  V30 15969 C 1504.36 -3.51321 0.790305 0
M  V30 15970 C 1504.22 -3.87116 2.29044 0
M  V30 15971 C 1505.54 -4.39274 0.269477 0
M  V30 15972 H 1502.66 -0.712931 0.18681 0
M  V30 15973 H 1505.3 -1.53942 1.11364 0
M  V30 15974 H 1503.45 -3.87514 0.276647 0
M  V30 15975 H 1505.12 -3.60926 2.87281 0
M  V30 15976 H 1503.36 -3.35044 2.7555 0
M  V30 15977 H 1504.03 -4.95288 2.43708 0
M  V30 15978 H 1506.51 -4.10012 0.709173 0
M  V30 15979 H 1505.39 -5.46665 0.494815 0
M  V30 15980 H 1505.65 -4.3425 -0.829434 0
M  V30 15981 N 1504.71 -0.650285 -1.43559 0
M  V30 15982 C 1505.98 -0.0925343 -1.95381 0
M  V30 15983 C 1506.36 1.38668 -1.59168 0
M  V30 15984 O 1505.71 2.11069 -0.875324 0
M  V30 15985 C 1505.92 -0.335657 -3.47382 0
M  V30 15986 C 1507.27 -0.239032 -4.23927 0
M  V30 15987 O 1508.29 -0.268056 -3.5519 0
M  V30 15988 O 1507.15 -0.160241 -5.46265 0
M  V30 15989 H 1504.25 0.0113084 -0.826923 0
M  V30 15990 H 1506.79 -0.723319 -1.53513 0
M  V30 15991 H 1505.56 -1.36132 -3.66857 0
M  V30 15992 H 1505.19 0.328339 -3.96242 0
M  V30 15993 N 1506.18 1.52647 -0.392018 0
M  V30 15994 C 1507.41 2.06511 0.191815 0
M  V30 15995 C 1507.83 1.26162 1.39516 0
M  V30 15996 O 1507.19 0.287373 1.79008 0
M  V30 15997 C 1507.24 3.56571 0.537512 0
M  V30 15998 O 1506.34 3.78774 1.63106 0
M  V30 15999 H 1505.68 0.663647 0.0216546 0
M  V30 16000 H 1508.21 1.96779 -0.560274 0
M  V30 16001 H 1508.22 4.00059 0.801044 0
M  V30 16002 H 1506.9 4.14489 -0.342239 0
M  V30 16003 H 1505.48 3.47175 1.36103 0
M  V30 16004 N 1507.66 0.121921 1.57128 0
M  V30 16005 C 1508.91 -0.535201 1.9447 0
M  V30 16006 C 1509.22 -1.67644 1.00772 0
M  V30 16007 O 1510.43 -2.39651 1.27592 0
M  V30 16008 C 1508.89 -1.00346 3.45628 0
M  V30 16009 C 1508.49 0.109473 4.47866 0
M  V30 16010 C 1510.24 -1.63179 3.91884 0
M  V30 16011 C 1508.15 -0.375651 5.90206 0
M  V30 16012 H 1507.08 -0.203702 0.725962 0
M  V30 16013 H 1509.73 0.202243 1.82382 0
M  V30 16014 H 1508.11 -1.79541 3.5296 0
M  V30 16015 H 1509.28 0.885815 4.52206 0
M  V30 16016 H 1507.6 0.644642 4.1138 0
M  V30 16017 H 1510.19 -2.00594 4.95647 0
M  V30 16018 H 1510.54 -2.5113 3.32023 0
M  V30 16019 H 1511.07 -0.905197 3.87364 0
M  V30 16020 H 1507.81 0.46788 6.53828 0
M  V30 16021 H 1507.33 -1.11841 5.89281 0
M  V30 16022 H 1509.01 -0.835921 6.41577 0
M  V30 16023 N 1509.14 -1.56867 -0.151857 0
M  V30 16024 C 1510.56 -1.51422 -0.504328 0
M  V30 16025 C 1510.76 -0.829524 -1.83633 0
M  V30 16026 O 1509.81 -0.398018 -2.49343 0
M  V30 16027 C 1511.13 -2.96185 -0.519117 0
M  V30 16028 C 1512.67 -3.07098 -0.60497 0
M  V30 16029 C 1513.15 -4.53357 -0.650468 0
M  V30 16030 N 1514.64 -4.57682 -0.712825 0
M  V30 16031 C 1515.37 -5.68221 -0.768931 0
M  V30 16032 N 1514.87 -6.88342 -0.784678 0
M  V30 16033 N 1516.66 -5.56241 -0.809441 0
M  V30 16034 H 1508.81 -1.99777 0.721316 0
M  V30 16035 H 1511.08 -0.910951 0.262436 0
M  V30 16036 H 1510.78 -3.49516 0.391315 0
M  V30 16037 H 1510.66 -3.51877 -1.35876 0
M  V30 16038 H 1513.04 -2.53789 -1.50582 0
M  V30 16039 H 1513.13 -2.54458 0.261722 0
M  V30 16040 H 1512.77 -5.07303 0.246207 0
M  V30 16041 H 1512.7 -5.03775 -1.53358 0
M  V30 16042 H 1515.19 -3.71206 -0.708151 0
M  V30 16043 H 1515.5 -7.68339 -0.829202 0
M  V30 16044 H 1513.85 -6.90913 -0.752634 0
M  V30 16045 H 1517.04 -4.61312 -0.794274 0
M  V30 16046 H 1517.21 -6.42405 -0.849701 0
M  V30 16047 N 1510.62 0.421051 -1.51871 0
M  V30 16048 C 1511.55 1.53094 -1.70572 0
M  V30 16049 C 1512.56 1.5188 -0.586201 0
M  V30 16050 O 1513.75 1.56361 -0.861013 0
M  V30 16051 C 1510.85 2.92002 -1.72011 0
M  V30 16052 C 1510.03 3.17541 -3.0081 0
M  V30 16053 C 1509.08 4.36259 -2.94219 0
M  V30 16054 O 1508.11 4.34118 -3.68144 0
M  V30 16055 N 1509.31 5.40722 -2.11188 0
M  V30 16056 H 1512.08 1.3745 -2.66322 0
M  V30 16057 H 1509.64 0.610204 -1.4996 0
M  V30 16058 H 1511.63 3.6947 -1.65149 0
M  V30 16059 H 1510.2 3.01162 -0.837861 0
M  V30 16060 H 1509.42 2.28225 -3.21414 0
M  V30 16061 H 1510.71 3.3144 -3.86037 0
M  V30 16062 H 1510.11 5.45304 -1.50534 0
M  V30 16063 H 1508.66 6.16979 -2.10192 0
M  V30 16064 N 1512.1 1.42293 0.677538 0
M  V30 16065 C 1513.37 1.331 1.43331 0
M  V30 16066 C 1513.75 -0.0329227 2.11074 0
M  V30 16067 O 1513.1 -1.04826 2.03036 0
M  V30 16068 C 1513.31 2.49725 2.438 0
M  V30 16069 C 1514.66 2.91716 3.08524 0
M  V30 16070 O 1515.68 2.49596 2.54127 0
M  V30 16071 O 1514.54 3.64609 4.07091 0
M  V30 16072 H 1511.64 0.524758 0.639185 0
M  V30 16073 H 1514.18 1.54294 0.706493 0
M  V30 16074 H 1512.95 3.40663 1.92522 0
M  V30 16075 H 1512.58 2.30503 3.23966 0
M  V30 16076 N 1513.57 -0.913576 1.28419 0
M  V30 16077 C 1514.8 -1.70178 1.18551 0
M  V30 16078 C 1515.22 -1.864 -0.252307 0
M  V30 16079 O 1514.58 -1.37427 -1.18252 0
M  V30 16080 C 1514.63 -3.07145 1.8893 0
M  V30 16081 O 1513.73 -3.9465 1.19688 0
M  V30 16082 H 1513.08 -0.521092 0.411533 0
M  V30 16083 H 1515.61 -1.14228 1.69744 0
M  V30 16084 H 1515.62 -3.57375 1.96843 0
M  V30 16085 H 1514.29 -2.94655 2.93515 0
M  V30 16086 H 1512.87 -3.53085 1.19939 0
M  V30 16087 N 1515.05 -1.1067 -1.12204 0
M  V30 16088 C 1515.98 -0.779829 -2.20093 0
M  V30 16089 C 1516.96 0.248279 -1.68278 0
M  V30 16090 O 1518.15 0.113511 -1.93868 0
M  V30 16091 C 1515.28 -0.213511 -3.46643 0
M  V30 16092 C 1514.23 -1.17258 -4.11624 0
M  V30 16093 C 1513.56 -0.467352 -5.32654 0
M  V30 16094 C 1514.86 -2.52014 -4.57478 0
M  V30 16095 H 1516.55 -1.68192 -2.47693 0
M  V30 16096 H 1514.1 -0.810131 -1.1905 0
M  V30 16097 H 1516.05 0.0273225 -4.21391 0
M  V30 16098 H 1514.78 0.723837 -3.18478 0
M  V30 16099 H 1513.43 -1.39891 -3.3886 0
M  V30 16100 H 1513.08 0.474547 -5.00756 0
M  V30 16101 H 1512.78 -1.10694 -5.77079 0
M  V30 16102 H 1514.31 -0.235122 -6.10147 0
M  V30 16103 H 1515.72 -2.33516 -5.23587 0
M  V30 16104 H 1514.12 -3.1188 -5.1269 0
M  V30 16105 H 1515.19 -3.11831 -3.71335 0
M  V30 16106 N 1516.53 1.29665 -0.895815 0
M  V30 16107 C 1517.76 2.00399 -0.534333 0
M  V30 16108 C 1518.18 1.66632 0.872654 0
M  V30 16109 O 1517.54 0.888811 1.58018 0
M  V30 16110 C 1517.59 3.53154 -0.729023 0
M  V30 16111 O 1516.69 4.11812 0.22023 0
M  V30 16112 H 1516.03 0.630173 -0.209233 0
M  V30 16113 H 1518.56 1.65253 -1.20634 0
M  V30 16114 H 1518.57 4.03073 -0.632179 0
M  V30 16115 H 1517.25 3.77067 -1.75481 0
M  V30 16116 H 1515.82 3.72822 0.0761687 0
M  V30 16117 N 1518.01 0.657889 1.43212 0
M  V30 16118 C 1518.94 -0.0695999 2.29094 0
M  V30 16119 C 1519.95 -0.782463 1.42763 0
M  V30 16120 O 1521.14 -0.63944 1.66654 0
M  V30 16121 C 1518.24 -1.12178 3.19796 0
M  V30 16122 C 1517.42 -0.486131 4.3469 0
M  V30 16123 C 1516.47 -1.43582 5.06232 0
M  V30 16124 O 1515.5 -0.942622 5.61341 0
M  V30 16125 N 1516.7 -2.76966 5.10167 0
M  V30 16126 H 1519.47 0.667565 2.92171 0
M  V30 16127 H 1517.03 0.501022 1.53953 0
M  V30 16128 H 1519.02 -1.75801 3.64522 0
M  V30 16129 H 1517.59 -1.76087 2.58287 0
M  V30 16130 H 1516.81 0.329281 3.92822 0
M  V30 16131 H 1518.1 -0.0425918 5.08782 0
M  V30 16132 H 1517.5 -3.19592 4.66774 0
M  V30 16133 H 1516.05 -3.3588 5.58595 0
M  V30 16134 N 1519.49 -1.52437 0.400108 0
M  V30 16135 C 1520.43 -2.28312 -0.444572 0
M  V30 16136 C 1521.43 -1.32641 -1.0537 0
M  V30 16137 O 1522.63 -1.50136 -0.99293 0
M  V30 16138 H 1519.01 -0.734313 -0.162137 0
M  V30 16139 H 1520.98 -2.97612 0.216702 0
M  V30 16140 C 1519.73 -3.11044 -1.55393 0
M  V30 16141 H 1519.05 -3.84525 -1.09455 0
M  V30 16142 H 1520.49 -3.67255 -2.11896 0
M  V30 16143 C 1518.95 -2.24035 -2.51614 0
M  V30 16144 O 1519.48 -1.87447 -3.55284 0
M  V30 16145 N 1517.69 -1.87982 -2.2161 0
M  V30 16146 H 1517.23 -2.17936 -1.37338 0
M  V30 16147 H 1517.19 -1.30058 -2.86238 0
M  V30 16148 N 1520.96 -0.130252 -1.57061 0
M  V30 16149 C 1522.38 0.393318 -1.8251 0
M  V30 16150 C 1522.73 1.65862 -1.04806 0
M  V30 16151 O 1521.85 2.14473 -0.288118 0
M  V30 16152 C 1522.45 0.720366 -3.31053 0
M  V30 16153 C 1521.01 1.18852 -3.57143 0
M  V30 16154 C 1520.15 0.202964 -2.76556 0
M  V30 16155 H 1523.1 -0.355217 -1.54674 0
M  V30 16156 H 1523.12 1.57671 -3.46295 0
M  V30 16157 H 1522.64 -0.200719 -3.87581 0
M  V30 16158 H 1520.74 2.12612 -3.05985 0
M  V30 16159 H 1520.85 1.12607 -4.65678 0
M  V30 16160 H 1519.21 0.692264 -2.45112 0
M  V30 16161 H 1520 -0.711417 -3.35848 0
M  V30 16162 N 1522.44 1.56945 0.143535 0
M  V30 16163 C 1523.69 1.8381 0.856831 0
M  V30 16164 C 1524.02 0.712375 1.80662 0
M  V30 16165 O 1523.3 -0.283743 1.92419 0
M  V30 16166 C 1523.58 3.21184 1.62828 0
M  V30 16167 C 1523.43 4.44324 0.699744 0
M  V30 16168 C 1524.75 3.5582 2.58999 0
M  V30 16169 H 1521.87 0.668611 0.310046 0
M  V30 16170 H 1524.51 1.89609 0.1219 0
M  V30 16171 H 1522.66 3.16372 2.2548 0
M  V30 16172 H 1524.34 4.61224 0.0839619 0
M  V30 16173 H 1522.58 4.33799 0.0095529 0
M  V30 16174 H 1523.25 5.37058 1.27564 0
M  V30 16175 H 1525.73 3.61264 2.06464 0
M  V30 16176 H 1524.6 4.52964 3.10024 0
M  V30 16177 H 1524.86 2.81956 3.40519 0
M  V30 16178 N 1523.92 -0.412991 1.52093 0
M  V30 16179 C 1525.15 -1.18667 1.70096 0
M  V30 16180 C 1525.57 -1.83622 0.408012 0
M  V30 16181 O 1524.93 -1.69847 -0.634174 0
M  V30 16182 C 1524.98 -2.22837 2.83507 0
M  V30 16183 O 1524.08 -3.2889 2.48807 0
M  V30 16184 H 1523.42 -0.346581 0.566373 0
M  V30 16185 H 1525.95 -0.484642 1.98777 0
M  V30 16186 H 1525.96 -2.67229 3.08306 0
M  V30 16187 H 1524.64 -1.74942 3.77317 0
M  V30 16188 H 1523.21 -2.89804 2.34665 0
M  V30 16189 N 1525.4 -1.4265 -0.669982 0
M  V30 16190 C 1526.33 -1.42457 -1.79551 0
M  V30 16191 C 1527.34 -0.322966 -1.59564 0
M  V30 16192 O 1528.53 -0.586359 -1.68594 0
M  V30 16193 C 1525.63 -1.20561 -3.16731 0
M  V30 16194 C 1524.81 -2.43246 -3.63525 0
M  V30 16195 C 1523.87 -2.16823 -4.79452 0
M  V30 16196 O 1522.89 -2.90058 -4.8975 0
M  V30 16197 N 1524.09 -1.17436 -5.68497 0
M  V30 16198 H 1526.86 -2.39474 -1.80201 0
M  V30 16199 H 1524.42 -1.37591 -0.853244 0
M  V30 16200 H 1526.41 -1.00794 -3.91947 0
M  V30 16201 H 1524.98 -0.320497 -3.10953 0
M  V30 16202 H 1524.2 -2.78549 -2.78934 0
M  V30 16203 H 1525.49 -3.24931 -3.91532 0
M  V30 16204 H 1524.89 -0.568736 -5.62834 0
M  V30 16205 H 1523.44 -1.03655 -6.43505 0
M  V30 16206 N 1526.88 0.906753 -1.28902 0
M  V30 16207 C 1528.29 1.18635 -1.06761 0
M  V30 16208 C 1528.49 2.00643 0.185594 0
M  V30 16209 O 1527.55 2.3647 0.885324 0
M  V30 16210 C 1528.86 1.91414 -2.31907 0
M  V30 16211 C 1530.41 2.04269 -2.37156 0
M  V30 16212 C 1530.89 2.80458 -3.62088 0
M  V30 16213 N 1532.38 2.88016 -3.62769 0
M  V30 16214 C 1533.11 3.47485 -4.56116 0
M  V30 16215 N 1532.61 4.08178 -5.59788 0
M  V30 16216 N 1534.4 3.45092 -4.43698 0
M  V30 16217 H 1526.55 0.359413 -2.09337 0
M  V30 16218 H 1528.81 0.221688 -0.921715 0
M  V30 16219 H 1528.52 1.38587 -3.23244 0
M  V30 16220 H 1528.39 2.91929 -2.38867 0
M  V30 16221 H 1530.78 2.56275 -1.46312 0
M  V30 16222 H 1530.86 1.0291 -2.34186 0
M  V30 16223 H 1530.51 2.2913 -4.53279 0
M  V30 16224 H 1530.44 3.82147 -3.62314 0
M  V30 16225 H 1532.93 2.44902 -2.87805 0
M  V30 16226 H 1533.24 4.51557 -6.27149 0
M  V30 16227 H 1531.59 4.06661 -5.63606 0
M  V30 16228 H 1534.78 2.96891 -3.61903 0
M  V30 16229 H 1534.95 3.91145 -5.16633 0
M  V30 16230 N 1528.36 1.11264 1.11616 0
M  V30 16231 C 1529.63 0.772174 1.79713 0
M  V30 16232 C 1530.01 -0.740055 1.97703 0
M  V30 16233 O 1529.36 -1.66939 1.56024 0
M  V30 16234 C 1529.57 1.53316 3.13521 0
M  V30 16235 C 1530.92 1.71124 3.88589 0
M  V30 16236 O 1531.94 1.49725 3.23204 0
M  V30 16237 O 1530.8 2.0667 5.05915 0
M  V30 16238 H 1527.9 0.279548 0.77832 0
M  V30 16239 H 1530.44 1.21596 1.18375 0
M  V30 16240 H 1529.21 2.56194 2.95771 0
M  V30 16241 H 1528.84 1.08281 3.82572 0
M  V30 16242 N 1529.83 -1.29188 0.902679 0
M  V30 16243 C 1530.74 -2.3138 0.387363 0
M  V30 16244 C 1531.76 -1.66067 -0.519396 0
M  V30 16245 O 1532.94 -1.97219 -0.408257 0
M  V30 16246 C 1530 -3.44675 -0.374137 0
M  V30 16247 C 1529.06 -4.25572 0.564503 0
M  V30 16248 C 1528.29 -5.33458 -0.160748 0
M  V30 16249 O 1528.52 -5.53349 -1.38423 0
M  V30 16250 O 1527.45 -5.99834 0.498259 0
M  V30 16251 H 1531.28 -2.77444 1.23525 0
M  V30 16252 H 1528.86 -1.33679 0.667106 0
M  V30 16253 H 1530.74 -4.13647 -0.80464 0
M  V30 16254 H 1529.42 -3.00714 -1.19804 0
M  V30 16255 H 1528.33 -3.59232 1.04418 0
M  V30 16256 H 1529.66 -4.73184 1.3549 0
M  V30 16257 N 1531.31 -0.665475 -1.42861 0
M  V30 16258 C 1532.27 0.00932351 -2.29198 0
M  V30 16259 C 1533.27 0.738356 -1.42846 0
M  V30 16260 O 1534.46 0.57776 -1.6434 0
M  V30 16261 C 1531.6 1.02392 -3.25159 0
M  V30 16262 H 1532.79 -0.750481 -2.90358 0
M  V30 16263 H 1530.34 -0.427334 -1.50345 0
M  V30 16264 H 1531.08 1.81254 -2.68919 0
M  V30 16265 H 1530.86 0.504671 -3.88839 0
M  V30 16266 H 1532.35 1.49479 -3.89931 0
M  V30 16267 N 1532.79 1.52222 -0.408187 0
M  V30 16268 C 1534.02 2.06221 0.16743 0
M  V30 16269 C 1534.43 1.27832 1.3894 0
M  V30 16270 O 1533.79 0.329933 1.79493 0
M  V30 16271 C 1533.84 3.57758 0.518804 0
M  V30 16272 O 1533.56 4.33181 -0.654639 0
M  V30 16273 C 1535.06 4.28171 1.14825 0
M  V30 16274 H 1532.28 0.670677 0.0208054 0
M  V30 16275 H 1534.83 1.96136 -0.578868 0
M  V30 16276 H 1532.98 3.67854 1.215 0
M  V30 16277 H 1533.4 5.23252 -0.361558 0
M  V30 16278 H 1534.87 5.3538 1.34433 0
M  V30 16279 H 1535.35 3.84586 2.12108 0
M  V30 16280 H 1535.95 4.22441 0.492291 0
M  V30 16281 N 1534.27 0.138579 1.5699 0
M  V30 16282 C 1535.23 -0.79013 2.1515 0
M  V30 16283 C 1536.23 -1.1811 1.09117 0
M  V30 16284 O 1537.42 -1.1034 1.34798 0
M  V30 16285 C 1534.55 -2.07109 2.70774 0
M  V30 16286 H 1535.75 -0.284343 2.98549 0
M  V30 16287 H 1533.3 -0.11081 1.55907 0
M  V30 16288 H 1534.03 -2.62074 1.91018 0
M  V30 16289 H 1533.82 -1.80004 3.4834 0
M  V30 16290 H 1535.31 -2.73456 3.15613 0
M  V30 16291 N 1535.75 -1.57019 -0.13521 0
M  V30 16292 C 1536.66 -2.02427 -1.18578 0
M  V30 16293 C 1537.67 -0.941738 -1.46312 0
M  V30 16294 O 1538.85 -1.25208 -1.57749 0
M  V30 16295 C 1535.91 -2.40577 -2.49647 0
M  V30 16296 C 1534.97 -3.62835 -2.29455 0
M  V30 16297 C 1534.21 -3.99156 -3.54274 0
M  V30 16298 O 1534.43 -3.36001 -4.60933 0
M  V30 16299 O 1533.36 -4.92345 -3.46238 0
M  V30 16300 H 1537.19 -2.92131 -0.830237 0
M  V30 16301 H 1534.77 -1.45366 -0.344814 0
M  V30 16302 H 1536.66 -2.65922 -3.269 0
M  V30 16303 H 1535.33 -1.54023 -2.84708 0
M  V30 16304 H 1534.24 -3.42661 -1.50114 0
M  V30 16305 H 1535.57 -4.50043 -1.99305 0
M  V30 16306 N 1537.22 0.404919 -1.52309 0
M  V30 16307 C 1538.17 1.51412 -1.7657 0
M  V30 16308 C 1539.17 1.5713 -0.632983 0
M  V30 16309 O 1540.37 1.60486 -0.815121 0
M  V30 16310 H 1536.75 0.503636 -0.55844 0
M  V30 16311 H 1538.72 1.28137 -2.69488 0
M  V30 16312 C 1537.47 2.88733 -1.93722 0
M  V30 16313 H 1536.79 2.85078 -2.80304 0
M  V30 16314 H 1538.23 3.65626 -2.14695 0
M  V30 16315 C 1536.69 3.29431 -0.705444 0
M  V30 16316 O 1537.22 4.01506 0.124693 0
M  V30 16317 N 1535.43 2.85536 -0.540128 0
M  V30 16318 H 1534.97 2.27052 -1.21677 0
M  V30 16319 H 1534.93 3.13126 0.282723 0
M  V30 16320 N 1538.7 1.43003 0.662408 0
M  V30 16321 C 1540.12 1.26201 0.977003 0
M  V30 16322 C 1540.32 0.175104 2.00738 0
M  V30 16323 O 1539.37 -0.44954 2.48466 0
M  V30 16324 C 1540.69 2.62319 1.47001 0
M  V30 16325 C 1542.24 2.69776 1.58714 0
M  V30 16326 C 1542.71 4.06289 2.11408 0
M  V30 16327 N 1544.2 4.08307 2.18724 0
M  V30 16328 C 1544.94 5.10761 2.60598 0
M  V30 16329 N 1544.43 6.23593 3.01834 0
M  V30 16330 N 1546.23 4.98115 2.60456 0
M  V30 16331 H 1538.38 2.12391 -0.0195698 0
M  V30 16332 H 1540.64 0.946472 0.0538044 0
M  V30 16333 H 1540.35 3.42773 0.78736 0
M  V30 16334 H 1540.22 2.87088 2.44664 0
M  V30 16335 H 1542.61 1.89659 2.26083 0
M  V30 16336 H 1542.69 2.48782 0.595081 0
M  V30 16337 H 1542.33 4.86868 1.44644 0
M  V30 16338 H 1542.26 4.24641 3.11428 0
M  V30 16339 H 1544.75 3.26857 1.89665 0
M  V30 16340 H 1545.07 6.97609 3.32509 0
M  V30 16341 H 1543.41 6.27079 2.99661 0
M  V30 16342 H 1546.6 4.09037 2.27611 0
M  V30 16343 H 1546.77 5.78092 2.92769 0
M  V30 16344 N 1540.18 -0.899904 1.29381 0
M  V30 16345 C 1541.41 -1.68383 1.20227 0
M  V30 16346 C 1541.82 -1.87305 -0.237135 0
M  V30 16347 O 1541.18 -1.40992 -1.15877 0
M  V30 16348 C 1541.23 -3.06845 1.91124 0
M  V30 16349 O 1540.95 -2.88787 3.29444 0
M  V30 16350 C 1542.45 -4.01253 1.88444 0
M  V30 16351 H 1539.67 -0.525917 0.416717 0
M  V30 16352 H 1542.22 -1.12537 1.7075 0
M  V30 16353 H 1540.37 -3.59467 1.44438 0
M  V30 16354 H 1540.79 -3.7652 3.65148 0
M  V30 16355 H 1542.26 -4.95824 2.42616 0
M  V30 16356 H 1542.74 -4.30699 0.859925 0
M  V30 16357 H 1543.34 -3.54562 2.34874 0
M  V30 16358 N 1541.66 -1.11854 -1.11024 0
M  V30 16359 C 1542.61 -0.749858 -2.15316 0
M  V30 16360 C 1543.59 0.248202 -1.58974 0
M  V30 16361 O 1544.78 0.054644 -1.76916 0
M  V30 16362 C 1541.91 -0.199423 -3.4272 0
M  V30 16363 C 1541 -1.22541 -4.06011 0
M  V30 16364 N 1541.39 -2.42104 -4.44094 0
M  V30 16365 C 1539.69 -1.06935 -4.32991 0
M  V30 16366 C 1540.39 -3.07572 -4.93735 0
M  V30 16367 N 1539.37 -2.35038 -4.90161 0
M  V30 16368 H 1543.17 -1.65978 -2.42546 0
M  V30 16369 H 1540.68 -0.998423 -1.28083 0
M  V30 16370 H 1542.68 0.0828628 -4.16818 0
M  V30 16371 H 1541.34 0.705033 -3.16953 0
M  V30 16372 H 1542.35 -2.79529 -4.35986 0
M  V30 16373 H 1539.03 -0.221683 -4.16911 0
M  V30 16374 H 1540.42 -4.0936 -5.32799 0
M  V30 16375 N 1543.14 1.28707 -0.909517 0
M  V30 16376 C 1544.36 1.99821 -0.555557 0
M  V30 16377 C 1544.79 1.67549 0.854931 0
M  V30 16378 O 1544.14 0.905521 1.57067 0
M  V30 16379 C 1544.19 3.52361 -0.766438 0
M  V30 16380 O 1543.3 4.12022 0.17654 0
M  V30 16381 H 1542.64 0.627918 -0.215905 0
M  V30 16382 H 1545.17 1.63965 -1.2238 0
M  V30 16383 H 1545.18 4.02379 -0.674894 0
M  V30 16384 H 1543.85 3.75184 -1.7947 0
M  V30 16385 H 1542.43 3.72882 0.0366216 0
M  V30 16386 N 1544.61 0.673042 1.42506 0
M  V30 16387 C 1545.54 0.00755467 2.33499 0
M  V30 16388 C 1546.53 -0.791161 1.50581 0
M  V30 16389 O 1547.71 -0.748668 1.79189 0
M  V30 16390 C 1544.84 -0.945638 3.34178 0
M  V30 16391 C 1543.79 -0.25564 4.27236 0
M  V30 16392 C 1543.12 -1.32165 5.18109 0
M  V30 16393 C 1544.42 0.864254 5.151 0
M  V30 16394 H 1546.11 0.767487 2.89396 0
M  V30 16395 H 1543.66 0.370524 1.39151 0
M  V30 16396 H 1545.61 -1.42026 3.96745 0
M  V30 16397 H 1544.34 -1.73697 2.76581 0
M  V30 16398 H 1543 0.19873 3.66061 0
M  V30 16399 H 1542.64 -2.10492 4.56839 0
M  V30 16400 H 1542.34 -0.865109 5.81197 0
M  V30 16401 H 1543.87 -1.79724 5.83551 0
M  V30 16402 H 1545.28 0.470924 5.71363 0
M  V30 16403 H 1543.68 1.24648 5.87012 0
M  V30 16404 H 1544.75 1.71378 4.53605 0
M  V30 16405 N 1546.09 -1.52004 0.416254 0
M  V30 16406 C 1547.04 -2.27206 -0.405723 0
M  V30 16407 C 1548.01 -1.29913 -1.03498 0
M  V30 16408 O 1549.19 -1.58786 -1.0579 0
M  V30 16409 C 1546.33 -3.10186 -1.51258 0
M  V30 16410 C 1545.45 -4.22445 -0.903539 0
M  V30 16411 C 1544.58 -4.92771 -1.98368 0
M  V30 16412 C 1543.62 -5.96983 -1.35196 0
M  V30 16413 N 1542.76 -6.60798 -2.37255 0
M  V30 16414 H 1547.6 -2.97016 0.241983 0
M  V30 16415 H 1545.14 -1.46514 0.131174 0
M  V30 16416 H 1547.09 -3.56606 -2.16537 0
M  V30 16417 H 1545.72 -2.42532 -2.13021 0
M  V30 16418 H 1544.78 -3.80144 -0.139607 0
M  V30 16419 H 1546.09 -4.97176 -0.402136 0
M  V30 16420 H 1545.24 -5.42633 -2.71357 0
M  V30 16421 H 1543.98 -4.17624 -2.51876 0
M  V30 16422 H 1542.99 -5.46434 -0.607431 0
M  V30 16423 H 1544.21 -6.74076 -0.824482 0
M  V30 16424 H 1542.16 -5.88476 -2.89882 0
M  V30 16425 H 1542.07 -7.31227 -1.91947 0
M  V30 16426 H 1543.34 -7.15296 -3.09792 0
M  V30 16427 N 1547.57 -0.146903 -1.56914 0
M  V30 16428 C 1548.8 0.514426 -2.00919 0
M  V30 16429 C 1549.22 1.57632 -1.02634 0
M  V30 16430 O 1548.58 1.813 -0.00207478 0
M  V30 16431 C 1548.63 1.09197 -3.43669 0
M  V30 16432 O 1547.73 2.20684 -3.48385 0
M  V30 16433 H 1547.07 0.125827 -0.651969 0
M  V30 16434 H 1549.6 -0.243607 -2.03145 0
M  V30 16435 H 1549.61 1.42066 -3.82467 0
M  V30 16436 H 1548.29 0.314336 -4.1471 0
M  V30 16437 H 1546.86 1.89045 -3.21429 0
M  V30 16438 N 1549.05 1.57088 0.126881 0
M  V30 16439 C 1550.46 1.73685 0.684865 0
M  V30 16440 C 1550.81 0.764401 1.80697 0
M  V30 16441 O 1549.94 -0.0644761 2.16304 0
M  V30 16442 C 1550.53 3.14933 1.24911 0
M  V30 16443 C 1549.09 3.33063 1.75346 0
M  V30 16444 C 1548.24 2.69575 0.649976 0
M  V30 16445 H 1551.19 1.58391 -0.0989715 0
M  V30 16446 H 1551.21 3.16047 2.11884 0
M  V30 16447 H 1550.72 3.85686 0.432204 0
M  V30 16448 H 1548.82 2.67339 2.59539 0
M  V30 16449 H 1548.93 4.41169 1.86833 0
M  V30 16450 H 1547.3 2.30592 1.08163 0
M  V30 16451 H 1548.08 3.42946 -0.15582 0
M  V30 16452 N 1550.53 -0.396836 1.52522 0
M  V30 16453 C 1551.94 -0.736347 1.41598 0
M  V30 16454 C 1552.14 -1.944 0.530191 0
M  V30 16455 O 1551.2 -2.525 0.000649033 0
M  V30 16456 C 1552.51 -0.978775 2.84325 0
M  V30 16457 C 1554.06 -1.08073 2.9375 0
M  V30 16458 C 1554.53 -1.35584 4.37471 0
M  V30 16459 N 1556.03 -1.42423 4.40761 0
M  V30 16460 C 1556.76 -1.6536 5.49039 0
M  V30 16461 N 1556.26 -1.85819 6.67415 0
M  V30 16462 N 1558.05 -1.67475 5.36571 0
M  V30 16463 H 1550.2 0.397925 2.08639 0
M  V30 16464 H 1552.46 0.115803 0.9409 0
M  V30 16465 H 1552.17 -0.16362 3.51319 0
M  V30 16466 H 1552.04 -1.8956 3.26109 0
M  V30 16467 H 1554.43 -1.88646 2.26928 0
M  V30 16468 H 1554.51 -0.141996 2.55406 0
M  V30 16469 H 1554.16 -0.555238 5.04856 0
M  V30 16470 H 1554.09 -2.3073 4.73362 0
M  V30 16471 H 1556.58 -1.28352 3.55435 0
M  V30 16472 H 1556.89 -2.02806 7.45714 0
M  V30 16473 H 1555.23 -1.83059 6.70458 0
M  V30 16474 H 1558.43 -1.51038 4.43064 0
M  V30 16475 H 1558.6 -1.85011 6.21027 0
M  V30 16476 N 1552.01 -1.43353 -0.654814 0
M  V30 16477 C 1553.24 -1.48107 -1.44041 0
M  V30 16478 C 1553.64 -0.0970423 -1.88951 0
M  V30 16479 O 1552.99 0.902686 -1.59991 0
M  V30 16480 C 1553.05 -2.36322 -2.7091 0
M  V30 16481 C 1552.71 -3.83887 -2.4795 0
M  V30 16482 C 1553.71 -4.75036 -2.11274 0
M  V30 16483 C 1551.39 -4.28359 -2.62324 0
M  V30 16484 C 1553.39 -6.08651 -1.89267 0
M  V30 16485 C 1551.08 -5.62028 -2.39933 0
M  V30 16486 C 1552.07 -6.51992 -2.0346 0
M  V30 16487 O 1551.76 -7.83189 -1.813 0
M  V30 16488 H 1551.49 -0.50532 -0.449029 0
M  V30 16489 H 1554.05 -1.88745 -0.810226 0
M  V30 16490 H 1552.28 -1.90569 -3.36482 0
M  V30 16491 H 1553.97 -2.32298 -3.32855 0
M  V30 16492 H 1554.73 -4.41957 -1.99747 0
M  V30 16493 H 1550.61 -3.58611 -2.89688 0
M  V30 16494 H 1554.16 -6.78833 -1.60723 0
M  V30 16495 H 1550.05 -5.94675 -2.51062 0
M  V30 16496 H 1550.82 -7.94751 -1.95738 0
M  V30 16497 N 1553.48 0.89303 -1.29857 0
M  V30 16498 C 1554.41 2.01422 -1.18117 0
M  V30 16499 C 1555.39 1.6994 -0.0737487 0
M  V30 16500 O 1556.58 1.92527 -0.254387 0
M  V30 16501 C 1553.71 3.36385 -0.863842 0
M  V30 16502 C 1552.66 3.821 -1.92831 0
M  V30 16503 C 1551.99 5.14263 -1.46415 0
M  V30 16504 C 1553.29 4.01699 -3.33819 0
M  V30 16505 H 1554.98 2.11502 -2.11913 0
M  V30 16506 H 1552.53 1.01622 -1.02024 0
M  V30 16507 H 1554.48 4.14335 -0.768397 0
M  V30 16508 H 1553.21 3.26415 0.109816 0
M  V30 16509 H 1551.87 3.06372 -2.01325 0
M  V30 16510 H 1551.51 5.00714 -0.478983 0
M  V30 16511 H 1551.21 5.45821 -2.17609 0
M  V30 16512 H 1552.74 5.94747 -1.38234 0
M  V30 16513 H 1554.15 4.70111 -3.28129 0
M  V30 16514 H 1552.55 4.44621 -4.03029 0
M  V30 16515 H 1553.62 3.05816 -3.76304 0
M  V30 16516 N 1554.96 1.12442 1.10429 0
M  V30 16517 C 1556.37 0.894147 1.63896 0
M  V30 16518 C 1556.72 -0.571509 1.87692 0
M  V30 16519 O 1555.85 -1.43595 1.61893 0
M  V30 16520 C 1556.44 1.61664 2.97742 0
M  V30 16521 C 1555 1.43251 3.48075 0
M  V30 16522 C 1554.15 1.65252 2.22682 0
M  V30 16523 H 1557.1 1.27918 0.939289 0
M  V30 16524 H 1557.12 1.06771 3.65213 0
M  V30 16525 H 1556.63 2.68333 2.80391 0
M  V30 16526 H 1554.73 0.388385 3.7057 0
M  V30 16527 H 1554.85 2.18866 4.26186 0
M  V30 16528 H 1553.21 1.07663 2.30827 0
M  V30 16529 H 1553.99 2.73219 2.07862 0
M  V30 16530 N 1556.44 -1.28223 0.91633 0
M  V30 16531 C 1557.35 -2.30956 0.411882 0
M  V30 16532 C 1558.37 -1.66609 -0.501753 0
M  V30 16533 O 1559.54 -1.97641 -0.387317 0
M  V30 16534 C 1556.61 -3.45053 -0.337558 0
M  V30 16535 C 1555.67 -4.2495 0.609609 0
M  V30 16536 C 1554.9 -5.33598 -0.104159 0
M  V30 16537 O 1555.12 -5.54786 -1.32546 0
M  V30 16538 O 1554.06 -5.99272 0.561851 0
M  V30 16539 H 1557.88 -2.76118 1.26461 0
M  V30 16540 H 1555.47 -1.32964 0.681246 0
M  V30 16541 H 1557.35 -4.14477 -0.760722 0
M  V30 16542 H 1556.03 -3.01968 -1.16607 0
M  V30 16543 H 1554.93 -3.58104 1.08222 0
M  V30 16544 H 1556.27 -4.7172 1.40502 0
M  V30 16545 N 1557.92 -0.68059 -1.42147 0
M  V30 16546 C 1558.83 -0.00595573 -2.34599 0
M  V30 16547 C 1559.84 0.782528 -1.55411 0
M  V30 16548 O 1561.02 0.723524 -1.87955 0
M  V30 16549 C 1558.08 0.92964 -3.34004 0
M  V30 16550 C 1557.15 0.135041 -4.29088 0
M  V30 16551 C 1556.38 1.02607 -5.23744 0
M  V30 16552 O 1556.6 2.26562 -5.23475 0
M  V30 16553 O 1555.54 0.483774 -5.99953 0
M  V30 16554 H 1559.36 -0.767652 -2.93838 0
M  V30 16555 H 1556.95 -0.440849 -1.42748 0
M  V30 16556 H 1558.83 1.46657 -3.95057 0
M  V30 16557 H 1557.5 1.67109 -2.7723 0
M  V30 16558 H 1556.41 -0.44613 -3.7143 0
M  V30 16559 H 1557.74 -0.567417 -4.88918 0
M  V30 16560 N 1559.4 1.51781 -0.424309 0
M  V30 16561 C 1560.33 2.23945 0.438604 0
M  V30 16562 C 1561.31 1.25363 1.03552 0
M  V30 16563 O 1562.49 1.5446 1.08048 0
M  V30 16564 C 1559.62 2.9798 1.61014 0
M  V30 16565 C 1558.66 4.11116 1.13516 0
M  V30 16566 S 1559.5 5.35428 0.0878448 0
M  V30 16567 C 1560.65 6.12997 1.26435 0
M  V30 16568 H 1560.89 2.9679 -0.174103 0
M  V30 16569 H 1558.42 1.52983 -0.208718 0
M  V30 16570 H 1560.38 3.41237 2.28183 0
M  V30 16571 H 1559.04 2.2475 2.19423 0
M  V30 16572 H 1558.23 4.62147 2.01086 0
M  V30 16573 H 1557.83 3.70053 0.5419 0
M  V30 16574 H 1560.12 6.41293 2.18517 0
M  V30 16575 H 1561.07 7.03631 0.794265 0
M  V30 16576 H 1561.48 5.44288 1.49702 0
M  V30 16577 N 1560.87 0.155222 1.56834 0
M  V30 16578 C 1561.84 -0.767266 2.15976 0
M  V30 16579 C 1562.84 -1.16946 1.10364 0
M  V30 16580 O 1564.03 -1.08905 1.35961 0
M  V30 16581 C 1561.16 -2.04226 2.72956 0
M  V30 16582 H 1562.35 -0.252662 2.98834 0
M  V30 16583 H 1559.9 -0.0942677 1.56015 0
M  V30 16584 H 1560.64 -2.60033 1.93787 0
M  V30 16585 H 1560.42 -1.76299 3.5023 0
M  V30 16586 H 1561.91 -2.70093 3.18495 0
M  V30 16587 N 1562.35 -1.57153 -0.118549 0
M  V30 16588 C 1563.3 -1.96802 -1.15122 0
M  V30 16589 C 1564.29 -0.843066 -1.37045 0
M  V30 16590 O 1565.48 -1.10676 -1.38129 0
M  V30 16591 C 1562.61 -2.37625 -2.47768 0
M  V30 16592 C 1561.69 -3.56754 -2.29319 0
M  V30 16593 N 1562.08 -4.72427 -1.80683 0
M  V30 16594 C 1560.38 -3.62395 -2.59973 0
M  V30 16595 C 1561.08 -5.54451 -1.75952 0
M  V30 16596 N 1560.06 -4.96954 -2.20314 0
M  V30 16597 H 1563.86 -2.83695 -0.767744 0
M  V30 16598 H 1561.37 -1.59088 -0.326287 0
M  V30 16599 H 1563.37 -2.64247 -3.22458 0
M  V30 16600 H 1562.03 -1.52097 -2.86874 0
M  V30 16601 H 1563.04 -4.95634 -1.50223 0
M  V30 16602 H 1559.72 -2.87475 -3.02762 0
M  V30 16603 H 1561.11 -6.57238 -1.39599 0
M  V30 16604 N 1563.83 0.388742 -1.5273 0
M  V30 16605 C 1565.05 1.15946 -1.71963 0
M  V30 16606 C 1565.48 1.82949 -0.437173 0
M  V30 16607 O 1564.84 1.70834 0.607072 0
M  V30 16608 C 1564.89 2.18298 -2.87016 0
M  V30 16609 O 1563.99 3.24891 -2.54008 0
M  V30 16610 H 1563.33 0.337526 -0.571815 0
M  V30 16611 H 1565.86 0.452957 -1.99523 0
M  V30 16612 H 1565.87 2.6229 -3.12519 0
M  V30 16613 H 1564.55 1.68917 -3.80052 0
M  V30 16614 H 1563.12 2.86034 -2.39246 0
M  V30 16615 N 1565.31 1.43698 0.647203 0
M  V30 16616 C 1566.58 1.3611 1.40476 0
M  V30 16617 C 1566.96 0.0118567 2.11097 0
M  V30 16618 O 1566.31 -1.00496 2.05214 0
M  V30 16619 C 1566.52 2.5484 2.38448 0
M  V30 16620 C 1567.87 2.98195 3.02267 0
M  V30 16621 O 1568.89 2.5493 2.48775 0
M  V30 16622 O 1567.75 3.73162 3.99265 0
M  V30 16623 H 1564.85 0.538198 0.62791 0
M  V30 16624 H 1567.39 1.55758 0.673606 0
M  V30 16625 H 1566.17 3.4467 1.85253 0
M  V30 16626 H 1565.79 2.37323 3.19004 0
M  V30 16627 N 1566.79 -0.886131 1.30328 0
M  V30 16628 C 1568.04 -1.63255 1.18451 0
M  V30 16629 C 1568.35 -1.93864 -0.260016 0
M  V30 16630 O 1569.55 -2.66851 -0.500288 0
M  V30 16631 C 1568.01 -2.94232 2.07257 0
M  V30 16632 C 1567.62 -2.71168 3.56612 0
M  V30 16633 C 1569.36 -3.72193 2.04139 0
M  V30 16634 C 1567.27 -3.97954 4.37478 0
M  V30 16635 H 1566.2 -0.612491 0.439739 0
M  V30 16636 H 1568.85 -0.981129 1.55068 0
M  V30 16637 H 1567.23 -3.60661 1.63522 0
M  V30 16638 H 1568.41 -2.13247 4.08488 0
M  V30 16639 H 1566.72 -2.06584 3.61541 0
M  V30 16640 H 1569.32 -4.66219 2.61809 0
M  V30 16641 H 1569.66 -4.03495 1.02459 0
M  V30 16642 H 1570.19 -3.12624 2.45989 0
M  V30 16643 H 1566.93 -3.71811 5.39849 0
M  V30 16644 H 1566.45 -4.55384 3.90366 0
M  V30 16645 H 1568.13 -4.65984 4.48852 0
M  V30 16646 N 1568.26 -1.13026 -1.09832 0
M  V30 16647 C 1569.49 -0.912803 -1.86233 0
M  V30 16648 C 1569.91 0.532955 -1.80392 0
M  V30 16649 O 1569.27 1.37783 -1.17837 0
M  V30 16650 C 1569.32 -1.40002 -3.32313 0
M  V30 16651 O 1568.42 -0.582537 -4.08265 0
M  V30 16652 H 1567.77 -0.327464 -0.577636 0
M  V30 16653 H 1570.3 -1.5039 -1.38723 0
M  V30 16654 H 1570.31 -1.40182 -3.83162 0
M  V30 16655 H 1568.98 -2.4527 -3.3588 0
M  V30 16656 H 1567.56 -0.648255 -3.67222 0
M  V30 16657 N 1569.74 1.27735 -0.923117 0
M  V30 16658 C 1570.65 2.30734 -0.424124 0
M  V30 16659 C 1571.67 1.66872 0.49291 0
M  V30 16660 O 1572.84 1.97843 0.37683 0
M  V30 16661 C 1569.91 3.45227 0.319254 0
M  V30 16662 C 1568.97 4.2462 -0.632137 0
M  V30 16663 C 1568.2 5.33646 0.0758596 0
M  V30 16664 O 1568.43 5.55481 1.29602 0
M  V30 16665 O 1567.36 5.98966 -0.593624 0
M  V30 16666 H 1571.19 2.75444 -1.27923 0
M  V30 16667 H 1568.77 1.32601 -0.688288 0
M  V30 16668 H 1570.65 4.14874 0.73873 0
M  V30 16669 H 1569.33 3.02582 1.15004 0
M  V30 16670 H 1568.24 3.57525 -1.1012 0
M  V30 16671 H 1569.57 4.70969 -1.43001 0
M  V30 16672 N 1571.22 0.688118 1.41784 0
M  V30 16673 C 1572.45 0.22475 2.05676 0
M  V30 16674 C 1572.86 -1.1232 1.51755 0
M  V30 16675 O 1572.22 -1.70041 0.662735 0
M  V30 16676 C 1572.27 0.165661 3.6112 0
M  V30 16677 O 1571.99 1.46035 4.13044 0
M  V30 16678 C 1573.49 -0.319599 4.42146 0
M  V30 16679 H 1570.71 0.106135 0.662553 0
M  V30 16680 H 1573.26 0.938605 1.81688 0
M  V30 16681 H 1571.41 -0.498968 3.84173 0
M  V30 16682 H 1571.83 1.34252 5.07027 0
M  V30 16683 H 1573.3 -0.30983 5.5113 0
M  V30 16684 H 1573.78 -1.3572 4.17704 0
M  V30 16685 H 1574.38 0.313764 4.24141 0
M  V30 16686 N 1572.7 -1.51554 0.432352 0
M  V30 16687 C 1573.92 -2.06947 -0.136995 0
M  V30 16688 C 1574.35 -1.29817 -1.36122 0
M  V30 16689 O 1573.71 -0.334733 -1.78183 0
M  V30 16690 C 1573.75 -3.57871 -0.442785 0
M  V30 16691 O 1572.86 -3.82966 -1.53007 0
M  V30 16692 H 1572.2 -0.663988 -0.00405152 0
M  V30 16693 H 1574.73 -1.95225 0.612249 0
M  V30 16694 H 1574.74 -4.02042 -0.694694 0
M  V30 16695 H 1573.41 -4.13436 0.452013 0
M  V30 16696 H 1571.99 -3.50661 -1.26851 0
M  V30 16697 N 1574.18 -0.163538 -1.56749 0
M  V30 16698 C 1575.12 0.786745 -2.18891 0
M  V30 16699 C 1576.12 1.24323 -1.15066 0
M  V30 16700 O 1577.32 1.20979 -1.33282 0
M  V30 16701 H 1573.7 0.271967 -0.701098 0
M  V30 16702 H 1575.67 0.2386 -2.97445 0
M  V30 16703 C 1574.42 2.00905 -2.83782 0
M  V30 16704 H 1573.74 1.66681 -3.63397 0
M  V30 16705 H 1575.18 2.65302 -3.30743 0
M  V30 16706 C 1573.64 2.8277 -1.83148 0
M  V30 16707 O 1574.17 3.79666 -1.31213 0
M  V30 16708 N 1572.38 2.47629 -1.52079 0
M  V30 16709 H 1571.92 1.68896 -1.94504 0
M  V30 16710 H 1571.88 3.02693 -0.849963 0
M  V30 16711 N 1575.65 1.57214 0.110213 0
M  V30 16712 C 1577.07 1.52706 0.464004 0
M  V30 16713 C 1577.27 0.87792 1.81369 0
M  V30 16714 O 1576.33 0.463987 2.482 0
M  V30 16715 C 1577.64 2.97457 0.440406 0
M  V30 16716 C 1579.19 3.08594 0.523336 0
M  V30 16717 C 1579.66 4.54923 0.53004 0
M  V30 16718 N 1581.15 4.59411 0.591228 0
M  V30 16719 C 1581.89 5.7006 0.618007 0
M  V30 16720 N 1581.38 6.9018 0.601901 0
M  V30 16721 N 1583.18 5.58192 0.661679 0
M  V30 16722 H 1575.33 1.97794 -0.77403 0
M  V30 16723 H 1577.59 0.903673 -0.286496 0
M  V30 16724 H 1577.3 3.48356 -0.483845 0
M  V30 16725 H 1577.17 3.55356 1.26498 0
M  V30 16726 H 1579.56 2.57692 1.43801 0
M  V30 16727 H 1579.64 2.53674 -0.329095 0
M  V30 16728 H 1579.28 5.06472 -0.380623 0
M  V30 16729 H 1579.21 5.07663 1.39948 0
M  V30 16730 H 1581.7 3.72953 0.609483 0
M  V30 16731 H 1582.02 7.70267 0.6252 0
M  V30 16732 H 1580.36 6.92665 0.569186 0
M  V30 16733 H 1583.55 4.63256 0.671686 0
M  V30 16734 H 1583.73 6.44432 0.67908 0
M  V30 16735 N 1577.13 -0.380637 1.52934 0
M  V30 16736 C 1578.1 -1.44819 1.77652 0
M  V30 16737 C 1579.1 -1.47224 0.646657 0
M  V30 16738 O 1580.29 -1.48248 0.91477 0
M  V30 16739 C 1577.42 -2.8405 1.8849 0
M  V30 16740 H 1578.61 -1.24183 2.72981 0
M  V30 16741 H 1576.16 -0.61288 1.43783 0
M  V30 16742 H 1576.9 -3.1002 0.951751 0
M  V30 16743 H 1576.68 -2.83704 2.70655 0
M  V30 16744 H 1578.17 -3.61388 2.09257 0
M  V30 16745 N 1578.61 -1.44039 -0.639573 0
M  V30 16746 C 1579.84 -1.49844 -1.42669 0
M  V30 16747 C 1580.25 -0.120599 -1.88414 0
M  V30 16748 O 1579.61 0.871875 -1.60327 0
M  V30 16749 C 1579.66 -2.45597 -2.65263 0
M  V30 16750 O 1579.38 -3.78023 -2.21427 0
M  V30 16751 C 1580.88 -2.60781 -3.5848 0
M  V30 16752 H 1578.1 -0.508477 -0.437826 0
M  V30 16753 H 1580.65 -1.88919 -0.782923 0
M  V30 16754 H 1578.8 -2.09679 -3.2575 0
M  V30 16755 H 1579.22 -4.29642 -3.00846 0
M  V30 16756 H 1580.69 -3.31826 -4.4113 0
M  V30 16757 H 1581.17 -1.65727 -4.06732 0
M  V30 16758 H 1581.77 -2.97565 -3.03867 0
M  V30 16759 N 1580.09 0.879207 -1.30796 0
M  V30 16760 C 1581.33 1.6456 -1.21242 0
M  V30 16761 C 1581.69 1.90642 0.227986 0
M  V30 16762 O 1582.89 2.65059 0.446875 0
M  V30 16763 C 1581.16 2.94576 -2.02386 0
M  V30 16764 S 1582.72 3.85508 -2.09592 0
M  V30 16765 H 1579.54 0.564732 -0.43197 0
M  V30 16766 H 1582.14 1.04314 -1.65345 0
M  V30 16767 H 1580.85 2.73322 -3.06142 0
M  V30 16768 H 1580.38 3.59852 -1.58966 0
M  V30 16769 H 1582.39 4.80777 -1.2275 0
M  V30 16770 N 1581.57 1.13606 1.09231 0
M  V30 16771 C 1582.52 0.784018 2.14096 0
M  V30 16772 C 1583.5 -0.22288 1.59349 0
M  V30 16773 O 1584.69 -0.0264914 1.7698 0
M  V30 16774 C 1581.82 0.253922 3.4236 0
M  V30 16775 C 1580.91 1.28985 4.0401 0
M  V30 16776 N 1581.3 2.49138 4.40186 0
M  V30 16777 C 1579.6 1.1381 4.31235 0
M  V30 16778 C 1580.3 3.15388 4.8878 0
M  V30 16779 N 1579.27 2.42806 4.8636 0
M  V30 16780 H 1583.08 1.69816 2.39874 0
M  V30 16781 H 1580.59 1.01867 1.26478 0
M  V30 16782 H 1582.59 -0.0165402 4.16897 0
M  V30 16783 H 1581.25 -0.65452 3.18035 0
M  V30 16784 H 1582.26 2.8643 4.31484 0
M  V30 16785 H 1578.94 0.287982 4.16506 0
M  V30 16786 H 1580.33 4.17784 5.26219 0
M  V30 16787 N 1583.05 -1.27244 0.929878 0
M  V30 16788 C 1584.46 -1.4662 0.630451 0
M  V30 16789 C 1584.66 -1.84077 -0.819633 0
M  V30 16790 O 1583.72 -1.95555 -1.59733 0
M  V30 16791 C 1585.03 -2.55709 1.58219 0
M  V30 16792 C 1586.58 -2.69569 1.59065 0
M  V30 16793 C 1587.05 -3.81818 2.52941 0
M  V30 16794 N 1588.54 -3.89195 2.51161 0
M  V30 16795 C 1589.28 -4.75474 3.20488 0
M  V30 16796 N 1588.78 -5.66225 3.99201 0
M  V30 16797 N 1590.57 -4.69222 3.09495 0
M  V30 16798 H 1582.72 -1.01216 1.86733 0
M  V30 16799 H 1584.98 -0.505737 0.801832 0
M  V30 16800 H 1584.69 -2.34985 2.61677 0
M  V30 16801 H 1584.56 -3.53141 1.32556 0
M  V30 16802 H 1586.95 -2.89672 0.563375 0
M  V30 16803 H 1587.03 -1.72616 1.88778 0
M  V30 16804 H 1586.67 -3.62467 3.55781 0
M  V30 16805 H 1586.6 -4.78202 2.20524 0
M  V30 16806 H 1589.1 -3.24305 1.93997 0
M  V30 16807 H 1589.41 -6.28925 4.4908 0
M  V30 16808 H 1587.75 -5.66013 4.03304 0
M  V30 16809 H 1590.94 -3.97322 2.47493 0
M  V30 16810 H 1591.12 -5.36244 3.63794 0
M  V30 16811 N 1584.52 -0.695628 -1.41417 0
M  V30 16812 C 1585.43 -0.0308378 -2.3458 0
M  V30 16813 C 1586.45 0.766 -1.56232 0
M  V30 16814 O 1587.63 0.703548 -1.88712 0
M  V30 16815 C 1584.69 0.894162 -3.34971 0
M  V30 16816 C 1583.75 0.0895231 -4.29207 0
M  V30 16817 C 1582.98 0.970467 -5.24802 0
M  V30 16818 O 1583.21 2.20997 -5.25848 0
M  V30 16819 O 1582.14 0.420114 -6.00432 0
M  V30 16820 H 1585.97 -0.798775 -2.93007 0
M  V30 16821 H 1583.55 -0.455964 -1.42272 0
M  V30 16822 H 1585.43 1.42458 -3.9659 0
M  V30 16823 H 1584.11 1.64159 -2.78987 0
M  V30 16824 H 1583.02 -0.4855 -3.70936 0
M  V30 16825 H 1584.35 -0.619241 -4.88289 0
M  V30 16826 N 1586 1.51322 -0.440383 0
M  V30 16827 C 1587.41 1.86687 0.0220272 0
M  V30 16828 C 1587.76 1.35734 1.41671 0
M  V30 16829 O 1586.89 0.709408 2.04442 0
M  V30 16830 C 1587.48 3.38768 0.0467477 0
M  V30 16831 C 1586.04 3.73657 0.45358 0
M  V30 16832 C 1585.19 2.7506 -0.351779 0
M  V30 16833 H 1588.14 1.44503 -0.65609 0
M  V30 16834 H 1588.16 3.70756 0.855589 0
M  V30 16835 H 1587.67 3.75823 -0.968451 0
M  V30 16836 H 1585.77 3.42193 1.47427 0
M  V30 16837 H 1585.89 4.78776 0.176262 0
M  V30 16838 H 1584.25 2.53988 0.190334 0
M  V30 16839 H 1585.03 3.14957 -1.36591 0
M  V30 16840 N 1587.48 0.171848 1.5666 0
M  V30 16841 C 1588.76 -0.519355 1.88579 0
M  V30 16842 C 1589.14 -1.81273 1.08182 0
M  V30 16843 O 1588.48 -2.27822 0.175895 0
M  V30 16844 C 1588.69 -0.760743 3.40608 0
M  V30 16845 C 1590.04 -1.09051 4.10357 0
M  V30 16846 O 1591.07 -0.849264 3.45928 0
M  V30 16847 O 1589.93 -1.54566 5.24187 0
M  V30 16848 H 1587.02 -0.267782 0.782446 0
M  V30 16849 H 1589.57 0.210323 1.68392 0
M  V30 16850 H 1588.34 0.153577 3.90999 0
M  V30 16851 H 1587.96 -1.54372 3.66408 0
M  V30 16852 N 1588.96 -1.5727 -0.101874 0
M  V30 16853 C 1589.91 -2.0258 -1.14297 0
M  V30 16854 C 1590.9 -0.925674 -1.41872 0
M  V30 16855 O 1592.11 -1.11086 -1.41633 0
M  V30 16856 H 1588.48 -0.645504 -0.385782 0
M  V30 16857 H 1590.45 -2.8922 -0.734453 0
M  V30 16858 C 1589.2 -2.46036 -2.45686 0
M  V30 16859 H 1588.52 -3.30266 -2.2531 0
M  V30 16860 H 1589.96 -2.81522 -3.17051 0
M  V30 16861 C 1588.42 -1.33089 -3.09498 0
M  V30 16862 O 1588.95 -0.656277 -3.96303 0
M  V30 16863 N 1587.16 -1.08359 -2.69642 0
M  V30 16864 H 1586.71 -1.63397 -1.99146 0
M  V30 16865 H 1586.66 -0.329859 -3.12665 0
M  V30 16866 N 1590.44 0.372521 -1.53134 0
M  V30 16867 C 1591.66 1.14116 -1.73183 0
M  V30 16868 C 1592.09 1.82475 -0.456553 0
M  V30 16869 O 1591.44 1.71468 0.588919 0
M  V30 16870 C 1591.49 2.15241 -2.89316 0
M  V30 16871 O 1590.6 3.22178 -2.57439 0
M  V30 16872 H 1589.94 0.331442 -0.575362 0
M  V30 16873 H 1592.47 0.431769 -1.99992 0
M  V30 16874 H 1592.48 2.58961 -3.15283 0
M  V30 16875 H 1591.15 1.64877 -3.81822 0
M  V30 16876 H 1589.73 2.83481 -2.42267 0
M  V30 16877 N 1591.91 1.44376 0.631925 0
M  V30 16878 C 1592.86 1.51181 1.74393 0
M  V30 16879 C 1593.83 0.359599 1.62161 0
M  V30 16880 O 1595.02 0.569725 1.82096 0
M  V30 16881 C 1592.16 1.46124 3.12637 0
M  V30 16882 C 1591.27 2.71714 3.35851 0
M  V30 16883 C 1590.4 2.58496 4.64062 0
M  V30 16884 C 1589.44 3.79252 4.80452 0
M  V30 16885 N 1588.58 3.64715 5.99939 0
M  V30 16886 H 1593.42 2.4619 1.67912 0
M  V30 16887 H 1590.96 1.22184 0.819108 0
M  V30 16888 H 1592.91 1.41183 3.92585 0
M  V30 16889 H 1591.54 0.546831 3.18135 0
M  V30 16890 H 1590.6 2.86845 2.49848 0
M  V30 16891 H 1591.91 3.61351 3.43841 0
M  V30 16892 H 1591.06 2.51383 5.5217 0
M  V30 16893 H 1589.8 1.66417 4.58428 0
M  V30 16894 H 1588.81 3.8675 3.90774 0
M  V30 16895 H 1590.03 4.72367 4.879 0
M  V30 16896 H 1587.98 2.75388 5.95397 0
M  V30 16897 H 1587.89 4.47969 6.08982 0
M  V30 16898 H 1589.16 3.61493 6.90611 0
M  V30 16899 N 1593.39 -0.872258 1.31261 0
M  V30 16900 C 1594.34 -2.00065 1.18645 0
M  V30 16901 C 1595.33 -1.69132 0.0952872 0
M  V30 16902 O 1596.54 -1.78156 0.257022 0
M  V30 16903 H 1592.91 -0.656201 0.367293 0
M  V30 16904 H 1594.89 -2.07837 2.14117 0
M  V30 16905 C 1593.63 -3.35628 0.908241 0
M  V30 16906 H 1592.96 -3.5995 1.74 0
M  V30 16907 H 1594.4 -4.15184 0.860134 0
M  V30 16908 C 1592.86 -3.34647 -0.388993 0
M  V30 16909 O 1593.39 -3.76271 -1.40651 0
M  V30 16910 N 1591.59 -2.87768 -0.404708 0
M  V30 16911 H 1591.14 -2.5409 0.423824 0
M  V30 16912 H 1591.1 -2.87494 -1.27258 0
M  V30 16913 N 1594.87 -1.14184 -1.08627 0
M  V30 16914 C 1595.82 -0.795361 -2.13677 0
M  V30 16915 C 1596.8 0.214426 -1.59465 0
M  V30 16916 O 1598 0.0171053 -1.76992 0
M  V30 16917 C 1595.12 -0.272074 -3.4222 0
M  V30 16918 C 1594.21 -1.31125 -4.0332 0
M  V30 16919 N 1594.6 -2.51469 -4.38859 0
M  V30 16920 C 1592.9 -1.16095 -4.30625 0
M  V30 16921 C 1593.6 -3.17975 -4.871 0
M  V30 16922 N 1592.58 -2.45382 -4.85066 0
M  V30 16923 H 1596.38 -1.71086 -2.38971 0
M  V30 16924 H 1593.89 -1.02537 -1.25936 0
M  V30 16925 H 1595.89 -0.00556906 -4.169 0
M  V30 16926 H 1594.55 0.637644 -3.18377 0
M  V30 16927 H 1595.56 -2.88714 -4.29959 0
M  V30 16928 H 1592.24 -0.310066 -4.16347 0
M  V30 16929 H 1593.63 -4.20569 -5.23996 0
M  V30 16930 N 1596.35 1.26749 -0.936613 0
M  V30 16931 C 1597.3 2.26542 -0.441307 0
M  V30 16932 C 1598.27 1.58503 0.496581 0
M  V30 16933 O 1599.45 1.86259 0.41379 0
M  V30 16934 C 1596.59 3.43866 0.291633 0
M  V30 16935 C 1595.7 4.26592 -0.681397 0
M  V30 16936 C 1594.84 5.31151 0.0722826 0
M  V30 16937 C 1593.88 6.05553 -0.892869 0
M  V30 16938 N 1593.01 7.01891 -0.17124 0
M  V30 16939 H 1597.85 2.68282 -1.29725 0
M  V30 16940 H 1595.39 1.31914 -0.650928 0
M  V30 16941 H 1597.35 4.10711 0.732984 0
M  V30 16942 H 1595.98 3.03051 1.11175 0
M  V30 16943 H 1595.03 3.59579 -1.24126 0
M  V30 16944 H 1596.34 4.78201 -1.41864 0
M  V30 16945 H 1595.5 6.03987 0.57313 0
M  V30 16946 H 1594.24 4.80369 0.842439 0
M  V30 16947 H 1593.24 5.31548 -1.40488 0
M  V30 16948 H 1594.47 6.58424 -1.66296 0
M  V30 16949 H 1592.41 6.53426 0.580507 0
M  V30 16950 H 1592.33 7.5123 -0.847897 0
M  V30 16951 H 1593.6 7.78889 0.308662 0
M  V30 16952 N 1597.83 0.703118 1.41046 0
M  V30 16953 C 1599.05 0.246552 2.05426 0
M  V30 16954 C 1599.47 -1.10704 1.52938 0
M  V30 16955 O 1598.83 -1.69329 0.680733 0
M  V30 16956 C 1598.88 0.203953 3.60924 0
M  V30 16957 O 1598.6 1.50408 4.11472 0
M  V30 16958 C 1600.1 -0.272686 4.42461 0
M  V30 16959 H 1597.32 0.113157 0.66139 0
M  V30 16960 H 1599.86 0.957823 1.80682 0
M  V30 16961 H 1598.02 -0.458194 3.84681 0
M  V30 16962 H 1598.43 1.39622 5.05575 0
M  V30 16963 H 1599.91 -0.251357 5.51427 0
M  V30 16964 H 1600.38 -1.31282 4.1912 0
M  V30 16965 H 1600.99 0.358733 4.23784 0
M  V30 16966 N 1599.3 -1.51086 0.448402 0
M  V30 16967 C 1600.25 -2.28015 -0.357438 0
M  V30 16968 C 1601.22 -1.32079 -1.00719 0
M  V30 16969 O 1602.41 -1.60995 -1.02398 0
M  V30 16970 C 1599.55 -3.13324 -1.44644 0
M  V30 16971 C 1598.66 -4.24267 -0.813729 0
M  V30 16972 C 1597.79 -4.96868 -1.87871 0
M  V30 16973 C 1596.83 -5.99716 -1.22502 0
M  V30 16974 N 1595.97 -6.65682 -2.23185 0
M  V30 16975 H 1600.81 -2.96436 0.30493 0
M  V30 16976 H 1598.35 -1.46203 0.162222 0
M  V30 16977 H 1600.31 -3.61119 -2.08924 0
M  V30 16978 H 1598.94 -2.46996 -2.07829 0
M  V30 16979 H 1597.99 -3.80354 -0.0589414 0
M  V30 16980 H 1599.3 -4.97917 -0.296587 0
M  V30 16981 H 1598.45 -5.48266 -2.59786 0
M  V30 16982 H 1597.19 -4.22873 -2.42961 0
M  V30 16983 H 1596.2 -5.476 -0.491388 0
M  V30 16984 H 1597.42 -6.75674 -0.681315 0
M  V30 16985 H 1595.37 -5.94493 -2.77334 0
M  V30 16986 H 1595.29 -7.35134 -1.76393 0
M  V30 16987 H 1596.55 -7.21707 -2.9455 0
M  V30 16988 N 1600.78 -0.180154 -1.56567 0
M  V30 16989 C 1602.06 0.509347 -1.88852 0
M  V30 16990 C 1602.44 1.80697 -1.09141 0
M  V30 16991 O 1601.79 2.27726 -0.187974 0
M  V30 16992 C 1602 0.742669 -3.41006 0
M  V30 16993 C 1603.35 1.06873 -4.1093 0
M  V30 16994 O 1604.37 0.830907 -3.46373 0
M  V30 16995 O 1603.23 1.51784 -5.24999 0
M  V30 16996 H 1600.32 0.263629 -0.783855 0
M  V30 16997 H 1602.87 -0.219251 -1.68278 0
M  V30 16998 H 1601.64 -0.17431 -3.90912 0
M  V30 16999 H 1601.26 1.52427 -3.67222 0
M  V30 17000 N 1602.26 1.57322 0.0935319 0
M  V30 17001 C 1603.21 2.03184 1.13222 0
M  V30 17002 C 1604.2 0.933184 1.41379 0
M  V30 17003 O 1605.41 1.11836 1.41042 0
M  V30 17004 H 1601.78 0.647541 0.382354 0
M  V30 17005 H 1603.75 2.89606 0.719105 0
M  V30 17006 C 1602.5 2.47336 2.44378 0
M  V30 17007 H 1601.83 3.31456 2.23556 0
M  V30 17008 H 1603.27 2.83199 3.15554 0
M  V30 17009 C 1601.73 1.34728 3.08788 0
M  V30 17010 O 1602.26 0.677285 3.95949 0
M  V30 17011 N 1600.46 1.09787 2.69063 0
M  V30 17012 H 1600.01 1.64451 1.98277 0
M  V30 17013 H 1599.97 0.346436 3.12485 0
M  V30 17014 N 1603.74 -0.364395 1.53329 0
M  V30 17015 C 1604.99 -1.10691 1.69569 0
M  V30 17016 C 1605.31 -1.89268 0.448093 0
M  V30 17017 O 1604.57 -1.87216 -0.56997 0
M  V30 17018 C 1604.87 -2.09208 2.8977 0
M  V30 17019 C 1604.53 -1.47103 4.26229 0
M  V30 17020 C 1603.2 -1.29893 4.63337 0
M  V30 17021 C 1605.55 -1.0218 5.11086 0
M  V30 17022 C 1602.88 -0.663463 5.82937 0
M  V30 17023 C 1605.23 -0.400334 6.31332 0
M  V30 17024 C 1603.89 -0.21574 6.67151 0
M  V30 17025 H 1603.16 -0.405048 0.620498 0
M  V30 17026 H 1605.81 -0.388568 1.87516 0
M  V30 17027 H 1604.11 -2.8735 2.6634 0
M  V30 17028 H 1605.81 -2.66615 2.99529 0
M  V30 17029 H 1602.4 -1.61491 3.97012 0
M  V30 17030 H 1606.58 -1.14269 4.82966 0
M  V30 17031 H 1601.84 -0.508867 6.09279 0
M  V30 17032 H 1606.01 -0.0440554 6.96386 0
M  V30 17033 H 1603.64 0.278732 7.59689 0
M  V30 17034 N 1605.22 -1.44709 -0.62426 0
M  V30 17035 C 1606.16 -1.52104 -1.73589 0
M  V30 17036 C 1607.13 -0.368193 -1.61968 0
M  V30 17037 O 1608.32 -0.579374 -1.81791 0
M  V30 17038 C 1605.46 -1.4778 -3.11857 0
M  V30 17039 C 1604.57 -2.73491 -3.34405 0
M  V30 17040 C 1603.71 -2.60953 -4.62685 0
M  V30 17041 C 1602.75 -3.81795 -4.78434 0
M  V30 17042 N 1601.88 -3.67892 -5.97997 0
M  V30 17043 H 1606.72 -2.47077 -1.66604 0
M  V30 17044 H 1604.26 -1.22617 -0.812616 0
M  V30 17045 H 1606.22 -1.43263 -3.91831 0
M  V30 17046 H 1604.85 -0.563694 -3.1784 0
M  V30 17047 H 1603.9 -2.88166 -2.48324 0
M  V30 17048 H 1605.21 -3.6317 -3.4192 0
M  V30 17049 H 1604.37 -2.54308 -5.50829 0
M  V30 17050 H 1603.1 -1.68846 -4.57539 0
M  V30 17051 H 1602.11 -3.88817 -3.88717 0
M  V30 17052 H 1603.33 -4.74947 -4.85388 0
M  V30 17053 H 1601.28 -2.78541 -5.93928 0
M  V30 17054 H 1601.2 -4.51193 -6.06598 0
M  V30 17055 H 1602.47 -3.6515 -6.88684 0
M  V30 17056 N 1606.69 0.865285 -1.31722 0
M  V30 17057 C 1608.11 1.15179 -1.10481 0
M  V30 17058 C 1608.31 2.01132 0.121667 0
M  V30 17059 O 1607.37 2.39167 0.809645 0
M  V30 17060 C 1608.68 1.8394 -2.3788 0
M  V30 17061 C 1610.23 1.96621 -2.43535 0
M  V30 17062 C 1610.7 2.68796 -3.70827 0
M  V30 17063 N 1612.19 2.76329 -3.71748 0
M  V30 17064 C 1612.93 3.32798 -4.6694 0
M  V30 17065 N 1612.42 3.90162 -5.7249 0
M  V30 17066 N 1614.22 3.30801 -4.54453 0
M  V30 17067 H 1606.37 0.292632 -2.10374 0
M  V30 17068 H 1608.63 0.192252 -0.928301 0
M  V30 17069 H 1608.34 1.28233 -3.27489 0
M  V30 17070 H 1608.21 2.84182 -2.48034 0
M  V30 17071 H 1610.6 2.5149 -1.54392 0
M  V30 17072 H 1610.68 0.954071 -2.37342 0
M  V30 17073 H 1610.32 2.14593 -4.60339 0
M  V30 17074 H 1610.25 3.70427 -3.74288 0
M  V30 17075 H 1612.74 2.35621 -2.95451 0
M  V30 17076 H 1613.06 4.31376 -6.41198 0
M  V30 17077 H 1611.4 3.88525 -5.76258 0
M  V30 17078 H 1614.59 2.85227 -3.71165 0
M  V30 17079 H 1614.77 3.74511 -5.28815 0
M  V30 17080 N 1608.17 1.14759 1.0802 0
M  V30 17081 C 1609.4 0.942316 1.84757 0
M  V30 17082 C 1609.82 -0.504188 1.81217 0
M  V30 17083 O 1609.18 -1.35891 1.20014 0
M  V30 17084 C 1609.23 1.45271 3.30043 0
M  V30 17085 O 1608.33 0.647414 4.07287 0
M  V30 17086 H 1607.67 0.336613 0.572353 0
M  V30 17087 H 1610.2 1.52578 1.36313 0
M  V30 17088 H 1610.21 1.4626 3.80883 0
M  V30 17089 H 1608.89 2.50583 3.31935 0
M  V30 17090 H 1607.47 0.706595 3.66144 0
M  V30 17091 N 1609.65 -1.26251 0.943322 0
M  V30 17092 C 1610.9 -1.93939 0.592909 0
M  V30 17093 C 1611.23 -1.73814 -0.866155 0
M  V30 17094 O 1610.5 -1.07645 -1.61997 0
M  V30 17095 C 1610.79 -3.47653 0.938601 0
M  V30 17096 C 1610.64 -3.77053 2.45257 0
M  V30 17097 C 1611.96 -4.37736 0.455546 0
M  V30 17098 H 1609.08 -0.704367 0.21688 0
M  V30 17099 H 1611.72 -1.4908 1.17793 0
M  V30 17100 H 1609.87 -3.85992 0.440756 0
M  V30 17101 H 1611.54 -3.48417 3.0233 0
M  V30 17102 H 1609.79 -3.23055 2.89513 0
M  V30 17103 H 1610.46 -4.84506 2.64495 0
M  V30 17104 H 1612.93 -4.06635 0.882435 0
M  V30 17105 H 1611.81 -5.44075 0.72623 0
M  V30 17106 H 1612.07 -4.37377 -0.644508 0
M  V30 17107 N 1611.13 -0.710588 -1.40671 0
M  V30 17108 C 1612.09 -0.0635988 -2.29112 0
M  V30 17109 C 1613.09 0.692537 -1.45123 0
M  V30 17110 O 1614.28 0.525184 -1.66095 0
M  V30 17111 C 1611.41 0.919955 -3.28252 0
M  V30 17112 H 1612.61 -0.842477 -2.87823 0
M  V30 17113 H 1610.16 -0.474948 -1.48909 0
M  V30 17114 H 1610.9 1.72607 -2.7455 0
M  V30 17115 H 1610.68 0.38071 -3.90247 0
M  V30 17116 H 1612.17 1.36997 -3.94489 0
M  V30 17117 N 1612.61 1.50847 -0.456408 0
M  V30 17118 C 1613.83 2.07139 0.104054 0
M  V30 17119 C 1614.26 1.31966 1.34039 0
M  V30 17120 O 1613.62 0.363038 1.77628 0
M  V30 17121 C 1613.66 3.5853 0.385794 0
M  V30 17122 O 1612.77 3.85351 1.46895 0
M  V30 17123 H 1612.11 0.663968 -0.00651246 0
M  V30 17124 H 1614.64 1.94226 -0.64323 0
M  V30 17125 H 1614.65 4.03097 0.630644 0
M  V30 17126 H 1613.32 4.12665 -0.51773 0
M  V30 17127 H 1611.9 3.52635 1.21256 0
M  V30 17128 N 1614.09 0.188454 1.56469 0
M  V30 17129 C 1615.03 -0.735074 2.18781 0
M  V30 17130 C 1616 -1.21459 1.133 0
M  V30 17131 O 1617.19 -1.27967 1.41524 0
M  V30 17132 C 1614.33 -1.95181 2.84602 0
M  V30 17133 C 1613.44 -1.51428 4.0459 0
M  V30 17134 C 1612.58 -2.68601 4.58287 0
M  V30 17135 C 1611.61 -2.21422 5.70648 0
M  V30 17136 N 1610.75 -3.31749 6.18779 0
M  V30 17137 H 1615.59 -0.19694 2.97349 0
M  V30 17138 H 1613.13 -0.0854693 1.46851 0
M  V30 17139 H 1615.09 -2.66571 3.2093 0
M  V30 17140 H 1613.72 -2.46337 2.0861 0
M  V30 17141 H 1612.77 -0.6965 3.73969 0
M  V30 17142 H 1614.08 -1.1281 4.85876 0
M  V30 17143 H 1613.23 -3.48123 4.96885 0
M  V30 17144 H 1611.97 -3.1049 3.76095 0
M  V30 17145 H 1610.98 -1.40352 5.31584 0
M  V30 17146 H 1612.2 -1.80572 6.54653 0
M  V30 17147 H 1610.15 -3.73181 5.39511 0
M  V30 17148 H 1610.07 -2.97277 6.95099 0
M  V30 17149 H 1611.33 -4.11504 6.62031 0
M  V30 17150 N 1615.56 -1.5737 -0.0851874 0
M  V30 17151 C 1616.79 -1.90525 -0.798977 0
M  V30 17152 C 1617.2 -0.781347 -1.72313 0
M  V30 17153 O 1616.54 0.255036 -1.81921 0
M  V30 17154 C 1616.61 -3.19027 -1.65716 0
M  V30 17155 C 1616.27 -4.47974 -0.903795 0
M  V30 17156 C 1617.27 -5.19395 -0.229094 0
M  V30 17157 C 1614.95 -4.94621 -0.874937 0
M  V30 17158 C 1616.95 -6.35706 0.464385 0
M  V30 17159 C 1614.63 -6.10842 -0.177678 0
M  V30 17160 C 1615.63 -6.81234 0.490795 0
M  V30 17161 O 1615.32 -7.95239 1.17685 0
M  V30 17162 H 1615.05 -0.634533 -0.233119 0
M  V30 17163 H 1617.61 -2.05301 -0.0638265 0
M  V30 17164 H 1615.84 -3.00425 -2.43479 0
M  V30 17165 H 1617.52 -3.37937 -2.24841 0
M  V30 17166 H 1618.29 -4.84392 -0.242783 0
M  V30 17167 H 1614.17 -4.39712 -1.3847 0
M  V30 17168 H 1617.71 -6.90586 0.986719 0
M  V30 17169 H 1613.61 -6.45297 -0.16187 0
M  V30 17170 H 1614.38 -8.1128 1.08476 0
M  V30 17171 N 1617.04 0.356258 -1.53521 0
M  V30 17172 C 1618.45 0.932569 -1.61741 0
M  V30 17173 C 1618.8 1.89965 -0.490677 0
M  V30 17174 O 1617.93 2.1301 0.381514 0
M  V30 17175 C 1618.52 1.69818 -2.93168 0
M  V30 17176 C 1617.08 2.22369 -3.03692 0
M  V30 17177 C 1616.23 1.03891 -2.57103 0
M  V30 17178 H 1619.18 0.134769 -1.58127 0
M  V30 17179 H 1619.2 2.56011 -2.81494 0
M  V30 17180 H 1618.71 0.994065 -3.75153 0
M  V30 17181 H 1616.81 2.95994 -2.26314 0
M  V30 17182 H 1616.93 2.49611 -4.08939 0
M  V30 17183 H 1615.29 1.40862 -2.12202 0
M  V30 17184 H 1616.07 0.349637 -3.41515 0
M  V30 17185 N 1618.52 1.45038 0.616577 0
M  V30 17186 C 1619.47 1.53022 1.7278 0
M  V30 17187 C 1620.44 0.376778 1.6177 0
M  V30 17188 O 1621.62 0.589006 1.81481 0
M  V30 17189 C 1618.76 1.49432 3.11069 0
M  V30 17190 C 1617.87 2.7526 3.3295 0
M  V30 17191 C 1617.01 2.63403 4.61294 0
M  V30 17192 C 1616.05 3.84327 4.76402 0
M  V30 17193 N 1615.19 3.71058 5.96037 0
M  V30 17194 H 1620.03 2.47957 1.65292 0
M  V30 17195 H 1617.56 1.23046 0.806102 0
M  V30 17196 H 1619.52 1.45339 3.91066 0
M  V30 17197 H 1618.15 0.580542 3.17537 0
M  V30 17198 H 1617.2 2.89479 2.46792 0
M  V30 17199 H 1618.51 3.64978 3.39989 0
M  V30 17200 H 1617.67 2.57226 5.49472 0
M  V30 17201 H 1616.41 1.7127 4.56638 0
M  V30 17202 H 1615.41 3.90873 3.8665 0
M  V30 17203 H 1616.64 4.77515 4.82863 0
M  V30 17204 H 1614.58 2.81687 5.92443 0
M  V30 17205 H 1614.5 4.54403 6.04197 0
M  V30 17206 H 1615.77 3.68798 6.86738 0
M  V30 17207 N 1620 -0.858287 1.32179 0
M  V30 17208 C 1621.27 -1.59548 1.13154 0
M  V30 17209 C 1621.65 -2.0882 -0.309439 0
M  V30 17210 O 1621 -1.87536 -1.30547 0
M  V30 17211 C 1621.21 -2.74443 2.15597 0
M  V30 17212 C 1622.56 -3.44115 2.48737 0
M  V30 17213 O 1623.58 -2.84664 2.14114 0
M  V30 17214 O 1622.44 -4.51389 3.08074 0
M  V30 17215 H 1619.54 -0.702481 0.436405 0
M  V30 17216 H 1622.08 -0.902731 1.43697 0
M  V30 17217 H 1620.86 -2.35533 3.12473 0
M  V30 17218 H 1620.48 -3.51397 1.86028 0
M  V30 17219 N 1621.48 -1.1533 -1.07409 0
M  V30 17220 C 1622.72 -0.938329 -1.8159 0
M  V30 17221 C 1623.08 0.525171 -1.84678 0
M  V30 17222 O 1624.28 0.858449 -2.54724 0
M  V30 17223 C 1622.55 -1.53504 -3.22756 0
M  V30 17224 S 1624.11 -1.4631 -4.13689 0
M  V30 17225 H 1620.93 -0.337711 -0.625677 0
M  V30 17226 H 1623.53 -1.46868 -1.29035 0
M  V30 17227 H 1622.23 -2.59313 -3.18096 0
M  V30 17228 H 1621.77 -1.00353 -3.80385 0
M  V30 17229 H 1623.78 -0.455576 -4.94104 0
M  V30 17230 N 1622.95 1.25748 -0.950004 0
M  V30 17231 C 1624.18 1.97952 -0.618848 0
M  V30 17232 C 1624.6 1.70184 0.801194 0
M  V30 17233 O 1623.96 0.955032 1.54107 0
M  V30 17234 C 1624.01 3.49744 -0.878151 0
M  V30 17235 O 1623.11 4.12375 0.0453685 0
M  V30 17236 H 1622.45 0.620731 -0.235773 0
M  V30 17237 H 1624.98 1.59988 -1.27534 0
M  V30 17238 H 1624.99 4.00029 -0.802567 0
M  V30 17239 H 1623.67 3.69285 -1.91315 0
M  V30 17240 H 1622.25 3.7281 -0.0820265 0
M  V30 17241 N 1624.43 0.718038 1.40292 0
M  V30 17242 C 1625.34 0.0681535 2.34501 0
M  V30 17243 C 1626.36 -0.741048 1.57431 0
M  V30 17244 O 1627.53 -0.673437 1.89807 0
M  V30 17245 C 1624.6 -0.840758 3.36351 0
M  V30 17246 C 1623.66 -0.0212287 4.29295 0
M  V30 17247 C 1622.89 -0.886852 5.2628 0
M  V30 17248 O 1623.12 -2.12603 5.29298 0
M  V30 17249 O 1622.05 -0.324537 6.01024 0
M  V30 17250 H 1625.88 0.845288 2.91699 0
M  V30 17251 H 1623.46 0.478541 1.41529 0
M  V30 17252 H 1625.34 -1.36131 3.98806 0
M  V30 17253 H 1624.02 -1.597 2.81563 0
M  V30 17254 H 1622.92 0.544451 3.70117 0
M  V30 17255 H 1624.26 0.696846 4.87242 0
M  V30 17256 N 1625.91 -1.50602 0.464402 0
M  V30 17257 C 1627.16 -2.02587 -0.0930295 0
M  V30 17258 C 1627.49 -1.34618 -1.3997 0
M  V30 17259 O 1626.76 -0.469711 -1.88743 0
M  V30 17260 C 1627.05 -3.5898 -0.283783 0
M  V30 17261 C 1626.9 -4.3753 1.04344 0
M  V30 17262 C 1628.22 -4.27602 -1.04138 0
M  V30 17263 H 1625.34 -0.73629 -0.0323356 0
M  V30 17264 H 1627.98 -1.79986 0.608687 0
M  V30 17265 H 1626.13 -3.78368 -0.881488 0
M  V30 17266 H 1627.8 -4.29729 1.67721 0
M  V30 17267 H 1626.05 -4.01536 1.64168 0
M  V30 17268 H 1626.72 -5.45201 0.863691 0
M  V30 17269 H 1629.19 -4.12649 -0.534822 0
M  V30 17270 H 1628.07 -5.36854 -1.14364 0
M  V30 17271 H 1628.33 -3.9031 -2.0763 0
M  V30 17272 N 1627.39 -0.19675 -1.56367 0
M  V30 17273 C 1628.3 0.735372 -2.22777 0
M  V30 17274 C 1629.31 1.23336 -1.22737 0
M  V30 17275 O 1630.49 1.28017 -1.55479 0
M  V30 17276 C 1627.56 1.93706 -2.8754 0
M  V30 17277 C 1626.62 1.48348 -4.02854 0
M  V30 17278 C 1625.85 2.62788 -4.64519 0
M  V30 17279 O 1626.07 3.80311 -4.25111 0
M  V30 17280 O 1625.01 2.35406 -5.53956 0
M  V30 17281 H 1628.83 0.199788 -3.03042 0
M  V30 17282 H 1626.42 0.0326149 -1.49364 0
M  V30 17283 H 1628.3 2.63934 -3.28507 0
M  V30 17284 H 1626.97 2.46121 -2.10252 0
M  V30 17285 H 1625.88 0.749939 -3.66506 0
M  V30 17286 H 1627.21 1.00597 -4.8181 0
M  V30 17287 N 1628.87 1.57413 0.0768405 0
M  V30 17288 C 1630.28 1.53656 0.431508 0
M  V30 17289 C 1630.48 0.916194 1.79466 0
M  V30 17290 O 1629.54 0.516529 2.4716 0
M  V30 17291 C 1630.85 2.98325 0.377212 0
M  V30 17292 C 1632.4 3.09635 0.457761 0
M  V30 17293 C 1632.87 4.55945 0.433425 0
M  V30 17294 N 1634.37 4.60562 0.493647 0
M  V30 17295 C 1635.1 5.71242 0.496949 0
M  V30 17296 N 1634.6 6.91302 0.455368 0
M  V30 17297 N 1636.39 5.5947 0.543129 0
M  V30 17298 H 1628.54 1.96108 -0.815811 0
M  V30 17299 H 1630.8 0.897392 -0.3056 0
M  V30 17300 H 1630.51 3.47251 -0.557628 0
M  V30 17301 H 1630.38 3.57959 1.18932 0
M  V30 17302 H 1632.77 2.60685 1.38302 0
M  V30 17303 H 1632.85 2.52919 -0.382829 0
M  V30 17304 H 1632.5 5.0555 -0.487968 0
M  V30 17305 H 1632.43 5.10518 1.29148 0
M  V30 17306 H 1634.92 3.74162 0.530237 0
M  V30 17307 H 1635.23 7.7142 0.461674 0
M  V30 17308 H 1633.57 6.93717 0.422133 0
M  V30 17309 H 1636.77 4.64576 0.573272 0
M  V30 17310 H 1636.94 6.45727 0.542234 0
M  V30 17311 N 1630.34 -0.348112 1.53707 0
M  V30 17312 C 1631.57 -1.10903 1.74666 0
M  V30 17313 C 1631.99 -1.82499 0.483683 0
M  V30 17314 O 1631.34 -1.74191 -0.544419 0
M  V30 17315 C 1631.4 -2.12602 2.92374 0
M  V30 17316 O 1631.12 -1.43918 4.13787 0
M  V30 17317 C 1632.62 -3.01105 3.25347 0
M  V30 17318 H 1629.84 -0.330911 0.583728 0
M  V30 17319 H 1632.38 -0.401707 2.00516 0
M  V30 17320 H 1630.54 -2.78906 2.68869 0
M  V30 17321 H 1630.95 -2.11818 4.79826 0
M  V30 17322 H 1632.42 -3.68408 4.11071 0
M  V30 17323 H 1632.9 -3.66874 2.41455 0
M  V30 17324 H 1633.51 -2.40395 3.50842 0
M  V30 17325 N 1631.82 -1.45363 -0.608876 0
M  V30 17326 C 1633.05 -1.52614 -1.39257 0
M  V30 17327 C 1633.46 -0.157106 -1.88547 0
M  V30 17328 O 1632.8 0.851329 -1.62782 0
M  V30 17329 C 1632.87 -2.44821 -2.63255 0
M  V30 17330 C 1632.53 -3.91582 -2.35612 0
M  V30 17331 C 1633.53 -4.81517 -1.96054 0
M  V30 17332 C 1631.21 -4.36488 -2.48564 0
M  V30 17333 C 1633.21 -6.14365 -1.69808 0
M  V30 17334 C 1630.89 -5.69377 -2.21931 0
M  V30 17335 C 1631.89 -6.58135 -1.82614 0
M  V30 17336 O 1631.58 -7.88561 -1.56292 0
M  V30 17337 H 1631.31 -0.51935 -0.432726 0
M  V30 17338 H 1633.86 -1.91227 -0.749768 0
M  V30 17339 H 1632.09 -2.01177 -3.30249 0
M  V30 17340 H 1633.78 -2.4277 -3.25296 0
M  V30 17341 H 1634.55 -4.48088 -1.85585 0
M  V30 17342 H 1630.43 -3.67646 -2.78133 0
M  V30 17343 H 1633.97 -6.83602 -1.39045 0
M  V30 17344 H 1629.87 -6.02361 -2.32016 0
M  V30 17345 H 1630.64 -8.00576 -1.70355 0
M  V30 17346 N 1633.3 0.851265 -1.32632 0
M  V30 17347 C 1634.23 1.97562 -1.24465 0
M  V30 17348 C 1635.21 1.69619 -0.127777 0
M  V30 17349 O 1636.4 1.9162 -0.315509 0
M  V30 17350 C 1633.53 3.33467 -0.970423 0
M  V30 17351 C 1632.48 3.75772 -2.0489 0
M  V30 17352 C 1631.81 5.09345 -1.62702 0
M  V30 17353 C 1633.11 3.90876 -3.4643 0
M  V30 17354 H 1634.8 2.04653 -2.18535 0
M  V30 17355 H 1632.35 0.983252 -1.05205 0
M  V30 17356 H 1634.3 4.11681 -0.899825 0
M  V30 17357 H 1633.02 3.26599 0.00591373 0
M  V30 17358 H 1631.68 2.99812 -2.1097 0
M  V30 17359 H 1631.33 4.98937 -0.638039 0
M  V30 17360 H 1631.03 5.38621 -2.34864 0
M  V30 17361 H 1632.55 5.90048 -1.57085 0
M  V30 17362 H 1633.97 4.59434 -3.42919 0
M  V30 17363 H 1632.37 4.31574 -4.1697 0
M  V30 17364 H 1633.44 2.93689 -3.85843 0
M  V30 17365 N 1634.78 1.15898 1.06796 0
M  V30 17366 C 1635.73 0.860895 2.14143 0
M  V30 17367 C 1636.7 -0.188539 1.65026 0
M  V30 17368 O 1637.88 -0.0548558 1.90721 0
M  V30 17369 C 1635.02 0.362533 3.4319 0
M  V30 17370 C 1634.13 1.4742 4.06068 0
M  V30 17371 C 1633.27 0.931377 5.22971 0
M  V30 17372 C 1632.31 2.0196 5.77822 0
M  V30 17373 N 1631.44 1.49274 6.86048 0
M  V30 17374 H 1636.28 1.78023 2.38981 0
M  V30 17375 H 1633.82 0.888173 1.1726 0
M  V30 17376 H 1635.78 0.0552592 4.17163 0
M  V30 17377 H 1634.41 -0.519869 3.18586 0
M  V30 17378 H 1633.46 1.89754 3.29693 0
M  V30 17379 H 1634.77 2.29559 4.42836 0
M  V30 17380 H 1633.93 0.576982 6.0395 0
M  V30 17381 H 1632.67 0.0792265 4.87636 0
M  V30 17382 H 1631.67 2.38275 4.95485 0
M  V30 17383 H 1632.9 2.87562 6.15211 0
M  V30 17384 H 1630.84 0.663037 6.52641 0
M  V30 17385 H 1630.76 2.25035 7.21731 0
M  V30 17386 H 1632.03 1.16676 7.70718 0
M  V30 17387 N 1636.26 -1.25243 0.956659 0
M  V30 17388 C 1637.48 -1.97082 0.629791 0
M  V30 17389 C 1637.9 -1.71082 -0.798529 0
M  V30 17390 O 1637.26 -0.98805 -1.5344 0
M  V30 17391 C 1637.31 -3.5059 0.881406 0
M  V30 17392 O 1637.03 -3.75694 2.25356 0
M  V30 17393 C 1638.53 -4.39656 0.567203 0
M  V30 17394 H 1635.75 -0.628152 0.235938 0
M  V30 17395 H 1638.29 -1.5936 1.28159 0
M  V30 17396 H 1636.45 -3.86416 0.27599 0
M  V30 17397 H 1636.86 -4.70142 2.32523 0
M  V30 17398 H 1638.34 -5.46263 0.793785 0
M  V30 17399 H 1638.81 -4.36364 -0.498287 0
M  V30 17400 H 1639.42 -4.094 1.15203 0
M  V30 17401 N 1637.73 -0.725468 -1.3991 0
M  V30 17402 C 1638.68 -0.0792833 -2.30664 0
M  V30 17403 C 1639.65 0.73984 -1.48713 0
M  V30 17404 O 1640.84 0.701762 -1.77426 0
M  V30 17405 C 1637.98 0.829164 -3.34991 0
M  V30 17406 C 1637.09 -0.00154779 -4.32 0
M  V30 17407 C 1636.22 0.907291 -5.23394 0
M  V30 17408 C 1635.26 0.0712573 -6.12059 0
M  V30 17409 N 1634.4 0.935508 -6.9584 0
M  V30 17410 H 1639.24 -0.858869 -2.85355 0
M  V30 17411 H 1636.78 -0.435214 -1.40514 0
M  V30 17412 H 1638.74 1.37021 -3.94057 0
M  V30 17413 H 1637.37 1.57483 -2.81778 0
M  V30 17414 H 1636.42 -0.659903 -3.74632 0
M  V30 17415 H 1637.73 -0.648387 -4.94568 0
M  V30 17416 H 1636.88 1.51652 -5.87441 0
M  V30 17417 H 1635.62 1.58793 -4.61125 0
M  V30 17418 H 1634.63 -0.550844 -5.47034 0
M  V30 17419 H 1635.85 -0.606025 -6.76391 0
M  V30 17420 H 1633.8 1.60162 -6.36148 0
M  V30 17421 H 1633.72 0.344932 -7.55213 0
M  V30 17422 H 1634.98 1.53061 -7.64325 0
M  V30 17423 N 1639.21 1.50354 -0.472382 0
M  V30 17424 C 1640.44 2.07238 0.0820787 0
M  V30 17425 C 1640.86 1.3338 1.32632 0
M  V30 17426 O 1640.22 0.381857 1.77233 0
M  V30 17427 C 1640.27 3.58919 0.347746 0
M  V30 17428 O 1639.37 3.86888 1.42799 0
M  V30 17429 H 1638.71 0.663862 -0.0135544 0
M  V30 17430 H 1641.24 1.93533 -0.663795 0
M  V30 17431 H 1641.25 4.03743 0.587855 0
M  V30 17432 H 1639.93 4.12093 -0.56147 0
M  V30 17433 H 1638.51 3.53901 1.17509 0
M  V30 17434 N 1640.69 0.205039 1.56261 0
M  V30 17435 C 1641.92 -0.439502 2.0269 0
M  V30 17436 C 1642.34 -1.53715 1.08413 0
M  V30 17437 O 1641.7 -1.81167 0.0693616 0
M  V30 17438 C 1641.75 -0.963672 3.47485 0
M  V30 17439 O 1640.85 -2.07602 3.56336 0
M  V30 17440 H 1640.19 -0.101543 0.65619 0
M  V30 17441 H 1642.72 0.318835 2.021 0
M  V30 17442 H 1642.73 -1.27773 3.87476 0
M  V30 17443 H 1641.41 -0.160203 4.15591 0
M  V30 17444 H 1639.98 -1.76985 3.28224 0
M  V30 17445 N 1642.17 -1.57451 -0.0684915 0
M  V30 17446 C 1643.39 -1.92025 -0.78366 0
M  V30 17447 C 1643.82 -0.801743 -1.70158 0
M  V30 17448 O 1643.18 0.245227 -1.79634 0
M  V30 17449 C 1643.23 -3.25563 -1.55051 0
M  V30 17450 O 1642.33 -3.15029 -2.6614 0
M  V30 17451 H 1641.67 -0.628714 -0.213576 0
M  V30 17452 H 1644.2 -2.04569 -0.0357474 0
M  V30 17453 H 1644.21 -3.59516 -1.92905 0
M  V30 17454 H 1642.89 -4.06547 -0.87704 0
M  V30 17455 H 1641.46 -2.9264 -2.31119 0
M  V30 17456 N 1643.65 0.339955 -1.5389 0
M  V30 17457 C 1645.06 0.915362 -1.62721 0
M  V30 17458 C 1645.41 1.89434 -0.510798 0
M  V30 17459 O 1644.53 2.13403 0.3589 0
M  V30 17460 C 1645.13 1.66699 -2.94953 0
M  V30 17461 C 1643.69 2.19135 -3.06034 0
M  V30 17462 C 1642.84 1.01159 -2.5819 0
M  V30 17463 H 1645.79 0.11799 -1.58261 0
M  V30 17464 H 1645.81 2.53011 -2.84193 0
M  V30 17465 H 1645.32 0.954219 -3.76186 0
M  V30 17466 H 1643.42 2.93577 -2.29441 0
M  V30 17467 H 1643.53 2.4526 -4.11563 0
M  V30 17468 H 1641.9 1.38604 -2.13685 0
M  V30 17469 H 1642.68 0.313396 -3.41867 0
M  V30 17470 N 1645.13 1.45684 0.601159 0
M  V30 17471 C 1646.54 1.30232 0.922598 0
M  V30 17472 C 1646.74 0.260086 1.99814 0
M  V30 17473 O 1645.8 -0.343753 2.50149 0
M  V30 17474 C 1647.11 2.68318 1.35743 0
M  V30 17475 C 1648.66 2.76264 1.47129 0
M  V30 17476 C 1649.13 4.1489 1.93986 0
M  V30 17477 N 1650.62 4.17216 2.01209 0
M  V30 17478 C 1651.36 5.21354 2.387 0
M  V30 17479 N 1650.86 6.35833 2.75114 0
M  V30 17480 N 1652.65 5.08714 2.39095 0
M  V30 17481 H 1644.8 2.12117 -0.109634 0
M  V30 17482 H 1647.06 0.947902 0.0136129 0
M  V30 17483 H 1646.77 3.45804 0.64127 0
M  V30 17484 H 1646.64 2.97206 2.32268 0
M  V30 17485 H 1649.03 1.99077 2.17835 0
M  V30 17486 H 1649.11 2.51082 0.489028 0
M  V30 17487 H 1648.75 4.92565 1.23864 0
M  V30 17488 H 1648.68 4.37468 2.93137 0
M  V30 17489 H 1651.18 3.34607 1.75632 0
M  V30 17490 H 1651.49 7.11084 3.02622 0
M  V30 17491 H 1649.83 6.39224 2.72795 0
M  V30 17492 H 1653.02 4.18322 2.10057 0
M  V30 17493 H 1653.2 5.89989 2.67987 0
M  V30 17494 N 1646.6 -0.84422 1.33082 0
M  V30 17495 C 1647.88 -1.58339 1.1484 0
M  V30 17496 C 1648.26 -2.09136 -0.287273 0
M  V30 17497 O 1647.61 -1.8891 -1.2855 0
M  V30 17498 C 1647.82 -2.72141 2.18496 0
M  V30 17499 C 1649.17 -3.41457 2.52373 0
M  V30 17500 O 1650.19 -2.82377 2.17122 0
M  V30 17501 O 1649.05 -4.48096 3.12845 0
M  V30 17502 H 1646.14 -0.697813 0.443831 0
M  V30 17503 H 1648.69 -0.88744 1.44646 0
M  V30 17504 H 1647.46 -2.32206 3.14954 0
M  V30 17505 H 1647.08 -3.49404 1.89744 0
M  V30 17506 N 1648.08 -1.16463 -1.0618 0
M  V30 17507 C 1649.03 -0.87224 -2.13683 0
M  V30 17508 C 1650 0.179784 -1.65124 0
M  V30 17509 O 1651.18 0.0447406 -1.90748 0
M  V30 17510 C 1648.32 -0.380728 -3.42993 0
M  V30 17511 C 1647.44 -1.49571 -4.05281 0
M  V30 17512 C 1646.57 -0.959099 -5.2247 0
M  V30 17513 C 1645.61 -2.05021 -5.76743 0
M  V30 17514 N 1644.75 -1.5291 -6.85247 0
M  V30 17515 H 1649.59 -1.79288 -2.38033 0
M  V30 17516 H 1647.12 -0.894379 -1.16787 0
M  V30 17517 H 1649.08 -0.0773816 -4.17128 0
M  V30 17518 H 1647.71 0.502966 -3.18857 0
M  V30 17519 H 1646.76 -1.915 -3.28682 0
M  V30 17520 H 1648.08 -2.31904 -4.41613 0
M  V30 17521 H 1647.23 -0.609003 -6.03636 0
M  V30 17522 H 1645.97 -0.105086 -4.87587 0
M  V30 17523 H 1644.97 -2.40899 -4.94214 0
M  V30 17524 H 1646.2 -2.90821 -6.13678 0
M  V30 17525 H 1644.15 -0.697639 -6.5228 0
M  V30 17526 H 1644.06 -2.28859 -7.20527 0
M  V30 17527 H 1645.33 -1.20762 -7.70089 0
M  V30 17528 N 1649.56 1.24734 -0.963288 0
M  V30 17529 C 1650.81 1.91987 -0.618386 0
M  V30 17530 C 1651.12 1.76179 0.849726 0
M  V30 17531 O 1652.33 2.38082 1.30496 0
M  V30 17532 C 1650.78 3.44079 -1.05534 0
M  V30 17533 C 1650.39 3.68582 -2.5466 0
M  V30 17534 C 1652.14 4.17209 -0.783378 0
M  V30 17535 C 1650.04 5.14223 -2.92111 0
M  V30 17536 H 1648.97 0.718836 -0.227575 0
M  V30 17537 H 1651.62 1.41453 -1.1689 0
M  V30 17538 H 1650.01 3.93624 -0.433168 0
M  V30 17539 H 1651.18 3.29655 -3.2197 0
M  V30 17540 H 1649.49 3.08729 -2.79419 0
M  V30 17541 H 1652.09 5.24503 -1.03924 0
M  V30 17542 H 1652.43 4.15355 0.280352 0
M  V30 17543 H 1652.97 3.736 -1.36631 0
M  V30 17544 H 1649.71 5.21195 -3.97537 0
M  V30 17545 H 1649.23 5.54164 -2.29482 0
M  V30 17546 H 1650.91 5.82419 -2.81775 0
M  V30 17547 N 1651.04 0.732878 1.39523 0
M  V30 17548 C 1652.27 0.289649 2.0456 0
M  V30 17549 C 1652.68 -1.07973 1.55365 0
M  V30 17550 O 1652.02 -1.69309 0.712751 0
M  V30 17551 C 1652.08 0.210767 3.58882 0
M  V30 17552 C 1651.74 1.51827 4.31042 0
M  V30 17553 C 1652.74 2.46356 4.57826 0
M  V30 17554 C 1650.43 1.78198 4.69628 0
M  V30 17555 C 1652.42 3.65491 5.22202 0
M  V30 17556 C 1650.11 2.97611 5.33733 0
M  V30 17557 C 1651.11 3.91079 5.59952 0
M  V30 17558 O 1650.79 5.08395 6.22728 0
M  V30 17559 H 1650.53 0.124787 0.664382 0
M  V30 17560 H 1653.08 0.996726 1.79595 0
M  V30 17561 H 1651.31 -0.552394 3.82734 0
M  V30 17562 H 1653 -0.200184 4.05406 0
M  V30 17563 H 1653.76 2.27252 4.28464 0
M  V30 17564 H 1649.64 1.06292 4.48579 0
M  V30 17565 H 1653.19 4.38462 5.42583 0
M  V30 17566 H 1649.08 3.16617 5.62516 0
M  V30 17567 H 1649.85 5.08701 6.41222 0
M  V30 17568 N 1652.52 -1.50101 0.480349 0
M  V30 17569 C 1653.74 -2.06785 -0.068848 0
M  V30 17570 C 1654.16 -1.34316 -1.32683 0
M  V30 17571 O 1653.52 -0.415196 -1.77714 0
M  V30 17572 C 1653.57 -3.59826 -0.347522 0
M  V30 17573 O 1653.29 -4.29565 0.860569 0
M  V30 17574 C 1654.79 -4.33161 -0.94266 0
M  V30 17575 H 1652.01 -0.670906 0.0112172 0
M  V30 17576 H 1654.55 -1.93151 0.671788 0
M  V30 17577 H 1652.71 -3.73232 -1.0381 0
M  V30 17578 H 1653.12 -5.20931 0.610796 0
M  V30 17579 H 1654.6 -5.41184 -1.08736 0
M  V30 17580 H 1655.07 -3.94268 -1.93518 0
M  V30 17581 H 1655.68 -4.24309 -0.290178 0
M  V30 17582 N 1653.99 -0.213323 -1.5615 0
M  V30 17583 C 1655.24 0.420909 -1.97259 0
M  V30 17584 C 1655.56 1.61483 -1.10375 0
M  V30 17585 O 1656.76 2.31804 -1.41347 0
M  V30 17586 C 1655.22 0.800243 -3.5089 0
M  V30 17587 C 1654.83 -0.370405 -4.46466 0
M  V30 17588 C 1656.57 1.40054 -4.00731 0
M  V30 17589 C 1654.48 0.0309052 -5.91392 0
M  V30 17590 H 1653.41 0.16103 -0.736604 0
M  V30 17591 H 1656.06 -0.308232 -1.80893 0
M  V30 17592 H 1654.44 1.58657 -3.62828 0
M  V30 17593 H 1655.61 -1.14796 -4.46272 0
M  V30 17594 H 1653.93 -0.883391 -4.06922 0
M  V30 17595 H 1656.53 1.71355 -5.06499 0
M  V30 17596 H 1656.87 2.31345 -3.461 0
M  V30 17597 H 1657.4 0.677813 -3.91983 0
M  V30 17598 H 1654.14 -0.848284 -6.49988 0
M  V30 17599 H 1653.66 0.772941 -5.94799 0
M  V30 17600 H 1655.34 0.460441 -6.4536 0
M  V30 17601 N 1655.47 1.57485 0.0601405 0
M  V30 17602 C 1656.75 1.78904 0.790732 0
M  V30 17603 C 1657.13 0.803802 1.95198 0
M  V30 17604 O 1656.48 -0.16067 2.27934 0
M  V30 17605 C 1656.69 3.25738 1.25282 0
M  V30 17606 C 1658.04 3.89887 1.68147 0
M  V30 17607 O 1659.06 3.297 1.3482 0
M  V30 17608 O 1657.92 4.95796 2.29889 0
M  V30 17609 H 1655.01 0.734623 0.379814 0
M  V30 17610 H 1657.56 1.69654 0.0393151 0
M  V30 17611 H 1656.33 3.89013 0.422442 0
M  V30 17612 H 1655.95 3.39757 2.06521 0
M  V30 17613 N 1656.95 -0.331789 1.54068 0
M  V30 17614 C 1658.2 -1.06858 1.71539 0
M  V30 17615 C 1658.52 -1.88808 0.487506 0
M  V30 17616 O 1657.79 -1.8945 -0.498539 0
M  V30 17617 H 1656.37 -0.3975 0.632457 0
M  V30 17618 H 1659.03 -0.370216 1.91352 0
M  V30 17619 H 1658.13 -1.73929 2.59143 0
M  V30 17620 N 1658.43 -1.46001 -0.593424 0
M  V30 17621 C 1659.34 -1.58316 -1.73128 0
M  V30 17622 C 1660.35 -0.467029 -1.67615 0
M  V30 17623 O 1661.53 -0.729682 -1.87717 0
M  V30 17624 C 1658.6 -1.56007 -3.09617 0
M  V30 17625 C 1657.66 -2.78769 -3.26475 0
M  V30 17626 C 1656.89 -2.76561 -4.56453 0
M  V30 17627 O 1657.11 -1.84694 -5.39671 0
M  V30 17628 O 1656.05 -3.67959 -4.76329 0
M  V30 17629 H 1659.87 -2.54522 -1.65686 0
M  V30 17630 H 1657.46 -1.28672 -0.759204 0
M  V30 17631 H 1659.34 -1.57377 -3.9091 0
M  V30 17632 H 1658.01 -0.629571 -3.17519 0
M  V30 17633 H 1656.92 -2.82956 -2.44717 0
M  V30 17634 H 1658.25 -3.70992 -3.23459 0
M  V30 17635 N 1659.91 0.83715 -1.33527 0
M  V30 17636 C 1660.85 1.94709 -1.23924 0
M  V30 17637 C 1661.82 1.65684 -0.117494 0
M  V30 17638 O 1663.01 1.88489 -0.296057 0
M  V30 17639 C 1660.15 3.3071 -0.986146 0
M  V30 17640 C 1659.26 3.72121 -2.19432 0
M  V30 17641 C 1658.4 4.96999 -1.87524 0
M  V30 17642 C 1657.44 5.3095 -3.04563 0
M  V30 17643 N 1656.57 6.47006 -2.72632 0
M  V30 17644 H 1661.41 2.02255 -2.18854 0
M  V30 17645 H 1658.95 0.989703 -1.08827 0
M  V30 17646 H 1660.91 4.09065 -0.819834 0
M  V30 17647 H 1659.54 3.22716 -0.0735786 0
M  V30 17648 H 1658.59 2.89274 -2.47032 0
M  V30 17649 H 1659.9 3.93192 -3.06923 0
M  V30 17650 H 1659.06 5.83107 -1.67546 0
M  V30 17651 H 1657.79 4.77901 -0.972714 0
M  V30 17652 H 1656.8 4.43346 -3.25153 0
M  V30 17653 H 1658.02 5.51995 -3.95573 0
M  V30 17654 H 1655.97 6.29391 -1.8494 0
M  V30 17655 H 1655.89 6.6818 -3.53654 0
M  V30 17656 H 1657.16 7.3622 -2.56125 0
M  V30 17657 N 1661.38 1.17024 1.05561 0
M  V30 17658 C 1662.29 0.898107 2.16728 0
M  V30 17659 C 1663.31 -0.132369 1.73496 0
M  V30 17660 O 1664.49 0.0460203 2.01347 0
M  V30 17661 C 1661.55 0.411091 3.44254 0
M  V30 17662 C 1660.61 1.5077 4.01954 0
M  V30 17663 C 1659.85 1.04383 5.23393 0
M  V30 17664 O 1660.07 -0.10351 5.70306 0
M  V30 17665 O 1659 1.8353 5.73237 0
M  V30 17666 H 1662.83 1.82791 2.42531 0
M  V30 17667 H 1660.41 0.950816 1.15238 0
M  V30 17668 H 1662.3 0.146837 4.21144 0
M  V30 17669 H 1660.97 -0.490605 3.19961 0
M  V30 17670 H 1659.88 1.82579 3.26521 0
M  V30 17671 H 1661.21 2.38497 4.30558 0
M  V30 17672 N 1662.86 -1.24221 0.969889 0
M  V30 17673 C 1664.27 -1.74206 0.671494 0
M  V30 17674 C 1664.62 -1.78576 -0.81271 0
M  V30 17675 O 1663.75 -1.41664 -1.63586 0
M  V30 17676 C 1664.34 -3.16371 1.21222 0
M  V30 17677 C 1662.9 -3.63855 0.96368 0
M  V30 17678 C 1662.05 -2.42429 1.34623 0
M  V30 17679 H 1665 -1.09893 1.14496 0
M  V30 17680 H 1665.02 -3.7606 0.579552 0
M  V30 17681 H 1664.53 -3.13159 2.29245 0
M  V30 17682 H 1662.64 -3.72463 -0.100931 0
M  V30 17683 H 1662.75 -4.51207 1.61087 0
M  V30 17684 H 1661.11 -2.42952 0.764624 0
M  V30 17685 H 1661.9 -2.41896 2.436 0
M  V30 17686 N 1664.34 -0.740267 -1.39132 0
M  V30 17687 C 1665.59 -0.289949 -2.00009 0
M  V30 17688 C 1665.91 1.12831 -1.59042 0
M  V30 17689 O 1665.18 1.76926 -0.841076 0
M  V30 17690 H 1663.76 -0.104213 -0.739695 0
M  V30 17691 H 1666.42 -0.951398 -1.70101 0
M  V30 17692 H 1665.52 -0.342509 -3.10215 0
M  V30 17693 N 1665.82 1.49844 -0.488302 0
M  V30 17694 C 1667.07 2.02409 0.0606981 0
M  V30 17695 C 1667.39 1.36901 1.38161 0
M  V30 17696 O 1666.65 0.48951 1.89479 0
M  V30 17697 C 1666.95 3.56342 0.274851 0
M  V30 17698 C 1666.61 4.4042 -0.966481 0
M  V30 17699 C 1665.28 4.63116 -1.30678 0
M  V30 17700 C 1667.63 4.89418 -1.79218 0
M  V30 17701 C 1664.96 5.32055 -2.47253 0
M  V30 17702 C 1667.31 5.59639 -2.94935 0
M  V30 17703 C 1665.97 5.80584 -3.2936 0
M  V30 17704 H 1665.24 0.740667 0.022211 0
M  V30 17705 H 1667.89 1.80279 -0.645882 0
M  V30 17706 H 1666.19 3.7708 1.06384 0
M  V30 17707 H 1667.89 3.94594 0.71388 0
M  V30 17708 H 1664.48 4.22987 -0.691388 0
M  V30 17709 H 1668.66 4.71723 -1.54244 0
M  V30 17710 H 1663.92 5.46477 -2.74177 0
M  V30 17711 H 1668.09 5.96583 -3.59251 0
M  V30 17712 H 1665.72 6.33779 -4.19795 0
M  V30 17713 N 1667.3 0.221601 1.56034 0
M  V30 17714 C 1668.25 -0.701876 2.16928 0
M  V30 17715 C 1669.23 -1.1575 1.11762 0
M  V30 17716 O 1670.42 -1.11148 1.3775 0
M  V30 17717 C 1667.55 -1.90977 2.85277 0
M  V30 17718 C 1666.64 -1.47382 3.97667 0
M  V30 17719 N 1667.03 -0.750469 5.00202 0
M  V30 17720 C 1665.33 -1.7611 4.09757 0
M  V30 17721 C 1666.03 -0.528168 5.79297 0
M  V30 17722 N 1665 -1.08488 5.32664 0
M  V30 17723 H 1668.81 -0.14079 2.93563 0
M  V30 17724 H 1666.32 0.0228611 1.62384 0
M  V30 17725 H 1668.32 -2.5821 3.27312 0
M  V30 17726 H 1666.98 -2.47532 2.10138 0
M  V30 17727 H 1667.99 -0.403152 5.16328 0
M  V30 17728 H 1664.66 -2.33986 3.4577 0
M  V30 17729 H 1666.05 0.0475532 6.71883 0
M  V30 17730 N 1668.77 -1.57515 -0.0517878 0
M  V30 17731 C 1669.7 -2.0809 -1.05929 0
M  V30 17732 C 1670.69 -0.978529 -1.39136 0
M  V30 17733 O 1671.87 -1.25245 -1.48416 0
M  V30 17734 C 1669 -2.54147 -2.36699 0
M  V30 17735 C 1667.95 -3.68442 -2.17794 0
M  V30 17736 C 1667.28 -4.00624 -3.54125 0
M  V30 17737 C 1668.58 -4.97743 -1.5827 0
M  V30 17738 H 1670.27 -2.92515 -0.638371 0
M  V30 17739 H 1667.82 -1.40719 -0.305625 0
M  V30 17740 H 1669.77 -2.88145 -3.07491 0
M  V30 17741 H 1668.5 -1.66775 -2.80809 0
M  V30 17742 H 1667.16 -3.34758 -1.4944 0
M  V30 17743 H 1666.8 -3.10353 -3.95841 0
M  V30 17744 H 1666.5 -4.77597 -3.42308 0
M  V30 17745 H 1668.03 -4.37136 -4.26315 0
M  V30 17746 H 1669.44 -5.29843 -2.18951 0
M  V30 17747 H 1667.84 -5.79173 -1.57094 0
M  V30 17748 H 1668.91 -4.81815 -0.546127 0
M  V30 17749 N 1670.25 0.323614 -1.54242 0
M  V30 17750 C 1671.53 1.07979 -1.63095 0
M  V30 17751 C 1671.91 2.0592 -0.464774 0
M  V30 17752 O 1671.26 2.22004 0.540961 0
M  V30 17753 C 1671.47 1.78178 -3.0009 0
M  V30 17754 C 1672.82 2.31201 -3.56134 0
M  V30 17755 O 1673.84 1.88245 -3.02394 0
M  V30 17756 O 1672.7 3.09843 -4.50177 0
M  V30 17757 H 1669.79 0.497726 -0.660453 0
M  V30 17758 H 1672.34 0.323509 -1.66588 0
M  V30 17759 H 1671.11 1.06938 -3.76404 0
M  V30 17760 H 1670.73 2.60616 -3.00275 0
M  V30 17761 N 1671.73 1.46313 0.585673 0
M  V30 17762 C 1673.14 1.4567 1.16778 0
M  V30 17763 C 1673.49 0.195957 1.95219 0
M  V30 17764 O 1672.62 -0.701142 2.04727 0
M  V30 17765 C 1673.21 2.6392 2.12443 0
M  V30 17766 C 1671.77 2.66327 2.65983 0
M  V30 17767 C 1670.92 2.38304 1.41797 0
M  V30 17768 H 1673.87 1.54236 0.37377 0
M  V30 17769 H 1673.89 2.39268 2.95856 0
M  V30 17770 H 1673.4 3.55663 1.55324 0
M  V30 17771 H 1671.5 1.78648 3.2698 0
M  V30 17772 H 1671.62 3.66203 3.08921 0
M  V30 17773 H 1669.98 1.88302 1.71507 0
M  V30 17774 H 1670.76 3.3222 0.86514 0
M  V30 17775 N 1673.21 -0.830057 1.33969 0
M  V30 17776 C 1674.62 -1.40227 1.23261 0
M  V30 17777 C 1674.97 -1.95664 -0.144862 0
M  V30 17778 O 1674.1 -1.89503 -1.04488 0
M  V30 17779 C 1674.69 -2.54913 2.2317 0
M  V30 17780 C 1673.25 -3.08062 2.16274 0
M  V30 17781 C 1672.4 -1.809 2.10168 0
M  V30 17782 H 1675.35 -0.635062 1.4544 0
M  V30 17783 H 1675.37 -3.32801 1.84455 0
M  V30 17784 H 1674.88 -2.14534 3.23414 0
M  V30 17785 H 1672.98 -3.52964 1.19362 0
M  V30 17786 H 1673.1 -3.67637 3.07213 0
M  V30 17787 H 1671.46 -2.01508 1.55778 0
M  V30 17788 H 1672.24 -1.42705 3.12234 0
M  V30 17789 N 1674.69 -1.17582 -1.04939 0
M  V30 17790 C 1675.62 -0.852608 -2.12752 0
M  V30 17791 C 1676.63 0.14607 -1.62143 0
M  V30 17792 O 1677.82 -0.0805751 -1.78318 0
M  V30 17793 C 1674.92 -0.251083 -3.37969 0
M  V30 17794 C 1674.09 -1.29325 -4.17844 0
M  V30 17795 C 1673.15 -0.709025 -5.21401 0
M  V30 17796 O 1672.18 -1.38149 -5.52181 0
M  V30 17797 N 1673.38 0.497716 -5.78362 0
M  V30 17798 H 1676.15 -1.78054 -2.41074 0
M  V30 17799 H 1673.71 -1.07502 -1.21058 0
M  V30 17800 H 1675.7 0.15312 -4.0441 0
M  V30 17801 H 1674.27 0.580684 -3.07159 0
M  V30 17802 H 1673.49 -1.87311 -3.46855 0
M  V30 17803 H 1674.78 -1.99614 -4.68008 0
M  V30 17804 H 1674.18 1.06196 -5.55643 0
M  V30 17805 H 1672.73 0.843951 -6.46313 0
M  V30 17806 N 1676.17 1.23705 -0.976463 0
M  V30 17807 C 1677.41 1.92015 -0.643168 0
M  V30 17808 C 1677.74 1.76239 0.822796 0
M  V30 17809 O 1677 1.11469 1.60851 0
M  V30 17810 C 1677.29 3.43853 -0.974676 0
M  V30 17811 C 1676.96 3.79805 -2.43021 0
M  V30 17812 C 1675.62 3.89329 -2.82801 0
M  V30 17813 C 1677.97 3.97218 -3.37442 0
M  V30 17814 C 1675.3 4.13691 -4.16025 0
M  V30 17815 C 1677.65 4.23079 -4.70305 0
M  V30 17816 C 1676.32 4.30824 -5.0985 0
M  V30 17817 H 1675.59 0.702631 -0.235352 0
M  V30 17818 H 1678.24 1.46811 -1.22959 0
M  V30 17819 H 1676.54 3.90602 -0.306121 0
M  V30 17820 H 1678.24 3.9493 -0.695061 0
M  V30 17821 H 1674.83 3.72963 -2.11179 0
M  V30 17822 H 1679.01 3.89254 -3.07889 0
M  V30 17823 H 1674.27 4.17909 -4.46276 0
M  V30 17824 H 1678.44 4.35496 -5.4343 0
M  V30 17825 H 1676.07 4.49454 -6.13103 0
M  V30 17826 N 1677.64 0.747635 1.38738 0
M  V30 17827 C 1678.89 0.301593 2.00545 0
M  V30 17828 C 1679.22 -1.11208 1.59205 0
M  V30 17829 O 1678.5 -1.76052 0.826806 0
M  V30 17830 C 1678.78 0.417739 3.57669 0
M  V30 17831 C 1678.63 1.87209 4.0899 0
M  V30 17832 C 1679.95 -0.192403 4.39679 0
M  V30 17833 H 1677.07 0.11106 0.728584 0
M  V30 17834 H 1679.71 0.946162 1.64766 0
M  V30 17835 H 1677.86 -0.131024 3.88279 0
M  V30 17836 H 1679.54 2.4787 3.89048 0
M  V30 17837 H 1677.78 2.38917 3.62079 0
M  V30 17838 H 1678.45 1.90455 5.18103 0
M  V30 17839 H 1680.93 0.27554 4.15187 0
M  V30 17840 H 1679.8 -0.0808605 5.4884 0
M  V30 17841 H 1680.06 -1.28 4.23165 0
M  V30 17842 N 1679.12 -1.49583 0.496242 0
M  V30 17843 C 1680.03 -2.32808 -0.289404 0
M  V30 17844 C 1681.05 -1.44324 -0.971933 0
M  V30 17845 O 1682.22 -1.77352 -0.954366 0
M  V30 17846 C 1679.29 -3.19645 -1.34269 0
M  V30 17847 C 1678.35 -4.23975 -0.6741 0
M  V30 17848 C 1677.58 -5.06661 -1.6772 0
M  V30 17849 O 1677.81 -4.90792 -2.90654 0
M  V30 17850 O 1676.74 -5.89091 -1.23514 0
M  V30 17851 H 1680.57 -3.01164 0.391664 0
M  V30 17852 H 1678.15 -1.47162 0.257652 0
M  V30 17853 H 1680.03 -3.73453 -1.9522 0
M  V30 17854 H 1678.71 -2.53989 -2.00677 0
M  V30 17855 H 1677.61 -3.74092 -0.0249732 0
M  V30 17856 H 1678.95 -4.92172 -0.0525442 0
M  V30 17857 N 1680.6 -0.229873 -1.55915 0
M  V30 17858 C 1681.55 0.693198 -2.2203 0
M  V30 17859 C 1682.54 1.1933 -1.20236 0
M  V30 17860 O 1683.75 1.15217 -1.38294 0
M  V30 17861 H 1680.12 0.241986 -0.712002 0
M  V30 17862 H 1682.09 0.112229 -2.98189 0
M  V30 17863 C 1680.84 1.88688 -2.92048 0
M  V30 17864 H 1680.17 1.51119 -3.70139 0
M  V30 17865 H 1681.61 2.51036 -3.41697 0
M  V30 17866 C 1680.06 2.74747 -1.94976 0
M  V30 17867 O 1680.59 3.73759 -1.47198 0
M  V30 17868 N 1678.8 2.40956 -1.62445 0
M  V30 17869 H 1678.35 1.60494 -2.01493 0
M  V30 17870 H 1678.31 2.98816 -0.977581 0
M  V30 17871 N 1682.08 1.5754 0.0434337 0
M  V30 17872 C 1683.32 1.88887 0.7382 0
M  V30 17873 C 1683.66 0.825827 1.75766 0
M  V30 17874 O 1682.93 -0.160797 1.93834 0
M  V30 17875 C 1683.21 3.30889 1.42072 0
M  V30 17876 C 1683.07 4.47874 0.415754 0
M  V30 17877 C 1684.39 3.71571 2.35846 0
M  V30 17878 H 1681.51 0.686975 0.266897 0
M  V30 17879 H 1684.15 1.9 0.00106957 0
M  V30 17880 H 1682.3 3.30071 2.04903 0
M  V30 17881 H 1683.97 4.60824 -0.209529 0
M  V30 17882 H 1682.21 4.32982 -0.266346 0
M  V30 17883 H 1682.88 5.44084 0.931509 0
M  V30 17884 H 1685.36 3.73663 1.83071 0
M  V30 17885 H 1684.24 4.71763 2.80589 0
M  V30 17886 H 1684.5 3.03041 3.21898 0
M  V30 17887 N 1683.56 -0.31543 1.54411 0
M  V30 17888 C 1684.78 -1.07173 1.76979 0
M  V30 17889 C 1685.2 -1.81432 0.522285 0
M  V30 17890 O 1684.56 -1.75306 -0.507348 0
M  V30 17891 C 1684.61 -2.06352 2.96818 0
M  V30 17892 O 1684.33 -1.35108 4.16746 0
M  V30 17893 C 1685.83 -2.94136 3.31661 0
M  V30 17894 H 1683.05 -0.318455 0.590616 0
M  V30 17895 H 1685.59 -0.359085 2.01323 0
M  V30 17896 H 1683.75 -2.7314 2.74724 0
M  V30 17897 H 1684.16 -2.01593 4.84211 0
M  V30 17898 H 1685.64 -3.59606 4.18793 0
M  V30 17899 H 1686.11 -3.6167 2.49182 0
M  V30 17900 H 1686.72 -2.32899 3.55863 0
M  V30 17901 N 1685.03 -1.46622 -0.577906 0
M  V30 17902 C 1685.96 -1.60413 -1.69676 0
M  V30 17903 C 1686.95 -0.454277 -1.63922 0
M  V30 17904 O 1688.13 -0.68111 -1.81864 0
M  V30 17905 C 1685.26 -1.59866 -3.08318 0
M  V30 17906 C 1684.21 -2.7387 -3.28906 0
M  V30 17907 C 1683.54 -2.58386 -4.68125 0
M  V30 17908 C 1684.84 -4.15652 -3.16276 0
M  V30 17909 H 1686.53 -2.54073 -1.5839 0
M  V30 17910 H 1684.08 -1.22275 -0.760572 0
M  V30 17911 H 1686.03 -1.68108 -3.86417 0
M  V30 17912 H 1684.76 -0.627541 -3.20514 0
M  V30 17913 H 1683.42 -2.65105 -2.53209 0
M  V30 17914 H 1683.06 -1.59347 -4.77093 0
M  V30 17915 H 1682.76 -3.34855 -4.82852 0
M  V30 17916 H 1684.29 -2.68525 -5.48385 0
M  V30 17917 H 1685.7 -4.25503 -3.84214 0
M  V30 17918 H 1684.1 -4.92746 -3.42523 0
M  V30 17919 H 1685.17 -4.35471 -2.13291 0
M  V30 17920 N 1686.51 0.822941 -1.34408 0
M  V30 17921 C 1687.92 1.39571 -1.24003 0
M  V30 17922 C 1688.27 1.95739 0.134483 0
M  V30 17923 O 1687.4 1.90054 1.03481 0
M  V30 17924 C 1687.99 2.53726 -2.24519 0
M  V30 17925 C 1686.55 3.06911 -2.17905 0
M  V30 17926 C 1685.7 1.79783 -2.11124 0
M  V30 17927 H 1688.65 0.62734 -1.45774 0
M  V30 17928 H 1688.67 3.31818 -1.86217 0
M  V30 17929 H 1688.18 2.12816 -3.24547 0
M  V30 17930 H 1686.29 3.52326 -1.21233 0
M  V30 17931 H 1686.4 3.66003 -3.09158 0
M  V30 17932 H 1684.76 2.00679 -1.56845 0
M  V30 17933 H 1685.55 1.41047 -3.12987 0
M  V30 17934 N 1687.99 1.18137 1.04314 0
M  V30 17935 C 1688.9 0.921044 2.15764 0
M  V30 17936 C 1689.92 -0.11396 1.73626 0
M  V30 17937 O 1691.09 0.0673733 2.01287 0
M  V30 17938 C 1688.16 0.447581 3.43799 0
M  V30 17939 C 1687.22 1.55025 4.00332 0
M  V30 17940 C 1686.45 1.09928 5.22256 0
M  V30 17941 O 1686.67 -0.0430152 5.70384 0
M  V30 17942 O 1685.61 1.896 5.71258 0
M  V30 17943 H 1689.43 1.85353 2.40579 0
M  V30 17944 H 1687.02 0.962985 1.14223 0
M  V30 17945 H 1688.9 0.191497 4.20965 0
M  V30 17946 H 1687.58 -0.456641 3.20463 0
M  V30 17947 H 1686.48 1.86032 3.24566 0
M  V30 17948 H 1687.82 2.4305 4.28004 0
M  V30 17949 N 1689.47 -1.23186 0.98301 0
M  V30 17950 C 1690.42 -2.26762 0.517846 0
M  V30 17951 C 1691.41 -1.63944 -0.426459 0
M  V30 17952 O 1692.62 -1.77481 -0.300065 0
M  V30 17953 H 1688.99 -0.737082 0.149042 0
M  V30 17954 H 1690.96 -2.63356 1.40307 0
M  V30 17955 C 1689.71 -3.47324 -0.16157 0
M  V30 17956 H 1689.03 -3.95915 0.555973 0
M  V30 17957 H 1690.47 -4.21598 -0.450644 0
M  V30 17958 C 1688.93 -3.06722 -1.39366 0
M  V30 17959 O 1689.46 -3.15239 -2.48973 0
M  V30 17960 N 1687.67 -2.61609 -1.26528 0
M  V30 17961 H 1687.22 -2.54879 -0.373449 0
M  V30 17962 H 1687.17 -2.34809 -2.09074 0
M  V30 17963 N 1690.95 -0.754982 -1.38339 0
M  V30 17964 C 1692.19 -0.312224 -2.00382 0
M  V30 17965 C 1692.53 1.10362 -1.59793 0
M  V30 17966 O 1691.8 1.75611 -0.83613 0
M  V30 17967 C 1692.08 -0.436701 -3.57442 0
M  V30 17968 C 1691.94 -1.89376 -4.07991 0
M  V30 17969 C 1693.26 0.169083 -4.39775 0
M  V30 17970 H 1690.37 -0.114922 -0.727985 0
M  V30 17971 H 1693.02 -0.954887 -1.64262 0
M  V30 17972 H 1691.17 0.11043 -3.88343 0
M  V30 17973 H 1692.84 -2.4993 -3.87728 0
M  V30 17974 H 1691.08 -2.40834 -3.60807 0
M  V30 17975 H 1691.75 -1.932 -5.17086 0
M  V30 17976 H 1694.23 -0.297554 -4.15035 0
M  V30 17977 H 1693.1 0.0517531 -5.48876 0
M  V30 17978 H 1693.37 1.25754 -4.23838 0
M  V30 17979 N 1692.42 1.49318 -0.504168 0
M  V30 17980 C 1693.7 1.95332 0.102393 0
M  V30 17981 C 1694.08 1.44576 1.53821 0
M  V30 17982 O 1693.43 0.660894 2.18734 0
M  V30 17983 C 1693.64 3.48998 0.0117694 0
M  V30 17984 C 1694.99 4.24201 0.184101 0
M  V30 17985 O 1696.01 3.56094 0.0868056 0
M  V30 17986 O 1694.87 5.45147 0.384267 0
M  V30 17987 H 1691.96 0.821691 0.0935582 0
M  V30 17988 H 1694.51 1.5995 -0.566932 0
M  V30 17989 H 1693.28 3.78585 -0.989413 0
M  V30 17990 H 1692.91 3.91006 0.7211 0
M  V30 17991 N 1693.9 0.238138 1.5579 0
M  V30 17992 C 1695.15 -0.389031 1.98728 0
M  V30 17993 C 1695.48 -1.58584 1.12612 0
M  V30 17994 O 1694.73 -1.94917 0.174879 0
M  V30 17995 C 1695.03 -0.850646 3.47129 0
M  V30 17996 C 1694.7 0.237442 4.50274 0
M  V30 17997 C 1693.36 0.536307 4.78202 0
M  V30 17998 C 1695.71 0.972476 5.12047 0
M  V30 17999 C 1693.04 1.57443 5.6518 0
M  V30 18000 C 1695.39 2.00006 6.0015 0
M  V30 18001 C 1694.06 2.30566 6.26415 0
M  V30 18002 H 1693.33 -0.142357 0.727197 0
M  V30 18003 H 1695.97 0.34413 1.88383 0
M  V30 18004 H 1694.28 -1.66286 3.54762 0
M  V30 18005 H 1695.97 -1.34604 3.77734 0
M  V30 18006 H 1692.56 -0.00564033 4.286 0
M  V30 18007 H 1696.75 0.75483 4.90526 0
M  V30 18008 H 1692 1.81664 5.83788 0
M  V30 18009 H 1696.18 2.57458 6.47061 0
M  V30 18010 H 1693.81 3.11148 6.93607 0
M  V30 18011 N 1695.38 -1.57561 -0.0350783 0
M  V30 18012 C 1696.79 -1.77383 -0.582437 0
M  V30 18013 C 1697.14 -0.868453 -1.75933 0
M  V30 18014 O 1696.27 -0.061745 -2.16312 0
M  V30 18015 C 1696.86 -3.2168 -1.06337 0
M  V30 18016 C 1695.42 -3.42719 -1.55629 0
M  V30 18017 C 1694.57 -2.72906 -0.4917 0
M  V30 18018 H 1697.52 -1.57545 0.19115 0
M  V30 18019 H 1697.54 -3.27863 -1.93097 0
M  V30 18020 H 1697.05 -3.8755 -0.206603 0
M  V30 18021 H 1695.15 -2.82016 -2.43511 0
M  V30 18022 H 1695.27 -4.51312 -1.60794 0
M  V30 18023 H 1693.63 -2.36506 -0.945349 0
M  V30 18024 H 1694.41 -3.41454 0.355502 0
M  V30 18025 N 1696.86 0.307236 -1.54576 0
M  V30 18026 C 1698.14 1.06243 -1.64231 0
M  V30 18027 C 1698.52 2.05415 -0.486589 0
M  V30 18028 O 1697.86 2.22565 0.517384 0
M  V30 18029 C 1698.07 1.74985 -3.01962 0
M  V30 18030 C 1699.42 2.2741 -3.58566 0
M  V30 18031 O 1700.45 1.85027 -3.04374 0
M  V30 18032 O 1699.3 3.05051 -4.53438 0
M  V30 18033 H 1696.4 0.490693 -0.665695 0
M  V30 18034 H 1698.94 0.305822 -1.66922 0
M  V30 18035 H 1697.72 1.02939 -3.77517 0
M  V30 18036 H 1697.34 2.57417 -3.03022 0
M  V30 18037 N 1698.34 1.46926 0.570122 0
M  V30 18038 C 1699.75 1.469 1.15227 0
M  V30 18039 C 1700.1 0.216651 1.95 0
M  V30 18040 O 1699.22 -0.679388 2.05459 0
M  V30 18041 C 1699.82 2.66158 2.09632 0
M  V30 18042 C 1698.38 2.69133 2.63144 0
M  V30 18043 C 1697.52 2.39795 1.39262 0
M  V30 18044 H 1700.48 1.54623 0.35739 0
M  V30 18045 H 1700.5 2.42393 2.93302 0
M  V30 18046 H 1700.01 3.5729 1.51543 0
M  V30 18047 H 1698.11 1.82106 3.25066 0
M  V30 18048 H 1698.22 3.69459 3.05019 0
M  V30 18049 H 1696.59 1.9011 1.695 0
M  V30 18050 H 1697.37 3.33119 0.829855 0
M  V30 18051 N 1699.82 -0.815801 1.34842 0
M  V30 18052 C 1701.05 -1.60164 1.30503 0
M  V30 18053 C 1701.45 -1.88809 -0.121561 0
M  V30 18054 O 1700.8 -1.48511 -1.08121 0
M  V30 18055 C 1700.86 -2.96361 2.03495 0
M  V30 18056 C 1700.52 -2.90577 3.52724 0
M  V30 18057 C 1701.52 -2.6466 4.47495 0
M  V30 18058 C 1699.2 -3.09985 3.9524 0
M  V30 18059 C 1701.2 -2.58212 5.82757 0
M  V30 18060 C 1698.89 -3.03161 5.306 0
M  V30 18061 C 1699.88 -2.77309 6.2417 0
M  V30 18062 O 1699.57 -2.70431 7.57048 0
M  V30 18063 H 1699.3 -0.504321 0.450151 0
M  V30 18064 H 1701.86 -1.02254 1.78139 0
M  V30 18065 H 1700.09 -3.56219 1.50483 0
M  V30 18066 H 1701.78 -3.57429 1.92353 0
M  V30 18067 H 1702.54 -2.49394 4.15966 0
M  V30 18068 H 1698.42 -3.2912 3.22801 0
M  V30 18069 H 1701.97 -2.37954 6.55762 0
M  V30 18070 H 1697.86 -3.17982 5.61745 0
M  V30 18071 H 1698.63 -2.86107 7.66867 0
M  V30 18072 N 1701.29 -1.18689 -1.03686 0
M  V30 18073 C 1702.23 -0.875126 -2.11835 0
M  V30 18074 C 1703.24 0.128865 -1.62289 0
M  V30 18075 O 1704.43 -0.0994835 -1.78223 0
M  V30 18076 C 1701.53 -0.286914 -3.37683 0
M  V30 18077 C 1700.7 -1.3375 -4.16449 0
M  V30 18078 C 1699.76 -0.764286 -5.2062 0
M  V30 18079 O 1698.79 -1.43998 -5.50684 0
M  V30 18080 N 1699.99 0.436345 -5.78858 0
M  V30 18081 H 1702.75 -1.80601 -2.39172 0
M  V30 18082 H 1700.31 -1.0878 -1.19911 0
M  V30 18083 H 1702.31 0.110219 -4.0455 0
M  V30 18084 H 1700.88 0.548073 -3.07758 0
M  V30 18085 H 1700.1 -1.9098 -3.44848 0
M  V30 18086 H 1701.38 -2.04566 -4.65865 0
M  V30 18087 H 1700.78 1.00296 -5.56738 0
M  V30 18088 H 1699.34 0.775353 -6.47172 0
M  V30 18089 N 1702.77 1.22662 -0.989529 0
M  V30 18090 C 1704.05 1.86816 -0.579566 0
M  V30 18091 C 1704.43 1.88858 0.943188 0
M  V30 18092 O 1703.78 1.37668 1.82372 0
M  V30 18093 C 1703.99 3.27863 -1.19612 0
M  V30 18094 C 1705.33 4.04384 -1.29454 0
M  V30 18095 O 1706.36 3.37116 -1.15026 0
M  V30 18096 O 1705.22 5.24789 -1.52508 0
M  V30 18097 H 1702.31 0.803332 -0.196434 0
M  V30 18098 H 1704.86 1.30467 -1.08519 0
M  V30 18099 H 1703.63 3.20993 -2.23784 0
M  V30 18100 H 1703.25 3.91813 -0.675875 0
M  V30 18101 N 1704.25 0.762308 1.37937 0
M  V30 18102 C 1705.66 0.388966 1.82603 0
M  V30 18103 C 1706.01 -1.08362 1.63561 0
M  V30 18104 O 1705.14 -1.83842 1.14154 0
M  V30 18105 C 1705.73 0.699218 3.31506 0
M  V30 18106 C 1704.29 0.379048 3.74487 0
M  V30 18107 C 1703.44 0.947924 2.60595 0
M  V30 18108 H 1706.39 0.957743 1.26542 0
M  V30 18109 H 1706.41 -0.019502 3.80495 0
M  V30 18110 H 1705.92 1.77105 3.45334 0
M  V30 18111 H 1704.02 -0.685844 3.66233 0
M  V30 18112 H 1704.14 0.880697 4.70936 0
M  V30 18113 H 1702.5 0.372746 2.51958 0
M  V30 18114 H 1703.28 2.02496 2.77219 0
M  V30 18115 N 1705.73 -1.49049 0.51208 0
M  V30 18116 C 1706.95 -2.07382 -0.0271044 0
M  V30 18117 C 1707.38 -1.3685 -1.29049 0
M  V30 18118 O 1706.74 -0.428713 -1.76158 0
M  V30 18119 C 1706.78 -3.59715 -0.252462 0
M  V30 18120 O 1705.89 -3.90538 -1.32491 0
M  V30 18121 H 1705.23 -0.663269 0.0311507 0
M  V30 18122 H 1707.76 -1.91705 0.714873 0
M  V30 18123 H 1707.77 -4.05159 -0.480603 0
M  V30 18124 H 1706.44 -4.10459 0.670531 0
M  V30 18125 H 1705.02 -3.56892 -1.08085 0
M  V30 18126 N 1707.21 -0.246397 -1.55662 0
M  V30 18127 C 1708.12 0.664125 -2.25003 0
M  V30 18128 C 1709.13 1.19368 -1.26598 0
M  V30 18129 O 1710.31 1.23006 -1.59473 0
M  V30 18130 C 1707.37 1.8446 -2.93557 0
M  V30 18131 C 1706.43 1.35456 -4.0737 0
M  V30 18132 C 1705.67 2.47877 -4.72645 0
M  V30 18133 O 1705.89 3.66594 -4.36995 0
M  V30 18134 O 1704.82 2.17663 -5.61165 0
M  V30 18135 H 1708.65 0.103277 -3.03524 0
M  V30 18136 H 1706.23 -0.0149207 -1.49393 0
M  V30 18137 H 1708.12 2.53349 -3.36737 0
M  V30 18138 H 1706.79 2.39308 -2.17976 0
M  V30 18139 H 1705.7 0.632958 -3.68706 0
M  V30 18140 H 1707.03 0.852175 -4.84767 0
M  V30 18141 N 1708.68 1.57577 0.026722 0
M  V30 18142 C 1709.63 2.07803 1.04502 0
M  V30 18143 C 1710.63 0.992308 1.37294 0
M  V30 18144 O 1711.83 1.17717 1.36171 0
M  V30 18145 H 1708.21 0.663176 0.354545 0
M  V30 18146 H 1710.18 2.92395 0.595626 0
M  V30 18147 C 1708.93 2.57478 2.33667 0
M  V30 18148 H 1708.25 3.40639 2.09296 0
M  V30 18149 H 1709.69 2.96328 3.03258 0
M  V30 18150 C 1708.15 1.47704 3.02796 0
M  V30 18151 O 1708.68 0.844611 3.9272 0
M  V30 18152 N 1706.88 1.211 2.64165 0
M  V30 18153 H 1706.43 1.72713 1.91123 0
M  V30 18154 H 1706.39 0.47866 3.10735 0
M  V30 18155 N 1710.16 -0.299034 1.54737 0
M  V30 18156 C 1711.41 -1.034 1.74111 0
M  V30 18157 C 1711.74 -1.87197 0.527965 0
M  V30 18158 O 1710.99 -1.89465 -0.490052 0
M  V30 18159 C 1711.29 -1.9673 2.98382 0
M  V30 18160 C 1710.96 -1.28893 4.32085 0
M  V30 18161 C 1709.62 -1.10124 4.68429 0
M  V30 18162 C 1711.97 -0.804114 5.1496 0
M  V30 18163 C 1709.3 -0.415622 5.85226 0
M  V30 18164 C 1711.65 -0.132204 6.32462 0
M  V30 18165 C 1710.31 0.0674159 6.67466 0
M  V30 18166 H 1709.58 -0.378366 0.637119 0
M  V30 18167 H 1712.23 -0.308686 1.88996 0
M  V30 18168 H 1710.54 -2.75795 2.78288 0
M  V30 18169 H 1712.23 -2.53671 3.10567 0
M  V30 18170 H 1708.82 -1.44507 4.03504 0
M  V30 18171 H 1713.01 -0.93682 4.87378 0
M  V30 18172 H 1708.26 -0.249993 6.10889 0
M  V30 18173 H 1712.44 0.251345 6.95946 0
M  V30 18174 H 1710.06 0.600691 7.57823 0
M  V30 18175 N 1711.64 -1.47227 -0.562322 0
M  V30 18176 C 1713.06 -1.32632 -0.887745 0
M  V30 18177 C 1713.26 -0.312972 -1.99055 0
M  V30 18178 O 1712.31 0.277309 -2.50973 0
M  V30 18179 C 1713.62 -2.71822 -1.28581 0
M  V30 18180 C 1715.17 -2.80068 -1.39753 0
M  V30 18181 C 1715.65 -4.19887 -1.82917 0
M  V30 18182 N 1717.14 -4.22404 -1.90077 0
M  V30 18183 C 1717.87 -5.27499 -2.24793 0
M  V30 18184 N 1717.37 -6.42904 -2.58159 0
M  V30 18185 N 1719.16 -5.14874 -2.25523 0
M  V30 18186 H 1711.31 -2.11752 0.165835 0
M  V30 18187 H 1713.58 -0.94793 0.0115238 0
M  V30 18188 H 1713.28 -3.47383 -0.549361 0
M  V30 18189 H 1713.16 -3.0326 -2.24306 0
M  V30 18190 H 1715.54 -2.04783 -2.1248 0
M  V30 18191 H 1715.62 -2.5229 -0.422286 0
M  V30 18192 H 1715.27 -4.95676 -1.10761 0
M  V30 18193 H 1715.2 -4.45086 -2.81436 0
M  V30 18194 H 1717.69 -3.39146 -1.66698 0
M  V30 18195 H 1718 -7.18857 -2.83662 0
M  V30 18196 H 1716.35 -6.46232 -2.55751 0
M  V30 18197 H 1719.54 -4.23745 -1.98892 0
M  V30 18198 H 1719.71 -5.96887 -2.5225 0
M  V30 18199 N 1713.12 0.808639 -1.35273 0
M  V30 18200 C 1714.06 1.92036 -1.28026 0
M  V30 18201 C 1715.03 1.65397 -0.152611 0
M  V30 18202 O 1716.22 1.87819 -0.335972 0
M  V30 18203 C 1713.36 3.28544 -1.05607 0
M  V30 18204 C 1712.47 3.67382 -2.27276 0
M  V30 18205 C 1711.61 4.9291 -1.98024 0
M  V30 18206 C 1710.65 5.2437 -3.15757 0
M  V30 18207 N 1709.78 6.41077 -2.86294 0
M  V30 18208 H 1714.62 1.97567 -2.23095 0
M  V30 18209 H 1712.16 0.966397 -1.10902 0
M  V30 18210 H 1714.12 4.07234 -0.906418 0
M  V30 18211 H 1712.75 3.22487 -0.142015 0
M  V30 18212 H 1711.8 2.83969 -2.53112 0
M  V30 18213 H 1713.11 3.86593 -3.15194 0
M  V30 18214 H 1712.27 5.79421 -1.79877 0
M  V30 18215 H 1711.01 4.7573 -1.07387 0
M  V30 18216 H 1710.01 4.36349 -3.34483 0
M  V30 18217 H 1711.24 5.4348 -4.07193 0
M  V30 18218 H 1709.18 6.25327 -1.98249 0
M  V30 18219 H 1709.1 6.60528 -3.67748 0
M  V30 18220 H 1710.37 7.30622 -2.71684 0
M  V30 18221 N 1714.6 1.19237 1.03055 0
M  V30 18222 C 1715.84 0.992008 1.76078 0
M  V30 18223 C 1716.17 -0.478535 1.89037 0
M  V30 18224 O 1715.44 -1.34666 1.42274 0
M  V30 18225 H 1714.02 0.364059 0.652281 0
M  V30 18226 H 1716.68 1.50101 1.24321 0
M  V30 18227 H 1715.77 1.43862 2.76966 0
M  V30 18228 N 1716.07 -1.22136 0.99602 0
M  V30 18229 C 1717.35 -1.86506 0.589466 0
M  V30 18230 C 1717.73 -1.89355 -0.933159 0
M  V30 18231 O 1717.08 -1.38634 -1.8164 0
M  V30 18232 C 1717.29 -3.27224 1.21349 0
M  V30 18233 C 1718.64 -4.03692 1.31597 0
M  V30 18234 O 1719.66 -3.36502 1.16812 0
M  V30 18235 O 1718.52 -5.23973 1.55289 0
M  V30 18236 H 1715.61 -0.802279 0.200692 0
M  V30 18237 H 1718.16 -1.2989 1.0921 0
M  V30 18238 H 1716.93 -3.19802 2.25483 0
M  V30 18239 H 1716.56 -3.91449 0.696645 0
M  V30 18240 N 1717.55 -0.769612 -1.37531 0
M  V30 18241 C 1718.78 -0.343069 -2.04543 0
M  V30 18242 C 1719.2 1.02583 -1.57665 0
M  V30 18243 O 1718.56 1.65692 -0.735915 0
M  V30 18244 C 1718.61 -0.392914 -3.58453 0
M  V30 18245 O 1717.71 0.607401 -4.07902 0
M  V30 18246 H 1717.05 -0.148905 -0.647088 0
M  V30 18247 H 1719.58 -1.04521 -1.75888 0
M  V30 18248 H 1719.59 -0.24945 -4.07237 0
M  V30 18249 H 1718.27 -1.39159 -3.91928 0
M  V30 18250 H 1716.85 0.427231 -3.70445 0
M  V30 18251 N 1719.03 1.48775 -0.519977 0
M  V30 18252 C 1720.26 2.06895 0.0139983 0
M  V30 18253 C 1720.67 1.37786 1.29075 0
M  V30 18254 O 1720.03 0.462168 1.76551 0
M  V30 18255 C 1720.08 3.60621 0.251999 0
M  V30 18256 O 1719.8 4.27132 -0.974158 0
M  V30 18257 C 1721.3 4.35508 0.827483 0
M  V30 18258 H 1718.52 0.670373 -0.0290011 0
M  V30 18259 H 1721.07 1.91302 -0.722762 0
M  V30 18260 H 1719.22 3.75853 0.938783 0
M  V30 18261 H 1719.64 5.19129 -0.748697 0
M  V30 18262 H 1721.11 5.43877 0.943492 0
M  V30 18263 H 1721.59 3.99261 1.82996 0
M  V30 18264 H 1722.19 4.24929 0.177578 0
M  V30 18265 N 1720.51 0.254649 1.55529 0
M  V30 18266 C 1721.44 -0.635656 2.24681 0
M  V30 18267 C 1722.42 -1.17519 1.22977 0
M  V30 18268 O 1723.6 -1.21311 1.51649 0
M  V30 18269 C 1720.73 -1.82922 2.95224 0
M  V30 18270 C 1719.69 -1.42212 4.03683 0
M  V30 18271 C 1719.01 -2.69713 4.61691 0
M  V30 18272 C 1720.31 -0.587436 5.18986 0
M  V30 18273 H 1722.01 -0.0590063 2.99342 0
M  V30 18274 H 1719.55 -0.02694 1.43975 0
M  V30 18275 H 1721.51 -2.45777 3.42304 0
M  V30 18276 H 1720.23 -2.43137 2.18064 0
M  V30 18277 H 1718.89 -0.81687 3.57383 0
M  V30 18278 H 1718.54 -3.28143 3.81223 0
M  V30 18279 H 1718.24 -2.43194 5.34911 0
M  V30 18280 H 1719.76 -3.33453 5.11509 0
M  V30 18281 H 1721.18 -1.12048 5.62244 0
M  V30 18282 H 1719.57 -0.417988 5.98643 0
M  V30 18283 H 1720.64 0.398577 4.83259 0
M  V30 18284 N 1721.99 -1.57589 -0.0183649 0
M  V30 18285 C 1723.4 -1.7799 -0.563591 0
M  V30 18286 C 1723.75 -0.887064 -1.75002 0
M  V30 18287 O 1722.87 -0.0846843 -2.16234 0
M  V30 18288 C 1723.47 -3.2279 -1.02919 0
M  V30 18289 C 1722.03 -3.44351 -1.51986 0
M  V30 18290 C 1721.17 -2.73412 -0.462727 0
M  V30 18291 H 1724.13 -1.57333 0.207849 0
M  V30 18292 H 1724.15 -3.29892 -1.89609 0
M  V30 18293 H 1723.66 -3.87747 -0.165487 0
M  V30 18294 H 1721.76 -2.84583 -2.40506 0
M  V30 18295 H 1721.87 -4.52992 -1.55998 0
M  V30 18296 H 1720.24 -2.37496 -0.920211 0
M  V30 18297 H 1721.02 -3.41058 0.391698 0
M  V30 18298 N 1723.46 0.290824 -1.54893 0
M  V30 18299 C 1724.4 1.38393 -1.81446 0
M  V30 18300 C 1725.38 1.48322 -0.666282 0
M  V30 18301 O 1726.56 1.65225 -0.907354 0
M  V30 18302 C 1723.69 2.76211 -1.96024 0
M  V30 18303 C 1722.73 2.83655 -3.18499 0
M  V30 18304 S 1723.57 2.44713 -4.76315 0
M  V30 18305 C 1724.72 3.84539 -4.93843 0
M  V30 18306 H 1724.95 1.15664 -2.73878 0
M  V30 18307 H 1722.49 0.489495 -1.46435 0
M  V30 18308 H 1724.45 3.55585 -2.05108 0
M  V30 18309 H 1723.11 2.96203 -1.04511 0
M  V30 18310 H 1722.3 3.84765 -3.25533 0
M  V30 18311 H 1721.9 2.12285 -3.07914 0
M  V30 18312 H 1724.19 4.79639 -4.7849 0
M  V30 18313 H 1725.14 3.82469 -5.95922 0
M  V30 18314 H 1725.54 3.75014 -4.2193 0
M  V30 18315 N 1724.94 1.47523 0.554506 0
M  V30 18316 C 1725.89 1.60623 1.68235 0
M  V30 18317 C 1726.88 0.473445 1.6265 0
M  V30 18318 O 1728.09 0.651337 1.67802 0
M  V30 18319 H 1724.47 0.505539 0.556718 0
M  V30 18320 H 1726.44 2.55395 1.54323 0
M  V30 18321 C 1725.19 1.64022 3.06581 0
M  V30 18322 H 1724.51 2.50537 3.11562 0
M  V30 18323 H 1725.95 1.77237 3.85179 0
M  V30 18324 C 1724.41 0.374048 3.34817 0
M  V30 18325 O 1724.94 -0.523704 3.98272 0
M  V30 18326 N 1723.14 0.253244 2.89494 0
M  V30 18327 H 1722.69 0.984738 2.38035 0
M  V30 18328 H 1722.65 -0.592982 3.08757 0
M  V30 18329 N 1726.42 -0.801453 1.357 0
M  V30 18330 C 1727.84 -1.09776 1.1585 0
M  V30 18331 C 1728.04 -2.01484 -0.0255653 0
M  V30 18332 O 1727.09 -2.42758 -0.694613 0
M  V30 18333 C 1728.41 -1.72381 2.46385 0
M  V30 18334 C 1729.95 -1.84777 2.52639 0
M  V30 18335 C 1730.43 -2.50797 3.83229 0
M  V30 18336 N 1731.92 -2.58277 3.84509 0
M  V30 18337 C 1732.65 -3.10141 4.82286 0
M  V30 18338 N 1732.15 -3.62404 5.90454 0
M  V30 18339 N 1733.94 -3.08742 4.69718 0
M  V30 18340 H 1726.09 -0.191926 2.11531 0
M  V30 18341 H 1728.36 -0.147742 0.936417 0
M  V30 18342 H 1728.06 -1.12462 3.33234 0
M  V30 18343 H 1727.94 -2.72024 2.6131 0
M  V30 18344 H 1730.32 -2.43837 1.66215 0
M  V30 18345 H 1730.41 -0.839745 2.41624 0
M  V30 18346 H 1730.05 -1.92385 4.70053 0
M  V30 18347 H 1729.98 -3.52147 3.91535 0
M  V30 18348 H 1732.47 -2.21257 3.06356 0
M  V30 18349 H 1732.78 -4.00293 6.61049 0
M  V30 18350 H 1731.13 -3.60588 5.94139 0
M  V30 18351 H 1734.32 -2.67193 3.84351 0
M  V30 18352 H 1734.49 -3.48854 5.46081 0
M  V30 18353 N 1727.9 -1.19782 -1.02421 0
M  V30 18354 C 1728.85 -0.936475 -2.12915 0
M  V30 18355 C 1729.84 0.10941 -1.69046 0
M  V30 18356 O 1731.05 -0.04026 -1.79955 0
M  V30 18357 H 1727.42 -0.285462 -0.695712 0
M  V30 18358 H 1729.39 -1.87485 -2.32146 0
M  V30 18359 C 1728.14 -0.496786 -3.44133 0
M  V30 18360 H 1727.46 -1.29314 -3.78309 0
M  V30 18361 H 1728.9 -0.353073 -4.22527 0
M  V30 18362 C 1727.36 0.789792 -3.27512 0
M  V30 18363 O 1727.89 1.85009 -3.56559 0
M  V30 18364 N 1726.1 0.748849 -2.80786 0
M  V30 18365 H 1725.65 -0.114256 -2.57346 0
M  V30 18366 H 1725.6 1.61005 -2.70046 0
M  V30 18367 N 1729.38 1.21606 -1.00248 0
M  V30 18368 C 1730.79 1.72365 -0.717446 0
M  V30 18369 C 1731.14 1.80668 0.765078 0
M  V30 18370 O 1730.26 1.45951 1.59772 0
M  V30 18371 C 1730.86 3.13046 -1.29567 0
M  V30 18372 C 1729.42 3.61172 -1.05981 0
M  V30 18373 C 1728.57 2.38775 -1.41003 0
M  V30 18374 H 1731.52 1.06818 -1.17369 0
M  V30 18375 H 1731.54 3.74392 -0.679054 0
M  V30 18376 H 1731.05 3.0697 -2.37467 0
M  V30 18377 H 1729.15 3.726 0.00214307 0
M  V30 18378 H 1729.26 4.46778 -1.72993 0
M  V30 18379 H 1727.63 2.40839 -0.82877 0
M  V30 18380 H 1728.41 2.35352 -2.49928 0
M  V30 18381 N 1730.86 0.776895 1.37121 0
M  V30 18382 C 1731.79 0.180738 2.32799 0
M  V30 18383 C 1732.77 -0.677284 1.56035 0
M  V30 18384 O 1733.95 -0.613687 1.84249 0
M  V30 18385 C 1731.08 -0.695148 3.40272 0
M  V30 18386 C 1730.04 0.0619772 4.27955 0
M  V30 18387 C 1729.36 -0.933688 5.26485 0
M  V30 18388 C 1730.66 1.24396 5.0727 0
M  V30 18389 H 1732.36 0.980039 2.82906 0
M  V30 18390 H 1729.9 0.472722 1.3602 0
M  V30 18391 H 1731.85 -1.12205 4.06187 0
M  V30 18392 H 1730.58 -1.52702 2.88703 0
M  V30 18393 H 1729.24 0.469717 3.63578 0
M  V30 18394 H 1728.89 -1.76025 4.71194 0
M  V30 18395 H 1728.59 -0.431608 5.86013 0
M  V30 18396 H 1730.11 -1.35942 5.95275 0
M  V30 18397 H 1731.52 0.89345 5.66295 0
M  V30 18398 H 1729.92 1.67848 5.76149 0
M  V30 18399 H 1730.99 2.04553 4.39643 0
M  V30 18400 N 1732.33 -1.48497 0.527859 0
M  V30 18401 C 1733.28 -2.2656 -0.255874 0
M  V30 18402 C 1734.27 -1.32572 -0.911777 0
M  V30 18403 O 1735.46 -1.57124 -0.814934 0
M  V30 18404 C 1732.59 -3.17591 -1.30348 0
M  V30 18405 C 1731.67 -4.19051 -0.652474 0
M  V30 18406 N 1732.07 -5.05128 0.260561 0
M  V30 18407 C 1730.36 -4.36619 -0.909929 0
M  V30 18408 C 1731.06 -5.78214 0.635906 0
M  V30 18409 N 1730.04 -5.436 -0.00251422 0
M  V30 18410 H 1733.84 -2.90487 0.446571 0
M  V30 18411 H 1731.36 -1.58677 0.345742 0
M  V30 18412 H 1733.35 -3.72173 -1.87865 0
M  V30 18413 H 1732.01 -2.55219 -2.00733 0
M  V30 18414 H 1733.02 -5.14017 0.633035 0
M  V30 18415 H 1729.7 -3.85437 -1.6045 0
M  V30 18416 H 1731.09 -6.57482 1.38446 0
M  V30 18417 N 1733.81 -0.262893 -1.55392 0
M  V30 18418 C 1734.76 0.645946 -2.23451 0
M  V30 18419 C 1735.75 1.16753 -1.2274 0
M  V30 18420 O 1736.96 1.12257 -1.40706 0
M  V30 18421 H 1733.33 0.226829 -0.716975 0
M  V30 18422 H 1735.31 0.0489539 -2.9836 0
M  V30 18423 C 1734.05 1.82451 -2.95985 0
M  V30 18424 H 1733.38 1.43233 -3.73262 0
M  V30 18425 H 1734.82 2.43731 -3.46945 0
M  V30 18426 C 1733.28 2.7055 -2.0076 0
M  V30 18427 O 1733.81 3.70552 -1.55093 0
M  V30 18428 N 1732.01 2.37457 -1.67519 0
M  V30 18429 H 1731.56 1.56184 -2.04852 0
M  V30 18430 H 1731.52 2.96675 -1.04074 0
M  V30 18431 N 1735.29 1.57597 0.0100073 0
M  V30 18432 C 1736.2 2.11209 1.02117 0
M  V30 18433 C 1737.22 1.05503 1.38366 0
M  V30 18434 O 1738.39 1.37348 1.47301 0
M  V30 18435 C 1735.46 2.59654 2.2974 0
M  V30 18436 C 1734.52 3.79921 1.99896 0
M  V30 18437 C 1733.75 4.26046 3.21435 0
M  V30 18438 O 1733.97 3.71566 4.32775 0
M  V30 18439 O 1732.91 5.18301 3.06018 0
M  V30 18440 H 1736.73 2.97805 0.595469 0
M  V30 18441 H 1734.32 1.47647 0.228208 0
M  V30 18442 H 1736.2 2.91058 3.04735 0
M  V30 18443 H 1734.88 1.76161 2.71568 0
M  V30 18444 H 1733.78 3.53506 1.22409 0
M  V30 18445 H 1735.12 4.64457 1.62912 0
M  V30 18446 N 1736.77 -0.282606 1.55045 0
M  V30 18447 C 1737.68 -1.37129 1.90349 0
M  V30 18448 C 1738.69 -1.54537 0.799639 0
M  V30 18449 O 1739.87 -1.68849 1.09782 0
M  V30 18450 C 1736.93 -2.71211 2.15975 0
M  V30 18451 C 1736 -2.62632 3.39592 0
M  V30 18452 C 1735.23 -3.90319 3.63987 0
M  V30 18453 O 1735.45 -4.90551 2.9106 0
M  V30 18454 O 1734.39 -3.91102 4.57518 0
M  V30 18455 H 1738.21 -1.10189 2.83006 0
M  V30 18456 H 1735.8 -0.480293 1.41469 0
M  V30 18457 H 1737.68 -3.50509 2.33926 0
M  V30 18458 H 1736.35 -2.97958 1.26503 0
M  V30 18459 H 1735.26 -1.81743 3.26987 0
M  V30 18460 H 1736.59 -2.40836 4.29254 0
M  V30 18461 N 1738.25 -1.47815 -0.546675 0
M  V30 18462 C 1739.49 -1.54674 -1.30078 0
M  V30 18463 C 1739.81 -0.215151 -1.93809 0
M  V30 18464 O 1739.08 0.761862 -1.80478 0
M  V30 18465 H 1737.66 -0.569776 -0.483078 0
M  V30 18466 H 1740.33 -1.84178 -0.637525 0
M  V30 18467 H 1739.42 -2.31894 -2.08882 0
M  V30 18468 N 1739.72 0.794246 -1.36123 0
M  V30 18469 C 1740.65 1.92105 -1.32732 0
M  V30 18470 C 1741.63 1.68925 -0.199603 0
M  V30 18471 O 1742.82 1.90109 -0.396498 0
M  V30 18472 C 1739.95 3.29051 -1.11098 0
M  V30 18473 C 1738.9 3.66743 -2.20643 0
M  V30 18474 C 1738.23 5.01986 -1.84159 0
M  V30 18475 C 1739.53 3.75831 -3.62696 0
M  V30 18476 H 1741.22 1.952 -2.27018 0
M  V30 18477 H 1738.77 0.937746 -1.09281 0
M  V30 18478 H 1740.72 4.07494 -1.07362 0
M  V30 18479 H 1739.45 3.26331 -0.132614 0
M  V30 18480 H 1738.11 2.90594 -2.23497 0
M  V30 18481 H 1737.75 4.95782 -0.849081 0
M  V30 18482 H 1737.45 5.28175 -2.57497 0
M  V30 18483 H 1738.98 5.82855 -1.8197 0
M  V30 18484 H 1740.39 4.44476 -3.62096 0
M  V30 18485 H 1738.79 4.135 -4.34899 0
M  V30 18486 H 1739.86 2.7706 -3.97952 0
M  V30 18487 N 1741.2 1.20323 1.01785 0
M  V30 18488 C 1742.43 1.03893 1.79502 0
M  V30 18489 C 1742.85 -0.407421 1.83635 0
M  V30 18490 O 1742.21 -1.29338 1.27049 0
M  V30 18491 C 1742.26 1.62562 3.21879 0
M  V30 18492 O 1741.36 0.862398 4.03282 0
M  V30 18493 H 1740.7 0.366479 0.553705 0
M  V30 18494 H 1743.23 1.59589 1.28034 0
M  V30 18495 H 1743.24 1.66244 3.72595 0
M  V30 18496 H 1741.92 2.67826 3.18186 0
M  V30 18497 H 1740.49 0.899687 3.61884 0
M  V30 18498 N 1742.68 -1.21073 1.00892 0
M  V30 18499 C 1743.63 -2.25613 0.565829 0
M  V30 18500 C 1744.62 -1.64812 -0.391588 0
M  V30 18501 O 1745.83 -1.78078 -0.262352 0
M  V30 18502 H 1742.2 -0.733755 0.164643 0
M  V30 18503 H 1744.17 -2.60321 1.45862 0
M  V30 18504 C 1742.92 -3.47589 -0.087861 0
M  V30 18505 H 1742.25 -3.94647 0.639828 0
M  V30 18506 H 1743.69 -4.22459 -0.361115 0
M  V30 18507 C 1742.14 -3.09609 -1.32829 0
M  V30 18508 O 1742.67 -3.20449 -2.4223 0
M  V30 18509 N 1740.88 -2.64234 -1.2095 0
M  V30 18510 H 1740.43 -2.55613 -0.319301 0
M  V30 18511 H 1740.39 -2.39191 -2.04046 0
M  V30 18512 N 1744.16 -0.784156 -1.36707 0
M  V30 18513 C 1745.11 -0.166827 -2.32001 0
M  V30 18514 C 1746.1 0.670916 -1.55548 0
M  V30 18515 O 1747.31 0.566588 -1.7085 0
M  V30 18516 H 1743.68 -0.0351691 -0.751177 0
M  V30 18517 H 1745.65 -0.986074 -2.81637 0
M  V30 18518 C 1744.4 0.6881 -3.40823 0
M  V30 18519 H 1743.72 0.0528343 -3.99765 0
M  V30 18520 H 1745.16 1.08681 -4.09835 0
M  V30 18521 C 1743.62 1.84408 -2.81949 0
M  V30 18522 O 1744.15 2.94034 -2.73691 0
M  V30 18523 N 1742.36 1.64855 -2.39314 0
M  V30 18524 H 1741.91 0.756867 -2.4623 0
M  V30 18525 H 1741.86 2.42363 -2.00268 0
M  V30 18526 N 1745.64 1.48215 -0.535727 0
M  V30 18527 C 1746.91 1.95505 0.0609376 0
M  V30 18528 C 1747.29 1.47806 1.5072 0
M  V30 18529 O 1746.64 0.707142 2.17283 0
M  V30 18530 C 1746.85 3.48944 -0.0622609 0
M  V30 18531 C 1748.2 4.24496 0.0940805 0
M  V30 18532 O 1749.22 3.56198 0.0112532 0
M  V30 18533 O 1748.08 5.4584 0.268547 0
M  V30 18534 H 1745.18 0.82349 0.0761079 0
M  V30 18535 H 1747.72 1.58711 -0.600732 0
M  V30 18536 H 1746.49 3.76401 -1.06949 0
M  V30 18537 H 1746.12 3.92448 0.637999 0
M  V30 18538 N 1747.11 0.27113 1.5525 0
M  V30 18539 C 1748.05 -0.651235 2.19753 0
M  V30 18540 C 1749.06 -1.12051 1.18104 0
M  V30 18541 O 1750.25 -1.0431 1.44851 0
M  V30 18542 C 1747.35 -1.89985 2.8064 0
M  V30 18543 C 1746.52 -1.57805 4.07942 0
M  V30 18544 C 1745.58 -2.67872 4.52914 0
M  V30 18545 O 1744.61 -2.34228 5.18774 0
M  V30 18546 N 1745.81 -3.97854 4.22721 0
M  V30 18547 H 1748.57 -0.0991913 2.99536 0
M  V30 18548 H 1746.13 0.0920667 1.61638 0
M  V30 18549 H 1748.13 -2.62907 3.07672 0
M  V30 18550 H 1746.7 -2.36105 2.04874 0
M  V30 18551 H 1745.92 -0.682852 3.88241 0
M  V30 18552 H 1747.2 -1.33801 4.90892 0
M  V30 18553 H 1746.6 -4.28011 3.69897 0
M  V30 18554 H 1745.16 -4.67165 4.54533 0
M  V30 18555 N 1748.59 -1.576 -0.00164943 0
M  V30 18556 C 1749.82 -1.94493 -0.69686 0
M  V30 18557 C 1750.23 -0.871587 -1.67929 0
M  V30 18558 O 1749.57 0.158245 -1.83017 0
M  V30 18559 C 1749.64 -3.27363 -1.48572 0
M  V30 18560 C 1749.3 -4.52135 -0.665063 0
M  V30 18561 C 1750.3 -5.19879 0.0465481 0
M  V30 18562 C 1747.98 -4.98564 -0.611519 0
M  V30 18563 C 1749.98 -6.32351 0.800706 0
M  V30 18564 C 1747.66 -6.10925 0.146365 0
M  V30 18565 C 1748.66 -6.77675 0.851213 0
M  V30 18566 O 1748.35 -7.87883 1.59674 0
M  V30 18567 H 1748.08 -0.645998 -0.199156 0
M  V30 18568 H 1750.63 -2.05351 0.0450887 0
M  V30 18569 H 1748.86 -3.12909 -2.27211 0
M  V30 18570 H 1750.55 -3.4938 -2.06611 0
M  V30 18571 H 1751.32 -4.84998 0.014324 0
M  V30 18572 H 1747.2 -4.46434 -1.14967 0
M  V30 18573 H 1750.74 -6.84385 1.3514 0
M  V30 18574 H 1746.64 -6.45248 0.180416 0
M  V30 18575 H 1747.41 -8.04389 1.51327 0
M  V30 18576 N 1750.07 0.274379 -1.55193 0
M  V30 18577 C 1751.02 1.33913 -1.87978 0
M  V30 18578 C 1751.99 1.49142 -0.731149 0
M  V30 18579 O 1753.17 1.63572 -0.98229 0
M  V30 18580 C 1750.31 2.69464 -2.156 0
M  V30 18581 C 1749.43 2.62468 -3.43125 0
M  V30 18582 C 1748.56 3.90188 -3.60453 0
M  V30 18583 C 1747.6 3.77697 -4.81675 0
M  V30 18584 N 1746.74 4.97249 -4.95669 0
M  V30 18585 H 1751.58 1.05254 -2.78793 0
M  V30 18586 H 1749.11 0.508532 -1.3803 0
M  V30 18587 H 1751.07 3.48329 -2.29614 0
M  V30 18588 H 1749.7 2.96328 -1.28021 0
M  V30 18589 H 1748.75 1.7532 -3.3759 0
M  V30 18590 H 1750.07 2.49137 -4.32125 0
M  V30 18591 H 1749.22 4.77495 -3.74277 0
M  V30 18592 H 1747.96 4.06384 -2.69635 0
M  V30 18593 H 1746.96 2.88774 -4.67857 0
M  V30 18594 H 1748.19 3.63022 -5.73927 0
M  V30 18595 H 1746.13 5.13858 -4.07781 0
M  V30 18596 H 1746.05 4.86444 -5.78712 0
M  V30 18597 H 1747.32 5.86132 -5.13877 0
M  V30 18598 N 1751.55 1.48103 0.538828 0
M  V30 18599 C 1752.48 1.64856 1.65363 0
M  V30 18600 C 1753.46 0.497579 1.6266 0
M  V30 18601 O 1754.64 0.729088 1.79994 0
M  V30 18602 C 1751.77 1.67984 3.03971 0
M  V30 18603 C 1750.73 2.82494 3.21529 0
M  V30 18604 C 1750.05 2.70706 4.6111 0
M  V30 18605 C 1751.35 4.23892 3.05145 0
M  V30 18606 H 1753.05 2.58183 1.51598 0
M  V30 18607 H 1750.59 1.24249 0.727886 0
M  V30 18608 H 1752.55 1.78294 3.81824 0
M  V30 18609 H 1751.27 0.712299 3.18738 0
M  V30 18610 H 1749.93 2.71725 2.46091 0
M  V30 18611 H 1749.58 1.7194 4.727 0
M  V30 18612 H 1749.28 3.47539 4.73804 0
M  V30 18613 H 1750.8 2.82971 5.41073 0
M  V30 18614 H 1752.22 4.3554 3.72797 0
M  V30 18615 H 1750.61 5.01654 3.29338 0
M  V30 18616 H 1751.68 4.40973 2.01671 0
M  V30 18617 N 1753.03 -0.787016 1.36542 0
M  V30 18618 C 1754.26 -1.5736 1.33871 0
M  V30 18619 C 1754.66 -1.89024 -0.0814846 0
M  V30 18620 O 1754.01 -1.50771 -1.04947 0
M  V30 18621 C 1754.07 -2.91978 2.09735 0
M  V30 18622 C 1753.73 -2.8303 3.58808 0
M  V30 18623 C 1754.73 -2.55108 4.53008 0
M  V30 18624 C 1752.42 -3.01531 4.01727 0
M  V30 18625 C 1754.41 -2.45793 5.88103 0
M  V30 18626 C 1752.1 -2.91838 5.36911 0
M  V30 18627 C 1753.09 -2.64007 6.29912 0
M  V30 18628 O 1752.78 -2.54312 7.62614 0
M  V30 18629 H 1752.51 -0.494659 0.460748 0
M  V30 18630 H 1755.07 -0.984519 1.80268 0
M  V30 18631 H 1753.3 -3.52946 1.58005 0
M  V30 18632 H 1754.99 -3.53268 1.99891 0
M  V30 18633 H 1755.75 -2.40514 4.21163 0
M  V30 18634 H 1751.63 -3.22199 3.2971 0
M  V30 18635 H 1755.18 -2.23991 6.60662 0
M  V30 18636 H 1751.07 -3.05995 5.68364 0
M  V30 18637 H 1751.84 -2.69776 7.72763 0
M  V30 18638 N 1754.5 -1.20861 -1.01145 0
M  V30 18639 C 1755.73 -1.04843 -1.78949 0
M  V30 18640 C 1756.15 0.397676 -1.83848 0
M  V30 18641 O 1755.51 1.28663 -1.27733 0
M  V30 18642 C 1755.56 -1.64267 -3.21012 0
M  V30 18643 O 1754.66 -0.883773 -4.02819 0
M  V30 18644 H 1754.01 -0.36941 -0.551754 0
M  V30 18645 H 1756.54 -1.60266 -1.27185 0
M  V30 18646 H 1756.55 -1.68218 -3.71708 0
M  V30 18647 H 1755.22 -2.69509 -3.16761 0
M  V30 18648 H 1753.8 -0.918866 -3.61402 0
M  V30 18649 N 1755.98 1.20536 -1.01532 0
M  V30 18650 C 1756.93 2.23277 -0.584486 0
M  V30 18651 C 1757.9 1.6134 0.394773 0
M  V30 18652 O 1759.08 1.88514 0.294498 0
M  V30 18653 C 1756.22 3.45024 0.0723574 0
M  V30 18654 C 1755.34 4.21395 -0.951314 0
M  V30 18655 C 1754.47 5.30535 -0.265656 0
M  V30 18656 C 1753.51 5.98649 -1.27617 0
M  V30 18657 N 1752.65 6.99381 -0.61727 0
M  V30 18658 H 1757.49 2.59489 -1.46524 0
M  V30 18659 H 1755.03 1.27507 -0.733502 0
M  V30 18660 H 1756.98 4.14541 0.470303 0
M  V30 18661 H 1755.61 3.09508 0.916768 0
M  V30 18662 H 1754.67 3.50957 -1.46743 0
M  V30 18663 H 1755.98 4.68211 -1.71989 0
M  V30 18664 H 1755.13 6.06409 0.187857 0
M  V30 18665 H 1753.87 4.84754 0.535237 0
M  V30 18666 H 1752.88 5.21537 -1.74008 0
M  V30 18667 H 1754.1 6.46516 -2.07832 0
M  V30 18668 H 1752.05 6.55796 0.163777 0
M  V30 18669 H 1751.96 7.44317 -1.32393 0
M  V30 18670 H 1753.23 7.79275 -0.187306 0
M  V30 18671 N 1757.46 0.791395 1.36289 0
M  V30 18672 C 1758.41 0.164218 2.27408 0
M  V30 18673 C 1759.39 -0.653018 1.47053 0
M  V30 18674 O 1760.59 -0.512767 1.6941 0
M  V30 18675 C 1757.72 -0.698551 3.36118 0
M  V30 18676 C 1756.8 0.127583 4.23908 0
M  V30 18677 N 1757.19 1.18307 4.91769 0
M  V30 18678 C 1755.49 -0.0932621 4.45902 0
M  V30 18679 C 1756.19 1.68616 5.56726 0
M  V30 18680 N 1755.17 0.995058 5.34415 0
M  V30 18681 H 1758.97 0.972045 2.7736 0
M  V30 18682 H 1756.48 0.63105 1.49638 0
M  V30 18683 H 1758.48 -1.16379 4.00327 0
M  V30 18684 H 1757.14 -1.5049 2.8772 0
M  V30 18685 H 1758.15 1.56553 4.93672 0
M  V30 18686 H 1754.83 -0.869962 4.08336 0
M  V30 18687 H 1756.22 2.56745 6.20912 0
M  V30 18688 N 1758.94 -1.47929 0.54358 0
M  V30 18689 C 1760.19 -2.02495 0.0144665 0
M  V30 18690 C 1760.51 -1.41934 -1.32985 0
M  V30 18691 O 1759.77 -0.559497 -1.87532 0
M  V30 18692 C 1760.07 -3.57116 -0.142408 0
M  V30 18693 C 1759.73 -4.3653 1.12927 0
M  V30 18694 C 1758.4 -4.57947 1.47776 0
M  V30 18695 C 1760.75 -4.8243 1.97259 0
M  V30 18696 C 1758.08 -5.22512 2.66829 0
M  V30 18697 C 1760.43 -5.48307 3.15503 0
M  V30 18698 C 1759.09 -5.6796 3.50681 0
M  V30 18699 H 1758.36 -0.740981 0.00529368 0
M  V30 18700 H 1761.01 -1.77758 0.712347 0
M  V30 18701 H 1759.31 -3.80769 -0.923157 0
M  V30 18702 H 1761.01 -3.96972 -0.566937 0
M  V30 18703 H 1757.6 -4.20129 0.847901 0
M  V30 18704 H 1761.79 -4.65673 1.71645 0
M  V30 18705 H 1757.04 -5.35924 2.9427 0
M  V30 18706 H 1761.22 -5.82839 3.81145 0
M  V30 18707 H 1758.84 -6.17762 4.43028 0
M  V30 18708 N 1760.42 -0.27936 -1.55104 0
M  V30 18709 C 1761.65 0.339429 -2.04097 0
M  V30 18710 C 1762.06 1.49151 -1.15756 0
M  V30 18711 O 1761.42 1.81624 -0.178558 0
M  V30 18712 C 1761.47 0.816392 -3.52161 0
M  V30 18713 O 1761.19 -0.289812 -4.3714 0
M  V30 18714 C 1762.69 1.50256 -4.17059 0
M  V30 18715 H 1759.91 0.0768615 -0.666583 0
M  V30 18716 H 1762.45 -0.412691 -2.00293 0
M  V30 18717 H 1760.61 1.51859 -3.56395 0
M  V30 18718 H 1761.02 0.0776213 -5.24443 0
M  V30 18719 H 1762.5 1.78767 -5.22251 0
M  V30 18720 H 1762.97 2.4355 -3.65486 0
M  V30 18721 H 1763.58 0.844106 -4.16839 0
M  V30 18722 N 1761.9 1.57599 -0.0067085 0
M  V30 18723 C 1762.83 2.11878 0.981331 0
M  V30 18724 C 1763.81 1.02949 1.35408 0
M  V30 18725 O 1764.99 1.30667 1.43665 0
M  V30 18726 C 1762.12 2.62757 2.27104 0
M  V30 18727 C 1761.08 3.76272 2.0397 0
M  V30 18728 C 1760.4 4.13491 3.39012 0
M  V30 18729 C 1761.7 5.03274 1.39688 0
M  V30 18730 H 1763.4 2.94683 0.529366 0
M  V30 18731 H 1760.94 1.41757 0.253187 0
M  V30 18732 H 1762.89 2.99359 2.96585 0
M  V30 18733 H 1761.62 1.77082 2.74426 0
M  V30 18734 H 1760.28 3.40074 1.36913 0
M  V30 18735 H 1759.93 3.24831 3.8405 0
M  V30 18736 H 1759.63 4.89972 3.24347 0
M  V30 18737 H 1761.15 4.52657 4.09797 0
M  V30 18738 H 1762.56 5.37604 1.99136 0
M  V30 18739 H 1760.96 5.84604 1.3549 0
M  V30 18740 H 1762.03 4.8351 0.366928 0
M  V30 18741 N 1763.37 -0.266145 1.55336 0
M  V30 18742 C 1764.32 -1.32914 1.88686 0
M  V30 18743 C 1765.29 -1.48752 0.739048 0
M  V30 18744 O 1766.48 -1.63048 0.990951 0
M  V30 18745 C 1763.62 -2.68317 2.17026 0
M  V30 18746 C 1762.73 -2.60644 3.44512 0
M  V30 18747 C 1761.86 -3.88271 3.62517 0
M  V30 18748 C 1760.9 -3.75137 4.83672 0
M  V30 18749 N 1760.04 -4.94614 4.98299 0
M  V30 18750 H 1764.88 -1.03774 2.79347 0
M  V30 18751 H 1762.42 -0.501205 1.38298 0
M  V30 18752 H 1764.37 -3.47107 2.31458 0
M  V30 18753 H 1763 -2.95645 1.29591 0
M  V30 18754 H 1762.06 -1.73527 3.38515 0
M  V30 18755 H 1763.37 -2.46842 4.3344 0
M  V30 18756 H 1762.52 -4.75503 3.76804 0
M  V30 18757 H 1761.26 -4.04949 2.71787 0
M  V30 18758 H 1760.27 -2.86289 4.69381 0
M  V30 18759 H 1761.49 -3.59973 5.75844 0
M  V30 18760 H 1759.44 -5.11689 4.10501 0
M  V30 18761 H 1759.35 -4.83369 5.81284 0
M  V30 18762 H 1760.62 -5.83399 5.16978 0
M  V30 18763 N 1764.85 -1.48386 -0.530967 0
M  V30 18764 C 1766.13 -1.46843 -1.29215 0
M  V30 18765 C 1766.51 -0.179567 -2.10335 0
M  V30 18766 O 1765.86 0.838706 -2.12551 0
M  V30 18767 C 1766.07 -2.72983 -2.17443 0
M  V30 18768 C 1767.41 -3.21271 -2.77615 0
M  V30 18769 O 1768.44 -2.73893 -2.2773 0
M  V30 18770 O 1767.3 -4.03709 -3.68349 0
M  V30 18771 H 1764.39 -0.586393 -0.583157 0
M  V30 18772 H 1766.94 -1.60619 -0.547702 0
M  V30 18773 H 1765.71 -3.58301 -1.57278 0
M  V30 18774 H 1765.33 -2.61922 -2.99137 0
M  V30 18775 N 1766.33 0.779763 -1.36958 0
M  V30 18776 C 1767.28 1.89278 -1.32071 0
M  V30 18777 C 1768.25 1.65037 -0.18766 0
M  V30 18778 O 1769.43 1.87064 -0.375736 0
M  V30 18779 C 1766.57 3.2623 -1.12552 0
M  V30 18780 C 1765.68 3.62479 -2.35017 0
M  V30 18781 C 1764.82 4.88599 -2.08434 0
M  V30 18782 C 1763.86 5.17555 -3.26808 0
M  V30 18783 N 1763 6.3486 -2.99828 0
M  V30 18784 H 1767.84 1.9279 -2.27235 0
M  V30 18785 H 1765.37 0.942656 -1.12927 0
M  V30 18786 H 1767.33 4.0522 -0.992595 0
M  V30 18787 H 1765.96 3.22114 -0.210387 0
M  V30 18788 H 1765.01 2.78536 -2.59079 0
M  V30 18789 H 1766.32 3.7982 -3.23324 0
M  V30 18790 H 1765.48 5.75476 -1.92127 0
M  V30 18791 H 1764.22 4.73346 -1.17453 0
M  V30 18792 H 1763.22 4.29156 -3.43664 0
M  V30 18793 H 1764.45 5.34721 -4.18629 0
M  V30 18794 H 1762.39 6.20981 -2.11468 0
M  V30 18795 H 1762.31 6.52579 -3.81676 0
M  V30 18796 H 1763.58 7.24695 -2.8712 0
M  V30 18797 N 1767.81 1.21396 1.00503 0
M  V30 18798 C 1769.06 1.02913 1.73935 0
M  V30 18799 C 1769.38 -0.438329 1.9001 0
M  V30 18800 O 1768.65 -1.31618 1.45098 0
M  V30 18801 H 1767.23 0.377813 0.644412 0
M  V30 18802 H 1769.89 1.52704 1.21109 0
M  V30 18803 H 1768.98 1.49705 2.73852 0
M  V30 18804 N 1769.29 -1.19996 1.0217 0
M  V30 18805 C 1770.51 -1.94007 0.733207 0
M  V30 18806 C 1770.94 -1.74565 -0.70061 0
M  V30 18807 O 1770.29 -1.04326 -1.48276 0
M  V30 18808 C 1770.34 -3.44029 1.08057 0
M  V30 18809 O 1769.45 -4.11938 0.195135 0
M  V30 18810 H 1768.79 -0.605929 0.271562 0
M  V30 18811 H 1771.32 -1.5228 1.36645 0
M  V30 18812 H 1771.33 -3.94669 1.03443 0
M  V30 18813 H 1770 -3.57502 2.1252 0
M  V30 18814 H 1768.58 -3.71697 0.299246 0
M  V30 18815 N 1770.76 -0.798611 -1.35867 0
M  V30 18816 C 1772.17 -0.437243 -1.81508 0
M  V30 18817 C 1772.53 1.03987 -1.66376 0
M  V30 18818 O 1771.65 1.80751 -1.18988 0
M  V30 18819 C 1772.25 -0.786865 -3.29536 0
M  V30 18820 C 1770.8 -0.478204 -3.7335 0
M  V30 18821 C 1769.95 -1.01668 -2.5799 0
M  V30 18822 H 1772.9 -0.990957 -1.23959 0
M  V30 18823 H 1772.92 -0.0813864 -3.80413 0
M  V30 18824 H 1772.44 -1.86198 -3.40517 0
M  V30 18825 H 1770.54 0.588503 -3.67923 0
M  V30 18826 H 1770.65 -1.00525 -4.68435 0
M  V30 18827 H 1769.01 -0.439417 -2.50881 0
M  V30 18828 H 1769.8 -2.09775 -2.71753 0
M  V30 18829 N 1772.24 1.47639 -0.551417 0
M  V30 18830 C 1773.19 2.26938 0.219798 0
M  V30 18831 C 1774.18 1.34006 0.890571 0
M  V30 18832 O 1775.37 1.584 0.789834 0
M  V30 18833 C 1772.5 3.19625 1.25279 0
M  V30 18834 C 1771.58 4.20036 0.585724 0
M  V30 18835 N 1771.97 5.0465 -0.34089 0
M  V30 18836 C 1770.27 4.38012 0.840352 0
M  V30 18837 C 1770.97 5.77129 -0.727814 0
M  V30 18838 N 1769.95 5.43535 -0.0839681 0
M  V30 18839 H 1773.75 2.8974 -0.492729 0
M  V30 18840 H 1771.26 1.58107 -0.370943 0
M  V30 18841 H 1773.26 3.75114 1.8192 0
M  V30 18842 H 1771.92 2.5838 1.96647 0
M  V30 18843 H 1772.93 5.12944 -0.71473 0
M  V30 18844 H 1769.61 3.87941 1.54298 0
M  V30 18845 H 1771 6.55196 -1.48888 0
M  V30 18846 N 1773.72 0.287581 1.54954 0
M  V30 18847 C 1774.95 -0.331442 2.04735 0
M  V30 18848 C 1775.37 -1.47752 1.16409 0
M  V30 18849 O 1774.73 -1.80545 0.165297 0
M  V30 18850 C 1774.78 -0.778123 3.52105 0
M  V30 18851 O 1773.88 -1.88422 3.66839 0
M  V30 18852 H 1773.22 -0.0666173 0.66065 0
M  V30 18853 H 1775.75 0.425516 2.00126 0
M  V30 18854 H 1775.76 -1.07054 3.93705 0
M  V30 18855 H 1774.44 0.0603184 4.15856 0
M  V30 18856 H 1773.01 -1.59338 3.37144 0
M  V30 18857 N 1775.2 -1.57593 0.0150662 0
M  V30 18858 C 1776.11 -2.12807 -0.987437 0
M  V30 18859 C 1777.12 -1.07691 -1.3667 0
M  V30 18860 O 1778.3 -1.39674 -1.45097 0
M  V30 18861 C 1775.37 -2.63276 -2.2558 0
M  V30 18862 C 1774.43 -3.83053 -1.93827 0
M  V30 18863 C 1773.66 -4.31106 -3.14616 0
M  V30 18864 O 1773.88 -3.78405 -4.26809 0
M  V30 18865 O 1772.82 -5.23104 -2.97734 0
M  V30 18866 H 1776.64 -2.98715 -0.548015 0
M  V30 18867 H 1774.23 -1.47991 -0.20469 0
M  V30 18868 H 1776.11 -2.95869 -3.00066 0
M  V30 18869 H 1774.78 -1.80459 -2.68731 0
M  V30 18870 H 1773.69 -3.55409 -1.1677 0
M  V30 18871 H 1775.02 -4.6699 -1.55502 0
M  V30 18872 N 1776.68 0.257904 -1.55475 0
M  V30 18873 C 1777.9 1.00531 -1.80834 0
M  V30 18874 C 1778.32 1.79369 -0.589263 0
M  V30 18875 O 1777.68 1.77068 0.441935 0
M  V30 18876 C 1777.73 1.95194 -3.04272 0
M  V30 18877 O 1777.45 1.19548 -4.21473 0
M  V30 18878 C 1778.95 2.81624 -3.42349 0
M  V30 18879 H 1776.17 0.296315 -0.602029 0
M  V30 18880 H 1778.71 0.284118 -2.02517 0
M  V30 18881 H 1776.87 2.62756 -2.84672 0
M  V30 18882 H 1777.28 1.83483 -4.9136 0
M  V30 18883 H 1778.76 3.43815 -4.31851 0
M  V30 18884 H 1779.23 3.52172 -2.62434 0
M  V30 18885 H 1779.84 2.19531 -3.64261 0
M  V30 18886 N 1778.15 1.48666 0.52309 0
M  V30 18887 C 1779.38 1.60965 1.30787 0
M  V30 18888 C 1779.8 0.272663 1.86113 0
M  V30 18889 O 1779.16 -0.756662 1.64755 0
M  V30 18890 C 1779.21 2.66455 2.42969 0
M  V30 18891 O 1778.31 2.24094 3.46202 0
M  V30 18892 H 1777.66 0.539516 0.387064 0
M  V30 18893 H 1780.19 1.94702 0.628683 0
M  V30 18894 H 1780.2 2.87942 2.89056 0
M  V30 18895 H 1778.87 3.63516 2.02062 0
M  V30 18896 H 1777.45 2.12848 3.06186 0
M  V30 18897 N 1779.63 -0.772489 1.37369 0
M  V30 18898 C 1780.54 -1.91679 1.35263 0
M  V30 18899 C 1781.56 -1.72161 0.252321 0
M  V30 18900 O 1782.73 -1.95409 0.487581 0
M  V30 18901 C 1779.8 -3.26792 1.15792 0
M  V30 18902 C 1778.86 -3.5897 2.35455 0
M  V30 18903 C 1778.09 -4.87636 2.16903 0
M  V30 18904 O 1778.32 -5.58627 1.15291 0
M  V30 18905 O 1777.25 -5.18859 3.05072 0
M  V30 18906 H 1781.08 -1.96408 2.31641 0
M  V30 18907 H 1778.66 -0.915136 1.18092 0
M  V30 18908 H 1780.54 -4.07611 1.06918 0
M  V30 18909 H 1779.22 -3.22918 0.224872 0
M  V30 18910 H 1778.13 -2.78389 2.49901 0
M  V30 18911 H 1779.46 -3.67586 3.27325 0
M  V30 18912 N 1781.11 -1.21927 -0.998575 0
M  V30 18913 C 1782.53 -0.978007 -1.26124 0
M  V30 18914 C 1782.73 0.3318 -1.98749 0
M  V30 18915 O 1781.78 1.05585 -2.29364 0
M  V30 18916 C 1783.1 -2.17291 -2.07858 0
M  V30 18917 C 1784.64 -2.21586 -2.21062 0
M  V30 18918 C 1785.12 -3.40613 -3.06181 0
M  V30 18919 N 1786.61 -3.40739 -3.13769 0
M  V30 18920 C 1787.34 -4.29488 -3.79905 0
M  V30 18921 N 1786.84 -5.28445 -4.48015 0
M  V30 18922 N 1788.63 -4.17279 -3.76609 0
M  V30 18923 H 1780.78 -2.06149 -0.51151 0
M  V30 18924 H 1783.05 -0.903039 -0.288487 0
M  V30 18925 H 1782.75 -3.12246 -1.61851 0
M  V30 18926 H 1782.63 -2.16883 -3.08612 0
M  V30 18927 H 1785.01 -1.27183 -2.66286 0
M  V30 18928 H 1785.1 -2.26035 -1.19757 0
M  V30 18929 H 1784.74 -4.35313 -2.61659 0
M  V30 18930 H 1784.67 -3.33403 -4.07615 0
M  V30 18931 H 1787.16 -2.69128 -2.65289 0
M  V30 18932 H 1787.47 -5.92454 -4.96203 0
M  V30 18933 H 1785.82 -5.32364 -4.46782 0
M  V30 18934 H 1789.01 -3.39226 -3.22557 0
M  V30 18935 H 1789.18 -4.86651 -4.27873 0
M  V30 18936 N 1782.59 1.19452 -1.02805 0
M  V30 18937 C 1783.82 1.92795 -0.742546 0
M  V30 18938 C 1784.23 1.75678 0.702418 0
M  V30 18939 O 1783.57 1.07547 1.48927 0
M  V30 18940 C 1783.63 3.44934 -1.01296 0
M  V30 18941 C 1783.3 3.85821 -2.44931 0
M  V30 18942 C 1784.29 3.90645 -3.43063 0
M  V30 18943 C 1781.98 4.17483 -2.79309 0
M  V30 18944 C 1783.97 4.26561 -4.73629 0
M  V30 18945 C 1781.66 4.53071 -4.10085 0
M  V30 18946 C 1782.66 4.57584 -5.07056 0
M  V30 18947 O 1782.34 4.9235 -6.35489 0
M  V30 18948 H 1782.08 0.619261 -0.271094 0
M  V30 18949 H 1784.63 1.5256 -1.37531 0
M  V30 18950 H 1782.86 3.85348 -0.323051 0
M  V30 18951 H 1784.55 3.99513 -0.717246 0
M  V30 18952 H 1785.32 3.66335 -3.17842 0
M  V30 18953 H 1781.19 4.13154 -2.0451 0
M  V30 18954 H 1784.74 4.29998 -5.49315 0
M  V30 18955 H 1780.64 4.76839 -4.3508 0
M  V30 18956 H 1781.4 5.10301 -6.39949 0
M  V30 18957 N 1784.07 0.805805 1.35442 0
M  V30 18958 C 1785.48 0.489448 1.5191 0
M  V30 18959 C 1785.68 -0.989485 1.75532 0
M  V30 18960 O 1784.74 -1.77453 1.79629 0
M  V30 18961 C 1786.05 1.33413 2.69484 0
M  V30 18962 C 1787.6 1.32949 2.83361 0
M  V30 18963 C 1788.07 2.15827 4.03959 0
M  V30 18964 N 1789.57 2.13359 4.11135 0
M  V30 18965 C 1790.3 2.74245 5.03564 0
M  V30 18966 N 1789.8 3.44055 6.0133 0
M  V30 18967 N 1791.59 2.63891 4.96304 0
M  V30 18968 H 1783.74 1.76361 1.18366 0
M  V30 18969 H 1786 0.750594 0.579062 0
M  V30 18970 H 1785.71 2.38364 2.58603 0
M  V30 18971 H 1785.58 0.986809 3.64063 0
M  V30 18972 H 1787.97 0.287837 2.93693 0
M  V30 18973 H 1788.05 1.71668 1.89641 0
M  V30 18974 H 1787.7 3.20033 3.94388 0
M  V30 18975 H 1787.63 1.74469 4.96858 0
M  V30 18976 H 1790.12 1.62566 3.41146 0
M  V30 18977 H 1790.43 3.87802 6.68453 0
M  V30 18978 H 1788.77 3.48159 6.01507 0
M  V30 18979 H 1791.97 2.08941 4.18881 0
M  V30 18980 H 1792.14 3.11631 5.68146 0
M  V30 18981 N 1785.54 -1.47344 0.559239 0
M  V30 18982 C 1786.48 -2.28095 -0.224826 0
M  V30 18983 C 1787.49 -1.37127 -0.877492 0
M  V30 18984 O 1788.68 -1.61933 -0.751002 0
M  V30 18985 C 1785.78 -3.1145 -1.33611 0
M  V30 18986 C 1784.95 -4.30392 -0.779845 0
M  V30 18987 C 1784.01 -4.95327 -1.77587 0
M  V30 18988 O 1783.04 -5.53654 -1.32119 0
M  V30 18989 N 1784.24 -4.90206 -3.10931 0
M  V30 18990 H 1787 -2.96026 0.46786 0
M  V30 18991 H 1784.56 -1.56996 0.395448 0
M  V30 18992 H 1786.56 -3.51758 -2.00121 0
M  V30 18993 H 1785.13 -2.45749 -1.932 0
M  V30 18994 H 1784.35 -3.94151 0.0620861 0
M  V30 18995 H 1785.63 -5.07322 -0.387581 0
M  V30 18996 H 1785.03 -4.44022 -3.50515 0
M  V30 18997 H 1783.59 -5.34527 -3.72994 0
M  V30 18998 N 1787.02 -0.295795 -1.54799 0
M  V30 18999 C 1787.97 0.598403 -2.24771 0
M  V30 19000 C 1788.96 1.14123 -1.25189 0
M  V30 19001 O 1790.17 1.09248 -1.43056 0
M  V30 19002 H 1786.55 0.21157 -0.721625 0
M  V30 19003 H 1788.52 -0.0143437 -2.98397 0
M  V30 19004 C 1787.27 1.76132 -2.99788 0
M  V30 19005 H 1786.59 1.35284 -3.76216 0
M  V30 19006 H 1788.03 2.36317 -3.52037 0
M  V30 19007 C 1786.49 2.6623 -2.06453 0
M  V30 19008 O 1787.02 3.67179 -1.62918 0
M  V30 19009 N 1785.22 2.3385 -1.72518 0
M  V30 19010 H 1784.77 1.51804 -2.08119 0
M  V30 19011 H 1784.73 2.944 -1.10344 0
M  V30 19012 N 1788.5 1.57583 -0.0234236 0
M  V30 19013 C 1789.73 1.96267 0.670371 0
M  V30 19014 C 1790.15 0.899586 1.65194 0
M  V30 19015 O 1789.51 -0.140079 1.80758 0
M  V30 19016 C 1789.56 3.34049 1.35806 0
M  V30 19017 O 1788.66 3.3001 2.4732 0
M  V30 19018 H 1788 0.640097 0.176557 0
M  V30 19019 H 1790.53 2.04429 -0.0835829 0
M  V30 19020 H 1790.54 3.70151 1.71616 0
M  V30 19021 H 1789.22 4.10969 0.63852 0
M  V30 19022 H 1787.79 3.05618 2.13664 0
M  V30 19023 N 1789.98 -0.249655 1.5561 0
M  V30 19024 C 1791.21 -0.995707 1.81365 0
M  V30 19025 C 1791.62 -1.79054 0.598767 0
M  V30 19026 O 1790.98 -1.773 -0.432538 0
M  V30 19027 C 1791.03 -1.93577 3.05303 0
M  V30 19028 O 1790.75 -1.17311 4.22102 0
M  V30 19029 C 1792.25 -2.79804 3.43838 0
M  V30 19030 H 1789.47 -0.293118 0.603591 0
M  V30 19031 H 1792.02 -0.273374 2.02665 0
M  V30 19032 H 1790.17 -2.61242 2.86062 0
M  V30 19033 H 1790.59 -1.80875 4.92326 0
M  V30 19034 H 1792.06 -3.4152 4.33668 0
M  V30 19035 H 1792.54 -3.50776 2.64298 0
M  V30 19036 H 1793.14 -2.17596 3.6542 0
M  V30 19037 N 1791.46 -1.48941 -0.515198 0
M  V30 19038 C 1792.41 -1.60958 -1.61482 0
M  V30 19039 C 1793.39 -0.46591 -1.54007 0
M  V30 19040 O 1794.58 -0.718134 -1.61777 0
M  V30 19041 C 1791.71 -1.66623 -3.00153 0
M  V30 19042 C 1790.8 -2.8652 -3.12677 0
M  V30 19043 N 1791.19 -4.10769 -2.95131 0
M  V30 19044 C 1789.49 -2.84161 -3.43756 0
M  V30 19045 C 1790.19 -4.9129 -3.11463 0
M  V30 19046 N 1789.16 -4.24384 -3.39704 0
M  V30 19047 H 1792.97 -2.54756 -1.46549 0
M  V30 19048 H 1790.48 -1.45517 -0.721007 0
M  V30 19049 H 1792.48 -1.73328 -3.79161 0
M  V30 19050 H 1791.14 -0.739523 -3.16166 0
M  V30 19051 H 1792.15 -4.40974 -2.71593 0
M  V30 19052 H 1788.83 -2.00809 -3.66035 0
M  V30 19053 H 1790.22 -5.99948 -3.0251 0
M  V30 19054 N 1792.94 0.765193 -1.37777 0
M  V30 19055 C 1794.18 1.53692 -1.34752 0
M  V30 19056 C 1794.54 1.91888 0.0655965 0
M  V30 19057 O 1795.74 2.67893 0.220628 0
M  V30 19058 C 1794.01 2.76363 -2.26623 0
M  V30 19059 S 1795.57 3.66358 -2.4151 0
M  V30 19060 H 1792.39 0.526091 -0.478277 0
M  V30 19061 H 1794.99 0.899252 -1.73591 0
M  V30 19062 H 1793.69 2.46393 -3.28205 0
M  V30 19063 H 1793.23 3.45085 -1.88892 0
M  V30 19064 H 1795.24 4.68644 -1.63055 0
M  V30 19065 N 1794.41 1.22455 0.992094 0
M  V30 19066 C 1795.83 0.984682 1.25603 0
M  V30 19067 C 1796.03 -0.321255 1.98923 0
M  V30 19068 O 1795.09 -1.04367 2.29921 0
M  V30 19069 C 1796.4 2.1839 2.06703 0
M  V30 19070 C 1797.95 2.22755 2.19884 0
M  V30 19071 C 1798.42 3.42232 3.04371 0
M  V30 19072 N 1799.91 3.42398 3.11958 0
M  V30 19073 C 1800.65 4.31497 3.77622 0
M  V30 19074 N 1800.14 5.30814 4.45206 0
M  V30 19075 N 1801.94 4.1927 3.74391 0
M  V30 19076 H 1794.09 2.06417 0.50057 0
M  V30 19077 H 1796.35 0.904556 0.283693 0
M  V30 19078 H 1796.06 3.13099 1.60192 0
M  V30 19079 H 1795.93 2.18517 3.07458 0
M  V30 19080 H 1798.32 1.28593 2.65608 0
M  V30 19081 H 1798.4 2.26667 1.18557 0
M  V30 19082 H 1798.04 4.36694 2.59346 0
M  V30 19083 H 1797.97 3.3556 4.05841 0
M  V30 19084 H 1800.46 2.70531 2.63858 0
M  V30 19085 H 1800.78 5.95078 4.93054 0
M  V30 19086 H 1799.12 5.34726 4.43952 0
M  V30 19087 H 1802.31 3.40932 3.20753 0
M  V30 19088 H 1802.49 4.88913 4.25286 0
M  V30 19089 N 1795.89 -1.18905 1.03437 0
M  V30 19090 C 1797.12 -1.93219 0.753743 0
M  V30 19091 C 1797.54 -1.75299 -0.682055 0
M  V30 19092 O 1796.9 -1.05892 -1.47161 0
M  V30 19093 C 1796.95 -3.42864 1.117 0
M  V30 19094 O 1796.05 -4.11708 0.238816 0
M  V30 19095 H 1795.39 -0.603015 0.277973 0
M  V30 19096 H 1797.92 -1.50823 1.38252 0
M  V30 19097 H 1797.93 -3.9355 1.07623 0
M  V30 19098 H 1796.61 -3.55228 2.163 0
M  V30 19099 H 1795.18 -3.71359 0.338652 0
M  V30 19100 N 1797.37 -0.812977 -1.35013 0
M  V30 19101 C 1798.61 -0.402068 -2.00407 0
M  V30 19102 C 1798.97 1.01337 -1.63079 0
M  V30 19103 O 1800.17 1.52663 -2.21241 0
M  V30 19104 C 1798.45 -0.587029 -3.52546 0
M  V30 19105 S 1800 -0.267491 -4.37984 0
M  V30 19106 H 1796.82 -0.152383 -0.694479 0
M  V30 19107 H 1799.42 -1.05662 -1.64486 0
M  V30 19108 H 1798.13 -1.61704 -3.772 0
M  V30 19109 H 1797.66 0.0826178 -3.93313 0
M  V30 19110 H 1799.67 0.922508 -4.87549 0
M  V30 19111 N 1798.85 1.47045 -0.567045 0
M  V30 19112 C 1799.78 2.32929 0.163191 0
M  V30 19113 C 1800.76 1.44393 0.899142 0
M  V30 19114 O 1801.94 1.73235 0.87768 0
M  V30 19115 C 1799.07 3.26369 1.18745 0
M  V30 19116 C 1798.03 4.24223 0.567335 0
M  V30 19117 C 1797.35 5.07058 1.69693 0
M  V30 19118 C 1798.65 5.2004 -0.485319 0
M  V30 19119 H 1800.35 2.94233 -0.553837 0
M  V30 19120 H 1797.89 1.41488 -0.267789 0
M  V30 19121 H 1799.85 3.85299 1.70654 0
M  V30 19122 H 1798.57 2.6314 1.93455 0
M  V30 19123 H 1797.23 3.66534 0.0694525 0
M  V30 19124 H 1796.88 4.40226 2.43331 0
M  V30 19125 H 1796.58 5.73316 1.28774 0
M  V30 19126 H 1798.1 5.68848 2.2191 0
M  V30 19127 H 1799.52 5.73277 -0.0519049 0
M  V30 19128 H 1797.91 5.94554 -0.813942 0
M  V30 19129 H 1798.98 4.64921 -1.37754 0
M  V30 19130 N 1800.33 0.304 1.5464 0
M  V30 19131 C 1801.55 -0.309709 2.05075 0
M  V30 19132 C 1801.98 -1.46509 1.1797 0
M  V30 19133 O 1801.33 -1.80359 0.184437 0
M  V30 19134 C 1801.38 -0.740734 3.5291 0
M  V30 19135 O 1800.49 -1.8452 3.68817 0
M  V30 19136 H 1799.83 -0.0596065 0.661319 0
M  V30 19137 H 1802.36 0.446718 1.99664 0
M  V30 19138 H 1802.37 -1.02873 3.94818 0
M  V30 19139 H 1801.04 0.104422 4.15769 0
M  V30 19140 H 1799.62 -1.55753 3.38815 0
M  V30 19141 N 1801.8 -1.57568 0.0317802 0
M  V30 19142 C 1802.75 -2.11538 -0.967175 0
M  V30 19143 C 1803.75 -1.04258 -1.33516 0
M  V30 19144 O 1804.95 -1.2269 -1.31709 0
M  V30 19145 H 1801.33 -0.675877 -0.329687 0
M  V30 19146 H 1803.3 -2.94404 -0.486695 0
M  V30 19147 C 1802.05 -2.65973 -2.2395 0
M  V30 19148 H 1801.37 -3.48172 -1.96509 0
M  V30 19149 H 1802.81 -3.07379 -2.92052 0
M  V30 19150 C 1801.27 -1.5884 -2.97105 0
M  V30 19151 O 1801.8 -0.989784 -3.89315 0
M  V30 19152 N 1800 -1.30821 -2.59488 0
M  V30 19153 H 1799.55 -1.79687 -1.84581 0
M  V30 19154 H 1799.51 -0.593658 -3.08744 0
M  V30 19155 N 1803.28 0.241399 -1.5574 0
M  V30 19156 C 1804.22 1.32551 -1.85757 0
M  V30 19157 C 1805.19 1.46127 -0.713133 0
M  V30 19158 O 1806.38 1.62255 -0.959459 0
M  V30 19159 C 1803.5 2.69835 -2.04712 0
M  V30 19160 C 1802.55 2.73379 -3.27363 0
M  V30 19161 S 1803.38 2.29435 -4.83859 0
M  V30 19162 C 1804.54 3.68633 -5.05827 0
M  V30 19163 H 1804.77 1.06892 -2.77419 0
M  V30 19164 H 1802.31 0.44266 -1.47918 0
M  V30 19165 H 1804.26 3.4888 -2.16317 0
M  V30 19166 H 1802.92 2.92728 -1.13882 0
M  V30 19167 H 1802.12 3.74214 -3.37609 0
M  V30 19168 H 1801.72 2.02382 -3.14512 0
M  V30 19169 H 1804.01 4.64173 -4.93507 0
M  V30 19170 H 1804.95 3.63317 -6.07788 0
M  V30 19171 H 1805.36 3.61401 -4.33647 0
M  V30 19172 N 1804.76 1.49212 0.507292 0
M  V30 19173 C 1806.17 1.51655 1.08892 0
M  V30 19174 C 1806.52 0.299163 1.93906 0
M  V30 19175 O 1805.65 -0.591635 2.08155 0
M  V30 19176 C 1806.24 2.7481 1.98154 0
M  V30 19177 C 1804.8 2.80051 2.51492 0
M  V30 19178 C 1803.95 2.45486 1.28966 0
M  V30 19179 H 1806.9 1.56 0.291488 0
M  V30 19180 H 1806.92 2.54615 2.82757 0
M  V30 19181 H 1806.43 3.63396 1.36253 0
M  V30 19182 H 1804.53 1.95729 3.1705 0
M  V30 19183 H 1804.65 3.82064 2.89075 0
M  V30 19184 H 1803.01 1.97128 1.61284 0
M  V30 19185 H 1803.79 3.36339 0.687821 0
M  V30 19186 N 1806.24 -0.757876 1.38181 0
M  V30 19187 C 1807.47 -1.54709 1.37378 0
M  V30 19188 C 1807.88 -1.88763 -0.0375087 0
M  V30 19189 O 1807.24 -1.52467 -1.00299 0
M  V30 19190 C 1807.29 -2.84887 2.22535 0
M  V30 19191 O 1807.01 -2.52287 3.58166 0
M  V30 19192 C 1808.51 -3.79048 2.29865 0
M  V30 19193 H 1805.73 -0.478845 0.470052 0
M  V30 19194 H 1808.28 -0.938283 1.81704 0
M  V30 19195 H 1806.43 -3.42156 1.81682 0
M  V30 19196 H 1806.84 -3.35747 4.02957 0
M  V30 19197 H 1808.32 -4.67353 2.93744 0
M  V30 19198 H 1808.8 -4.19175 1.31106 0
M  V30 19199 H 1809.4 -3.27704 2.7109 0
M  V30 19200 N 1807.72 -1.22979 -0.985586 0
M  V30 19201 C 1808.95 -1.08372 -1.75895 0
M  V30 19202 C 1809.35 0.368113 -1.85584 0
M  V30 19203 O 1808.7 1.26663 -1.3305 0
M  V30 19204 C 1808.76 -1.62873 -3.20488 0
M  V30 19205 C 1808.42 -3.11572 -3.34323 0
M  V30 19206 C 1809.42 -4.08923 -3.21058 0
M  V30 19207 C 1807.11 -3.51176 -3.59139 0
M  V30 19208 C 1809.1 -5.43862 -3.32404 0
M  V30 19209 C 1806.79 -4.86262 -3.70125 0
M  V30 19210 C 1807.78 -5.82414 -3.56767 0
M  V30 19211 O 1807.47 -7.15046 -3.67374 0
M  V30 19212 H 1807.2 -0.380128 -0.558998 0
M  V30 19213 H 1809.76 -1.63191 -1.24731 0
M  V30 19214 H 1807.99 -1.0247 -3.72876 0
M  V30 19215 H 1809.68 -1.43819 -3.79567 0
M  V30 19216 H 1810.44 -3.79669 -3.01789 0
M  V30 19217 H 1806.32 -2.76853 -3.6861 0
M  V30 19218 H 1809.87 -6.18894 -3.21895 0
M  V30 19219 H 1805.76 -5.15194 -3.88903 0
M  V30 19220 H 1806.53 -7.22725 -3.84202 0
M  V30 19221 N 1809.19 1.18355 -1.04066 0
M  V30 19222 C 1810.42 1.92816 -0.763979 0
M  V30 19223 C 1810.84 1.75658 0.672749 0
M  V30 19224 O 1810.2 1.06671 1.46598 0
M  V30 19225 C 1810.25 3.42267 -1.13516 0
M  V30 19226 O 1809.35 4.11576 -0.260646 0
M  V30 19227 H 1808.7 0.601532 -0.281167 0
M  V30 19228 H 1811.23 1.50087 -1.3905 0
M  V30 19229 H 1811.24 3.92973 -1.09709 0
M  V30 19230 H 1809.91 3.54076 -2.18181 0
M  V30 19231 H 1808.49 3.71174 -0.358342 0
M  V30 19232 N 1810.67 0.820125 1.3458 0
M  V30 19233 C 1811.92 0.406067 1.97979 0
M  V30 19234 C 1812.24 -1.03366 1.65349 0
M  V30 19235 O 1811.51 -1.71721 0.942798 0
M  V30 19236 H 1810.09 0.147162 0.732361 0
M  V30 19237 H 1812.75 1.04895 1.64265 0
M  V30 19238 H 1811.85 0.52279 3.0769 0
M  V30 19239 N 1812.15 -1.46743 0.574835 0
M  V30 19240 C 1813.1 -2.27259 -0.183667 0
M  V30 19241 C 1814.08 -1.35406 -0.869139 0
M  V30 19242 O 1815.28 -1.59637 -0.764534 0
M  V30 19243 C 1812.41 -3.21578 -1.20178 0
M  V30 19244 C 1811.49 -4.20914 -0.518826 0
M  V30 19245 N 1811.88 -5.04044 0.421132 0
M  V30 19246 C 1810.18 -4.39293 -0.770561 0
M  V30 19247 C 1810.88 -5.75898 0.819539 0
M  V30 19248 N 1809.86 -5.43333 0.170429 0
M  V30 19249 H 1813.66 -2.8892 0.538761 0
M  V30 19250 H 1811.17 -1.57497 0.396049 0
M  V30 19251 H 1813.17 -3.77961 -1.75929 0
M  V30 19252 H 1811.83 -2.61476 -1.92511 0
M  V30 19253 H 1812.84 -5.11742 0.796245 0
M  V30 19254 H 1809.52 -3.90347 -1.48107 0
M  V30 19255 H 1810.91 -6.52745 1.59293 0
M  V30 19256 N 1813.63 -0.312197 -1.54477 0
M  V30 19257 C 1814.88 0.293772 -2.00358 0
M  V30 19258 C 1815.2 1.5303 -1.2005 0
M  V30 19259 O 1814.46 1.93861 -0.267678 0
M  V30 19260 C 1814.76 0.684057 -3.50793 0
M  V30 19261 C 1814.42 -0.452004 -4.48629 0
M  V30 19262 C 1813.09 -0.763853 -4.75099 0
M  V30 19263 C 1815.44 -1.21567 -5.06824 0
M  V30 19264 C 1812.77 -1.84229 -5.57025 0
M  V30 19265 C 1815.12 -2.28412 -5.89924 0
M  V30 19266 C 1813.78 -2.60191 -6.14701 0
M  V30 19267 H 1813.05 0.107499 -0.733161 0
M  V30 19268 H 1815.7 -0.433618 -1.86526 0
M  V30 19269 H 1814 1.4917 -3.62292 0
M  V30 19270 H 1815.7 1.16428 -3.83726 0
M  V30 19271 H 1812.29 -0.198857 -4.28138 0
M  V30 19272 H 1816.47 -0.988007 -4.86366 0
M  V30 19273 H 1811.73 -2.09311 -5.74455 0
M  V30 19274 H 1815.9 -2.88037 -6.34041 0
M  V30 19275 H 1813.53 -3.43887 -6.77972 0
M  V30 19276 N 1815.11 1.57549 -0.040136 0
M  V30 19277 C 1816.33 1.96557 0.645986 0
M  V30 19278 C 1816.75 0.91717 1.65026 0
M  V30 19279 O 1816.11 -0.0998395 1.82227 0
M  V30 19280 C 1816.16 3.35641 1.34266 0
M  V30 19281 O 1815.88 4.36461 0.378616 0
M  V30 19282 C 1817.38 3.89344 2.11957 0
M  V30 19283 H 1814.6 0.64713 0.177379 0
M  V30 19284 H 1817.14 2.0424 -0.103167 0
M  V30 19285 H 1815.3 3.29143 2.04312 0
M  V30 19286 H 1815.71 5.17157 0.874592 0
M  V30 19287 H 1817.19 4.88975 2.5614 0
M  V30 19288 H 1817.66 3.24178 2.96319 0
M  V30 19289 H 1818.27 3.99145 1.46845 0
M  V30 19290 N 1816.58 -0.233136 1.55866 0
M  V30 19291 C 1817.52 -1.31564 1.86457 0
M  V30 19292 C 1818.5 -1.45747 0.720872 0
M  V30 19293 O 1819.68 -1.61744 0.968051 0
M  V30 19294 C 1816.81 -2.68745 2.0614 0
M  V30 19295 C 1815.85 -2.71639 3.28808 0
M  V30 19296 S 1816.69 -2.26866 4.85069 0
M  V30 19297 C 1817.84 -3.65945 5.07774 0
M  V30 19298 H 1818.07 -1.05419 2.77982 0
M  V30 19299 H 1815.61 -0.434809 1.48151 0
M  V30 19300 H 1817.57 -3.47728 2.18164 0
M  V30 19301 H 1816.23 -2.9212 1.15433 0
M  V30 19302 H 1815.42 -3.72418 3.39589 0
M  V30 19303 H 1815.02 -2.00711 3.15581 0
M  V30 19304 H 1817.31 -4.61549 4.95962 0
M  V30 19305 H 1818.26 -3.60088 6.09706 0
M  V30 19306 H 1818.66 -3.59096 4.35557 0
M  V30 19307 N 1818.06 -1.49479 -0.499372 0
M  V30 19308 C 1819.48 -1.36278 -0.830692 0
M  V30 19309 C 1819.68 -0.397116 -1.97548 0
M  V30 19310 O 1818.74 0.170614 -2.51923 0
M  V30 19311 C 1820.05 -2.77031 -1.16937 0
M  V30 19312 C 1821.6 -2.85744 -1.27748 0
M  V30 19313 C 1822.07 -4.27267 -1.64944 0
M  V30 19314 N 1823.56 -4.30086 -1.7199 0
M  V30 19315 C 1824.3 -5.36559 -2.02218 0
M  V30 19316 N 1823.79 -6.53275 -2.30659 0
M  V30 19317 N 1825.59 -5.23976 -2.03483 0
M  V30 19318 H 1817.74 -2.10858 0.255497 0
M  V30 19319 H 1820 -0.946588 0.0517184 0
M  V30 19320 H 1819.71 -3.494 -0.401529 0
M  V30 19321 H 1819.58 -3.12501 -2.11242 0
M  V30 19322 H 1821.97 -2.13611 -2.03604 0
M  V30 19323 H 1822.05 -2.53854 -0.314901 0
M  V30 19324 H 1821.69 -4.99927 -0.896384 0
M  V30 19325 H 1821.62 -4.56622 -2.62305 0
M  V30 19326 H 1824.11 -3.45911 -1.52164 0
M  V30 19327 H 1824.43 -7.30241 -2.52918 0
M  V30 19328 H 1822.77 -6.56498 -2.28112 0
M  V30 19329 H 1825.96 -4.31799 -1.80741 0
M  V30 19330 H 1826.14 -6.07049 -2.26707 0
M  V30 19331 N 1819.54 0.750537 -1.38581 0
M  V30 19332 C 1820.77 1.54489 -1.38376 0
M  V30 19333 C 1821.19 1.88085 0.023634 0
M  V30 19334 O 1820.55 1.50794 1.00652 0
M  V30 19335 C 1820.6 2.81875 -2.24897 0
M  V30 19336 O 1819.7 3.77155 -1.66817 0
M  V30 19337 H 1819.04 0.467148 -0.471878 0
M  V30 19338 H 1821.57 0.927264 -1.82381 0
M  V30 19339 H 1821.58 3.30769 -2.38864 0
M  V30 19340 H 1820.26 2.56753 -3.27186 0
M  V30 19341 H 1818.83 3.35868 -1.62009 0
M  V30 19342 N 1821.02 1.235 0.979051 0
M  V30 19343 C 1822.43 1.06263 1.53509 0
M  V30 19344 C 1822.78 -0.369594 1.92687 0
M  V30 19345 O 1821.91 -1.25649 1.76185 0
M  V30 19346 C 1822.5 1.92276 2.78954 0
M  V30 19347 C 1821.06 1.79296 3.30953 0
M  V30 19348 C 1820.21 1.87898 2.03935 0
M  V30 19349 H 1823.16 1.37143 0.798588 0
M  V30 19350 H 1823.18 1.44835 3.51857 0
M  V30 19351 H 1822.69 2.96509 2.50408 0
M  V30 19352 H 1820.79 0.778512 3.64376 0
M  V30 19353 H 1820.91 2.62755 4.0062 0
M  V30 19354 H 1819.27 1.31494 2.18131 0
M  V30 19355 H 1820.05 2.93689 1.77769 0
M  V30 19356 N 1822.5 -1.17802 1.04693 0
M  V30 19357 C 1823.74 -1.87938 0.754024 0
M  V30 19358 C 1824.07 -1.80737 -0.718644 0
M  V30 19359 O 1823.33 -1.20657 -1.54079 0
M  V30 19360 C 1823.63 -3.37585 1.17349 0
M  V30 19361 C 1823.29 -3.6499 2.64751 0
M  V30 19362 C 1821.95 -3.72179 3.05019 0
M  V30 19363 C 1824.31 -3.76869 3.60027 0
M  V30 19364 C 1821.63 -3.88731 4.39437 0
M  V30 19365 C 1823.99 -3.94939 4.94172 0
M  V30 19366 C 1822.65 -4.00365 5.34101 0
M  V30 19367 H 1821.92 -0.687714 0.275917 0
M  V30 19368 H 1824.57 -1.39392 1.31309 0
M  V30 19369 H 1822.87 -3.88153 0.533333 0
M  V30 19370 H 1824.57 -3.90206 0.924134 0
M  V30 19371 H 1821.16 -3.60016 2.32565 0
M  V30 19372 H 1825.34 -3.70641 3.30059 0
M  V30 19373 H 1820.6 -3.91179 4.69882 0
M  V30 19374 H 1824.77 -4.03072 5.67896 0
M  V30 19375 H 1822.4 -4.12944 6.38264 0
M  V30 19376 N 1823.98 -0.827251 -1.34143 0
M  V30 19377 C 1824.92 -0.250166 -2.2944 0
M  V30 19378 C 1825.89 0.62749 -1.53791 0
M  V30 19379 O 1827.08 0.568218 -1.82143 0
M  V30 19380 C 1824.22 0.578392 -3.40219 0
M  V30 19381 C 1823.33 -0.321991 -4.30798 0
M  V30 19382 C 1822.47 0.51655 -5.28683 0
M  V30 19383 C 1821.5 -0.382949 -6.10901 0
M  V30 19384 N 1820.64 0.416774 -7.00862 0
M  V30 19385 H 1825.48 -1.06817 -2.78198 0
M  V30 19386 H 1823.02 -0.538245 -1.36899 0
M  V30 19387 H 1824.98 1.07414 -4.03135 0
M  V30 19388 H 1823.61 1.36147 -2.92684 0
M  V30 19389 H 1822.66 -0.935979 -3.68705 0
M  V30 19390 H 1823.97 -1.01346 -4.88396 0
M  V30 19391 H 1823.12 1.0766 -5.97071 0
M  V30 19392 H 1821.86 1.2415 -4.71633 0
M  V30 19393 H 1820.87 -0.955103 -5.41441 0
M  V30 19394 H 1822.09 -1.10609 -6.70032 0
M  V30 19395 H 1820.04 1.12532 -6.46276 0
M  V30 19396 H 1819.96 -0.216217 -7.55691 0
M  V30 19397 H 1821.22 0.959432 -7.73573 0
M  V30 19398 N 1825.45 1.46436 -0.582609 0
M  V30 19399 C 1826.69 2.04277 -0.0708316 0
M  V30 19400 C 1827.06 1.4443 1.26507 0
M  V30 19401 O 1828.26 1.93472 1.86607 0
M  V30 19402 C 1826.53 3.574 -0.00593413 0
M  V30 19403 S 1828.09 4.36504 0.448283 0
M  V30 19404 H 1824.91 0.710014 -0.0374242 0
M  V30 19405 H 1827.51 1.79479 -0.775084 0
M  V30 19406 H 1826.21 3.98475 -0.982149 0
M  V30 19407 H 1825.74 3.86735 0.721092 0
M  V30 19408 H 1827.76 4.66059 1.70304 0
M  V30 19409 N 1826.93 0.320385 1.54309 0
M  V30 19410 C 1828.21 -0.337248 1.92671 0
M  V30 19411 C 1828.59 -1.70137 1.24967 0
M  V30 19412 O 1827.94 -2.25108 0.39224 0
M  V30 19413 C 1828.15 -0.432633 3.46308 0
M  V30 19414 C 1829.49 -0.694413 4.18883 0
M  V30 19415 O 1830.52 -0.515681 3.52447 0
M  V30 19416 O 1829.38 -1.039 5.36532 0
M  V30 19417 H 1826.47 -0.191985 0.804407 0
M  V30 19418 H 1829.02 0.369866 1.6562 0
M  V30 19419 H 1827.79 0.525553 3.87755 0
M  V30 19420 H 1827.41 -1.18745 3.79454 0
M  V30 19421 N 1828.41 -1.57525 0.0484906 0
M  V30 19422 C 1829.37 -2.10275 -0.911987 0
M  V30 19423 C 1830.37 -1.02178 -1.24163 0
M  V30 19424 O 1831.56 -1.28262 -1.17875 0
M  V30 19425 C 1828.69 -2.58475 -2.22269 0
M  V30 19426 H 1829.89 -2.96432 -0.454768 0
M  V30 19427 H 1827.44 -1.55017 -0.19987 0
M  V30 19428 H 1828.18 -1.75704 -2.72578 0
M  V30 19429 H 1827.96 -3.37466 -1.99648 0
M  V30 19430 H 1829.45 -2.99443 -2.91074 0
M  V30 19431 N 1829.89 0.224867 -1.55988 0
M  V30 19432 C 1831.13 0.956853 -1.8062 0
M  V30 19433 C 1831.49 1.81663 -0.621483 0
M  V30 19434 O 1832.69 2.58211 -0.747043 0
M  V30 19435 C 1830.96 1.77638 -3.10128 0
M  V30 19436 S 1832.52 2.56445 -3.56063 0
M  V30 19437 H 1829.34 0.321476 -0.634172 0
M  V30 19438 H 1831.94 0.222719 -1.94227 0
M  V30 19439 H 1830.65 1.13484 -3.94398 0
M  V30 19440 H 1830.18 2.55287 -2.99319 0
M  V30 19441 H 1832.19 3.79954 -3.19139 0
M  V30 19442 N 1831.37 1.49742 0.491438 0
M  V30 19443 C 1832.3 1.70033 1.60034 0
M  V30 19444 C 1833.28 0.549076 1.60994 0
M  V30 19445 O 1834.46 0.785983 1.77584 0
M  V30 19446 C 1831.59 1.7757 2.98473 0
M  V30 19447 C 1830.55 2.9258 3.12379 0
M  V30 19448 C 1829.87 2.85239 4.52264 0
M  V30 19449 C 1831.17 4.33385 2.91504 0
M  V30 19450 H 1832.87 2.62875 1.43307 0
M  V30 19451 H 1830.41 1.26502 0.687989 0
M  V30 19452 H 1832.36 1.90351 3.75958 0
M  V30 19453 H 1831.09 0.813343 3.1631 0
M  V30 19454 H 1829.75 2.79417 2.37322 0
M  V30 19455 H 1829.4 1.86892 4.66991 0
M  V30 19456 H 1829.1 3.62437 4.62508 0
M  V30 19457 H 1830.62 3.00041 5.31797 0
M  V30 19458 H 1832.03 4.4718 3.58752 0
M  V30 19459 H 1830.43 5.11878 3.13211 0
M  V30 19460 H 1831.5 4.47166 1.87539 0
M  V30 19461 N 1832.84 -0.743177 1.38977 0
M  V30 19462 C 1834.26 -1.04764 1.20402 0
M  V30 19463 C 1834.46 -2.01411 0.0599139 0
M  V30 19464 O 1833.52 -2.45485 -0.591026 0
M  V30 19465 C 1834.83 -1.61775 2.53474 0
M  V30 19466 C 1836.38 -1.73896 2.60248 0
M  V30 19467 C 1836.85 -2.34318 3.93522 0
M  V30 19468 N 1838.34 -2.41737 3.95117 0
M  V30 19469 C 1839.08 -2.89407 4.95006 0
M  V30 19470 N 1838.57 -3.37034 6.05293 0
M  V30 19471 N 1840.37 -2.88542 4.8239 0
M  V30 19472 H 1832.52 -0.102036 2.12155 0
M  V30 19473 H 1834.78 -0.107893 0.94184 0
M  V30 19474 H 1834.49 -0.982274 3.37704 0
M  V30 19475 H 1834.36 -2.60696 2.72612 0
M  V30 19476 H 1836.75 -2.36568 1.76407 0
M  V30 19477 H 1836.83 -0.736509 2.44968 0
M  V30 19478 H 1836.47 -1.72276 4.7779 0
M  V30 19479 H 1836.4 -3.35224 4.06119 0
M  V30 19480 H 1838.89 -2.08064 3.15464 0
M  V30 19481 H 1839.21 -3.71895 6.77432 0
M  V30 19482 H 1837.55 -3.35064 6.08898 0
M  V30 19483 H 1840.74 -2.50651 3.95337 0
M  V30 19484 H 1840.92 -3.25379 5.60386 0
M  V30 19485 N 1834.32 -1.24018 -0.972487 0
M  V30 19486 C 1835.26 -0.97157 -2.06484 0
M  V30 19487 C 1836.23 0.0929652 -1.62334 0
M  V30 19488 O 1837.42 -0.0429642 -1.88451 0
M  V30 19489 C 1834.54 -0.465235 -3.3549 0
M  V30 19490 C 1833.59 -1.51759 -3.98587 0
M  V30 19491 S 1834.42 -3.09746 -4.36827 0
M  V30 19492 C 1835.58 -2.60803 -5.68975 0
M  V30 19493 H 1835.81 -1.89654 -2.28951 0
M  V30 19494 H 1833.35 -1.0735 -1.10975 0
M  V30 19495 H 1835.3 -0.17972 -4.10106 0
M  V30 19496 H 1833.96 0.438944 -3.11018 0
M  V30 19497 H 1833.16 -1.11362 -4.91543 0
M  V30 19498 H 1832.76 -1.75286 -3.3038 0
M  V30 19499 H 1835.05 -2.03316 -6.46273 0
M  V30 19500 H 1835.99 -3.52329 -6.14223 0
M  V30 19501 H 1836.4 -2.0139 -5.27354 0
M  V30 19502 N 1835.8 1.17245 -1.05316 0
M  V30 19503 C 1837.05 1.87165 -0.762471 0
M  V30 19504 C 1837.37 1.8151 0.712687 0
M  V30 19505 O 1836.64 1.2419 1.51504 0
M  V30 19506 H 1835.22 0.69292 -0.279054 0
M  V30 19507 H 1837.88 1.42227 -1.33257 0
M  V30 19508 H 1836.98 2.92872 -1.07854 0
M  V30 19509 N 1837.28 0.834353 1.33702 0
M  V30 19510 C 1838.23 0.252818 2.31222 0
M  V30 19511 C 1839.22 -0.612723 1.57931 0
M  V30 19512 O 1840.43 -0.502788 1.72835 0
M  V30 19513 H 1836.8 0.0630243 0.749354 0
M  V30 19514 H 1838.77 1.08992 2.77783 0
M  V30 19515 C 1837.52 -0.561132 3.43142 0
M  V30 19516 H 1836.84 0.0955723 3.99686 0
M  V30 19517 H 1838.28 -0.933951 4.13586 0
M  V30 19518 C 1836.74 -1.73817 2.88599 0
M  V30 19519 O 1837.27 -2.83674 2.84415 0
M  V30 19520 N 1835.48 -1.5586 2.45267 0
M  V30 19521 H 1835.03 -0.664959 2.4887 0
M  V30 19522 H 1834.98 -2.34764 2.09125 0
M  V30 19523 N 1838.76 -1.46125 0.590367 0
M  V30 19524 C 1839.69 -2.33159 -0.126114 0
M  V30 19525 C 1840.67 -1.45806 -0.876057 0
M  V30 19526 O 1841.85 -1.7461 -0.850009 0
M  V30 19527 C 1838.98 -3.28217 -1.13537 0
M  V30 19528 C 1837.94 -4.25072 -0.499773 0
M  V30 19529 C 1837.26 -5.09694 -1.61605 0
M  V30 19530 C 1838.56 -5.19202 0.567992 0
M  V30 19531 H 1840.26 -2.93315 0.600577 0
M  V30 19532 H 1837.8 -1.41044 0.290265 0
M  V30 19533 H 1839.76 -3.87965 -1.64503 0
M  V30 19534 H 1838.48 -2.66185 -1.89244 0
M  V30 19535 H 1837.14 -3.66598 -0.0111313 0
M  V30 19536 H 1836.79 -4.44041 -2.36297 0
M  V30 19537 H 1836.49 -5.75292 -1.19637 0
M  V30 19538 H 1838.01 -5.72307 -2.12832 0
M  V30 19539 H 1839.42 -5.73121 0.143102 0
M  V30 19540 H 1837.82 -5.93184 0.908428 0
M  V30 19541 H 1838.89 -4.62671 1.45133 0
M  V30 19542 N 1840.23 -0.328564 -1.54137 0
M  V30 19543 C 1841.46 0.273928 -2.04776 0
M  V30 19544 C 1841.87 1.45942 -1.20406 0
M  V30 19545 O 1841.22 1.82271 -0.228693 0
M  V30 19546 C 1841.28 0.766914 -3.51225 0
M  V30 19547 C 1840.94 -0.296932 -4.56034 0
M  V30 19548 C 1841.94 -1.13468 -5.07367 0
M  V30 19549 C 1839.62 -0.446557 -5.00311 0
M  V30 19550 C 1841.62 -2.10773 -6.01543 0
M  V30 19551 C 1839.3 -1.42302 -5.94301 0
M  V30 19552 C 1840.3 -2.25207 -6.44803 0
M  V30 19553 O 1839.99 -3.21194 -7.36946 0
M  V30 19554 H 1839.72 0.0593978 -0.673385 0
M  V30 19555 H 1842.28 -0.474303 -1.99849 0
M  V30 19556 H 1840.51 1.56614 -3.53566 0
M  V30 19557 H 1842.2 1.2883 -3.84912 0
M  V30 19558 H 1842.96 -1.03009 -4.73935 0
M  V30 19559 H 1838.84 0.188865 -4.60613 0
M  V30 19560 H 1842.38 -2.75521 -6.40885 0
M  V30 19561 H 1838.28 -1.52822 -6.27149 0
M  V30 19562 H 1839.05 -3.16491 -7.54835 0
M  V30 19563 N 1841.71 1.57497 -0.0568439 0
M  V30 19564 C 1842.99 1.84277 0.655847 0
M  V30 19565 C 1843.37 0.94638 1.88698 0
M  V30 19566 O 1842.72 0.00884889 2.28498 0
M  V30 19567 C 1842.93 3.34134 1.00775 0
M  V30 19568 C 1844.28 4.01286 1.38763 0
M  V30 19569 O 1845.3 3.38792 1.09992 0
M  V30 19570 O 1844.16 5.11482 1.92479 0
M  V30 19571 H 1841.25 0.760773 0.324275 0
M  V30 19572 H 1843.8 1.69479 -0.0866388 0
M  V30 19573 H 1842.57 3.91075 0.132718 0
M  V30 19574 H 1842.19 3.5414 1.80749 0
M  V30 19575 N 1843.19 -0.216591 1.56105 0
M  V30 19576 C 1844.44 -0.938321 1.78545 0
M  V30 19577 C 1844.75 -1.85302 0.62629 0
M  V30 19578 O 1845.96 -2.61377 0.734451 0
M  V30 19579 C 1844.41 -1.71871 3.16209 0
M  V30 19580 C 1844.02 -0.849904 4.39864 0
M  V30 19581 C 1845.77 -2.43136 3.47973 0
M  V30 19582 C 1843.67 -1.62793 5.68553 0
M  V30 19583 H 1842.6 -0.354098 0.66568 0
M  V30 19584 H 1845.25 -0.192079 1.82492 0
M  V30 19585 H 1843.64 -2.50804 3.06453 0
M  V30 19586 H 1844.81 -0.100757 4.6069 0
M  V30 19587 H 1843.13 -0.249139 4.15654 0
M  V30 19588 H 1845.72 -3.01856 4.41347 0
M  V30 19589 H 1846.07 -3.16267 2.70704 0
M  V30 19590 H 1846.6 -1.71189 3.59081 0
M  V30 19591 H 1843.34 -0.939801 6.48728 0
M  V30 19592 H 1842.86 -2.35156 5.5178 0
M  V30 19593 H 1844.54 -2.18733 6.08905 0
M  V30 19594 N 1844.67 -1.5 -0.48349 0
M  V30 19595 C 1845.95 -1.50879 -1.24478 0
M  V30 19596 C 1846.33 -0.246393 -2.09657 0
M  V30 19597 O 1845.67 0.77066 -2.15112 0
M  V30 19598 C 1845.88 -2.79762 -2.08648 0
M  V30 19599 C 1847.23 -3.29941 -2.67253 0
M  V30 19600 O 1848.26 -2.80999 -2.18901 0
M  V30 19601 O 1847.11 -4.15224 -3.55319 0
M  V30 19602 H 1844.21 -0.604649 -0.564206 0
M  V30 19603 H 1846.75 -1.6228 -0.496325 0
M  V30 19604 H 1845.53 -3.63123 -1.45799 0
M  V30 19605 H 1845.15 -2.71306 -2.90652 0
M  V30 19606 N 1846.15 0.735796 -1.39369 0
M  V30 19607 C 1847.06 1.88026 -1.40298 0
M  V30 19608 C 1848.07 1.71431 -0.297878 0
M  V30 19609 O 1849.25 1.94047 -0.539219 0
M  V30 19610 C 1846.31 3.23607 -1.24415 0
M  V30 19611 C 1845.37 3.52601 -2.4489 0
M  V30 19612 C 1844.61 4.81714 -2.29755 0
M  V30 19613 O 1844.83 5.55374 -1.30061 0
M  V30 19614 O 1843.76 5.10588 -3.18722 0
M  V30 19615 H 1847.59 1.90197 -2.36767 0
M  V30 19616 H 1845.18 0.883504 -1.20476 0
M  V30 19617 H 1847.06 4.04633 -1.17688 0
M  V30 19618 H 1845.73 3.22208 -0.310409 0
M  V30 19619 H 1844.64 2.71665 -2.57194 0
M  V30 19620 H 1845.97 3.58778 -3.36955 0
M  V30 19621 N 1847.63 1.24532 0.965897 0
M  V30 19622 C 1848.9 0.994047 1.68458 0
M  V30 19623 C 1849.28 -0.483115 2.05497 0
M  V30 19624 O 1848.63 -1.45784 1.75953 0
M  V30 19625 C 1848.84 1.91872 2.91524 0
M  V30 19626 C 1850.19 2.19066 3.63724 0
M  V30 19627 O 1851.21 1.8954 3.01584 0
M  V30 19628 O 1850.07 2.69217 4.75589 0
M  V30 19629 H 1847.17 0.376083 0.73654 0
M  V30 19630 H 1849.71 1.35638 1.01982 0
M  V30 19631 H 1848.48 2.91665 2.60858 0
M  V30 19632 H 1848.11 1.55966 3.65732 0
M  V30 19633 N 1849.1 -1.16685 1.05936 0
M  V30 19634 C 1850.04 -2.20516 0.624931 0
M  V30 19635 C 1851.05 -1.59719 -0.315206 0
M  V30 19636 O 1852.24 -1.7818 -0.106761 0
M  V30 19637 C 1849.34 -3.38739 -0.10452 0
M  V30 19638 C 1848.51 -4.29097 0.848197 0
M  V30 19639 C 1847.57 -5.25961 0.158648 0
M  V30 19640 O 1846.6 -5.63619 0.795149 0
M  V30 19641 N 1847.8 -5.69961 -1.10115 0
M  V30 19642 H 1850.56 -2.58408 1.51807 0
M  V30 19643 H 1848.12 -1.31658 0.942216 0
M  V30 19644 H 1850.12 -4.00578 -0.576133 0
M  V30 19645 H 1848.69 -2.99382 -0.899414 0
M  V30 19646 H 1847.91 -3.64576 1.49927 0
M  V30 19647 H 1849.19 -4.86352 1.49463 0
M  V30 19648 H 1848.59 -5.41452 -1.63847 0
M  V30 19649 H 1847.15 -6.33908 -1.51669 0
M  V30 19650 N 1850.58 -0.841432 -1.33258 0
M  V30 19651 C 1851.51 -0.221485 -2.27123 0
M  V30 19652 C 1852.49 0.632879 -1.49778 0
M  V30 19653 O 1853.68 0.592581 -1.78943 0
M  V30 19654 C 1850.8 0.688784 -3.31622 0
M  V30 19655 C 1849.85 -0.0904563 -4.26404 0
M  V30 19656 S 1850.68 -1.45006 -5.15493 0
M  V30 19657 C 1851.84 -0.545159 -6.23521 0
M  V30 19658 H 1852.07 -1.01723 -2.79356 0
M  V30 19659 H 1849.6 -0.638326 -1.40587 0
M  V30 19660 H 1851.56 1.20836 -3.92312 0
M  V30 19661 H 1850.22 1.45821 -2.78199 0
M  V30 19662 H 1849.42 0.602296 -5.00388 0
M  V30 19663 H 1849.02 -0.541181 -3.70064 0
M  V30 19664 H 1851.31 0.255962 -6.77016 0
M  V30 19665 H 1852.25 -1.25524 -6.96885 0
M  V30 19666 H 1852.66 -0.125368 -5.64361 0
M  V30 19667 N 1852.06 1.4581 -0.598108 0
M  V30 19668 C 1852.99 2.33223 0.113747 0
M  V30 19669 C 1853.97 1.46268 0.868312 0
M  V30 19670 O 1855.16 1.75058 0.840737 0
M  V30 19671 C 1852.29 3.28815 1.11795 0
M  V30 19672 C 1851.24 4.25331 0.477223 0
M  V30 19673 C 1850.57 5.10544 1.589 0
M  V30 19674 C 1851.87 5.18894 -0.595518 0
M  V30 19675 H 1853.56 2.92992 -0.616123 0
M  V30 19676 H 1851.11 1.40888 -0.297741 0
M  V30 19677 H 1853.06 3.88832 1.62443 0
M  V30 19678 H 1851.78 2.67185 1.87829 0
M  V30 19679 H 1850.44 3.66599 -0.00831044 0
M  V30 19680 H 1850.09 4.45288 2.33939 0
M  V30 19681 H 1849.79 5.75918 1.16584 0
M  V30 19682 H 1851.31 5.73427 2.09794 0
M  V30 19683 H 1852.73 5.73037 -0.173494 0
M  V30 19684 H 1851.12 5.92694 -0.939873 0
M  V30 19685 H 1852.19 4.61895 -1.47584 0
M  V30 19686 N 1853.54 0.336733 1.53961 0
M  V30 19687 C 1854.47 -0.557444 2.22318 0
M  V30 19688 C 1855.48 -1.0694 1.2275 0
M  V30 19689 O 1856.67 -0.980725 1.49144 0
M  V30 19690 C 1853.77 -1.77911 2.88445 0
M  V30 19691 C 1852.94 -1.4036 4.14268 0
M  V30 19692 C 1852 -2.48421 4.63868 0
M  V30 19693 O 1851.03 -2.12014 5.28241 0
M  V30 19694 N 1852.23 -3.79567 4.39215 0
M  V30 19695 H 1855 0.0279413 2.99687 0
M  V30 19696 H 1852.56 0.16054 1.61102 0
M  V30 19697 H 1854.55 -2.49621 3.18546 0
M  V30 19698 H 1853.12 -2.27203 2.14703 0
M  V30 19699 H 1852.34 -0.517571 3.90787 0
M  V30 19700 H 1853.63 -1.1286 4.96125 0
M  V30 19701 H 1853.03 -4.11937 3.87717 0
M  V30 19702 H 1851.58 -4.47466 4.73938 0
M  V30 19703 N 1855.02 -1.57465 0.0651956 0
M  V30 19704 C 1855.93 -2.15841 -0.919235 0
M  V30 19705 C 1856.94 -1.11984 -1.33175 0
M  V30 19706 O 1858.12 -1.44219 -1.4058 0
M  V30 19707 C 1855.18 -2.7032 -2.1709 0
M  V30 19708 C 1854.24 -3.89026 -1.81542 0
M  V30 19709 C 1853.48 -4.40897 -3.00742 0
M  V30 19710 O 1853.7 -3.91792 -4.14555 0
M  V30 19711 O 1852.63 -5.32312 -2.80941 0
M  V30 19712 H 1856.46 -3.00307 -0.452704 0
M  V30 19713 H 1854.04 -1.48567 -0.157504 0
M  V30 19714 H 1855.93 -3.05266 -2.90501 0
M  V30 19715 H 1854.6 -1.88917 -2.62854 0
M  V30 19716 H 1853.51 -3.58944 -1.05404 0
M  V30 19717 H 1854.84 -4.71701 -1.40567 0
M  V30 19718 N 1856.49 0.20831 -1.56217 0
M  V30 19719 C 1857.72 0.947271 -1.83941 0
M  V30 19720 C 1858.14 1.77403 -0.646029 0
M  V30 19721 O 1857.49 1.78385 0.385378 0
M  V30 19722 C 1857.54 1.85415 -3.10328 0
M  V30 19723 O 1857.27 1.06079 -4.25063 0
M  V30 19724 C 1858.77 2.7059 -3.51135 0
M  V30 19725 H 1855.99 0.277012 -0.611151 0
M  V30 19726 H 1858.53 0.219545 -2.03318 0
M  V30 19727 H 1856.69 2.53566 -2.92888 0
M  V30 19728 H 1857.1 1.67758 -4.96948 0
M  V30 19729 H 1858.57 3.29902 -4.42571 0
M  V30 19730 H 1859.05 3.43645 -2.73505 0
M  V30 19731 H 1859.66 2.07831 -3.71061 0
M  V30 19732 N 1857.97 1.50255 0.475528 0
M  V30 19733 C 1859.22 1.60704 1.22551 0
M  V30 19734 C 1859.54 0.307375 1.92562 0
M  V30 19735 O 1858.81 -0.674885 1.83908 0
M  V30 19736 H 1857.39 0.592176 0.455343 0
M  V30 19737 H 1860.05 1.8701 0.548926 0
M  V30 19738 H 1859.15 2.41596 1.9758 0
M  V30 19739 N 1859.45 -0.728395 1.39758 0
M  V30 19740 C 1860.4 -1.8638 1.39158 0
M  V30 19741 C 1861.39 -1.67173 0.273806 0
M  V30 19742 O 1862.6 -1.74433 0.444184 0
M  V30 19743 H 1858.97 -0.61363 0.434698 0
M  V30 19744 H 1860.94 -1.84002 2.34917 0
M  V30 19745 C 1859.69 -3.24127 1.25845 0
M  V30 19746 H 1859.02 -3.39507 2.11129 0
M  V30 19747 H 1860.46 -4.03745 1.29484 0
M  V30 19748 C 1858.91 -3.36884 -0.0325277 0
M  V30 19749 O 1859.44 -3.89047 -1.00026 0
M  V30 19750 N 1857.65 -2.90435 -0.0977834 0
M  V30 19751 H 1857.2 -2.48175 0.690438 0
M  V30 19752 H 1857.16 -2.99351 -0.961066 0
M  V30 19753 N 1860.93 -1.25042 -0.959279 0
M  V30 19754 C 1862.34 -1.08692 -1.51799 0
M  V30 19755 C 1862.69 0.338893 -1.93251 0
M  V30 19756 O 1861.81 1.22831 -1.78162 0
M  V30 19757 C 1862.41 -1.9669 -2.7586 0
M  V30 19758 C 1860.97 -1.84538 -3.28059 0
M  V30 19759 C 1860.12 -1.91119 -2.0092 0
M  V30 19760 H 1863.07 -1.38396 -0.776669 0
M  V30 19761 H 1863.09 -1.50414 -3.49508 0
M  V30 19762 H 1862.6 -3.00455 -2.45659 0
M  V30 19763 H 1860.7 -0.836383 -3.63091 0
M  V30 19764 H 1860.81 -2.69095 -3.96389 0
M  V30 19765 H 1859.18 -1.34948 -2.16012 0
M  V30 19766 H 1859.96 -2.9648 -1.73074 0
M  V30 19767 N 1862.41 1.16121 -1.06553 0
M  V30 19768 C 1863.37 2.18796 -0.682711 0
M  V30 19769 C 1864.37 1.58467 0.272905 0
M  V30 19770 O 1865.56 1.74113 0.0549379 0
M  V30 19771 C 1862.69 3.409 -0.00496866 0
M  V30 19772 H 1863.88 2.54178 -1.59165 0
M  V30 19773 H 1861.44 1.30442 -0.861077 0
M  V30 19774 H 1862.17 3.11077 0.916593 0
M  V30 19775 H 1861.96 3.85942 -0.692165 0
M  V30 19776 H 1863.45 4.1686 0.248503 0
M  V30 19777 N 1863.88 0.848487 1.3281 0
M  V30 19778 C 1865.11 0.462643 2.01661 0
M  V30 19779 C 1865.53 -0.938906 1.63799 0
M  V30 19780 O 1864.88 -1.61171 0.85617 0
M  V30 19781 C 1864.94 0.584905 3.56737 0
M  V30 19782 O 1864.66 1.93124 3.93236 0
M  V30 19783 C 1866.16 0.197265 4.42861 0
M  V30 19784 H 1863.38 0.18254 0.645694 0
M  V30 19785 H 1865.92 1.14372 1.69527 0
M  V30 19786 H 1864.08 -0.0483701 3.8737 0
M  V30 19787 H 1864.49 1.92361 4.87952 0
M  V30 19788 H 1865.96 0.333833 5.5099 0
M  V30 19789 H 1866.44 -0.861732 4.30663 0
M  V30 19790 H 1867.05 0.805363 4.17605 0
M  V30 19791 N 1865.36 -1.4549 0.605832 0
M  V30 19792 C 1866.61 -2.01852 0.10014 0
M  V30 19793 C 1866.93 -1.47699 -1.27319 0
M  V30 19794 O 1866.2 -0.670571 -1.84066 0
M  V30 19795 H 1864.78 -0.746225 0.0340291 0
M  V30 19796 H 1867.44 -1.78311 0.786834 0
M  V30 19797 H 1866.54 -3.12062 0.0485925 0
M  V30 19798 N 1866.84 -0.344893 -1.5378 0
M  V30 19799 C 1867.75 0.519687 -2.28772 0
M  V30 19800 C 1868.77 1.11076 -1.33934 0
M  V30 19801 O 1869.94 1.12615 -1.66972 0
M  V30 19802 C 1867.01 1.65417 -3.04693 0
M  V30 19803 C 1866.07 1.09275 -4.1516 0
M  V30 19804 C 1865.3 2.17316 -4.87452 0
M  V30 19805 O 1865.52 3.38061 -4.59425 0
M  V30 19806 O 1864.46 1.81535 -5.73872 0
M  V30 19807 H 1868.28 -0.0899625 -3.03567 0
M  V30 19808 H 1865.87 -0.109899 -1.48995 0
M  V30 19809 H 1867.75 2.31421 -3.52168 0
M  V30 19810 H 1866.43 2.24961 -2.32754 0
M  V30 19811 H 1865.33 0.397193 -3.71985 0
M  V30 19812 H 1866.67 0.542156 -4.89205 0
M  V30 19813 N 1868.32 1.57428 -0.0735454 0
M  V30 19814 C 1869.25 2.09808 0.922679 0
M  V30 19815 C 1870.26 1.0306 1.26026 0
M  V30 19816 O 1871.45 1.30568 1.21714 0
M  V30 19817 C 1868.55 2.54492 2.23801 0
M  V30 19818 C 1867.73 3.84832 2.07901 0
M  V30 19819 C 1866.78 4.15592 3.22754 0
M  V30 19820 O 1865.81 4.85163 2.97667 0
M  V30 19821 N 1867.01 3.69277 4.47901 0
M  V30 19822 H 1869.78 2.95905 0.475456 0
M  V30 19823 H 1867.34 1.61511 0.112135 0
M  V30 19824 H 1869.33 2.7213 2.99545 0
M  V30 19825 H 1867.9 1.73523 2.60016 0
M  V30 19826 H 1867.12 3.76557 1.16614 0
M  V30 19827 H 1868.41 4.70144 1.9453 0
M  V30 19828 H 1867.81 3.13076 4.71168 0
M  V30 19829 H 1866.36 3.92111 5.20665 0
M  V30 19830 N 1869.8 -0.200022 1.56326 0
M  V30 19831 C 1871.04 -0.922539 1.80602 0
M  V30 19832 C 1871.38 -1.83113 0.646781 0
M  V30 19833 O 1870.65 -1.91271 -0.352928 0
M  V30 19834 C 1870.93 -1.74301 3.15105 0
M  V30 19835 C 1870.79 -0.859471 4.41512 0
M  V30 19836 C 1872.11 -2.71658 3.46251 0
M  V30 19837 H 1869.22 -0.333949 0.656999 0
M  V30 19838 H 1871.87 -0.190177 1.89046 0
M  V30 19839 H 1870.02 -2.36739 3.08037 0
M  V30 19840 H 1871.69 -0.250183 4.60621 0
M  V30 19841 H 1869.93 -0.165935 4.33483 0
M  V30 19842 H 1870.6 -1.46842 5.3211 0
M  V30 19843 H 1873.08 -2.19353 3.53586 0
M  V30 19844 H 1871.95 -3.26152 4.41493 0
M  V30 19845 H 1872.22 -3.50462 2.69497 0
M  V30 19846 N 1871.27 -1.50505 -0.467553 0
M  V30 19847 C 1872.5 -1.65193 -1.24076 0
M  V30 19848 C 1872.91 -0.336102 -1.86191 0
M  V30 19849 O 1872.26 0.692299 -1.70156 0
M  V30 19850 C 1872.32 -2.68798 -2.38721 0
M  V30 19851 C 1871.98 -4.12256 -1.97216 0
M  V30 19852 C 1872.98 -4.98012 -1.49267 0
M  V30 19853 C 1870.66 -4.58192 -2.05829 0
M  V30 19854 C 1872.66 -6.27753 -1.10477 0
M  V30 19855 C 1870.34 -5.87938 -1.66651 0
M  V30 19856 C 1871.34 -6.72544 -1.19053 0
M  V30 19857 O 1871.03 -7.99867 -0.804197 0
M  V30 19858 H 1870.76 -0.55823 -0.381254 0
M  V30 19859 H 1873.32 -1.97502 -0.564089 0
M  V30 19860 H 1871.55 -2.31739 -3.09571 0
M  V30 19861 H 1873.24 -2.7267 -3.00675 0
M  V30 19862 H 1874 -4.63737 -1.42031 0
M  V30 19863 H 1869.88 -3.92482 -2.41825 0
M  V30 19864 H 1873.42 -6.93743 -0.732554 0
M  V30 19865 H 1869.32 -6.21733 -1.73546 0
M  V30 19866 H 1870.09 -8.13168 -0.932733 0
M  V30 19867 N 1872.75 0.720973 -1.40142 0
M  V30 19868 C 1873.68 1.8457 -1.35891 0
M  V30 19869 C 1874.7 1.60625 -0.265232 0
M  V30 19870 O 1875.89 1.70599 -0.525198 0
M  V30 19871 C 1872.99 3.20871 -1.09064 0
M  V30 19872 C 1872.16 3.72058 -2.29982 0
M  V30 19873 C 1871.22 4.86957 -1.99397 0
M  V30 19874 O 1870.24 4.99888 -2.72213 0
M  V30 19875 N 1871.45 5.72361 -0.968645 0
M  V30 19876 H 1874.21 1.88717 -2.32822 0
M  V30 19877 H 1871.77 0.902293 -1.34426 0
M  V30 19878 H 1873.76 3.95326 -0.865979 0
M  V30 19879 H 1872.33 3.11906 -0.208188 0
M  V30 19880 H 1871.55 2.88795 -2.68312 0
M  V30 19881 H 1872.84 4.02991 -3.10605 0
M  V30 19882 H 1872.24 5.64518 -0.36546 0
M  V30 19883 H 1870.8 6.46824 -0.803886 0
M  V30 19884 N 1874.23 1.25549 0.952634 0
M  V30 19885 C 1875.16 1.01898 2.05304 0
M  V30 19886 C 1876.18 -0.0167609 1.62791 0
M  V30 19887 O 1877.36 0.222021 1.77114 0
M  V30 19888 C 1874.46 0.518856 3.34905 0
M  V30 19889 C 1873.64 1.62121 4.06246 0
M  V30 19890 C 1872.7 1.12111 5.14118 0
M  V30 19891 O 1871.72 1.81591 5.39456 0
M  V30 19892 N 1872.92 -0.0365454 5.80488 0
M  V30 19893 H 1875.69 1.96648 2.26163 0
M  V30 19894 H 1873.25 1.16782 1.12132 0
M  V30 19895 H 1875.24 0.168729 4.04348 0
M  V30 19896 H 1873.81 -0.334763 3.10802 0
M  V30 19897 H 1873.03 2.14282 3.30873 0
M  V30 19898 H 1874.32 2.36173 4.50666 0
M  V30 19899 H 1873.72 -0.617055 5.62325 0
M  V30 19900 H 1872.28 -0.327688 6.50976 0
M  V30 19901 N 1875.71 -1.15554 1.07168 0
M  V30 19902 C 1876.99 -1.8238 0.706884 0
M  V30 19903 C 1877.37 -1.94906 -0.810848 0
M  V30 19904 O 1876.71 -1.49905 -1.72455 0
M  V30 19905 C 1876.92 -3.18844 1.41913 0
M  V30 19906 C 1878.27 -3.94506 1.57004 0
M  V30 19907 O 1879.3 -3.28392 1.37976 0
M  V30 19908 O 1878.15 -5.13036 1.88297 0
M  V30 19909 H 1875.25 -0.787892 0.251307 0
M  V30 19910 H 1877.79 -1.22681 1.17249 0
M  V30 19911 H 1876.57 -3.04814 2.45365 0
M  V30 19912 H 1876.19 -3.86227 0.944182 0
M  V30 19913 N 1877.19 -0.855519 -1.32358 0
M  V30 19914 C 1878.43 -0.469284 -1.97912 0
M  V30 19915 C 1878.79 0.964638 -1.66471 0
M  V30 19916 O 1878.08 1.66785 -0.943052 0
M  V30 19917 C 1878.28 -0.64624 -3.51509 0
M  V30 19918 C 1878.1 -2.09581 -3.97877 0
M  V30 19919 C 1876.87 -2.73449 -4.24916 0
M  V30 19920 C 1879.07 -3.06649 -4.12881 0
M  V30 19921 N 1877.05 -4.09308 -4.57537 0
M  V30 19922 C 1878.43 -4.27498 -4.49049 0
M  V30 19923 C 1880.48 -3.02833 -3.95217 0
M  V30 19924 C 1879.18 -5.4503 -4.69398 0
M  V30 19925 C 1881.21 -4.1961 -4.16751 0
M  V30 19926 C 1880.57 -5.39218 -4.53237 0
M  V30 19927 H 1876.67 -0.220478 -0.750276 0
M  V30 19928 H 1879.25 -1.10709 -1.60161 0
M  V30 19929 H 1877.43 -0.038129 -3.88381 0
M  V30 19930 H 1879.16 -0.229815 -4.04047 0
M  V30 19931 H 1875.91 -2.24482 -4.17019 0
M  V30 19932 H 1876.34 -4.7939 -4.78032 0
M  V30 19933 H 1880.98 -2.1148 -3.66109 0
M  V30 19934 H 1878.7 -6.36914 -4.97359 0
M  V30 19935 H 1882.28 -4.18094 -4.04585 0
M  V30 19936 H 1881.16 -6.28075 -4.69565 0
M  V30 19937 N 1878.67 1.45167 -0.61354 0
M  V30 19938 C 1879.63 2.29016 0.0919454 0
M  V30 19939 C 1880.63 1.40091 0.789373 0
M  V30 19940 O 1881.82 1.6215 0.636631 0
M  V30 19941 C 1878.95 3.21257 1.14048 0
M  V30 19942 H 1880.14 2.92875 -0.645317 0
M  V30 19943 H 1877.7 1.51788 -0.372855 0
M  V30 19944 H 1878.43 2.6221 1.90831 0
M  V30 19945 H 1878.22 3.86766 0.644523 0
M  V30 19946 H 1879.71 3.84288 1.63439 0
M  V30 19947 N 1880.14 0.353044 1.53595 0
M  V30 19948 C 1881.08 -0.533833 2.22897 0
M  V30 19949 C 1882.09 -1.05633 1.23877 0
M  V30 19950 O 1883.28 -0.964851 1.50176 0
M  V30 19951 C 1880.38 -1.74842 2.90316 0
M  V30 19952 C 1879.55 -1.35959 4.15733 0
M  V30 19953 C 1878.61 -2.43488 4.66476 0
M  V30 19954 O 1877.64 -2.06399 5.3046 0
M  V30 19955 N 1878.84 -3.74887 4.43216 0
M  V30 19956 H 1881.6 0.0597255 2.9964 0
M  V30 19957 H 1879.16 0.177618 1.60923 0
M  V30 19958 H 1881.16 -2.46228 3.21176 0
M  V30 19959 H 1879.73 -2.24913 2.17101 0
M  V30 19960 H 1878.95 -0.476094 3.91314 0
M  V30 19961 H 1880.23 -1.07592 4.97294 0
M  V30 19962 H 1879.63 -4.07801 3.92064 0
M  V30 19963 H 1878.19 -4.42415 4.78657 0
M  V30 19964 N 1881.62 -1.57387 0.0818932 0
M  V30 19965 C 1882.57 -2.14508 -0.899386 0
M  V30 19966 C 1883.56 -1.08453 -1.30132 0
M  V30 19967 O 1884.77 -1.26818 -1.27739 0
M  V30 19968 H 1881.14 -0.686024 -0.308018 0
M  V30 19969 H 1883.12 -2.95804 -0.392786 0
M  V30 19970 C 1881.86 -2.72963 -2.15375 0
M  V30 19971 H 1881.19 -3.54248 -1.85333 0
M  V30 19972 H 1882.63 -3.16515 -2.82125 0
M  V30 19973 C 1881.09 -1.68212 -2.91901 0
M  V30 19974 O 1881.62 -1.11314 -3.85969 0
M  V30 19975 N 1879.82 -1.3901 -2.55195 0
M  V30 19976 H 1879.37 -1.85468 -1.78771 0
M  V30 19977 H 1879.33 -0.691582 -3.06699 0
M  V30 19978 N 1883.1 0.191729 -1.56429 0
M  V30 19979 C 1884.05 1.25706 -1.95706 0
M  V30 19980 C 1885.04 1.46938 -0.842948 0
M  V30 19981 O 1886.25 1.47759 -1.02797 0
M  V30 19982 H 1882.62 0.422099 -0.622364 0
M  V30 19983 H 1884.59 0.8988 -2.84542 0
M  V30 19984 C 1883.34 2.59366 -2.3157 0
M  V30 19985 H 1882.67 2.43845 -3.16827 0
M  V30 19986 H 1884.11 3.32646 -2.62912 0
M  V30 19987 C 1882.56 3.16609 -1.15155 0
M  V30 19988 O 1883.09 3.9941 -0.428355 0
M  V30 19989 N 1881.3 2.75402 -0.927467 0
M  V30 19990 H 1880.85 2.08172 -1.5173 0
M  V30 19991 H 1880.81 3.1404 -0.150348 0
M  V30 19992 N 1884.58 1.50751 0.459565 0
M  V30 19993 C 1885.54 1.69889 1.53852 0
M  V30 19994 C 1886.54 0.569308 1.50385 0
M  V30 19995 O 1887.73 0.836527 1.528 0
M  V30 19996 C 1884.86 1.73481 2.93457 0
M  V30 19997 H 1886.06 2.66162 1.38195 0
M  V30 19998 H 1883.61 1.40405 0.686741 0
M  V30 19999 H 1884.34 0.789426 3.14545 0
M  V30 20000 H 1884.13 2.55553 2.97381 0
M  V30 20001 H 1885.62 1.90202 3.7177 0
M  V30 20002 N 1886.06 -0.713531 1.40522 0
M  V30 20003 C 1886.99 -1.8404 1.43707 0
M  V30 20004 C 1887.97 -1.67474 0.297751 0
M  V30 20005 O 1889.15 -1.87474 0.506662 0
M  V30 20006 C 1886.28 -3.22014 1.30094 0
M  V30 20007 C 1885.24 -3.53255 2.4165 0
M  V30 20008 C 1884.56 -4.90395 2.13113 0
M  V30 20009 C 1885.86 -3.54045 3.83991 0
M  V30 20010 H 1887.56 -1.81632 2.38013 0
M  V30 20011 H 1885.1 -0.872437 1.14562 0
M  V30 20012 H 1887.05 -4.00541 1.30938 0
M  V30 20013 H 1885.78 -3.25002 0.322648 0
M  V30 20014 H 1884.44 -2.77069 2.40059 0
M  V30 20015 H 1884.09 -4.89988 1.13669 0
M  V30 20016 H 1883.79 -5.12264 2.87853 0
M  V30 20017 H 1885.31 -5.71254 2.15642 0
M  V30 20018 H 1886.72 -4.22609 3.87395 0
M  V30 20019 H 1885.12 -3.87441 4.58268 0
M  V30 20020 H 1886.19 -2.53387 4.13428 0
M  V30 20021 N 1887.53 -1.26053 -0.945962 0
M  V30 20022 C 1888.47 -1.02985 -2.0476 0
M  V30 20023 C 1889.48 0.00812739 -1.62798 0
M  V30 20024 O 1890.67 -0.231411 -1.76994 0
M  V30 20025 C 1887.77 -0.536609 -3.34625 0
M  V30 20026 C 1886.94 -1.64273 -4.0538 0
M  V30 20027 C 1886 -1.14836 -5.13516 0
M  V30 20028 O 1885.03 -1.84449 -5.38486 0
M  V30 20029 N 1886.23 0.00576017 -5.805 0
M  V30 20030 H 1888.99 -1.97845 -2.25117 0
M  V30 20031 H 1886.55 -1.17375 -1.11512 0
M  V30 20032 H 1888.55 -0.19017 -4.04253 0
M  V30 20033 H 1887.12 0.318275 -3.10976 0
M  V30 20034 H 1886.34 -2.16034 -3.29732 0
M  V30 20035 H 1887.62 -2.3856 -4.49407 0
M  V30 20036 H 1887.02 0.587225 -5.62644 0
M  V30 20037 H 1885.58 0.293161 -6.5114 0
M  V30 20038 N 1889.01 1.14984 -1.07779 0
M  V30 20039 C 1889.94 2.22006 -0.723564 0
M  V30 20040 C 1890.92 1.67592 0.291024 0
M  V30 20041 O 1892.11 1.93516 0.162812 0
M  V30 20042 C 1889.24 3.47074 -0.125223 0
M  V30 20043 C 1888.19 4.14475 -1.06745 0
M  V30 20044 C 1887.52 5.33671 -0.331643 0
M  V30 20045 C 1888.82 4.63744 -2.4029 0
M  V30 20046 H 1890.51 2.51893 -1.61834 0
M  V30 20047 H 1888.06 1.21073 -0.779571 0
M  V30 20048 H 1890.01 4.21185 0.134555 0
M  V30 20049 H 1888.73 3.16533 0.804654 0
M  V30 20050 H 1887.39 3.4231 -1.31222 0
M  V30 20051 H 1887.04 4.99387 0.601833 0
M  V30 20052 H 1886.74 5.7971 -0.959721 0
M  V30 20053 H 1888.27 6.10548 -0.0797668 0
M  V30 20054 H 1889.68 5.2936 -2.20115 0
M  V30 20055 H 1888.08 5.20461 -2.98732 0
M  V30 20056 H 1889.15 3.79151 -3.02279 0
M  V30 20057 N 1890.49 0.862526 1.31902 0
M  V30 20058 C 1891.42 0.270103 2.27603 0
M  V30 20059 C 1892.43 -0.562639 1.52768 0
M  V30 20060 O 1893.62 -0.385845 1.7428 0
M  V30 20061 C 1890.72 -0.636314 3.32873 0
M  V30 20062 C 1889.9 0.162327 4.37099 0
M  V30 20063 C 1888.96 -0.67107 5.21903 0
M  V30 20064 O 1887.98 -0.101765 5.69109 0
M  V30 20065 N 1889.18 -1.98441 5.45529 0
M  V30 20066 H 1891.95 1.09248 2.79079 0
M  V30 20067 H 1889.51 0.723275 1.44846 0
M  V30 20068 H 1891.5 -1.19937 3.86519 0
M  V30 20069 H 1890.07 -1.35936 2.81496 0
M  V30 20070 H 1889.29 0.906824 3.83628 0
M  V30 20071 H 1890.58 0.710602 5.03813 0
M  V30 20072 H 1889.98 -2.47017 5.0892 0
M  V30 20073 H 1888.53 -2.49542 6.0214 0
M  V30 20074 N 1891.97 -1.4484 0.62123 0
M  V30 20075 C 1892.92 -2.30626 -0.0895817 0
M  V30 20076 C 1893.89 -1.42906 -0.846593 0
M  V30 20077 O 1895.07 -1.7182 -0.829611 0
M  V30 20078 C 1892.21 -3.28032 -1.07188 0
M  V30 20079 C 1891.32 -4.30855 -0.314319 0
M  V30 20080 C 1890.46 -5.1536 -1.28755 0
M  V30 20081 C 1889.5 -6.09899 -0.518581 0
M  V30 20082 N 1888.63 -6.87137 -1.44178 0
M  V30 20083 H 1893.47 -2.90871 0.64793 0
M  V30 20084 H 1891.01 -1.4332 0.33131 0
M  V30 20085 H 1892.97 -3.82984 -1.65467 0
M  V30 20086 H 1891.6 -2.6951 -1.77664 0
M  V30 20087 H 1890.65 -3.78455 0.38422 0
M  V30 20088 H 1891.96 -4.97985 0.285042 0
M  V30 20089 H 1891.12 -5.7478 -1.94198 0
M  V30 20090 H 1889.86 -4.4828 -1.92084 0
M  V30 20091 H 1888.86 -5.49597 0.149399 0
M  V30 20092 H 1890.09 -6.79011 0.109851 0
M  V30 20093 H 1888.03 -6.22735 -2.06246 0
M  V30 20094 H 1887.95 -7.50669 -0.896192 0
M  V30 20095 H 1889.22 -7.51088 -2.08536 0
M  V30 20096 N 1893.45 -0.361184 -1.53405 0
M  V30 20097 C 1894.39 0.502532 -2.27107 0
M  V30 20098 C 1895.39 1.08711 -1.29916 0
M  V30 20099 O 1896.59 1.03082 -1.47561 0
M  V30 20100 H 1892.97 0.180773 -0.729949 0
M  V30 20101 H 1894.94 -0.140891 -2.98067 0
M  V30 20102 C 1893.69 1.63258 -3.06989 0
M  V30 20103 H 1893.01 1.19205 -3.81615 0
M  V30 20104 H 1894.45 2.21174 -3.61743 0
M  V30 20105 C 1892.91 2.57234 -2.17559 0
M  V30 20106 O 1893.44 3.59939 -1.78345 0
M  V30 20107 N 1891.65 2.26322 -1.82282 0
M  V30 20108 H 1891.19 1.4284 -2.1437 0
M  V30 20109 H 1891.15 2.89455 -1.22731 0
M  V30 20110 N 1894.92 1.57341 -0.0902386 0
M  V30 20111 C 1895.87 2.13756 0.870448 0
M  V30 20112 C 1896.84 1.05483 1.28306 0
M  V30 20113 O 1898.03 1.33245 1.36567 0
M  V30 20114 C 1895.17 2.71839 2.12597 0
M  V30 20115 C 1894.28 3.94329 1.76433 0
M  V30 20116 C 1893.41 4.40593 2.96734 0
M  V30 20117 C 1892.45 5.55684 2.56674 0
M  V30 20118 N 1891.59 5.96822 3.69794 0
M  V30 20119 H 1896.43 2.95535 0.3825 0
M  V30 20120 H 1893.97 1.4603 0.177134 0
M  V30 20121 H 1895.93 3.03632 2.86118 0
M  V30 20122 H 1894.56 1.92797 2.589 0
M  V30 20123 H 1893.61 3.68882 0.928996 0
M  V30 20124 H 1894.92 4.77871 1.42973 0
M  V30 20125 H 1894.07 4.74143 3.78514 0
M  V30 20126 H 1892.81 3.55942 3.33401 0
M  V30 20127 H 1891.82 5.21767 1.7332 0
M  V30 20128 H 1893.04 6.4208 2.21156 0
M  V30 20129 H 1890.99 5.15118 4.06189 0
M  V30 20130 H 1890.91 6.75148 3.40163 0
M  V30 20131 H 1892.17 6.35002 4.52099 0
M  V30 20132 N 1896.4 -0.183431 1.56529 0
M  V30 20133 C 1897.33 -1.22973 1.98494 0
M  V30 20134 C 1898.31 -1.46837 0.858653 0
M  V30 20135 O 1899.5 -1.58377 1.12385 0
M  V30 20136 C 1896.63 -2.57138 2.33446 0
M  V30 20137 C 1895.58 -2.47865 3.48922 0
M  V30 20138 C 1894.91 -3.8641 3.69582 0
M  V30 20139 C 1896.21 -1.99371 4.82751 0
M  V30 20140 H 1897.9 -0.880938 2.86147 0
M  V30 20141 H 1895.45 -0.422321 1.37668 0
M  V30 20142 H 1897.4 -3.30527 2.614 0
M  V30 20143 H 1896.13 -2.93781 1.42689 0
M  V30 20144 H 1894.78 -1.76932 3.21077 0
M  V30 20145 H 1894.43 -4.20426 2.76136 0
M  V30 20146 H 1894.13 -3.81077 4.47274 0
M  V30 20147 H 1895.66 -4.61403 3.99924 0
M  V30 20148 H 1897.07 -2.62526 5.0966 0
M  V30 20149 H 1895.47 -2.05014 5.63994 0
M  V30 20150 H 1896.54 -0.947442 4.75554 0
M  V30 20151 N 1897.88 -1.50992 -0.451564 0
M  V30 20152 C 1899.3 -1.38852 -0.786916 0
M  V30 20153 C 1899.5 -0.459764 -1.96185 0
M  V30 20154 O 1898.55 0.0903799 -2.52338 0
M  V30 20155 C 1899.87 -2.80611 -1.08064 0
M  V30 20156 C 1901.41 -2.89663 -1.18593 0
M  V30 20157 C 1901.89 -4.32299 -1.51267 0
M  V30 20158 N 1903.38 -4.3534 -1.5822 0
M  V30 20159 C 1904.11 -5.42721 -1.85046 0
M  V30 20160 N 1903.61 -6.60282 -2.09759 0
M  V30 20161 N 1905.4 -5.30185 -1.8671 0
M  V30 20162 H 1897.55 -2.09938 0.32245 0
M  V30 20163 H 1899.82 -0.944464 0.0818072 0
M  V30 20164 H 1899.52 -3.50501 -0.290167 0
M  V30 20165 H 1899.4 -3.19063 -2.01193 0
M  V30 20166 H 1901.78 -2.1998 -1.96705 0
M  V30 20167 H 1901.87 -2.54728 -0.23398 0
M  V30 20168 H 1901.51 -5.02526 -0.736882 0
M  V30 20169 H 1901.44 -4.64736 -2.47645 0
M  V30 20170 H 1903.93 -3.50577 -1.41082 0
M  V30 20171 H 1904.24 -7.37918 -2.29557 0
M  V30 20172 H 1902.59 -6.63423 -2.07111 0
M  V30 20173 H 1905.78 -4.3733 -1.66912 0
M  V30 20174 H 1905.95 -6.13954 -2.07279 0
M  V30 20175 N 1899.36 0.706069 -1.40899 0
M  V30 20176 C 1900.61 1.46164 -1.38993 0
M  V30 20177 C 1900.92 1.956 0.00145788 0
M  V30 20178 O 1902.13 2.71122 0.143137 0
M  V30 20179 C 1900.58 2.64252 -2.44334 0
M  V30 20180 C 1900.19 2.21646 -3.89329 0
M  V30 20181 C 1901.93 3.41941 -2.51549 0
M  V30 20182 C 1899.84 3.36629 -4.86245 0
M  V30 20183 H 1898.77 0.548985 -0.516847 0
M  V30 20184 H 1901.42 0.767528 -1.66677 0
M  V30 20185 H 1899.8 3.3588 -2.09764 0
M  V30 20186 H 1900.98 1.57376 -4.33093 0
M  V30 20187 H 1899.29 1.56978 -3.85677 0
M  V30 20188 H 1901.89 4.27518 -3.21142 0
M  V30 20189 H 1902.23 3.86409 -1.54899 0
M  V30 20190 H 1902.77 2.77363 -2.85158 0
M  V30 20191 H 1899.51 2.97183 -5.84262 0
M  V30 20192 H 1899.03 3.99784 -4.47139 0
M  V30 20193 H 1900.7 4.02559 -5.06513 0
M  V30 20194 N 1900.84 1.26553 0.939264 0
M  V30 20195 C 1902.06 1.15098 1.72532 0
M  V30 20196 C 1902.49 -0.289811 1.85854 0
M  V30 20197 O 1901.84 -1.20997 1.35017 0
M  V30 20198 C 1901.89 1.82703 3.10889 0
M  V30 20199 O 1901 1.11712 3.96981 0
M  V30 20200 H 1900.34 0.40095 0.529278 0
M  V30 20201 H 1902.87 1.67408 1.17625 0
M  V30 20202 H 1902.88 1.89603 3.61268 0
M  V30 20203 H 1901.55 2.87519 3.00509 0
M  V30 20204 H 1900.13 1.12801 3.5543 0
M  V30 20205 N 1902.31 -1.14411 1.08387 0
M  V30 20206 C 1903.73 -1.37432 0.811464 0
M  V30 20207 C 1903.93 -1.92992 -0.579345 0
M  V30 20208 O 1902.99 -2.14249 -1.33618 0
M  V30 20209 C 1904.3 -2.33557 1.89398 0
M  V30 20210 C 1905.85 -2.47197 1.91996 0
M  V30 20211 C 1906.32 -3.46622 2.99361 0
M  V30 20212 N 1907.81 -3.54165 2.98532 0
M  V30 20213 C 1908.55 -4.30946 3.78249 0
M  V30 20214 N 1908.04 -5.10972 4.67846 0
M  V30 20215 N 1909.84 -4.26141 3.66552 0
M  V30 20216 H 1901.99 -0.76694 1.9807 0
M  V30 20217 H 1904.25 -0.399866 0.859541 0
M  V30 20218 H 1903.96 -1.99868 2.89388 0
M  V30 20219 H 1903.83 -3.33459 1.7631 0
M  V30 20220 H 1906.22 -2.80178 0.926513 0
M  V30 20221 H 1906.3 -1.47258 2.09162 0
M  V30 20222 H 1905.94 -3.14374 3.98913 0
M  V30 20223 H 1905.87 -4.46341 2.7944 0
M  V30 20224 H 1908.36 -2.97057 2.33593 0
M  V30 20225 H 1908.68 -5.66834 5.2528 0
M  V30 20226 H 1907.02 -5.10241 4.71889 0
M  V30 20227 H 1910.21 -3.62693 2.95925 0
M  V30 20228 H 1910.39 -4.85729 4.28919 0
M  V30 20229 N 1903.79 -0.869509 -1.31443 0
M  V30 20230 C 1904.72 -0.282169 -2.27456 0
M  V30 20231 C 1905.74 0.55453 -1.53065 0
M  V30 20232 O 1906.93 0.376597 -1.74482 0
M  V30 20233 C 1904.03 0.618652 -3.33206 0
M  V30 20234 C 1903.2 -0.185505 -4.37006 0
M  V30 20235 C 1902.26 0.643383 -5.22252 0
M  V30 20236 O 1901.28 0.0715827 -5.69155 0
M  V30 20237 N 1902.49 1.95545 -5.46573 0
M  V30 20238 H 1905.25 -1.10726 -2.78496 0
M  V30 20239 H 1902.81 -0.730947 -1.4446 0
M  V30 20240 H 1904.8 1.17886 -3.8715 0
M  V30 20241 H 1903.37 1.34442 -2.82213 0
M  V30 20242 H 1902.59 -0.927156 -3.83142 0
M  V30 20243 H 1903.88 -0.73731 -5.03429 0
M  V30 20244 H 1903.28 2.44315 -5.10222 0
M  V30 20245 H 1901.84 2.46345 -6.03455 0
M  V30 20246 N 1905.27 1.44508 -0.628902 0
M  V30 20247 C 1906.22 2.27784 0.0991943 0
M  V30 20248 C 1907.2 1.38538 0.818285 0
M  V30 20249 O 1908.4 1.62364 0.704759 0
M  V30 20250 C 1905.53 3.25816 1.0816 0
M  V30 20251 C 1904.61 4.2255 0.362249 0
M  V30 20252 N 1905 5.02133 -0.607915 0
M  V30 20253 C 1903.3 4.4185 0.60699 0
M  V30 20254 C 1904 5.7246 -1.03271 0
M  V30 20255 N 1902.98 5.42326 -0.371966 0
M  V30 20256 H 1906.78 2.86721 -0.645621 0
M  V30 20257 H 1904.29 1.55918 -0.45423 0
M  V30 20258 H 1906.29 3.8423 1.6178 0
M  V30 20259 H 1904.95 2.6844 1.82674 0
M  V30 20260 H 1905.96 5.08435 -0.985626 0
M  V30 20261 H 1902.64 3.95575 1.33517 0
M  V30 20262 H 1904.03 6.46383 -1.83409 0
M  V30 20263 N 1906.75 0.369315 1.53212 0
M  V30 20264 C 1907.97 -0.222451 2.06204 0
M  V30 20265 C 1908.4 -1.41373 1.24077 0
M  V30 20266 O 1907.76 -1.79415 0.260767 0
M  V30 20267 C 1907.81 -0.590386 3.55734 0
M  V30 20268 O 1906.91 -1.68711 3.76311 0
M  V30 20269 H 1906.25 -0.0315041 0.663252 0
M  V30 20270 H 1908.78 0.531 1.97589 0
M  V30 20271 H 1908.79 -0.860345 3.98826 0
M  V30 20272 H 1907.47 0.28067 4.14952 0
M  V30 20273 H 1906.04 -1.41242 3.45116 0
M  V30 20274 N 1908.23 -1.57291 0.0985816 0
M  V30 20275 C 1909.46 -1.98531 -0.57176 0
M  V30 20276 C 1909.87 -0.976619 -1.62046 0
M  V30 20277 O 1909.21 0.041533 -1.83653 0
M  V30 20278 C 1909.27 -3.36149 -1.27452 0
M  V30 20279 C 1908.93 -4.55449 -0.376176 0
M  V30 20280 C 1909.93 -5.18531 0.377078 0
M  V30 20281 C 1907.62 -5.01443 -0.293213 0
M  V30 20282 C 1909.61 -6.25978 1.20124 0
M  V30 20283 C 1907.3 -6.08757 0.534594 0
M  V30 20284 C 1908.3 -6.7089 1.28047 0
M  V30 20285 O 1907.98 -7.76133 2.09457 0
M  V30 20286 H 1907.72 -0.657356 -0.15767 0
M  V30 20287 H 1910.27 -2.04648 0.175593 0
M  V30 20288 H 1908.5 -3.26725 -2.06852 0
M  V30 20289 H 1910.19 -3.61813 -1.83974 0
M  V30 20290 H 1910.95 -4.83925 0.322736 0
M  V30 20291 H 1906.83 -4.52842 -0.863429 0
M  V30 20292 H 1910.38 -6.74405 1.7839 0
M  V30 20293 H 1906.27 -6.42794 0.590404 0
M  V30 20294 H 1907.04 -7.93137 2.02177 0
M  V30 20295 N 1909.71 0.175127 -1.56624 0
M  V30 20296 C 1910.98 0.919424 -1.72644 0
M  V30 20297 C 1911.36 2.00553 -0.658929 0
M  V30 20298 O 1910.71 2.2615 0.326897 0
M  V30 20299 C 1910.92 1.48764 -3.15706 0
M  V30 20300 C 1912.27 1.96204 -3.76549 0
M  V30 20301 O 1913.29 1.58565 -3.1896 0
M  V30 20302 O 1912.15 2.65525 -4.7766 0
M  V30 20303 H 1909.25 0.43251 -0.704886 0
M  V30 20304 H 1911.79 0.163255 -1.68913 0
M  V30 20305 H 1910.56 0.705743 -3.84883 0
M  V30 20306 H 1910.19 2.3081 -3.23748 0
M  V30 20307 N 1911.18 1.5123 0.44355 0
M  V30 20308 C 1912.13 1.7266 1.55857 0
M  V30 20309 C 1913.13 0.59279 1.5869 0
M  V30 20310 O 1914.33 0.774014 1.62509 0
M  V30 20311 H 1910.71 0.545442 0.517684 0
M  V30 20312 H 1912.68 2.66139 1.34954 0
M  V30 20313 C 1911.43 1.86311 2.9357 0
M  V30 20314 H 1910.75 2.72958 2.9212 0
M  V30 20315 H 1912.19 2.0532 3.70971 0
M  V30 20316 C 1910.65 0.621377 3.3112 0
M  V30 20317 O 1911.18 -0.226833 4.01059 0
M  V30 20318 N 1909.38 0.467286 2.86818 0
M  V30 20319 H 1908.93 1.15859 2.30075 0
M  V30 20320 H 1908.89 -0.36232 3.12305 0
M  V30 20321 N 1912.66 -0.698586 1.41271 0
M  V30 20322 C 1913.91 -1.45425 1.39766 0
M  V30 20323 C 1914.22 -1.95598 0.00891528 0
M  V30 20324 O 1915.43 -2.71195 -0.128757 0
M  V30 20325 C 1913.89 -2.62952 2.45732 0
M  V30 20326 C 1913.49 -2.19578 3.90499 0
M  V30 20327 C 1915.24 -3.40602 2.53359 0
M  V30 20328 C 1913.14 -3.34046 4.88024 0
M  V30 20329 H 1912.07 -0.546236 0.519752 0
M  V30 20330 H 1914.73 -0.758678 1.67082 0
M  V30 20331 H 1913.11 -3.34762 2.11542 0
M  V30 20332 H 1914.28 -1.55077 4.33921 0
M  V30 20333 H 1912.6 -1.5493 3.86504 0
M  V30 20334 H 1915.19 -4.25809 3.23405 0
M  V30 20335 H 1915.54 -3.85582 1.56946 0
M  V30 20336 H 1916.07 -2.75846 2.86625 0
M  V30 20337 H 1912.81 -2.94081 5.8583 0
M  V30 20338 H 1912.33 -3.97407 4.49253 0
M  V30 20339 H 1914.01 -3.99867 5.0864 0
M  V30 20340 N 1914.14 -1.27049 -0.93254 0
M  V30 20341 C 1915.39 -1.1327 -1.68219 0
M  V30 20342 C 1915.72 0.321632 -1.91518 0
M  V30 20343 O 1914.99 1.23564 -1.50207 0
M  V30 20344 C 1915.28 -1.91162 -3.0517 0
M  V30 20345 C 1915.13 -3.44552 -2.89143 0
M  V30 20346 C 1916.45 -1.71227 -4.05425 0
M  V30 20347 H 1913.57 -0.412859 -0.610505 0
M  V30 20348 H 1916.21 -1.56148 -1.08249 0
M  V30 20349 H 1914.36 -1.54722 -3.56361 0
M  V30 20350 H 1916.03 -3.90794 -2.45107 0
M  V30 20351 H 1914.27 -3.71138 -2.24586 0
M  V30 20352 H 1914.95 -3.9429 -3.86315 0
M  V30 20353 H 1917.42 -2.0299 -3.63227 0
M  V30 20354 H 1916.3 -2.28129 -4.99248 0
M  V30 20355 H 1916.56 -0.65898 -4.37161 0
M  V30 20356 N 1915.62 1.13835 -1.08993 0
M  V30 20357 C 1916.89 1.81232 -0.735809 0
M  V30 20358 C 1917.27 1.96172 0.779737 0
M  V30 20359 O 1916.62 1.52629 1.70049 0
M  V30 20360 C 1916.83 3.16546 -1.46968 0
M  V30 20361 C 1918.18 3.91958 -1.6326 0
M  V30 20362 O 1919.2 3.26155 -1.43183 0
M  V30 20363 O 1918.06 5.09976 -1.96435 0
M  V30 20364 H 1915.16 0.783794 -0.26381 0
M  V30 20365 H 1917.7 1.20801 -1.19186 0
M  V30 20366 H 1916.48 3.00872 -2.50183 0
M  V30 20367 H 1916.1 3.84676 -1.00551 0
M  V30 20368 N 1917.1 0.876467 1.3098 0
M  V30 20369 C 1918.04 0.335149 2.28354 0
M  V30 20370 C 1919.01 -0.569979 1.56014 0
M  V30 20371 O 1920.2 -0.500226 1.84126 0
M  V30 20372 C 1917.34 -0.451723 3.42131 0
M  V30 20373 C 1916.45 0.481657 4.29306 0
M  V30 20374 C 1915.59 -0.319977 5.30235 0
M  V30 20375 C 1914.62 0.609417 6.09059 0
M  V30 20376 N 1913.76 -0.156366 7.01926 0
M  V30 20377 H 1918.6 1.17069 2.74042 0
M  V30 20378 H 1916.14 0.588683 1.34807 0
M  V30 20379 H 1918.1 -0.923775 4.06844 0
M  V30 20380 H 1916.73 -1.25191 2.97535 0
M  V30 20381 H 1915.78 1.07218 3.64977 0
M  V30 20382 H 1917.09 1.19403 4.84298 0
M  V30 20383 H 1916.24 -0.854256 6.00656 0
M  V30 20384 H 1914.98 -1.06561 4.75916 0
M  V30 20385 H 1913.99 1.1554 5.37523 0
M  V30 20386 H 1915.21 1.354 6.65465 0
M  V30 20387 H 1913.16 -0.884688 6.50007 0
M  V30 20388 H 1913.08 0.496538 7.54368 0
M  V30 20389 H 1914.34 -0.671665 7.76601 0
M  V30 20390 N 1918.57 -1.44173 0.636557 0
M  V30 20391 C 1919.98 -1.8534 0.224954 0
M  V30 20392 C 1920.34 -1.53271 -1.22485 0
M  V30 20393 O 1919.46 -0.973441 -1.93269 0
M  V30 20394 C 1920.06 -3.36413 0.401492 0
M  V30 20395 C 1918.61 -3.76374 0.0443511 0
M  V30 20396 C 1917.76 -2.67995 0.712303 0
M  V30 20397 H 1920.71 -1.34562 0.841356 0
M  V30 20398 H 1920.73 -3.78812 -0.357965 0
M  V30 20399 H 1920.25 -3.59722 1.45677 0
M  V30 20400 H 1918.35 -3.58679 -1.00897 0
M  V30 20401 H 1918.46 -4.76904 0.458196 0
M  V30 20402 H 1916.82 -2.54275 0.147092 0
M  V30 20403 H 1917.61 -2.94136 1.77028 0
M  V30 20404 N 1920.05 -0.377435 -1.53014 0
M  V30 20405 C 1921.47 -0.0268747 -1.59577 0
M  V30 20406 C 1921.67 1.45688 -1.39202 0
M  V30 20407 O 1920.72 2.21996 -1.20309 0
M  V30 20408 C 1922.04 -0.493431 -2.96624 0
M  V30 20409 C 1923.58 -0.448667 -3.09768 0
M  V30 20410 C 1924.06 -0.891223 -4.49245 0
M  V30 20411 N 1925.55 -0.846756 -4.55395 0
M  V30 20412 C 1926.29 -1.16074 -5.61529 0
M  V30 20413 N 1925.78 -1.5446 -6.75362 0
M  V30 20414 N 1927.57 -1.08276 -5.51573 0
M  V30 20415 H 1919.73 -1.34353 -1.64508 0
M  V30 20416 H 1921.99 -0.549926 -0.772195 0
M  V30 20417 H 1921.69 -1.52927 -3.16712 0
M  V30 20418 H 1921.57 0.113748 -3.77028 0
M  V30 20419 H 1923.96 0.578058 -2.89383 0
M  V30 20420 H 1924.04 -1.0915 -2.31344 0
M  V30 20421 H 1923.68 -1.91612 -4.70369 0
M  V30 20422 H 1923.61 -0.225524 -5.26117 0
M  V30 20423 H 1926.1 -0.564127 -3.73666 0
M  V30 20424 H 1926.41 -1.76813 -7.52301 0
M  V30 20425 H 1924.76 -1.58336 -6.76724 0
M  V30 20426 H 1927.95 -0.781974 -4.61522 0
M  V30 20427 H 1928.12 -1.33078 -6.34188 0
M  V30 20428 N 1921.53 1.57237 -0.106922 0
M  V30 20429 C 1922.44 2.18202 0.861685 0
M  V30 20430 C 1923.46 1.15476 1.30159 0
M  V30 20431 O 1924.63 1.47896 1.36707 0
M  V30 20432 C 1921.7 2.7598 2.09847 0
M  V30 20433 C 1920.76 3.93702 1.71164 0
M  V30 20434 C 1919.99 4.48716 2.88946 0
M  V30 20435 O 1920.21 4.02645 4.04021 0
M  V30 20436 O 1919.15 5.39573 2.66729 0
M  V30 20437 H 1922.97 3.01402 0.372924 0
M  V30 20438 H 1920.56 1.48933 0.118058 0
M  V30 20439 H 1922.44 3.12861 2.82305 0
M  V30 20440 H 1921.12 1.9582 2.57753 0
M  V30 20441 H 1920.02 3.61613 0.958499 0
M  V30 20442 H 1921.36 4.75262 1.28011 0
M  V30 20443 N 1923.01 -0.166818 1.56715 0
M  V30 20444 C 1923.94 -1.2086 1.99787 0
M  V30 20445 C 1924.92 -1.45918 0.874178 0
M  V30 20446 O 1926.1 -1.57176 1.14058 0
M  V30 20447 C 1923.23 -2.54648 2.3616 0
M  V30 20448 C 1922.19 -2.44151 3.51532 0
M  V30 20449 C 1921.51 -3.82469 3.7366 0
M  V30 20450 C 1922.81 -1.9424 4.84838 0
M  V30 20451 H 1924.51 -0.850538 2.87065 0
M  V30 20452 H 1922.05 -0.407696 1.38108 0
M  V30 20453 H 1924.01 -3.27736 2.64891 0
M  V30 20454 H 1922.73 -2.92251 1.45797 0
M  V30 20455 H 1921.39 -1.73516 3.22936 0
M  V30 20456 H 1921.04 -4.17473 2.8058 0
M  V30 20457 H 1920.74 -3.76312 4.5129 0
M  V30 20458 H 1922.26 -4.57136 4.04796 0
M  V30 20459 H 1923.68 -2.57105 5.12416 0
M  V30 20460 H 1922.07 -1.99021 5.66137 0
M  V30 20461 H 1923.14 -0.89695 4.76532 0
M  V30 20462 N 1924.49 -1.51463 -0.435524 0
M  V30 20463 C 1925.76 -1.54763 -1.19615 0
M  V30 20464 C 1926.14 -0.312969 -2.08767 0
M  V30 20465 O 1925.49 0.701834 -2.17455 0
M  V30 20466 C 1925.7 -2.86259 -1.99642 0
M  V30 20467 C 1927.05 -3.38276 -2.56621 0
M  V30 20468 O 1928.07 -2.87821 -2.09851 0
M  V30 20469 O 1926.93 -4.26318 -3.41929 0
M  V30 20470 H 1924.03 -0.622293 -0.544684 0
M  V30 20471 H 1926.57 -1.63777 -0.444446 0
M  V30 20472 H 1925.34 -3.67578 -1.34173 0
M  V30 20473 H 1924.97 -2.80416 -2.81874 0
M  V30 20474 N 1925.96 0.691085 -1.4164 0
M  V30 20475 C 1926.89 1.8173 -1.46616 0
M  V30 20476 C 1927.88 1.66979 -0.324357 0
M  V30 20477 O 1929.06 1.86644 -0.536424 0
M  V30 20478 C 1926.19 3.19903 -1.35201 0
M  V30 20479 C 1925.14 3.49366 -2.47239 0
M  V30 20480 C 1924.47 4.86942 -2.20887 0
M  V30 20481 C 1925.77 3.47891 -3.89575 0
M  V30 20482 H 1927.46 1.77823 -2.40872 0
M  V30 20483 H 1925.01 0.8541 -1.15936 0
M  V30 20484 H 1926.96 3.98407 -1.37293 0
M  V30 20485 H 1925.69 3.24448 -0.374312 0
M  V30 20486 H 1924.35 2.73215 -2.44436 0
M  V30 20487 H 1923.99 4.88118 -1.2145 0
M  V30 20488 H 1923.69 5.0762 -2.95966 0
M  V30 20489 H 1925.22 5.67751 -2.24703 0
M  V30 20490 H 1926.63 4.16392 -3.94069 0
M  V30 20491 H 1925.03 3.80101 -4.64374 0
M  V30 20492 H 1926.1 2.46778 -4.17407 0
M  V30 20493 N 1927.44 1.27542 0.925789 0
M  V30 20494 C 1928.67 1.16921 1.71301 0
M  V30 20495 C 1929.09 -0.270082 1.86151 0
M  V30 20496 O 1928.45 -1.19558 1.36293 0
M  V30 20497 C 1928.5 1.8599 3.08934 0
M  V30 20498 O 1927.6 1.15917 3.95774 0
M  V30 20499 H 1926.94 0.406542 0.524995 0
M  V30 20500 H 1929.47 1.68646 1.15843 0
M  V30 20501 H 1929.48 1.93424 3.59237 0
M  V30 20502 H 1928.16 2.9069 2.97443 0
M  V30 20503 H 1926.74 1.16564 3.54213 0
M  V30 20504 N 1928.92 -1.13255 1.09595 0
M  V30 20505 C 1930.34 -1.36563 0.825994 0
M  V30 20506 C 1930.54 -1.93595 -0.558844 0
M  V30 20507 O 1929.59 -2.15654 -1.31338 0
M  V30 20508 C 1930.91 -2.31535 1.91864 0
M  V30 20509 C 1932.45 -2.45147 1.94607 0
M  V30 20510 C 1932.93 -3.43427 3.03021 0
M  V30 20511 N 1934.42 -3.50979 3.02271 0
M  V30 20512 C 1935.15 -4.2691 3.82799 0
M  V30 20513 N 1934.65 -5.05981 4.73239 0
M  V30 20514 N 1936.44 -4.22229 3.71051 0
M  V30 20515 H 1928.59 -0.745889 1.98872 0
M  V30 20516 H 1930.86 -0.390727 0.863734 0
M  V30 20517 H 1930.56 -1.96788 2.91492 0
M  V30 20518 H 1930.44 -3.3157 1.79837 0
M  V30 20519 H 1932.82 -2.7918 0.956178 0
M  V30 20520 H 1932.91 -1.45031 2.10712 0
M  V30 20521 H 1932.55 -3.10126 4.02225 0
M  V30 20522 H 1932.48 -4.43352 2.84159 0
M  V30 20523 H 1934.97 -2.94562 2.36731 0
M  V30 20524 H 1935.28 -5.61231 5.31262 0
M  V30 20525 H 1933.63 -5.05208 4.77274 0
M  V30 20526 H 1936.82 -3.59534 2.99755 0
M  V30 20527 H 1936.99 -4.81152 4.34047 0
M  V30 20528 N 1930.4 -0.883401 -1.30514 0
M  V30 20529 C 1931.81 -0.55179 -1.7836 0
M  V30 20530 C 1932.16 0.93196 -1.72653 0
M  V30 20531 O 1931.29 1.72818 -1.30242 0
M  V30 20532 C 1931.88 -0.994845 -3.23865 0
M  V30 20533 C 1930.44 -0.714672 -3.69553 0
M  V30 20534 C 1929.59 -1.1787 -2.51002 0
M  V30 20535 H 1932.54 -1.06778 -1.17406 0
M  V30 20536 H 1932.56 -0.32315 -3.79125 0
M  V30 20537 H 1932.07 -2.07477 -3.27986 0
M  V30 20538 H 1930.17 0.353326 -3.70921 0
M  V30 20539 H 1930.28 -1.30112 -4.61094 0
M  V30 20540 H 1928.65 -0.598079 -2.47578 0
M  V30 20541 H 1929.43 -2.26633 -2.57862 0
M  V30 20542 N 1931.88 1.43833 -0.644194 0
M  V30 20543 C 1933.1 2.06784 -0.159719 0
M  V30 20544 C 1933.53 1.47913 1.16204 0
M  V30 20545 O 1932.88 0.585574 1.71583 0
M  V30 20546 C 1932.93 3.60527 -0.0724271 0
M  V30 20547 O 1932.04 4.0088 0.967917 0
M  V30 20548 H 1931.38 0.657771 -0.0907406 0
M  V30 20549 H 1933.91 1.8449 -0.884568 0
M  V30 20550 H 1933.92 4.07841 0.113872 0
M  V30 20551 H 1932.59 4.02755 -1.03736 0
M  V30 20552 H 1931.17 3.65174 0.755135 0
M  V30 20553 N 1933.35 0.385544 1.52811 0
M  V30 20554 C 1934.77 0.0353371 1.59561 0
M  V30 20555 C 1934.97 -1.44948 1.39973 0
M  V30 20556 O 1934.03 -2.21354 1.21484 0
M  V30 20557 C 1935.34 0.509155 2.96358 0
M  V30 20558 C 1936.89 0.465088 3.09525 0
M  V30 20559 C 1937.36 0.915035 4.48766 0
M  V30 20560 N 1938.85 0.870895 4.54939 0
M  V30 20561 C 1939.59 1.1905 5.60905 0
M  V30 20562 N 1939.08 1.58039 6.74534 0
M  V30 20563 N 1940.88 1.112 5.50991 0
M  V30 20564 H 1933.03 1.35224 1.63793 0
M  V30 20565 H 1935.29 0.554013 0.769268 0
M  V30 20566 H 1935 1.54604 3.15896 0
M  V30 20567 H 1934.87 -0.0937516 3.77083 0
M  V30 20568 H 1937.26 -0.562704 2.89685 0
M  V30 20569 H 1937.34 1.10375 2.30762 0
M  V30 20570 H 1936.98 1.94104 4.69346 0
M  V30 20571 H 1936.91 0.253422 5.2599 0
M  V30 20572 H 1939.4 0.583936 3.73361 0
M  V30 20573 H 1939.72 1.808 7.51353 0
M  V30 20574 H 1938.06 1.61922 6.75874 0
M  V30 20575 H 1941.25 0.806438 4.61101 0
M  V30 20576 H 1941.43 1.3644 6.33473 0
M  V30 20577 N 1934.83 -1.57178 0.115259 0
M  V30 20578 C 1936.06 -1.99842 -0.554802 0
M  V30 20579 C 1936.48 -0.994368 -1.59668 0
M  V30 20580 O 1935.84 0.0344531 -1.81267 0
M  V30 20581 C 1935.89 -3.41399 -1.16099 0
M  V30 20582 O 1934.99 -3.43868 -2.27659 0
M  V30 20583 H 1934.33 -0.649301 -0.138937 0
M  V30 20584 H 1936.86 -2.03594 0.202629 0
M  V30 20585 H 1936.87 -3.79527 -1.49743 0
M  V30 20586 H 1935.55 -4.13993 -0.397827 0
M  V30 20587 H 1934.13 -3.17555 -1.95482 0
M  V30 20588 N 1936.31 0.158505 -1.56801 0
M  V30 20589 C 1937.56 0.871408 -1.81905 0
M  V30 20590 C 1937.87 1.8285 -0.694632 0
M  V30 20591 O 1939.08 2.58471 -0.830953 0
M  V30 20592 C 1937.54 1.60017 -3.2237 0
M  V30 20593 C 1937.14 0.686065 -4.42716 0
M  V30 20594 C 1938.89 2.30054 -3.56757 0
M  V30 20595 C 1936.79 1.41579 -5.74203 0
M  V30 20596 H 1935.72 0.329148 -0.678364 0
M  V30 20597 H 1938.38 0.124216 -1.83079 0
M  V30 20598 H 1936.76 2.39258 -3.1555 0
M  V30 20599 H 1937.93 -0.0702946 -4.60746 0
M  V30 20600 H 1936.25 0.0947 -4.16292 0
M  V30 20601 H 1938.84 2.85268 -4.52246 0
M  V30 20602 H 1939.19 3.06002 -2.82256 0
M  V30 20603 H 1939.72 1.57744 -3.65187 0
M  V30 20604 H 1936.46 0.698382 -6.51769 0
M  V30 20605 H 1935.98 2.14515 -5.60128 0
M  V30 20606 H 1937.66 1.95983 -6.16603 0
M  V30 20607 N 1937.79 1.51692 0.427485 0
M  V30 20608 C 1939.01 1.68956 1.20285 0
M  V30 20609 C 1939.44 0.390472 1.84003 0
M  V30 20610 O 1938.8 -0.650352 1.69234 0
M  V30 20611 C 1938.85 2.81368 2.25532 0
M  V30 20612 O 1937.95 2.45657 3.3125 0
M  V30 20613 H 1937.29 0.56304 0.351969 0
M  V30 20614 H 1939.82 1.98306 0.503588 0
M  V30 20615 H 1939.83 3.05742 2.70158 0
M  V30 20616 H 1938.51 3.7563 1.78535 0
M  V30 20617 H 1937.08 2.31889 2.9203 0
M  V30 20618 N 1939.27 -0.683564 1.42004 0
M  V30 20619 C 1940.2 -1.8095 1.47578 0
M  V30 20620 C 1941.18 -1.66804 0.333208 0
M  V30 20621 O 1942.36 -1.86357 0.546314 0
M  V30 20622 C 1939.49 -3.19182 1.36895 0
M  V30 20623 C 1938.45 -3.4805 2.49089 0
M  V30 20624 C 1937.77 -4.85764 2.23467 0
M  V30 20625 C 1939.07 -3.4582 3.91415 0
M  V30 20626 H 1940.77 -1.76543 2.41812 0
M  V30 20627 H 1938.31 -0.84794 1.16387 0
M  V30 20628 H 1940.27 -3.97674 1.39404 0
M  V30 20629 H 1938.99 -3.24245 0.391513 0
M  V30 20630 H 1937.65 -2.71915 2.45882 0
M  V30 20631 H 1937.3 -4.87467 1.24037 0
M  V30 20632 H 1937 -5.06043 2.98654 0
M  V30 20633 H 1938.52 -5.66551 2.27711 0
M  V30 20634 H 1939.94 -4.14297 3.96272 0
M  V30 20635 H 1938.33 -3.77633 4.66383 0
M  V30 20636 H 1939.4 -2.4456 4.1871 0
M  V30 20637 N 1940.75 -1.28031 -0.919012 0
M  V30 20638 C 1941.69 -1.11505 -2.02077 0
M  V30 20639 C 1942.66 -0.0136546 -1.66094 0
M  V30 20640 O 1943.85 -0.177608 -1.89972 0
M  V30 20641 C 1940.99 -0.777409 -3.3623 0
M  V30 20642 C 1940.1 -1.95732 -3.85114 0
M  V30 20643 C 1939.24 -1.56077 -5.07753 0
M  V30 20644 C 1938.27 -2.70764 -5.48956 0
M  V30 20645 N 1937.41 -2.31638 -6.62788 0
M  V30 20646 H 1942.25 -2.05778 -2.15545 0
M  V30 20647 H 1939.79 -1.02425 -1.05582 0
M  V30 20648 H 1941.75 -0.562424 -4.13392 0
M  V30 20649 H 1940.38 0.128373 -3.22545 0
M  V30 20650 H 1939.43 -2.28459 -3.04156 0
M  V30 20651 H 1940.74 -2.81735 -4.11615 0
M  V30 20652 H 1939.89 -1.30754 -5.92443 0
M  V30 20653 H 1938.63 -0.671958 -4.83049 0
M  V30 20654 H 1937.64 -2.96792 -4.62812 0
M  V30 20655 H 1938.86 -3.6028 -5.75652 0
M  V30 20656 H 1936.81 -1.4522 -6.39724 0
M  V30 20657 H 1936.73 -3.11178 -6.88988 0
M  V30 20658 H 1937.99 -2.09585 -7.50796 0
M  V30 20659 N 1942.22 1.12672 -1.10194 0
M  V30 20660 C 1943.5 1.80442 -0.75499 0
M  V30 20661 C 1943.88 1.96988 0.758887 0
M  V30 20662 O 1943.23 1.54424 1.6842 0
M  V30 20663 C 1943.44 3.14969 -1.50317 0
M  V30 20664 C 1944.79 3.90205 -1.67409 0
M  V30 20665 O 1945.81 3.24618 -1.46634 0
M  V30 20666 O 1944.67 5.07864 -2.01833 0
M  V30 20667 H 1941.76 0.780952 -0.272109 0
M  V30 20668 H 1944.31 1.1953 -1.20461 0
M  V30 20669 H 1943.08 2.98202 -2.5336 0
M  V30 20670 H 1942.7 3.83587 -1.04625 0
M  V30 20671 N 1943.7 0.89031 1.30043 0
M  V30 20672 C 1945.12 0.585066 1.4849 0
M  V30 20673 C 1945.32 -0.87585 1.81469 0
M  V30 20674 O 1944.37 -1.6567 1.90551 0
M  V30 20675 C 1945.69 1.50281 2.60454 0
M  V30 20676 C 1947.23 1.50701 2.74332 0
M  V30 20677 C 1947.71 2.41081 3.89415 0
M  V30 20678 N 1949.2 2.39074 3.96734 0
M  V30 20679 C 1949.94 3.05715 4.85104 0
M  V30 20680 N 1949.43 3.81601 5.78232 0
M  V30 20681 N 1951.22 2.9492 4.78517 0
M  V30 20682 H 1943.38 1.83532 1.0691 0
M  V30 20683 H 1945.64 0.785901 0.530155 0
M  V30 20684 H 1945.34 2.54327 2.42921 0
M  V30 20685 H 1945.22 1.21634 3.5705 0
M  V30 20686 H 1947.61 0.474032 2.91268 0
M  V30 20687 H 1947.69 1.83381 1.7834 0
M  V30 20688 H 1947.33 3.44466 3.73236 0
M  V30 20689 H 1947.26 2.05714 4.84757 0
M  V30 20690 H 1949.75 1.83932 3.30117 0
M  V30 20691 H 1950.06 4.29528 6.42437 0
M  V30 20692 H 1948.41 3.85708 5.78147 0
M  V30 20693 H 1951.6 2.35158 4.04745 0
M  V30 20694 H 1951.77 3.47132 5.47178 0
M  V30 20695 N 1945.18 -1.43489 0.651812 0
M  V30 20696 C 1946.09 -2.34564 -0.0413115 0
M  V30 20697 C 1947.11 -1.53803 -0.81368 0
M  V30 20698 O 1948.28 -1.86459 -0.761246 0
M  V30 20699 C 1945.35 -3.32063 -0.996745 0
M  V30 20700 C 1944.41 -4.28728 -0.221464 0
M  V30 20701 C 1943.64 -5.2157 -1.13139 0
M  V30 20702 O 1943.86 -5.18804 -2.37062 0
M  V30 20703 O 1942.8 -5.98856 -0.604552 0
M  V30 20704 H 1946.62 -2.95325 0.708295 0
M  V30 20705 H 1944.21 -1.43607 0.411999 0
M  V30 20706 H 1946.09 -3.92022 -1.54586 0
M  V30 20707 H 1944.77 -2.73807 -1.7266 0
M  V30 20708 H 1943.67 -3.72254 0.371205 0
M  V30 20709 H 1945.01 -4.89962 0.468797 0
M  V30 20710 N 1946.66 -0.393643 -1.52605 0
M  V30 20711 C 1948.07 -0.0437985 -1.5954 0
M  V30 20712 C 1948.27 1.44203 -1.4074 0
M  V30 20713 O 1947.33 2.20707 -1.22657 0
M  V30 20714 C 1948.64 -0.524864 -2.96084 0
M  V30 20715 C 1950.19 -0.481497 -3.09274 0
M  V30 20716 C 1950.67 -0.938821 -4.48275 0
M  V30 20717 N 1952.16 -0.895009 -4.54471 0
M  V30 20718 C 1952.89 -1.22023 -5.60266 0
M  V30 20719 N 1952.39 -1.61614 -6.73686 0
M  V30 20720 N 1954.18 -1.1412 -5.50393 0
M  V30 20721 H 1946.33 -1.36091 -1.63074 0
M  V30 20722 H 1948.59 -0.558085 -0.766319 0
M  V30 20723 H 1948.3 -1.56277 -3.15072 0
M  V30 20724 H 1948.17 0.0737526 -3.77128 0
M  V30 20725 H 1950.56 0.547333 -2.8998 0
M  V30 20726 H 1950.64 -1.11597 -2.30173 0
M  V30 20727 H 1950.29 -1.9659 -4.6831 0
M  V30 20728 H 1950.22 -0.281313 -5.25848 0
M  V30 20729 H 1952.71 -0.603728 -3.73046 0
M  V30 20730 H 1953.02 -1.84782 -7.50384 0
M  V30 20731 H 1951.37 -1.65504 -6.75006 0
M  V30 20732 H 1954.56 -0.83088 -4.60667 0
M  V30 20733 H 1954.73 -1.39797 -6.32741 0
M  V30 20734 N 1948.14 1.57115 -0.123593 0
M  V30 20735 C 1949.07 2.18573 0.821462 0
M  V30 20736 C 1950.05 1.1271 1.27399 0
M  V30 20737 O 1951.23 1.40964 1.33577 0
M  V30 20738 C 1948.36 2.78879 2.06987 0
M  V30 20739 C 1947.32 3.90365 1.75497 0
M  V30 20740 C 1946.64 4.37499 3.07406 0
M  V30 20741 C 1947.94 5.12249 1.01972 0
M  V30 20742 H 1949.64 2.97798 0.309319 0
M  V30 20743 H 1947.18 1.43244 0.147338 0
M  V30 20744 H 1949.13 3.20534 2.73562 0
M  V30 20745 H 1947.86 1.96951 2.60534 0
M  V30 20746 H 1946.52 3.49293 1.1131 0
M  V30 20747 H 1946.17 3.52424 3.58896 0
M  V30 20748 H 1945.87 5.12682 2.87108 0
M  V30 20749 H 1947.39 4.81808 3.75091 0
M  V30 20750 H 1948.8 5.50894 1.58709 0
M  V30 20751 H 1947.2 5.93044 0.917526 0
M  V30 20752 H 1948.27 4.84899 0.00726173 0
M  V30 20753 N 1949.61 -0.150187 1.56883 0
M  V30 20754 C 1950.54 -1.18735 2.01058 0
M  V30 20755 C 1951.52 -1.44983 0.889606 0
M  V30 20756 O 1952.71 -1.55958 1.15719 0
M  V30 20757 C 1949.84 -2.52129 2.38848 0
M  V30 20758 C 1948.79 -2.40408 3.54101 0
M  V30 20759 C 1948.12 -3.78484 3.77695 0
M  V30 20760 C 1949.42 -1.89087 4.86871 0
M  V30 20761 H 1951.11 -0.820044 2.87951 0
M  V30 20762 H 1948.66 -0.393025 1.38533 0
M  V30 20763 H 1950.61 -3.24908 2.68352 0
M  V30 20764 H 1949.34 -2.90688 1.48889 0
M  V30 20765 H 1948 -1.70082 3.24758 0
M  V30 20766 H 1947.64 -4.14474 2.84992 0
M  V30 20767 H 1947.34 -3.71504 4.55256 0
M  V30 20768 H 1948.87 -4.52816 4.09621 0
M  V30 20769 H 1950.28 -2.51656 5.15114 0
M  V30 20770 H 1948.68 -1.93005 5.68216 0
M  V30 20771 H 1949.75 -0.846357 4.77457 0
M  V30 20772 N 1951.09 -1.51916 -0.419434 0
M  V30 20773 C 1952 -1.77393 -1.53522 0
M  V30 20774 C 1953.02 -0.65897 -1.61039 0
M  V30 20775 O 1954.19 -0.943237 -1.77947 0
M  V30 20776 C 1951.26 -1.90988 -2.89352 0
M  V30 20777 C 1950.32 -3.14878 -2.91805 0
M  V30 20778 C 1949.55 -3.27815 -4.21157 0
M  V30 20779 O 1949.78 -2.4626 -5.14502 0
M  V30 20780 O 1948.71 -4.20906 -4.30258 0
M  V30 20781 H 1952.54 -2.72079 -1.34932 0
M  V30 20782 H 1950.12 -1.36635 -0.604259 0
M  V30 20783 H 1952 -2.01812 -3.69932 0
M  V30 20784 H 1950.68 -0.994906 -3.08031 0
M  V30 20785 H 1949.59 -3.0952 -2.10115 0
M  V30 20786 H 1950.92 -4.06123 -2.78073 0
M  V30 20787 N 1952.57 0.676023 -1.42365 0
M  V30 20788 C 1953.82 1.43324 -1.42487 0
M  V30 20789 C 1954.14 1.94955 -0.0418589 0
M  V30 20790 O 1953.41 1.72984 0.919418 0
M  V30 20791 H 1951.99 0.531857 -0.524535 0
M  V30 20792 H 1954.65 0.798867 -1.77775 0
M  V30 20793 H 1953.75 2.28686 -2.12389 0
M  V30 20794 N 1954.05 1.28517 0.912209 0
M  V30 20795 C 1955 1.12437 2.03619 0
M  V30 20796 C 1955.99 0.0432331 1.69345 0
M  V30 20797 O 1957.2 0.202116 1.78862 0
M  V30 20798 H 1953.57 0.34694 0.667185 0
M  V30 20799 H 1955.54 2.07625 2.14323 0
M  V30 20800 C 1954.29 0.804603 3.38262 0
M  V30 20801 H 1953.61 1.62849 3.65131 0
M  V30 20802 H 1955.05 0.732055 4.17633 0
M  V30 20803 C 1953.51 -0.491715 3.33292 0
M  V30 20804 O 1954.04 -1.52155 3.71768 0
M  V30 20805 N 1952.25 -0.493007 2.86388 0
M  V30 20806 H 1951.8 0.34549 2.55273 0
M  V30 20807 H 1951.75 -1.36038 2.83445 0
M  V30 20808 N 1955.53 -1.12086 1.1079 0
M  V30 20809 C 1956.77 -1.83677 0.852585 0
M  V30 20810 C 1957.1 -1.84292 -0.621829 0
M  V30 20811 O 1956.36 -1.28655 -1.47466 0
M  V30 20812 C 1956.66 -3.3089 1.35079 0
M  V30 20813 C 1956.32 -3.50443 2.83726 0
M  V30 20814 C 1954.98 -3.55487 3.24318 0
M  V30 20815 C 1957.34 -3.57254 3.79498 0
M  V30 20816 C 1954.66 -3.64891 4.59425 0
M  V30 20817 C 1957.02 -3.68189 5.14412 0
M  V30 20818 C 1955.68 -3.71491 5.54573 0
M  V30 20819 H 1954.95 -0.672122 0.311983 0
M  V30 20820 H 1957.6 -1.32236 1.38513 0
M  V30 20821 H 1955.9 -3.8478 0.738335 0
M  V30 20822 H 1957.6 -3.84759 1.12967 0
M  V30 20823 H 1954.19 -3.47182 2.51322 0
M  V30 20824 H 1958.37 -3.52624 3.49242 0
M  V30 20825 H 1953.63 -3.65721 4.89957 0
M  V30 20826 H 1957.8 -3.72402 5.88464 0
M  V30 20827 H 1955.43 -3.7853 6.59256 0
M  V30 20828 N 1957 -0.897194 -1.29569 0
M  V30 20829 C 1958.23 -0.536391 -1.99515 0
M  V30 20830 C 1958.64 0.882674 -1.67348 0
M  V30 20831 O 1957.99 1.59379 -0.913459 0
M  V30 20832 C 1958.05 -0.645863 -3.53651 0
M  V30 20833 C 1957.71 -2.03145 -4.09367 0
M  V30 20834 C 1958.71 -3.00231 -4.24449 0
M  V30 20835 C 1956.39 -2.34015 -4.44457 0
M  V30 20836 C 1958.39 -4.26314 -4.73852 0
M  V30 20837 C 1956.07 -3.60341 -4.93556 0
M  V30 20838 C 1957.07 -4.56304 -5.08208 0
M  V30 20839 O 1956.76 -5.80387 -5.56243 0
M  V30 20840 H 1956.49 -0.204698 -0.644263 0
M  V30 20841 H 1959.05 -1.20784 -1.66134 0
M  V30 20842 H 1957.28 0.0826055 -3.86612 0
M  V30 20843 H 1958.97 -0.294573 -4.0483 0
M  V30 20844 H 1959.73 -2.77696 -3.9763 0
M  V30 20845 H 1955.61 -1.60082 -4.32313 0
M  V30 20846 H 1959.15 -5.01222 -4.85203 0
M  V30 20847 H 1955.05 -3.82707 -5.19813 0
M  V30 20848 H 1955.82 -5.82941 -5.74562 0
M  V30 20849 N 1958.48 1.43142 -0.659413 0
M  V30 20850 C 1959.73 2.01341 -0.174987 0
M  V30 20851 C 1960.05 1.52322 1.21749 0
M  V30 20852 O 1959.32 0.738424 1.8145 0
M  V30 20853 H 1957.9 0.744447 -0.0617013 0
M  V30 20854 H 1960.56 1.75268 -0.852471 0
M  V30 20855 H 1959.66 3.11667 -0.164379 0
M  V30 20856 N 1959.96 0.40173 1.52394 0
M  V30 20857 C 1961.19 -0.178662 2.06629 0
M  V30 20858 C 1961.61 -1.3871 1.27048 0
M  V30 20859 O 1960.97 -1.78821 0.298765 0
M  V30 20860 C 1961.02 -0.514797 3.56906 0
M  V30 20861 O 1960.12 -1.60691 3.79805 0
M  V30 20862 H 1959.46 -0.0174284 0.663771 0
M  V30 20863 H 1961.99 0.572792 1.96419 0
M  V30 20864 H 1962 -0.775554 4.00561 0
M  V30 20865 H 1960.68 0.368624 4.14263 0
M  V30 20866 H 1959.25 -1.3389 3.48034 0
M  V30 20867 N 1961.44 -1.57047 0.131923 0
M  V30 20868 C 1962.37 -2.19006 -0.809859 0
M  V30 20869 C 1963.35 -1.13384 -1.26799 0
M  V30 20870 O 1964.53 -1.4167 -1.32827 0
M  V30 20871 C 1961.66 -2.79973 -2.05505 0
M  V30 20872 C 1960.62 -3.9129 -1.73424 0
M  V30 20873 C 1959.94 -4.39123 -3.05081 0
M  V30 20874 C 1961.24 -5.12783 -0.992535 0
M  V30 20875 H 1962.94 -2.97958 -0.293522 0
M  V30 20876 H 1960.48 -1.4332 -0.13974 0
M  V30 20877 H 1962.44 -3.2198 -2.71858 0
M  V30 20878 H 1961.16 -1.9833 -2.59486 0
M  V30 20879 H 1959.82 -3.49879 -1.09456 0
M  V30 20880 H 1959.47 -3.54322 -3.57022 0
M  V30 20881 H 1959.17 -5.14197 -2.84385 0
M  V30 20882 H 1960.69 -4.8379 -3.72531 0
M  V30 20883 H 1962.11 -5.51728 -1.55785 0
M  V30 20884 H 1960.5 -5.93522 -0.886062 0
M  V30 20885 H 1961.57 -4.84896 0.0184538 0
M  V30 20886 N 1962.92 0.141865 -1.5696 0
M  V30 20887 C 1964.16 0.853609 -1.83629 0
M  V30 20888 C 1964.49 1.80937 -0.713591 0
M  V30 20889 O 1963.75 1.93433 0.296981 0
M  V30 20890 C 1964.05 1.65717 -3.16658 0
M  V30 20891 C 1963.71 0.847748 -4.42859 0
M  V30 20892 C 1962.37 0.624458 -4.77131 0
M  V30 20893 C 1964.73 0.282029 -5.20436 0
M  V30 20894 C 1962.05 -0.175174 -5.86438 0
M  V30 20895 C 1964.41 -0.50467 -6.30584 0
M  V30 20896 C 1963.07 -0.738489 -6.63402 0
M  V30 20897 H 1962.34 0.312358 -0.671948 0
M  V30 20898 H 1964.99 0.117006 -1.91142 0
M  V30 20899 H 1963.29 2.46403 -3.04619 0
M  V30 20900 H 1964.99 2.21144 -3.34509 0
M  V30 20901 H 1961.58 1.03185 -4.15994 0
M  V30 20902 H 1965.76 0.441806 -4.9433 0
M  V30 20903 H 1961.02 -0.365778 -6.10305 0
M  V30 20904 H 1965.19 -0.950134 -6.89888 0
M  V30 20905 H 1962.82 -1.35995 -7.47937 0
M  V30 20906 N 1964.39 1.52136 0.411372 0
M  V30 20907 C 1965.62 1.70223 1.18486 0
M  V30 20908 C 1966.04 0.409966 1.83578 0
M  V30 20909 O 1965.4 -0.632366 1.69914 0
M  V30 20910 C 1965.45 2.83744 2.22535 0
M  V30 20911 O 1964.55 2.49157 3.28625 0
M  V30 20912 H 1963.9 0.566741 0.345978 0
M  V30 20913 H 1966.43 1.98829 0.482526 0
M  V30 20914 H 1966.44 3.08591 2.669 0
M  V30 20915 H 1965.11 3.77503 1.74541 0
M  V30 20916 H 1963.69 2.34974 2.89554 0
M  V30 20917 N 1965.87 -0.668464 1.42721 0
M  V30 20918 C 1967.12 -1.43061 1.43741 0
M  V30 20919 C 1967.45 -1.9412 0.0558656 0
M  V30 20920 O 1966.73 -1.71317 -0.920904 0
M  V30 20921 C 1967.01 -2.62307 2.46712 0
M  V30 20922 C 1966.86 -2.16839 3.94082 0
M  V30 20923 C 1968.18 -3.64525 2.46596 0
M  V30 20924 H 1965.3 -0.518854 0.523412 0
M  V30 20925 H 1967.94 -0.759144 1.74175 0
M  V30 20926 H 1966.09 -3.19593 2.20891 0
M  V30 20927 H 1967.77 -1.64672 4.30907 0
M  V30 20928 H 1966.01 -1.48352 4.07645 0
M  V30 20929 H 1966.68 -3.02521 4.6172 0
M  V30 20930 H 1969.16 -3.16968 2.69574 0
M  V30 20931 H 1968.03 -4.45532 3.20613 0
M  V30 20932 H 1968.29 -4.16084 1.49421 0
M  V30 20933 N 1967.35 -1.28999 -0.905381 0
M  V30 20934 C 1968.76 -1.15033 -1.47052 0
M  V30 20935 C 1969.11 0.256623 -1.94514 0
M  V30 20936 O 1968.24 1.15164 -1.83211 0
M  V30 20937 C 1968.83 -2.08213 -2.67269 0
M  V30 20938 C 1967.39 -1.98286 -3.19937 0
M  V30 20939 C 1966.54 -1.99468 -1.92634 0
M  V30 20940 H 1969.49 -1.41566 -0.717271 0
M  V30 20941 H 1969.51 -1.65102 -3.42814 0
M  V30 20942 H 1969.02 -3.10604 -2.32695 0
M  V30 20943 H 1967.12 -0.98963 -3.59217 0
M  V30 20944 H 1967.24 -2.85666 -3.84619 0
M  V30 20945 H 1965.6 -1.43988 -2.10094 0
M  V30 20946 H 1966.38 -3.03554 -1.60344 0
M  V30 20947 N 1968.83 1.11497 -1.11383 0
M  V30 20948 C 1970.05 1.87567 -0.885056 0
M  V30 20949 C 1970.48 1.79581 0.559675 0
M  V30 20950 O 1969.84 1.15779 1.39517 0
M  V30 20951 C 1969.89 3.34354 -1.35053 0
M  V30 20952 O 1968.99 4.09085 -0.521865 0
M  V30 20953 H 1968.33 0.582433 -0.318853 0
M  V30 20954 H 1970.86 1.4094 -1.48314 0
M  V30 20955 H 1970.87 3.85201 -1.34478 0
M  V30 20956 H 1969.55 3.39484 -2.40257 0
M  V30 20957 H 1968.12 3.68144 -0.593669 0
M  V30 20958 N 1970.31 0.904053 1.29092 0
M  V30 20959 C 1971.53 0.547082 2.00054 0
M  V30 20960 C 1971.96 -0.862026 1.67185 0
M  V30 20961 O 1971.32 -1.57449 0.898855 0
M  V30 20962 C 1971.36 0.751495 3.52682 0
M  V30 20963 O 1970.47 -0.194004 4.11943 0
M  V30 20964 H 1969.81 0.213241 0.628828 0
M  V30 20965 H 1972.34 1.21683 1.64482 0
M  V30 20966 H 1972.35 0.657831 4.02662 0
M  V30 20967 H 1971.02 1.77878 3.75942 0
M  V30 20968 H 1969.6 -0.0524281 3.72863 0
M  V30 20969 N 1971.79 -1.4279 0.666995 0
M  V30 20970 C 1972.73 -2.30794 -0.0161644 0
M  V30 20971 C 1973.7 -1.45527 -0.800701 0
M  V30 20972 O 1974.89 -1.74372 -0.774527 0
M  V30 20973 C 1972.03 -3.31276 -0.966974 0
M  V30 20974 C 1971.14 -4.31637 -0.177086 0
M  V30 20975 C 1970.28 -5.19195 -1.12294 0
M  V30 20976 C 1969.31 -6.1124 -0.324284 0
M  V30 20977 N 1968.45 -6.91376 -1.22244 0
M  V30 20978 H 1973.29 -2.88662 0.74014 0
M  V30 20979 H 1970.83 -1.42194 0.376738 0
M  V30 20980 H 1972.79 -3.88054 -1.53198 0
M  V30 20981 H 1971.42 -2.75025 -1.69 0
M  V30 20982 H 1970.47 -3.77041 0.504428 0
M  V30 20983 H 1971.78 -4.96826 0.443328 0
M  V30 20984 H 1970.93 -5.80667 -1.75813 0
M  V30 20985 H 1969.67 -4.54164 -1.77725 0
M  V30 20986 H 1968.68 -5.48843 0.324174 0
M  V30 20987 H 1969.9 -6.78318 0.325818 0
M  V30 20988 H 1967.85 -6.28981 -1.86329 0
M  V30 20989 H 1967.77 -7.5314 -0.656918 0
M  V30 20990 H 1969.03 -7.57342 -1.84535 0
M  V30 20991 N 1973.26 -0.409806 -1.52179 0
M  V30 20992 C 1974.19 0.406421 -2.29936 0
M  V30 20993 C 1975.17 1.04553 -1.34174 0
M  V30 20994 O 1976.36 1.05441 -1.63082 0
M  V30 20995 C 1973.49 1.52297 -3.12127 0
M  V30 20996 C 1972.44 1.00883 -4.15941 0
M  V30 20997 C 1971.77 2.21903 -4.8648 0
M  V30 20998 C 1973.07 0.0623996 -5.22263 0
M  V30 20999 H 1974.76 -0.242406 -2.98417 0
M  V30 21000 H 1972.31 -0.118023 -1.43516 0
M  V30 21001 H 1974.26 2.10097 -3.65291 0
M  V30 21002 H 1972.99 2.19968 -2.41416 0
M  V30 21003 H 1971.65 0.453228 -3.63788 0
M  V30 21004 H 1971.29 2.88131 -4.12298 0
M  V30 21005 H 1970.99 1.88153 -5.56662 0
M  V30 21006 H 1972.52 2.80308 -5.42457 0
M  V30 21007 H 1973.93 0.549223 -5.70663 0
M  V30 21008 H 1972.33 -0.186317 -5.99811 0
M  V30 21009 H 1973.4 -0.882673 -4.76799 0
M  V30 21010 N 1974.74 1.56975 -0.14025 0
M  V30 21011 C 1975.97 2.00699 0.522938 0
M  V30 21012 C 1976.39 1.01964 1.58066 0
M  V30 21013 O 1975.75 -0.0056107 1.81299 0
M  V30 21014 C 1975.8 3.43203 1.10653 0
M  V30 21015 O 1974.9 3.47447 2.22159 0
M  V30 21016 H 1974.24 0.65143 0.12859 0
M  V30 21017 H 1976.77 2.03246 -0.234993 0
M  V30 21018 H 1976.78 3.81862 1.43686 0
M  V30 21019 H 1975.46 4.14573 0.331913 0
M  V30 21020 H 1974.03 3.20625 1.90405 0
M  V30 21021 N 1976.22 -0.133539 1.57033 0
M  V30 21022 C 1977.47 -0.842192 1.83716 0
M  V30 21023 C 1977.79 -1.81092 0.723225 0
M  V30 21024 O 1977.06 -1.94246 -0.254028 0
M  V30 21025 H 1975.64 -0.314004 0.677798 0
M  V30 21026 H 1978.3 -0.124329 1.94503 0
M  V30 21027 H 1977.4 -1.39628 2.79125 0
M  V30 21028 N 1977.7 -1.52352 -0.403298 0
M  V30 21029 C 1978.64 -1.76112 -1.49175 0
M  V30 21030 C 1979.61 -0.603767 -1.54738 0
M  V30 21031 O 1980.8 -0.841951 -1.71219 0
M  V30 21032 C 1977.94 -1.92292 -2.86562 0
M  V30 21033 C 1977.05 -3.19955 -2.90263 0
M  V30 21034 C 1976.19 -3.26534 -4.18986 0
M  V30 21035 C 1975.23 -4.48376 -4.16684 0
M  V30 21036 N 1974.36 -4.52315 -5.36988 0
M  V30 21037 H 1979.2 -2.69006 -1.28217 0
M  V30 21038 H 1976.74 -1.3329 -0.622266 0
M  V30 21039 H 1978.7 -1.99657 -3.66324 0
M  V30 21040 H 1977.33 -1.02772 -3.06003 0
M  V30 21041 H 1976.38 -3.21733 -2.02958 0
M  V30 21042 H 1977.69 -4.09759 -2.84428 0
M  V30 21043 H 1976.85 -3.33003 -5.07143 0
M  V30 21044 H 1975.59 -2.34679 -4.27524 0
M  V30 21045 H 1974.59 -4.42048 -3.26916 0
M  V30 21046 H 1975.82 -5.41532 -4.0978 0
M  V30 21047 H 1973.76 -3.63346 -5.46183 0
M  V30 21048 H 1973.68 -5.35971 -5.3317 0
M  V30 21049 H 1974.95 -4.6302 -6.27082 0
M  V30 21050 N 1979.18 0.660885 -1.43074 0
M  V30 21051 C 1980.12 1.77404 -1.47637 0
M  V30 21052 C 1981.09 1.62852 -0.326854 0
M  V30 21053 O 1982.28 1.83206 -0.532921 0
M  V30 21054 C 1979.42 3.15517 -1.39796 0
M  V30 21055 C 1978.53 3.41257 -2.64892 0
M  V30 21056 C 1977.67 4.69176 -2.49093 0
M  V30 21057 C 1976.7 4.87995 -3.69496 0
M  V30 21058 N 1975.84 6.07166 -3.52554 0
M  V30 21059 H 1980.68 1.72838 -2.42757 0
M  V30 21060 H 1978.22 0.843558 -1.20509 0
M  V30 21061 H 1980.18 3.9535 -1.33245 0
M  V30 21062 H 1978.81 3.19172 -0.482623 0
M  V30 21063 H 1977.86 2.55577 -2.81753 0
M  V30 21064 H 1979.17 3.51052 -3.5435 0
M  V30 21065 H 1978.32 5.57122 -2.40207 0
M  V30 21066 H 1977.06 4.61688 -1.57147 0
M  V30 21067 H 1976.07 3.98487 -3.78799 0
M  V30 21068 H 1977.29 4.97318 -4.62441 0
M  V30 21069 H 1975.24 6.00825 -2.63336 0
M  V30 21070 H 1975.16 6.17884 -4.35609 0
M  V30 21071 H 1976.42 6.97754 -3.47506 0
M  V30 21072 N 1980.65 1.29477 0.898527 0
M  V30 21073 C 1981.88 1.20529 1.68783 0
M  V30 21074 C 1982.3 -0.230536 1.86682 0
M  V30 21075 O 1981.66 -1.1664 1.38798 0
M  V30 21076 C 1981.71 1.92501 3.04919 0
M  V30 21077 O 1980.81 1.24286 3.93226 0
M  V30 21078 H 1980.16 0.417586 0.516254 0
M  V30 21079 H 1982.69 1.71066 1.1224 0
M  V30 21080 H 1982.7 2.01001 3.55053 0
M  V30 21081 H 1981.37 2.96934 2.9121 0
M  V30 21082 H 1979.95 1.24052 3.51661 0
M  V30 21083 N 1982.13 -1.10905 1.11972 0
M  V30 21084 C 1983.36 -1.87095 0.894991 0
M  V30 21085 C 1983.78 -1.79875 -0.550144 0
M  V30 21086 O 1983.14 -1.16517 -1.38901 0
M  V30 21087 C 1983.19 -3.33634 1.36825 0
M  V30 21088 O 1982.29 -4.08802 0.543553 0
M  V30 21089 H 1981.63 -0.580734 0.321938 0
M  V30 21090 H 1984.16 -1.40152 1.49059 0
M  V30 21091 H 1984.17 -3.84482 1.36519 0
M  V30 21092 H 1982.85 -3.38205 2.42054 0
M  V30 21093 H 1981.43 -3.67824 0.613185 0
M  V30 21094 N 1983.61 -0.910886 -1.2861 0
M  V30 21095 C 1984.54 -0.413998 -2.29801 0
M  V30 21096 C 1985.52 0.51689 -1.62056 0
M  V30 21097 O 1986.71 0.425236 -1.89487 0
M  V30 21098 C 1983.84 0.349336 -3.45539 0
M  V30 21099 C 1982.79 -0.49215 -4.25161 0
M  V30 21100 C 1982.12 0.399352 -5.33207 0
M  V30 21101 C 1983.42 -1.74792 -4.92184 0
M  V30 21102 H 1985.11 -1.25965 -2.71612 0
M  V30 21103 H 1982.66 -0.607149 -1.30575 0
M  V30 21104 H 1984.61 0.70777 -4.15414 0
M  V30 21105 H 1983.33 1.22887 -3.02599 0
M  V30 21106 H 1981.99 -0.833064 -3.57009 0
M  V30 21107 H 1981.64 1.27734 -4.86511 0
M  V30 21108 H 1981.34 -0.160062 -5.87382 0
M  V30 21109 H 1982.86 0.753731 -6.0593 0
M  V30 21110 H 1984.28 -1.45856 -5.54436 0
M  V30 21111 H 1982.68 -2.24952 -5.56342 0
M  V30 21112 H 1983.75 -2.4774 -4.16837 0
M  V30 21113 N 1985.09 1.42434 -0.674558 0
M  V30 21114 C 1986.34 2.01542 -0.196721 0
M  V30 21115 C 1986.66 1.53331 1.19666 0
M  V30 21116 O 1985.92 0.726066 1.81733 0
M  V30 21117 C 1986.22 3.56948 -0.179695 0
M  V30 21118 C 1985.88 4.2459 -1.51771 0
M  V30 21119 C 1984.55 4.42782 -1.88407 0
M  V30 21120 C 1986.9 4.6271 -2.39893 0
M  V30 21121 C 1984.23 4.96367 -3.12789 0
M  V30 21122 C 1986.58 5.17675 -3.63587 0
M  V30 21123 C 1985.24 5.34081 -4.00392 0
M  V30 21124 H 1984.51 0.737495 -0.0719853 0
M  V30 21125 H 1987.16 1.70622 -0.869495 0
M  V30 21126 H 1985.46 3.87534 0.576588 0
M  V30 21127 H 1987.16 4.00464 0.207226 0
M  V30 21128 H 1983.75 4.10789 -1.22271 0
M  V30 21129 H 1987.93 4.48328 -2.12874 0
M  V30 21130 H 1983.19 5.07254 -3.41326 0
M  V30 21131 H 1987.36 5.46156 -4.32072 0
M  V30 21132 H 1984.99 5.75366 -4.96848 0
M  V30 21133 N 1986.57 0.417871 1.51959 0
M  V30 21134 C 1987.98 -0.0497386 1.86634 0
M  V30 21135 C 1988.33 -1.43671 1.33616 0
M  V30 21136 O 1987.45 -2.05472 0.67898 0
M  V30 21137 C 1988.05 -0.0970329 3.38661 0
M  V30 21138 C 1986.61 -0.509 3.72943 0
M  V30 21139 C 1985.75 0.310908 2.75552 0
M  V30 21140 H 1988.71 0.634566 1.45461 0
M  V30 21141 H 1988.73 -0.910534 3.69445 0
M  V30 21142 H 1988.24 0.912553 3.77219 0
M  V30 21143 H 1986.34 -1.52491 3.39967 0
M  V30 21144 H 1986.45 -0.247317 4.78461 0
M  V30 21145 H 1984.82 -0.228018 2.53677 0
M  V30 21146 H 1985.6 1.31901 3.1695 0
M  V30 21147 N 1988.04 -1.56898 0.148573 0
M  V30 21148 C 1988.98 -2.13971 -0.821526 0
M  V30 21149 C 1989.99 -1.08955 -1.20965 0
M  V30 21150 O 1991.18 -1.36226 -1.15346 0
M  V30 21151 C 1988.28 -2.6488 -2.11404 0
M  V30 21152 C 1987.45 -3.94313 -1.89303 0
M  V30 21153 C 1986.51 -4.30517 -3.02558 0
M  V30 21154 O 1985.54 -4.98812 -2.74181 0
M  V30 21155 N 1986.74 -3.90226 -4.29772 0
M  V30 21156 H 1989.5 -2.97836 -0.333735 0
M  V30 21157 H 1987.06 -1.61862 -0.0349479 0
M  V30 21158 H 1989.06 -2.86112 -2.8622 0
M  V30 21159 H 1987.63 -1.85731 -2.51441 0
M  V30 21160 H 1986.85 -3.81692 -0.985147 0
M  V30 21161 H 1988.13 -4.7889 -1.71877 0
M  V30 21162 H 1987.53 -3.352 -4.55694 0
M  V30 21163 H 1986.09 -4.16506 -5.01364 0
M  V30 21164 N 1989.52 0.125209 -1.57102 0
M  V30 21165 C 1990.77 0.832437 -1.8416 0
M  V30 21166 C 1991.09 1.80706 -0.732819 0
M  V30 21167 O 1990.36 1.94378 0.243723 0
M  V30 21168 H 1988.94 0.310405 -0.679454 0
M  V30 21169 H 1991.6 0.114013 -1.94566 0
M  V30 21170 H 1990.7 1.38145 -2.79861 0
M  V30 21171 N 1991 1.52564 0.395213 0
M  V30 21172 C 1991.93 1.79867 1.48897 0
M  V30 21173 C 1992.91 0.650351 1.57176 0
M  V30 21174 O 1994.1 0.897328 1.72226 0
M  V30 21175 C 1991.23 1.96192 2.86576 0
M  V30 21176 C 1990.18 3.11854 2.9314 0
M  V30 21177 C 1989.51 3.13424 4.33208 0
M  V30 21178 C 1990.81 4.51046 2.63353 0
M  V30 21179 H 1992.5 2.71457 1.26299 0
M  V30 21180 H 1990.05 1.30621 0.606145 0
M  V30 21181 H 1992 2.13875 3.63091 0
M  V30 21182 H 1990.72 1.01286 3.10498 0
M  V30 21183 H 1989.38 2.93944 2.19072 0
M  V30 21184 H 1989.03 2.16212 4.5416 0
M  V30 21185 H 1988.73 3.91117 4.38522 0
M  V30 21186 H 1990.25 3.33254 5.11639 0
M  V30 21187 H 1991.67 4.6909 3.29587 0
M  V30 21188 H 1990.07 5.3076 2.80024 0
M  V30 21189 H 1991.14 4.58187 1.58722 0
M  V30 21190 N 1992.48 -0.653289 1.43422 0
M  V30 21191 C 1993.39 -1.79526 1.51022 0
M  V30 21192 C 1994.4 -1.69403 0.39732 0
M  V30 21193 O 1995.58 -1.90574 0.651437 0
M  V30 21194 C 1992.65 -3.15803 1.43071 0
M  V30 21195 C 1991.71 -3.37723 2.65031 0
M  V30 21196 C 1990.94 -4.67499 2.5745 0
M  V30 21197 O 1991.16 -5.46846 1.6222 0
M  V30 21198 O 1990.1 -4.91137 3.47948 0
M  V30 21199 H 1993.92 -1.76069 2.47454 0
M  V30 21200 H 1991.51 -0.81176 1.25423 0
M  V30 21201 H 1993.39 -3.97083 1.41079 0
M  V30 21202 H 1992.06 -3.1985 0.497738 0
M  V30 21203 H 1990.97 -2.56208 2.72595 0
M  V30 21204 H 1992.3 -3.38523 3.573 0
M  V30 21205 N 1993.96 -1.29952 -0.891648 0
M  V30 21206 C 1995.23 -1.09057 -1.62376 0
M  V30 21207 C 1995.61 0.362482 -2.07965 0
M  V30 21208 O 1994.96 1.35277 -1.84153 0
M  V30 21209 C 1995.17 -2.08543 -2.79841 0
M  V30 21210 C 1996.52 -2.39899 -3.50333 0
M  V30 21211 O 1997.54 -2.06801 -2.90021 0
M  V30 21212 O 1996.4 -2.96487 -4.59083 0
M  V30 21213 H 1993.5 -0.418386 -0.71336 0
M  V30 21214 H 1996.04 -1.41353 -0.939009 0
M  V30 21215 H 1994.81 -3.06378 -2.43409 0
M  V30 21216 H 1994.44 -1.77024 -3.56017 0
M  V30 21217 N 1995.44 1.1031 -1.12559 0
M  V30 21218 C 1996.66 1.86618 -0.9049 0
M  V30 21219 C 1997.09 1.80164 0.540597 0
M  V30 21220 O 1996.44 1.17252 1.38281 0
M  V30 21221 C 1996.49 3.32903 -1.38592 0
M  V30 21222 O 1995.6 4.08508 -0.565225 0
M  V30 21223 H 1994.94 0.579019 -0.325013 0
M  V30 21224 H 1997.47 1.39359 -1.498 0
M  V30 21225 H 1997.48 3.83753 -1.38556 0
M  V30 21226 H 1996.15 3.36917 -2.43844 0
M  V30 21227 H 1994.73 3.67494 -0.632682 0
M  V30 21228 N 1996.91 0.917694 1.28125 0
M  V30 21229 C 1997.86 0.407628 2.27172 0
M  V30 21230 C 1998.83 -0.520056 1.57749 0
M  V30 21231 O 2000.02 -0.441394 1.85624 0
M  V30 21232 C 1997.16 -0.342648 3.43395 0
M  V30 21233 C 1996.27 0.617993 4.27557 0
M  V30 21234 C 1995.4 -0.151124 5.30985 0
M  V30 21235 C 1994.44 0.802876 6.06812 0
M  V30 21236 N 1993.58 0.0670251 7.02068 0
M  V30 21237 H 1998.42 1.25728 2.70179 0
M  V30 21238 H 1995.96 0.631273 1.32866 0
M  V30 21239 H 1997.91 -0.793873 4.09577 0
M  V30 21240 H 1996.54 -1.15661 3.01367 0
M  V30 21241 H 1995.6 1.18775 3.61382 0
M  V30 21242 H 1996.91 1.3475 4.80254 0
M  V30 21243 H 1996.06 -0.662729 6.03069 0
M  V30 21244 H 1994.8 -0.913657 4.79065 0
M  V30 21245 H 1993.81 1.32582 5.33575 0
M  V30 21246 H 1995.03 1.56503 6.6082 0
M  V30 21247 H 1992.98 -0.677445 6.52493 0
M  V30 21248 H 1992.89 0.736283 7.52406 0
M  V30 21249 H 1994.16 -0.424255 7.78345 0
M  V30 21250 N 1998.39 -1.42074 0.682102 0
M  V30 21251 C 1999.81 -1.55662 0.352347 0
M  V30 21252 C 2000.01 -1.66032 -1.14174 0
M  V30 21253 O 1999.06 -1.63128 -1.92732 0
M  V30 21254 C 2000.38 -2.80285 1.08907 0
M  V30 21255 C 2001.92 -2.94066 1.0721 0
M  V30 21256 C 2002.4 -4.2156 1.7903 0
M  V30 21257 N 2003.89 -4.28488 1.75933 0
M  V30 21258 C 2004.63 -5.25968 2.28354 0
M  V30 21259 N 2004.12 -6.29557 2.89188 0
M  V30 21260 N 2005.91 -5.17815 2.18686 0
M  V30 21261 H 1998.07 -1.33588 1.65131 0
M  V30 21262 H 2000.33 -0.643549 0.696096 0
M  V30 21263 H 2000.03 -2.78786 2.14409 0
M  V30 21264 H 1999.91 -3.71399 0.658975 0
M  V30 21265 H 2002.3 -2.95089 0.0253867 0
M  V30 21266 H 2002.38 -2.04163 1.54114 0
M  V30 21267 H 2002.02 -4.21298 2.83673 0
M  V30 21268 H 2001.95 -5.10411 1.2957 0
M  V30 21269 H 2004.44 -3.54257 1.31568 0
M  V30 21270 H 2004.75 -7.00306 3.26789 0
M  V30 21271 H 2003.1 -6.30098 2.9326 0
M  V30 21272 H 2006.29 -4.3581 1.70843 0
M  V30 21273 H 2006.46 -5.9362 2.59845 0
M  V30 21274 N 1999.87 -0.425924 -1.51735 0
M  V30 21275 C 2001.09 0.145767 -2.06887 0
M  V30 21276 C 2001.52 1.36671 -1.29239 0
M  V30 21277 O 2000.88 1.78323 -0.327176 0
M  V30 21278 C 2000.93 0.457951 -3.5768 0
M  V30 21279 O 2000.03 1.54629 -3.82314 0
M  V30 21280 H 1999.37 0.00686619 -0.663964 0
M  V30 21281 H 2001.9 -0.603968 -1.95482 0
M  V30 21282 H 2001.91 0.71173 -4.01744 0
M  V30 21283 H 2000.59 -0.434483 -4.13624 0
M  V30 21284 H 1999.16 1.28336 -3.5012 0
M  V30 21285 N 2001.35 1.56817 -0.156891 0
M  V30 21286 C 2002.29 2.17256 0.779004 0
M  V30 21287 C 2003.26 1.1083 1.23717 0
M  V30 21288 O 2004.45 1.38917 1.30793 0
M  V30 21289 C 2001.59 2.80612 2.00876 0
M  V30 21290 C 2000.7 4.01457 1.59549 0
M  V30 21291 C 1999.84 4.52782 2.7778 0
M  V30 21292 C 1998.88 5.66071 2.32874 0
M  V30 21293 N 1998.01 6.11969 3.44148 0
M  V30 21294 H 2002.85 2.96891 0.256809 0
M  V30 21295 H 2000.39 1.46649 0.115039 0
M  V30 21296 H 2002.35 3.15494 2.72983 0
M  V30 21297 H 2000.98 2.03604 2.5049 0
M  V30 21298 H 2000.03 3.7249 0.771705 0
M  V30 21299 H 2001.34 4.83505 1.22576 0
M  V30 21300 H 2000.5 4.89771 3.58064 0
M  V30 21301 H 1999.24 3.69763 3.18005 0
M  V30 21302 H 1998.24 5.28648 1.51034 0
M  V30 21303 H 1999.47 6.50882 1.93724 0
M  V30 21304 H 1997.41 5.31883 3.83975 0
M  V30 21305 H 1997.33 6.88968 3.11222 0
M  V30 21306 H 1998.6 6.53605 4.24759 0
M  V30 21307 N 2002.83 -0.116876 1.57166 0
M  V30 21308 C 2004.05 -0.842338 1.89524 0
M  V30 21309 C 2004.48 -1.72543 0.749039 0
M  V30 21310 O 2003.83 -1.78795 -0.30035 0
M  V30 21311 C 2003.88 -1.64989 3.20641 0
M  V30 21312 O 2002.99 -2.75701 3.06696 0
M  V30 21313 H 2002.33 -0.232809 0.621849 0
M  V30 21314 H 2004.86 -0.0986366 2.04362 0
M  V30 21315 H 2004.87 -2.03869 3.53414 0
M  V30 21316 H 2003.54 -1.00164 4.03658 0
M  V30 21317 H 2002.12 -2.40009 2.85395 0
M  V30 21318 N 2004.3 -1.52772 -0.387116 0
M  V30 21319 C 2005.23 -1.80654 -1.47941 0
M  V30 21320 C 2006.21 -0.658677 -1.56829 0
M  V30 21321 O 2007.4 -0.906449 -1.71747 0
M  V30 21322 C 2004.53 -1.97709 -2.85532 0
M  V30 21323 C 2003.48 -3.13404 -2.91482 0
M  V30 21324 C 2002.81 -3.15717 -4.3154 0
M  V30 21325 C 2004.11 -4.52437 -2.60957 0
M  V30 21326 H 2005.8 -2.72123 -1.24858 0
M  V30 21327 H 2003.35 -1.30941 -0.59921 0
M  V30 21328 H 2005.3 -2.15798 -3.61952 0
M  V30 21329 H 2004.03 -1.02931 -3.09956 0
M  V30 21330 H 2002.69 -2.95102 -2.1751 0
M  V30 21331 H 2002.33 -2.18618 -4.53007 0
M  V30 21332 H 2002.03 -3.93437 -4.36441 0
M  V30 21333 H 2003.56 -3.35963 -5.09864 0
M  V30 21334 H 2004.97 -4.70831 -3.27095 0
M  V30 21335 H 2003.37 -5.32238 -2.77205 0
M  V30 21336 H 2004.44 -4.59022 -1.5629 0
M  V30 21337 N 2005.78 0.645673 -1.43767 0
M  V30 21338 C 2006.71 1.76974 -1.52324 0
M  V30 21339 C 2007.69 1.65862 -0.377316 0
M  V30 21340 O 2008.88 1.84843 -0.595532 0
M  V30 21341 C 2006.01 3.1544 -1.4531 0
M  V30 21342 C 2004.96 3.41324 -2.58229 0
M  V30 21343 C 2004.29 4.79669 -2.36267 0
M  V30 21344 C 2005.59 3.35321 -4.00446 0
M  V30 21345 H 2007.28 1.70069 -2.46408 0
M  V30 21346 H 2004.83 0.816784 -1.18594 0
M  V30 21347 H 2006.78 3.93838 -1.49899 0
M  V30 21348 H 2005.5 3.23093 -0.477344 0
M  V30 21349 H 2004.16 2.653 -2.53005 0
M  V30 21350 H 2003.81 4.84007 -1.36918 0
M  V30 21351 H 2003.51 4.97947 -3.11966 0
M  V30 21352 H 2005.04 5.60315 -2.42652 0
M  V30 21353 H 2006.45 4.03644 -4.07117 0
M  V30 21354 H 2004.85 3.65135 -4.76231 0
M  V30 21355 H 2005.92 2.33373 -4.25047 0
M  V30 21356 N 2007.26 1.30423 0.884744 0
M  V30 21357 C 2008.67 1.17357 1.45204 0
M  V30 21358 C 2009.02 -0.225645 1.94898 0
M  V30 21359 O 2008.15 -1.12234 1.8502 0
M  V30 21360 C 2008.74 2.12438 2.63923 0
M  V30 21361 C 2007.3 2.03351 3.16742 0
M  V30 21362 C 2006.45 2.02508 1.89436 0
M  V30 21363 H 2009.4 1.42689 0.694659 0
M  V30 21364 H 2009.42 1.70535 3.40144 0
M  V30 21365 H 2008.93 3.14267 2.27724 0
M  V30 21366 H 2007.03 1.04665 3.57597 0
M  V30 21367 H 2007.15 2.91748 3.80026 0
M  V30 21368 H 2005.51 1.47312 2.07777 0
M  V30 21369 H 2006.29 3.06066 1.55494 0
M  V30 21370 N 2008.74 -1.09711 1.13142 0
M  V30 21371 C 2010.01 -1.78377 0.802565 0
M  V30 21372 C 2010.39 -1.9893 -0.706392 0
M  V30 21373 O 2009.74 -1.58835 -1.64267 0
M  V30 21374 C 2009.95 -3.10873 1.58615 0
M  V30 21375 C 2011.3 -3.85629 1.77695 0
M  V30 21376 O 2012.32 -3.20616 1.55189 0
M  V30 21377 O 2011.18 -5.02334 2.15228 0
M  V30 21378 H 2008.28 -0.773463 0.292718 0
M  V30 21379 H 2010.82 -1.16294 1.23587 0
M  V30 21380 H 2009.6 -2.9138 2.61177 0
M  V30 21381 H 2009.22 -3.80679 1.14758 0
M  V30 21382 N 2010.22 -0.924476 -1.27637 0
M  V30 21383 C 2011.17 -0.392138 -2.24602 0
M  V30 21384 C 2012.15 0.501783 -1.52876 0
M  V30 21385 O 2013.34 0.339754 -1.73709 0
M  V30 21386 C 2010.47 0.356902 -3.4144 0
M  V30 21387 C 2009.56 -0.553352 -4.20475 0
M  V30 21388 N 2009.95 -1.67175 -4.77374 0
M  V30 21389 C 2008.25 -0.355752 -4.44579 0
M  V30 21390 C 2008.95 -2.23762 -5.36941 0
M  V30 21391 N 2007.92 -1.52759 -5.21695 0
M  V30 21392 H 2011.73 -1.24612 -2.66175 0
M  V30 21393 H 2009.24 -0.778373 -1.42531 0
M  V30 21394 H 2011.24 0.755192 -4.10003 0
M  V30 21395 H 2009.9 1.20785 -3.01399 0
M  V30 21396 H 2010.91 -2.05418 -4.7542 0
M  V30 21397 H 2007.58 0.454798 -4.15015 0
M  V30 21398 H 2008.97 -3.17902 -5.91936 0
M  V30 21399 N 2011.69 1.41711 -0.689627 0
M  V30 21400 C 2012.92 2.05652 -0.226938 0
M  V30 21401 C 2013.34 1.51875 1.12158 0
M  V30 21402 O 2012.69 0.664544 1.69971 0
M  V30 21403 C 2012.75 3.61102 -0.169503 0
M  V30 21404 O 2012.47 4.12888 -1.46475 0
M  V30 21405 C 2013.97 4.4218 0.314894 0
M  V30 21406 H 2011.19 0.66244 -0.10684 0
M  V30 21407 H 2013.73 1.81588 -0.940538 0
M  V30 21408 H 2011.89 3.84226 0.49488 0
M  V30 21409 H 2012.3 5.06884 -1.34791 0
M  V30 21410 H 2013.77 5.51162 0.303964 0
M  V30 21411 H 2014.25 4.17848 1.35275 0
M  V30 21412 H 2014.86 4.24107 -0.318278 0
M  V30 21413 N 2013.17 0.433965 1.51507 0
M  V30 21414 C 2014.4 -0.134793 2.06962 0
M  V30 21415 C 2014.82 -1.35984 1.29962 0
M  V30 21416 O 2014.18 -1.78147 0.336629 0
M  V30 21417 C 2014.23 -0.438976 3.57918 0
M  V30 21418 O 2013.33 -1.52599 3.83128 0
M  V30 21419 H 2012.67 -0.00334493 0.663992 0
M  V30 21420 H 2015.2 0.614327 1.95159 0
M  V30 21421 H 2015.21 -0.690415 4.02116 0
M  V30 21422 H 2013.89 0.456413 4.13388 0
M  V30 21423 H 2012.47 -1.26478 3.50796 0
M  V30 21424 N 2014.65 -1.56732 0.165206 0
M  V30 21425 C 2015.93 -1.88357 -0.527344 0
M  V30 21426 C 2016.31 -1.07412 -1.8173 0
M  V30 21427 O 2015.66 -0.166236 -2.27895 0
M  V30 21428 C 2015.87 -3.40282 -0.775175 0
M  V30 21429 C 2017.21 -4.09891 -1.10789 0
M  V30 21430 O 2018.24 -3.45565 -0.863921 0
M  V30 21431 O 2017.1 -5.23527 -1.56787 0
M  V30 21432 H 2014.19 -0.781304 -0.271096 0
M  V30 21433 H 2016.74 -1.68479 0.203183 0
M  V30 21434 H 2015.51 -3.9106 0.137 0
M  V30 21435 H 2015.13 -3.65751 -1.55924 0
M  V30 21436 N 2016.13 0.10854 -1.57226 0
M  V30 21437 C 2017.08 1.15155 -2.02094 0
M  V30 21438 C 2018.07 1.42263 -0.919651 0
M  V30 21439 O 2019.28 1.42102 -1.10485 0
M  V30 21440 H 2015.65 0.388515 -0.643863 0
M  V30 21441 H 2017.62 0.746707 -2.88906 0
M  V30 21442 C 2016.37 2.46727 -2.44992 0
M  V30 21443 H 2015.69 2.26708 -3.29307 0
M  V30 21444 H 2017.13 3.18242 -2.80175 0
M  V30 21445 C 2015.59 3.10059 -1.31776 0
M  V30 21446 O 2016.12 3.96577 -0.639471 0
M  V30 21447 N 2014.33 2.70099 -1.07215 0
M  V30 21448 H 2013.88 1.99837 -1.62552 0
M  V30 21449 H 2013.83 3.12802 -0.316602 0
M  V30 21450 N 2017.61 1.52975 0.379009 0
M  V30 21451 C 2019.02 1.60338 0.956477 0
M  V30 21452 C 2019.37 0.462422 1.90673 0
M  V30 21453 O 2018.49 -0.413093 2.12421 0
M  V30 21454 C 2019.09 2.90615 1.74151 0
M  V30 21455 C 2017.65 3.00358 2.26853 0
M  V30 21456 C 2016.79 2.55532 1.07697 0
M  V30 21457 H 2019.75 1.57909 0.158228 0
M  V30 21458 H 2019.77 2.77662 2.60161 0
M  V30 21459 H 2019.28 3.73636 1.04965 0
M  V30 21460 H 2017.38 2.21895 2.99321 0
M  V30 21461 H 2017.49 4.05188 2.55655 0
M  V30 21462 H 2015.86 2.10088 1.43997 0
M  V30 21463 H 2016.64 3.40958 0.400297 0
M  V30 21464 N 2019.08 -0.63804 1.44107 0
M  V30 21465 C 2020.33 -1.39772 1.46526 0
M  V30 21466 C 2020.66 -1.94267 0.0952359 0
M  V30 21467 O 2019.91 -1.73674 -0.901993 0
M  V30 21468 C 2020.21 -2.58567 2.46734 0
M  V30 21469 C 2019.88 -2.22403 3.92234 0
M  V30 21470 C 2018.54 -2.12252 4.31859 0
M  V30 21471 C 2020.89 -1.93717 4.83863 0
M  V30 21472 C 2018.22 -1.71594 5.61046 0
M  V30 21473 C 2020.57 -1.54553 6.1343 0
M  V30 21474 C 2019.24 -1.42939 6.52016 0
M  V30 21475 H 2018.51 -0.511463 0.536177 0
M  V30 21476 H 2021.15 -0.724184 1.77279 0
M  V30 21477 H 2019.46 -3.31123 2.0944 0
M  V30 21478 H 2021.16 -3.16791 2.45855 0
M  V30 21479 H 2017.75 -2.31219 3.60882 0
M  V30 21480 H 2021.93 -2.00472 4.5401 0
M  V30 21481 H 2017.19 -1.612 5.89766 0
M  V30 21482 H 2021.36 -1.31393 6.83892 0
M  V30 21483 H 2018.99 -1.11206 7.52022 0
M  V30 21484 N 2020.56 -1.3089 -0.877815 0
M  V30 21485 C 2021.49 -1.20459 -2.0003 0
M  V30 21486 C 2022.47 -0.0935765 -1.69842 0
M  V30 21487 O 2023.66 -0.276838 -1.92217 0
M  V30 21488 C 2020.79 -0.903041 -3.35354 0
M  V30 21489 C 2019.74 -1.97277 -3.79823 0
M  V30 21490 C 2019.07 -1.52407 -5.12519 0
M  V30 21491 C 2020.37 -3.38484 -3.97776 0
M  V30 21492 H 2022.06 -2.14367 -2.09014 0
M  V30 21493 H 2019.61 -1.03203 -1.00425 0
M  V30 21494 H 2021.56 -0.816699 -4.1341 0
M  V30 21495 H 2020.29 0.0717143 -3.26521 0
M  V30 21496 H 2018.94 -2.04887 -3.04001 0
M  V30 21497 H 2018.59 -0.537386 -5.00121 0
M  V30 21498 H 2018.29 -2.23964 -5.43244 0
M  V30 21499 H 2019.82 -1.45165 -5.93093 0
M  V30 21500 H 2021.23 -3.33593 -4.6625 0
M  V30 21501 H 2019.63 -4.0819 -4.39887 0
M  V30 21502 H 2020.7 -3.79847 -3.01403 0
M  V30 21503 N 2022.04 1.0911 -1.13723 0
M  V30 21504 C 2022.99 2.14013 -0.786296 0
M  V30 21505 C 2023.97 1.59372 0.221184 0
M  V30 21506 O 2025.17 1.76983 0.024608 0
M  V30 21507 C 2022.3 3.42332 -0.257565 0
M  V30 21508 C 2021.38 4.03872 -1.29414 0
M  V30 21509 N 2021.77 4.39921 -2.49607 0
M  V30 21510 C 2020.07 4.31113 -1.14269 0
M  V30 21511 C 2020.77 4.88444 -3.15908 0
M  V30 21512 N 2019.75 4.86101 -2.43324 0
M  V30 21513 H 2023.55 2.39694 -1.70071 0
M  V30 21514 H 2021.06 1.2637 -1.02002 0
M  V30 21515 H 2023.06 4.16898 0.0121037 0
M  V30 21516 H 2021.72 3.18104 0.651135 0
M  V30 21517 H 2022.73 4.31179 -2.86889 0
M  V30 21518 H 2019.41 4.16475 -0.292414 0
M  V30 21519 H 2020.8 5.25774 -4.18344 0
M  V30 21520 N 2023.52 0.931232 1.27145 0
M  V30 21521 C 2024.74 0.589393 1.98849 0
M  V30 21522 C 2025.17 -0.82637 1.68976 0
M  V30 21523 O 2024.53 -1.55507 0.93205 0
M  V30 21524 C 2024.57 0.826135 3.51009 0
M  V30 21525 O 2023.68 -0.106581 4.12262 0
M  V30 21526 H 2023.02 0.226532 0.624163 0
M  V30 21527 H 2025.55 1.25145 1.61864 0
M  V30 21528 H 2025.56 0.743094 4.01176 0
M  V30 21529 H 2024.23 1.85812 3.72084 0
M  V30 21530 H 2022.81 0.0266735 3.7289 0
M  V30 21531 N 2025 -1.41343 0.697132 0
M  V30 21532 C 2025.95 -2.27998 0.00959736 0
M  V30 21533 C 2026.93 -1.42285 -0.751254 0
M  V30 21534 O 2028.12 -1.65542 -0.626491 0
M  V30 21535 C 2025.25 -3.30606 -0.924919 0
M  V30 21536 C 2024.34 -4.23797 -0.160232 0
M  V30 21537 N 2024.73 -4.98661 0.846797 0
M  V30 21538 C 2023.03 -4.44243 -0.395486 0
M  V30 21539 C 2023.73 -5.6688 1.30467 0
M  V30 21540 N 2022.7 -5.39934 0.630293 0
M  V30 21541 H 2026.51 -2.83314 0.781684 0
M  V30 21542 H 2024.02 -1.53574 0.528104 0
M  V30 21543 H 2026.02 -3.91511 -1.43264 0
M  V30 21544 H 2024.68 -2.7685 -1.69659 0
M  V30 21545 H 2025.69 -5.03153 1.22708 0
M  V30 21546 H 2022.37 -4.01495 -1.14492 0
M  V30 21547 H 2023.76 -6.36896 2.1404 0
M  V30 21548 N 2026.48 -0.441993 -1.51275 0
M  V30 21549 C 2027.89 -0.0945327 -1.5932 0
M  V30 21550 C 2028.09 1.39653 -1.45256 0
M  V30 21551 O 2027.15 2.16693 -1.29616 0
M  V30 21552 C 2028.46 -0.618795 -2.94264 0
M  V30 21553 C 2030.01 -0.579646 -3.07586 0
M  V30 21554 C 2030.48 -1.08096 -4.45061 0
M  V30 21555 N 2031.97 -1.03914 -4.51393 0
M  V30 21556 C 2032.71 -1.39786 -5.561 0
M  V30 21557 N 2032.21 -1.82965 -6.68203 0
M  V30 21558 N 2034 -1.31573 -5.46484 0
M  V30 21559 H 2026.15 -1.4121 -1.58662 0
M  V30 21560 H 2028.41 -0.582182 -0.748176 0
M  V30 21561 H 2028.12 -1.66222 -3.09941 0
M  V30 21562 H 2027.99 -0.0462651 -3.77172 0
M  V30 21563 H 2030.38 0.454801 -2.91574 0
M  V30 21564 H 2030.46 -1.18863 -2.26506 0
M  V30 21565 H 2030.1 -2.1139 -4.61819 0
M  V30 21566 H 2030.03 -0.448465 -5.24687 0
M  V30 21567 H 2032.53 -0.722104 -3.70937 0
M  V30 21568 H 2032.84 -2.08561 -7.44125 0
M  V30 21569 H 2031.18 -1.86895 -6.69399 0
M  V30 21570 H 2034.37 -0.977017 -4.5779 0
M  V30 21571 H 2034.55 -1.59857 -6.27973 0
M  V30 21572 N 2027.95 1.56642 -0.173515 0
M  V30 21573 C 2029.23 1.88634 0.517348 0
M  V30 21574 C 2029.61 1.08374 1.81158 0
M  V30 21575 O 2028.96 0.178319 2.27803 0
M  V30 21576 C 2029.17 3.40689 0.757118 0
M  V30 21577 C 2030.52 4.10473 1.08614 0
M  V30 21578 O 2031.54 3.46018 0.845582 0
M  V30 21579 O 2030.4 5.24351 1.54008 0
M  V30 21580 H 2027.49 0.782731 0.266949 0
M  V30 21581 H 2030.04 1.68369 -0.212115 0
M  V30 21582 H 2028.81 3.90982 -0.157737 0
M  V30 21583 H 2028.43 3.66572 1.53982 0
M  V30 21584 N 2029.43 -0.1002 1.57281 0
M  V30 21585 C 2030.71 -0.836006 1.76834 0
M  V30 21586 C 2031.09 -1.9718 0.753864 0
M  V30 21587 O 2030.44 -2.27452 -0.218626 0
M  V30 21588 C 2030.65 -1.33532 3.22444 0
M  V30 21589 C 2031.99 -1.78015 3.85481 0
M  V30 21590 O 2033.02 -1.43167 3.26162 0
M  V30 21591 O 2031.88 -2.42432 4.89784 0
M  V30 21592 H 2028.97 -0.398386 0.724719 0
M  V30 21593 H 2031.52 -0.0824784 1.69499 0
M  V30 21594 H 2030.29 -0.521307 3.87812 0
M  V30 21595 H 2029.91 -2.151 3.34391 0
M  V30 21596 N 2030.91 -1.53174 -0.370891 0
M  V30 21597 C 2031.84 -1.75513 -1.47403 0
M  V30 21598 C 2032.85 -0.635818 -1.49871 0
M  V30 21599 O 2034.04 -0.911956 -1.53446 0
M  V30 21600 C 2031.14 -1.81519 -2.86189 0
M  V30 21601 C 2030.32 -3.11087 -3.07479 0
M  V30 21602 C 2029.38 -3.08403 -4.26349 0
M  V30 21603 O 2028.4 -3.82218 -4.2178 0
M  V30 21604 N 2029.6 -2.28851 -5.33486 0
M  V30 21605 H 2032.37 -2.70697 -1.2862 0
M  V30 21606 H 2029.93 -1.51886 -0.56057 0
M  V30 21607 H 2031.92 -1.77207 -3.6384 0
M  V30 21608 H 2030.49 -0.936423 -2.98245 0
M  V30 21609 H 2029.71 -3.28744 -2.17534 0
M  V30 21610 H 2031 -3.96726 -3.18569 0
M  V30 21611 H 2030.4 -1.68381 -5.4006 0
M  V30 21612 H 2028.95 -2.30363 -6.09734 0
M  V30 21613 N 2032.39 0.630389 -1.44443 0
M  V30 21614 C 2033.8 0.948649 -1.28346 0
M  V30 21615 C 2034 2.00298 -0.219776 0
M  V30 21616 O 2033.06 2.49406 0.394082 0
M  V30 21617 C 2034.37 1.41121 -2.65528 0
M  V30 21618 C 2035.92 1.52665 -2.73244 0
M  V30 21619 C 2036.4 2.02305 -4.10897 0
M  V30 21620 N 2037.89 2.09574 -4.13077 0
M  V30 21621 C 2038.62 2.49156 -5.16439 0
M  V30 21622 N 2038.12 2.87869 -6.30161 0
M  V30 21623 N 2039.91 2.49296 -5.03794 0
M  V30 21624 H 2032.06 -0.0668759 -2.12295 0
M  V30 21625 H 2034.32 0.032708 -0.947436 0
M  V30 21626 H 2034.03 0.710811 -3.44442 0
M  V30 21627 H 2033.9 2.38208 -2.92466 0
M  V30 21628 H 2036.29 2.21802 -1.94648 0
M  V30 21629 H 2036.37 0.539516 -2.50046 0
M  V30 21630 H 2036.02 1.33763 -4.89969 0
M  V30 21631 H 2035.95 3.01892 -4.31473 0
M  V30 21632 H 2038.44 1.82338 -3.31001 0
M  V30 21633 H 2038.75 3.16887 -7.04842 0
M  V30 21634 H 2037.1 2.85619 -6.33598 0
M  V30 21635 H 2040.29 2.18443 -4.14005 0
M  V30 21636 H 2040.46 2.79819 -5.8447 0
M  V30 21637 N 2033.87 1.31354 0.870861 0
M  V30 21638 C 2034.8 1.21518 1.99388 0
M  V30 21639 C 2035.78 0.102582 1.6979 0
M  V30 21640 O 2036.96 0.287028 1.92067 0
M  V30 21641 C 2034.09 0.920813 3.34871 0
M  V30 21642 C 2033.05 1.99289 3.78772 0
M  V30 21643 C 2032.37 1.55123 5.11704 0
M  V30 21644 C 2033.67 3.40589 3.95975 0
M  V30 21645 H 2035.37 2.15473 2.07875 0
M  V30 21646 H 2032.91 1.03734 0.998761 0
M  V30 21647 H 2034.86 0.838612 4.12971 0
M  V30 21648 H 2033.59 -0.0543971 3.26555 0
M  V30 21649 H 2032.25 2.06496 3.0291 0
M  V30 21650 H 2031.9 0.563901 4.99829 0
M  V30 21651 H 2031.6 2.26842 5.42048 0
M  V30 21652 H 2033.12 1.48308 5.92315 0
M  V30 21653 H 2034.53 3.36061 4.64474 0
M  V30 21654 H 2032.93 4.10517 4.37716 0
M  V30 21655 H 2034 3.8144 2.99385 0
M  V30 21656 N 2035.34 -1.08505 1.143 0
M  V30 21657 C 2036.59 -1.8114 0.911938 0
M  V30 21658 C 2036.92 -1.85946 -0.560156 0
M  V30 21659 O 2036.2 -1.33458 -1.41489 0
M  V30 21660 C 2036.48 -3.26806 1.51227 0
M  V30 21661 C 2036.33 -3.30215 3.05414 0
M  V30 21662 C 2037.65 -4.23754 1.1883 0
M  V30 21663 H 2034.77 -0.657619 0.332725 0
M  V30 21664 H 2037.41 -1.27044 1.41279 0
M  V30 21665 H 2035.56 -3.73003 1.08633 0
M  V30 21666 H 2037.24 -2.92351 3.56832 0
M  V30 21667 H 2035.48 -2.69518 3.39915 0
M  V30 21668 H 2036.15 -4.32875 3.42525 0
M  V30 21669 H 2038.63 -3.8589 1.55653 0
M  V30 21670 H 2037.5 -5.23993 1.63469 0
M  V30 21671 H 2037.76 -4.41979 0.103442 0
M  V30 21672 N 2036.82 -0.937962 -1.26649 0
M  V30 21673 C 2038.07 -0.57958 -1.93194 0
M  V30 21674 C 2038.38 0.88505 -1.74431 0
M  V30 21675 O 2039.59 1.35267 -2.35404 0
M  V30 21676 C 2038.05 -0.985803 -3.46136 0
M  V30 21677 C 2037.65 -2.47182 -3.73637 0
M  V30 21678 C 2039.4 -0.699162 -4.18703 0
M  V30 21679 C 2037.3 -2.81691 -5.20004 0
M  V30 21680 H 2036.23 -0.213046 -0.723275 0
M  V30 21681 H 2038.89 -1.14017 -1.43779 0
M  V30 21682 H 2037.27 -0.353775 -3.94417 0
M  V30 21683 H 2038.44 -3.15263 -3.36075 0
M  V30 21684 H 2036.76 -2.73143 -3.14296 0
M  V30 21685 H 2039.35 -0.933359 -5.26491 0
M  V30 21686 H 2039.7 0.363979 -4.14706 0
M  V30 21687 H 2040.23 -1.29076 -3.76277 0
M  V30 21688 H 2036.97 -3.86955 -5.29099 0
M  V30 21689 H 2036.49 -2.1827 -5.58675 0
M  V30 21690 H 2038.17 -2.69984 -5.87978 0
M  V30 21691 N 2038.3 1.40971 -0.704618 0
M  V30 21692 C 2039.55 2.00682 -0.238954 0
M  V30 21693 C 2039.87 1.56119 1.16842 0
M  V30 21694 O 2039.14 0.795777 1.79009 0
M  V30 21695 H 2037.72 0.742108 -0.0853541 0
M  V30 21696 H 2040.38 1.72467 -0.9078 0
M  V30 21697 H 2039.48 3.10986 -0.26345 0
M  V30 21698 N 2039.78 0.45001 1.51039 0
M  V30 21699 C 2041.19 0.10298 1.59267 0
M  V30 21700 C 2041.39 -1.38881 1.45995 0
M  V30 21701 O 2040.45 -2.16003 1.30763 0
M  V30 21702 C 2041.76 0.634392 2.93932 0
M  V30 21703 C 2043.31 0.59595 3.07274 0
M  V30 21704 C 2043.79 1.10455 4.44481 0
M  V30 21705 N 2045.28 1.06307 4.50836 0
M  V30 21706 C 2046.01 1.42733 5.55351 0
M  V30 21707 N 2045.51 1.86506 6.67224 0
M  V30 21708 N 2047.3 1.34469 5.45779 0
M  V30 21709 H 2039.45 1.42049 1.57911 0
M  V30 21710 H 2041.72 0.586142 0.745078 0
M  V30 21711 H 2041.42 1.67863 3.09055 0
M  V30 21712 H 2041.3 0.0662668 3.77142 0
M  V30 21713 H 2043.68 -0.439332 2.91811 0
M  V30 21714 H 2043.76 1.20063 2.25873 0
M  V30 21715 H 2043.41 2.13836 4.60692 0
M  V30 21716 H 2043.34 0.476284 5.24442 0
M  V30 21717 H 2045.83 0.741765 3.70549 0
M  V30 21718 H 2046.14 2.12505 7.43009 0
M  V30 21719 H 2044.49 1.90443 6.68398 0
M  V30 21720 H 2047.68 1.00128 4.57266 0
M  V30 21721 H 2047.85 1.63185 6.27116 0
M  V30 21722 N 2041.26 -1.56548 0.18182 0
M  V30 21723 C 2042.5 -1.99093 -0.462751 0
M  V30 21724 C 2042.86 -1.06569 -1.59709 0
M  V30 21725 O 2044.06 -1.38297 -2.30494 0
M  V30 21726 C 2042.33 -3.45261 -0.923553 0
M  V30 21727 S 2043.89 -4.09835 -1.56783 0
M  V30 21728 H 2040.71 -0.695324 -0.148476 0
M  V30 21729 H 2043.31 -1.93459 0.281758 0
M  V30 21730 H 2042.02 -4.10306 -0.0877151 0
M  V30 21731 H 2041.55 -3.54684 -1.70185 0
M  V30 21732 H 2043.56 -4.05748 -2.85628 0
M  V30 21733 N 2042.73 0.0918577 -1.57332 0
M  V30 21734 C 2044.15 0.646006 -1.75167 0
M  V30 21735 C 2044.5 1.78949 -0.804463 0
M  V30 21736 O 2043.62 2.16394 0.0162775 0
M  V30 21737 C 2044.22 1.17865 -3.17637 0
M  V30 21738 C 2042.78 1.67884 -3.36886 0
M  V30 21739 C 2041.92 0.589766 -2.70956 0
M  V30 21740 H 2044.87 -0.134229 -1.58131 0
M  V30 21741 H 2044.89 2.04791 -3.20688 0
M  V30 21742 H 2044.41 0.346184 -3.86553 0
M  V30 21743 H 2042.51 2.5352 -2.73054 0
M  V30 21744 H 2042.62 1.7696 -4.45221 0
M  V30 21745 H 2040.98 1.03 -2.32945 0
M  V30 21746 H 2041.77 -0.232174 -3.42514 0
M  V30 21747 N 2044.21 1.53368 0.362763 0
M  V30 21748 C 2045.44 1.73906 1.13011 0
M  V30 21749 C 2045.86 0.468163 1.82181 0
M  V30 21750 O 2045.22 -0.577989 1.7184 0
M  V30 21751 C 2045.27 2.9068 2.13395 0
M  V30 21752 O 2044.37 2.59486 3.20532 0
M  V30 21753 H 2043.71 0.577461 0.327772 0
M  V30 21754 H 2046.24 2.00263 0.419026 0
M  V30 21755 H 2046.25 3.16926 2.56948 0
M  V30 21756 H 2044.93 3.82865 1.62442 0
M  V30 21757 H 2043.51 2.44067 2.81932 0
M  V30 21758 N 2045.69 -0.62272 1.44776 0
M  V30 21759 C 2046.97 -1.38145 1.38475 0
M  V30 21760 C 2047.35 -2.11046 0.0476847 0
M  V30 21761 O 2046.7 -2.0689 -0.969982 0
M  V30 21762 C 2046.91 -2.34088 2.58851 0
M  V30 21763 C 2048.25 -2.97162 3.03282 0
M  V30 21764 O 2049.28 -2.44412 2.59116 0
M  V30 21765 O 2048.14 -3.92874 3.79885 0
M  V30 21766 H 2045.23 -0.618685 0.548779 0
M  V30 21767 H 2047.78 -0.647072 1.56879 0
M  V30 21768 H 2046.55 -1.79376 3.47764 0
M  V30 21769 H 2046.17 -3.1493 2.42703 0
M  V30 21770 N 2047.17 -1.31814 -0.863883 0
M  V30 21771 C 2048.58 -1.19653 -1.43318 0
M  V30 21772 C 2048.93 0.19461 -1.95232 0
M  V30 21773 O 2048.06 1.09277 -1.86782 0
M  V30 21774 C 2048.65 -2.1661 -2.6051 0
M  V30 21775 C 2047.21 -2.08364 -3.13466 0
M  V30 21776 C 2046.36 -2.05496 -1.8619 0
M  V30 21777 H 2049.31 -1.43776 -0.67187 0
M  V30 21778 H 2049.33 -1.75925 -3.37388 0
M  V30 21779 H 2048.84 -3.1785 -2.22695 0
M  V30 21780 H 2046.94 -1.10341 -3.55887 0
M  V30 21781 H 2047.05 -2.97757 -3.75336 0
M  V30 21782 H 2045.42 -1.50599 -2.05407 0
M  V30 21783 H 2046.2 -3.08501 -1.50605 0
M  V30 21784 N 2048.65 1.07897 -1.14873 0
M  V30 21785 C 2049.88 1.8385 -0.942478 0
M  V30 21786 C 2050.28 1.82127 0.512486 0
M  V30 21787 O 2049.63 1.22709 1.36705 0
M  V30 21788 C 2049.69 3.32272 -1.37244 0
M  V30 21789 C 2049.35 3.57723 -2.844 0
M  V30 21790 C 2050.35 3.52131 -3.82492 0
M  V30 21791 C 2048.04 3.85567 -3.21937 0
M  V30 21792 C 2050.03 3.74022 -5.16126 0
M  V30 21793 C 2047.72 4.07111 -4.55745 0
M  V30 21794 C 2048.71 4.01333 -5.52649 0
M  V30 21795 O 2048.4 4.22306 -6.84042 0
M  V30 21796 H 2048.13 0.587081 -0.33513 0
M  V30 21797 H 2050.69 1.37142 -1.52909 0
M  V30 21798 H 2048.92 3.79763 -0.72919 0
M  V30 21799 H 2050.61 3.89674 -1.13617 0
M  V30 21800 H 2051.37 3.30628 -3.54838 0
M  V30 21801 H 2047.25 3.89182 -2.471 0
M  V30 21802 H 2050.8 3.69428 -5.91751 0
M  V30 21803 H 2046.69 4.28099 -4.83117 0
M  V30 21804 H 2047.46 4.39684 -6.90377 0
M  V30 21805 N 2050.12 0.944665 1.2615 0
M  V30 21806 C 2051.07 0.455723 2.26256 0
M  V30 21807 C 2052.04 -0.486478 1.58816 0
M  V30 21808 O 2053.23 -0.401921 1.86519 0
M  V30 21809 C 2050.37 -0.269732 3.44044 0
M  V30 21810 C 2049.48 0.708546 4.2615 0
M  V30 21811 C 2048.61 -0.0384607 5.31186 0
M  V30 21812 C 2047.65 0.931409 6.04972 0
M  V30 21813 N 2046.79 0.215929 7.01768 0
M  V30 21814 H 2051.63 1.31431 2.67451 0
M  V30 21815 H 2049.17 0.659314 1.31497 0
M  V30 21816 H 2051.13 -0.706817 4.11169 0
M  V30 21817 H 2049.76 -1.09243 3.03753 0
M  V30 21818 H 2048.81 1.26414 3.58781 0
M  V30 21819 H 2050.12 1.44906 4.77288 0
M  V30 21820 H 2049.27 -0.53466 6.0434 0
M  V30 21821 H 2048.01 -0.811835 4.80896 0
M  V30 21822 H 2047.02 1.4387 5.30642 0
M  V30 21823 H 2048.24 1.70485 6.57352 0
M  V30 21824 H 2046.19 -0.538889 6.53783 0
M  V30 21825 H 2046.11 0.895714 7.50675 0
M  V30 21826 H 2047.37 -0.259061 7.79069 0
M  V30 21827 N 2051.6 -1.40596 0.712085 0
M  V30 21828 C 2052.55 -2.27975 0.0337791 0
M  V30 21829 C 2053.54 -1.43074 -0.736121 0
M  V30 21830 O 2054.73 -1.66197 -0.608897 0
M  V30 21831 C 2051.86 -3.31568 -0.889801 0
M  V30 21832 C 2050.94 -4.23943 -0.115273 0
M  V30 21833 N 2051.33 -4.97735 0.899639 0
M  V30 21834 C 2049.63 -4.44638 -0.348346 0
M  V30 21835 C 2050.33 -5.65465 1.36472 0
M  V30 21836 N 2049.31 -5.39235 0.687525 0
M  V30 21837 H 2053.11 -2.82469 0.811689 0
M  V30 21838 H 2050.63 -1.53005 0.544362 0
M  V30 21839 H 2052.62 -3.93009 -1.39103 0
M  V30 21840 H 2051.28 -2.78634 -1.66713 0
M  V30 21841 H 2052.29 -5.01823 1.28038 0
M  V30 21842 H 2048.97 -4.02686 -1.10227 0
M  V30 21843 H 2050.36 -6.3459 2.20783 0
M  V30 21844 N 2053.08 -0.458013 -1.50798 0
M  V30 21845 C 2054.31 0.10185 -2.0715 0
M  V30 21846 C 2054.73 1.33899 -1.32109 0
M  V30 21847 O 2054.09 1.77589 -0.364928 0
M  V30 21848 C 2054.14 0.381979 -3.58571 0
M  V30 21849 O 2053.24 1.46484 -3.85508 0
M  V30 21850 H 2052.58 -0.00721903 -0.663961 0
M  V30 21851 H 2055.11 -0.645297 -1.94157 0
M  V30 21852 H 2055.12 0.626354 -4.03163 0
M  V30 21853 H 2053.8 -0.522121 -4.1261 0
M  V30 21854 H 2052.37 1.20881 -3.52764 0
M  V30 21855 N 2054.56 1.56449 -0.190119 0
M  V30 21856 C 2055.49 2.21861 0.728019 0
M  V30 21857 C 2056.47 1.18012 1.22504 0
M  V30 21858 O 2057.66 1.46503 1.27478 0
M  V30 21859 C 2054.79 2.87407 1.94973 0
M  V30 21860 C 2053.74 3.97457 1.58782 0
M  V30 21861 C 2053.07 4.50144 2.88573 0
M  V30 21862 C 2054.37 5.16113 0.801535 0
M  V30 21863 H 2056.06 2.98842 0.182734 0
M  V30 21864 H 2053.61 1.4374 0.0864508 0
M  V30 21865 H 2055.56 3.31848 2.59721 0
M  V30 21866 H 2054.28 2.07824 2.51946 0
M  V30 21867 H 2052.94 3.537 0.96395 0
M  V30 21868 H 2052.59 3.67328 3.43626 0
M  V30 21869 H 2052.29 5.24398 2.65105 0
M  V30 21870 H 2053.81 4.97283 3.54318 0
M  V30 21871 H 2055.23 5.5713 1.35201 0
M  V30 21872 H 2053.62 5.96402 0.66517 0
M  V30 21873 H 2054.69 4.84494 -0.198407 0
M  V30 21874 N 2056.04 -0.0835127 1.57379 0
M  V30 21875 C 2057.45 -0.636708 1.75508 0
M  V30 21876 C 2057.8 -1.7852 0.813942 0
M  V30 21877 O 2056.92 -2.16399 -0.00480143 0
M  V30 21878 C 2057.52 -1.16179 3.18258 0
M  V30 21879 C 2056.08 -1.66095 3.37771 0
M  V30 21880 C 2055.23 -0.575388 2.71265 0
M  V30 21881 H 2058.18 0.142613 1.58058 0
M  V30 21882 H 2058.2 -2.03087 3.2177 0
M  V30 21883 H 2057.71 -0.325679 3.86731 0
M  V30 21884 H 2055.81 -2.52068 2.74395 0
M  V30 21885 H 2055.92 -1.74596 4.46154 0
M  V30 21886 H 2054.29 -1.01763 2.33487 0
M  V30 21887 H 2055.07 0.250335 3.42386 0
M  V30 21888 N 2057.52 -1.53558 -0.354624 0
M  V30 21889 C 2058.74 -1.74503 -1.12087 0
M  V30 21890 C 2059.17 -0.477817 -1.8193 0
M  V30 21891 O 2058.52 0.568868 -1.72144 0
M  V30 21892 C 2058.57 -2.91808 -2.1185 0
M  V30 21893 O 2057.68 -2.61182 -3.19152 0
M  V30 21894 H 2057.02 -0.579191 -0.324705 0
M  V30 21895 H 2059.55 -2.00483 -0.4084 0
M  V30 21896 H 2059.56 -3.18284 -2.55263 0
M  V30 21897 H 2058.23 -3.83721 -1.6041 0
M  V30 21898 H 2056.81 -2.45558 -2.80634 0
M  V30 21899 N 2058.99 0.615033 -1.45104 0
M  V30 21900 C 2059.93 1.73982 -1.49208 0
M  V30 21901 C 2060.94 1.58215 -0.383649 0
M  V30 21902 O 2062.13 1.66233 -0.650297 0
M  V30 21903 C 2059.23 3.11897 -1.32565 0
M  V30 21904 C 2058.4 3.53973 -2.56947 0
M  V30 21905 C 2057.46 4.70825 -2.34969 0
M  V30 21906 O 2056.49 4.78319 -3.08544 0
M  V30 21907 N 2057.69 5.63599 -1.39054 0
M  V30 21908 H 2060.45 1.70927 -2.46179 0
M  V30 21909 H 2058.01 0.800093 -1.40748 0
M  V30 21910 H 2060.01 3.87814 -1.15684 0
M  V30 21911 H 2058.58 3.09502 -0.438979 0
M  V30 21912 H 2057.8 2.68096 -2.88995 0
M  V30 21913 H 2059.08 3.78841 -3.39642 0
M  V30 21914 H 2058.48 5.60252 -0.783199 0
M  V30 21915 H 2057.04 6.39079 -1.28147 0
M  V30 21916 N 2060.47 1.3227 0.85688 0
M  V30 21917 C 2061.43 1.2096 1.94682 0
M  V30 21918 C 2062.43 0.133231 1.60247 0
M  V30 21919 O 2063.62 0.383471 1.69927 0
M  V30 21920 C 2060.76 0.85974 3.29881 0
M  V30 21921 H 2061.95 2.17823 2.06139 0
M  V30 21922 H 2059.5 1.16069 1.04679 0
M  V30 21923 H 2060.24 -0.107161 3.24123 0
M  V30 21924 H 2060.02 1.63794 3.5625 0
M  V30 21925 H 2061.51 0.804868 4.0977 0
M  V30 21926 N 2061.95 -1.07287 1.15444 0
M  V30 21927 C 2063.2 -1.80162 0.931099 0
M  V30 21928 C 2063.53 -1.8653 -0.540402 0
M  V30 21929 O 2062.8 -1.34951 -1.40066 0
M  V30 21930 C 2063.09 -3.25184 1.54685 0
M  V30 21931 C 2062.94 -3.26957 3.089 0
M  V30 21932 C 2064.26 -4.2247 1.23318 0
M  V30 21933 H 2061.38 -0.654053 0.339682 0
M  V30 21934 H 2064.02 -1.25539 1.42619 0
M  V30 21935 H 2062.17 -3.7183 1.12583 0
M  V30 21936 H 2063.84 -2.88549 3.59912 0
M  V30 21937 H 2062.08 -2.65898 3.42755 0
M  V30 21938 H 2062.76 -4.29218 3.47097 0
M  V30 21939 H 2065.23 -3.84218 1.59737 0
M  V30 21940 H 2064.11 -5.2223 1.69018 0
M  V30 21941 H 2064.37 -4.41844 0.150314 0
M  V30 21942 N 2063.43 -0.951342 -1.25647 0
M  V30 21943 C 2064.38 -0.459968 -2.28007 0
M  V30 21944 C 2065.37 0.468044 -1.62806 0
M  V30 21945 O 2066.58 0.345136 -1.7666 0
M  V30 21946 H 2062.95 -0.130235 -0.740637 0
M  V30 21947 H 2064.92 -1.33559 -2.66842 0
M  V30 21948 C 2063.67 0.24991 -3.46801 0
M  V30 21949 H 2062.99 -0.455035 -3.97202 0
M  V30 21950 H 2064.43 0.557792 -4.20315 0
M  V30 21951 C 2062.89 1.47127 -3.03076 0
M  V30 21952 O 2063.42 2.56915 -3.088 0
M  V30 21953 N 2061.63 1.33145 -2.58304 0
M  V30 21954 H 2061.18 0.438193 -2.53846 0
M  V30 21955 H 2061.13 2.14982 -2.29413 0
M  V30 21956 N 2064.91 1.40216 -0.719531 0
M  V30 21957 C 2066.18 1.94697 -0.18772 0
M  V30 21958 C 2066.56 1.65742 1.30739 0
M  V30 21959 O 2065.91 0.97723 2.06549 0
M  V30 21960 C 2066.12 3.45332 -0.50469 0
M  V30 21961 C 2067.47 4.22256 -0.445515 0
M  V30 21962 O 2068.49 3.5346 -0.440978 0
M  V30 21963 O 2067.35 5.44833 -0.426487 0
M  V30 21964 H 2064.45 0.82649 -0.0290376 0
M  V30 21965 H 2066.99 1.49802 -0.797333 0
M  V30 21966 H 2065.76 3.5978 -1.53863 0
M  V30 21967 H 2065.39 3.97372 0.134684 0
M  V30 21968 N 2066.38 0.466004 1.50553 0
M  V30 21969 C 2067.61 -0.0908629 2.07201 0
M  V30 21970 C 2068.03 -1.33196 1.32817 0
M  V30 21971 O 2067.39 -1.77393 0.374341 0
M  V30 21972 C 2067.44 -0.362957 3.58769 0
M  V30 21973 O 2066.54 -1.44438 3.86279 0
M  V30 21974 H 2065.88 0.0107401 0.663913 0
M  V30 21975 H 2068.41 0.655585 1.93812 0
M  V30 21976 H 2068.42 -0.604965 4.0349 0
M  V30 21977 H 2067.1 0.543996 4.12327 0
M  V30 21978 H 2065.68 -1.19008 3.534 0
M  V30 21979 N 2067.86 -1.56346 0.198413 0
M  V30 21980 C 2069.09 -2.01765 -0.444344 0
M  V30 21981 C 2069.5 -1.0777 -1.55507 0
M  V30 21982 O 2068.84 -0.0753476 -1.83545 0
M  V30 21983 C 2068.9 -3.43574 -1.05816 0
M  V30 21984 C 2068.57 -4.5692 -0.0857655 0
M  V30 21985 C 2069.57 -5.15083 0.706081 0
M  V30 21986 C 2067.25 -5.02293 0.0262794 0
M  V30 21987 C 2069.24 -6.17072 1.5969 0
M  V30 21988 C 2066.93 -6.04125 0.920659 0
M  V30 21989 C 2067.93 -6.61388 1.70453 0
M  V30 21990 O 2067.62 -7.61242 2.58392 0
M  V30 21991 H 2067.35 -0.666052 -0.115545 0
M  V30 21992 H 2069.9 -2.03117 0.305386 0
M  V30 21993 H 2068.13 -3.39219 -1.85654 0
M  V30 21994 H 2069.82 -3.7278 -1.60592 0
M  V30 21995 H 2070.59 -4.80893 0.629841 0
M  V30 21996 H 2066.47 -4.57416 -0.57369 0
M  V30 21997 H 2070.01 -6.61695 2.20919 0
M  V30 21998 H 2065.91 -6.37738 0.998002 0
M  V30 21999 H 2066.68 -7.78674 2.52208 0
M  V30 22000 N 2069.34 0.0751653 -1.57421 0
M  V30 22001 C 2070.27 1.09007 -2.06494 0
M  V30 22002 C 2071.25 1.40573 -0.957766 0
M  V30 22003 O 2072.44 1.50259 -1.23028 0
M  V30 22004 C 2069.57 2.40446 -2.50605 0
M  V30 22005 C 2068.52 2.2324 -3.65168 0
M  V30 22006 C 2067.85 3.60033 -3.95323 0
M  V30 22007 C 2069.15 1.65642 -4.95338 0
M  V30 22008 H 2070.84 0.681725 -2.91535 0
M  V30 22009 H 2068.39 0.326481 -1.4025 0
M  V30 22010 H 2070.34 3.11734 -2.83548 0
M  V30 22011 H 2069.06 2.83254 -1.62588 0
M  V30 22012 H 2067.72 1.54393 -3.32503 0
M  V30 22013 H 2067.37 4.00404 -3.04443 0
M  V30 22014 H 2067.07 3.4936 -4.72463 0
M  V30 22015 H 2068.59 4.32757 -4.30759 0
M  V30 22016 H 2070.01 2.26793 -5.26534 0
M  V30 22017 H 2068.41 1.65675 -5.76777 0
M  V30 22018 H 2069.48 0.617593 -4.80951 0
M  V30 22019 N 2070.82 1.53744 0.346476 0
M  V30 22020 C 2072.23 1.43943 0.689395 0
M  V30 22021 C 2072.43 0.593819 1.92551 0
M  V30 22022 O 2071.49 0.0836653 2.52361 0
M  V30 22023 C 2072.8 2.87389 0.884766 0
M  V30 22024 C 2074.35 2.97145 0.98357 0
M  V30 22025 C 2074.83 4.41692 1.21128 0
M  V30 22026 N 2076.32 4.45205 1.27855 0
M  V30 22027 C 2077.05 5.54179 1.47219 0
M  V30 22028 N 2076.55 6.73164 1.63775 0
M  V30 22029 N 2078.34 5.41787 1.49743 0
M  V30 22030 H 2070.49 2.07218 -0.466306 0
M  V30 22031 H 2072.76 0.936584 -0.146675 0
M  V30 22032 H 2072.46 3.51667 0.0480249 0
M  V30 22033 H 2072.34 3.32165 1.78736 0
M  V30 22034 H 2074.72 2.33008 1.81084 0
M  V30 22035 H 2074.8 2.55734 0.0579478 0
M  V30 22036 H 2074.45 5.06409 0.388952 0
M  V30 22037 H 2074.38 4.80692 2.15042 0
M  V30 22038 H 2076.87 3.59463 1.16596 0
M  V30 22039 H 2077.18 7.51979 1.78179 0
M  V30 22040 H 2075.53 6.76114 1.60917 0
M  V30 22041 H 2078.72 4.4779 1.36389 0
M  V30 22042 H 2078.89 6.26774 1.64493 0
M  V30 22043 N 2072.3 -0.607329 1.45428 0
M  V30 22044 C 2073.52 -1.39786 1.53214 0
M  V30 22045 C 2073.95 -1.87369 0.165684 0
M  V30 22046 O 2073.3 -1.60154 -0.849728 0
M  V30 22047 C 2073.35 -2.57823 2.52111 0
M  V30 22048 O 2072.46 -3.58462 2.03909 0
M  V30 22049 H 2071.8 -0.417312 0.516476 0
M  V30 22050 H 2074.33 -0.739101 1.90784 0
M  V30 22051 H 2074.34 -3.05064 2.70925 0
M  V30 22052 H 2073.01 -2.22539 3.51354 0
M  V30 22053 H 2071.59 -3.17868 1.94973 0
M  V30 22054 N 2073.77 -1.32722 -0.849853 0
M  V30 22055 C 2075 -1.2671 -1.64193 0
M  V30 22056 C 2075.42 0.161092 -1.87409 0
M  V30 22057 O 2074.78 1.11408 -1.43031 0
M  V30 22058 C 2074.83 -2.03686 -2.97564 0
M  V30 22059 O 2073.93 -1.38794 -3.88343 0
M  V30 22060 H 2073.28 -0.436459 -0.5004 0
M  V30 22061 H 2075.81 -1.75113 -1.05813 0
M  V30 22062 H 2075.82 -2.1404 -3.47349 0
M  V30 22063 H 2074.49 -3.07537 -2.79989 0
M  V30 22064 H 2073.07 -1.37018 -3.46815 0
M  V30 22065 N 2075.25 1.06673 -1.16011 0
M  V30 22066 C 2076.18 2.16027 -0.886249 0
M  V30 22067 C 2077.16 1.69289 0.165907 0
M  V30 22068 O 2078.35 1.94191 0.0188181 0
M  V30 22069 C 2075.48 3.45189 -0.382329 0
M  V30 22070 C 2074.43 4.05415 -1.37195 0
M  V30 22071 C 2073.76 5.2974 -0.726594 0
M  V30 22072 C 2075.06 4.44642 -2.74027 0
M  V30 22073 H 2076.75 2.39195 -1.80073 0
M  V30 22074 H 2074.3 1.14957 -0.867232 0
M  V30 22075 H 2076.25 4.21023 -0.17824 0
M  V30 22076 H 2074.98 3.21629 0.567641 0
M  V30 22077 H 2073.63 3.31634 -1.56252 0
M  V30 22078 H 2073.28 5.02475 0.229742 0
M  V30 22079 H 2072.98 5.70993 -1.38709 0
M  V30 22080 H 2074.51 6.08274 -0.532437 0
M  V30 22081 H 2075.92 5.11574 -2.58775 0
M  V30 22082 H 2074.32 4.96868 -3.36515 0
M  V30 22083 H 2075.39 3.55684 -3.29571 0
M  V30 22084 N 2076.73 0.957992 1.25141 0
M  V30 22085 C 2078.15 0.662955 1.45179 0
M  V30 22086 C 2078.35 -0.778426 1.85857 0
M  V30 22087 O 2077.4 -1.55337 1.99065 0
M  V30 22088 C 2078.72 1.63876 2.52121 0
M  V30 22089 C 2080.26 1.65031 2.65958 0
M  V30 22090 C 2080.74 2.61384 3.76089 0
M  V30 22091 N 2082.23 2.59768 3.83503 0
M  V30 22092 C 2082.96 3.30999 4.68217 0
M  V30 22093 N 2082.46 4.11715 5.57192 0
M  V30 22094 N 2084.25 3.1987 4.62211 0
M  V30 22095 H 2076.4 1.88941 0.97031 0
M  V30 22096 H 2078.67 0.812898 0.487751 0
M  V30 22097 H 2078.37 2.66846 2.29098 0
M  V30 22098 H 2078.25 1.4039 3.50101 0
M  V30 22099 H 2080.63 0.627761 2.88346 0
M  V30 22100 H 2080.72 1.92576 1.68369 0
M  V30 22101 H 2080.36 3.63767 3.54452 0
M  V30 22102 H 2080.29 2.31121 4.73171 0
M  V30 22103 H 2082.78 2.01172 3.19903 0
M  V30 22104 H 2083.09 4.62978 6.18766 0
M  V30 22105 H 2081.44 4.15812 5.56889 0
M  V30 22106 H 2084.63 2.56282 3.91711 0
M  V30 22107 H 2084.8 3.75649 5.28008 0
M  V30 22108 N 2078.21 -1.39832 0.726957 0
M  V30 22109 C 2079.43 -2.05501 0.280008 0
M  V30 22110 C 2079.86 -1.54436 -1.07383 0
M  V30 22111 O 2079.22 -0.684615 -1.67877 0
M  V30 22112 C 2079.26 -3.59492 0.282502 0
M  V30 22113 O 2078.37 -4.05842 -0.732546 0
M  V30 22114 H 2077.71 -0.651361 0.128936 0
M  V30 22115 H 2080.24 -1.79019 0.990626 0
M  V30 22116 H 2080.25 -4.07811 0.124104 0
M  V30 22117 H 2078.92 -3.96022 1.27041 0
M  V30 22118 H 2077.5 -3.68956 -0.540943 0
M  V30 22119 N 2079.69 -0.473982 -1.50304 0
M  V30 22120 C 2080.91 0.0776132 -2.06754 0
M  V30 22121 C 2081.33 1.33251 -1.33752 0
M  V30 22122 O 2080.69 1.77889 -0.407659 0
M  V30 22123 C 2080.74 0.362773 -3.59675 0
M  V30 22124 O 2080.46 -0.842352 -4.29926 0
M  V30 22125 C 2081.96 0.961013 -4.32758 0
M  V30 22126 H 2079.18 -0.00837304 -0.670948 0
M  V30 22127 H 2081.72 -0.663594 -1.93434 0
M  V30 22128 H 2079.88 1.05392 -3.72789 0
M  V30 22129 H 2080.29 -0.588708 -5.21186 0
M  V30 22130 H 2081.77 1.11029 -5.40719 0
M  V30 22131 H 2082.24 1.95187 -3.93445 0
M  V30 22132 H 2082.85 0.308162 -4.24182 0
M  V30 22133 N 2081.16 1.56239 -0.206702 0
M  V30 22134 C 2082.13 2.18382 0.695843 0
M  V30 22135 C 2083.13 1.14149 1.13255 0
M  V30 22136 O 2084.32 1.39468 1.04376 0
M  V30 22137 C 2081.45 2.79522 1.95141 0
M  V30 22138 H 2082.64 2.99503 0.154275 0
M  V30 22139 H 2080.2 1.56241 0.0429222 0
M  V30 22140 H 2080.93 2.02231 2.53521 0
M  V30 22141 H 2080.72 3.55837 1.64689 0
M  V30 22142 H 2082.21 3.27203 2.59476 0
M  V30 22143 N 2082.64 -0.0668159 1.57458 0
M  V30 22144 C 2083.87 -0.781616 1.92108 0
M  V30 22145 C 2084.29 -1.70072 0.803553 0
M  V30 22146 O 2083.65 -1.7966 -0.243316 0
M  V30 22147 C 2083.7 -1.54705 3.25728 0
M  V30 22148 O 2082.8 -2.65804 3.15312 0
M  V30 22149 H 2082.14 -0.212907 0.628941 0
M  V30 22150 H 2084.67 -0.0335704 2.04572 0
M  V30 22151 H 2084.68 -1.92522 3.59721 0
M  V30 22152 H 2083.36 -0.872713 4.06641 0
M  V30 22153 H 2081.94 -2.30807 2.92886 0
M  V30 22154 N 2084.12 -1.53926 -0.338317 0
M  V30 22155 C 2085.35 -1.75114 -1.0963 0
M  V30 22156 C 2085.76 -0.492691 -1.82672 0
M  V30 22157 O 2085.1 0.545601 -1.75411 0
M  V30 22158 C 2085.16 -2.88063 -2.15081 0
M  V30 22159 C 2084.83 -4.27487 -1.61568 0
M  V30 22160 C 2085.83 -5.0887 -1.06523 0
M  V30 22161 C 2083.51 -4.73988 -1.66256 0
M  V30 22162 C 2085.5 -6.34857 -0.568774 0
M  V30 22163 C 2083.19 -5.99946 -1.16223 0
M  V30 22164 C 2084.19 -6.80214 -0.616267 0
M  V30 22165 O 2083.88 -8.03805 -0.123412 0
M  V30 22166 H 2083.61 -0.588533 -0.332572 0
M  V30 22167 H 2086.16 -2.01572 -0.394676 0
M  V30 22168 H 2084.39 -2.57141 -2.88817 0
M  V30 22169 H 2086.08 -2.97172 -2.76485 0
M  V30 22170 H 2086.85 -4.74106 -1.02219 0
M  V30 22171 H 2082.73 -4.11564 -2.07692 0
M  V30 22172 H 2086.27 -6.97456 -0.141967 0
M  V30 22173 H 2082.17 -6.34204 -1.2023 0
M  V30 22174 H 2082.94 -8.18147 -0.240214 0
M  V30 22175 N 2085.6 0.599608 -1.45748 0
M  V30 22176 C 2086.84 1.36961 -1.51727 0
M  V30 22177 C 2087.2 1.91347 -0.158221 0
M  V30 22178 O 2088.4 2.6864 -0.0927187 0
M  V30 22179 C 2086.68 2.48104 -2.57253 0
M  V30 22180 S 2088.23 3.35754 -2.82515 0
M  V30 22181 H 2085.05 0.466839 -0.536267 0
M  V30 22182 H 2087.65 0.691067 -1.82878 0
M  V30 22183 H 2086.36 2.06513 -3.54656 0
M  V30 22184 H 2085.89 3.2075 -2.27778 0
M  V30 22185 H 2087.9 4.46478 -2.165 0
M  V30 22186 N 2087.08 1.33171 0.842803 0
M  V30 22187 C 2088.3 1.27579 1.63519 0
M  V30 22188 C 2088.73 -0.151151 1.87492 0
M  V30 22189 O 2088.09 -1.10648 1.4362 0
M  V30 22190 C 2088.13 2.05261 2.9648 0
M  V30 22191 O 2087.24 1.40852 3.87601 0
M  V30 22192 H 2086.58 0.439106 0.498078 0
M  V30 22193 H 2089.11 1.75672 1.04883 0
M  V30 22194 H 2089.12 2.15879 3.46209 0
M  V30 22195 H 2087.79 3.09018 2.78354 0
M  V30 22196 H 2086.37 1.38855 3.46083 0
M  V30 22197 N 2088.56 -1.06056 1.16576 0
M  V30 22198 C 2089.97 -1.31034 0.911171 0
M  V30 22199 C 2090.17 -1.96758 -0.434593 0
M  V30 22200 O 2089.23 -2.2357 -1.17357 0
M  V30 22201 C 2090.54 -2.18865 2.06201 0
M  V30 22202 C 2092.09 -2.32274 2.09804 0
M  V30 22203 C 2092.56 -3.23461 3.24248 0
M  V30 22204 N 2094.05 -3.31045 3.2398 0
M  V30 22205 C 2094.79 -4.01702 4.09174 0
M  V30 22206 N 2094.29 -4.7486 5.0446 0
M  V30 22207 N 2096.08 -3.97777 3.97153 0
M  V30 22208 H 2088.23 -0.617904 2.03213 0
M  V30 22209 H 2090.49 -0.335006 0.886834 0
M  V30 22210 H 2090.2 -1.77852 3.03417 0
M  V30 22211 H 2090.07 -3.19462 2.00559 0
M  V30 22212 H 2092.46 -2.72534 1.13179 0
M  V30 22213 H 2092.54 -1.31337 2.19509 0
M  V30 22214 H 2092.18 -2.83918 4.21133 0
M  V30 22215 H 2092.11 -4.24384 3.11779 0
M  V30 22216 H 2094.61 -2.78911 2.54984 0
M  V30 22217 H 2094.92 -5.26308 5.65879 0
M  V30 22218 H 2093.26 -4.73832 5.08437 0
M  V30 22219 H 2096.45 -3.39743 3.22013 0
M  V30 22220 H 2096.63 -4.52574 4.63768 0
M  V30 22221 N 2090.03 -0.964615 -1.24631 0
M  V30 22222 C 2091.31 -0.54181 -1.87946 0
M  V30 22223 C 2091.69 0.981047 -1.86919 0
M  V30 22224 O 2091.04 1.85109 -1.33966 0
M  V30 22225 C 2091.25 -1.12982 -3.30206 0
M  V30 22226 C 2092.6 -1.21281 -4.0691 0
M  V30 22227 O 2093.62 -1.0821 -3.39366 0
M  V30 22228 O 2092.48 -1.41904 -5.27755 0
M  V30 22229 H 2089.57 -0.180209 -0.807127 0
M  V30 22230 H 2092.12 -1.05869 -1.32627 0
M  V30 22231 H 2090.89 -2.17271 -3.25436 0
M  V30 22232 H 2090.51 -0.596798 -3.93096 0
M  V30 22233 N 2091.51 1.39445 -0.734362 0
M  V30 22234 C 2092.74 2.0535 -0.290903 0
M  V30 22235 C 2093.16 1.55004 1.06562 0
M  V30 22236 O 2092.52 0.693509 1.67512 0
M  V30 22237 C 2092.57 3.59337 -0.301562 0
M  V30 22238 O 2091.67 4.06225 0.711013 0
M  V30 22239 H 2091.01 0.650668 -0.132389 0
M  V30 22240 H 2093.54 1.78491 -1.00011 0
M  V30 22241 H 2093.55 4.0774 -0.14573 0
M  V30 22242 H 2092.23 3.95343 -1.2914 0
M  V30 22243 H 2090.8 3.69237 0.521369 0
M  V30 22244 N 2092.99 0.481946 1.5005 0
M  V30 22245 C 2094.41 0.13674 1.59013 0
M  V30 22246 C 2094.61 -1.35753 1.48908 0
M  V30 22247 O 2093.66 -2.1318 1.35316 0
M  V30 22248 C 2094.97 0.696597 2.9252 0
M  V30 22249 C 2096.52 0.660993 3.05941 0
M  V30 22250 C 2097 1.19858 4.42038 0
M  V30 22251 N 2098.49 1.15846 4.4848 0
M  V30 22252 C 2099.22 1.54481 5.52199 0
M  V30 22253 N 2098.72 2.00617 6.63117 0
M  V30 22254 N 2100.51 1.46016 5.42804 0
M  V30 22255 H 2092.66 1.45367 1.54862 0
M  V30 22256 H 2094.93 0.601814 0.732478 0
M  V30 22257 H 2094.63 1.74381 3.05425 0
M  V30 22258 H 2094.51 0.146249 3.76916 0
M  V30 22259 H 2096.89 -0.377335 2.92678 0
M  V30 22260 H 2096.97 1.24827 2.23275 0
M  V30 22261 H 2096.62 2.2356 4.56052 0
M  V30 22262 H 2096.55 0.587419 5.23313 0
M  V30 22263 H 2099.04 0.820197 3.68892 0
M  V30 22264 H 2099.35 2.28217 7.38334 0
M  V30 22265 H 2097.7 2.04578 6.64209 0
M  V30 22266 H 2100.89 1.09805 4.55039 0
M  V30 22267 H 2101.06 1.7645 6.23514 0
M  V30 22268 N 2094.47 -1.56127 0.214985 0
M  V30 22269 C 2095.72 -1.97737 -0.417663 0
M  V30 22270 C 2096.04 -1.10368 -1.6076 0
M  V30 22271 O 2095.31 -0.179261 -1.95078 0
M  V30 22272 H 2093.89 -0.730251 -0.157298 0
M  V30 22273 H 2096.55 -1.92477 0.306351 0
M  V30 22274 H 2095.64 -3.02994 -0.748421 0
M  V30 22275 N 2095.95 0.0584645 -1.57492 0
M  V30 22276 C 2096.9 1.07525 -2.01053 0
M  V30 22277 C 2097.88 1.33726 -0.894772 0
M  V30 22278 O 2099.07 1.33803 -1.15869 0
M  V30 22279 C 2096.2 2.38516 -2.46911 0
M  V30 22280 C 2095.29 2.15532 -3.65249 0
M  V30 22281 N 2095.68 1.62515 -4.78981 0
M  V30 22282 C 2093.98 2.45948 -3.72056 0
M  V30 22283 C 2094.68 1.54656 -5.60764 0
M  V30 22284 N 2093.65 2.01181 -5.05002 0
M  V30 22285 H 2097.45 0.658876 -2.86419 0
M  V30 22286 H 2094.97 0.265312 -1.60218 0
M  V30 22287 H 2096.97 3.12135 -2.76365 0
M  V30 22288 H 2095.63 2.80858 -1.62938 0
M  V30 22289 H 2096.64 1.31192 -5.01008 0
M  V30 22290 H 2093.31 2.91566 -2.98824 0
M  V30 22291 H 2094.7 1.14405 -6.62088 0
M  V30 22292 N 2097.42 1.54103 0.330149 0
M  V30 22293 C 2098.37 1.83745 1.4262 0
M  V30 22294 C 2099.37 0.708869 1.53855 0
M  V30 22295 O 2100.57 0.892427 1.56319 0
M  V30 22296 H 2096.95 0.58234 0.475799 0
M  V30 22297 H 2098.92 2.75417 1.1484 0
M  V30 22298 C 2097.67 2.07574 2.78941 0
M  V30 22299 H 2096.99 2.93875 2.71068 0
M  V30 22300 H 2098.43 2.32273 3.54719 0
M  V30 22301 C 2096.89 0.865282 3.25599 0
M  V30 22302 O 2097.42 0.0712874 4.01637 0
M  V30 22303 N 2095.62 0.678754 2.82562 0
M  V30 22304 H 2095.17 1.32607 2.20847 0
M  V30 22305 H 2095.13 -0.129662 3.14133 0
M  V30 22306 N 2098.9 -0.59187 1.46064 0
M  V30 22307 C 2100.18 -1.35177 1.41374 0
M  V30 22308 C 2100.56 -2.10898 0.09244 0
M  V30 22309 O 2099.91 -2.08901 -0.925879 0
M  V30 22310 C 2100.12 -2.28545 2.63758 0
M  V30 22311 C 2101.47 -2.90662 3.09517 0
M  V30 22312 O 2102.49 -2.38861 2.64242 0
M  V30 22313 O 2101.35 -3.84728 3.88133 0
M  V30 22314 H 2098.44 -0.606905 0.561778 0
M  V30 22315 H 2100.99 -0.61365 1.58216 0
M  V30 22316 H 2099.76 -1.71959 3.51491 0
M  V30 22317 H 2099.38 -3.09711 2.49328 0
M  V30 22318 N 2100.38 -1.33616 -0.835729 0
M  V30 22319 C 2101.63 -1.25436 -1.59354 0
M  V30 22320 C 2101.96 0.178683 -1.93376 0
M  V30 22321 O 2101.23 1.12082 -1.58959 0
M  V30 22322 C 2101.52 -2.13273 -2.9015 0
M  V30 22323 C 2101.37 -3.65051 -2.62789 0
M  V30 22324 C 2102.69 -2.00828 -3.91607 0
M  V30 22325 H 2099.81 -0.457008 -0.578198 0
M  V30 22326 H 2102.45 -1.63747 -0.963686 0
M  V30 22327 H 2100.6 -1.8073 -3.43902 0
M  V30 22328 H 2102.27 -4.07899 -2.15444 0
M  V30 22329 H 2100.52 -3.86775 -1.96437 0
M  V30 22330 H 2101.19 -4.2186 -3.56003 0
M  V30 22331 H 2103.66 -2.29375 -3.47169 0
M  V30 22332 H 2102.54 -2.64533 -4.8095 0
M  V30 22333 H 2102.8 -0.98144 -4.31069 0
M  V30 22334 N 2101.86 1.05436 -1.17136 0
M  V30 22335 C 2103.09 1.8181 -0.981263 0
M  V30 22336 C 2103.5 1.83173 0.473739 0
M  V30 22337 O 2102.84 1.25581 1.34071 0
M  V30 22338 C 2102.9 3.29286 -1.44261 0
M  V30 22339 C 2102.57 3.5161 -2.91924 0
M  V30 22340 C 2103.56 3.43938 -3.89875 0
M  V30 22341 C 2101.25 3.78652 -3.30043 0
M  V30 22342 C 2103.24 3.6299 -5.23944 0
M  V30 22343 C 2100.93 3.97352 -4.64278 0
M  V30 22344 C 2101.93 3.8952 -5.61038 0
M  V30 22345 O 2101.61 4.07702 -6.92845 0
M  V30 22346 H 2101.35 0.57984 -0.347507 0
M  V30 22347 H 2103.9 1.33868 -1.55784 0
M  V30 22348 H 2102.13 3.78131 -0.80958 0
M  V30 22349 H 2103.82 3.87177 -1.21857 0
M  V30 22350 H 2104.59 3.23027 -3.61772 0
M  V30 22351 H 2100.46 3.83853 -2.553 0
M  V30 22352 H 2104.01 3.56793 -5.99454 0
M  V30 22353 H 2099.91 4.17755 -4.92088 0
M  V30 22354 H 2100.67 4.24941 -6.99548 0
M  V30 22355 N 2103.34 0.971211 1.24118 0
M  V30 22356 C 2104.59 0.630598 1.91589 0
M  V30 22357 C 2104.9 -0.838491 1.76716 0
M  V30 22358 O 2106.1 -1.28978 2.38908 0
M  V30 22359 C 2104.56 1.07723 3.434 0
M  V30 22360 C 2104.17 2.57002 3.66953 0
M  V30 22361 C 2105.91 0.809928 4.16702 0
M  V30 22362 C 2103.82 2.95379 5.12352 0
M  V30 22363 H 2102.75 0.232148 0.717373 0
M  V30 22364 H 2105.4 1.17789 1.40706 0
M  V30 22365 H 2103.78 0.458223 3.9334 0
M  V30 22366 H 2104.96 3.24062 3.27598 0
M  V30 22367 H 2103.27 2.8138 3.06944 0
M  V30 22368 H 2105.87 1.07262 5.23831 0
M  V30 22369 H 2106.21 -0.253899 4.15525 0
M  V30 22370 H 2106.74 1.39007 3.72722 0
M  V30 22371 H 2103.48 4.00847 5.18654 0
M  V30 22372 H 2103 2.33005 5.52692 0
M  V30 22373 H 2104.68 2.85478 5.80613 0
M  V30 22374 N 2104.81 -1.39054 0.741747 0
M  V30 22375 C 2106.04 -2.05193 0.301789 0
M  V30 22376 C 2106.46 -1.55567 -1.05739 0
M  V30 22377 O 2105.82 -0.702382 -1.67141 0
M  V30 22378 C 2105.87 -3.59172 0.320615 0
M  V30 22379 O 2104.97 -4.06596 -0.68946 0
M  V30 22380 H 2104.32 -0.649957 0.135837 0
M  V30 22381 H 2106.85 -1.77958 1.00956 0
M  V30 22382 H 2106.86 -4.07657 0.167351 0
M  V30 22383 H 2105.53 -3.94652 1.31234 0
M  V30 22384 H 2104.11 -3.69509 -0.50178 0
M  V30 22385 N 2106.29 -0.489897 -1.49792 0
M  V30 22386 C 2107.2 0.29927 -2.32683 0
M  V30 22387 C 2108.22 0.978042 -1.43911 0
M  V30 22388 O 2109.39 0.961875 -1.76946 0
M  V30 22389 C 2106.46 1.35623 -3.19073 0
M  V30 22390 C 2105.52 0.692067 -4.23685 0
M  V30 22391 C 2104.75 1.69866 -5.05946 0
M  V30 22392 O 2104.98 2.92732 -4.89555 0
M  V30 22393 O 2103.91 1.2601 -5.88562 0
M  V30 22394 H 2107.74 -0.378894 -3.01327 0
M  V30 22395 H 2105.32 -0.251411 -1.47269 0
M  V30 22396 H 2107.2 1.96801 -3.72622 0
M  V30 22397 H 2105.88 2.01752 -2.53136 0
M  V30 22398 H 2104.79 0.040831 -3.74078 0
M  V30 22399 H 2106.12 0.0734074 -4.92145 0
M  V30 22400 N 2107.77 1.56011 -0.223262 0
M  V30 22401 C 2108.72 2.17002 0.699568 0
M  V30 22402 C 2109.7 1.11885 1.15631 0
M  V30 22403 O 2110.9 1.37868 1.11001 0
M  V30 22404 C 2108.03 2.8548 1.90673 0
M  V30 22405 C 2107.11 3.97824 1.46959 0
M  V30 22406 N 2107.5 5.00281 0.745146 0
M  V30 22407 C 2105.8 4.09945 1.75674 0
M  V30 22408 C 2106.5 5.79353 0.522003 0
M  V30 22409 N 2105.48 5.32779 1.07921 0
M  V30 22410 H 2109.28 2.93577 0.137666 0
M  V30 22411 H 2106.79 1.62381 -0.0245891 0
M  V30 22412 H 2108.79 3.27587 2.57861 0
M  V30 22413 H 2107.45 2.10401 2.47308 0
M  V30 22414 H 2108.46 5.16371 0.397658 0
M  V30 22415 H 2105.14 3.46019 2.33618 0
M  V30 22416 H 2106.53 6.71878 -0.0547031 0
M  V30 22417 N 2109.25 -0.0501116 1.5752 0
M  V30 22418 C 2110.49 -0.7462 1.88573 0
M  V30 22419 C 2110.83 -1.76115 0.818369 0
M  V30 22420 O 2110.1 -1.93764 -0.169013 0
M  V30 22421 C 2110.39 -1.43474 3.30284 0
M  V30 22422 C 2110.24 -0.434736 4.47694 0
M  V30 22423 C 2111.56 -2.37419 3.70568 0
M  V30 22424 H 2108.68 -0.269807 0.685838 0
M  V30 22425 H 2111.32 -0.00912382 1.89998 0
M  V30 22426 H 2109.47 -2.06301 3.29199 0
M  V30 22427 H 2111.14 0.189992 4.60909 0
M  V30 22428 H 2109.38 0.24799 4.33091 0
M  V30 22429 H 2110.05 -0.954564 5.43684 0
M  V30 22430 H 2112.53 -1.84653 3.72884 0
M  V30 22431 H 2111.41 -2.82587 4.7057 0
M  V30 22432 H 2111.67 -3.2318 3.01674 0
M  V30 22433 N 2110.73 -1.54276 -0.321972 0
M  V30 22434 C 2111.66 -1.7862 -1.42021 0
M  V30 22435 C 2112.64 -0.636264 -1.49634 0
M  V30 22436 O 2113.82 -0.873881 -1.6702 0
M  V30 22437 C 2110.95 -1.90419 -2.80104 0
M  V30 22438 C 2109.99 -3.1272 -2.90015 0
M  V30 22439 S 2110.83 -4.71288 -2.5426 0
M  V30 22440 C 2111.98 -4.85995 -3.94411 0
M  V30 22441 H 2112.22 -2.71492 -1.21158 0
M  V30 22442 H 2109.75 -1.45419 -0.518899 0
M  V30 22443 H 2111.71 -1.97902 -3.59646 0
M  V30 22444 H 2110.37 -0.985223 -2.98249 0
M  V30 22445 H 2109.56 -3.17715 -3.91246 0
M  V30 22446 H 2109.16 -3.03574 -2.18446 0
M  V30 22447 H 2111.46 -4.6873 -4.89182 0
M  V30 22448 H 2112.4 -5.88095 -3.94398 0
M  V30 22449 H 2112.81 -4.14288 -3.83439 0
M  V30 22450 N 2112.2 0.584116 -1.46376 0
M  V30 22451 C 2113.62 1.16623 -1.45794 0
M  V30 22452 C 2113.97 1.95198 -0.198034 0
M  V30 22453 O 2113.09 2.04801 0.698962 0
M  V30 22454 C 2113.69 2.12162 -2.64145 0
M  V30 22455 C 2112.25 2.657 -2.66609 0
M  V30 22456 C 2111.39 1.41543 -2.38455 0
M  V30 22457 H 2114.34 0.372129 -1.54275 0
M  V30 22458 H 2114.36 2.95601 -2.39583 0
M  V30 22459 H 2113.88 1.54946 -3.55828 0
M  V30 22460 H 2111.98 3.26789 -1.78996 0
M  V30 22461 H 2112.09 3.08531 -3.66532 0
M  V30 22462 H 2110.45 1.71306 -1.88484 0
M  V30 22463 H 2111.24 0.861604 -3.32312 0
M  V30 22464 N 2113.68 1.34058 0.828631 0
M  V30 22465 C 2114.91 1.28969 1.61402 0
M  V30 22466 C 2115.32 -0.139572 1.88684 0
M  V30 22467 O 2114.66 -1.09533 1.47473 0
M  V30 22468 C 2114.73 2.00658 2.9829 0
M  V30 22469 C 2114.39 3.49935 2.93929 0
M  V30 22470 C 2115.39 4.44949 2.68918 0
M  V30 22471 C 2113.07 3.92264 3.13742 0
M  V30 22472 C 2115.07 5.80266 2.63761 0
M  V30 22473 C 2112.75 5.27683 3.0821 0
M  V30 22474 C 2113.75 6.21496 2.83253 0
M  V30 22475 O 2113.44 7.54433 2.77643 0
M  V30 22476 H 2113.17 0.445319 0.508593 0
M  V30 22477 H 2115.73 1.77155 1.03949 0
M  V30 22478 H 2113.96 1.47077 3.57638 0
M  V30 22479 H 2115.64 1.88933 3.59248 0
M  V30 22480 H 2116.41 4.13567 2.53352 0
M  V30 22481 H 2112.29 3.19646 3.32186 0
M  V30 22482 H 2115.83 6.53461 2.442 0
M  V30 22483 H 2111.73 5.58685 3.23328 0
M  V30 22484 H 2112.5 7.64102 2.93411 0
M  V30 22485 N 2115.16 -1.04814 1.17694 0
M  V30 22486 C 2116.12 -2.10819 0.899339 0
M  V30 22487 C 2117.12 -1.60409 -0.112116 0
M  V30 22488 O 2118.31 -1.73783 0.120484 0
M  V30 22489 C 2115.45 -3.39121 0.34786 0
M  V30 22490 H 2116.64 -2.36878 1.83926 0
M  V30 22491 H 2114.19 -1.21119 0.987923 0
M  V30 22492 H 2114.93 -3.1872 -0.599026 0
M  V30 22493 H 2114.71 -3.77022 1.07688 0
M  V30 22494 H 2116.2 -4.17245 0.172084 0
M  V30 22495 N 2116.64 -0.977779 -1.23601 0
M  V30 22496 C 2117.6 -0.520908 -2.23202 0
M  V30 22497 C 2118.6 0.38804 -1.56048 0
M  V30 22498 O 2119.79 0.182096 -1.73246 0
M  V30 22499 C 2116.92 0.244298 -3.40024 0
M  V30 22500 H 2118.12 -1.40154 -2.65135 0
M  V30 22501 H 2115.67 -0.763397 -1.36389 0
M  V30 22502 H 2116.41 1.14159 -3.03543 0
M  V30 22503 H 2116.19 -0.408125 -3.8997 0
M  V30 22504 H 2117.68 0.55263 -4.13927 0
M  V30 22505 N 2118.12 1.38658 -0.749111 0
M  V30 22506 C 2119.07 2.3235 -0.10773 0
M  V30 22507 C 2120.06 1.5379 0.710284 0
M  V30 22508 O 2121.27 1.69353 0.609885 0
M  V30 22509 H 2117.64 0.751829 -0.0160406 0
M  V30 22510 H 2119.61 2.84055 -0.91408 0
M  V30 22511 C 2118.36 3.38962 0.774615 0
M  V30 22512 H 2117.68 3.99501 0.154555 0
M  V30 22513 H 2119.12 4.06936 1.19076 0
M  V30 22514 C 2117.58 2.77165 1.91524 0
M  V30 22515 O 2118.11 2.66119 3.00904 0
M  V30 22516 N 2116.32 2.35041 1.70892 0
M  V30 22517 H 2115.87 2.44224 0.819286 0
M  V30 22518 H 2115.82 1.94035 2.47382 0
M  V30 22519 N 2119.6 0.497834 1.49531 0
M  V30 22520 C 2120.54 -0.282279 2.29067 0
M  V30 22521 C 2121.51 -0.963221 1.35319 0
M  V30 22522 O 2122.7 -0.970497 1.64274 0
M  V30 22523 C 2119.84 -1.34265 3.1791 0
M  V30 22524 C 2118.95 -0.673799 4.26713 0
M  V30 22525 C 2118.09 -1.71434 5.02776 0
M  V30 22526 C 2117.12 -1.02719 6.0342 0
M  V30 22527 N 2116.26 -2.01178 6.7266 0
M  V30 22528 H 2121.1 0.402227 2.95273 0
M  V30 22529 H 2118.64 0.210203 1.4559 0
M  V30 22530 H 2120.6 -1.96938 3.67792 0
M  V30 22531 H 2119.23 -1.99596 2.53695 0
M  V30 22532 H 2118.28 0.0661428 3.80342 0
M  V30 22533 H 2119.59 -0.132722 4.98623 0
M  V30 22534 H 2118.74 -2.4162 5.56511 0
M  V30 22535 H 2117.48 -2.28926 4.30632 0
M  V30 22536 H 2116.49 -0.311083 5.48919 0
M  V30 22537 H 2117.71 -0.458799 6.77548 0
M  V30 22538 H 2115.66 -2.57639 6.0329 0
M  V30 22539 H 2115.58 -1.52128 7.40536 0
M  V30 22540 H 2116.84 -2.70663 7.31001 0
M  V30 22541 N 2121.07 -1.5589 0.231532 0
M  V30 22542 C 2122.02 -2.22104 -0.690835 0
M  V30 22543 C 2123.02 -1.20363 -1.19202 0
M  V30 22544 O 2124.22 -1.38416 -1.1507 0
M  V30 22545 H 2120.6 -0.712259 -0.241228 0
M  V30 22546 H 2122.57 -2.98201 -0.109056 0
M  V30 22547 C 2121.32 -2.92249 -1.88377 0
M  V30 22548 H 2120.64 -3.703 -1.50725 0
M  V30 22549 H 2122.08 -3.41964 -2.50672 0
M  V30 22550 C 2120.54 -1.95268 -2.7454 0
M  V30 22551 O 2121.07 -1.47596 -3.73602 0
M  V30 22552 N 2119.27 -1.62701 -2.40783 0
M  V30 22553 H 2118.82 -2.01663 -1.6028 0
M  V30 22554 H 2118.78 -0.98076 -2.98711 0
M  V30 22555 N 2122.55 0.0417572 -1.57545 0
M  V30 22556 C 2123.5 1.0648 -2.06796 0
M  V30 22557 C 2124.49 1.38234 -0.979162 0
M  V30 22558 O 2125.7 1.37288 -1.16413 0
M  V30 22559 H 2122.07 0.360857 -0.659762 0
M  V30 22560 H 2124.05 0.6235 -2.91813 0
M  V30 22561 C 2122.79 2.36114 -2.55236 0
M  V30 22562 H 2122.12 2.12537 -3.38627 0
M  V30 22563 H 2123.56 3.06072 -2.93421 0
M  V30 22564 C 2122.02 3.04191 -1.44808 0
M  V30 22565 O 2122.55 3.93508 -0.807098 0
M  V30 22566 N 2120.75 2.65308 -1.18574 0
M  V30 22567 H 2120.3 1.92763 -1.70881 0
M  V30 22568 H 2120.26 3.11178 -0.448987 0
M  V30 22569 N 2124.03 1.54445 0.313786 0
M  V30 22570 C 2124.96 1.79371 1.41072 0
M  V30 22571 C 2125.94 0.644191 1.49295 0
M  V30 22572 O 2127.12 0.882726 1.66554 0
M  V30 22573 C 2124.25 1.91902 2.7909 0
M  V30 22574 C 2123.3 3.14253 2.88352 0
M  V30 22575 S 2124.13 4.7263 2.51757 0
M  V30 22576 C 2125.29 4.8808 3.91828 0
M  V30 22577 H 2125.52 2.72131 1.19717 0
M  V30 22578 H 2123.05 1.45693 0.51118 0
M  V30 22579 H 2125.01 1.99807 3.58591 0
M  V30 22580 H 2123.67 1.00103 2.97722 0
M  V30 22581 H 2122.86 3.19785 3.89556 0
M  V30 22582 H 2122.47 3.04729 2.16833 0
M  V30 22583 H 2124.76 4.71317 4.86689 0
M  V30 22584 H 2125.7 5.90178 3.91274 0
M  V30 22585 H 2126.11 4.16316 3.81236 0
M  V30 22586 N 2125.51 -0.576345 1.46683 0
M  V30 22587 C 2126.74 -1.35822 1.55679 0
M  V30 22588 C 2127.15 -1.8815 0.199067 0
M  V30 22589 O 2126.49 -1.64638 -0.814857 0
M  V30 22590 C 2126.55 -2.57736 2.50624 0
M  V30 22591 C 2126.21 -2.26831 3.96733 0
M  V30 22592 C 2127.21 -1.8528 4.85765 0
M  V30 22593 C 2124.9 -2.38779 4.41916 0
M  V30 22594 C 2126.89 -1.5608 6.17995 0
M  V30 22595 C 2124.58 -2.09192 5.74179 0
M  V30 22596 C 2125.58 -1.67909 6.62039 0
M  V30 22597 O 2125.26 -1.38688 7.91847 0
M  V30 22598 H 2125 -0.42105 0.52886 0
M  V30 22599 H 2127.55 -0.706986 1.92849 0
M  V30 22600 H 2125.78 -3.25686 2.08484 0
M  V30 22601 H 2127.47 -3.19807 2.49956 0
M  V30 22602 H 2128.23 -1.75558 4.52111 0
M  V30 22603 H 2124.11 -2.69874 3.7375 0
M  V30 22604 H 2127.66 -1.23783 6.8653 0
M  V30 22605 H 2123.55 -2.1854 6.0738 0
M  V30 22606 H 2124.32 -1.5248 8.04172 0
M  V30 22607 N 2126.99 -1.34495 -0.82151 0
M  V30 22608 C 2128.21 -1.30164 -1.61468 0
M  V30 22609 C 2128.64 0.121303 -1.87708 0
M  V30 22610 O 2127.99 1.08349 -1.45362 0
M  V30 22611 C 2128.04 -2.09951 -2.93177 0
M  V30 22612 O 2127.15 -1.47 -3.85311 0
M  V30 22613 H 2126.49 -0.446975 -0.491029 0
M  V30 22614 H 2129.02 -1.77318 -1.02075 0
M  V30 22615 H 2129.03 -2.21359 -3.4273 0
M  V30 22616 H 2127.7 -3.13407 -2.73402 0
M  V30 22617 H 2126.28 -1.44343 -3.4383 0
M  V30 22618 N 2128.46 1.04188 -1.18248 0
M  V30 22619 C 2129.69 1.81021 -1.00194 0
M  V30 22620 C 2130.11 1.83367 0.449658 0
M  V30 22621 O 2129.46 1.26824 1.31232 0
M  V30 22622 C 2129.52 3.26678 -1.54802 0
M  V30 22623 O 2129.24 3.24548 -2.94279 0
M  V30 22624 C 2130.74 4.20161 -1.41349 0
M  V30 22625 H 2127.96 0.570098 -0.353877 0
M  V30 22626 H 2130.5 1.31316 -1.56769 0
M  V30 22627 H 2128.66 3.7362 -1.02407 0
M  V30 22628 H 2129.07 4.15787 -3.19721 0
M  V30 22629 H 2130.54 5.20304 -1.84357 0
M  V30 22630 H 2131.02 4.37705 -0.362029 0
M  V30 22631 H 2131.63 3.79083 -1.92811 0
M  V30 22632 N 2129.94 0.98432 1.23081 0
M  V30 22633 C 2131.35 0.691779 1.73411 0
M  V30 22634 C 2131.7 -0.791814 1.79513 0
M  V30 22635 O 2130.83 -1.61921 1.43563 0
M  V30 22636 C 2131.42 1.24906 3.14935 0
M  V30 22637 C 2129.98 1.00608 3.62705 0
M  V30 22638 C 2129.13 1.37443 2.40842 0
M  V30 22639 H 2132.08 1.1577 1.08549 0
M  V30 22640 H 2132.1 0.623401 3.75358 0
M  V30 22641 H 2131.61 2.32884 3.10462 0
M  V30 22642 H 2129.72 -0.0574556 3.72556 0
M  V30 22643 H 2129.83 1.66341 4.49296 0
M  V30 22644 H 2128.19 0.792926 2.42043 0
M  V30 22645 H 2128.98 2.46407 2.39037 0
M  V30 22646 N 2131.42 -1.38259 0.756453 0
M  V30 22647 C 2132.84 -1.53575 0.434365 0
M  V30 22648 C 2133.04 -1.71851 -1.05212 0
M  V30 22649 O 2132.09 -1.73115 -1.83814 0
M  V30 22650 C 2133.41 -2.74118 1.23611 0
M  V30 22651 C 2134.95 -2.8797 1.22647 0
M  V30 22652 C 2135.43 -4.11477 2.01124 0
M  V30 22653 N 2136.92 -4.1856 1.98399 0
M  V30 22654 C 2137.65 -5.13124 2.55913 0
M  V30 22655 N 2137.15 -6.13343 3.22153 0
M  V30 22656 N 2138.94 -5.05495 2.45827 0
M  V30 22657 H 2131.09 -1.24647 1.7198 0
M  V30 22658 H 2133.36 -0.605745 0.72923 0
M  V30 22659 H 2133.06 -2.67028 2.28886 0
M  V30 22660 H 2132.94 -3.67384 0.854919 0
M  V30 22661 H 2135.32 -2.9454 0.181771 0
M  V30 22662 H 2135.41 -1.95707 1.6472 0
M  V30 22663 H 2135.05 -4.05669 3.05607 0
M  V30 22664 H 2134.98 -5.02825 1.56444 0
M  V30 22665 H 2137.47 -3.46785 1.50161 0
M  V30 22666 H 2137.78 -6.81999 3.63451 0
M  V30 22667 H 2136.13 -6.13667 3.26248 0
M  V30 22668 H 2139.32 -4.26141 1.93705 0
M  V30 22669 H 2139.49 -5.79012 2.90946 0
M  V30 22670 N 2132.9 -0.505757 -1.49264 0
M  V30 22671 C 2134.14 0.0371268 -2.02766 0
M  V30 22672 C 2134.48 1.36205 -1.38427 0
M  V30 22673 O 2133.75 1.87376 -0.521582 0
M  V30 22674 C 2134.04 0.18468 -3.59626 0
M  V30 22675 C 2133.89 -1.1637 -4.34486 0
M  V30 22676 C 2135.21 0.923062 -4.30311 0
M  V30 22677 H 2132.33 0.0120186 -0.736902 0
M  V30 22678 H 2134.97 -0.658091 -1.78239 0
M  V30 22679 H 2133.12 0.776811 -3.80655 0
M  V30 22680 H 2134.79 -1.79508 -4.24941 0
M  V30 22681 H 2133.03 -1.75178 -3.96856 0
M  V30 22682 H 2133.7 -1.01371 -5.42612 0
M  V30 22683 H 2136.18 0.420822 -4.13967 0
M  V30 22684 H 2135.06 0.995155 -5.39804 0
M  V30 22685 H 2135.32 1.96788 -3.95888 0
M  V30 22686 N 2134.38 1.55765 -0.239796 0
M  V30 22687 C 2135.31 2.24064 0.657067 0
M  V30 22688 C 2136.29 1.2185 1.18687 0
M  V30 22689 O 2137.47 1.50484 1.22753 0
M  V30 22690 C 2134.6 2.93465 1.8573 0
M  V30 22691 C 2133.56 4.02307 1.46057 0
M  V30 22692 C 2132.88 4.59097 2.74106 0
M  V30 22693 C 2134.18 5.18402 0.636932 0
M  V30 22694 H 2135.88 2.99272 0.0875675 0
M  V30 22695 H 2133.42 1.43943 0.0406772 0
M  V30 22696 H 2135.38 3.39943 2.49032 0
M  V30 22697 H 2134.1 2.15734 2.45207 0
M  V30 22698 H 2132.76 3.56588 0.850935 0
M  V30 22699 H 2132.41 3.78075 3.31766 0
M  V30 22700 H 2132.11 5.32566 2.48288 0
M  V30 22701 H 2133.63 5.08304 3.38318 0
M  V30 22702 H 2135.04 5.61149 1.17408 0
M  V30 22703 H 2133.44 5.98216 0.475092 0
M  V30 22704 H 2134.51 4.83617 -0.352445 0
M  V30 22705 N 2135.85 -0.0334016 1.57565 0
M  V30 22706 C 2136.8 -1.05382 2.07358 0
M  V30 22707 C 2137.8 -1.37713 0.986479 0
M  V30 22708 O 2139 -1.36669 1.17139 0
M  V30 22709 H 2135.38 -0.357353 0.661667 0
M  V30 22710 H 2137.35 -0.608016 2.9214 0
M  V30 22711 C 2136.1 -2.34757 2.56485 0
M  V30 22712 H 2135.42 -2.10738 3.39749 0
M  V30 22713 H 2136.86 -3.04512 2.9504 0
M  V30 22714 C 2135.32 -3.03419 1.46419 0
M  V30 22715 O 2135.85 -3.93075 0.827955 0
M  V30 22716 N 2134.06 -2.64676 1.19979 0
M  V30 22717 H 2133.6 -1.91854 1.71901 0
M  V30 22718 H 2133.56 -3.10935 0.465483 0
M  V30 22719 N 2137.33 -1.54609 -0.305591 0
M  V30 22720 C 2138.56 -1.77981 -1.06479 0
M  V30 22721 C 2138.98 -0.535455 -1.80318 0
M  V30 22722 O 2138.34 0.513813 -1.73867 0
M  V30 22723 C 2138.39 -2.984 -2.0246 0
M  V30 22724 O 2137.49 -2.71203 -3.10681 0
M  V30 22725 H 2136.83 -0.589228 -0.306114 0
M  V30 22726 H 2139.36 -2.0168 -0.344411 0
M  V30 22727 H 2139.37 -3.26244 -2.45008 0
M  V30 22728 H 2138.05 -3.8863 -1.48121 0
M  V30 22729 H 2136.63 -2.54362 -2.7268 0
M  V30 22730 N 2138.81 0.568558 -1.46987 0
M  V30 22731 C 2140.05 1.33712 -1.54598 0
M  V30 22732 C 2140.41 1.90968 -0.198773 0
M  V30 22733 O 2141.62 2.68383 -0.14968 0
M  V30 22734 C 2139.89 2.42591 -2.62458 0
M  V30 22735 S 2141.45 3.29686 -2.89573 0
M  V30 22736 H 2138.26 0.455359 -0.546048 0
M  V30 22737 H 2140.87 0.65212 -1.84303 0
M  V30 22738 H 2139.57 1.98943 -3.58956 0
M  V30 22739 H 2139.1 3.15846 -2.34531 0
M  V30 22740 H 2141.12 4.41785 -2.25922 0
M  V30 22741 N 2140.29 1.34929 0.814366 0
M  V30 22742 C 2141.51 1.31019 1.60776 0
M  V30 22743 C 2141.94 -0.111347 1.8777 0
M  V30 22744 O 2141.3 -1.07577 1.45935 0
M  V30 22745 C 2141.34 2.11503 2.92059 0
M  V30 22746 O 2140.45 1.49042 3.84526 0
M  V30 22747 H 2139.79 0.449572 0.488652 0
M  V30 22748 H 2142.32 1.77857 1.01133 0
M  V30 22749 H 2142.33 2.23174 3.41552 0
M  V30 22750 H 2141 3.14853 2.71736 0
M  V30 22751 H 2139.58 1.46165 3.4306 0
M  V30 22752 N 2141.77 -1.0356 1.18799 0
M  V30 22753 C 2142.71 -2.13799 0.916116 0
M  V30 22754 C 2143.71 -1.68934 -0.125535 0
M  V30 22755 O 2144.91 -1.79985 0.0230864 0
M  V30 22756 H 2141.29 -0.698404 0.278811 0
M  V30 22757 H 2143.26 -2.33925 1.85262 0
M  V30 22758 C 2142.01 -3.44591 0.463926 0
M  V30 22759 H 2141.33 -3.79526 1.25698 0
M  V30 22760 H 2142.77 -4.22845 0.312739 0
M  V30 22761 C 2141.23 -3.26743 -0.821008 0
M  V30 22762 O 2141.76 -3.54778 -1.88403 0
M  V30 22763 N 2139.97 -2.80058 -0.775608 0
M  V30 22764 H 2139.51 -2.57444 0.089694 0
M  V30 22765 H 2139.47 -2.68497 -1.63575 0
M  V30 22766 N 2143.25 -0.990834 -1.22557 0
M  V30 22767 C 2144.66 -0.701213 -1.43371 0
M  V30 22768 C 2144.86 0.728876 -1.87855 0
M  V30 22769 O 2143.92 1.50004 -2.03113 0
M  V30 22770 C 2145.23 -1.70503 -2.47688 0
M  V30 22771 C 2146.78 -1.72024 -2.61489 0
M  V30 22772 C 2147.25 -2.71263 -3.69026 0
M  V30 22773 N 2148.74 -2.69845 -3.76481 0
M  V30 22774 C 2149.48 -3.43297 -4.59276 0
M  V30 22775 N 2148.98 -4.26343 -5.4608 0
M  V30 22776 N 2150.77 -3.32013 -4.53568 0
M  V30 22777 H 2142.92 -1.91447 -0.919875 0
M  V30 22778 H 2145.18 -0.825544 -0.466027 0
M  V30 22779 H 2144.89 -2.72827 -2.21942 0
M  V30 22780 H 2144.76 -1.49623 -3.46256 0
M  V30 22781 H 2147.15 -0.70399 -2.8658 0
M  V30 22782 H 2147.23 -1.96973 -1.63203 0
M  V30 22783 H 2146.87 -3.73036 -3.44683 0
M  V30 22784 H 2146.8 -2.43585 -4.66877 0
M  V30 22785 H 2149.3 -2.09583 -3.14457 0
M  V30 22786 H 2149.61 -4.79221 -6.06273 0
M  V30 22787 H 2147.95 -4.30431 -5.45669 0
M  V30 22788 H 2151.14 -2.66577 -3.84778 0
M  V30 22789 H 2151.32 -3.89516 -5.17862 0
M  V30 22790 N 2144.72 1.37856 -0.763775 0
M  V30 22791 C 2146.14 1.53343 -0.442503 0
M  V30 22792 C 2146.34 1.72406 1.04299 0
M  V30 22793 O 2145.4 1.74087 1.82893 0
M  V30 22794 C 2146.71 2.73459 -1.25063 0
M  V30 22795 C 2148.26 2.87315 -1.24173 0
M  V30 22796 C 2148.73 4.10404 -2.03303 0
M  V30 22797 N 2150.22 4.17501 -2.00616 0
M  V30 22798 C 2150.96 5.11759 -2.58631 0
M  V30 22799 N 2150.45 6.11626 -3.25401 0
M  V30 22800 N 2152.25 5.04184 -2.48505 0
M  V30 22801 H 2144.4 1.23733 -1.72638 0
M  V30 22802 H 2146.66 0.601869 -0.732432 0
M  V30 22803 H 2146.37 2.65811 -2.30299 0
M  V30 22804 H 2146.24 3.66925 -0.87439 0
M  V30 22805 H 2148.63 2.94439 -0.197389 0
M  V30 22806 H 2148.71 1.9483 -1.65755 0
M  V30 22807 H 2148.35 4.04042 -3.07754 0
M  V30 22808 H 2148.28 5.01988 -1.59108 0
M  V30 22809 H 2150.77 3.45984 -1.51998 0
M  V30 22810 H 2151.09 6.80062 -3.67063 0
M  V30 22811 H 2149.43 6.11928 -3.29498 0
M  V30 22812 H 2152.62 4.25108 -1.95962 0
M  V30 22813 H 2152.8 5.7746 -2.94013 0
M  V30 22814 N 2146.2 0.513665 1.48994 0
M  V30 22815 C 2147.45 -0.0263732 2.02783 0
M  V30 22816 C 2147.78 -1.35469 1.39147 0
M  V30 22817 O 2147.06 -1.87097 0.531511 0
M  V30 22818 C 2147.34 -0.165605 3.59719 0
M  V30 22819 C 2147.19 1.18673 4.33863 0
M  V30 22820 C 2148.51 -0.900228 4.30794 0
M  V30 22821 H 2145.63 -0.00811043 0.736955 0
M  V30 22822 H 2148.27 0.667534 1.77888 0
M  V30 22823 H 2146.42 -0.756613 3.81061 0
M  V30 22824 H 2148.09 1.81759 4.23983 0
M  V30 22825 H 2146.34 1.77281 3.95922 0
M  V30 22826 H 2147.01 1.04247 5.42067 0
M  V30 22827 H 2149.48 -0.398863 4.14184 0
M  V30 22828 H 2148.36 -0.966514 5.40324 0
M  V30 22829 H 2148.62 -1.94685 3.96926 0
M  V30 22830 N 2147.68 -1.55636 0.248053 0
M  V30 22831 C 2148.91 -2.03077 -0.379929 0
M  V30 22832 C 2149.32 -1.12663 -1.51999 0
M  V30 22833 O 2148.66 -0.133703 -1.83213 0
M  V30 22834 C 2148.72 -3.46767 -0.948323 0
M  V30 22835 C 2148.39 -4.56961 0.0596434 0
M  V30 22836 C 2149.38 -5.12576 0.869593 0
M  V30 22837 C 2147.07 -5.01955 0.186067 0
M  V30 22838 C 2149.06 -6.11679 1.79241 0
M  V30 22839 C 2146.75 -6.0089 1.11239 0
M  V30 22840 C 2147.75 -6.55631 1.91409 0
M  V30 22841 O 2147.44 -7.52636 2.82479 0
M  V30 22842 H 2147.17 -0.669391 -0.0942967 0
M  V30 22843 H 2149.72 -2.02043 0.369851 0
M  V30 22844 H 2147.95 -3.44953 -1.74769 0
M  V30 22845 H 2149.64 -3.77701 -1.48651 0
M  V30 22846 H 2150.41 -4.78646 0.782514 0
M  V30 22847 H 2146.29 -4.5901 -0.427876 0
M  V30 22848 H 2149.83 -6.54332 2.41858 0
M  V30 22849 H 2145.73 -6.3424 1.20039 0
M  V30 22850 H 2146.49 -7.70256 2.76854 0
M  V30 22851 N 2149.16 0.0250451 -1.5758 0
M  V30 22852 C 2150.1 1.02441 -2.0682 0
M  V30 22853 C 2151.07 1.35675 -0.958198 0
M  V30 22854 O 2152.26 1.45944 -1.22903 0
M  V30 22855 C 2149.4 2.31904 -2.55567 0
M  V30 22856 C 2148.51 2.04792 -3.80374 0
M  V30 22857 C 2147.65 3.28155 -4.17718 0
M  V30 22858 C 2146.69 2.96616 -5.3543 0
M  V30 22859 N 2145.82 4.12442 -5.68187 0
M  V30 22860 H 2150.66 0.59756 -2.91947 0
M  V30 22861 H 2148.2 0.283432 -1.44344 0
M  V30 22862 H 2150.16 3.07553 -2.81899 0
M  V30 22863 H 2148.79 2.72304 -1.73351 0
M  V30 22864 H 2147.84 1.19622 -3.61102 0
M  V30 22865 H 2149.15 1.7753 -4.66138 0
M  V30 22866 H 2148.31 4.12169 -4.45199 0
M  V30 22867 H 2147.05 3.58534 -3.30612 0
M  V30 22868 H 2146.05 2.11005 -5.07698 0
M  V30 22869 H 2147.28 2.67511 -6.24191 0
M  V30 22870 H 2145.22 4.42765 -4.84041 0
M  V30 22871 H 2145.14 3.88617 -6.4847 0
M  V30 22872 H 2146.41 4.97317 -6.00246 0
M  V30 22873 N 2150.64 1.54769 0.297388 0
M  V30 22874 C 2151.58 1.8597 1.36689 0
M  V30 22875 C 2152.55 0.708928 1.50211 0
M  V30 22876 O 2153.74 0.9579 1.65012 0
M  V30 22877 C 2150.88 2.11576 2.72635 0
M  V30 22878 C 2149.99 3.39191 2.67533 0
M  V30 22879 C 2149.13 3.54621 3.95496 0
M  V30 22880 C 2148.16 4.76015 3.84806 0
M  V30 22881 N 2147.3 4.88232 5.04553 0
M  V30 22882 H 2152.14 2.772 1.09381 0
M  V30 22883 H 2149.68 1.3726 0.528967 0
M  V30 22884 H 2151.64 2.24418 3.517 0
M  V30 22885 H 2150.27 1.23608 2.98196 0
M  V30 22886 H 2149.32 3.3495 1.80312 0
M  V30 22887 H 2150.63 4.28379 2.55525 0
M  V30 22888 H 2149.78 3.67147 4.82999 0
M  V30 22889 H 2148.52 2.63573 4.10342 0
M  V30 22890 H 2147.53 4.63518 2.95687 0
M  V30 22891 H 2148.75 5.68475 3.71502 0
M  V30 22892 H 2146.7 4.00108 5.19855 0
M  V30 22893 H 2146.62 5.71427 4.94982 0
M  V30 22894 H 2147.88 5.05119 5.93696 0
M  V30 22895 N 2152.11 -0.560755 1.47286 0
M  V30 22896 C 2153.05 -1.68362 1.54044 0
M  V30 22897 C 2154.02 -1.57783 0.392845 0
M  V30 22898 O 2155.21 -1.78691 0.60014 0
M  V30 22899 C 2152.34 -3.06581 1.43964 0
M  V30 22900 C 2151.38 -3.35616 2.63181 0
M  V30 22901 S 2152.21 -3.25261 4.254 0
M  V30 22902 C 2153.37 -4.6598 4.17868 0
M  V30 22903 H 2153.6 -1.62375 2.49042 0
M  V30 22904 H 2151.14 -0.741289 1.35441 0
M  V30 22905 H 2153.09 -3.86309 1.38836 0
M  V30 22906 H 2151.76 -3.10037 0.503571 0
M  V30 22907 H 2150.95 -4.36371 2.52182 0
M  V30 22908 H 2150.55 -2.63499 2.65413 0
M  V30 22909 H 2152.84 -5.56853 3.85903 0
M  V30 22910 H 2153.79 -4.82036 5.18698 0
M  V30 22911 H 2154.19 -4.4386 3.48781 0
M  V30 22912 N 2153.59 -1.35359 -0.807199 0
M  V30 22913 C 2155 -1.25624 -1.38114 0
M  V30 22914 C 2155.35 0.11163 -1.95882 0
M  V30 22915 O 2154.48 1.01256 -1.91249 0
M  V30 22916 C 2155.07 -2.27464 -2.51088 0
M  V30 22917 C 2153.63 -2.21472 -3.04347 0
M  V30 22918 C 2152.78 -2.13208 -1.77307 0
M  V30 22919 H 2155.73 -1.46496 -0.610285 0
M  V30 22920 H 2155.75 -1.90077 -3.29623 0
M  V30 22921 H 2155.26 -3.27009 -2.09014 0
M  V30 22922 H 2153.36 -1.25336 -3.50887 0
M  V30 22923 H 2153.48 -3.13409 -3.6237 0
M  V30 22924 H 2151.84 -1.59176 -1.98834 0
M  V30 22925 H 2152.62 -3.14611 -1.37385 0
M  V30 22926 N 2155.07 1.02928 -1.19346 0
M  V30 22927 C 2156.29 1.80485 -1.02175 0
M  V30 22928 C 2156.72 1.83238 0.424925 0
M  V30 22929 O 2156.08 1.25809 1.30545 0
M  V30 22930 C 2156.13 3.23415 -1.59483 0
M  V30 22931 O 2155.23 4.04087 -0.823877 0
M  V30 22932 H 2154.57 0.557177 -0.361178 0
M  V30 22933 H 2157.1 1.29551 -1.5836 0
M  V30 22934 H 2157.11 3.74164 -1.62681 0
M  V30 22935 H 2155.79 3.20727 -2.64777 0
M  V30 22936 H 2154.36 3.62726 -0.865114 0
M  V30 22937 N 2156.55 0.997319 1.2203 0
M  V30 22938 C 2157.8 0.671095 1.90208 0
M  V30 22939 C 2158.11 -0.800818 1.78455 0
M  V30 22940 O 2159.32 -1.23881 2.4159 0
M  V30 22941 C 2157.77 1.14983 3.41038 0
M  V30 22942 C 2157.38 2.64727 3.61419 0
M  V30 22943 C 2159.12 0.898134 4.1489 0
M  V30 22944 C 2157.03 3.06181 5.05972 0
M  V30 22945 H 2155.96 0.247312 0.712287 0
M  V30 22946 H 2158.61 1.20747 1.38176 0
M  V30 22947 H 2156.99 0.541553 3.92279 0
M  V30 22948 H 2158.17 3.30938 3.2065 0
M  V30 22949 H 2156.48 2.87827 3.00906 0
M  V30 22950 H 2159.08 1.18349 5.21438 0
M  V30 22951 H 2159.42 -0.165703 4.1597 0
M  V30 22952 H 2159.96 1.46882 3.6969 0
M  V30 22953 H 2156.69 4.11759 5.10034 0
M  V30 22954 H 2156.21 2.44676 5.47625 0
M  V30 22955 H 2157.89 2.97729 5.74427 0
M  V30 22956 N 2158.03 -1.37449 0.771075 0
M  V30 22957 C 2158.94 -2.3407 0.157631 0
M  V30 22958 C 2159.95 -1.60145 -0.680404 0
M  V30 22959 O 2161.13 -1.9224 -0.600482 0
M  V30 22960 C 2158.19 -3.39316 -0.711733 0
M  V30 22961 C 2157.25 -4.29063 0.142682 0
M  V30 22962 C 2156.49 -5.29282 -0.685284 0
M  V30 22963 O 2156.71 -5.37029 -1.92241 0
M  V30 22964 O 2155.64 -6.01825 -0.0948431 0
M  V30 22965 H 2159.47 -2.8826 0.956036 0
M  V30 22966 H 2157.06 -1.39598 0.532224 0
M  V30 22967 H 2158.94 -4.03713 -1.20806 0
M  V30 22968 H 2157.61 -2.87455 -1.48834 0
M  V30 22969 H 2156.52 -3.67769 0.685357 0
M  V30 22970 H 2157.85 -4.84227 0.882356 0
M  V30 22971 N 2159.5 -0.52156 -1.4872 0
M  V30 22972 C 2160.73 0.013899 -2.07395 0
M  V30 22973 C 2161.15 1.28175 -1.37669 0
M  V30 22974 O 2160.51 1.75882 -0.439921 0
M  V30 22975 C 2160.56 0.229553 -3.59869 0
M  V30 22976 O 2159.66 1.30002 -3.91374 0
M  V30 22977 H 2159.01 -0.0353734 -0.663057 0
M  V30 22978 H 2161.54 -0.727065 -1.91246 0
M  V30 22979 H 2161.55 0.454795 -4.05457 0
M  V30 22980 H 2160.22 -0.696653 -4.10024 0
M  V30 22981 H 2158.8 1.0581 -3.57573 0
M  V30 22982 N 2160.98 1.55502 -0.256304 0
M  V30 22983 C 2162.26 1.91111 0.41663 0
M  V30 22984 C 2162.64 1.17825 1.75159 0
M  V30 22985 O 2161.99 0.298822 2.26538 0
M  V30 22986 C 2162.2 3.44223 0.575462 0
M  V30 22987 C 2163.55 4.15653 0.867028 0
M  V30 22988 O 2164.57 3.50014 0.660977 0
M  V30 22989 O 2163.43 5.31777 1.25997 0
M  V30 22990 H 2160.52 0.795781 0.225083 0
M  V30 22991 H 2163.07 1.67008 -0.301066 0
M  V30 22992 H 2161.84 3.89596 -0.364767 0
M  V30 22993 H 2161.46 3.74219 1.34334 0
M  V30 22994 N 2162.46 -0.0166879 1.57591 0
M  V30 22995 C 2163.71 -0.706033 1.90113 0
M  V30 22996 C 2164.04 -1.74339 0.855541 0
M  V30 22997 O 2163.31 -1.94079 -0.127874 0
M  V30 22998 C 2163.6 -1.36436 3.33253 0
M  V30 22999 C 2163.45 -0.339675 4.48516 0
M  V30 23000 C 2164.77 -2.29505 3.7552 0
M  V30 23001 H 2161.89 -0.255199 0.691406 0
M  V30 23002 H 2164.53 0.0311796 1.89974 0
M  V30 23003 H 2162.68 -1.99271 3.33501 0
M  V30 23004 H 2164.35 0.287715 4.60402 0
M  V30 23005 H 2162.6 0.339799 4.32467 0
M  V30 23006 H 2163.27 -0.839026 5.45586 0
M  V30 23007 H 2165.74 -1.76702 3.76717 0
M  V30 23008 H 2164.62 -2.72542 4.76458 0
M  V30 23009 H 2164.88 -3.16708 3.08461 0
M  V30 23010 O 2163.98 -1.60713 -0.159291 0
M  V30 23011 H 2164.67 -1.76644 -0.794768 0
M  V30 END ATOM
M  V30 BEGIN BOND
M  V30 END BOND
M  V30 END CTAB
M  END
$$$$
