drugbank_target|O95069 Potassium channel subfamily K member 2 (DB00204; DB04855)
 OpenBabel12092119273D

  0  0  0     0  0            999 V3000
M  V30 BEGIN CTAB
M  V30 COUNTS 6742 6816 0 0 0
M  V30 BEGIN ATOM
M  V30 1 H -0.908 1.98254 -0.117106 0
M  V30 2 N 0 1.576 0 0
M  V30 3 C 0.933 2.03868 1.02534 0
M  V30 4 C 1.911 0.928543 1.3348 0
M  V30 5 O 3.095 1.19667 1.45644 0
M  V30 6 C 0.222 2.43627 2.35294 0
M  V30 7 C -0.732 3.65373 2.2001 0
M  V30 8 S 0.101 5.13292 1.52614 0
M  V30 9 C 1.257 5.56322 2.86805 0
M  V30 10 H 1.49 2.90518 0.631377 0
M  V30 11 H -0.977 1.52953 0.210867 0
M  V30 12 H 0.981 2.67203 3.11629 0
M  V30 13 H -0.358 1.57376 2.7183 0
M  V30 14 H -1.165 3.90944 3.18086 0
M  V30 15 H -1.563 3.418 1.51819 0
M  V30 16 H 0.729 5.58782 3.83104 0
M  V30 17 H 1.672 6.56266 2.65933 0
M  V30 18 H 2.08 4.83886 2.90714 0
M  V30 19 N 1.4781 -0.272755 1.55222 0
M  V30 20 C 2.4081 -1.34136 1.91127 0
M  V30 21 C 3.3891 -1.51513 0.773168 0
M  V30 22 O 4.5741 -1.64552 1.03132 0
M  V30 23 C 1.7041 -2.70083 2.1834 0
M  V30 24 C 0.6581 -2.67437 3.34158 0
M  V30 25 C -0.0159 -4.06938 3.46851 0
M  V30 26 C 1.2841 -2.26686 4.70543 0
M  V30 27 H 2.9781 -1.04333 2.80633 0
M  V30 28 H 0.5241 -0.500454 1.35024 0
M  V30 29 H 2.4771 -3.44952 2.42046 0
M  V30 30 H 1.2011 -3.01469 1.25634 0
M  V30 31 H -0.1399 -1.95026 3.1042 0
M  V30 32 H -0.4919 -4.35547 2.51611 0
M  V30 33 H -0.7919 -4.06062 4.2472 0
M  V30 34 H 0.7321 -4.83545 3.72849 0
M  V30 35 H 2.1461 -2.91277 4.93792 0
M  V30 36 H 0.5431 -2.36971 5.5133 0
M  V30 37 H 1.6131 -1.21818 4.69349 0
M  V30 38 N 2.9562 -1.48159 -0.537278 0
M  V30 39 C 4.3672 -1.49429 -1.11928 0
M  V30 40 C 4.7182 -0.26 -1.9447 0
M  V30 41 O 3.8432 0.633489 -2.0692 0
M  V30 42 C 4.4382 -2.70758 -2.03656 0
M  V30 43 C 2.9972 -2.74923 -2.57088 0
M  V30 44 C 2.1442 -2.42835 -1.3389 0
M  V30 45 H 5.0952 -1.55381 -0.322886 0
M  V30 46 H 5.1162 -2.48861 -2.87834 0
M  V30 47 H 4.6282 -3.60575 -1.43553 0
M  V30 48 H 2.7292 -1.89296 -3.20933 0
M  V30 49 H 2.8422 -3.76157 -2.9672 0
M  V30 50 H 1.2062 -1.93836 -1.65226 0
M  V30 51 H 1.9892 -3.34884 -0.755504 0
M  V30 52 N 4.4343 0.785586 -1.36625 0
M  V30 53 C 5.6593 1.57963 -1.34397 0
M  V30 54 C 6.0843 1.87964 0.071526 0
M  V30 55 O 5.4423 1.48182 1.0446 0
M  V30 56 C 5.4903 2.87511 -2.17646 0
M  V30 57 O 4.5943 3.81281 -1.57158 0
M  V30 58 H 3.9353 0.479014 -0.459828 0
M  V30 59 H 6.4653 0.973411 -1.79961 0
M  V30 60 H 6.4753 3.36745 -2.30362 0
M  V30 61 H 5.1503 2.65002 -3.20541 0
M  V30 62 H 3.7273 3.39885 -1.53403 0
M  V30 63 N 5.9124 1.20967 1.01018 0
M  V30 64 C 6.8754 0.965918 2.07853 0
M  V30 65 C 7.8754 -0.0610545 1.60684 0
M  V30 66 O 9.0654 0.175681 1.73312 0
M  V30 67 C 6.1974 0.455513 3.37843 0
M  V30 68 H 7.3904 1.91365 2.3091 0
M  V30 69 H 4.9434 1.02594 1.17916 0
M  V30 70 H 5.6784 -0.497381 3.20463 0
M  V30 71 H 5.4634 1.19622 3.73407 0
M  V30 72 H 6.9534 0.304667 4.16487 0
M  V30 73 N 7.3905 -1.2043 1.01659 0
M  V30 74 C 8.6155 -1.94318 0.724942 0
M  V30 75 C 9.0405 -1.74266 -0.708034 0
M  V30 76 O 8.3985 -1.03694 -1.48719 0
M  V30 77 C 8.4465 -3.44486 1.06591 0
M  V30 78 O 7.5505 -4.12017 0.177599 0
M  V30 79 H 6.8915 -0.60708 0.26898 0
M  V30 80 H 9.4215 -1.52861 1.35995 0
M  V30 81 H 9.4315 -3.95106 1.01762 0
M  V30 82 H 8.1065 -3.58404 2.10997 0
M  V30 83 H 6.6835 -3.71821 0.283421 0
M  V30 84 N 8.8686 -0.792821 -1.36206 0
M  V30 85 C 10.2846 -0.474903 -1.52371 0
M  V30 86 C 10.4846 1.00622 -1.74578 0
M  V30 87 O 9.5406 1.79162 -1.77924 0
M  V30 88 C 10.8536 -1.3083 -2.70747 0
M  V30 89 C 12.4016 -1.30234 -2.84619 0
M  V30 90 C 12.8766 -2.11956 -4.06004 0
M  V30 91 N 14.3676 -2.09419 -4.13156 0
M  V30 92 C 15.1026 -2.69419 -5.06163 0
M  V30 93 N 14.5986 -3.3829 -6.04592 0
M  V30 94 N 16.3916 -2.59134 -4.98804 0
M  V30 95 H 8.5426 -1.75222 -1.20046 0
M  V30 96 H 10.8056 -0.745024 -0.586211 0
M  V30 97 H 10.5116 -2.35881 -2.6087 0
M  V30 98 H 10.3856 -0.95196 -3.6499 0
M  V30 99 H 12.7726 -0.259748 -2.93955 0
M  V30 100 H 12.8536 -1.69847 -1.91274 0
M  V30 101 H 12.4976 -3.16248 -3.97429 0
M  V30 102 H 12.4276 -1.69711 -4.98503 0
M  V30 103 H 14.9186 -1.59297 -3.42685 0
M  V30 104 H 15.2316 -3.81394 -6.7213 0
M  V30 105 H 13.5766 -3.42393 -6.04807 0
M  V30 106 H 16.7676 -2.04927 -4.20859 0
M  V30 107 H 16.9406 -3.06185 -5.711 0
M  V30 108 N 10.3467 1.47872 -0.545128 0
M  V30 109 C 11.2567 2.33633 0.212746 0
M  V30 110 C 12.2727 1.4744 0.923983 0
M  V30 111 O 13.4487 1.80393 0.895572 0
M  V30 112 C 10.5137 3.23884 1.23693 0
M  V30 113 C 9.5747 4.25961 0.534417 0
M  V30 114 C 8.8077 5.11899 1.5098 0
M  V30 115 O 9.0307 5.00077 2.7437 0
M  V30 116 O 7.9647 5.92831 1.0409 0
M  V30 117 H 11.7907 2.99714 -0.490416 0
M  V30 118 H 9.3757 1.46235 -0.305871 0
M  V30 119 H 11.2577 3.79666 1.82843 0
M  V30 120 H 9.9327 2.60446 1.92222 0
M  V30 121 H 8.8397 3.73972 -0.0979679 0
M  V30 122 H 10.1727 4.92079 -0.109213 0
M  V30 123 N 11.8248 0.280983 1.55075 0
M  V30 124 C 13.2408 -0.0729964 1.59433 0
M  V30 125 C 13.4408 -1.5411 1.29817 0
M  V30 126 O 12.4968 -2.29086 1.06187 0
M  V30 127 C 13.8098 0.306921 2.9913 0
M  V30 128 C 15.3578 0.254023 3.11968 0
M  V30 129 C 15.8328 0.608467 4.5394 0
M  V30 130 N 17.3238 0.560241 4.59799 0
M  V30 131 C 18.0588 0.80722 5.6769 0
M  V30 132 N 17.5548 1.11912 6.83701 0
M  V30 133 N 19.3478 0.735623 5.57266 0
M  V30 134 H 11.4988 1.238 1.7259 0
M  V30 135 H 13.7618 0.500547 0.805082 0
M  V30 136 H 13.4678 1.32816 3.25657 0
M  V30 137 H 13.3418 -0.349363 3.75579 0
M  V30 138 H 15.7288 -0.75794 2.852 0
M  V30 139 H 15.8098 0.944649 2.37718 0
M  V30 140 H 15.4538 1.61814 4.81434 0
M  V30 141 H 15.3838 -0.104013 5.26497 0
M  V30 142 H 17.8748 0.329288 3.76463 0
M  V30 143 H 18.1878 1.29409 7.61888 0
M  V30 144 H 16.5328 1.15695 6.85303 0
M  V30 145 H 19.7238 0.491752 4.6551 0
M  V30 146 H 19.8968 0.931482 6.4127 0
M  V30 147 N 13.3029 -1.57598 0.00835791 0
M  V30 148 C 14.7139 -1.7892 -0.53333 0
M  V30 149 C 15.0649 -0.916609 -1.73473 0
M  V30 150 O 14.1899 -0.121336 -2.1606 0
M  V30 151 C 14.7849 -3.24488 -0.974313 0
M  V30 152 C 13.3439 -3.46878 -1.46125 0
M  V30 153 C 12.4909 -2.74157 -0.416302 0
M  V30 154 H 15.4419 -1.56958 0.234495 0
M  V30 155 H 15.4629 -3.3306 -1.83988 0
M  V30 156 H 14.9749 -3.87972 -0.099718 0
M  V30 157 H 13.0759 -2.8862 -2.35646 0
M  V30 158 H 13.1889 -4.55572 -1.48295 0
M  V30 159 H 11.5529 -2.39022 -0.87981 0
M  V30 160 H 12.3359 -3.40345 0.44947 0
M  V30 161 N 14.781 0.264519 -1.55364 0
M  V30 162 C 16.029 0.993021 -1.76021 0
M  V30 163 C 16.35 1.86511 -0.569099 0
M  V30 164 O 15.62 1.91438 0.415735 0
M  V30 165 H 14.2 0.369639 -0.649135 0
M  V30 166 H 16.862 0.286707 -1.9278 0
M  V30 167 H 15.958 1.62502 -2.66457 0
M  V30 168 N 16.2591 1.48442 0.529413 0
M  V30 169 C 17.4891 1.59919 1.30804 0
M  V30 170 C 17.8971 0.258792 1.87422 0
M  V30 171 O 17.2401 -0.762096 1.67146 0
M  V30 172 C 17.3021 2.58693 2.49636 0
M  V30 173 C 16.9661 4.03745 2.14101 0
M  V30 174 C 17.9631 4.9141 1.6974 0
M  V30 175 C 15.6481 4.49285 2.24607 0
M  V30 176 C 17.6421 6.22645 1.36351 0
M  V30 177 C 15.3291 5.8054 1.9083 0
M  V30 178 C 16.3271 6.67043 1.46773 0
M  V30 179 O 16.0151 7.95856 1.1344 0
M  V30 180 H 15.7471 0.541981 0.404021 0
M  V30 181 H 18.3011 1.95 0.645309 0
M  V30 182 H 16.5311 2.18734 3.18892 0
M  V30 183 H 18.2201 2.59999 3.11698 0
M  V30 184 H 18.9861 4.57465 1.61094 0
M  V30 185 H 14.8651 3.82142 2.57854 0
M  V30 186 H 18.4091 6.90119 1.01891 0
M  V30 187 H 14.3061 6.14022 1.99117 0
M  V30 188 H 15.0741 8.08613 1.26832 0
M  V30 189 N 17.7372 -0.778329 1.37039 0
M  V30 190 C 19.1532 -1.07796 1.17695 0
M  V30 191 C 19.3532 -2.01498 0.00860115 0
M  V30 192 O 18.4092 -2.43901 -0.653352 0
M  V30 193 C 19.7222 -1.68178 2.49272 0
M  V30 194 C 21.2702 -1.80467 2.55735 0
M  V30 195 C 21.7452 -2.44263 3.87427 0
M  V30 196 N 23.2362 -2.51721 3.88833 0
M  V30 197 C 23.9712 -3.01919 4.87476 0
M  V30 198 N 23.4672 -3.5234 5.96513 0
M  V30 199 N 25.2602 -3.00733 4.74885 0
M  V30 200 H 17.4112 -0.156032 2.11826 0
M  V30 201 H 19.6742 -0.131844 0.938787 0
M  V30 202 H 19.3802 -1.06796 3.35093 0
M  V30 203 H 19.2542 -2.67554 2.65885 0
M  V30 204 H 21.6412 -2.40984 1.70325 0
M  V30 205 H 21.7222 -0.798656 2.43013 0
M  V30 206 H 21.3662 -1.84388 4.73248 0
M  V30 207 H 21.2962 -3.45458 3.9745 0
M  V30 208 H 23.7872 -2.1603 3.10063 0
M  V30 209 H 24.1002 -3.89027 6.67741 0
M  V30 210 H 22.4452 -3.50462 6.00168 0
M  V30 211 H 25.6362 -2.60638 3.88826 0
M  V30 212 H 25.8092 -3.39545 5.51918 0
M  V30 213 N 19.2153 -1.21501 -1.00376 0
M  V30 214 C 20.1783 -0.976927 -2.07337 0
M  V30 215 C 21.1783 0.0525322 -1.60714 0
M  V30 216 O 22.3683 -0.184869 -1.73216 0
M  V30 217 C 19.5003 -0.473423 -3.37597 0
M  V30 218 H 20.6933 -1.92587 -2.29892 0
M  V30 219 H 18.2463 -1.03217 -1.17371 0
M  V30 220 H 18.9813 0.480379 -3.20722 0
M  V30 221 H 18.7663 -1.216 -3.72768 0
M  V30 222 H 20.2563 -0.32675 -4.1632 0
M  V30 223 N 20.6934 1.19889 -1.02296 0
M  V30 224 C 21.9414 1.89046 -0.714558 0
M  V30 225 C 22.2624 1.79636 0.758681 0
M  V30 226 O 21.5324 1.20292 1.54618 0
M  V30 227 H 20.1124 0.699802 -0.261317 0
M  V30 228 H 22.7744 1.45574 -1.29592 0
M  V30 229 H 21.8704 2.95524 -1.0036 0
M  V30 230 N 22.1715 0.800033 1.35784 0
M  V30 231 C 23.4175 0.377901 1.99248 0
M  V30 232 C 23.7505 -1.05052 1.63333 0
M  V30 233 O 23.0255 -1.72768 0.893385 0
M  V30 234 C 23.3085 0.553922 3.55814 0
M  V30 235 C 23.1615 2.0268 4.01548 0
M  V30 236 C 24.4805 -0.0244802 4.40093 0
M  V30 237 H 21.5995 0.138782 0.723815 0
M  V30 238 H 24.2415 1.00835 1.61035 0
M  V30 239 H 22.3915 0.0172398 3.88496 0
M  V30 240 H 24.0635 2.62536 3.79305 0
M  V30 241 H 22.3065 2.5256 3.52698 0
M  V30 242 H 22.9775 2.10087 5.10458 0
M  V30 243 H 25.4535 0.433775 4.13833 0
M  V30 244 H 24.3295 0.128637 5.48749 0
M  V30 245 H 24.5905 -1.11758 4.27741 0
M  V30 246 N 23.6496 -1.47581 0.552962 0
M  V30 247 C 24.6126 -2.28439 -0.186605 0
M  V30 248 C 25.6126 -1.36706 -0.84665 0
M  V30 249 O 26.8026 -1.59378 -0.703164 0
M  V30 250 C 23.9346 -3.16264 -1.2724 0
M  V30 251 H 25.1276 -2.95294 0.523609 0
M  V30 252 H 22.6806 -1.532 0.309745 0
M  V30 253 H 23.4156 -2.54091 -2.01514 0
M  V30 254 H 23.2006 -3.83769 -0.803968 0
M  V30 255 H 24.6906 -3.77198 -1.79196 0
M  V30 256 N 25.1277 -0.289203 -1.54924 0
M  V30 257 C 26.0907 0.579144 -2.21762 0
M  V30 258 C 27.0907 1.07047 -1.1999 0
M  V30 259 O 28.2807 0.968384 -1.44803 0
M  V30 260 C 25.4127 1.80055 -2.8947 0
M  V30 261 H 26.6057 -0.00464908 -2.999 0
M  V30 262 H 24.1587 -0.0399306 -1.56249 0
M  V30 263 H 24.8937 2.42449 -2.15381 0
M  V30 264 H 24.6787 1.45602 -3.64064 0
M  V30 265 H 26.1687 2.41773 -3.40493 0
M  V30 266 N 26.6058 1.57591 -0.0167156 0
M  V30 267 C 28.0168 1.79201 0.523834 0
M  V30 268 C 28.3678 0.925796 1.72984 0
M  V30 269 O 27.4928 0.132792 2.15992 0
M  V30 270 C 28.0878 3.25 0.957091 0
M  V30 271 C 26.6468 3.47648 1.44283 0
M  V30 272 C 25.7938 2.74374 0.401757 0
M  V30 273 H 28.7448 1.56831 -0.242816 0
M  V30 274 H 28.7658 3.34031 1.82219 0
M  V30 275 H 28.2778 3.88019 0.0791415 0
M  V30 276 H 26.3788 2.89866 2.34113 0
M  V30 277 H 26.4918 4.56352 1.45877 0
M  V30 278 H 24.8558 2.39485 0.867121 0
M  V30 279 H 25.6388 3.40102 -0.467513 0
M  V30 280 N 28.0839 -0.256276 1.55502 0
M  V30 281 C 29.3609 -1.00789 1.67633 0
M  V30 282 C 29.7409 -2.03706 0.553826 0
M  V30 283 O 29.0889 -2.24145 -0.443969 0
M  V30 284 C 29.2989 -1.64968 3.07549 0
M  V30 285 C 30.6469 -2.15505 3.65845 0
M  V30 286 O 31.6709 -1.74925 3.1029 0
M  V30 287 O 30.5299 -2.89986 4.63217 0
M  V30 288 H 27.6239 -0.468553 0.681459 0
M  V30 289 H 30.1699 -0.250806 1.67836 0
M  V30 290 H 28.9419 -0.904785 3.80696 0
M  V30 291 H 28.5649 -2.47321 3.11317 0
M  V30 292 N 29.562 -1.4872 -0.521534 0
M  V30 293 C 30.492 -1.66771 -1.63431 0
M  V30 294 C 31.473 -0.516499 -1.62069 0
M  V30 295 O 32.658 -0.750013 -1.79132 0
M  V30 296 C 29.788 -1.71515 -3.01993 0
M  V30 297 C 28.742 -2.86222 -3.18216 0
M  V30 298 C 28.068 -2.76061 -4.57924 0
M  V30 299 C 29.368 -4.27419 -3.00184 0
M  V30 300 H 31.062 -2.59932 -1.48579 0
M  V30 301 H 28.608 -1.25089 -0.713358 0
M  V30 302 H 30.561 -1.82731 -3.7972 0
M  V30 303 H 29.285 -0.749393 -3.17886 0
M  V30 304 H 27.944 -2.74575 -2.42908 0
M  V30 305 H 27.592 -1.77437 -4.70665 0
M  V30 306 H 27.292 -3.53037 -4.69722 0
M  V30 307 H 28.816 -2.89256 -5.37739 0
M  V30 308 H 30.23 -4.39855 -3.67697 0
M  V30 309 H 28.627 -5.05458 -3.2347 0
M  V30 310 H 29.697 -4.43293 -1.96518 0
M  V30 311 N 31.0401 0.771051 -1.3745 0
M  V30 312 C 31.9701 1.89827 -1.3597 0
M  V30 313 C 32.9511 1.68562 -0.228216 0
M  V30 314 O 34.1361 1.8941 -0.428675 0
M  V30 315 C 31.2661 3.2712 -1.16662 0
M  V30 316 C 30.2201 3.6295 -2.2683 0
M  V30 317 C 29.5461 4.98791 -1.92644 0
M  V30 318 C 30.8461 3.69627 -3.69017 0
M  V30 319 H 32.5401 1.91323 -2.30295 0
M  V30 320 H 30.0861 0.919082 -1.10855 0
M  V30 321 H 32.0391 4.05615 -1.14256 0
M  V30 322 H 30.7631 3.26059 -0.187926 0
M  V30 323 H 29.4221 2.86763 -2.28392 0
M  V30 324 H 29.0701 4.94271 -0.933021 0
M  V30 325 H 28.7701 5.23733 -2.66416 0
M  V30 326 H 30.2941 5.79685 -1.91826 0
M  V30 327 H 31.7081 4.38273 -3.69581 0
M  V30 328 H 30.1051 4.06067 -4.41848 0
M  V30 329 H 31.1751 2.70273 -4.02592 0
M  V30 330 N 32.5182 1.22032 0.997298 0
M  V30 331 C 33.7952 0.950823 1.70935 0
M  V30 332 C 34.1752 -0.535292 2.042 0
M  V30 333 O 33.5232 -1.50217 1.72183 0
M  V30 334 C 33.7332 1.84386 2.96315 0
M  V30 335 C 35.0812 2.09732 3.69185 0
M  V30 336 O 36.1052 1.81798 3.06314 0
M  V30 337 O 34.9642 2.57018 4.82291 0
M  V30 338 H 32.0582 0.357204 0.745878 0
M  V30 339 H 34.6042 1.32997 1.05404 0
M  V30 340 H 33.3762 2.84928 2.68201 0
M  V30 341 H 32.9992 1.46602 3.69586 0
M  V30 342 N 33.9963 -1.19345 1.0293 0
M  V30 343 C 35.4073 -1.70725 0.755633 0
M  V30 344 C 35.7583 -1.82326 -0.724676 0
M  V30 345 O 34.8833 -1.49471 -1.56484 0
M  V30 346 C 35.4783 -3.10084 1.36503 0
M  V30 347 C 34.0373 -3.58723 1.13994 0
M  V30 348 C 33.1843 -2.35577 1.46283 0
M  V30 349 H 36.1353 -1.0418 1.19718 0
M  V30 350 H 36.1563 -3.72787 0.762217 0
M  V30 351 H 35.6683 -3.01609 2.44241 0
M  V30 352 H 33.7693 -3.72512 0.0807901 0
M  V30 353 H 33.8823 -4.42816 1.82894 0
M  V30 354 H 32.2463 -2.38935 0.88217 0
M  V30 355 H 33.0293 -2.29731 2.55105 0
M  V30 356 N 35.4744 -0.807222 -1.35358 0
M  V30 357 C 36.4214 -0.216037 -2.29787 0
M  V30 358 C 37.3914 0.650278 -1.52842 0
M  V30 359 O 38.5764 0.595227 -1.81278 0
M  V30 360 C 35.7164 0.628893 -3.39321 0
M  V30 361 C 34.8294 -0.257927 -4.31229 0
M  V30 362 C 33.9644 0.595069 -5.27856 0
M  V30 363 C 33.0034 -0.292111 -6.11403 0
M  V30 364 N 32.1404 0.520895 -7.00165 0
M  V30 365 H 36.9804 -1.02671 -2.79755 0
M  V30 366 H 34.5174 -0.517839 -1.37684 0
M  V30 367 H 36.4754 1.13393 -4.01494 0
M  V30 368 H 35.1054 1.40482 -2.90628 0
M  V30 369 H 34.1574 -0.881076 -3.70056 0
M  V30 370 H 35.4694 -0.940759 -4.89848 0
M  V30 371 H 34.6234 1.16522 -5.95405 0
M  V30 372 H 33.3624 1.31146 -4.69736 0
M  V30 373 H 32.3674 -0.874525 -5.428 0
M  V30 374 H 33.5924 -1.00638 -6.71602 0
M  V30 375 H 31.5384 1.22125 -6.44532 0
M  V30 376 H 31.4554 -0.103877 -7.55929 0
M  V30 377 H 32.7234 1.0743 -7.72062 0
M  V30 378 N 36.9525 1.47285 -0.560781 0
M  V30 379 C 38.1775 2.07359 -0.0410566 0
M  V30 380 C 38.6025 1.41017 1.24483 0
M  V30 381 O 37.9605 0.486368 1.74654 0
M  V30 382 C 38.0085 3.6035 0.134123 0
M  V30 383 O 37.1125 3.94681 1.19587 0
M  V30 384 H 36.4535 0.661887 -0.0529291 0
M  V30 385 H 38.9835 1.89252 -0.777482 0
M  V30 386 H 38.9935 4.0652 0.347207 0
M  V30 387 H 37.6685 4.08034 -0.805047 0
M  V30 388 H 36.2455 3.60251 0.962987 0
M  V30 389 N 38.4306 0.297415 1.54768 0
M  V30 390 C 39.3936 -0.567375 2.22066 0
M  V30 391 C 40.3936 -1.06409 1.20556 0
M  V30 392 O 41.5836 -0.960691 1.45315 0
M  V30 393 C 38.7156 -1.78517 2.90421 0
M  V30 394 H 39.9086 0.0205534 2.99893 0
M  V30 395 H 37.4616 0.0482163 1.56226 0
M  V30 396 H 38.1966 -2.41303 2.16664 0
M  V30 397 H 37.9816 -1.43669 3.64831 0
M  V30 398 H 39.4716 -2.39964 3.41771 0
M  V30 399 N 39.9087 -1.5758 0.0250728 0
M  V30 400 C 40.8717 -2.08896 -0.943139 0
M  V30 401 C 41.8717 -1.00321 -1.25668 0
M  V30 402 O 43.0617 -1.26495 -1.19769 0
M  V30 403 C 40.1937 -2.55143 -2.26086 0
M  V30 404 H 41.3867 -2.95723 -0.498775 0
M  V30 405 H 38.9397 -1.54703 -0.222888 0
M  V30 406 H 39.6747 -1.71633 -2.75159 0
M  V30 407 H 39.4597 -3.34461 -2.04641 0
M  V30 408 H 40.9497 -2.95083 -2.95492 0
M  V30 409 N 41.3868 0.248026 -1.55636 0
M  V30 410 C 42.3188 1.32993 -1.8667 0
M  V30 411 C 43.3318 1.44345 -0.752877 0
M  V30 412 O 44.5208 1.45715 -1.03098 0
M  V30 413 C 41.6208 2.70863 -2.03682 0
M  V30 414 C 40.7938 2.81792 -3.34532 0
M  V30 415 C 39.8528 4.005 -3.41301 0
M  V30 416 O 38.8788 3.9008 -4.14519 0
M  V30 417 N 40.0808 5.13618 -2.70512 0
M  V30 418 H 42.8458 1.06707 -2.8006 0
M  V30 419 H 40.4068 0.438129 -1.55859 0
M  V30 420 H 42.3988 3.48612 -2.05553 0
M  V30 421 H 40.9688 2.89862 -1.17041 0
M  V30 422 H 40.1888 1.90729 -3.44987 0
M  V30 423 H 41.4768 2.86043 -4.20781 0
M  V30 424 H 40.8748 5.24975 -2.10755 0
M  V30 425 H 39.4318 5.89505 -2.78077 0
M  V30 426 N 42.8649 1.48995 0.513639 0
M  V30 427 C 43.8129 1.65199 1.63744 0
M  V30 428 C 44.8069 0.51809 1.61283 0
M  V30 429 O 46.0129 0.697335 1.65943 0
M  V30 430 H 42.3879 0.52069 0.542574 0
M  V30 431 H 44.3589 2.59552 1.47226 0
M  V30 432 C 43.1079 1.72409 3.01945 0
M  V30 433 H 42.4309 2.59029 3.04539 0
M  V30 434 H 43.8709 1.87785 3.80148 0
M  V30 435 C 42.3299 0.46618 3.33659 0
M  V30 436 O 42.8599 -0.413744 3.99564 0
M  V30 437 N 41.0659 0.332931 2.88687 0
M  V30 438 H 40.6129 1.04996 2.35231 0
M  V30 439 H 40.5709 -0.507665 3.10274 0
M  V30 440 N 44.343 -0.763751 1.37857 0
M  V30 441 C 45.568 -1.55805 1.36893 0
M  V30 442 C 45.993 -1.88054 -0.0416135 0
M  V30 443 O 45.351 -1.49825 -1.02089 0
M  V30 444 C 45.399 -2.84012 2.22192 0
M  V30 445 O 44.503 -3.78732 1.63204 0
M  V30 446 H 43.844 -0.471638 0.46739 0
M  V30 447 H 46.374 -0.944657 1.81487 0
M  V30 448 H 46.384 -3.33037 2.35691 0
M  V30 449 H 45.059 -2.59869 3.24716 0
M  V30 450 H 43.636 -3.37402 1.58791 0
M  V30 451 N 45.8211 -1.22559 -0.990812 0
M  V30 452 C 46.7681 -0.997519 -2.0813 0
M  V30 453 C 47.7381 0.0814702 -1.659 0
M  V30 454 O 48.9231 -0.0685424 -1.90677 0
M  V30 455 C 46.0631 -0.583615 -3.40129 0
M  V30 456 C 45.1761 -1.7336 -3.9569 0
M  V30 457 C 44.3111 -1.26748 -5.15857 0
M  V30 458 C 43.3501 -2.38888 -5.63559 0
M  V30 459 N 42.4871 -1.93308 -6.74964 0
M  V30 460 H 47.3271 -1.93099 -2.26973 0
M  V30 461 H 44.8641 -0.962114 -1.11273 0
M  V30 462 H 46.8221 -0.324801 -4.15934 0
M  V30 463 H 45.4521 0.312845 -3.2128 0
M  V30 464 H 44.5041 -2.10669 -3.16738 0
M  V30 465 H 45.8161 -2.57704 -4.27071 0
M  V30 466 H 44.9701 -0.966173 -5.98957 0
M  V30 467 H 43.7091 -0.394272 -4.86104 0
M  V30 468 H 42.7141 -2.69805 -4.79046 0
M  V30 469 H 43.9391 -3.26728 -5.95336 0
M  V30 470 H 41.8851 -1.08352 -6.4699 0
M  V30 471 H 41.8021 -2.71217 -7.05675 0
M  V30 472 H 43.0701 -1.66252 -7.61564 0
M  V30 473 N 47.2992 1.18797 -1.03562 0
M  V30 474 C 48.7102 1.70322 -0.764676 0
M  V30 475 C 49.0612 1.82708 0.714996 0
M  V30 476 O 48.1862 1.50299 1.55689 0
M  V30 477 C 48.7812 3.09356 -1.38145 0
M  V30 478 C 47.3402 3.58114 -1.15895 0
M  V30 479 C 46.4872 2.34798 -1.4753 0
M  V30 480 H 49.4382 1.03543 -1.20268 0
M  V30 481 H 49.4592 3.72378 -0.781977 0
M  V30 482 H 48.9712 3.00309 -2.45837 0
M  V30 483 H 47.0722 3.72464 -0.100544 0
M  V30 484 H 47.1852 4.4184 -1.8524 0
M  V30 485 H 45.5492 2.38464 -0.894829 0
M  V30 486 H 46.3322 2.28375 -2.56319 0
M  V30 487 N 48.7773 0.814389 1.34928 0
M  V30 488 C 50.1933 0.499084 1.51596 0
M  V30 489 C 50.3933 -0.978319 1.76157 0
M  V30 490 O 49.4493 -1.76309 1.80752 0
M  V30 491 C 50.7623 1.35121 2.68631 0
M  V30 492 C 52.3103 1.34746 2.82511 0
M  V30 493 C 52.7853 2.18388 4.0258 0
M  V30 494 N 54.2763 2.15966 4.09772 0
M  V30 495 C 55.0113 2.77437 5.01813 0
M  V30 496 N 54.5073 3.47866 5.99134 0
M  V30 497 N 56.3003 2.67037 4.94619 0
M  V30 498 H 48.4513 1.7711 1.17243 0
M  V30 499 H 50.7143 0.754256 0.574284 0
M  V30 500 H 50.4203 2.40001 2.57085 0
M  V30 501 H 50.2943 1.00991 3.63429 0
M  V30 502 H 52.6813 0.30648 2.93504 0
M  V30 503 H 52.7623 1.72869 1.88547 0
M  V30 504 H 52.4063 3.2253 3.92347 0
M  V30 505 H 52.3363 1.77621 4.9574 0
M  V30 506 H 54.8273 1.64729 3.40107 0
M  V30 507 H 55.1403 3.92038 6.65977 0
M  V30 508 H 53.4853 3.51972 5.99284 0
M  V30 509 H 56.6763 2.11597 4.17546 0
M  V30 510 H 56.8493 3.15232 5.66156 0
M  V30 511 N 50.2554 -1.46986 0.568584 0
M  V30 512 C 51.1854 -2.32946 -0.160753 0
M  V30 513 C 52.1664 -1.44487 -0.897631 0
M  V30 514 O 53.3514 -1.73327 -0.875867 0
M  V30 515 C 50.4814 -3.26494 -1.18403 0
M  V30 516 C 49.4354 -4.24282 -0.562895 0
M  V30 517 C 48.7614 -5.07236 -1.69163 0
M  V30 518 C 50.0614 -5.19989 0.490761 0
M  V30 519 H 51.7554 -2.94175 0.556916 0
M  V30 520 H 49.3014 -1.4146 0.26927 0
M  V30 521 H 51.2544 -3.85477 -1.70251 0
M  V30 522 H 49.9784 -2.63343 -1.93179 0
M  V30 523 H 48.6374 -3.66541 -0.0656164 0
M  V30 524 H 48.2854 -4.4048 -2.42871 0
M  V30 525 H 47.9854 -5.7345 -1.28174 0
M  V30 526 H 49.5094 -5.6908 -2.21314 0
M  V30 527 H 50.9234 -5.73271 0.0579047 0
M  V30 528 H 49.3204 -5.94469 0.820165 0
M  V30 529 H 50.3904 -4.64777 1.3824 0
M  V30 530 N 51.7335 -0.305618 -1.54608 0
M  V30 531 C 52.9585 0.307562 -2.05107 0
M  V30 532 C 53.3835 1.46385 -1.18123 0
M  V30 533 O 52.7415 1.8034 -0.186324 0
M  V30 534 C 52.7895 0.73704 -3.52987 0
M  V30 535 O 51.8935 1.84134 -3.6901 0
M  V30 536 H 51.2345 0.0589143 -0.661381 0
M  V30 537 H 53.7645 -0.448807 -1.99617 0
M  V30 538 H 53.7745 1.02459 -3.94925 0
M  V30 539 H 52.4495 -0.108773 -4.15758 0
M  V30 540 H 51.0265 1.55398 -3.38978 0
M  V30 541 N 53.2116 1.57565 -0.0334293 0
M  V30 542 C 54.4586 1.91978 0.644272 0
M  V30 543 C 54.7866 0.910231 1.71887 0
M  V30 544 O 54.0416 -0.0801961 1.95536 0
M  V30 545 C 54.3406 3.33112 1.29504 0
M  V30 546 C 54.0066 4.49537 0.350388 0
M  V30 547 C 52.6686 4.81115 0.0903974 0
M  V30 548 C 55.0206 5.20347 -0.298032 0
M  V30 549 C 52.3486 5.8086 -0.825746 0
M  V30 550 C 54.7006 6.2107 -1.20226 0
M  V30 551 C 53.3646 6.51088 -1.4711 0
M  V30 552 H 52.6346 0.702496 0.235756 0
M  V30 553 H 55.2816 1.91259 -0.0961176 0
M  V30 554 H 53.5866 3.30113 2.11028 0
M  V30 555 H 55.2836 3.57011 1.82603 0
M  V30 556 H 51.8736 4.24883 0.563205 0
M  V30 557 H 56.0576 4.96178 -0.110234 0
M  V30 558 H 51.3136 6.02461 -1.04169 0
M  V30 559 H 55.4876 6.75057 -1.71086 0
M  V30 560 H 53.1146 7.28193 -2.18264 0
M  V30 561 N 54.6897 -0.239769 1.55765 0
M  V30 562 C 55.9147 -0.988373 1.82335 0
M  V30 563 C 56.3397 -1.77886 0.611421 0
M  V30 564 O 55.6977 -1.75889 -0.439639 0
M  V30 565 C 55.7457 -1.89627 3.06715 0
M  V30 566 O 54.8497 -2.98904 2.84131 0
M  V30 567 H 54.1907 -0.280858 0.601677 0
M  V30 568 H 56.7207 -0.258597 2.02959 0
M  V30 569 H 56.7307 -2.30957 3.36338 0
M  V30 570 H 55.4057 -1.31511 3.9456 0
M  V30 571 H 53.9827 -2.61651 2.65694 0
M  V30 572 N 56.1678 -1.49265 -0.50573 0
M  V30 573 C 57.3958 -1.62215 -1.28429 0
M  V30 574 C 57.8108 -0.291697 -1.86533 0
M  V30 575 O 57.1678 0.722233 -1.67601 0
M  V30 576 C 57.2188 -2.68735 -2.41793 0
M  V30 577 O 56.9398 -3.96619 -1.86078 0
M  V30 578 C 58.4408 -2.92346 -3.3324 0
M  V30 579 H 55.6608 -0.546239 -0.389697 0
M  V30 580 H 58.2048 -1.95265 -0.607609 0
M  V30 581 H 56.3598 -2.38476 -3.053 0
M  V30 582 H 56.7738 -4.55256 -2.60465 0
M  V30 583 H 58.2478 -3.70623 -4.09075 0
M  V30 584 H 58.7248 -2.02081 -3.89948 0
M  V30 585 H 59.3308 -3.24003 -2.75503 0
M  V30 586 N 57.6459 0.756429 -1.3826 0
M  V30 587 C 58.5929 1.87011 -1.35261 0
M  V30 588 C 59.5629 1.64695 -0.215616 0
M  V30 589 O 60.7479 1.864 -0.407399 0
M  V30 590 C 57.8879 3.24275 -1.18068 0
M  V30 591 C 57.0009 3.58442 -2.41129 0
M  V30 592 C 56.1359 4.84994 -2.16689 0
M  V30 593 C 55.1749 5.11939 -3.35537 0
M  V30 594 N 54.3119 6.29685 -3.10549 0
M  V30 595 H 59.1519 1.8891 -2.30472 0
M  V30 596 H 56.6889 0.923373 -1.14509 0
M  V30 597 H 58.6469 4.03479 -1.06116 0
M  V30 598 H 57.2769 3.21711 -0.264973 0
M  V30 599 H 56.3289 2.74103 -2.63764 0
M  V30 600 H 57.6409 3.74283 -3.29717 0
M  V30 601 H 56.7949 5.72135 -2.01857 0
M  V30 602 H 55.5339 4.71286 -1.25462 0
M  V30 603 H 54.5389 4.23268 -3.50891 0
M  V30 604 H 55.7639 5.27546 -4.27635 0
M  V30 605 H 53.7099 6.17306 -2.21967 0
M  V30 606 H 53.6269 6.46014 -3.92686 0
M  V30 607 H 54.8949 7.19722 -2.99367 0
M  V30 608 N 59.124 1.23083 0.984299 0
M  V30 609 C 60.535 1.05609 1.5396 0
M  V30 610 C 60.886 -0.377793 1.92528 0
M  V30 611 O 60.011 -1.26398 1.75649 0
M  V30 612 C 60.606 1.91087 2.7977 0
M  V30 613 C 59.165 1.77885 3.31713 0
M  V30 614 C 58.312 1.87028 2.04733 0
M  V30 615 H 61.263 1.36802 0.804419 0
M  V30 616 H 61.284 1.43336 3.5247 0
M  V30 617 H 60.796 2.9544 2.51668 0
M  V30 618 H 58.897 0.762995 3.64704 0
M  V30 619 H 59.01 2.61047 4.01735 0
M  V30 620 H 57.374 1.30565 2.18689 0
M  V30 621 H 58.157 2.92929 1.79017 0
M  V30 622 N 60.6021 -1.18246 1.0419 0
M  V30 623 C 61.8301 -1.92195 0.766072 0
M  V30 624 C 62.2451 -1.76247 -0.676933 0
M  V30 625 O 61.6021 -1.09293 -1.46155 0
M  V30 626 C 61.6531 -3.43568 1.12442 0
M  V30 627 O 61.3741 -3.59015 2.51078 0
M  V30 628 C 62.8751 -4.34613 0.873275 0
M  V30 629 H 60.0951 -0.610114 0.279288 0
M  V30 630 H 62.6391 -1.50007 1.38989 0
M  V30 631 H 60.7941 -3.8354 0.545542 0
M  V30 632 H 61.2081 -4.5273 2.64831 0
M  V30 633 H 62.6821 -5.39374 1.17385 0
M  V30 634 H 63.1591 -4.38781 -0.191909 0
M  V30 635 H 63.7651 -4.00341 1.43551 0
M  V30 636 N 62.0802 -0.821533 -1.34494 0
M  V30 637 C 63.3262 -0.409552 -1.98622 0
M  V30 638 C 63.6592 1.0244 -1.64984 0
M  V30 639 O 62.9342 1.71325 -0.920758 0
M  V30 640 C 63.2172 -0.610458 -3.54888 0
M  V30 641 C 63.0702 -2.09043 -3.98273 0
M  V30 642 C 64.3892 -0.0455379 -4.40076 0
M  V30 643 H 61.5082 -0.15028 -0.721516 0
M  V30 644 H 64.1502 -1.03384 -1.59411 0
M  V30 645 H 62.3002 -0.079044 -3.8842 0
M  V30 646 H 63.9722 -2.68537 -3.75081 0
M  V30 647 H 62.2152 -2.58139 -3.48635 0
M  V30 648 H 62.8862 -2.18182 -5.07051 0
M  V30 649 H 65.3622 -0.499557 -4.1309 0
M  V30 650 H 64.2382 -0.215922 -5.48475 0
M  V30 651 H 64.4992 1.04939 -4.29465 0
M  V30 652 N 63.5583 1.46682 -0.576371 0
M  V30 653 C 64.4883 2.33028 0.148397 0
M  V30 654 C 65.4693 1.44961 0.889956 0
M  V30 655 O 66.6543 1.73789 0.866662 0
M  V30 656 C 63.7843 3.27117 1.1667 0
M  V30 657 C 62.7383 4.24575 0.540386 0
M  V30 658 C 62.0643 5.08126 1.6647 0
M  V30 659 C 63.3643 5.19722 -0.518331 0
M  V30 660 H 65.0583 2.93875 -0.572509 0
M  V30 661 H 62.6043 1.41315 -0.276768 0
M  V30 662 H 64.5573 3.86374 1.68204 0
M  V30 663 H 63.2813 2.64364 1.9178 0
M  V30 664 H 61.9403 3.66571 0.0461769 0
M  V30 665 H 61.5883 4.41762 2.40531 0
M  V30 666 H 61.2883 5.74122 1.25131 0
M  V30 667 H 62.8123 5.70246 2.18293 0
M  V30 668 H 64.2263 5.73232 -0.0883058 0
M  V30 669 H 62.6233 5.94026 -0.851679 0
M  V30 670 H 63.6933 4.64037 -1.40703 0
M  V30 671 N 65.0364 0.313813 1.54444 0
M  V30 672 C 65.9994 -0.54379 2.22656 0
M  V30 673 C 66.9994 -1.05124 1.21678 0
M  V30 674 O 68.1894 -0.945225 1.46325 0
M  V30 675 C 65.3214 -1.75427 2.92298 0
M  V30 676 H 66.5144 0.0523599 2.99854 0
M  V30 677 H 64.0674 0.0647834 1.56166 0
M  V30 678 H 64.8024 -2.38991 2.19211 0
M  V30 679 H 64.5874 -1.39791 3.66334 0
M  V30 680 H 66.0774 -2.36325 3.44297 0
M  V30 681 N 66.5145 -1.57545 0.0417849 0
M  V30 682 C 67.7395 -1.97035 -0.647455 0
M  V30 683 C 68.1645 -0.918775 -1.64135 0
M  V30 684 O 67.5225 0.119006 -1.80909 0
M  V30 685 C 67.5705 -3.35609 -1.31905 0
M  V30 686 O 66.6745 -3.3287 -2.43457 0
M  V30 687 H 66.0155 -0.64211 -0.169086 0
M  V30 688 H 68.5455 -2.04318 0.107399 0
M  V30 689 H 68.5555 -3.72126 -1.67291 0
M  V30 690 H 67.2305 -4.11685 -0.590586 0
M  V30 691 H 65.8075 -3.08087 -2.10088 0
M  V30 692 N 67.9926 0.231505 -1.5589 0
M  V30 693 C 69.4086 0.580748 -1.48659 0
M  V30 694 C 69.6086 1.87617 -0.73498 0
M  V30 695 O 68.6646 2.51046 -0.270586 0
M  V30 696 C 69.9776 0.669202 -2.93159 0
M  V30 697 C 71.5256 0.760499 -3.03621 0
M  V30 698 C 72.0006 0.880383 -4.49459 0
M  V30 699 N 73.4916 0.944861 -4.53461 0
M  V30 700 C 74.2266 1.05716 -5.63571 0
M  V30 701 N 73.7226 1.13403 -6.83456 0
M  V30 702 N 75.5156 1.09152 -5.514 0
M  V30 703 H 67.6666 -0.618695 -2.03189 0
M  V30 704 H 69.9296 -0.215728 -0.923128 0
M  V30 705 H 69.6356 -0.212904 -3.51055 0
M  V30 706 H 69.5096 1.5361 -3.44505 0
M  V30 707 H 71.8966 1.63305 -2.45796 0
M  V30 708 H 71.9776 -0.131864 -2.5546 0
M  V30 709 H 71.6216 0.0123284 -5.07899 0
M  V30 710 H 71.5516 1.78802 -4.95316 0
M  V30 711 H 74.0426 0.896176 -3.6712 0
M  V30 712 H 74.3556 1.21921 -7.63122 0
M  V30 713 H 72.7006 1.10333 -6.86186 0
M  V30 714 H 75.8916 1.02805 -4.56671 0
M  V30 715 H 76.0646 1.17558 -6.37247 0
M  V30 716 N 69.4707 1.49531 0.497807 0
M  V30 717 C 70.7167 1.59415 1.25358 0
M  V30 718 C 71.0497 0.281422 1.9215 0
M  V30 719 O 70.3247 -0.715249 1.80871 0
M  V30 720 C 70.6077 2.75566 2.3181 0
M  V30 721 C 70.4607 4.16642 1.69498 0
M  V30 722 C 71.7797 2.87347 3.33346 0
M  V30 723 H 68.8987 0.580244 0.454408 0
M  V30 724 H 71.5407 1.81827 0.551262 0
M  V30 725 H 69.6907 2.56587 2.91711 0
M  V30 726 H 71.3627 4.47145 1.13399 0
M  V30 727 H 69.6057 4.22141 0.998978 0
M  V30 728 H 70.2767 4.93792 2.46725 0
M  V30 729 H 72.7527 3.04634 2.83438 0
M  V30 730 H 71.6287 3.70289 4.05188 0
M  V30 731 H 71.8897 1.96834 3.95865 0
M  V30 732 N 70.9488 -0.749086 1.3866 0
M  V30 733 C 71.8588 -1.89358 1.38494 0
M  V30 734 C 72.8748 -1.71708 0.281476 0
M  V30 735 O 74.0508 -1.94554 0.520643 0
M  V30 736 C 71.1158 -3.24782 1.21316 0
M  V30 737 C 70.1768 -3.54926 2.41508 0
M  V30 738 C 69.4098 -4.83888 2.2514 0
M  V30 739 O 69.6328 -5.56592 1.24746 0
M  V30 740 O 68.5668 -5.13612 3.13826 0
M  V30 741 H 72.3928 -1.92452 2.34938 0
M  V30 742 H 69.9778 -0.894981 1.19626 0
M  V30 743 H 71.8598 -4.05739 1.13814 0
M  V30 744 H 70.5348 -3.2249 0.279592 0
M  V30 745 H 69.4418 -2.74112 2.54585 0
M  V30 746 H 70.7748 -3.61983 3.3351 0
M  V30 747 N 72.4269 -1.23603 -0.977757 0
M  V30 748 C 73.6519 -1.09735 -1.75991 0
M  V30 749 C 74.0769 0.346858 -1.84874 0
M  V30 750 O 73.4349 1.25093 -1.3123 0
M  V30 751 C 73.4829 -1.73051 -3.16363 0
M  V30 752 O 72.5869 -0.994452 -4.0023 0
M  V30 753 H 71.9279 -0.384476 -0.541364 0
M  V30 754 H 74.4579 -1.6371 -1.2272 0
M  V30 755 H 74.4679 -1.78398 -3.66931 0
M  V30 756 H 73.1429 -2.78137 -3.09213 0
M  V30 757 H 71.7199 -1.01812 -3.58732 0
M  V30 758 N 73.905 1.17692 -1.04816 0
M  V30 759 C 75.182 1.83768 -0.669963 0
M  V30 760 C 75.562 1.93232 0.849986 0
M  V30 761 O 74.91 1.46397 1.75443 0
M  V30 762 C 75.12 3.21641 -1.35455 0
M  V30 763 C 76.468 3.97592 -1.49017 0
M  V30 764 O 77.492 3.31107 -1.31326 0
M  V30 765 O 76.351 5.16729 -1.77914 0
M  V30 766 H 73.445 0.792799 -0.235368 0
M  V30 767 H 75.991 1.25021 -1.14751 0
M  V30 768 H 74.763 3.097 -2.39168 0
M  V30 769 H 74.386 3.88052 -0.866107 0
M  V30 770 N 75.3831 0.828654 1.34056 0
M  V30 771 C 76.6111 0.43262 2.02326 0
M  V30 772 C 77.0261 -0.963147 1.62385 0
M  V30 773 O 76.3831 -1.62425 0.832121 0
M  V30 774 C 76.4341 0.53182 3.57567 0
M  V30 775 O 76.1551 1.87258 3.96063 0
M  V30 776 C 77.6561 0.131422 4.43105 0
M  V30 777 H 74.8761 0.172923 0.648335 0
M  V30 778 H 77.4201 1.1184 1.71208 0
M  V30 779 H 75.5751 -0.105938 3.87255 0
M  V30 780 H 75.9891 1.85087 4.90758 0
M  V30 781 H 77.4631 0.251904 5.51425 0
M  V30 782 H 77.9401 -0.925645 4.29335 0
M  V30 783 H 78.5461 0.743207 4.18756 0
M  V30 784 N 76.8612 -1.46375 0.584142 0
M  V30 785 C 78.0892 -2.06761 0.0759296 0
M  V30 786 C 78.5042 -1.43266 -1.22965 0
M  V30 787 O 77.8612 -0.538458 -1.74376 0
M  V30 788 C 77.9122 -3.61375 -0.0950384 0
M  V30 789 O 77.6332 -4.22495 1.15887 0
M  V30 790 C 79.1342 -4.38693 -0.637434 0
M  V30 791 H 76.3542 -0.668479 0.0581075 0
M  V30 792 H 78.8982 -1.8798 0.805218 0
M  V30 793 H 77.0532 -3.79578 -0.774554 0
M  V30 794 H 77.4672 -5.15385 0.973598 0
M  V30 795 H 78.9412 -5.47464 -0.706237 0
M  V30 796 H 79.4182 -4.06836 -1.65472 0
M  V30 797 H 80.0242 -4.25299 0.00725967 0
M  V30 798 N 78.3393 -0.321999 -1.54275 0
M  V30 799 C 79.5883 0.281931 -1.9972 0
M  V30 800 C 79.9013 1.53369 -1.21397 0
M  V30 801 O 81.1073 2.21352 -1.57211 0
M  V30 802 C 79.5633 0.5529 -3.55628 0
M  V30 803 C 79.1713 -0.681721 -4.42783 0
M  V30 804 C 80.9153 1.11687 -4.09544 0
M  V30 805 C 78.8223 -0.382742 -5.9016 0
M  V30 806 H 77.7523 0.109124 -0.746062 0
M  V30 807 H 80.4033 -0.43398 -1.78294 0
M  V30 808 H 78.7853 1.32896 -3.73035 0
M  V30 809 H 79.9593 -1.45723 -4.37151 0
M  V30 810 H 78.2743 -1.1658 -3.99748 0
M  V30 811 H 80.8713 1.35515 -5.17242 0
M  V30 812 H 81.2143 2.06575 -3.61431 0
M  V30 813 H 81.7473 0.402032 -3.95763 0
M  V30 814 H 78.4863 -1.30076 -6.42464 0
M  V30 815 H 78.0063 0.355094 -5.98748 0
M  V30 816 H 79.6853 0.00800157 -6.47 0
M  V30 817 N 79.8174 1.5752 -0.0501392 0
M  V30 818 C 80.7654 2.12651 0.942459 0
M  V30 819 C 81.7594 1.05807 1.32292 0
M  V30 820 O 82.9654 1.24217 1.3027 0
M  V30 821 H 79.3404 0.679673 0.321789 0
M  V30 822 H 81.3114 2.94951 0.452356 0
M  V30 823 C 80.0604 2.68565 2.20836 0
M  V30 824 H 79.3834 3.50439 1.92439 0
M  V30 825 H 80.8234 3.10761 2.8845 0
M  V30 826 C 79.2824 1.62291 2.95234 0
M  V30 827 O 79.8124 1.03508 3.88135 0
M  V30 828 N 78.0184 1.33836 2.57946 0
M  V30 829 H 77.5654 1.81826 1.82475 0
M  V30 830 H 77.5234 0.629595 3.08032 0
M  V30 831 N 81.2955 -0.223234 1.56011 0
M  V30 832 C 82.5415 -0.949279 1.79211 0
M  V30 833 C 82.8745 -1.84054 0.619494 0
M  V30 834 O 82.1495 -1.90726 -0.381317 0
M  V30 835 C 82.4325 -1.78965 3.12479 0
M  V30 836 C 82.2855 -0.924997 4.40186 0
M  V30 837 C 83.6045 -2.76774 3.42175 0
M  V30 838 H 80.7235 -0.343676 0.651963 0
M  V30 839 H 83.3655 -0.218253 1.88742 0
M  V30 840 H 81.5155 -2.41291 3.04485 0
M  V30 841 H 83.1875 -0.318615 4.60198 0
M  V30 842 H 81.4305 -0.230344 4.33188 0
M  V30 843 H 82.1015 -1.54735 5.29869 0
M  V30 844 H 84.5775 -2.24584 3.50287 0
M  V30 845 H 83.4535 -3.32678 4.36597 0
M  V30 846 H 83.7145 -3.54429 2.64258 0
M  V30 847 N 82.7736 -1.49793 -0.48987 0
M  V30 848 C 83.7066 -1.61898 -1.60823 0
M  V30 849 C 84.6846 -0.467651 -1.5573 0
M  V30 850 O 85.8686 -0.684682 -1.75626 0
M  V30 851 C 82.9956 -1.58422 -2.99366 0
M  V30 852 C 82.0416 -2.78889 -3.22682 0
M  V30 853 S 82.8746 -4.40429 -3.04602 0
M  V30 854 C 84.0306 -4.39617 -4.4552 0
M  V30 855 H 84.2636 -2.56502 -1.50312 0
M  V30 856 H 81.7966 -1.38822 -0.675849 0
M  V30 857 H 83.7546 -1.57103 -3.79248 0
M  V30 858 H 82.4156 -0.650866 -3.07283 0
M  V30 859 H 81.6086 -2.72708 -4.23847 0
M  V30 860 H 81.2106 -2.77678 -2.50541 0
M  V30 861 H 83.5026 -4.12022 -5.37814 0
M  V30 862 H 84.4456 -5.41097 -4.56749 0
M  V30 863 H 84.8536 -3.69554 -4.2672 0
M  V30 864 N 84.2517 0.741722 -1.39055 0
M  V30 865 C 85.1987 1.85566 -1.37237 0
M  V30 866 C 86.1687 1.64457 -0.233072 0
M  V30 867 O 87.3537 1.85957 -0.427147 0
M  V30 868 C 84.4937 3.23004 -1.215 0
M  V30 869 C 83.6067 3.55864 -2.44918 0
M  V30 870 C 82.7417 4.82669 -2.21821 0
M  V30 871 C 81.7807 5.08351 -3.40948 0
M  V30 872 N 80.9177 6.26356 -3.17211 0
M  V30 873 H 85.7577 1.86455 -2.32462 0
M  V30 874 H 83.2947 0.911176 -1.15482 0
M  V30 875 H 85.2527 4.02331 -1.10389 0
M  V30 876 H 83.8827 3.21411 -0.29908 0
M  V30 877 H 82.9347 2.7129 -2.66657 0
M  V30 878 H 84.2467 3.70765 -3.33668 0
M  V30 879 H 83.4007 5.69962 -2.07914 0
M  V30 880 H 82.1397 4.69929 -1.30454 0
M  V30 881 H 81.1447 4.19522 -3.55361 0
M  V30 882 H 82.3697 5.22981 -4.33207 0
M  V30 883 H 80.3157 6.14917 -2.28502 0
M  V30 884 H 80.2327 6.41813 -3.99515 0
M  V30 885 H 81.5007 7.16506 -3.06984 0
M  V30 886 N 85.7298 1.2412 0.971189 0
M  V30 887 C 86.9758 1.09048 1.71698 0
M  V30 888 C 87.3308 -0.367442 1.88859 0
M  V30 889 O 86.6238 -1.26792 1.43646 0
M  V30 890 C 86.8178 1.75983 3.11071 0
M  V30 891 C 86.6468 3.28133 3.07504 0
M  V30 892 C 85.4168 3.97331 3.1218 0
M  V30 893 C 87.6148 4.24773 2.89952 0
M  V30 894 N 85.5968 5.3639 2.98596 0
M  V30 895 C 86.9678 5.50806 2.84627 0
M  V30 896 C 89.0228 4.15392 2.74506 0
M  V30 897 C 87.7258 6.68533 2.65437 0
M  V30 898 C 89.7518 5.32793 2.56682 0
M  V30 899 C 89.1138 6.57756 2.52063 0
M  V30 900 H 85.2128 0.453632 0.636979 0
M  V30 901 H 87.7968 1.56983 1.15171 0
M  V30 902 H 85.9678 1.30566 3.65796 0
M  V30 903 H 87.6998 1.53803 3.74335 0
M  V30 904 H 84.4548 3.48473 3.20724 0
M  V30 905 H 84.8788 6.09321 2.95054 0
M  V30 906 H 89.5208 3.19543 2.76861 0
M  V30 907 H 87.2388 7.64509 2.61825 0
M  V30 908 H 90.8248 5.27383 2.4568 0
M  V30 909 H 89.7048 7.4707 2.38446 0
M  V30 910 N 87.2079 -1.17134 1.05439 0
M  V30 911 C 88.1549 -2.21235 0.657539 0
M  V30 912 C 89.1249 -1.62551 -0.341543 0
M  V30 913 O 90.3099 -1.89379 -0.232393 0
M  V30 914 C 87.4499 -3.45076 0.0410575 0
M  V30 915 C 86.5629 -4.18042 1.08927 0
M  V30 916 C 85.6979 -5.29376 0.439848 0
M  V30 917 C 84.7369 -5.94132 1.4722 0
M  V30 918 N 83.8739 -6.96975 0.846756 0
M  V30 919 H 88.7139 -2.54534 1.54972 0
M  V30 920 H 86.2509 -1.25028 0.775006 0
M  V30 921 H 88.2089 -4.15862 -0.33383 0
M  V30 922 H 86.8389 -3.12353 -0.814568 0
M  V30 923 H 85.8909 -3.45945 1.58196 0
M  V30 924 H 87.2029 -4.62306 1.87282 0
M  V30 925 H 86.3569 -6.06699 0.0115125 0
M  V30 926 H 85.0959 -4.86251 -0.375656 0
M  V30 927 H 84.1009 -5.15538 1.91052 0
M  V30 928 H 85.3259 -6.39337 2.28965 0
M  V30 929 H 83.2719 -6.5598 0.0518075 0
M  V30 930 H 83.1889 -7.39565 1.5678 0
M  V30 931 H 84.4569 -7.78239 0.443277 0
M  V30 932 N 88.686 -0.835752 -1.33615 0
M  V30 933 C 89.914 -0.443344 -2.02094 0
M  V30 934 C 90.329 0.954522 -1.62894 0
M  V30 935 O 89.686 1.61982 -0.840723 0
M  V30 936 C 89.737 -0.550775 -3.5728 0
M  V30 937 O 89.458 -1.89356 -3.95065 0
M  V30 938 C 90.959 -0.154919 -4.43029 0
M  V30 939 H 88.179 -0.176359 -0.647409 0
M  V30 940 H 90.723 -1.12746 -1.70612 0
M  V30 941 H 88.878 0.0853997 -3.87306 0
M  V30 942 H 89.292 -1.87687 -4.89769 0
M  V30 943 H 90.766 -0.281144 -5.51284 0
M  V30 944 H 91.243 0.902863 -4.2982 0
M  V30 945 H 91.849 -0.765404 -4.18356 0
M  V30 946 N 90.1641 1.46063 -0.591896 0
M  V30 947 C 91.4101 2.02638 -0.0811191 0
M  V30 948 C 91.7431 1.4613 1.27905 0
M  V30 949 O 91.0181 0.629908 1.84017 0
M  V30 950 C 91.3011 3.60091 -0.0252436 0
M  V30 951 C 91.1541 4.26965 -1.41496 0
M  V30 952 C 92.4731 4.3496 0.670685 0
M  V30 953 H 89.5921 0.73635 -0.0309524 0
M  V30 954 H 92.2341 1.741 -0.760859 0
M  V30 955 H 90.3841 3.84535 0.553624 0
M  V30 956 H 92.0561 4.13756 -2.0397 0
M  V30 957 H 90.2991 3.85971 -1.98011 0
M  V30 958 H 90.9701 5.35781 -1.32825 0
M  V30 959 H 93.4461 4.15716 0.178825 0
M  V30 960 H 92.3221 5.44686 0.678837 0
M  V30 961 H 92.5831 4.06685 1.73379 0
M  V30 962 N 91.6422 0.330177 1.54103 0
M  V30 963 C 92.8672 -0.274893 2.0557 0
M  V30 964 C 93.2922 -1.44487 1.20437 0
M  V30 965 O 92.6502 -1.80021 0.214991 0
M  V30 966 C 92.6982 -0.68079 3.54115 0
M  V30 967 O 91.8022 -1.7824 3.71893 0
M  V30 968 H 91.1432 -0.0483849 0.662235 0
M  V30 969 H 93.6732 0.480508 1.98878 0
M  V30 970 H 93.6832 -0.961635 3.96505 0
M  V30 971 H 92.3582 0.174903 4.15532 0
M  V30 972 H 90.9352 -1.49985 3.41407 0
M  V30 973 N 93.1203 -1.57491 0.0584922 0
M  V30 974 C 94.3483 -1.97296 -0.623037 0
M  V30 975 C 94.7633 -0.936338 -1.63946 0
M  V30 976 O 94.1203 0.0785981 -1.82331 0
M  V30 977 C 94.1713 -3.37183 -1.30345 0
M  V30 978 O 93.8923 -4.36872 -0.32773 0
M  V30 979 C 95.3933 -3.91788 -2.07406 0
M  V30 980 H 92.6133 -0.649153 -0.169826 0
M  V30 981 H 95.1573 -2.04106 0.12696 0
M  V30 982 H 93.3123 -3.31502 -2.00463 0
M  V30 983 H 93.7263 -5.18141 -0.814269 0
M  V30 984 H 95.2003 -4.91926 -2.50425 0
M  V30 985 H 95.6773 -3.27609 -2.92521 0
M  V30 986 H 96.2833 -4.00829 -1.42184 0
M  V30 987 N 94.5984 0.214957 -1.56127 0
M  V30 988 C 95.8474 0.936451 -1.78643 0
M  V30 989 C 96.1604 1.85237 -0.628229 0
M  V30 990 O 97.3664 2.613 -0.737186 0
M  V30 991 C 95.8224 1.7154 -3.16389 0
M  V30 992 C 95.4304 0.845299 -4.39953 0
M  V30 993 C 97.1744 2.42772 -3.48227 0
M  V30 994 C 95.0814 1.62198 -5.68723 0
M  V30 995 H 94.0114 0.353401 -0.666051 0
M  V30 996 H 96.6624 0.190169 -1.82512 0
M  V30 997 H 95.0444 2.50484 -3.06715 0
M  V30 998 H 96.2184 0.0959353 -4.607 0
M  V30 999 H 94.5334 0.244789 -4.1568 0
M  V30 1000 H 97.1304 3.01394 -4.41663 0
M  V30 1001 H 97.4734 3.15984 -2.71035 0
M  V30 1002 H 98.0064 1.70813 -3.5926 0
M  V30 1003 H 94.7454 0.933011 -6.48826 0
M  V30 1004 H 94.2654 2.34579 -5.52026 0
M  V30 1005 H 95.9444 2.18095 -6.09133 0
M  V30 1006 N 96.0765 1.50051 0.48192 0
M  V30 1007 C 97.3235 1.60498 1.23477 0
M  V30 1008 C 97.6515 0.300331 1.92167 0
M  V30 1009 O 96.9065 -0.713094 1.82246 0
M  V30 1010 C 97.2055 2.72717 2.30998 0
M  V30 1011 C 96.8715 4.13572 1.79636 0
M  V30 1012 C 95.5335 4.519 1.65348 0
M  V30 1013 C 97.8855 5.01649 1.41412 0
M  V30 1014 C 95.2135 5.76057 1.11244 0
M  V30 1015 C 97.5655 6.26343 0.887538 0
M  V30 1016 C 96.2295 6.63483 0.731207 0
M  V30 1017 H 95.4995 0.587303 0.451836 0
M  V30 1018 H 98.1465 1.83948 0.532468 0
M  V30 1019 H 96.4515 2.43312 3.07094 0
M  V30 1020 H 98.1485 2.78006 2.88988 0
M  V30 1021 H 94.7385 3.83329 1.91721 0
M  V30 1022 H 98.9225 4.72679 1.51289 0
M  V30 1023 H 94.1785 6.03516 0.978686 0
M  V30 1024 H 98.3525 6.93958 0.582654 0
M  V30 1025 H 95.9795 7.59568 0.309806 0
M  V30 1026 N 97.5546 -0.734337 1.39446 0
M  V30 1027 C 98.4846 -1.86155 1.40955 0
M  V30 1028 C 99.4656 -1.67898 0.272827 0
M  V30 1029 O 100.651 -1.88207 0.478743 0
M  V30 1030 C 97.7806 -3.23912 1.25294 0
M  V30 1031 C 96.7346 -3.56808 2.36373 0
M  V30 1032 C 96.0606 -4.93508 2.058 0
M  V30 1033 C 97.3606 -3.59713 3.78687 0
M  V30 1034 H 99.0546 -1.8515 2.35287 0
M  V30 1035 H 96.6006 -0.889367 1.13253 0
M  V30 1036 H 98.5536 -4.02443 1.2497 0
M  V30 1037 H 97.2776 -3.25446 0.274308 0
M  V30 1038 H 95.9366 -2.80606 2.35914 0
M  V30 1039 H 95.5846 -4.91623 1.06374 0
M  V30 1040 H 95.2846 -5.16486 2.80208 0
M  V30 1041 H 96.8086 -5.74396 2.07128 0
M  V30 1042 H 98.2226 -4.2832 3.81071 0
M  V30 1043 H 96.6196 -3.94209 4.52459 0
M  V30 1044 H 97.6896 -2.59504 4.09617 0
M  V30 1045 N 99.0327 -1.24633 -0.964593 0
M  V30 1046 C 100.279 -1.08949 -1.71049 0
M  V30 1047 C 100.612 0.370302 -1.90637 0
M  V30 1048 O 99.8867 1.27349 -1.47011 0
M  V30 1049 C 100.17 -1.83329 -3.0994 0
M  V30 1050 C 100.023 -3.37077 -2.97824 0
M  V30 1051 C 101.342 -1.60846 -4.09654 0
M  V30 1052 H 98.4607 -0.397178 -0.620821 0
M  V30 1053 H 101.103 -1.5334 -1.12191 0
M  V30 1054 H 99.2527 -1.45597 -3.60186 0
M  V30 1055 H 100.925 -3.84425 -2.5498 0
M  V30 1056 H 99.1677 -3.65298 -2.33965 0
M  V30 1057 H 99.8387 -3.84324 -3.96231 0
M  V30 1058 H 102.315 -1.93674 -3.68279 0
M  V30 1059 H 101.191 -2.1534 -5.04896 0
M  V30 1060 H 101.452 -0.547434 -4.38698 0
M  V30 1061 N 100.511 1.16574 -1.06058 0
M  V30 1062 C 101.757 1.87324 -0.777022 0
M  V30 1063 C 102.09 1.81351 0.694645 0
M  V30 1064 O 101.365 1.22753 1.50871 0
M  V30 1065 C 101.648 3.36991 -1.26922 0
M  V30 1066 C 101.501 3.51667 -2.80447 0
M  V30 1067 C 102.82 4.3131 -0.87521 0
M  V30 1068 H 99.9388 0.680191 -0.28374 0
M  V30 1069 H 102.581 1.37036 -1.3161 0
M  V30 1070 H 100.731 3.79949 -0.81063 0
M  V30 1071 H 102.403 3.17664 -3.34495 0
M  V30 1072 H 100.646 2.93656 -3.19294 0
M  V30 1073 H 101.317 4.56766 -3.0995 0
M  V30 1074 H 103.793 3.9624 -1.27014 0
M  V30 1075 H 102.669 5.34545 -1.2471 0
M  V30 1076 H 102.93 4.41552 0.220071 0
M  V30 1077 N 101.989 0.842826 1.3317 0
M  V30 1078 C 103.235 0.441099 1.97945 0
M  V30 1079 C 103.568 -0.998024 1.66593 0
M  V30 1080 O 102.843 -1.69839 0.947898 0
M  V30 1081 C 103.126 0.666841 3.53872 0
M  V30 1082 C 102.979 2.15352 3.94897 0
M  V30 1083 C 104.298 0.115544 4.39948 0
M  V30 1084 H 101.417 0.161739 0.719034 0
M  V30 1085 H 104.059 1.05907 1.57746 0
M  V30 1086 H 102.209 0.140828 3.88245 0
M  V30 1087 H 103.881 2.7447 3.70761 0
M  V30 1088 H 102.124 2.63653 3.44484 0
M  V30 1089 H 102.795 2.26221 5.03516 0
M  V30 1090 H 105.271 0.565213 4.12243 0
M  V30 1091 H 104.147 0.303152 5.48062 0
M  V30 1092 H 104.408 -0.980935 4.3108 0
M  V30 1093 N 103.467 -1.45747 0.599634 0
M  V30 1094 C 104.397 -2.33235 -0.111306 0
M  V30 1095 C 105.378 -1.46359 -0.866781 0
M  V30 1096 O 106.563 -1.75146 -0.838904 0
M  V30 1097 C 103.693 -3.28932 -1.11451 0
M  V30 1098 C 102.647 -4.25381 -0.472772 0
M  V30 1099 C 101.973 -5.1071 -1.58365 0
M  V30 1100 C 103.273 -5.18831 0.600948 0
M  V30 1101 H 104.967 -2.92927 0.61919 0
M  V30 1102 H 102.513 -1.40857 0.299215 0
M  V30 1103 H 104.466 -3.89002 -1.62036 0
M  V30 1104 H 103.19 -2.67381 -1.8755 0
M  V30 1105 H 101.849 -3.66598 0.0121472 0
M  V30 1106 H 101.497 -4.45533 -2.33473 0
M  V30 1107 H 101.197 -5.7604 -1.15982 0
M  V30 1108 H 102.721 -5.73647 -2.09194 0
M  V30 1109 H 104.135 -5.73019 0.179491 0
M  V30 1110 H 102.532 -5.92595 0.946076 0
M  V30 1111 H 103.602 -4.6174 1.48068 0
M  V30 1112 N 104.945 -0.338344 -1.53925 0
M  V30 1113 C 106.175 0.260919 -2.04946 0
M  V30 1114 C 106.583 1.45174 -1.2133 0
M  V30 1115 O 105.926 1.82122 -0.240262 0
M  V30 1116 C 105.988 0.744596 -3.51704 0
M  V30 1117 C 105.652 -0.325883 -4.55837 0
M  V30 1118 C 106.649 -1.16687 -5.06636 0
M  V30 1119 C 104.334 -0.478317 -5.00017 0
M  V30 1120 C 106.328 -2.14588 -6.00192 0
M  V30 1121 C 104.015 -1.46073 -5.93385 0
M  V30 1122 C 105.013 -2.29297 -6.4336 0
M  V30 1123 O 104.701 -3.25867 -7.34892 0
M  V30 1124 H 104.433 0.0551207 -0.673749 0
M  V30 1125 H 106.987 -0.486984 -1.99544 0
M  V30 1126 H 105.217 1.54366 -3.54553 0
M  V30 1127 H 106.906 1.26383 -3.85723 0
M  V30 1128 H 107.672 -1.06016 -4.73271 0
M  V30 1129 H 103.551 0.159613 -4.60724 0
M  V30 1130 H 107.095 -2.79585 -6.39123 0
M  V30 1131 H 102.992 -1.56802 -6.26166 0
M  V30 1132 H 103.76 -3.21278 -7.5281 0
M  V30 1133 N 106.423 1.57458 -0.0668435 0
M  V30 1134 C 107.353 2.15468 0.899764 0
M  V30 1135 C 108.334 1.08042 1.31381 0
M  V30 1136 O 109.519 1.36054 1.38574 0
M  V30 1137 C 106.649 2.71232 2.16911 0
M  V30 1138 C 105.603 3.83781 1.89463 0
M  V30 1139 C 104.929 4.26127 3.22986 0
M  V30 1140 C 106.229 5.08238 1.20381 0
M  V30 1141 H 107.923 2.96488 0.416529 0
M  V30 1142 H 105.469 1.4262 0.198908 0
M  V30 1143 H 107.422 3.10458 2.84945 0
M  V30 1144 H 106.146 1.87426 2.67468 0
M  V30 1145 H 104.805 3.45051 1.23836 0
M  V30 1146 H 104.453 3.39249 3.71374 0
M  V30 1147 H 104.153 5.01993 3.05413 0
M  V30 1148 H 105.677 4.67966 3.92225 0
M  V30 1149 H 107.091 5.44811 1.78475 0
M  V30 1150 H 105.488 5.89349 1.13083 0
M  V30 1151 H 106.558 4.84558 0.182153 0
M  V30 1152 N 107.901 -0.206675 1.56239 0
M  V30 1153 C 109.15 -0.926964 1.79138 0
M  V30 1154 C 109.463 -1.84901 0.638043 0
M  V30 1155 O 110.669 -2.60906 0.751033 0
M  V30 1156 C 109.125 -1.6986 3.17294 0
M  V30 1157 C 108.733 -0.821956 4.40395 0
M  V30 1158 C 110.477 -2.40922 3.4951 0
M  V30 1159 C 108.384 -1.59179 5.69575 0
M  V30 1160 H 107.314 -0.349864 0.667915 0
M  V30 1161 H 109.965 -0.180487 1.8261 0
M  V30 1162 H 108.347 -2.48853 3.08039 0
M  V30 1163 H 109.521 -0.0715019 4.60745 0
M  V30 1164 H 107.836 -0.222741 4.15804 0
M  V30 1165 H 110.433 -2.99047 4.43255 0
M  V30 1166 H 110.776 -3.14542 2.72707 0
M  V30 1167 H 111.309 -1.68905 3.60161 0
M  V30 1168 H 108.048 -0.898589 6.49312 0
M  V30 1169 H 107.568 -2.31648 5.53262 0
M  V30 1170 H 109.247 -2.14862 6.10281 0
M  V30 1171 N 109.379 -1.50304 -0.473955 0
M  V30 1172 C 110.628 -1.60392 -1.22301 0
M  V30 1173 C 110.941 -0.308411 -1.93153 0
M  V30 1174 O 112.147 -0.288156 -2.69966 0
M  V30 1175 C 110.603 -2.83109 -2.2221 0
M  V30 1176 C 110.211 -4.19524 -1.57173 0
M  V30 1177 C 111.955 -3.0254 -2.97775 0
M  V30 1178 C 109.862 -5.33431 -2.55353 0
M  V30 1179 H 108.792 -0.597286 -0.460179 0
M  V30 1180 H 111.443 -1.76731 -0.493803 0
M  V30 1181 H 109.825 -2.60322 -2.9841 0
M  V30 1182 H 110.999 -4.52554 -0.867824 0
M  V30 1183 H 109.314 -4.05674 -0.939002 0
M  V30 1184 H 111.911 -3.84811 -3.71248 0
M  V30 1185 H 112.254 -2.14154 -3.56992 0
M  V30 1186 H 112.787 -3.25494 -2.28688 0
M  V30 1187 H 109.526 -6.23962 -2.00878 0
M  V30 1188 H 109.046 -5.04823 -3.23904 0
M  V30 1189 H 110.725 -5.63887 -3.17239 0
M  V30 1190 N 110.857 0.726932 -1.39834 0
M  V30 1191 C 112.105 1.4837 -1.37225 0
M  V30 1192 C 112.426 1.94979 0.0284857 0
M  V30 1193 O 111.696 1.69555 0.981213 0
M  V30 1194 H 110.276 0.55043 -0.505011 0
M  V30 1195 H 112.938 0.862468 -1.74778 0
M  V30 1196 H 112.034 2.36198 -2.04003 0
M  V30 1197 N 112.336 1.25143 0.95797 0
M  V30 1198 C 113.299 1.05321 2.03569 0
M  V30 1199 C 114.299 0.007152 1.60798 0
M  V30 1200 O 115.489 0.24903 1.72411 0
M  V30 1201 C 112.621 0.598394 3.35607 0
M  V30 1202 H 113.814 2.00986 2.22586 0
M  V30 1203 H 111.367 1.07502 1.13459 0
M  V30 1204 H 112.102 -0.361014 3.22284 0
M  V30 1205 H 111.887 1.35351 3.67998 0
M  V30 1206 H 113.377 0.48104 4.1482 0
M  V30 1207 N 113.814 -1.1601 1.06675 0
M  V30 1208 C 115.042 -1.90527 0.806667 0
M  V30 1209 C 115.457 -1.77643 -0.639396 0
M  V30 1210 O 114.814 -1.12369 -1.43803 0
M  V30 1211 C 114.865 -3.41106 1.19705 0
M  V30 1212 O 114.586 -3.53608 2.58636 0
M  V30 1213 C 116.087 -4.32663 0.965266 0
M  V30 1214 H 113.307 -0.604053 0.292166 0
M  V30 1215 H 115.851 -1.47026 1.4214 0
M  V30 1216 H 114.006 -3.82296 0.626774 0
M  V30 1217 H 114.42 -4.47011 2.74375 0
M  V30 1218 H 115.894 -5.36763 1.288 0
M  V30 1219 H 116.371 -4.39089 -0.0987936 0
M  V30 1220 H 116.977 -3.97206 1.52011 0
M  V30 1221 N 115.292 -0.849877 -1.32721 0
M  V30 1222 C 116.538 -0.451591 -1.97708 0
M  V30 1223 C 116.871 0.989175 -1.6712 0
M  V30 1224 O 116.146 1.69334 -0.956891 0
M  V30 1225 C 116.429 -0.685598 -3.53513 0
M  V30 1226 C 116.282 -2.17444 -3.93749 0
M  V30 1227 C 117.601 -0.138874 -4.39881 0
M  V30 1228 H 114.72 -0.16555 -0.718166 0
M  V30 1229 H 117.362 -1.06742 -1.57182 0
M  V30 1230 H 115.512 -0.161416 -3.88165 0
M  V30 1231 H 117.184 -2.76433 -3.693 0
M  V30 1232 H 115.427 -2.65476 -3.43081 0
M  V30 1233 H 116.098 -2.28888 -5.02309 0
M  V30 1234 H 118.574 -0.587068 -4.11938 0
M  V30 1235 H 117.45 -0.332213 -5.47894 0
M  V30 1236 H 117.711 0.95806 -4.31594 0
M  V30 1237 N 116.77 1.45427 -0.607355 0
M  V30 1238 C 118.017 2.02241 -0.102455 0
M  V30 1239 C 118.345 1.4758 1.26691 0
M  V30 1240 O 117.6 0.640468 1.84923 0
M  V30 1241 C 117.899 3.57398 -0.0129263 0
M  V30 1242 C 117.565 4.3121 -1.31792 0
M  V30 1243 C 116.227 4.51092 -1.67539 0
M  V30 1244 C 118.579 4.73401 -2.18039 0
M  V30 1245 C 115.907 5.10422 -2.89285 0
M  V30 1246 C 118.259 5.34078 -3.39034 0
M  V30 1247 C 116.923 5.52184 -3.75033 0
M  V30 1248 H 116.193 0.740051 -0.037491 0
M  V30 1249 H 118.84 1.74494 -0.788926 0
M  V30 1250 H 117.145 3.84421 0.756806 0
M  V30 1251 H 118.842 3.99061 0.393881 0
M  V30 1252 H 115.432 4.16047 -1.02968 0
M  V30 1253 H 119.616 4.57774 -1.91721 0
M  V30 1254 H 114.872 5.22629 -3.17283 0
M  V30 1255 H 119.046 5.65724 -4.06115 0
M  V30 1256 H 116.673 5.97925 -4.69457 0
M  V30 1257 N 118.248 0.346503 1.53744 0
M  V30 1258 C 119.195 -0.508914 2.25119 0
M  V30 1259 C 120.165 -1.09315 1.25058 0
M  V30 1260 O 121.35 -1.12921 1.53797 0
M  V30 1261 C 118.49 -1.65246 3.02965 0
M  V30 1262 C 117.603 -1.09525 4.17886 0
M  V30 1263 C 116.738 -2.20634 4.83212 0
M  V30 1264 C 115.777 -1.62279 5.90196 0
M  V30 1265 N 114.914 -2.67143 6.49291 0
M  V30 1266 H 119.754 0.106283 2.9781 0
M  V30 1267 H 117.291 0.0642227 1.4696 0
M  V30 1268 H 119.249 -2.32574 3.4636 0
M  V30 1269 H 117.879 -2.2386 2.32565 0
M  V30 1270 H 116.931 -0.312818 3.79112 0
M  V30 1271 H 118.243 -0.628444 4.94825 0
M  V30 1272 H 117.397 -2.95821 5.29693 0
M  V30 1273 H 116.136 -2.70659 4.05703 0
M  V30 1274 H 115.141 -0.855989 5.43096 0
M  V30 1275 H 116.366 -1.13102 6.69615 0
M  V30 1276 H 114.312 -3.16417 5.74645 0
M  V30 1277 H 114.229 -2.25093 7.21713 0
M  V30 1278 H 115.497 -3.4209 7.00425 0
M  V30 1279 N 119.726 -1.57421 0.075193 0
M  V30 1280 C 120.689 -2.11791 -0.876203 0
M  V30 1281 C 121.689 -1.04268 -1.22412 0
M  V30 1282 O 122.879 -1.30242 -1.15684 0
M  V30 1283 C 120.011 -2.62207 -2.17854 0
M  V30 1284 H 121.204 -2.9716 -0.40444 0
M  V30 1285 H 118.757 -1.55333 -0.173557 0
M  V30 1286 H 119.492 -1.803 -2.6956 0
M  V30 1287 H 119.277 -3.40802 -1.93897 0
M  V30 1288 H 120.767 -3.04335 -2.85955 0
M  V30 1289 N 121.204 0.198386 -1.56346 0
M  V30 1290 C 122.134 1.24865 -1.9731 0
M  V30 1291 C 123.115 1.47651 -0.844576 0
M  V30 1292 O 124.3 1.59444 -1.10866 0
M  V30 1293 C 121.43 2.59358 -2.30977 0
M  V30 1294 C 120.384 2.5119 -3.46537 0
M  V30 1295 C 119.71 3.89926 -3.65871 0
M  V30 1296 C 121.01 2.03977 -4.80823 0
M  V30 1297 H 122.704 0.908252 -2.85291 0
M  V30 1298 H 120.25 0.435462 -1.37258 0
M  V30 1299 H 122.203 3.33011 -2.58228 0
M  V30 1300 H 120.927 2.95132 -1.39874 0
M  V30 1301 H 119.586 1.79993 -3.19371 0
M  V30 1302 H 119.234 4.23046 -2.72105 0
M  V30 1303 H 118.934 3.85336 -4.4361 0
M  V30 1304 H 120.458 4.65205 -3.95495 0
M  V30 1305 H 121.872 2.67386 -5.07127 0
M  V30 1306 H 120.269 2.10397 -5.62008 0
M  V30 1307 H 121.339 0.992861 -4.74626 0
M  V30 1308 N 122.682 1.50554 0.465978 0
M  V30 1309 C 123.592 1.72585 1.58907 0
M  V30 1310 C 124.608 0.60911 1.6299 0
M  V30 1311 O 125.784 0.88804 1.80765 0
M  V30 1312 C 122.849 1.81995 2.95091 0
M  V30 1313 C 121.91 3.05751 3.01355 0
M  V30 1314 C 121.143 3.14702 4.31043 0
M  V30 1315 O 121.366 2.30313 5.21835 0
M  V30 1316 O 120.3 4.07468 4.43005 0
M  V30 1317 H 124.126 2.67799 1.43239 0
M  V30 1318 H 121.711 1.34711 0.646013 0
M  V30 1319 H 123.593 1.90335 3.75966 0
M  V30 1320 H 122.268 0.899659 3.10947 0
M  V30 1321 H 121.175 3.02908 2.19539 0
M  V30 1322 H 122.508 3.97375 2.90437 0
M  V30 1323 N 124.16 -0.719506 1.40217 0
M  V30 1324 C 125.092 -1.84428 1.36084 0
M  V30 1325 C 126.105 -1.60597 0.266913 0
M  V30 1326 O 127.294 -1.70544 0.526983 0
M  V30 1327 C 124.394 -3.20757 1.094 0
M  V30 1328 C 123.567 -3.71817 2.30372 0
M  V30 1329 C 122.626 -4.86748 1.99907 0
M  V30 1330 O 121.652 -4.99603 2.72737 0
M  V30 1331 N 122.854 -5.7226 0.974635 0
M  V30 1332 H 125.619 -1.88473 2.33019 0
M  V30 1333 H 123.18 -0.900885 1.3452 0
M  V30 1334 H 125.172 -3.95235 0.870116 0
M  V30 1335 H 123.742 -3.11884 0.211452 0
M  V30 1336 H 122.962 -2.88514 2.68614 0
M  V30 1337 H 124.25 -4.02666 3.11026 0
M  V30 1338 H 123.648 -5.6448 0.371368 0
M  V30 1339 H 122.205 -6.46739 0.810656 0
M  V30 1340 N 125.638 -1.25649 -0.95132 0
M  V30 1341 C 127.049 -1.09654 -1.51106 0
M  V30 1342 C 127.4 0.326615 -1.93462 0
M  V30 1343 O 126.525 1.21697 -1.78938 0
M  V30 1344 C 127.12 -1.98437 -2.74605 0
M  V30 1345 C 125.679 -1.86618 -3.2688 0
M  V30 1346 C 124.826 -1.9239 -1.99703 0
M  V30 1347 H 127.777 -1.38887 -0.767865 0
M  V30 1348 H 127.798 -1.5263 -3.48546 0
M  V30 1349 H 127.31 -3.02009 -2.43746 0
M  V30 1350 H 125.411 -0.859421 -3.62553 0
M  V30 1351 H 125.524 -2.71607 -3.94673 0
M  V30 1352 H 123.888 -1.36317 -2.15151 0
M  V30 1353 H 124.671 -2.97573 -1.71188 0
M  V30 1354 N 127.117 1.15442 -1.07289 0
M  V30 1355 C 128.067 2.18164 -0.662467 0
M  V30 1356 C 129.051 1.57845 0.312074 0
M  V30 1357 O 130.243 1.76552 0.125905 0
M  V30 1358 C 127.372 3.43246 -0.0611295 0
M  V30 1359 C 126.458 4.1062 -1.06077 0
M  V30 1360 N 126.849 4.53491 -2.24008 0
M  V30 1361 C 125.147 4.36949 -0.893964 0
M  V30 1362 C 125.848 5.05731 -2.87422 0
M  V30 1363 N 124.824 4.99236 -2.15091 0
M  V30 1364 H 128.626 2.49038 -1.56068 0
M  V30 1365 H 126.14 1.32003 -0.945988 0
M  V30 1366 H 128.137 4.16145 0.250792 0
M  V30 1367 H 126.797 3.13854 0.832207 0
M  V30 1368 H 127.808 4.46898 -2.6173 0
M  V30 1369 H 124.485 4.17466 -0.0534693 0
M  V30 1370 H 125.875 5.48865 -3.87553 0
M  V30 1371 N 128.595 0.856903 1.32268 0
M  V30 1372 C 129.505 0.306131 2.32594 0
M  V30 1373 C 130.521 -0.577209 1.64147 0
M  V30 1374 O 131.697 -0.477043 1.95669 0
M  V30 1375 C 128.762 -0.494561 3.43154 0
M  V30 1376 C 127.823 0.415186 4.27288 0
M  V30 1377 C 127.056 -0.347387 5.32568 0
M  V30 1378 O 127.279 -1.57708 5.48165 0
M  V30 1379 O 126.213 0.287982 6.01211 0
M  V30 1380 H 130.039 1.13737 2.81598 0
M  V30 1381 H 127.624 0.619902 1.35932 0
M  V30 1382 H 129.506 -0.948944 4.10576 0
M  V30 1383 H 128.181 -1.30257 2.96336 0
M  V30 1384 H 127.088 0.917793 3.62667 0
M  V30 1385 H 128.421 1.18844 4.77637 0
M  V30 1386 N 130.073 -1.45103 0.615059 0
M  V30 1387 C 131.322 -2.01396 0.110718 0
M  V30 1388 C 131.635 -1.48834 -1.26916 0
M  V30 1389 O 132.841 -1.97152 -1.86664 0
M  V30 1390 C 131.297 -3.59599 0.14723 0
M  V30 1391 C 130.905 -4.21158 1.52743 0
M  V30 1392 C 132.649 -4.23428 -0.30148 0
M  V30 1393 C 130.556 -5.71535 1.51992 0
M  V30 1394 H 129.486 -0.753061 0.0376241 0
M  V30 1395 H 132.137 -1.66494 0.77149 0
M  V30 1396 H 130.519 -3.91724 -0.580339 0
M  V30 1397 H 131.693 -4.00594 2.2773 0
M  V30 1398 H 130.008 -3.69552 1.91886 0
M  V30 1399 H 132.605 -5.33703 -0.326392 0
M  V30 1400 H 132.948 -3.94629 -1.32565 0
M  V30 1401 H 133.481 -3.96047 0.373065 0
M  V30 1402 H 130.22 -6.05044 2.52193 0
M  V30 1403 H 129.74 -5.94268 0.81274 0
M  V30 1404 H 131.419 -6.34873 1.24681 0
M  V30 1405 N 131.551 -0.354651 -1.53558 0
M  V30 1406 C 132.776 0.242153 -2.05981 0
M  V30 1407 C 133.201 1.42553 -1.2272 0
M  V30 1408 O 132.559 1.79656 -0.243604 0
M  V30 1409 C 132.607 0.624367 -3.55154 0
M  V30 1410 O 131.711 1.72301 -3.74681 0
M  V30 1411 H 131.052 0.0378432 -0.662921 0
M  V30 1412 H 133.582 -0.512087 -1.98088 0
M  V30 1413 H 133.592 0.898433 -3.97985 0
M  V30 1414 H 132.267 -0.240989 -4.15201 0
M  V30 1415 H 130.844 1.44535 -3.4375 0
M  V30 1416 N 133.029 1.57378 -0.0835403 0
M  V30 1417 C 133.961 2.10389 0.909338 0
M  V30 1418 C 134.974 1.03858 1.25369 0
M  V30 1419 O 136.163 1.31338 1.20882 0
M  V30 1420 C 133.263 2.55908 2.2218 0
M  V30 1421 C 132.436 3.86145 2.05453 0
M  V30 1422 C 131.495 4.17633 3.20108 0
M  V30 1423 O 130.521 4.87043 2.94581 0
M  V30 1424 N 131.723 3.72113 4.45547 0
M  V30 1425 H 134.488 2.962 0.456657 0
M  V30 1426 H 132.049 1.61579 0.101877 0
M  V30 1427 H 134.041 2.74027 2.97811 0
M  V30 1428 H 132.611 1.75171 2.58909 0
M  V30 1429 H 131.831 3.7729 1.1422 0
M  V30 1430 H 133.119 4.7137 1.91541 0
M  V30 1431 H 132.517 3.16062 4.69171 0
M  V30 1432 H 131.074 3.95409 5.18165 0
M  V30 1433 N 134.507 -0.190092 1.56449 0
M  V30 1434 C 135.923 -0.54113 1.50146 0
M  V30 1435 C 136.123 -1.85603 0.784465 0
M  V30 1436 O 135.179 -2.5024 0.337051 0
M  V30 1437 C 136.492 -0.591241 2.9483 0
M  V30 1438 C 138.04 -0.679732 3.0553 0
M  V30 1439 C 138.515 -0.760908 4.51635 0
M  V30 1440 N 140.006 -0.824302 4.55806 0
M  V30 1441 C 140.741 -0.907365 5.66175 0
M  V30 1442 N 140.237 -0.952422 6.86222 0
M  V30 1443 N 142.03 -0.94494 5.541 0
M  V30 1444 H 134.181 0.67235 2.01478 0
M  V30 1445 H 136.444 0.240127 0.917084 0
M  V30 1446 H 136.15 0.305905 3.50367 0
M  V30 1447 H 136.024 -1.44422 3.48457 0
M  V30 1448 H 138.411 -1.56731 2.50039 0
M  V30 1449 H 138.492 0.199549 2.5502 0
M  V30 1450 H 138.136 0.122336 5.07753 0
M  V30 1451 H 138.066 -1.65606 4.99882 0
M  V30 1452 H 140.557 -0.798526 3.69367 0
M  V30 1453 H 140.87 -1.01645 7.66086 0
M  V30 1454 H 139.215 -0.921014 6.8887 0
M  V30 1455 H 142.406 -0.906612 4.59236 0
M  V30 1456 H 142.579 -1.00622 6.4014 0
M  V30 1457 N 135.985 -1.50799 -0.457987 0
M  V30 1458 C 137.213 -1.66218 -1.23203 0
M  V30 1459 C 137.628 -0.350894 -1.85511 0
M  V30 1460 O 136.985 0.668546 -1.69814 0
M  V30 1461 C 137.036 -2.76291 -2.33121 0
M  V30 1462 O 136.757 -4.02338 -1.73366 0
M  V30 1463 C 138.258 -3.028 -3.2377 0
M  V30 1464 H 135.478 -0.558361 -0.372121 0
M  V30 1465 H 138.022 -1.97099 -0.545179 0
M  V30 1466 H 136.177 -2.48068 -2.97558 0
M  V30 1467 H 136.591 -4.63312 -2.4585 0
M  V30 1468 H 138.065 -3.8345 -3.97077 0
M  V30 1469 H 138.542 -2.14385 -3.83322 0
M  V30 1470 H 139.148 -3.32604 -2.65056 0
M  V30 1471 N 137.463 0.71206 -1.40597 0
M  V30 1472 C 138.691 1.50111 -1.42388 0
M  V30 1473 C 139.106 1.88784 -0.0245395 0
M  V30 1474 O 138.463 1.55681 0.952351 0
M  V30 1475 C 138.514 2.7742 -2.31776 0
M  V30 1476 O 138.235 2.40382 -3.66262 0
M  V30 1477 C 139.736 3.7129 -2.42196 0
M  V30 1478 H 136.956 0.46314 -0.485533 0
M  V30 1479 H 139.5 0.878068 -1.8469 0
M  V30 1480 H 137.655 3.36001 -1.92827 0
M  V30 1481 H 138.069 3.22324 -4.13772 0
M  V30 1482 H 139.543 4.57448 -3.08943 0
M  V30 1483 H 140.02 4.14641 -1.44809 0
M  V30 1484 H 140.626 3.18619 -2.81712 0
M  V30 1485 N 138.941 1.26152 0.944643 0
M  V30 1486 C 140.19 1.10883 1.68487 0
M  V30 1487 C 140.503 -0.348153 1.92477 0
M  V30 1488 O 141.709 -0.621459 2.64292 0
M  V30 1489 C 140.165 1.93624 3.03377 0
M  V30 1490 C 139.773 3.43875 2.87148 0
M  V30 1491 C 141.517 1.86954 3.81115 0
M  V30 1492 C 139.424 4.18875 4.1749 0
M  V30 1493 H 138.354 0.41135 0.631907 0
M  V30 1494 H 141.005 1.50433 1.05082 0
M  V30 1495 H 139.387 1.46904 3.67743 0
M  V30 1496 H 140.561 3.98338 2.31653 0
M  V30 1497 H 138.876 3.51744 2.22856 0
M  V30 1498 H 141.473 2.40275 4.77673 0
M  V30 1499 H 141.816 0.839518 4.07747 0
M  V30 1500 H 142.349 2.31477 3.23517 0
M  V30 1501 H 139.088 5.22332 3.96043 0
M  V30 1502 H 138.608 3.69193 4.72712 0
M  V30 1503 H 140.287 4.27134 4.85968 0
M  V30 1504 N 140.419 -1.14872 1.07899 0
M  V30 1505 C 141.665 -1.86064 0.806725 0
M  V30 1506 C 141.998 -1.82434 -0.665706 0
M  V30 1507 O 141.273 -1.25138 -1.48899 0
M  V30 1508 C 141.556 -3.34929 1.32267 0
M  V30 1509 C 141.409 -3.47161 2.86006 0
M  V30 1510 C 142.728 -4.29863 0.943717 0
M  V30 1511 H 139.847 -0.675591 0.294526 0
M  V30 1512 H 142.489 -1.34925 1.33773 0
M  V30 1513 H 140.639 -3.78611 0.870974 0
M  V30 1514 H 142.311 -3.12302 3.39507 0
M  V30 1515 H 140.554 -2.88539 3.23925 0
M  V30 1516 H 141.225 -4.51777 3.17177 0
M  V30 1517 H 143.701 -3.9417 1.33302 0
M  V30 1518 H 142.577 -5.32494 1.33198 0
M  V30 1519 H 142.838 -4.41846 -0.149796 0
M  V30 1520 N 141.898 -0.863906 -1.31812 0
M  V30 1521 C 143.147 -0.46801 -1.96195 0
M  V30 1522 C 143.46 0.983474 -1.69077 0
M  V30 1523 O 144.666 1.48523 -2.27273 0
M  V30 1524 C 143.122 -0.785995 -3.51212 0
M  V30 1525 C 142.73 -2.25383 -3.87178 0
M  V30 1526 C 144.474 -0.458274 -4.22019 0
M  V30 1527 C 142.381 -2.51455 -5.3528 0
M  V30 1528 H 141.311 -0.171283 -0.734287 0
M  V30 1529 H 143.962 -1.05597 -1.50072 0
M  V30 1530 H 142.344 -0.127359 -3.95795 0
M  V30 1531 H 143.518 -2.95502 -3.53575 0
M  V30 1532 H 141.833 -2.54698 -3.2942 0
M  V30 1533 H 144.43 -0.630369 -5.30971 0
M  V30 1534 H 144.773 0.600834 -4.11941 0
M  V30 1535 H 145.306 -1.07319 -3.8305 0
M  V30 1536 H 142.045 -3.56025 -5.50387 0
M  V30 1537 H 141.565 -1.85923 -5.70257 0
M  V30 1538 H 143.244 -2.35874 -6.02472 0
M  V30 1539 N 143.376 1.44774 -0.622745 0
M  V30 1540 C 144.308 2.28856 0.125485 0
M  V30 1541 C 145.321 1.40811 0.817069 0
M  V30 1542 O 146.51 1.65044 0.679918 0
M  V30 1543 C 143.61 3.16963 1.19949 0
M  V30 1544 C 142.783 4.33374 0.592064 0
M  V30 1545 C 141.842 5.02577 1.55893 0
M  V30 1546 O 140.868 5.58873 1.07933 0
M  V30 1547 N 142.07 5.03256 2.89334 0
M  V30 1548 H 144.835 2.93713 -0.596068 0
M  V30 1549 H 142.396 1.55129 -0.463303 0
M  V30 1550 H 144.388 3.60123 1.84644 0
M  V30 1551 H 142.958 2.53913 1.82337 0
M  V30 1552 H 142.178 3.93509 -0.233322 0
M  V30 1553 H 143.466 5.08527 0.166738 0
M  V30 1554 H 142.864 4.58836 3.30887 0
M  V30 1555 H 141.421 5.50232 3.49412 0
M  V30 1556 N 144.854 0.36279 1.53368 0
M  V30 1557 C 145.801 -0.485008 2.25646 0
M  V30 1558 C 146.771 -1.07982 1.2621 0
M  V30 1559 O 147.956 -1.11284 1.54986 0
M  V30 1560 C 145.096 -1.62023 3.04701 0
M  V30 1561 C 144.209 -1.05086 4.19024 0
M  V30 1562 C 143.344 -2.15496 4.85525 0
M  V30 1563 C 142.383 -1.5601 5.91884 0
M  V30 1564 N 141.52 -2.60241 6.52088 0
M  V30 1565 H 146.36 0.137864 2.97681 0
M  V30 1566 H 143.897 0.0798061 1.46883 0
M  V30 1567 H 145.855 -2.28887 3.48807 0
M  V30 1568 H 144.485 -2.2138 2.34927 0
M  V30 1569 H 143.537 -0.27259 3.79422 0
M  V30 1570 H 144.849 -0.575926 4.95464 0
M  V30 1571 H 144.003 -2.90186 5.32801 0
M  V30 1572 H 142.742 -2.66341 4.08551 0
M  V30 1573 H 141.747 -0.798338 5.43973 0
M  V30 1574 H 142.972 -1.05994 6.70777 0
M  V30 1575 H 140.918 -3.10304 5.77968 0
M  V30 1576 H 140.835 -2.17426 7.24059 0
M  V30 1577 H 142.103 -3.34641 7.04014 0
M  V30 1578 N 146.332 -1.57332 0.0918853 0
M  V30 1579 C 147.264 -2.10869 -0.898168 0
M  V30 1580 C 148.277 -1.04521 -1.24817 0
M  V30 1581 O 149.466 -1.31977 -1.20184 0
M  V30 1582 C 146.566 -2.57083 -2.2082 0
M  V30 1583 C 145.739 -3.87229 -2.03402 0
M  V30 1584 C 144.798 -4.19324 -3.17889 0
M  V30 1585 O 143.824 -4.88598 -2.91994 0
M  V30 1586 N 145.026 -3.74471 -4.43567 0
M  V30 1587 H 147.791 -2.96439 -0.440943 0
M  V30 1588 H 145.352 -1.61631 -0.0933064 0
M  V30 1589 H 147.344 -2.75602 -2.96354 0
M  V30 1590 H 145.914 -1.76541 -2.57977 0
M  V30 1591 H 145.134 -3.7789 -1.12218 0
M  V30 1592 H 146.422 -4.72379 -1.89038 0
M  V30 1593 H 145.82 -3.18546 -4.67488 0
M  V30 1594 H 144.377 -3.98151 -5.16061 0
M  V30 1595 N 147.81 0.181792 -1.56548 0
M  V30 1596 C 149.038 0.915947 -1.85521 0
M  V30 1597 C 149.453 1.76282 -0.676016 0
M  V30 1598 O 148.81 1.79012 0.355077 0
M  V30 1599 C 148.861 1.80126 -3.13427 0
M  V30 1600 O 148.582 0.988562 -4.26801 0
M  V30 1601 C 150.083 2.64597 -3.55673 0
M  V30 1602 H 147.303 0.26661 -0.61576 0
M  V30 1603 H 149.847 0.185039 -2.03661 0
M  V30 1604 H 148.002 2.48563 -2.97145 0
M  V30 1605 H 148.416 1.59308 -4.99721 0
M  V30 1606 H 149.89 3.2235 -4.48101 0
M  V30 1607 H 150.367 3.38958 -2.79292 0
M  V30 1608 H 150.973 2.0151 -3.74532 0
M  V30 1609 N 149.288 1.51039 0.449983 0
M  V30 1610 C 150.535 1.63081 1.20045 0
M  V30 1611 C 150.863 0.341024 1.91487 0
M  V30 1612 O 150.118 -0.674276 1.83717 0
M  V30 1613 C 150.417 2.77556 2.25161 0
M  V30 1614 C 150.083 4.17289 1.70823 0
M  V30 1615 C 148.745 4.55305 1.55725 0
M  V30 1616 C 151.097 5.04536 1.3074 0
M  V30 1617 C 148.425 5.78287 0.989999 0
M  V30 1618 C 150.777 6.28085 0.754482 0
M  V30 1619 C 149.441 6.64885 0.590308 0
M  V30 1620 H 148.711 0.596755 0.439277 0
M  V30 1621 H 151.358 1.85037 0.49333 0
M  V30 1622 H 149.663 2.49771 3.01863 0
M  V30 1623 H 151.36 2.84073 2.83026 0
M  V30 1624 H 147.95 3.8731 1.83546 0
M  V30 1625 H 152.134 4.75782 1.41229 0
M  V30 1626 H 147.39 6.05456 0.850451 0
M  V30 1627 H 151.564 6.95038 0.435324 0
M  V30 1628 H 149.191 7.60055 0.14862 0
M  V30 1629 N 150.766 -0.704594 1.40972 0
M  V30 1630 C 152.015 -1.46018 1.39146 0
M  V30 1631 C 152.328 -1.956 0.000589254 0
M  V30 1632 O 153.534 -2.71137 -0.1403 0
M  V30 1633 C 151.99 -2.63996 2.4461 0
M  V30 1634 C 151.598 -2.21238 3.89561 0
M  V30 1635 C 153.342 -3.41677 2.51907 0
M  V30 1636 C 151.249 -3.3612 4.86598 0
M  V30 1637 H 150.179 -0.548444 0.517422 0
M  V30 1638 H 152.83 -0.765784 1.66757 0
M  V30 1639 H 151.212 -3.3566 2.10115 0
M  V30 1640 H 152.386 -1.56923 4.33257 0
M  V30 1641 H 150.701 -1.56574 3.85841 0
M  V30 1642 H 153.298 -4.27182 3.2159 0
M  V30 1643 H 153.641 -3.86247 1.55303 0
M  V30 1644 H 154.174 -2.77064 2.85448 0
M  V30 1645 H 150.913 -2.96572 5.84573 0
M  V30 1646 H 150.433 -3.99315 4.47557 0
M  V30 1647 H 152.112 -4.02029 5.06934 0
M  V30 1648 N 152.244 -1.26651 -0.937939 0
M  V30 1649 C 153.469 -1.15279 -1.72411 0
M  V30 1650 C 153.894 0.287866 -1.85884 0
M  V30 1651 O 153.252 1.20855 -1.35143 0
M  V30 1652 C 153.3 -1.83028 -3.10698 0
M  V30 1653 O 152.404 -1.12128 -3.96864 0
M  V30 1654 H 151.745 -0.401504 -0.528858 0
M  V30 1655 H 154.275 -1.67531 -1.1745 0
M  V30 1656 H 154.285 -1.89981 -3.6107 0
M  V30 1657 H 152.96 -2.87833 -3.00208 0
M  V30 1658 H 151.537 -1.13173 -3.55312 0
M  V30 1659 N 153.722 1.14298 -1.08507 0
M  V30 1660 C 154.654 2.1907 -0.673859 0
M  V30 1661 C 155.667 1.60381 0.279577 0
M  V30 1662 O 156.856 1.78374 0.0670754 0
M  V30 1663 C 153.956 3.38888 0.0290979 0
M  V30 1664 C 153.129 4.27103 -0.943494 0
M  V30 1665 C 152.188 5.25477 -0.275676 0
M  V30 1666 O 151.214 5.61709 -0.920401 0
M  V30 1667 N 152.416 5.7227 0.974013 0
M  V30 1668 H 155.181 2.54965 -1.57521 0
M  V30 1669 H 152.742 1.29528 -0.971287 0
M  V30 1670 H 154.734 4.01761 0.48683 0
M  V30 1671 H 153.304 3.01309 0.832555 0
M  V30 1672 H 152.524 3.61149 -1.58004 0
M  V30 1673 H 153.812 4.82905 -1.60251 0
M  V30 1674 H 153.21 5.44965 1.51755 0
M  V30 1675 H 151.767 6.37127 1.37522 0
M  V30 1676 N 155.201 0.870884 1.31352 0
M  V30 1677 C 156.151 0.298889 2.26032 0
M  V30 1678 C 157.135 -0.564595 1.50669 0
M  V30 1679 O 158.327 -0.411323 1.72154 0
M  V30 1680 C 155.456 -0.497842 3.39671 0
M  V30 1681 C 154.542 0.378937 4.22404 0
M  V30 1682 N 154.933 1.47284 4.83881 0
M  V30 1683 C 153.231 0.171535 4.4567 0
M  V30 1684 C 153.932 2.01359 5.45738 0
M  V30 1685 N 152.908 1.31047 5.27568 0
M  V30 1686 H 156.71 1.13494 2.71102 0
M  V30 1687 H 154.224 0.718745 1.45629 0
M  V30 1688 H 156.221 -0.924155 4.06528 0
M  V30 1689 H 154.881 -1.33149 2.96144 0
M  V30 1690 H 155.892 1.85575 4.8351 0
M  V30 1691 H 152.569 -0.626091 4.12779 0
M  V30 1692 H 153.959 2.93143 6.0458 0
M  V30 1693 N 156.679 -1.44442 0.630414 0
M  V30 1694 C 157.904 -2.06927 0.139944 0
M  V30 1695 C 158.329 -1.46795 -1.17613 0
M  V30 1696 O 157.687 -0.569144 -1.72135 0
M  V30 1697 C 157.735 -3.6058 0.0379581 0
M  V30 1698 O 156.839 -3.99937 -1.0062 0
M  V30 1699 H 156.18 -0.658608 0.0844483 0
M  V30 1700 H 158.71 -1.85327 0.866891 0
M  V30 1701 H 158.72 -4.07714 -0.152856 0
M  V30 1702 H 157.395 -4.03728 0.998809 0
M  V30 1703 H 155.972 -3.64436 -0.79001 0
M  V30 1704 N 158.157 -0.370918 -1.53173 0
M  V30 1705 C 159.397 0.217106 -2.03244 0
M  V30 1706 C 159.761 1.45558 -1.25207 0
M  V30 1707 O 160.962 2.11957 -1.65311 0
M  V30 1708 C 159.233 0.496664 -3.53932 0
M  V30 1709 S 160.792 1.0576 -4.25864 0
M  V30 1710 H 157.61 0.0627827 -0.708223 0
M  V30 1711 H 160.212 -0.515019 -1.88594 0
M  V30 1712 H 158.916 -0.412096 -4.08326 0
M  V30 1713 H 158.447 1.25772 -3.72753 0
M  V30 1714 H 160.462 2.34145 -4.37482 0
M  V30 1715 N 159.635 1.57281 -0.100228 0
M  V30 1716 C 160.881 1.94826 0.563101 0
M  V30 1717 C 161.214 0.982475 1.67514 0
M  V30 1718 O 160.489 0.0164069 1.94493 0
M  V30 1719 C 160.772 3.42453 1.11346 0
M  V30 1720 C 160.625 4.498 0.00612081 0
M  V30 1721 C 161.944 3.91506 2.01024 0
M  V30 1722 H 159.063 0.708428 0.203221 0
M  V30 1723 H 161.705 1.8922 -0.171979 0
M  V30 1724 H 159.855 3.47361 1.7399 0
M  V30 1725 H 161.527 4.57 -0.628357 0
M  V30 1726 H 159.77 4.28756 -0.659581 0
M  V30 1727 H 160.441 5.50306 0.432109 0
M  V30 1728 H 162.917 3.88784 1.48278 0
M  V30 1729 H 161.793 4.95358 2.36457 0
M  V30 1730 H 162.054 3.31099 2.92961 0
M  V30 1731 N 161.113 -0.173488 1.56642 0
M  V30 1732 C 162.061 -1.23417 1.97157 0
M  V30 1733 C 163.055 -1.45946 0.860013 0
M  V30 1734 O 164.261 -1.46551 1.04512 0
M  V30 1735 H 160.636 -0.414818 0.62724 0
M  V30 1736 H 162.607 -0.865582 2.8557 0
M  V30 1737 C 161.356 -2.5665 2.34576 0
M  V30 1738 H 160.679 -2.40137 3.19647 0
M  V30 1739 H 162.119 -3.2956 2.6677 0
M  V30 1740 C 160.578 -3.15245 1.18836 0
M  V30 1741 O 161.108 -3.98883 0.474869 0
M  V30 1742 N 159.314 -2.74303 0.959497 0
M  V30 1743 H 158.861 -2.0639 1.54146 0
M  V30 1744 H 158.819 -3.13844 0.186932 0
M  V30 1745 N 162.591 -1.51276 -0.441967 0
M  V30 1746 C 163.816 -1.67799 -1.21895 0
M  V30 1747 C 164.241 -0.372864 -1.84367 0
M  V30 1748 O 163.599 0.666501 -1.68604 0
M  V30 1749 C 163.647 -2.79199 -2.28211 0
M  V30 1750 O 162.751 -2.42479 -3.33583 0
M  V30 1751 H 162.092 -0.559649 -0.357336 0
M  V30 1752 H 164.622 -1.97815 -0.522522 0
M  V30 1753 H 164.632 -3.03146 -2.73069 0
M  V30 1754 H 163.307 -3.73906 -1.82118 0
M  V30 1755 H 161.884 -2.29087 -2.94234 0
M  V30 1756 N 164.069 0.697108 -1.41344 0
M  V30 1757 C 165.297 1.48593 -1.43972 0
M  V30 1758 C 165.712 1.88747 -0.0445612 0
M  V30 1759 O 165.069 1.56682 0.935785 0
M  V30 1760 C 165.12 2.74946 -2.34706 0
M  V30 1761 O 164.841 2.36484 -3.68791 0
M  V30 1762 C 166.342 3.687 -2.46121 0
M  V30 1763 H 163.562 0.457964 -0.490418 0
M  V30 1764 H 166.106 0.858429 -1.8561 0
M  V30 1765 H 164.261 3.33937 -1.9638 0
M  V30 1766 H 164.675 3.17918 -4.17167 0
M  V30 1767 H 166.149 4.54145 -3.13777 0
M  V30 1768 H 166.626 4.13081 -1.49199 0
M  V30 1769 H 167.232 3.15613 -2.85076 0
M  V30 1770 N 165.547 1.27147 0.931209 0
M  V30 1771 C 166.457 1.11372 2.06478 0
M  V30 1772 C 167.473 0.044645 1.73943 0
M  V30 1773 O 168.649 0.250417 1.99837 0
M  V30 1774 C 165.714 0.758838 3.38294 0
M  V30 1775 C 164.775 1.90841 3.84549 0
M  V30 1776 C 164.008 1.57036 5.10074 0
M  V30 1777 O 164.231 0.476645 5.68405 0
M  V30 1778 O 163.165 2.40839 5.51616 0
M  V30 1779 H 166.991 2.06493 2.22698 0
M  V30 1780 H 164.576 1.06301 1.04978 0
M  V30 1781 H 166.458 0.574098 4.17471 0
M  V30 1782 H 165.133 -0.162879 3.2329 0
M  V30 1783 H 164.04 2.14819 3.06274 0
M  V30 1784 H 165.373 2.81021 4.04089 0
M  V30 1785 N 167.025 -1.13721 1.09112 0
M  V30 1786 C 167.955 -2.21148 0.749385 0
M  V30 1787 C 168.936 -1.6792 -0.271475 0
M  V30 1788 O 170.121 -1.93693 -0.140251 0
M  V30 1789 C 167.251 -3.46905 0.165659 0
M  V30 1790 C 166.205 -4.13203 1.11567 0
M  V30 1791 C 165.531 -5.33248 0.393809 0
M  V30 1792 C 166.831 -4.60912 2.45678 0
M  V30 1793 H 168.525 -2.4999 1.64758 0
M  V30 1794 H 166.071 -1.20156 0.793626 0
M  V30 1795 H 168.024 -4.21313 -0.085466 0
M  V30 1796 H 166.748 -3.17449 -0.767714 0
M  V30 1797 H 165.407 -3.40758 1.35202 0
M  V30 1798 H 165.055 -5.00054 -0.543599 0
M  V30 1799 H 164.755 -5.78552 1.02721 0
M  V30 1800 H 166.279 -6.10413 0.150908 0
M  V30 1801 H 167.693 -5.26759 2.26269 0
M  V30 1802 H 166.09 -5.16944 3.04776 0
M  V30 1803 H 167.16 -3.75603 3.06677 0
M  V30 1804 N 168.503 -0.877838 -1.30888 0
M  V30 1805 C 169.78 -0.413052 -1.91189 0
M  V30 1806 C 170.16 1.1056 -1.79832 0
M  V30 1807 O 169.508 1.93771 -1.21099 0
M  V30 1808 C 169.718 -0.903191 -3.3711 0
M  V30 1809 C 171.066 -0.93395 -4.14201 0
M  V30 1810 O 172.09 -0.849373 -3.45925 0
M  V30 1811 O 170.949 -1.05772 -5.36167 0
M  V30 1812 H 168.043 -0.125035 -0.817493 0
M  V30 1813 H 170.589 -0.966269 -1.39504 0
M  V30 1814 H 169.361 -1.94692 -3.39427 0
M  V30 1815 H 168.984 -0.328732 -3.96239 0
M  V30 1816 N 169.982 1.44106 -0.638065 0
M  V30 1817 C 170.892 2.34513 0.0637334 0
M  V30 1818 C 171.908 1.53018 0.828346 0
M  V30 1819 O 173.084 1.85723 0.779036 0
M  V30 1820 C 170.149 3.31095 1.02844 0
M  V30 1821 C 169.21 4.28497 0.26244 0
M  V30 1822 C 168.443 5.20465 1.1812 0
M  V30 1823 O 168.666 5.16514 2.42011 0
M  V30 1824 O 167.6 5.98251 0.661774 0
M  V30 1825 H 171.426 2.95989 -0.68003 0
M  V30 1826 H 169.011 1.43994 -0.398252 0
M  V30 1827 H 170.893 3.90526 1.58327 0
M  V30 1828 H 169.568 2.72144 1.7527 0
M  V30 1829 H 168.475 3.72592 -0.335602 0
M  V30 1830 H 169.808 4.90388 -0.421936 0
M  V30 1831 N 171.46 0.379036 1.52974 0
M  V30 1832 C 172.39 -0.452706 2.29069 0
M  V30 1833 C 173.371 -1.07237 1.32039 0
M  V30 1834 O 174.556 -1.08708 1.60923 0
M  V30 1835 C 171.686 -1.5856 3.08992 0
M  V30 1836 C 170.64 -1.0925 4.13822 0
M  V30 1837 C 169.966 -2.31668 4.81907 0
M  V30 1838 C 171.266 -0.167702 5.22031 0
M  V30 1839 H 172.96 0.182181 2.98845 0
M  V30 1840 H 170.506 0.0890592 1.43724 0
M  V30 1841 H 172.459 -2.1742 3.6098 0
M  V30 1842 H 171.183 -2.24792 2.36931 0
M  V30 1843 H 169.842 -0.526494 3.628 0
M  V30 1844 H 169.49 -2.96386 4.06404 0
M  V30 1845 H 169.19 -1.9934 5.52754 0
M  V30 1846 H 170.714 -2.91189 5.36695 0
M  V30 1847 H 172.128 -0.664186 5.6944 0
M  V30 1848 H 170.525 0.0653265 6.00064 0
M  V30 1849 H 171.595 0.786347 4.78482 0
M  V30 1850 N 172.938 -1.57226 0.108567 0
M  V30 1851 C 174.187 -1.94008 -0.551703 0
M  V30 1852 C 174.5 -0.993442 -1.68494 0
M  V30 1853 O 175.706 -1.25551 -2.40726 0
M  V30 1854 C 174.162 -3.44763 -1.03279 0
M  V30 1855 C 173.77 -4.47943 0.0714193 0
M  V30 1856 C 175.514 -3.90483 -1.66503 0
M  V30 1857 C 173.421 -5.89865 -0.425779 0
M  V30 1858 H 172.351 -0.724206 -0.209863 0
M  V30 1859 H 175.002 -1.82547 0.186741 0
M  V30 1860 H 173.384 -3.51422 -1.82533 0
M  V30 1861 H 174.558 -4.52942 0.847365 0
M  V30 1862 H 172.873 -4.11913 0.609669 0
M  V30 1863 H 175.47 -4.93925 -2.04798 0
M  V30 1864 H 175.813 -3.29877 -2.53942 0
M  V30 1865 H 176.346 -3.86581 -0.938074 0
M  V30 1866 H 173.085 -6.54202 0.412316 0
M  V30 1867 H 172.605 -5.88309 -1.16843 0
M  V30 1868 H 174.284 -6.40844 -0.890397 0
M  V30 1869 N 174.416 0.165178 -1.56732 0
M  V30 1870 C 175.348 1.22911 -1.93457 0
M  V30 1871 C 176.361 1.40152 -0.828333 0
M  V30 1872 O 177.55 1.40046 -1.10677 0
M  V30 1873 C 174.65 2.59686 -2.17753 0
M  V30 1874 C 173.823 2.63663 -3.48999 0
M  V30 1875 C 172.882 3.81845 -3.62051 0
M  V30 1876 O 171.908 3.67559 -4.34613 0
M  V30 1877 N 173.11 4.98557 -2.97357 0
M  V30 1878 H 175.875 0.917118 -2.85323 0
M  V30 1879 H 173.436 0.354895 -1.57962 0
M  V30 1880 H 175.428 3.37225 -2.23743 0
M  V30 1881 H 173.998 2.83251 -1.32242 0
M  V30 1882 H 173.218 1.72173 -3.54612 0
M  V30 1883 H 174.506 2.63336 -4.35352 0
M  V30 1884 H 173.904 5.13065 -2.38287 0
M  V30 1885 H 172.461 5.73936 -3.08934 0
M  V30 1886 N 175.894 1.51508 0.433938 0
M  V30 1887 C 176.826 1.69266 1.54537 0
M  V30 1888 C 177.839 0.573276 1.52373 0
M  V30 1889 O 179.028 0.847698 1.57087 0
M  V30 1890 C 176.128 1.69524 2.93453 0
M  V30 1891 C 175.301 2.98101 3.20085 0
M  V30 1892 C 174.36 2.90502 4.38742 0
M  V30 1893 O 173.386 3.64442 4.3723 0
M  V30 1894 N 174.588 2.06586 5.42496 0
M  V30 1895 H 177.353 2.65145 1.39708 0
M  V30 1896 H 174.914 1.49437 0.622922 0
M  V30 1897 H 176.906 1.62004 3.70859 0
M  V30 1898 H 175.476 0.812245 3.01863 0
M  V30 1899 H 174.696 3.19464 2.30947 0
M  V30 1900 H 175.984 3.83207 3.34708 0
M  V30 1901 H 175.382 1.45896 5.46563 0
M  V30 1902 H 173.939 2.04943 6.18742 0
M  V30 1903 N 177.372 -0.689602 1.41712 0
M  V30 1904 C 178.621 -1.44534 1.40686 0
M  V30 1905 C 178.934 -1.95588 0.0213352 0
M  V30 1906 O 180.14 -2.71271 -0.111534 0
M  V30 1907 C 178.596 -2.61387 2.47396 0
M  V30 1908 C 178.204 -2.17094 3.91885 0
M  V30 1909 C 179.948 -3.38986 2.55517 0
M  V30 1910 C 177.855 -3.3094 4.90135 0
M  V30 1911 H 176.785 -0.542925 0.52321 0
M  V30 1912 H 179.436 -0.748054 1.6756 0
M  V30 1913 H 177.818 -3.33412 2.13664 0
M  V30 1914 H 178.992 -1.52318 4.34897 0
M  V30 1915 H 177.307 -1.52473 3.8748 0
M  V30 1916 H 179.904 -4.23747 3.26102 0
M  V30 1917 H 180.247 -3.84578 1.59391 0
M  V30 1918 H 180.78 -2.74021 2.8837 0
M  V30 1919 H 177.519 -2.90355 5.87685 0
M  V30 1920 H 177.039 -3.94546 4.51767 0
M  V30 1921 H 178.718 -3.9663 5.11169 0
M  V30 1922 N 178.85 -1.27639 -0.924453 0
M  V30 1923 C 180.096 -1.14336 -1.67497 0
M  V30 1924 C 180.429 0.309465 -1.91718 0
M  V30 1925 O 179.704 1.22608 -1.50989 0
M  V30 1926 C 179.987 -1.93096 -3.0395 0
M  V30 1927 C 179.84 -3.46381 -2.8695 0
M  V30 1928 C 181.159 -1.73798 -4.0433 0
M  V30 1929 H 178.278 -0.416728 -0.607871 0
M  V30 1930 H 180.92 -1.56832 -1.07256 0
M  V30 1931 H 179.07 -1.56982 -3.55372 0
M  V30 1932 H 180.742 -3.92343 -2.42621 0
M  V30 1933 H 178.985 -3.72557 -2.22225 0
M  V30 1934 H 179.656 -3.96735 -3.83804 0
M  V30 1935 H 182.132 -2.05293 -3.61931 0
M  V30 1936 H 181.008 -2.31294 -4.97789 0
M  V30 1937 H 181.269 -0.686725 -4.36734 0
M  V30 1938 N 180.328 1.1314 -1.09713 0
M  V30 1939 C 181.291 2.16831 -0.742751 0
M  V30 1940 C 182.291 1.59159 0.229129 0
M  V30 1941 O 183.481 1.74199 0.00693237 0
M  V30 1942 C 180.613 3.40756 -0.0989168 0
M  V30 1943 H 181.806 2.49695 -1.66109 0
M  V30 1944 H 179.359 1.2802 -0.896699 0
M  V30 1945 H 180.094 3.13485 0.830514 0
M  V30 1946 H 179.879 3.83888 -0.798265 0
M  V30 1947 H 181.369 4.17386 0.133524 0
M  V30 1948 N 181.806 0.884767 1.30421 0
M  V30 1949 C 182.769 0.356277 2.26414 0
M  V30 1950 C 183.769 -0.501124 1.52792 0
M  V30 1951 O 184.959 -0.30831 1.7145 0
M  V30 1952 C 182.091 -0.492316 3.37326 0
M  V30 1953 H 183.284 1.20389 2.74675 0
M  V30 1954 H 180.837 0.661607 1.41607 0
M  V30 1955 H 181.572 -1.36052 2.94381 0
M  V30 1956 H 181.357 0.121832 3.91911 0
M  V30 1957 H 182.847 -0.853871 4.08777 0
M  V30 1958 N 183.284 -1.43765 0.645699 0
M  V30 1959 C 184.533 -2.01116 0.153412 0
M  V30 1960 C 184.846 -1.51493 -1.23731 0
M  V30 1961 O 186.052 -2.01067 -1.8244 0
M  V30 1962 C 184.508 -3.59206 0.223473 0
M  V30 1963 C 184.116 -4.17823 1.61642 0
M  V30 1964 C 185.86 -4.23972 -0.211597 0
M  V30 1965 C 183.767 -5.68183 1.64081 0
M  V30 1966 H 182.697 -0.752093 0.0535891 0
M  V30 1967 H 185.348 -1.6482 0.806633 0
M  V30 1968 H 183.73 -3.92867 -0.497118 0
M  V30 1969 H 184.904 -3.95674 2.36176 0
M  V30 1970 H 183.219 -3.65399 1.99681 0
M  V30 1971 H 185.816 -5.34275 -0.213112 0
M  V30 1972 H 186.159 -3.97352 -1.24165 0
M  V30 1973 H 186.692 -3.95166 0.456988 0
M  V30 1974 H 183.431 -5.99559 2.64971 0
M  V30 1975 H 182.951 -5.9241 0.938611 0
M  V30 1976 H 184.63 -6.32085 1.3812 0
M  V30 1977 N 184.763 -0.387143 -1.52771 0
M  V30 1978 C 185.711 0.463953 -2.27926 0
M  V30 1979 C 186.705 1.06493 -1.31741 0
M  V30 1980 O 187.911 1.00565 -1.49287 0
M  V30 1981 H 184.286 0.16837 -0.732909 0
M  V30 1982 H 186.257 -0.19141 -2.97785 0
M  V30 1983 C 185.006 1.5803 -3.09713 0
M  V30 1984 H 184.329 1.12718 -3.83581 0
M  V30 1985 H 185.769 2.15008 -3.65442 0
M  V30 1986 C 184.228 2.53509 -2.2189 0
M  V30 1987 O 184.758 3.56863 -1.84422 0
M  V30 1988 N 182.964 2.23199 -1.86093 0
M  V30 1989 H 182.511 1.39185 -2.16761 0
M  V30 1990 H 182.469 2.87333 -1.27621 0
M  V30 1991 N 186.241 1.57166 -0.116904 0
M  V30 1992 C 187.204 2.14039 0.819742 0
M  V30 1993 C 188.204 1.07477 1.19605 0
M  V30 1994 O 189.394 1.33263 1.1219 0
M  V30 1995 C 186.526 2.67891 2.10826 0
M  V30 1996 H 187.719 2.98128 0.325511 0
M  V30 1997 H 185.272 1.55739 0.132312 0
M  V30 1998 H 186.007 1.87384 2.64685 0
M  V30 1999 H 185.792 3.45823 1.84793 0
M  V30 2000 H 187.282 3.11809 2.77785 0
M  V30 2001 N 187.719 -0.156864 1.56817 0
M  V30 2002 C 188.967 -0.869404 1.82444 0
M  V30 2003 C 189.288 -1.82147 0.69623 0
M  V30 2004 O 188.558 -1.93847 -0.28287 0
M  V30 2005 H 187.138 -0.324043 0.673056 0
M  V30 2006 H 189.8 -0.153224 1.94297 0
M  V30 2007 H 188.896 -1.43761 2.77019 0
M  V30 2008 N 189.197 -1.51736 -0.425897 0
M  V30 2009 C 190.446 -1.64201 -1.17136 0
M  V30 2010 C 190.759 -0.369705 -1.92074 0
M  V30 2011 O 191.965 -0.373898 -2.68913 0
M  V30 2012 C 190.421 -2.90035 -2.13091 0
M  V30 2013 C 190.029 -4.24312 -1.43747 0
M  V30 2014 C 191.773 -3.1186 -2.87999 0
M  V30 2015 C 189.68 -5.41285 -2.38253 0
M  V30 2016 H 188.61 -0.611624 -0.440944 0
M  V30 2017 H 191.261 -1.78212 -0.437328 0
M  V30 2018 H 189.643 -2.69684 -2.89977 0
M  V30 2019 H 190.817 -4.55086 -0.723408 0
M  V30 2020 H 189.132 -4.08456 -0.809465 0
M  V30 2021 H 191.729 -3.96427 -3.58817 0
M  V30 2022 H 192.072 -2.25403 -3.49999 0
M  V30 2023 H 192.605 -3.32605 -2.18217 0
M  V30 2024 H 189.344 -6.30037 -1.80925 0
M  V30 2025 H 188.864 -5.14872 -3.0768 0
M  V30 2026 H 190.543 -5.73694 -2.99139 0
M  V30 2027 N 190.675 0.682077 -1.42076 0
M  V30 2028 C 191.924 1.43786 -1.41451 0
M  V30 2029 C 192.237 1.95574 -0.0317074 0
M  V30 2030 O 193.443 2.71326 0.0971462 0
M  V30 2031 C 191.899 2.60071 -2.48779 0
M  V30 2032 C 191.507 2.15013 -3.93031 0
M  V30 2033 C 193.251 3.37626 -2.57311 0
M  V30 2034 C 191.158 3.28336 -4.91883 0
M  V30 2035 H 190.088 0.540143 -0.526082 0
M  V30 2036 H 192.739 0.739157 -1.67955 0
M  V30 2037 H 191.121 3.32275 -2.15429 0
M  V30 2038 H 192.295 1.5001 -4.35699 0
M  V30 2039 H 190.61 1.50416 -3.88284 0
M  V30 2040 H 193.207 4.22012 -3.28345 0
M  V30 2041 H 193.55 3.83727 -1.61429 0
M  V30 2042 H 194.083 2.72488 -2.89819 0
M  V30 2043 H 190.822 2.87234 -5.89217 0
M  V30 2044 H 190.342 3.92145 -4.53853 0
M  V30 2045 H 192.021 3.93913 -5.13265 0
M  V30 2046 N 192.153 1.28127 0.917671 0
M  V30 2047 C 193.564 1.13622 1.48145 0
M  V30 2048 C 193.915 -0.275207 1.9426 0
M  V30 2049 O 193.04 -1.1691 1.82102 0
M  V30 2050 C 193.635 2.05648 2.69248 0
M  V30 2051 C 192.194 1.95219 3.21818 0
M  V30 2052 C 191.341 1.97618 1.94532 0
M  V30 2053 H 194.292 1.40874 0.730772 0
M  V30 2054 H 194.313 1.61818 3.44377 0
M  V30 2055 H 193.825 3.08365 2.35653 0
M  V30 2056 H 191.926 0.955244 3.60147 0
M  V30 2057 H 192.039 2.81976 3.87333 0
M  V30 2058 H 190.403 1.41973 2.11461 0
M  V30 2059 H 191.186 3.02007 1.63238 0
M  V30 2060 N 193.631 -1.12557 1.10312 0
M  V30 2061 C 194.561 -2.20341 0.772798 0
M  V30 2062 C 195.542 -1.68198 -0.25365 0
M  V30 2063 O 196.727 -1.93831 -0.119699 0
M  V30 2064 C 193.857 -3.46709 0.202443 0
M  V30 2065 C 192.811 -4.11996 1.15943 0
M  V30 2066 C 192.137 -5.328 0.450345 0
M  V30 2067 C 193.437 -4.5828 2.50552 0
M  V30 2068 H 195.131 -2.48229 1.674 0
M  V30 2069 H 192.677 -1.19308 0.806326 0
M  V30 2070 H 194.63 -4.2138 -0.0407752 0
M  V30 2071 H 193.354 -3.18245 -0.734001 0
M  V30 2072 H 192.013 -3.39305 1.38808 0
M  V30 2073 H 191.661 -5.00602 -0.490531 0
M  V30 2074 H 191.361 -5.7743 1.08851 0
M  V30 2075 H 192.885 -6.10219 0.215642 0
M  V30 2076 H 194.299 -5.2433 2.31843 0
M  V30 2077 H 192.696 -5.13683 3.10242 0
M  V30 2078 H 193.766 -3.72329 3.10643 0
M  V30 2079 N 195.109 -0.891671 -1.2995 0
M  V30 2080 C 196.357 -0.512486 -1.95494 0
M  V30 2081 C 196.678 0.942776 -1.70695 0
M  V30 2082 O 195.948 1.66374 -1.03424 0
M  V30 2083 H 194.528 -0.186533 -0.723336 0
M  V30 2084 H 197.19 -1.13621 -1.58355 0
M  V30 2085 H 196.286 -0.688342 -3.04415 0
M  V30 2086 N 196.587 1.43421 -0.653314 0
M  V30 2087 C 197.535 2.32546 0.0501531 0
M  V30 2088 C 198.529 1.48617 0.812985 0
M  V30 2089 O 199.735 1.64825 0.723375 0
M  V30 2090 H 196.11 0.751185 0.0350032 0
M  V30 2091 H 198.081 2.89602 -0.719261 0
M  V30 2092 C 196.83 3.32925 1.00279 0
M  V30 2093 H 196.153 3.97532 0.425236 0
M  V30 2094 H 197.593 3.9792 1.46409 0
M  V30 2095 C 196.052 2.63532 2.09886 0
M  V30 2096 O 196.582 2.45092 3.18265 0
M  V30 2097 N 194.788 2.22905 1.86445 0
M  V30 2098 H 194.335 2.38103 0.98309 0
M  V30 2099 H 194.293 1.76805 2.59976 0
M  V30 2100 N 198.065 0.39524 1.52563 0
M  V30 2101 C 199.293 -0.184943 2.06072 0
M  V30 2102 C 199.708 -1.40021 1.26647 0
M  V30 2103 O 199.065 -1.79767 0.314672 0
M  V30 2104 C 199.116 -0.549179 3.57304 0
M  V30 2105 O 198.837 0.617813 4.33722 0
M  V30 2106 C 200.338 -1.18459 4.2718 0
M  V30 2107 H 197.558 -0.0265025 0.670476 0
M  V30 2108 H 200.102 0.562184 1.96621 0
M  V30 2109 H 198.257 -1.2462 3.66809 0
M  V30 2110 H 198.671 0.317091 5.23541 0
M  V30 2111 H 200.145 -1.38976 5.34219 0
M  V30 2112 H 200.622 -2.15368 3.82771 0
M  V30 2113 H 201.228 -0.528163 4.22008 0
M  V30 2114 N 199.544 -1.57102 0.125237 0
M  V30 2115 C 200.769 -2.0019 -0.542101 0
M  V30 2116 C 201.194 -1.00449 -1.59034 0
M  V30 2117 O 200.552 0.0229423 -1.81285 0
M  V30 2118 C 200.6 -3.42129 -1.13929 0
M  V30 2119 O 199.704 -3.45307 -2.2547 0
M  V30 2120 H 199.045 -0.650171 -0.134812 0
M  V30 2121 H 201.575 -2.03461 0.215553 0
M  V30 2122 H 201.585 -3.80471 -1.4733 0
M  V30 2123 H 200.26 -4.14237 -0.371531 0
M  V30 2124 H 198.837 -3.1879 -1.93462 0
M  V30 2125 N 201.022 0.148545 -1.56898 0
M  V30 2126 C 201.97 1.20265 -1.99096 0
M  V30 2127 C 202.964 1.44559 -0.883123 0
M  V30 2128 O 204.17 1.4487 -1.0683 0
M  V30 2129 H 200.545 0.404786 -0.63376 0
M  V30 2130 H 202.516 0.82004 -2.86911 0
M  V30 2131 C 201.265 2.52886 -2.3863 0
M  V30 2132 H 200.588 2.35021 -3.23427 0
M  V30 2133 H 202.028 3.25274 -2.7198 0
M  V30 2134 C 200.487 3.13315 -1.23837 0
M  V30 2135 O 201.017 3.98077 -0.538268 0
M  V30 2136 N 199.223 2.72742 -1.00301 0
M  V30 2137 H 198.77 2.03912 -1.5741 0
M  V30 2138 H 198.728 3.13507 -0.236838 0
M  V30 2139 N 202.5 1.5196 0.417844 0
M  V30 2140 C 203.432 1.70895 1.52733 0
M  V30 2141 C 204.445 0.589405 1.51756 0
M  V30 2142 O 205.634 0.864312 1.56179 0
M  V30 2143 C 202.734 1.72627 2.91639 0
M  V30 2144 C 201.907 3.01479 3.16905 0
M  V30 2145 C 200.966 2.95139 4.35637 0
M  V30 2146 O 199.992 3.69059 4.3334 0
M  V30 2147 N 201.194 2.12328 5.40275 0
M  V30 2148 H 203.959 2.66612 1.36888 0
M  V30 2149 H 201.52 1.50089 0.607037 0
M  V30 2150 H 203.512 1.65928 3.6912 0
M  V30 2151 H 202.082 0.844216 3.00985 0
M  V30 2152 H 201.302 3.21895 2.27546 0
M  V30 2153 H 202.59 3.86736 3.30625 0
M  V30 2154 H 201.988 1.51685 5.44985 0
M  V30 2155 H 200.545 2.11494 6.16534 0
M  V30 2156 N 203.978 -0.674533 1.42435 0
M  V30 2157 C 205.227 -1.43034 1.42212 0
M  V30 2158 C 205.54 -1.95555 0.0420788 0
M  V30 2159 O 206.746 -2.71374 -0.0827558 0
M  V30 2160 C 205.202 -2.58748 2.50155 0
M  V30 2161 C 204.81 -2.12925 3.94166 0
M  V30 2162 C 206.554 -3.36257 2.59098 0
M  V30 2163 C 204.461 -3.25723 4.93618 0
M  V30 2164 H 203.391 -0.537345 0.528939 0
M  V30 2165 H 206.042 -0.73024 1.68344 0
M  V30 2166 H 204.424 -3.31128 2.17188 0
M  V30 2167 H 205.598 -1.47697 4.36488 0
M  V30 2168 H 203.913 -1.48354 3.89076 0
M  V30 2169 H 206.51 -4.20264 3.30578 0
M  V30 2170 H 206.853 -3.82866 1.63461 0
M  V30 2171 H 207.386 -2.70947 2.9126 0
M  V30 2172 H 204.125 -2.84105 5.90732 0
M  V30 2173 H 203.645 -3.89732 4.55926 0
M  V30 2174 H 205.324 -3.91186 5.15347 0
M  V30 2175 N 205.456 -1.28612 -0.910864 0
M  V30 2176 C 206.681 -1.1891 -1.69927 0
M  V30 2177 C 207.106 0.248372 -1.86453 0
M  V30 2178 O 206.464 1.17961 -1.37676 0
M  V30 2179 C 206.512 -1.89578 -3.06745 0
M  V30 2180 O 205.616 -1.20521 -3.94396 0
M  V30 2181 H 204.957 -0.412632 -0.520222 0
M  V30 2182 H 207.487 -1.69985 -1.1387 0
M  V30 2183 H 207.497 -1.97597 -3.56958 0
M  V30 2184 H 206.172 -2.94136 -2.94035 0
M  V30 2185 H 204.749 -1.20684 -3.52831 0
M  V30 2186 N 206.934 1.1197 -1.10907 0
M  V30 2187 C 207.884 2.15946 -0.731538 0
M  V30 2188 C 208.868 1.58758 0.261699 0
M  V30 2189 O 210.06 1.76863 0.0696722 0
M  V30 2190 C 207.189 3.42877 -0.170299 0
M  V30 2191 C 206.275 4.07037 -1.19087 0
M  V30 2192 N 206.666 4.46135 -2.38322 0
M  V30 2193 C 204.964 4.33884 -1.03252 0
M  V30 2194 C 205.665 4.96331 -3.03366 0
M  V30 2195 N 204.641 4.9214 -2.30865 0
M  V30 2196 H 208.443 2.43947 -1.63912 0
M  V30 2197 H 205.957 1.28927 -0.987505 0
M  V30 2198 H 207.954 4.16732 0.118271 0
M  V30 2199 H 206.614 3.16343 0.731935 0
M  V30 2200 H 207.625 4.38345 -2.75815 0
M  V30 2201 H 204.302 4.17084 -0.186256 0
M  V30 2202 H 205.692 5.36257 -4.04818 0
M  V30 2203 N 208.412 0.89855 1.29475 0
M  V30 2204 C 209.658 0.534065 1.96263 0
M  V30 2205 C 210.013 -0.909415 1.69551 0
M  V30 2206 O 209.306 -1.63596 0.997349 0
M  V30 2207 C 209.5 0.761398 3.49195 0
M  V30 2208 C 209.329 2.22542 3.90775 0
M  V30 2209 C 208.099 2.87264 4.15701 0
M  V30 2210 C 210.297 3.20051 4.02581 0
M  V30 2211 N 208.279 4.24121 4.4384 0
M  V30 2212 C 209.65 4.42023 4.34759 0
M  V30 2213 C 211.705 3.15657 3.85052 0
M  V30 2214 C 210.408 5.60161 4.51235 0
M  V30 2215 C 212.434 4.33078 4.02737 0
M  V30 2216 C 211.796 5.5382 4.35273 0
M  V30 2217 H 207.895 0.245013 0.742625 0
M  V30 2218 H 210.479 1.15912 1.56437 0
M  V30 2219 H 208.65 0.165732 3.88046 0
M  V30 2220 H 210.382 0.362462 4.03074 0
M  V30 2221 H 207.137 2.38064 4.09417 0
M  V30 2222 H 207.561 4.94839 4.6202 0
M  V30 2223 H 212.203 2.23396 3.58962 0
M  V30 2224 H 209.921 6.52913 4.76162 0
M  V30 2225 H 213.507 4.31163 3.90628 0
M  V30 2226 H 212.387 6.43166 4.48672 0
M  V30 2227 N 209.89 -1.43072 0.660911 0
M  V30 2228 C 211.167 -1.95307 0.107017 0
M  V30 2229 C 211.547 -1.60192 -1.37484 0
M  V30 2230 O 210.895 -0.890949 -2.10415 0
M  V30 2231 C 211.105 -3.47124 0.361402 0
M  V30 2232 C 212.453 -4.23738 0.270455 0
M  V30 2233 O 213.477 -3.54981 0.294382 0
M  V30 2234 O 212.336 -5.46131 0.200737 0
M  V30 2235 H 209.43 -0.826984 -0.00517729 0
M  V30 2236 H 211.976 -1.52972 0.734681 0
M  V30 2237 H 210.748 -3.65837 1.38848 0
M  V30 2238 H 210.371 -3.96475 -0.298953 0
M  V30 2239 N 211.368 -0.403325 -1.52352 0
M  V30 2240 C 212.298 0.416205 -2.29761 0
M  V30 2241 C 213.279 1.05123 -1.33728 0
M  V30 2242 O 214.464 1.06134 -1.62632 0
M  V30 2243 C 211.594 1.53624 -3.11475 0
M  V30 2244 C 210.548 1.02653 -4.15507 0
M  V30 2245 C 209.874 2.23971 -4.85532 0
M  V30 2246 C 211.174 0.08463 -5.22231 0
M  V30 2247 H 212.868 -0.229701 -2.98518 0
M  V30 2248 H 210.414 -0.111913 -1.43564 0
M  V30 2249 H 212.367 2.1165 -3.64393 0
M  V30 2250 H 211.091 2.20994 -2.40477 0
M  V30 2251 H 209.75 0.46871 -3.63591 0
M  V30 2252 H 209.398 2.89883 -4.11068 0
M  V30 2253 H 209.098 1.90521 -5.55856 0
M  V30 2254 H 210.622 2.82614 -5.41259 0
M  V30 2255 H 212.036 0.573509 -5.70424 0
M  V30 2256 H 210.433 -0.160783 -5.99885 0
M  V30 2257 H 211.503 -0.86237 -4.7717 0
M  V30 2258 N 212.846 1.57033 -0.133567 0
M  V30 2259 C 214.094 1.953 0.519848 0
M  V30 2260 C 214.415 1.01866 1.66278 0
M  V30 2261 O 213.685 0.0776513 1.95746 0
M  V30 2262 H 212.265 0.721091 0.195032 0
M  V30 2263 H 214.927 1.93809 -0.205921 0
M  V30 2264 H 214.023 2.98695 0.904854 0
M  V30 2265 N 214.325 -0.140222 1.56975 0
M  V30 2266 C 215.55 -0.870414 1.88251 0
M  V30 2267 C 215.975 -1.73637 0.723312 0
M  V30 2268 O 215.333 -1.78329 -0.32689 0
M  V30 2269 C 215.381 -1.69737 3.18154 0
M  V30 2270 O 214.485 -2.80229 3.02565 0
M  V30 2271 H 213.826 -0.242025 0.61832 0
M  V30 2272 H 216.356 -0.128999 2.04193 0
M  V30 2273 H 216.366 -2.09099 3.50345 0
M  V30 2274 H 215.041 -1.06152 4.02125 0
M  V30 2275 H 213.618 -2.44224 2.81796 0
M  V30 2276 N 215.803 -1.52179 -0.40978 0
M  V30 2277 C 217.028 -1.70347 -1.18308 0
M  V30 2278 C 217.453 -0.411887 -1.83535 0
M  V30 2279 O 216.811 0.630587 -1.6998 0
M  V30 2280 C 216.859 -2.83977 -2.22238 0
M  V30 2281 O 215.963 -2.495 -3.28365 0
M  V30 2282 H 215.304 -0.567103 -0.345384 0
M  V30 2283 H 217.834 -1.98879 -0.480445 0
M  V30 2284 H 217.844 -3.0887 -2.66577 0
M  V30 2285 H 216.519 -3.77685 -1.74146 0
M  V30 2286 H 215.096 -2.35277 -2.89308 0
M  V30 2287 N 217.281 0.66697 -1.42791 0
M  V30 2288 C 218.528 1.42699 -1.43678 0
M  V30 2289 C 218.856 1.94419 -0.0560425 0
M  V30 2290 O 218.111 1.7182 0.936831 0
M  V30 2291 C 218.41 2.6349 -2.4147 0
M  V30 2292 C 218.076 2.30267 -3.8767 0
M  V30 2293 C 216.738 2.20918 -4.27491 0
M  V30 2294 C 219.09 2.03435 -4.79858 0
M  V30 2295 C 216.418 1.82873 -5.57471 0
M  V30 2296 C 218.77 1.66892 -6.10188 0
M  V30 2297 C 217.434 1.56058 -6.49001 0
M  V30 2298 H 216.704 0.522171 -0.525755 0
M  V30 2299 H 219.351 0.759785 -1.75783 0
M  V30 2300 H 217.656 3.35279 -2.0272 0
M  V30 2301 H 219.353 3.21684 -2.39417 0
M  V30 2302 H 215.943 2.38449 -3.56146 0
M  V30 2303 H 220.127 2.09586 -4.49875 0
M  V30 2304 H 215.383 1.7306 -5.86396 0
M  V30 2305 H 219.557 1.45157 -6.81104 0
M  V30 2306 H 217.184 1.26348 -7.49627 0
M  V30 2307 N 218.759 1.29093 0.90403 0
M  V30 2308 C 220.006 1.16813 1.65411 0
M  V30 2309 C 220.334 -0.28128 1.92455 0
M  V30 2310 O 219.589 -1.22006 1.53013 0
M  V30 2311 C 219.888 1.92224 3.01305 0
M  V30 2312 C 219.554 3.41968 2.93885 0
M  V30 2313 C 218.216 3.82807 2.91569 0
M  V30 2314 C 220.568 4.37409 2.83413 0
M  V30 2315 C 217.896 5.1741 2.76594 0
M  V30 2316 C 220.248 5.72097 2.69977 0
M  V30 2317 C 218.912 6.12199 2.66024 0
M  V30 2318 H 218.182 0.42745 0.605283 0
M  V30 2319 H 220.829 1.59981 1.05254 0
M  V30 2320 H 219.134 1.41635 3.65304 0
M  V30 2321 H 220.831 1.80131 3.58265 0
M  V30 2322 H 217.421 3.09504 2.96488 0
M  V30 2323 H 221.605 4.06813 2.84283 0
M  V30 2324 H 216.861 5.47596 2.71935 0
M  V30 2325 H 221.035 6.45704 2.60844 0
M  V30 2326 H 218.662 7.16448 2.54178 0
M  V30 2327 N 220.237 -1.11381 1.11499 0
M  V30 2328 C 221.484 -1.83132 0.864231 0
M  V30 2329 C 221.812 -1.84683 -0.610114 0
M  V30 2330 O 221.067 -1.29589 -1.46646 0
M  V30 2331 C 221.366 -3.30026 1.37177 0
M  V30 2332 C 221.032 -3.48634 2.85946 0
M  V30 2333 C 219.694 -3.53421 3.26569 0
M  V30 2334 C 222.046 -3.54837 3.81759 0
M  V30 2335 C 219.374 -3.61967 4.61733 0
M  V30 2336 C 221.726 -3.64915 5.1674 0
M  V30 2337 C 220.39 -3.67962 5.5692 0
M  V30 2338 H 219.66 -0.670127 0.316245 0
M  V30 2339 H 222.307 -1.31354 1.3935 0
M  V30 2340 H 220.612 -3.84304 0.762753 0
M  V30 2341 H 222.309 -3.84034 1.15408 0
M  V30 2342 H 218.899 -3.45579 2.53521 0
M  V30 2343 H 223.083 -3.50399 3.51474 0
M  V30 2344 H 218.339 -3.62603 4.92269 0
M  V30 2345 H 222.513 -3.68658 5.90816 0
M  V30 2346 H 220.14 -3.74336 6.61647 0
M  V30 2347 N 221.715 -0.905404 -1.28997 0
M  V30 2348 C 222.678 -0.392253 -2.25819 0
M  V30 2349 C 223.678 0.476753 -1.5357 0
M  V30 2350 O 224.868 0.280994 -1.71919 0
M  V30 2351 C 222 0.438588 -3.38067 0
M  V30 2352 H 223.193 -1.24743 -2.72725 0
M  V30 2353 H 220.746 -0.684051 -1.40536 0
M  V30 2354 H 221.481 1.31352 -2.96508 0
M  V30 2355 H 221.266 -0.184167 -3.91667 0
M  V30 2356 H 222.756 0.78873 -4.10084 0
M  V30 2357 N 223.193 1.4272 -0.668489 0
M  V30 2358 C 224.441 2.01226 -0.187769 0
M  V30 2359 C 224.762 1.53092 1.2078 0
M  V30 2360 O 224.032 0.74993 1.80977 0
M  V30 2361 H 222.612 0.744041 -0.0664272 0
M  V30 2362 H 225.274 1.74723 -0.863583 0
M  V30 2363 H 224.37 3.11556 -0.184166 0
M  V30 2364 N 224.671 0.411399 1.52136 0
M  V30 2365 C 225.899 -0.163076 2.06256 0
M  V30 2366 C 226.314 -1.3867 1.28125 0
M  V30 2367 O 225.671 -1.79423 0.333721 0
M  V30 2368 C 225.722 -0.511252 3.57867 0
M  V30 2369 O 225.443 0.66378 4.33042 0
M  V30 2370 C 226.944 -1.13921 4.28412 0
M  V30 2371 H 224.164 -0.0193897 0.67072 0
M  V30 2372 H 226.708 0.583007 1.96013 0
M  V30 2373 H 224.863 -1.20723 3.6811 0
M  V30 2374 H 225.277 0.372601 5.23175 0
M  V30 2375 H 226.751 -1.33302 5.35663 0
M  V30 2376 H 227.228 -2.11296 3.85033 0
M  V30 2377 H 227.834 -0.483373 4.22544 0
M  V30 2378 N 226.149 -1.5696 0.141893 0
M  V30 2379 C 227.395 -1.9625 -0.511248 0
M  V30 2380 C 227.728 -1.02654 -1.64851 0
M  V30 2381 O 227.003 -0.0679676 -1.94381 0
M  V30 2382 C 227.286 -3.45285 -1.02227 0
M  V30 2383 C 227.139 -4.49658 0.113138 0
M  V30 2384 C 228.458 -3.96698 -1.90574 0
M  V30 2385 H 225.577 -0.713567 -0.184367 0
M  V30 2386 H 228.219 -1.88698 0.222087 0
M  V30 2387 H 226.369 -3.51852 -1.64719 0
M  V30 2388 H 228.041 -4.55174 0.749302 0
M  V30 2389 H 226.284 -4.26857 0.773026 0
M  V30 2390 H 226.955 -5.51258 -0.286053 0
M  V30 2391 H 229.431 -3.92578 -1.37918 0
M  V30 2392 H 228.307 -5.01453 -2.2324 0
M  V30 2393 H 228.568 -3.3875 -2.84079 0
M  V30 2394 N 227.627 0.131896 -1.57047 0
M  V30 2395 C 228.876 0.84044 -1.83356 0
M  V30 2396 C 229.189 1.81646 -0.725535 0
M  V30 2397 O 230.395 2.57025 -0.874659 0
M  V30 2398 C 228.851 1.54528 -3.25037 0
M  V30 2399 C 228.459 0.610902 -4.43815 0
M  V30 2400 C 230.203 2.23972 -3.60606 0
M  V30 2401 C 228.11 1.31823 -5.76521 0
M  V30 2402 H 227.04 0.317599 -0.683847 0
M  V30 2403 H 229.691 0.0931561 -1.83263 0
M  V30 2404 H 228.073 2.33873 -3.19561 0
M  V30 2405 H 229.247 -0.148407 -4.60561 0
M  V30 2406 H 227.562 0.0241016 -4.16393 0
M  V30 2407 H 230.159 2.77558 -4.57018 0
M  V30 2408 H 230.502 3.01173 -2.87403 0
M  V30 2409 H 231.035 1.51529 -3.6781 0
M  V30 2410 H 227.774 0.587771 -6.52859 0
M  V30 2411 H 227.294 2.04987 -5.63685 0
M  V30 2412 H 228.973 1.855 -6.19838 0
M  V30 2413 N 229.106 1.52395 0.401703 0
M  V30 2414 C 230.334 1.70676 1.16949 0
M  V30 2415 C 230.749 0.419503 1.8408 0
M  V30 2416 O 230.106 -0.605061 1.72178 0
M  V30 2417 C 230.157 2.84753 2.22706 0
M  V30 2418 O 229.878 4.08495 1.58314 0
M  V30 2419 C 231.379 3.14608 3.12309 0
M  V30 2420 H 228.599 0.571787 0.351142 0
M  V30 2421 H 231.143 1.98987 0.471652 0
M  V30 2422 H 229.298 2.58941 2.88147 0
M  V30 2423 H 229.712 4.72117 2.28485 0
M  V30 2424 H 231.186 3.97923 3.82572 0
M  V30 2425 H 231.663 2.28464 3.75101 0
M  V30 2426 H 232.269 3.42212 2.52529 0
M  V30 2427 N 230.584 -0.659388 1.43143 0
M  V30 2428 C 231.812 -1.44723 1.47861 0
M  V30 2429 C 232.227 -1.88563 0.0945886 0
M  V30 2430 O 231.584 -1.59108 -0.893915 0
M  V30 2431 C 231.635 -2.68627 2.41913 0
M  V30 2432 O 231.356 -2.26623 3.74932 0
M  V30 2433 C 232.857 -3.62045 2.55809 0
M  V30 2434 H 230.077 -0.444801 0.502387 0
M  V30 2435 H 232.621 -0.808916 1.87821 0
M  V30 2436 H 230.776 -3.28613 2.05164 0
M  V30 2437 H 231.19 -3.06745 4.2545 0
M  V30 2438 H 232.664 -4.45666 3.25708 0
M  V30 2439 H 233.141 -4.08981 1.60099 0
M  V30 2440 H 233.747 -3.07944 2.93344 0
M  V30 2441 N 232.062 -1.29571 -0.897171 0
M  V30 2442 C 233.311 -1.1706 -1.64256 0
M  V30 2443 C 233.624 0.276476 -1.93636 0
M  V30 2444 O 234.83 0.52294 -2.66416 0
M  V30 2445 C 233.286 -2.0475 -2.95982 0
M  V30 2446 C 232.894 -3.54295 -2.74187 0
M  V30 2447 C 234.638 -2.0097 -3.73914 0
M  V30 2448 C 232.545 -4.34081 -4.01656 0
M  V30 2449 H 231.475 -0.43452 -0.616205 0
M  V30 2450 H 234.126 -1.54229 -0.994268 0
M  V30 2451 H 232.508 -1.60452 -3.62038 0
M  V30 2452 H 233.682 -4.06662 -2.1671 0
M  V30 2453 H 231.997 -3.59773 -2.09648 0
M  V30 2454 H 234.594 -2.57838 -4.68427 0
M  V30 2455 H 234.937 -0.990273 -4.0435 0
M  V30 2456 H 235.47 -2.43325 -3.14703 0
M  V30 2457 H 232.209 -5.36671 -3.76384 0
M  V30 2458 H 231.729 -3.86483 -4.58684 0
M  V30 2459 H 233.408 -4.44877 -4.69781 0
M  V30 2460 N 233.54 1.10788 -1.12088 0
M  V30 2461 C 234.788 1.8231 -0.872205 0
M  V30 2462 C 235.109 1.85419 0.603709 0
M  V30 2463 O 234.379 1.32963 1.43867 0
M  V30 2464 H 232.959 0.675137 -0.319686 0
M  V30 2465 H 235.621 1.34068 -1.41463 0
M  V30 2466 H 234.717 2.85955 -1.25045 0
M  V30 2467 N 235.018 0.912232 1.28515 0
M  V30 2468 C 236.265 0.544599 1.95039 0
M  V30 2469 C 236.593 -0.911435 1.71823 0
M  V30 2470 O 235.848 -1.66317 1.03137 0
M  V30 2471 C 236.147 0.798392 3.48368 0
M  V30 2472 C 235.813 2.23374 3.91682 0
M  V30 2473 C 234.475 2.62617 4.03219 0
M  V30 2474 C 236.827 3.16786 4.13879 0
M  V30 2475 C 234.155 3.94429 4.3433 0
M  V30 2476 C 236.507 4.48161 4.46469 0
M  V30 2477 C 235.171 4.8726 4.56217 0
M  V30 2478 H 234.441 0.199283 0.7137 0
M  V30 2479 H 237.088 1.15327 1.52879 0
M  V30 2480 H 235.393 0.106908 3.91654 0
M  V30 2481 H 237.09 0.493141 3.97956 0
M  V30 2482 H 233.68 1.91922 3.83228 0
M  V30 2483 H 237.864 2.87677 4.0442 0
M  V30 2484 H 233.12 4.24426 4.40082 0
M  V30 2485 H 237.294 5.20559 4.62592 0
M  V30 2486 H 234.921 5.89431 4.80078 0
M  V30 2487 N 236.496 -1.42363 0.676048 0
M  V30 2488 C 237.744 -2.01123 0.198437 0
M  V30 2489 C 238.065 -1.53731 -1.19966 0
M  V30 2490 O 237.335 -0.759518 -1.80577 0
M  V30 2491 H 235.915 -0.743678 0.0703721 0
M  V30 2492 H 238.577 -1.74263 0.872837 0
M  V30 2493 H 237.673 -3.11454 0.200686 0
M  V30 2494 N 237.974 -0.419461 -1.51915 0
M  V30 2495 C 238.922 0.415502 -2.28859 0
M  V30 2496 C 239.916 1.03674 -1.3397 0
M  V30 2497 O 241.122 0.973757 -1.51387 0
M  V30 2498 H 237.497 0.152786 -0.736315 0
M  V30 2499 H 239.468 -0.254531 -2.97312 0
M  V30 2500 C 238.217 1.51425 -3.12995 0
M  V30 2501 H 237.54 1.04556 -3.85886 0
M  V30 2502 H 238.98 2.07208 -3.6992 0
M  V30 2503 C 237.439 2.48745 -2.27217 0
M  V30 2504 O 237.969 3.52871 -1.9195 0
M  V30 2505 N 236.175 2.19202 -1.90785 0
M  V30 2506 H 235.722 1.34556 -2.19664 0
M  V30 2507 H 235.68 2.84561 -1.33687 0
M  V30 2508 N 239.452 1.56882 -0.150215 0
M  V30 2509 C 240.701 1.95403 0.500071 0
M  V30 2510 C 241.014 1.03777 1.658 0
M  V30 2511 O 242.22 1.31889 2.37313 0
M  V30 2512 C 240.676 3.4738 0.941018 0
M  V30 2513 C 240.284 4.47596 -0.190158 0
M  V30 2514 C 242.028 3.9476 1.56091 0
M  V30 2515 C 239.935 5.90787 0.269237 0
M  V30 2516 H 238.865 0.729515 0.190588 0
M  V30 2517 H 241.516 1.81988 -0.235074 0
M  V30 2518 H 239.898 3.56138 1.73152 0
M  V30 2519 H 241.072 4.50536 -0.967157 0
M  V30 2520 H 239.387 4.10151 -0.718666 0
M  V30 2521 H 241.984 4.99181 1.9163 0
M  V30 2522 H 242.327 3.36494 2.45107 0
M  V30 2523 H 242.86 3.88932 0.835249 0
M  V30 2524 H 239.599 6.52879 -0.585621 0
M  V30 2525 H 239.119 5.912 1.01204 0
M  V30 2526 H 240.798 6.42979 0.720176 0
M  V30 2527 N 240.93 -0.123565 1.57115 0
M  V30 2528 C 242.155 -0.850398 1.89164 0
M  V30 2529 C 242.58 -1.7286 0.741688 0
M  V30 2530 O 241.938 -1.78665 -0.307958 0
M  V30 2531 C 241.986 -1.66353 3.19936 0
M  V30 2532 O 241.09 -2.77004 3.0552 0
M  V30 2533 H 240.431 -0.235454 0.620852 0
M  V30 2534 H 242.961 -0.107335 2.04318 0
M  V30 2535 H 242.971 -2.05372 3.52543 0
M  V30 2536 H 241.646 -1.01881 4.03228 0
M  V30 2537 H 240.223 -2.41221 2.84371 0
M  V30 2538 N 242.408 -1.52605 -0.393616 0
M  V30 2539 C 243.819 -1.59417 -0.971761 0
M  V30 2540 C 244.17 -0.444173 -1.91106 0
M  V30 2541 O 243.295 0.433382 -2.12016 0
M  V30 2542 C 243.89 -2.88936 -1.76921 0
M  V30 2543 C 242.449 -2.98175 -2.29714 0
M  V30 2544 C 241.596 -2.54491 -1.10135 0
M  V30 2545 H 244.547 -1.57751 -0.173317 0
M  V30 2546 H 244.568 -2.75163 -2.62804 0
M  V30 2547 H 244.08 -3.72616 -1.08532 0
M  V30 2548 H 242.181 -2.19024 -3.01429 0
M  V30 2549 H 242.294 -4.02726 -2.59517 0
M  V30 2550 H 240.658 -2.08702 -1.45999 0
M  V30 2551 H 241.441 -3.4056 -0.432874 0
M  V30 2552 N 243.887 0.651787 -1.4349 0
M  V30 2553 C 245.303 0.96762 -1.26922 0
M  V30 2554 C 245.503 2.00602 -0.189982 0
M  V30 2555 O 244.559 2.48793 0.431107 0
M  V30 2556 C 245.872 1.45052 -2.63401 0
M  V30 2557 C 247.42 1.5671 -2.70945 0
M  V30 2558 C 247.895 2.0839 -4.07845 0
M  V30 2559 N 249.386 2.1569 -4.09917 0
M  V30 2560 C 250.121 2.56804 -5.12679 0
M  V30 2561 N 249.617 2.97203 -6.25813 0
M  V30 2562 N 251.41 2.56756 -5.00033 0
M  V30 2563 H 243.561 -0.0353158 -2.12371 0
M  V30 2564 H 245.824 0.0467858 -0.946845 0
M  V30 2565 H 245.53 0.761926 -3.43348 0
M  V30 2566 H 245.404 2.42529 -2.88894 0
M  V30 2567 H 247.791 2.2467 -1.9133 0
M  V30 2568 H 247.872 0.57662 -2.49216 0
M  V30 2569 H 247.516 1.41031 -4.87927 0
M  V30 2570 H 247.446 3.08271 -4.26938 0
M  V30 2571 H 249.937 1.87237 -3.28254 0
M  V30 2572 H 250.25 3.27328 -7.00055 0
M  V30 2573 H 248.595 2.95004 -6.29283 0
M  V30 2574 H 251.786 2.24572 -4.10713 0
M  V30 2575 H 251.959 2.88475 -5.80247 0
M  V30 2576 N 245.365 1.30045 0.890287 0
M  V30 2577 C 246.593 1.21472 1.67487 0
M  V30 2578 C 247.008 -0.223241 1.87476 0
M  V30 2579 O 246.365 -1.14828 1.41847 0
M  V30 2580 C 246.416 1.93394 3.05419 0
M  V30 2581 O 246.137 3.31576 2.86337 0
M  V30 2582 C 247.638 1.91414 3.99844 0
M  V30 2583 H 244.858 0.420604 0.522813 0
M  V30 2584 H 247.402 1.7158 1.11268 0
M  V30 2585 H 245.557 1.47099 3.58386 0
M  V30 2586 H 245.971 3.67929 3.73802 0
M  V30 2587 H 247.445 2.46285 4.94012 0
M  V30 2588 H 247.922 0.891833 4.3005 0
M  V30 2589 H 248.528 2.37496 3.52811 0
M  V30 2590 N 246.843 -1.10192 1.12674 0
M  V30 2591 C 247.753 -2.20172 0.810026 0
M  V30 2592 C 248.769 -1.72821 -0.202188 0
M  V30 2593 O 249.945 -2.01369 -0.0351691 0
M  V30 2594 C 247.01 -3.45631 0.272007 0
M  V30 2595 C 246.071 -4.07704 1.34447 0
M  V30 2596 C 245.304 -5.27175 0.832029 0
M  V30 2597 O 245.527 -5.69425 -0.333284 0
M  V30 2598 O 244.461 -5.80168 1.60277 0
M  V30 2599 H 248.287 -2.49701 1.72867 0
M  V30 2600 H 245.872 -1.18977 0.903597 0
M  V30 2601 H 247.754 -4.21394 -0.0230219 0
M  V30 2602 H 246.429 -3.17723 -0.619164 0
M  V30 2603 H 245.336 -3.33614 1.6927 0
M  V30 2604 H 246.669 -4.3982 2.2095 0
M  V30 2605 N 248.321 -0.919034 -1.28029 0
M  V30 2606 C 249.569 -0.553838 -1.94363 0
M  V30 2607 C 249.89 0.906357 -1.72656 0
M  V30 2608 O 249.16 1.64143 -1.0693 0
M  V30 2609 H 247.74 -0.201834 -0.719216 0
M  V30 2610 H 250.402 -1.16954 -1.55909 0
M  V30 2611 H 249.498 -0.752758 -3.02886 0
M  V30 2612 N 249.799 1.42003 -0.683588 0
M  V30 2613 C 251.047 2.01015 -0.209101 0
M  V30 2614 C 251.368 1.54365 1.19149 0
M  V30 2615 O 250.638 0.769083 1.80172 0
M  V30 2616 H 249.218 0.743294 -0.074315 0
M  V30 2617 H 251.88 1.73798 -0.882066 0
M  V30 2618 H 250.976 3.11343 -0.2172 0
M  V30 2619 N 251.277 0.427512 1.51691 0
M  V30 2620 C 252.224 -0.388867 2.275 0
M  V30 2621 C 253.194 -1.02532 1.30677 0
M  V30 2622 O 254.379 -1.0461 1.59566 0
M  V30 2623 C 251.519 -1.48954 3.11298 0
M  V30 2624 C 250.632 -0.872194 4.23104 0
M  V30 2625 C 249.767 -1.94709 4.94228 0
M  V30 2626 C 248.806 -1.30766 5.97969 0
M  V30 2627 N 247.943 -2.32349 6.62539 0
M  V30 2628 H 252.783 0.263997 2.96828 0
M  V30 2629 H 250.32 0.142033 1.46413 0
M  V30 2630 H 252.278 -2.13887 3.58201 0
M  V30 2631 H 250.908 -2.11217 2.44105 0
M  V30 2632 H 249.96 -0.111419 3.80237 0
M  V30 2633 H 251.272 -0.365264 4.97461 0
M  V30 2634 H 250.426 -2.67327 5.44629 0
M  V30 2635 H 249.165 -2.48773 4.1948 0
M  V30 2636 H 248.17 -0.566902 5.4687 0
M  V30 2637 H 249.395 -0.774483 6.74669 0
M  V30 2638 H 247.341 -2.85511 5.90609 0
M  V30 2639 H 247.258 -1.8652 7.3263 0
M  V30 2640 H 248.526 -3.04481 7.17574 0
M  V30 2641 N 252.755 -1.56801 0.158532 0
M  V30 2642 C 254.004 -1.95665 -0.489702 0
M  V30 2643 C 254.317 -1.04654 -1.65248 0
M  V30 2644 O 255.523 -1.33146 -2.3661 0
M  V30 2645 C 253.979 -3.47874 -0.922582 0
M  V30 2646 C 253.587 -4.47489 0.213893 0
M  V30 2647 C 255.331 -3.95583 -1.53996 0
M  V30 2648 C 253.238 -5.90921 -0.237903 0
M  V30 2649 H 252.168 -0.730516 -0.186716 0
M  V30 2650 H 254.819 -1.81861 0.244722 0
M  V30 2651 H 253.201 -3.57051 -1.71261 0
M  V30 2652 H 254.375 -4.50017 0.991036 0
M  V30 2653 H 252.69 -4.09764 0.740407 0
M  V30 2654 H 255.287 -5.0019 -1.8898 0
M  V30 2655 H 255.63 -3.37789 -2.43319 0
M  V30 2656 H 256.163 -3.8937 -0.814611 0
M  V30 2657 H 252.902 -6.52559 0.620236 0
M  V30 2658 H 252.422 -5.91729 -0.980676 0
M  V30 2659 H 254.101 -6.43352 -0.686067 0
M  V30 2660 N 254.233 0.115231 -1.57178 0
M  V30 2661 C 255.48 0.822351 -1.8505 0
M  V30 2662 C 255.808 1.79701 -0.744168 0
M  V30 2663 O 255.063 1.93909 0.26414 0
M  V30 2664 C 255.362 1.60324 -3.19423 0
M  V30 2665 C 255.028 0.772536 -4.44233 0
M  V30 2666 C 253.69 0.543468 -4.78121 0
M  V30 2667 C 256.042 0.193746 -5.2084 0
M  V30 2668 C 253.37 -0.274583 -5.86057 0
M  V30 2669 C 255.722 -0.611517 -6.29637 0
M  V30 2670 C 254.386 -0.850867 -6.62055 0
M  V30 2671 H 253.656 0.30092 -0.677147 0
M  V30 2672 H 256.303 0.0845802 -1.91313 0
M  V30 2673 H 254.608 2.41203 -3.08753 0
M  V30 2674 H 256.305 2.1544 -3.38211 0
M  V30 2675 H 252.895 0.96117 -4.17683 0
M  V30 2676 H 257.079 0.357926 -4.95008 0
M  V30 2677 H 252.335 -0.469206 -6.09597 0
M  V30 2678 H 256.509 -1.06697 -6.88178 0
M  V30 2679 H 254.136 -1.48657 -7.45523 0
M  V30 2680 N 255.711 1.52812 0.385517 0
M  V30 2681 C 256.951 1.69716 1.13911 0
M  V30 2682 C 257.315 0.42962 1.87132 0
M  V30 2683 O 258.516 0.475071 2.64569 0
M  V30 2684 C 256.787 2.90021 2.0886 0
M  V30 2685 S 258.346 3.27531 2.92009 0
M  V30 2686 H 255.164 0.59739 0.385547 0
M  V30 2687 H 257.766 1.90868 0.423061 0
M  V30 2688 H 256.47 3.80493 1.53797 0
M  V30 2689 H 256.001 2.71213 2.84969 0
M  V30 2690 H 258.016 2.77989 4.11019 0
M  V30 2691 N 257.189 -0.644168 1.43834 0
M  V30 2692 C 258.438 -1.39985 1.45214 0
M  V30 2693 C 258.751 -1.95421 0.0835494 0
M  V30 2694 O 259.957 -2.71488 -0.0251748 0
M  V30 2695 C 258.413 -2.53384 2.55587 0
M  V30 2696 C 258.021 -2.04517 3.98594 0
M  V30 2697 C 259.765 -3.30685 2.66172 0
M  V30 2698 C 257.672 -3.1518 5.00416 0
M  V30 2699 H 256.602 -0.526005 0.540218 0
M  V30 2700 H 259.253 -0.694367 1.69855 0
M  V30 2701 H 257.635 -3.26446 2.24163 0
M  V30 2702 H 258.809 -1.38405 4.39523 0
M  V30 2703 H 257.124 -1.40068 3.92135 0
M  V30 2704 H 259.721 -4.13158 3.39418 0
M  V30 2705 H 260.064 -3.79312 1.71546 0
M  V30 2706 H 260.597 -2.64708 2.96942 0
M  V30 2707 H 257.336 -2.71511 5.96625 0
M  V30 2708 H 256.856 -3.79974 4.64091 0
M  V30 2709 H 258.535 -3.80166 5.23529 0
M  V30 2710 N 258.668 -1.30515 -0.883378 0
M  V30 2711 C 259.917 -1.18795 -1.63005 0
M  V30 2712 C 260.23 0.255923 -1.93919 0
M  V30 2713 O 261.436 0.494654 -2.66956 0
M  V30 2714 C 259.892 -2.07878 -2.93794 0
M  V30 2715 C 259.5 -3.57184 -2.70414 0
M  V30 2716 C 261.244 -2.04924 -3.71761 0
M  V30 2717 C 259.151 -4.38317 -3.97029 0
M  V30 2718 H 258.081 -0.441031 -0.611562 0
M  V30 2719 H 260.732 -1.55275 -0.977854 0
M  V30 2720 H 259.114 -1.64283 -3.60315 0
M  V30 2721 H 260.288 -4.08937 -2.12384 0
M  V30 2722 H 258.603 -3.61976 -2.0582 0
M  V30 2723 H 261.2 -2.62792 -4.65665 0
M  V30 2724 H 261.543 -1.0331 -4.03277 0
M  V30 2725 H 262.076 -2.46649 -3.12104 0
M  V30 2726 H 258.815 -5.40632 -3.70671 0
M  V30 2727 H 258.335 -3.91326 -4.54559 0
M  V30 2728 H 260.014 -4.49834 -4.65036 0
M  V30 2729 N 260.146 1.09593 -1.13257 0
M  V30 2730 C 261.376 1.85231 -0.915049 0
M  V30 2731 C 261.784 1.81345 0.539498 0
M  V30 2732 O 261.127 1.20664 1.38513 0
M  V30 2733 C 261.189 3.34275 -1.3229 0
M  V30 2734 C 260.853 3.6191 -2.79052 0
M  V30 2735 C 261.85 3.57777 -3.77216 0
M  V30 2736 C 259.535 3.90309 -3.16171 0
M  V30 2737 C 261.529 3.81652 -5.1051 0
M  V30 2738 C 259.216 4.13839 -4.49644 0
M  V30 2739 C 260.214 4.09502 -5.46623 0
M  V30 2740 O 259.902 4.32426 -6.77689 0
M  V30 2741 H 259.634 0.591997 -0.326367 0
M  V30 2742 H 262.188 1.394 -1.50854 0
M  V30 2743 H 260.418 3.80805 -0.672667 0
M  V30 2744 H 262.107 3.9132 -1.07812 0
M  V30 2745 H 262.873 3.35865 -3.49885 0
M  V30 2746 H 258.752 3.92811 -2.41289 0
M  V30 2747 H 262.296 3.78182 -5.86195 0
M  V30 2748 H 258.193 4.35232 -4.767 0
M  V30 2749 H 258.961 4.49896 -6.83766 0
M  V30 2750 N 261.624 0.925811 1.2754 0
M  V30 2751 C 262.587 0.428129 2.25166 0
M  V30 2752 C 263.587 -0.452261 1.54309 0
M  V30 2753 O 264.777 -0.253608 1.72344 0
M  V30 2754 C 261.909 -0.384749 3.38722 0
M  V30 2755 H 263.102 1.29066 2.70706 0
M  V30 2756 H 260.655 0.706323 1.3943 0
M  V30 2757 H 261.39 -1.26618 2.98561 0
M  V30 2758 H 261.175 0.246454 3.91325 0
M  V30 2759 H 262.665 -0.723389 4.11287 0
M  V30 2760 N 263.102 -1.41638 0.69111 0
M  V30 2761 C 264.032 -2.3347 0.037248 0
M  V30 2762 C 265.013 -1.51575 -0.771947 0
M  V30 2763 O 266.198 -1.80126 -0.72582 0
M  V30 2764 C 263.328 -3.35354 -0.903064 0
M  V30 2765 C 262.282 -4.27526 -0.201288 0
M  V30 2766 C 261.608 -5.19747 -1.25565 0
M  V30 2767 C 262.908 -5.13959 0.929689 0
M  V30 2768 H 264.602 -2.88397 0.804227 0
M  V30 2769 H 262.148 -1.38669 0.388189 0
M  V30 2770 H 264.101 -3.98519 -1.36969 0
M  V30 2771 H 262.825 -2.78767 -1.70166 0
M  V30 2772 H 261.484 -3.65779 0.245265 0
M  V30 2773 H 261.132 -4.59479 -2.04666 0
M  V30 2774 H 260.832 -5.8225 -0.791128 0
M  V30 2775 H 262.356 -5.85789 -1.72288 0
M  V30 2776 H 263.77 -5.70718 0.543546 0
M  V30 2777 H 262.167 -5.85379 1.32103 0
M  V30 2778 H 263.237 -4.51389 1.77133 0
M  V30 2779 N 264.58 -0.43555 -1.51462 0
M  V30 2780 C 265.51 0.367376 -2.30592 0
M  V30 2781 C 266.491 1.02263 -1.35928 0
M  V30 2782 O 267.676 1.02661 -1.64847 0
M  V30 2783 C 264.806 1.46983 -3.14664 0
M  V30 2784 C 263.76 0.938161 -4.17591 0
M  V30 2785 C 263.086 2.13622 -4.90173 0
M  V30 2786 C 264.386 -0.0261621 -5.22293 0
M  V30 2787 H 266.08 -0.292969 -2.97963 0
M  V30 2788 H 263.626 -0.14234 -1.43295 0
M  V30 2789 H 265.579 2.03873 -3.688 0
M  V30 2790 H 264.303 2.15843 -2.4511 0
M  V30 2791 H 262.962 0.391481 -3.64504 0
M  V30 2792 H 262.61 2.81098 -4.17124 0
M  V30 2793 H 262.31 1.78688 -5.59772 0
M  V30 2794 H 263.834 2.7107 -5.47132 0
M  V30 2795 H 265.248 0.452384 -5.71512 0
M  V30 2796 H 263.645 -0.287992 -5.99409 0
M  V30 2797 H 264.715 -0.963391 -4.75233 0
M  V30 2798 N 266.058 1.56714 -0.166846 0
M  V30 2799 C 267.306 1.96358 0.478305 0
M  V30 2800 C 267.627 1.0537 1.6408 0
M  V30 2801 O 266.897 0.119154 1.95537 0
M  V30 2802 H 265.477 0.725065 0.179692 0
M  V30 2803 H 268.139 1.93329 -0.246985 0
M  V30 2804 H 267.235 3.00547 0.841292 0
M  V30 2805 N 267.536 -0.106894 1.57237 0
M  V30 2806 C 268.785 -0.811163 1.8467 0
M  V30 2807 C 269.098 -1.80469 0.754342 0
M  V30 2808 O 270.304 -2.55601 0.915439 0
M  V30 2809 C 268.76 -1.49337 3.27454 0
M  V30 2810 C 268.368 -0.540217 4.44731 0
M  V30 2811 C 270.112 -2.18206 3.64124 0
M  V30 2812 C 268.019 -1.22634 5.78545 0
M  V30 2813 H 266.949 -0.306679 0.688813 0
M  V30 2814 H 269.6 -0.0639887 1.83388 0
M  V30 2815 H 267.982 -2.2876 3.23241 0
M  V30 2816 H 269.156 0.221659 4.60267 0
M  V30 2817 H 267.471 0.042146 4.16379 0
M  V30 2818 H 270.068 -2.70253 4.61376 0
M  V30 2819 H 270.411 -2.96562 2.92158 0
M  V30 2820 H 270.944 -1.45658 3.70174 0
M  V30 2821 H 267.683 -0.483832 6.53712 0
M  V30 2822 H 267.203 -1.95993 5.66874 0
M  V30 2823 H 268.882 -1.75615 6.2271 0
M  V30 2824 N 269.014 -1.53014 -0.377408 0
M  V30 2825 C 270.425 -1.60438 -0.954798 0
M  V30 2826 C 270.776 -0.464418 -1.90624 0
M  V30 2827 O 269.901 0.41087 -2.12464 0
M  V30 2828 C 270.496 -2.90797 -1.73847 0
M  V30 2829 C 269.055 -3.00595 -2.26538 0
M  V30 2830 C 268.202 -2.55645 -1.07429 0
M  V30 2831 H 271.153 -1.57926 -0.156575 0
M  V30 2832 H 271.174 -2.77935 -2.5987 0
M  V30 2833 H 270.686 -3.73746 -1.04574 0
M  V30 2834 H 268.787 -2.22208 -2.99089 0
M  V30 2835 H 268.9 -4.05456 -2.5523 0
M  V30 2836 H 267.264 -2.10239 -1.43777 0
M  V30 2837 H 268.047 -3.41 -0.396728 0
M  V30 2838 N 270.492 0.636531 -1.44174 0
M  V30 2839 C 271.422 1.76003 -1.53444 0
M  V30 2840 C 272.403 1.65619 -0.387841 0
M  V30 2841 O 273.588 1.84461 -0.607257 0
M  V30 2842 C 270.718 3.14511 -1.4731 0
M  V30 2843 C 269.672 3.39677 -2.60391 0
M  V30 2844 C 268.998 4.78159 -2.39308 0
M  V30 2845 C 270.298 3.32772 -4.02567 0
M  V30 2846 H 271.992 1.68501 -2.47483 0
M  V30 2847 H 269.538 0.809237 -1.19111 0
M  V30 2848 H 271.491 3.92878 -1.52397 0
M  V30 2849 H 270.215 3.22783 -0.49785 0
M  V30 2850 H 268.874 2.63688 -2.54684 0
M  V30 2851 H 268.522 4.83128 -1.39988 0
M  V30 2852 H 268.222 4.95956 -3.15122 0
M  V30 2853 H 269.746 5.58762 -2.46205 0
M  V30 2854 H 271.16 4.01051 -4.09672 0
M  V30 2855 H 269.557 3.62104 -4.7854 0
M  V30 2856 H 270.627 2.30669 -4.2652 0
M  V30 2857 N 271.97 1.30982 0.876444 0
M  V30 2858 C 273.217 1.20296 1.62896 0
M  V30 2859 C 273.545 -0.240395 1.93009 0
M  V30 2860 O 272.8 -1.18733 1.55567 0
M  V30 2861 C 273.099 1.98572 2.9716 0
M  V30 2862 C 272.765 3.48125 2.86566 0
M  V30 2863 C 271.427 3.88905 2.83383 0
M  V30 2864 C 273.779 4.43322 2.74071 0
M  V30 2865 C 271.107 5.2316 2.65556 0
M  V30 2866 C 273.459 5.77695 2.57781 0
M  V30 2867 C 272.123 6.17704 2.52979 0
M  V30 2868 H 271.393 0.440193 0.59608 0
M  V30 2869 H 274.04 1.62177 1.01837 0
M  V30 2870 H 272.345 1.49352 3.62217 0
M  V30 2871 H 274.042 1.8769 3.54364 0
M  V30 2872 H 270.632 3.15723 2.89856 0
M  V30 2873 H 274.816 4.12752 2.75589 0
M  V30 2874 H 270.072 5.53241 2.60259 0
M  V30 2875 H 274.246 6.51091 2.47089 0
M  V30 2876 H 271.873 7.21678 2.38924 0
M  V30 2877 N 273.449 -1.08991 1.13837 0
M  V30 2878 C 274.697 -1.80899 0.901098 0
M  V30 2879 C 275.018 -1.86356 -0.574134 0
M  V30 2880 O 274.288 -1.35235 -1.41733 0
M  V30 2881 H 272.868 -0.669966 0.330386 0
M  V30 2882 H 275.53 -1.318 1.43578 0
M  V30 2883 H 274.626 -2.83929 1.29578 0
M  V30 2884 N 274.927 -0.932562 -1.27047 0
M  V30 2885 C 276.174 -0.575559 -1.94148 0
M  V30 2886 C 276.502 0.883984 -1.73251 0
M  V30 2887 O 275.757 1.64655 -1.0577 0
M  V30 2888 C 276.056 -0.853713 -3.47054 0
M  V30 2889 C 275.722 -2.29577 -3.88079 0
M  V30 2890 C 274.384 -2.68999 -3.9899 0
M  V30 2891 C 276.736 -3.23331 -4.08787 0
M  V30 2892 C 274.064 -4.01289 -4.28 0
M  V30 2893 C 276.416 -4.55207 -4.39282 0
M  V30 2894 C 275.08 -4.94457 -4.48407 0
M  V30 2895 H 274.35 -0.210612 -0.710439 0
M  V30 2896 H 276.997 -1.17744 -1.51025 0
M  V30 2897 H 275.302 -0.169204 -3.91434 0
M  V30 2898 H 276.999 -0.55639 -3.97121 0
M  V30 2899 H 273.589 -1.97994 -3.80127 0
M  V30 2900 H 277.773 -2.94074 -3.99793 0
M  V30 2901 H 273.029 -4.31374 -4.33275 0
M  V30 2902 H 277.203 -5.27852 -4.54252 0
M  V30 2903 H 274.83 -5.96994 -4.7064 0
M  V30 2904 N 276.405 1.4127 -0.698611 0
M  V30 2905 C 277.335 2.33447 -0.049629 0
M  V30 2906 C 278.316 1.51982 0.763898 0
M  V30 2907 O 279.501 1.80509 0.716257 0
M  V30 2908 C 276.631 3.35828 0.885267 0
M  V30 2909 C 275.585 4.27627 0.178613 0
M  V30 2910 C 274.911 5.20406 1.22807 0
M  V30 2911 C 276.211 5.13459 -0.956933 0
M  V30 2912 H 277.905 2.87966 -0.81951 0
M  V30 2913 H 275.451 1.38461 -0.395538 0
M  V30 2914 H 277.404 3.9924 1.34854 0
M  V30 2915 H 276.128 2.79666 1.68685 0
M  V30 2916 H 274.787 3.65643 -0.26466 0
M  V30 2917 H 274.435 4.60558 2.02226 0
M  V30 2918 H 274.135 5.82661 0.760239 0
M  V30 2919 H 275.659 5.86695 1.69179 0
M  V30 2920 H 277.073 5.70421 -0.573805 0
M  V30 2921 H 275.47 5.8467 -1.35205 0
M  V30 2922 H 276.54 4.50443 -1.79524 0
M  V30 2923 N 277.883 0.443576 1.51229 0
M  V30 2924 C 278.813 -0.355142 2.30783 0
M  V30 2925 C 279.794 -1.0154 1.36468 0
M  V30 2926 O 280.979 -1.01785 1.65389 0
M  V30 2927 C 278.109 -1.45312 3.15439 0
M  V30 2928 C 277.063 -0.916002 4.18083 0
M  V30 2929 C 276.389 -2.1102 4.91299 0
M  V30 2930 C 277.689 0.0538602 5.22272 0
M  V30 2931 H 279.383 0.308767 2.97804 0
M  V30 2932 H 276.929 0.149937 1.43217 0
M  V30 2933 H 278.882 -2.01914 3.69876 0
M  V30 2934 H 277.606 -2.14541 2.46252 0
M  V30 2935 H 276.265 -0.372145 3.64706 0
M  V30 2936 H 275.913 -2.78882 4.18609 0
M  V30 2937 H 275.613 -1.75717 5.60712 0
M  V30 2938 H 277.137 -2.68164 5.48562 0
M  V30 2939 H 278.551 -0.422069 5.71744 0
M  V30 2940 H 276.948 0.319776 5.99247 0
M  V30 2941 H 278.018 0.98858 4.74716 0
M  V30 2942 N 279.361 -1.56624 0.175154 0
M  V30 2943 C 280.324 -2.16934 -0.739738 0
M  V30 2944 C 281.324 -1.11842 -1.15533 0
M  V30 2945 O 282.514 -1.37335 -1.07167 0
M  V30 2946 C 279.646 -2.75531 -2.00738 0
M  V30 2947 H 280.839 -2.99131 -0.214639 0
M  V30 2948 H 278.392 -1.56123 -0.0744197 0
M  V30 2949 H 279.127 -1.97078 -2.57548 0
M  V30 2950 H 278.912 -3.52444 -1.71831 0
M  V30 2951 H 280.402 -3.21904 -2.66021 0
M  V30 2952 N 280.839 0.0985539 -1.57292 0
M  V30 2953 C 282.087 0.801092 -1.85545 0
M  V30 2954 C 282.408 1.79438 -0.763353 0
M  V30 2955 O 281.678 1.94763 0.21073 0
M  V30 2956 H 280.258 0.29884 -0.684619 0
M  V30 2957 H 282.92 0.0810064 -1.94732 0
M  V30 2958 H 282.016 1.3338 -2.82163 0
M  V30 2959 N 282.317 1.53212 0.369288 0
M  V30 2960 C 283.563 1.69466 1.11397 0
M  V30 2961 C 283.896 0.443257 1.89074 0
M  V30 2962 O 283.171 -0.559386 1.86282 0
M  V30 2963 C 283.454 2.9422 2.07621 0
M  V30 2964 C 283.307 4.29508 1.33577 0
M  V30 2965 C 284.626 3.14565 3.07794 0
M  V30 2966 H 281.745 0.616667 0.403597 0
M  V30 2967 H 284.387 1.85845 0.395179 0
M  V30 2968 H 282.537 2.80387 2.68916 0
M  V30 2969 H 284.209 4.55147 0.750955 0
M  V30 2970 H 282.452 4.29088 0.637618 0
M  V30 2971 H 283.123 5.12926 2.03989 0
M  V30 2972 H 285.599 3.2756 2.56601 0
M  V30 2973 H 284.475 4.03297 3.72348 0
M  V30 2974 H 284.736 2.29675 3.77759 0
M  V30 2975 N 283.795 -0.628877 1.44509 0
M  V30 2976 C 285.043 -1.38565 1.4712 0
M  V30 2977 C 285.364 -1.94712 0.105899 0
M  V30 2978 O 284.634 -1.75912 -0.862079 0
M  V30 2979 H 283.214 -0.514333 0.541729 0
M  V30 2980 H 285.876 -0.740018 1.80305 0
M  V30 2981 H 284.972 -2.21583 2.19789 0
M  V30 2982 N 285.273 -1.31445 -0.869486 0
M  V30 2983 C 286.55 -1.11795 -1.60503 0
M  V30 2984 C 286.93 0.327168 -2.08549 0
M  V30 2985 O 286.278 1.32135 -1.8642 0
M  V30 2986 C 286.488 -2.13258 -2.76265 0
M  V30 2987 C 287.836 -2.45805 -3.46215 0
M  V30 2988 O 288.86 -2.11688 -2.86473 0
M  V30 2989 O 287.719 -3.04228 -4.5399 0
M  V30 2990 H 284.813 -0.430421 -0.706163 0
M  V30 2991 H 287.359 -1.42925 -0.914907 0
M  V30 2992 H 286.131 -3.10461 -2.3818 0
M  V30 2993 H 285.754 -1.83035 -3.52964 0
M  V30 2994 N 286.751 1.08385 -1.14413 0
M  V30 2995 C 287.683 2.1519 -0.789036 0
M  V30 2996 C 288.696 1.61638 0.19417 0
M  V30 2997 O 289.885 1.78479 -0.0275711 0
M  V30 2998 C 286.985 3.38565 -0.15058 0
M  V30 2999 C 286.158 4.21501 -1.16857 0
M  V30 3000 C 285.217 5.23277 -0.553832 0
M  V30 3001 O 284.243 5.56041 -1.21686 0
M  V30 3002 N 285.445 5.76629 0.669296 0
M  V30 3003 H 288.21 2.46257 -1.70814 0
M  V30 3004 H 285.771 1.24198 -1.03858 0
M  V30 3005 H 287.763 4.03777 0.273181 0
M  V30 3006 H 286.333 3.05299 0.671667 0
M  V30 3007 H 285.553 3.52265 -1.76926 0
M  V30 3008 H 286.841 4.73731 -1.85624 0
M  V30 3009 H 286.239 5.52243 1.22654 0
M  V30 3010 H 284.796 6.43521 1.03556 0
M  V30 3011 N 288.23 0.939286 1.26551 0
M  V30 3012 C 289.16 0.465044 2.28822 0
M  V30 3013 C 290.141 -0.480692 1.63167 0
M  V30 3014 O 291.326 -0.382955 1.90387 0
M  V30 3015 C 288.456 -0.27234 3.46231 0
M  V30 3016 C 287.41 0.58666 4.2396 0
M  V30 3017 C 286.736 -0.280573 5.33963 0
M  V30 3018 C 288.036 1.85704 4.88171 0
M  V30 3019 H 289.73 1.31979 2.68741 0
M  V30 3020 H 287.276 0.636061 1.29191 0
M  V30 3021 H 289.229 -0.615133 4.16886 0
M  V30 3022 H 287.953 -1.16121 3.0526 0
M  V30 3023 H 286.612 0.91232 3.55067 0
M  V30 3024 H 286.26 -1.16874 4.89234 0
M  V30 3025 H 285.96 0.29076 5.8688 0
M  V30 3026 H 287.484 -0.618678 6.07458 0
M  V30 3027 H 288.898 1.58161 5.51052 0
M  V30 3028 H 287.295 2.37279 5.51197 0
M  V30 3029 H 288.365 2.56957 4.11219 0
M  V30 3030 N 289.708 -1.40897 0.706093 0
M  V30 3031 C 290.956 -2.00657 0.241054 0
M  V30 3032 C 291.277 -1.56241 -1.16678 0
M  V30 3033 O 290.547 -0.79765 -1.78926 0
M  V30 3034 H 289.127 -0.742018 0.0861308 0
M  V30 3035 H 291.789 -1.72372 0.909604 0
M  V30 3036 H 290.885 -3.10958 0.266705 0
M  V30 3037 N 291.186 -0.45159 -1.50991 0
M  V30 3038 C 292.414 0.108334 -2.06616 0
M  V30 3039 C 292.829 1.35224 -1.31757 0
M  V30 3040 O 292.186 1.78475 -0.381174 0
M  V30 3041 C 292.237 0.41619 -3.59096 0
M  V30 3042 O 291.958 -0.778361 -4.3113 0
M  V30 3043 C 293.459 1.02523 -4.31282 0
M  V30 3044 H 290.679 0.00159995 -0.670998 0
M  V30 3045 H 293.223 -0.634771 -1.94399 0
M  V30 3046 H 291.378 1.10921 -3.71181 0
M  V30 3047 H 291.792 -0.511181 -5.22003 0
M  V30 3048 H 293.266 1.19053 -5.39009 0
M  V30 3049 H 293.743 2.01013 -3.905 0
M  V30 3050 H 294.349 0.371173 -4.23677 0
M  V30 3051 N 292.664 1.56529 -0.183458 0
M  V30 3052 C 293.913 1.96419 0.458511 0
M  V30 3053 C 294.226 1.0727 1.63562 0
M  V30 3054 O 295.432 1.36893 2.34462 0
M  V30 3055 C 293.888 3.49298 0.867122 0
M  V30 3056 C 293.496 4.47092 -0.285057 0
M  V30 3057 C 295.24 3.97983 1.47683 0
M  V30 3058 C 293.147 5.91225 0.143862 0
M  V30 3059 H 292.077 0.733394 0.175071 0
M  V30 3060 H 294.728 1.81448 -0.273624 0
M  V30 3061 H 293.11 3.59731 1.65559 0
M  V30 3062 H 294.284 4.48383 -1.0625 0
M  V30 3063 H 292.599 4.08535 -0.805503 0
M  V30 3064 H 295.196 5.03134 1.80999 0
M  V30 3065 H 295.539 3.41618 2.37914 0
M  V30 3066 H 296.072 3.90617 0.752562 0
M  V30 3067 H 292.811 6.5149 -0.723974 0
M  V30 3068 H 292.331 5.93214 0.886413 0
M  V30 3069 H 294.01 6.44362 0.583628 0
M  V30 3070 N 294.142 -0.090211 1.57342 0
M  V30 3071 C 295.389 -0.792807 1.86335 0
M  V30 3072 C 295.717 -1.78494 0.772662 0
M  V30 3073 O 294.972 -1.94305 -0.233258 0
M  V30 3074 C 295.271 -1.55222 3.21933 0
M  V30 3075 C 294.937 -0.701765 4.45406 0
M  V30 3076 C 293.599 -0.467334 4.78925 0
M  V30 3077 C 295.951 -0.11086 5.21082 0
M  V30 3078 C 293.279 0.367785 5.85546 0
M  V30 3079 C 295.631 0.711609 6.28585 0
M  V30 3080 C 294.295 0.956086 6.60617 0
M  V30 3081 H 293.565 -0.290109 0.681849 0
M  V30 3082 H 296.212 -0.0541332 1.91423 0
M  V30 3083 H 294.517 -2.3626 3.12551 0
M  V30 3084 H 296.214 -2.10032 3.41595 0
M  V30 3085 H 292.804 -0.894598 4.1916 0
M  V30 3086 H 296.988 -0.279129 4.95514 0
M  V30 3087 H 292.244 0.566128 6.08773 0
M  V30 3088 H 296.418 1.17632 6.86393 0
M  V30 3089 H 294.045 1.60499 7.43064 0
M  V30 3090 N 295.62 -1.53406 -0.361157 0
M  V30 3091 C 296.868 -1.69467 -1.10115 0
M  V30 3092 C 297.189 -0.451352 -1.89705 0
M  V30 3093 O 296.459 0.534636 -1.88463 0
M  V30 3094 H 295.039 -0.624749 -0.409508 0
M  V30 3095 H 297.701 -1.90609 -0.406699 0
M  V30 3096 H 296.797 -2.55774 -1.78847 0
M  V30 3097 N 297.098 0.621204 -1.44841 0
M  V30 3098 C 298.045 1.73267 -1.5247 0
M  V30 3099 C 299.015 1.6189 -0.371611 0
M  V30 3100 O 300.2 1.81668 -0.58321 0
M  V30 3101 C 297.34 3.11545 -1.48438 0
M  V30 3102 C 296.453 3.33827 -2.74196 0
M  V30 3103 C 295.588 4.62133 -2.61929 0
M  V30 3104 C 294.627 4.77627 -3.82804 0
M  V30 3105 N 293.764 5.97219 -3.69153 0
M  V30 3106 H 298.604 1.66082 -2.47428 0
M  V30 3107 H 296.141 0.810026 -1.22788 0
M  V30 3108 H 298.099 3.91528 -1.4409 0
M  V30 3109 H 296.729 3.1772 -0.570402 0
M  V30 3110 H 295.781 2.47715 -2.88689 0
M  V30 3111 H 297.093 3.41153 -3.6389 0
M  V30 3112 H 296.247 5.50291 -2.5547 0
M  V30 3113 H 294.986 4.57182 -1.69811 0
M  V30 3114 H 293.991 3.87896 -3.89637 0
M  V30 3115 H 295.216 4.84385 -4.75971 0
M  V30 3116 H 293.162 5.93339 -2.79794 0
M  V30 3117 H 293.079 6.05644 -4.52472 0
M  V30 3118 H 294.347 6.87912 -3.66603 0
M  V30 3119 N 298.576 1.31904 0.862503 0
M  V30 3120 C 299.824 1.21776 1.61292 0
M  V30 3121 C 300.145 -0.222413 1.93727 0
M  V30 3122 O 299.415 -1.1451 1.58947 0
M  V30 3123 H 297.995 0.447717 0.597962 0
M  V30 3124 H 300.657 1.65326 1.03215 0
M  V30 3125 H 299.753 1.7948 2.5533 0
M  V30 3126 N 300.054 -1.07777 1.14986 0
M  V30 3127 C 301.303 -1.79669 0.916617 0
M  V30 3128 C 301.616 -1.87474 -0.557917 0
M  V30 3129 O 302.822 -2.55845 -0.908617 0
M  V30 3130 C 301.278 -3.22848 1.59051 0
M  V30 3131 C 300.886 -3.23257 3.10176 0
M  V30 3132 C 302.63 -3.99379 1.43864 0
M  V30 3133 C 300.537 -4.61063 3.70372 0
M  V30 3134 H 299.467 -0.673349 0.33929 0
M  V30 3135 H 302.118 -1.21003 1.37951 0
M  V30 3136 H 300.5 -3.8168 1.0553 0
M  V30 3137 H 301.674 -2.74095 3.70417 0
M  V30 3138 H 299.989 -2.60222 3.25074 0
M  V30 3139 H 302.586 -5.0122 1.86232 0
M  V30 3140 H 302.929 -4.14511 0.385564 0
M  V30 3141 H 303.462 -3.47032 1.94457 0
M  V30 3142 H 300.201 -4.51135 4.7556 0
M  V30 3143 H 299.721 -5.1048 3.14913 0
M  V30 3144 H 301.4 -5.30034 3.71043 0
M  V30 3145 N 301.532 -0.945985 -1.26051 0
M  V30 3146 C 302.495 -0.463897 -2.24456 0
M  V30 3147 C 303.495 0.427655 -1.55009 0
M  V30 3148 O 304.685 0.226157 -1.72726 0
M  V30 3149 C 301.817 0.330812 -3.39291 0
M  V30 3150 H 303.01 -1.33357 -2.68619 0
M  V30 3151 H 300.563 -0.728416 -1.38289 0
M  V30 3152 H 301.298 1.21852 -3.00537 0
M  V30 3153 H 301.083 -0.308679 -3.90883 0
M  V30 3154 H 302.573 0.657865 -4.12386 0
M  V30 3155 N 303.011 1.40521 -0.713556 0
M  V30 3156 C 303.958 2.30723 -0.059684 0
M  V30 3157 C 304.928 1.48079 0.752448 0
M  V30 3158 O 306.113 1.76823 0.71681 0
M  V30 3159 C 303.253 3.34274 0.857594 0
M  V30 3160 C 302.366 4.31986 0.0351536 0
M  V30 3161 C 301.501 5.22605 0.951724 0
M  V30 3162 C 300.54 6.11976 0.123253 0
M  V30 3163 N 299.677 6.9502 0.99459 0
M  V30 3164 H 304.517 2.86074 -0.834596 0
M  V30 3165 H 302.054 1.40879 -0.42326 0
M  V30 3166 H 304.012 3.92879 1.40364 0
M  V30 3167 H 302.642 2.8043 1.59871 0
M  V30 3168 H 301.694 3.7518 -0.628052 0
M  V30 3169 H 303.006 4.95101 -0.606347 0
M  V30 3170 H 302.16 5.86131 1.56638 0
M  V30 3171 H 300.899 4.59759 1.62705 0
M  V30 3172 H 299.904 5.47482 -0.50435 0
M  V30 3173 H 301.129 6.76881 -0.548539 0
M  V30 3174 H 299.075 6.34764 1.6556 0
M  V30 3175 H 298.992 7.54892 0.40908 0
M  V30 3176 H 300.26 7.62997 1.59549 0
M  V30 3177 N 304.489 0.459591 1.5075 0
M  V30 3178 C 305.735 -0.0994966 2.02556 0
M  V30 3179 C 306.068 -1.40399 1.3417 0
M  V30 3180 O 305.343 -1.88892 0.463683 0
M  V30 3181 C 305.626 -0.295242 3.58888 0
M  V30 3182 C 305.479 1.02947 4.37861 0
M  V30 3183 C 306.798 -1.05502 4.27267 0
M  V30 3184 H 303.917 -0.034686 0.736183 0
M  V30 3185 H 306.559 0.602938 1.8018 0
M  V30 3186 H 304.709 -0.893563 3.78084 0
M  V30 3187 H 306.381 1.66348 4.30263 0
M  V30 3188 H 304.624 1.62885 4.02058 0
M  V30 3189 H 305.295 0.846281 5.45474 0
M  V30 3190 H 307.771 -0.547993 4.12476 0
M  V30 3191 H 306.647 -1.16077 5.36486 0
M  V30 3192 H 306.908 -2.08875 3.89645 0
M  V30 3193 N 305.967 -1.56429 0.191757 0
M  V30 3194 C 306.877 -2.22541 -0.742481 0
M  V30 3195 C 307.893 -1.22342 -1.23727 0
M  V30 3196 O 309.069 -1.55069 -1.28513 0
M  V30 3197 C 306.134 -2.8692 -1.94623 0
M  V30 3198 C 305.195 -4.02378 -1.49633 0
M  V30 3199 C 304.428 -4.63678 -2.6427 0
M  V30 3200 O 304.651 -4.23895 -3.81666 0
M  V30 3201 O 303.585 -5.53202 -2.37174 0
M  V30 3202 H 307.411 -3.02977 -0.209462 0
M  V30 3203 H 304.996 -1.49353 -0.0373832 0
M  V30 3204 H 306.878 -3.27663 -2.64982 0
M  V30 3205 H 305.553 -2.09466 -2.46791 0
M  V30 3206 H 304.46 -3.66265 -0.761636 0
M  V30 3207 H 305.793 -4.81487 -1.02134 0
M  V30 3208 N 307.445 0.0818655 -1.57387 0
M  V30 3209 C 308.722 0.815343 -1.77796 0
M  V30 3210 C 309.102 1.96289 -0.77679 0
M  V30 3211 O 308.45 2.27691 0.192106 0
M  V30 3212 C 308.66 1.29765 -3.23978 0
M  V30 3213 C 310.008 1.7351 -3.8753 0
M  V30 3214 O 311.032 1.39356 -3.27808 0
M  V30 3215 O 309.891 2.36708 -4.92576 0
M  V30 3216 H 306.985 0.389914 -0.729312 0
M  V30 3217 H 309.531 0.0627213 -1.69584 0
M  V30 3218 H 308.303 0.47608 -3.88393 0
M  V30 3219 H 307.926 2.11189 -3.36875 0
M  V30 3220 N 308.923 1.53595 0.353017 0
M  V30 3221 C 310.151 1.74311 1.1146 0
M  V30 3222 C 310.566 0.477854 1.82653 0
M  V30 3223 O 309.923 -0.549977 1.74016 0
M  V30 3224 C 309.974 2.91694 2.13534 0
M  V30 3225 O 309.695 4.13325 1.45238 0
M  V30 3226 C 311.196 3.24384 3.02142 0
M  V30 3227 H 308.416 0.582669 0.332773 0
M  V30 3228 H 310.96 2.00386 0.408107 0
M  V30 3229 H 309.115 2.67977 2.79763 0
M  V30 3230 H 309.529 4.79148 2.13349 0
M  V30 3231 H 311.003 4.09893 3.69718 0
M  V30 3232 H 311.48 2.40282 3.67643 0
M  V30 3233 H 312.086 3.50073 2.41514 0
M  V30 3234 N 310.401 -0.613514 1.45168 0
M  V30 3235 C 311.648 -1.37268 1.48875 0
M  V30 3236 C 311.976 -1.94077 0.128161 0
M  V30 3237 O 311.231 -1.75178 -0.872416 0
M  V30 3238 C 311.53 -2.54347 2.51083 0
M  V30 3239 C 311.196 -2.1572 3.95949 0
M  V30 3240 C 309.858 -2.04899 4.35396 0
M  V30 3241 C 312.21 -1.85485 4.87078 0
M  V30 3242 C 309.538 -1.62057 5.63875 0
M  V30 3243 C 311.89 -1.4413 6.15962 0
M  V30 3244 C 310.554 -1.31863 6.54346 0
M  V30 3245 H 309.824 -0.502299 0.544773 0
M  V30 3246 H 312.471 -0.694021 1.78481 0
M  V30 3247 H 310.776 -3.27524 2.15024 0
M  V30 3248 H 312.473 -3.12577 2.51191 0
M  V30 3249 H 309.063 -2.25066 3.64751 0
M  V30 3250 H 313.247 -1.92745 4.57343 0
M  V30 3251 H 308.503 -1.51177 5.92415 0
M  V30 3252 H 312.677 -1.19778 6.86022 0
M  V30 3253 H 310.304 -0.984392 7.538 0
M  V30 3254 N 311.879 -1.3236 -0.855495 0
M  V30 3255 C 313.128 -1.22226 -1.60448 0
M  V30 3256 C 313.441 0.214733 -1.94418 0
M  V30 3257 O 314.647 0.437917 -2.67945 0
M  V30 3258 C 313.103 -2.14063 -2.89318 0
M  V30 3259 C 312.711 -3.62839 -2.62777 0
M  V30 3260 C 314.455 -2.12764 -3.67331 0
M  V30 3261 C 312.362 -4.4664 -3.87643 0
M  V30 3262 H 311.292 -0.453904 -0.602069 0
M  V30 3263 H 313.943 -1.57314 -0.944698 0
M  V30 3264 H 312.325 -1.71889 -3.5675 0
M  V30 3265 H 313.499 -4.1335 -2.03662 0
M  V30 3266 H 311.814 -3.66261 -1.98096 0
M  V30 3267 H 314.411 -2.72611 -4.59987 0
M  V30 3268 H 314.754 -1.11841 -4.00995 0
M  V30 3269 H 315.287 -2.53214 -3.06802 0
M  V30 3270 H 312.026 -5.48373 -3.5912 0
M  V30 3271 H 311.546 -4.0088 -4.46156 0
M  V30 3272 H 313.225 -4.59597 -4.55389 0
M  V30 3273 N 313.357 1.07166 -1.15556 0
M  V30 3274 C 314.304 2.14417 -0.854055 0
M  V30 3275 C 315.274 1.64965 0.193806 0
M  V30 3276 O 316.459 1.90703 0.0609443 0
M  V30 3277 C 313.599 3.43304 -0.351574 0
M  V30 3278 C 312.712 4.06537 -1.46123 0
M  V30 3279 C 311.847 5.23266 -0.914677 0
M  V30 3280 C 310.886 5.78464 -2.00114 0
M  V30 3281 N 310.023 6.86521 -1.47083 0
M  V30 3282 H 314.863 2.39548 -1.77259 0
M  V30 3283 H 312.4 1.17543 -0.884425 0
M  V30 3284 H 314.358 4.17179 -0.0419409 0
M  V30 3285 H 312.988 3.18419 0.530037 0
M  V30 3286 H 312.04 3.30297 -1.88701 0
M  V30 3287 H 313.352 4.43567 -2.28144 0
M  V30 3288 H 312.506 6.04131 -0.557698 0
M  V30 3289 H 311.245 4.87658 -0.0636583 0
M  V30 3290 H 310.25 4.96243 -2.36692 0
M  V30 3291 H 311.475 6.16126 -2.85597 0
M  V30 3292 H 309.421 6.52849 -0.642198 0
M  V30 3293 H 309.338 7.22446 -2.22729 0
M  V30 3294 H 310.606 7.71087 -1.14215 0
M  V30 3295 N 314.835 0.952656 1.25548 0
M  V30 3296 C 316.081 0.616826 1.93822 0
M  V30 3297 C 316.436 -0.836684 1.73255 0
M  V30 3298 O 315.729 -1.59218 1.06584 0
M  V30 3299 C 315.923 0.908818 3.45652 0
M  V30 3300 C 315.752 2.38916 3.80984 0
M  V30 3301 C 314.522 3.04637 4.03143 0
M  V30 3302 C 316.72 3.36838 3.88645 0
M  V30 3303 N 314.702 4.42565 4.25453 0
M  V30 3304 C 316.073 4.60065 4.1562 0
M  V30 3305 C 318.128 3.31704 3.71318 0
M  V30 3306 C 316.831 5.78795 4.2707 0
M  V30 3307 C 318.857 4.4977 3.84006 0
M  V30 3308 C 318.219 5.71783 4.11392 0
M  V30 3309 H 314.318 0.27629 0.731565 0
M  V30 3310 H 316.902 1.22443 1.5138 0
M  V30 3311 H 315.073 0.330166 3.86994 0
M  V30 3312 H 316.805 0.533093 4.01174 0
M  V30 3313 H 313.56 2.55215 3.98952 0
M  V30 3314 H 313.984 5.1399 4.40617 0
M  V30 3315 H 318.626 2.3842 3.49164 0
M  V30 3316 H 316.344 6.72521 4.48041 0
M  V30 3317 H 319.93 4.47342 3.71989 0
M  V30 3318 H 318.81 6.61617 4.2099 0
M  V30 3319 N 316.313 -1.40141 0.720998 0
M  V30 3320 C 317.261 -2.3252 0.0608547 0
M  V30 3321 C 318.255 -1.52326 -0.741152 0
M  V30 3322 O 319.461 -1.68089 -0.643911 0
M  V30 3323 H 315.836 -0.751999 0.000876664 0
M  V30 3324 H 317.807 -2.8584 0.856614 0
M  V30 3325 C 316.556 -3.37331 -0.842809 0
M  V30 3326 H 315.879 -3.99108 -0.235084 0
M  V30 3327 H 317.319 -4.04452 -1.27257 0
M  V30 3328 C 315.778 -2.73246 -1.97074 0
M  V30 3329 O 316.308 -2.59998 -3.06209 0
M  V30 3330 N 314.514 -2.31547 -1.75597 0
M  V30 3331 H 314.061 -2.42522 -0.868368 0
M  V30 3332 H 314.019 -1.89007 -2.51244 0
M  V30 3333 N 317.792 -0.46758 -1.50504 0
M  V30 3334 C 319.038 0.0887532 -2.02606 0
M  V30 3335 C 319.371 1.39686 -1.34913 0
M  V30 3336 O 318.646 1.88644 -0.473694 0
M  V30 3337 C 318.929 0.276206 -3.59039 0
M  V30 3338 C 318.782 -1.05267 -4.37309 0
M  V30 3339 C 320.101 1.03235 -4.27821 0
M  V30 3340 H 317.22 0.0307814 -0.736357 0
M  V30 3341 H 319.862 -0.612485 -1.79857 0
M  V30 3342 H 318.012 0.8735 -3.78553 0
M  V30 3343 H 319.684 -1.68628 -4.29374 0
M  V30 3344 H 317.927 -1.65015 -4.01189 0
M  V30 3345 H 318.598 -0.875197 -5.45018 0
M  V30 3346 H 321.074 0.526111 -4.12761 0
M  V30 3347 H 319.95 1.1323 -5.37094 0
M  V30 3348 H 320.211 2.06806 -3.90748 0
M  V30 3349 N 319.27 1.56325 -0.20005 0
M  V30 3350 C 320.495 2.02548 0.44597 0
M  V30 3351 C 320.92 1.07922 1.5406 0
M  V30 3352 O 320.278 0.0635775 1.81188 0
M  V30 3353 C 320.326 3.47175 0.974761 0
M  V30 3354 O 319.43 3.55671 2.08739 0
M  V30 3355 H 318.771 0.655862 0.103638 0
M  V30 3356 H 321.301 2.02201 -0.312381 0
M  V30 3357 H 321.311 3.87067 1.2901 0
M  V30 3358 H 319.986 4.15538 0.17347 0
M  V30 3359 H 318.563 3.27657 1.78032 0
M  V30 3360 N 320.748 -0.0735177 1.57428 0
M  V30 3361 C 321.68 -1.11423 2.00294 0
M  V30 3362 C 322.693 -1.35084 0.908637 0
M  V30 3363 O 323.882 -1.33355 1.18654 0
M  V30 3364 C 320.982 -2.46548 2.32523 0
M  V30 3365 C 320.155 -2.42867 3.63778 0
M  V30 3366 C 319.214 -3.60087 3.83697 0
M  V30 3367 O 318.24 -3.41595 4.55304 0
M  V30 3368 N 319.442 -4.80372 3.25919 0
M  V30 3369 H 322.207 -0.749206 2.90184 0
M  V30 3370 H 319.768 -0.262195 1.59763 0
M  V30 3371 H 321.76 -3.23607 2.43024 0
M  V30 3372 H 320.33 -2.75059 1.48531 0
M  V30 3373 H 319.55 -1.51206 3.64047 0
M  V30 3374 H 320.838 -2.37506 4.49965 0
M  V30 3375 H 320.236 -4.983 2.67795 0
M  V30 3376 H 318.793 -5.54948 3.41871 0
M  V30 3377 N 322.226 -1.5378 -0.344866 0
M  V30 3378 C 323.454 -1.74899 -1.10534 0
M  V30 3379 C 323.869 -0.487534 -1.82397 0
M  V30 3380 O 323.226 0.540741 -1.74305 0
M  V30 3381 C 323.277 -2.92822 -2.11984 0
M  V30 3382 O 322.998 -4.14089 -1.43044 0
M  V30 3383 C 324.499 -3.25982 -3.00417 0
M  V30 3384 H 321.719 -0.584426 -0.329678 0
M  V30 3385 H 324.263 -2.006 -0.397474 0
M  V30 3386 H 322.418 -2.69457 -2.78338 0
M  V30 3387 H 322.832 -4.80272 -2.10805 0
M  V30 3388 H 324.306 -4.11848 -3.67539 0
M  V30 3389 H 324.783 -2.42228 -3.66363 0
M  V30 3390 H 325.389 -3.51349 -2.39654 0
M  V30 3391 N 323.704 0.605807 -1.45491 0
M  V30 3392 C 324.651 1.7164 -1.54299 0
M  V30 3393 C 325.621 1.61486 -0.388761 0
M  V30 3394 O 326.806 1.81039 -0.602445 0
M  V30 3395 C 323.946 3.09953 -1.51734 0
M  V30 3396 C 323.059 3.309 -2.77721 0
M  V30 3397 C 322.194 4.59329 -2.66816 0
M  V30 3398 C 321.233 4.7354 -3.87848 0
M  V30 3399 N 320.37 5.9327 -3.75467 0
M  V30 3400 H 325.21 1.63449 -2.49176 0
M  V30 3401 H 322.747 0.796957 -1.23641 0
M  V30 3402 H 324.705 3.89977 -1.48235 0
M  V30 3403 H 323.335 3.17098 -0.604068 0
M  V30 3404 H 322.387 2.44639 -2.913 0
M  V30 3405 H 323.699 3.37274 -3.67488 0
M  V30 3406 H 322.853 5.4755 -2.61292 0
M  V30 3407 H 321.592 4.55355 -1.74651 0
M  V30 3408 H 320.597 3.83741 -3.93729 0
M  V30 3409 H 321.822 4.79309 -4.81082 0
M  V30 3410 H 319.768 5.90338 -2.86072 0
M  V30 3411 H 319.685 6.00811 -4.5887 0
M  V30 3412 H 320.953 6.83984 -3.73879 0
M  V30 3413 N 325.182 1.32811 0.848464 0
M  V30 3414 C 326.431 1.23075 1.59798 0
M  V30 3415 C 326.744 -0.204419 1.94529 0
M  V30 3416 O 327.95 -0.423701 2.68173 0
M  V30 3417 C 326.406 2.15594 2.88179 0
M  V30 3418 C 326.014 3.64228 2.60849 0
M  V30 3419 C 327.758 2.14709 3.66197 0
M  V30 3420 C 325.665 4.48689 3.85269 0
M  V30 3421 H 324.595 0.457091 0.599653 0
M  V30 3422 H 327.246 1.57813 0.936342 0
M  V30 3423 H 325.628 1.73778 3.55833 0
M  V30 3424 H 326.802 4.14424 2.01467 0
M  V30 3425 H 325.117 3.67306 1.96151 0
M  V30 3426 H 327.714 2.75046 4.58534 0
M  V30 3427 H 328.057 1.13966 4.00397 0
M  V30 3428 H 328.59 2.54837 3.05455 0
M  V30 3429 H 325.329 5.5027 3.56207 0
M  V30 3430 H 324.849 4.03241 4.44024 0
M  V30 3431 H 326.528 4.62006 4.52946 0
M  V30 3432 N 326.66 -1.06551 1.16123 0
M  V30 3433 C 328.076 -1.3142 0.905585 0
M  V30 3434 C 328.276 -1.96571 -0.442964 0
M  V30 3435 O 327.332 -2.23068 -1.18308 0
M  V30 3436 C 328.645 -2.19741 2.05267 0
M  V30 3437 C 330.193 -2.33165 2.08813 0
M  V30 3438 C 330.668 -3.24838 3.22868 0
M  V30 3439 N 332.159 -3.32421 3.22568 0
M  V30 3440 C 332.894 -4.0344 4.0746 0
M  V30 3441 N 332.39 -4.77003 5.02434 0
M  V30 3442 N 334.183 -3.99464 3.95456 0
M  V30 3443 H 326.334 -0.626548 2.02949 0
M  V30 3444 H 328.597 -0.338777 0.8854 0
M  V30 3445 H 328.303 -1.79142 3.02657 0
M  V30 3446 H 328.177 -3.20313 1.99198 0
M  V30 3447 H 330.564 -2.73013 1.12018 0
M  V30 3448 H 330.645 -1.3227 2.18948 0
M  V30 3449 H 330.289 -2.85708 4.19921 0
M  V30 3450 H 330.219 -4.25707 3.0997 0
M  V30 3451 H 332.71 -2.79994 2.53795 0
M  V30 3452 H 333.023 -5.28712 5.63634 0
M  V30 3453 H 331.368 -4.75992 5.06415 0
M  V30 3454 H 334.559 -3.4111 3.20564 0
M  V30 3455 H 334.732 -4.54544 4.61837 0
M  V30 3456 N 328.138 -0.959301 -1.25041 0
M  V30 3457 C 329.387 -0.612254 -1.92183 0
M  V30 3458 C 329.7 0.855347 -1.75907 0
M  V30 3459 O 330.906 1.31256 -2.37664 0
M  V30 3460 C 329.362 -1.04435 -3.44414 0
M  V30 3461 C 328.97 -2.53482 -3.69393 0
M  V30 3462 C 330.714 -0.770055 -4.17457 0
M  V30 3463 C 328.621 -2.90468 -5.15153 0
M  V30 3464 H 327.551 -0.225279 -0.719559 0
M  V30 3465 H 330.202 -1.16438 -1.41825 0
M  V30 3466 H 328.584 -0.4206 -3.9376 0
M  V30 3467 H 329.758 -3.20916 -3.30681 0
M  V30 3468 H 328.073 -2.78432 -3.0962 0
M  V30 3469 H 330.67 -1.02249 -5.24832 0
M  V30 3470 H 331.013 0.293611 -4.15263 0
M  V30 3471 H 331.546 -1.35437 -3.74034 0
M  V30 3472 H 328.285 -3.95871 -5.22462 0
M  V30 3473 H 327.805 -2.27711 -5.54894 0
M  V30 3474 H 329.484 -2.79914 -5.83315 0
M  V30 3475 N 329.616 1.39756 -0.72842 0
M  V30 3476 C 330.865 1.99879 -0.270407 0
M  V30 3477 C 331.178 1.58449 1.14688 0
M  V30 3478 O 332.384 2.11362 1.70407 0
M  V30 3479 C 330.84 3.57292 -0.43252 0
M  V30 3480 C 330.448 4.07688 -1.85727 0
M  V30 3481 C 332.192 4.24485 -0.0359507 0
M  V30 3482 C 330.099 5.5765 -1.96928 0
M  V30 3483 H 329.029 0.747689 -0.0973472 0
M  V30 3484 H 331.68 1.59837 -0.901355 0
M  V30 3485 H 330.062 3.95097 0.267219 0
M  V30 3486 H 331.236 3.81231 -2.58843 0
M  V30 3487 H 329.551 3.53135 -2.20646 0
M  V30 3488 H 332.148 5.34609 -0.0987484 0
M  V30 3489 H 332.491 4.03915 1.00787 0
M  V30 3490 H 333.024 3.9183 -0.686604 0
M  V30 3491 H 329.763 5.8309 -2.99476 0
M  V30 3492 H 329.283 5.8593 -1.28241 0
M  V30 3493 H 330.962 6.22957 -1.74737 0
M  V30 3494 N 331.094 0.475555 1.50254 0
M  V30 3495 C 332.319 -0.0777042 2.07254 0
M  V30 3496 C 332.744 -1.3235 1.3366 0
M  V30 3497 O 332.102 -1.77152 0.385597 0
M  V30 3498 C 332.15 -0.340169 3.58992 0
M  V30 3499 O 331.254 -1.41982 3.87188 0
M  V30 3500 H 330.595 0.0149556 0.663832 0
M  V30 3501 H 333.125 0.667878 1.93392 0
M  V30 3502 H 333.135 -0.579332 4.03866 0
M  V30 3503 H 331.81 0.570167 4.11973 0
M  V30 3504 H 330.387 -1.16762 3.54148 0
M  V30 3505 N 332.573 -1.56217 0.208337 0
M  V30 3506 C 333.801 -2.02337 -0.43215 0
M  V30 3507 C 334.216 -1.08834 -1.54275 0
M  V30 3508 O 333.573 -0.0955462 -1.8225 0
M  V30 3509 C 333.624 -3.48072 -0.976138 0
M  V30 3510 O 333.345 -4.38007 0.0901621 0
M  V30 3511 C 334.846 -4.09773 -1.69119 0
M  V30 3512 H 332.066 -0.662385 -0.10718 0
M  V30 3513 H 334.61 -2.01966 0.320923 0
M  V30 3514 H 332.765 -3.49099 -1.67954 0
M  V30 3515 H 333.179 -5.23543 -0.316701 0
M  V30 3516 H 334.653 -5.13556 -2.02397 0
M  V30 3517 H 335.13 -3.53999 -2.59964 0
M  V30 3518 H 335.736 -4.12556 -1.03332 0
M  V30 3519 N 334.051 0.0651679 -1.57465 0
M  V30 3520 C 335.3 0.761916 -1.86756 0
M  V30 3521 C 335.613 1.78406 -0.801925 0
M  V30 3522 O 336.819 2.53084 -0.982885 0
M  V30 3523 C 335.275 1.40603 -3.31299 0
M  V30 3524 C 334.883 0.422115 -4.46007 0
M  V30 3525 C 336.627 2.08476 -3.69781 0
M  V30 3526 C 334.534 1.07252 -5.81593 0
M  V30 3527 H 333.464 0.288308 -0.696702 0
M  V30 3528 H 336.115 0.015344 -1.83494 0
M  V30 3529 H 334.497 2.20109 -3.29193 0
M  V30 3530 H 335.671 -0.343613 -4.59517 0
M  V30 3531 H 333.986 -0.152527 -4.16121 0
M  V30 3532 H 336.583 2.57925 -4.68379 0
M  V30 3533 H 336.926 2.88712 -2.99919 0
M  V30 3534 H 337.459 1.35792 -3.73905 0
M  V30 3535 H 334.198 0.310342 -6.54765 0
M  V30 3536 H 333.718 1.80895 -5.71872 0
M  V30 3537 H 335.397 1.59043 -6.27148 0
M  V30 3538 N 335.529 1.53961 0.336706 0
M  V30 3539 C 336.778 1.70751 1.07363 0
M  V30 3540 C 337.091 0.481061 1.89592 0
M  V30 3541 O 338.297 0.530046 2.66276 0
M  V30 3542 C 336.753 3.01965 1.95818 0
M  V30 3543 C 336.361 4.31971 1.18764 0
M  V30 3544 C 338.105 3.28121 2.69327 0
M  V30 3545 C 336.012 5.54255 2.06289 0
M  V30 3546 H 334.942 0.636292 0.404535 0
M  V30 3547 H 337.593 1.80459 0.332681 0
M  V30 3548 H 335.975 2.86132 2.7376 0
M  V30 3549 H 337.149 4.5853 0.456849 0
M  V30 3550 H 335.464 4.12481 0.569946 0
M  V30 3551 H 338.061 4.16673 3.35094 0
M  V30 3552 H 338.404 2.45426 3.36261 0
M  V30 3553 H 338.937 3.44762 1.98454 0
M  V30 3554 H 335.676 6.39513 1.43885 0
M  V30 3555 H 335.196 5.31935 2.77138 0
M  V30 3556 H 336.875 5.90159 2.65182 0
M  V30 3557 N 337.007 -0.598083 1.45811 0
M  V30 3558 C 338.254 -1.35681 1.50323 0
M  V30 3559 C 338.582 -1.9393 0.148739 0
M  V30 3560 O 337.837 -1.76094 -0.853787 0
M  V30 3561 C 338.136 -2.51669 2.53766 0
M  V30 3562 C 337.802 -2.11508 3.98215 0
M  V30 3563 C 336.464 -2.0027 4.37545 0
M  V30 3564 C 338.816 -1.80308 4.89018 0
M  V30 3565 C 336.144 -1.56067 5.65562 0
M  V30 3566 C 338.496 -1.37589 6.17456 0
M  V30 3567 C 337.16 -1.24916 6.55708 0
M  V30 3568 H 336.43 -0.496492 0.550069 0
M  V30 3569 H 339.077 -0.675052 1.79207 0
M  V30 3570 H 337.382 -3.25225 2.18486 0
M  V30 3571 H 339.079 -3.09895 2.54492 0
M  V30 3572 H 335.669 -2.21185 3.67117 0
M  V30 3573 H 339.853 -1.87884 4.59362 0
M  V30 3574 H 335.109 -1.44886 5.93985 0
M  V30 3575 H 339.283 -1.12495 6.87254 0
M  V30 3576 H 336.91 -0.904386 7.54801 0
M  V30 3577 N 338.485 -1.33259 -0.841409 0
M  V30 3578 C 339.734 -1.23921 -1.59143 0
M  V30 3579 C 340.047 0.1941 -1.94635 0
M  V30 3580 O 341.253 0.409474 -2.68394 0
M  V30 3581 C 339.709 -2.17119 -2.87032 0
M  V30 3582 C 339.317 -3.65606 -2.58914 0
M  V30 3583 C 341.061 -2.16648 -3.65053 0
M  V30 3584 C 338.968 -4.50726 -3.82884 0
M  V30 3585 H 337.898 -0.460264 -0.597221 0
M  V30 3586 H 340.549 -1.58307 -0.927959 0
M  V30 3587 H 338.931 -1.75663 -3.54906 0
M  V30 3588 H 340.105 -4.15487 -1.99267 0
M  V30 3589 H 338.42 -3.68341 -1.942 0
M  V30 3590 H 341.017 -2.77474 -4.57069 0
M  V30 3591 H 341.36 -1.16088 -3.99787 0
M  V30 3592 H 341.893 -2.56453 -3.041 0
M  V30 3593 H 338.632 -5.52151 -3.53283 0
M  V30 3594 H 338.152 -4.0559 -4.41879 0
M  V30 3595 H 339.831 -4.64401 -4.50489 0
M  V30 3596 N 339.963 1.05934 -1.16686 0
M  V30 3597 C 340.893 2.1546 -0.899949 0
M  V30 3598 C 341.874 1.69391 0.155154 0
M  V30 3599 O 343.059 1.94199 0.00648693 0
M  V30 3600 C 340.189 3.44939 -0.404241 0
M  V30 3601 C 339.143 4.04536 -1.39767 0
M  V30 3602 C 338.469 5.29268 -0.760216 0
M  V30 3603 C 339.769 4.42893 -2.76845 0
M  V30 3604 H 341.463 2.38046 -1.81588 0
M  V30 3605 H 339.009 1.14404 -0.874514 0
M  V30 3606 H 340.962 4.20901 -0.204971 0
M  V30 3607 H 339.686 3.21983 0.547206 0
M  V30 3608 H 338.345 3.30635 -1.58355 0
M  V30 3609 H 337.993 5.02611 0.197831 0
M  V30 3610 H 337.693 5.70101 -1.42332 0
M  V30 3611 H 339.217 6.07924 -0.57105 0
M  V30 3612 H 340.631 5.09921 -2.62019 0
M  V30 3613 H 339.028 4.94721 -3.39663 0
M  V30 3614 H 340.098 3.53584 -3.31823 0
M  V30 3615 N 341.441 0.965919 1.2453 0
M  V30 3616 C 342.688 0.626831 1.92554 0
M  V30 3617 C 343.016 -0.837739 1.75534 0
M  V30 3618 O 342.271 -1.61793 1.10098 0
M  V30 3619 C 342.57 0.945428 3.44669 0
M  V30 3620 C 342.236 2.39785 3.81856 0
M  V30 3621 C 340.898 2.79483 3.91718 0
M  V30 3622 C 343.25 3.34055 4.00071 0
M  V30 3623 C 340.578 4.12496 4.1721 0
M  V30 3624 C 342.93 4.66694 4.27059 0
M  V30 3625 C 341.594 5.06172 4.3514 0
M  V30 3626 H 340.864 0.229374 0.704605 0
M  V30 3627 H 343.511 1.21707 1.4785 0
M  V30 3628 H 341.816 0.272926 3.90848 0
M  V30 3629 H 343.513 0.661484 3.95507 0
M  V30 3630 H 340.103 2.08003 3.74743 0
M  V30 3631 H 344.287 3.04571 3.91855 0
M  V30 3632 H 339.543 4.42709 4.21685 0
M  V30 3633 H 343.717 5.3971 4.40097 0
M  V30 3634 H 341.344 6.09262 4.54646 0
M  V30 3635 N 342.919 -1.39368 0.735821 0
M  V30 3636 C 344.167 -2.00101 0.283562 0
M  V30 3637 C 344.488 -1.5868 -1.13338 0
M  V30 3638 O 343.758 -0.835423 -1.77193 0
M  V30 3639 H 342.338 -0.740024 0.101851 0
M  V30 3640 H 345 -1.70404 0.945962 0
M  V30 3641 H 344.096 -3.10323 0.332604 0
M  V30 3642 N 344.397 -0.483516 -1.5 0
M  V30 3643 C 345.637 0.0657469 -2.04294 0
M  V30 3644 C 346.001 1.35869 -1.35659 0
M  V30 3645 O 347.202 1.99111 -1.80578 0
M  V30 3646 C 345.473 0.232758 -3.56641 0
M  V30 3647 S 347.032 0.738788 -4.32536 0
M  V30 3648 H 343.85 0.0100755 -0.710929 0
M  V30 3649 H 346.452 -0.653494 -1.84254 0
M  V30 3650 H 345.156 -0.713847 -4.04144 0
M  V30 3651 H 344.687 0.977751 -3.81056 0
M  V30 3652 H 346.702 2.01048 -4.53645 0
M  V30 3653 N 345.875 1.56104 -0.216619 0
M  V30 3654 C 347.121 1.98466 0.417033 0
M  V30 3655 C 347.454 1.10403 1.59765 0
M  V30 3656 O 346.729 0.160632 1.93836 0
M  V30 3657 C 347.012 3.49769 0.85637 0
M  V30 3658 C 346.865 4.48606 -0.327546 0
M  V30 3659 C 348.184 4.05339 1.7143 0
M  V30 3660 H 345.303 0.721551 0.150112 0
M  V30 3661 H 347.945 1.87423 -0.311864 0
M  V30 3662 H 346.095 3.5931 1.47745 0
M  V30 3663 H 347.767 4.5108 -0.965618 0
M  V30 3664 H 346.01 4.22682 -0.975805 0
M  V30 3665 H 346.681 5.51995 0.0227149 0
M  V30 3666 H 349.157 3.98712 1.19031 0
M  V30 3667 H 348.033 5.11533 1.99061 0
M  V30 3668 H 348.294 3.51918 2.67593 0
M  V30 3669 N 347.353 -0.0568162 1.57498 0
M  V30 3670 C 348.283 -1.06593 2.0775 0
M  V30 3671 C 349.264 -1.39448 0.974082 0
M  V30 3672 O 350.449 -1.48815 1.24771 0
M  V30 3673 C 347.579 -2.37509 2.5339 0
M  V30 3674 C 346.533 -2.1897 3.67745 0
M  V30 3675 C 345.859 -3.55402 3.99492 0
M  V30 3676 C 347.159 -1.59859 4.97235 0
M  V30 3677 H 348.853 -0.647706 2.9231 0
M  V30 3678 H 346.399 -0.310116 1.40621 0
M  V30 3679 H 348.352 -3.08409 2.87162 0
M  V30 3680 H 347.076 -2.8134 1.65878 0
M  V30 3681 H 345.735 -1.50508 3.3428 0
M  V30 3682 H 345.383 -3.9683 3.09088 0
M  V30 3683 H 345.083 -3.43831 4.76502 0
M  V30 3684 H 346.607 -4.27708 4.35773 0
M  V30 3685 H 348.021 -2.20642 5.29141 0
M  V30 3686 H 346.418 -1.58942 5.78669 0
M  V30 3687 H 347.488 -0.561506 4.81638 0
M  V30 3688 N 348.832 -1.54138 -0.328536 0
M  V30 3689 C 350.079 -1.72105 -1.06706 0
M  V30 3690 C 350.407 -0.492111 -1.88171 0
M  V30 3691 O 349.662 0.526153 -1.88494 0
M  V30 3692 C 349.961 -2.9457 -2.02393 0
M  V30 3693 C 349.627 -4.29544 -1.37122 0
M  V30 3694 C 348.289 -4.6624 -1.19052 0
M  V30 3695 C 350.641 -5.1333 -0.902331 0
M  V30 3696 C 347.969 -5.84325 -0.527331 0
M  V30 3697 C 350.321 -6.32094 -0.252988 0
M  V30 3698 C 348.985 -6.67473 -0.0600901 0
M  V30 3699 H 348.255 -0.629775 -0.390466 0
M  V30 3700 H 350.902 -1.88372 -0.34473 0
M  V30 3701 H 349.207 -2.72969 -2.81061 0
M  V30 3702 H 350.904 -3.05665 -2.59557 0
M  V30 3703 H 347.494 -4.0067 -1.52188 0
M  V30 3704 H 351.678 -4.855 -1.02974 0
M  V30 3705 H 346.934 -6.103 -0.366634 0
M  V30 3706 H 351.108 -6.96299 0.118366 0
M  V30 3707 H 348.735 -7.58832 0.455828 0
M  V30 3708 N 350.31 0.590341 -1.46126 0
M  V30 3709 C 351.556 1.35082 -1.51264 0
M  V30 3710 C 351.889 1.93534 -0.160711 0
M  V30 3711 O 351.164 1.76045 0.826956 0
M  V30 3712 C 351.447 2.48588 -2.6053 0
M  V30 3713 C 351.3 1.95221 -4.05227 0
M  V30 3714 C 352.619 3.50662 -2.6594 0
M  V30 3715 H 349.738 0.489803 -0.550692 0
M  V30 3716 H 352.38 0.663887 -1.78024 0
M  V30 3717 H 350.53 3.07186 -2.37843 0
M  V30 3718 H 352.202 1.41139 -4.39178 0
M  V30 3719 H 350.445 1.26101 -4.15068 0
M  V30 3720 H 351.116 2.77121 -4.77397 0
M  V30 3721 H 353.592 3.01934 -2.86313 0
M  V30 3722 H 352.468 4.27551 -3.44226 0
M  V30 3723 H 352.729 4.07399 -1.71694 0
M  V30 3724 N 351.788 1.33704 0.83433 0
M  V30 3725 C 352.751 1.24244 1.92603 0
M  V30 3726 C 353.751 0.160383 1.59998 0
M  V30 3727 O 354.941 0.412228 1.69252 0
M  V30 3728 C 352.073 0.91555 3.28376 0
M  V30 3729 H 353.266 2.21287 2.02416 0
M  V30 3730 H 350.819 1.17827 1.02696 0
M  V30 3731 H 351.554 -0.0521886 3.24258 0
M  V30 3732 H 351.339 1.69811 3.53422 0
M  V30 3733 H 352.829 0.874231 4.08347 0
M  V30 3734 N 353.266 -1.05314 1.17247 0
M  V30 3735 C 354.196 -2.1498 0.911362 0
M  V30 3736 C 355.177 -1.69471 -0.146169 0
M  V30 3737 O 356.362 -1.942 0.003812 0
M  V30 3738 C 353.492 -3.4472 0.422528 0
M  V30 3739 C 352.446 -4.03789 1.4191 0
M  V30 3740 C 351.772 -5.28858 0.788274 0
M  V30 3741 C 353.072 -4.41418 2.7919 0
M  V30 3742 H 354.766 -2.3708 1.82848 0
M  V30 3743 H 352.312 -1.13938 0.880569 0
M  V30 3744 H 354.265 -4.20787 0.227289 0
M  V30 3745 H 352.989 -3.22269 -0.530123 0
M  V30 3746 H 351.648 -3.2979 1.60106 0
M  V30 3747 H 351.296 -5.02709 -0.171173 0
M  V30 3748 H 350.996 -5.69338 1.45353 0
M  V30 3749 H 352.52 -6.07612 0.603282 0
M  V30 3750 H 353.934 -5.08524 2.64719 0
M  V30 3751 H 352.331 -4.92913 3.42282 0
M  V30 3752 H 353.401 -3.51819 3.33693 0
M  V30 3753 N 354.744 -0.972509 -1.24016 0
M  V30 3754 C 356.155 -0.67517 -1.74064 0
M  V30 3755 C 356.506 0.808939 -1.78747 0
M  V30 3756 O 355.631 1.63286 -1.42009 0
M  V30 3757 C 356.226 -1.21889 -3.16115 0
M  V30 3758 C 354.785 -0.971358 -3.6365 0
M  V30 3759 C 353.932 -1.35134 -2.42145 0
M  V30 3760 H 356.883 -1.14727 -1.09651 0
M  V30 3761 H 356.904 -0.587489 -3.75937 0
M  V30 3762 H 356.416 -2.29906 -3.12674 0
M  V30 3763 H 354.517 0.0930686 -3.72484 0
M  V30 3764 H 354.63 -1.62039 -4.50866 0
M  V30 3765 H 352.994 -0.769751 -2.4279 0
M  V30 3766 H 353.777 -2.4411 -2.41381 0
M  V30 3767 N 356.222 1.38976 -0.743202 0
M  V30 3768 C 357.185 2.28901 -0.117014 0
M  V30 3769 C 358.185 1.46698 0.658503 0
M  V30 3770 O 359.375 1.67274 0.486305 0
M  V30 3771 C 356.507 3.30309 0.84315 0
M  V30 3772 H 357.7 2.8578 -0.909373 0
M  V30 3773 H 355.253 1.47761 -0.509547 0
M  V30 3774 H 355.988 2.785 1.66157 0
M  V30 3775 H 355.773 3.91029 0.289594 0
M  V30 3776 H 357.263 3.97577 1.2776 0
M  V30 3777 N 357.7 0.491464 1.49741 0
M  V30 3778 C 358.949 -0.0582189 2.01616 0
M  V30 3779 C 359.262 -1.38927 1.3769 0
M  V30 3780 O 360.468 -2.02509 1.80838 0
M  V30 3781 C 358.924 -0.154235 3.59569 0
M  V30 3782 C 358.532 1.1696 4.32463 0
M  V30 3783 C 360.276 -0.65479 4.1942 0
M  V30 3784 C 358.183 1.03627 5.8225 0
M  V30 3785 H 357.113 -0.0255317 0.753568 0
M  V30 3786 H 359.764 0.629445 1.72367 0
M  V30 3787 H 358.146 -0.906138 3.85493 0
M  V30 3788 H 359.32 1.93405 4.18248 0
M  V30 3789 H 357.635 1.60285 3.84315 0
M  V30 3790 H 360.232 -0.771903 5.29099 0
M  V30 3791 H 360.575 -1.65127 3.8215 0
M  V30 3792 H 361.108 0.040304 3.9778 0
M  V30 3793 H 357.847 2.00672 6.24028 0
M  V30 3794 H 357.367 0.312546 5.98985 0
M  V30 3795 H 359.046 0.711114 6.4308 0
M  V30 3796 N 359.178 -1.55987 0.224894 0
M  V30 3797 C 360.427 -1.97566 -0.406273 0
M  V30 3798 C 360.74 -1.11569 -1.6066 0
M  V30 3799 O 361.946 -1.43062 -2.3075 0
M  V30 3800 C 360.402 -3.51474 -0.774207 0
M  V30 3801 C 360.01 -4.46179 0.403496 0
M  V30 3802 C 361.754 -4.01758 -1.37079 0
M  V30 3803 C 359.661 -5.91399 0.0129412 0
M  V30 3804 H 358.591 -0.737777 -0.155565 0
M  V30 3805 H 361.242 -1.80659 0.321635 0
M  V30 3806 H 359.624 -3.63994 -1.55963 0
M  V30 3807 H 360.798 -4.45409 1.18101 0
M  V30 3808 H 359.113 -4.06255 0.913536 0
M  V30 3809 H 361.71 -5.07756 -1.67596 0
M  V30 3810 H 362.053 -3.47805 -2.28773 0
M  V30 3811 H 362.586 -3.92475 -0.648733 0
M  V30 3812 H 359.325 -6.49341 0.896451 0
M  V30 3813 H 358.845 -5.95356 -0.728821 0
M  V30 3814 H 360.524 -6.45683 -0.412582 0
M  V30 3815 N 360.656 0.0484629 -1.57525 0
M  V30 3816 C 361.903 0.743125 -1.88372 0
M  V30 3817 C 362.231 1.76383 -0.819715 0
M  V30 3818 O 361.486 1.94855 0.181659 0
M  V30 3819 C 361.785 1.46632 -3.25935 0
M  V30 3820 C 361.451 0.583427 -4.4711 0
M  V30 3821 C 360.113 0.340191 -4.79996 0
M  V30 3822 C 362.465 -0.0273345 -5.21193 0
M  V30 3823 C 359.793 -0.522903 -5.84365 0
M  V30 3824 C 362.145 -0.878017 -6.26477 0
M  V30 3825 C 360.809 -1.1309 -6.5785 0
M  V30 3826 H 360.079 0.271929 -0.689301 0
M  V30 3827 H 362.726 0.00336166 -1.915 0
M  V30 3828 H 361.031 2.2789 -3.18706 0
M  V30 3829 H 362.728 2.00902 -3.47044 0
M  V30 3830 H 359.318 0.783151 -4.21384 0
M  V30 3831 H 363.502 0.147654 -4.9608 0
M  V30 3832 H 358.758 -0.727335 -6.07058 0
M  V30 3833 H 362.932 -1.35789 -6.83033 0
M  V30 3834 H 360.559 -1.80144 -7.38547 0
M  V30 3835 N 362.134 1.5431 0.320358 0
M  V30 3836 C 363.081 1.83918 1.39438 0
M  V30 3837 C 364.051 0.686525 1.51248 0
M  V30 3838 O 365.236 0.933269 1.66417 0
M  V30 3839 C 362.376 2.075 2.75749 0
M  V30 3840 C 361.489 3.35177 2.72544 0
M  V30 3841 C 360.624 3.48704 4.00723 0
M  V30 3842 C 359.663 4.70244 3.91838 0
M  V30 3843 N 358.8 4.80679 5.11754 0
M  V30 3844 H 363.64 2.75544 1.13489 0
M  V30 3845 H 361.177 1.36459 0.549309 0
M  V30 3846 H 363.135 2.19166 3.54996 0
M  V30 3847 H 361.765 1.19163 3 0
M  V30 3848 H 360.817 3.32233 1.85271 0
M  V30 3849 H 362.129 4.24534 2.61863 0
M  V30 3850 H 361.283 3.59928 4.88402 0
M  V30 3851 H 360.022 2.57445 4.14214 0
M  V30 3852 H 359.027 4.59072 3.02544 0
M  V30 3853 H 360.252 5.6289 3.7991 0
M  V30 3854 H 358.198 3.92337 5.25745 0
M  V30 3855 H 358.115 5.64007 5.0342 0
M  V30 3856 H 359.383 4.96239 6.01138 0
M  V30 3857 N 363.613 -0.582584 1.46437 0
M  V30 3858 C 364.563 -1.68654 1.53426 0
M  V30 3859 C 365.547 -1.55971 0.395194 0
M  V30 3860 O 366.739 -1.64884 0.643612 0
M  V30 3861 C 363.868 -3.07439 1.52762 0
M  V30 3862 C 362.954 -3.25418 2.71963 0
M  V30 3863 N 363.345 -3.13556 3.96883 0
M  V30 3864 C 361.643 -3.56357 2.68189 0
M  V30 3865 C 362.344 -3.33543 4.76575 0
M  V30 3866 N 361.32 -3.58704 4.08451 0
M  V30 3867 H 365.122 -1.58014 2.47808 0
M  V30 3868 H 362.636 -0.786617 1.42078 0
M  V30 3869 H 364.633 -3.86671 1.55857 0
M  V30 3870 H 363.293 -3.1921 0.594573 0
M  V30 3871 H 364.304 -2.9142 4.28129 0
M  V30 3872 H 360.981 -3.74812 1.83908 0
M  V30 3873 H 362.371 -3.29555 5.85528 0
M  V30 3874 N 365.091 -1.34144 -0.827227 0
M  V30 3875 C 366.34 -1.25602 -1.5782 0
M  V30 3876 C 366.653 0.173445 -1.94829 0
M  V30 3877 O 367.859 0.380984 -2.68814 0
M  V30 3878 C 366.315 -2.20151 -2.84713 0
M  V30 3879 C 365.923 -3.68331 -2.55021 0
M  V30 3880 C 367.667 -2.20508 -3.62735 0
M  V30 3881 C 365.574 -4.54762 -3.78082 0
M  V30 3882 H 364.504 -0.466573 -0.592306 0
M  V30 3883 H 367.155 -1.59283 -0.911116 0
M  V30 3884 H 365.537 -1.79417 -3.53023 0
M  V30 3885 H 366.711 -4.17577 -1.94849 0
M  V30 3886 H 365.026 -3.7038 -1.90283 0
M  V30 3887 H 367.623 -2.82306 -4.54101 0
M  V30 3888 H 367.966 -1.20322 -3.98533 0
M  V30 3889 H 368.499 -2.59664 -3.01362 0
M  V30 3890 H 365.238 -5.55867 -3.47407 0
M  V30 3891 H 364.758 -4.10254 -4.37552 0
M  V30 3892 H 366.437 -4.69153 -4.45538 0
M  V30 3893 N 366.569 1.04691 -1.17803 0
M  V30 3894 C 367.479 2.16057 -0.914151 0
M  V30 3895 C 368.495 1.73589 0.119503 0
M  V30 3896 O 369.671 2.01308 -0.0609468 0
M  V30 3897 C 366.736 3.4394 -0.436603 0
M  V30 3898 C 365.797 4.00825 -1.53746 0
M  V30 3899 C 365.03 5.22604 -1.0826 0
M  V30 3900 O 365.253 5.70367 0.0612244 0
M  V30 3901 O 364.187 5.7186 -1.87775 0
M  V30 3902 H 368.013 2.41169 -1.84584 0
M  V30 3903 H 365.598 1.1453 -0.959334 0
M  V30 3904 H 367.48 4.21024 -0.178057 0
M  V30 3905 H 366.155 3.20316 0.466869 0
M  V30 3906 H 365.062 3.25158 -1.84995 0
M  V30 3907 H 366.395 4.28778 -2.41683 0
M  V30 3908 N 368.047 0.979072 1.23499 0
M  V30 3909 C 369.295 0.645941 1.91499 0
M  V30 3910 C 369.616 -0.822948 1.76784 0
M  V30 3911 O 368.886 -1.58854 1.14639 0
M  V30 3912 H 367.466 0.235919 0.708767 0
M  V30 3913 H 370.128 1.2426 1.50152 0
M  V30 3914 H 369.224 0.896411 2.9895 0
M  V30 3915 N 369.525 -1.3858 0.750561 0
M  V30 3916 C 370.771 -2.0095 0.31477 0
M  V30 3917 C 371.126 -1.58509 -1.09053 0
M  V30 3918 O 370.419 -0.8112 -1.7358 0
M  V30 3919 C 370.613 -3.55455 0.372373 0
M  V30 3920 C 370.442 -4.12898 1.78173 0
M  V30 3921 C 369.212 -4.44797 2.39757 0
M  V30 3922 C 371.41 -4.35366 2.7379 0
M  V30 3923 N 369.392 -4.87831 3.72685 0
M  V30 3924 C 370.763 -4.80775 3.91478 0
M  V30 3925 C 372.818 -4.1746 2.71351 0
M  V30 3926 C 371.521 -5.10155 5.07084 0
M  V30 3927 C 373.547 -4.47963 3.86113 0
M  V30 3928 C 372.909 -4.93593 5.02539 0
M  V30 3929 H 369.008 -0.765083 0.161776 0
M  V30 3930 H 371.592 -1.68246 0.979867 0
M  V30 3931 H 369.763 -3.87512 -0.26244 0
M  V30 3932 H 371.495 -4.04614 -0.0834479 0
M  V30 3933 H 368.25 -4.33135 1.91548 0
M  V30 3934 H 368.674 -5.13685 4.40972 0
M  V30 3935 H 373.316 -3.81372 1.82524 0
M  V30 3936 H 371.034 -5.45141 5.96529 0
M  V30 3937 H 374.62 -4.35717 3.85542 0
M  V30 3938 H 373.5 -5.16746 5.89867 0
M  V30 3939 N 371.003 -0.499398 -1.49478 0
M  V30 3940 C 372.228 0.044722 -2.07352 0
M  V30 3941 C 372.653 1.30207 -1.35749 0
M  V30 3942 O 372.011 1.76516 -0.413732 0
M  V30 3943 C 372.059 0.283013 -3.59488 0
M  V30 3944 O 371.163 1.35804 -3.89398 0
M  V30 3945 H 370.504 -0.0255147 -0.66351 0
M  V30 3946 H 373.034 -0.698561 -1.92305 0
M  V30 3947 H 373.044 0.515007 -4.04737 0
M  V30 3948 H 371.719 -0.635636 -4.11014 0
M  V30 3949 H 370.296 1.11113 -3.55961 0
M  V30 3950 N 372.481 1.55866 -0.233164 0
M  V30 3951 C 373.444 2.1953 0.658715 0
M  V30 3952 C 374.444 1.16053 1.11303 0
M  V30 3953 O 375.634 1.41218 1.01996 0
M  V30 3954 C 372.766 2.82791 1.90373 0
M  V30 3955 H 373.959 2.99721 0.10347 0
M  V30 3956 H 371.512 1.56291 0.0164245 0
M  V30 3957 H 372.247 2.06501 2.50056 0
M  V30 3958 H 372.032 3.58578 1.58632 0
M  V30 3959 H 373.522 3.31556 2.53891 0
M  V30 3960 N 373.959 -0.0401083 1.57549 0
M  V30 3961 C 374.889 -1.04384 2.08869 0
M  V30 3962 C 375.87 -1.38407 0.988817 0
M  V30 3963 O 377.055 -1.47483 1.26342 0
M  V30 3964 C 374.185 -2.34808 2.55895 0
M  V30 3965 C 373.139 -2.15057 3.70047 0
M  V30 3966 C 372.465 -3.51145 4.03239 0
M  V30 3967 C 373.765 -1.54576 4.98902 0
M  V30 3968 H 375.459 -0.616666 2.92981 0
M  V30 3969 H 373.005 -0.295184 1.40942 0
M  V30 3970 H 374.958 -3.05346 2.90417 0
M  V30 3971 H 373.682 -2.79565 1.68853 0
M  V30 3972 H 372.341 -1.46954 3.35857 0
M  V30 3973 H 371.989 -3.93529 3.13279 0
M  V30 3974 H 371.689 -3.38758 4.80122 0
M  V30 3975 H 373.213 -4.23062 4.40285 0
M  V30 3976 H 374.627 -2.15017 5.31451 0
M  V30 3977 H 373.024 -1.52796 5.80322 0
M  V30 3978 H 374.094 -0.51039 4.82206 0
M  V30 3979 N 375.437 -1.54477 -0.31217 0
M  V30 3980 C 376.714 -1.63891 -1.06767 0
M  V30 3981 C 377.094 -0.480028 -2.0557 0
M  V30 3982 O 376.442 0.524487 -2.22399 0
M  V30 3983 C 376.652 -3.01402 -1.75948 0
M  V30 3984 C 378 -3.57838 -2.28554 0
M  V30 3985 O 379.024 -3.03782 -1.85998 0
M  V30 3986 O 377.883 -4.52462 -3.06497 0
M  V30 3987 H 374.977 -0.664125 -0.492816 0
M  V30 3988 H 377.523 -1.66823 -0.311149 0
M  V30 3989 H 376.295 -3.77187 -1.04144 0
M  V30 3990 H 375.918 -3.02199 -2.58383 0
M  V30 3991 N 376.915 0.57481 -1.46744 0
M  V30 3992 C 377.878 1.66533 -1.57478 0
M  V30 3993 C 378.878 1.54338 -0.451263 0
M  V30 3994 O 380.068 1.58814 -0.715813 0
M  V30 3995 C 377.2 3.05999 -1.50259 0
M  V30 3996 H 378.393 1.58372 -2.54673 0
M  V30 3997 H 375.946 0.793301 -1.34672 0
M  V30 3998 H 376.681 3.19709 -0.543725 0
M  V30 3999 H 376.466 3.16259 -2.31781 0
M  V30 4000 H 377.956 3.8537 -1.60872 0
M  V30 4001 N 378.394 1.34581 0.820102 0
M  V30 4002 C 379.643 1.26437 1.57151 0
M  V30 4003 C 379.956 -0.163111 1.94919 0
M  V30 4004 O 381.162 -0.366722 2.69012 0
M  V30 4005 C 379.618 2.21658 2.83541 0
M  V30 4006 C 379.226 3.69679 2.53065 0
M  V30 4007 C 380.97 2.22428 3.61561 0
M  V30 4008 C 378.877 4.56761 3.75664 0
M  V30 4009 H 377.807 0.469707 0.589823 0
M  V30 4010 H 380.458 1.59763 0.902656 0
M  V30 4011 H 378.84 1.81287 3.52067 0
M  V30 4012 H 380.014 4.18605 1.92631 0
M  V30 4013 H 378.329 3.71384 1.88316 0
M  V30 4014 H 380.926 2.8471 4.52597 0
M  V30 4015 H 381.269 1.22434 3.97889 0
M  V30 4016 H 381.802 2.61259 2.99981 0
M  V30 4017 H 378.541 5.57702 3.44454 0
M  V30 4018 H 378.061 4.12568 4.35371 0
M  V30 4019 H 379.74 4.71509 4.43044 0
M  V30 4020 N 379.872 -1.04064 1.18357 0
M  V30 4021 C 381.102 -1.80654 1.00238 0
M  V30 4022 C 381.51 -1.83713 -0.452362 0
M  V30 4023 O 380.853 -1.27135 -1.32599 0
M  V30 4024 C 380.915 -3.27582 1.48088 0
M  V30 4025 C 380.579 -3.48184 2.96002 0
M  V30 4026 C 381.576 -3.39372 3.93856 0
M  V30 4027 C 379.261 -3.7478 3.34433 0
M  V30 4028 C 381.255 -3.5686 5.28138 0
M  V30 4029 C 378.942 -3.91915 4.68877 0
M  V30 4030 C 379.94 -3.82956 5.65539 0
M  V30 4031 O 379.628 -3.996 6.97549 0
M  V30 4032 H 379.36 -0.575751 0.354241 0
M  V30 4033 H 381.914 -1.32044 1.57333 0
M  V30 4034 H 380.144 -3.77161 0.853588 0
M  V30 4035 H 381.833 -3.8573 1.2636 0
M  V30 4036 H 382.599 -3.18789 3.65511 0
M  V30 4037 H 378.478 -3.80852 2.59756 0
M  V30 4038 H 382.022 -3.49783 6.03571 0
M  V30 4039 H 377.919 -4.11992 4.96923 0
M  V30 4040 H 378.687 -4.1676 7.04452 0
M  V30 4041 N 381.35 -0.985608 -1.22978 0
M  V30 4042 C 382.597 -0.657386 -1.91532 0
M  V30 4043 C 382.925 0.809707 -1.76845 0
M  V30 4044 O 382.18 1.60021 -1.12658 0
M  V30 4045 C 382.479 -1.00014 -3.43121 0
M  V30 4046 C 382.145 -2.4583 -3.77993 0
M  V30 4047 C 380.807 -2.85679 -3.87222 0
M  V30 4048 C 383.159 -3.40378 -3.94705 0
M  V30 4049 C 380.487 -4.19081 -4.10595 0
M  V30 4050 C 382.839 -4.73429 -4.1958 0
M  V30 4051 C 381.503 -5.1303 -4.27032 0
M  V30 4052 H 380.773 -0.240555 -0.700867 0
M  V30 4053 H 383.42 -1.24044 -1.45895 0
M  V30 4054 H 381.725 -0.335072 -3.90365 0
M  V30 4055 H 383.422 -0.724322 -3.94404 0
M  V30 4056 H 380.012 -2.13939 -3.71387 0
M  V30 4057 H 384.196 -3.10766 -3.8696 0
M  V30 4058 H 379.452 -4.49362 -4.14589 0
M  V30 4059 H 383.626 -5.46644 -4.31455 0
M  V30 4060 H 381.253 -6.16418 -4.44896 0
M  V30 4061 N 382.828 1.3818 -0.7579 0
M  V30 4062 C 384.074 2.00316 -0.316453 0
M  V30 4063 C 384.407 1.60026 1.10025 0
M  V30 4064 O 383.682 0.839835 1.75434 0
M  V30 4065 C 383.965 3.57349 -0.444245 0
M  V30 4066 C 383.818 4.07591 -1.90236 0
M  V30 4067 C 385.137 4.3981 0.1598 0
M  V30 4068 H 382.256 0.727741 -0.116459 0
M  V30 4069 H 384.898 1.6406 -0.958352 0
M  V30 4070 H 383.048 3.88365 0.102233 0
M  V30 4071 H 384.72 3.87199 -2.50748 0
M  V30 4072 H 382.963 3.60297 -2.41595 0
M  V30 4073 H 383.634 5.16677 -1.94291 0
M  V30 4074 H 386.11 4.14971 -0.306314 0
M  V30 4075 H 384.986 5.48885 0.0401675 0
M  V30 4076 H 385.247 4.24102 1.24859 0
M  V30 4077 N 384.306 0.507319 1.49211 0
M  V30 4078 C 385.552 -0.0350047 2.0277 0
M  V30 4079 C 385.885 -1.3606 1.38569 0
M  V30 4080 O 385.16 -1.87321 0.523542 0
M  V30 4081 C 385.443 -0.180916 3.59645 0
M  V30 4082 C 385.296 1.16825 4.34364 0
M  V30 4083 C 386.615 -0.918558 4.30407 0
M  V30 4084 H 383.734 -0.0112473 0.736914 0
M  V30 4085 H 386.376 0.659956 1.7817 0
M  V30 4086 H 384.526 -0.772826 3.80736 0
M  V30 4087 H 386.198 1.79952 4.24753 0
M  V30 4088 H 384.441 1.75594 3.96673 0
M  V30 4089 H 385.112 1.01939 5.42506 0
M  V30 4090 H 387.588 -0.41649 4.1401 0
M  V30 4091 H 386.464 -0.989505 5.39907 0
M  V30 4092 H 386.725 -1.96373 3.96093 0
M  V30 4093 N 385.784 -1.5574 0.241426 0
M  V30 4094 C 387.033 -1.97986 -0.385295 0
M  V30 4095 C 387.346 -1.13267 -1.59468 0
M  V30 4096 O 388.552 -1.45501 -2.2922 0
M  V30 4097 C 387.008 -3.52275 -0.736884 0
M  V30 4098 C 386.616 -4.45726 0.450796 0
M  V30 4099 C 388.36 -4.03189 -1.3281 0
M  V30 4100 C 386.267 -5.91352 0.0756662 0
M  V30 4101 H 385.197 -0.739386 -0.147731 0
M  V30 4102 H 387.848 -1.80308 0.340779 0
M  V30 4103 H 386.23 -3.65628 -1.52094 0
M  V30 4104 H 387.404 -4.44131 1.22819 0
M  V30 4105 H 385.719 -4.05264 0.956573 0
M  V30 4106 H 388.316 -5.09505 -1.62201 0
M  V30 4107 H 388.659 -3.50212 -2.25071 0
M  V30 4108 H 389.192 -3.93141 -0.607069 0
M  V30 4109 H 385.931 -6.48354 0.965272 0
M  V30 4110 H 385.451 -5.96095 -0.665635 0
M  V30 4111 H 387.13 -6.46084 -0.344075 0
M  V30 4112 N 387.262 0.0317525 -1.57568 0
M  V30 4113 C 388.49 0.734949 -1.93407 0
M  V30 4114 C 388.905 1.69036 -0.84096 0
M  V30 4115 O 388.262 1.81582 0.182836 0
M  V30 4116 C 388.313 1.49432 -3.29169 0
M  V30 4117 O 388.034 0.577261 -4.3428 0
M  V30 4118 C 389.535 2.29492 -3.79273 0
M  V30 4119 H 386.755 0.206706 -0.638368 0
M  V30 4120 H 389.299 -0.00992046 -2.04498 0
M  V30 4121 H 387.454 2.1911 -3.19483 0
M  V30 4122 H 387.868 1.10952 -5.1263 0
M  V30 4123 H 389.342 2.78172 -4.76785 0
M  V30 4124 H 389.819 3.10794 -3.10328 0
M  V30 4125 H 390.425 1.64894 -3.92033 0
M  V30 4126 N 388.74 1.54641 0.303973 0
M  V30 4127 C 389.67 1.88386 1.3796 0
M  V30 4128 C 390.651 0.742485 1.5304 0
M  V30 4129 O 391.836 0.997959 1.66597 0
M  V30 4130 C 388.966 2.12854 2.74427 0
M  V30 4131 C 387.92 3.28702 2.74115 0
M  V30 4132 C 387.246 3.38582 4.13844 0
M  V30 4133 C 388.546 4.65881 2.3612 0
M  V30 4134 H 390.24 2.78474 1.09966 0
M  V30 4135 H 387.786 1.33988 0.527556 0
M  V30 4136 H 389.739 2.35047 3.49758 0
M  V30 4137 H 388.463 1.19535 3.03939 0
M  V30 4138 H 387.122 3.06428 2.0124 0
M  V30 4139 H 386.77 2.42784 4.40528 0
M  V30 4140 H 386.47 4.16453 4.14537 0
M  V30 4141 H 387.994 3.63031 4.90959 0
M  V30 4142 H 389.408 4.87823 3.01167 0
M  V30 4143 H 387.805 5.46444 2.48031 0
M  V30 4144 H 388.875 4.66799 1.3125 0
M  V30 4145 N 390.218 -0.567019 1.47046 0
M  V30 4146 C 391.446 -1.35027 1.56765 0
M  V30 4147 C 391.861 -1.8758 0.214316 0
M  V30 4148 O 391.218 -1.64471 -0.790919 0
M  V30 4149 C 391.269 -2.52698 2.58507 0
M  V30 4150 O 390.99 -2.0232 3.88585 0
M  V30 4151 C 392.491 -3.45043 2.78316 0
M  V30 4152 H 389.711 -0.41195 0.529658 0
M  V30 4153 H 392.255 -0.687832 1.92585 0
M  V30 4154 H 390.41 -3.149 2.25648 0
M  V30 4155 H 390.824 -2.79068 4.44096 0
M  V30 4156 H 392.298 -4.2405 3.53391 0
M  V30 4157 H 392.775 -3.97971 1.85784 0
M  V30 4158 H 393.381 -2.88665 3.12334 0
M  V30 4159 N 391.696 -1.35014 -0.812953 0
M  V30 4160 C 392.924 -1.31031 -1.6012 0
M  V30 4161 C 393.339 0.113558 -1.88458 0
M  V30 4162 O 392.696 1.06363 -1.48301 0
M  V30 4163 C 392.747 -2.10872 -2.93624 0
M  V30 4164 O 392.468 -3.47706 -2.66518 0
M  V30 4165 C 393.969 -2.14401 -3.88004 0
M  V30 4166 H 391.189 -0.45037 -0.497401 0
M  V30 4167 H 393.733 -1.77775 -1.01076 0
M  V30 4168 H 391.888 -1.67744 -3.492 0
M  V30 4169 H 392.302 -3.89097 -3.51715 0
M  V30 4170 H 393.776 -2.74669 -4.78812 0
M  V30 4171 H 394.253 -1.14105 -4.24119 0
M  V30 4172 H 394.859 -2.57662 -3.38364 0
M  V30 4173 N 393.175 1.03435 -1.18907 0
M  V30 4174 C 394.424 1.76143 -0.982669 0
M  V30 4175 C 394.737 1.89416 0.487953 0
M  V30 4176 O 395.943 2.59041 0.813036 0
M  V30 4177 C 394.399 3.16722 -1.70924 0
M  V30 4178 C 394.007 3.11522 -3.21959 0
M  V30 4179 C 395.751 3.93764 -1.58588 0
M  V30 4180 C 393.658 4.46999 -3.87228 0
M  V30 4181 H 392.588 0.660292 -0.364047 0
M  V30 4182 H 395.239 1.158 -1.42347 0
M  V30 4183 H 393.621 3.775 -1.19623 0
M  V30 4184 H 394.795 2.60158 -3.80335 0
M  V30 4185 H 393.11 2.47978 -3.34508 0
M  V30 4186 H 395.707 4.93963 -2.04707 0
M  V30 4187 H 396.05 4.12794 -0.539142 0
M  V30 4188 H 396.583 3.39576 -2.07203 0
M  V30 4189 H 393.322 4.33174 -4.91976 0
M  V30 4190 H 392.842 4.98441 -3.33642 0
M  V30 4191 H 394.521 5.15898 -3.90459 0
M  V30 4192 N 394.653 0.992116 1.22453 0
M  V30 4193 C 395.901 0.666215 1.90804 0
M  V30 4194 C 396.222 -0.804152 1.77647 0
M  V30 4195 O 395.492 -1.57629 1.16318 0
M  V30 4196 H 394.072 0.243423 0.706225 0
M  V30 4197 H 396.734 1.25845 1.48825 0
M  V30 4198 H 395.83 0.928069 2.97982 0
M  V30 4199 N 396.131 -1.37776 0.765217 0
M  V30 4200 C 397.378 -1.99849 0.326588 0
M  V30 4201 C 397.706 -1.60746 -1.09504 0
M  V30 4202 O 396.961 -0.84202 -1.76659 0
M  V30 4203 C 397.26 -3.5504 0.410053 0
M  V30 4204 C 396.926 -4.13891 1.78899 0
M  V30 4205 C 395.588 -4.29678 2.16635 0
M  V30 4206 C 397.94 -4.46236 2.69301 0
M  V30 4207 C 395.268 -4.7511 3.44221 0
M  V30 4208 C 397.62 -4.93089 3.9629 0
M  V30 4209 C 396.284 -5.07082 4.34078 0
M  V30 4210 H 395.554 -0.7313 0.119507 0
M  V30 4211 H 398.201 -1.64645 0.977968 0
M  V30 4212 H 396.506 -3.90451 -0.324878 0
M  V30 4213 H 398.203 -4.00966 0.0520699 0
M  V30 4214 H 394.793 -4.02026 1.48569 0
M  V30 4215 H 398.977 -4.3363 2.41409 0
M  V30 4216 H 394.233 -4.84129 3.73402 0
M  V30 4217 H 398.407 -5.17084 4.66472 0
M  V30 4218 H 396.034 -5.42046 5.33001 0
M  V30 4219 N 397.609 -0.515225 -1.4894 0
M  V30 4220 C 398.857 0.0241671 -2.02086 0
M  V30 4221 C 399.178 1.3616 -1.3959 0
M  V30 4222 O 398.448 1.87841 -0.556121 0
M  V30 4223 H 397.028 0.0119203 -0.746905 0
M  V30 4224 H 399.69 -0.675702 -1.82812 0
M  V30 4225 H 398.786 0.143385 -3.1177 0
M  V30 4226 N 399.087 1.5561 -0.249682 0
M  V30 4227 C 400.364 1.90932 0.424761 0
M  V30 4228 C 400.744 1.17078 1.75658 0
M  V30 4229 O 400.092 0.289176 2.26663 0
M  V30 4230 C 400.302 3.43975 0.590109 0
M  V30 4231 C 401.65 4.15281 0.884714 0
M  V30 4232 O 402.674 3.49729 0.67587 0
M  V30 4233 O 401.533 5.31236 1.28259 0
M  V30 4234 H 398.627 0.794815 0.228468 0
M  V30 4235 H 401.173 1.67135 -0.293954 0
M  V30 4236 H 399.945 3.89748 -0.34818 0
M  V30 4237 H 399.568 3.73644 1.35926 0
M  V30 4238 N 400.565 -0.0233959 1.57583 0
M  V30 4239 C 401.795 -0.723631 1.93513 0
M  V30 4240 C 402.203 -1.69115 0.848333 0
M  V30 4241 O 401.546 -1.82781 -0.183484 0
M  V30 4242 C 401.608 -1.53075 3.25282 0
M  V30 4243 C 401.272 -0.727388 4.51174 0
M  V30 4244 C 402.269 -0.0251924 5.19894 0
M  V30 4245 C 399.954 -0.680256 4.97672 0
M  V30 4246 C 401.948 0.713374 6.33395 0
M  V30 4247 C 399.635 0.0620523 6.11068 0
M  V30 4248 C 400.633 0.757622 6.78785 0
M  V30 4249 O 400.321 1.48787 7.90011 0
M  V30 4250 H 400.053 -0.208051 0.643188 0
M  V30 4251 H 402.607 0.0167489 2.05393 0
M  V30 4252 H 400.837 -2.31508 3.09744 0
M  V30 4253 H 402.526 -2.11413 3.46496 0
M  V30 4254 H 403.292 -0.0526003 4.84971 0
M  V30 4255 H 399.171 -1.21116 4.44805 0
M  V30 4256 H 402.715 1.25683 6.86185 0
M  V30 4257 H 398.612 0.0913634 6.45435 0
M  V30 4258 H 399.38 1.40213 8.06401 0
M  V30 4259 N 402.043 -1.548 -0.295768 0
M  V30 4260 C 403.289 -1.74588 -1.03184 0
M  V30 4261 C 403.622 -0.532962 -1.86744 0
M  V30 4262 O 402.897 0.469872 -1.88739 0
M  V30 4263 C 403.18 -3.03791 -1.93347 0
M  V30 4264 C 403.033 -4.35392 -1.12933 0
M  V30 4265 C 404.352 -3.28892 -2.92435 0
M  V30 4266 H 401.471 -0.635221 -0.373715 0
M  V30 4267 H 404.113 -1.87519 -0.30606 0
M  V30 4268 H 402.263 -2.92898 -2.55232 0
M  V30 4269 H 403.935 -4.58211 -0.532943 0
M  V30 4270 H 402.178 -4.31642 -0.432168 0
M  V30 4271 H 402.849 -5.22074 -1.79284 0
M  V30 4272 H 405.325 -3.39429 -2.4068 0
M  V30 4273 H 404.201 -4.20603 -3.52682 0
M  V30 4274 H 404.462 -2.47437 -3.6637 0
M  V30 4275 N 403.521 0.559213 -1.47345 0
M  V30 4276 C 404.484 1.64854 -1.59235 0
M  V30 4277 C 405.484 1.53851 -0.467607 0
M  V30 4278 O 406.674 1.58045 -0.732617 0
M  V30 4279 C 403.806 3.04388 -1.53496 0
M  V30 4280 H 404.999 1.55662 -2.56339 0
M  V30 4281 H 402.552 0.778973 -1.35505 0
M  V30 4282 H 403.287 3.19115 -0.577604 0
M  V30 4283 H 403.072 3.13783 -2.35123 0
M  V30 4284 H 404.562 3.83642 -1.6495 0
M  V30 4285 N 404.999 1.35443 0.805782 0
M  V30 4286 C 406.247 1.28507 1.55982 0
M  V30 4287 C 406.568 -0.140046 1.94496 0
M  V30 4288 O 405.838 -1.07666 1.63661 0
M  V30 4289 H 404.418 0.472676 0.578434 0
M  V30 4290 H 407.08 1.69555 0.961098 0
M  V30 4291 H 406.176 1.90148 2.47488 0
M  V30 4292 N 406.477 -1.02803 1.19454 0
M  V30 4293 C 407.725 -1.75869 0.995722 0
M  V30 4294 C 408.046 -1.89138 -0.474543 0
M  V30 4295 O 407.316 -1.42558 -1.34366 0
M  V30 4296 H 405.896 -0.651511 0.365435 0
M  V30 4297 H 408.558 -1.24004 1.50363 0
M  V30 4298 H 407.654 -2.76661 1.44447 0
M  V30 4299 N 407.956 -0.998596 -1.21925 0
M  V30 4300 C 409.181 -0.696015 -1.95372 0
M  V30 4301 C 409.606 0.733826 -1.73195 0
M  V30 4302 O 408.964 1.50242 -1.01474 0
M  V30 4303 C 409.012 -1.01466 -3.4603 0
M  V30 4304 O 408.116 -0.116415 -4.12236 0
M  V30 4305 H 407.457 -0.259938 -0.611006 0
M  V30 4306 H 409.987 -1.33711 -1.54863 0
M  V30 4307 H 409.997 -0.958855 -3.96573 0
M  V30 4308 H 408.672 -2.05653 -3.61497 0
M  V30 4309 H 407.249 -0.228193 -3.72201 0
M  V30 4310 N 409.434 1.37368 -0.772513 0
M  V30 4311 C 410.711 1.93839 -0.26188 0
M  V30 4312 C 411.091 1.7061 1.24319 0
M  V30 4313 O 410.439 1.05534 2.02669 0
M  V30 4314 C 410.649 3.43154 -0.636102 0
M  V30 4315 C 411.997 4.20249 -0.606324 0
M  V30 4316 O 413.021 3.5152 -0.575538 0
M  V30 4317 O 411.88 5.42809 -0.634086 0
M  V30 4318 H 408.974 0.82478 -0.0605555 0
M  V30 4319 H 411.52 1.4665 -0.853917 0
M  V30 4320 H 410.292 3.53647 -1.6748 0
M  V30 4321 H 409.915 3.97596 -0.0170516 0
M  V30 4322 N 410.912 0.523116 1.48665 0
M  V30 4323 C 412.161 -0.01544 2.01694 0
M  V30 4324 C 412.474 -1.35975 1.40606 0
M  V30 4325 O 413.68 -1.98627 1.85093 0
M  V30 4326 C 412.136 -0.0779303 3.59816 0
M  V30 4327 C 411.744 1.26107 4.29885 0
M  V30 4328 C 413.488 -0.565678 4.20714 0
M  V30 4329 C 411.395 1.15954 5.79921 0
M  V30 4330 H 410.325 -0.00954163 0.75394 0
M  V30 4331 H 412.976 0.665865 1.70993 0
M  V30 4332 H 411.358 -0.824165 3.87329 0
M  V30 4333 H 412.532 2.02233 4.14051 0
M  V30 4334 H 410.847 1.68401 3.80828 0
M  V30 4335 H 413.444 -0.6595 5.30617 0
M  V30 4336 H 413.787 -1.56984 3.85567 0
M  V30 4337 H 414.32 0.12467 3.97605 0
M  V30 4338 H 411.059 2.13864 6.19631 0
M  V30 4339 H 410.579 0.439529 5.98187 0
M  V30 4340 H 412.258 0.847361 6.41427 0
M  V30 4341 N 412.39 -1.55475 0.257931 0
M  V30 4342 C 413.3 -2.2549 -0.647425 0
M  V30 4343 C 414.316 -1.2748 -1.18427 0
M  V30 4344 O 415.492 -1.6038 -1.2182 0
M  V30 4345 C 412.557 -2.94916 -1.82278 0
M  V30 4346 C 411.618 -4.08363 -1.32432 0
M  V30 4347 C 410.851 -4.74469 -2.44366 0
M  V30 4348 O 411.074 -4.39701 -3.63344 0
M  V30 4349 O 410.008 -5.62763 -2.13497 0
M  V30 4350 H 413.834 -3.03593 -0.0807707 0
M  V30 4351 H 411.419 -1.49377 0.0259962 0
M  V30 4352 H 413.301 -3.38606 -2.50846 0
M  V30 4353 H 411.976 -2.19744 -2.37685 0
M  V30 4354 H 410.883 -3.69166 -0.605605 0
M  V30 4355 H 412.216 -4.85385 -0.816211 0
M  V30 4356 N 413.868 0.0150385 -1.57593 0
M  V30 4357 C 415.098 0.713359 -1.93894 0
M  V30 4358 C 415.506 1.68663 -0.857289 0
M  V30 4359 O 414.849 1.82876 0.173788 0
M  V30 4360 C 414.911 1.51348 -3.26089 0
M  V30 4361 C 414.575 0.703451 -4.51554 0
M  V30 4362 C 415.572 -0.00237924 -5.199 0
M  V30 4363 C 413.257 0.653854 -4.98026 0
M  V30 4364 C 415.251 -0.746955 -6.33008 0
M  V30 4365 C 412.938 -0.0944578 -6.11027 0
M  V30 4366 C 413.936 -0.793609 -6.78374 0
M  V30 4367 O 413.624 -1.52974 -7.89211 0
M  V30 4368 H 413.356 0.204637 -0.644282 0
M  V30 4369 H 415.91 -0.0276411 -2.05381 0
M  V30 4370 H 414.14 2.29862 -3.10967 0
M  V30 4371 H 415.829 2.09572 -3.47612 0
M  V30 4372 H 416.595 0.0268803 -4.84993 0
M  V30 4373 H 412.474 1.18756 -4.45441 0
M  V30 4374 H 416.018 -1.2932 -6.85509 0
M  V30 4375 H 411.915 -0.125591 -6.45378 0
M  V30 4376 H 412.683 -1.44488 -8.05646 0
M  V30 4377 N 415.346 1.54954 0.287554 0
M  V30 4378 C 416.276 1.89839 1.35954 0
M  V30 4379 C 417.257 0.758675 1.52244 0
M  V30 4380 O 418.442 1.01557 1.65529 0
M  V30 4381 C 415.572 2.15753 2.72154 0
M  V30 4382 C 414.526 3.3159 2.70614 0
M  V30 4383 C 413.852 3.42952 4.10229 0
M  V30 4384 C 415.152 4.68359 2.31165 0
M  V30 4385 H 416.846 2.79625 1.07007 0
M  V30 4386 H 414.392 1.3454 0.513316 0
M  V30 4387 H 416.345 2.38743 3.47246 0
M  V30 4388 H 415.069 1.22752 3.02654 0
M  V30 4389 H 413.728 3.08545 1.97979 0
M  V30 4390 H 413.376 2.47443 4.37928 0
M  V30 4391 H 413.076 4.20826 4.10097 0
M  V30 4392 H 414.6 3.68218 4.87081 0
M  V30 4393 H 416.014 4.9099 2.95976 0
M  V30 4394 H 414.411 5.49044 2.42221 0
M  V30 4395 H 415.481 4.68165 1.26291 0
M  V30 4396 N 416.824 -0.551391 1.4764 0
M  V30 4397 C 418.101 -1.31229 1.45046 0
M  V30 4398 C 418.481 -2.10563 0.150527 0
M  V30 4399 O 417.829 -2.11374 -0.867956 0
M  V30 4400 C 418.039 -2.21189 2.69956 0
M  V30 4401 C 419.387 -2.82021 3.1741 0
M  V30 4402 O 420.411 -2.31488 2.70724 0
M  V30 4403 O 419.27 -3.73885 3.98588 0
M  V30 4404 H 416.364 -0.591193 0.578291 0
M  V30 4405 H 418.91 -0.569813 1.59847 0
M  V30 4406 H 417.682 -1.62207 3.56096 0
M  V30 4407 H 417.305 -3.02722 2.57769 0
M  V30 4408 N 418.302 -1.35869 -0.798587 0
M  V30 4409 C 419.549 -1.29588 -1.55606 0
M  V30 4410 C 419.877 0.127456 -1.94082 0
M  V30 4411 O 419.132 1.09461 -1.62225 0
M  V30 4412 C 419.431 -2.1556 -2.85077 0
M  V30 4413 C 419.097 -3.6424 -2.65781 0
M  V30 4414 C 417.759 -4.04766 -2.60227 0
M  V30 4415 C 420.111 -4.58547 -2.47758 0
M  V30 4416 C 417.439 -5.37753 -2.34603 0
M  V30 4417 C 419.791 -5.91742 -2.23662 0
M  V30 4418 C 418.455 -6.31402 -2.16534 0
M  V30 4419 H 417.725 -0.474197 -0.569402 0
M  V30 4420 H 420.372 -1.67839 -0.922086 0
M  V30 4421 H 418.677 -1.70216 -3.52893 0
M  V30 4422 H 420.374 -2.08031 -3.42818 0
M  V30 4423 H 416.964 -3.32086 -2.70956 0
M  V30 4424 H 421.148 -4.28117 -2.51056 0
M  V30 4425 H 416.404 -5.67474 -2.2756 0
M  V30 4426 H 420.578 -6.6439 -2.08708 0
M  V30 4427 H 418.205 -7.34381 -1.96441 0
M  V30 4428 N 419.78 1.02168 -1.19998 0
M  V30 4429 C 421.01 1.79036 -1.031 0
M  V30 4430 C 421.418 1.84409 0.423078 0
M  V30 4431 O 420.761 1.29228 1.30559 0
M  V30 4432 C 420.823 3.25185 -1.53281 0
M  V30 4433 C 420.487 3.43431 -3.01503 0
M  V30 4434 C 421.484 3.33063 -3.99206 0
M  V30 4435 C 419.169 3.69412 -3.40353 0
M  V30 4436 C 421.163 3.48413 -5.33748 0
M  V30 4437 C 418.85 3.84406 -4.75053 0
M  V30 4438 C 419.848 3.7391 -5.71559 0
M  V30 4439 O 419.536 3.88452 -7.03818 0
M  V30 4440 H 419.268 0.570043 -0.363355 0
M  V30 4441 H 421.822 1.29524 -1.59414 0
M  V30 4442 H 420.052 3.75756 -0.913483 0
M  V30 4443 H 421.741 3.83671 -1.32481 0
M  V30 4444 H 422.507 3.12934 -3.70537 0
M  V30 4445 H 418.386 3.76671 -2.65782 0
M  V30 4446 H 421.93 3.40137 -6.09059 0
M  V30 4447 H 417.827 4.04035 -5.03415 0
M  V30 4448 H 418.595 4.055 -7.10993 0
M  V30 4449 N 421.258 1.00505 1.21394 0
M  V30 4450 C 422.205 0.565496 2.23765 0
M  V30 4451 C 423.175 -0.408466 1.60999 0
M  V30 4452 O 424.36 -0.310503 1.88257 0
M  V30 4453 C 421.5 -0.101667 3.4495 0
M  V30 4454 C 420.613 0.915479 4.22188 0
M  V30 4455 C 419.748 0.220574 5.30742 0
M  V30 4456 C 418.787 1.22527 5.99711 0
M  V30 4457 N 417.924 0.557831 6.9988 0
M  V30 4458 H 422.764 1.44314 2.60725 0
M  V30 4459 H 420.301 0.722643 1.28126 0
M  V30 4460 H 422.259 -0.505504 4.14126 0
M  V30 4461 H 420.889 -0.94303 3.08718 0
M  V30 4462 H 419.941 1.43756 3.52191 0
M  V30 4463 H 421.253 1.68005 4.69655 0
M  V30 4464 H 420.407 -0.239368 6.06228 0
M  V30 4465 H 419.146 -0.576401 4.84282 0
M  V30 4466 H 418.151 1.69571 5.22997 0
M  V30 4467 H 419.376 2.02332 6.48258 0
M  V30 4468 H 417.322 -0.219486 6.55633 0
M  V30 4469 H 417.239 1.26065 7.45415 0
M  V30 4470 H 418.507 0.121095 7.79406 0
M  V30 4471 N 422.737 -1.36956 0.779787 0
M  V30 4472 C 424.148 -1.82094 0.412156 0
M  V30 4473 C 424.499 -1.64926 -1.06273 0
M  V30 4474 O 423.624 -1.16483 -1.82375 0
M  V30 4475 C 424.219 -3.3059 0.741319 0
M  V30 4476 C 422.778 -3.73974 0.426641 0
M  V30 4477 C 421.925 -2.59368 0.980987 0
M  V30 4478 H 424.876 -1.25314 0.973758 0
M  V30 4479 H 424.897 -3.80489 0.028887 0
M  V30 4480 H 424.409 -3.43054 1.81482 0
M  V30 4481 H 422.51 -3.67076 -0.639215 0
M  V30 4482 H 422.623 -4.69778 0.940515 0
M  V30 4483 H 420.987 -2.51463 0.404757 0
M  V30 4484 H 421.77 -2.74621 2.06005 0
M  V30 4485 N 424.215 -0.530993 -1.48385 0
M  V30 4486 C 425.461 0.00274135 -2.028 0
M  V30 4487 C 425.794 1.33838 -1.40716 0
M  V30 4488 O 425.069 1.86465 -0.553277 0
M  V30 4489 C 425.352 0.123676 -3.59888 0
M  V30 4490 C 425.205 -1.2372 -4.3245 0
M  V30 4491 C 426.524 0.849967 -4.31814 0
M  V30 4492 H 423.643 -0.000477758 -0.737 0
M  V30 4493 H 426.285 -0.688217 -1.77098 0
M  V30 4494 H 424.435 0.712157 -3.81917 0
M  V30 4495 H 426.107 -1.86687 -4.21836 0
M  V30 4496 H 424.35 -1.81882 -3.93829 0
M  V30 4497 H 425.021 -1.10557 -5.40815 0
M  V30 4498 H 427.497 0.350572 -4.14621 0
M  V30 4499 H 426.373 0.903486 -5.41413 0
M  V30 4500 H 426.634 1.90047 -3.99167 0
M  V30 4501 N 425.693 1.55336 -0.266172 0
M  V30 4502 C 426.939 1.99692 0.353681 0
M  V30 4503 C 427.272 1.1543 1.56172 0
M  V30 4504 O 426.547 0.222218 1.93226 0
M  V30 4505 C 426.83 3.52316 0.74466 0
M  V30 4506 C 426.683 4.47337 -0.470101 0
M  V30 4507 C 428.002 4.10588 1.58447 0
M  V30 4508 H 425.121 0.725961 0.12708 0
M  V30 4509 H 427.763 1.86336 -0.371333 0
M  V30 4510 H 425.913 3.63829 1.36239 0
M  V30 4511 H 427.585 4.4778 -1.10864 0
M  V30 4512 H 425.828 4.19364 -1.10978 0
M  V30 4513 H 426.499 5.51788 -0.15291 0
M  V30 4514 H 428.975 4.02297 1.06286 0
M  V30 4515 H 427.851 5.17607 1.82686 0
M  V30 4516 H 428.112 3.60253 2.56262 0
M  V30 4517 N 427.171 -0.0066808 1.57599 0
M  V30 4518 C 428.417 -0.68835 1.91398 0
M  V30 4519 C 428.772 -1.7175 0.86716 0
M  V30 4520 O 428.065 -1.91215 -0.121475 0
M  V30 4521 C 428.259 -1.37939 3.29708 0
M  V30 4522 C 428.088 -0.418689 4.47747 0
M  V30 4523 C 426.858 -0.031526 5.0529 0
M  V30 4524 C 429.056 0.312301 5.13351 0
M  V30 4525 N 427.038 0.928088 6.06844 0
M  V30 4526 C 428.409 1.12682 6.09674 0
M  V30 4527 C 430.464 0.376853 4.96472 0
M  V30 4528 C 429.167 2 6.90936 0
M  V30 4529 C 431.193 1.23723 5.78314 0
M  V30 4530 C 430.555 2.03962 6.74225 0
M  V30 4531 H 426.654 -0.225292 0.748844 0
M  V30 4532 H 429.238 0.0520973 1.9463 0
M  V30 4533 H 427.409 -2.09017 3.27363 0
M  V30 4534 H 429.141 -2.01522 3.50957 0
M  V30 4535 H 425.896 -0.398485 4.71921 0
M  V30 4536 H 426.32 1.40307 6.62301 0
M  V30 4537 H 430.962 -0.22921 4.22178 0
M  V30 4538 H 428.68 2.61676 7.64559 0
M  V30 4539 H 432.266 1.291 5.67296 0
M  V30 4540 H 431.146 2.69461 7.36451 0
M  V30 4541 N 428.649 -1.55105 -0.279332 0
M  V30 4542 C 429.896 -1.75412 -1.01177 0
M  V30 4543 C 430.224 -0.551728 -1.86511 0
M  V30 4544 O 429.479 0.465919 -1.90073 0
M  V30 4545 C 429.778 -3.0086 -1.92919 0
M  V30 4546 C 429.444 -4.33689 -1.23387 0
M  V30 4547 C 428.106 -4.69792 -1.04159 0
M  V30 4548 C 430.458 -5.15941 -0.738562 0
M  V30 4549 C 427.786 -5.85707 -0.341166 0
M  V30 4550 C 430.138 -6.32579 -0.0517636 0
M  V30 4551 C 428.802 -6.67326 0.152292 0
M  V30 4552 H 428.072 -0.641879 -0.370233 0
M  V30 4553 H 430.719 -1.89373 -0.284627 0
M  V30 4554 H 429.024 -2.81773 -2.72234 0
M  V30 4555 H 430.721 -3.13768 -2.49701 0
M  V30 4556 H 427.311 -4.05309 -1.39364 0
M  V30 4557 H 431.495 -4.8853 -0.874764 0
M  V30 4558 H 426.751 -6.11157 -0.172287 0
M  V30 4559 H 430.925 -6.9557 0.339828 0
M  V30 4560 H 428.552 -7.56998 0.697014 0
M  V30 4561 N 430.127 0.543554 -1.4793 0
M  V30 4562 C 431.373 1.29961 -1.56466 0
M  V30 4563 C 431.728 1.91024 -0.229696 0
M  V30 4564 O 431.021 1.75619 0.766072 0
M  V30 4565 C 431.215 2.42078 -2.62932 0
M  V30 4566 C 431.044 1.92003 -4.06651 0
M  V30 4567 C 429.814 1.75223 -4.73946 0
M  V30 4568 C 432.012 1.45648 -4.93245 0
M  V30 4569 N 429.994 1.19632 -6.02131 0
M  V30 4570 C 431.365 1.01914 -6.11566 0
M  V30 4571 C 433.42 1.33826 -4.79578 0
M  V30 4572 C 432.123 0.475301 -7.17728 0
M  V30 4573 C 434.149 0.808427 -5.85848 0
M  V30 4574 C 433.511 0.381081 -7.03368 0
M  V30 4575 H 429.61 0.467086 -0.62718 0
M  V30 4576 H 432.194 0.614543 -1.84747 0
M  V30 4577 H 430.365 3.08098 -2.36496 0
M  V30 4578 H 432.097 3.09096 -2.61231 0
M  V30 4579 H 428.852 1.98345 -4.30065 0
M  V30 4580 H 429.276 0.93885 -6.70458 0
M  V30 4581 H 433.918 1.65474 -3.89074 0
M  V30 4582 H 431.636 0.146472 -8.07967 0
M  V30 4583 H 435.222 0.720315 -5.77324 0
M  V30 4584 H 434.102 -0.0225344 -7.84197 0
M  V30 4585 N 431.605 1.3629 0.791371 0
M  V30 4586 C 432.854 1.29742 1.54434 0
M  V30 4587 C 433.167 -0.121729 1.95221 0
M  V30 4588 O 434.373 -0.309579 2.69729 0
M  V30 4589 C 432.829 2.27623 2.78776 0
M  V30 4590 C 432.437 3.74963 2.45166 0
M  V30 4591 C 434.181 2.30047 3.56761 0
M  V30 4592 C 432.088 4.64626 3.65891 0
M  V30 4593 H 431.018 0.482113 0.579727 0
M  V30 4594 H 433.669 1.61642 0.868565 0
M  V30 4595 H 432.051 1.88714 3.48142 0
M  V30 4596 H 433.225 4.22596 1.83709 0
M  V30 4597 H 431.54 3.75295 1.80396 0
M  V30 4598 H 434.137 2.94247 4.46456 0
M  V30 4599 H 434.48 1.30846 3.95203 0
M  V30 4600 H 435.013 2.67563 2.94372 0
M  V30 4601 H 431.752 5.64883 3.32547 0
M  V30 4602 H 431.272 4.2171 4.26521 0
M  V30 4603 H 432.951 4.80801 4.32943 0
M  V30 4604 N 433.083 -1.0153 1.20538 0
M  V30 4605 C 434.013 -2.11972 0.979295 0
M  V30 4606 C 434.994 -1.6985 -0.0921787 0
M  V30 4607 O 436.179 -1.94089 0.0655932 0
M  V30 4608 C 433.309 -3.43201 0.531984 0
M  V30 4609 C 432.263 -3.9907 1.54685 0
M  V30 4610 C 431.589 -5.26082 0.956127 0
M  V30 4611 C 432.889 -4.32313 2.93092 0
M  V30 4612 H 434.583 -2.31143 1.90298 0
M  V30 4613 H 432.129 -1.11079 0.916372 0
M  V30 4614 H 434.082 -4.1985 0.361044 0
M  V30 4615 H 432.806 -3.23792 -0.427327 0
M  V30 4616 H 431.465 -3.2453 1.70517 0
M  V30 4617 H 431.113 -5.02999 -0.0111538 0
M  V30 4618 H 430.813 -5.64426 1.63393 0
M  V30 4619 H 432.337 -6.05386 0.796284 0
M  V30 4620 H 433.751 -4.99845 2.80763 0
M  V30 4621 H 432.148 -4.81774 3.57791 0
M  V30 4622 H 433.218 -3.41025 3.44717 0
M  V30 4623 N 434.561 -1.01147 -1.20859 0
M  V30 4624 C 435.807 -0.698899 -1.90377 0
M  V30 4625 C 436.14 0.76904 -1.78324 0
M  V30 4626 O 435.415 1.55817 -1.16409 0
M  V30 4627 C 435.698 -1.12878 -3.41951 0
M  V30 4628 C 435.551 -2.65665 -3.62963 0
M  V30 4629 C 436.87 -0.696114 -4.3456 0
M  V30 4630 H 433.989 -0.255372 -0.691342 0
M  V30 4631 H 436.631 -1.25831 -1.42361 0
M  V30 4632 H 434.781 -0.652827 -3.82976 0
M  V30 4633 H 436.453 -3.21074 -3.31224 0
M  V30 4634 H 434.696 -3.06878 -3.06608 0
M  V30 4635 H 435.367 -2.90797 -4.69192 0
M  V30 4636 H 437.843 -1.10521 -4.01154 0
M  V30 4637 H 436.719 -1.025 -5.39245 0
M  V30 4638 H 436.98 0.402465 -4.40264 0
M  V30 4639 N 436.039 1.36541 -0.78704 0
M  V30 4640 C 437.287 1.98911 -0.357633 0
M  V30 4641 C 437.608 1.62778 1.07371 0
M  V30 4642 O 436.878 0.900612 1.73971 0
M  V30 4643 H 435.458 0.735734 -0.129246 0
M  V30 4644 H 438.12 1.66776 -1.00855 0
M  V30 4645 H 437.216 3.08874 -0.447549 0
M  V30 4646 N 437.518 0.538854 1.48102 0
M  V30 4647 C 438.448 -0.207654 2.32575 0
M  V30 4648 C 439.429 -0.926559 1.4265 0
M  V30 4649 O 440.614 -0.91061 1.71527 0
M  V30 4650 C 437.744 -1.24957 3.24042 0
M  V30 4651 C 436.698 -0.648263 4.23062 0
M  V30 4652 C 436.024 -1.79348 5.03725 0
M  V30 4653 C 437.324 0.385897 5.20872 0
M  V30 4654 H 439.018 0.497534 2.95237 0
M  V30 4655 H 436.564 0.240715 1.41974 0
M  V30 4656 H 438.517 -1.77983 3.81969 0
M  V30 4657 H 437.241 -1.98446 2.59397 0
M  V30 4658 H 435.9 -0.139452 3.66335 0
M  V30 4659 H 435.548 -2.51696 4.35498 0
M  V30 4660 H 435.248 -1.39702 5.70751 0
M  V30 4661 H 436.772 -2.32735 5.64506 0
M  V30 4662 H 438.186 -0.057607 5.73271 0
M  V30 4663 H 436.583 0.700227 5.96001 0
M  V30 4664 H 437.653 1.28848 4.67468 0
M  V30 4665 N 438.996 -1.55193 0.274407 0
M  V30 4666 C 439.959 -2.212 -0.600279 0
M  V30 4667 C 440.959 -1.18963 -1.08187 0
M  V30 4668 O 442.149 -1.43873 -0.982158 0
M  V30 4669 C 439.281 -2.87739 -1.82809 0
M  V30 4670 H 440.474 -2.9989 -0.0239682 0
M  V30 4671 H 438.027 -1.5628 0.0250192 0
M  V30 4672 H 438.762 -2.13058 -2.44493 0
M  V30 4673 H 438.547 -3.62658 -1.49069 0
M  V30 4674 H 440.037 -3.38171 -2.45011 0
M  V30 4675 N 440.474 -0.00167713 -1.576 0
M  V30 4676 C 441.704 0.692754 -1.94639 0
M  V30 4677 C 442.112 1.67744 -0.87513 0
M  V30 4678 O 441.455 1.8305 0.154382 0
M  V30 4679 C 441.517 1.47881 -3.27676 0
M  V30 4680 C 441.181 0.655518 -4.52274 0
M  V30 4681 C 442.178 -0.0575214 -5.19868 0
M  V30 4682 C 439.863 0.600994 -4.98692 0
M  V30 4683 C 441.857 -0.814052 -6.3218 0
M  V30 4684 C 439.544 -0.15926 -6.10892 0
M  V30 4685 C 440.542 -0.865515 -6.77494 0
M  V30 4686 O 440.23 -1.61336 -7.87544 0
M  V30 4687 H 439.962 0.197792 -0.646417 0
M  V30 4688 H 442.516 -0.049423 -2.05341 0
M  V30 4689 H 440.746 2.2655 -3.13388 0
M  V30 4690 H 442.435 2.05874 -3.49816 0
M  V30 4691 H 443.201 -0.0245611 -4.84994 0
M  V30 4692 H 439.08 1.14025 -4.46676 0
M  V30 4693 H 442.624 -1.36584 -6.84098 0
M  V30 4694 H 438.521 -0.194035 -6.45208 0
M  V30 4695 H 439.289 -1.53025 -8.04068 0
M  V30 4696 N 441.952 1.55251 0.271103 0
M  V30 4697 C 443.199 1.75946 1.00245 0
M  V30 4698 C 443.527 0.561611 1.86215 0
M  V30 4699 O 442.782 -0.455832 1.90317 0
M  V30 4700 C 443.081 3.01879 1.91321 0
M  V30 4701 C 442.747 4.34337 1.21086 0
M  V30 4702 C 441.409 4.70338 1.01666 0
M  V30 4703 C 443.761 5.16325 0.71119 0
M  V30 4704 C 441.089 5.8588 0.310099 0
M  V30 4705 C 443.441 6.32597 0.0182157 0
M  V30 4706 C 442.105 6.67236 -0.18768 0
M  V30 4707 H 441.375 0.643833 0.366824 0
M  V30 4708 H 444.022 1.89521 0.27458 0
M  V30 4709 H 442.327 2.83212 2.70736 0
M  V30 4710 H 444.024 3.15088 2.48033 0
M  V30 4711 H 440.614 4.06043 1.37213 0
M  V30 4712 H 444.798 4.88987 0.848844 0
M  V30 4713 H 440.054 6.1124 0.139873 0
M  V30 4714 H 444.228 6.9538 -0.376711 0
M  V30 4715 H 441.855 7.56618 -0.73715 0
M  V30 4716 N 443.43 -0.535701 1.48216 0
M  V30 4717 C 444.393 -1.623 1.61838 0
M  V30 4718 C 445.393 -1.53087 0.492024 0
M  V30 4719 O 446.583 -1.5686 0.757668 0
M  V30 4720 C 443.715 -3.01907 1.58319 0
M  V30 4721 H 444.908 -1.51564 2.58783 0
M  V30 4722 H 442.461 -0.757317 1.36727 0
M  V30 4723 H 443.196 -3.18155 0.628299 0
M  V30 4724 H 442.981 -3.10003 2.40085 0
M  V30 4725 H 444.471 -3.80969 1.71033 0
M  V30 4726 N 444.908 -1.36708 -0.784132 0
M  V30 4727 C 445.871 -1.31307 -1.87859 0
M  V30 4728 C 446.871 -0.219654 -1.59293 0
M  V30 4729 O 448.061 -0.47476 -1.67606 0
M  V30 4730 C 445.193 -1.03679 -3.24751 0
M  V30 4731 H 446.386 -2.28647 -1.94064 0
M  V30 4732 H 443.939 -1.21558 -0.98252 0
M  V30 4733 H 444.674 -0.0681936 -3.24228 0
M  V30 4734 H 444.459 -1.82811 -3.46876 0
M  V30 4735 H 445.949 -1.02518 -4.04821 0
M  V30 4736 N 446.386 1.0089 -1.21074 0
M  V30 4737 C 447.632 1.74866 -1.02712 0
M  V30 4738 C 447.965 1.89178 0.438787 0
M  V30 4739 O 447.24 1.42325 1.32567 0
M  V30 4740 C 447.523 3.16347 -1.72036 0
M  V30 4741 C 447.376 3.09782 -3.26121 0
M  V30 4742 C 448.695 4.15187 -1.45973 0
M  V30 4743 H 445.814 0.634736 -0.374539 0
M  V30 4744 H 448.456 1.17646 -1.49196 0
M  V30 4745 H 446.606 3.65201 -1.32517 0
M  V30 4746 H 448.278 2.68673 -3.74983 0
M  V30 4747 H 446.521 2.46982 -3.56626 0
M  V30 4748 H 447.192 4.09829 -3.6979 0
M  V30 4749 H 449.668 3.75022 -1.80272 0
M  V30 4750 H 448.544 5.12331 -1.96999 0
M  V30 4751 H 448.805 4.40386 -0.388924 0
M  V30 4752 N 447.864 1.01787 1.20321 0
M  V30 4753 C 448.794 0.609625 2.25401 0
M  V30 4754 C 449.775 -0.375951 1.65893 0
M  V30 4755 O 450.96 -0.261101 1.92437 0
M  V30 4756 C 448.09 -0.0515995 3.47262 0
M  V30 4757 C 447.044 0.855095 4.19371 0
M  V30 4758 C 446.37 0.0595757 5.34667 0
M  V30 4759 C 447.67 2.16374 4.75373 0
M  V30 4760 H 449.364 1.48803 2.59804 0
M  V30 4761 H 446.91 0.716934 1.24884 0
M  V30 4762 H 448.863 -0.348764 4.19954 0
M  V30 4763 H 447.587 -0.964726 3.12027 0
M  V30 4764 H 446.246 1.13628 3.48546 0
M  V30 4765 H 445.894 -0.85524 4.95676 0
M  V30 4766 H 445.594 0.663406 5.83843 0
M  V30 4767 H 447.118 -0.231105 6.10162 0
M  V30 4768 H 448.532 1.92885 5.39878 0
M  V30 4769 H 446.929 2.71853 5.34991 0
M  V30 4770 H 447.999 2.82589 3.94045 0
M  V30 4771 N 449.342 -1.36122 0.79427 0
M  V30 4772 C 450.567 -2.03891 0.379871 0
M  V30 4773 C 450.992 -1.59488 -0.997251 0
M  V30 4774 O 450.35 -0.765652 -1.64339 0
M  V30 4775 C 450.398 -3.57687 0.457442 0
M  V30 4776 O 449.502 -4.08931 -0.5338 0
M  V30 4777 H 448.843 -0.6443 0.160541 0
M  V30 4778 H 451.373 -1.73976 1.07673 0
M  V30 4779 H 451.383 -4.06721 0.322792 0
M  V30 4780 H 450.058 -3.89357 1.46199 0
M  V30 4781 H 448.635 -3.71154 -0.360409 0
M  V30 4782 N 450.82 -0.546701 -1.47814 0
M  V30 4783 C 451.753 0.254472 -2.26777 0
M  V30 4784 C 452.731 0.929809 -1.33392 0
M  V30 4785 O 453.915 0.950889 -1.62759 0
M  V30 4786 C 451.042 1.36171 -3.10121 0
M  V30 4787 C 450.088 0.796038 -4.19005 0
M  V30 4788 S 450.921 -0.349191 -5.3436 0
M  V30 4789 C 452.077 0.760122 -6.21267 0
M  V30 4790 H 452.31 -0.415612 -2.94381 0
M  V30 4791 H 449.843 -0.332809 -1.5077 0
M  V30 4792 H 451.801 1.99588 -3.58713 0
M  V30 4793 H 450.462 2.00359 -2.41899 0
M  V30 4794 H 449.655 1.62719 -4.7701 0
M  V30 4795 H 449.257 0.238246 -3.7324 0
M  V30 4796 H 451.549 1.65479 -6.5698 0
M  V30 4797 H 452.492 0.217673 -7.07765 0
M  V30 4798 H 452.9 1.04806 -5.54685 0
M  V30 4799 N 452.299 1.55045 -0.282633 0
M  V30 4800 C 453.548 1.98938 0.332667 0
M  V30 4801 C 453.861 1.17455 1.56409 0
M  V30 4802 O 455.067 1.51527 2.25282 0
M  V30 4803 C 453.523 3.54105 0.643226 0
M  V30 4804 C 453.131 4.44374 -0.568814 0
M  V30 4805 C 454.875 4.06569 1.22074 0
M  V30 4806 C 452.782 5.90943 -0.232426 0
M  V30 4807 H 451.712 0.743043 0.128075 0
M  V30 4808 H 454.363 1.79341 -0.388464 0
M  V30 4809 H 452.745 3.69532 1.42346 0
M  V30 4810 H 453.919 4.40718 -1.34551 0
M  V30 4811 H 452.234 4.02585 -1.06369 0
M  V30 4812 H 454.831 5.13626 1.48635 0
M  V30 4813 H 455.174 3.56057 2.15707 0
M  V30 4814 H 455.707 3.94612 0.502621 0
M  V30 4815 H 452.446 6.45567 -1.13683 0
M  V30 4816 H 451.966 5.9765 0.507357 0
M  V30 4817 H 453.645 6.4677 0.172657 0
M  V30 4818 N 453.777 0.010035 1.57597 0
M  V30 4819 C 455.025 -0.671371 1.90623 0
M  V30 4820 C 455.346 -1.73753 0.885151 0
M  V30 4821 O 454.616 -1.95752 -0.0760611 0
M  V30 4822 H 453.196 -0.250968 0.703579 0
M  V30 4823 H 455.858 0.0533325 1.94827 0
M  V30 4824 H 454.954 -1.13626 2.90681 0
M  V30 4825 N 455.255 -1.55392 -0.262866 0
M  V30 4826 C 456.532 -1.67204 -1.01499 0
M  V30 4827 C 456.912 -0.545186 -2.03939 0
M  V30 4828 O 456.26 0.453467 -2.23955 0
M  V30 4829 C 456.47 -3.06847 -1.6627 0
M  V30 4830 C 457.818 -3.64928 -2.17054 0
M  V30 4831 O 458.842 -3.09545 -1.76239 0
M  V30 4832 O 457.701 -4.61984 -2.91947 0
M  V30 4833 H 454.795 -0.679467 -0.471438 0
M  V30 4834 H 457.341 -1.67729 -0.257918 0
M  V30 4835 H 456.113 -3.80309 -0.920915 0
M  V30 4836 H 455.736 -3.10266 -2.48638 0
M  V30 4837 N 456.733 0.527833 -1.48498 0
M  V30 4838 C 457.979 1.28295 -1.57836 0
M  V30 4839 C 458.334 1.9077 -0.249943 0
M  V30 4840 O 457.627 1.76421 0.747402 0
M  V30 4841 C 457.821 2.39275 -2.65485 0
M  V30 4842 C 457.65 1.87679 -4.08664 0
M  V30 4843 C 456.42 1.70187 -4.75778 0
M  V30 4844 C 458.618 1.40409 -4.94762 0
M  V30 4845 N 456.6 1.13238 -6.03366 0
M  V30 4846 C 457.971 0.954216 -6.12613 0
M  V30 4847 C 460.026 1.28732 -4.8097 0
M  V30 4848 C 458.729 0.39915 -7.18192 0
M  V30 4849 C 460.755 0.746244 -5.86673 0
M  V30 4850 C 460.117 0.306457 -7.03733 0
M  V30 4851 H 456.216 0.460408 -0.632099 0
M  V30 4852 H 458.8 0.594913 -1.85388 0
M  V30 4853 H 456.971 3.05572 -2.3975 0
M  V30 4854 H 458.703 3.06308 -2.64495 0
M  V30 4855 H 455.458 1.93772 -4.32145 0
M  V30 4856 H 455.882 0.867687 -6.71417 0
M  V30 4857 H 460.524 1.61338 -3.90807 0
M  V30 4858 H 458.242 0.0607678 -8.08077 0
M  V30 4859 H 461.828 0.659041 -5.78055 0
M  V30 4860 H 460.708 -0.105708 -7.84129 0
M  V30 4861 N 458.211 1.37122 0.776871 0
M  V30 4862 C 459.141 1.35164 1.90402 0
M  V30 4863 C 460.122 0.221069 1.68657 0
M  V30 4864 O 461.307 0.420642 1.8959 0
M  V30 4865 C 458.437 1.15274 3.27611 0
M  V30 4866 C 457.391 2.25289 3.63908 0
M  V30 4867 C 456.717 1.90527 4.99603 0
M  V30 4868 C 458.017 3.67446 3.71188 0
M  V30 4869 H 459.711 2.29482 1.92297 0
M  V30 4870 H 457.257 1.10465 0.923773 0
M  V30 4871 H 459.21 1.12536 4.06096 0
M  V30 4872 H 457.934 0.174102 3.26136 0
M  V30 4873 H 456.593 2.27174 2.87728 0
M  V30 4874 H 456.241 0.91206 4.94662 0
M  V30 4875 H 455.941 2.64193 5.24858 0
M  V30 4876 H 457.465 1.89367 5.80493 0
M  V30 4877 H 458.879 3.67719 4.39836 0
M  V30 4878 H 457.276 4.40123 4.07936 0
M  V30 4879 H 458.346 4.01443 2.71977 0
M  V30 4880 N 459.689 -1.00246 1.21608 0
M  V30 4881 C 461.105 -1.26435 0.973975 0
M  V30 4882 C 461.305 -1.98642 -0.338143 0
M  V30 4883 O 460.361 -2.29026 -1.06317 0
M  V30 4884 C 461.674 -2.08551 2.16626 0
M  V30 4885 C 463.222 -2.21769 2.20879 0
M  V30 4886 C 463.697 -3.07267 3.39633 0
M  V30 4887 N 465.188 -3.14855 3.39736 0
M  V30 4888 C 465.923 -3.81274 4.28273 0
M  V30 4889 N 465.419 -4.497 5.27012 0
M  V30 4890 N 467.212 -3.7794 4.16074 0
M  V30 4891 H 459.363 -0.518089 2.05984 0
M  V30 4892 H 461.626 -0.291368 0.902113 0
M  V30 4893 H 461.332 -1.62847 3.11727 0
M  V30 4894 H 461.206 -3.09303 2.15897 0
M  V30 4895 H 463.593 -2.66691 1.26332 0
M  V30 4896 H 463.674 -1.20478 2.25652 0
M  V30 4897 H 463.318 -2.63047 4.34475 0
M  V30 4898 H 463.248 -4.08678 3.321 0
M  V30 4899 H 465.739 -2.66147 2.6828 0
M  V30 4900 H 466.052 -4.98092 5.90867 0
M  V30 4901 H 464.397 -4.48479 5.30935 0
M  V30 4902 H 467.588 -3.23638 3.38195 0
M  V30 4903 H 467.761 -4.29424 4.85282 0
M  V30 4904 N 461.167 -1.02423 -1.1978 0
M  V30 4905 C 462.413 -0.719051 -1.89625 0
M  V30 4906 C 462.746 0.750083 -1.7913 0
M  V30 4907 O 462.021 1.54574 -1.18056 0
M  V30 4908 C 462.304 -1.16499 -3.40735 0
M  V30 4909 C 462.157 -2.695 -3.60125 0
M  V30 4910 C 463.476 -0.742166 -4.33797 0
M  V30 4911 H 460.595 -0.26269 -0.688595 0
M  V30 4912 H 463.237 -1.27333 -1.41018 0
M  V30 4913 H 461.387 -0.69341 -3.82262 0
M  V30 4914 H 463.059 -3.24569 -3.278 0
M  V30 4915 H 461.302 -3.10113 -3.03336 0
M  V30 4916 H 461.973 -2.95757 -4.66081 0
M  V30 4917 H 464.449 -1.1477 -3.99959 0
M  V30 4918 H 463.325 -1.08213 -5.38127 0
M  V30 4919 H 463.586 0.355747 -4.40666 0
M  V30 4920 N 462.645 1.35699 -0.801477 0
M  V30 4921 C 463.894 1.98165 -0.375979 0
M  V30 4922 C 464.207 1.64306 1.06127 0
M  V30 4923 O 465.413 2.20097 1.58964 0
M  V30 4924 C 463.869 3.54497 -0.621305 0
M  V30 4925 C 463.477 3.9727 -2.07076 0
M  V30 4926 C 465.221 4.23697 -0.26091 0
M  V30 4927 C 463.128 5.46427 -2.26211 0
M  V30 4928 H 462.058 0.741478 -0.136844 0
M  V30 4929 H 464.709 1.54834 -0.984814 0
M  V30 4930 H 463.091 3.95958 0.0574112 0
M  V30 4931 H 464.265 3.66974 -2.78687 0
M  V30 4932 H 462.58 3.40943 -2.39054 0
M  V30 4933 H 465.177 5.33334 -0.381994 0
M  V30 4934 H 465.52 4.0869 0.792344 0
M  V30 4935 H 466.053 3.87639 -0.893339 0
M  V30 4936 H 462.792 5.66396 -3.29963 0
M  V30 4937 H 462.312 5.78309 -1.59119 0
M  V30 4938 H 463.991 6.12819 -2.07513 0
M  V30 4939 N 464.123 0.554532 1.47522 0
M  V30 4940 C 465.348 0.0322661 2.07375 0
M  V30 4941 C 465.773 -1.25079 1.40488 0
M  V30 4942 O 465.131 -1.74859 0.47896 0
M  V30 4943 C 465.179 -0.149397 3.6029 0
M  V30 4944 O 464.283 -1.21259 3.9417 0
M  V30 4945 H 463.624 0.0501228 0.662106 0
M  V30 4946 H 466.154 0.769452 1.8958 0
M  V30 4947 H 466.164 -0.364437 4.06369 0
M  V30 4948 H 464.839 0.787743 4.08372 0
M  V30 4949 H 463.416 -0.97825 3.5984 0
M  V30 4950 N 465.601 -1.54893 0.290851 0
M  V30 4951 C 466.548 -2.23138 -0.58974 0
M  V30 4952 C 467.518 -1.21036 -1.13752 0
M  V30 4953 O 468.703 -1.49626 -1.18392 0
M  V30 4954 C 465.843 -2.96811 -1.76061 0
M  V30 4955 C 464.956 -4.13665 -1.24519 0
M  V30 4956 C 464.091 -4.74944 -2.3791 0
M  V30 4957 C 463.13 -5.83963 -1.83451 0
M  V30 4958 N 462.267 -6.39239 -2.90376 0
M  V30 4959 H 467.107 -2.98 -0.00114915 0
M  V30 4960 H 464.644 -1.47096 0.0112006 0
M  V30 4961 H 466.602 -3.37751 -2.44909 0
M  V30 4962 H 465.232 -2.24344 -2.32098 0
M  V30 4963 H 464.284 -3.77737 -0.449288 0
M  V30 4964 H 465.596 -4.92238 -0.806424 0
M  V30 4965 H 464.75 -5.18684 -3.14724 0
M  V30 4966 H 463.489 -3.95682 -2.85109 0
M  V30 4967 H 462.494 -5.39657 -1.05122 0
M  V30 4968 H 463.719 -6.65103 -1.37169 0
M  V30 4969 H 461.665 -5.62864 -3.36927 0
M  V30 4970 H 461.582 -7.13129 -2.50965 0
M  V30 4971 H 462.85 -6.87637 -3.67118 0
M  V30 4972 N 467.08 -0.0183926 -1.57589 0
M  V30 4973 C 468.027 0.967022 -2.09565 0
M  V30 4974 C 468.997 1.32983 -0.995225 0
M  V30 4975 O 470.182 1.42501 -1.26878 0
M  V30 4976 C 467.322 2.24772 -2.61861 0
M  V30 4977 C 466.435 1.94232 -3.85873 0
M  V30 4978 C 465.57 3.16518 -4.26603 0
M  V30 4979 C 464.609 2.81748 -5.43401 0
M  V30 4980 N 463.746 3.96626 -5.79338 0
M  V30 4981 H 468.586 0.516874 -2.93483 0
M  V30 4982 H 466.123 0.243544 -1.4507 0
M  V30 4983 H 468.081 2.99667 -2.90268 0
M  V30 4984 H 466.711 2.67423 -1.8079 0
M  V30 4985 H 465.763 1.09625 -3.64262 0
M  V30 4986 H 467.075 1.64616 -4.70853 0
M  V30 4987 H 466.229 3.99743 -4.56389 0
M  V30 4988 H 464.968 3.49286 -3.40368 0
M  V30 4989 H 463.973 1.96933 -5.1332 0
M  V30 4990 H 465.198 2.50207 -6.31327 0
M  V30 4991 H 463.144 4.29257 -4.96059 0
M  V30 4992 H 463.061 3.70598 -6.58933 0
M  V30 4993 H 464.329 4.80586 -6.13724 0
M  V30 4994 N 468.558 1.5553 0.254621 0
M  V30 4995 C 469.786 1.81046 1.00149 0
M  V30 4996 C 470.201 0.593047 1.79244 0
M  V30 4997 O 469.558 -0.438196 1.77161 0
M  V30 4998 C 469.609 3.04684 1.94551 0
M  V30 4999 O 469.33 4.21725 1.18658 0
M  V30 5000 C 470.831 3.42943 2.80901 0
M  V30 5001 H 468.051 0.602653 0.295044 0
M  V30 5002 H 470.595 2.02576 0.279842 0
M  V30 5003 H 468.75 2.85226 2.62154 0
M  V30 5004 H 469.164 4.91746 1.82445 0
M  V30 5005 H 470.638 4.32576 3.42902 0
M  V30 5006 H 471.115 2.63176 3.51617 0
M  V30 5007 H 471.721 3.64724 2.18762 0
M  V30 5008 N 470.036 -0.519951 1.48776 0
M  V30 5009 C 470.983 -1.62352 1.64044 0
M  V30 5010 C 471.953 -1.58945 0.482251 0
M  V30 5011 O 473.138 -1.77219 0.706971 0
M  V30 5012 C 470.278 -3.00579 1.69547 0
M  V30 5013 C 469.391 -3.14145 2.96541 0
M  V30 5014 C 468.526 -4.42991 2.93142 0
M  V30 5015 C 467.565 -4.50122 4.14797 0
M  V30 5016 N 466.702 -5.7037 4.09418 0
M  V30 5017 H 471.542 -1.48643 2.58281 0
M  V30 5018 H 469.079 -0.723516 1.28077 0
M  V30 5019 H 471.037 -3.80671 1.70719 0
M  V30 5020 H 469.667 -3.13036 0.787918 0
M  V30 5021 H 468.719 -2.27239 3.05068 0
M  V30 5022 H 470.031 -3.15275 3.86527 0
M  V30 5023 H 469.185 -5.31385 2.92772 0
M  V30 5024 H 467.924 -4.44398 2.00902 0
M  V30 5025 H 466.929 -3.60133 4.15433 0
M  V30 5026 H 468.154 -4.50445 5.08208 0
M  V30 5027 H 466.1 -5.72655 3.20004 0
M  V30 5028 H 466.017 -5.73036 4.93119 0
M  V30 5029 H 467.285 -6.61023 4.13121 0
M  V30 5030 N 471.514 -1.37532 -0.769588 0
M  V30 5031 C 472.424 -1.35668 -1.91393 0
M  V30 5032 C 473.44 -0.255954 -1.72107 0
M  V30 5033 O 474.616 -0.491704 -1.95305 0
M  V30 5034 C 471.681 -1.16481 -3.26547 0
M  V30 5035 C 470.742 -2.36212 -3.58472 0
M  V30 5036 C 469.975 -2.17932 -4.87177 0
M  V30 5037 O 470.198 -1.1647 -5.58382 0
M  V30 5038 O 469.132 -3.06167 -5.18214 0
M  V30 5039 H 472.958 -2.32055 -1.95918 0
M  V30 5040 H 470.543 -1.18284 -0.912641 0
M  V30 5041 H 472.425 -1.07778 -4.07384 0
M  V30 5042 H 471.1 -0.231687 -3.2287 0
M  V30 5043 H 470.007 -2.50488 -2.77861 0
M  V30 5044 H 471.34 -3.281 -3.66894 0
M  V30 5045 N 472.992 0.995999 -1.22138 0
M  V30 5046 C 473.902 2.11985 -1.00496 0
M  V30 5047 C 474.918 1.7394 0.0457701 0
M  V30 5048 O 476.094 2.00868 -0.146273 0
M  V30 5049 C 473.159 3.41779 -0.582086 0
M  V30 5050 C 472.22 3.93943 -1.70608 0
M  V30 5051 C 471.453 5.17542 -1.30328 0
M  V30 5052 O 471.676 5.70114 -0.180743 0
M  V30 5053 O 470.61 5.63382 -2.11861 0
M  V30 5054 H 474.436 2.33123 -1.94647 0
M  V30 5055 H 472.021 1.10358 -1.00705 0
M  V30 5056 H 473.903 4.1989 -0.356467 0
M  V30 5057 H 472.578 3.22007 0.330592 0
M  V30 5058 H 471.485 3.17019 -1.98619 0
M  V30 5059 H 472.818 4.18141 -2.59651 0
M  V30 5060 N 474.47 1.03057 1.19235 0
M  V30 5061 C 475.716 0.729098 1.89241 0
M  V30 5062 C 476.049 -0.740573 1.79525 0
M  V30 5063 O 475.324 -1.53946 1.18874 0
M  V30 5064 C 475.607 1.18304 3.40112 0
M  V30 5065 C 475.46 2.71406 3.5869 0
M  V30 5066 C 476.779 0.765161 4.33397 0
M  V30 5067 H 473.898 0.266338 0.687192 0
M  V30 5068 H 476.54 1.28079 1.40341 0
M  V30 5069 H 474.69 0.713672 3.81889 0
M  V30 5070 H 476.362 3.26303 3.26074 0
M  V30 5071 H 474.605 3.11717 3.01687 0
M  V30 5072 H 475.276 2.98225 4.64506 0
M  V30 5073 H 477.752 1.16889 3.99345 0
M  V30 5074 H 476.628 1.11065 5.37546 0
M  V30 5075 H 476.889 -0.332372 4.40849 0
M  V30 5076 N 475.948 -1.35272 0.808662 0
M  V30 5077 C 477.196 -1.98316 0.389233 0
M  V30 5078 C 477.517 -1.64465 -1.04767 0
M  V30 5079 O 476.787 -0.928175 -1.72516 0
M  V30 5080 H 475.367 -0.733585 0.140935 0
M  V30 5081 H 478.029 -1.6515 1.03496 0
M  V30 5082 H 477.125 -3.08123 0.496631 0
M  V30 5083 N 477.426 -0.562348 -1.47226 0
M  V30 5084 C 478.336 0.185466 -2.33866 0
M  V30 5085 C 479.352 0.906713 -1.48508 0
M  V30 5086 O 480.528 0.874458 -1.81425 0
M  V30 5087 C 477.593 1.19904 -3.25306 0
M  V30 5088 C 476.654 0.484669 -4.26555 0
M  V30 5089 C 475.887 1.44996 -5.13626 0
M  V30 5090 O 476.11 2.68515 -5.03245 0
M  V30 5091 O 475.044 0.971642 -5.94006 0
M  V30 5092 H 478.87 -0.525361 -2.99121 0
M  V30 5093 H 476.455 -0.322916 -1.45868 0
M  V30 5094 H 478.337 1.78399 -3.81774 0
M  V30 5095 H 477.012 1.8917 -2.62672 0
M  V30 5096 H 475.919 -0.141605 -3.73832 0
M  V30 5097 H 477.252 -0.166634 -4.91918 0
M  V30 5098 N 478.904 1.54736 -0.299062 0
M  V30 5099 C 480.151 2.00101 0.310784 0
M  V30 5100 C 480.479 1.18746 1.54045 0
M  V30 5101 O 479.734 0.251198 1.94081 0
M  V30 5102 C 480.033 3.50199 0.713835 0
M  V30 5103 C 479.699 4.48997 -0.413873 0
M  V30 5104 C 478.361 4.7573 -0.723462 0
M  V30 5105 C 480.713 5.07839 -1.17257 0
M  V30 5106 C 478.041 5.5857 -1.79491 0
M  V30 5107 C 480.393 5.91844 -2.23392 0
M  V30 5108 C 479.057 6.16889 -2.54959 0
M  V30 5109 H 478.327 0.732221 0.113724 0
M  V30 5110 H 480.974 1.86888 -0.417756 0
M  V30 5111 H 479.279 3.61012 1.52243 0
M  V30 5112 H 480.976 3.82723 1.19684 0
M  V30 5113 H 477.566 4.28292 -0.162476 0
M  V30 5114 H 481.75 4.87188 -0.946651 0
M  V30 5115 H 477.006 5.76213 -2.04423 0
M  V30 5116 H 481.18 6.36465 -2.8264 0
M  V30 5117 H 478.807 6.80869 -3.38114 0
M  V30 5118 N 480.382 0.0267497 1.57577 0
M  V30 5119 C 481.798 -0.32962 1.56159 0
M  V30 5120 C 481.998 -1.73059 1.03213 0
M  V30 5121 O 481.054 -2.43233 0.677804 0
M  V30 5122 C 482.367 -0.18039 3.00158 0
M  V30 5123 C 483.915 -0.253334 3.11973 0
M  V30 5124 C 484.39 -0.132921 4.57807 0
M  V30 5125 N 485.881 -0.189979 4.6281 0
M  V30 5126 C 486.616 -0.120554 5.73273 0
M  V30 5127 N 486.112 -0.000180315 6.928 0
M  V30 5128 N 487.905 -0.174369 5.61829 0
M  V30 5129 H 480.056 0.942896 1.90324 0
M  V30 5130 H 482.319 0.3639 0.875375 0
M  V30 5131 H 482.025 0.784576 3.42837 0
M  V30 5132 H 481.899 -0.951565 3.65 0
M  V30 5133 H 484.286 -1.20876 2.69208 0
M  V30 5134 H 484.367 0.548177 2.49857 0
M  V30 5135 H 484.011 0.819073 5.01252 0
M  V30 5136 H 483.941 -0.953264 5.179 0
M  V30 5137 H 486.432 -0.283257 3.76837 0
M  V30 5138 H 486.745 0.0461666 7.72786 0
M  V30 5139 H 485.09 0.034569 6.94991 0
M  V30 5140 H 488.281 -0.266794 4.67339 0
M  V30 5141 H 488.454 -0.116802 6.47895 0
M  V30 5142 N 481.861 -1.55662 -0.24637 0
M  V30 5143 C 482.824 -1.89558 -1.28842 0
M  V30 5144 C 483.824 -0.772082 -1.41052 0
M  V30 5145 O 485.014 -1.04007 -1.39743 0
M  V30 5146 C 482.146 -2.12449 -2.66605 0
M  V30 5147 H 483.339 -2.82735 -1.00004 0
M  V30 5148 H 480.892 -1.48562 -0.485684 0
M  V30 5149 H 481.627 -1.21742 -3.00582 0
M  V30 5150 H 481.412 -2.94273 -2.59125 0
M  V30 5151 H 482.902 -2.39854 -3.41847 0
M  V30 5152 N 483.339 0.512053 -1.4905 0
M  V30 5153 C 484.289 1.61142 -1.61298 0
M  V30 5154 C 485.273 1.53908 -0.46916 0
M  V30 5155 O 486.465 1.61625 -0.721547 0
M  V30 5156 C 483.594 2.998 -1.67256 0
M  V30 5157 C 482.68 3.12072 -2.87179 0
M  V30 5158 N 483.071 2.94263 -4.11391 0
M  V30 5159 C 481.369 3.43156 -2.84886 0
M  V30 5160 C 482.07 3.10426 -4.91946 0
M  V30 5161 N 481.046 3.38808 -4.251 0
M  V30 5162 H 484.848 1.46011 -2.55065 0
M  V30 5163 H 482.362 0.717934 -1.45669 0
M  V30 5164 H 484.359 3.78794 -1.74128 0
M  V30 5165 H 483.019 3.1601 -0.746195 0
M  V30 5166 H 484.03 2.70661 -4.41546 0
M  V30 5167 H 480.707 3.65611 -2.01581 0
M  V30 5168 H 482.097 3.01243 -6.00585 0
M  V30 5169 N 484.817 1.37938 0.762283 0
M  V30 5170 C 485.78 1.34279 1.85747 0
M  V30 5171 C 486.78 0.244969 1.58923 0
M  V30 5172 O 487.97 0.501365 1.66829 0
M  V30 5173 C 485.102 1.08833 3.23061 0
M  V30 5174 H 486.295 2.31705 1.90401 0
M  V30 5175 H 483.848 1.23105 0.963057 0
M  V30 5176 H 484.583 0.119767 3.24079 0
M  V30 5177 H 484.368 1.88306 3.43923 0
M  V30 5178 H 485.858 1.08946 4.03138 0
M  V30 5179 N 486.295 -0.989507 1.22664 0
M  V30 5180 C 487.258 -2.06183 1.00106 0
M  V30 5181 C 488.258 -1.60765 -0.0337726 0
M  V30 5182 O 489.448 -1.72989 0.205072 0
M  V30 5183 C 486.58 -3.37021 0.51279 0
M  V30 5184 H 487.773 -2.27629 1.95256 0
M  V30 5185 H 485.326 -1.16158 1.0458 0
M  V30 5186 H 486.061 -3.21261 -0.442917 0
M  V30 5187 H 485.846 -3.71323 1.25942 0
M  V30 5188 H 487.336 -4.1591 0.375315 0
M  V30 5189 N 487.773 -1.03688 -1.18687 0
M  V30 5190 C 488.683 -0.634908 -2.25845 0
M  V30 5191 C 489.699 0.337065 -1.70704 0
M  V30 5192 O 490.875 0.192943 -2.00474 0
M  V30 5193 C 487.94 -0.000180054 -3.467 0
M  V30 5194 C 487.001 -1.02067 -4.1699 0
M  V30 5195 C 486.234 -0.41614 -5.32075 0
M  V30 5196 O 486.457 0.778712 -5.65059 0
M  V30 5197 O 485.391 -1.14296 -5.90948 0
M  V30 5198 H 489.217 -1.52757 -2.62486 0
M  V30 5199 H 486.802 -0.807533 -1.25695 0
M  V30 5200 H 488.684 0.353342 -4.19916 0
M  V30 5201 H 487.359 0.866367 -3.11891 0
M  V30 5202 H 486.266 -1.42592 -3.45859 0
M  V30 5203 H 487.599 -1.85786 -4.5579 0
M  V30 5204 N 489.251 1.34841 -0.815825 0
M  V30 5205 C 490.497 1.99219 -0.410288 0
M  V30 5206 C 490.852 1.63532 1.01366 0
M  V30 5207 O 490.145 0.893093 1.69512 0
M  V30 5208 C 490.339 3.53273 -0.541541 0
M  V30 5209 C 490.168 4.03927 -1.9767 0
M  V30 5210 C 488.938 4.32852 -2.60706 0
M  V30 5211 C 491.136 4.21808 -2.9425 0
M  V30 5212 N 489.118 4.69494 -3.95536 0
M  V30 5213 C 490.489 4.6155 -4.13971 0
M  V30 5214 C 492.544 4.04038 -2.9096 0
M  V30 5215 C 491.247 4.85381 -5.30847 0
M  V30 5216 C 493.273 4.29031 -4.07046 0
M  V30 5217 C 492.635 4.69054 -5.25517 0
M  V30 5218 H 488.734 0.756494 -0.198094 0
M  V30 5219 H 491.318 1.63379 -1.05902 0
M  V30 5220 H 489.489 3.88323 0.0772544 0
M  V30 5221 H 491.221 4.04551 -0.109694 0
M  V30 5222 H 487.976 4.23503 -2.11995 0
M  V30 5223 H 488.4 4.92061 -4.64979 0
M  V30 5224 H 493.042 3.7223 -2.00512 0
M  V30 5225 H 490.76 5.16059 -6.21859 0
M  V30 5226 H 494.346 4.16826 -4.05891 0
M  V30 5227 H 493.226 4.88014 -6.1385 0
M  V30 5228 N 490.729 0.570148 1.46925 0
M  V30 5229 C 491.957 0.0561966 2.06824 0
M  V30 5230 C 492.372 -1.24326 1.42086 0
M  V30 5231 O 491.729 -1.74882 0.521794 0
M  V30 5232 C 491.78 -0.129517 3.61268 0
M  V30 5233 O 491.501 1.1185 4.23581 0
M  V30 5234 C 493.002 -0.679266 4.38065 0
M  V30 5235 H 490.222 0.0517261 0.669003 0
M  V30 5236 H 492.766 0.787243 1.8874 0
M  V30 5237 H 490.921 -0.810739 3.78822 0
M  V30 5238 H 491.335 0.924375 5.1629 0
M  V30 5239 H 492.809 -0.758445 5.46765 0
M  V30 5240 H 493.286 -1.69346 4.05239 0
M  V30 5241 H 493.892 -0.0333237 4.25287 0
M  V30 5242 N 492.207 -1.54576 0.307264 0
M  V30 5243 C 493.17 -2.22423 -0.553224 0
M  V30 5244 C 494.17 -1.21231 -1.05639 0
M  V30 5245 O 495.36 -1.45923 -0.951419 0
M  V30 5246 C 492.492 -2.91552 -1.76664 0
M  V30 5247 H 493.685 -2.99874 0.0396484 0
M  V30 5248 H 491.238 -1.56192 0.0581629 0
M  V30 5249 H 491.973 -2.18196 -2.39918 0
M  V30 5250 H 491.758 -3.65738 -1.41343 0
M  V30 5251 H 493.248 -3.43292 -2.37783 0
M  V30 5252 N 493.685 -0.035106 -1.57561 0
M  V30 5253 C 494.633 0.962707 -2.11742 0
M  V30 5254 C 495.627 1.33296 -1.0454 0
M  V30 5255 O 496.833 1.31449 -1.22968 0
M  V30 5256 H 493.208 0.32826 -0.676572 0
M  V30 5257 H 495.179 0.48048 -2.94506 0
M  V30 5258 C 493.928 2.23388 -2.66445 0
M  V30 5259 H 493.251 1.95774 -3.48587 0
M  V30 5260 H 494.691 2.91402 -3.07995 0
M  V30 5261 C 493.15 2.96769 -1.59467 0
M  V30 5262 O 493.68 3.89105 -0.998 0
M  V30 5263 N 491.886 2.59212 -1.31369 0
M  V30 5264 H 491.433 1.84202 -1.80076 0
M  V30 5265 H 491.391 3.08618 -0.600173 0
M  V30 5266 N 495.163 1.55791 0.238111 0
M  V30 5267 C 496.409 1.78297 0.966337 0
M  V30 5268 C 496.742 0.601903 1.84637 0
M  V30 5269 O 496.017 -0.399499 1.90353 0
M  V30 5270 C 496.3 3.10758 1.81939 0
M  V30 5271 C 496.153 4.39283 0.966958 0
M  V30 5272 C 497.472 3.39519 2.80027 0
M  V30 5273 H 494.591 0.648654 0.349882 0
M  V30 5274 H 497.233 1.88525 0.236253 0
M  V30 5275 H 495.383 3.02168 2.44185 0
M  V30 5276 H 497.055 4.59873 0.362514 0
M  V30 5277 H 495.298 4.32948 0.271669 0
M  V30 5278 H 495.969 5.28368 1.59784 0
M  V30 5279 H 498.445 3.48128 2.27917 0
M  V30 5280 H 497.321 4.33402 3.36829 0
M  V30 5281 H 497.582 2.60864 3.56934 0
M  V30 5282 N 496.642 -0.504142 1.49319 0
M  V30 5283 C 497.87 -1.28256 1.62351 0
M  V30 5284 C 498.285 -1.86502 0.293682 0
M  V30 5285 O 497.642 -1.67678 -0.720449 0
M  V30 5286 C 497.693 -2.41507 2.68992 0
M  V30 5287 O 497.414 -1.85656 3.96817 0
M  V30 5288 C 498.915 -3.32929 2.927 0
M  V30 5289 H 496.135 -0.389115 0.546654 0
M  V30 5290 H 498.679 -0.605531 1.95329 0
M  V30 5291 H 496.834 -3.05046 2.38801 0
M  V30 5292 H 497.248 -2.59981 4.55533 0
M  V30 5293 H 498.722 -4.0868 3.71058 0
M  V30 5294 H 499.199 -3.89733 2.02496 0
M  V30 5295 H 499.805 -2.75158 3.24296 0
M  V30 5296 N 498.12 -1.38341 -0.754957 0
M  V30 5297 C 499.083 -1.35262 -1.85032 0
M  V30 5298 C 500.083 -0.253393 -1.58791 0
M  V30 5299 O 501.273 -0.510205 -1.66561 0
M  V30 5300 C 498.405 -1.10544 -3.22479 0
M  V30 5301 H 499.598 -2.32712 -1.8917 0
M  V30 5302 H 497.151 -1.23614 -0.956515 0
M  V30 5303 H 497.886 -0.136952 -3.24011 0
M  V30 5304 H 497.671 -1.90127 -3.4292 0
M  V30 5305 H 499.161 -1.11082 -4.02555 0
M  V30 5306 N 499.598 0.982988 -1.23187 0
M  V30 5307 C 500.508 2.10907 -1.02739 0
M  V30 5308 C 501.524 1.73979 0.0273188 0
M  V30 5309 O 502.7 2.00702 -0.16757 0
M  V30 5310 C 499.765 3.41142 -0.618304 0
M  V30 5311 C 498.826 3.92112 -1.74777 0
M  V30 5312 C 498.059 5.16131 -1.3581 0
M  V30 5313 O 498.282 5.6989 -0.241201 0
M  V30 5314 O 497.216 5.61103 -2.17824 0
M  V30 5315 H 501.042 2.31046 -1.97108 0
M  V30 5316 H 498.627 1.09284 -1.01869 0
M  V30 5317 H 500.509 4.19488 -0.400982 0
M  V30 5318 H 499.184 3.2234 0.296421 0
M  V30 5319 H 498.091 3.14895 -2.0197 0
M  V30 5320 H 499.424 4.15364 -2.64071 0
M  V30 5321 N 501.076 1.04316 1.18135 0
M  V30 5322 C 502.323 0.74802 1.88178 0
M  V30 5323 C 502.651 -0.72441 1.80506 0
M  V30 5324 O 501.906 -1.54463 1.20165 0
M  V30 5325 C 502.205 1.16271 3.37958 0
M  V30 5326 C 501.871 2.63585 3.65833 0
M  V30 5327 C 500.533 3.03829 3.73151 0
M  V30 5328 C 502.885 3.58822 3.78016 0
M  V30 5329 C 500.213 4.38194 3.90132 0
M  V30 5330 C 502.565 4.92909 3.96514 0
M  V30 5331 C 501.229 5.3282 4.02068 0
M  V30 5332 H 500.499 0.27372 0.688592 0
M  V30 5333 H 503.146 1.30863 1.39811 0
M  V30 5334 H 501.451 0.520938 3.88321 0
M  V30 5335 H 503.148 0.911672 3.90499 0
M  V30 5336 H 499.738 2.31414 3.60757 0
M  V30 5337 H 503.922 3.28875 3.71692 0
M  V30 5338 H 499.178 4.68631 3.92677 0
M  V30 5339 H 503.352 5.66606 4.04883 0
M  V30 5340 H 500.979 6.36943 4.14979 0
M  V30 5341 N 502.554 -1.34406 0.822964 0
M  V30 5342 C 503.501 -2.29519 0.24284 0
M  V30 5343 C 504.471 -1.5359 -0.632397 0
M  V30 5344 O 505.656 -1.8196 -0.57403 0
M  V30 5345 C 502.796 -3.40032 -0.58925 0
M  V30 5346 C 501.909 -4.30899 0.308236 0
M  V30 5347 C 501.044 -5.28515 -0.533425 0
M  V30 5348 C 500.083 -6.1102 0.363444 0
M  V30 5349 N 499.22 -7.00725 -0.439147 0
M  V30 5350 H 504.06 -2.78537 1.05929 0
M  V30 5351 H 501.597 -1.3707 0.533872 0
M  V30 5352 H 503.555 -4.0279 -1.087 0
M  V30 5353 H 502.185 -2.92248 -1.37081 0
M  V30 5354 H 501.237 -3.69002 0.924203 0
M  V30 5355 H 502.549 -4.88717 0.997862 0
M  V30 5356 H 501.703 -5.96725 -1.09565 0
M  V30 5357 H 500.442 -4.71235 -1.25656 0
M  V30 5358 H 499.447 -5.41743 0.937812 0
M  V30 5359 H 500.672 -6.70381 1.08469 0
M  V30 5360 H 498.618 -6.45913 -1.14595 0
M  V30 5361 H 498.535 -7.55756 0.19209 0
M  V30 5362 H 499.803 -7.73263 -0.984124 0
M  V30 5363 N 504.032 -0.577932 -1.46621 0
M  V30 5364 C 504.942 0.160651 -2.34049 0
M  V30 5365 C 505.958 0.890911 -1.49462 0
M  V30 5366 O 507.134 0.855166 -1.82343 0
M  V30 5367 C 504.199 1.16447 -3.26559 0
M  V30 5368 C 503.26 0.4394 -4.27045 0
M  V30 5369 C 502.493 1.3954 -5.15135 0
M  V30 5370 O 502.716 2.63162 -5.06065 0
M  V30 5371 O 501.65 0.908585 -5.95003 0
M  V30 5372 H 505.476 -0.557057 -2.98547 0
M  V30 5373 H 503.061 -0.338369 -1.45518 0
M  V30 5374 H 504.943 1.7434 -3.83645 0
M  V30 5375 H 503.618 1.86373 -2.64663 0
M  V30 5376 H 502.525 -0.181247 -3.73661 0
M  V30 5377 H 503.858 -0.218799 -4.91713 0
M  V30 5378 N 505.51 1.54411 -0.315457 0
M  V30 5379 C 506.738 2.04833 0.291738 0
M  V30 5380 C 507.153 1.19203 1.46411 0
M  V30 5381 O 506.51 0.220867 1.81159 0
M  V30 5382 C 506.561 3.53969 0.73404 0
M  V30 5383 O 506.282 4.36346 -0.391682 0
M  V30 5384 C 507.783 4.2045 1.40489 0
M  V30 5385 H 505.003 0.668195 0.0612947 0
M  V30 5386 H 507.547 1.99276 -0.45929 0
M  V30 5387 H 505.702 3.5984 1.43506 0
M  V30 5388 H 506.116 5.24481 -0.0447088 0
M  V30 5389 H 507.59 5.26278 1.66539 0
M  V30 5390 H 508.067 3.71067 2.3496 0
M  V30 5391 H 508.673 4.18694 0.746662 0
M  V30 5392 N 506.988 0.0434614 1.5754 0
M  V30 5393 C 508.404 -0.313039 1.565 0
M  V30 5394 C 508.604 -1.71954 1.05043 0
M  V30 5395 O 507.66 -2.425 0.703564 0
M  V30 5396 C 508.973 -0.148544 3.00333 0
M  V30 5397 C 510.521 -0.220231 3.12224 0
M  V30 5398 C 510.996 -0.0843565 4.57922 0
M  V30 5399 N 512.487 -0.140881 4.62986 0
M  V30 5400 C 513.222 -0.0597443 5.73369 0
M  V30 5401 N 512.718 0.0733004 6.92761 0
M  V30 5402 N 514.511 -0.11477 5.61983 0
M  V30 5403 H 506.662 0.96303 1.89313 0
M  V30 5404 H 508.925 0.373164 0.871466 0
M  V30 5405 H 508.631 0.820894 3.41986 0
M  V30 5406 H 508.505 -0.912798 3.65989 0
M  V30 5407 H 510.892 -1.18014 2.70475 0
M  V30 5408 H 510.973 0.574646 2.49262 0
M  V30 5409 H 510.617 0.872192 5.00355 0
M  V30 5410 H 510.547 -0.898281 5.18882 0
M  V30 5411 H 513.038 -0.243273 3.77116 0
M  V30 5412 H 513.351 0.128128 7.72694 0
M  V30 5413 H 511.696 0.10828 6.94916 0
M  V30 5414 H 514.887 -0.217212 4.67596 0
M  V30 5415 H 515.06 -0.0480779 6.47982 0
M  V30 5416 N 508.466 -1.55915 -0.229846 0
M  V30 5417 C 509.882 -1.48721 -0.579166 0
M  V30 5418 C 510.082 -0.736976 -1.87539 0
M  V30 5419 O 509.138 -0.273258 -2.51017 0
M  V30 5420 C 510.451 -2.9323 -0.666082 0
M  V30 5421 C 511.999 -3.03701 -0.757267 0
M  V30 5422 C 512.474 -4.49552 -0.8756 0
M  V30 5423 N 513.965 -4.53561 -0.940035 0
M  V30 5424 C 514.7 -5.63683 -1.05116 0
M  V30 5425 N 514.196 -6.83576 -1.12675 0
M  V30 5426 N 515.989 -5.51516 -1.08565 0
M  V30 5427 H 508.14 -2.03123 0.620857 0
M  V30 5428 H 510.403 -0.922898 0.21671 0
M  V30 5429 H 510.109 -3.51032 0.21664 0
M  V30 5430 H 509.983 -3.44668 -1.53243 0
M  V30 5431 H 512.37 -2.45969 -1.63043 0
M  V30 5432 H 512.451 -2.55446 0.134583 0
M  V30 5433 H 512.095 -5.079 -0.00692351 0
M  V30 5434 H 512.025 -4.95506 -1.78274 0
M  V30 5435 H 514.516 -3.67215 -0.892269 0
M  V30 5436 H 514.829 -7.63251 -1.21109 0
M  V30 5437 H 513.174 -6.86303 -1.09603 0
M  V30 5438 H 516.365 -4.5678 -1.02319 0
M  V30 5439 H 516.538 -6.37372 -1.1688 0
M  V30 5440 N 509.944 0.496216 -1.49584 0
M  V30 5441 C 511.36 0.827814 -1.36453 0
M  V30 5442 C 511.56 1.97464 -0.401285 0
M  V30 5443 O 510.616 2.51958 0.165296 0
M  V30 5444 C 511.929 1.16352 -2.77277 0
M  V30 5445 C 513.477 1.27145 -2.86013 0
M  V30 5446 C 513.952 1.64042 -4.27615 0
M  V30 5447 N 515.443 1.71082 -4.30448 0
M  V30 5448 C 516.178 2.01085 -5.36984 0
M  V30 5449 N 515.674 2.2928 -6.5376 0
M  V30 5450 N 517.467 2.02376 -5.24405 0
M  V30 5451 H 509.618 -0.259947 -2.10803 0
M  V30 5452 H 511.881 -0.0537163 -0.946477 0
M  V30 5453 H 511.587 0.394153 -3.49484 0
M  V30 5454 H 511.461 2.10582 -3.12946 0
M  V30 5455 H 513.848 2.03152 -2.1404 0
M  V30 5456 H 513.929 0.309542 -2.5392 0
M  V30 5457 H 513.573 0.88583 -5.00115 0
M  V30 5458 H 513.503 2.6134 -4.57175 0
M  V30 5459 H 515.994 1.51434 -3.46232 0
M  V30 5460 H 516.307 2.51376 -7.30774 0
M  V30 5461 H 514.652 2.26726 -6.56978 0
M  V30 5462 H 517.843 1.79829 -4.32179 0
M  V30 5463 H 518.016 2.25425 -6.07526 0
M  V30 5464 N 511.423 1.38739 0.74761 0
M  V30 5465 C 512.353 1.39173 1.87492 0
M  V30 5466 C 513.334 0.256794 1.6815 0
M  V30 5467 O 514.519 0.460762 1.88655 0
M  V30 5468 C 511.649 1.22197 3.25093 0
M  V30 5469 C 510.603 2.32957 3.59047 0
M  V30 5470 C 509.929 2.01082 4.95449 0
M  V30 5471 C 511.229 3.75237 3.6331 0
M  V30 5472 H 512.923 2.3351 1.87386 0
M  V30 5473 H 510.469 1.12399 0.900134 0
M  V30 5474 H 512.422 1.21124 4.03617 0
M  V30 5475 H 511.146 0.243241 3.25693 0
M  V30 5476 H 509.805 2.33226 2.82845 0
M  V30 5477 H 509.453 1.01678 4.92616 0
M  V30 5478 H 509.153 2.75267 5.19136 0
M  V30 5479 H 510.677 2.01638 5.76346 0
M  V30 5480 H 512.091 3.76966 4.31937 0
M  V30 5481 H 510.488 4.48677 3.98509 0
M  V30 5482 H 511.558 4.07122 2.634 0
M  V30 5483 N 512.901 -0.976442 1.23707 0
M  V30 5484 C 514.126 -1.75875 1.09922 0
M  V30 5485 C 514.551 -1.84911 -0.34489 0
M  V30 5486 O 513.909 -1.31363 -1.24954 0
M  V30 5487 C 513.957 -3.16179 1.73388 0
M  V30 5488 O 513.061 -4.00124 0.99871 0
M  V30 5489 H 512.402 -0.540954 0.385052 0
M  V30 5490 H 514.932 -1.22546 1.6384 0
M  V30 5491 H 514.942 -3.66741 1.78788 0
M  V30 5492 H 513.617 -3.08917 2.78466 0
M  V30 5493 H 512.194 -3.58624 1.02193 0
M  V30 5494 N 514.379 -1.04941 -1.1758 0
M  V30 5495 C 515.625 -0.759112 -1.88057 0
M  V30 5496 C 515.958 0.711918 -1.8068 0
M  V30 5497 O 515.233 1.52035 -1.21308 0
M  V30 5498 C 515.516 -1.237 -3.38187 0
M  V30 5499 C 515.369 -2.77078 -3.54327 0
M  V30 5500 C 516.688 -0.834014 -4.32125 0
M  V30 5501 H 513.807 -0.277237 -0.682868 0
M  V30 5502 H 516.449 -1.30296 -1.38286 0
M  V30 5503 H 514.599 -0.774337 -3.80705 0
M  V30 5504 H 516.271 -3.31449 -3.20842 0
M  V30 5505 H 514.514 -3.16477 -2.96689 0
M  V30 5506 H 515.185 -3.05577 -4.59703 0
M  V30 5507 H 517.661 -1.23228 -3.97434 0
M  V30 5508 H 516.537 -1.19603 -5.35711 0
M  V30 5509 H 516.798 0.262195 -4.41322 0
M  V30 5510 N 515.857 1.33968 -0.830081 0
M  V30 5511 C 516.767 2.33164 -0.259207 0
M  V30 5512 C 517.783 1.62951 0.610164 0
M  V30 5513 O 518.959 1.94668 0.516369 0
M  V30 5514 C 516.024 3.42088 0.563598 0
M  V30 5515 C 515.085 4.28037 -0.329014 0
M  V30 5516 C 514.318 5.3176 0.454616 0
M  V30 5517 O 514.541 5.44876 1.6872 0
M  V30 5518 O 513.475 6.01669 -0.166794 0
M  V30 5519 H 517.301 2.83832 -1.08041 0
M  V30 5520 H 514.886 1.37154 -0.59239 0
M  V30 5521 H 516.768 4.08581 1.03147 0
M  V30 5522 H 515.443 2.93651 1.36201 0
M  V30 5523 H 514.35 3.64443 -0.844538 0
M  V30 5524 H 515.683 4.79934 -1.09196 0
M  V30 5525 N 517.335 0.585699 1.46312 0
M  V30 5526 C 518.584 0.0701192 2.01578 0
M  V30 5527 C 518.897 -1.29889 1.46247 0
M  V30 5528 O 520.103 -1.90598 1.93351 0
M  V30 5529 C 518.559 0.0747499 3.59822 0
M  V30 5530 C 518.167 1.44226 4.24149 0
M  V30 5531 C 519.911 -0.38673 4.22735 0
M  V30 5532 C 517.818 1.40446 5.74481 0
M  V30 5533 H 516.748 0.0224441 0.753666 0
M  V30 5534 H 519.399 0.737789 1.68015 0
M  V30 5535 H 517.781 -0.659144 3.90476 0
M  V30 5536 H 518.955 2.19612 4.05101 0
M  V30 5537 H 517.27 1.84401 3.73343 0
M  V30 5538 H 519.867 -0.433853 5.32937 0
M  V30 5539 H 520.21 -1.40489 3.91878 0
M  V30 5540 H 520.743 0.293195 3.96718 0
M  V30 5541 H 517.482 2.39952 6.10003 0
M  V30 5542 H 517.002 0.692845 5.95785 0
M  V30 5543 H 518.681 1.11865 6.37256 0
M  V30 5544 N 518.813 -1.54241 0.323641 0
M  V30 5545 C 520.043 -2.04687 -0.280464 0
M  V30 5546 C 520.451 -1.19939 -1.46326 0
M  V30 5547 O 519.794 -0.222872 -1.82343 0
M  V30 5548 C 519.856 -3.50978 -0.778123 0
M  V30 5549 C 519.52 -4.56127 0.282371 0
M  V30 5550 C 520.517 -5.07726 1.11847 0
M  V30 5551 C 518.202 -5.00451 0.430582 0
M  V30 5552 C 520.196 -6.02212 2.08851 0
M  V30 5553 C 517.883 -5.94752 1.40404 0
M  V30 5554 C 518.881 -6.45519 2.23147 0
M  V30 5555 O 518.569 -7.37968 3.1884 0
M  V30 5556 H 518.301 -0.673192 -0.0615473 0
M  V30 5557 H 520.855 -1.99999 0.467921 0
M  V30 5558 H 519.085 -3.53064 -1.57742 0
M  V30 5559 H 520.774 -3.84499 -1.30058 0
M  V30 5560 H 521.54 -4.74261 1.01496 0
M  V30 5561 H 517.419 -4.6055 -0.203569 0
M  V30 5562 H 520.963 -6.41761 2.73474 0
M  V30 5563 H 516.86 -6.27633 1.5082 0
M  V30 5564 H 517.628 -7.55841 3.14079 0
M  V30 5565 N 520.291 -0.0518155 -1.57515 0
M  V30 5566 C 521.568 0.661727 -1.84067 0
M  V30 5567 C 521.948 1.88999 -0.940351 0
M  V30 5568 O 521.296 2.285 -0.00155404 0
M  V30 5569 C 521.506 1.01841 -3.3381 0
M  V30 5570 C 522.854 1.40043 -4.00841 0
M  V30 5571 O 523.878 1.11073 -3.38439 0
M  V30 5572 O 522.737 1.94111 -5.10865 0
M  V30 5573 H 519.831 0.326702 -0.759733 0
M  V30 5574 H 522.377 -0.0812277 -1.69505 0
M  V30 5575 H 521.149 0.145202 -3.91031 0
M  V30 5576 H 520.772 1.81879 -3.53562 0
M  V30 5577 N 521.769 1.56035 0.221574 0
M  V30 5578 C 522.716 1.92413 1.27459 0
M  V30 5579 C 523.686 0.781323 1.46576 0
M  V30 5580 O 524.871 1.03721 1.60145 0
M  V30 5581 C 522.011 2.24617 2.61995 0
M  V30 5582 C 521.124 3.51831 2.50677 0
M  V30 5583 C 520.259 3.73482 3.77736 0
M  V30 5584 C 519.298 4.94211 3.6114 0
M  V30 5585 N 518.435 5.12252 4.80148 0
M  V30 5586 H 523.275 2.82203 0.957355 0
M  V30 5587 H 520.812 1.39676 0.461415 0
M  V30 5588 H 522.77 2.41298 3.40339 0
M  V30 5589 H 521.4 1.38 2.91815 0
M  V30 5590 H 520.452 3.43343 1.63767 0
M  V30 5591 H 521.764 4.40328 2.34334 0
M  V30 5592 H 520.918 3.9026 4.64523 0
M  V30 5593 H 519.657 2.83266 3.97003 0
M  V30 5594 H 518.662 4.77384 2.72736 0
M  V30 5595 H 519.887 5.85912 3.43343 0
M  V30 5596 H 517.833 4.24978 4.99729 0
M  V30 5597 H 517.75 5.94881 4.66532 0
M  V30 5598 H 519.018 5.33465 5.68362 0
M  V30 5599 N 523.247 -0.488276 1.49845 0
M  V30 5600 C 524.494 -1.24157 1.59973 0
M  V30 5601 C 524.822 -1.92293 0.292182 0
M  V30 5602 O 524.077 -1.81942 -0.720813 0
M  V30 5603 C 524.376 -2.32152 2.71735 0
M  V30 5604 C 524.042 -1.81387 4.12807 0
M  V30 5605 C 522.704 -1.67262 4.51195 0
M  V30 5606 C 525.056 -1.43537 5.01045 0
M  V30 5607 C 522.384 -1.13685 5.7558 0
M  V30 5608 C 524.736 -0.914081 6.25961 0
M  V30 5609 C 523.4 -0.759327 6.63167 0
M  V30 5610 H 522.67 -0.454322 0.585383 0
M  V30 5611 H 525.317 -0.540261 1.83721 0
M  V30 5612 H 523.622 -3.08122 2.42008 0
M  V30 5613 H 525.319 -2.90164 2.76778 0
M  V30 5614 H 521.909 -1.93344 3.82513 0
M  V30 5615 H 526.093 -1.53292 4.72033 0
M  V30 5616 H 521.349 -1.00426 6.03096 0
M  V30 5617 H 525.523 -0.612066 6.93705 0
M  V30 5618 H 523.15 -0.342002 7.5943 0
M  V30 5619 N 524.725 -1.39134 -0.740242 0
M  V30 5620 C 525.657 -1.33332 -1.86428 0
M  V30 5621 C 526.67 -0.243042 -1.60976 0
M  V30 5622 O 527.859 -0.501608 -1.71307 0
M  V30 5623 C 524.959 -1.04626 -3.22346 0
M  V30 5624 C 524.132 -2.24826 -3.75196 0
M  V30 5625 C 523.191 -1.92659 -4.89662 0
M  V30 5626 O 522.217 -2.6529 -5.03597 0
M  V30 5627 N 523.419 -0.889575 -5.73643 0
M  V30 5628 H 526.184 -2.30196 -1.91911 0
M  V30 5629 H 523.745 -1.33168 -0.920756 0
M  V30 5630 H 525.737 -0.811347 -3.96484 0
M  V30 5631 H 524.307 -0.165129 -3.12164 0
M  V30 5632 H 523.527 -2.64301 -2.9247 0
M  V30 5633 H 524.815 -3.05015 -4.07239 0
M  V30 5634 H 524.213 -0.287529 -5.64969 0
M  V30 5635 H 522.77 -0.714557 -6.47871 0
M  V30 5636 N 526.204 0.969867 -1.24223 0
M  V30 5637 C 527.62 1.23809 -1.00716 0
M  V30 5638 C 527.82 1.99469 0.285358 0
M  V30 5639 O 526.876 2.31764 1.00207 0
M  V30 5640 C 528.189 2.02734 -2.2208 0
M  V30 5641 C 529.737 2.15834 -2.26681 0
M  V30 5642 C 530.212 2.98154 -3.47661 0
M  V30 5643 N 531.703 3.05737 -3.47964 0
M  V30 5644 C 532.438 3.69785 -4.38231 0
M  V30 5645 N 531.934 4.35569 -5.3875 0
M  V30 5646 N 533.727 3.66775 -4.25949 0
M  V30 5647 H 525.878 0.463294 -2.07286 0
M  V30 5648 H 528.141 0.267348 -0.909521 0
M  V30 5649 H 527.847 1.54524 -3.15935 0
M  V30 5650 H 527.721 3.0347 -2.24021 0
M  V30 5651 H 530.108 2.63248 -1.33359 0
M  V30 5652 H 530.189 1.14453 -2.28767 0
M  V30 5653 H 529.833 2.51435 -4.41297 0
M  V30 5654 H 529.763 3.99729 -3.42818 0
M  V30 5655 H 532.254 2.58941 -2.75242 0
M  V30 5656 H 532.567 4.82251 -6.03866 0
M  V30 5657 H 530.912 4.34244 -5.42639 0
M  V30 5658 H 534.103 3.14558 -3.46657 0
M  V30 5659 H 534.276 4.16407 -4.96497 0
M  V30 5660 N 527.682 1.05563 1.17022 0
M  V30 5661 C 528.645 0.664098 2.19368 0
M  V30 5662 C 529.645 -0.286358 1.5823 0
M  V30 5663 O 530.835 -0.069728 1.7406 0
M  V30 5664 C 527.967 -0.0239932 3.40892 0
M  V30 5665 H 529.16 1.57 2.55521 0
M  V30 5666 H 526.713 0.849964 1.31169 0
M  V30 5667 H 527.448 -0.942988 3.10287 0
M  V30 5668 H 527.233 0.659351 3.86516 0
M  V30 5669 H 528.723 -0.283909 4.16634 0
M  V30 5670 N 529.16 -1.33526 0.837174 0
M  V30 5671 C 530.388 -2.02047 0.445494 0
M  V30 5672 C 530.803 -1.62995 -0.952788 0
M  V30 5673 O 530.16 -0.842447 -1.61892 0
M  V30 5674 C 530.211 -3.57221 0.554577 0
M  V30 5675 O 529.932 -3.94863 1.89776 0
M  V30 5676 C 531.433 -4.43012 0.159634 0
M  V30 5677 H 528.653 -0.647221 0.177048 0
M  V30 5678 H 531.197 -1.70492 1.12928 0
M  V30 5679 H 529.352 -3.87315 -0.0812781 0
M  V30 5680 H 529.766 -4.89569 1.88208 0
M  V30 5681 H 531.24 -5.51253 0.28701 0
M  V30 5682 H 531.717 -4.29916 -0.898289 0
M  V30 5683 H 532.323 -4.18274 0.769855 0
M  V30 5684 N 530.638 -0.59345 -1.46 0
M  V30 5685 C 531.863 -0.0872365 -2.07216 0
M  V30 5686 C 532.288 1.2131 -1.43755 0
M  V30 5687 O 531.646 1.73528 -0.525152 0
M  V30 5688 C 531.694 0.0538197 -3.6056 0
M  V30 5689 O 530.798 1.10765 -3.97247 0
M  V30 5690 H 530.139 -0.0676598 -0.660544 0
M  V30 5691 H 532.669 -0.819445 -1.87473 0
M  V30 5692 H 532.679 0.256567 -4.07193 0
M  V30 5693 H 531.354 -0.895739 -4.0614 0
M  V30 5694 H 529.931 0.882501 -3.62307 0
M  V30 5695 N 532.116 1.54067 -0.331816 0
M  V30 5696 C 533.365 1.99895 0.269209 0
M  V30 5697 C 533.678 1.22371 1.52593 0
M  V30 5698 O 534.884 1.58618 2.20347 0
M  V30 5699 C 533.34 3.55972 0.530244 0
M  V30 5700 C 532.948 4.4234 -0.709901 0
M  V30 5701 C 534.692 4.10247 1.09077 0
M  V30 5702 C 532.599 5.89905 -0.420312 0
M  V30 5703 H 531.529 0.746741 0.104371 0
M  V30 5704 H 534.18 1.78014 -0.445324 0
M  V30 5705 H 532.562 3.73873 1.30518 0
M  V30 5706 H 533.736 4.36215 -1.48504 0
M  V30 5707 H 532.051 3.98997 -1.19123 0
M  V30 5708 H 534.648 5.18095 1.32219 0
M  V30 5709 H 534.991 3.62739 2.0427 0
M  V30 5710 H 535.524 3.96011 0.376824 0
M  V30 5711 H 532.263 6.41623 -1.34164 0
M  V30 5712 H 531.783 5.98962 0.316962 0
M  V30 5713 H 533.462 6.46991 -0.0331956 0
M  V30 5714 N 533.594 0.0601682 1.57485 0
M  V30 5715 C 534.541 -0.91112 2.12055 0
M  V30 5716 C 535.511 -1.30298 1.03013 0
M  V30 5717 O 536.696 -1.39087 1.30612 0
M  V30 5718 C 533.836 -2.1775 2.67729 0
M  V30 5719 C 532.949 -1.83933 3.90887 0
M  V30 5720 C 532.084 -3.05096 4.34845 0
M  V30 5721 C 531.123 -2.67241 5.5068 0
M  V30 5722 N 530.26 -3.81127 5.8965 0
M  V30 5723 H 535.1 -0.43888 2.9475 0
M  V30 5724 H 532.637 -0.204995 1.45665 0
M  V30 5725 H 534.595 -2.91866 2.98111 0
M  V30 5726 H 533.225 -2.62535 1.87816 0
M  V30 5727 H 532.277 -0.999287 3.6704 0
M  V30 5728 H 533.589 -1.52074 4.75052 0
M  V30 5729 H 532.743 -3.87502 4.66827 0
M  V30 5730 H 531.482 -3.40139 3.49509 0
M  V30 5731 H 530.487 -1.83254 5.18361 0
M  V30 5732 H 531.712 -2.3338 6.37738 0
M  V30 5733 H 529.658 -4.15954 5.07266 0
M  V30 5734 H 529.575 -3.52997 6.68528 0
M  V30 5735 H 530.843 -4.64145 6.2625 0
M  V30 5736 N 535.072 -1.5615 -0.213296 0
M  V30 5737 C 536.488 -1.49327 -0.56336 0
M  V30 5738 C 536.688 -0.756826 -1.86747 0
M  V30 5739 O 535.744 -0.299866 -2.50713 0
M  V30 5740 C 537.057 -2.9392 -0.634944 0
M  V30 5741 C 538.605 -3.04487 -0.725013 0
M  V30 5742 C 539.08 -4.50456 -0.82787 0
M  V30 5743 N 540.571 -4.54533 -0.891876 0
M  V30 5744 C 541.306 -5.64766 -0.991315 0
M  V30 5745 N 540.802 -6.84733 -1.05419 0
M  V30 5746 N 542.595 -5.52637 -1.02709 0
M  V30 5747 H 534.746 -2.02453 0.642366 0
M  V30 5748 H 537.009 -0.920548 0.226487 0
M  V30 5749 H 536.715 -3.50783 0.253859 0
M  V30 5750 H 536.589 -3.46274 -1.49579 0
M  V30 5751 H 538.976 -2.47685 -1.60425 0
M  V30 5752 H 539.057 -2.55289 0.161669 0
M  V30 5753 H 538.701 -5.07878 0.0469464 0
M  V30 5754 H 538.631 -4.97369 -1.73009 0
M  V30 5755 H 541.122 -3.68141 -0.85327 0
M  V30 5756 H 541.435 -7.64493 -1.13007 0
M  V30 5757 H 539.78 -6.87427 -1.02318 0
M  V30 5758 H 542.971 -4.5784 -0.974687 0
M  V30 5759 H 543.144 -6.38576 -1.10113 0
M  V30 5760 N 536.55 0.480323 -1.50102 0
M  V30 5761 C 537.497 1.57946 -1.6829 0
M  V30 5762 C 538.467 1.57611 -0.524223 0
M  V30 5763 O 539.652 1.75282 -0.753709 0
M  V30 5764 C 536.792 2.95978 -1.77457 0
M  V30 5765 C 535.905 3.06173 -3.04766 0
M  V30 5766 C 535.04 4.35063 -3.04784 0
M  V30 5767 C 534.079 4.38966 -4.26586 0
M  V30 5768 N 533.216 5.59314 -4.24396 0
M  V30 5769 H 538.056 1.41743 -2.62131 0
M  V30 5770 H 535.593 0.689304 -1.2995 0
M  V30 5771 H 537.551 3.76011 -1.80752 0
M  V30 5772 H 536.181 3.10837 -0.870637 0
M  V30 5773 H 535.233 2.19071 -3.10986 0
M  V30 5774 H 536.545 3.04916 -3.9475 0
M  V30 5775 H 535.699 5.23436 -3.06757 0
M  V30 5776 H 534.438 4.38915 -2.12614 0
M  V30 5777 H 533.443 3.48992 -4.24835 0
M  V30 5778 H 534.668 4.36813 -5.19972 0
M  V30 5779 H 532.614 5.63969 -3.35074 0
M  V30 5780 H 532.531 5.5976 -5.08138 0
M  V30 5781 H 533.799 6.49837 -4.30502 0
M  V30 5782 N 538.028 1.39524 0.732853 0
M  V30 5783 C 538.958 1.41153 1.86005 0
M  V30 5784 C 539.939 0.274614 1.67869 0
M  V30 5785 O 541.124 0.480745 1.88155 0
M  V30 5786 C 538.254 1.25638 3.23778 0
M  V30 5787 C 537.208 2.36752 3.56556 0
M  V30 5788 C 536.534 2.06326 4.93289 0
M  V30 5789 C 537.834 3.79069 3.5931 0
M  V30 5790 H 539.528 2.35484 1.84899 0
M  V30 5791 H 537.074 1.13348 0.888162 0
M  V30 5792 H 539.027 1.25398 4.0231 0
M  V30 5793 H 537.751 0.277772 3.25417 0
M  V30 5794 H 536.41 2.36213 2.80355 0
M  V30 5795 H 536.058 1.06897 4.9151 0
M  V30 5796 H 535.758 2.80757 5.16187 0
M  V30 5797 H 537.282 2.07739 5.74175 0
M  V30 5798 H 538.696 3.81526 4.27914 0
M  V30 5799 H 537.093 4.52878 3.93728 0
M  V30 5800 H 538.163 4.09893 2.59068 0
M  V30 5801 N 539.506 -0.963266 1.24736 0
M  V30 5802 C 540.731 -1.74699 1.11781 0
M  V30 5803 C 541.156 -1.85267 -0.325258 0
M  V30 5804 O 540.514 -1.32681 -1.23553 0
M  V30 5805 C 540.562 -3.14322 1.76731 0
M  V30 5806 O 539.666 -3.99043 1.04109 0
M  V30 5807 H 539.007 -0.53684 0.390767 0
M  V30 5808 H 541.537 -1.20801 1.65131 0
M  V30 5809 H 541.547 -3.64824 1.82668 0
M  V30 5810 H 540.222 -3.05946 2.81726 0
M  V30 5811 H 538.799 -3.5752 1.05991 0
M  V30 5812 N 540.985 -1.06182 -1.16461 0
M  V30 5813 C 541.948 -0.675723 -2.19013 0
M  V30 5814 C 542.948 0.277963 -1.58379 0
M  V30 5815 O 544.138 0.0604962 -1.74095 0
M  V30 5816 C 541.27 0.00591459 -3.40899 0
M  V30 5817 H 542.463 -1.58353 -2.54685 0
M  V30 5818 H 540.016 -0.856908 -1.30716 0
M  V30 5819 H 540.751 0.92652 -3.10783 0
M  V30 5820 H 540.536 -0.67984 -3.86161 0
M  V30 5821 H 542.026 0.26181 -4.16778 0
M  V30 5822 N 542.463 1.3308 -0.844243 0
M  V30 5823 C 543.373 2.32876 -0.283922 0
M  V30 5824 C 544.389 1.63589 0.592846 0
M  V30 5825 O 545.565 1.95205 0.495693 0
M  V30 5826 C 542.63 3.42667 0.527283 0
M  V30 5827 C 541.691 4.27664 -0.374394 0
M  V30 5828 C 540.924 5.32212 0.39819 0
M  V30 5829 O 541.147 5.46635 1.62932 0
M  V30 5830 O 540.081 6.01458 -0.2306 0
M  V30 5831 H 543.907 2.82671 -1.11045 0
M  V30 5832 H 541.492 1.36518 -0.606903 0
M  V30 5833 H 543.374 4.09652 0.988078 0
M  V30 5834 H 542.049 2.95079 1.33078 0
M  V30 5835 H 540.956 3.63526 -0.883144 0
M  V30 5836 H 542.289 4.78749 -1.1428 0
M  V30 5837 N 543.941 0.601185 1.45683 0
M  V30 5838 C 544.871 -0.108824 2.33246 0
M  V30 5839 C 545.852 -0.865223 1.46451 0
M  V30 5840 O 547.037 -0.83704 1.75235 0
M  V30 5841 C 544.167 -1.11101 3.2905 0
M  V30 5842 C 543.121 -0.468244 4.25431 0
M  V30 5843 C 542.447 -1.57822 5.10878 0
M  V30 5844 C 543.747 0.606469 5.18767 0
M  V30 5845 H 545.441 0.622306 2.92861 0
M  V30 5846 H 542.987 0.300714 1.40825 0
M  V30 5847 H 544.94 -1.61622 3.89174 0
M  V30 5848 H 543.664 -1.87265 2.67581 0
M  V30 5849 H 542.323 0.0160484 3.66596 0
M  V30 5850 H 541.971 -2.32998 4.45781 0
M  V30 5851 H 541.671 -1.15369 5.76163 0
M  V30 5852 H 543.195 -2.08583 5.73869 0
M  V30 5853 H 544.609 0.185589 5.73 0
M  V30 5854 H 543.006 0.952381 5.92494 0
M  V30 5855 H 544.076 1.48559 4.61582 0
M  V30 5856 N 545.419 -1.53889 0.339982 0
M  V30 5857 C 546.382 -2.23547 -0.50592 0
M  V30 5858 C 547.382 -1.23445 -1.03044 0
M  V30 5859 O 548.572 -1.47909 -0.920253 0
M  V30 5860 C 545.704 -2.95234 -1.7044 0
M  V30 5861 H 546.897 -2.99722 0.103247 0
M  V30 5862 H 544.45 -1.56033 0.0912804 0
M  V30 5863 H 545.185 -2.23236 -2.35236 0
M  V30 5864 H 544.97 -3.68654 -1.33553 0
M  V30 5865 H 546.46 -3.48258 -2.30447 0
M  V30 5866 N 546.897 -0.0685191 -1.57451 0
M  V30 5867 C 548.145 0.60016 -1.92983 0
M  V30 5868 C 548.466 1.70348 -0.949028 0
M  V30 5869 O 547.736 1.959 0.00335647 0
M  V30 5870 H 546.316 0.224682 -0.712409 0
M  V30 5871 H 548.978 -0.125605 -1.94495 0
M  V30 5872 H 548.074 1.02759 -2.94698 0
M  V30 5873 N 548.375 1.56261 0.205012 0
M  V30 5874 C 549.323 1.94631 1.27364 0
M  V30 5875 C 550.317 0.830434 1.47649 0
M  V30 5876 O 551.523 1.01538 1.48627 0
M  V30 5877 H 547.898 0.618755 0.427371 0
M  V30 5878 H 549.869 2.83768 0.922941 0
M  V30 5879 C 548.618 2.29358 2.61324 0
M  V30 5880 H 547.941 3.14744 2.46528 0
M  V30 5881 H 549.381 2.60076 3.34868 0
M  V30 5882 C 547.84 1.12461 3.17575 0
M  V30 5883 O 548.37 0.394407 3.99759 0
M  V30 5884 N 546.576 0.904036 2.7618 0
M  V30 5885 H 546.123 1.49956 2.09454 0
M  V30 5886 H 546.081 0.123662 3.14157 0
M  V30 5887 N 549.853 -0.472356 1.50355 0
M  V30 5888 C 550.803 -1.56809 1.65514 0
M  V30 5889 C 551.787 -1.5261 0.509801 0
M  V30 5890 O 552.979 -1.59655 0.764145 0
M  V30 5891 C 550.108 -2.9526 1.75146 0
M  V30 5892 C 549.194 -3.04348 2.95353 0
M  V30 5893 N 549.585 -2.83253 4.19048 0
M  V30 5894 C 547.883 -3.35482 2.93884 0
M  V30 5895 C 548.584 -2.97273 5.00003 0
M  V30 5896 N 547.56 -3.27418 4.33934 0
M  V30 5897 H 551.362 -1.39197 2.58846 0
M  V30 5898 H 548.876 -0.67906 1.47521 0
M  V30 5899 H 550.873 -3.74044 1.8411 0
M  V30 5900 H 549.533 -3.1392 0.829717 0
M  V30 5901 H 550.544 -2.5886 4.48567 0
M  V30 5902 H 547.221 -3.60138 2.11204 0
M  V30 5903 H 548.611 -2.85214 6.08361 0
M  V30 5904 N 551.331 -1.39911 -0.725443 0
M  V30 5905 C 552.279 -1.39552 -1.86086 0
M  V30 5906 C 553.273 -0.277334 -1.67114 0
M  V30 5907 O 554.479 -0.447865 -1.74339 0
M  V30 5908 H 550.854 -0.435993 -0.612711 0
M  V30 5909 H 552.825 -2.35305 -1.83505 0
M  V30 5910 C 551.574 -1.26529 -3.2386 0
M  V30 5911 H 550.897 -2.11845 -3.3906 0
M  V30 5912 H 552.337 -1.30336 -4.03471 0
M  V30 5913 C 550.796 0.0254168 -3.3689 0
M  V30 5914 O 551.326 0.992048 -3.89257 0
M  V30 5915 N 549.532 0.0916528 -2.90455 0
M  V30 5916 H 549.079 -0.695675 -2.48028 0
M  V30 5917 H 549.037 0.954745 -2.99553 0
M  V30 5918 N 552.809 0.956637 -1.25245 0
M  V30 5919 C 553.741 2.05628 -1.01242 0
M  V30 5920 C 554.754 1.62785 0.0219579 0
M  V30 5921 O 555.943 1.77184 -0.216365 0
M  V30 5922 C 553.043 3.35069 -0.508161 0
M  V30 5923 C 552.216 4.06761 -1.60823 0
M  V30 5924 C 551.275 5.14473 -1.1047 0
M  V30 5925 O 550.301 5.40033 -1.79868 0
M  V30 5926 N 551.503 5.80474 0.0550773 0
M  V30 5927 H 554.268 2.2679 -1.95925 0
M  V30 5928 H 551.829 1.12505 -1.16423 0
M  V30 5929 H 553.821 4.044 -0.155819 0
M  V30 5930 H 552.391 3.10694 0.344683 0
M  V30 5931 H 551.611 3.31555 -2.13224 0
M  V30 5932 H 552.899 4.51418 -2.34733 0
M  V30 5933 H 552.297 5.62125 0.635004 0
M  V30 5934 H 550.854 6.50868 0.348469 0
M  V30 5935 N 554.287 1.06798 1.15896 0
M  V30 5936 C 555.197 0.694564 2.24083 0
M  V30 5937 C 556.213 -0.291687 1.71538 0
M  V30 5938 O 557.389 -0.139723 2.00915 0
M  V30 5939 C 554.454 0.0921014 3.46578 0
M  V30 5940 C 553.515 1.13087 4.14137 0
M  V30 5941 C 552.748 0.557064 5.30785 0
M  V30 5942 O 552.971 -0.628623 5.66925 0
M  V30 5943 O 551.905 1.29924 5.8771 0
M  V30 5944 H 555.731 1.59663 2.58344 0
M  V30 5945 H 553.316 0.840575 1.2351 0
M  V30 5946 H 555.198 -0.241884 4.20705 0
M  V30 5947 H 553.873 -0.78337 3.14078 0
M  V30 5948 H 552.78 1.51712 3.41957 0
M  V30 5949 H 554.113 1.97805 4.50704 0
M  V30 5950 N 555.766 -1.3263 0.851289 0
M  V30 5951 C 556.696 -2.31449 0.308771 0
M  V30 5952 C 557.677 -1.59531 -0.590255 0
M  V30 5953 O 558.862 -1.87351 -0.511205 0
M  V30 5954 C 555.992 -3.43586 -0.506548 0
M  V30 5955 C 554.946 -4.26963 0.297753 0
M  V30 5956 C 554.272 -5.30831 -0.642094 0
M  V30 5957 C 555.572 -4.99643 1.52166 0
M  V30 5958 H 557.266 -2.77074 1.13447 0
M  V30 5959 H 554.812 -1.33207 0.546971 0
M  V30 5960 H 556.765 -4.11754 -0.896474 0
M  V30 5961 H 555.489 -2.96681 -1.36558 0
M  V30 5962 H 554.148 -3.60437 0.669391 0
M  V30 5963 H 553.796 -4.8018 -1.49788 0
M  V30 5964 H 553.496 -5.87501 -0.107968 0
M  V30 5965 H 555.02 -6.01862 -1.02927 0
M  V30 5966 H 556.434 -5.6051 1.20421 0
M  V30 5967 H 554.831 -5.66022 1.99347 0
M  V30 5968 H 555.901 -4.27701 2.28474 0
M  V30 5969 N 557.244 -0.608902 -1.45362 0
M  V30 5970 C 558.472 -0.111013 -2.06602 0
M  V30 5971 C 558.887 1.20516 -1.45332 0
M  V30 5972 O 558.244 1.73437 -0.567978 0
M  V30 5973 C 558.295 0.033688 -3.61484 0
M  V30 5974 O 558.016 -1.23041 -4.20467 0
M  V30 5975 C 559.517 0.562882 -4.39712 0
M  V30 5976 H 556.737 -0.0694453 -0.667397 0
M  V30 5977 H 559.281 -0.837008 -1.86586 0
M  V30 5978 H 557.436 0.710016 -3.80838 0
M  V30 5979 H 557.85 -1.06094 -5.13658 0
M  V30 5980 H 559.324 0.613213 -5.48583 0
M  V30 5981 H 559.801 1.58543 -4.09586 0
M  V30 5982 H 560.407 -0.0794454 -4.25226 0
M  V30 5983 N 558.722 1.53707 -0.348139 0
M  V30 5984 C 560.133 1.86213 0.134797 0
M  V30 5985 C 560.484 1.26925 1.49614 0
M  V30 5986 O 559.609 0.584573 2.08355 0
M  V30 5987 C 560.204 3.37866 0.251371 0
M  V30 5988 C 558.763 3.70233 0.678543 0
M  V30 5989 C 557.91 2.76683 -0.184925 0
M  V30 5990 H 560.861 1.48204 -0.567571 0
M  V30 5991 H 560.882 3.64908 1.07806 0
M  V30 5992 H 560.394 3.80988 -0.739581 0
M  V30 5993 H 558.495 3.32659 1.67835 0
M  V30 5994 H 558.608 4.76836 0.465251 0
M  V30 5995 H 556.972 2.52374 0.343465 0
M  V30 5996 H 557.755 3.22635 -1.1731 0
M  V30 5997 N 560.2 0.0768682 1.57412 0
M  V30 5998 C 561.44 -0.594676 1.95558 0
M  V30 5999 C 561.804 -1.66469 0.956658 0
M  V30 6000 O 563.005 -2.39215 1.22595 0
M  V30 6001 C 561.276 -1.15206 3.38323 0
M  V30 6002 S 562.835 -1.83803 3.9845 0
M  V30 6003 H 559.653 -0.194579 0.683857 0
M  V30 6004 H 562.255 0.151933 1.94909 0
M  V30 6005 H 560.959 -0.36153 4.08805 0
M  V30 6006 H 560.49 -1.93491 3.42527 0
M  V30 6007 H 562.505 -3.12087 3.85767 0
M  V30 6008 N 561.678 -1.56367 -0.196722 0
M  V30 6009 C 563.094 -1.49916 -0.54749 0
M  V30 6010 C 563.294 -0.77659 -1.85934 0
M  V30 6011 O 562.35 -0.32644 -2.50381 0
M  V30 6012 C 563.663 -2.94577 -0.603734 0
M  V30 6013 C 565.211 -3.05239 -0.692677 0
M  V30 6014 C 565.686 -4.51308 -0.780046 0
M  V30 6015 N 567.177 -4.55453 -0.843616 0
M  V30 6016 C 567.912 -5.65786 -0.931358 0
M  V30 6017 N 567.408 -6.85812 -0.981503 0
M  V30 6018 N 569.201 -5.53695 -0.968421 0
M  V30 6019 H 561.352 -2.01761 0.663803 0
M  V30 6020 H 563.615 -0.918094 0.236238 0
M  V30 6021 H 563.321 -3.50494 0.29105 0
M  V30 6022 H 563.195 -3.47841 -1.45898 0
M  V30 6023 H 565.582 -2.49372 -1.57789 0
M  V30 6024 H 565.663 -2.55103 0.188736 0
M  V30 6025 H 565.307 -5.078 0.100811 0
M  V30 6026 H 565.237 -4.99176 -1.67724 0
M  V30 6027 H 567.728 -3.69025 -0.814176 0
M  V30 6028 H 568.041 -7.65648 -1.04892 0
M  V30 6029 H 566.386 -6.88474 -0.950208 0
M  V30 6030 H 569.577 -4.58848 -0.926072 0
M  V30 6031 H 569.75 -6.39708 -1.03334 0
M  V30 6032 N 563.156 0.464375 -1.50603 0
M  V30 6033 C 564.572 0.798684 -1.38178 0
M  V30 6034 C 564.772 1.96568 -0.44308 0
M  V30 6035 O 563.828 2.52252 0.111814 0
M  V30 6036 C 565.141 1.10444 -2.79683 0
M  V30 6037 C 566.689 1.2105 -2.88645 0
M  V30 6038 C 567.164 1.54934 -4.30998 0
M  V30 6039 N 568.655 1.61913 -4.3398 0
M  V30 6040 C 569.39 1.8965 -5.41129 0
M  V30 6041 N 568.886 2.15361 -6.58477 0
M  V30 6042 N 570.679 1.91207 -5.28579 0
M  V30 6043 H 562.83 -0.304603 -2.10204 0
M  V30 6044 H 565.093 -0.0737804 -0.945125 0
M  V30 6045 H 564.799 0.319934 -3.50242 0
M  V30 6046 H 564.673 2.03896 -3.17342 0
M  V30 6047 H 567.06 1.98567 -2.18301 0
M  V30 6048 H 567.141 0.255613 -2.5452 0
M  V30 6049 H 566.785 0.779549 -5.01882 0
M  V30 6050 H 566.715 2.51584 -4.62615 0
M  V30 6051 H 569.206 1.44055 -3.49366 0
M  V30 6052 H 569.519 2.35818 -7.35941 0
M  V30 6053 H 567.864 2.1274 -6.6164 0
M  V30 6054 H 571.055 1.70622 -4.35897 0
M  V30 6055 H 571.228 2.12488 -6.12171 0
M  V30 6056 N 564.634 1.40294 0.718013 0
M  V30 6057 C 565.862 1.4175 1.50714 0
M  V30 6058 C 566.277 0.0165366 1.88793 0
M  V30 6059 O 565.634 -0.958942 1.55276 0
M  V30 6060 C 565.685 2.30598 2.784 0
M  V30 6061 O 565.406 3.6524 2.41932 0
M  V30 6062 C 566.907 2.4062 3.72313 0
M  V30 6063 H 564.127 0.483565 0.465194 0
M  V30 6064 H 566.671 1.84316 0.885889 0
M  V30 6065 H 564.826 1.91401 3.36815 0
M  V30 6066 H 565.24 4.12402 3.24076 0
M  V30 6067 H 566.714 3.07001 4.58753 0
M  V30 6068 H 567.191 1.4305 4.15251 0
M  V30 6069 H 567.797 2.80359 3.19811 0
M  V30 6070 N 566.112 -0.949982 1.2575 0
M  V30 6071 C 567.042 -2.06483 1.09028 0
M  V30 6072 C 568.023 -1.701 -0.00201532 0
M  V30 6073 O 569.208 -1.93469 0.168383 0
M  V30 6074 C 566.338 -3.39899 0.71316 0
M  V30 6075 C 565.292 -3.90309 1.75621 0
M  V30 6076 C 564.618 -5.20274 1.23365 0
M  V30 6077 C 565.918 -4.16169 3.15596 0
M  V30 6078 H 567.612 -2.20731 2.02283 0
M  V30 6079 H 565.158 -1.06066 0.973964 0
M  V30 6080 H 567.111 -4.17346 0.58309 0
M  V30 6081 H 565.835 -3.25602 -0.255091 0
M  V30 6082 H 564.494 -3.15035 1.8748 0
M  V30 6083 H 564.142 -5.02351 0.255491 0
M  V30 6084 H 563.842 -5.54971 1.93082 0
M  V30 6085 H 565.366 -6.00314 1.11607 0
M  V30 6086 H 566.78 -4.84259 3.06864 0
M  V30 6087 H 565.177 -4.62131 3.82825 0
M  V30 6088 H 566.247 -3.22273 3.6231 0
M  V30 6089 N 567.59 -1.07411 -1.15328 0
M  V30 6090 C 568.815 -0.818856 -1.90551 0
M  V30 6091 C 569.24 0.622194 -1.77512 0
M  V30 6092 O 568.598 1.43484 -1.10824 0
M  V30 6093 C 568.646 -1.23267 -3.38877 0
M  V30 6094 O 567.75 -0.378345 -4.10661 0
M  V30 6095 H 567.091 -0.29827 -0.593238 0
M  V30 6096 H 569.621 -1.43289 -1.46046 0
M  V30 6097 H 569.631 -1.20912 -3.89672 0
M  V30 6098 H 568.306 -2.28226 -3.47686 0
M  V30 6099 H 566.883 -0.464437 -3.69996 0
M  V30 6100 N 569.068 1.32177 -0.85831 0
M  V30 6101 C 570.314 1.97417 -0.46417 0
M  V30 6102 C 570.647 1.67746 0.978514 0
M  V30 6103 O 569.922 0.967654 1.68721 0
M  V30 6104 C 570.205 3.53069 -0.708094 0
M  V30 6105 C 570.058 3.92357 -2.19946 0
M  V30 6106 C 571.377 4.39783 -0.166881 0
M  V30 6107 H 568.496 0.717097 -0.17012 0
M  V30 6108 H 571.138 1.56499 -1.07741 0
M  V30 6109 H 569.288 3.88054 -0.186128 0
M  V30 6110 H 570.96 3.67533 -2.78779 0
M  V30 6111 H 569.203 3.41384 -2.67656 0
M  V30 6112 H 569.874 5.00841 -2.32082 0
M  V30 6113 H 572.35 4.11556 -0.613285 0
M  V30 6114 H 571.226 5.47671 -0.367093 0
M  V30 6115 H 571.487 4.32196 0.930559 0
M  V30 6116 N 570.547 0.616602 1.45037 0
M  V30 6117 C 571.495 -0.109318 2.32343 0
M  V30 6118 C 572.489 -0.850543 1.465 0
M  V30 6119 O 573.695 -0.765088 1.62931 0
M  V30 6120 H 570.07 -0.0541091 0.750051 0
M  V30 6121 H 572.041 0.645326 2.91338 0
M  V30 6122 C 570.79 -1.0872 3.30266 0
M  V30 6123 H 570.113 -0.526267 3.96321 0
M  V30 6124 H 571.553 -1.56489 3.94065 0
M  V30 6125 C 570.012 -2.16525 2.58105 0
M  V30 6126 O 570.542 -3.244 2.36913 0
M  V30 6127 N 568.748 -1.92057 2.18088 0
M  V30 6128 H 568.295 -1.04337 2.35524 0
M  V30 6129 H 568.253 -2.64391 1.70131 0
M  V30 6130 N 572.025 -1.5352 0.356285 0
M  V30 6131 C 572.975 -2.22204 -0.510815 0
M  V30 6132 C 573.959 -1.21393 -1.05605 0
M  V30 6133 O 575.151 -1.46883 -0.987639 0
M  V30 6134 C 572.28 -3.00786 -1.65478 0
M  V30 6135 C 571.366 -4.08965 -1.12287 0
M  V30 6136 N 571.757 -5.04829 -0.313191 0
M  V30 6137 C 570.055 -4.23505 -1.39856 0
M  V30 6138 C 570.756 -5.81695 -0.0230322 0
M  V30 6139 N 569.732 -5.40074 -0.618144 0
M  V30 6140 H 573.534 -2.93676 0.114711 0
M  V30 6141 H 571.048 -1.61572 0.163811 0
M  V30 6142 H 573.045 -3.48502 -2.28806 0
M  V30 6143 H 571.705 -2.30843 -2.28345 0
M  V30 6144 H 572.716 -5.17879 0.0468202 0
M  V30 6145 H 569.393 -3.64786 -2.0307 0
M  V30 6146 H 570.783 -6.68931 0.630927 0
M  V30 6147 N 573.503 -0.0852151 -1.57369 0
M  V30 6148 C 574.433 0.874556 -2.16503 0
M  V30 6149 C 575.414 1.30111 -1.09568 0
M  V30 6150 O 576.599 1.36977 -1.37662 0
M  V30 6151 C 573.729 2.13731 -2.73745 0
M  V30 6152 C 572.683 1.84971 -3.85966 0
M  V30 6153 C 572.009 3.17991 -4.29867 0
M  V30 6154 C 573.309 1.14442 -5.09608 0
M  V30 6155 H 575.003 0.381899 -2.96954 0
M  V30 6156 H 572.549 0.18225 -1.42842 0
M  V30 6157 H 574.502 2.81302 -3.13763 0
M  V30 6158 H 573.226 2.65263 -1.90534 0
M  V30 6159 H 571.885 1.19801 -3.46473 0
M  V30 6160 H 571.533 3.6739 -3.4356 0
M  V30 6161 H 571.233 2.99534 -5.05523 0
M  V30 6162 H 572.757 3.86737 -4.72511 0
M  V30 6163 H 574.171 1.72105 -5.46857 0
M  V30 6164 H 572.568 1.06197 -5.90629 0
M  V30 6165 H 573.638 0.12559 -4.84737 0
M  V30 6166 N 574.981 1.5647 0.188427 0
M  V30 6167 C 576.209 1.85131 0.923803 0
M  V30 6168 C 576.624 0.668537 1.76567 0
M  V30 6169 O 575.981 -0.362662 1.7886 0
M  V30 6170 C 576.032 3.12661 1.81453 0
M  V30 6171 O 575.753 4.26378 1.00665 0
M  V30 6172 C 577.254 3.54548 2.66103 0
M  V30 6173 H 574.474 0.614624 0.269218 0
M  V30 6174 H 577.018 2.03581 0.193671 0
M  V30 6175 H 575.173 2.96088 2.49821 0
M  V30 6176 H 575.587 4.99041 1.61425 0
M  V30 6177 H 577.061 4.4673 3.24247 0
M  V30 6178 H 577.538 2.77853 3.40139 0
M  V30 6179 H 578.144 3.73674 2.03096 0
M  V30 6180 N 576.459 -0.456382 1.50847 0
M  V30 6181 C 577.684 -1.2349 1.66628 0
M  V30 6182 C 578.109 -1.84715 0.355254 0
M  V30 6183 O 577.467 -1.67961 -0.682559 0
M  V30 6184 C 577.515 -2.30865 2.77009 0
M  V30 6185 O 576.619 -3.35882 2.39285 0
M  V30 6186 H 575.96 -0.36266 0.556214 0
M  V30 6187 H 578.49 -0.541374 1.97308 0
M  V30 6188 H 578.5 -2.75949 3.00526 0
M  V30 6189 H 577.175 -1.85677 3.72152 0
M  V30 6190 H 575.752 -2.96406 2.26269 0
M  V30 6191 N 577.937 -1.40673 -0.710563 0
M  V30 6192 C 578.847 -1.43663 -1.85467 0
M  V30 6193 C 579.863 -0.328721 -1.70867 0
M  V30 6194 O 581.039 -0.574098 -1.93044 0
M  V30 6195 C 578.104 -1.30226 -3.21313 0
M  V30 6196 C 577.165 -2.51204 -3.48131 0
M  V30 6197 C 576.398 -2.38398 -4.77495 0
M  V30 6198 O 576.621 -1.40048 -5.5294 0
M  V30 6199 O 575.555 -3.2787 -5.04762 0
M  V30 6200 H 579.381 -2.40156 -1.859 0
M  V30 6201 H 576.966 -1.22049 -0.861652 0
M  V30 6202 H 578.848 -1.2496 -4.02446 0
M  V30 6203 H 577.523 -0.368419 -3.21597 0
M  V30 6204 H 576.43 -2.62048 -2.66987 0
M  V30 6205 H 577.763 -3.43366 -3.52648 0
M  V30 6206 N 579.415 0.9433 -1.26252 0
M  V30 6207 C 580.831 1.21644 -1.03319 0
M  V30 6208 C 581.031 2.0003 0.242983 0
M  V30 6209 O 580.087 2.33838 0.952688 0
M  V30 6210 C 581.4 1.97978 -2.2633 0
M  V30 6211 C 582.948 2.10978 -2.31209 0
M  V30 6212 C 583.423 2.90713 -3.53907 0
M  V30 6213 N 584.914 2.98287 -3.54371 0
M  V30 6214 C 585.649 3.60406 -4.45976 0
M  V30 6215 N 585.145 4.24043 -5.47868 0
M  V30 6216 N 586.938 3.57658 -4.33633 0
M  V30 6217 H 579.089 0.419221 -2.08222 0
M  V30 6218 H 581.352 0.247995 -0.914988 0
M  V30 6219 H 581.058 1.47788 -3.19142 0
M  V30 6220 H 580.932 2.9865 -2.30408 0
M  V30 6221 H 583.319 2.6036 -1.38913 0
M  V30 6222 H 583.4 1.09575 -2.31143 0
M  V30 6223 H 583.044 2.42018 -4.46531 0
M  V30 6224 H 582.974 3.92367 -3.5122 0
M  V30 6225 H 585.465 2.53044 -2.80673 0
M  V30 6226 H 585.778 4.69334 -6.13959 0
M  V30 6227 H 584.123 4.22637 -5.51728 0
M  V30 6228 H 587.314 3.07134 -3.53251 0
M  V30 6229 H 587.487 4.05782 -5.05218 0
M  V30 6230 N 580.893 1.08022 1.14757 0
M  V30 6231 C 582.17 0.720386 1.81851 0
M  V30 6232 C 582.55 -0.796375 1.95502 0
M  V30 6233 O 581.898 -1.71339 1.51179 0
M  V30 6234 C 582.108 1.44273 3.17783 0
M  V30 6235 C 583.456 1.59925 3.93331 0
M  V30 6236 O 584.48 1.40407 3.2736 0
M  V30 6237 O 583.339 1.92096 5.11626 0
M  V30 6238 H 580.433 0.257142 0.786007 0
M  V30 6239 H 582.979 1.18155 1.21809 0
M  V30 6240 H 581.751 2.47618 3.02987 0
M  V30 6241 H 581.374 0.97279 3.85516 0
M  V30 6242 N 582.371 -1.3172 0.865308 0
M  V30 6243 C 583.617 -1.97168 0.474633 0
M  V30 6244 C 583.95 -1.68263 -0.969604 0
M  V30 6245 O 583.225 -0.976588 -1.68205 0
M  V30 6246 C 583.508 -3.52689 0.726808 0
M  V30 6247 C 583.361 -3.91185 2.22024 0
M  V30 6248 C 584.68 -4.39689 0.190201 0
M  V30 6249 H 581.799 -0.716185 0.17392 0
M  V30 6250 H 584.441 -1.55925 1.08569 0
M  V30 6251 H 582.591 -3.8795 0.206705 0
M  V30 6252 H 584.263 -3.66049 2.80724 0
M  V30 6253 H 582.506 -3.3996 2.69462 0
M  V30 6254 H 583.177 -4.99604 2.34735 0
M  V30 6255 H 585.653 -4.11225 0.635103 0
M  V30 6256 H 584.529 -5.47469 0.396132 0
M  V30 6257 H 584.79 -4.32683 -0.907625 0
M  V30 6258 N 583.85 -0.624285 -1.44708 0
M  V30 6259 C 584.779 0.0717025 -2.3339 0
M  V30 6260 C 585.76 0.841814 -1.47809 0
M  V30 6261 O 586.946 0.809056 -1.76544 0
M  V30 6262 C 584.076 1.05852 -3.30776 0
M  V30 6263 C 583.029 0.400503 -4.26122 0
M  V30 6264 C 582.356 1.49674 -5.13324 0
M  V30 6265 C 583.656 -0.688924 -5.17737 0
M  V30 6266 H 585.35 -0.668819 -2.91834 0
M  V30 6267 H 582.896 -0.32308 -1.40329 0
M  V30 6268 H 584.849 1.5541 -3.91696 0
M  V30 6269 H 583.572 1.82984 -2.70526 0
M  V30 6270 H 582.231 -0.0743687 -3.66525 0
M  V30 6271 H 581.88 2.25877 -4.49431 0
M  V30 6272 H 581.58 1.06188 -5.77926 0
M  V30 6273 H 583.104 1.99427 -5.77115 0
M  V30 6274 H 584.518 -0.276724 -5.72632 0
M  V30 6275 H 582.915 -1.04652 -5.90904 0
M  V30 6276 H 583.985 -1.55884 -4.5916 0
M  V30 6277 N 585.328 1.53329 -0.364422 0
M  V30 6278 C 586.739 1.86345 0.115039 0
M  V30 6279 C 587.09 1.28505 1.4826 0
M  V30 6280 O 586.215 0.606639 2.07723 0
M  V30 6281 C 586.81 3.38114 0.215522 0
M  V30 6282 C 585.369 3.70932 0.639237 0
M  V30 6283 C 584.516 2.76471 -0.214261 0
M  V30 6284 H 587.467 1.47593 -0.583258 0
M  V30 6285 H 587.488 3.66031 1.0393 0
M  V30 6286 H 587 3.80182 -0.779948 0
M  V30 6287 H 585.101 3.3442 1.64298 0
M  V30 6288 H 585.214 4.77302 0.41465 0
M  V30 6289 H 583.578 2.52724 0.316678 0
M  V30 6290 H 584.361 3.21373 -1.20725 0
M  V30 6291 N 586.806 0.0935595 1.57322 0
M  V30 6292 C 588.217 -0.435807 1.81542 0
M  V30 6293 C 588.568 -1.68263 1.00907 0
M  V30 6294 O 587.693 -2.15087 0.237983 0
M  V30 6295 C 588.288 -0.797436 3.29282 0
M  V30 6296 C 586.847 -1.27155 3.54272 0
M  V30 6297 C 585.994 -0.267455 2.76007 0
M  V30 6298 H 588.945 0.31902 1.5546 0
M  V30 6299 H 588.966 -1.6571 3.42521 0
M  V30 6300 H 588.478 0.110206 3.87943 0
M  V30 6301 H 586.579 -2.19696 3.00939 0
M  V30 6302 H 586.692 -1.23445 4.62923 0
M  V30 6303 H 585.056 -0.749282 2.43429 0
M  V30 6304 H 585.839 0.632839 3.37417 0
M  V30 6305 N 588.284 -1.56567 -0.180126 0
M  V30 6306 C 589.214 -1.98753 -1.22553 0
M  V30 6307 C 590.195 -0.86175 -1.46656 0
M  V30 6308 O 591.38 -1.12719 -1.58139 0
M  V30 6309 C 588.51 -2.33988 -2.56645 0
M  V30 6310 C 587.464 -3.49445 -2.47128 0
M  V30 6311 C 586.79 -3.70397 -3.8563 0
M  V30 6312 C 588.09 -4.83171 -1.98352 0
M  V30 6313 H 589.784 -2.86332 -0.874896 0
M  V30 6314 H 587.33 -1.37757 -0.419414 0
M  V30 6315 H 589.283 -2.62097 -3.29974 0
M  V30 6316 H 588.007 -1.43309 -2.93479 0
M  V30 6317 H 586.666 -3.2145 -1.76254 0
M  V30 6318 H 586.314 -2.77023 -4.19842 0
M  V30 6319 H 586.014 -4.48077 -3.80132 0
M  V30 6320 H 587.538 -4.00897 -4.60558 0
M  V30 6321 H 588.952 -5.10213 -2.61449 0
M  V30 6322 H 587.349 -5.64425 -2.03823 0
M  V30 6323 H 588.419 -4.75753 -0.937402 0
M  V30 6324 N 589.762 0.448376 -1.51087 0
M  V30 6325 C 590.692 1.55102 -1.74544 0
M  V30 6326 C 591.673 1.59357 -0.594932 0
M  V30 6327 O 592.858 1.75261 -0.836491 0
M  V30 6328 C 589.988 2.93268 -1.86041 0
M  V30 6329 C 588.942 3.03877 -3.01402 0
M  V30 6330 C 588.268 4.43914 -2.98068 0
M  V30 6331 C 589.568 2.7898 -4.41551 0
M  V30 6332 H 591.262 1.35724 -2.66869 0
M  V30 6333 H 588.808 0.651498 -1.28419 0
M  V30 6334 H 590.761 3.70356 -2.01034 0
M  V30 6335 H 589.485 3.13853 -0.903548 0
M  V30 6336 H 588.144 2.29227 -2.86096 0
M  V30 6337 H 587.792 4.6145 -2.00182 0
M  V30 6338 H 587.492 4.51944 -3.75527 0
M  V30 6339 H 589.016 5.22991 -3.1514 0
M  V30 6340 H 590.43 3.45805 -4.57265 0
M  V30 6341 H 588.827 2.98431 -5.20633 0
M  V30 6342 H 589.897 1.74663 -4.5235 0
M  V30 6343 N 591.24 1.41047 0.703093 0
M  V30 6344 C 592.187 1.42302 1.81711 0
M  V30 6345 C 593.157 0.278336 1.63751 0
M  V30 6346 O 594.342 0.478266 1.84709 0
M  V30 6347 C 591.482 1.30362 3.19531 0
M  V30 6348 C 590.595 2.54638 3.48975 0
M  V30 6349 C 589.73 2.35047 4.76368 0
M  V30 6350 C 588.769 3.54837 4.98756 0
M  V30 6351 N 587.906 3.34363 6.1737 0
M  V30 6352 H 592.746 2.37516 1.79973 0
M  V30 6353 H 590.283 1.1795 0.878983 0
M  V30 6354 H 592.241 1.21443 3.99134 0
M  V30 6355 H 590.871 0.387602 3.20464 0
M  V30 6356 H 589.923 2.74037 2.63833 0
M  V30 6357 H 591.235 3.43766 3.61423 0
M  V30 6358 H 590.389 2.23552 5.64012 0
M  V30 6359 H 589.128 1.43363 4.66153 0
M  V30 6360 H 588.133 3.66795 4.09563 0
M  V30 6361 H 589.358 4.47464 5.10835 0
M  V30 6362 H 587.304 2.45373 6.08382 0
M  V30 6363 H 587.221 4.17063 6.30551 0
M  V30 6364 H 588.489 3.26626 7.07768 0
M  V30 6365 N 592.718 -0.936591 1.26751 0
M  V30 6366 C 593.946 -1.71758 1.15355 0
M  V30 6367 C 594.361 -1.86549 -0.290683 0
M  V30 6368 O 593.718 -1.37616 -1.19868 0
M  V30 6369 C 593.769 -3.12193 1.82258 0
M  V30 6370 O 593.49 -2.98105 3.21038 0
M  V30 6371 C 594.991 -4.06485 1.76875 0
M  V30 6372 H 592.211 -0.537636 0.401483 0
M  V30 6373 H 594.755 -1.17382 1.67457 0
M  V30 6374 H 592.91 -3.63456 1.34083 0
M  V30 6375 H 593.324 -3.86824 3.54214 0
M  V30 6376 H 594.798 -5.02569 2.28316 0
M  V30 6377 H 595.275 -4.32986 0.736216 0
M  V30 6378 H 595.881 -3.61144 2.24623 0
M  V30 6379 N 594.196 -1.08629 -1.14182 0
M  V30 6380 C 595.106 -0.730126 -2.22949 0
M  V30 6381 C 596.122 0.26436 -1.7198 0
M  V30 6382 O 597.298 0.107742 -2.01112 0
M  V30 6383 C 594.363 -0.147227 -3.46387 0
M  V30 6384 C 593.424 -1.19662 -4.12286 0
M  V30 6385 C 592.657 -0.641437 -5.29831 0
M  V30 6386 O 592.88 0.538351 -5.67854 0
M  V30 6387 O 591.814 -1.39257 -5.85569 0
M  V30 6388 H 595.64 -1.63753 -2.55771 0
M  V30 6389 H 593.225 -0.860118 -1.22157 0
M  V30 6390 H 595.107 0.174923 -4.21037 0
M  V30 6391 H 593.782 0.733304 -3.15285 0
M  V30 6392 H 592.689 -1.57133 -3.395 0
M  V30 6393 H 594.022 -2.0495 -4.475 0
M  V30 6394 N 595.674 1.31259 -0.872281 0
M  V30 6395 C 596.899 2.0133 -0.498099 0
M  V30 6396 C 597.324 1.65031 0.902568 0
M  V30 6397 O 596.682 0.860164 1.59596 0
M  V30 6398 C 596.73 3.54411 -0.665205 0
M  V30 6399 O 595.834 4.11347 0.294473 0
M  V30 6400 H 595.175 0.633844 -0.197832 0
M  V30 6401 H 597.705 1.67402 -1.17633 0
M  V30 6402 H 597.715 4.04147 -0.559373 0
M  V30 6403 H 596.39 3.80171 -1.68651 0
M  V30 6404 H 594.967 3.72624 0.143403 0
M  V30 6405 N 597.152 0.631951 1.44375 0
M  V30 6406 C 598.401 0.134214 2.01253 0
M  V30 6407 C 598.714 -1.25171 1.50305 0
M  V30 6408 O 599.92 -1.8435 1.99317 0
M  V30 6409 C 598.376 0.189187 3.59402 0
M  V30 6410 C 597.984 1.57647 4.19346 0
M  V30 6411 C 599.728 -0.252044 4.23751 0
M  V30 6412 C 597.635 1.58651 5.69722 0
M  V30 6413 H 596.565 0.0464101 0.75257 0
M  V30 6414 H 599.216 0.790868 1.65582 0
M  V30 6415 H 597.598 -0.534584 3.92375 0
M  V30 6416 H 598.772 2.32389 3.97909 0
M  V30 6417 H 597.087 1.96186 3.67288 0
M  V30 6418 H 599.684 -0.264084 5.34047 0
M  V30 6419 H 600.027 -1.27951 3.96149 0
M  V30 6420 H 600.56 0.41926 3.95584 0
M  V30 6421 H 597.299 2.59237 6.0206 0
M  V30 6422 H 596.819 0.882039 5.93279 0
M  V30 6423 H 598.498 1.32082 6.33375 0
M  V30 6424 N 598.631 -1.53133 0.372548 0
M  V30 6425 C 599.861 -2.05476 -0.215202 0
M  V30 6426 C 600.269 -1.24534 -1.42436 0
M  V30 6427 O 599.612 -0.280771 -1.81542 0
M  V30 6428 C 599.674 -3.53276 -0.666068 0
M  V30 6429 C 599.338 -4.54998 0.427342 0
M  V30 6430 C 600.335 -5.03911 1.27944 0
M  V30 6431 C 598.02 -4.98828 0.589579 0
M  V30 6432 C 600.014 -5.95263 2.27905 0
M  V30 6433 C 597.701 -5.89984 1.59255 0
M  V30 6434 C 598.699 -6.38093 2.43571 0
M  V30 6435 O 598.387 -7.27451 3.42156 0
M  V30 6436 H 598.119 -0.67481 -0.040099 0
M  V30 6437 H 600.673 -1.98409 0.531312 0
M  V30 6438 H 598.903 -3.57904 -1.4643 0
M  V30 6439 H 600.592 -3.88442 -1.1776 0
M  V30 6440 H 601.358 -4.70792 1.16532 0
M  V30 6441 H 597.237 -4.60965 -0.0569456 0
M  V30 6442 H 600.781 -6.32736 2.93753 0
M  V30 6443 H 596.678 -6.22518 1.70711 0
M  V30 6444 H 597.446 -7.45467 3.37967 0
M  V30 6445 N 600.109 -0.101901 -1.5727 0
M  V30 6446 C 601.039 0.851544 -2.17419 0
M  V30 6447 C 602.02 1.28942 -1.10941 0
M  V30 6448 O 603.205 1.35509 -1.39107 0
M  V30 6449 C 600.335 2.10816 -2.75996 0
M  V30 6450 C 599.289 1.80867 -3.87906 0
M  V30 6451 C 598.615 3.13413 -4.33216 0
M  V30 6452 C 599.915 1.0903 -5.10793 0
M  V30 6453 H 601.609 0.350381 -2.97343 0
M  V30 6454 H 599.155 0.16709 -1.43027 0
M  V30 6455 H 601.108 2.77959 -3.16729 0
M  V30 6456 H 599.832 2.63227 -1.93337 0
M  V30 6457 H 598.491 1.16119 -3.47724 0
M  V30 6458 H 598.139 3.63725 -3.47438 0
M  V30 6459 H 597.839 2.94155 -5.08671 0
M  V30 6460 H 599.363 3.81704 -4.76586 0
M  V30 6461 H 600.777 1.66295 -5.48652 0
M  V30 6462 H 599.174 0.99927 -5.91722 0
M  V30 6463 H 600.244 0.0741704 -4.84843 0
M  V30 6464 N 601.587 1.56661 0.17182 0
M  V30 6465 C 602.535 1.97289 1.23207 0
M  V30 6466 C 603.529 0.861566 1.45854 0
M  V30 6467 O 604.735 1.04668 1.4644 0
M  V30 6468 H 601.11 0.627681 0.41415 0
M  V30 6469 H 603.081 2.85662 0.862542 0
M  V30 6470 C 601.83 2.34849 2.564 0
M  V30 6471 H 601.153 3.19903 2.39797 0
M  V30 6472 H 602.593 2.67121 3.29276 0
M  V30 6473 C 601.052 1.19172 3.15119 0
M  V30 6474 O 601.582 0.479113 3.98833 0
M  V30 6475 N 599.788 0.962415 2.74201 0
M  V30 6476 H 599.335 1.54365 2.06226 0
M  V30 6477 H 599.293 0.190272 3.13824 0
M  V30 6478 N 603.065 -0.440357 1.51323 0
M  V30 6479 C 604.313 -1.18769 1.63518 0
M  V30 6480 C 604.634 -1.91793 0.352201 0
M  V30 6481 O 603.904 -1.85432 -0.631811 0
M  V30 6482 H 602.484 -0.441408 0.602634 0
M  V30 6483 H 605.146 -0.505162 1.8824 0
M  V30 6484 H 604.242 -1.91892 2.46138 0
M  V30 6485 N 604.543 -1.41418 -0.695603 0
M  V30 6486 C 605.473 -1.46035 -1.82197 0
M  V30 6487 C 606.454 -0.319025 -1.67082 0
M  V30 6488 O 607.639 -0.530462 -1.86815 0
M  V30 6489 C 604.769 -1.34179 -3.20333 0
M  V30 6490 C 603.723 -2.46123 -3.50154 0
M  V30 6491 C 603.049 -2.19332 -4.87645 0
M  V30 6492 C 604.349 -3.88463 -3.49133 0
M  V30 6493 H 606.043 -2.40303 -1.78591 0
M  V30 6494 H 603.589 -1.15663 -0.857797 0
M  V30 6495 H 605.542 -1.36021 -3.98844 0
M  V30 6496 H 604.266 -0.363952 -3.24566 0
M  V30 6497 H 602.925 -2.43563 -2.73994 0
M  V30 6498 H 602.573 -1.19891 -4.88503 0
M  V30 6499 H 602.273 -2.94344 -5.08562 0
M  V30 6500 H 603.797 -2.22889 -5.68465 0
M  V30 6501 H 605.211 -3.92738 -4.17648 0
M  V30 6502 H 603.608 -4.63158 -3.81582 0
M  V30 6503 H 604.678 -4.16617 -2.48109 0
M  V30 6504 N 606.021 0.929856 -1.27246 0
M  V30 6505 C 607.249 1.71144 -1.16265 0
M  V30 6506 C 607.664 1.867 0.280786 0
M  V30 6507 O 607.021 1.38249 1.19136 0
M  V30 6508 C 607.072 3.11222 -1.83911 0
M  V30 6509 O 606.793 2.96398 -3.22614 0
M  V30 6510 C 608.294 4.05541 -1.79028 0
M  V30 6511 H 605.514 0.535499 -0.404328 0
M  V30 6512 H 608.058 1.16492 -1.68077 0
M  V30 6513 H 606.213 3.6274 -1.36009 0
M  V30 6514 H 606.627 3.8494 -3.56261 0
M  V30 6515 H 608.101 5.01351 -2.30978 0
M  V30 6516 H 608.578 4.32589 -0.759168 0
M  V30 6517 H 609.184 3.59947 -2.26535 0
M  V30 6518 N 607.499 1.09233 1.13605 0
M  V30 6519 C 608.91 0.846839 1.6639 0
M  V30 6520 C 609.261 -0.625031 1.85978 0
M  V30 6521 O 608.386 -1.48173 1.57714 0
M  V30 6522 C 608.981 1.5307 3.0225 0
M  V30 6523 C 607.54 1.33223 3.52035 0
M  V30 6524 C 606.687 1.58806 2.27323 0
M  V30 6525 H 609.638 1.25175 0.975541 0
M  V30 6526 H 609.659 0.96267 3.68121 0
M  V30 6527 H 609.171 2.60192 2.87961 0
M  V30 6528 H 607.272 0.282091 3.71531 0
M  V30 6529 H 607.385 2.0657 4.32279 0
M  V30 6530 H 605.749 1.01007 2.33815 0
M  V30 6531 H 606.532 2.67153 2.15602 0
M  V30 6532 N 608.977 -1.30795 0.87923 0
M  V30 6533 C 609.927 -2.25838 0.313276 0
M  V30 6534 C 610.911 -1.51025 -0.55499 0
M  V30 6535 O 612.103 -1.72413 -0.400353 0
M  V30 6536 C 609.232 -3.39981 -0.476204 0
M  V30 6537 C 608.318 -4.22154 0.405826 0
M  V30 6538 N 608.709 -4.82934 1.50362 0
M  V30 6539 C 607.007 -4.45552 0.199909 0
M  V30 6540 C 607.708 -5.44444 2.0483 0
M  V30 6541 N 606.684 -5.26723 1.34403 0
M  V30 6542 H 610.486 -2.70374 1.15218 0
M  V30 6543 H 608 -1.45168 0.728003 0
M  V30 6544 H 609.997 -4.07108 -0.898251 0
M  V30 6545 H 608.657 -2.96986 -1.31261 0
M  V30 6546 H 609.668 -4.82319 1.8865 0
M  V30 6547 H 606.345 -4.13169 -0.599795 0
M  V30 6548 H 607.735 -6.02701 2.96986 0
M  V30 6549 N 610.455 -0.639598 -1.44038 0
M  V30 6550 C 611.695 -0.150902 -2.03842 0
M  V30 6551 C 612.059 1.20744 -1.49281 0
M  V30 6552 O 613.26 1.78875 -2.00642 0
M  V30 6553 C 611.531 -0.146114 -3.57101 0
M  V30 6554 S 613.09 0.276725 -4.37927 0
M  V30 6555 H 609.908 -0.0652447 -0.708 0
M  V30 6556 H 612.51 -0.844886 -1.76301 0
M  V30 6557 H 611.214 -1.13769 -3.94316 0
M  V30 6558 H 610.745 0.568846 -3.89266 0
M  V30 6559 H 612.76 1.51893 -4.7238 0
M  V30 6560 N 611.933 1.52934 -0.380664 0
M  V30 6561 C 612.896 2.24809 0.446473 0
M  V30 6562 C 613.896 1.26133 0.997347 0
M  V30 6563 O 615.086 1.50297 0.880714 0
M  V30 6564 C 612.218 2.99649 1.62553 0
M  V30 6565 H 613.411 2.99343 -0.182677 0
M  V30 6566 H 610.964 1.55736 -0.132618 0
M  V30 6567 H 611.699 2.29395 2.29235 0
M  V30 6568 H 611.484 3.72066 1.23732 0
M  V30 6569 H 612.974 3.54246 2.21133 0
M  V30 6570 N 613.412 0.11024 1.57214 0
M  V30 6571 C 614.66 -0.548783 1.94506 0
M  V30 6572 C 614.981 -1.67772 0.99386 0
M  V30 6573 O 614.251 -1.9584 0.0485841 0
M  V30 6574 H 612.831 -0.205715 0.718116 0
M  V30 6575 H 615.493 0.177127 1.94093 0
M  V30 6576 H 614.589 -0.949096 2.97319 0
M  V30 6577 N 614.89 -1.56749 -0.16351 0
M  V30 6578 C 615.8 -2.00255 -1.2221 0
M  V30 6579 C 616.816 -0.915194 -1.47987 0
M  V30 6580 O 617.992 -1.22342 -1.59982 0
M  V30 6581 C 615.057 -2.36035 -2.53946 0
M  V30 6582 C 614.118 -3.58637 -2.35962 0
M  V30 6583 C 613.351 -3.92701 -3.61416 0
M  V30 6584 O 613.574 -3.27632 -4.66919 0
M  V30 6585 O 612.508 -4.86019 -3.55062 0
M  V30 6586 H 616.334 -2.90586 -0.882794 0
M  V30 6587 H 613.919 -1.44721 -0.370978 0
M  V30 6588 H 615.801 -2.59982 -3.31643 0
M  V30 6589 H 614.476 -1.48863 -2.8744 0
M  V30 6590 H 613.383 -3.39898 -1.5627 0
M  V30 6591 H 614.716 -4.46374 -2.0739 0
M  V30 6592 N 616.368 0.432326 -1.51554 0
M  V30 6593 C 617.278 1.55023 -1.76082 0
M  V30 6594 C 618.294 1.61593 -0.645265 0
M  V30 6595 O 619.47 1.78742 -0.928086 0
M  V30 6596 C 616.535 2.90964 -1.88523 0
M  V30 6597 C 615.596 2.9447 -3.12388 0
M  V30 6598 C 614.829 4.23926 -3.24225 0
M  V30 6599 O 615.052 5.16576 -2.4188 0
M  V30 6600 O 613.986 4.33818 -4.17235 0
M  V30 6601 H 617.812 1.37238 -2.70923 0
M  V30 6602 H 615.397 0.615845 -1.36117 0
M  V30 6603 H 617.279 3.71633 -1.98662 0
M  V30 6604 H 615.954 3.08865 -0.9687 0
M  V30 6605 H 614.861 2.12737 -3.07723 0
M  V30 6606 H 616.194 2.81514 -4.03746 0
M  V30 6607 N 617.846 1.41785 0.688094 0
M  V30 6608 C 619.095 1.4084 1.44385 0
M  V30 6609 C 619.408 0.0234166 1.95586 0
M  V30 6610 O 620.614 -0.108647 2.71283 0
M  V30 6611 C 619.07 2.47675 2.61123 0
M  V30 6612 C 618.678 3.92116 2.16677 0
M  V30 6613 C 620.422 2.55877 3.38714 0
M  V30 6614 C 618.329 4.90487 3.30419 0
M  V30 6615 H 617.259 0.523787 0.542368 0
M  V30 6616 H 619.91 1.6764 0.74627 0
M  V30 6617 H 618.292 2.14018 3.33185 0
M  V30 6618 H 619.466 4.35059 1.51856 0
M  V30 6619 H 617.781 3.87642 1.5206 0
M  V30 6620 H 620.378 3.26553 4.234 0
M  V30 6621 H 620.721 1.59801 3.84408 0
M  V30 6622 H 621.254 2.88662 2.73714 0
M  V30 6623 H 617.993 5.87994 2.89729 0
M  V30 6624 H 617.513 4.52187 3.94065 0
M  V30 6625 H 619.192 5.11591 3.96085 0
M  V30 6626 N 619.324 -0.923095 1.27737 0
M  V30 6627 C 620.287 -2.00587 1.10894 0
M  V30 6628 C 621.287 -1.60718 0.0514927 0
M  V30 6629 O 622.477 -1.71658 0.296481 0
M  V30 6630 C 619.609 -3.33829 0.690717 0
M  V30 6631 H 620.802 -2.16959 2.07048 0
M  V30 6632 H 618.355 -1.10451 1.1059 0
M  V30 6633 H 619.09 -3.23157 -0.272 0
M  V30 6634 H 618.875 -3.64125 1.45448 0
M  V30 6635 H 620.365 -4.13336 0.595252 0
M  V30 6636 N 620.802 -1.09834 -1.13024 0
M  V30 6637 C 622.048 -0.83819 -1.84668 0
M  V30 6638 C 622.381 0.634645 -1.83537 0
M  V30 6639 O 621.656 1.46753 -1.27647 0
M  V30 6640 C 621.939 -1.37933 -3.32636 0
M  V30 6641 C 621.792 -2.91857 -3.42257 0
M  V30 6642 C 623.111 -1.01654 -4.28199 0
M  V30 6643 H 620.23 -0.30595 -0.670495 0
M  V30 6644 H 622.872 -1.36044 -1.32635 0
M  V30 6645 H 621.022 -0.935111 -3.77078 0
M  V30 6646 H 622.694 -3.44759 -3.06495 0
M  V30 6647 H 620.937 -3.28776 -2.83 0
M  V30 6648 H 621.608 -3.24799 -4.46329 0
M  V30 6649 H 624.084 -1.39973 -3.9185 0
M  V30 6650 H 622.96 -1.42217 -5.30156 0
M  V30 6651 H 623.221 0.0747794 -4.42037 0
M  V30 6652 N 622.28 1.30327 -0.886154 0
M  V30 6653 C 623.529 1.95373 -0.501243 0
M  V30 6654 C 623.842 1.70722 0.954634 0
M  V30 6655 O 625.048 2.29761 1.44644 0
M  V30 6656 C 623.504 3.49828 -0.845493 0
M  V30 6657 C 623.112 3.83296 -2.31922 0
M  V30 6658 C 624.856 4.2118 -0.529838 0
M  V30 6659 C 622.763 5.30935 -2.60504 0
M  V30 6660 H 621.693 0.731274 -0.183722 0
M  V30 6661 H 624.344 1.48258 -1.08129 0
M  V30 6662 H 622.726 3.95522 -0.19452 0
M  V30 6663 H 623.9 3.48508 -3.01461 0
M  V30 6664 H 622.215 3.2505 -2.60253 0
M  V30 6665 H 624.812 5.29825 -0.720401 0
M  V30 6666 H 625.155 4.12902 0.530828 0
M  V30 6667 H 625.688 3.81173 -1.13806 0
M  V30 6668 H 622.427 5.44265 -3.65316 0
M  V30 6669 H 621.947 5.67019 -1.95575 0
M  V30 6670 H 623.626 5.98381 -2.46066 0
M  V30 6671 N 623.758 0.647228 1.43697 0
M  V30 6672 C 624.668 -0.0487997 2.34549 0
M  V30 6673 C 625.684 -0.818586 1.53542 0
M  V30 6674 O 626.86 -0.767195 1.86215 0
M  V30 6675 C 623.925 -1.00734 3.31743 0
M  V30 6676 C 622.986 -0.23515 4.28655 0
M  V30 6677 C 622.219 -1.14803 5.21206 0
M  V30 6678 O 622.442 -2.38717 5.18045 0
M  V30 6679 O 621.376 -0.623667 5.9866 0
M  V30 6680 H 625.202 0.698863 2.9555 0
M  V30 6681 H 622.787 0.407412 1.43738 0
M  V30 6682 H 624.669 -1.55837 3.91526 0
M  V30 6683 H 623.344 -1.73534 2.73254 0
M  V30 6684 H 622.251 0.359319 3.7237 0
M  V30 6685 H 623.584 0.453152 4.9011 0
M  V30 6686 N 625.236 -1.5273 0.388769 0
M  V30 6687 C 626.184 -2.27975 -0.461527 0
M  V30 6688 C 627.178 -1.31854 -1.06352 0
M  V30 6689 O 628.384 -1.49394 -1.00406 0
M  V30 6690 H 624.759 -0.733088 -0.16759 0
M  V30 6691 H 626.73 -2.97765 0.194579 0
M  V30 6692 C 625.479 -3.09881 -1.577 0
M  V30 6693 H 624.802 -3.83701 -1.12309 0
M  V30 6694 H 626.242 -3.6567 -2.14619 0
M  V30 6695 C 624.701 -2.22159 -2.53272 0
M  V30 6696 O 625.231 -1.84802 -3.56667 0
M  V30 6697 N 623.437 -1.8633 -2.23001 0
M  V30 6698 H 622.984 -2.16909 -1.38954 0
M  V30 6699 H 622.942 -1.27927 -2.87197 0
M  V30 6700 N 626.714 -0.118576 -1.57153 0
M  V30 6701 C 627.963 0.539339 -1.94355 0
M  V30 6702 C 628.276 1.67858 -1.00415 0
M  V30 6703 O 629.482 2.39922 -1.27081 0
M  V30 6704 C 627.938 1.01082 -3.45414 0
M  V30 6705 C 627.546 -0.0999402 -4.47889 0
M  V30 6706 C 629.29 1.64013 -3.91535 0
M  V30 6707 C 627.197 0.388212 -5.90124 0
M  V30 6708 H 626.127 0.205247 -0.725527 0
M  V30 6709 H 628.778 -0.19836 -1.82425 0
M  V30 6710 H 627.16 1.80292 -3.52577 0
M  V30 6711 H 628.334 -0.876189 -4.52393 0
M  V30 6712 H 626.649 -0.635885 -4.11516 0
M  V30 6713 H 629.246 2.01649 -4.95219 0
M  V30 6714 H 629.589 2.51836 -3.31488 0
M  V30 6715 H 630.122 0.913439 -3.87171 0
M  V30 6716 H 626.861 -0.453963 -6.53926 0
M  V30 6717 H 626.381 1.13095 -5.89041 0
M  V30 6718 H 628.06 0.849574 -6.41398 0
M  V30 6719 N 628.193 1.56834 0.155195 0
M  V30 6720 C 629.14 1.97646 1.19184 0
M  V30 6721 C 630.11 0.842788 1.4313 0
M  V30 6722 O 631.295 1.1042 1.55602 0
M  V30 6723 C 628.435 2.35527 2.52232 0
M  V30 6724 C 627.548 3.62147 2.35529 0
M  V30 6725 C 626.683 3.89167 3.61555 0
M  V30 6726 C 625.722 5.09084 3.39853 0
M  V30 6727 N 624.859 5.32156 4.5799 0
M  V30 6728 H 629.699 2.8601 0.836802 0
M  V30 6729 H 627.236 1.41507 0.401758 0
M  V30 6730 H 629.194 2.55516 3.29799 0
M  V30 6731 H 627.824 1.50253 2.85699 0
M  V30 6732 H 626.876 3.4998 1.49057 0
M  V30 6733 H 628.188 4.49871 2.15448 0
M  V30 6734 H 627.342 4.09611 4.47553 0
M  V30 6735 H 626.081 2.9985 3.84632 0
M  V30 6736 H 625.086 4.88522 2.52243 0
M  V30 6737 H 626.311 5.99947 3.18183 0
M  V30 6738 H 624.257 4.45791 4.81255 0
M  V30 6739 H 624.174 6.14133 4.40882 0
M  V30 6740 H 625.442 5.57091 5.45225 0
M  V30 6741 O 629.71 -0.29999 1.58689 0
M  V30 6742 H 630.401 -0.947015 1.68971 0
M  V30 END ATOM
M  V30 BEGIN BOND
M  V30 END BOND
M  V30 END CTAB
M  END
$$$$
