drugbank_target|P04278 Sex hormone-binding globulin (DB00179; DB00255; DB00367; DB00396; DB00421; DB00539; DB00655; DB00675; DB00882; DB00890; DB01094; DB01593; DB01645; DB03467; DB04216; DB04429; DB04468; DB04573; DB04824; DB09371; DB11221; DB11478; DB11619; DB11674; DB14487; DB14533; DB14548; DB14641)
 OpenBabel12092119373D

  0  0  0     0  0            999 V3000
M  V30 BEGIN CTAB
M  V30 COUNTS 6188 6268 0 0 0
M  V30 BEGIN ATOM
M  V30 1 H -0.908 1.98254 -0.117106 0
M  V30 2 N 0 1.576 0 0
M  V30 3 C 0.933 2.03868 1.02534 0
M  V30 4 C 1.911 0.928543 1.3348 0
M  V30 5 O 3.095 1.19667 1.45644 0
M  V30 6 C 0.222 2.43627 2.35294 0
M  V30 7 C -0.732 3.65373 2.2001 0
M  V30 8 S 0.101 5.13292 1.52614 0
M  V30 9 C 1.257 5.56322 2.86805 0
M  V30 10 H 1.49 2.90518 0.631377 0
M  V30 11 H -0.977 1.52953 0.210867 0
M  V30 12 H 0.981 2.67203 3.11629 0
M  V30 13 H -0.358 1.57376 2.7183 0
M  V30 14 H -1.165 3.90944 3.18086 0
M  V30 15 H -1.563 3.418 1.51819 0
M  V30 16 H 0.729 5.58782 3.83104 0
M  V30 17 H 1.672 6.56266 2.65933 0
M  V30 18 H 2.08 4.83886 2.90714 0
M  V30 19 N 1.4781 -0.272755 1.55222 0
M  V30 20 C 2.3881 -1.35918 1.91216 0
M  V30 21 C 3.4041 -1.54026 0.809436 0
M  V30 22 O 4.5801 -1.68148 1.10852 0
M  V30 23 C 1.6451 -2.69834 2.17693 0
M  V30 24 C 0.7061 -2.6047 3.41253 0
M  V30 25 C -0.0609 -3.88 3.66458 0
M  V30 26 O 0.1621 -4.88693 2.94169 0
M  V30 27 O -0.9039 -3.88189 4.59992 0
M  V30 28 H 2.9221 -1.0839 2.83699 0
M  V30 29 H 0.5071 -0.471301 1.41771 0
M  V30 30 H 2.3891 -3.49017 2.36147 0
M  V30 31 H 1.0641 -2.97148 1.28392 0
M  V30 32 H -0.0289 -1.79663 3.28134 0
M  V30 33 H 1.3041 -2.38106 4.30774 0
M  V30 34 N 2.9562 -1.48159 -0.537278 0
M  V30 35 C 4.1812 -1.59707 -1.32319 0
M  V30 36 C 4.6062 -0.254859 -1.86365 0
M  V30 37 O 3.9642 0.772378 -1.64024 0
M  V30 38 C 4.0122 -2.6412 -2.45505 0
M  V30 39 O 3.1162 -2.20774 -3.48328 0
M  V30 40 H 2.4572 -0.535791 -0.392204 0
M  V30 41 H 4.9872 -1.94092 -0.647268 0
M  V30 42 H 4.9972 -2.85166 -2.91795 0
M  V30 43 H 3.6722 -3.61567 -2.05528 0
M  V30 44 H 2.2492 -2.09911 -3.08207 0
M  V30 45 N 4.4343 0.785586 -1.36625 0
M  V30 46 C 5.8503 1.08419 -1.17122 0
M  V30 47 C 6.0503 2.015 0.00208491 0
M  V30 48 O 5.1063 2.43551 0.666278 0
M  V30 49 C 6.4193 1.69498 -2.48377 0
M  V30 50 C 7.9673 1.81821 -2.54775 0
M  V30 51 C 8.4423 2.46315 -3.86126 0
M  V30 52 N 9.9333 2.53779 -3.87492 0
M  V30 53 C 10.6683 3.045 -4.85868 0
M  V30 54 N 10.1643 3.55499 -5.94637 0
M  V30 55 N 11.9573 3.03247 -4.73284 0
M  V30 56 H 4.1083 0.167264 -2.1174 0
M  V30 57 H 6.3713 0.13682 -0.938075 0
M  V30 58 H 6.0773 1.08571 -3.34522 0
M  V30 59 H 5.9513 2.6896 -2.64462 0
M  V30 60 H 8.3383 2.41884 -1.69045 0
M  V30 61 H 8.4193 0.811532 -2.42586 0
M  V30 62 H 8.0633 1.86895 -4.72263 0
M  V30 63 H 7.9933 3.47561 -3.95612 0
M  V30 64 H 10.4843 2.17672 -3.08913 0
M  V30 65 H 10.7973 3.92562 -6.65669 0
M  V30 66 H 9.1423 3.5364 -5.98301 0
M  V30 67 H 12.3333 2.62696 -3.87438 0
M  V30 68 H 12.5063 3.42467 -5.50109 0
M  V30 69 N 5.9124 1.20967 1.01018 0
M  V30 70 C 7.1604 1.02172 1.74371 0
M  V30 71 C 7.4814 -0.446414 1.89821 0
M  V30 72 O 6.7514 -1.32234 1.44537 0
M  V30 73 H 5.3314 0.375066 0.646014 0
M  V30 74 H 7.9934 1.52187 1.21758 0
M  V30 75 H 7.0894 1.48538 2.74487 0
M  V30 76 N 7.3905 -1.2043 1.01659 0
M  V30 77 C 8.8015 -1.71517 0.737482 0
M  V30 78 C 9.1525 -1.81547 -0.743973 0
M  V30 79 O 8.2775 -1.47803 -1.58061 0
M  V30 80 C 8.8725 -3.11515 1.33206 0
M  V30 81 C 7.4315 -3.59912 1.10183 0
M  V30 82 C 6.5785 -2.37116 1.43776 0
M  V30 83 H 9.5295 -1.05444 1.18606 0
M  V30 84 H 9.5505 -3.73575 0.722636 0
M  V30 85 H 9.0625 -3.04182 2.41028 0
M  V30 86 H 7.1635 -3.72577 0.0412756 0
M  V30 87 H 7.2765 -4.44731 1.78188 0
M  V30 88 H 5.6405 -2.39857 0.856778 0
M  V30 89 H 6.4235 -2.32424 2.52654 0
M  V30 90 N 8.8686 -0.792821 -1.36206 0
M  V30 91 C 9.7986 -0.207853 -2.32573 0
M  V30 92 C 10.7796 0.659055 -1.56813 0
M  V30 93 O 11.9646 0.592176 -1.84951 0
M  V30 94 C 9.0946 0.655449 -3.41059 0
M  V30 95 C 8.0486 -0.111842 -4.27854 0
M  V30 96 C 7.3746 0.872274 -5.27537 0
M  V30 97 C 8.6746 -1.30299 -5.05786 0
M  V30 98 H 10.3686 -1.01294 -2.81744 0
M  V30 99 H 7.9146 -0.48854 -1.3546 0
M  V30 100 H 9.8676 1.07464 -4.07467 0
M  V30 101 H 8.5916 1.49328 -2.90463 0
M  V30 102 H 7.2506 -0.512053 -3.63006 0
M  V30 103 H 6.8986 1.70523 -4.73214 0
M  V30 104 H 6.5986 0.363291 -5.86476 0
M  V30 105 H 8.1226 1.28996 -5.96818 0
M  V30 106 H 9.5366 -0.959379 -5.65216 0
M  V30 107 H 7.9336 -1.7455 -5.74154 0
M  V30 108 H 9.0036 -2.09663 -4.37229 0
M  V30 109 N 10.3467 1.47872 -0.545128 0
M  V30 110 C 11.3097 2.28337 0.198717 0
M  V30 111 C 12.3097 1.36255 0.853888 0
M  V30 112 O 13.4997 1.59003 0.711606 0
M  V30 113 C 10.6317 3.15585 1.28915 0
M  V30 114 H 11.8247 2.95567 -0.507941 0
M  V30 115 H 9.3777 1.53362 -0.301616 0
M  V30 116 H 10.1127 2.53019 2.02859 0
M  V30 117 H 9.8977 3.83337 0.824309 0
M  V30 118 H 11.3877 3.76243 1.81194 0
M  V30 119 N 11.8248 0.280983 1.55075 0
M  V30 120 C 13.0528 -0.337293 2.04132 0
M  V30 121 C 13.4678 -1.4903 1.15912 0
M  V30 122 O 12.8248 -1.81606 0.180459 0
M  V30 123 C 12.8758 -0.812706 3.52246 0
M  V30 124 O 12.5968 0.294387 4.3711 0
M  V30 125 C 14.0978 -1.4982 4.17216 0
M  V30 126 H 11.3178 -0.0761638 0.666663 0
M  V30 127 H 13.8618 0.414787 2.00249 0
M  V30 128 H 12.0168 -1.51486 3.56554 0
M  V30 129 H 12.4308 -0.0721325 5.2445 0
M  V30 130 H 13.9048 -1.7822 5.22438 0
M  V30 131 H 14.3818 -2.43168 3.65741 0
M  V30 132 H 14.9878 -0.839742 4.16927 0
M  V30 133 N 13.3029 -1.57598 0.00835791 0
M  V30 134 C 14.5279 -1.95617 -0.689103 0
M  V30 135 C 14.9529 -0.883753 -1.66046 0
M  V30 136 O 14.3109 0.157352 -1.80616 0
M  V30 137 C 14.3589 -3.32736 -1.38994 0
M  V30 138 O 13.4629 -3.27631 -2.50463 0
M  V30 139 H 12.8039 -0.638379 -0.182668 0
M  V30 140 H 15.3339 -2.045 0.064036 0
M  V30 141 H 15.3439 -3.68494 -1.75147 0
M  V30 142 H 14.0189 -4.1034 -0.677778 0
M  V30 143 H 12.5959 -3.03561 -2.16576 0
M  V30 144 N 14.781 0.264519 -1.55364 0
M  V30 145 C 16.197 0.61215 -1.47394 0
M  V30 146 C 16.397 1.89134 -0.695018 0
M  V30 147 O 15.453 2.51563 -0.217275 0
M  V30 148 C 16.766 0.731235 -2.91674 0
M  V30 149 C 18.314 0.82473 -3.01939 0
M  V30 150 C 18.789 0.975522 -4.4749 0
M  V30 151 N 20.28 1.04083 -4.51354 0
M  V30 152 C 21.015 1.17646 -5.61201 0
M  V30 153 N 20.511 1.27874 -6.80896 0
M  V30 154 N 22.304 1.20823 -5.48961 0
M  V30 155 H 14.455 -0.575456 -2.04456 0
M  V30 156 H 16.718 -0.196099 -0.927496 0
M  V30 157 H 16.424 -0.138392 -3.51428 0
M  V30 158 H 16.298 1.60883 -3.41169 0
M  V30 159 H 18.685 1.68482 -2.42276 0
M  V30 160 H 18.766 -0.0776479 -2.55682 0
M  V30 161 H 18.41 0.120058 -5.07758 0
M  V30 162 H 18.34 1.89268 -4.91412 0
M  V30 163 H 20.831 0.973846 -3.65136 0
M  V30 164 H 21.144 1.38081 -7.60364 0
M  V30 165 H 19.489 1.24863 -6.83692 0
M  V30 166 H 22.68 1.12469 -4.54388 0
M  V30 167 H 22.853 1.31049 -6.3461 0
M  V30 168 N 16.2591 1.48442 0.529413 0
M  V30 169 C 17.1891 1.65902 1.64313 0
M  V30 170 C 18.1701 0.507897 1.6234 0
M  V30 171 O 19.3551 0.740503 1.79528 0
M  V30 172 C 16.4851 1.69911 3.02898 0
M  V30 173 C 15.4391 2.8453 3.19729 0
M  V30 174 C 14.7651 2.73629 4.59381 0
M  V30 175 C 16.0651 4.25821 3.02447 0
M  V30 176 H 17.7591 2.5914 1.49955 0
M  V30 177 H 15.3051 1.24709 0.719982 0
M  V30 178 H 17.2581 1.80715 3.80684 0
M  V30 179 H 15.9821 0.732524 3.18279 0
M  V30 180 H 14.6411 2.73283 2.44361 0
M  V30 181 H 14.2891 1.74938 4.71599 0
M  V30 182 H 13.9891 3.50541 4.71588 0
M  V30 183 H 15.5131 2.86401 5.39265 0
M  V30 184 H 16.9271 4.37898 3.70024 0
M  V30 185 H 15.3241 5.03735 3.26146 0
M  V30 186 H 16.3941 4.42244 1.98867 0
M  V30 187 N 17.7372 -0.778329 1.37039 0
M  V30 188 C 18.6672 -1.90546 1.34962 0
M  V30 189 C 19.6482 -1.68681 0.219274 0
M  V30 190 O 20.8332 -1.89634 0.418624 0
M  V30 191 C 17.9632 -3.27734 1.14925 0
M  V30 192 C 16.9172 -3.64147 2.24902 0
M  V30 193 C 16.2432 -4.99806 1.89996 0
M  V30 194 C 17.5432 -3.71579 3.67051 0
M  V30 195 H 19.2372 -1.92541 2.29277 0
M  V30 196 H 16.7832 -0.924948 1.10366 0
M  V30 197 H 18.7362 -4.06215 1.12104 0
M  V30 198 H 17.4602 -3.26154 0.170631 0
M  V30 199 H 16.1192 -2.8797 2.26868 0
M  V30 200 H 15.7672 -4.94759 0.906796 0
M  V30 201 H 15.4672 -5.25139 2.63634 0
M  V30 202 H 16.9912 -5.80694 1.88749 0
M  V30 203 H 18.4052 -4.40227 3.67251 0
M  V30 204 H 16.8022 -4.08405 4.39688 0
M  V30 205 H 17.8722 -2.72404 4.01154 0
M  V30 206 N 19.2153 -1.21501 -1.00376 0
M  V30 207 C 20.1453 -0.999478 -2.11028 0
M  V30 208 C 21.1263 0.0759671 -1.6993 0
M  V30 209 O 22.3113 -0.0841106 -1.94018 0
M  V30 210 C 19.4413 -0.564709 -3.42678 0
M  V30 211 C 18.3953 -1.58486 -3.97576 0
M  V30 212 C 17.7213 -1.00628 -5.25146 0
M  V30 213 C 19.0213 -2.97204 -4.29496 0
M  V30 214 H 20.7153 -1.92495 -2.29317 0
M  V30 215 H 18.2613 -0.92693 -1.102 0
M  V30 216 H 20.2143 -0.401091 -4.19487 0
M  V30 217 H 18.9383 0.396411 -3.24185 0
M  V30 218 H 17.5973 -1.73606 -3.22888 0
M  V30 219 H 17.2453 -0.0368439 -5.02987 0
M  V30 220 H 16.9453 -1.68771 -5.62841 0
M  V30 221 H 18.4693 -0.854015 -6.04598 0
M  V30 222 H 19.8833 -2.8552 -4.97143 0
M  V30 223 H 18.2803 -3.62372 -4.78338 0
M  V30 224 H 19.3503 -3.47956 -3.3772 0
M  V30 225 N 20.6934 1.19889 -1.02296 0
M  V30 226 C 21.6234 2.25141 -0.619174 0
M  V30 227 C 22.6044 1.66051 0.368915 0
M  V30 228 O 23.7894 1.92546 0.252941 0
M  V30 229 C 20.9194 3.4728 0.0368783 0
M  V30 230 C 19.8734 4.19005 -0.872865 0
M  V30 231 C 19.1994 5.34637 -0.0822402 0
M  V30 232 C 20.4994 4.74452 -2.18387 0
M  V30 233 H 22.1934 2.59171 -1.49903 0
M  V30 234 H 19.7394 1.24579 -0.722222 0
M  V30 235 H 21.6924 4.20098 0.330958 0
M  V30 236 H 20.4164 3.12433 0.95149 0
M  V30 237 H 19.0754 3.48061 -1.15105 0
M  V30 238 H 18.7234 4.96034 0.83422 0
M  V30 239 H 18.4234 5.83557 -0.688149 0
M  V30 240 H 19.9474 6.10255 0.205238 0
M  V30 241 H 21.3614 5.39055 -1.95172 0
M  V30 242 H 19.7584 5.33834 -2.74119 0
M  V30 243 H 20.8284 3.92844 -2.84257 0
M  V30 244 N 22.1715 0.800033 1.35784 0
M  V30 245 C 23.1015 0.220184 2.3246 0
M  V30 246 C 24.0825 -0.65073 1.57161 0
M  V30 247 O 25.2675 -0.582359 1.85263 0
M  V30 248 C 22.3975 -0.637353 3.41402 0
M  V30 249 C 21.3515 0.134531 4.27789 0
M  V30 250 C 20.6775 -0.844285 5.27992 0
M  V30 251 C 21.9775 1.32979 5.05088 0
M  V30 252 H 23.6715 1.02787 2.81203 0
M  V30 253 H 21.2175 0.495717 1.35199 0
M  V30 254 H 23.1705 -1.05302 4.08031 0
M  V30 255 H 21.8945 -1.47785 2.91251 0
M  V30 256 H 20.5535 0.531296 3.6273 0
M  V30 257 H 20.2015 -1.68011 4.74111 0
M  V30 258 H 19.9015 -0.332184 5.8666 0
M  V30 259 H 21.4255 -1.2583 5.97494 0
M  V30 260 H 22.8395 0.98934 5.64699 0
M  V30 261 H 21.2365 1.77593 5.7322 0
M  V30 262 H 22.3065 2.11978 4.36111 0
M  V30 263 N 23.6496 -1.47581 0.552962 0
M  V30 264 C 24.5796 -2.32762 -0.185451 0
M  V30 265 C 25.5606 -1.43527 -0.912905 0
M  V30 266 O 26.7456 -1.72388 -0.894201 0
M  V30 267 C 23.8756 -3.25219 -1.21859 0
M  V30 268 C 22.8296 -4.23661 -0.607864 0
M  V30 269 C 22.1556 -5.05413 -1.74533 0
M  V30 270 C 23.4556 -5.20481 0.435582 0
M  V30 271 H 25.1496 -2.94749 0.525684 0
M  V30 272 H 22.6956 -1.41738 0.254251 0
M  V30 273 H 24.6486 -3.8365 -1.7433 0
M  V30 274 H 23.3726 -2.61279 -1.95961 0
M  V30 275 H 22.0316 -3.66451 -0.104489 0
M  V30 276 H 21.6796 -4.3788 -2.47529 0
M  V30 277 H 21.3796 -5.72059 -1.34249 0
M  V30 278 H 22.9036 -5.66701 -2.27338 0
M  V30 279 H 24.3176 -5.733 -0.00290157 0
M  V30 280 H 22.7146 -5.95305 0.757067 0
M  V30 281 H 23.7846 -4.66217 1.33303 0
M  V30 282 N 25.1277 -0.289203 -1.54924 0
M  V30 283 C 26.0577 0.58549 -2.2604 0
M  V30 284 C 27.0387 1.14753 -1.25562 0
M  V30 285 O 28.2237 1.17906 -1.54311 0
M  V30 286 C 25.3537 1.76305 -2.99222 0
M  V30 287 C 24.3077 1.33191 -4.06748 0
M  V30 288 C 23.6337 2.5937 -4.6758 0
M  V30 289 C 24.9337 0.471775 -5.20165 0
M  V30 290 H 26.6277 -0.00763532 -2.99399 0
M  V30 291 H 24.1737 -0.00511229 -1.43999 0
M  V30 292 H 26.1267 2.38097 -3.47689 0
M  V30 293 H 24.8507 2.38223 -2.23422 0
M  V30 294 H 23.5097 0.737121 -3.59113 0
M  V30 295 H 23.1577 3.19576 -3.88433 0
M  V30 296 H 22.8577 2.31228 -5.40192 0
M  V30 297 H 24.3817 3.21985 -5.18804 0
M  V30 298 H 25.7957 0.995056 -5.64599 0
M  V30 299 H 24.1927 0.284639 -5.99425 0
M  V30 300 H 25.2627 -0.506041 -4.82252 0
M  V30 301 N 26.6058 1.57591 -0.0167156 0
M  V30 302 C 27.5358 2.12496 0.967858 0
M  V30 303 C 28.5168 1.03807 1.34752 0
M  V30 304 O 29.7018 1.31577 1.42833 0
M  V30 305 C 26.8318 2.64194 2.25431 0
M  V30 306 C 25.7858 3.77559 2.01576 0
M  V30 307 C 25.1118 4.15636 3.36379 0
M  V30 308 C 26.4118 5.04151 1.36489 0
M  V30 309 H 28.1058 2.95013 0.510643 0
M  V30 310 H 25.6518 1.41915 0.244181 0
M  V30 311 H 27.6048 3.01236 2.94678 0
M  V30 312 H 26.3288 1.78821 2.73296 0
M  V30 313 H 24.9878 3.40937 1.34751 0
M  V30 314 H 24.6358 3.27263 3.81979 0
M  V30 315 H 24.3358 4.92022 3.21229 0
M  V30 316 H 25.8598 4.5525 4.06915 0
M  V30 317 H 27.2738 5.38857 1.95718 0
M  V30 318 H 25.6708 5.85453 1.31776 0
M  V30 319 H 26.7408 4.83733 0.336219 0
M  V30 320 N 28.0839 -0.256276 1.55502 0
M  V30 321 C 29.0139 -1.32102 1.92539 0
M  V30 322 C 29.9949 -1.50684 0.789194 0
M  V30 323 O 31.1799 -1.63449 1.04872 0
M  V30 324 C 28.3099 -2.67752 2.21192 0
M  V30 325 C 27.2639 -2.63878 3.36975 0
M  V30 326 C 26.5899 -4.03236 3.51147 0
M  V30 327 C 27.8899 -2.21682 4.72921 0
M  V30 328 H 29.5839 -1.01351 2.81724 0
M  V30 329 H 27.1299 -0.486105 1.35547 0
M  V30 330 H 29.0829 -3.42365 2.45691 0
M  V30 331 H 27.8069 -3.0012 1.28824 0
M  V30 332 H 26.4659 -1.91722 3.12471 0
M  V30 333 H 26.1139 -4.32854 2.56216 0
M  V30 334 H 25.8139 -4.01535 4.29003 0
M  V30 335 H 27.3379 -4.79563 3.77957 0
M  V30 336 H 28.7519 -2.86023 4.96854 0
M  V30 337 H 27.1489 -2.3111 5.53812 0
M  V30 338 H 28.2189 -1.16833 4.70615 0
M  V30 339 N 29.562 -1.4872 -0.521534 0
M  V30 340 C 30.492 -1.66771 -1.63431 0
M  V30 341 C 31.473 -0.516499 -1.62069 0
M  V30 342 O 32.658 -0.750013 -1.79132 0
M  V30 343 C 29.788 -1.71515 -3.01993 0
M  V30 344 C 28.742 -2.86222 -3.18216 0
M  V30 345 C 28.068 -2.76061 -4.57924 0
M  V30 346 C 29.368 -4.27419 -3.00184 0
M  V30 347 H 31.062 -2.59932 -1.48579 0
M  V30 348 H 28.608 -1.25089 -0.713358 0
M  V30 349 H 30.561 -1.82731 -3.7972 0
M  V30 350 H 29.285 -0.749393 -3.17886 0
M  V30 351 H 27.944 -2.74575 -2.42908 0
M  V30 352 H 27.592 -1.77437 -4.70665 0
M  V30 353 H 27.292 -3.53037 -4.69722 0
M  V30 354 H 28.816 -2.89256 -5.37739 0
M  V30 355 H 30.23 -4.39855 -3.67697 0
M  V30 356 H 28.627 -5.05458 -3.2347 0
M  V30 357 H 29.697 -4.43293 -1.96518 0
M  V30 358 N 31.0401 0.771051 -1.3745 0
M  V30 359 C 32.4561 1.07171 -1.18265 0
M  V30 360 C 32.6561 2.01491 -0.019287 0
M  V30 361 O 31.7121 2.44244 0.640408 0
M  V30 362 C 33.0251 1.66854 -2.50161 0
M  V30 363 C 34.5731 1.79109 -2.56689 0
M  V30 364 C 35.0481 2.42205 -3.88717 0
M  V30 365 N 36.5391 2.49655 -3.90162 0
M  V30 366 C 37.2741 2.9933 -4.8907 0
M  V30 367 N 36.7701 3.49172 -5.98374 0
M  V30 368 N 38.5631 2.9821 -4.76474 0
M  V30 369 H 30.7141 0.144796 -2.11906 0
M  V30 370 H 32.9771 0.126863 -0.939473 0
M  V30 371 H 32.6831 1.05017 -3.35655 0
M  V30 372 H 32.5571 2.6614 -2.673 0
M  V30 373 H 34.9441 2.40077 -1.71601 0
M  V30 374 H 35.0251 0.785757 -2.43433 0
M  V30 375 H 34.6691 1.81875 -4.74219 0
M  V30 376 H 34.5991 3.43345 -3.99276 0
M  V30 377 H 37.0901 2.14383 -3.11205 0
M  V30 378 H 37.4031 3.8548 -6.69795 0
M  V30 379 H 35.7481 3.47275 -6.02018 0
M  V30 380 H 38.9391 2.58572 -3.90203 0
M  V30 381 H 39.1121 3.36613 -5.53711 0
M  V30 382 N 32.5182 1.22032 0.997298 0
M  V30 383 C 33.4682 0.953838 2.07089 0
M  V30 384 C 34.4522 -0.0938669 1.60626 0
M  V30 385 O 35.6442 0.116078 1.76619 0
M  V30 386 C 32.7732 0.528726 3.39204 0
M  V30 387 C 31.8592 1.61092 3.92314 0
M  V30 388 N 32.2502 2.83768 4.18699 0
M  V30 389 C 30.5482 1.48158 4.20672 0
M  V30 390 C 31.2492 3.53715 4.61802 0
M  V30 391 N 30.2252 2.81174 4.65233 0
M  V30 392 H 34.0272 1.88577 2.25424 0
M  V30 393 H 31.5412 1.11719 1.17867 0
M  V30 394 H 33.5382 0.31915 4.15677 0
M  V30 395 H 32.1982 -0.39635 3.22272 0
M  V30 396 H 33.2092 3.20238 4.07023 0
M  V30 397 H 29.8862 0.622369 4.12835 0
M  V30 398 H 31.2762 4.58793 4.90875 0
M  V30 399 N 33.9963 -1.19345 1.0293 0
M  V30 400 C 35.2243 -1.92997 0.745644 0
M  V30 401 C 35.6393 -1.75519 -0.695589 0
M  V30 402 O 34.9963 -1.07737 -1.47306 0
M  V30 403 C 35.0473 -3.44741 1.08792 0
M  V30 404 O 34.7683 -3.61658 2.47256 0
M  V30 405 C 36.2693 -4.35515 0.827129 0
M  V30 406 H 33.4893 -0.613042 0.272801 0
M  V30 407 H 36.0333 -1.51473 1.3739 0
M  V30 408 H 34.1883 -3.84097 0.504832 0
M  V30 409 H 34.6023 -4.55514 2.60015 0
M  V30 410 H 36.0763 -5.40589 1.11658 0
M  V30 411 H 36.5533 -4.38552 -0.238436 0
M  V30 412 H 37.1593 -4.01841 1.39297 0
M  V30 413 N 35.4744 -0.807222 -1.35358 0
M  V30 414 C 36.8904 -0.491038 -1.51858 0
M  V30 415 C 37.0904 0.987648 -1.75635 0
M  V30 416 O 36.1464 1.77265 -1.79815 0
M  V30 417 C 37.4594 -1.33695 -2.69344 0
M  V30 418 C 39.0074 -1.33246 -2.83222 0
M  V30 419 C 39.4824 -2.1625 -4.03733 0
M  V30 420 N 40.9734 -2.1379 -4.10911 0
M  V30 421 C 41.7084 -2.74772 -5.03277 0
M  V30 422 N 41.2044 -3.44684 -6.0097 0
M  V30 423 N 42.9974 -2.6441 -4.96028 0
M  V30 424 H 35.1484 -1.76485 -1.18181 0
M  V30 425 H 37.4114 -0.751199 -0.578276 0
M  V30 426 H 37.1174 -2.38634 -2.58354 0
M  V30 427 H 36.9914 -0.990618 -3.6396 0
M  V30 428 H 39.3784 -0.290911 -2.93663 0
M  V30 429 H 39.4594 -1.71866 -1.89461 0
M  V30 430 H 39.1034 -3.20445 -3.94052 0
M  V30 431 H 39.0334 -1.74989 -4.96675 0
M  V30 432 H 41.5244 -1.62923 -3.40976 0
M  V30 433 H 41.8374 -3.88501 -6.68047 0
M  V30 434 H 40.1824 -3.48788 -6.01142 0
M  V30 435 H 43.3734 -2.0938 -4.18662 0
M  V30 436 H 43.5464 -3.12225 -5.6782 0
M  V30 437 N 36.9525 1.47285 -0.560781 0
M  V30 438 C 37.8845 2.28118 0.222438 0
M  V30 439 C 38.8975 1.37219 0.876056 0
M  V30 440 O 40.0865 1.62011 0.749307 0
M  V30 441 C 37.1865 3.1159 1.33285 0
M  V30 442 C 36.3595 4.30473 0.77534 0
M  V30 443 C 35.4185 4.95513 1.77069 0
M  V30 444 O 34.4445 5.53792 1.31539 0
M  V30 445 N 35.6465 4.90531 3.10418 0
M  V30 446 H 38.4115 2.95976 -0.470958 0
M  V30 447 H 35.9725 1.56955 -0.39709 0
M  V30 448 H 37.9645 3.51967 1.99752 0
M  V30 449 H 36.5345 2.45951 1.92943 0
M  V30 450 H 35.7545 3.94144 -0.0662113 0
M  V30 451 H 37.0425 5.07362 0.382272 0
M  V30 452 H 36.4405 4.44389 3.5005 0
M  V30 453 H 34.9975 5.34917 3.72434 0
M  V30 454 N 38.4306 0.297415 1.54768 0
M  V30 455 C 39.6786 -0.312295 1.99673 0
M  V30 456 C 39.9996 -1.54686 1.18732 0
M  V30 457 O 39.2696 -1.93854 0.282382 0
M  V30 458 H 37.8496 -0.118381 0.73756 0
M  V30 459 H 40.5116 0.407915 1.90583 0
M  V30 460 H 39.6076 -0.586813 3.06534 0
M  V30 461 N 39.9087 -1.5758 0.0250728 0
M  V30 462 C 41.1547 -1.92746 -0.649648 0
M  V30 463 C 41.5097 -0.901588 -1.69968 0
M  V30 464 O 40.8027 0.0829251 -1.9142 0
M  V30 465 C 40.9967 -3.32421 -1.31268 0
M  V30 466 C 40.8257 -4.48499 -0.328394 0
M  V30 467 C 39.5957 -5.05251 0.070284 0
M  V30 468 C 41.7937 -5.12618 0.415665 0
M  V30 469 N 39.7757 -6.04851 1.05016 0
M  V30 470 C 41.1467 -6.0728 1.24943 0
M  V30 471 C 43.2017 -4.95612 0.476803 0
M  V30 472 C 41.9047 -6.86766 2.1388 0
M  V30 473 C 43.9307 -5.75703 1.3535 0
M  V30 474 C 43.2927 -6.69978 2.17504 0
M  V30 475 H 39.3917 -0.753231 -0.210159 0
M  V30 476 H 41.9757 -1.94486 0.0912999 0
M  V30 477 H 40.1467 -3.31508 -2.02379 0
M  V30 478 H 41.8787 -3.54946 -1.94411 0
M  V30 479 H 38.6337 -4.72628 -0.303323 0
M  V30 480 H 39.0577 -6.5934 1.53622 0
M  V30 481 H 43.6997 -4.22554 -0.144105 0
M  V30 482 H 41.4177 -7.59132 2.77027 0
M  V30 483 H 45.0037 -5.64579 1.40504 0
M  V30 484 H 43.8837 -7.30873 2.84244 0
M  V30 485 N 41.3868 0.248026 -1.55636 0
M  V30 486 C 42.3498 1.29044 -1.89421 0
M  V30 487 C 43.3498 1.41134 -0.770581 0
M  V30 488 O 44.5398 1.39854 -1.03858 0
M  V30 489 C 41.6718 2.66831 -2.12165 0
M  V30 490 H 42.8648 1.00305 -2.82629 0
M  V30 491 H 40.4178 0.487265 -1.48511 0
M  V30 492 H 41.1528 3.00711 -1.21422 0
M  V30 493 H 40.9378 2.59438 -2.93997 0
M  V30 494 H 42.4278 3.42103 -2.3949 0
M  V30 495 N 42.8649 1.48995 0.513639 0
M  V30 496 C 43.7949 1.67636 1.62544 0
M  V30 497 C 44.7759 0.525087 1.61793 0
M  V30 498 O 45.9609 0.759502 1.78732 0
M  V30 499 C 43.0909 1.73114 3.01079 0
M  V30 500 C 42.0449 2.87905 3.16693 0
M  V30 501 C 41.3709 2.78486 4.56453 0
M  V30 502 C 42.6709 4.29005 2.97913 0
M  V30 503 H 44.3649 2.60716 1.47198 0
M  V30 504 H 41.9109 1.25465 0.706714 0
M  V30 505 H 43.8639 1.84742 3.78746 0
M  V30 506 H 42.5879 0.766241 3.17484 0
M  V30 507 H 41.2469 2.75859 2.41448 0
M  V30 508 H 40.8949 1.7993 4.69717 0
M  V30 509 H 40.5949 3.55523 4.67843 0
M  V30 510 H 42.1189 2.92104 5.36197 0
M  V30 511 H 43.5329 4.41798 3.65359 0
M  V30 512 H 41.9299 5.07166 3.20785 0
M  V30 513 H 42.9999 4.44329 1.94165 0
M  V30 514 N 44.343 -0.763751 1.37857 0
M  V30 515 C 45.759 -1.06542 1.18832 0
M  V30 516 C 45.959 -2.01478 0.0299722 0
M  V30 517 O 45.015 -2.4458 -0.627447 0
M  V30 518 C 46.328 -1.65525 2.51042 0
M  V30 519 C 47.876 -1.77745 2.57635 0
M  V30 520 C 48.351 -2.4014 3.89996 0
M  V30 521 N 49.842 -2.47582 3.91481 0
M  V30 522 C 50.577 -2.96732 4.9065 0
M  V30 523 N 50.073 -3.45993 6.00217 0
M  V30 524 N 51.866 -2.95679 4.78048 0
M  V30 525 H 44.017 -0.133556 2.1198 0
M  V30 526 H 46.28 -0.121879 0.940133 0
M  V30 527 H 45.986 -1.03236 3.36207 0
M  V30 528 H 45.86 -2.64719 2.68707 0
M  V30 529 H 48.247 -2.39164 1.72872 0
M  V30 530 H 48.328 -0.772836 2.43846 0
M  V30 531 H 47.972 -1.79358 4.75177 0
M  V30 532 H 47.902 -3.41223 4.01092 0
M  V30 533 H 50.393 -2.1273 3.12337 0
M  V30 534 H 50.706 -3.81922 6.7183 0
M  V30 535 H 49.051 -3.44077 6.03851 0
M  V30 536 H 52.242 -2.56499 3.91568 0
M  V30 537 H 52.415 -3.33672 5.55488 0
M  V30 538 N 45.8211 -1.22559 -0.990812 0
M  V30 539 C 47.2321 -1.04791 -1.54518 0
M  V30 540 C 47.5831 0.387998 -1.92325 0
M  V30 541 O 46.7081 1.27328 -1.74976 0
M  V30 542 C 47.3031 -1.896 -2.80779 0
M  V30 543 C 45.8621 -1.76124 -3.32652 0
M  V30 544 C 45.0091 -1.8594 -2.05722 0
M  V30 545 H 47.9601 -1.36374 -0.811662 0
M  V30 546 H 47.9811 -1.41464 -3.53225 0
M  V30 547 H 47.4931 -2.94101 -2.53231 0
M  V30 548 H 45.5941 -0.743643 -3.65104 0
M  V30 549 H 45.7071 -2.58913 -4.03114 0
M  V30 550 H 44.0711 -1.29403 -2.19379 0
M  V30 551 H 44.8541 -2.91976 -1.80568 0
M  V30 552 N 47.2992 1.18797 -1.03562 0
M  V30 553 C 48.5452 1.8893 -0.737113 0
M  V30 554 C 48.8782 1.79837 0.732956 0
M  V30 555 O 48.1532 1.19525 1.5344 0
M  V30 556 C 48.4362 3.39607 -1.19745 0
M  V30 557 C 48.2892 3.57537 -2.72924 0
M  V30 558 C 49.6082 4.33069 -0.783526 0
M  V30 559 H 46.7272 0.686057 -0.269249 0
M  V30 560 H 49.3692 1.39797 -1.28673 0
M  V30 561 H 47.5192 3.81583 -0.729855 0
M  V30 562 H 49.1912 3.24688 -3.27682 0
M  V30 563 H 47.4342 3.00363 -3.12993 0
M  V30 564 H 48.1052 4.63238 -3.00191 0
M  V30 565 H 50.5812 3.98846 -1.18581 0
M  V30 566 H 49.4572 5.3707 -1.13343 0
M  V30 567 H 49.7182 4.40986 0.313681 0
M  V30 568 N 48.7773 0.814389 1.34928 0
M  V30 569 C 49.7073 0.244827 2.32213 0
M  V30 570 C 50.6883 -0.634024 1.57842 0
M  V30 571 O 51.8733 -0.562676 1.8587 0
M  V30 572 C 49.0033 -0.601106 3.42058 0
M  V30 573 C 47.9573 0.179896 4.27622 0
M  V30 574 C 47.2833 -0.788237 5.28858 0
M  V30 575 C 48.5833 1.38329 5.03649 0
M  V30 576 H 50.2773 1.05763 2.80097 0
M  V30 577 H 47.8233 0.510029 1.34665 0
M  V30 578 H 49.7763 -1.00968 4.09125 0
M  V30 579 H 48.5003 -1.44688 2.92802 0
M  V30 580 H 47.1593 0.569739 3.62146 0
M  V30 581 H 46.8073 -1.62973 4.75866 0
M  V30 582 H 46.5073 -0.269942 5.8698 0
M  V30 583 H 48.0313 -1.19485 5.98795 0
M  V30 584 H 49.4453 1.04918 5.63618 0
M  V30 585 H 47.8423 1.83662 5.71304 0
M  V30 586 H 48.9123 2.16592 4.33839 0
M  V30 587 N 50.2554 -1.46986 0.568584 0
M  V30 588 C 51.6664 -1.86188 0.138219 0
M  V30 589 C 52.0174 -1.47388 -1.29504 0
M  V30 590 O 51.1424 -0.88219 -1.97602 0
M  V30 591 C 51.7374 -3.3792 0.244065 0
M  V30 592 C 50.2964 -3.76171 -0.131335 0
M  V30 593 C 49.4434 -2.71027 0.586465 0
M  V30 594 H 52.3944 -1.38342 0.777645 0
M  V30 595 H 52.4154 -3.76729 -0.534351 0
M  V30 596 H 51.9274 -3.66128 1.28731 0
M  V30 597 H 50.0284 -3.5358 -1.17526 0
M  V30 598 H 50.1414 -4.78523 0.235146 0
M  V30 599 H 48.5054 -2.54684 0.0282722 0
M  V30 600 H 49.2884 -3.02077 1.63109 0
M  V30 601 N 51.7335 -0.305618 -1.54608 0
M  V30 602 C 52.9615 0.304775 -2.04643 0
M  V30 603 C 53.3765 1.47167 -1.18268 0
M  V30 604 O 52.7335 1.81296 -0.209328 0
M  V30 605 C 52.7845 0.756564 -3.53495 0
M  V30 606 O 52.5055 -0.36389 -4.36586 0
M  V30 607 C 54.0065 1.43163 -4.19546 0
M  V30 608 H 51.2265 0.0655481 -0.667791 0
M  V30 609 H 53.7705 -0.446592 -1.99564 0
M  V30 610 H 51.9255 1.45794 -3.58919 0
M  V30 611 H 52.3395 -0.0113121 -5.24499 0
M  V30 612 H 53.8135 1.69886 -5.25207 0
M  V30 613 H 54.2905 2.37318 -3.69563 0
M  V30 614 H 54.8965 0.773307 -4.18211 0
M  V30 615 N 53.2116 1.57565 -0.0334293 0
M  V30 616 C 54.1436 2.0739 0.975811 0
M  V30 617 C 55.1566 0.998166 1.2861 0
M  V30 618 O 56.3456 1.27426 1.25 0
M  V30 619 C 53.4456 2.4871 2.30209 0
M  V30 620 C 52.6186 3.79413 2.17634 0
M  V30 621 C 51.6776 4.07237 3.33233 0
M  V30 622 O 50.7036 4.77425 3.09927 0
M  V30 623 N 51.9056 3.5775 4.5716 0
M  V30 624 H 54.6706 2.94598 0.55066 0
M  V30 625 H 52.2316 1.61173 0.15323 0
M  V30 626 H 54.2236 2.64413 3.06378 0
M  V30 627 H 52.7936 1.66845 2.64351 0
M  V30 628 H 52.0136 3.73465 1.26165 0
M  V30 629 H 53.3016 4.65038 2.0644 0
M  V30 630 H 52.6996 3.00976 4.78989 0
M  V30 631 H 51.2566 3.78724 5.30482 0
M  V30 632 N 54.6897 -0.239769 1.55765 0
M  V30 633 C 55.9147 -0.988373 1.82335 0
M  V30 634 C 56.3397 -1.77886 0.611421 0
M  V30 635 O 55.6977 -1.75889 -0.439639 0
M  V30 636 C 55.7457 -1.89627 3.06715 0
M  V30 637 O 54.8497 -2.98904 2.84131 0
M  V30 638 H 54.1907 -0.280858 0.601677 0
M  V30 639 H 56.7207 -0.258597 2.02959 0
M  V30 640 H 56.7307 -2.30957 3.36338 0
M  V30 641 H 55.4057 -1.31511 3.9456 0
M  V30 642 H 53.9827 -2.61651 2.65694 0
M  V30 643 N 56.1678 -1.49265 -0.50573 0
M  V30 644 C 57.1308 -1.65075 -1.59006 0
M  V30 645 C 58.1308 -0.522768 -1.52065 0
M  V30 646 O 59.3208 -0.789117 -1.55302 0
M  V30 647 C 56.4528 -1.64369 -2.98656 0
M  V30 648 H 57.6458 -2.61784 -1.46319 0
M  V30 649 H 55.1988 -1.38226 -0.729616 0
M  V30 650 H 55.9338 -0.692272 -3.16825 0
M  V30 651 H 55.7188 -2.46282 -3.05103 0
M  V30 652 H 57.2088 -1.78674 -3.77446 0
M  V30 653 N 57.6459 0.756429 -1.3826 0
M  V30 654 C 58.5959 1.86069 -1.31766 0
M  V30 655 C 59.5799 1.59621 -0.202483 0
M  V30 656 O 60.7719 1.7149 -0.438211 0
M  V30 657 C 57.9009 3.23742 -1.1422 0
M  V30 658 C 56.9869 3.56091 -2.30348 0
M  V30 659 N 57.3779 3.59517 -3.55783 0
M  V30 660 C 55.6759 3.86341 -2.22838 0
M  V30 661 C 56.3769 3.89052 -4.32451 0
M  V30 662 N 55.3529 4.05736 -3.61772 0
M  V30 663 H 59.1549 1.86992 -2.26741 0
M  V30 664 H 56.6689 0.953643 -1.31451 0
M  V30 665 H 58.6659 4.02761 -1.07652 0
M  V30 666 H 57.3259 3.24073 -0.201763 0
M  V30 667 H 58.3369 3.41347 -3.89491 0
M  V30 668 H 55.0139 3.94404 -1.36937 0
M  V30 669 H 56.4039 3.98349 -5.4108 0
M  V30 670 N 59.124 1.23083 0.984299 0
M  V30 671 C 60.401 0.9689 1.69917 0
M  V30 672 C 60.781 -0.513604 2.04757 0
M  V30 673 O 60.129 -1.48383 1.73767 0
M  V30 674 C 60.339 1.87518 2.94343 0
M  V30 675 C 61.687 2.13636 3.6694 0
M  V30 676 O 62.711 1.85036 3.04368 0
M  V30 677 O 61.57 2.62119 4.79537 0
M  V30 678 H 58.664 0.365095 0.742048 0
M  V30 679 H 61.21 1.34107 1.03987 0
M  V30 680 H 59.982 2.87756 2.65164 0
M  V30 681 H 59.605 1.50514 3.6801 0
M  V30 682 N 60.6021 -1.18246 1.0419 0
M  V30 683 C 62.0131 -1.69914 0.773698 0
M  V30 684 C 62.3641 -1.83085 -0.705297 0
M  V30 685 O 61.4891 -1.51123 -1.5489 0
M  V30 686 C 62.0841 -3.08619 1.39784 0
M  V30 687 C 60.6431 -3.57494 1.17792 0
M  V30 688 C 59.7901 -2.34013 1.48773 0
M  V30 689 H 62.7411 -1.02904 1.20816 0
M  V30 690 H 62.7621 -3.71958 0.801714 0
M  V30 691 H 62.2741 -2.99001 2.47426 0
M  V30 692 H 60.3751 -3.72406 0.120295 0
M  V30 693 H 60.4881 -4.40852 1.87581 0
M  V30 694 H 58.8521 -2.37986 0.907463 0
M  V30 695 H 59.6351 -2.27013 2.57527 0
M  V30 696 N 62.0802 -0.821533 -1.34494 0
M  V30 697 C 63.4912 -0.467956 -1.8074 0
M  V30 698 C 63.8422 1.01151 -1.68116 0
M  V30 699 O 62.9672 1.78707 -1.22036 0
M  V30 700 C 63.5622 -0.842627 -3.28154 0
M  V30 701 C 62.1212 -0.541439 -3.72485 0
M  V30 702 C 61.2682 -1.06028 -2.56229 0
M  V30 703 H 64.2192 -1.01183 -1.22261 0
M  V30 704 H 64.2402 -0.145876 -3.8022 0
M  V30 705 H 63.7522 -1.91945 -3.37311 0
M  V30 706 H 61.8532 0.526034 -3.68868 0
M  V30 707 H 61.9662 -1.08453 -4.66663 0
M  V30 708 H 60.3302 -0.481892 -2.501 0
M  V30 709 H 61.1132 -2.14352 -2.68157 0
M  V30 710 N 63.5583 1.46682 -0.576371 0
M  V30 711 C 64.5213 2.28707 0.150239 0
M  V30 712 C 65.5213 1.38035 0.824794 0
M  V30 713 O 66.7113 1.60476 0.677719 0
M  V30 714 C 63.8433 3.18248 1.22192 0
M  V30 715 H 65.0363 2.94423 -0.570521 0
M  V30 716 H 62.5893 1.52688 -0.334078 0
M  V30 717 H 63.3243 2.57265 1.97447 0
M  V30 718 H 63.1093 3.85 0.742812 0
M  V30 719 H 64.5993 3.80001 1.73172 0
M  V30 720 N 65.0364 0.313813 1.54444 0
M  V30 721 C 66.2824 -0.292108 2.00685 0
M  V30 722 C 66.6154 -1.52548 1.20177 0
M  V30 723 O 65.8904 -1.92452 0.281531 0
M  V30 724 C 66.1734 -0.635968 3.5444 0
M  V30 725 C 66.0264 0.607437 4.4568 0
M  V30 726 C 67.3454 -1.45747 4.15266 0
M  V30 727 H 64.4644 -0.104697 0.729526 0
M  V30 728 H 67.1064 0.428457 1.85106 0
M  V30 729 H 65.2564 -1.24986 3.67846 0
M  V30 730 H 66.9284 1.24581 4.44159 0
M  V30 731 H 65.1714 1.23822 4.15753 0
M  V30 732 H 65.8424 0.322515 5.51057 0
M  V30 733 H 68.3184 -0.938645 4.05375 0
M  V30 734 H 67.1944 -1.66683 5.2298 0
M  V30 735 H 67.4554 -2.45063 3.67963 0
M  V30 736 N 66.5145 -1.57545 0.0417849 0
M  V30 737 C 67.4645 -2.07483 -0.945247 0
M  V30 738 C 68.4485 -0.977983 -1.27767 0
M  V30 739 O 69.6405 -1.24142 -1.26166 0
M  V30 740 C 66.7695 -2.61576 -2.22335 0
M  V30 741 C 65.8555 -3.78213 -1.91874 0
M  V30 742 N 66.2465 -4.88344 -1.31733 0
M  V30 743 C 64.5445 -3.8694 -2.21796 0
M  V30 744 C 65.2455 -5.69462 -1.1869 0
M  V30 745 N 64.2215 -5.16771 -1.68666 0
M  V30 746 H 68.0235 -2.90029 -0.475441 0
M  V30 747 H 65.5375 -1.61581 -0.162911 0
M  V30 748 H 67.5345 -2.95651 -2.93932 0
M  V30 749 H 66.1945 -1.80465 -2.69931 0
M  V30 750 H 67.2055 -5.08335 -0.990729 0
M  V30 751 H 63.8825 -3.16757 -2.71977 0
M  V30 752 H 65.2725 -6.68023 -0.720793 0
M  V30 753 N 67.9926 0.231505 -1.5589 0
M  V30 754 C 68.9226 1.29022 -1.94617 0
M  V30 755 C 69.9036 1.4941 -0.813067 0
M  V30 756 O 71.0886 1.6176 -1.07459 0
M  V30 757 C 68.2186 2.64199 -2.25424 0
M  V30 758 C 67.1726 2.58484 -3.41131 0
M  V30 759 C 66.4986 3.97599 -3.57518 0
M  V30 760 C 67.7986 2.1413 -4.76388 0
M  V30 761 H 69.4926 0.968563 -2.83301 0
M  V30 762 H 67.0386 0.464479 -1.36303 0
M  V30 763 H 68.9916 3.38413 -2.51107 0
M  V30 764 H 67.7156 2.98032 -1.33583 0
M  V30 765 H 66.3746 1.86727 -3.15481 0
M  V30 766 H 66.0226 4.28723 -2.6307 0
M  V30 767 H 65.7226 3.94659 -4.35337 0
M  V30 768 H 67.2466 4.7349 -3.85538 0
M  V30 769 H 68.6606 2.78083 -5.01341 0
M  V30 770 H 67.0576 2.2227 -5.57419 0
M  V30 771 H 68.1276 1.09331 -4.72414 0
M  V30 772 N 69.4707 1.49531 0.497807 0
M  V30 773 C 70.6957 1.63159 1.28039 0
M  V30 774 C 71.1207 0.30418 1.85624 0
M  V30 775 O 70.4787 -0.728618 1.66015 0
M  V30 776 C 70.5267 2.70537 2.38416 0
M  V30 777 O 69.6307 2.29931 3.42353 0
M  V30 778 H 68.9717 0.546001 0.377861 0
M  V30 779 H 71.5017 1.9574 0.59558 0
M  V30 780 H 71.5117 2.92802 2.84132 0
M  V30 781 H 70.1867 3.6689 1.95869 0
M  V30 782 H 68.7637 2.18009 3.02533 0
M  V30 783 N 70.9488 -0.749086 1.3866 0
M  V30 784 C 71.8968 -1.88428 1.36373 0
M  V30 785 C 72.8908 -1.67561 0.248929 0
M  V30 786 O 74.0968 -1.75074 0.41821 0
M  V30 787 H 70.4718 -0.620023 0.42553 0
M  V30 788 H 72.4428 -1.87473 2.32156 0
M  V30 789 C 71.1918 -3.25961 1.21014 0
M  V30 790 H 70.5148 -3.42607 2.06059 0
M  V30 791 H 71.9548 -4.05625 1.23469 0
M  V30 792 C 70.4138 -3.36799 -0.0825941 0
M  V30 793 O 70.9438 -3.87517 -1.05797 0
M  V30 794 N 69.1498 -2.90258 -0.140939 0
M  V30 795 H 68.6968 -2.49174 0.653477 0
M  V30 796 H 68.6548 -2.97889 -1.00545 0
M  V30 797 N 72.4269 -1.23603 -0.977757 0
M  V30 798 C 73.6749 -1.06759 -1.71601 0
M  V30 799 C 73.9959 0.395929 -1.90938 0
M  V30 800 O 73.2659 1.28356 -1.47992 0
M  V30 801 H 71.8459 -0.392062 -0.635843 0
M  V30 802 H 74.5079 -1.55362 -1.1768 0
M  V30 803 H 73.6039 -1.55763 -2.70452 0
M  V30 804 N 73.905 1.17692 -1.04816 0
M  V30 805 C 75.316 1.69501 -0.782698 0
M  V30 806 C 75.667 1.83456 0.695577 0
M  V30 807 O 74.792 1.51942 1.54086 0
M  V30 808 C 75.387 3.07874 -1.41419 0
M  V30 809 C 73.946 3.56864 -1.19686 0
M  V30 810 C 73.093 2.3322 -1.50012 0
M  V30 811 H 76.044 1.02262 -1.2136 0
M  V30 812 H 76.065 3.71528 -0.821428 0
M  V30 813 H 75.577 2.97685 -2.49009 0
M  V30 814 H 73.678 3.72337 -0.140043 0
M  V30 815 H 73.791 4.39851 -1.89916 0
M  V30 816 H 72.155 2.37501 -0.920071 0
M  V30 817 H 72.938 2.25644 -2.58727 0
M  V30 818 N 75.3831 0.828654 1.34056 0
M  V30 819 C 76.6311 0.41863 1.97717 0
M  V30 820 C 76.9521 -1.02314 1.66002 0
M  V30 821 O 76.2221 -1.71119 0.953683 0
M  V30 822 H 74.8021 0.151809 0.731412 0
M  V30 823 H 77.4641 1.05936 1.63596 0
M  V30 824 H 76.5601 0.542318 3.07352 0
M  V30 825 N 76.8612 -1.46375 0.584142 0
M  V30 826 C 77.7932 -2.28443 -0.186119 0
M  V30 827 C 78.8062 -1.38596 -0.854115 0
M  V30 828 O 79.9952 -1.63183 -0.723438 0
M  V30 829 C 77.0952 -3.13671 -1.28311 0
M  V30 830 C 76.2682 -4.31652 -0.706758 0
M  V30 831 C 75.3272 -4.98267 -1.69163 0
M  V30 832 O 74.3532 -5.55815 -1.22712 0
M  V30 833 N 75.5552 -4.95408 -3.02575 0
M  V30 834 H 78.3202 -2.9519 0.517986 0
M  V30 835 H 75.8812 -1.56303 0.42201 0
M  V30 836 H 77.8732 -3.55101 -1.94128 0
M  V30 837 H 76.4432 -2.48989 -1.89005 0
M  V30 838 H 75.6632 -3.93989 0.128908 0
M  V30 839 H 76.9512 -5.07906 -0.301506 0
M  V30 840 H 76.3492 -4.49902 -3.42936 0
M  V30 841 H 74.9062 -5.40774 -3.63877 0
M  V30 842 N 78.3393 -0.321999 -1.54275 0
M  V30 843 C 79.2493 0.553631 -2.27974 0
M  V30 844 C 80.2653 1.13054 -1.32268 0
M  V30 845 O 81.4413 1.15084 -1.6528 0
M  V30 846 C 78.5063 1.69927 -3.02201 0
M  V30 847 C 77.5673 1.15433 -4.1349 0
M  V30 848 C 76.8003 2.24537 -4.84168 0
M  V30 849 O 77.0233 3.44852 -4.5435 0
M  V30 850 O 75.9573 1.90044 -5.7111 0
M  V30 851 H 79.7833 -0.0448345 -3.03667 0
M  V30 852 H 77.3683 -0.0877418 -1.49142 0
M  V30 853 H 79.2503 2.3663 -3.48689 0
M  V30 854 H 77.9253 2.28395 -2.29385 0
M  V30 855 H 76.8323 0.452436 -3.71354 0
M  V30 856 H 78.1653 0.614805 -4.88345 0
M  V30 857 N 79.8174 1.5752 -0.0501392 0
M  V30 858 C 81.2284 1.80271 0.485705 0
M  V30 859 C 81.5794 0.96228 1.70981 0
M  V30 860 O 80.7044 0.178578 2.15662 0
M  V30 861 C 81.2994 3.26957 0.887938 0
M  V30 862 C 79.8584 3.5063 1.36877 0
M  V30 863 C 79.0054 2.75165 0.343468 0
M  V30 864 H 81.9564 1.56281 -0.276028 0
M  V30 865 H 81.9774 3.37821 1.75093 0
M  V30 866 H 81.4894 3.881 -0.0031809 0
M  V30 867 H 79.5904 2.94766 2.27911 0
M  V30 868 H 79.7034 4.59343 1.36164 0
M  V30 869 H 78.0674 2.4127 0.816128 0
M  V30 870 H 78.8504 3.39034 -0.539548 0
M  V30 871 N 81.2955 -0.223234 1.56011 0
M  V30 872 C 82.5445 -0.945912 1.78144 0
M  V30 873 C 82.8575 -1.85567 0.618396 0
M  V30 874 O 84.0635 -2.61688 0.723318 0
M  V30 875 C 82.5195 -1.73216 3.15475 0
M  V30 876 C 82.1275 -0.868619 4.39499 0
M  V30 877 C 83.8715 -2.44615 3.46935 0
M  V30 878 C 81.7785 -1.65212 5.67855 0
M  V30 879 H 80.7085 -0.356929 0.664167 0
M  V30 880 H 83.3595 -0.199845 1.82409 0
M  V30 881 H 81.7415 -2.52107 3.05382 0
M  V30 882 H 82.9155 -0.120366 4.60643 0
M  V30 883 H 81.2305 -0.26683 4.15544 0
M  V30 884 H 83.8275 -3.03732 4.40058 0
M  V30 885 H 84.1705 -3.17417 2.69355 0
M  V30 886 H 84.7035 -1.72715 3.58349 0
M  V30 887 H 81.4425 -0.967407 6.48322 0
M  V30 888 H 80.9625 -2.37503 5.50774 0
M  V30 889 H 82.6415 -2.21322 6.07968 0
M  V30 890 N 82.7736 -1.49793 -0.48987 0
M  V30 891 C 83.7366 -1.66752 -1.57246 0
M  V30 892 C 84.7366 -0.538867 -1.51502 0
M  V30 893 O 85.9266 -0.805545 -1.54456 0
M  V30 894 C 83.0586 -1.67528 -2.96896 0
M  V30 895 H 84.2516 -2.63321 -1.43534 0
M  V30 896 H 81.8046 -1.38992 -0.714914 0
M  V30 897 H 82.5396 -0.725837 -3.16073 0
M  V30 898 H 82.3246 -2.49504 -3.02473 0
M  V30 899 H 83.8146 -1.82667 -3.7553 0
M  V30 900 N 84.2517 0.741722 -1.39055 0
M  V30 901 C 85.4977 1.50336 -1.36113 0
M  V30 902 C 85.8307 1.94148 0.0450796 0
M  V30 903 O 85.1057 1.66301 1.00868 0
M  V30 904 C 85.3887 2.74773 -2.32749 0
M  V30 905 C 85.2417 2.37023 -3.82283 0
M  V30 906 C 86.5607 3.76846 -2.27322 0
M  V30 907 H 83.6797 0.545351 -0.495743 0
M  V30 908 H 86.3217 0.848624 -1.69995 0
M  V30 909 H 84.4717 3.30639 -2.03986 0
M  V30 910 H 86.1437 1.8684 -4.21768 0
M  V30 911 H 84.3867 1.69334 -3.99385 0
M  V30 912 H 85.0577 3.26104 -4.45376 0
M  V30 913 H 87.5337 3.30548 -2.5274 0
M  V30 914 H 86.4097 4.6159 -2.97028 0
M  V30 915 H 86.6707 4.23286 -1.27599 0
M  V30 916 N 85.7298 1.2412 0.971189 0
M  V30 917 C 86.6628 0.97373 2.06382 0
M  V30 918 C 87.6408 -0.0912662 1.62344 0
M  V30 919 O 88.8248 0.0449365 1.88446 0
M  V30 920 C 85.9518 0.468746 3.35441 0
M  V30 921 C 84.9978 1.52176 3.98428 0
M  V30 922 S 85.8308 3.10203 4.36503 0
M  V30 923 C 86.9868 2.61398 5.68702 0
M  V30 924 H 87.2198 1.89893 2.28753 0
M  V30 925 H 84.7528 1.07466 1.10862 0
M  V30 926 H 86.7108 0.184012 4.10087 0
M  V30 927 H 85.3718 -0.435688 3.11064 0
M  V30 928 H 84.5648 1.11876 4.91426 0
M  V30 929 H 84.1668 1.75632 3.30196 0
M  V30 930 H 86.4588 2.03992 6.4606 0
M  V30 931 H 87.4018 3.52972 6.13854 0
M  V30 932 H 87.8098 2.01941 5.27143 0
M  V30 933 N 87.2079 -1.17134 1.05439 0
M  V30 934 C 88.4359 -1.91372 0.786414 0
M  V30 935 C 88.8509 -1.76955 -0.658202 0
M  V30 936 O 88.2079 -1.10838 -1.44987 0
M  V30 937 C 88.2589 -3.42356 1.1608 0
M  V30 938 O 87.9799 -3.56332 2.54871 0
M  V30 939 C 89.4809 -4.33663 0.919322 0
M  V30 940 H 86.7009 -0.607118 0.285743 0
M  V30 941 H 89.2449 -1.48525 1.40572 0
M  V30 942 H 87.3999 -3.82939 0.586191 0
M  V30 943 H 87.8139 -4.49896 2.69618 0
M  V30 944 H 89.2879 -5.38099 1.231 0
M  V30 945 H 89.7649 -4.38959 -0.145359 0
M  V30 946 H 90.3709 -3.98796 1.47789 0
M  V30 947 N 88.686 -0.835752 -1.33615 0
M  V30 948 C 89.933 -0.429959 -1.97883 0
M  V30 949 C 90.261 1.01006 -1.66217 0
M  V30 950 O 89.516 1.72047 -0.93265 0
M  V30 951 C 89.815 -0.593925 -3.52431 0
M  V30 952 C 89.481 -2.00158 -4.04039 0
M  V30 953 C 88.143 -2.38662 -4.17844 0
M  V30 954 C 90.495 -2.92117 -4.31644 0
M  V30 955 C 87.823 -3.68435 -4.56588 0
M  V30 956 C 90.175 -4.21368 -4.71838 0
M  V30 957 C 88.839 -4.59833 -4.83849 0
M  V30 958 H 88.109 -0.157333 -0.724104 0
M  V30 959 H 90.756 -1.06217 -1.59343 0
M  V30 960 H 89.061 0.121619 -3.91611 0
M  V30 961 H 90.758 -0.260282 -4.00154 0
M  V30 962 H 87.348 -1.69252 -3.93766 0
M  V30 963 H 91.532 -2.63608 -4.20505 0
M  V30 964 H 86.788 -3.98046 -4.64079 0
M  V30 965 H 90.962 -4.92703 -4.92155 0
M  V30 966 H 88.589 -5.60438 -5.13627 0
M  V30 967 N 90.1641 1.46063 -0.591896 0
M  V30 968 C 91.4411 1.95595 -0.0137119 0
M  V30 969 C 91.8211 1.5345 1.4497 0
M  V30 970 O 91.1691 0.789543 2.14426 0
M  V30 971 C 91.3791 3.48453 -0.195373 0
M  V30 972 C 92.7271 4.24546 -0.0679765 0
M  V30 973 O 93.7511 3.55982 -0.124681 0
M  V30 974 O 92.6101 5.46467 0.0600579 0
M  V30 975 H 89.7041 0.825795 0.0446279 0
M  V30 976 H 92.2501 1.56303 -0.660859 0
M  V30 977 H 91.0221 3.72045 -1.21235 0
M  V30 978 H 90.6451 3.94597 0.487775 0
M  V30 979 N 91.6422 0.330177 1.54103 0
M  V30 980 C 92.5722 -0.525353 2.27513 0
M  V30 981 C 93.5532 -1.11383 1.2856 0
M  V30 982 O 94.7382 -1.13773 1.57383 0
M  V30 983 C 91.8682 -1.6831 3.03791 0
M  V30 984 C 90.8222 -1.2236 4.10137 0
M  V30 985 C 90.1482 -2.46882 4.74293 0
M  V30 986 C 91.4482 -0.333697 5.21233 0
M  V30 987 H 93.1422 0.087013 2.99274 0
M  V30 988 H 90.6882 0.0432893 1.43935 0
M  V30 989 H 92.6412 -2.28795 3.5388 0
M  V30 990 H 91.3652 -2.32216 2.29659 0
M  V30 991 H 90.0242 -0.64165 3.60941 0
M  V30 992 H 89.6722 -3.09165 3.96769 0
M  V30 993 H 89.3722 -2.16825 5.46133 0
M  V30 994 H 90.8962 -3.08117 5.27159 0
M  V30 995 H 92.3102 -0.845013 5.67038 0
M  V30 996 H 90.7072 -0.125612 5.99969 0
M  V30 997 H 91.7772 0.633724 4.80741 0
M  V30 998 N 93.1203 -1.57491 0.0584922 0
M  V30 999 C 94.3483 -1.97296 -0.623037 0
M  V30 1000 C 94.7633 -0.936338 -1.63946 0
M  V30 1001 O 94.1203 0.0785981 -1.82331 0
M  V30 1002 C 94.1713 -3.37183 -1.30345 0
M  V30 1003 O 93.8923 -4.36872 -0.32773 0
M  V30 1004 C 95.3933 -3.91788 -2.07406 0
M  V30 1005 H 92.6133 -0.649153 -0.169826 0
M  V30 1006 H 95.1573 -2.04106 0.12696 0
M  V30 1007 H 93.3123 -3.31502 -2.00463 0
M  V30 1008 H 93.7263 -5.18141 -0.814269 0
M  V30 1009 H 95.2003 -4.91926 -2.50425 0
M  V30 1010 H 95.6773 -3.27609 -2.92521 0
M  V30 1011 H 96.2833 -4.00829 -1.42184 0
M  V30 1012 N 94.5984 0.214957 -1.56127 0
M  V30 1013 C 95.5454 1.26642 -1.92952 0
M  V30 1014 C 96.5154 1.46244 -0.78753 0
M  V30 1015 O 97.7004 1.59704 -1.04399 0
M  V30 1016 C 94.8404 2.6104 -2.25726 0
M  V30 1017 C 93.9534 2.49183 -3.52891 0
M  V30 1018 C 93.0884 3.76149 -3.7508 0
M  V30 1019 C 92.1274 3.59041 -4.95738 0
M  V30 1020 N 91.2644 4.77972 -5.14283 0
M  V30 1021 H 96.1044 0.945384 -2.82607 0
M  V30 1022 H 93.6414 0.455489 -1.3987 0
M  V30 1023 H 95.5994 3.39313 -2.42739 0
M  V30 1024 H 94.2294 2.91227 -1.39236 0
M  V30 1025 H 93.2814 1.6231 -3.44034 0
M  V30 1026 H 94.5934 2.32466 -4.41318 0
M  V30 1027 H 93.7474 4.62865 -3.92226 0
M  V30 1028 H 92.4864 3.95799 -2.84947 0
M  V30 1029 H 91.4914 2.7071 -4.78535 0
M  V30 1030 H 92.7164 3.40856 -5.87362 0
M  V30 1031 H 90.6624 4.97923 -4.27093 0
M  V30 1032 H 90.5794 4.64006 -5.96853 0
M  V30 1033 H 91.8474 5.66096 -5.35869 0
M  V30 1034 N 96.0765 1.50051 0.48192 0
M  V30 1035 C 97.3255 1.59741 1.23149 0
M  V30 1036 C 97.6385 0.298163 1.93314 0
M  V30 1037 O 98.8445 0.273835 2.70116 0
M  V30 1038 C 97.3005 2.81926 2.23708 0
M  V30 1039 C 96.9085 4.18685 1.59396 0
M  V30 1040 C 98.6525 3.00956 2.99375 0
M  V30 1041 C 96.5595 5.3207 2.58178 0
M  V30 1042 H 95.4895 0.594838 0.46334 0
M  V30 1043 H 98.1405 1.76467 0.503169 0
M  V30 1044 H 96.5225 2.58736 2.99786 0
M  V30 1045 H 97.6965 4.52088 0.891811 0
M  V30 1046 H 96.0115 4.05171 0.960503 0
M  V30 1047 H 98.6085 3.82836 3.73283 0
M  V30 1048 H 98.9515 2.12258 3.58123 0
M  V30 1049 H 99.4845 3.24277 2.30411 0
M  V30 1050 H 96.2235 6.22888 2.04184 0
M  V30 1051 H 95.7435 5.03098 3.26577 0
M  V30 1052 H 97.4225 5.62196 3.20225 0
M  V30 1053 N 97.5546 -0.734337 1.39446 0
M  V30 1054 C 98.7826 -1.52358 1.39981 0
M  V30 1055 C 99.1976 -1.88799 -0.0054975 0
M  V30 1056 O 98.5546 -1.54146 -0.976998 0
M  V30 1057 C 98.6056 -2.81072 2.27333 0
M  V30 1058 O 98.3266 -2.46178 3.62392 0
M  V30 1059 C 99.8276 -3.75096 2.36259 0
M  V30 1060 H 97.0476 -0.470806 0.478103 0
M  V30 1061 H 99.5916 -0.907339 1.83269 0
M  V30 1062 H 97.7466 -3.39026 1.87457 0
M  V30 1063 H 98.1606 -3.28866 4.08592 0
M  V30 1064 H 99.6346 -4.62305 3.01626 0
M  V30 1065 H 100.112 -4.16892 1.38194 0
M  V30 1066 H 100.718 -3.23061 2.76608 0
M  V30 1067 N 99.0327 -1.24633 -0.964593 0
M  V30 1068 C 99.9797 -1.04144 -2.05968 0
M  V30 1069 C 100.95 0.046262 -1.66036 0
M  V30 1070 O 102.135 -0.108972 -1.90489 0
M  V30 1071 C 99.2747 -0.65563 -3.38815 0
M  V30 1072 C 98.3877 -1.81714 -3.91923 0
M  V30 1073 C 97.5227 -1.37662 -5.13052 0
M  V30 1074 C 96.5617 -2.50788 -5.58365 0
M  V30 1075 N 95.6987 -2.07582 -6.70712 0
M  V30 1076 H 100.539 -1.9787 -2.22827 0
M  V30 1077 H 98.0757 -0.9855 -1.09208 0
M  V30 1078 H 100.034 -0.412954 -4.15151 0
M  V30 1079 H 98.6637 0.244627 -3.21872 0
M  V30 1080 H 97.7157 -2.1734 -3.12198 0
M  V30 1081 H 99.0277 -2.66705 -4.21509 0
M  V30 1082 H 98.1817 -1.093 -5.96773 0
M  V30 1083 H 96.9207 -0.497293 -4.85158 0
M  V30 1084 H 95.9257 -2.79906 -4.73215 0
M  V30 1085 H 97.1507 -3.39283 -5.88272 0
M  V30 1086 H 95.0967 -1.22051 -6.44546 0
M  V30 1087 H 95.0137 -2.86125 -6.99763 0
M  V30 1088 H 96.2817 -1.82369 -7.57867 0
M  V30 1089 N 100.511 1.16574 -1.06058 0
M  V30 1090 C 101.739 1.90952 -0.796552 0
M  V30 1091 C 102.154 1.77302 0.648808 0
M  V30 1092 O 101.511 1.11605 1.44397 0
M  V30 1093 C 101.562 3.41736 -1.17894 0
M  V30 1094 O 101.283 3.54975 -2.56758 0
M  V30 1095 C 102.784 4.33169 -0.942308 0
M  V30 1096 H 100.004 0.605594 -0.288959 0
M  V30 1097 H 102.548 1.47777 -1.41358 0
M  V30 1098 H 100.703 3.82623 -0.606491 0
M  V30 1099 H 101.117 4.4846 -2.72 0
M  V30 1100 H 102.591 5.37439 -1.25952 0
M  V30 1101 H 103.068 4.3903 0.122078 0
M  V30 1102 H 103.674 3.98007 -1.49902 0
M  V30 1103 N 101.989 0.842826 1.3317 0
M  V30 1104 C 103.214 0.453129 2.02389 0
M  V30 1105 C 103.639 -0.939105 1.6298 0
M  V30 1106 O 102.997 -1.61472 0.8244 0
M  V30 1107 C 103.045 0.586094 3.55805 0
M  V30 1108 O 102.149 -0.386029 4.10589 0
M  V30 1109 H 101.49 0.183664 0.638094 0
M  V30 1110 H 104.02 1.13875 1.69981 0
M  V30 1111 H 104.03 0.469209 4.05293 0
M  V30 1112 H 102.705 1.6014 3.83833 0
M  V30 1113 H 101.282 -0.226371 3.72212 0
M  V30 1114 N 103.467 -1.45747 0.599634 0
M  V30 1115 C 104.692 -2.07178 0.0960198 0
M  V30 1116 C 105.117 -1.44268 -1.207 0
M  V30 1117 O 104.475 -0.532503 -1.73303 0
M  V30 1118 C 104.523 -3.60579 -0.0385348 0
M  V30 1119 O 103.627 -3.97713 -1.0908 0
M  V30 1120 H 102.968 -0.660251 0.0704593 0
M  V30 1121 H 105.498 -1.87124 0.827385 0
M  V30 1122 H 105.508 -4.07298 -0.239304 0
M  V30 1123 H 104.183 -4.05756 0.912947 0
M  V30 1124 H 102.76 -3.62678 -0.867135 0
M  V30 1125 N 104.945 -0.338344 -1.53925 0
M  V30 1126 C 106.17 0.263987 -2.05713 0
M  V30 1127 C 106.595 1.43847 -1.21201 0
M  V30 1128 O 105.953 1.79904 -0.224535 0
M  V30 1129 C 106.001 0.662 -3.54471 0
M  V30 1130 O 105.105 1.76265 -3.72833 0
M  V30 1131 H 104.446 0.0448722 -0.662482 0
M  V30 1132 H 106.976 -0.491048 -1.9862 0
M  V30 1133 H 106.986 0.940594 -3.9701 0
M  V30 1134 H 105.661 -0.196937 -4.15433 0
M  V30 1135 H 104.238 1.48173 -3.42198 0
M  V30 1136 N 106.423 1.57458 -0.0668435 0
M  V30 1137 C 107.67 1.93301 0.603406 0
M  V30 1138 C 107.998 0.946486 1.69917 0
M  V30 1139 O 107.253 -0.0387021 1.95662 0
M  V30 1140 C 107.552 3.35784 1.22409 0
M  V30 1141 C 107.218 4.50179 0.254955 0
M  V30 1142 C 105.88 4.81199 -0.0116746 0
M  V30 1143 C 108.232 5.19598 -0.408338 0
M  V30 1144 C 105.56 5.78978 -0.94877 0
M  V30 1145 C 107.912 6.18381 -1.33372 0
M  V30 1146 C 106.576 6.47821 -1.60887 0
M  V30 1147 H 105.846 0.707338 0.220802 0
M  V30 1148 H 108.493 1.91012 -0.136665 0
M  V30 1149 H 106.798 3.34515 2.03978 0
M  V30 1150 H 108.495 3.60804 1.74989 0
M  V30 1151 H 105.085 4.25983 0.472954 0
M  V30 1152 H 109.269 4.95832 -0.215456 0
M  V30 1153 H 104.525 6.00115 -1.16925 0
M  V30 1154 H 108.699 6.71277 -1.85367 0
M  V30 1155 H 106.326 7.23399 -2.33661 0
M  V30 1156 N 107.901 -0.206675 1.56239 0
M  V30 1157 C 108.811 -1.27686 1.96808 0
M  V30 1158 C 109.827 -1.50455 0.874035 0
M  V30 1159 O 111.003 -1.63295 1.17884 0
M  V30 1160 C 108.068 -2.60358 2.28942 0
M  V30 1161 C 107.129 -2.45762 3.51994 0
M  V30 1162 C 106.362 -3.72108 3.82585 0
M  V30 1163 O 106.585 -4.75776 3.14631 0
M  V30 1164 O 105.519 -3.6833 4.76043 0
M  V30 1165 H 109.345 -0.962593 2.88041 0
M  V30 1166 H 106.93 -0.410746 1.43643 0
M  V30 1167 H 108.812 -3.38687 2.50737 0
M  V30 1168 H 107.487 -2.91435 1.4088 0
M  V30 1169 H 106.394 -1.65584 3.35459 0
M  V30 1170 H 107.727 -2.19621 4.40486 0
M  V30 1171 N 109.379 -1.50304 -0.473955 0
M  V30 1172 C 110.625 -1.61389 -1.22806 0
M  V30 1173 C 110.958 -0.311955 -1.91678 0
M  V30 1174 O 110.233 0.686384 -1.81986 0
M  V30 1175 C 110.516 -2.79219 -2.27396 0
M  V30 1176 C 110.369 -4.19286 -1.62848 0
M  V30 1177 C 111.688 -2.92614 -3.28732 0
M  V30 1178 H 108.807 -0.587399 -0.445119 0
M  V30 1179 H 111.449 -1.82681 -0.522265 0
M  V30 1180 H 109.599 -2.61195 -2.87592 0
M  V30 1181 H 111.271 -4.48892 -1.06271 0
M  V30 1182 H 109.514 -4.23677 -0.931693 0
M  V30 1183 H 110.185 -4.97655 -2.38838 0
M  V30 1184 H 112.661 -3.09105 -2.78556 0
M  V30 1185 H 111.537 -3.76688 -3.99246 0
M  V30 1186 H 111.798 -2.03107 -3.92683 0
M  V30 1187 N 110.857 0.726932 -1.39834 0
M  V30 1188 C 112.273 1.03354 -1.21615 0
M  V30 1189 C 112.473 2.01327 -0.08338 0
M  V30 1190 O 111.529 2.46158 0.56238 0
M  V30 1191 C 112.842 1.58811 -2.55342 0
M  V30 1192 C 114.39 1.70851 -2.62257 0
M  V30 1193 C 114.865 2.29716 -3.96225 0
M  V30 1194 N 116.356 2.37116 -3.97907 0
M  V30 1195 C 117.091 2.83619 -4.98345 0
M  V30 1196 N 116.587 3.29958 -6.09179 0
M  V30 1197 N 118.38 2.82901 -4.8572 0
M  V30 1198 H 110.531 0.0773069 -2.12259 0
M  V30 1199 H 112.794 0.0969102 -0.943034 0
M  V30 1200 H 112.5 0.942855 -3.38826 0
M  V30 1201 H 112.374 2.57502 -2.75632 0
M  V30 1202 H 114.761 2.34497 -1.79152 0
M  V30 1203 H 114.842 0.707913 -2.45809 0
M  V30 1204 H 114.486 1.66696 -4.79765 0
M  V30 1205 H 114.416 3.30469 -4.09997 0
M  V30 1206 H 116.907 2.04374 -3.17868 0
M  V30 1207 H 117.22 3.63976 -6.8172 0
M  V30 1208 H 115.565 3.27946 -6.12761 0
M  V30 1209 H 118.756 2.46027 -3.98231 0
M  V30 1210 H 118.929 3.18827 -5.6414 0
M  V30 1211 N 112.336 1.25143 0.95797 0
M  V30 1212 C 113.564 1.12424 1.73691 0
M  V30 1213 C 113.979 -0.322304 1.86029 0
M  V30 1214 O 113.336 -1.22186 1.35561 0
M  V30 1215 C 113.387 1.76933 3.15241 0
M  V30 1216 O 113.108 3.15932 3.03511 0
M  V30 1217 C 114.609 1.6995 4.09429 0
M  V30 1218 H 111.829 0.3923 0.544373 0
M  V30 1219 H 114.373 1.6544 1.20207 0
M  V30 1220 H 112.528 1.27895 3.6568 0
M  V30 1221 H 112.942 3.47598 3.9278 0
M  V30 1222 H 114.416 2.19753 5.06372 0
M  V30 1223 H 114.893 0.662619 4.34173 0
M  V30 1224 H 115.499 2.18461 3.64904 0
M  V30 1225 N 113.814 -1.1601 1.06675 0
M  V30 1226 C 115.06 -1.87145 0.796766 0
M  V30 1227 C 115.415 -1.8037 -0.669658 0
M  V30 1228 O 114.708 -1.21116 -1.48463 0
M  V30 1229 C 114.902 -3.35547 1.23057 0
M  V30 1230 C 114.731 -3.56769 2.73762 0
M  V30 1231 C 113.501 -3.72635 3.41279 0
M  V30 1232 C 115.699 -3.55166 3.7197 0
M  V30 1233 N 113.681 -3.81845 4.80695 0
M  V30 1234 C 115.052 -3.70406 4.97191 0
M  V30 1235 C 117.107 -3.384 3.65226 0
M  V30 1236 C 115.81 -3.70615 6.16471 0
M  V30 1237 C 117.836 -3.39904 4.83962 0
M  V30 1238 C 117.198 -3.55667 6.08013 0
M  V30 1239 H 113.297 -0.702267 0.344014 0
M  V30 1240 H 115.881 -1.39165 1.36166 0
M  V30 1241 H 114.052 -3.82159 0.693456 0
M  V30 1242 H 115.784 -3.94363 0.908844 0
M  V30 1243 H 112.539 -3.73121 2.91681 0
M  V30 1244 H 112.963 -3.90209 5.53232 0
M  V30 1245 H 117.605 -3.25138 2.70269 0
M  V30 1246 H 115.323 -3.82658 7.11757 0
M  V30 1247 H 118.909 -3.28169 4.80413 0
M  V30 1248 H 117.789 -3.56755 6.98352 0
M  V30 1249 N 115.292 -0.849877 -1.32721 0
M  V30 1250 C 116.569 -0.372405 -1.92022 0
M  V30 1251 C 116.949 1.1435 -1.77447 0
M  V30 1252 O 116.297 1.96296 -1.16962 0
M  V30 1253 C 116.507 -0.831482 -3.3895 0
M  V30 1254 C 117.855 -0.845882 -4.16089 0
M  V30 1255 O 118.879 -0.775806 -3.47649 0
M  V30 1256 O 117.738 -0.943753 -5.38289 0
M  V30 1257 H 114.832 -0.107667 -0.819961 0
M  V30 1258 H 117.378 -0.93646 -1.41522 0
M  V30 1259 H 116.15 -1.87448 -3.4348 0
M  V30 1260 H 115.773 -0.24461 -3.96847 0
M  V30 1261 N 116.77 1.45427 -0.607355 0
M  V30 1262 C 118.181 1.85756 -0.187535 0
M  V30 1263 C 118.532 1.5077 1.25551 0
M  V30 1264 O 117.657 0.93427 1.95193 0
M  V30 1265 C 118.252 3.37154 -0.333572 0
M  V30 1266 C 116.811 3.76387 0.0315542 0
M  V30 1267 C 115.958 2.69377 -0.658117 0
M  V30 1268 H 118.909 1.36231 -0.81405 0
M  V30 1269 H 118.93 3.78014 0.43428 0
M  V30 1270 H 118.442 3.62586 -1.38393 0
M  V30 1271 H 116.543 3.56571 1.0811 0
M  V30 1272 H 116.656 4.77731 -0.361935 0
M  V30 1273 H 115.02 2.5452 -0.0957873 0
M  V30 1274 H 115.803 2.97646 -1.7106 0
M  V30 1275 N 118.248 0.346503 1.53744 0
M  V30 1276 C 119.158 -0.517293 2.28826 0
M  V30 1277 C 120.174 -1.10935 1.3405 0
M  V30 1278 O 121.35 -1.1244 1.6709 0
M  V30 1279 C 118.415 -1.65098 3.04866 0
M  V30 1280 C 117.476 -1.0884 4.15274 0
M  V30 1281 C 116.709 -2.16806 4.87679 0
M  V30 1282 O 116.932 -3.3758 4.59778 0
M  V30 1283 O 115.866 -1.80934 5.74061 0
M  V30 1284 H 119.692 0.0931396 3.03557 0
M  V30 1285 H 117.277 0.111458 1.48984 0
M  V30 1286 H 119.159 -2.31053 3.5241 0
M  V30 1287 H 117.834 -2.24717 2.32989 0
M  V30 1288 H 116.741 -0.3933 3.72027 0
M  V30 1289 H 118.074 -0.537036 4.89261 0
M  V30 1290 N 119.726 -1.57421 0.075193 0
M  V30 1291 C 120.974 -1.93236 -0.591974 0
M  V30 1292 C 121.295 -0.956241 -1.69944 0
M  V30 1293 O 120.565 -0.00494792 -1.95899 0
M  V30 1294 H 119.145 -0.713355 -0.22166 0
M  V30 1295 H 121.807 -1.9444 0.133848 0
M  V30 1296 H 120.903 -2.95131 -1.01509 0
M  V30 1297 N 121.204 0.198386 -1.56346 0
M  V30 1298 C 122.45 0.920648 -1.80698 0
M  V30 1299 C 122.783 1.83045 -0.648697 0
M  V30 1300 O 122.058 1.91308 0.350925 0
M  V30 1301 C 122.341 1.73971 -3.15287 0
M  V30 1302 C 122.194 0.85485 -4.41602 0
M  V30 1303 C 123.513 2.71296 -3.46535 0
M  V30 1304 H 120.632 0.333261 -0.657348 0
M  V30 1305 H 123.274 0.188198 -1.89066 0
M  V30 1306 H 121.424 2.36416 -3.08285 0
M  V30 1307 H 123.096 0.245362 -4.60647 0
M  V30 1308 H 121.339 0.161398 -4.335 0
M  V30 1309 H 122.01 1.46286 -5.32264 0
M  V30 1310 H 124.486 2.18983 -3.53816 0
M  V30 1311 H 123.362 3.2569 -4.41834 0
M  V30 1312 H 123.623 3.5018 -2.69864 0
M  V30 1313 N 122.682 1.50554 0.465978 0
M  V30 1314 C 123.931 1.61038 1.21448 0
M  V30 1315 C 124.244 0.31865 1.92987 0
M  V30 1316 O 125.45 0.302469 2.6981 0
M  V30 1317 C 123.906 2.84283 2.20706 0
M  V30 1318 C 123.514 4.20352 1.54946 0
M  V30 1319 C 125.258 3.04115 2.96166 0
M  V30 1320 C 123.165 5.34778 2.5252 0
M  V30 1321 H 122.095 0.599718 0.457005 0
M  V30 1322 H 124.746 1.7699 0.484424 0
M  V30 1323 H 123.128 2.61901 2.97025 0
M  V30 1324 H 124.302 4.53008 0.843811 0
M  V30 1325 H 122.617 4.06167 0.917475 0
M  V30 1326 H 125.214 3.86774 3.69202 0
M  V30 1327 H 125.557 2.16045 3.55852 0
M  V30 1328 H 126.09 3.26702 2.26959 0
M  V30 1329 H 122.829 6.25018 1.97566 0
M  V30 1330 H 122.349 5.06534 3.21222 0
M  V30 1331 H 124.028 5.65561 3.14245 0
M  V30 1332 N 124.16 -0.719506 1.40217 0
M  V30 1333 C 125.407 -1.47933 1.38283 0
M  V30 1334 C 125.735 -1.94493 -0.0161536 0
M  V30 1335 O 124.99 -1.68224 -0.999956 0
M  V30 1336 C 125.289 -2.72271 2.31524 0
M  V30 1337 C 124.955 -2.44496 3.78857 0
M  V30 1338 C 123.617 -2.36631 4.18998 0
M  V30 1339 C 125.969 -2.21104 4.71977 0
M  V30 1340 C 123.297 -2.03437 5.503 0
M  V30 1341 C 125.649 -1.89423 6.03574 0
M  V30 1342 C 124.313 -1.80038 6.42762 0
M  V30 1343 H 123.583 -0.541325 0.506012 0
M  V30 1344 H 126.23 -0.824502 1.72842 0
M  V30 1345 H 124.535 -3.42572 1.90137 0
M  V30 1346 H 126.232 -3.30348 2.27313 0
M  V30 1347 H 122.822 -2.51503 3.47051 0
M  V30 1348 H 127.006 -2.26139 4.41786 0
M  V30 1349 H 122.262 -1.94705 5.79569 0
M  V30 1350 H 126.436 -1.70336 6.75247 0
M  V30 1351 H 124.063 -1.54083 7.44421 0
M  V30 1352 N 125.638 -1.25649 -0.95132 0
M  V30 1353 C 126.868 -1.13179 -1.72841 0
M  V30 1354 C 127.276 0.316827 -1.86528 0
M  V30 1355 O 126.619 1.22948 -1.3649 0
M  V30 1356 C 126.681 -1.71644 -3.15878 0
M  V30 1357 C 126.345 -3.20667 -3.25609 0
M  V30 1358 C 127.342 -4.17616 -3.09666 0
M  V30 1359 C 125.027 -3.6094 -3.49324 0
M  V30 1360 C 127.021 -5.52817 -3.17289 0
M  V30 1361 C 124.708 -4.96278 -3.56584 0
M  V30 1362 C 125.706 -5.92025 -3.40581 0
M  V30 1363 O 125.394 -7.24899 -3.47528 0
M  V30 1364 H 125.126 -0.395389 -0.54831 0
M  V30 1365 H 127.68 -1.66566 -1.20187 0
M  V30 1366 H 125.91 -1.12707 -3.69911 0
M  V30 1367 H 127.599 -1.54225 -3.75459 0
M  V30 1368 H 128.365 -3.87842 -2.91211 0
M  V30 1369 H 124.244 -2.86907 -3.6084 0
M  V30 1370 H 127.788 -6.2753 -3.04716 0
M  V30 1371 H 123.685 -5.25716 -3.74556 0
M  V30 1372 H 124.453 -7.33039 -3.64138 0
M  V30 1373 N 127.117 1.15442 -1.07289 0
M  V30 1374 C 128.365 1.85845 -0.794096 0
M  V30 1375 C 128.686 1.82692 0.681809 0
M  V30 1376 O 127.956 1.26741 1.49377 0
M  V30 1377 H 126.536 0.688089 -0.290763 0
M  V30 1378 H 129.198 1.39947 -1.3565 0
M  V30 1379 H 128.294 2.91001 -1.12804 0
M  V30 1380 N 128.595 0.856903 1.32268 0
M  V30 1381 C 129.872 0.382583 1.91822 0
M  V30 1382 C 130.252 -1.13407 1.78051 0
M  V30 1383 O 129.6 -1.95673 1.18001 0
M  V30 1384 C 129.81 0.849446 3.38505 0
M  V30 1385 C 131.158 0.867936 4.15634 0
M  V30 1386 O 132.182 0.794232 3.47232 0
M  V30 1387 O 131.041 0.972286 5.37781 0
M  V30 1388 H 128.135 0.112014 0.819379 0
M  V30 1389 H 130.681 0.943952 1.41024 0
M  V30 1390 H 129.453 1.89267 3.42482 0
M  V30 1391 H 129.076 0.265652 3.96712 0
M  V30 1392 N 130.073 -1.45103 0.615059 0
M  V30 1393 C 131.301 -2.06553 0.11977 0
M  V30 1394 C 131.716 -1.45842 -1.19898 0
M  V30 1395 O 131.073 -0.575325 -1.73194 0
M  V30 1396 C 131.124 -3.61495 -0.018364 0
M  V30 1397 O 130.845 -4.19942 1.24822 0
M  V30 1398 C 132.346 -4.39947 -0.544237 0
M  V30 1399 H 129.566 -0.667096 0.0722739 0
M  V30 1400 H 132.11 -1.8623 0.84491 0
M  V30 1401 H 130.265 -3.81135 -0.693865 0
M  V30 1402 H 130.679 -5.13204 1.0827 0
M  V30 1403 H 132.153 -5.48838 -0.589953 0
M  V30 1404 H 132.63 -4.10255 -1.56805 0
M  V30 1405 H 133.236 -4.25188 0.0974703 0
M  V30 1406 N 131.551 -0.354651 -1.53558 0
M  V30 1407 C 132.499 0.512195 -2.26891 0
M  V30 1408 C 133.493 1.09263 -1.29452 0
M  V30 1409 O 134.699 1.03709 -1.47121 0
M  V30 1410 H 131.074 0.183878 -0.729173 0
M  V30 1411 H 133.045 -0.128202 -2.98124 0
M  V30 1412 C 131.794 1.64563 -3.06291 0
M  V30 1413 H 131.117 1.20829 -3.81104 0
M  V30 1414 H 132.557 2.22711 -3.60799 0
M  V30 1415 C 131.016 2.58158 -2.16462 0
M  V30 1416 O 131.546 3.60695 -1.76811 0
M  V30 1417 N 129.752 2.27096 -1.81317 0
M  V30 1418 H 129.299 1.43751 -2.1376 0
M  V30 1419 H 129.257 2.89975 -1.21498 0
M  V30 1420 N 133.029 1.57378 -0.0835403 0
M  V30 1421 C 134.44 1.81261 0.447358 0
M  V30 1422 C 134.791 0.998331 1.68902 0
M  V30 1423 O 133.916 0.224282 2.15235 0
M  V30 1424 C 134.511 3.28767 0.818386 0
M  V30 1425 C 133.07 3.53455 1.29409 0
M  V30 1426 C 132.217 2.75831 0.285024 0
M  V30 1427 H 135.168 1.5566 -0.309115 0
M  V30 1428 H 135.189 3.41459 1.67887 0
M  V30 1429 H 134.701 3.88006 -0.0855019 0
M  V30 1430 H 132.802 2.99534 2.21608 0
M  V30 1431 H 132.915 4.62128 1.2639 0
M  V30 1432 H 131.279 2.42947 0.764767 0
M  V30 1433 H 132.062 3.37813 -0.611341 0
M  V30 1434 N 134.507 -0.190092 1.56449 0
M  V30 1435 C 135.454 -1.23557 1.94942 0
M  V30 1436 C 136.424 -1.44972 0.810696 0
M  V30 1437 O 137.609 -1.58023 1.06927 0
M  V30 1438 C 134.749 -2.57416 2.2985 0
M  V30 1439 C 133.862 -2.43537 3.5681 0
M  V30 1440 C 132.997 -3.70134 3.81017 0
M  V30 1441 C 132.036 -3.51109 5.01387 0
M  V30 1442 N 131.173 -4.6973 5.21822 0
M  V30 1443 H 136.013 -0.900304 2.84075 0
M  V30 1444 H 133.55 -0.43318 1.40577 0
M  V30 1445 H 135.508 -3.35409 2.48106 0
M  V30 1446 H 134.138 -2.88975 1.43852 0
M  V30 1447 H 133.19 -1.56816 3.46573 0
M  V30 1448 H 134.502 -2.25415 4.4496 0
M  V30 1449 H 133.656 -4.56566 3.9954 0
M  V30 1450 H 132.395 -3.91215 2.91207 0
M  V30 1451 H 131.4 -2.63063 4.82782 0
M  V30 1452 H 132.625 -3.31468 5.9271 0
M  V30 1453 H 130.571 -4.91065 4.34961 0
M  V30 1454 H 130.488 -4.54452 6.0416 0
M  V30 1455 H 131.756 -5.57499 5.44808 0
M  V30 1456 N 135.985 -1.50799 -0.457987 0
M  V30 1457 C 137.262 -1.52968 -1.21902 0
M  V30 1458 C 137.642 -0.281906 -2.09209 0
M  V30 1459 O 136.99 0.734076 -2.16388 0
M  V30 1460 C 137.2 -2.8326 -2.03875 0
M  V30 1461 C 138.548 -3.34425 -2.6162 0
M  V30 1462 O 139.572 -2.8467 -2.14106 0
M  V30 1463 O 138.431 -4.21188 -3.48228 0
M  V30 1464 H 135.525 -0.614129 -0.553873 0
M  V30 1465 H 138.071 -1.63098 -0.468739 0
M  V30 1466 H 136.843 -3.65543 -1.39621 0
M  V30 1467 H 136.466 -2.76195 -2.8601 0
M  V30 1468 N 137.463 0.71206 -1.40597 0
M  V30 1469 C 138.74 1.46536 -1.29563 0
M  V30 1470 C 139.12 2.10931 0.0844217 0
M  V30 1471 O 138.468 2.00418 1.0975 0
M  V30 1472 C 138.678 2.49821 -2.43701 0
M  V30 1473 C 140.026 3.15551 -2.841 0
M  V30 1474 O 141.05 2.60142 -2.4332 0
M  V30 1475 O 139.909 4.15867 -3.54566 0
M  V30 1476 H 137.003 0.651801 -0.509004 0
M  V30 1477 H 139.549 0.743935 -1.52524 0
M  V30 1478 H 138.321 2.00778 -3.35863 0
M  V30 1479 H 137.944 3.29495 -2.22528 0
M  V30 1480 N 138.941 1.26152 0.944643 0
M  V30 1481 C 140.187 1.12665 1.69346 0
M  V30 1482 C 140.542 -0.3273 1.89596 0
M  V30 1483 O 139.835 -1.23717 1.46303 0
M  V30 1484 C 140.029 1.82541 3.07268 0
M  V30 1485 C 139.858 3.34582 3.00475 0
M  V30 1486 C 138.628 4.03863 3.03681 0
M  V30 1487 C 140.826 4.30828 2.80877 0
M  V30 1488 N 138.808 5.42603 2.87151 0
M  V30 1489 C 140.179 5.5672 2.7288 0
M  V30 1490 C 142.234 4.21122 2.65633 0
M  V30 1491 C 140.937 6.74013 2.51196 0
M  V30 1492 C 142.963 5.38118 2.45323 0
M  V30 1493 C 142.325 6.62955 2.38055 0
M  V30 1494 H 138.424 0.467041 0.627214 0
M  V30 1495 H 141.008 1.59391 1.11815 0
M  V30 1496 H 139.179 1.38296 3.62945 0
M  V30 1497 H 140.911 1.61708 3.70989 0
M  V30 1498 H 137.666 3.55198 3.1326 0
M  V30 1499 H 138.09 6.15443 2.82063 0
M  V30 1500 H 142.732 3.25344 2.70021 0
M  V30 1501 H 140.45 7.6989 2.4555 0
M  V30 1502 H 144.036 5.32475 2.34439 0
M  V30 1503 H 142.916 7.51959 2.22546 0
M  V30 1504 N 140.419 -1.14872 1.07899 0
M  V30 1505 C 141.666 -1.85789 0.805532 0
M  V30 1506 C 141.994 -1.82649 -0.668561 0
M  V30 1507 O 141.249 -1.24858 -1.50695 0
M  V30 1508 C 141.548 -3.34223 1.26609 0
M  V30 1509 C 141.214 -3.57555 2.74709 0
M  V30 1510 C 139.876 -3.63631 3.1516 0
M  V30 1511 C 142.228 -3.66803 3.70277 0
M  V30 1512 C 139.556 -3.76473 4.49983 0
M  V30 1513 C 141.908 -3.8117 5.04869 0
M  V30 1514 C 140.572 -3.85494 5.44932 0
M  V30 1515 H 139.842 -0.679849 0.294765 0
M  V30 1516 H 142.489 -1.3572 1.35101 0
M  V30 1517 H 140.794 -3.86536 0.640103 0
M  V30 1518 H 142.491 -3.87511 1.03132 0
M  V30 1519 H 139.081 -3.5347 2.42398 0
M  V30 1520 H 143.265 -3.61404 3.40149 0
M  V30 1521 H 138.521 -3.7808 4.80484 0
M  V30 1522 H 142.695 -3.87268 5.78789 0
M  V30 1523 H 140.322 -3.95197 6.49403 0
M  V30 1524 N 141.898 -0.863906 -1.31812 0
M  V30 1525 C 142.831 -0.259963 -2.26714 0
M  V30 1526 C 143.809 0.607392 -1.50829 0
M  V30 1527 O 144.993 0.562155 -1.79922 0
M  V30 1528 C 142.12 0.632456 -3.32743 0
M  V30 1529 C 141.166 -0.162743 -4.26189 0
M  V30 1530 S 141.999 -1.53726 -5.12961 0
M  V30 1531 C 143.155 -0.650803 -6.22507 0
M  V30 1532 H 143.388 -1.06445 -2.77591 0
M  V30 1533 H 140.921 -0.662071 -1.39485 0
M  V30 1534 H 142.879 1.14167 -3.94305 0
M  V30 1535 H 141.54 1.41083 -2.80632 0
M  V30 1536 H 140.733 0.517366 -5.01338 0
M  V30 1537 H 140.335 -0.60385 -3.69093 0
M  V30 1538 H 142.627 0.141134 -6.77353 0
M  V30 1539 H 143.57 -1.37322 -6.94657 0
M  V30 1540 H 143.978 -0.221041 -5.64067 0
M  V30 1541 N 143.376 1.44774 -0.622745 0
M  V30 1542 C 144.306 2.33382 0.0741861 0
M  V30 1543 C 145.287 1.47719 0.843387 0
M  V30 1544 O 146.472 1.76458 0.810934 0
M  V30 1545 C 143.602 3.30663 1.06204 0
M  V30 1546 C 142.556 4.26079 0.405037 0
M  V30 1547 C 141.882 5.13165 1.5022 0
M  V30 1548 C 143.182 5.1781 -0.683414 0
M  V30 1549 H 144.876 2.91905 -0.665713 0
M  V30 1550 H 142.422 1.40363 -0.321587 0
M  V30 1551 H 144.375 3.9153 1.55827 0
M  V30 1552 H 143.099 2.70331 1.83272 0
M  V30 1553 H 141.758 3.66532 -0.0704683 0
M  V30 1554 H 141.406 4.49191 2.26355 0
M  V30 1555 H 141.106 5.77812 1.06803 0
M  V30 1556 H 142.63 5.76902 2.00041 0
M  V30 1557 H 144.044 5.72661 -0.270631 0
M  V30 1558 H 142.441 5.91015 -1.04023 0
M  V30 1559 H 143.511 4.59326 -1.55395 0
M  V30 1560 N 144.854 0.36279 1.53368 0
M  V30 1561 C 146.102 -0.227326 2.00817 0
M  V30 1562 C 146.423 -1.49511 1.25186 0
M  V30 1563 O 145.693 -1.92482 0.364348 0
M  V30 1564 H 144.273 -0.0869923 0.741917 0
M  V30 1565 H 146.935 0.488381 1.88682 0
M  V30 1566 H 146.031 -0.456273 3.08747 0
M  V30 1567 N 146.332 -1.57332 0.0918853 0
M  V30 1568 C 147.262 -2.16872 -0.865371 0
M  V30 1569 C 148.243 -1.10118 -1.29646 0
M  V30 1570 O 149.428 -1.38242 -1.36392 0
M  V30 1571 C 146.558 -2.74649 -2.12569 0
M  V30 1572 C 145.512 -3.86747 -1.83333 0
M  V30 1573 C 144.838 -4.31212 -3.16166 0
M  V30 1574 C 146.138 -5.10089 -1.1228 0
M  V30 1575 H 147.832 -2.97114 -0.369307 0
M  V30 1576 H 145.378 -1.42918 -0.176194 0
M  V30 1577 H 147.331 -3.14952 -2.7997 0
M  V30 1578 H 146.055 -1.91657 -2.64452 0
M  V30 1579 H 144.714 -3.46978 -1.18331 0
M  V30 1580 H 144.362 -3.45115 -3.6593 0
M  V30 1581 H 144.062 -5.06788 -2.97388 0
M  V30 1582 H 145.586 -4.74146 -3.84731 0
M  V30 1583 H 147 -5.47582 -1.69785 0
M  V30 1584 H 145.397 -5.91073 -1.03693 0
M  V30 1585 H 146.467 -4.84786 -0.105041 0
M  V30 1586 N 147.81 0.181792 -1.56548 0
M  V30 1587 C 149.226 0.53316 -1.50431 0
M  V30 1588 C 149.426 1.85184 -0.794297 0
M  V30 1589 O 148.482 2.50058 -0.350318 0
M  V30 1590 C 149.795 0.575597 -2.9514 0
M  V30 1591 C 151.343 0.663519 -3.05886 0
M  V30 1592 C 151.818 0.736946 -4.52032 0
M  V30 1593 N 153.309 0.800118 -4.56237 0
M  V30 1594 C 154.044 0.877327 -5.66649 0
M  V30 1595 N 153.54 0.916016 -6.86718 0
M  V30 1596 N 155.333 0.915542 -5.54594 0
M  V30 1597 H 147.484 -0.683025 -2.01118 0
M  V30 1598 H 149.747 -0.244988 -0.915797 0
M  V30 1599 H 149.453 -0.324482 -3.502 0
M  V30 1600 H 149.327 1.42572 -3.49218 0
M  V30 1601 H 151.714 1.55403 -2.50867 0
M  V30 1602 H 151.795 -0.21307 -2.54911 0
M  V30 1603 H 151.439 -0.149262 -5.07681 0
M  V30 1604 H 151.369 1.62953 -5.00753 0
M  V30 1605 H 153.86 0.778926 -3.69785 0
M  V30 1606 H 154.173 0.975813 -7.66614 0
M  V30 1607 H 152.518 0.884469 -6.89349 0
M  V30 1608 H 155.709 0.882245 -4.59711 0
M  V30 1609 H 155.882 0.972253 -6.40665 0
M  V30 1610 N 149.288 1.51039 0.449983 0
M  V30 1611 C 150.565 1.53612 1.21089 0
M  V30 1612 C 150.945 0.292997 2.09057 0
M  V30 1613 O 150.293 -0.72259 2.16774 0
M  V30 1614 C 150.503 2.84337 2.0237 0
M  V30 1615 C 151.851 3.35807 2.59843 0
M  V30 1616 O 152.875 2.85802 2.12593 0
M  V30 1617 O 151.734 4.23029 3.45989 0
M  V30 1618 H 148.828 0.617057 0.550608 0
M  V30 1619 H 151.374 1.63344 0.460082 0
M  V30 1620 H 150.146 3.66278 1.37681 0
M  V30 1621 H 149.769 2.77708 2.84542 0
M  V30 1622 N 150.766 -0.704594 1.40972 0
M  V30 1623 C 152.014 -1.46169 1.39568 0
M  V30 1624 C 152.335 -1.95 0.00253745 0
M  V30 1625 O 151.605 -1.71095 -0.954114 0
M  V30 1626 H 150.185 -0.542326 0.513704 0
M  V30 1627 H 152.847 -0.834553 1.76128 0
M  V30 1628 H 151.943 -2.32922 2.07735 0
M  V30 1629 N 152.244 -1.26651 -0.937939 0
M  V30 1630 C 153.66 -1.03834 -1.21205 0
M  V30 1631 C 153.86 0.234502 -2.00131 0
M  V30 1632 O 152.916 0.942767 -2.3424 0
M  V30 1633 C 154.229 -2.27167 -1.97017 0
M  V30 1634 C 155.777 -2.32101 -2.09996 0
M  V30 1635 C 156.252 -3.55136 -2.8921 0
M  V30 1636 N 157.743 -3.55632 -2.96783 0
M  V30 1637 C 158.478 -4.475 -3.58512 0
M  V30 1638 N 157.974 -5.4966 -4.21717 0
M  V30 1639 N 159.767 -4.35145 -3.55816 0
M  V30 1640 H 151.918 -2.08398 -0.410391 0
M  V30 1641 H 154.181 -0.916031 -0.244114 0
M  V30 1642 H 153.887 -3.19765 -1.46434 0
M  V30 1643 H 153.761 -2.31672 -2.97671 0
M  V30 1644 H 156.148 -1.40015 -2.59769 0
M  V30 1645 H 156.229 -2.31605 -1.08594 0
M  V30 1646 H 155.873 -4.47553 -2.40123 0
M  V30 1647 H 155.803 -3.5288 -3.90875 0
M  V30 1648 H 158.294 -2.81743 -2.51852 0
M  V30 1649 H 158.607 -6.15943 -4.66727 0
M  V30 1650 H 156.952 -5.53514 -4.20294 0
M  V30 1651 H 160.143 -3.5455 -3.05634 0
M  V30 1652 H 160.316 -5.06934 -4.03636 0
M  V30 1653 N 153.722 1.14298 -1.08507 0
M  V30 1654 C 155.133 1.66926 -0.836227 0
M  V30 1655 C 155.484 1.85576 0.63686 0
M  V30 1656 O 154.609 1.56767 1.49175 0
M  V30 1657 C 155.204 3.03219 -1.51142 0
M  V30 1658 C 153.763 3.52876 -1.30979 0
M  V30 1659 C 152.91 2.2833 -1.57356 0
M  V30 1660 H 155.861 0.983491 -1.24552 0
M  V30 1661 H 155.882 3.68726 -0.939211 0
M  V30 1662 H 155.394 2.89612 -2.58353 0
M  V30 1663 H 153.495 3.71703 -0.258429 0
M  V30 1664 H 153.608 4.33586 -2.03814 0
M  V30 1665 H 151.972 2.34454 -0.995164 0
M  V30 1666 H 152.755 2.17298 -2.65775 0
M  V30 1667 N 155.201 0.870884 1.31352 0
M  V30 1668 C 156.111 0.330783 2.32256 0
M  V30 1669 C 157.127 -0.559767 1.6475 0
M  V30 1670 O 158.303 -0.456263 1.96164 0
M  V30 1671 C 155.368 -0.458137 3.4366 0
M  V30 1672 C 154.429 0.460482 4.26823 0
M  V30 1673 C 153.662 -0.290881 5.32907 0
M  V30 1674 O 153.885 -1.51885 5.49806 0
M  V30 1675 O 152.819 0.351732 6.00871 0
M  V30 1676 H 156.645 1.16718 2.80376 0
M  V30 1677 H 154.23 0.634285 1.35267 0
M  V30 1678 H 156.112 -0.905343 4.1156 0
M  V30 1679 H 154.787 -1.27106 2.97701 0
M  V30 1680 H 153.694 0.956207 3.61673 0
M  V30 1681 H 155.027 1.23903 4.7635 0
M  V30 1682 N 156.679 -1.44442 0.630414 0
M  V30 1683 C 157.928 -2.01267 0.132073 0
M  V30 1684 C 158.241 -1.50172 -1.25331 0
M  V30 1685 O 159.447 -1.9912 -1.84562 0
M  V30 1686 C 157.903 -3.59422 0.185362 0
M  V30 1687 C 157.511 -4.19514 1.57201 0
M  V30 1688 C 159.255 -4.23724 -0.256553 0
M  V30 1689 C 157.162 -5.69891 1.58045 0
M  V30 1690 H 156.092 -0.752619 0.0456092 0
M  V30 1691 H 158.743 -1.65666 0.789106 0
M  V30 1692 H 157.125 -3.92318 -0.538759 0
M  V30 1693 H 158.299 -3.98156 2.31966 0
M  V30 1694 H 156.614 -3.67496 1.95795 0
M  V30 1695 H 159.211 -5.34019 -0.269767 0
M  V30 1696 H 159.554 -3.96013 -1.28372 0
M  V30 1697 H 160.087 -3.95629 0.41505 0
M  V30 1698 H 156.826 -6.02336 2.58597 0
M  V30 1699 H 156.346 -5.93373 0.875725 0
M  V30 1700 H 158.025 -6.33515 1.31408 0
M  V30 1701 N 158.157 -0.370918 -1.53173 0
M  V30 1702 C 159.089 0.507823 -2.23503 0
M  V30 1703 C 160.102 1.04182 -1.251 0
M  V30 1704 O 161.291 0.947286 -1.5129 0
M  V30 1705 C 158.391 1.71447 -2.92334 0
M  V30 1706 C 157.564 1.31105 -4.17289 0
M  V30 1707 C 156.623 2.38035 -4.69282 0
M  V30 1708 O 155.649 2.00204 -5.32829 0
M  V30 1709 N 156.851 3.69697 -4.47554 0
M  V30 1710 H 159.616 -0.0946382 -2.99551 0
M  V30 1711 H 157.177 -0.196358 -1.60705 0
M  V30 1712 H 159.169 2.42469 -3.24023 0
M  V30 1713 H 157.739 2.22368 -2.19707 0
M  V30 1714 H 156.959 0.430462 -3.91843 0
M  V30 1715 H 158.247 1.0179 -4.98514 0
M  V30 1716 H 157.645 4.03205 -3.9679 0
M  V30 1717 H 156.202 4.36807 -4.8378 0
M  V30 1718 N 159.635 1.57281 -0.100228 0
M  V30 1719 C 160.565 2.17328 0.853857 0
M  V30 1720 C 161.546 1.10804 1.2906 0
M  V30 1721 O 162.731 1.38963 1.35657 0
M  V30 1722 C 159.861 2.75772 2.11109 0
M  V30 1723 C 158.815 3.87713 1.81279 0
M  V30 1724 C 158.141 4.32882 3.13874 0
M  V30 1725 C 159.441 5.10677 1.09574 0
M  V30 1726 H 161.135 2.97305 0.353545 0
M  V30 1727 H 158.681 1.43009 0.168612 0
M  V30 1728 H 160.634 3.16433 2.78296 0
M  V30 1729 H 159.358 1.93057 2.63432 0
M  V30 1730 H 158.017 3.476 1.16489 0
M  V30 1731 H 157.665 3.47051 3.64095 0
M  V30 1732 H 157.365 5.08358 2.94696 0
M  V30 1733 H 158.889 4.7618 3.82211 0
M  V30 1734 H 160.303 5.48474 1.66879 0
M  V30 1735 H 158.7 5.91615 1.00557 0
M  V30 1736 H 159.77 4.84835 0.0793299 0
M  V30 1737 N 161.113 -0.173488 1.56642 0
M  V30 1738 C 162.063 -1.21941 1.92651 0
M  V30 1739 C 163.047 -1.39912 0.794577 0
M  V30 1740 O 164.239 -1.41919 1.05773 0
M  V30 1741 C 161.368 -2.55935 2.28806 0
M  V30 1742 C 160.454 -2.41667 3.48508 0
M  V30 1743 N 160.845 -1.9711 4.65813 0
M  V30 1744 C 159.143 -2.72499 3.53072 0
M  V30 1745 C 159.844 -1.95253 5.47952 0
M  V30 1746 N 158.82 -2.37575 4.88937 0
M  V30 1747 H 162.622 -0.866581 2.80834 0
M  V30 1748 H 160.136 -0.381776 1.57849 0
M  V30 1749 H 162.133 -3.31511 2.52797 0
M  V30 1750 H 160.793 -2.92022 1.41961 0
M  V30 1751 H 161.804 -1.67481 4.90072 0
M  V30 1752 H 158.481 -3.12639 2.767 0
M  V30 1753 H 159.871 -1.6252 6.51948 0
M  V30 1754 N 162.591 -1.51276 -0.441967 0
M  V30 1755 C 163.539 -1.72823 -1.55676 0
M  V30 1756 C 164.533 -0.59445 -1.58627 0
M  V30 1757 O 165.739 -0.775715 -1.62427 0
M  V30 1758 H 162.114 -0.545983 -0.517113 0
M  V30 1759 H 164.085 -2.6628 -1.34675 0
M  V30 1760 C 162.834 -1.86619 -2.93375 0
M  V30 1761 H 162.157 -2.73264 -2.91834 0
M  V30 1762 H 163.597 -2.05709 -3.70756 0
M  V30 1763 C 162.056 -0.624842 -3.31055 0
M  V30 1764 O 162.586 0.222636 -4.01083 0
M  V30 1765 N 160.792 -0.470288 -2.86769 0
M  V30 1766 H 160.339 -1.161 -2.29953 0
M  V30 1767 H 160.297 0.359051 -3.12343 0
M  V30 1768 N 164.069 0.697108 -1.41344 0
M  V30 1769 C 165.019 1.80313 -1.39539 0
M  V30 1770 C 166.003 1.58618 -0.270001 0
M  V30 1771 O 167.195 1.69477 -0.510551 0
M  V30 1772 C 164.324 3.18606 -1.27848 0
M  V30 1773 C 163.41 3.46001 -2.45244 0
M  V30 1774 N 163.801 3.44103 -3.70711 0
M  V30 1775 C 162.099 3.76542 -2.39023 0
M  V30 1776 C 162.8 3.7036 -4.48563 0
M  V30 1777 N 161.776 3.90027 -3.78655 0
M  V30 1778 H 165.578 1.77207 -2.34468 0
M  V30 1779 H 163.092 0.897031 -1.35378 0
M  V30 1780 H 165.089 3.97833 -1.24637 0
M  V30 1781 H 163.749 3.22925 -0.339032 0
M  V30 1782 H 164.76 3.2452 -4.03618 0
M  V30 1783 H 161.437 3.88241 -1.53542 0
M  V30 1784 H 162.827 3.75042 -5.57488 0
M  V30 1785 N 165.547 1.27147 0.931209 0
M  V30 1786 C 166.793 1.14455 1.68141 0
M  V30 1787 C 167.148 -0.307172 1.89932 0
M  V30 1788 O 166.441 -1.22158 1.47607 0
M  V30 1789 C 166.635 1.8579 3.05314 0
M  V30 1790 C 166.464 3.3775 2.96909 0
M  V30 1791 C 165.234 4.07062 2.99381 0
M  V30 1792 C 167.432 4.33783 2.76291 0
M  V30 1793 N 165.414 5.45618 2.8138 0
M  V30 1794 C 166.785 5.59582 2.6696 0
M  V30 1795 C 168.84 4.23915 2.61152 0
M  V30 1796 C 167.543 6.76639 2.44033 0
M  V30 1797 C 169.569 5.40689 2.39602 0
M  V30 1798 C 168.931 6.65443 2.3101 0
M  V30 1799 H 165.03 0.473667 0.622225 0
M  V30 1800 H 167.614 1.60568 1.10118 0
M  V30 1801 H 165.785 1.42138 3.61457 0
M  V30 1802 H 167.517 1.65634 3.69253 0
M  V30 1803 H 164.272 3.585 3.09475 0
M  V30 1804 H 164.696 6.184 2.75519 0
M  V30 1805 H 169.338 3.28189 2.66555 0
M  V30 1806 H 167.056 7.72451 2.3737 0
M  V30 1807 H 170.642 5.34932 2.28778 0
M  V30 1808 H 169.522 7.54277 2.14558 0
M  V30 1809 N 167.025 -1.13721 1.09112 0
M  V30 1810 C 167.988 -2.17222 0.731241 0
M  V30 1811 C 168.988 -1.59035 -0.237566 0
M  V30 1812 O 170.178 -1.74192 -0.0161704 0
M  V30 1813 C 167.31 -3.40804 0.0808443 0
M  V30 1814 H 168.503 -2.50573 1.64783 0
M  V30 1815 H 166.056 -1.28493 0.889897 0
M  V30 1816 H 166.791 -3.1304 -0.847127 0
M  V30 1817 H 166.576 -3.84306 0.777896 0
M  V30 1818 H 168.066 -4.1731 -0.155657 0
M  V30 1819 N 168.503 -0.877838 -1.30888 0
M  V30 1820 C 169.435 -0.296607 -2.27273 0
M  V30 1821 C 170.448 0.544799 -1.53414 0
M  V30 1822 O 171.637 0.365511 -1.74718 0
M  V30 1823 C 168.737 0.597481 -3.33592 0
M  V30 1824 C 167.91 -0.213251 -4.3688 0
M  V30 1825 C 166.969 0.610208 -5.2265 0
M  V30 1826 O 165.995 0.035441 -5.69189 0
M  V30 1827 N 167.197 1.92071 -5.47804 0
M  V30 1828 H 169.962 -1.12492 -2.77787 0
M  V30 1829 H 167.523 -0.740105 -1.43993 0
M  V30 1830 H 169.515 1.15425 -3.87891 0
M  V30 1831 H 168.085 1.32647 -2.83061 0
M  V30 1832 H 167.305 -0.951466 -3.82545 0
M  V30 1833 H 168.593 -0.769262 -5.02951 0
M  V30 1834 H 167.991 2.4107 -5.11763 0
M  V30 1835 H 166.548 2.42508 -6.05007 0
M  V30 1836 N 169.982 1.44106 -0.638065 0
M  V30 1837 C 170.912 2.33448 0.0494287 0
M  V30 1838 C 171.893 1.48606 0.827672 0
M  V30 1839 O 173.078 1.77308 0.792173 0
M  V30 1840 C 170.208 3.31771 1.02691 0
M  V30 1841 C 169.162 4.26485 0.359823 0
M  V30 1842 C 168.488 5.14729 1.44769 0
M  V30 1843 C 169.788 5.17056 -0.738296 0
M  V30 1844 H 171.482 2.91183 -0.696636 0
M  V30 1845 H 169.028 1.40014 -0.336456 0
M  V30 1846 H 170.981 3.93161 1.51666 0
M  V30 1847 H 169.705 2.7226 1.80395 0
M  V30 1848 H 168.364 3.66437 -0.10934 0
M  V30 1849 H 168.012 4.51566 2.21578 0
M  V30 1850 H 167.712 5.78913 1.00668 0
M  V30 1851 H 169.236 5.78991 1.93911 0
M  V30 1852 H 170.65 5.72342 -0.331354 0
M  V30 1853 H 169.047 5.89879 -1.10286 0
M  V30 1854 H 170.117 4.57652 -1.60258 0
M  V30 1855 N 171.46 0.379036 1.52974 0
M  V30 1856 C 172.688 -0.20679 2.05864 0
M  V30 1857 C 173.103 -1.41356 1.25155 0
M  V30 1858 O 172.46 -1.8009 0.295588 0
M  V30 1859 C 172.511 -0.587045 3.56702 0
M  V30 1860 O 172.232 0.571776 4.34353 0
M  V30 1861 C 173.733 -1.22983 4.25899 0
M  V30 1862 H 170.953 -0.0336123 0.670158 0
M  V30 1863 H 173.497 0.541298 1.97206 0
M  V30 1864 H 171.652 -1.28504 3.65466 0
M  V30 1865 H 172.066 0.261544 5.23847 0
M  V30 1866 H 173.54 -1.44635 5.32715 0
M  V30 1867 H 174.017 -2.19416 3.80465 0
M  V30 1868 H 174.623 -0.572892 4.21424 0
M  V30 1869 N 172.938 -1.57226 0.108567 0
M  V30 1870 C 174.184 -1.95121 -0.552761 0
M  V30 1871 C 174.517 -0.991345 -1.66991 0
M  V30 1872 O 173.792 -0.0267211 -1.94482 0
M  V30 1873 C 174.075 -3.43039 -1.09528 0
M  V30 1874 C 173.928 -4.49797 0.0177332 0
M  V30 1875 C 175.247 -3.92567 -1.98945 0
M  V30 1876 H 172.366 -0.709496 -0.199461 0
M  V30 1877 H 175.008 -1.89126 0.182011 0
M  V30 1878 H 173.158 -3.48279 -1.72146 0
M  V30 1879 H 174.83 -4.56661 0.652584 0
M  V30 1880 H 173.073 -4.284 0.682309 0
M  V30 1881 H 173.744 -5.50528 -0.402919 0
M  V30 1882 H 176.22 -3.89565 -1.46214 0
M  V30 1883 H 175.096 -4.96605 -2.33827 0
M  V30 1884 H 175.357 -3.32648 -2.91201 0
M  V30 1885 N 174.416 0.165178 -1.56732 0
M  V30 1886 C 175.664 0.879068 -1.8198 0
M  V30 1887 C 175.985 1.82514 -0.686561 0
M  V30 1888 O 175.255 1.93694 0.293146 0
M  V30 1889 H 173.835 0.327608 -0.671329 0
M  V30 1890 H 176.497 0.163526 -1.94213 0
M  V30 1891 H 175.593 1.45228 -2.76252 0
M  V30 1892 N 175.894 1.51508 0.433938 0
M  V30 1893 C 176.857 1.72473 1.50949 0
M  V30 1894 C 177.857 0.594725 1.49398 0
M  V30 1895 O 179.047 0.862315 1.5136 0
M  V30 1896 C 176.179 1.78431 2.90474 0
M  V30 1897 H 177.372 2.68467 1.33662 0
M  V30 1898 H 174.925 1.41549 0.662836 0
M  V30 1899 H 175.66 0.842645 3.13161 0
M  V30 1900 H 175.445 2.60558 2.93005 0
M  V30 1901 H 176.935 1.96479 3.68491 0
M  V30 1902 N 177.372 -0.689602 1.41712 0
M  V30 1903 C 178.62 -1.4468 1.4111 0
M  V30 1904 C 178.941 -1.94986 0.0232196 0
M  V30 1905 O 178.211 -1.72097 -0.935913 0
M  V30 1906 H 176.791 -0.536847 0.519427 0
M  V30 1907 H 179.453 -0.815825 1.77004 0
M  V30 1908 H 178.549 -2.30706 2.10193 0
M  V30 1909 N 178.85 -1.27639 -0.924453 0
M  V30 1910 C 180.261 -1.12834 -1.48746 0
M  V30 1911 C 180.612 0.285505 -1.94112 0
M  V30 1912 O 179.737 1.17874 -1.81479 0
M  V30 1913 C 180.332 -2.04217 -2.70334 0
M  V30 1914 C 178.891 -1.93509 -3.22848 0
M  V30 1915 C 178.038 -1.96583 -1.95577 0
M  V30 1916 H 180.989 -1.40484 -0.738233 0
M  V30 1917 H 181.01 -1.59989 -3.4523 0
M  V30 1918 H 180.522 -3.07111 -2.37285 0
M  V30 1919 H 178.623 -0.936131 -3.60649 0
M  V30 1920 H 178.736 -2.79917 -3.88823 0
M  V30 1921 H 177.1 -1.4085 -2.12211 0
M  V30 1922 H 177.883 -3.01137 -1.64837 0
M  V30 1923 N 180.328 1.1314 -1.09713 0
M  V30 1924 C 181.744 1.36477 -0.827423 0
M  V30 1925 C 181.944 1.93654 0.556817 0
M  V30 1926 O 181 2.15791 1.31112 0
M  V30 1927 C 182.313 2.31334 -1.92106 0
M  V30 1928 C 183.861 2.44943 -1.94864 0
M  V30 1929 C 184.336 3.4311 -3.0338 0
M  V30 1930 N 185.827 3.50662 -3.02639 0
M  V30 1931 C 186.562 4.2651 -3.83246 0
M  V30 1932 N 186.058 5.05485 -4.73768 0
M  V30 1933 N 187.851 4.2184 -3.71493 0
M  V30 1934 H 180.002 0.743807 -1.9895 0
M  V30 1935 H 182.265 0.389823 -0.864143 0
M  V30 1936 H 181.971 1.96483 -2.91698 0
M  V30 1937 H 181.845 3.31381 -1.80184 0
M  V30 1938 H 184.232 2.79079 -0.959099 0
M  V30 1939 H 184.313 1.4481 -2.10864 0
M  V30 1940 H 183.957 3.09704 -4.02549 0
M  V30 1941 H 183.887 4.43055 -2.84622 0
M  V30 1942 H 186.378 2.94315 -2.37039 0
M  V30 1943 H 186.691 5.60675 -5.3185 0
M  V30 1944 H 185.036 5.04708 -4.77802 0
M  V30 1945 H 188.227 3.5922 -3.00131 0
M  V30 1946 H 188.4 4.80697 -4.3455 0
M  V30 1947 N 181.806 0.884767 1.30421 0
M  V30 1948 C 182.736 0.367574 2.30589 0
M  V30 1949 C 183.717 -0.549464 1.60981 0
M  V30 1950 O 184.902 -0.46336 1.88591 0
M  V30 1951 C 182.032 -0.418944 3.44764 0
M  V30 1952 C 180.986 0.406316 4.26067 0
M  V30 1953 C 180.312 -0.506793 5.32293 0
M  V30 1954 C 181.612 1.64832 4.95608 0
M  V30 1955 H 183.306 1.20462 2.74097 0
M  V30 1956 H 180.852 0.580695 1.31772 0
M  V30 1957 H 182.805 -0.791395 4.13902 0
M  V30 1958 H 181.529 -1.28964 3.0006 0
M  V30 1959 H 180.188 0.760903 3.58617 0
M  V30 1960 H 179.836 -1.37519 4.83836 0
M  V30 1961 H 179.536 0.0415828 5.87585 0
M  V30 1962 H 181.06 -0.875764 6.04287 0
M  V30 1963 H 182.474 1.34646 5.57264 0
M  V30 1964 H 180.871 2.13688 5.60765 0
M  V30 1965 H 181.941 2.39284 4.21748 0
M  V30 1966 N 183.284 -1.43765 0.645699 0
M  V30 1967 C 184.561 -1.9541 0.0862963 0
M  V30 1968 C 184.941 -1.58725 -1.39175 0
M  V30 1969 O 184.289 -0.868581 -2.11348 0
M  V30 1970 C 184.499 -3.47488 0.324565 0
M  V30 1971 C 185.847 -4.24001 0.225497 0
M  V30 1972 O 186.871 -3.55274 0.256715 0
M  V30 1973 O 185.73 -5.46313 0.142801 0
M  V30 1974 H 182.824 -0.826882 -0.0139483 0
M  V30 1975 H 185.37 -1.53743 0.718415 0
M  V30 1976 H 184.142 -3.67289 1.3496 0
M  V30 1977 H 183.765 -3.96135 -0.340987 0
M  V30 1978 N 184.763 -0.387143 -1.52771 0
M  V30 1979 C 186.04 0.253197 -1.93954 0
M  V30 1980 C 186.42 1.64545 -1.32243 0
M  V30 1981 O 185.768 2.23191 -0.489699 0
M  V30 1982 C 185.978 0.281722 -3.47861 0
M  V30 1983 C 187.326 0.511715 -4.21505 0
M  V30 1984 O 188.35 0.362023 -3.54356 0
M  V30 1985 O 187.209 0.804847 -5.40541 0
M  V30 1986 H 184.303 0.156845 -0.811991 0
M  V30 1987 H 186.849 -0.441494 -1.63856 0
M  V30 1988 H 185.621 -0.693571 -3.85104 0
M  V30 1989 H 185.244 1.02142 -3.84256 0
M  V30 1990 N 186.241 1.57166 -0.116904 0
M  V30 1991 C 187.489 1.94737 0.540533 0
M  V30 1992 C 187.81 1.00096 1.67349 0
M  V30 1993 O 187.08 0.0568854 1.95817 0
M  V30 1994 H 185.66 0.718981 0.202669 0
M  V30 1995 H 188.322 1.94017 -0.185353 0
M  V30 1996 H 187.418 2.97719 0.936483 0
M  V30 1997 N 187.719 -0.156864 1.56817 0
M  V30 1998 C 189.135 -0.50916 1.5126 0
M  V30 1999 C 189.335 -1.83897 0.823658 0
M  V30 2000 O 188.391 -2.49469 0.390055 0
M  V30 2001 C 189.704 -0.52857 2.96018 0
M  V30 2002 C 191.252 -0.614771 3.06903 0
M  V30 2003 C 191.727 -0.664938 4.53147 0
M  V30 2004 N 193.218 -0.727433 4.57452 0
M  V30 2005 C 193.953 -0.787067 5.67973 0
M  V30 2006 N 193.449 -0.806649 6.88088 0
M  V30 2007 N 195.242 -0.827195 5.5598 0
M  V30 2008 H 187.393 0.714935 2.00006 0
M  V30 2009 H 189.656 0.259526 0.911784 0
M  V30 2010 H 189.362 0.380154 3.49639 0
M  V30 2011 H 189.236 -1.36998 3.51442 0
M  V30 2012 H 191.623 -1.51392 2.53307 0
M  V30 2013 H 191.704 0.253597 2.5454 0
M  V30 2014 H 191.348 0.230011 5.07379 0
M  V30 2015 H 191.278 -1.54966 5.03282 0
M  V30 2016 H 193.769 -0.719998 3.70978 0
M  V30 2017 H 194.082 -0.853727 7.6807 0
M  V30 2018 H 192.427 -0.774687 6.90669 0
M  V30 2019 H 195.618 -0.808998 4.61056 0
M  V30 2020 H 195.791 -0.870206 6.4213 0
M  V30 2021 N 189.197 -1.51736 -0.425897 0
M  V30 2022 C 190.443 -1.66174 -1.17294 0
M  V30 2023 C 190.798 -0.37876 -1.88635 0
M  V30 2024 O 190.091 0.626021 -1.81084 0
M  V30 2025 C 190.285 -2.81103 -2.20717 0
M  V30 2026 C 190.114 -4.20453 -1.59529 0
M  V30 2027 C 188.884 -4.86225 -1.37525 0
M  V30 2028 C 191.082 -5.03146 -1.06528 0
M  V30 2029 N 189.064 -6.09657 -0.720537 0
M  V30 2030 C 190.435 -6.17674 -0.536506 0
M  V30 2031 C 192.49 -4.88594 -0.958127 0
M  V30 2032 C 191.193 -7.19245 0.0888917 0
M  V30 2033 C 193.219 -5.90383 -0.346608 0
M  V30 2034 C 192.581 -7.04191 0.171564 0
M  V30 2035 H 188.68 -0.661871 -0.416475 0
M  V30 2036 H 191.264 -1.88997 -0.467801 0
M  V30 2037 H 189.435 -2.59924 -2.88607 0
M  V30 2038 H 191.167 -2.84662 -2.87663 0
M  V30 2039 H 187.922 -4.44293 -1.64015 0
M  V30 2040 H 188.346 -6.75756 -0.410292 0
M  V30 2041 H 192.988 -4.0085 -1.34459 0
M  V30 2042 H 190.706 -8.06628 0.48746 0
M  V30 2043 H 194.292 -5.81194 -0.265451 0
M  V30 2044 H 193.172 -7.81606 0.637309 0
M  V30 2045 N 190.675 0.682077 -1.42076 0
M  V30 2046 C 191.625 1.78823 -1.41444 0
M  V30 2047 C 192.609 1.58323 -0.28681 0
M  V30 2048 O 193.801 1.68926 -0.528498 0
M  V30 2049 C 190.93 3.17232 -1.3122 0
M  V30 2050 C 190.016 3.4338 -2.489 0
M  V30 2051 N 190.407 3.40152 -3.7434 0
M  V30 2052 C 188.705 3.73986 -2.43003 0
M  V30 2053 C 189.406 3.65581 -4.52466 0
M  V30 2054 N 188.382 3.85989 -3.8277 0
M  V30 2055 H 192.184 1.7471 -2.36334 0
M  V30 2056 H 189.698 0.882622 -1.36321 0
M  V30 2057 H 191.695 3.96489 -1.2885 0
M  V30 2058 H 190.355 3.22547 -0.373263 0
M  V30 2059 H 191.366 3.20221 -4.07037 0
M  V30 2060 H 188.043 3.86591 -1.57651 0
M  V30 2061 H 189.433 3.69108 -5.61435 0
M  V30 2062 N 192.153 1.28127 0.917671 0
M  V30 2063 C 193.085 1.07517 2.02417 0
M  V30 2064 C 194.098 0.0281099 1.62776 0
M  V30 2065 O 195.287 0.270748 1.76435 0
M  V30 2066 C 192.387 0.610957 3.33347 0
M  V30 2067 C 191.56 1.73255 4.01624 0
M  V30 2068 C 190.619 1.26238 5.10833 0
M  V30 2069 O 189.645 1.96389 5.34247 0
M  V30 2070 N 190.847 0.123448 5.80369 0
M  V30 2071 H 193.612 2.02806 2.20658 0
M  V30 2072 H 191.173 1.19827 1.08871 0
M  V30 2073 H 193.165 0.280101 4.0373 0
M  V30 2074 H 191.735 -0.24898 3.11607 0
M  V30 2075 H 190.955 2.23319 3.24842 0
M  V30 2076 H 192.243 2.48503 4.43986 0
M  V30 2077 H 191.641 -0.461847 5.63812 0
M  V30 2078 H 190.198 -0.148158 6.51632 0
M  V30 2079 N 193.631 -1.12557 1.10312 0
M  V30 2080 C 194.877 -1.84311 0.846011 0
M  V30 2081 C 195.21 -1.83805 -0.626859 0
M  V30 2082 O 194.485 -1.28268 -1.46211 0
M  V30 2083 C 194.768 -3.32048 1.39341 0
M  V30 2084 C 194.621 -3.41016 2.93305 0
M  V30 2085 C 195.94 -4.27764 1.03468 0
M  V30 2086 H 193.059 -0.669192 0.30879 0
M  V30 2087 H 195.701 -1.32057 1.36605 0
M  V30 2088 H 193.851 -3.76678 0.951087 0
M  V30 2089 H 195.523 -3.05031 3.46055 0
M  V30 2090 H 193.766 -2.81603 3.29973 0
M  V30 2091 H 194.437 -4.44948 3.26689 0
M  V30 2092 H 196.913 -3.91253 1.41633 0
M  V30 2093 H 195.789 -5.29549 1.44463 0
M  V30 2094 H 196.05 -4.42064 -0.0560404 0
M  V30 2095 N 195.109 -0.891671 -1.2995 0
M  V30 2096 C 196.019 -0.367691 -2.31701 0
M  V30 2097 C 197.035 0.533486 -1.6562 0
M  V30 2098 O 198.211 0.424997 -1.96865 0
M  V30 2099 C 195.276 0.403406 -3.44345 0
M  V30 2100 C 194.337 -0.528328 -4.26037 0
M  V30 2101 C 193.57 0.206063 -5.33302 0
M  V30 2102 O 193.793 1.43119 -5.52153 0
M  V30 2103 O 192.727 -0.447281 -6.00236 0
M  V30 2104 H 196.553 -1.21163 -2.78484 0
M  V30 2105 H 194.138 -0.655725 -1.34241 0
M  V30 2106 H 196.02 0.839753 -4.12948 0
M  V30 2107 H 194.695 1.22354 -2.99685 0
M  V30 2108 H 193.602 -1.01362 -3.60106 0
M  V30 2109 H 194.935 -1.31465 -4.74318 0
M  V30 2110 N 196.587 1.43421 -0.653314 0
M  V30 2111 C 197.833 2.02111 -0.166992 0
M  V30 2112 C 198.166 1.51423 1.21592 0
M  V30 2113 O 197.441 0.707389 1.8118 0
M  V30 2114 C 197.724 3.5966 -0.177948 0
M  V30 2115 C 197.577 4.20579 -1.59478 0
M  V30 2116 C 198.896 4.37413 0.4856 0
M  V30 2117 H 196.015 0.734374 -0.0621557 0
M  V30 2118 H 198.657 1.70717 -0.834016 0
M  V30 2119 H 196.807 3.86537 0.390032 0
M  V30 2120 H 198.479 4.04732 -2.21336 0
M  V30 2121 H 196.722 3.77226 -2.14204 0
M  V30 2122 H 197.393 5.29665 -1.5543 0
M  V30 2123 H 199.869 4.161 0.00234528 0
M  V30 2124 H 198.745 5.47075 0.447207 0
M  V30 2125 H 199.006 4.13672 1.55974 0
M  V30 2126 N 198.065 0.39524 1.52563 0
M  V30 2127 C 199.012 -0.437036 2.26624 0
M  V30 2128 C 199.982 -1.05281 1.28472 0
M  V30 2129 O 201.167 -1.07971 1.57311 0
M  V30 2130 C 198.307 -1.55524 3.08069 0
M  V30 2131 C 197.42 -0.961745 4.21158 0
M  V30 2132 C 196.555 -2.05149 4.89987 0
M  V30 2133 C 195.594 -1.4342 5.95061 0
M  V30 2134 N 194.731 -2.46351 6.57462 0
M  V30 2135 H 199.571 0.200976 2.97322 0
M  V30 2136 H 197.108 0.110944 1.46681 0
M  V30 2137 H 199.066 -2.21437 3.53584 0
M  V30 2138 H 197.696 -2.16348 2.3957 0
M  V30 2139 H 196.748 -0.192048 3.79915 0
M  V30 2140 H 198.06 -0.470701 4.96574 0
M  V30 2141 H 197.214 -2.78819 5.38837 0
M  V30 2142 H 195.953 -2.57615 4.14109 0
M  V30 2143 H 194.958 -0.682774 5.45544 0
M  V30 2144 H 196.183 -0.917416 6.72875 0
M  V30 2145 H 194.129 -2.97975 5.8442 0
M  V30 2146 H 194.046 -2.02019 7.28508 0
M  V30 2147 H 195.314 -3.19633 7.10954 0
M  V30 2148 N 199.544 -1.57102 0.125237 0
M  V30 2149 C 200.477 -2.11371 -0.860094 0
M  V30 2150 C 201.455 -1.03168 -1.25679 0
M  V30 2151 O 202.639 -1.30862 -1.35674 0
M  V30 2152 C 199.766 -2.61555 -2.1519 0
M  V30 2153 C 198.812 -3.81701 -1.9028 0
M  V30 2154 S 199.645 -5.23797 -1.11343 0
M  V30 2155 C 200.801 -5.77353 -2.41689 0
M  V30 2156 H 201.034 -2.94617 -0.39852 0
M  V30 2157 H 198.567 -1.54145 -0.0886555 0
M  V30 2158 H 200.525 -2.91122 -2.89411 0
M  V30 2159 H 199.186 -1.78479 -2.58465 0
M  V30 2160 H 198.379 -4.14985 -2.86014 0
M  V30 2161 H 197.981 -3.52783 -1.24178 0
M  V30 2162 H 200.273 -5.87458 -3.37489 0
M  V30 2163 H 201.216 -6.75323 -2.12942 0
M  V30 2164 H 201.624 -5.05457 -2.51342 0
M  V30 2165 N 201.022 0.148545 -1.56898 0
M  V30 2166 C 201.932 1.20293 -2.01412 0
M  V30 2167 C 202.948 1.47107 -0.929273 0
M  V30 2168 O 204.124 1.58807 -1.23863 0
M  V30 2169 C 201.189 2.51682 -2.38447 0
M  V30 2170 C 200.25 2.32529 -3.60872 0
M  V30 2171 C 199.483 3.57653 -3.96132 0
M  V30 2172 O 199.706 4.63771 -3.32073 0
M  V30 2173 O 198.64 3.50408 -4.89385 0
M  V30 2174 H 202.466 0.855025 -2.91416 0
M  V30 2175 H 200.051 0.357151 -1.45068 0
M  V30 2176 H 201.933 3.29147 -2.63135 0
M  V30 2177 H 200.608 2.86006 -1.51599 0
M  V30 2178 H 199.515 1.53019 -3.41373 0
M  V30 2179 H 200.848 2.03121 -4.48333 0
M  V30 2180 N 202.5 1.5196 0.417844 0
M  V30 2181 C 203.748 1.65263 1.16329 0
M  V30 2182 C 204.069 0.380634 1.91249 0
M  V30 2183 O 203.339 -0.604214 1.86349 0
M  V30 2184 H 201.919 0.60912 0.432414 0
M  V30 2185 H 204.581 1.88969 0.477162 0
M  V30 2186 H 203.677 2.4896 1.88217 0
M  V30 2187 N 203.978 -0.674533 1.42435 0
M  V30 2188 C 205.255 -1.4305 1.33402 0
M  V30 2189 C 205.635 -2.11081 -0.0284674 0
M  V30 2190 O 204.983 -2.03257 -1.04397 0
M  V30 2191 C 205.193 -2.43272 2.50239 0
M  V30 2192 C 206.541 -3.07907 2.92367 0
M  V30 2193 O 207.565 -2.53599 2.50132 0
M  V30 2194 O 206.424 -4.0632 3.65467 0
M  V30 2195 H 203.518 -0.638076 0.526106 0
M  V30 2196 H 206.064 -0.703235 1.54443 0
M  V30 2197 H 204.836 -1.91803 3.41068 0
M  V30 2198 H 204.459 -3.23479 2.31186 0
M  V30 2199 N 205.456 -1.28612 -0.910864 0
M  V30 2200 C 206.681 -1.1891 -1.69927 0
M  V30 2201 C 207.106 0.248372 -1.86453 0
M  V30 2202 O 206.464 1.17961 -1.37676 0
M  V30 2203 C 206.512 -1.89578 -3.06745 0
M  V30 2204 O 205.616 -1.20521 -3.94396 0
M  V30 2205 H 204.957 -0.412632 -0.520222 0
M  V30 2206 H 207.487 -1.69985 -1.1387 0
M  V30 2207 H 207.497 -1.97597 -3.56958 0
M  V30 2208 H 206.172 -2.94136 -2.94035 0
M  V30 2209 H 204.749 -1.20684 -3.52831 0
M  V30 2210 N 206.934 1.1197 -1.10907 0
M  V30 2211 C 208.18 1.8386 -0.855773 0
M  V30 2212 C 208.513 1.84134 0.617103 0
M  V30 2213 O 207.788 1.29041 1.45529 0
M  V30 2214 C 208.071 3.31305 -1.411 0
M  V30 2215 C 207.924 3.39456 -2.9511 0
M  V30 2216 C 209.243 4.2721 -1.05736 0
M  V30 2217 H 206.362 0.667545 -0.312334 0
M  V30 2218 H 209.004 1.31331 -1.37303 0
M  V30 2219 H 207.154 3.76169 -0.97105 0
M  V30 2220 H 208.826 3.03191 -3.47668 0
M  V30 2221 H 207.069 2.79849 -3.31462 0
M  V30 2222 H 207.74 4.43209 -3.29044 0
M  V30 2223 H 210.216 3.90497 -1.43706 0
M  V30 2224 H 209.092 5.28775 -1.47269 0
M  V30 2225 H 209.353 4.42088 0.0325958 0
M  V30 2226 N 208.412 0.89855 1.29475 0
M  V30 2227 C 209.342 0.39201 2.30186 0
M  V30 2228 C 210.323 -0.532359 1.61555 0
M  V30 2229 O 211.508 -0.443331 1.89072 0
M  V30 2230 C 208.638 -0.382353 3.45189 0
M  V30 2231 C 207.592 0.451483 4.25612 0
M  V30 2232 C 206.918 -0.450307 5.328 0
M  V30 2233 C 208.218 1.70079 4.93832 0
M  V30 2234 H 209.912 1.23362 2.72804 0
M  V30 2235 H 207.458 0.594638 1.31149 0
M  V30 2236 H 209.411 -0.747451 4.14718 0
M  V30 2237 H 208.135 -1.25774 3.01411 0
M  V30 2238 H 206.794 0.798897 3.57789 0
M  V30 2239 H 206.442 -1.32379 4.85268 0
M  V30 2240 H 206.142 0.103902 5.87508 0
M  V30 2241 H 207.666 -0.811623 6.05182 0
M  V30 2242 H 209.08 1.40549 5.55805 0
M  V30 2243 H 207.477 2.19623 5.58467 0
M  V30 2244 H 208.547 2.43744 4.19186 0
M  V30 2245 N 209.89 -1.43072 0.660911 0
M  V30 2246 C 210.82 -2.33497 -0.0122829 0
M  V30 2247 C 211.801 -1.49903 -0.803925 0
M  V30 2248 O 212.986 -1.78546 -0.763864 0
M  V30 2249 C 210.116 -3.33363 -0.973994 0
M  V30 2250 C 209.07 -4.27003 -0.291928 0
M  V30 2251 C 208.396 -5.16967 -1.36562 0
M  V30 2252 C 209.696 -5.15816 0.820462 0
M  V30 2253 H 211.39 -2.90038 0.742873 0
M  V30 2254 H 208.936 -1.39461 0.358688 0
M  V30 2255 H 210.889 -3.95524 -1.45392 0
M  V30 2256 H 209.613 -2.75095 -1.7604 0
M  V30 2257 H 208.272 -3.66217 0.167623 0
M  V30 2258 H 207.92 -4.55034 -2.14366 0
M  V30 2259 H 207.62 -5.80441 -0.914454 0
M  V30 2260 H 209.144 -5.82003 -1.84675 0
M  V30 2261 H 210.558 -5.71742 0.422366 0
M  V30 2262 H 208.955 -5.8805 1.19656 0
M  V30 2263 H 210.025 -4.55045 1.67518 0
M  V30 2264 N 211.368 -0.403325 -1.52352 0
M  V30 2265 C 212.278 0.432009 -2.30588 0
M  V30 2266 C 213.294 1.05884 -1.38075 0
M  V30 2267 O 214.47 1.06161 -1.71148 0
M  V30 2268 C 211.535 1.53669 -3.10784 0
M  V30 2269 C 210.596 0.933525 -4.19027 0
M  V30 2270 C 209.829 1.98557 -4.9539 0
M  V30 2271 O 210.052 3.20283 -4.71991 0
M  V30 2272 O 208.986 1.59504 -5.80381 0
M  V30 2273 H 212.812 -0.205739 -3.03002 0
M  V30 2274 H 210.397 -0.166675 -1.48467 0
M  V30 2275 H 212.279 2.17814 -3.60742 0
M  V30 2276 H 210.954 2.15915 -2.41169 0
M  V30 2277 H 209.861 0.254954 -3.7323 0
M  V30 2278 H 211.194 0.35508 -4.90918 0
M  V30 2279 N 212.846 1.57033 -0.133567 0
M  V30 2280 C 214.092 1.95976 0.521649 0
M  V30 2281 C 214.425 1.01779 1.65393 0
M  V30 2282 O 213.7 0.0576581 1.94415 0
M  V30 2283 C 213.983 3.44738 1.04057 0
M  V30 2284 C 213.836 4.49711 -0.0892897 0
M  V30 2285 C 215.155 3.95682 1.92675 0
M  V30 2286 H 212.274 0.712579 0.188149 0
M  V30 2287 H 214.916 1.88813 -0.212076 0
M  V30 2288 H 213.066 3.50973 1.66583 0
M  V30 2289 H 214.738 4.55565 -0.725152 0
M  V30 2290 H 212.981 4.27261 -0.750378 0
M  V30 2291 H 213.652 5.51099 0.315284 0
M  V30 2292 H 216.128 3.91841 1.39998 0
M  V30 2293 H 215.004 5.00262 2.25897 0
M  V30 2294 H 215.265 3.37239 2.85872 0
M  V30 2295 N 214.325 -0.140222 1.56975 0
M  V30 2296 C 215.602 -0.880769 1.74648 0
M  V30 2297 C 215.982 -1.99036 0.703404 0
M  V30 2298 O 215.33 -2.26821 -0.27648 0
M  V30 2299 C 215.54 -1.417 3.18939 0
M  V30 2300 C 216.888 -1.87774 3.80823 0
M  V30 2301 O 217.912 -1.51427 3.2241 0
M  V30 2302 O 216.771 -2.54827 4.83452 0
M  V30 2303 H 213.865 -0.416713 0.714338 0
M  V30 2304 H 216.411 -0.125618 1.69234 0
M  V30 2305 H 215.183 -0.619902 3.86359 0
M  V30 2306 H 214.806 -2.23546 3.28805 0
M  V30 2307 N 215.803 -1.52179 -0.40978 0
M  V30 2308 C 217.051 -1.65878 -1.15451 0
M  V30 2309 C 217.372 -0.390771 -1.91044 0
M  V30 2310 O 216.642 0.594323 -1.86667 0
M  V30 2311 H 215.222 -0.611405 -0.429177 0
M  V30 2312 H 217.884 -1.89219 -0.467134 0
M  V30 2313 H 216.98 -2.49954 -1.86894 0
M  V30 2314 N 217.281 0.66697 -1.42791 0
M  V30 2315 C 218.191 1.80962 -1.49299 0
M  V30 2316 C 219.207 1.69775 -0.381108 0
M  V30 2317 O 220.383 1.91188 -0.633188 0
M  V30 2318 C 217.448 3.17156 -1.40045 0
M  V30 2319 C 216.509 3.40242 -2.6179 0
M  V30 2320 C 215.742 4.69939 -2.52969 0
M  V30 2321 O 215.965 5.48372 -1.56985 0
M  V30 2322 O 214.899 4.94441 -3.43237 0
M  V30 2323 H 218.725 1.78427 -2.45759 0
M  V30 2324 H 216.31 0.823713 -1.24641 0
M  V30 2325 H 218.192 3.98413 -1.37276 0
M  V30 2326 H 216.867 3.20312 -0.467138 0
M  V30 2327 H 215.774 2.58802 -2.70134 0
M  V30 2328 H 217.107 3.41923 -3.54047 0
M  V30 2329 N 218.759 1.29093 0.90403 0
M  V30 2330 C 219.669 1.15727 2.0407 0
M  V30 2331 C 220.685 0.0815308 1.73809 0
M  V30 2332 O 221.861 0.292749 1.99261 0
M  V30 2333 C 218.926 0.830424 3.36608 0
M  V30 2334 C 217.987 1.98955 3.80415 0
M  V30 2335 C 217.22 1.6782 5.06628 0
M  V30 2336 O 217.443 0.597105 5.67266 0
M  V30 2337 O 216.377 2.52486 5.46383 0
M  V30 2338 H 220.203 2.11171 2.18267 0
M  V30 2339 H 217.788 1.08504 1.027 0
M  V30 2340 H 219.67 0.662521 4.16159 0
M  V30 2341 H 218.345 -0.0942678 3.23563 0
M  V30 2342 H 217.252 2.21267 3.01648 0
M  V30 2343 H 218.585 2.89529 3.98037 0
M  V30 2344 N 220.237 -1.11381 1.11499 0
M  V30 2345 C 221.483 -1.83403 0.865512 0
M  V30 2346 C 221.816 -1.84459 -0.607329 0
M  V30 2347 O 221.091 -1.29811 -1.44842 0
M  V30 2348 C 221.374 -3.30552 1.42855 0
M  V30 2349 C 221.227 -3.37886 2.96906 0
M  V30 2350 C 222.546 -4.26643 1.08 0
M  V30 2351 H 219.665 -0.665879 0.31587 0
M  V30 2352 H 222.307 -1.30601 1.37998 0
M  V30 2353 H 220.457 -3.75648 0.990985 0
M  V30 2354 H 222.129 -3.01343 3.49271 0
M  V30 2355 H 220.372 -2.78088 3.32941 0
M  V30 2356 H 221.043 -4.41458 3.31389 0
M  V30 2357 H 223.519 -3.89729 1.45775 0
M  V30 2358 H 222.395 -5.27986 1.50072 0
M  V30 2359 H 222.656 -4.42099 -0.00915037 0
M  V30 2360 N 221.715 -0.905404 -1.28997 0
M  V30 2361 C 222.645 -0.404212 -2.29975 0
M  V30 2362 C 223.626 0.523784 -1.61835 0
M  V30 2363 O 224.811 0.433298 -1.89304 0
M  V30 2364 C 221.941 0.364042 -3.45387 0
M  V30 2365 C 220.895 -0.474048 -4.25367 0
M  V30 2366 C 220.221 0.422045 -5.33032 0
M  V30 2367 C 221.521 -1.72696 -4.92923 0
M  V30 2368 H 223.215 -1.24807 -2.72146 0
M  V30 2369 H 220.761 -0.601585 -1.30832 0
M  V30 2370 H 222.714 0.725447 -4.15109 0
M  V30 2371 H 221.438 1.24174 -3.02074 0
M  V30 2372 H 220.097 -0.81786 -3.57361 0
M  V30 2373 H 219.745 1.29804 -4.85963 0
M  V30 2374 H 219.445 -0.135057 -5.87445 0
M  V30 2375 H 220.969 0.779517 -6.05604 0
M  V30 2376 H 222.383 -1.43495 -5.55051 0
M  V30 2377 H 220.78 -2.22582 -5.57295 0
M  V30 2378 H 221.85 -2.45964 -4.17887 0
M  V30 2379 N 223.193 1.4272 -0.668489 0
M  V30 2380 C 224.609 1.55992 -0.33745 0
M  V30 2381 C 224.809 1.64933 1.15756 0
M  V30 2382 O 223.865 1.61278 1.94282 0
M  V30 2383 C 225.178 2.81314 -1.06222 0
M  V30 2384 C 226.726 2.95078 -1.04394 0
M  V30 2385 C 227.201 4.23252 -1.74991 0
M  V30 2386 N 228.692 4.3015 -1.71829 0
M  V30 2387 C 229.427 5.28127 -2.23315 0
M  V30 2388 N 228.923 6.32293 -2.83156 0
M  V30 2389 N 230.716 5.19882 -2.13726 0
M  V30 2390 H 222.867 1.3516 -1.63846 0
M  V30 2391 H 225.13 0.650174 -0.689912 0
M  V30 2392 H 224.836 2.80823 -2.11734 0
M  V30 2393 H 224.71 3.72012 -0.62344 0
M  V30 2394 H 227.097 2.951 0.0028244 0
M  V30 2395 H 227.178 2.05627 -1.52155 0
M  V30 2396 H 226.822 4.2399 -2.79633 0
M  V30 2397 H 226.752 5.11626 -1.24685 0
M  V30 2398 H 229.243 3.55499 -1.28175 0
M  V30 2399 H 229.556 7.03398 -3.20079 0
M  V30 2400 H 227.901 6.32873 -2.87223 0
M  V30 2401 H 231.092 4.37423 -1.66669 0
M  V30 2402 H 231.265 5.96077 -2.54158 0
M  V30 2403 N 224.671 0.411399 1.52136 0
M  V30 2404 C 225.601 -0.404015 2.29978 0
M  V30 2405 C 226.582 -1.04412 1.34284 0
M  V30 2406 O 227.767 -1.0527 1.63192 0
M  V30 2407 C 224.897 -1.5197 3.12286 0
M  V30 2408 C 223.851 -1.00448 4.16046 0
M  V30 2409 C 223.177 -2.21393 4.86712 0
M  V30 2410 C 224.477 -0.0569336 5.22269 0
M  V30 2411 H 226.171 0.245529 2.98392 0
M  V30 2412 H 223.717 0.119525 1.43503 0
M  V30 2413 H 225.67 -2.09715 3.6551 0
M  V30 2414 H 224.394 -2.19716 2.41646 0
M  V30 2415 H 223.053 -0.449421 3.63835 0
M  V30 2416 H 222.701 -2.87699 4.12599 0
M  V30 2417 H 222.401 -1.87571 5.56858 0
M  V30 2418 H 223.925 -2.7974 5.4275 0
M  V30 2419 H 225.339 -0.54325 5.7072 0
M  V30 2420 H 223.736 0.192594 5.99791 0
M  V30 2421 H 224.806 0.887663 4.76706 0
M  V30 2422 N 226.149 -1.5696 0.141893 0
M  V30 2423 C 227.565 -1.58151 -0.21456 0
M  V30 2424 C 227.765 -1.1559 -1.65049 0
M  V30 2425 O 226.821 -0.853832 -2.37626 0
M  V30 2426 C 228.134 -3.00674 0.0395576 0
M  V30 2427 C 229.682 -3.1299 -0.0245529 0
M  V30 2428 C 230.157 -4.57554 0.202167 0
M  V30 2429 N 231.648 -4.62961 0.148919 0
M  V30 2430 C 232.383 -5.7262 0.298924 0
M  V30 2431 N 231.879 -6.90947 0.50637 0
M  V30 2432 N 233.672 -5.61601 0.236886 0
M  V30 2433 H 225.823 -1.8292 1.07953 0
M  V30 2434 H 228.086 -0.846425 0.42693 0
M  V30 2435 H 227.792 -3.36183 1.03315 0
M  V30 2436 H 227.666 -3.70981 -0.682143 0
M  V30 2437 H 230.053 -2.77326 -1.00869 0
M  V30 2438 H 230.134 -2.4518 0.729396 0
M  V30 2439 H 229.778 -4.93922 1.18338 0
M  V30 2440 H 229.708 -5.23484 -0.572044 0
M  V30 2441 H 232.199 -3.77899 -0.00697015 0
M  V30 2442 H 232.512 -7.7038 0.611076 0
M  V30 2443 H 230.857 -6.92878 0.542628 0
M  V30 2444 H 234.048 -4.68039 0.0756209 0
M  V30 2445 H 234.221 -6.47015 0.357227 0
M  V30 2446 N 227.627 0.131896 -1.57047 0
M  V30 2447 C 228.559 1.1878 -1.9602 0
M  V30 2448 C 229.572 1.38363 -0.857875 0
M  V30 2449 O 230.761 1.37666 -1.13623 0
M  V30 2450 C 227.861 2.55008 -2.23213 0
M  V30 2451 C 227.034 2.56201 -3.54513 0
M  V30 2452 C 226.093 3.7408 -3.70069 0
M  V30 2453 O 225.119 3.58258 -4.42312 0
M  V30 2454 N 226.321 4.92137 -3.07866 0
M  V30 2455 H 229.086 0.85639 -2.87204 0
M  V30 2456 H 226.647 0.321309 -1.5868 0
M  V30 2457 H 228.639 3.32404 -2.30846 0
M  V30 2458 H 227.209 2.80382 -1.3822 0
M  V30 2459 H 226.429 1.64613 -3.58185 0
M  V30 2460 H 227.717 2.54043 -4.4084 0
M  V30 2461 H 227.115 5.07895 -2.49116 0
M  V30 2462 H 225.672 5.67254 -3.21039 0
M  V30 2463 N 229.106 1.52395 0.401703 0
M  V30 2464 C 230.352 1.67065 1.14966 0
M  V30 2465 C 230.685 0.403052 1.89971 0
M  V30 2466 O 229.96 -0.598774 1.85054 0
M  V30 2467 C 230.243 2.8975 2.13815 0
M  V30 2468 C 230.096 4.26578 1.42658 0
M  V30 2469 C 231.415 3.07965 3.14397 0
M  V30 2470 H 228.534 0.607968 0.416587 0
M  V30 2471 H 231.176 1.84965 0.434511 0
M  V30 2472 H 229.326 2.74619 2.74803 0
M  V30 2473 H 230.998 4.53451 0.847329 0
M  V30 2474 H 229.241 4.27639 0.72849 0
M  V30 2475 H 229.912 5.08483 2.14823 0
M  V30 2476 H 232.388 3.22043 2.63491 0
M  V30 2477 H 231.264 3.95308 3.80819 0
M  V30 2478 H 231.525 2.21611 3.82545 0
M  V30 2479 N 230.584 -0.659388 1.43143 0
M  V30 2480 C 231.809 -1.45221 1.48073 0
M  V30 2481 C 232.234 -1.87845 0.097995 0
M  V30 2482 O 231.592 -1.56985 -0.90694 0
M  V30 2483 C 231.64 -2.66748 2.42647 0
M  V30 2484 O 230.744 -3.65583 1.90848 0
M  V30 2485 H 230.085 -0.435669 0.501088 0
M  V30 2486 H 232.615 -0.807432 1.87994 0
M  V30 2487 H 232.625 -3.14637 2.59745 0
M  V30 2488 H 231.3 -2.35067 3.43098 0
M  V30 2489 H 229.877 -3.24693 1.83381 0
M  V30 2490 N 232.062 -1.29571 -0.897171 0
M  V30 2491 C 233.31 -1.17456 -1.64464 0
M  V30 2492 C 233.631 0.273698 -1.9307 0
M  V30 2493 O 232.901 1.18684 -1.55855 0
M  V30 2494 H 231.481 -0.431706 -0.609622 0
M  V30 2495 H 234.143 -1.62531 -1.07562 0
M  V30 2496 H 233.239 -1.72648 -2.59998 0
M  V30 2497 N 233.54 1.10788 -1.12088 0
M  V30 2498 C 234.951 1.64181 -0.88891 0
M  V30 2499 C 235.302 1.87508 0.577498 0
M  V30 2500 O 234.427 1.61434 1.44112 0
M  V30 2501 C 235.022 2.98257 -1.60712 0
M  V30 2502 C 233.581 3.4853 -1.42139 0
M  V30 2503 C 232.728 2.23208 -1.6454 0
M  V30 2504 H 235.679 0.943368 -1.27618 0
M  V30 2505 H 235.7 3.65552 -1.05604 0
M  V30 2506 H 235.212 2.81246 -2.67436 0
M  V30 2507 H 233.313 3.70692 -0.376552 0
M  V30 2508 H 233.426 4.26882 -2.17505 0
M  V30 2509 H 231.79 2.31169 -1.06925 0
M  V30 2510 H 232.573 2.08733 -2.72554 0
M  V30 2511 N 235.018 0.912232 1.28515 0
M  V30 2512 C 235.948 0.416403 2.29757 0
M  V30 2513 C 236.929 -0.515194 1.6211 0
M  V30 2514 O 238.114 -0.423253 1.89532 0
M  V30 2515 C 235.244 -0.34572 3.45575 0
M  V30 2516 C 234.198 0.496599 4.25109 0
M  V30 2517 C 233.524 -0.393771 5.33248 0
M  V30 2518 C 234.824 1.75307 4.92001 0
M  V30 2519 H 236.518 1.26249 2.7148 0
M  V30 2520 H 234.064 0.608515 1.30511 0
M  V30 2521 H 236.017 -0.703422 4.15488 0
M  V30 2522 H 234.741 -1.2257 3.02728 0
M  V30 2523 H 233.4 0.8368 3.56922 0
M  V30 2524 H 233.048 -1.27225 4.86644 0
M  V30 2525 H 232.748 0.166209 5.87365 0
M  V30 2526 H 234.272 -0.747389 6.06009 0
M  V30 2527 H 235.686 1.46437 5.54283 0
M  V30 2528 H 234.083 2.25534 5.56106 0
M  V30 2529 H 235.153 2.48176 4.16577 0
M  V30 2530 N 236.496 -1.42363 0.676048 0
M  V30 2531 C 237.724 -2.05859 0.207268 0
M  V30 2532 C 238.139 -1.50796 -1.13605 0
M  V30 2533 O 237.496 -0.648265 -1.70598 0
M  V30 2534 C 237.547 -3.61248 0.134975 0
M  V30 2535 O 237.268 -4.1427 1.42521 0
M  V30 2536 C 238.769 -4.41859 -0.357151 0
M  V30 2537 H 235.989 -0.663431 0.100503 0
M  V30 2538 H 238.533 -1.82479 0.923136 0
M  V30 2539 H 236.688 -3.83735 -0.531588 0
M  V30 2540 H 237.102 -5.0815 1.29939 0
M  V30 2541 H 238.576 -5.50847 -0.356641 0
M  V30 2542 H 239.053 -4.16536 -1.39264 0
M  V30 2543 H 239.659 -4.24392 0.27772 0
M  V30 2544 N 237.974 -0.419461 -1.51915 0
M  V30 2545 C 239.199 0.154572 -2.06823 0
M  V30 2546 C 239.624 1.3722 -1.28656 0
M  V30 2547 O 238.982 1.78461 -0.319583 0
M  V30 2548 C 239.03 0.473172 -3.57482 0
M  V30 2549 O 238.134 1.56255 -3.81652 0
M  V30 2550 H 237.475 0.0096924 -0.663929 0
M  V30 2551 H 240.005 -0.595642 -1.95738 0
M  V30 2552 H 240.015 0.728825 -4.01438 0
M  V30 2553 H 238.69 -0.416873 -4.13805 0
M  V30 2554 H 237.267 1.29825 -3.49571 0
M  V30 2555 N 239.452 1.56882 -0.150215 0
M  V30 2556 C 240.399 2.16922 0.788244 0
M  V30 2557 C 241.369 1.10303 1.24187 0
M  V30 2558 O 242.554 1.38359 1.31383 0
M  V30 2559 C 239.694 2.79754 2.02068 0
M  V30 2560 C 238.807 4.00775 1.61257 0
M  V30 2561 C 237.942 4.51595 2.79705 0
M  V30 2562 C 236.981 5.65074 2.35282 0
M  V30 2563 N 236.118 6.10499 3.4675 0
M  V30 2564 H 240.958 2.96779 0.269444 0
M  V30 2565 H 238.495 1.46599 0.12128 0
M  V30 2566 H 240.453 3.14329 2.74323 0
M  V30 2567 H 239.083 2.02536 2.51354 0
M  V30 2568 H 238.135 3.72158 0.787553 0
M  V30 2569 H 239.447 4.82978 1.24633 0
M  V30 2570 H 238.601 4.88242 3.60145 0
M  V30 2571 H 237.34 3.68406 3.19576 0
M  V30 2572 H 236.345 5.28 1.53283 0
M  V30 2573 H 237.57 6.50052 1.96493 0
M  V30 2574 H 235.516 5.30243 3.86236 0
M  V30 2575 H 235.433 6.87637 3.14152 0
M  V30 2576 H 236.701 6.51791 4.27537 0
M  V30 2577 N 240.93 -0.123565 1.57115 0
M  V30 2578 C 242.346 -0.476961 1.52306 0
M  V30 2579 C 242.546 -1.82109 0.86248 0
M  V30 2580 O 241.602 -2.48586 0.442884 0
M  V30 2581 C 242.915 -0.465661 2.97073 0
M  V30 2582 C 244.463 -0.549534 3.08138 0
M  V30 2583 C 244.938 -0.568669 4.54456 0
M  V30 2584 N 246.429 -0.630237 4.58892 0
M  V30 2585 C 247.164 -0.666415 5.69514 0
M  V30 2586 N 246.66 -0.660514 6.89644 0
M  V30 2587 N 248.453 -0.709077 5.5761 0
M  V30 2588 H 240.604 0.757198 1.98445 0
M  V30 2589 H 242.867 0.278808 0.906074 0
M  V30 2590 H 242.573 0.454232 3.48754 0
M  V30 2591 H 242.447 -1.29513 3.54269 0
M  V30 2592 H 244.834 -1.45985 2.56461 0
M  V30 2593 H 244.915 0.307532 2.53945 0
M  V30 2594 H 244.559 0.337581 5.06777 0
M  V30 2595 H 244.489 -1.44256 5.06456 0
M  V30 2596 H 246.98 -0.641146 3.72421 0
M  V30 2597 H 247.293 -0.690616 7.69708 0
M  V30 2598 H 245.638 -0.628012 6.92157 0
M  V30 2599 H 248.829 -0.711019 4.62668 0
M  V30 2600 H 249.002 -0.733804 6.43832 0
M  V30 2601 N 242.408 -1.52605 -0.393616 0
M  V30 2602 C 243.358 -1.73436 -1.48 0
M  V30 2603 C 244.342 -0.588386 -1.49756 0
M  V30 2604 O 245.534 -0.846047 -1.5547 0
M  V30 2605 C 242.663 -1.90247 -2.85764 0
M  V30 2606 C 241.749 -3.10763 -2.88595 0
M  V30 2607 N 242.14 -4.33196 -2.61103 0
M  V30 2608 C 240.438 -3.10914 -3.19763 0
M  V30 2609 C 241.139 -5.1477 -2.70899 0
M  V30 2610 N 240.115 -4.50356 -3.04435 0
M  V30 2611 H 243.917 -2.65727 -1.25563 0
M  V30 2612 H 241.431 -1.5085 -0.601513 0
M  V30 2613 H 243.428 -2.03291 -3.63976 0
M  V30 2614 H 242.088 -0.991663 -3.09186 0
M  V30 2615 H 243.099 -4.61408 -2.35209 0
M  V30 2616 H 239.776 -2.29626 -3.4868 0
M  V30 2617 H 241.166 -6.22355 -2.53227 0
M  V30 2618 N 243.887 0.651787 -1.4349 0
M  V30 2619 C 245.298 1.233 -1.40193 0
M  V30 2620 C 245.649 1.9591 -0.106727 0
M  V30 2621 O 244.774 2.01316 0.793773 0
M  V30 2622 C 245.369 2.24257 -2.53957 0
M  V30 2623 C 243.928 2.77852 -2.5392 0
M  V30 2624 C 243.075 1.52517 -2.3159 0
M  V30 2625 H 246.026 0.443717 -1.52371 0
M  V30 2626 H 246.047 3.0646 -2.25528 0
M  V30 2627 H 245.559 1.71382 -3.4821 0
M  V30 2628 H 243.66 3.34786 -1.63551 0
M  V30 2629 H 243.773 3.25299 -3.51735 0
M  V30 2630 H 242.137 1.79915 -1.80285 0
M  V30 2631 H 242.92 1.01574 -3.27929 0
M  V30 2632 N 245.365 1.30045 0.890287 0
M  V30 2633 C 246.614 1.17929 1.63633 0
M  V30 2634 C 246.927 -0.266204 1.9378 0
M  V30 2635 O 248.133 -0.508804 2.6669 0
M  V30 2636 C 246.589 2.06317 2.94892 0
M  V30 2637 C 246.197 3.55745 2.72305 0
M  V30 2638 C 247.941 2.0295 3.72843 0
M  V30 2639 C 245.848 4.36205 3.99348 0
M  V30 2640 H 244.778 0.437782 0.613892 0
M  V30 2641 H 247.429 1.54754 0.986075 0
M  V30 2642 H 245.811 1.6237 3.61182 0
M  V30 2643 H 246.985 4.07805 2.1455 0
M  V30 2644 H 245.3 3.6088 2.07737 0
M  V30 2645 H 247.897 2.60319 4.67053 0
M  V30 2646 H 248.24 1.0117 4.0382 0
M  V30 2647 H 248.773 2.4499 3.13408 0
M  V30 2648 H 245.512 5.38659 3.73533 0
M  V30 2649 H 245.032 3.8891 4.56628 0
M  V30 2650 H 246.711 4.47362 4.67415 0
M  V30 2651 N 246.843 -1.10192 1.12674 0
M  V30 2652 C 247.776 -2.15847 0.740625 0
M  V30 2653 C 248.754 -1.60352 -0.269421 0
M  V30 2654 O 249.938 -1.87796 -0.16278 0
M  V30 2655 C 247.065 -3.38562 0.096641 0
M  V30 2656 C 246.111 -4.12758 1.07391 0
M  V30 2657 S 246.944 -4.67997 2.60267 0
M  V30 2658 C 248.1 -5.94021 1.97206 0
M  V30 2659 H 248.333 -2.48266 1.63558 0
M  V30 2660 H 245.866 -1.22019 0.946087 0
M  V30 2661 H 247.824 -4.09621 -0.268535 0
M  V30 2662 H 246.485 -3.04377 -0.775462 0
M  V30 2663 H 245.678 -5.00755 0.570997 0
M  V30 2664 H 245.28 -3.47523 1.38216 0
M  V30 2665 H 247.572 -6.64589 1.31634 0
M  V30 2666 H 248.515 -6.48979 2.83253 0
M  V30 2667 H 248.923 -5.46169 1.42686 0
M  V30 2668 N 248.321 -0.919034 -1.28029 0
M  V30 2669 C 249.737 -0.617972 -1.4715 0
M  V30 2670 C 249.937 0.835242 -1.83374 0
M  V30 2671 O 248.993 1.61388 -1.94191 0
M  V30 2672 C 250.306 -1.56041 -2.57044 0
M  V30 2673 C 251.854 -1.56769 -2.7091 0
M  V30 2674 C 252.329 -2.49688 -3.83953 0
M  V30 2675 N 253.82 -2.47845 -3.91314 0
M  V30 2676 C 254.555 -3.16437 -4.78179 0
M  V30 2677 N 254.051 -3.94376 -5.69596 0
M  V30 2678 N 255.844 -3.05498 -4.71834 0
M  V30 2679 H 247.995 -1.85866 -1.02798 0
M  V30 2680 H 250.258 -0.797506 -0.512531 0
M  V30 2681 H 249.964 -2.59671 -2.372 0
M  V30 2682 H 249.838 -1.29551 -3.54255 0
M  V30 2683 H 252.225 -0.538745 -2.90141 0
M  V30 2684 H 252.306 -1.87305 -1.74214 0
M  V30 2685 H 251.95 -3.52688 -3.65477 0
M  V30 2686 H 251.88 -2.16453 -4.80058 0
M  V30 2687 H 254.371 -1.91234 -3.25941 0
M  V30 2688 H 254.684 -4.43721 -6.32718 0
M  V30 2689 H 253.029 -3.98481 -5.69419 0
M  V30 2690 H 256.22 -2.44108 -3.99411 0
M  V30 2691 H 256.393 -3.59225 -5.39316 0
M  V30 2692 N 249.799 1.42003 -0.683588 0
M  V30 2693 C 251.048 2.00638 -0.206681 0
M  V30 2694 C 251.361 1.5472 1.19671 0
M  V30 2695 O 252.567 2.05833 1.77045 0
M  V30 2696 C 251.023 3.58487 -0.318632 0
M  V30 2697 C 250.631 4.1339 -1.72663 0
M  V30 2698 C 252.375 4.24384 0.0991141 0
M  V30 2699 C 250.282 5.63633 -1.79087 0
M  V30 2700 H 249.212 0.750408 -0.0735107 0
M  V30 2701 H 251.863 1.62624 -0.850048 0
M  V30 2702 H 250.245 3.94047 0.392781 0
M  V30 2703 H 251.419 3.89273 -2.46583 0
M  V30 2704 H 249.734 3.59976 -2.09299 0
M  V30 2705 H 252.331 5.34652 0.0713833 0
M  V30 2706 H 252.674 4.00505 1.13586 0
M  V30 2707 H 253.207 3.93816 -0.561599 0
M  V30 2708 H 249.946 5.92323 -2.80774 0
M  V30 2709 H 249.466 5.89714 -1.09535 0
M  V30 2710 H 251.145 6.28201 -1.5483 0
M  V30 2711 N 251.277 0.427512 1.51691 0
M  V30 2712 C 252.24 -0.377132 2.26076 0
M  V30 2713 C 253.24 -0.958089 1.29141 0
M  V30 2714 O 254.43 -0.83408 1.52934 0
M  V30 2715 C 251.562 -1.53262 3.04506 0
M  V30 2716 H 252.755 0.27464 2.9864 0
M  V30 2717 H 250.308 0.180445 1.55255 0
M  V30 2718 H 251.043 -2.22072 2.36335 0
M  V30 2719 H 250.828 -1.12232 3.75694 0
M  V30 2720 H 252.318 -2.10135 3.60878 0
M  V30 2721 N 252.755 -1.56801 0.158532 0
M  V30 2722 C 253.685 -2.20347 -0.772609 0
M  V30 2723 C 254.666 -1.15518 -1.24859 0
M  V30 2724 O 255.851 -1.43902 -1.30406 0
M  V30 2725 C 252.981 -2.83417 -2.00729 0
M  V30 2726 C 251.935 -3.94174 -1.66765 0
M  V30 2727 C 251.261 -4.44233 -2.97592 0
M  V30 2728 C 252.561 -5.14392 -0.905447 0
M  V30 2729 H 254.255 -2.98413 -0.242959 0
M  V30 2730 H 251.801 -1.43537 -0.115419 0
M  V30 2731 H 253.754 -3.26543 -2.6636 0
M  V30 2732 H 252.478 -2.02701 -2.56086 0
M  V30 2733 H 251.137 -3.51684 -1.03508 0
M  V30 2734 H 250.785 -3.60325 -3.50963 0
M  V30 2735 H 250.485 -5.18945 -2.75626 0
M  V30 2736 H 252.009 -4.90037 -3.64274 0
M  V30 2737 H 253.423 -5.5429 -1.46408 0
M  V30 2738 H 251.82 -5.9494 -0.7853 0
M  V30 2739 H 252.89 -4.84795 0.100668 0
M  V30 2740 N 254.233 0.115231 -1.57178 0
M  V30 2741 C 255.481 0.820727 -1.84685 0
M  V30 2742 C 255.802 1.80237 -0.744279 0
M  V30 2743 O 255.072 1.94529 0.231375 0
M  V30 2744 H 253.652 0.306084 -0.681411 0
M  V30 2745 H 256.314 0.101656 -1.94635 0
M  V30 2746 H 255.41 1.36366 -2.80733 0
M  V30 2747 N 255.711 1.52812 0.385517 0
M  V30 2748 C 256.959 1.67694 1.12797 0
M  V30 2749 C 257.28 0.421115 1.90399 0
M  V30 2750 O 256.55 -0.564551 1.87589 0
M  V30 2751 H 255.13 0.618155 0.419396 0
M  V30 2752 H 257.792 1.89938 0.436972 0
M  V30 2753 H 256.888 2.52896 1.82894 0
M  V30 2754 N 257.189 -0.644168 1.43834 0
M  V30 2755 C 258.119 -1.76814 1.52509 0
M  V30 2756 C 259.1 -1.65823 0.379052 0
M  V30 2757 O 260.285 -1.84781 0.597466 0
M  V30 2758 C 257.415 -3.15288 1.4564 0
M  V30 2759 C 256.369 -3.41053 2.58586 0
M  V30 2760 C 255.695 -4.79421 2.36769 0
M  V30 2761 C 256.995 -3.34902 4.00797 0
M  V30 2762 H 258.689 -1.69812 2.46586 0
M  V30 2763 H 256.235 -0.815542 1.1868 0
M  V30 2764 H 258.188 -3.93681 1.50311 0
M  V30 2765 H 256.912 -3.23043 0.480725 0
M  V30 2766 H 255.571 -2.65035 2.53282 0
M  V30 2767 H 255.219 -4.83863 1.37424 0
M  V30 2768 H 254.919 -4.9762 3.12487 0
M  V30 2769 H 256.443 -5.6006 2.43238 0
M  V30 2770 H 257.857 -4.03218 4.07539 0
M  V30 2771 H 256.254 -3.64637 4.76613 0
M  V30 2772 H 257.324 -2.32928 4.25291 0
M  V30 2773 N 258.668 -1.30515 -0.883378 0
M  V30 2774 C 259.598 -1.19607 -2.00541 0
M  V30 2775 C 260.579 -0.086346 -1.69881 0
M  V30 2776 O 261.764 -0.268654 -1.92333 0
M  V30 2777 C 258.894 -0.888758 -3.35736 0
M  V30 2778 C 257.848 -1.95659 -3.8066 0
M  V30 2779 C 257.174 -1.50224 -5.13164 0
M  V30 2780 C 258.474 -3.36788 -3.99213 0
M  V30 2781 H 260.168 -2.13476 -2.09925 0
M  V30 2782 H 257.714 -1.02775 -1.00863 0
M  V30 2783 H 259.667 -0.799094 -4.13754 0
M  V30 2784 H 258.391 0.0856125 -3.26488 0
M  V30 2785 H 257.05 -2.03591 -3.04871 0
M  V30 2786 H 256.698 -0.516092 -5.00345 0
M  V30 2787 H 256.398 -2.2165 -5.44192 0
M  V30 2788 H 257.922 -1.42639 -5.93706 0
M  V30 2789 H 259.336 -3.31605 -4.67665 0
M  V30 2790 H 257.733 -4.06314 -4.41621 0
M  V30 2791 H 258.803 -3.78561 -3.03017 0
M  V30 2792 N 260.146 1.09593 -1.13257 0
M  V30 2793 C 261.393 1.81734 -0.893257 0
M  V30 2794 C 261.721 1.8563 0.580656 0
M  V30 2795 O 260.976 1.31906 1.44566 0
M  V30 2796 C 261.275 3.27802 -1.42411 0
M  V30 2797 C 260.941 3.44041 -2.91456 0
M  V30 2798 C 259.603 3.48181 -3.3215 0
M  V30 2799 C 261.955 3.48719 -3.87356 0
M  V30 2800 C 259.283 3.54575 -4.67433 0
M  V30 2801 C 261.635 3.56648 -5.2248 0
M  V30 2802 C 260.299 3.59055 -5.62704 0
M  V30 2803 H 259.569 0.665011 -0.326866 0
M  V30 2804 H 262.216 1.2912 -1.41422 0
M  V30 2805 H 260.521 3.83042 -0.823795 0
M  V30 2806 H 262.218 3.82149 -1.21503 0
M  V30 2807 H 258.808 3.41502 -2.58987 0
M  V30 2808 H 262.992 3.44763 -3.57004 0
M  V30 2809 H 258.248 3.54725 -4.97976 0
M  V30 2810 H 262.422 3.59212 -5.96607 0
M  V30 2811 H 260.049 3.63763 -6.67518 0
M  V30 2812 N 261.624 0.925811 1.2754 0
M  V30 2813 C 263.035 0.610102 1.7645 0
M  V30 2814 C 263.386 -0.874723 1.75622 0
M  V30 2815 O 262.511 -1.68444 1.35851 0
M  V30 2816 C 263.106 1.10073 3.20421 0
M  V30 2817 C 261.665 0.835723 3.67005 0
M  V30 2818 C 260.812 1.26054 2.46993 0
M  V30 2819 H 263.763 1.10579 1.13833 0
M  V30 2820 H 263.784 0.447557 3.77859 0
M  V30 2821 H 263.296 2.18143 3.20991 0
M  V30 2822 H 261.397 -0.231249 3.71882 0
M  V30 2823 H 261.51 1.45193 4.56569 0
M  V30 2824 H 259.874 0.679111 2.45479 0
M  V30 2825 H 260.657 2.34984 2.50275 0
M  V30 2826 N 263.102 -1.41638 0.69111 0
M  V30 2827 C 264.065 -2.29178 0.0319786 0
M  V30 2828 C 265.065 -1.44153 -0.712496 0
M  V30 2829 O 266.255 -1.65354 -0.548053 0
M  V30 2830 C 263.387 -3.26952 -0.965161 0
M  V30 2831 H 264.58 -2.88959 0.802681 0
M  V30 2832 H 262.133 -1.4955 0.454356 0
M  V30 2833 H 262.868 -2.72142 -1.76378 0
M  V30 2834 H 262.653 -3.89685 -0.434522 0
M  V30 2835 H 264.143 -3.92561 -1.42428 0
M  V30 2836 N 264.58 -0.43555 -1.51462 0
M  V30 2837 C 265.805 0.132627 -2.06976 0
M  V30 2838 C 266.23 1.35848 -1.30104 0
M  V30 2839 O 265.588 1.78112 -0.338493 0
M  V30 2840 C 265.636 0.43523 -3.57964 0
M  V30 2841 O 264.74 1.52198 -3.83288 0
M  V30 2842 H 264.081 0.00265 -0.663995 0
M  V30 2843 H 266.611 -0.616369 -1.95095 0
M  V30 2844 H 266.621 0.686206 -4.02188 0
M  V30 2845 H 265.296 -0.460739 -4.1334 0
M  V30 2846 H 263.873 1.2611 -3.50928 0
M  V30 2847 N 266.058 1.56714 -0.166846 0
M  V30 2848 C 267.006 2.19056 0.782123 0
M  V30 2849 C 268 1.15328 1.24079 0
M  V30 2850 O 269.206 1.33537 1.20697 0
M  V30 2851 H 265.581 0.70167 0.270486 0
M  V30 2852 H 267.552 2.97494 0.232322 0
M  V30 2853 C 266.301 2.84206 2.00306 0
M  V30 2854 H 265.624 3.63748 1.65914 0
M  V30 2855 H 267.064 3.31302 2.64604 0
M  V30 2856 C 265.523 1.83744 2.82382 0
M  V30 2857 O 266.053 1.32014 3.79388 0
M  V30 2858 N 264.259 1.52601 2.47308 0
M  V30 2859 H 263.806 1.9486 1.68485 0
M  V30 2860 H 263.764 0.856351 3.02513 0
M  V30 2861 N 267.536 -0.106894 1.57237 0
M  V30 2862 C 268.466 -1.13148 2.04254 0
M  V30 2863 C 269.447 -1.42476 0.929224 0
M  V30 2864 O 270.632 -1.52709 1.19973 0
M  V30 2865 C 267.762 -2.4545 2.45706 0
M  V30 2866 C 266.716 -2.30558 3.60592 0
M  V30 2867 C 266.042 -3.67931 3.87983 0
M  V30 2868 C 267.342 -1.75597 4.91897 0
M  V30 2869 H 269.036 -0.740374 2.90101 0
M  V30 2870 H 266.582 -0.354696 1.39563 0
M  V30 2871 H 268.535 -3.17389 2.77205 0
M  V30 2872 H 267.259 -2.86475 1.56843 0
M  V30 2873 H 265.918 -1.61067 3.29322 0
M  V30 2874 H 265.566 -4.06462 2.96306 0
M  V30 2875 H 265.266 -3.58817 4.65322 0
M  V30 2876 H 266.79 -4.41356 4.21945 0
M  V30 2877 H 268.204 -2.37364 5.21854 0
M  V30 2878 H 266.601 -1.77272 5.73319 0
M  V30 2879 H 267.671 -0.714451 4.79608 0
M  V30 2880 N 269.014 -1.53014 -0.377408 0
M  V30 2881 C 270.43 -1.42523 -0.718281 0
M  V30 2882 C 270.63 -0.55487 -1.9371 0
M  V30 2883 O 269.686 -0.0327593 -2.52479 0
M  V30 2884 C 270.999 -2.85546 -0.942539 0
M  V30 2885 C 272.547 -2.95101 -1.04329 0
M  V30 2886 C 273.022 -4.3916 -1.3001 0
M  V30 2887 N 274.513 -4.42536 -1.36806 0
M  V30 2888 C 275.248 -5.51097 -1.58364 0
M  V30 2889 N 274.744 -6.69724 -1.77317 0
M  V30 2890 N 276.537 -5.38657 -1.60638 0
M  V30 2891 H 268.688 -2.08116 0.424426 0
M  V30 2892 H 270.951 -0.939352 0.127759 0
M  V30 2893 H 270.657 -3.51499 -0.118929 0
M  V30 2894 H 270.531 -3.28493 -1.85397 0
M  V30 2895 H 272.918 -2.29309 -1.85745 0
M  V30 2896 H 272.999 -2.55566 -0.109505 0
M  V30 2897 H 272.643 -5.05521 -0.490991 0
M  V30 2898 H 272.573 -4.76258 -2.24691 0
M  V30 2899 H 275.064 -3.57039 -1.23821 0
M  V30 2900 H 275.377 -7.48233 -1.93306 0
M  V30 2901 H 273.722 -6.72732 -1.74518 0
M  V30 2902 H 276.913 -4.44948 -1.45391 0
M  V30 2903 H 277.086 -6.2333 -1.77098 0
M  V30 2904 N 270.492 0.636531 -1.44174 0
M  V30 2905 C 271.422 1.76003 -1.53444 0
M  V30 2906 C 272.403 1.65619 -0.387841 0
M  V30 2907 O 273.588 1.84461 -0.607257 0
M  V30 2908 C 270.718 3.14511 -1.4731 0
M  V30 2909 C 269.672 3.39677 -2.60391 0
M  V30 2910 C 268.998 4.78159 -2.39308 0
M  V30 2911 C 270.298 3.32772 -4.02567 0
M  V30 2912 H 271.992 1.68501 -2.47483 0
M  V30 2913 H 269.538 0.809237 -1.19111 0
M  V30 2914 H 271.491 3.92878 -1.52397 0
M  V30 2915 H 270.215 3.22783 -0.49785 0
M  V30 2916 H 268.874 2.63688 -2.54684 0
M  V30 2917 H 268.522 4.83128 -1.39988 0
M  V30 2918 H 268.222 4.95956 -3.15122 0
M  V30 2919 H 269.746 5.58762 -2.46205 0
M  V30 2920 H 271.16 4.01051 -4.09672 0
M  V30 2921 H 269.557 3.62104 -4.7854 0
M  V30 2922 H 270.627 2.30669 -4.2652 0
M  V30 2923 N 271.97 1.30982 0.876444 0
M  V30 2924 C 273.381 1.18277 1.44456 0
M  V30 2925 C 273.732 -0.213265 1.95037 0
M  V30 2926 O 272.857 -1.11057 1.85729 0
M  V30 2927 C 273.452 2.1411 2.62569 0
M  V30 2928 C 272.011 2.05358 3.15444 0
M  V30 2929 C 271.158 2.03706 1.88146 0
M  V30 2930 H 274.109 1.43127 0.685584 0
M  V30 2931 H 274.13 1.72692 3.39054 0
M  V30 2932 H 273.642 3.15706 2.25724 0
M  V30 2933 H 271.743 1.06934 3.56926 0
M  V30 2934 H 271.856 2.94156 3.78166 0
M  V30 2935 H 270.22 1.48629 2.06837 0
M  V30 2936 H 271.003 3.07047 1.53547 0
M  V30 2937 N 273.449 -1.08991 1.13837 0
M  V30 2938 C 274.379 -2.17771 0.842507 0
M  V30 2939 C 275.36 -1.6892 -0.20001 0
M  V30 2940 O 276.545 -1.94113 -0.0579731 0
M  V30 2941 C 273.675 -3.4589 0.312644 0
M  V30 2942 C 272.629 -4.08099 1.28992 0
M  V30 2943 C 271.955 -5.31098 0.619623 0
M  V30 2944 C 273.255 -4.50077 2.65005 0
M  V30 2945 H 274.949 -2.42777 1.75213 0
M  V30 2946 H 272.495 -1.16682 0.843875 0
M  V30 2947 H 274.448 -4.21297 0.0933043 0
M  V30 2948 H 273.172 -3.20419 -0.632382 0
M  V30 2949 H 271.831 -3.34717 1.49533 0
M  V30 2950 H 271.479 -5.0191 -0.33102 0
M  V30 2951 H 271.179 -5.73674 1.27167 0
M  V30 2952 H 272.703 -6.09224 0.409669 0
M  V30 2953 H 274.117 -5.16688 2.48407 0
M  V30 2954 H 272.514 -5.03553 3.26427 0
M  V30 2955 H 273.584 -3.62257 3.22332 0
M  V30 2956 N 274.927 -0.932562 -1.27047 0
M  V30 2957 C 276.173 -0.576412 -1.94436 0
M  V30 2958 C 276.506 0.880891 -1.73072 0
M  V30 2959 O 275.781 1.62905 -1.06264 0
M  V30 2960 C 276.064 -0.909031 -3.48437 0
M  V30 2961 C 275.917 -2.42044 -3.79123 0
M  V30 2962 C 277.236 -0.418341 -4.38107 0
M  V30 2963 H 274.355 -0.210888 -0.706184 0
M  V30 2964 H 276.997 -1.16522 -1.50075 0
M  V30 2965 H 275.147 -0.407947 -3.86352 0
M  V30 2966 H 276.819 -2.99359 -3.50973 0
M  V30 2967 H 275.062 -2.86758 -3.25503 0
M  V30 2968 H 275.733 -2.6037 -4.86736 0
M  V30 2969 H 278.209 -0.847856 -4.0737 0
M  V30 2970 H 277.085 -0.679981 -5.44672 0
M  V30 2971 H 277.346 0.681642 -4.36814 0
M  V30 2972 N 276.405 1.4127 -0.698611 0
M  V30 2973 C 277.816 1.84187 -0.305289 0
M  V30 2974 C 278.167 1.58449 1.15708 0
M  V30 2975 O 277.292 1.05651 1.88856 0
M  V30 2976 C 277.887 3.3435 -0.547314 0
M  V30 2977 C 276.446 3.75826 -0.207878 0
M  V30 2978 C 275.593 2.64647 -0.828099 0
M  V30 2979 H 278.544 1.30778 -0.89904 0
M  V30 2980 H 278.565 3.8001 0.192998 0
M  V30 2981 H 278.077 3.53051 -1.61172 0
M  V30 2982 H 276.178 3.62725 0.852143 0
M  V30 2983 H 276.291 4.74462 -0.665021 0
M  V30 2984 H 274.655 2.53395 -0.257458 0
M  V30 2985 H 275.438 2.86165 -1.89643 0
M  V30 2986 N 277.883 0.443576 1.51229 0
M  V30 2987 C 278.846 -0.353132 2.26463 0
M  V30 2988 C 279.846 -0.944338 1.3015 0
M  V30 2989 O 281.036 -0.817813 1.5381 0
M  V30 2990 C 278.168 -1.50023 3.06114 0
M  V30 2991 H 279.361 0.3063 2.98332 0
M  V30 2992 H 276.914 0.196902 1.55055 0
M  V30 2993 H 277.649 -2.19553 2.38677 0
M  V30 2994 H 277.434 -1.08241 3.76864 0
M  V30 2995 H 278.924 -2.06296 3.63087 0
M  V30 2996 N 279.361 -1.56624 0.175154 0
M  V30 2997 C 280.291 -2.21155 -0.749195 0
M  V30 2998 C 281.272 -1.16836 -1.23626 0
M  V30 2999 O 282.457 -1.45277 -1.28873 0
M  V30 3000 C 279.587 -2.8553 -1.97711 0
M  V30 3001 C 278.541 -3.95921 -1.62575 0
M  V30 3002 C 277.867 -4.47365 -2.92864 0
M  V30 3003 C 279.167 -5.15323 -0.850838 0
M  V30 3004 H 280.861 -2.98653 -0.211295 0
M  V30 3005 H 278.407 -1.43651 -0.100188 0
M  V30 3006 H 280.36 -3.2935 -2.62881 0
M  V30 3007 H 279.084 -2.05406 -2.53921 0
M  V30 3008 H 277.743 -3.52762 -0.997719 0
M  V30 3009 H 277.391 -3.64027 -3.47122 0
M  V30 3010 H 277.091 -5.21839 -2.70106 0
M  V30 3011 H 278.615 -4.93873 -3.59056 0
M  V30 3012 H 280.029 -5.55812 -1.40521 0
M  V30 3013 H 278.426 -5.95739 -0.722154 0
M  V30 3014 H 279.496 -4.84661 0.152082 0
M  V30 3015 N 280.839 0.0985539 -1.57292 0
M  V30 3016 C 282.116 0.834155 -1.76921 0
M  V30 3017 C 282.496 1.97101 -0.755928 0
M  V30 3018 O 281.844 2.27474 0.216245 0
M  V30 3019 C 282.054 1.33194 -3.22584 0
M  V30 3020 C 283.402 1.77611 -3.85668 0
M  V30 3021 O 284.426 1.42825 -3.26312 0
M  V30 3022 O 283.285 2.4192 -4.90038 0
M  V30 3023 H 280.379 0.397628 -0.725135 0
M  V30 3024 H 282.925 0.0807044 -1.69508 0
M  V30 3025 H 281.697 0.517248 -3.87866 0
M  V30 3026 H 281.32 2.1475 -3.34616 0
M  V30 3027 N 282.317 1.53212 0.369288 0
M  V30 3028 C 283.565 1.68881 1.11012 0
M  V30 3029 C 283.886 0.441285 1.89941 0
M  V30 3030 O 283.156 -0.544623 1.88177 0
M  V30 3031 H 281.736 0.622569 0.412816 0
M  V30 3032 H 284.398 1.90391 0.416802 0
M  V30 3033 H 283.494 2.54822 1.80201 0
M  V30 3034 N 283.795 -0.628877 1.44509 0
M  V30 3035 C 285.035 -1.39993 1.48934 0
M  V30 3036 C 285.399 -1.91627 0.119604 0
M  V30 3037 O 286.6 -2.68772 0.0385283 0
M  V30 3038 C 284.871 -2.53241 2.52198 0
M  V30 3039 S 286.43 -3.41383 2.75687 0
M  V30 3040 H 283.248 -0.477558 0.526744 0
M  V30 3041 H 285.85 -0.727804 1.81448 0
M  V30 3042 H 284.554 -2.13622 3.50419 0
M  V30 3043 H 284.085 -3.25278 2.21264 0
M  V30 3044 H 286.1 -4.50752 2.07453 0
M  V30 3045 N 285.273 -1.31445 -0.869486 0
M  V30 3046 C 286.203 -1.21727 -1.99261 0
M  V30 3047 C 287.184 -0.104359 -1.6978 0
M  V30 3048 O 288.369 -0.289038 -1.92037 0
M  V30 3049 C 285.499 -0.924317 -3.34774 0
M  V30 3050 C 284.453 -1.99685 -3.78563 0
M  V30 3051 C 283.779 -1.55658 -5.11541 0
M  V30 3052 C 285.079 -3.41003 -3.95619 0
M  V30 3053 H 286.773 -2.1569 -2.07649 0
M  V30 3054 H 284.319 -1.03839 -0.997675 0
M  V30 3055 H 286.272 -0.842934 -4.12883 0
M  V30 3056 H 284.996 0.0509793 -3.2656 0
M  V30 3057 H 283.655 -2.06813 -3.02694 0
M  V30 3058 H 283.303 -0.569132 -4.9977 0
M  V30 3059 H 283.003 -2.27409 -5.41811 0
M  V30 3060 H 284.527 -1.48928 -5.92159 0
M  V30 3061 H 285.941 -3.36547 -4.64122 0
M  V30 3062 H 284.338 -4.10975 -4.37286 0
M  V30 3063 H 285.408 -3.81754 -2.98985 0
M  V30 3064 N 286.751 1.08385 -1.14413 0
M  V30 3065 C 288.167 1.32844 -0.884563 0
M  V30 3066 C 288.367 1.95841 0.474181 0
M  V30 3067 O 287.423 2.21158 1.21842 0
M  V30 3068 C 288.736 2.22978 -2.01745 0
M  V30 3069 C 290.284 2.36458 -2.05077 0
M  V30 3070 C 290.759 3.29934 -3.1766 0
M  V30 3071 N 292.25 3.37511 -3.17239 0
M  V30 3072 C 292.985 4.09871 -4.0099 0
M  V30 3073 N 292.481 4.84936 -4.94781 0
M  V30 3074 N 294.274 4.05704 -3.89051 0
M  V30 3075 H 286.425 0.658756 -2.01926 0
M  V30 3076 H 288.688 0.352821 -0.879899 0
M  V30 3077 H 288.394 1.83934 -2.99769 0
M  V30 3078 H 288.268 3.23441 -1.94077 0
M  V30 3079 H 290.655 2.7476 -1.0766 0
M  V30 3080 H 290.736 1.35736 -2.16816 0
M  V30 3081 H 290.38 2.92352 -4.15322 0
M  V30 3082 H 290.31 4.30584 -3.03158 0
M  V30 3083 H 292.801 2.83996 -2.49308 0
M  V30 3084 H 293.114 5.37612 -5.55151 0
M  V30 3085 H 291.459 4.83988 -4.98779 0
M  V30 3086 H 294.65 3.46167 -3.15097 0
M  V30 3087 H 294.823 4.61834 -4.54547 0
M  V30 3088 N 288.23 0.939286 1.26551 0
M  V30 3089 C 289.646 0.641304 1.46149 0
M  V30 3090 C 289.846 -0.805964 1.84679 0
M  V30 3091 O 288.902 -1.58278 1.96734 0
M  V30 3092 C 290.215 1.6011 2.54529 0
M  V30 3093 C 291.763 1.6106 2.68382 0
M  V30 3094 C 292.238 2.55765 3.79932 0
M  V30 3095 N 293.729 2.5404 3.87322 0
M  V30 3096 C 294.464 3.24004 4.73085 0
M  V30 3097 N 293.96 4.03388 5.63249 0
M  V30 3098 N 295.753 3.12965 4.66914 0
M  V30 3099 H 287.904 1.87478 0.998285 0
M  V30 3100 H 290.167 0.805559 0.499779 0
M  V30 3101 H 289.873 2.63412 2.33039 0
M  V30 3102 H 289.747 1.35171 3.52149 0
M  V30 3103 H 292.134 0.584835 2.89247 0
M  V30 3104 H 292.215 1.90053 1.71212 0
M  V30 3105 H 291.859 3.58458 3.5982 0
M  V30 3106 H 291.789 2.24063 4.76554 0
M  V30 3107 H 294.28 1.96396 3.22858 0
M  V30 3108 H 294.593 4.5373 6.25579 0
M  V30 3109 H 292.938 4.07489 5.63008 0
M  V30 3110 H 296.129 2.50432 3.95476 0
M  V30 3111 H 296.302 3.67759 5.33533 0
M  V30 3112 N 289.708 -1.40897 0.706093 0
M  V30 3113 C 290.985 -1.94868 0.169099 0
M  V30 3114 C 291.365 -1.64485 -1.32318 0
M  V30 3115 O 290.713 -0.95744 -2.07474 0
M  V30 3116 C 290.923 -3.45798 0.471654 0
M  V30 3117 C 292.271 -4.22663 0.405127 0
M  V30 3118 O 293.295 -3.53865 0.407168 0
M  V30 3119 O 292.154 -5.45216 0.374383 0
M  V30 3120 H 289.248 -0.82673 0.0211352 0
M  V30 3121 H 291.794 -1.50558 0.782976 0
M  V30 3122 H 290.566 -3.61235 1.50416 0
M  V30 3123 H 290.189 -3.97225 -0.172666 0
M  V30 3124 N 291.186 -0.45159 -1.50991 0
M  V30 3125 C 292.411 0.110667 -2.07105 0
M  V30 3126 C 292.836 1.3446 -1.31538 0
M  V30 3127 O 292.194 1.77743 -0.357365 0
M  V30 3128 C 292.242 0.397238 -3.58405 0
M  V30 3129 O 291.346 1.48124 -3.84881 0
M  V30 3130 H 290.687 -0.00439271 -0.663985 0
M  V30 3131 H 293.217 -0.637026 -1.9443 0
M  V30 3132 H 293.227 0.64351 -4.02893 0
M  V30 3133 H 291.902 -0.504553 -4.12828 0
M  V30 3134 H 290.479 1.22381 -3.52246 0
M  V30 3135 N 292.664 1.56529 -0.183458 0
M  V30 3136 C 293.91 1.98304 0.452466 0
M  V30 3137 C 294.265 1.06799 1.60037 0
M  V30 3138 O 293.558 0.110049 1.91284 0
M  V30 3139 C 293.752 3.43939 0.971637 0
M  V30 3140 C 293.581 4.49528 -0.124425 0
M  V30 3141 C 292.351 5.01981 -0.578168 0
M  V30 3142 C 294.549 5.05836 -0.929207 0
M  V30 3143 N 292.531 5.91219 -1.65327 0
M  V30 3144 C 293.902 5.91632 -1.85396 0
M  V30 3145 C 295.957 4.88302 -0.972929 0
M  V30 3146 C 294.66 6.61768 -2.81878 0
M  V30 3147 C 296.686 5.59168 -1.92574 0
M  V30 3148 C 296.048 6.44701 -2.83795 0
M  V30 3149 H 292.147 0.770551 0.133324 0
M  V30 3150 H 294.731 1.92581 -0.286473 0
M  V30 3151 H 292.902 3.50184 1.68006 0
M  V30 3152 H 294.634 3.72702 1.5772 0
M  V30 3153 H 291.389 4.73282 -0.173639 0
M  V30 3154 H 291.813 6.40543 -2.19167 0
M  V30 3155 H 296.455 4.21861 -0.28168 0
M  V30 3156 H 294.173 7.27415 -3.51984 0
M  V30 3157 H 297.759 5.47582 -1.96583 0
M  V30 3158 H 296.639 6.98573 -3.56322 0
M  V30 3159 N 294.142 -0.090211 1.57342 0
M  V30 3160 C 295.072 -1.10976 2.05443 0
M  V30 3161 C 296.053 -1.41482 0.944284 0
M  V30 3162 O 297.238 -1.51428 1.21586 0
M  V30 3163 C 294.368 -2.42831 2.48295 0
M  V30 3164 C 293.322 -2.26721 3.63018 0
M  V30 3165 C 292.648 -3.63796 3.91863 0
M  V30 3166 C 293.948 -1.7037 4.93732 0
M  V30 3167 H 295.642 -0.709564 2.9087 0
M  V30 3168 H 293.188 -0.339874 1.39932 0
M  V30 3169 H 295.141 -3.14431 2.80555 0
M  V30 3170 H 293.865 -2.84795 1.59873 0
M  V30 3171 H 292.524 -1.57565 3.31012 0
M  V30 3172 H 292.172 -4.03297 3.00601 0
M  V30 3173 H 291.872 -3.53861 4.69101 0
M  V30 3174 H 293.396 -4.36855 4.26603 0
M  V30 3175 H 294.81 -2.31816 5.24342 0
M  V30 3176 H 293.207 -1.71181 5.75167 0
M  V30 3177 H 294.277 -0.663542 4.80339 0
M  V30 3178 N 295.62 -1.53406 -0.361157 0
M  V30 3179 C 296.897 -1.60411 -1.11927 0
M  V30 3180 C 297.277 -0.414385 -2.06993 0
M  V30 3181 O 296.625 0.594976 -2.20618 0
M  V30 3182 C 296.835 -2.95652 -1.85448 0
M  V30 3183 C 298.183 -3.50386 -2.39823 0
M  V30 3184 O 299.207 -2.97711 -1.95568 0
M  V30 3185 O 298.066 -4.42482 -3.20737 0
M  V30 3186 H 295.16 -0.64811 -0.513695 0
M  V30 3187 H 297.706 -1.65749 -0.364065 0
M  V30 3188 H 296.478 -3.73682 -1.16091 0
M  V30 3189 H 296.101 -2.93825 -2.67866 0
M  V30 3190 N 297.098 0.621204 -1.44841 0
M  V30 3191 C 298.045 1.73267 -1.5247 0
M  V30 3192 C 299.015 1.6189 -0.371611 0
M  V30 3193 O 300.2 1.81668 -0.58321 0
M  V30 3194 C 297.34 3.11545 -1.48438 0
M  V30 3195 C 296.453 3.33827 -2.74196 0
M  V30 3196 C 295.588 4.62133 -2.61929 0
M  V30 3197 C 294.627 4.77627 -3.82804 0
M  V30 3198 N 293.764 5.97219 -3.69153 0
M  V30 3199 H 298.604 1.66082 -2.47428 0
M  V30 3200 H 296.141 0.810026 -1.22788 0
M  V30 3201 H 298.099 3.91528 -1.4409 0
M  V30 3202 H 296.729 3.1772 -0.570402 0
M  V30 3203 H 295.781 2.47715 -2.88689 0
M  V30 3204 H 297.093 3.41153 -3.6389 0
M  V30 3205 H 296.247 5.50291 -2.5547 0
M  V30 3206 H 294.986 4.57182 -1.69811 0
M  V30 3207 H 293.991 3.87896 -3.89637 0
M  V30 3208 H 295.216 4.84385 -4.75971 0
M  V30 3209 H 293.162 5.93339 -2.79794 0
M  V30 3210 H 293.079 6.05644 -4.52472 0
M  V30 3211 H 294.347 6.87912 -3.66603 0
M  V30 3212 N 298.576 1.31904 0.862503 0
M  V30 3213 C 299.508 1.16005 1.97675 0
M  V30 3214 C 300.521 0.0971234 1.6251 0
M  V30 3215 O 301.71 0.345337 1.75128 0
M  V30 3216 C 298.81 0.751791 3.30456 0
M  V30 3217 C 297.983 1.90133 3.93914 0
M  V30 3218 C 297.042 1.4779 5.05019 0
M  V30 3219 O 296.068 2.18872 5.25437 0
M  V30 3220 N 297.27 0.369491 5.79323 0
M  V30 3221 H 300.035 2.11982 2.11857 0
M  V30 3222 H 297.596 1.24337 1.03691 0
M  V30 3223 H 299.588 0.451084 4.02178 0
M  V30 3224 H 298.158 -0.116593 3.12382 0
M  V30 3225 H 297.378 2.36896 3.15078 0
M  V30 3226 H 298.666 2.67111 4.33047 0
M  V30 3227 H 298.064 -0.222299 5.65263 0
M  V30 3228 H 296.621 0.128354 6.51674 0
M  V30 3229 N 300.054 -1.07777 1.14986 0
M  V30 3230 C 301.017 -2.13041 0.845358 0
M  V30 3231 C 302.017 -1.60071 -0.152931 0
M  V30 3232 O 303.207 -1.74033 0.0761879 0
M  V30 3233 C 300.339 -3.39896 0.261383 0
M  V30 3234 H 301.532 -2.41485 1.77834 0
M  V30 3235 H 299.085 -1.23595 0.956757 0
M  V30 3236 H 299.82 -3.17091 -0.68 0
M  V30 3237 H 299.605 -3.79642 0.980514 0
M  V30 3238 H 301.095 -4.17548 0.0657687 0
M  V30 3239 N 301.532 -0.945985 -1.26051 0
M  V30 3240 C 302.442 -0.465633 -2.29933 0
M  V30 3241 C 303.458 0.462761 -1.67733 0
M  V30 3242 O 304.634 0.341118 -1.9849 0
M  V30 3243 C 301.699 0.256994 -3.45746 0
M  V30 3244 C 300.76 -0.708549 -4.23412 0
M  V30 3245 C 299.993 -0.0203135 -5.33696 0
M  V30 3246 O 300.216 1.19571 -5.57726 0
M  V30 3247 O 299.15 -0.701459 -5.97799 0
M  V30 3248 H 302.976 -1.32866 -2.73094 0
M  V30 3249 H 300.561 -0.712071 -1.31339 0
M  V30 3250 H 302.443 0.663852 -4.16138 0
M  V30 3251 H 301.118 1.09533 -3.04605 0
M  V30 3252 H 300.025 -1.16545 -3.55483 0
M  V30 3253 H 301.358 -1.51465 -4.68315 0
M  V30 3254 N 303.011 1.40521 -0.713556 0
M  V30 3255 C 304.26 2.00155 -0.249192 0
M  V30 3256 C 304.573 1.57224 1.16362 0
M  V30 3257 O 305.779 2.09542 1.72639 0
M  V30 3258 C 304.235 3.5773 -0.3946 0
M  V30 3259 C 303.843 4.09635 -1.81392 0
M  V30 3260 C 305.587 4.24499 0.00907364 0
M  V30 3261 C 303.494 5.59707 -1.91003 0
M  V30 3262 H 302.424 0.74868 -0.0894114 0
M  V30 3263 H 305.075 1.60784 -0.884352 0
M  V30 3264 H 303.457 3.94792 0.30911 0
M  V30 3265 H 304.631 3.83955 -2.54785 0
M  V30 3266 H 302.946 3.55456 -2.16888 0
M  V30 3267 H 305.543 5.34683 -0.0420404 0
M  V30 3268 H 305.886 4.02824 1.05065 0
M  V30 3269 H 306.419 3.92536 -0.645007 0
M  V30 3270 H 303.158 5.86234 -2.93275 0
M  V30 3271 H 302.678 5.87258 -1.22019 0
M  V30 3272 H 304.357 6.24776 -1.6812 0
M  V30 3273 N 304.489 0.459591 1.5075 0
M  V30 3274 C 305.714 -0.0996819 2.0716 0
M  V30 3275 C 306.139 -1.33761 1.32249 0
M  V30 3276 O 305.497 -1.77551 0.366786 0
M  V30 3277 C 305.545 -0.378226 3.58611 0
M  V30 3278 O 304.649 -1.46081 3.85661 0
M  V30 3279 H 303.99 0.00791392 0.663953 0
M  V30 3280 H 306.52 0.647329 1.9409 0
M  V30 3281 H 306.53 -0.622135 4.03229 0
M  V30 3282 H 305.205 0.526439 4.12555 0
M  V30 3283 H 303.782 -1.20511 3.5289 0
M  V30 3284 N 305.967 -1.56429 0.191757 0
M  V30 3285 C 306.93 -2.17707 -0.716688 0
M  V30 3286 C 307.93 -1.13061 -1.14341 0
M  V30 3287 O 309.12 -1.38464 -1.05704 0
M  V30 3288 C 306.252 -2.77644 -1.97804 0
M  V30 3289 H 307.445 -2.99342 -0.1829 0
M  V30 3290 H 304.998 -1.56193 -0.0578566 0
M  V30 3291 H 305.733 -1.99799 -2.55443 0
M  V30 3292 H 305.518 -3.54246 -1.68083 0
M  V30 3293 H 307.008 -3.24708 -2.62592 0
M  V30 3294 N 307.445 0.0818655 -1.57387 0
M  V30 3295 C 308.67 0.799946 -1.91352 0
M  V30 3296 C 309.095 1.70833 -0.787258 0
M  V30 3297 O 308.453 1.79419 0.26048 0
M  V30 3298 C 308.501 1.57812 -3.24234 0
M  V30 3299 O 307.605 2.68806 -3.12757 0
M  V30 3300 H 306.946 0.21891 -0.626877 0
M  V30 3301 H 309.476 0.0531256 -2.04531 0
M  V30 3302 H 309.486 1.95952 -3.57864 0
M  V30 3303 H 308.161 0.911548 -4.05788 0
M  V30 3304 H 306.738 2.33597 -2.90666 0
M  V30 3305 N 308.923 1.53595 0.353017 0
M  V30 3306 C 309.886 1.80232 1.41594 0
M  V30 3307 C 310.886 0.673081 1.46035 0
M  V30 3308 O 312.076 0.941335 1.46576 0
M  V30 3309 C 309.208 1.93578 2.80607 0
M  V30 3310 H 310.401 2.75174 1.19244 0
M  V30 3311 H 307.954 1.44864 0.586872 0
M  V30 3312 H 308.689 1.00746 3.08254 0
M  V30 3313 H 308.474 2.75724 2.78781 0
M  V30 3314 H 309.964 2.15735 3.57558 0
M  V30 3315 N 310.401 -0.613514 1.45168 0
M  V30 3316 C 311.812 -1.19539 1.43413 0
M  V30 3317 C 312.163 -1.95558 0.158632 0
M  V30 3318 O 311.288 -2.0335 -0.740119 0
M  V30 3319 C 311.883 -2.17445 2.59813 0
M  V30 3320 C 310.442 -2.71022 2.61197 0
M  V30 3321 C 309.589 -1.46323 2.35552 0
M  V30 3322 H 312.54 -0.403163 1.53494 0
M  V30 3323 H 312.561 -3.00373 2.33574 0
M  V30 3324 H 312.073 -1.62089 3.52631 0
M  V30 3325 H 310.174 -3.30332 1.7237 0
M  V30 3326 H 310.287 -3.15859 3.60236 0
M  V30 3327 H 308.651 -1.75072 1.84992 0
M  V30 3328 H 309.434 -0.92844 3.30507 0
M  V30 3329 N 311.879 -1.3236 -0.855495 0
M  V30 3330 C 313.107 -1.2587 -1.64208 0
M  V30 3331 C 313.522 0.173457 -1.88002 0
M  V30 3332 O 312.879 1.11027 -1.44842 0
M  V30 3333 C 312.93 -2.01424 -3.00184 0
M  V30 3334 O 312.651 -3.39051 -2.77445 0
M  V30 3335 C 314.152 -2.01948 -3.94629 0
M  V30 3336 H 311.372 -0.434318 -0.511477 0
M  V30 3337 H 313.916 -1.74469 -1.0668 0
M  V30 3338 H 312.071 -1.56549 -3.5436 0
M  V30 3339 H 312.485 -3.77711 -3.63916 0
M  V30 3340 H 313.959 -2.59297 -4.87308 0
M  V30 3341 H 314.436 -1.00554 -4.27534 0
M  V30 3342 H 315.042 -2.46767 -3.4639 0
M  V30 3343 N 313.357 1.07166 -1.15556 0
M  V30 3344 C 314.582 1.84053 -0.955988 0
M  V30 3345 C 315.007 1.81586 0.490739 0
M  V30 3346 O 314.365 1.21018 1.34997 0
M  V30 3347 C 314.413 3.28957 -1.47714 0
M  V30 3348 O 313.517 4.06795 -0.677593 0
M  V30 3349 H 312.858 0.569842 -0.340847 0
M  V30 3350 H 315.388 1.35178 -1.53584 0
M  V30 3351 H 315.398 3.79788 -1.4908 0
M  V30 3352 H 314.073 3.30068 -2.53037 0
M  V30 3353 H 312.65 3.6561 -0.733721 0
M  V30 3354 N 314.835 0.952656 1.25548 0
M  V30 3355 C 315.765 0.489287 2.28316 0
M  V30 3356 C 316.746 -0.463359 1.63667 0
M  V30 3357 O 317.931 -0.36274 1.90782 0
M  V30 3358 C 315.061 -0.235603 3.465 0
M  V30 3359 C 314.015 0.631593 4.23314 0
M  V30 3360 C 313.341 -0.223923 5.34231 0
M  V30 3361 C 314.641 1.90871 4.86174 0
M  V30 3362 H 316.335 1.34822 2.67326 0
M  V30 3363 H 313.881 0.649728 1.28509 0
M  V30 3364 H 315.834 -0.570882 4.17515 0
M  V30 3365 H 314.558 -1.12877 3.06474 0
M  V30 3366 H 313.217 0.949929 3.54079 0
M  V30 3367 H 312.865 -1.11678 4.90446 0
M  V30 3368 H 312.565 0.35299 5.86539 0
M  V30 3369 H 314.089 -0.554214 6.0808 0
M  V30 3370 H 315.503 1.63997 5.49343 0
M  V30 3371 H 313.9 2.43112 5.4865 0
M  V30 3372 H 314.97 2.61304 4.08471 0
M  V30 3373 N 316.313 -1.40141 0.720998 0
M  V30 3374 C 317.729 -1.54632 0.395113 0
M  V30 3375 C 317.929 -1.69115 -1.09555 0
M  V30 3376 O 316.985 -1.68377 -1.88163 0
M  V30 3377 C 318.298 -2.77177 1.1659 0
M  V30 3378 C 319.846 -2.91 1.15274 0
M  V30 3379 C 320.321 -4.16465 1.90579 0
M  V30 3380 N 321.812 -4.23476 1.87675 0
M  V30 3381 C 322.547 -5.19475 2.42762 0
M  V30 3382 N 322.043 -6.21348 3.06428 0
M  V30 3383 N 323.836 -5.11592 2.32874 0
M  V30 3384 H 315.987 -1.28986 1.68749 0
M  V30 3385 H 318.25 -0.62412 0.713567 0
M  V30 3386 H 317.956 -2.72771 2.22011 0
M  V30 3387 H 317.83 -3.69442 0.76108 0
M  V30 3388 H 320.217 -2.94907 0.106702 0
M  V30 3389 H 320.298 -1.99838 1.59682 0
M  V30 3390 H 319.942 -4.1332 2.95176 0
M  V30 3391 H 319.872 -5.06646 1.43587 0
M  V30 3392 H 322.363 -3.50497 1.41281 0
M  V30 3393 H 322.676 -6.91034 3.45965 0
M  V30 3394 H 321.021 -6.21777 3.10514 0
M  V30 3395 H 324.212 -4.30936 1.82789 0
M  V30 3396 H 324.385 -5.86233 2.76106 0
M  V30 3397 N 317.792 -0.46758 -1.50504 0
M  V30 3398 C 319.017 0.0886943 -2.0721 0
M  V30 3399 C 319.442 1.33057 -1.32956 0
M  V30 3400 O 318.8 1.77354 -0.376197 0
M  V30 3401 C 318.848 0.359202 -3.58806 0
M  V30 3402 O 317.952 1.44034 -3.8643 0
M  V30 3403 H 317.293 -0.0114349 -0.663902 0
M  V30 3404 H 319.823 -0.657613 -1.93744 0
M  V30 3405 H 319.833 0.600742 -4.03553 0
M  V30 3406 H 318.508 -0.548311 -4.1227 0
M  V30 3407 H 317.085 1.18638 -3.53524 0
M  V30 3408 N 319.27 1.56325 -0.20005 0
M  V30 3409 C 320.51 1.99619 0.439519 0
M  V30 3410 C 320.874 1.08423 1.58456 0
M  V30 3411 O 322.075 1.40973 2.28867 0
M  V30 3412 C 320.346 3.46314 0.883258 0
M  V30 3413 S 321.905 4.11634 1.51997 0
M  V30 3414 H 318.723 0.697007 0.140363 0
M  V30 3415 H 321.325 1.93118 -0.304282 0
M  V30 3416 H 320.029 4.10381 0.0398967 0
M  V30 3417 H 319.56 3.56643 1.6604 0
M  V30 3418 H 321.575 4.09049 2.8088 0
M  V30 3419 N 320.748 -0.0735177 1.57428 0
M  V30 3420 C 322.025 -0.805903 1.78226 0
M  V30 3421 C 322.405 -1.95874 0.787189 0
M  V30 3422 O 321.753 -2.2779 -0.180029 0
M  V30 3423 C 321.963 -1.28045 3.24662 0
M  V30 3424 C 323.311 -1.71453 3.88444 0
M  V30 3425 O 324.335 -1.37616 3.28543 0
M  V30 3426 O 323.194 -2.34093 4.93825 0
M  V30 3427 H 320.288 -0.386041 0.73137 0
M  V30 3428 H 322.834 -0.0537269 1.69615 0
M  V30 3429 H 321.606 -0.455476 3.8864 0
M  V30 3430 H 321.229 -2.094 3.37991 0
M  V30 3431 N 322.226 -1.5378 -0.344866 0
M  V30 3432 C 323.472 -1.71216 -1.08687 0
M  V30 3433 C 323.805 -0.473281 -1.88345 0
M  V30 3434 O 323.08 0.52968 -1.87149 0
M  V30 3435 C 323.363 -2.97486 -2.02914 0
M  V30 3436 C 323.216 -4.31579 -1.26727 0
M  V30 3437 C 324.535 -3.19422 -3.0275 0
M  V30 3438 H 321.654 -0.62301 -0.393735 0
M  V30 3439 H 324.296 -1.8645 -0.365563 0
M  V30 3440 H 322.446 -2.84629 -2.64421 0
M  V30 3441 H 324.118 -4.56284 -0.67845 0
M  V30 3442 H 322.361 -4.30049 -0.569273 0
M  V30 3443 H 323.032 -5.16106 -1.95803 0
M  V30 3444 H 325.508 -3.316 -2.51357 0
M  V30 3445 H 324.384 -4.09169 -3.65885 0
M  V30 3446 H 324.645 -2.35656 -3.74057 0
M  V30 3447 N 323.704 0.605807 -1.45491 0
M  V30 3448 C 324.614 1.74466 -1.56839 0
M  V30 3449 C 325.63 1.68006 -0.452772 0
M  V30 3450 O 326.806 1.8833 -0.713708 0
M  V30 3451 C 323.871 3.10931 -1.53371 0
M  V30 3452 C 322.932 3.28832 -2.75986 0
M  V30 3453 C 322.165 4.58787 -2.72673 0
M  V30 3454 O 322.388 5.4122 -1.80102 0
M  V30 3455 O 321.322 4.79438 -3.63899 0
M  V30 3456 H 325.148 1.67843 -2.53106 0
M  V30 3457 H 322.733 0.770108 -1.28022 0
M  V30 3458 H 324.615 3.92233 -1.54051 0
M  V30 3459 H 323.29 3.18042 -0.602572 0
M  V30 3460 H 322.197 2.47112 -2.80867 0
M  V30 3461 H 323.53 3.26599 -3.68231 0
M  V30 3462 N 325.182 1.32811 0.848464 0
M  V30 3463 C 326.407 1.26882 1.6406 0
M  V30 3464 C 326.832 -0.15913 1.87426 0
M  V30 3465 O 326.19 -1.11258 1.43148 0
M  V30 3466 C 326.238 2.03997 2.97351 0
M  V30 3467 O 325.342 1.39201 3.88197 0
M  V30 3468 H 324.683 0.436982 0.499943 0
M  V30 3469 H 327.213 1.75224 1.0563 0
M  V30 3470 H 327.223 2.14403 3.47124 0
M  V30 3471 H 325.898 3.0783 2.79666 0
M  V30 3472 H 324.475 1.37381 3.46671 0
M  V30 3473 N 326.66 -1.06551 1.16123 0
M  V30 3474 C 327.608 -2.16063 0.861371 0
M  V30 3475 C 328.602 -1.6856 -0.168517 0
M  V30 3476 O 329.808 -1.79986 -0.0227579 0
M  V30 3477 H 326.183 -0.705278 0.260934 0
M  V30 3478 H 328.154 -2.38567 1.79244 0
M  V30 3479 C 326.903 -3.45661 0.376018 0
M  V30 3480 H 326.226 -3.82604 1.15992 0
M  V30 3481 H 327.666 -4.23504 0.204951 0
M  V30 3482 C 326.125 -3.24546 -0.903954 0
M  V30 3483 O 326.655 -3.49865 -1.97377 0
M  V30 3484 N 324.861 -2.77992 -0.846679 0
M  V30 3485 H 324.408 -2.57589 0.0241017 0
M  V30 3486 H 324.366 -2.64244 -1.70359 0
M  V30 3487 N 328.138 -0.959301 -1.25041 0
M  V30 3488 C 329.549 -0.65667 -1.74771 0
M  V30 3489 C 329.9 0.827852 -1.77879 0
M  V30 3490 O 329.025 1.64783 -1.40269 0
M  V30 3491 C 329.62 -1.1853 -3.1739 0
M  V30 3492 C 328.179 -0.932734 -3.6466 0
M  V30 3493 C 327.326 -1.32558 -2.43564 0
M  V30 3494 H 330.277 -1.13558 -1.10862 0
M  V30 3495 H 330.298 -0.547582 -3.76539 0
M  V30 3496 H 329.81 -2.26576 -3.15095 0
M  V30 3497 H 327.911 0.13257 -3.72364 0
M  V30 3498 H 328.024 -1.57248 -4.52559 0
M  V30 3499 H 326.388 -0.743956 -2.43593 0
M  V30 3500 H 327.171 -2.41537 -2.43957 0
M  V30 3501 N 329.616 1.39756 -0.72842 0
M  V30 3502 C 330.864 2.00248 -0.272946 0
M  V30 3503 C 331.185 1.58077 1.14178 0
M  V30 3504 O 330.455 0.826014 1.77634 0
M  V30 3505 H 329.035 0.740554 -0.0979247 0
M  V30 3506 H 331.697 1.70903 -0.936912 0
M  V30 3507 H 330.793 3.10495 -0.316142 0
M  V30 3508 N 331.094 0.475555 1.50254 0
M  V30 3509 C 332.343 -0.0795996 2.01543 0
M  V30 3510 C 332.656 -1.4038 1.36209 0
M  V30 3511 O 333.862 -2.04415 1.7868 0
M  V30 3512 C 332.318 -0.192363 3.59386 0
M  V30 3513 C 331.926 1.12367 4.33679 0
M  V30 3514 C 333.67 -0.699238 4.18701 0
M  V30 3515 C 331.577 0.974453 5.83317 0
M  V30 3516 H 330.507 -0.0335228 0.753254 0
M  V30 3517 H 333.158 0.611128 1.73025 0
M  V30 3518 H 331.54 -0.946974 3.84511 0
M  V30 3519 H 332.714 1.88958 4.20276 0
M  V30 3520 H 331.029 1.562 3.85993 0
M  V30 3521 H 333.626 -0.827978 5.28251 0
M  V30 3522 H 333.969 -1.69171 3.80377 0
M  V30 3523 H 334.502 -0.00188807 3.978 0
M  V30 3524 H 331.241 1.94042 6.26121 0
M  V30 3525 H 330.761 0.248998 5.99283 0
M  V30 3526 H 332.44 0.642867 6.43798 0
M  V30 3527 N 332.573 -1.56217 0.208337 0
M  V30 3528 C 333.82 -1.97949 -0.42692 0
M  V30 3529 C 334.148 -1.09562 -1.60706 0
M  V30 3530 O 333.403 -0.137616 -1.95216 0
M  V30 3531 C 333.702 -3.45441 -0.916797 0
M  V30 3532 C 333.368 -4.50646 0.151391 0
M  V30 3533 C 332.03 -4.79139 0.444867 0
M  V30 3534 C 334.382 -5.13811 0.874492 0
M  V30 3535 C 331.71 -5.68084 1.46619 0
M  V30 3536 C 334.062 -6.03861 1.88506 0
M  V30 3537 C 332.726 -6.30704 2.18559 0
M  V30 3538 H 331.996 -0.724345 -0.156221 0
M  V30 3539 H 334.643 -1.89006 0.308084 0
M  V30 3540 H 332.948 -3.51521 -1.73032 0
M  V30 3541 H 334.645 -3.75094 -1.41794 0
M  V30 3542 H 331.235 -4.28511 -0.0875068 0
M  V30 3543 H 335.419 -4.91879 0.660996 0
M  V30 3544 H 330.675 -5.87151 1.7048 0
M  V30 3545 H 334.849 -6.51861 2.45051 0
M  V30 3546 H 332.476 -6.99424 2.97843 0
M  V30 3547 N 334.051 0.0651679 -1.57465 0
M  V30 3548 C 334.981 1.07693 -2.07182 0
M  V30 3549 C 335.962 1.39962 -0.966673 0
M  V30 3550 O 337.147 1.49475 -1.2398 0
M  V30 3551 C 334.277 2.3885 -2.52127 0
M  V30 3552 C 333.231 2.20917 -3.66579 0
M  V30 3553 C 332.557 3.57515 -3.97601 0
M  V30 3554 C 333.857 1.62493 -4.9638 0
M  V30 3555 H 335.551 0.663199 -2.91962 0
M  V30 3556 H 333.097 0.317569 -1.40455 0
M  V30 3557 H 335.05 3.09928 -2.85522 0
M  V30 3558 H 333.774 2.82215 -1.64384 0
M  V30 3559 H 332.433 1.52279 -3.33477 0
M  V30 3560 H 332.081 3.98463 -3.06979 0
M  V30 3561 H 331.781 3.46353 -4.74672 0
M  V30 3562 H 333.305 4.30013 -4.33499 0
M  V30 3563 H 334.719 2.23445 -5.27963 0
M  V30 3564 H 333.116 1.62009 -5.77818 0
M  V30 3565 H 334.186 0.587041 -4.81333 0
M  V30 3566 N 335.529 1.53961 0.336706 0
M  V30 3567 C 336.94 1.62914 0.911925 0
M  V30 3568 C 337.291 0.514795 1.89326 0
M  V30 3569 O 336.416 -0.354395 2.13478 0
M  V30 3570 C 337.011 2.95304 1.66076 0
M  V30 3571 C 335.57 3.06496 2.18489 0
M  V30 3572 C 334.717 2.58403 1.00613 0
M  V30 3573 H 337.668 1.58285 0.114649 0
M  V30 3574 H 337.689 2.84727 2.5241 0
M  V30 3575 H 337.201 3.76387 0.946276 0
M  V30 3576 H 335.302 2.3006 2.93092 0
M  V30 3577 H 335.415 4.1208 2.44391 0
M  V30 3578 H 333.779 2.13977 1.38152 0
M  V30 3579 H 334.562 3.41932 0.306179 0
M  V30 3580 N 337.007 -0.598083 1.45811 0
M  V30 3581 C 338.418 -1.18011 1.44673 0
M  V30 3582 C 338.769 -1.95378 0.179364 0
M  V30 3583 O 337.894 -2.04124 -0.718509 0
M  V30 3584 C 338.489 -2.14677 2.62105 0
M  V30 3585 C 337.048 -2.68236 2.64057 0
M  V30 3586 C 336.195 -1.43816 2.37091 0
M  V30 3587 H 339.146 -0.38686 1.53913 0
M  V30 3588 H 339.167 -2.97878 2.36746 0
M  V30 3589 H 338.679 -1.5834 3.5433 0
M  V30 3590 H 336.78 -3.28486 1.75864 0
M  V30 3591 H 336.893 -3.12021 3.63566 0
M  V30 3592 H 335.257 -1.731 1.86838 0
M  V30 3593 H 336.04 -0.893333 3.31473 0
M  V30 3594 N 338.485 -1.33259 -0.841409 0
M  V30 3595 C 339.733 -1.24326 -1.59334 0
M  V30 3596 C 340.054 0.191564 -1.94057 0
M  V30 3597 O 339.324 1.11967 -1.60749 0
M  V30 3598 H 337.904 -0.457174 -0.590763 0
M  V30 3599 H 340.566 -1.66947 -1.00571 0
M  V30 3600 H 339.662 -1.8352 -2.52442 0
M  V30 3601 N 339.963 1.05934 -1.16686 0
M  V30 3602 C 341.191 1.8249 -0.974929 0
M  V30 3603 C 341.606 1.82679 0.476861 0
M  V30 3604 O 340.963 1.2486 1.33103 0
M  V30 3605 C 341.014 3.28943 -1.49929 0
M  V30 3606 O 340.735 3.28886 -2.89423 0
M  V30 3607 C 342.236 4.22215 -1.35089 0
M  V30 3608 H 339.456 0.575295 -0.345365 0
M  V30 3609 H 342 1.33631 -1.548 0
M  V30 3610 H 340.155 3.751 -0.968423 0
M  V30 3611 H 340.569 4.20493 -3.13506 0
M  V30 3612 H 342.043 5.22987 -1.76603 0
M  V30 3613 H 342.52 4.38195 -0.296935 0
M  V30 3614 H 343.126 3.81907 -1.87155 0
M  V30 3615 N 341.441 0.965919 1.2453 0
M  V30 3616 C 342.373 0.452465 2.2469 0
M  V30 3617 C 343.386 -0.437821 1.56802 0
M  V30 3618 O 344.575 -0.244283 1.76821 0
M  V30 3619 C 341.675 -0.366258 3.36915 0
M  V30 3620 C 340.848 0.513701 4.34373 0
M  V30 3621 C 339.907 -0.248716 5.25612 0
M  V30 3622 O 338.933 0.356745 5.68081 0
M  V30 3623 N 340.135 -1.53877 5.59734 0
M  V30 3624 H 342.9 1.31361 2.69378 0
M  V30 3625 H 340.461 0.837541 1.38553 0
M  V30 3626 H 342.453 -0.884297 3.94921 0
M  V30 3627 H 341.023 -1.12832 2.91526 0
M  V30 3628 H 340.243 1.21273 3.75082 0
M  V30 3629 H 341.531 1.11391 4.96457 0
M  V30 3630 H 340.929 -2.05243 5.27154 0
M  V30 3631 H 339.486 -2.00254 6.20275 0
M  V30 3632 N 342.919 -1.39368 0.735821 0
M  V30 3633 C 343.882 -2.2896 0.104874 0
M  V30 3634 C 344.882 -1.46347 -0.666274 0
M  V30 3635 O 346.072 -1.67014 -0.49517 0
M  V30 3636 C 343.204 -3.29857 -0.860656 0
M  V30 3637 H 344.397 -2.86259 0.894205 0
M  V30 3638 H 341.95 -1.48029 0.501704 0
M  V30 3639 H 342.685 -2.77615 -1.67631 0
M  V30 3640 H 342.47 -3.9087 -0.310327 0
M  V30 3641 H 343.96 -3.96893 -1.29867 0
M  V30 3642 N 344.397 -0.483516 -1.5 0
M  V30 3643 C 345.307 0.309172 -2.32554 0
M  V30 3644 C 346.323 0.984159 -1.43493 0
M  V30 3645 O 347.499 0.969399 -1.76535 0
M  V30 3646 C 344.564 1.36979 -3.18493 0
M  V30 3647 C 343.625 0.710095 -4.23387 0
M  V30 3648 C 342.858 1.72018 -5.05218 0
M  V30 3649 O 343.081 2.94813 -4.88305 0
M  V30 3650 O 342.015 1.28515 -5.8802 0
M  V30 3651 H 345.841 -0.366064 -3.01486 0
M  V30 3652 H 343.426 -0.24514 -1.47375 0
M  V30 3653 H 345.308 1.98385 -3.71781 0
M  V30 3654 H 343.983 2.02828 -2.52275 0
M  V30 3655 H 342.89 0.0567539 -3.74057 0
M  V30 3656 H 344.223 0.0943557 -4.9211 0
M  V30 3657 N 345.875 1.56104 -0.216619 0
M  V30 3658 C 347.122 1.98172 0.416416 0
M  V30 3659 C 347.45 1.10413 1.60122 0
M  V30 3660 O 346.705 0.147967 1.9514 0
M  V30 3661 C 347.004 3.45923 0.898464 0
M  V30 3662 C 346.67 4.50559 -0.175288 0
M  V30 3663 C 345.332 4.78897 -0.470271 0
M  V30 3664 C 347.684 5.1334 -0.901728 0
M  V30 3665 C 345.012 5.67299 -1.4963 0
M  V30 3666 C 347.364 6.02853 -1.91705 0
M  V30 3667 C 346.028 6.29537 -2.21901 0
M  V30 3668 H 345.298 0.725164 0.152377 0
M  V30 3669 H 347.945 1.88839 -0.318103 0
M  V30 3670 H 346.25 3.52434 1.71165 0
M  V30 3671 H 347.947 3.75841 1.39803 0
M  V30 3672 H 344.537 4.28551 0.0647806 0
M  V30 3673 H 348.721 4.91521 -0.687072 0
M  V30 3674 H 343.977 5.86239 -1.73592 0
M  V30 3675 H 348.151 6.50552 -2.48505 0
M  V30 3676 H 345.778 6.97835 -3.01548 0
M  V30 3677 N 347.353 -0.0568162 1.57498 0
M  V30 3678 C 348.301 -1.08452 2.05769 0
M  V30 3679 C 349.295 -1.39164 0.965903 0
M  V30 3680 O 350.501 -1.38395 1.15095 0
M  V30 3681 H 346.876 -0.367148 0.656282 0
M  V30 3682 H 348.847 -0.651368 2.91204 0
M  V30 3683 C 347.596 -2.38543 2.52968 0
M  V30 3684 H 346.919 -2.15765 3.36579 0
M  V30 3685 H 348.359 -3.08863 2.90481 0
M  V30 3686 C 346.818 -3.05562 1.41893 0
M  V30 3687 O 347.348 -3.94262 0.769442 0
M  V30 3688 N 345.554 -2.6643 1.16032 0
M  V30 3689 H 345.101 -1.94387 1.6903 0
M  V30 3690 H 345.059 -3.11593 0.419219 0
M  V30 3691 N 348.832 -1.54138 -0.328536 0
M  V30 3692 C 349.762 -1.86167 -1.40939 0
M  V30 3693 C 350.743 -0.718044 -1.54202 0
M  V30 3694 O 351.928 -0.971328 -1.68163 0
M  V30 3695 C 349.058 -2.08461 -2.77779 0
M  V30 3696 C 348.012 -3.24299 -2.7931 0
M  V30 3697 C 347.338 -3.31955 -4.19178 0
M  V30 3698 C 348.638 -4.62065 -2.43502 0
M  V30 3699 H 350.332 -2.76689 -1.14383 0
M  V30 3700 H 347.878 -1.33132 -0.548806 0
M  V30 3701 H 349.831 -2.29453 -3.53454 0
M  V30 3702 H 348.555 -1.14684 -3.05802 0
M  V30 3703 H 347.214 -3.03187 -2.0609 0
M  V30 3704 H 346.862 -2.35745 -4.44335 0
M  V30 3705 H 346.562 -4.09805 -4.2111 0
M  V30 3706 H 348.086 -3.55175 -4.96672 0
M  V30 3707 H 349.5 -4.8297 -3.08889 0
M  V30 3708 H 347.897 -5.42429 -2.56693 0
M  V30 3709 H 348.967 -4.64652 -1.38659 0
M  V30 3710 N 350.31 0.590341 -1.46126 0
M  V30 3711 C 351.726 0.912917 -1.30912 0
M  V30 3712 C 351.926 1.99616 -0.274893 0
M  V30 3713 O 350.982 2.50397 0.325197 0
M  V30 3714 C 352.295 1.3375 -2.69317 0
M  V30 3715 C 353.843 1.45077 -2.77348 0
M  V30 3716 C 354.318 1.90904 -4.16317 0
M  V30 3717 N 355.809 1.9811 -4.18696 0
M  V30 3718 C 356.544 2.34828 -5.23109 0
M  V30 3719 N 356.04 2.70393 -6.37856 0
M  V30 3720 N 357.833 2.35317 -5.10473 0
M  V30 3721 H 349.984 -0.125358 -2.1203 0
M  V30 3722 H 352.247 0.00658481 -0.947977 0
M  V30 3723 H 351.953 0.615614 -3.4627 0
M  V30 3724 H 351.827 2.30058 -2.9892 0
M  V30 3725 H 354.214 2.16353 -2.00687 0
M  V30 3726 H 354.295 0.4704 -2.51438 0
M  V30 3727 H 353.939 1.20209 -4.9347 0
M  V30 3728 H 353.869 2.89886 -4.39629 0
M  V30 3729 H 356.36 1.73146 -3.359 0
M  V30 3730 H 356.673 2.97341 -7.13308 0
M  V30 3731 H 355.018 2.68048 -6.41229 0
M  V30 3732 H 358.209 2.0695 -4.19868 0
M  V30 3733 H 358.382 2.63605 -5.9196 0
M  V30 3734 N 351.788 1.33704 0.83433 0
M  V30 3735 C 353.065 1.16011 1.57483 0
M  V30 3736 C 353.445 -0.27176 2.09343 0
M  V30 3737 O 352.793 -1.27146 1.89858 0
M  V30 3738 C 353.003 2.20507 2.70514 0
M  V30 3739 C 354.351 2.54898 3.39577 0
M  V30 3740 O 355.375 2.19209 2.80759 0
M  V30 3741 O 354.234 3.16158 4.45765 0
M  V30 3742 H 351.328 0.448992 0.694503 0
M  V30 3743 H 353.874 1.453 0.876691 0
M  V30 3744 H 352.646 3.16667 2.29865 0
M  V30 3745 H 352.269 1.92329 3.47987 0
M  V30 3746 N 353.266 -1.05314 1.17247 0
M  V30 3747 C 354.515 -1.77685 0.954521 0
M  V30 3748 C 354.828 -1.88616 -0.518025 0
M  V30 3749 O 356.034 -2.57714 -0.854144 0
M  V30 3750 C 354.49 -3.19402 1.65863 0
M  V30 3751 C 354.098 -3.16605 3.16963 0
M  V30 3752 C 355.842 -3.96237 1.52303 0
M  V30 3753 C 353.749 -4.53103 3.80068 0
M  V30 3754 H 352.679 -0.666 0.353496 0
M  V30 3755 H 355.33 -1.1805 1.40486 0
M  V30 3756 H 353.712 -3.79355 1.13602 0
M  V30 3757 H 354.886 -2.66176 3.76148 0
M  V30 3758 H 353.201 -2.53268 3.30521 0
M  V30 3759 H 355.798 -4.97157 1.96822 0
M  V30 3760 H 356.141 -4.136 0.473401 0
M  V30 3761 H 356.674 -3.42829 2.01775 0
M  V30 3762 H 353.413 -4.40946 4.85023 0
M  V30 3763 H 352.933 -5.03686 3.2567 0
M  V30 3764 H 354.612 -5.22045 3.82202 0
M  V30 3765 N 354.744 -0.972509 -1.24016 0
M  V30 3766 C 356.155 -0.67517 -1.74064 0
M  V30 3767 C 356.506 0.808939 -1.78747 0
M  V30 3768 O 355.631 1.63286 -1.42009 0
M  V30 3769 C 356.226 -1.21889 -3.16115 0
M  V30 3770 C 354.785 -0.971358 -3.6365 0
M  V30 3771 C 353.932 -1.35134 -2.42145 0
M  V30 3772 H 356.883 -1.14727 -1.09651 0
M  V30 3773 H 356.904 -0.587489 -3.75937 0
M  V30 3774 H 356.416 -2.29906 -3.12674 0
M  V30 3775 H 354.517 0.0930686 -3.72484 0
M  V30 3776 H 354.63 -1.62039 -4.50866 0
M  V30 3777 H 352.994 -0.769751 -2.4279 0
M  V30 3778 H 353.777 -2.4411 -2.41381 0
M  V30 3779 N 356.222 1.38976 -0.743202 0
M  V30 3780 C 357.154 2.29096 -0.0689228 0
M  V30 3781 C 358.167 1.47229 0.694791 0
M  V30 3782 O 359.356 1.70212 0.537597 0
M  V30 3783 C 356.456 3.25988 0.926548 0
M  V30 3784 C 355.629 4.36833 0.222647 0
M  V30 3785 C 354.688 5.13981 1.12739 0
M  V30 3786 O 353.714 5.6601 0.601795 0
M  V30 3787 N 354.916 5.25966 2.45641 0
M  V30 3788 H 357.681 2.87604 -0.842846 0
M  V30 3789 H 355.242 1.50645 -0.593109 0
M  V30 3790 H 357.234 3.74476 1.5346 0
M  V30 3791 H 355.804 2.68453 1.60162 0
M  V30 3792 H 355.024 3.90116 -0.565983 0
M  V30 3793 H 356.312 5.0811 -0.264841 0
M  V30 3794 H 355.71 4.85228 2.9081 0
M  V30 3795 H 354.267 5.77865 3.01522 0
M  V30 3796 N 357.7 0.491464 1.49741 0
M  V30 3797 C 359.111 0.0413169 1.86654 0
M  V30 3798 C 359.462 -1.36985 1.40462 0
M  V30 3799 O 358.587 -2.01917 0.778354 0
M  V30 3800 C 359.182 0.0682023 3.38731 0
M  V30 3801 C 357.741 -0.32656 3.74981 0
M  V30 3802 C 356.888 0.444888 2.73708 0
M  V30 3803 H 359.839 0.704733 1.42194 0
M  V30 3804 H 359.86 -0.729322 3.73445 0
M  V30 3805 H 359.372 1.09539 3.72321 0
M  V30 3806 H 357.473 -1.35734 3.46997 0
M  V30 3807 H 357.586 -0.013741 4.79098 0
M  V30 3808 H 355.95 -0.104062 2.54487 0
M  V30 3809 H 356.733 1.47197 3.10142 0
M  V30 3810 N 359.178 -1.55987 0.224894 0
M  V30 3811 C 360.128 -2.17076 -0.697296 0
M  V30 3812 C 361.112 -1.12006 -1.15514 0
M  V30 3813 O 362.304 -1.37985 -1.10857 0
M  V30 3814 C 359.433 -2.85679 -1.90374 0
M  V30 3815 C 358.519 -3.97977 -1.46543 0
M  V30 3816 N 358.91 -5.00359 -0.739909 0
M  V30 3817 C 357.208 -4.10128 -1.75245 0
M  V30 3818 C 357.909 -5.79407 -0.515939 0
M  V30 3819 N 356.885 -5.32892 -1.07364 0
M  V30 3820 H 360.687 -2.93592 -0.134594 0
M  V30 3821 H 358.201 -1.62379 0.0262885 0
M  V30 3822 H 360.198 -3.27857 -2.57518 0
M  V30 3823 H 358.858 -2.1066 -2.47088 0
M  V30 3824 H 359.869 -5.16412 -0.392253 0
M  V30 3825 H 356.546 -3.46263 -2.33255 0
M  V30 3826 H 357.936 -6.71872 0.0617349 0
M  V30 3827 N 360.656 0.0484629 -1.57525 0
M  V30 3828 C 361.619 1.03956 -2.04269 0
M  V30 3829 C 362.619 1.30211 -0.943496 0
M  V30 3830 O 363.809 1.25539 -1.20771 0
M  V30 3831 C 360.941 2.37742 -2.44319 0
M  V30 3832 H 362.134 0.636182 -2.93075 0
M  V30 3833 H 359.687 0.294811 -1.53494 0
M  V30 3834 H 360.422 2.82866 -1.5861 0
M  V30 3835 H 360.207 2.20021 -3.24551 0
M  V30 3836 H 361.697 3.08936 -2.80978 0
M  V30 3837 N 362.134 1.5431 0.320358 0
M  V30 3838 C 363.044 1.86946 1.41734 0
M  V30 3839 C 364.06 0.761689 1.56443 0
M  V30 3840 O 365.236 1.05629 1.71477 0
M  V30 3841 C 362.301 2.09293 2.76401 0
M  V30 3842 C 361.362 3.33082 2.70841 0
M  V30 3843 C 360.595 3.54353 3.99086 0
M  V30 3844 O 360.818 2.79002 4.97508 0
M  V30 3845 O 359.752 4.47838 4.0215 0
M  V30 3846 H 363.578 2.80232 1.17062 0
M  V30 3847 H 361.163 1.40255 0.514673 0
M  V30 3848 H 363.045 2.25303 3.56113 0
M  V30 3849 H 361.72 1.19194 3.00956 0
M  V30 3850 H 360.627 3.22454 1.89668 0
M  V30 3851 H 361.96 4.23249 2.5124 0
M  V30 3852 N 363.613 -0.582584 1.46437 0
M  V30 3853 C 365.024 -1.1647 1.45916 0
M  V30 3854 C 365.375 -1.95177 0.200077 0
M  V30 3855 O 364.5 -2.04874 -0.696819 0
M  V30 3856 C 365.095 -2.11885 2.64367 0
M  V30 3857 C 363.654 -2.65421 2.66887 0
M  V30 3858 C 362.801 -1.41294 2.38603 0
M  V30 3859 H 365.752 -0.370514 1.54314 0
M  V30 3860 H 365.773 -2.9535 2.39892 0
M  V30 3861 H 365.285 -1.54573 3.5599 0
M  V30 3862 H 363.386 -3.26602 1.79338 0
M  V30 3863 H 363.499 -3.08147 3.66854 0
M  V30 3864 H 361.863 -1.71109 1.88663 0
M  V30 3865 H 362.646 -0.858125 3.32402 0
M  V30 3866 N 365.091 -1.34144 -0.827227 0
M  V30 3867 C 366.337 -1.27455 -1.58515 0
M  V30 3868 C 366.692 0.155271 -1.91772 0
M  V30 3869 O 365.985 1.10042 -1.56848 0
M  V30 3870 C 366.179 -2.09464 -2.89585 0
M  V30 3871 C 366.008 -3.60276 -2.69131 0
M  V30 3872 C 364.778 -4.29565 -2.66087 0
M  V30 3873 C 366.976 -4.54367 -2.40947 0
M  V30 3874 N 364.958 -5.66252 -2.37132 0
M  V30 3875 C 366.329 -5.79027 -2.21648 0
M  V30 3876 C 368.384 -4.43327 -2.26639 0
M  V30 3877 C 367.087 -6.93891 -1.89492 0
M  V30 3878 C 369.113 -5.58019 -1.95878 0
M  V30 3879 C 368.475 -6.81695 -1.774 0
M  V30 3880 H 364.574 -0.521614 -0.582617 0
M  V30 3881 H 367.158 -1.68811 -0.970105 0
M  V30 3882 H 365.329 -1.70411 -3.49019 0
M  V30 3883 H 367.061 -1.94453 -3.54923 0
M  V30 3884 H 363.816 -3.81959 -2.80008 0
M  V30 3885 H 364.24 -6.38338 -2.25507 0
M  V30 3886 H 368.882 -3.48333 -2.39633 0
M  V30 3887 H 366.6 -7.88871 -1.75236 0
M  V30 3888 H 370.186 -5.5142 -1.85546 0
M  V30 3889 H 369.066 -7.68942 -1.53941 0
M  V30 3890 N 366.569 1.04691 -1.17803 0
M  V30 3891 C 367.532 2.10724 -0.901545 0
M  V30 3892 C 368.532 1.6042 0.110437 0
M  V30 3893 O 369.722 1.7377 -0.122303 0
M  V30 3894 C 366.854 3.39084 -0.351409 0
M  V30 3895 H 368.047 2.36686 -1.84174 0
M  V30 3896 H 365.6 1.21015 -0.98919 0
M  V30 3897 H 366.335 3.18782 0.59569 0
M  V30 3898 H 366.12 3.76909 -1.08083 0
M  V30 3899 H 367.61 4.17227 -0.176451 0
M  V30 3900 N 368.047 0.979072 1.23499 0
M  V30 3901 C 369.294 0.647219 1.91878 0
M  V30 3902 C 369.622 -0.819074 1.76413 0
M  V30 3903 O 368.877 -1.60616 1.11808 0
M  V30 3904 C 369.176 0.981932 3.43646 0
M  V30 3905 C 368.842 2.43822 3.79291 0
M  V30 3906 C 367.504 2.83622 3.88731 0
M  V30 3907 C 369.856 3.3828 3.96505 0
M  V30 3908 C 367.184 4.16897 4.12812 0
M  V30 3909 C 369.536 4.71197 4.22085 0
M  V30 3910 C 368.2 5.10758 4.29747 0
M  V30 3911 H 367.47 0.236834 0.702133 0
M  V30 3912 H 370.117 1.23268 1.46551 0
M  V30 3913 H 368.422 0.314365 3.90537 0
M  V30 3914 H 370.119 0.703395 3.94783 0
M  V30 3915 H 366.709 2.11966 3.72516 0
M  V30 3916 H 370.893 3.0871 3.88603 0
M  V30 3917 H 366.149 4.47157 4.16966 0
M  V30 3918 H 370.323 5.44348 4.34348 0
M  V30 3919 H 367.95 6.1405 4.48159 0
M  V30 3920 N 369.525 -1.3858 0.750561 0
M  V30 3921 C 370.75 -2.04997 0.314812 0
M  V30 3922 C 371.175 -1.56235 -1.04749 0
M  V30 3923 O 370.533 -0.712981 -1.66692 0
M  V30 3924 C 370.581 -3.58961 0.343415 0
M  V30 3925 O 369.685 -4.07025 -0.663628 0
M  V30 3926 H 369.026 -0.649081 0.139962 0
M  V30 3927 H 371.556 -1.77313 1.02084 0
M  V30 3928 H 371.566 -4.07542 0.193233 0
M  V30 3929 H 370.241 -3.93811 1.33738 0
M  V30 3930 H 368.818 -3.6982 -0.478307 0
M  V30 3931 N 371.003 -0.499398 -1.49478 0
M  V30 3932 C 371.933 0.269244 -2.31943 0
M  V30 3933 C 372.914 0.964054 -1.40143 0
M  V30 3934 O 374.099 0.955767 -1.69052 0
M  V30 3935 C 371.229 1.33504 -3.20615 0
M  V30 3936 C 370.183 0.760202 -4.21195 0
M  V30 3937 C 369.509 1.9264 -4.98792 0
M  V30 3938 C 370.809 -0.247661 -5.21712 0
M  V30 3939 H 372.503 -0.419082 -2.96452 0
M  V30 3940 H 370.049 -0.202988 -1.42562 0
M  V30 3941 H 372.002 1.88048 -3.77115 0
M  V30 3942 H 370.726 2.05253 -2.54045 0
M  V30 3943 H 369.385 0.23653 -3.65836 0
M  V30 3944 H 369.033 2.63154 -4.28671 0
M  V30 3945 H 368.733 1.54785 -5.66847 0
M  V30 3946 H 370.257 2.4762 -5.58137 0
M  V30 3947 H 371.671 0.209579 -5.72917 0
M  V30 3948 H 370.068 -0.541962 -5.97648 0
M  V30 3949 H 371.138 -1.16409 -4.7072 0
M  V30 3950 N 372.481 1.55866 -0.233164 0
M  V30 3951 C 373.758 1.90471 0.444988 0
M  V30 3952 C 374.138 1.15209 1.7689 0
M  V30 3953 O 373.486 0.265119 2.26957 0
M  V30 3954 C 373.696 3.4333 0.626559 0
M  V30 3955 C 375.044 4.14319 0.92871 0
M  V30 3956 O 376.068 3.48993 0.712926 0
M  V30 3957 O 374.927 5.29846 1.33887 0
M  V30 3958 H 372.021 0.792347 0.236885 0
M  V30 3959 H 374.567 1.67437 -0.276211 0
M  V30 3960 H 373.339 3.90095 -0.306822 0
M  V30 3961 H 372.962 3.72181 1.39881 0
M  V30 3962 N 373.959 -0.0401083 1.57549 0
M  V30 3963 C 374.889 -1.04384 2.08869 0
M  V30 3964 C 375.87 -1.38407 0.988817 0
M  V30 3965 O 377.055 -1.47483 1.26342 0
M  V30 3966 C 374.185 -2.34808 2.55895 0
M  V30 3967 C 373.139 -2.15057 3.70047 0
M  V30 3968 C 372.465 -3.51145 4.03239 0
M  V30 3969 C 373.765 -1.54576 4.98902 0
M  V30 3970 H 375.459 -0.616666 2.92981 0
M  V30 3971 H 373.005 -0.295184 1.40942 0
M  V30 3972 H 374.958 -3.05346 2.90417 0
M  V30 3973 H 373.682 -2.79565 1.68853 0
M  V30 3974 H 372.341 -1.46954 3.35857 0
M  V30 3975 H 371.989 -3.93529 3.13279 0
M  V30 3976 H 371.689 -3.38758 4.80122 0
M  V30 3977 H 373.213 -4.23062 4.40285 0
M  V30 3978 H 374.627 -2.15017 5.31451 0
M  V30 3979 H 373.024 -1.52796 5.80322 0
M  V30 3980 H 374.094 -0.51039 4.82206 0
M  V30 3981 N 375.437 -1.54477 -0.31217 0
M  V30 3982 C 376.685 -1.72884 -1.04668 0
M  V30 3983 C 377.006 -0.511477 -1.88173 0
M  V30 3984 O 376.276 0.474407 -1.90069 0
M  V30 3985 H 374.856 -0.637461 -0.389425 0
M  V30 3986 H 377.518 -1.91807 -0.345852 0
M  V30 3987 H 376.614 -2.61334 -1.70619 0
M  V30 3988 N 376.915 0.57481 -1.46744 0
M  V30 3989 C 377.845 1.69337 -1.60771 0
M  V30 3990 C 378.826 1.63825 -0.457736 0
M  V30 3991 O 380.011 1.8172 -0.684947 0
M  V30 3992 C 377.141 3.0798 -1.60517 0
M  V30 3993 C 376.095 3.28327 -2.74564 0
M  V30 3994 C 375.421 4.67578 -2.59373 0
M  V30 3995 C 376.721 3.15398 -4.16319 0
M  V30 3996 H 378.415 1.57853 -2.54407 0
M  V30 3997 H 375.961 0.75799 -1.22436 0
M  V30 3998 H 377.914 3.86061 -1.68923 0
M  V30 3999 H 376.638 3.20381 -0.634305 0
M  V30 4000 H 375.297 2.52649 -2.65639 0
M  V30 4001 H 374.945 4.76755 -1.60353 0
M  V30 4002 H 374.645 4.82144 -3.35873 0
M  V30 4003 H 376.169 5.47817 -2.69682 0
M  V30 4004 H 377.583 3.83315 -4.26313 0
M  V30 4005 H 375.98 3.41482 -4.93468 0
M  V30 4006 H 377.05 2.12372 -4.3592 0
M  V30 4007 N 378.394 1.34581 0.820102 0
M  V30 4008 C 379.341 1.2639 1.93117 0
M  V30 4009 C 380.311 0.138554 1.65521 0
M  V30 4010 O 381.496 0.320004 1.88097 0
M  V30 4011 C 378.636 1.02812 3.29429 0
M  V30 4012 C 377.749 2.24146 3.693 0
M  V30 4013 C 376.884 1.93829 4.94574 0
M  V30 4014 C 375.923 3.1129 5.27034 0
M  V30 4015 N 375.06 2.80838 6.43486 0
M  V30 4016 H 379.9 2.21408 1.99455 0
M  V30 4017 H 377.437 1.10077 0.975784 0
M  V30 4018 H 379.395 0.871788 4.0799 0
M  V30 4019 H 378.025 0.114612 3.22596 0
M  V30 4020 H 377.077 2.50691 2.86109 0
M  V30 4021 H 378.389 3.11899 3.89257 0
M  V30 4022 H 377.543 1.74948 5.80929 0
M  V30 4023 H 376.282 1.03341 4.76626 0
M  V30 4024 H 375.287 3.30764 4.39175 0
M  V30 4025 H 376.512 4.02561 5.4692 0
M  V30 4026 H 374.458 1.92929 6.26988 0
M  V30 4027 H 374.375 3.62123 6.63629 0
M  V30 4028 H 375.643 2.65467 7.32903 0
M  V30 4029 N 379.872 -1.04064 1.18357 0
M  V30 4030 C 380.804 -2.12114 0.868358 0
M  V30 4031 C 381.817 -1.62247 -0.134045 0
M  V30 4032 O 383.006 -1.78253 0.0937933 0
M  V30 4033 C 380.106 -3.37773 0.276132 0
M  V30 4034 C 379.279 -4.16874 1.3242 0
M  V30 4035 C 378.338 -5.20861 0.747662 0
M  V30 4036 O 377.364 -5.51141 1.42239 0
M  V30 4037 N 378.566 -5.78715 -0.454823 0
M  V30 4038 H 381.331 -2.39748 1.79836 0
M  V30 4039 H 378.892 -1.20258 1.08396 0
M  V30 4040 H 380.884 -4.04513 -0.123133 0
M  V30 4041 H 379.454 -3.07581 -0.557895 0
M  V30 4042 H 378.674 -3.45456 1.89878 0
M  V30 4043 H 379.962 -4.66516 2.03078 0
M  V30 4044 H 379.36 -5.56415 -1.02073 0
M  V30 4045 H 377.917 -6.46921 -0.79601 0
M  V30 4046 N 381.35 -0.985608 -1.22978 0
M  V30 4047 C 382.313 -0.535071 -2.22867 0
M  V30 4048 C 383.313 0.378123 -1.56291 0
M  V30 4049 O 384.503 0.171092 -1.73358 0
M  V30 4050 C 381.635 0.222702 -3.40172 0
M  V30 4051 H 382.828 -1.41835 -2.6424 0
M  V30 4052 H 380.381 -0.772042 -1.35901 0
M  V30 4053 H 381.116 1.12229 -3.04262 0
M  V30 4054 H 380.901 -0.43288 -3.89703 0
M  V30 4055 H 382.391 0.526335 -4.1427 0
M  V30 4056 N 382.828 1.3818 -0.7579 0
M  V30 4057 C 383.791 2.28764 -0.141286 0
M  V30 4058 C 384.791 1.47388 0.642907 0
M  V30 4059 O 385.981 1.67781 0.468536 0
M  V30 4060 C 383.113 3.31184 0.808069 0
M  V30 4061 H 384.306 2.848 -0.939633 0
M  V30 4062 H 381.859 1.47212 -0.525191 0
M  V30 4063 H 382.594 2.80247 1.63193 0
M  V30 4064 H 382.379 3.91314 0.248104 0
M  V30 4065 H 383.869 3.98909 1.23536 0
M  V30 4066 N 384.306 0.507319 1.49211 0
M  V30 4067 C 385.554 -0.0348839 2.0207 0
M  V30 4068 C 385.875 -1.36898 1.38866 0
M  V30 4069 O 385.145 -1.88133 0.546151 0
M  V30 4070 H 383.725 -0.0158812 0.746831 0
M  V30 4071 H 386.387 0.665998 1.83168 0
M  V30 4072 H 385.483 -0.159917 3.1169 0
M  V30 4073 N 385.784 -1.5574 0.241426 0
M  V30 4074 C 387.009 -2.0366 -0.392111 0
M  V30 4075 C 387.434 -1.11969 -1.51144 0
M  V30 4076 O 386.792 -0.111594 -1.80956 0
M  V30 4077 C 386.84 -3.49638 -0.882371 0
M  V30 4078 O 385.944 -3.6108 -1.99235 0
M  V30 4079 H 385.285 -0.658379 -0.0862122 0
M  V30 4080 H 387.815 -2.01302 0.365881 0
M  V30 4081 H 387.825 -3.90351 -1.18702 0
M  V30 4082 H 386.5 -4.15852 -0.0632361 0
M  V30 4083 H 385.077 -3.32262 -1.69282 0
M  V30 4084 N 387.262 0.0317525 -1.57568 0
M  V30 4085 C 388.51 0.721676 -1.88776 0
M  V30 4086 C 388.831 1.76039 -0.838772 0
M  V30 4087 O 388.101 1.95482 0.127935 0
M  V30 4088 H 386.681 0.269534 -0.696678 0
M  V30 4089 H 389.343 -0.00165879 -1.949 0
M  V30 4090 H 388.439 1.21293 -2.87566 0
M  V30 4091 N 388.74 1.54641 0.303973 0
M  V30 4092 C 389.69 1.8177 1.37636 0
M  V30 4093 C 390.674 0.674697 1.46071 0
M  V30 4094 O 391.866 0.935251 1.50273 0
M  V30 4095 C 388.995 2.06584 2.74186 0
M  V30 4096 C 388.081 3.2706 2.69986 0
M  V30 4097 N 388.472 4.47682 2.35402 0
M  V30 4098 C 386.77 3.29028 3.01092 0
M  V30 4099 C 387.471 5.29689 2.40426 0
M  V30 4100 N 386.447 4.67339 2.7766 0
M  V30 4101 H 390.249 2.72596 1.09857 0
M  V30 4102 H 387.763 1.541 0.51254 0
M  V30 4103 H 389.76 2.24166 3.51504 0
M  V30 4104 H 388.42 1.17024 3.02879 0
M  V30 4105 H 389.431 4.74336 2.07908 0
M  V30 4106 H 386.108 2.49565 3.34699 0
M  V30 4107 H 387.498 6.3606 2.16512 0
M  V30 4108 N 390.218 -0.567019 1.47046 0
M  V30 4109 C 391.148 -1.68482 1.61667 0
M  V30 4110 C 392.129 -1.6358 0.466418 0
M  V30 4111 O 393.314 -1.81354 0.694574 0
M  V30 4112 C 390.444 -3.07124 1.62148 0
M  V30 4113 C 389.398 -3.26867 2.76301 0
M  V30 4114 C 388.724 -4.66196 2.61849 0
M  V30 4115 C 390.024 -3.13186 4.17986 0
M  V30 4116 H 391.718 -1.56502 2.5524 0
M  V30 4117 H 389.264 -0.751486 1.22836 0
M  V30 4118 H 391.217 -3.8516 1.70968 0
M  V30 4119 H 389.941 -3.2004 0.651287 0
M  V30 4120 H 388.6 -2.51237 2.66975 0
M  V30 4121 H 388.248 -4.75898 1.62879 0
M  V30 4122 H 387.948 -4.80356 3.38425 0
M  V30 4123 H 389.472 -5.46379 2.72584 0
M  V30 4124 H 390.886 -3.81049 4.2834 0
M  V30 4125 H 389.283 -3.3886 4.95272 0
M  V30 4126 H 390.353 -2.10057 4.3704 0
M  V30 4127 N 391.696 -1.35014 -0.812953 0
M  V30 4128 C 392.626 -1.30069 -1.93919 0
M  V30 4129 C 393.607 -0.176275 -1.69184 0
M  V30 4130 O 394.792 -0.370227 -1.90638 0
M  V30 4131 C 391.922 -1.06547 -3.30552 0
M  V30 4132 C 390.876 -2.15561 -3.69753 0
M  V30 4133 C 390.202 -1.77214 -5.04479 0
M  V30 4134 C 391.502 -3.57476 -3.808 0
M  V30 4135 H 393.196 -2.24303 -1.98314 0
M  V30 4136 H 390.742 -1.07977 -0.952736 0
M  V30 4137 H 392.695 -1.01729 -4.08937 0
M  V30 4138 H 391.419 -0.0875719 -3.26483 0
M  V30 4139 H 390.078 -2.19466 -2.9365 0
M  V30 4140 H 389.726 -0.780589 -4.96906 0
M  V30 4141 H 389.426 -2.50184 -5.31678 0
M  V30 4142 H 390.95 -1.7391 -5.8531 0
M  V30 4143 H 392.364 -3.55929 -4.4943 0
M  V30 4144 H 390.761 -4.29152 -4.19462 0
M  V30 4145 H 391.831 -3.94091 -2.82525 0
M  V30 4146 N 393.175 1.03435 -1.18907 0
M  V30 4147 C 394.138 2.09756 -0.923844 0
M  V30 4148 C 395.138 1.60528 0.093416 0
M  V30 4149 O 396.328 1.73631 -0.140727 0
M  V30 4150 C 393.46 3.38692 -0.387354 0
M  V30 4151 H 394.653 2.34719 -1.86674 0
M  V30 4152 H 392.206 1.19959 -1.00197 0
M  V30 4153 H 392.941 3.19396 0.561845 0
M  V30 4154 H 392.726 3.75742 -1.12074 0
M  V30 4155 H 394.216 4.17016 -0.220694 0
M  V30 4156 N 394.653 0.992116 1.22453 0
M  V30 4157 C 395.583 0.561677 2.26644 0
M  V30 4158 C 396.564 -0.411055 1.65059 0
M  V30 4159 O 397.749 -0.301861 1.9184 0
M  V30 4160 C 394.879 -0.125247 3.47074 0
M  V30 4161 C 393.833 0.765948 4.21091 0
M  V30 4162 C 393.159 -0.0538484 5.34673 0
M  V30 4163 C 394.459 2.06242 4.79856 0
M  V30 4164 H 396.153 1.43259 2.62902 0
M  V30 4165 H 393.699 0.690283 1.26377 0
M  V30 4166 H 395.652 -0.437764 4.1912 0
M  V30 4167 H 394.376 -1.03069 3.0991 0
M  V30 4168 H 393.035 1.0621 3.50878 0
M  V30 4169 H 392.683 -0.960188 4.9375 0
M  V30 4170 H 392.383 0.539415 5.85119 0
M  V30 4171 H 393.907 -0.360477 6.09535 0
M  V30 4172 H 395.321 1.8139 5.43848 0
M  V30 4173 H 393.718 2.60444 5.40638 0
M  V30 4174 H 394.788 2.74167 3.99951 0
M  V30 4175 N 396.131 -1.37776 0.765217 0
M  V30 4176 C 397.379 -1.99454 0.325943 0
M  V30 4177 C 397.7 -1.61049 -1.09947 0
M  V30 4178 O 396.97 -0.872821 -1.75381 0
M  V30 4179 H 395.55 -0.737697 0.117525 0
M  V30 4180 H 398.212 -1.68359 0.981895 0
M  V30 4181 H 397.308 -3.09547 0.398353 0
M  V30 4182 N 397.609 -0.515225 -1.4894 0
M  V30 4183 C 398.837 0.0206034 -2.0689 0
M  V30 4184 C 399.252 1.29514 -1.37374 0
M  V30 4185 O 398.609 1.76698 -0.456529 0
M  V30 4186 C 398.66 0.26351 -3.60538 0
M  V30 4187 O 398.381 -0.960517 -4.27441 0
M  V30 4188 C 399.882 0.841383 -4.35242 0
M  V30 4189 H 397.102 -0.0268608 -0.670462 0
M  V30 4190 H 399.646 -0.716651 -1.91532 0
M  V30 4191 H 397.801 0.950777 -3.75552 0
M  V30 4192 H 398.215 -0.73212 -5.19365 0
M  V30 4193 H 399.689 0.96085 -5.43573 0
M  V30 4194 H 400.166 1.8427 -3.98674 0
M  V30 4195 H 400.772 0.191143 -4.2487 0
M  V30 4196 N 399.087 1.5561 -0.249682 0
M  V30 4197 C 400.498 1.84979 0.252949 0
M  V30 4198 C 400.849 1.17153 1.57384 0
M  V30 4199 O 399.974 0.450884 2.11651 0
M  V30 4200 C 400.569 3.35584 0.465732 0
M  V30 4201 C 399.128 3.65169 0.912624 0
M  V30 4202 C 398.275 2.77299 -0.00859085 0
M  V30 4203 H 401.226 1.51513 -0.47217 0
M  V30 4204 H 401.247 3.57313 1.30795 0
M  V30 4205 H 400.759 3.8492 -0.49579 0
M  V30 4206 H 398.86 3.21312 1.88652 0
M  V30 4207 H 398.973 4.72912 0.767559 0
M  V30 4208 H 397.337 2.49678 0.50327 0
M  V30 4209 H 398.12 3.29442 -0.965537 0
M  V30 4210 N 400.565 -0.0233959 1.57583 0
M  V30 4211 C 401.475 -1.03907 2.10334 0
M  V30 4212 C 402.491 -1.39257 1.04323 0
M  V30 4213 O 403.667 -1.48462 1.36091 0
M  V30 4214 C 400.732 -2.31938 2.57693 0
M  V30 4215 C 399.793 -2.03117 3.78209 0
M  V30 4216 C 399.026 -3.25043 4.233 0
M  V30 4217 O 399.249 -4.35916 3.67876 0
M  V30 4218 O 398.183 -3.10411 5.15683 0
M  V30 4219 H 402.009 -0.620748 2.97288 0
M  V30 4220 H 399.594 -0.240743 1.47448 0
M  V30 4221 H 401.476 -3.07196 2.88458 0
M  V30 4222 H 400.151 -2.73055 1.73847 0
M  V30 4223 H 399.058 -1.25408 3.52454 0
M  V30 4224 H 400.391 -1.66852 4.63056 0
M  V30 4225 N 402.043 -1.548 -0.295768 0
M  V30 4226 C 402.991 -1.86874 -1.38495 0
M  V30 4227 C 403.985 -0.742938 -1.52239 0
M  V30 4228 O 405.191 -0.926999 -1.54294 0
M  V30 4229 H 401.566 -0.592786 -0.462719 0
M  V30 4230 H 403.537 -2.77904 -1.08682 0
M  V30 4231 C 402.286 -2.13732 -2.74252 0
M  V30 4232 H 401.609 -2.99835 -2.64459 0
M  V30 4233 H 403.049 -2.4011 -3.49461 0
M  V30 4234 C 401.508 -0.937539 -3.23592 0
M  V30 4235 O 402.038 -0.160665 -4.01379 0
M  V30 4236 N 400.244 -0.741478 -2.80981 0
M  V30 4237 H 399.791 -1.37489 -2.1784 0
M  V30 4238 H 399.749 0.0597103 -3.14343 0
M  V30 4239 N 403.521 0.559213 -1.47345 0
M  V30 4240 C 404.932 1.14134 -1.47751 0
M  V30 4241 C 405.283 1.94834 -0.231103 0
M  V30 4242 O 404.408 2.05957 0.664137 0
M  V30 4243 C 405.003 2.07653 -2.67705 0
M  V30 4244 C 403.562 2.61141 -2.71076 0
M  V30 4245 C 402.709 1.3748 -2.40821 0
M  V30 4246 H 405.66 0.345917 -1.54884 0
M  V30 4247 H 405.681 2.91497 -2.44561 0
M  V30 4248 H 405.193 1.4889 -3.58404 0
M  V30 4249 H 403.294 3.23707 -1.84511 0
M  V30 4250 H 403.407 3.02272 -3.7171 0
M  V30 4251 H 401.771 1.68086 -1.91362 0
M  V30 4252 H 402.554 0.805135 -3.33725 0
M  V30 4253 N 404.999 1.35443 0.805782 0
M  V30 4254 C 406.224 1.32037 1.59941 0
M  V30 4255 C 406.649 -0.0994215 1.87837 0
M  V30 4256 O 406.007 -1.06648 1.46615 0
M  V30 4257 C 406.055 2.13354 2.90711 0
M  V30 4258 O 405.159 1.5148 3.83572 0
M  V30 4259 H 404.5 0.452666 0.485787 0
M  V30 4260 H 407.03 1.78496 1.00002 0
M  V30 4261 H 407.04 2.25338 3.40128 0
M  V30 4262 H 405.715 3.16572 2.69732 0
M  V30 4263 H 404.292 1.4834 3.42125 0
M  V30 4264 N 406.477 -1.02803 1.19454 0
M  V30 4265 C 407.723 -1.76598 1.0092 0
M  V30 4266 C 408.078 -1.86939 -0.455142 0
M  V30 4267 O 407.371 -1.37575 -1.33355 0
M  V30 4268 C 407.565 -3.18941 1.6128 0
M  V30 4269 C 407.394 -3.22476 3.13431 0
M  V30 4270 C 406.164 -3.30375 3.82336 0
M  V30 4271 C 408.362 -3.09451 4.10785 0
M  V30 4272 N 406.344 -3.23292 5.21877 0
M  V30 4273 C 407.715 -3.10012 5.36929 0
M  V30 4274 C 409.77 -2.93585 4.02135 0
M  V30 4275 C 408.473 -2.96334 6.55423 0
M  V30 4276 C 410.499 -2.81256 5.20239 0
M  V30 4277 C 409.861 -2.82472 6.45282 0
M  V30 4278 H 405.96 -0.657447 0.423424 0
M  V30 4279 H 408.544 -1.22369 1.5144 0
M  V30 4280 H 406.715 -3.71489 1.1336 0
M  V30 4281 H 408.447 -3.81102 1.36173 0
M  V30 4282 H 405.202 -3.3663 3.33132 0
M  V30 4283 H 405.626 -3.23156 5.94894 0
M  V30 4284 H 410.268 -2.91466 3.0628 0
M  V30 4285 H 407.986 -2.97203 7.51463 0
M  V30 4286 H 411.572 -2.70014 5.15348 0
M  V30 4287 H 410.452 -2.73036 7.35133 0
M  V30 4288 N 407.956 -0.998596 -1.21925 0
M  V30 4289 C 408.886 -0.573688 -2.26343 0
M  V30 4290 C 409.867 0.402296 -1.65274 0
M  V30 4291 O 411.052 0.291683 -1.91997 0
M  V30 4292 C 408.182 0.106839 -3.47136 0
M  V30 4293 C 407.136 -0.788269 -4.20678 0
M  V30 4294 C 406.462 0.0254927 -5.34694 0
M  V30 4295 C 407.762 -2.08784 -4.78755 0
M  V30 4296 H 409.456 -1.44651 -2.62138 0
M  V30 4297 H 407.002 -0.696975 -1.26009 0
M  V30 4298 H 408.955 0.415531 -4.19346 0
M  V30 4299 H 407.679 1.01424 -3.10452 0
M  V30 4300 H 406.338 -1.08069 -3.50309 0
M  V30 4301 H 405.986 0.933989 -4.94253 0
M  V30 4302 H 405.686 -0.570437 -5.84825 0
M  V30 4303 H 407.21 0.328147 -6.09718 0
M  V30 4304 H 408.624 -1.84272 -5.42878 0
M  V30 4305 H 407.021 -2.63307 -5.39249 0
M  V30 4306 H 408.091 -2.76284 -3.98491 0
M  V30 4307 N 409.434 1.37368 -0.772513 0
M  V30 4308 C 410.659 2.0447 -0.347386 0
M  V30 4309 C 411.084 1.57882 1.0225 0
M  V30 4310 O 410.442 0.73941 1.65537 0
M  V30 4311 C 410.49 3.58369 -0.400479 0
M  V30 4312 O 409.594 4.0803 0.598789 0
M  V30 4313 H 408.935 0.646773 -0.15027 0
M  V30 4314 H 411.465 1.75667 -1.04892 0
M  V30 4315 H 411.475 4.07183 -0.258045 0
M  V30 4316 H 410.15 3.91633 -1.39986 0
M  V30 4317 H 408.727 3.70534 0.419411 0
M  V30 4318 N 410.912 0.523116 1.48665 0
M  V30 4319 C 411.842 -0.23231 2.32342 0
M  V30 4320 C 412.823 -0.941637 1.41659 0
M  V30 4321 O 414.008 -0.928751 1.70552 0
M  V30 4322 C 411.138 -1.28387 3.22698 0
M  V30 4323 C 410.092 -0.693098 4.22351 0
M  V30 4324 C 409.418 -1.8468 5.01794 0
M  V30 4325 C 410.718 0.33063 5.21252 0
M  V30 4326 H 412.412 0.466192 2.95748 0
M  V30 4327 H 409.958 0.225643 1.42221 0
M  V30 4328 H 411.911 -1.82024 3.80059 0
M  V30 4329 H 410.635 -2.01186 2.57278 0
M  V30 4330 H 409.294 -0.178299 3.66166 0
M  V30 4331 H 408.942 -2.56301 4.32804 0
M  V30 4332 H 408.642 -1.45747 5.69238 0
M  V30 4333 H 410.166 -2.38709 5.62006 0
M  V30 4334 H 411.58 -0.118407 5.73178 0
M  V30 4335 H 409.977 0.636974 5.9671 0
M  V30 4336 H 411.047 1.23883 4.68808 0
M  V30 4337 N 412.39 -1.55475 0.257931 0
M  V30 4338 C 413.34 -2.18506 -0.651094 0
M  V30 4339 C 414.324 -1.14431 -1.13112 0
M  V30 4340 O 415.516 -1.40305 -1.07905 0
M  V30 4341 C 412.645 -2.89653 -1.84272 0
M  V30 4342 C 411.731 -4.00996 -1.38068 0
M  V30 4343 N 412.122 -5.01816 -0.633609 0
M  V30 4344 C 410.42 -4.13753 -1.66506 0
M  V30 4345 C 411.121 -5.80371 -0.392922 0
M  V30 4346 N 410.097 -5.3505 -0.960359 0
M  V30 4347 H 413.899 -2.93811 -0.0722883 0
M  V30 4348 H 411.413 -1.62286 0.0607256 0
M  V30 4349 H 413.41 -3.33245 -2.50506 0
M  V30 4350 H 412.07 -2.15854 -2.42564 0
M  V30 4351 H 413.081 -5.17128 -0.282626 0
M  V30 4352 H 409.758 -3.51133 -2.25858 0
M  V30 4353 H 411.148 -6.7159 0.204235 0
M  V30 4354 N 413.868 0.0150385 -1.57593 0
M  V30 4355 C 414.798 1.01047 -2.10503 0
M  V30 4356 C 415.779 1.36816 -1.01071 0
M  V30 4357 O 416.964 1.45455 -1.28672 0
M  V30 4358 C 414.094 2.30708 -2.59598 0
M  V30 4359 C 413.048 2.09142 -3.73421 0
M  V30 4360 C 412.374 3.44685 -4.08774 0
M  V30 4361 C 413.674 1.46619 -5.01298 0
M  V30 4362 H 415.368 0.569978 -2.93925 0
M  V30 4363 H 412.914 0.272724 -1.41394 0
M  V30 4364 H 414.867 3.00687 -2.95238 0
M  V30 4365 H 413.591 2.76843 -1.73279 0
M  V30 4366 H 412.25 1.41592 -3.38153 0
M  V30 4367 H 411.898 3.88495 -3.195 0
M  V30 4368 H 411.598 3.31077 -4.8545 0
M  V30 4369 H 413.122 4.16004 -4.4696 0
M  V30 4370 H 414.536 2.06535 -5.34805 0
M  V30 4371 H 412.933 1.43544 -5.82679 0
M  V30 4372 H 414.003 0.433611 -4.82957 0
M  V30 4373 N 415.346 1.54954 0.287554 0
M  V30 4374 C 416.278 1.83224 1.37701 0
M  V30 4375 C 417.291 0.715898 1.46215 0
M  V30 4376 O 418.48 0.993565 1.48292 0
M  V30 4377 C 415.58 1.96723 2.75959 0
M  V30 4378 C 414.753 3.27253 2.90215 0
M  V30 4379 C 413.812 3.30998 4.09056 0
M  V30 4380 O 412.838 4.04457 4.00503 0
M  V30 4381 N 414.04 2.57353 5.20336 0
M  V30 4382 H 416.805 2.77254 1.138 0
M  V30 4383 H 414.366 1.54694 0.477652 0
M  V30 4384 H 416.358 1.96615 3.5373 0
M  V30 4385 H 414.928 1.09626 2.92747 0
M  V30 4386 H 414.148 3.40022 1.99447 0
M  V30 4387 H 415.436 4.13365 2.96659 0
M  V30 4388 H 414.834 1.97327 5.30169 0
M  V30 4389 H 413.391 2.62984 5.96391 0
M  V30 4390 N 416.824 -0.551391 1.4764 0
M  V30 4391 C 418.101 -1.31229 1.45046 0
M  V30 4392 C 418.481 -2.10563 0.150527 0
M  V30 4393 O 417.829 -2.11374 -0.867956 0
M  V30 4394 C 418.039 -2.21189 2.69956 0
M  V30 4395 C 419.387 -2.82021 3.1741 0
M  V30 4396 O 420.411 -2.31488 2.70724 0
M  V30 4397 O 419.27 -3.73885 3.98588 0
M  V30 4398 H 416.364 -0.591193 0.578291 0
M  V30 4399 H 418.91 -0.569813 1.59847 0
M  V30 4400 H 417.682 -1.62207 3.56096 0
M  V30 4401 H 417.305 -3.02722 2.57769 0
M  V30 4402 N 418.302 -1.35869 -0.798587 0
M  V30 4403 C 419.234 -1.25305 -1.91915 0
M  V30 4404 C 420.247 -0.174548 -1.61862 0
M  V30 4405 O 421.436 -0.428499 -1.73281 0
M  V30 4406 C 418.536 -0.9086 -3.26493 0
M  V30 4407 C 417.709 -2.08711 -3.84394 0
M  V30 4408 C 416.768 -1.71717 -4.97393 0
M  V30 4409 O 415.794 -2.43692 -5.14396 0
M  V30 4410 N 416.996 -0.645473 -5.769 0
M  V30 4411 H 419.761 -2.21849 -2.01502 0
M  V30 4412 H 417.322 -1.29143 -0.976408 0
M  V30 4413 H 419.314 -0.642455 -3.99568 0
M  V30 4414 H 417.884 -0.0325815 -3.12583 0
M  V30 4415 H 417.104 -2.51659 -3.03416 0
M  V30 4416 H 418.392 -2.87468 -4.19809 0
M  V30 4417 H 417.79 -0.047648 -5.6568 0
M  V30 4418 H 416.347 -0.43913 -6.50319 0
M  V30 4419 N 419.78 1.02168 -1.19998 0
M  V30 4420 C 420.727 2.10601 -0.944228 0
M  V30 4421 C 421.697 1.65639 0.123664 0
M  V30 4422 O 422.882 1.9079 -0.0199941 0
M  V30 4423 C 420.022 3.41504 -0.496865 0
M  V30 4424 C 419.135 3.99973 -1.63234 0
M  V30 4425 C 418.27 5.18915 -1.13579 0
M  V30 4426 C 417.309 5.69456 -2.24468 0
M  V30 4427 N 416.446 6.79665 -1.76068 0
M  V30 4428 H 421.286 2.31814 -1.8726 0
M  V30 4429 H 418.823 1.13686 -0.933483 0
M  V30 4430 H 420.781 4.16626 -0.218843 0
M  V30 4431 H 419.411 3.2038 0.394508 0
M  V30 4432 H 418.463 3.21997 -2.0254 0
M  V30 4433 H 419.775 4.33492 -2.46752 0
M  V30 4434 H 418.929 6.01222 -0.813429 0
M  V30 4435 H 417.668 4.8695 -0.270434 0
M  V30 4436 H 416.673 4.85757 -2.57526 0
M  V30 4437 H 417.898 6.03459 -3.11472 0
M  V30 4438 H 415.844 6.49538 -0.918516 0
M  V30 4439 H 415.761 7.12349 -2.5317 0
M  V30 4440 H 417.029 7.65549 -1.46817 0
M  V30 4441 N 421.258 1.00505 1.21394 0
M  V30 4442 C 422.504 0.688793 1.90745 0
M  V30 4443 C 422.837 -0.778486 1.77914 0
M  V30 4444 O 422.112 -1.56433 1.15581 0
M  V30 4445 C 422.395 1.11063 3.42545 0
M  V30 4446 C 422.248 2.63737 3.64367 0
M  V30 4447 C 423.567 0.673059 4.34923 0
M  V30 4448 H 420.686 0.251702 0.692687 0
M  V30 4449 H 423.328 1.25074 1.43026 0
M  V30 4450 H 421.478 0.632508 3.83317 0
M  V30 4451 H 423.15 3.19313 3.32922 0
M  V30 4452 H 421.393 3.05248 3.08231 0
M  V30 4453 H 422.064 2.88305 4.70727 0
M  V30 4454 H 424.54 1.08392 4.01734 0
M  V30 4455 H 423.416 0.996383 5.39781 0
M  V30 4456 H 423.677 -0.425808 4.40045 0
M  V30 4457 N 422.737 -1.36956 0.779787 0
M  V30 4458 C 423.983 -1.99787 0.348281 0
M  V30 4459 C 424.316 -1.61756 -1.07465 0
M  V30 4460 O 423.591 -0.867639 -1.74075 0
M  V30 4461 C 423.874 -3.56597 0.50104 0
M  V30 4462 C 423.727 -4.04513 1.96697 0
M  V30 4463 C 425.046 -4.40008 -0.0898097 0
M  V30 4464 H 422.165 -0.725796 0.128022 0
M  V30 4465 H 424.807 -1.62514 0.984331 0
M  V30 4466 H 422.957 -3.88479 -0.0404347 0
M  V30 4467 H 424.629 -3.83161 2.56876 0
M  V30 4468 H 422.872 -3.56408 2.47297 0
M  V30 4469 H 423.543 -5.1352 2.02486 0
M  V30 4470 H 426.019 -4.14431 0.372293 0
M  V30 4471 H 424.895 -5.4888 0.0471605 0
M  V30 4472 H 425.156 -4.26035 -1.18096 0
M  V30 4473 N 424.215 -0.530993 -1.48385 0
M  V30 4474 C 425.145 0.219985 -2.32461 0
M  V30 4475 C 426.126 0.934111 -1.42156 0
M  V30 4476 O 427.311 0.919694 -1.71042 0
M  V30 4477 C 424.441 1.26674 -3.23375 0
M  V30 4478 C 423.395 0.67069 -4.22712 0
M  V30 4479 C 422.721 1.82017 -5.02766 0
M  V30 4480 C 424.021 -0.358268 -5.2107 0
M  V30 4481 H 425.715 -0.48187 -2.95497 0
M  V30 4482 H 423.261 -0.233182 -1.42099 0
M  V30 4483 H 425.214 1.80006 -3.81019 0
M  V30 4484 H 423.938 1.99818 -2.58341 0
M  V30 4485 H 422.597 0.158878 -3.66256 0
M  V30 4486 H 422.245 2.54002 -4.34157 0
M  V30 4487 H 421.945 1.42727 -5.70003 0
M  V30 4488 H 423.469 2.35725 -5.63264 0
M  V30 4489 H 424.883 0.0880081 -5.73232 0
M  V30 4490 H 423.28 -0.66861 -5.96364 0
M  V30 4491 H 424.35 -1.26367 -4.68145 0
M  V30 4492 N 425.693 1.55336 -0.266172 0
M  V30 4493 C 426.918 2.04258 0.359661 0
M  V30 4494 C 427.343 1.14359 1.49344 0
M  V30 4495 O 426.701 0.140369 1.80756 0
M  V30 4496 C 426.749 3.50997 0.826635 0
M  V30 4497 O 425.853 3.64204 1.93466 0
M  V30 4498 H 425.194 0.659668 0.075727 0
M  V30 4499 H 427.724 2.00694 -0.39786 0
M  V30 4500 H 427.734 3.9219 1.12477 0
M  V30 4501 H 426.409 4.159 -0.00293032 0
M  V30 4502 H 424.986 3.34913 1.63974 0
M  V30 4503 N 427.171 -0.0066808 1.57599 0
M  V30 4504 C 428.396 -0.707738 1.94951 0
M  V30 4505 C 428.821 -1.66882 0.867868 0
M  V30 4506 O 428.179 -1.80457 -0.17458 0
M  V30 4507 C 428.227 -1.42162 3.31394 0
M  V30 4508 O 427.331 -2.53578 3.25226 0
M  V30 4509 H 426.672 -0.188752 0.636607 0
M  V30 4510 H 429.202 0.0445193 2.04552 0
M  V30 4511 H 429.212 -1.78655 3.66806 0
M  V30 4512 H 427.887 -0.716903 4.09675 0
M  V30 4513 H 426.464 -2.19463 3.01481 0
M  V30 4514 N 428.649 -1.55105 -0.279332 0
M  V30 4515 C 429.897 -1.75066 -1.00977 0
M  V30 4516 C 430.218 -0.551276 -1.87045 0
M  V30 4517 O 429.488 0.433984 -1.91032 0
M  V30 4518 H 428.068 -0.645578 -0.375816 0
M  V30 4519 H 430.73 -1.92497 -0.305089 0
M  V30 4520 H 429.826 -2.64894 -1.65038 0
M  V30 4521 N 430.127 0.543554 -1.4793 0
M  V30 4522 C 431.352 1.32995 -1.59145 0
M  V30 4523 C 431.777 1.86472 -0.246956 0
M  V30 4524 O 431.135 1.63696 0.779324 0
M  V30 4525 C 431.183 2.46623 -2.63077 0
M  V30 4526 O 430.287 3.49261 -2.19295 0
M  V30 4527 H 429.628 0.394472 -0.534124 0
M  V30 4528 H 432.158 0.655489 -1.93816 0
M  V30 4529 H 432.168 2.93001 -2.83926 0
M  V30 4530 H 430.843 2.07059 -3.60693 0
M  V30 4531 H 429.42 3.09094 -2.08603 0
M  V30 4532 N 431.605 1.3629 0.791371 0
M  V30 4533 C 432.853 1.30154 1.5461 0
M  V30 4534 C 433.174 -0.119409 1.94634 0
M  V30 4535 O 432.444 -1.05924 1.64794 0
M  V30 4536 H 431.024 0.478784 0.573389 0
M  V30 4537 H 433.686 1.70565 0.94306 0
M  V30 4538 H 432.782 1.92762 2.45457 0
M  V30 4539 N 433.083 -1.0153 1.20538 0
M  V30 4540 C 434.494 -1.56598 1.01657 0
M  V30 4541 C 434.845 -1.91505 -0.426668 0
M  V30 4542 O 433.97 -1.72375 -1.30827 0
M  V30 4543 C 434.565 -2.84542 1.83905 0
M  V30 4544 C 433.124 -3.36133 1.69386 0
M  V30 4545 C 432.271 -2.09427 1.81757 0
M  V30 4546 H 435.222 -0.838974 1.34711 0
M  V30 4547 H 435.243 -3.56004 1.34319 0
M  V30 4548 H 434.755 -2.59105 2.8894 0
M  V30 4549 H 432.856 -3.66528 0.669933 0
M  V30 4550 H 432.969 -4.08248 2.50739 0
M  V30 4551 H 431.333 -2.21941 1.24957 0
M  V30 4552 H 432.116 -1.86414 2.88279 0
M  V30 4553 N 434.561 -1.01147 -1.20859 0
M  V30 4554 C 435.809 -0.696486 -1.89719 0
M  V30 4555 C 436.13 0.775788 -1.78904 0
M  V30 4556 O 435.4 1.55759 -1.18811 0
M  V30 4557 H 433.98 -0.254628 -0.702263 0
M  V30 4558 H 436.642 -1.28197 -1.46804 0
M  V30 4559 H 435.738 -0.975357 -2.96468 0
M  V30 4560 N 436.039 1.36541 -0.78704 0
M  V30 4561 C 436.969 2.32659 -0.197992 0
M  V30 4562 C 437.95 1.56533 0.665697 0
M  V30 4563 O 439.135 1.84698 0.60001 0
M  V30 4564 C 436.265 3.40778 0.669901 0
M  V30 4565 C 435.219 4.27897 -0.0937039 0
M  V30 4566 C 434.545 5.27163 0.894629 0
M  V30 4567 C 435.845 5.06334 -1.28154 0
M  V30 4568 H 437.539 2.82171 -1.00099 0
M  V30 4569 H 435.085 1.35665 -0.482793 0
M  V30 4570 H 437.038 4.07008 1.09191 0
M  V30 4571 H 435.762 2.89827 1.50558 0
M  V30 4572 H 434.421 3.6322 -0.49666 0
M  V30 4573 H 434.069 4.72486 1.72527 0
M  V30 4574 H 433.769 5.86317 0.388149 0
M  V30 4575 H 435.293 5.96266 1.31525 0
M  V30 4576 H 436.707 5.65617 -0.93541 0
M  V30 4577 H 435.104 5.74888 -1.72115 0
M  V30 4578 H 436.174 4.38114 -2.07807 0
M  V30 4579 N 437.518 0.538854 1.48102 0
M  V30 4580 C 438.795 -0.0568108 1.95517 0
M  V30 4581 C 439.175 -1.50408 1.48124 0
M  V30 4582 O 438.523 -2.17133 0.711727 0
M  V30 4583 C 438.733 0.0696262 3.48931 0
M  V30 4584 C 440.081 -0.0851202 4.24515 0
M  V30 4585 O 441.105 -0.0037347 3.562 0
M  V30 4586 O 439.964 -0.257025 5.45895 0
M  V30 4587 H 437.058 -0.0743695 0.823649 0
M  V30 4588 H 439.604 0.604081 1.58584 0
M  V30 4589 H 438.376 1.07744 3.76174 0
M  V30 4590 H 437.999 -0.629714 3.92582 0
M  V30 4591 N 438.996 -1.55193 0.274407 0
M  V30 4592 C 439.926 -2.25471 -0.607032 0
M  V30 4593 C 440.907 -1.24461 -1.15946 0
M  V30 4594 O 442.092 -1.53179 -1.19373 0
M  V30 4595 C 439.222 -2.97526 -1.79153 0
M  V30 4596 C 438.176 -4.05459 -1.37067 0
M  V30 4597 C 437.502 -4.65084 -2.6382 0
M  V30 4598 C 438.802 -5.19691 -0.521389 0
M  V30 4599 H 440.496 -2.99393 -0.0209343 0
M  V30 4600 H 438.042 -1.43997 -0.00862866 0
M  V30 4601 H 439.995 -3.45402 -2.41404 0
M  V30 4602 H 438.719 -2.21138 -2.40344 0
M  V30 4603 H 437.378 -3.58393 -0.771355 0
M  V30 4604 H 437.026 -3.85365 -3.23268 0
M  V30 4605 H 436.726 -5.37961 -2.36372 0
M  V30 4606 H 438.25 -5.15708 -3.26921 0
M  V30 4607 H 439.664 -5.63623 -1.04889 0
M  V30 4608 H 438.061 -5.99126 -0.341825 0
M  V30 4609 H 439.131 -4.82713 0.46 0
M  V30 4610 N 440.474 -0.00167713 -1.576 0
M  V30 4611 C 441.885 0.54091 -1.78693 0
M  V30 4612 C 442.236 1.7386 -0.909247 0
M  V30 4613 O 441.361 2.16109 -0.112176 0
M  V30 4614 C 441.956 0.98806 -3.24072 0
M  V30 4615 C 440.515 1.47594 -3.46256 0
M  V30 4616 C 439.662 0.42792 -2.73978 0
M  V30 4617 H 442.613 -0.22784 -1.57056 0
M  V30 4618 H 442.634 1.85398 -3.32277 0
M  V30 4619 H 442.146 0.116164 -3.87926 0
M  V30 4620 H 440.247 2.36868 -2.87618 0
M  V30 4621 H 440.36 1.50225 -4.54939 0
M  V30 4622 H 438.724 0.889934 -2.38647 0
M  V30 4623 H 439.507 -0.435038 -3.40532 0
M  V30 4624 N 441.952 1.55251 0.271103 0
M  V30 4625 C 442.882 1.9127 1.33933 0
M  V30 4626 C 443.863 0.77478 1.5143 0
M  V30 4627 O 445.048 1.03307 1.64442 0
M  V30 4628 C 442.178 2.18627 2.69851 0
M  V30 4629 C 441.132 3.34442 2.67081 0
M  V30 4630 C 440.458 3.47284 4.06569 0
M  V30 4631 C 441.758 4.70784 2.26185 0
M  V30 4632 H 443.452 2.80744 1.04035 0
M  V30 4633 H 440.998 1.35077 0.499017 0
M  V30 4634 H 442.951 2.42413 3.44694 0
M  V30 4635 H 441.675 1.25955 3.01335 0
M  V30 4636 H 440.334 3.10627 1.94695 0
M  V30 4637 H 439.982 2.52074 4.35279 0
M  V30 4638 H 439.682 4.25152 4.0561 0
M  V30 4639 H 441.206 3.73363 4.83148 0
M  V30 4640 H 442.62 4.94102 2.90751 0
M  V30 4641 H 441.017 5.51582 2.36384 0
M  V30 4642 H 442.087 4.69478 1.21319 0
M  V30 4643 N 443.43 -0.535701 1.48216 0
M  V30 4644 C 444.676 -1.29375 1.56173 0
M  V30 4645 C 445.009 -1.92804 0.232429 0
M  V30 4646 O 444.284 -1.78992 -0.761048 0
M  V30 4647 C 444.567 -2.38747 2.69577 0
M  V30 4648 C 444.42 -1.80046 4.12193 0
M  V30 4649 C 445.739 -3.40551 2.78771 0
M  V30 4650 H 442.858 -0.469027 0.568491 0
M  V30 4651 H 445.5 -0.597358 1.80365 0
M  V30 4652 H 443.65 -2.98147 2.4908 0
M  V30 4653 H 445.322 -1.24742 4.44114 0
M  V30 4654 H 443.565 -1.10609 4.19462 0
M  V30 4655 H 444.236 -2.59212 4.87353 0
M  V30 4656 H 446.712 -2.91099 2.97322 0
M  V30 4657 H 445.588 -4.1448 3.59857 0
M  V30 4658 H 445.849 -4.00746 1.86696 0
M  V30 4659 N 444.908 -1.36708 -0.784132 0
M  V30 4660 C 445.838 -1.34153 -1.91116 0
M  V30 4661 C 446.819 -0.212121 -1.68772 0
M  V30 4662 O 448.004 -0.410581 -1.8981 0
M  V30 4663 C 445.134 -1.13535 -3.28218 0
M  V30 4664 C 444.088 -2.23356 -3.65097 0
M  V30 4665 C 443.414 -1.87875 -5.00607 0
M  V30 4666 C 444.714 -3.65473 -3.73131 0
M  V30 4667 H 446.408 -2.28459 -1.93512 0
M  V30 4668 H 443.954 -1.09973 -0.929618 0
M  V30 4669 H 445.907 -1.10381 -4.06687 0
M  V30 4670 H 444.631 -0.156804 -3.26223 0
M  V30 4671 H 443.29 -2.25645 -2.88929 0
M  V30 4672 H 442.938 -0.885814 -4.95139 0
M  V30 4673 H 442.638 -2.61406 -5.26252 0
M  V30 4674 H 444.162 -1.86286 -5.81489 0
M  V30 4675 H 445.576 -3.65382 -4.41779 0
M  V30 4676 H 443.973 -4.37953 -4.10265 0
M  V30 4677 H 445.043 -3.99995 -2.74102 0
M  V30 4678 N 446.386 1.0089 -1.21074 0
M  V30 4679 C 447.634 1.74262 -1.02358 0
M  V30 4680 C 447.955 1.89869 0.444393 0
M  V30 4681 O 447.225 1.44677 1.32081 0
M  V30 4682 H 445.805 0.645615 -0.375754 0
M  V30 4683 H 448.467 1.21596 -1.52317 0
M  V30 4684 H 447.563 2.74328 -1.4883 0
M  V30 4685 N 447.864 1.01787 1.20321 0
M  V30 4686 C 448.794 0.609625 2.25401 0
M  V30 4687 C 449.775 -0.375951 1.65893 0
M  V30 4688 O 450.96 -0.261101 1.92437 0
M  V30 4689 C 448.09 -0.0515995 3.47262 0
M  V30 4690 C 447.044 0.855095 4.19371 0
M  V30 4691 C 446.37 0.0595757 5.34667 0
M  V30 4692 C 447.67 2.16374 4.75373 0
M  V30 4693 H 449.364 1.48803 2.59804 0
M  V30 4694 H 446.91 0.716934 1.24884 0
M  V30 4695 H 448.863 -0.348764 4.19954 0
M  V30 4696 H 447.587 -0.964726 3.12027 0
M  V30 4697 H 446.246 1.13628 3.48546 0
M  V30 4698 H 445.894 -0.85524 4.95676 0
M  V30 4699 H 445.594 0.663406 5.83843 0
M  V30 4700 H 447.118 -0.231105 6.10162 0
M  V30 4701 H 448.532 1.92885 5.39878 0
M  V30 4702 H 446.929 2.71853 5.34991 0
M  V30 4703 H 447.999 2.82589 3.94045 0
M  V30 4704 N 449.342 -1.36122 0.79427 0
M  V30 4705 C 450.753 -1.81646 0.431446 0
M  V30 4706 C 451.104 -1.66043 -1.04518 0
M  V30 4707 O 450.229 -1.1841 -1.8113 0
M  V30 4708 C 450.824 -3.29785 0.776341 0
M  V30 4709 C 449.383 -3.73501 0.466282 0
M  V30 4710 C 448.53 -2.58313 1.00844 0
M  V30 4711 H 451.481 -1.24274 0.986995 0
M  V30 4712 H 451.502 -3.80437 0.0692413 0
M  V30 4713 H 451.014 -3.4111 1.8511 0
M  V30 4714 H 449.115 -3.67733 -0.600245 0
M  V30 4715 H 449.228 -4.68754 0.990288 0
M  V30 4716 H 447.592 -2.5102 0.431406 0
M  V30 4717 H 448.375 -2.72421 2.08906 0
M  V30 4718 N 450.82 -0.546701 -1.47814 0
M  V30 4719 C 451.75 0.195317 -2.32682 0
M  V30 4720 C 452.731 0.918981 -1.43139 0
M  V30 4721 O 453.916 0.901501 -1.72008 0
M  V30 4722 C 451.046 1.23237 -3.247 0
M  V30 4723 C 450 0.625818 -4.234 0
M  V30 4724 C 449.326 1.76674 -5.04669 0
M  V30 4725 C 450.626 -0.413515 -5.2066 0
M  V30 4726 H 452.32 -0.513184 -2.94969 0
M  V30 4727 H 449.866 -0.248241 -1.41844 0
M  V30 4728 H 451.819 1.75955 -3.82907 0
M  V30 4729 H 450.543 1.97067 -2.60446 0
M  V30 4730 H 449.202 0.120023 -3.66403 0
M  V30 4731 H 448.85 2.49383 -4.36826 0
M  V30 4732 H 448.55 1.36673 -5.71484 0
M  V30 4733 H 450.074 2.29738 -5.65732 0
M  V30 4734 H 451.488 0.0272042 -5.73294 0
M  V30 4735 H 449.885 -0.731825 -5.95621 0
M  V30 4736 H 450.955 -1.31325 -4.66778 0
M  V30 4737 N 452.299 1.55045 -0.282633 0
M  V30 4738 C 453.231 2.2023 0.634924 0
M  V30 4739 C 454.244 1.18931 1.11172 0
M  V30 4740 O 455.433 1.4562 1.03233 0
M  V30 4741 C 452.533 2.82041 1.87899 0
M  V30 4742 C 451.706 4.091 1.54776 0
M  V30 4743 C 450.765 4.54887 2.64507 0
M  V30 4744 O 449.791 5.20496 2.30375 0
M  V30 4745 N 450.993 4.25659 3.94709 0
M  V30 4746 H 453.758 2.99601 0.0769811 0
M  V30 4747 H 451.319 1.61565 -0.104048 0
M  V30 4748 H 453.311 3.09613 2.60619 0
M  V30 4749 H 451.881 2.06618 2.3458 0
M  V30 4750 H 451.101 3.88736 0.654049 0
M  V30 4751 H 452.389 4.9187 1.30158 0
M  V30 4752 H 451.787 3.7306 4.25256 0
M  V30 4753 H 450.344 4.57984 4.63782 0
M  V30 4754 N 453.777 0.010035 1.57597 0
M  V30 4755 C 454.707 -0.976857 2.12084 0
M  V30 4756 C 455.688 -1.35191 1.03235 0
M  V30 4757 O 456.873 -1.43389 1.3097 0
M  V30 4758 C 454.003 -2.26548 2.63236 0
M  V30 4759 C 452.957 -2.03175 3.76701 0
M  V30 4760 C 452.283 -3.38138 4.14206 0
M  V30 4761 C 453.583 -1.38625 5.03568 0
M  V30 4762 H 455.277 -0.523145 2.94794 0
M  V30 4763 H 452.823 -0.250195 1.4181 0
M  V30 4764 H 454.776 -2.95952 2.99984 0
M  V30 4765 H 453.5 -2.74051 1.77661 0
M  V30 4766 H 452.159 -1.36195 3.40362 0
M  V30 4767 H 451.807 -3.83363 3.25641 0
M  V30 4768 H 451.507 -3.23312 4.90656 0
M  V30 4769 H 453.031 -4.08841 4.53521 0
M  V30 4770 H 454.445 -1.98 5.38023 0
M  V30 4771 H 452.842 -1.34256 5.84889 0
M  V30 4772 H 453.912 -0.356722 4.83586 0
M  V30 4773 N 455.255 -1.55392 -0.262866 0
M  V30 4774 C 456.202 -1.88966 -1.32516 0
M  V30 4775 C 457.172 -0.742187 -1.48596 0
M  V30 4776 O 458.357 -0.99439 -1.62839 0
M  V30 4777 C 455.497 -2.17592 -2.67858 0
M  V30 4778 C 454.61 -3.45061 -2.59917 0
M  V30 4779 C 453.745 -3.63336 -3.87505 0
M  V30 4780 C 452.784 -4.84462 -3.74116 0
M  V30 4781 N 451.921 -4.99342 -4.93561 0
M  V30 4782 H 456.761 -2.79566 -1.03184 0
M  V30 4783 H 454.298 -1.38404 -0.498285 0
M  V30 4784 H 456.256 -2.3219 -3.46617 0
M  V30 4785 H 454.886 -1.30215 -2.95371 0
M  V30 4786 H 453.938 -3.38881 -1.72812 0
M  V30 4787 H 455.25 -4.3396 -2.45926 0
M  V30 4788 H 454.404 -3.77807 -4.74707 0
M  V30 4789 H 453.143 -2.72641 -4.04374 0
M  V30 4790 H 452.148 -4.69985 -2.85297 0
M  V30 4791 H 453.373 -5.76603 -3.58757 0
M  V30 4792 H 451.319 -4.1158 -5.10821 0
M  V30 4793 H 451.236 -5.82303 -4.82141 0
M  V30 4794 H 452.504 -5.18208 -5.82306 0
M  V30 4795 N 456.733 0.527833 -1.48498 0
M  V30 4796 C 457.663 1.64136 -1.66077 0
M  V30 4797 C 458.644 1.62286 -0.509625 0
M  V30 4798 O 459.829 1.79449 -0.742413 0
M  V30 4799 C 456.959 3.02717 -1.70234 0
M  V30 4800 C 455.913 3.19426 -2.8487 0
M  V30 4801 C 455.239 4.5909 -2.74118 0
M  V30 4802 C 456.539 3.01993 -4.26142 0
M  V30 4803 H 458.233 1.4968 -2.593 0
M  V30 4804 H 455.779 0.718654 -1.24785 0
M  V30 4805 H 457.732 3.80491 -1.8112 0
M  V30 4806 H 456.456 3.18201 -0.735911 0
M  V30 4807 H 455.115 2.4407 -2.73542 0
M  V30 4808 H 454.763 4.71413 -1.7544 0
M  V30 4809 H 454.463 4.71214 -3.51042 0
M  V30 4810 H 455.987 5.3896 -2.86974 0
M  V30 4811 H 457.401 3.69558 -4.38292 0
M  V30 4812 H 455.798 3.2561 -5.04082 0
M  V30 4813 H 456.868 1.98396 -4.42456 0
M  V30 4814 N 458.211 1.37122 0.776871 0
M  V30 4815 C 459.436 1.354 1.57104 0
M  V30 4816 C 459.861 -0.0595562 1.88006 0
M  V30 4817 O 459.219 -1.03514 1.48844 0
M  V30 4818 C 459.267 2.19472 2.8612 0
M  V30 4819 O 458.371 1.59582 3.80273 0
M  V30 4820 H 457.712 0.462869 0.476076 0
M  V30 4821 H 460.242 1.80577 0.961932 0
M  V30 4822 H 460.252 2.32502 3.35271 0
M  V30 4823 H 458.927 3.22222 2.62956 0
M  V30 4824 H 457.504 1.55564 3.38902 0
M  V30 4825 N 459.689 -1.00246 1.21608 0
M  V30 4826 C 460.622 -2.08794 0.920892 0
M  V30 4827 C 461.6 -1.62059 -0.132552 0
M  V30 4828 O 462.784 -1.885 -0.0030366 0
M  V30 4829 C 459.911 -3.36525 0.383226 0
M  V30 4830 C 458.957 -4.02172 1.41987 0
M  V30 4831 S 459.79 -4.44256 2.98994 0
M  V30 4832 C 460.946 -5.7517 2.4684 0
M  V30 4833 H 461.179 -2.33511 1.8401 0
M  V30 4834 H 458.712 -1.13562 1.04609 0
M  V30 4835 H 460.67 -4.10423 0.0795871 0
M  V30 4836 H 459.331 -3.09854 -0.514711 0
M  V30 4837 H 458.524 -4.94114 0.993335 0
M  V30 4838 H 458.126 -3.34559 1.67171 0
M  V30 4839 H 460.418 -6.51042 1.87484 0
M  V30 4840 H 461.361 -6.22638 3.37235 0
M  V30 4841 H 461.769 -5.32112 1.88461 0
M  V30 4842 N 461.167 -1.02423 -1.1978 0
M  V30 4843 C 462.392 -0.7373 -1.93852 0
M  V30 4844 C 462.817 0.696923 -1.74713 0
M  V30 4845 O 462.175 1.48056 -1.04638 0
M  V30 4846 C 462.223 -1.08783 -3.438 0
M  V30 4847 O 461.327 -0.20383 -4.11896 0
M  V30 4848 H 460.668 -0.27284 -0.605355 0
M  V30 4849 H 463.198 -1.36966 -1.51992 0
M  V30 4850 H 463.208 -1.04276 -3.9445 0
M  V30 4851 H 461.883 -2.13274 -3.57053 0
M  V30 4852 H 460.46 -0.307091 -3.71633 0
M  V30 4853 N 462.645 1.35699 -0.801477 0
M  V30 4854 C 464.061 1.52065 -0.484596 0
M  V30 4855 C 464.261 1.75215 0.995084 0
M  V30 4856 O 463.317 1.79061 1.78026 0
M  V30 4857 C 464.63 2.69908 -1.32552 0
M  V30 4858 C 466.178 2.83784 -1.32044 0
M  V30 4859 C 466.653 4.04646 -2.14536 0
M  V30 4860 N 468.144 4.11814 -2.12046 0
M  V30 4861 C 468.879 5.04437 -2.72636 0
M  V30 4862 N 468.375 6.02426 -3.42133 0
M  V30 4863 N 470.168 4.97144 -2.62305 0
M  V30 4864 H 462.319 1.18928 -1.75983 0
M  V30 4865 H 464.582 0.581455 -0.748741 0
M  V30 4866 H 464.288 2.59363 -2.37537 0
M  V30 4867 H 464.162 3.64376 -0.975181 0
M  V30 4868 H 466.549 2.93783 -0.27846 0
M  V30 4869 H 466.63 1.90188 -1.71062 0
M  V30 4870 H 466.274 3.95407 -3.18772 0
M  V30 4871 H 466.204 4.97413 -1.72882 0
M  V30 4872 H 468.695 3.41664 -1.61476 0
M  V30 4873 H 469.008 6.69688 -3.85666 0
M  V30 4874 H 467.353 6.02615 -3.46237 0
M  V30 4875 H 470.544 4.19546 -2.07603 0
M  V30 4876 H 470.717 5.69138 -3.09815 0
M  V30 4877 N 464.123 0.554532 1.47522 0
M  V30 4878 C 465.369 0.0295227 2.02779 0
M  V30 4879 C 465.702 -1.31582 1.42828 0
M  V30 4880 O 464.977 -1.85561 0.582872 0
M  V30 4881 C 465.26 -0.0664057 3.60039 0
M  V30 4882 C 465.113 1.30585 4.30427 0
M  V30 4883 C 466.432 -0.781162 4.33112 0
M  V30 4884 H 463.551 0.0122027 0.736899 0
M  V30 4885 H 466.193 0.716305 1.7598 0
M  V30 4886 H 464.343 -0.651307 3.83002 0
M  V30 4887 H 466.015 1.93374 4.18813 0
M  V30 4888 H 464.258 1.88125 3.90886 0
M  V30 4889 H 464.929 1.19147 5.38988 0
M  V30 4890 H 467.405 -0.284565 4.15126 0
M  V30 4891 H 466.281 -0.817237 5.42782 0
M  V30 4892 H 466.542 -1.83672 4.0214 0
M  V30 4893 N 465.601 -1.54893 0.290851 0
M  V30 4894 C 466.847 -2.0023 -0.321867 0
M  V30 4895 C 467.18 -1.179 -1.54316 0
M  V30 4896 O 466.455 -0.25293 -1.92848 0
M  V30 4897 C 466.738 -3.53456 -0.688515 0
M  V30 4898 C 466.591 -4.46532 0.541209 0
M  V30 4899 C 467.91 -4.13057 -1.51895 0
M  V30 4900 H 465.029 -0.727891 -0.115515 0
M  V30 4901 H 467.671 -1.85722 0.400931 0
M  V30 4902 H 465.821 -3.6595 -1.30433 0
M  V30 4903 H 467.493 -4.4596 1.17973 0
M  V30 4904 H 465.736 -4.17545 1.17636 0
M  V30 4905 H 466.407 -5.51475 0.240675 0
M  V30 4906 H 468.883 -4.03937 -0.99872 0
M  V30 4907 H 467.759 -5.20448 -1.74429 0
M  V30 4908 H 468.02 -3.64284 -2.50498 0
M  V30 4909 N 467.08 -0.0183926 -1.57589 0
M  V30 4910 C 468.01 0.965596 -2.12599 0
M  V30 4911 C 468.991 1.34641 -1.0395 0
M  V30 4912 O 470.176 1.42693 -1.31729 0
M  V30 4913 C 467.306 2.25149 -2.64434 0
M  V30 4914 C 466.26 2.01175 -3.77773 0
M  V30 4915 C 465.586 3.35937 -4.15994 0
M  V30 4916 C 466.886 1.35953 -5.04296 0
M  V30 4917 H 468.58 0.507504 -2.95067 0
M  V30 4918 H 466.126 0.242671 -1.41941 0
M  V30 4919 H 468.079 2.94357 -3.01549 0
M  V30 4920 H 466.803 2.73105 -1.79112 0
M  V30 4921 H 465.462 1.34388 -3.4108 0
M  V30 4922 H 465.11 3.81631 -3.27669 0
M  V30 4923 H 464.81 3.20705 -4.92364 0
M  V30 4924 H 466.334 4.0643 -4.55683 0
M  V30 4925 H 467.748 1.95144 -5.39065 0
M  V30 4926 H 466.145 1.31152 -5.85593 0
M  V30 4927 H 467.215 0.331071 -4.83768 0
M  V30 4928 N 468.558 1.5553 0.254621 0
M  V30 4929 C 469.783 1.81383 1.00573 0
M  V30 4930 C 470.208 0.594419 1.78461 0
M  V30 4931 O 469.566 -0.456403 1.75461 0
M  V30 4932 C 469.614 3.04892 1.92545 0
M  V30 4933 O 468.718 2.81266 3.01601 0
M  V30 4934 H 468.059 0.598969 0.286587 0
M  V30 4935 H 470.589 2.02703 0.277952 0
M  V30 4936 H 470.599 3.34119 2.34155 0
M  V30 4937 H 469.274 3.93287 1.3527 0
M  V30 4938 H 467.851 2.63185 2.64174 0
M  V30 4939 N 470.036 -0.519951 1.48776 0
M  V30 4940 C 470.968 -1.63973 1.60142 0
M  V30 4941 C 471.981 -1.55404 0.485117 0
M  V30 4942 O 473.17 -1.61682 0.756391 0
M  V30 4943 C 470.27 -3.02676 1.52449 0
M  V30 4944 C 469.443 -3.36624 2.79291 0
M  V30 4945 C 468.502 -4.54652 2.64912 0
M  V30 4946 O 467.528 -4.57374 3.38818 0
M  V30 4947 N 468.73 -5.53432 1.75195 0
M  V30 4948 H 471.495 -1.54656 2.56713 0
M  V30 4949 H 469.056 -0.707439 1.45626 0
M  V30 4950 H 471.048 -3.79525 1.4051 0
M  V30 4951 H 469.618 -3.06018 0.638125 0
M  V30 4952 H 468.838 -2.48855 3.0572 0
M  V30 4953 H 470.126 -3.56094 3.6342 0
M  V30 4954 H 469.524 -5.54018 1.14371 0
M  V30 4955 H 468.081 -6.29459 1.69189 0
M  V30 4956 N 471.514 -1.37532 -0.769588 0
M  V30 4957 C 472.762 -1.32597 -1.5252 0
M  V30 4958 C 473.083 0.0884294 -1.94799 0
M  V30 4959 O 472.353 1.03289 -1.66458 0
M  V30 4960 H 470.933 -0.487846 -0.565699 0
M  V30 4961 H 473.595 -1.72044 -0.915806 0
M  V30 4962 H 472.691 -1.96643 -2.42359 0
M  V30 4963 N 472.992 0.995999 -1.22138 0
M  V30 4964 C 474.217 1.77601 -1.0711 0
M  V30 4965 C 474.642 1.84339 0.374264 0
M  V30 4966 O 474 1.29359 1.27028 0
M  V30 4967 C 474.048 3.18897 -1.68336 0
M  V30 4968 O 473.152 4.01663 -0.934928 0
M  V30 4969 H 472.493 0.547011 -0.376397 0
M  V30 4970 H 475.023 1.25137 -1.6187 0
M  V30 4971 H 475.033 3.69539 -1.72931 0
M  V30 4972 H 473.708 3.13308 -2.73516 0
M  V30 4973 H 472.285 3.60204 -0.964751 0
M  V30 4974 N 474.47 1.03057 1.19235 0
M  V30 4975 C 475.417 0.612832 2.22515 0
M  V30 4976 C 476.387 -0.374224 1.61829 0
M  V30 4977 O 477.572 -0.270501 1.88873 0
M  V30 4978 C 474.712 -0.028475 3.45088 0
M  V30 4979 C 473.825 1.00483 4.20151 0
M  V30 4980 C 472.96 0.333102 5.30155 0
M  V30 4981 C 471.999 1.3522 5.96977 0
M  V30 4982 N 471.136 0.70616 6.9854 0
M  V30 4983 H 475.976 1.49812 2.57605 0
M  V30 4984 H 473.513 0.749658 1.26564 0
M  V30 4985 H 475.471 -0.417548 4.15105 0
M  V30 4986 H 474.101 -0.877334 3.10649 0
M  V30 4987 H 473.153 1.51194 3.49062 0
M  V30 4988 H 474.465 1.77929 4.65986 0
M  V30 4989 H 473.619 -0.110725 6.06599 0
M  V30 4990 H 472.358 -0.473547 4.85396 0
M  V30 4991 H 471.363 1.80627 5.19282 0
M  V30 4992 H 472.588 2.16037 6.4382 0
M  V30 4993 H 470.534 -0.0803667 6.55951 0
M  V30 4994 H 470.451 1.41848 7.42573 0
M  V30 4995 H 471.719 0.286391 7.78974 0
M  V30 4996 N 475.948 -1.35272 0.808662 0
M  V30 4997 C 476.881 -2.27595 0.165994 0
M  V30 4998 C 477.859 -1.48189 -0.669241 0
M  V30 4999 O 479.043 -1.77444 -0.636073 0
M  V30 5000 C 476.17 -3.29843 -0.769505 0
M  V30 5001 C 475.216 -4.26498 -0.0136267 0
M  V30 5002 S 476.049 -5.18878 1.32384 0
M  V30 5003 C 477.205 -6.24666 0.392838 0
M  V30 5004 H 477.438 -2.81755 0.948756 0
M  V30 5005 H 474.971 -1.42103 0.603828 0
M  V30 5006 H 476.929 -3.89247 -1.30374 0
M  V30 5007 H 475.59 -2.74558 -1.52567 0
M  V30 5008 H 474.783 -4.98769 -0.724227 0
M  V30 5009 H 474.385 -3.71274 0.450713 0
M  V30 5010 H 476.677 -6.7619 -0.4211 0
M  V30 5011 H 477.62 -6.99741 1.0848 0
M  V30 5012 H 478.028 -5.64499 -0.0123908 0
M  V30 5013 N 477.426 -0.562348 -1.47226 0
M  V30 5014 C 478.373 0.182461 -2.30078 0
M  V30 5015 C 479.343 0.903503 -1.39377 0
M  V30 5016 O 480.528 0.898188 -1.68337 0
M  V30 5017 C 477.668 1.20322 -3.23445 0
M  V30 5018 C 476.781 0.487717 -4.29238 0
M  V30 5019 C 475.916 1.49422 -5.09752 0
M  V30 5020 C 474.955 0.763976 -6.07314 0
M  V30 5021 N 474.092 1.71755 -6.80768 0
M  V30 5022 H 478.932 -0.530169 -2.93246 0
M  V30 5023 H 476.469 -0.273276 -1.44539 0
M  V30 5024 H 478.427 1.80768 -3.76004 0
M  V30 5025 H 477.057 1.88382 -2.6213 0
M  V30 5026 H 476.109 -0.231374 -3.79696 0
M  V30 5027 H 477.421 -0.0841003 -4.98729 0
M  V30 5028 H 476.575 2.17206 -5.66486 0
M  V30 5029 H 475.314 2.09995 -4.40174 0
M  V30 5030 H 474.319 0.0722344 -5.49753 0
M  V30 5031 H 475.544 0.16391 -6.78902 0
M  V30 5032 H 473.49 2.31177 -6.13916 0
M  V30 5033 H 473.407 1.19802 -7.46447 0
M  V30 5034 H 474.675 2.38638 -7.42073 0
M  V30 5035 N 478.904 1.54736 -0.299062 0
M  V30 5036 C 479.867 2.22127 0.565012 0
M  V30 5037 C 480.867 1.20669 1.06281 0
M  V30 5038 O 482.057 1.45417 0.959145 0
M  V30 5039 C 479.189 2.90611 1.78208 0
M  V30 5040 H 480.382 2.99891 -0.0237448 0
M  V30 5041 H 477.935 1.5622 -0.0498788 0
M  V30 5042 H 478.67 2.16921 2.41072 0
M  V30 5043 H 478.455 3.64984 1.43281 0
M  V30 5044 H 479.945 3.42026 2.396 0
M  V30 5045 N 480.382 0.0267497 1.57577 0
M  V30 5046 C 481.312 -0.954308 2.13108 0
M  V30 5047 C 482.293 -1.34088 1.04663 0
M  V30 5048 O 483.478 -1.41992 1.32484 0
M  V30 5049 C 480.608 -2.23744 2.65624 0
M  V30 5050 C 479.562 -1.99168 3.78835 0
M  V30 5051 C 478.888 -3.33726 4.17769 0
M  V30 5052 C 480.188 -1.33277 5.0501 0
M  V30 5053 H 481.882 -0.491848 2.95332 0
M  V30 5054 H 479.428 -0.23514 1.42067 0
M  V30 5055 H 481.381 -2.92754 3.03106 0
M  V30 5056 H 480.105 -2.72151 1.80558 0
M  V30 5057 H 478.764 -1.32577 3.41788 0
M  V30 5058 H 478.412 -3.79888 3.29688 0
M  V30 5059 H 478.112 -3.18089 4.94058 0
M  V30 5060 H 479.636 -4.04008 4.57832 0
M  V30 5061 H 481.05 -1.92283 5.40093 0
M  V30 5062 H 479.447 -1.28045 5.8628 0
M  V30 5063 H 480.517 -0.305411 4.83937 0
M  V30 5064 N 481.861 -1.55662 -0.24637 0
M  V30 5065 C 482.824 -1.89558 -1.28842 0
M  V30 5066 C 483.824 -0.772082 -1.41052 0
M  V30 5067 O 485.014 -1.04007 -1.39743 0
M  V30 5068 C 482.146 -2.12449 -2.66605 0
M  V30 5069 H 483.339 -2.82735 -1.00004 0
M  V30 5070 H 480.892 -1.48562 -0.485684 0
M  V30 5071 H 481.627 -1.21742 -3.00582 0
M  V30 5072 H 481.412 -2.94273 -2.59125 0
M  V30 5073 H 482.902 -2.39854 -3.41847 0
M  V30 5074 N 483.339 0.512053 -1.4905 0
M  V30 5075 C 484.269 1.62365 -1.67809 0
M  V30 5076 C 485.25 1.61737 -0.526809 0
M  V30 5077 O 486.435 1.78651 -0.761404 0
M  V30 5078 C 483.565 3.00895 -1.73435 0
M  V30 5079 C 482.519 3.16387 -2.88242 0
M  V30 5080 C 481.845 4.56157 -2.78971 0
M  V30 5081 C 483.145 2.97457 -4.29321 0
M  V30 5082 H 484.839 1.46921 -2.60873 0
M  V30 5083 H 482.385 0.705379 -1.2554 0
M  V30 5084 H 484.338 3.78549 -1.85145 0
M  V30 5085 H 483.062 3.17403 -0.769619 0
M  V30 5086 H 481.721 2.41155 -2.76116 0
M  V30 5087 H 481.369 4.69525 -1.8043 0
M  V30 5088 H 481.069 4.67465 -3.5602 0
M  V30 5089 H 482.593 5.35886 -2.92675 0
M  V30 5090 H 484.007 3.64888 -4.42187 0
M  V30 5091 H 482.404 3.20245 -5.07507 0
M  V30 5092 H 483.474 1.93692 -4.44535 0
M  V30 5093 N 484.817 1.37938 0.762283 0
M  V30 5094 C 486.228 1.30094 1.33912 0
M  V30 5095 C 486.579 -0.0472026 1.96143 0
M  V30 5096 O 485.704 -0.94917 1.94473 0
M  V30 5097 C 486.299 2.35592 2.43478 0
M  V30 5098 C 484.858 2.31353 2.96905 0
M  V30 5099 C 484.005 2.18919 1.70205 0
M  V30 5100 H 486.956 1.48423 0.561816 0
M  V30 5101 H 486.977 2.00806 3.23199 0
M  V30 5102 H 486.489 3.33701 1.98155 0
M  V30 5103 H 484.59 1.36799 3.46579 0
M  V30 5104 H 484.703 3.25147 3.51875 0
M  V30 5105 H 483.067 1.65624 1.93496 0
M  V30 5106 H 483.85 3.18956 1.26973 0
M  V30 5107 N 486.295 -0.989507 1.22664 0
M  V30 5108 C 487.706 -1.54406 1.04955 0
M  V30 5109 C 488.057 -1.92366 -0.385951 0
M  V30 5110 O 487.182 -1.75111 -1.27142 0
M  V30 5111 C 487.777 -2.80578 1.89899 0
M  V30 5112 C 486.336 -3.32464 1.76478 0
M  V30 5113 C 485.483 -2.05524 1.86159 0
M  V30 5114 H 488.434 -0.810211 1.3646 0
M  V30 5115 H 488.455 -3.53075 1.4184 0
M  V30 5116 H 487.967 -2.52918 2.94371 0
M  V30 5117 H 486.068 -3.65024 0.747528 0
M  V30 5118 H 486.181 -4.02838 2.59342 0
M  V30 5119 H 484.545 -2.19241 1.29636 0
M  V30 5120 H 485.328 -1.80258 2.92168 0
M  V30 5121 N 487.773 -1.03688 -1.18687 0
M  V30 5122 C 488.703 -0.645407 -2.24403 0
M  V30 5123 C 489.684 0.349511 -1.66471 0
M  V30 5124 O 490.869 0.230453 -1.92828 0
M  V30 5125 C 487.999 -0.00365337 -3.473 0
M  V30 5126 C 486.953 -0.921705 -4.17958 0
M  V30 5127 C 486.279 -0.144629 -5.34504 0
M  V30 5128 C 487.579 -2.23909 -4.71871 0
M  V30 5129 H 489.273 -1.52917 -2.57404 0
M  V30 5130 H 486.819 -0.736711 -1.23728 0
M  V30 5131 H 488.772 0.281908 -4.20456 0
M  V30 5132 H 487.496 0.914963 -3.13522 0
M  V30 5133 H 486.155 -1.19159 -3.46694 0
M  V30 5134 H 485.803 0.776274 -4.96974 0
M  V30 5135 H 485.503 -0.756206 -5.82714 0
M  V30 5136 H 487.027 0.134004 -6.10453 0
M  V30 5137 H 488.441 -2.0145 -5.36741 0
M  V30 5138 H 486.838 -2.8033 -5.30599 0
M  V30 5139 H 487.908 -2.88822 -3.895 0
M  V30 5140 N 489.251 1.34841 -0.815825 0
M  V30 5141 C 490.499 1.98107 -0.399744 0
M  V30 5142 C 490.82 1.65019 1.03894 0
M  V30 5143 O 490.09 0.937311 1.72021 0
M  V30 5144 H 488.67 0.732827 -0.144823 0
M  V30 5145 H 491.332 1.64599 -1.0437 0
M  V30 5146 H 490.428 3.07856 -0.512965 0
M  V30 5147 N 490.729 0.570148 1.46925 0
M  V30 5148 C 491.659 -0.158274 2.32963 0
M  V30 5149 C 492.64 -0.896093 1.44583 0
M  V30 5150 O 493.825 -0.874022 1.7342 0
M  V30 5151 C 490.955 -1.18055 3.26619 0
M  V30 5152 C 489.909 -0.558379 4.24342 0
M  V30 5153 C 489.235 -1.68623 5.07415 0
M  V30 5154 C 490.535 0.496295 5.19937 0
M  V30 5155 H 492.229 0.560046 2.94115 0
M  V30 5156 H 489.775 0.270775 1.41431 0
M  V30 5157 H 491.728 -1.69841 3.85658 0
M  V30 5158 H 490.452 -1.92899 2.63548 0
M  V30 5159 H 489.111 -0.0617157 3.66548 0
M  V30 5160 H 488.759 -2.42402 4.40738 0
M  V30 5161 H 488.459 -1.27564 5.73586 0
M  V30 5162 H 489.983 -2.20709 5.69315 0
M  V30 5163 H 491.397 0.0640052 5.73264 0
M  V30 5164 H 489.794 0.82649 5.94381 0
M  V30 5165 H 490.864 1.38735 4.6463 0
M  V30 5166 N 492.207 -1.54576 0.307264 0
M  V30 5167 C 493.17 -2.22423 -0.553224 0
M  V30 5168 C 494.17 -1.21231 -1.05639 0
M  V30 5169 O 495.36 -1.45923 -0.951419 0
M  V30 5170 C 492.492 -2.91552 -1.76664 0
M  V30 5171 H 493.685 -2.99874 0.0396484 0
M  V30 5172 H 491.238 -1.56192 0.0581629 0
M  V30 5173 H 491.973 -2.18196 -2.39918 0
M  V30 5174 H 491.758 -3.65738 -1.41343 0
M  V30 5175 H 493.248 -3.43292 -2.37783 0
M  V30 5176 N 493.685 -0.035106 -1.57561 0
M  V30 5177 C 495.096 0.502885 -1.798 0
M  V30 5178 C 495.447 1.71892 -0.945921 0
M  V30 5179 O 494.572 2.15822 -0.157991 0
M  V30 5180 C 495.167 0.919097 -3.26095 0
M  V30 5181 C 493.726 1.40216 -3.49308 0
M  V30 5182 C 492.873 0.369709 -2.74824 0
M  V30 5183 H 495.824 -0.261102 -1.56537 0
M  V30 5184 H 495.845 1.78308 -3.36135 0
M  V30 5185 H 495.357 0.0338526 -3.88085 0
M  V30 5186 H 493.458 2.30714 -2.92578 0
M  V30 5187 H 493.571 1.40541 -4.58023 0
M  V30 5188 H 491.935 0.839113 -2.40481 0
M  V30 5189 H 492.718 -0.507173 -3.39533 0
M  V30 5190 N 495.163 1.55791 0.238111 0
M  V30 5191 C 496.093 1.94068 1.29846 0
M  V30 5192 C 497.074 0.806726 1.49753 0
M  V30 5193 O 498.259 1.06772 1.62214 0
M  V30 5194 C 495.389 2.24302 2.65153 0
M  V30 5195 C 494.343 3.40032 2.59927 0
M  V30 5196 C 493.669 3.55829 3.99111 0
M  V30 5197 C 494.969 4.75476 2.16148 0
M  V30 5198 H 496.663 2.82887 0.980563 0
M  V30 5199 H 494.209 1.36105 0.470253 0
M  V30 5200 H 496.162 2.4967 3.39475 0
M  V30 5201 H 494.886 1.32318 2.98596 0
M  V30 5202 H 493.545 3.14687 1.88063 0
M  V30 5203 H 493.193 2.6125 4.29834 0
M  V30 5204 H 492.893 4.3366 3.96501 0
M  V30 5205 H 494.417 3.83528 4.7512 0
M  V30 5206 H 495.831 5.00158 2.80205 0
M  V30 5207 H 494.228 5.56472 2.24631 0
M  V30 5208 H 495.298 4.71946 1.11333 0
M  V30 5209 N 496.642 -0.504142 1.49319 0
M  V30 5210 C 497.572 -1.61473 1.68667 0
M  V30 5211 C 498.553 -1.61455 0.535378 0
M  V30 5212 O 499.738 -1.78245 0.770868 0
M  V30 5213 C 496.868 -2.99971 1.75028 0
M  V30 5214 C 495.822 -3.14854 2.89916 0
M  V30 5215 C 495.148 -4.54671 2.81387 0
M  V30 5216 C 496.448 -2.95176 4.30893 0
M  V30 5217 H 498.142 -1.45535 2.61648 0
M  V30 5218 H 495.688 -0.698711 1.25913 0
M  V30 5219 H 497.641 -3.77562 1.8715 0
M  V30 5220 H 496.365 -3.1699 0.786441 0
M  V30 5221 H 495.024 -2.39687 2.77391 0
M  V30 5222 H 494.672 -4.68562 1.82917 0
M  V30 5223 H 494.372 -4.6557 3.58494 0
M  V30 5224 H 495.896 -5.34327 2.95512 0
M  V30 5225 H 497.31 -3.62538 4.44116 0
M  V30 5226 H 495.707 -3.17549 5.09198 0
M  V30 5227 H 496.777 -1.91332 4.45556 0
M  V30 5228 N 498.12 -1.38341 -0.754957 0
M  V30 5229 C 499.068 -1.35573 -1.89005 0
M  V30 5230 C 500.062 -0.241824 -1.67665 0
M  V30 5231 O 501.268 -0.410785 -1.7525 0
M  V30 5232 H 497.643 -0.422898 -0.621821 0
M  V30 5233 H 499.614 -2.31359 -1.88455 0
M  V30 5234 C 498.363 -1.19631 -3.26471 0
M  V30 5235 H 497.686 -2.04605 -3.43477 0
M  V30 5236 H 499.126 -1.21748 -4.06144 0
M  V30 5237 C 497.585 0.0968705 -3.36761 0
M  V30 5238 O 498.115 1.07439 -3.87066 0
M  V30 5239 N 496.321 0.153242 -2.90196 0
M  V30 5240 H 495.868 -0.642908 -2.49448 0
M  V30 5241 H 495.826 1.01807 -2.9746 0
M  V30 5242 N 499.598 0.982988 -1.23187 0
M  V30 5243 C 500.528 2.09301 -1.03515 0
M  V30 5244 C 501.509 1.70035 0.0471136 0
M  V30 5245 O 502.694 1.93847 -0.117029 0
M  V30 5246 C 499.824 3.4167 -0.622791 0
M  V30 5247 C 498.778 3.94828 -1.65211 0
M  V30 5248 C 498.104 5.23362 -1.09527 0
M  V30 5249 C 499.404 4.2439 -3.04451 0
M  V30 5250 H 501.098 2.26016 -1.96359 0
M  V30 5251 H 498.644 1.08611 -0.945501 0
M  V30 5252 H 500.597 4.18746 -0.472233 0
M  V30 5253 H 499.321 3.24811 0.341329 0
M  V30 5254 H 497.98 3.19895 -1.79061 0
M  V30 5255 H 497.628 5.02852 -0.122211 0
M  V30 5256 H 497.328 5.59895 -1.783 0
M  V30 5257 H 498.852 6.03062 -0.956511 0
M  V30 5258 H 500.266 4.92225 -2.93917 0
M  V30 5259 H 498.663 4.72118 -3.70438 0
M  V30 5260 H 499.733 3.31765 -3.53638 0
M  V30 5261 N 501.076 1.04316 1.18135 0
M  V30 5262 C 502.322 0.758899 1.88712 0
M  V30 5263 C 502.677 -0.705863 1.78984 0
M  V30 5264 O 501.97 -1.50874 1.18101 0
M  V30 5265 C 502.164 1.16271 3.37958 0
M  V30 5266 C 501.993 2.66518 3.62213 0
M  V30 5267 C 500.763 3.33702 3.79436 0
M  V30 5268 C 502.961 3.64739 3.62588 0
M  V30 5269 N 500.943 4.72904 3.91452 0
M  V30 5270 C 502.314 4.89627 3.80348 0
M  V30 5271 C 504.369 3.58333 3.4569 0
M  V30 5272 C 503.072 6.08879 3.8296 0
M  V30 5273 C 505.098 4.77016 3.49586 0
M  V30 5274 C 504.46 6.00724 3.67845 0
M  V30 5275 H 500.559 0.329795 0.709055 0
M  V30 5276 H 503.143 1.33334 1.4188 0
M  V30 5277 H 501.314 0.616319 3.83479 0
M  V30 5278 H 503.046 0.829205 3.96114 0
M  V30 5279 H 499.801 2.84105 3.78921 0
M  V30 5280 H 500.225 5.45258 4.01277 0
M  V30 5281 H 504.867 2.63663 3.30517 0
M  V30 5282 H 502.585 7.03903 3.96921 0
M  V30 5283 H 506.171 4.73703 3.37782 0
M  V30 5284 H 505.051 6.91022 3.70753 0
M  V30 5285 N 502.554 -1.34406 0.822964 0
M  V30 5286 C 503.517 -2.2783 0.250271 0
M  V30 5287 C 504.517 -1.50288 -0.571854 0
M  V30 5288 O 505.707 -1.69825 -0.387952 0
M  V30 5289 C 502.839 -3.34663 -0.649137 0
M  V30 5290 H 504.032 -2.79992 1.07444 0
M  V30 5291 H 501.585 -1.44539 0.594829 0
M  V30 5292 H 502.32 -2.87714 -1.49637 0
M  V30 5293 H 502.105 -3.92052 -0.0611199 0
M  V30 5294 H 503.595 -4.04349 -1.04363 0
M  V30 5295 N 504.032 -0.577932 -1.46621 0
M  V30 5296 C 504.979 0.158048 -2.30258 0
M  V30 5297 C 505.949 0.888669 -1.40328 0
M  V30 5298 O 507.134 0.880283 -1.6928 0
M  V30 5299 C 504.274 1.16884 -3.24703 0
M  V30 5300 C 503.387 0.442163 -4.29731 0
M  V30 5301 C 502.522 1.44007 -5.11308 0
M  V30 5302 C 501.561 0.69952 -6.0809 0
M  V30 5303 N 500.698 1.64525 -6.82551 0
M  V30 5304 H 505.538 -0.561242 -2.92667 0
M  V30 5305 H 503.075 -0.288591 -1.44241 0
M  V30 5306 H 505.033 1.7677 -3.779 0
M  V30 5307 H 503.663 1.85591 -2.64113 0
M  V30 5308 H 502.715 -0.271632 -3.79429 0
M  V30 5309 H 504.027 -0.136992 -4.98612 0
M  V30 5310 H 503.181 2.11186 -5.68758 0
M  V30 5311 H 501.92 2.05315 -4.42377 0
M  V30 5312 H 500.925 0.0139217 -5.49798 0
M  V30 5313 H 502.15 0.091894 -6.79038 0
M  V30 5314 H 500.096 2.24653 -6.16334 0
M  V30 5315 H 500.013 1.11878 -7.47676 0
M  V30 5316 H 501.281 2.30754 -7.44562 0
M  V30 5317 N 505.51 1.54411 -0.315457 0
M  V30 5318 C 506.921 1.85885 0.174265 0
M  V30 5319 C 507.272 1.23723 1.52273 0
M  V30 5320 O 506.397 0.540246 2.09548 0
M  V30 5321 C 506.992 3.37257 0.322981 0
M  V30 5322 C 505.551 3.68711 0.756922 0
M  V30 5323 C 504.698 2.77013 -0.126195 0
M  V30 5324 H 507.649 1.49374 -0.536007 0
M  V30 5325 H 507.67 3.62539 1.15522 0
M  V30 5326 H 507.182 3.82471 -0.658602 0
M  V30 5327 H 505.283 3.29024 1.74854 0
M  V30 5328 H 505.396 4.75741 0.566291 0
M  V30 5329 H 503.76 2.51588 0.39692 0
M  V30 5330 H 504.543 3.25051 -1.1044 0
M  V30 5331 N 506.988 0.0434614 1.5754 0
M  V30 5332 C 507.92 -0.962586 2.08007 0
M  V30 5333 C 508.933 -1.27972 1.00634 0
M  V30 5334 O 510.122 -1.24186 1.28219 0
M  V30 5335 C 507.222 -2.28621 2.50171 0
M  V30 5336 C 506.395 -2.15214 3.80791 0
M  V30 5337 C 505.454 -3.30633 4.09351 0
M  V30 5338 O 504.48 -3.0688 4.79388 0
M  V30 5339 N 505.682 -4.54873 3.60654 0
M  V30 5340 H 508.447 -0.531891 2.94942 0
M  V30 5341 H 506.008 -0.142965 1.61268 0
M  V30 5342 H 508 -3.04689 2.66359 0
M  V30 5343 H 506.57 -2.63283 1.68525 0
M  V30 5344 H 505.79 -1.23785 3.74261 0
M  V30 5345 H 507.078 -2.03475 4.66343 0
M  V30 5346 H 506.476 -4.77063 3.04019 0
M  V30 5347 H 505.033 -5.2806 3.82094 0
M  V30 5348 N 508.466 -1.55915 -0.229846 0
M  V30 5349 C 509.714 -1.7819 -0.953565 0
M  V30 5350 C 510.035 -0.610504 -1.85197 0
M  V30 5351 O 509.305 0.372988 -1.92316 0
M  V30 5352 H 507.885 -0.657208 -0.355087 0
M  V30 5353 H 510.547 -1.9337 -0.243693 0
M  V30 5354 H 509.643 -2.70011 -1.56527 0
M  V30 5355 N 509.944 0.496216 -1.49584 0
M  V30 5356 C 511.36 0.827814 -1.36453 0
M  V30 5357 C 511.56 1.97464 -0.401285 0
M  V30 5358 O 510.616 2.51958 0.165296 0
M  V30 5359 C 511.929 1.16352 -2.77277 0
M  V30 5360 C 513.477 1.27145 -2.86013 0
M  V30 5361 C 513.952 1.64042 -4.27615 0
M  V30 5362 N 515.443 1.71082 -4.30448 0
M  V30 5363 C 516.178 2.01085 -5.36984 0
M  V30 5364 N 515.674 2.2928 -6.5376 0
M  V30 5365 N 517.467 2.02376 -5.24405 0
M  V30 5366 H 509.618 -0.259947 -2.10803 0
M  V30 5367 H 511.881 -0.0537163 -0.946477 0
M  V30 5368 H 511.587 0.394153 -3.49484 0
M  V30 5369 H 511.461 2.10582 -3.12946 0
M  V30 5370 H 513.848 2.03152 -2.1404 0
M  V30 5371 H 513.929 0.309542 -2.5392 0
M  V30 5372 H 513.573 0.88583 -5.00115 0
M  V30 5373 H 513.503 2.6134 -4.57175 0
M  V30 5374 H 515.994 1.51434 -3.46232 0
M  V30 5375 H 516.307 2.51376 -7.30774 0
M  V30 5376 H 514.652 2.26726 -6.56978 0
M  V30 5377 H 517.843 1.79829 -4.32179 0
M  V30 5378 H 518.016 2.25425 -6.07526 0
M  V30 5379 N 511.423 1.38739 0.74761 0
M  V30 5380 C 512.353 1.39173 1.87492 0
M  V30 5381 C 513.334 0.256794 1.6815 0
M  V30 5382 O 514.519 0.460762 1.88655 0
M  V30 5383 C 511.649 1.22197 3.25093 0
M  V30 5384 C 510.603 2.32957 3.59047 0
M  V30 5385 C 509.929 2.01082 4.95449 0
M  V30 5386 C 511.229 3.75237 3.6331 0
M  V30 5387 H 512.923 2.3351 1.87386 0
M  V30 5388 H 510.469 1.12399 0.900134 0
M  V30 5389 H 512.422 1.21124 4.03617 0
M  V30 5390 H 511.146 0.243241 3.25693 0
M  V30 5391 H 509.805 2.33226 2.82845 0
M  V30 5392 H 509.453 1.01678 4.92616 0
M  V30 5393 H 509.153 2.75267 5.19136 0
M  V30 5394 H 510.677 2.01638 5.76346 0
M  V30 5395 H 512.091 3.76966 4.31937 0
M  V30 5396 H 510.488 4.48677 3.98509 0
M  V30 5397 H 511.558 4.07122 2.634 0
M  V30 5398 N 512.901 -0.976442 1.23707 0
M  V30 5399 C 514.148 -1.71827 1.07153 0
M  V30 5400 C 514.476 -1.9053 -0.390982 0
M  V30 5401 O 513.731 -1.45779 -1.30564 0
M  V30 5402 C 514.03 -3.11814 1.74662 0
M  V30 5403 C 513.696 -3.12978 3.24585 0
M  V30 5404 C 512.358 -3.13003 3.6549 0
M  V30 5405 C 514.71 -3.07986 4.20469 0
M  V30 5406 C 512.038 -3.05757 5.00729 0
M  V30 5407 C 514.39 -3.02282 5.55705 0
M  V30 5408 C 513.054 -3.00631 5.95968 0
M  V30 5409 H 512.324 -0.628758 0.392102 0
M  V30 5410 H 514.971 -1.14239 1.53693 0
M  V30 5411 H 513.276 -3.72812 1.20492 0
M  V30 5412 H 514.973 -3.67989 1.59328 0
M  V30 5413 H 511.563 -3.13718 2.92026 0
M  V30 5414 H 515.747 -3.07103 3.89874 0
M  V30 5415 H 511.003 -3.02834 5.31132 0
M  V30 5416 H 515.177 -2.97376 6.29714 0
M  V30 5417 H 512.804 -2.94771 7.00724 0
M  V30 5418 N 514.379 -1.04941 -1.1758 0
M  V30 5419 C 515.309 -0.669172 -2.23706 0
M  V30 5420 C 516.29 0.331835 -1.66832 0
M  V30 5421 O 517.475 0.209988 -1.93061 0
M  V30 5422 C 514.605 -0.0404889 -3.47276 0
M  V30 5423 C 513.559 -0.965983 -4.16957 0
M  V30 5424 C 512.885 -0.201312 -5.34321 0
M  V30 5425 C 514.185 -2.28902 -4.69469 0
M  V30 5426 H 515.879 -1.55639 -2.55767 0
M  V30 5427 H 513.425 -0.749793 -1.22939 0
M  V30 5428 H 515.378 0.237298 -4.20731 0
M  V30 5429 H 514.102 0.881658 -3.14475 0
M  V30 5430 H 512.761 -1.22829 -3.45411 0
M  V30 5431 H 512.409 0.723519 -4.97769 0
M  V30 5432 H 512.109 -0.817968 -5.81879 0
M  V30 5433 H 513.633 0.0692499 -6.10561 0
M  V30 5434 H 515.047 -2.07132 -5.34574 0
M  V30 5435 H 513.444 -2.85942 -5.27596 0
M  V30 5436 H 514.514 -2.92937 -3.86414 0
M  V30 5437 N 515.857 1.33968 -0.830081 0
M  V30 5438 C 517.105 1.97672 -0.420734 0
M  V30 5439 C 517.426 1.66111 1.02138 0
M  V30 5440 O 516.696 0.955503 1.71017 0
M  V30 5441 H 515.276 0.73125 -0.152587 0
M  V30 5442 H 517.938 1.63483 -1.0611 0
M  V30 5443 H 517.034 3.07294 -0.545588 0
M  V30 5444 N 517.335 0.585699 1.46312 0
M  V30 5445 C 518.298 -0.135673 2.28798 0
M  V30 5446 C 519.298 -0.815988 1.38558 0
M  V30 5447 O 520.488 -0.667487 1.60904 0
M  V30 5448 C 517.62 -1.20163 3.1902 0
M  V30 5449 H 518.813 0.589257 2.94054 0
M  V30 5450 H 516.366 0.343794 1.52472 0
M  V30 5451 H 517.101 -1.95804 2.58517 0
M  V30 5452 H 516.886 -0.718282 3.85465 0
M  V30 5453 H 518.376 -1.70749 3.81096 0
M  V30 5454 N 518.813 -1.54241 0.323641 0
M  V30 5455 C 519.743 -2.27289 -0.534993 0
M  V30 5456 C 520.724 -1.28087 -1.11927 0
M  V30 5457 O 521.909 -1.56899 -1.14439 0
M  V30 5458 C 519.039 -3.03075 -1.69596 0
M  V30 5459 C 517.993 -4.09614 -1.24098 0
M  V30 5460 C 517.319 -4.73242 -2.4889 0
M  V30 5461 C 518.619 -5.21087 -0.355789 0
M  V30 5462 H 520.313 -2.99308 0.0743257 0
M  V30 5463 H 517.859 -1.43952 0.0371874 0
M  V30 5464 H 519.812 -3.52907 -2.30293 0
M  V30 5465 H 518.536 -2.28673 -2.33187 0
M  V30 5466 H 517.195 -3.60666 -0.656945 0
M  V30 5467 H 516.843 -3.95455 -3.10845 0
M  V30 5468 H 516.543 -5.45209 -2.19138 0
M  V30 5469 H 518.067 -5.25848 -3.10348 0
M  V30 5470 H 519.481 -5.66675 -0.869042 0
M  V30 5471 H 517.878 -5.9991 -0.151045 0
M  V30 5472 H 518.948 -4.81005 0.613339 0
M  V30 5473 N 520.291 -0.0518155 -1.57515 0
M  V30 5474 C 521.702 0.483787 -1.80323 0
M  V30 5475 C 522.053 1.70879 -0.964099 0
M  V30 5476 O 521.178 2.15643 -0.180872 0
M  V30 5477 C 521.773 0.884459 -3.27052 0
M  V30 5478 C 520.332 1.36504 -3.50776 0
M  V30 5479 C 519.479 0.340539 -2.75201 0
M  V30 5480 H 522.43 -0.277691 -1.56252 0
M  V30 5481 H 522.451 1.74733 -3.38007 0
M  V30 5482 H 521.963 -0.00731093 -3.88099 0
M  V30 5483 H 520.064 2.27598 -2.95009 0
M  V30 5484 H 520.177 1.35675 -4.59488 0
M  V30 5485 H 518.541 0.81356 -2.41357 0
M  V30 5486 H 519.324 -0.543156 -3.38976 0
M  V30 5487 N 521.769 1.56035 0.221574 0
M  V30 5488 C 523.017 1.78693 0.944102 0
M  V30 5489 C 523.338 0.620317 1.8487 0
M  V30 5490 O 522.608 -0.362784 1.92512 0
M  V30 5491 H 521.188 0.659082 0.351597 0
M  V30 5492 H 523.85 1.93497 0.233435 0
M  V30 5493 H 522.946 2.70837 1.55093 0
M  V30 5494 N 523.247 -0.488276 1.49845 0
M  V30 5495 C 524.157 -1.61451 1.70207 0
M  V30 5496 C 525.173 -1.63877 0.584846 0
M  V30 5497 O 526.349 -1.82063 0.861107 0
M  V30 5498 C 523.414 -2.9776 1.77594 0
M  V30 5499 C 522.475 -3.05861 3.01243 0
M  V30 5500 C 521.708 -4.35668 3.08268 0
M  V30 5501 O 521.931 -5.25197 2.22541 0
M  V30 5502 O 520.865 -4.49005 4.00847 0
M  V30 5503 H 524.691 -1.47199 2.65643 0
M  V30 5504 H 522.276 -0.665939 1.33737 0
M  V30 5505 H 524.158 -3.7875 1.84732 0
M  V30 5506 H 522.833 -3.12248 0.8534 0
M  V30 5507 H 521.74 -2.24012 2.99616 0
M  V30 5508 H 523.073 -2.96304 3.9302 0
M  V30 5509 N 524.725 -1.39134 -0.740242 0
M  V30 5510 C 526.002 -1.26584 -1.49117 0
M  V30 5511 C 526.382 0.126902 -2.10718 0
M  V30 5512 O 525.73 1.13765 -1.98166 0
M  V30 5513 C 525.94 -2.38619 -2.54681 0
M  V30 5514 C 527.288 -2.77685 -3.21211 0
M  V30 5515 O 528.312 -2.38029 -2.64991 0
M  V30 5516 O 527.171 -3.46115 -4.22926 0
M  V30 5517 H 524.265 -0.495769 -0.661923 0
M  V30 5518 H 526.811 -1.50995 -0.774514 0
M  V30 5519 H 525.583 -3.3175 -2.07504 0
M  V30 5520 H 525.206 -2.15845 -3.33911 0
M  V30 5521 N 526.204 0.969867 -1.24223 0
M  V30 5522 C 527.429 1.75289 -1.10853 0
M  V30 5523 C 527.854 1.85091 0.335079 0
M  V30 5524 O 527.212 1.32024 1.24255 0
M  V30 5525 C 527.26 3.15255 -1.75062 0
M  V30 5526 O 526.364 3.99589 -1.01992 0
M  V30 5527 H 525.705 0.538904 -0.387915 0
M  V30 5528 H 528.235 1.21675 -1.64488 0
M  V30 5529 H 528.245 3.65787 -1.80731 0
M  V30 5530 H 526.92 3.07436 -2.801 0
M  V30 5531 H 525.497 3.58077 -1.04094 0
M  V30 5532 N 527.682 1.05563 1.17022 0
M  V30 5533 C 528.907 0.788437 1.91829 0
M  V30 5534 C 529.332 -0.650356 1.76499 0
M  V30 5535 O 528.69 -1.45229 1.08527 0
M  V30 5536 C 528.738 1.1786 3.40795 0
M  V30 5537 O 527.842 0.312965 4.11211 0
M  V30 5538 H 527.183 0.288794 0.597908 0
M  V30 5539 H 529.713 1.40948 1.48307 0
M  V30 5540 H 529.723 1.14697 3.91546 0
M  V30 5541 H 528.398 2.22666 3.51273 0
M  V30 5542 H 526.975 0.405515 3.70689 0
M  V30 5543 N 529.16 -1.33526 0.837174 0
M  V30 5544 C 530.388 -2.02047 0.445494 0
M  V30 5545 C 530.803 -1.62995 -0.952788 0
M  V30 5546 O 530.16 -0.842447 -1.61892 0
M  V30 5547 C 530.211 -3.57221 0.554577 0
M  V30 5548 O 529.932 -3.94863 1.89776 0
M  V30 5549 C 531.433 -4.43012 0.159634 0
M  V30 5550 H 528.653 -0.647221 0.177048 0
M  V30 5551 H 531.197 -1.70492 1.12928 0
M  V30 5552 H 529.352 -3.87315 -0.0812781 0
M  V30 5553 H 529.766 -4.89569 1.88208 0
M  V30 5554 H 531.24 -5.51253 0.28701 0
M  V30 5555 H 531.717 -4.29916 -0.898289 0
M  V30 5556 H 532.323 -4.18274 0.769855 0
M  V30 5557 N 530.638 -0.59345 -1.46 0
M  V30 5558 C 531.863 -0.0872365 -2.07216 0
M  V30 5559 C 532.288 1.2131 -1.43755 0
M  V30 5560 O 531.646 1.73528 -0.525152 0
M  V30 5561 C 531.694 0.0538197 -3.6056 0
M  V30 5562 O 530.798 1.10765 -3.97247 0
M  V30 5563 H 530.139 -0.0676598 -0.660544 0
M  V30 5564 H 532.669 -0.819445 -1.87473 0
M  V30 5565 H 532.679 0.256567 -4.07193 0
M  V30 5566 H 531.354 -0.895739 -4.0614 0
M  V30 5567 H 529.931 0.882501 -3.62307 0
M  V30 5568 N 532.116 1.54067 -0.331816 0
M  V30 5569 C 533.363 2.00715 0.268269 0
M  V30 5570 C 533.691 1.21986 1.51491 0
M  V30 5571 O 532.946 0.292309 1.93505 0
M  V30 5572 C 533.245 3.51634 0.639392 0
M  V30 5573 C 532.911 4.48018 -0.509019 0
M  V30 5574 C 531.573 4.74089 -0.824209 0
M  V30 5575 C 533.925 5.05237 -1.28003 0
M  V30 5576 C 531.253 5.54637 -1.91298 0
M  V30 5577 C 533.605 5.86972 -2.35895 0
M  V30 5578 C 532.269 6.11342 -2.67987 0
M  V30 5579 H 531.539 0.734469 0.0981667 0
M  V30 5580 H 534.186 1.8596 -0.457304 0
M  V30 5581 H 532.491 3.6416 1.44551 0
M  V30 5582 H 534.188 3.85175 1.11539 0
M  V30 5583 H 530.778 4.27851 -0.253287 0
M  V30 5584 H 534.962 4.8507 -1.04978 0
M  V30 5585 H 530.218 5.71747 -2.16599 0
M  V30 5586 H 534.392 6.30327 -2.96076 0
M  V30 5587 H 532.019 6.73544 -3.5248 0
M  V30 5588 N 533.594 0.0601682 1.57485 0
M  V30 5589 C 534.834 -0.615384 1.94916 0
M  V30 5590 C 535.198 -1.67475 0.938948 0
M  V30 5591 O 536.399 -2.40502 1.20051 0
M  V30 5592 C 534.67 -1.18788 3.37082 0
M  V30 5593 S 536.229 -1.88018 3.96478 0
M  V30 5594 H 533.047 -0.201821 0.681754 0
M  V30 5595 H 535.649 0.131252 1.95059 0
M  V30 5596 H 534.353 -0.404869 4.08398 0
M  V30 5597 H 533.884 -1.97114 3.40455 0
M  V30 5598 H 535.899 -3.16161 3.82435 0
M  V30 5599 N 535.072 -1.5615 -0.213296 0
M  V30 5600 C 536.002 -1.96109 -1.26742 0
M  V30 5601 C 536.983 -0.830448 -1.48451 0
M  V30 5602 O 538.168 -1.09339 -1.60495 0
M  V30 5603 C 535.298 -2.28492 -2.61551 0
M  V30 5604 C 534.252 -3.44124 -2.54485 0
M  V30 5605 C 533.578 -3.62134 -3.93399 0
M  V30 5606 C 534.878 -4.78855 -2.08556 0
M  V30 5607 H 536.572 -2.84412 -0.935434 0
M  V30 5608 H 534.118 -1.36836 -0.44854 0
M  V30 5609 H 536.071 -2.55039 -3.3546 0
M  V30 5610 H 534.795 -1.37052 -2.96453 0
M  V30 5611 H 533.454 -3.17639 -1.83033 0
M  V30 5612 H 533.102 -2.68055 -4.25623 0
M  V30 5613 H 532.802 -4.39913 -3.89551 0
M  V30 5614 H 534.326 -3.91038 -4.68958 0
M  V30 5615 H 535.74 -5.04552 -2.72213 0
M  V30 5616 H 534.137 -5.59975 -2.1575 0
M  V30 5617 H 535.207 -4.73657 -1.03811 0
M  V30 5618 N 536.55 0.480323 -1.50102 0
M  V30 5619 C 537.498 1.60024 -1.68805 0
M  V30 5620 C 538.492 1.60089 -0.553888 0
M  V30 5621 O 539.698 1.64349 -0.734127 0
M  V30 5622 H 536.073 0.530841 -0.532646 0
M  V30 5623 H 538.044 1.41408 -2.62767 0
M  V30 5624 C 536.793 2.98029 -1.79092 0
M  V30 5625 H 536.116 2.98694 -2.65748 0
M  V30 5626 H 537.556 3.75871 -1.96206 0
M  V30 5627 C 536.015 3.32538 -0.540388 0
M  V30 5628 O 536.545 4.00386 0.324637 0
M  V30 5629 N 534.751 2.87873 -0.397154 0
M  V30 5630 H 534.298 2.32834 -1.1021 0
M  V30 5631 H 534.256 3.11328 0.438425 0
M  V30 5632 N 538.028 1.39524 0.732853 0
M  V30 5633 C 539.276 1.36594 1.48951 0
M  V30 5634 C 539.597 -0.0367507 1.94965 0
M  V30 5635 O 538.867 -0.988391 1.69138 0
M  V30 5636 H 537.447 0.502673 0.552566 0
M  V30 5637 H 540.109 1.74411 0.869869 0
M  V30 5638 H 539.205 2.03 2.3706 0
M  V30 5639 N 539.506 -0.963266 1.24736 0
M  V30 5640 C 540.436 -2.07628 1.06832 0
M  V30 5641 C 541.417 -1.70088 -0.0200566 0
M  V30 5642 O 542.602 -1.93636 0.147854 0
M  V30 5643 C 539.732 -3.40636 0.677069 0
M  V30 5644 C 538.686 -3.9215 1.71471 0
M  V30 5645 C 538.012 -5.21553 1.1784 0
M  V30 5646 C 539.312 -4.19493 3.11164 0
M  V30 5647 H 541.006 -2.22864 1.9993 0
M  V30 5648 H 538.552 -1.07093 0.96266 0
M  V30 5649 H 540.505 -4.17941 0.538792 0
M  V30 5650 H 539.229 -3.25313 -0.289612 0
M  V30 5651 H 537.888 -3.17005 1.84128 0
M  V30 5652 H 537.536 -5.02593 0.202195 0
M  V30 5653 H 537.236 -5.56988 1.87185 0
M  V30 5654 H 538.76 -6.01463 1.05233 0
M  V30 5655 H 540.174 -4.87487 3.01711 0
M  V30 5656 H 538.571 -4.66165 3.77902 0
M  V30 5657 H 539.641 -3.26097 3.58871 0
M  V30 5658 N 540.985 -1.06182 -1.16461 0
M  V30 5659 C 542.231 -0.788825 -1.87481 0
M  V30 5660 C 542.586 0.677298 -1.80085 0
M  V30 5661 O 541.879 1.48976 -1.20486 0
M  V30 5662 C 542.073 -1.21633 -3.36066 0
M  V30 5663 C 541.902 -2.72247 -3.57927 0
M  V30 5664 C 540.672 -3.39696 -3.74079 0
M  V30 5665 C 542.87 -3.70461 -3.56739 0
M  V30 5666 N 540.852 -4.79072 -3.83879 0
M  V30 5667 C 542.223 -4.95616 -3.72511 0
M  V30 5668 C 544.278 -3.63788 -3.39945 0
M  V30 5669 C 542.981 -6.14895 -3.73225 0
M  V30 5670 C 545.007 -4.82517 -3.41953 0
M  V30 5671 C 544.369 -6.065 -3.58242 0
M  V30 5672 H 540.468 -0.341034 -0.703719 0
M  V30 5673 H 543.052 -1.35575 -1.39741 0
M  V30 5674 H 541.223 -0.67725 -3.8245 0
M  V30 5675 H 542.955 -0.892119 -3.94745 0
M  V30 5676 H 539.71 -2.90097 -3.74354 0
M  V30 5677 H 540.134 -5.51573 -3.92551 0
M  V30 5678 H 544.776 -2.68888 -3.26281 0
M  V30 5679 H 542.494 -7.10129 -3.85672 0
M  V30 5680 H 546.08 -4.79017 -3.30203 0
M  V30 5681 H 544.96 -6.96833 -3.59712 0
M  V30 5682 N 542.463 1.3308 -0.844243 0
M  V30 5683 C 543.426 2.27403 -0.286485 0
M  V30 5684 C 544.426 1.51179 0.547872 0
M  V30 5685 O 545.616 1.70421 0.360886 0
M  V30 5686 C 542.748 3.35653 0.595813 0
M  V30 5687 H 543.941 2.78248 -1.11885 0
M  V30 5688 H 541.494 1.43574 -0.617749 0
M  V30 5689 H 542.229 2.90058 1.4504 0
M  V30 5690 H 542.014 3.921 -0.00125994 0
M  V30 5691 H 543.504 4.05958 0.979168 0
M  V30 5692 N 543.941 0.601185 1.45683 0
M  V30 5693 C 544.873 -0.159446 2.28645 0
M  V30 5694 C 545.886 -0.837882 1.39583 0
M  V30 5695 O 547.075 -0.704344 1.64016 0
M  V30 5696 C 544.175 -1.24641 3.15147 0
M  V30 5697 C 543.348 -0.656334 4.32448 0
M  V30 5698 C 542.407 -1.63337 5.00208 0
M  V30 5699 O 541.433 -1.16217 5.57209 0
M  V30 5700 N 542.635 -2.96773 4.98905 0
M  V30 5701 H 545.4 0.5524 2.94565 0
M  V30 5702 H 542.961 0.440223 1.558 0
M  V30 5703 H 544.953 -1.8997 3.57342 0
M  V30 5704 H 543.523 -1.86087 2.51178 0
M  V30 5705 H 542.743 0.174879 3.93812 0
M  V30 5706 H 544.031 -0.242211 5.08223 0
M  V30 5707 H 543.429 -3.37662 4.53873 0
M  V30 5708 H 541.986 -3.57541 5.44984 0
M  V30 5709 N 545.419 -1.53889 0.339982 0
M  V30 5710 C 546.667 -2.00458 -0.257112 0
M  V30 5711 C 546.988 -1.22953 -1.51353 0
M  V30 5712 O 546.258 -0.335734 -1.93002 0
M  V30 5713 H 544.838 -0.740544 -0.0979965 0
M  V30 5714 H 547.5 -1.89386 0.460317 0
M  V30 5715 H 546.596 -3.08035 -0.502057 0
M  V30 5716 N 546.897 -0.0685191 -1.57451 0
M  V30 5717 C 547.829 0.929372 -2.09512 0
M  V30 5718 C 548.842 1.26354 -1.02657 0
M  V30 5719 O 550.031 1.2213 -1.30179 0
M  V30 5720 C 547.131 2.24612 -2.53777 0
M  V30 5721 C 546.304 2.09128 -3.84167 0
M  V30 5722 C 545.363 3.24079 -4.14559 0
M  V30 5723 O 544.389 2.99215 -4.8421 0
M  V30 5724 N 545.591 4.49077 -3.67845 0
M  V30 5725 H 548.356 0.484901 -2.95751 0
M  V30 5726 H 545.917 0.11729 -1.61475 0
M  V30 5727 H 547.909 3.00412 -2.71172 0
M  V30 5728 H 546.479 2.60569 -1.72692 0
M  V30 5729 H 545.699 1.17815 -3.76182 0
M  V30 5730 H 546.987 1.9603 -4.69521 0
M  V30 5731 H 546.385 4.72165 -3.11571 0
M  V30 5732 H 544.942 5.21915 -3.90446 0
M  V30 5733 N 548.375 1.56261 0.205012 0
M  V30 5734 C 549.791 1.49623 0.555433 0
M  V30 5735 C 549.991 0.766719 1.86343 0
M  V30 5736 O 549.047 0.313158 2.50551 0
M  V30 5737 C 550.36 2.94253 0.619347 0
M  V30 5738 C 551.908 3.04868 0.708855 0
M  V30 5739 C 552.383 4.50888 0.803969 0
M  V30 5740 N 553.874 4.54999 0.867758 0
M  V30 5741 C 554.609 5.65284 0.96135 0
M  V30 5742 N 554.105 6.85282 1.01786 0
M  V30 5743 N 555.898 5.53174 0.997771 0
M  V30 5744 H 548.049 2.0211 -0.653094 0
M  V30 5745 H 550.312 0.919333 -0.231366 0
M  V30 5746 H 550.018 3.50643 -0.272458 0
M  V30 5747 H 549.892 3.47063 1.47741 0
M  V30 5748 H 552.279 2.48532 1.5911 0
M  V30 5749 H 552.36 2.55199 -0.175205 0
M  V30 5750 H 552.004 5.07846 -0.0738798 0
M  V30 5751 H 551.934 4.98279 1.70369 0
M  V30 5752 H 554.425 3.68588 0.833735 0
M  V30 5753 H 554.738 7.65081 1.08951 0
M  V30 5754 H 553.083 6.8796 0.986706 0
M  V30 5755 H 556.274 4.5835 0.950392 0
M  V30 5756 H 556.447 6.39151 1.06725 0
M  V30 5757 N 549.853 -0.472356 1.50355 0
M  V30 5758 C 550.783 -1.57859 1.72055 0
M  V30 5759 C 551.764 -1.60283 0.569505 0
M  V30 5760 O 552.949 -1.7657 0.808503 0
M  V30 5761 C 550.079 -2.96191 1.81351 0
M  V30 5762 C 549.033 -3.08633 2.96529 0
M  V30 5763 C 548.359 -4.486 2.90968 0
M  V30 5764 C 549.659 -2.85969 4.37057 0
M  V30 5765 H 551.353 -1.39953 2.64676 0
M  V30 5766 H 548.899 -0.671846 1.27367 0
M  V30 5767 H 550.852 -3.73507 1.95117 0
M  V30 5768 H 549.576 -3.15251 0.853502 0
M  V30 5769 H 548.235 -2.33749 2.82413 0
M  V30 5770 H 547.883 -4.64577 1.92815 0
M  V30 5771 H 547.583 -4.57861 3.68289 0
M  V30 5772 H 549.107 -5.27938 3.0678 0
M  V30 5773 H 550.521 -3.53036 4.51706 0
M  V30 5774 H 548.918 -3.06677 5.15819 0
M  V30 5775 H 549.988 -1.81838 4.49514 0
M  V30 5776 N 551.331 -1.39911 -0.725443 0
M  V30 5777 C 552.608 -1.28158 -1.47766 0
M  V30 5778 C 552.988 0.104545 -2.10841 0
M  V30 5779 O 552.336 1.11657 -1.99361 0
M  V30 5780 C 552.546 -2.41306 -2.52135 0
M  V30 5781 C 553.894 -2.81076 -3.18247 0
M  V30 5782 O 554.918 -2.40827 -2.62452 0
M  V30 5783 O 553.777 -3.50581 -4.19231 0
M  V30 5784 H 550.871 -0.502761 -0.656628 0
M  V30 5785 H 553.417 -1.51808 -0.758456 0
M  V30 5786 H 552.189 -3.33932 -2.03974 0
M  V30 5787 H 551.812 -2.19374 -3.31603 0
M  V30 5788 N 552.809 0.956637 -1.25245 0
M  V30 5789 C 554.055 1.70352 -1.10036 0
M  V30 5790 C 554.388 1.90869 0.358156 0
M  V30 5791 O 553.663 1.47819 1.26411 0
M  V30 5792 C 553.946 3.08766 -1.85298 0
M  V30 5793 C 553.799 2.95672 -3.38966 0
M  V30 5794 C 555.118 4.08622 -1.63451 0
M  V30 5795 H 552.237 0.618279 -0.401123 0
M  V30 5796 H 554.879 1.11212 -1.54051 0
M  V30 5797 H 553.029 3.59252 -1.47887 0
M  V30 5798 H 554.701 2.52527 -3.86041 0
M  V30 5799 H 552.944 2.31634 -3.6678 0
M  V30 5800 H 553.615 3.93776 -3.86839 0
M  V30 5801 H 556.091 3.67038 -1.96015 0
M  V30 5802 H 554.967 5.03514 -2.18551 0
M  V30 5803 H 555.228 4.3834 -0.575357 0
M  V30 5804 N 554.287 1.06798 1.15896 0
M  V30 5805 C 555.564 0.701057 1.82605 0
M  V30 5806 C 555.944 -0.817066 1.94646 0
M  V30 5807 O 555.292 -1.72933 1.49353 0
M  V30 5808 C 555.502 1.40895 3.19296 0
M  V30 5809 C 556.85 1.55744 3.95005 0
M  V30 5810 O 557.874 1.36927 3.28831 0
M  V30 5811 O 556.733 1.86658 5.13635 0
M  V30 5812 H 553.827 0.248791 0.78869 0
M  V30 5813 H 556.373 1.16857 1.23055 0
M  V30 5814 H 555.145 2.4439 3.05596 0
M  V30 5815 H 554.768 0.931847 3.86526 0
M  V30 5816 N 555.766 -1.3263 0.851289 0
M  V30 5817 C 556.698 -2.27824 0.250757 0
M  V30 5818 C 557.711 -1.52285 -0.575598 0
M  V30 5819 O 558.9 -1.73946 -0.400638 0
M  V30 5820 C 556 -3.3232 -0.664571 0
M  V30 5821 C 555.173 -4.37221 0.125187 0
M  V30 5822 C 554.232 -5.21314 -0.715385 0
M  V30 5823 O 553.258 -5.69002 -0.150111 0
M  V30 5824 N 554.46 -5.43823 -2.03069 0
M  V30 5825 H 557.225 -2.79997 1.06873 0
M  V30 5826 H 554.786 -1.45455 0.710943 0
M  V30 5827 H 556.778 -3.85486 -1.23216 0
M  V30 5828 H 555.348 -2.80331 -1.38323 0
M  V30 5829 H 554.568 -3.84384 0.874199 0
M  V30 5830 H 555.856 -5.04399 0.667774 0
M  V30 5831 H 555.254 -5.06803 -2.51332 0
M  V30 5832 H 553.811 -5.99998 -2.54648 0
M  V30 5833 N 557.244 -0.608902 -1.45362 0
M  V30 5834 C 558.207 0.0992563 -2.28985 0
M  V30 5835 C 559.207 0.793841 -1.39838 0
M  V30 5836 O 560.397 0.641804 -1.61946 0
M  V30 5837 C 557.529 1.15073 -3.20891 0
M  V30 5838 H 558.722 -0.635964 -2.93079 0
M  V30 5839 H 556.275 -0.368007 -1.51906 0
M  V30 5840 H 557.01 1.91667 -2.616 0
M  V30 5841 H 556.795 0.656867 -3.86559 0
M  V30 5842 H 558.285 1.64665 -3.83765 0
M  V30 5843 N 558.722 1.53707 -0.348139 0
M  V30 5844 C 559.652 2.28111 0.498766 0
M  V30 5845 C 560.633 1.29851 1.09876 0
M  V30 5846 O 561.818 1.587 1.11928 0
M  V30 5847 C 558.948 3.05735 1.64753 0
M  V30 5848 C 557.902 4.11537 1.17565 0
M  V30 5849 C 557.228 4.77142 2.4133 0
M  V30 5850 C 558.528 5.21587 0.272844 0
M  V30 5851 H 560.222 2.99152 -0.121934 0
M  V30 5852 H 557.768 1.43875 -0.0600842 0
M  V30 5853 H 559.721 3.56526 2.24649 0
M  V30 5854 H 558.445 2.32354 2.2952 0
M  V30 5855 H 557.104 3.61665 0.599483 0
M  V30 5856 H 556.752 4.0035 3.04514 0
M  V30 5857 H 556.452 5.48626 2.10436 0
M  V30 5858 H 557.976 5.30719 3.01943 0
M  V30 5859 H 559.39 5.67986 0.778779 0
M  V30 5860 H 557.787 6.00074 0.0555849 0
M  V30 5861 H 558.857 4.79969 -0.689785 0
M  V30 5862 N 560.2 0.0768682 1.57412 0
M  V30 5863 C 561.148 -0.906229 2.1422 0
M  V30 5864 C 562.142 -1.30477 1.08037 0
M  V30 5865 O 563.348 -1.28143 1.2641 0
M  V30 5866 H 559.723 -0.310207 0.685037 0
M  V30 5867 H 561.694 -0.402228 2.95677 0
M  V30 5868 C 560.443 -2.16245 2.72274 0
M  V30 5869 H 559.766 -1.86463 3.53655 0
M  V30 5870 H 561.206 -2.83134 3.15613 0
M  V30 5871 C 559.665 -2.92437 1.67279 0
M  V30 5872 O 560.195 -3.86322 1.10081 0
M  V30 5873 N 558.401 -2.55637 1.38195 0
M  V30 5874 H 557.948 -1.79363 1.84897 0
M  V30 5875 H 557.906 -3.06919 0.681787 0
M  V30 5876 N 561.678 -1.56367 -0.196722 0
M  V30 5877 C 563.094 -1.49916 -0.54749 0
M  V30 5878 C 563.294 -0.77659 -1.85934 0
M  V30 5879 O 562.35 -0.32644 -2.50381 0
M  V30 5880 C 563.663 -2.94577 -0.603734 0
M  V30 5881 C 565.211 -3.05239 -0.692677 0
M  V30 5882 C 565.686 -4.51308 -0.780046 0
M  V30 5883 N 567.177 -4.55453 -0.843616 0
M  V30 5884 C 567.912 -5.65786 -0.931358 0
M  V30 5885 N 567.408 -6.85812 -0.981503 0
M  V30 5886 N 569.201 -5.53695 -0.968421 0
M  V30 5887 H 561.352 -2.01761 0.663803 0
M  V30 5888 H 563.615 -0.918094 0.236238 0
M  V30 5889 H 563.321 -3.50494 0.29105 0
M  V30 5890 H 563.195 -3.47841 -1.45898 0
M  V30 5891 H 565.582 -2.49372 -1.57789 0
M  V30 5892 H 565.663 -2.55103 0.188736 0
M  V30 5893 H 565.307 -5.078 0.100811 0
M  V30 5894 H 565.237 -4.99176 -1.67724 0
M  V30 5895 H 567.728 -3.69025 -0.814176 0
M  V30 5896 H 568.041 -7.65648 -1.04892 0
M  V30 5897 H 566.386 -6.88474 -0.950208 0
M  V30 5898 H 569.577 -4.58848 -0.926072 0
M  V30 5899 H 569.75 -6.39708 -1.03334 0
M  V30 5900 N 563.156 0.464375 -1.50603 0
M  V30 5901 C 564.381 1.24372 -1.65971 0
M  V30 5902 C 564.806 1.84901 -0.345453 0
M  V30 5903 O 564.164 1.67596 0.691457 0
M  V30 5904 C 564.212 2.32331 -2.7578 0
M  V30 5905 O 563.316 3.37146 -2.375 0
M  V30 5906 H 562.657 0.365604 -0.554283 0
M  V30 5907 H 565.187 0.55183 -1.97018 0
M  V30 5908 H 565.197 2.77539 -2.99059 0
M  V30 5909 H 563.872 1.87648 -3.71162 0
M  V30 5910 H 562.449 2.97602 -2.24694 0
M  V30 5911 N 564.634 1.40294 0.718013 0
M  V30 5912 C 565.584 1.36847 1.82365 0
M  V30 5913 C 566.568 0.246424 1.59002 0
M  V30 5914 O 567.76 0.485336 1.70216 0
M  V30 5915 C 564.889 1.23105 3.20469 0
M  V30 5916 C 563.975 2.4008 3.49603 0
M  V30 5917 N 564.366 3.65562 3.49568 0
M  V30 5918 C 562.664 2.33407 3.80049 0
M  V30 5919 C 563.365 4.43015 3.76978 0
M  V30 5920 N 562.341 3.72823 3.95606 0
M  V30 5921 H 566.143 2.31811 1.80668 0
M  V30 5922 H 563.657 1.34031 0.91703 0
M  V30 5923 H 565.654 1.18718 3.9964 0
M  V30 5924 H 564.314 0.291056 3.23393 0
M  V30 5925 H 565.325 3.98756 3.30476 0
M  V30 5926 H 562.002 1.47762 3.90478 0
M  V30 5927 H 563.392 5.51859 3.83276 0
M  V30 5928 N 566.112 -0.949982 1.2575 0
M  V30 5929 C 567.022 -2.08109 1.08295 0
M  V30 5930 C 568.038 -1.7399 0.0188181 0
M  V30 5931 O 569.214 -2.00187 0.220724 0
M  V30 5932 C 566.279 -3.39383 0.708534 0
M  V30 5933 C 565.34 -3.8734 1.85111 0
M  V30 5934 C 564.573 -5.12349 1.49447 0
M  V30 5935 O 564.796 -5.6905 0.392212 0
M  V30 5936 O 563.73 -5.5513 2.32624 0
M  V30 5937 H 567.556 -2.25738 2.03165 0
M  V30 5938 H 565.141 -1.06545 1.04731 0
M  V30 5939 H 567.023 -4.18277 0.512061 0
M  V30 5940 H 565.698 -3.23013 -0.210854 0
M  V30 5941 H 564.605 -3.09429 2.10248 0
M  V30 5942 H 565.938 -4.08216 2.74991 0
M  V30 5943 N 567.59 -1.07411 -1.15328 0
M  V30 5944 C 568.839 -0.792643 -1.85473 0
M  V30 5945 C 569.152 0.683789 -1.83259 0
M  V30 5946 O 570.358 1.08005 -2.49093 0
M  V30 5947 C 568.814 -1.36787 -3.32892 0
M  V30 5948 C 568.422 -2.87536 -3.43551 0
M  V30 5949 C 570.166 -1.16444 -4.08217 0
M  V30 5950 C 568.073 -3.38247 -4.85122 0
M  V30 5951 H 567.003 -0.292838 -0.694811 0
M  V30 5952 H 569.654 -1.29426 -1.30082 0
M  V30 5953 H 568.036 -0.793993 -3.87958 0
M  V30 5954 H 569.21 -3.50973 -2.98588 0
M  V30 5955 H 567.525 -3.06676 -2.81672 0
M  V30 5956 H 570.122 -1.51808 -5.12697 0
M  V30 5957 H 570.465 -0.10353 -4.16171 0
M  V30 5958 H 570.998 -1.70472 -3.59422 0
M  V30 5959 H 567.737 -4.43866 -4.82351 0
M  V30 5960 H 567.257 -2.79564 -5.30664 0
M  V30 5961 H 568.936 -3.34238 -5.5398 0
M  V30 5962 N 569.068 1.32177 -0.85831 0
M  V30 5963 C 570.314 1.97813 -0.47346 0
M  V30 5964 C 570.669 1.66674 0.961122 0
M  V30 5965 O 569.962 0.94657 1.66585 0
M  V30 5966 C 570.156 3.51372 -0.653658 0
M  V30 5967 C 569.985 3.97433 -2.1042 0
M  V30 5968 C 568.755 4.24338 -2.74345 0
M  V30 5969 C 570.953 4.12233 -3.0752 0
M  V30 5970 N 568.935 4.56672 -4.10272 0
M  V30 5971 C 570.306 4.48146 -4.28445 0
M  V30 5972 C 572.361 3.94577 -3.03667 0
M  V30 5973 C 571.064 4.68246 -5.4602 0
M  V30 5974 C 573.09 4.15864 -4.20489 0
M  V30 5975 C 572.452 4.52098 -5.40173 0
M  V30 5976 H 568.551 0.749808 -0.222061 0
M  V30 5977 H 571.135 1.59927 -1.11047 0
M  V30 5978 H 569.306 3.88372 -0.0463267 0
M  V30 5979 H 571.038 4.03998 -0.238343 0
M  V30 5980 H 567.793 4.16544 -2.25362 0
M  V30 5981 H 568.217 4.77019 -4.80398 0
M  V30 5982 H 572.859 3.65662 -2.12252 0
M  V30 5983 H 570.577 4.96014 -6.37962 0
M  V30 5984 H 574.163 4.03702 -4.18947 0
M  V30 5985 H 573.043 4.68238 -6.29065 0
M  V30 5986 N 570.547 0.616602 1.45037 0
M  V30 5987 C 571.775 0.121968 2.0654 0
M  V30 5988 C 572.19 -1.19743 1.45969 0
M  V30 5989 O 571.547 -1.73133 0.577168 0
M  V30 5990 C 571.598 -0.0145171 3.61497 0
M  V30 5991 O 571.319 1.25269 4.19809 0
M  V30 5992 C 572.82 -0.539555 4.40004 0
M  V30 5993 H 570.04 0.0729837 0.667019 0
M  V30 5994 H 572.584 0.846891 1.8614 0
M  V30 5995 H 570.739 -0.689809 3.81209 0
M  V30 5996 H 571.153 1.08816 5.13088 0
M  V30 5997 H 572.627 -0.584112 5.48901 0
M  V30 5998 H 573.104 -1.56368 4.10421 0
M  V30 5999 H 573.71 0.101995 4.25178 0
M  V30 6000 N 572.025 -1.5352 0.356285 0
M  V30 6001 C 572.975 -2.22204 -0.510815 0
M  V30 6002 C 573.959 -1.21393 -1.05605 0
M  V30 6003 O 575.151 -1.46883 -0.987639 0
M  V30 6004 C 572.28 -3.00786 -1.65478 0
M  V30 6005 C 571.366 -4.08965 -1.12287 0
M  V30 6006 N 571.757 -5.04829 -0.313191 0
M  V30 6007 C 570.055 -4.23505 -1.39856 0
M  V30 6008 C 570.756 -5.81695 -0.0230322 0
M  V30 6009 N 569.732 -5.40074 -0.618144 0
M  V30 6010 H 573.534 -2.93676 0.114711 0
M  V30 6011 H 571.048 -1.61572 0.163811 0
M  V30 6012 H 573.045 -3.48502 -2.28806 0
M  V30 6013 H 571.705 -2.30843 -2.28345 0
M  V30 6014 H 572.716 -5.17879 0.0468202 0
M  V30 6015 H 569.393 -3.64786 -2.0307 0
M  V30 6016 H 570.783 -6.68931 0.630927 0
M  V30 6017 N 573.503 -0.0852151 -1.57369 0
M  V30 6018 C 574.728 0.592872 -1.98746 0
M  V30 6019 C 575.153 1.61538 -0.963689 0
M  V30 6020 O 574.511 1.81168 0.069071 0
M  V30 6021 C 574.559 1.22599 -3.39119 0
M  V30 6022 O 573.663 2.34185 -3.39457 0
M  V30 6023 H 573.004 0.151314 -0.646529 0
M  V30 6024 H 575.534 -0.163703 -2.03944 0
M  V30 6025 H 575.544 1.56965 -3.76598 0
M  V30 6026 H 574.219 0.476831 -4.13158 0
M  V30 6027 H 572.796 2.01512 -3.13763 0
M  V30 6028 N 574.981 1.5647 0.188427 0
M  V30 6029 C 576.221 1.82803 0.914469 0
M  V30 6030 C 576.585 0.663681 1.80165 0
M  V30 6031 O 577.786 0.807059 2.56398 0
M  V30 6032 C 576.057 3.14187 1.70357 0
M  V30 6033 S 577.616 3.61947 2.48072 0
M  V30 6034 H 574.434 0.641497 0.306599 0
M  V30 6035 H 577.036 1.94694 0.177361 0
M  V30 6036 H 575.74 3.96937 1.04255 0
M  V30 6037 H 575.271 3.05192 2.48237 0
M  V30 6038 H 577.286 3.27913 3.72407 0
M  V30 6039 N 576.459 -0.456382 1.50847 0
M  V30 6040 C 577.87 -1.03685 1.55262 0
M  V30 6041 C 578.221 -1.92779 0.364771 0
M  V30 6042 O 577.346 -2.10043 -0.52068 0
M  V30 6043 C 577.941 -1.88718 2.81374 0
M  V30 6044 C 576.5 -2.41847 2.88422 0
M  V30 6045 C 575.647 -1.20564 2.49719 0
M  V30 6046 H 578.598 -0.238399 1.56899 0
M  V30 6047 H 578.619 -2.73957 2.6406 0
M  V30 6048 H 578.131 -1.23847 3.67809 0
M  V30 6049 H 576.232 -3.10228 2.06372 0
M  V30 6050 H 576.345 -2.75947 3.9165 0
M  V30 6051 H 574.709 -1.54504 2.02486 0
M  V30 6052 H 575.492 -0.573326 3.38479 0
M  V30 6053 N 577.937 -1.40673 -0.710563 0
M  V30 6054 C 578.869 -1.37256 -1.83558 0
M  V30 6055 C 579.882 -0.277133 -1.60424 0
M  V30 6056 O 581.071 -0.537831 -1.70205 0
M  V30 6057 C 578.171 -1.1144 -3.20054 0
M  V30 6058 C 577.344 -2.32734 -3.70342 0
M  V30 6059 C 576.403 -2.03002 -4.85465 0
M  V30 6060 O 575.429 -2.75912 -4.97857 0
M  V30 6061 N 576.631 -1.01105 -5.71627 0
M  V30 6062 H 579.396 -2.34215 -1.86985 0
M  V30 6063 H 576.957 -1.35091 -0.892301 0
M  V30 6064 H 578.949 -0.895265 -3.94673 0
M  V30 6065 H 577.519 -0.231307 -3.11743 0
M  V30 6066 H 576.739 -2.70446 -2.86798 0
M  V30 6067 H 578.027 -3.13584 -4.00678 0
M  V30 6068 H 577.425 -0.407303 -5.64232 0
M  V30 6069 H 575.982 -0.85182 -6.4621 0
M  V30 6070 N 579.415 0.9433 -1.26252 0
M  V30 6071 C 580.64 1.72898 -1.14547 0
M  V30 6072 C 581.065 1.85761 0.295743 0
M  V30 6073 O 580.423 1.3463 1.21427 0
M  V30 6074 C 580.471 3.11471 -1.8171 0
M  V30 6075 O 579.575 3.97336 -1.10445 0
M  V30 6076 H 578.916 0.530555 -0.399259 0
M  V30 6077 H 581.446 1.18159 -1.67032 0
M  V30 6078 H 581.456 3.61872 -1.88449 0
M  V30 6079 H 580.131 3.01425 -2.86558 0
M  V30 6080 H 578.708 3.55788 -1.11666 0
M  V30 6081 N 580.893 1.08022 1.14757 0
M  V30 6082 C 582.304 0.829144 1.67279 0
M  V30 6083 C 582.655 -0.644721 1.85305 0
M  V30 6084 O 581.78 -1.49838 1.56133 0
M  V30 6085 C 582.375 1.49855 3.03857 0
M  V30 6086 C 580.934 1.29482 3.53428 0
M  V30 6087 C 580.081 1.56386 2.28995 0
M  V30 6088 H 583.032 1.24134 0.988762 0
M  V30 6089 H 583.053 0.923572 3.69121 0
M  V30 6090 H 582.565 2.57123 2.90705 0
M  V30 6091 H 580.666 0.242669 3.71809 0
M  V30 6092 H 580.779 2.01974 4.34446 0
M  V30 6093 H 579.143 0.985217 2.34874 0
M  V30 6094 H 579.926 2.64851 2.18423 0
M  V30 6095 N 582.371 -1.3172 0.865308 0
M  V30 6096 C 583.619 -1.96487 0.472995 0
M  V30 6097 C 583.94 -1.68761 -0.976975 0
M  V30 6098 O 583.21 -1.00051 -1.68424 0
M  V30 6099 H 581.79 -0.726947 0.171922 0
M  V30 6100 H 584.452 -1.60612 1.10407 0
M  V30 6101 H 583.548 -3.0574 0.62687 0
M  V30 6102 N 583.85 -0.624285 -1.44708 0
M  V30 6103 C 584.798 0.0969952 -2.32398 0
M  V30 6104 C 585.792 0.842762 -1.46949 0
M  V30 6105 O 586.998 0.756436 -1.63334 0
M  V30 6106 H 583.373 0.0501306 -0.750327 0
M  V30 6107 H 585.344 -0.660767 -2.90992 0
M  V30 6108 C 584.093 1.06967 -3.30837 0
M  V30 6109 H 583.416 0.505242 -3.96595 0
M  V30 6110 H 584.856 1.54397 -3.94889 0
M  V30 6111 C 583.315 2.15153 -2.5925 0
M  V30 6112 O 583.845 3.23139 -2.3863 0
M  V30 6113 N 582.051 1.90898 -2.19103 0
M  V30 6114 H 581.598 1.03086 -2.36074 0
M  V30 6115 H 581.556 2.63485 -1.71531 0
M  V30 6116 N 585.328 1.53329 -0.364422 0
M  V30 6117 C 586.576 2.00842 0.225189 0
M  V30 6118 C 586.897 1.25345 1.49378 0
M  V30 6119 O 586.167 0.366396 1.92443 0
M  V30 6120 H 584.747 0.742009 0.0862027 0
M  V30 6121 H 587.409 1.8863 -0.490389 0
M  V30 6122 H 586.505 3.08795 0.452987 0
M  V30 6123 N 586.806 0.0935595 1.57322 0
M  V30 6124 C 588.034 -0.578934 1.98635 0
M  V30 6125 C 588.449 -1.61819 0.972626 0
M  V30 6126 O 587.806 -1.82461 -0.0379638 0
M  V30 6127 C 587.857 -1.22802 3.40003 0
M  V30 6128 O 587.578 -0.230334 4.37494 0
M  V30 6129 C 589.079 -1.98627 3.96311 0
M  V30 6130 H 586.299 -0.155324 0.652775 0
M  V30 6131 H 588.843 0.172393 2.03772 0
M  V30 6132 H 586.998 -1.93029 3.35885 0
M  V30 6133 H 587.412 -0.698649 5.19826 0
M  V30 6134 H 588.886 -2.39405 4.97382 0
M  V30 6135 H 589.363 -2.85151 3.34044 0
M  V30 6136 H 589.969 -1.3322 4.03897 0
M  V30 6137 N 588.284 -1.56567 -0.180126 0
M  V30 6138 C 589.561 -1.7235 -0.924931 0
M  V30 6139 C 589.941 -0.652523 -2.00762 0
M  V30 6140 O 589.289 0.334115 -2.26044 0
M  V30 6141 C 589.499 -3.1523 -1.49771 0
M  V30 6142 C 590.847 -3.75921 -1.97405 0
M  V30 6143 O 591.871 -3.18452 -1.59583 0
M  V30 6144 O 590.73 -4.7681 -2.67048 0
M  V30 6145 H 587.824 -0.703502 -0.434758 0
M  V30 6146 H 590.37 -1.6886 -0.168647 0
M  V30 6147 H 589.142 -3.84656 -0.718027 0
M  V30 6148 H 588.765 -3.23009 -2.31842 0
M  V30 6149 N 589.762 0.448376 -1.51087 0
M  V30 6150 C 590.725 1.52588 -1.71025 0
M  V30 6151 C 591.725 1.49958 -0.580442 0
M  V30 6152 O 592.915 1.52176 -0.847833 0
M  V30 6153 C 590.047 2.92163 -1.75652 0
M  V30 6154 H 591.24 1.36218 -2.67179 0
M  V30 6155 H 588.793 0.676313 -1.4091 0
M  V30 6156 H 589.528 3.13951 -0.812724 0
M  V30 6157 H 589.313 2.95478 -2.57751 0
M  V30 6158 H 590.803 3.70349 -1.92953 0
M  V30 6159 N 591.24 1.41047 0.703093 0
M  V30 6160 C 592.465 1.43537 1.49706 0
M  V30 6161 C 592.89 0.0401853 1.88057 0
M  V30 6162 O 592.248 -0.954785 1.54122 0
M  V30 6163 C 592.296 2.3433 2.74084 0
M  V30 6164 O 591.4 1.79515 3.71279 0
M  V30 6165 H 590.741 0.487454 0.450871 0
M  V30 6166 H 593.271 1.85422 0.86486 0
M  V30 6167 H 593.281 2.49947 3.22476 0
M  V30 6168 H 591.956 3.35708 2.45506 0
M  V30 6169 H 590.533 1.7331 3.30179 0
M  V30 6170 N 592.718 -0.936591 1.26751 0
M  V30 6171 C 593.668 -2.0219 1.05371 0
M  V30 6172 C 594.652 -1.60893 -0.0154112 0
M  V30 6173 O 595.844 -1.75843 0.202085 0
M  V30 6174 C 592.973 -3.36222 0.693541 0
M  V30 6175 C 592.059 -3.8399 1.80035 0
M  V30 6176 N 592.45 -4.0436 3.03852 0
M  V30 6177 C 590.748 -4.12945 1.685 0
M  V30 6178 C 591.449 -4.44 3.75818 0
M  V30 6179 N 590.425 -4.50966 3.03531 0
M  V30 6180 H 594.227 -2.15958 1.99347 0
M  V30 6181 H 591.741 -1.12277 1.17335 0
M  V30 6182 H 593.738 -4.13625 0.521513 0
M  V30 6183 H 592.398 -3.23821 -0.238693 0
M  V30 6184 H 593.409 -3.9092 3.39709 0
M  V30 6185 H 590.086 -4.09308 0.822986 0
M  V30 6186 H 591.476 -4.67914 4.82189 0
M  V30 6187 O 594.235 -1.20928 -1.07045 0
M  V30 6188 H 594.926 -0.966183 -1.67883 0
M  V30 END ATOM
M  V30 BEGIN BOND
M  V30 END BOND
M  V30 END CTAB
M  END
$$$$
