drugbank_target|P07071 Anaerobic ribonucleoside-triphosphate reductase (DB02181; DB02452; DB03222; DB03258)
 OpenBabel12092119543D

  0  0  0     0  0            999 V3000
M  V30 BEGIN CTAB
M  V30 COUNTS 9508 9610 0 0 0
M  V30 BEGIN ATOM
M  V30 1 H -0.908 1.98254 -0.117106 0
M  V30 2 N 0 1.576 0 0
M  V30 3 C 0.933 2.03868 1.02534 0
M  V30 4 C 1.911 0.928543 1.3348 0
M  V30 5 O 3.095 1.19667 1.45644 0
M  V30 6 C 0.222 2.43627 2.35294 0
M  V30 7 C -0.732 3.65373 2.2001 0
M  V30 8 S 0.101 5.13292 1.52614 0
M  V30 9 C 1.257 5.56322 2.86805 0
M  V30 10 H 1.49 2.90518 0.631377 0
M  V30 11 H -0.977 1.52953 0.210867 0
M  V30 12 H 0.981 2.67203 3.11629 0
M  V30 13 H -0.358 1.57376 2.7183 0
M  V30 14 H -1.165 3.90944 3.18086 0
M  V30 15 H -1.563 3.418 1.51819 0
M  V30 16 H 0.729 5.58782 3.83104 0
M  V30 17 H 1.672 6.56266 2.65933 0
M  V30 18 H 2.08 4.83886 2.90714 0
M  V30 19 N 1.4781 -0.272755 1.55222 0
M  V30 20 C 2.7061 -1.02255 1.79865 0
M  V30 21 C 3.1211 -1.79924 0.572088 0
M  V30 22 O 2.4781 -1.76638 -0.458842 0
M  V30 23 C 2.5291 -1.98094 3.02392 0
M  V30 24 O 2.2501 -1.23572 4.20311 0
M  V30 25 C 3.7511 -2.84884 3.39641 0
M  V30 26 H 0.9711 -0.302057 0.599168 0
M  V30 27 H 3.5151 -0.303465 2.02236 0
M  V30 28 H 1.6701 -2.65465 2.82147 0
M  V30 29 H 2.0841 -1.88172 4.89583 0
M  V30 30 H 3.5581 -3.47927 4.28545 0
M  V30 31 H 4.0351 -3.54665 2.59055 0
M  V30 32 H 4.6411 -2.23003 3.62146 0
M  V30 33 N 2.9562 -1.48159 -0.537278 0
M  V30 34 C 4.2052 -1.5506 -1.28993 0
M  V30 35 C 4.5182 -0.226211 -1.94288 0
M  V30 36 O 5.7242 -0.173395 -2.70946 0
M  V30 37 C 4.1802 -2.73429 -2.34018 0
M  V30 38 C 3.7882 -4.1248 -1.74825 0
M  V30 39 C 5.5322 -2.89638 -3.10339 0
M  V30 40 C 3.4392 -5.22121 -2.77747 0
M  V30 41 H 2.3692 -0.577231 -0.485098 0
M  V30 42 H 5.0202 -1.74478 -0.568317 0
M  V30 43 H 3.4022 -2.47431 -3.09182 0
M  V30 44 H 4.5762 -4.48466 -1.05899 0
M  V30 45 H 2.8912 -4.01327 -1.11022 0
M  V30 46 H 5.4882 -3.68718 -3.87235 0
M  V30 47 H 5.8312 -1.9882 -3.65754 0
M  V30 48 H 6.3642 -3.15502 -2.42288 0
M  V30 49 H 3.1032 -6.1488 -2.27161 0
M  V30 50 H 2.6232 -4.90631 -3.45024 0
M  V30 51 H 4.3022 -5.49924 -3.4087 0
M  V30 52 N 4.4343 0.785586 -1.36625 0
M  V30 53 C 5.3443 1.92964 -1.33425 0
M  V30 54 C 6.3603 1.72394 -0.235851 0
M  V30 55 O 7.5363 1.95866 -0.468878 0
M  V30 56 C 4.6013 3.27884 -1.12662 0
M  V30 57 C 3.6623 3.61204 -2.32013 0
M  V30 58 C 2.8953 4.89687 -2.12231 0
M  V30 59 O 3.1183 5.59704 -1.09945 0
M  V30 60 O 2.0523 5.21752 -3.00098 0
M  V30 61 H 5.8783 1.98613 -2.29753 0
M  V30 62 H 3.4633 0.926384 -1.17211 0
M  V30 63 H 5.3453 4.08614 -1.03016 0
M  V30 64 H 4.0203 3.23118 -0.193991 0
M  V30 65 H 2.9273 2.80765 -2.47228 0
M  V30 66 H 4.2603 3.70698 -3.23796 0
M  V30 67 N 5.9124 1.20967 1.01018 0
M  V30 68 C 6.8594 0.964281 2.09691 0
M  V30 69 C 7.8294 -0.107853 1.65749 0
M  V30 70 O 9.0144 0.0381987 1.90762 0
M  V30 71 C 6.1544 0.52943 3.41015 0
M  V30 72 C 5.2674 1.67043 3.98398 0
M  V30 73 C 4.4024 1.18525 5.17808 0
M  V30 74 C 3.4414 2.29892 5.67288 0
M  V30 75 N 2.5784 1.82546 6.77954 0
M  V30 76 H 7.4184 1.89463 2.30017 0
M  V30 77 H 4.9554 0.944289 1.1279 0
M  V30 78 H 6.9134 0.258588 4.16398 0
M  V30 79 H 5.5434 -0.363919 3.20742 0
M  V30 80 H 4.5954 2.05603 3.20049 0
M  V30 81 H 5.9074 2.50877 4.31117 0
M  V30 82 H 5.0614 0.870762 6.00419 0
M  V30 83 H 3.8004 0.316887 4.86669 0
M  V30 84 H 2.8054 2.6215 4.83278 0
M  V30 85 H 4.0304 3.17216 6.00459 0
M  V30 86 H 1.9764 0.980454 6.48632 0
M  V30 87 H 1.8934 2.59956 7.09901 0
M  V30 88 H 3.1614 1.54115 7.64113 0
M  V30 89 N 7.3905 -1.2043 1.01659 0
M  V30 90 C 8.3005 -2.2689 0.596484 0
M  V30 91 C 9.3165 -1.70107 -0.36599 0
M  V30 92 O 10.4925 -2.00117 -0.226942 0
M  V30 93 C 7.5575 -3.4665 -0.0586659 0
M  V30 94 C 6.6185 -4.18662 0.949751 0
M  V30 95 C 5.8515 -5.32705 0.32577 0
M  V30 96 O 6.0745 -5.63656 -0.874509 0
M  V30 97 O 5.0085 -5.92803 1.04249 0
M  V30 98 H 8.8345 -2.65041 1.4828 0
M  V30 99 H 6.4195 -1.27048 0.786082 0
M  V30 100 H 8.3015 -4.19256 -0.424564 0
M  V30 101 H 6.9765 -3.10375 -0.91918 0
M  V30 102 H 5.8835 -3.48229 1.36702 0
M  V30 103 H 7.2165 -4.58878 1.78023 0
M  V30 104 N 8.8686 -0.792821 -1.36206 0
M  V30 105 C 10.1176 -0.363353 -1.984 0
M  V30 106 C 10.4306 1.07172 -1.63626 0
M  V30 107 O 11.6366 1.60362 -2.19081 0
M  V30 108 C 10.0926 -0.59872 -3.54885 0
M  V30 109 C 9.7006 -2.04543 -3.9858 0
M  V30 110 C 11.4446 -0.233926 -4.23855 0
M  V30 111 C 9.3516 -2.22727 -5.47856 0
M  V30 112 H 8.2816 -0.13212 -0.742334 0
M  V30 113 H 10.9326 -0.974935 -1.55458 0
M  V30 114 H 9.3146 0.0826222 -3.95914 0
M  V30 115 H 10.4886 -2.76345 -3.68741 0
M  V30 116 H 8.8036 -2.36879 -3.42458 0
M  V30 117 H 11.4006 -0.348027 -5.33566 0
M  V30 118 H 11.7436 0.818351 -4.08177 0
M  V30 119 H 12.2766 -0.868639 -3.882 0
M  V30 120 H 9.0156 -3.2635 -5.68486 0
M  V30 121 H 8.5356 -1.55434 -5.7931 0
M  V30 122 H 10.2146 -2.03607 -6.14128 0
M  V30 123 N 10.3467 1.47872 -0.545128 0
M  V30 124 C 11.2567 2.33633 0.212746 0
M  V30 125 C 12.2727 1.4744 0.923983 0
M  V30 126 O 13.4487 1.80393 0.895572 0
M  V30 127 C 10.5137 3.23884 1.23693 0
M  V30 128 C 9.5747 4.25961 0.534417 0
M  V30 129 C 8.8077 5.11899 1.5098 0
M  V30 130 O 9.0307 5.00077 2.7437 0
M  V30 131 O 7.9647 5.92831 1.0409 0
M  V30 132 H 11.7907 2.99714 -0.490416 0
M  V30 133 H 9.3757 1.46235 -0.305871 0
M  V30 134 H 11.2577 3.79666 1.82843 0
M  V30 135 H 9.9327 2.60446 1.92222 0
M  V30 136 H 8.8397 3.73972 -0.0979679 0
M  V30 137 H 10.1727 4.92079 -0.109213 0
M  V30 138 N 11.8248 0.280983 1.55075 0
M  V30 139 C 13.0728 -0.333455 1.9933 0
M  V30 140 C 13.3938 -1.55937 1.17085 0
M  V30 141 O 12.6638 -1.94143 0.261805 0
M  V30 142 H 11.2438 -0.126197 0.736263 0
M  V30 143 H 13.9058 0.387678 1.91005 0
M  V30 144 H 13.0018 -0.619292 3.05894 0
M  V30 145 N 13.3029 -1.57598 0.00835791 0
M  V30 146 C 14.2329 -2.1198 -0.979113 0
M  V30 147 C 15.2139 -1.03091 -1.35301 0
M  V30 148 O 16.3989 -1.30818 -1.43528 0
M  V30 149 C 13.5289 -2.62995 -2.26828 0
M  V30 150 C 12.4829 -3.76485 -2.03576 0
M  V30 151 C 11.8089 -4.13846 -3.38579 0
M  V30 152 C 13.1089 -5.0342 -1.39161 0
M  V30 153 H 14.8029 -2.94738 -0.526281 0
M  V30 154 H 12.3489 -1.41783 -0.251704 0
M  V30 155 H 14.3019 -2.99669 -2.96271 0
M  V30 156 H 13.0259 -1.7737 -2.7424 0
M  V30 157 H 11.6849 -3.40217 -1.36557 0
M  V30 158 H 11.3329 -3.25232 -3.83709 0
M  V30 159 H 11.0329 -4.90312 -3.23834 0
M  V30 160 H 12.5569 -4.53086 -4.09323 0
M  V30 161 H 13.9709 -5.37812 -1.98573 0
M  V30 162 H 12.3679 -5.84746 -1.34878 0
M  V30 163 H 13.4379 -4.83548 -0.361868 0
M  V30 164 N 14.781 0.264519 -1.55364 0
M  V30 165 C 16.03 0.992812 -1.75574 0
M  V30 166 C 16.343 1.87142 -0.568979 0
M  V30 167 O 17.549 2.63513 -0.653682 0
M  V30 168 C 16.005 1.81519 -3.10771 0
M  V30 169 C 15.613 0.984839 -4.37041 0
M  V30 170 C 17.357 2.53727 -3.40327 0
M  V30 171 C 15.264 1.80209 -5.63275 0
M  V30 172 H 14.194 0.374412 -0.65447 0
M  V30 173 H 16.845 0.248138 -1.81815 0
M  V30 174 H 15.227 2.60115 -2.98591 0
M  V30 175 H 16.401 0.242455 -4.60162 0
M  V30 176 H 14.716 0.37691 -4.14691 0
M  V30 177 H 17.313 3.15292 -4.3185 0
M  V30 178 H 17.656 3.24447 -2.60845 0
M  V30 179 H 18.189 1.82156 -3.53644 0
M  V30 180 H 14.928 1.13896 -6.45529 0
M  V30 181 H 14.448 2.52022 -5.44284 0
M  V30 182 H 16.127 2.37364 -6.01887 0
M  V30 183 N 16.2591 1.48442 0.529413 0
M  V30 184 C 17.2091 1.59407 1.63014 0
M  V30 185 C 18.1931 0.451166 1.54445 0
M  V30 186 O 19.3851 0.702635 1.62456 0
M  V30 187 C 16.5141 1.63746 3.01732 0
M  V30 188 C 15.6001 2.83518 3.15402 0
M  V30 189 N 15.9911 4.07929 2.99045 0
M  V30 190 C 14.2891 2.80862 3.46457 0
M  V30 191 C 14.9901 4.8829 3.16146 0
M  V30 192 N 13.9661 4.21117 3.43746 0
M  V30 193 H 17.7681 2.53343 1.48978 0
M  V30 194 H 15.2821 1.44821 0.734885 0
M  V30 195 H 17.2791 1.69695 3.80801 0
M  V30 196 H 15.9391 0.709264 3.16859 0
M  V30 197 H 16.9501 4.38357 2.75796 0
M  V30 198 H 13.6271 1.97301 3.67938 0
M  V30 199 H 15.0171 5.97028 3.08232 0
M  V30 200 N 17.7372 -0.778329 1.37039 0
M  V30 201 C 18.6842 -1.89139 1.32269 0
M  V30 202 C 19.6542 -1.65017 0.189387 0
M  V30 203 O 20.8392 -1.87024 0.377693 0
M  V30 204 C 17.9792 -3.26112 1.12894 0
M  V30 205 C 17.0922 -3.62233 2.35396 0
M  V30 206 C 16.2272 -4.8838 2.08946 0
M  V30 207 C 15.2662 -5.17212 3.2735 0
M  V30 208 N 14.4032 -6.34546 3.00492 0
M  V30 209 H 19.2432 -1.92552 2.27437 0
M  V30 210 H 16.7802 -0.941473 1.13025 0
M  V30 211 H 18.7382 -4.05116 0.996835 0
M  V30 212 H 17.3682 -3.22091 0.213758 0
M  V30 213 H 16.4202 -2.78265 2.5937 0
M  V30 214 H 17.7322 -3.79481 3.23721 0
M  V30 215 H 16.8862 -5.75274 1.92729 0
M  V30 216 H 15.6252 -4.73222 1.17949 0
M  V30 217 H 14.6302 -4.28796 3.44113 0
M  V30 218 H 15.8552 -5.34283 4.19188 0
M  V30 219 H 13.8012 -6.20759 2.12118 0
M  V30 220 H 13.7182 -6.52179 3.82358 0
M  V30 221 H 14.9862 -7.24394 2.87879 0
M  V30 222 N 19.2153 -1.21501 -1.00376 0
M  V30 223 C 20.4433 -1.059 -1.77744 0
M  V30 224 C 20.8583 0.391125 -1.84704 0
M  V30 225 O 20.2153 1.27133 -1.30933 0
M  V30 226 C 20.2663 -1.65111 -3.21591 0
M  V30 227 O 19.9873 -3.0445 -3.15027 0
M  V30 228 C 21.4883 -1.54637 -4.15454 0
M  V30 229 H 18.7083 -0.371825 -0.558558 0
M  V30 230 H 21.2523 -1.60865 -1.26264 0
M  V30 231 H 19.4073 -1.14235 -3.70175 0
M  V30 232 H 19.8213 -3.3278 -4.0541 0
M  V30 233 H 21.2953 -2.00808 -5.14179 0
M  V30 234 H 21.7723 -0.501022 -4.36333 0
M  V30 235 H 22.3783 -2.04767 -3.72761 0
M  V30 236 N 20.6934 1.19889 -1.02296 0
M  V30 237 C 21.6414 2.24938 -0.592081 0
M  V30 238 C 22.6354 1.65257 0.372357 0
M  V30 239 O 23.8414 1.78371 0.241583 0
M  V30 240 H 20.2164 0.731787 -0.173182 0
M  V30 241 H 22.1874 2.58603 -1.48885 0
M  V30 242 C 20.9364 3.47668 0.047351 0
M  V30 243 H 20.2594 3.93875 -0.685772 0
M  V30 244 H 21.6994 4.22852 0.311862 0
M  V30 245 C 20.1584 3.11136 1.29212 0
M  V30 246 O 20.6884 3.2325 2.38479 0
M  V30 247 N 18.8944 2.65625 1.17863 0
M  V30 248 H 18.4414 2.55968 0.289493 0
M  V30 249 H 18.3994 2.41553 2.01245 0
M  V30 250 N 22.1715 0.800033 1.35784 0
M  V30 251 C 23.1185 0.203848 2.29898 0
M  V30 252 C 24.0885 -0.658375 1.52495 0
M  V30 253 O 25.2735 -0.604832 1.8096 0
M  V30 254 C 22.4135 -0.64688 3.38983 0
M  V30 255 C 21.5265 0.235054 4.3136 0
M  V30 256 C 20.6615 -0.623054 5.27533 0
M  V30 257 C 19.7005 0.259682 6.11549 0
M  V30 258 N 18.8375 -0.558019 6.99879 0
M  V30 259 H 23.6775 1.01186 2.80295 0
M  V30 260 H 21.2145 0.51053 1.37957 0
M  V30 261 H 23.1725 -1.15521 4.00887 0
M  V30 262 H 21.8025 -1.42021 2.89879 0
M  V30 263 H 20.8545 0.861438 3.70518 0
M  V30 264 H 22.1665 0.914768 4.9034 0
M  V30 265 H 21.3205 -1.19678 5.94779 0
M  V30 266 H 20.0595 -1.33636 4.69034 0
M  V30 267 H 19.0645 0.845726 5.43256 0
M  V30 268 H 20.2895 0.970748 6.72126 0
M  V30 269 H 18.2355 -1.25542 6.43875 0
M  V30 270 H 18.1525 0.0637872 7.55973 0
M  V30 271 H 19.4205 -1.11523 7.71481 0
M  V30 272 N 23.6496 -1.47581 0.552962 0
M  V30 273 C 24.9266 -1.95563 -0.0381515 0
M  V30 274 C 25.3066 -1.49552 -1.48988 0
M  V30 275 O 24.6546 -0.732414 -2.16444 0
M  V30 276 C 24.8646 -3.48848 0.102919 0
M  V30 277 C 26.2126 -4.24577 -0.0446082 0
M  V30 278 O 27.2366 -3.56187 0.0302548 0
M  V30 279 O 26.0956 -5.46116 -0.204923 0
M  V30 280 H 23.1896 -0.824321 -0.0665067 0
M  V30 281 H 25.7356 -1.58001 0.619186 0
M  V30 282 H 24.5076 -3.75129 1.11328 0
M  V30 283 H 24.1306 -3.93165 -0.592224 0
M  V30 284 N 25.1277 -0.289203 -1.54924 0
M  V30 285 C 26.0577 0.58549 -2.2604 0
M  V30 286 C 27.0387 1.14753 -1.25562 0
M  V30 287 O 28.2237 1.17906 -1.54311 0
M  V30 288 C 25.3537 1.76305 -2.99222 0
M  V30 289 C 24.3077 1.33191 -4.06748 0
M  V30 290 C 23.6337 2.5937 -4.6758 0
M  V30 291 C 24.9337 0.471775 -5.20165 0
M  V30 292 H 26.6277 -0.00763532 -2.99399 0
M  V30 293 H 24.1737 -0.00511229 -1.43999 0
M  V30 294 H 26.1267 2.38097 -3.47689 0
M  V30 295 H 24.8507 2.38223 -2.23422 0
M  V30 296 H 23.5097 0.737121 -3.59113 0
M  V30 297 H 23.1577 3.19576 -3.88433 0
M  V30 298 H 22.8577 2.31228 -5.40192 0
M  V30 299 H 24.3817 3.21985 -5.18804 0
M  V30 300 H 25.7957 0.995056 -5.64599 0
M  V30 301 H 24.1927 0.284639 -5.99425 0
M  V30 302 H 25.2627 -0.506041 -4.82252 0
M  V30 303 N 26.6058 1.57591 -0.0167156 0
M  V30 304 C 27.5358 2.12496 0.967858 0
M  V30 305 C 28.5168 1.03807 1.34752 0
M  V30 306 O 29.7018 1.31577 1.42833 0
M  V30 307 C 26.8318 2.64194 2.25431 0
M  V30 308 C 25.7858 3.77559 2.01576 0
M  V30 309 C 25.1118 4.15636 3.36379 0
M  V30 310 C 26.4118 5.04151 1.36489 0
M  V30 311 H 28.1058 2.95013 0.510643 0
M  V30 312 H 25.6518 1.41915 0.244181 0
M  V30 313 H 27.6048 3.01236 2.94678 0
M  V30 314 H 26.3288 1.78821 2.73296 0
M  V30 315 H 24.9878 3.40937 1.34751 0
M  V30 316 H 24.6358 3.27263 3.81979 0
M  V30 317 H 24.3358 4.92022 3.21229 0
M  V30 318 H 25.8598 4.5525 4.06915 0
M  V30 319 H 27.2738 5.38857 1.95718 0
M  V30 320 H 25.6708 5.85453 1.31776 0
M  V30 321 H 26.7408 4.83733 0.336219 0
M  V30 322 N 28.0839 -0.256276 1.55502 0
M  V30 323 C 29.0319 -1.33694 1.90338 0
M  V30 324 C 30.0259 -1.50299 0.781441 0
M  V30 325 O 31.2319 -1.51885 0.965966 0
M  V30 326 H 27.6069 -0.447483 0.60437 0
M  V30 327 H 29.5779 -1.01574 2.8058 0
M  V30 328 C 28.3269 -2.68724 2.20642 0
M  V30 329 H 27.6499 -2.56743 3.06469 0
M  V30 330 H 29.0899 -3.43237 2.48926 0
M  V30 331 C 27.5489 -3.21101 1.01959 0
M  V30 332 O 28.0789 -4.0084 0.262762 0
M  V30 333 N 26.2849 -2.79003 0.812746 0
M  V30 334 H 25.8319 -2.14271 1.42989 0
M  V30 335 H 25.7899 -3.14393 0.0203076 0
M  V30 336 N 29.562 -1.4872 -0.521534 0
M  V30 337 C 30.472 -1.66569 -1.65203 0
M  V30 338 C 31.488 -0.548197 -1.65139 0
M  V30 339 O 32.664 -0.820339 -1.83936 0
M  V30 340 C 29.729 -1.70917 -3.01642 0
M  V30 341 C 28.79 -2.94356 -3.12495 0
M  V30 342 C 28.023 -2.98487 -4.42426 0
M  V30 343 O 28.246 -2.10786 -5.30024 0
M  V30 344 O 27.18 -3.90746 -4.57822 0
M  V30 345 H 31.006 -2.62298 -1.5308 0
M  V30 346 H 28.591 -1.3222 -0.695565 0
M  V30 347 H 30.473 -1.7625 -3.82771 0
M  V30 348 H 29.148 -0.783633 -3.14071 0
M  V30 349 H 28.055 -2.94552 -2.3063 0
M  V30 350 H 29.388 -3.86322 -3.04986 0
M  V30 351 N 31.0401 0.771051 -1.3745 0
M  V30 352 C 31.9881 1.90574 -1.33358 0
M  V30 353 C 32.9821 1.67936 -0.22224 0
M  V30 354 O 34.1881 1.75717 -0.390304 0
M  V30 355 H 30.5631 0.626714 -0.415612 0
M  V30 356 H 32.5341 1.91142 -2.29144 0
M  V30 357 C 31.2831 3.27845 -1.15813 0
M  V30 358 H 30.6061 3.45842 -2.00583 0
M  V30 359 H 32.0461 4.07538 -1.17 0
M  V30 360 C 30.5051 3.36625 0.136165 0
M  V30 361 O 31.0351 3.85785 1.11949 0
M  V30 362 N 29.2411 2.89997 0.187099 0
M  V30 363 H 28.7881 2.50182 -0.613753 0
M  V30 364 H 28.7461 2.96252 1.05272 0
M  V30 365 N 32.5182 1.22032 0.997298 0
M  V30 366 C 33.4812 0.987909 2.06816 0
M  V30 367 C 34.4812 -0.0440084 1.6074 0
M  V30 368 O 35.6712 0.194053 1.73116 0
M  V30 369 C 32.8032 0.49132 3.37341 0
M  V30 370 H 33.9962 1.93803 2.28868 0
M  V30 371 H 31.5492 1.03838 1.16822 0
M  V30 372 H 32.2842 -0.463364 3.20973 0
M  V30 373 H 32.0692 1.23575 3.72118 0
M  V30 374 H 33.5592 0.348824 4.16141 0
M  V30 375 N 33.9963 -1.19345 1.0293 0
M  V30 376 C 34.9443 -2.24621 0.604001 0
M  V30 377 C 35.9383 -1.65452 -0.363587 0
M  V30 378 O 37.1443 -1.78497 -0.23212 0
M  V30 379 H 33.5193 -0.730858 0.177061 0
M  V30 380 H 35.4903 -2.5781 1.50255 0
M  V30 381 C 34.2393 -3.47688 -0.0289127 0
M  V30 382 H 33.5623 -3.93505 0.706651 0
M  V30 383 H 35.0023 -4.23011 -0.289432 0
M  V30 384 C 33.4613 -3.11817 -1.2756 0
M  V30 385 O 33.9913 -3.2451 -2.36762 0
M  V30 386 N 32.1973 -2.66246 -1.16453 0
M  V30 387 H 31.7443 -2.56118 -0.275914 0
M  V30 388 H 31.7023 -2.42617 -1.99961 0
M  V30 389 N 35.4744 -0.807222 -1.35358 0
M  V30 390 C 36.4214 -0.216037 -2.29787 0
M  V30 391 C 37.3914 0.650278 -1.52842 0
M  V30 392 O 38.5764 0.595227 -1.81278 0
M  V30 393 C 35.7164 0.628893 -3.39321 0
M  V30 394 C 34.8294 -0.257927 -4.31229 0
M  V30 395 C 33.9644 0.595069 -5.27856 0
M  V30 396 C 33.0034 -0.292111 -6.11403 0
M  V30 397 N 32.1404 0.520895 -7.00165 0
M  V30 398 H 36.9804 -1.02671 -2.79755 0
M  V30 399 H 34.5174 -0.517839 -1.37684 0
M  V30 400 H 36.4754 1.13393 -4.01494 0
M  V30 401 H 35.1054 1.40482 -2.90628 0
M  V30 402 H 34.1574 -0.881076 -3.70056 0
M  V30 403 H 35.4694 -0.940759 -4.89848 0
M  V30 404 H 34.6234 1.16522 -5.95405 0
M  V30 405 H 33.3624 1.31146 -4.69736 0
M  V30 406 H 32.3674 -0.874525 -5.428 0
M  V30 407 H 33.5924 -1.00638 -6.71602 0
M  V30 408 H 31.5384 1.22125 -6.44532 0
M  V30 409 H 31.4554 -0.103877 -7.55929 0
M  V30 410 H 32.7234 1.0743 -7.72062 0
M  V30 411 N 36.9525 1.47285 -0.560781 0
M  V30 412 C 38.2295 1.9558 0.0277798 0
M  V30 413 C 38.6095 1.5034 1.48192 0
M  V30 414 O 37.9575 0.743882 2.16052 0
M  V30 415 C 38.1675 3.48789 -0.121418 0
M  V30 416 C 39.5155 4.24594 0.0220912 0
M  V30 417 O 40.5395 3.56166 -0.0491439 0
M  V30 418 O 39.3985 5.46217 0.175958 0
M  V30 419 H 36.4925 0.824663 0.0621342 0
M  V30 420 H 39.0385 1.5767 -0.627556 0
M  V30 421 H 37.8105 3.74533 -1.13316 0
M  V30 422 H 37.4335 3.93473 0.571366 0
M  V30 423 N 38.4306 0.297415 1.54768 0
M  V30 424 C 39.6556 -0.318435 2.04941 0
M  V30 425 C 40.0806 -1.4701 1.17345 0
M  V30 426 O 39.4386 -1.80436 0.176758 0
M  V30 427 C 39.4866 -0.755749 3.52592 0
M  V30 428 O 38.5906 -1.86088 3.68028 0
M  V30 429 H 37.9316 -0.062421 0.661059 0
M  V30 430 H 40.4616 0.438215 1.99852 0
M  V30 431 H 40.4716 -1.04552 3.94376 0
M  V30 432 H 39.1466 0.0867233 4.1581 0
M  V30 433 H 37.7236 -1.57193 3.38149 0
M  V30 434 N 39.9087 -1.5758 0.0250728 0
M  V30 435 C 41.3247 -1.56124 -0.331282 0
M  V30 436 C 41.5247 -1.03029 -1.73169 0
M  V30 437 O 40.5807 -0.675215 -2.43305 0
M  V30 438 C 41.8937 -3.00139 -0.183584 0
M  V30 439 C 43.4417 -3.11946 -0.256654 0
M  V30 440 C 43.9167 -4.57793 -0.137792 0
M  V30 441 N 45.4077 -4.6279 -0.194904 0
M  V30 442 C 46.1427 -5.7326 -0.126655 0
M  V30 443 N 45.6387 -6.928 -0.00755288 0
M  V30 444 N 47.4317 -5.61811 -0.180348 0
M  V30 445 H 39.5827 -1.90424 0.94087 0
M  V30 446 H 41.8457 -0.875761 0.362968 0
M  V30 447 H 41.5517 -3.4292 0.780927 0
M  V30 448 H 41.4257 -3.64899 -0.955448 0
M  V30 449 H 43.8127 -2.69079 -1.21162 0
M  V30 450 H 43.8937 -2.49915 0.545517 0
M  V30 451 H 43.5377 -5.01339 0.813739 0
M  V30 452 H 43.4677 -5.17798 -0.958775 0
M  V30 453 H 45.9587 -3.76807 -0.287267 0
M  V30 454 H 46.2717 -7.72791 0.0379428 0
M  V30 455 H 44.6167 -6.94995 0.0271731 0
M  V30 456 H 47.8077 -4.6731 -0.271767 0
M  V30 457 H 47.9807 -6.47882 -0.123697 0
M  V30 458 N 41.3868 0.248026 -1.55636 0
M  V30 459 C 42.6328 0.97767 -1.77678 0
M  V30 460 C 42.9658 1.85016 -0.590135 0
M  V30 461 O 42.2408 1.90095 0.411611 0
M  V30 462 C 42.5238 1.83914 -3.09593 0
M  V30 463 C 42.3768 0.99491 -4.38659 0
M  V30 464 C 43.6958 2.82183 -3.37729 0
M  V30 465 H 40.8148 0.354005 -0.646413 0
M  V30 466 H 43.4568 0.248253 -1.88371 0
M  V30 467 H 41.6068 2.46104 -3.00608 0
M  V30 468 H 43.2788 0.391789 -4.59633 0
M  V30 469 H 41.5218 0.299231 -4.32767 0
M  V30 470 H 42.1928 1.63145 -5.2734 0
M  V30 471 H 44.6688 2.30129 -3.4667 0
M  V30 472 H 43.5448 3.39582 -4.31249 0
M  V30 473 H 43.8058 3.58588 -2.58586 0
M  V30 474 N 42.8649 1.48995 0.513639 0
M  V30 475 C 44.1119 1.57843 1.26854 0
M  V30 476 C 44.4399 0.259501 1.92761 0
M  V30 477 O 43.6949 -0.75159 1.80692 0
M  V30 478 C 43.9939 2.67756 2.36731 0
M  V30 479 C 43.6599 4.09669 1.88368 0
M  V30 480 C 42.3219 4.48291 1.74896 0
M  V30 481 C 44.6739 4.98537 1.52021 0
M  V30 482 C 42.0019 5.73568 1.23438 0
M  V30 483 C 44.3539 6.24319 1.0202 0
M  V30 484 C 43.0179 6.61783 0.871778 0
M  V30 485 H 42.2879 0.577587 0.464192 0
M  V30 486 H 44.9349 1.82778 0.571366 0
M  V30 487 H 43.2399 2.36743 3.12185 0
M  V30 488 H 44.9369 2.71813 2.9482 0
M  V30 489 H 41.5269 3.79176 1.99808 0
M  V30 490 H 45.7109 4.69363 1.61281 0
M  V30 491 H 40.9669 6.01304 1.10648 0
M  V30 492 H 45.1409 6.92566 0.729722 0
M  V30 493 H 42.7679 7.5874 0.470852 0
M  V30 494 N 44.343 -0.763751 1.37857 0
M  V30 495 C 45.754 -1.3405 1.29952 0
M  V30 496 C 46.105 -1.96138 -0.0492898 0
M  V30 497 O 45.23 -1.94372 -0.951239 0
M  V30 498 C 45.825 -2.43729 2.35333 0
M  V30 499 C 44.384 -2.97151 2.31037 0
M  V30 500 C 43.531 -1.70438 2.18738 0
M  V30 501 H 46.482 -0.563396 1.48363 0
M  V30 502 H 46.503 -3.23412 2.00462 0
M  V30 503 H 46.015 -1.9851 3.33489 0
M  V30 504 H 44.116 -3.46724 1.3643 0
M  V30 505 H 44.229 -3.52221 3.24772 0
M  V30 506 H 42.593 -1.93673 1.65418 0
M  V30 507 H 43.376 -1.27312 3.18821 0
M  V30 508 N 45.8211 -1.22559 -0.990812 0
M  V30 509 C 47.0491 -1.07779 -1.76611 0
M  V30 510 C 47.4641 0.371513 -1.85109 0
M  V30 511 O 46.8211 1.25737 -1.32274 0
M  V30 512 C 46.8721 -1.68512 -3.19822 0
M  V30 513 O 46.5931 -3.07774 -3.1178 0
M  V30 514 C 48.0941 -1.59035 -4.13791 0
M  V30 515 H 45.3141 -0.377729 -0.554583 0
M  V30 516 H 47.8581 -1.62195 -1.24551 0
M  V30 517 H 46.0131 -1.18154 -3.68942 0
M  V30 518 H 46.4271 -3.37062 -4.01858 0
M  V30 519 H 47.9011 -2.0625 -5.1202 0
M  V30 520 H 48.3781 -0.547273 -4.35777 0
M  V30 521 H 48.9841 -2.08709 -3.70568 0
M  V30 522 N 47.2992 1.18797 -1.03562 0
M  V30 523 C 48.2312 2.21731 -0.580337 0
M  V30 524 C 49.2442 1.59051 0.347349 0
M  V30 525 O 50.4332 1.77929 0.142669 0
M  V30 526 C 47.5332 3.38459 0.172805 0
M  V30 527 C 46.7062 4.3072 -0.761496 0
M  V30 528 C 45.7652 5.26174 -0.0525547 0
M  V30 529 O 44.7912 5.65108 -0.681333 0
M  V30 530 N 45.9932 5.67624 1.21586 0
M  V30 531 H 48.7582 2.61417 -1.46565 0
M  V30 532 H 46.3192 1.33531 -0.915476 0
M  V30 533 H 48.3112 3.99335 0.656793 0
M  V30 534 H 46.8812 2.97507 0.959602 0
M  V30 535 H 46.1012 3.67525 -1.42544 0
M  V30 536 H 47.3892 4.89267 -1.39626 0
M  V30 537 H 46.7872 5.38038 1.74732 0
M  V30 538 H 45.3442 6.30721 1.64421 0
M  V30 539 N 48.7773 0.814389 1.34928 0
M  V30 540 C 50.1933 0.499084 1.51596 0
M  V30 541 C 50.3933 -0.978319 1.76157 0
M  V30 542 O 49.4493 -1.76309 1.80752 0
M  V30 543 C 50.7623 1.35121 2.68631 0
M  V30 544 C 52.3103 1.34746 2.82511 0
M  V30 545 C 52.7853 2.18388 4.0258 0
M  V30 546 N 54.2763 2.15966 4.09772 0
M  V30 547 C 55.0113 2.77437 5.01813 0
M  V30 548 N 54.5073 3.47866 5.99134 0
M  V30 549 N 56.3003 2.67037 4.94619 0
M  V30 550 H 48.4513 1.7711 1.17243 0
M  V30 551 H 50.7143 0.754256 0.574284 0
M  V30 552 H 50.4203 2.40001 2.57085 0
M  V30 553 H 50.2943 1.00991 3.63429 0
M  V30 554 H 52.6813 0.30648 2.93504 0
M  V30 555 H 52.7623 1.72869 1.88547 0
M  V30 556 H 52.4063 3.2253 3.92347 0
M  V30 557 H 52.3363 1.77621 4.9574 0
M  V30 558 H 54.8273 1.64729 3.40107 0
M  V30 559 H 55.1403 3.92038 6.65977 0
M  V30 560 H 53.4853 3.51972 5.99284 0
M  V30 561 H 56.6763 2.11597 4.17546 0
M  V30 562 H 56.8493 3.15232 5.66156 0
M  V30 563 N 50.2554 -1.46986 0.568584 0
M  V30 564 C 51.5324 -1.95592 -0.0174074 0
M  V30 565 C 51.9124 -1.51124 -1.47393 0
M  V30 566 O 51.2604 -0.755329 -2.15655 0
M  V30 567 C 51.4704 -3.48719 0.139913 0
M  V30 568 C 52.8184 -4.246 0.000426376 0
M  V30 569 O 53.8424 -3.56135 0.0680316 0
M  V30 570 O 52.7014 -5.46302 -0.146988 0
M  V30 571 H 49.7954 -0.82498 -0.0577599 0
M  V30 572 H 52.3414 -1.57335 0.635909 0
M  V30 573 H 51.1134 -3.73927 1.15301 0
M  V30 574 H 50.7364 -3.93771 -0.550491 0
M  V30 575 N 51.7335 -0.305618 -1.54608 0
M  V30 576 C 52.6635 0.561482 -2.26649 0
M  V30 577 C 53.6445 1.13415 -1.26772 0
M  V30 578 O 54.8295 1.16262 -1.55553 0
M  V30 579 C 51.9595 1.73122 -3.01075 0
M  V30 580 C 50.9135 1.2887 -4.08138 0
M  V30 581 C 50.2395 2.54396 -4.70305 0
M  V30 582 C 51.5395 0.416578 -5.20636 0
M  V30 583 H 53.2335 -0.0393902 -2.99374 0
M  V30 584 H 50.7795 -0.020385 -1.43986 0
M  V30 585 H 52.7325 2.34396 -3.50195 0
M  V30 586 H 51.4565 2.3584 -2.25936 0
M  V30 587 H 50.1155 0.698991 -3.59875 0
M  V30 588 H 49.7635 3.15439 -3.918 0
M  V30 589 H 49.4635 2.25486 -5.42614 0
M  V30 590 H 50.9875 3.16464 -5.2219 0
M  V30 591 H 52.4015 0.935116 -5.65622 0
M  V30 592 H 50.7985 0.221046 -5.99693 0
M  V30 593 H 51.8685 -0.557162 -4.81688 0
M  V30 594 N 53.2116 1.57565 -0.0334293 0
M  V30 595 C 54.1446 2.05997 0.981866 0
M  V30 596 C 55.1226 0.956647 1.3148 0
M  V30 597 O 56.3066 1.22729 1.43073 0
M  V30 598 C 53.4336 2.48564 2.30074 0
M  V30 599 C 52.4796 3.69958 2.12211 0
M  V30 600 S 53.3126 5.16414 1.41692 0
M  V30 601 C 54.4686 5.6228 2.7494 0
M  V30 602 H 54.7016 2.91792 0.569612 0
M  V30 603 H 52.2346 1.53366 0.178376 0
M  V30 604 H 54.1926 2.73753 3.05892 0
M  V30 605 H 52.8536 1.63106 2.68431 0
M  V30 606 H 52.0466 3.97603 3.09722 0
M  V30 607 H 51.6486 3.44943 1.44535 0
M  V30 608 H 53.9406 5.66783 3.71165 0
M  V30 609 H 54.8836 6.61759 2.51953 0
M  V30 610 H 55.2916 4.89944 2.80384 0
M  V30 611 N 54.6897 -0.239769 1.55765 0
M  V30 612 C 55.6527 -1.28038 1.90103 0
M  V30 613 C 56.6527 -1.40723 0.778055 0
M  V30 614 O 57.8427 -1.39301 1.04599 0
M  V30 615 C 54.9747 -2.65702 2.13577 0
M  V30 616 H 56.1677 -0.988048 2.83157 0
M  V30 617 H 53.7207 -0.479382 1.48767 0
M  V30 618 H 54.4557 -3.00063 1.23015 0
M  V30 619 H 54.2407 -2.57875 2.95369 0
M  V30 620 H 55.7307 -3.40828 2.41301 0
M  V30 621 N 56.1678 -1.49265 -0.50573 0
M  V30 622 C 57.4158 -1.582 -1.25766 0
M  V30 623 C 57.7368 -0.268482 -1.93143 0
M  V30 624 O 57.0068 0.711833 -1.8251 0
M  V30 625 H 55.5868 -0.582873 -0.467191 0
M  V30 626 H 58.2488 -1.85865 -0.586525 0
M  V30 627 H 57.3448 -2.37563 -2.02412 0
M  V30 628 N 57.6459 0.756429 -1.3826 0
M  V30 629 C 58.8949 1.51082 -1.3363 0
M  V30 630 C 59.2079 1.95467 0.0720068 0
M  V30 631 O 60.4139 2.7043 0.240834 0
M  V30 632 C 58.8699 2.72893 -2.34644 0
M  V30 633 C 58.4779 2.35544 -3.81081 0
M  V30 634 C 60.2219 3.50791 -2.39052 0
M  V30 635 C 58.1289 3.53948 -4.73787 0
M  V30 636 H 57.0589 0.56727 -0.49671 0
M  V30 637 H 59.7099 0.827147 -1.638 0
M  V30 638 H 58.0919 3.43227 -1.97513 0
M  V30 639 H 59.2659 1.72894 -4.27135 0
M  V30 640 H 57.5809 1.70786 -3.79764 0
M  V30 641 H 60.1779 4.38823 -3.05513 0
M  V30 642 H 60.5209 3.91745 -1.40861 0
M  V30 643 H 61.0539 2.87467 -2.74968 0
M  V30 644 H 57.7929 3.18064 -5.73163 0
M  V30 645 H 57.3129 4.15651 -4.32428 0
M  V30 646 H 58.9919 4.20566 -4.91663 0
M  V30 647 N 59.124 1.23083 0.984299 0
M  V30 648 C 60.37 1.06214 1.72761 0
M  V30 649 C 60.703 -0.400584 1.90024 0
M  V30 650 O 59.978 -1.29672 1.44967 0
M  V30 651 C 60.261 1.78375 3.12817 0
M  V30 652 C 60.114 3.32296 3.03149 0
M  V30 653 C 61.433 1.54309 4.12161 0
M  V30 654 H 58.552 0.387251 0.627061 0
M  V30 655 H 61.194 1.51536 1.14616 0
M  V30 656 H 59.344 1.39848 3.62457 0
M  V30 657 H 61.016 3.8032 2.61064 0
M  V30 658 H 59.259 3.6153 2.39747 0
M  V30 659 H 59.93 3.77972 4.02295 0
M  V30 660 H 62.406 1.87791 3.71314 0
M  V30 661 H 61.282 2.07281 5.08258 0
M  V30 662 H 61.543 0.477572 4.39513 0
M  V30 663 N 60.6021 -1.18246 1.0419 0
M  V30 664 C 61.8271 -1.92736 0.765996 0
M  V30 665 C 62.2521 -1.75728 -0.67091 0
M  V30 666 O 61.6101 -1.06825 -1.46486 0
M  V30 667 C 61.6581 -3.42148 1.13875 0
M  V30 668 O 60.7621 -4.11548 0.264954 0
M  V30 669 H 60.1031 -0.601238 0.281797 0
M  V30 670 H 62.6331 -1.49942 1.39207 0
M  V30 671 H 62.6431 -3.92858 1.1012 0
M  V30 672 H 61.3181 -3.53848 2.18551 0
M  V30 673 H 59.8951 -3.71137 0.362226 0
M  V30 674 N 62.0802 -0.821533 -1.34494 0
M  V30 675 C 63.0272 -0.240397 -2.29545 0
M  V30 676 C 63.9972 0.634031 -1.53523 0
M  V30 677 O 65.1822 0.575966 -1.81899 0
M  V30 678 C 62.3222 0.592869 -3.39969 0
M  V30 679 C 61.4352 -0.30365 -4.30932 0
M  V30 680 C 60.5702 0.539049 -5.28458 0
M  V30 681 C 59.6092 -0.356942 -6.11058 0
M  V30 682 N 58.7462 0.446603 -7.00678 0
M  V30 683 H 63.5862 -1.05632 -2.7865 0
M  V30 684 H 61.1232 -0.532413 -1.37127 0
M  V30 685 H 63.0812 1.09129 -4.02675 0
M  V30 686 H 61.7112 1.37392 -2.92102 0
M  V30 687 H 60.7632 -0.920276 -3.691 0
M  V30 688 H 62.0752 -0.992661 -4.88823 0
M  V30 689 H 61.2292 1.102 -5.96608 0
M  V30 690 H 59.9682 1.26157 -4.71101 0
M  V30 691 H 58.9732 -0.932047 -5.41842 0
M  V30 692 H 60.1982 -1.07755 -6.70497 0
M  V30 693 H 58.1442 1.15282 -6.45791 0
M  V30 694 H 58.0612 -0.184048 -7.55776 0
M  V30 695 H 59.3292 0.992352 -7.73158 0
M  V30 696 N 63.5583 1.46682 -0.576371 0
M  V30 697 C 64.5083 2.27278 0.181288 0
M  V30 698 C 65.4923 1.35497 0.867721 0
M  V30 699 O 66.6843 1.59717 0.762863 0
M  V30 700 C 63.8133 3.21703 1.19841 0
M  V30 701 C 62.8993 4.20969 0.51442 0
M  V30 702 N 63.2903 5.03999 -0.426407 0
M  V30 703 C 61.5883 4.39373 0.765963 0
M  V30 704 C 62.2893 5.75812 -0.825565 0
M  V30 705 N 61.2653 5.43315 -0.176116 0
M  V30 706 H 65.0673 2.88863 -0.541785 0
M  V30 707 H 62.5813 1.57455 -0.397697 0
M  V30 708 H 64.5783 3.78145 1.75533 0
M  V30 709 H 63.2383 2.61677 1.92238 0
M  V30 710 H 64.2493 5.11659 -0.8016 0
M  V30 711 H 60.9263 3.90502 1.47698 0
M  V30 712 H 62.3163 6.52577 -1.59976 0
M  V30 713 N 65.0364 0.313813 1.54444 0
M  V30 714 C 66.2854 -0.292519 1.99568 0
M  V30 715 C 66.5984 -1.54011 1.20582 0
M  V30 716 O 67.8044 -2.22183 1.56035 0
M  V30 717 C 66.2604 -0.571752 3.55329 0
M  V30 718 C 65.8684 0.658229 4.43138 0
M  V30 719 C 67.6124 -1.13857 4.08946 0
M  V30 720 C 65.5194 0.351439 5.90355 0
M  V30 721 H 64.4494 -0.113079 0.745472 0
M  V30 722 H 67.1004 0.424518 1.78522 0
M  V30 723 H 65.4824 -1.34872 3.72325 0
M  V30 724 H 66.6564 1.43403 4.37918 0
M  V30 725 H 64.9714 1.14458 4.0036 0
M  V30 726 H 67.5684 -1.38257 5.16516 0
M  V30 727 H 67.9114 -2.08489 3.6033 0
M  V30 728 H 68.4444 -0.423015 3.95544 0
M  V30 729 H 65.1834 1.26667 6.43145 0
M  V30 730 H 64.7034 -0.386842 5.98551 0
M  V30 731 H 66.3824 -0.0423134 6.46986 0
M  V30 732 N 66.5145 -1.57545 0.0417849 0
M  V30 733 C 67.4775 -2.09885 -0.92093 0
M  V30 734 C 68.4775 -1.01648 -1.24596 0
M  V30 735 O 69.6675 -1.27759 -1.1842 0
M  V30 736 C 66.7995 -2.57527 -2.23367 0
M  V30 737 H 67.9925 -2.96236 -0.467382 0
M  V30 738 H 65.5455 -1.5493 -0.206467 0
M  V30 739 H 66.2805 -1.74542 -2.73323 0
M  V30 740 H 66.0655 -3.36613 -2.01083 0
M  V30 741 H 67.5555 -2.98201 -2.92346 0
M  V30 742 N 67.9926 0.231505 -1.5589 0
M  V30 743 C 68.9396 1.28682 -1.91598 0
M  V30 744 C 69.9096 1.47071 -0.771974 0
M  V30 745 O 71.0946 1.60802 -1.027 0
M  V30 746 C 68.2346 2.6342 -2.22944 0
M  V30 747 C 67.3476 2.52912 -3.50228 0
M  V30 748 C 66.4826 3.80106 -3.7107 0
M  V30 749 C 65.5216 3.64279 -4.91902 0
M  V30 750 N 64.6586 4.834 -5.09184 0
M  V30 751 H 69.4986 0.975305 -2.81588 0
M  V30 752 H 67.0356 0.470299 -1.39379 0
M  V30 753 H 68.9936 3.41869 -2.39126 0
M  V30 754 H 67.6236 2.92687 -1.36139 0
M  V30 755 H 66.6756 1.6595 -3.42294 0
M  V30 756 H 67.9876 2.37133 -4.38827 0
M  V30 757 H 67.1416 4.66999 -3.87295 0
M  V30 758 H 65.8806 3.98799 -2.80733 0
M  V30 759 H 64.8856 2.7577 -4.75637 0
M  V30 760 H 66.1106 3.47067 -5.83714 0
M  V30 761 H 64.0566 5.02425 -4.21788 0
M  V30 762 H 63.9736 4.70311 -5.91898 0
M  V30 763 H 65.2416 5.71747 -5.29835 0
M  V30 764 N 69.4707 1.49531 0.497807 0
M  V30 765 C 70.4187 1.66926 1.61983 0
M  V30 766 C 71.4127 0.535167 1.60724 0
M  V30 767 O 72.6187 0.714896 1.65195 0
M  V30 768 H 68.9937 0.526415 0.537021 0
M  V30 769 H 70.9647 2.61098 1.44465 0
M  V30 770 C 69.7137 1.75602 3.00099 0
M  V30 771 H 69.0367 2.62244 3.01775 0
M  V30 772 H 70.4767 1.91807 3.78135 0
M  V30 773 C 68.9357 0.501543 3.33146 0
M  V30 774 O 69.4657 -0.371342 3.9998 0
M  V30 775 N 67.6717 0.363531 2.88317 0
M  V30 776 H 67.2187 1.07485 2.34104 0
M  V30 777 H 67.1767 -0.474728 3.10795 0
M  V30 778 N 70.9488 -0.749086 1.3866 0
M  V30 779 C 71.8818 -1.87111 1.30631 0
M  V30 780 C 72.8598 -1.61572 0.18251 0
M  V30 781 O 74.0438 -1.85019 0.360592 0
M  V30 782 C 71.1708 -3.22815 1.02511 0
M  V30 783 C 70.2168 -3.67234 2.1689 0
M  V30 784 S 71.0498 -3.78245 3.79066 0
M  V30 785 C 72.2058 -5.16761 3.53142 0
M  V30 786 H 72.4388 -1.93636 2.25594 0
M  V30 787 H 69.9718 -0.912525 1.24549 0
M  V30 788 H 71.9298 -4.01181 0.869701 0
M  V30 789 H 70.5908 -3.13964 0.0925884 0
M  V30 790 H 69.7838 -4.65677 1.92771 0
M  V30 791 H 69.3858 -2.96034 2.28561 0
M  V30 792 H 71.6778 -6.02656 3.09534 0
M  V30 793 H 72.6208 -5.45902 4.50995 0
M  V30 794 H 73.0288 -4.85771 2.87554 0
M  V30 795 N 72.4269 -1.23603 -0.977757 0
M  V30 796 C 73.6729 -1.07129 -1.72195 0
M  V30 797 C 74.0059 0.390501 -1.90233 0
M  V30 798 O 73.2809 1.28902 -1.45653 0
M  V30 799 C 73.5639 -1.80031 -3.11867 0
M  V30 800 C 73.4169 -3.33899 -3.01383 0
M  V30 801 C 74.7359 -1.56492 -4.11337 0
M  V30 802 H 71.8549 -0.390571 -0.624999 0
M  V30 803 H 74.4969 -1.52142 -1.13811 0
M  V30 804 H 72.6469 -1.41768 -3.6171 0
M  V30 805 H 74.3189 -3.81699 -2.59043 0
M  V30 806 H 72.5619 -3.62796 -2.37827 0
M  V30 807 H 73.2329 -3.801 -4.00285 0
M  V30 808 H 75.7089 -1.89757 -3.70313 0
M  V30 809 H 74.5849 -2.09973 -5.07151 0
M  V30 810 H 74.8459 -0.500874 -4.39254 0
M  V30 811 N 73.905 1.17692 -1.04816 0
M  V30 812 C 75.316 1.69501 -0.782698 0
M  V30 813 C 75.667 1.83456 0.695577 0
M  V30 814 O 74.792 1.51942 1.54086 0
M  V30 815 C 75.387 3.07874 -1.41419 0
M  V30 816 C 73.946 3.56864 -1.19686 0
M  V30 817 C 73.093 2.3322 -1.50012 0
M  V30 818 H 76.044 1.02262 -1.2136 0
M  V30 819 H 76.065 3.71528 -0.821428 0
M  V30 820 H 75.577 2.97685 -2.49009 0
M  V30 821 H 73.678 3.72337 -0.140043 0
M  V30 822 H 73.791 4.39851 -1.89916 0
M  V30 823 H 72.155 2.37501 -0.920071 0
M  V30 824 H 72.938 2.25644 -2.58727 0
M  V30 825 N 75.3831 0.828654 1.34056 0
M  V30 826 C 76.6081 0.431637 2.02859 0
M  V30 827 C 77.0331 -0.956339 1.61975 0
M  V30 828 O 76.3911 -1.62338 0.807228 0
M  V30 829 C 76.4391 0.548323 3.56407 0
M  V30 830 O 75.5431 -0.429556 4.10157 0
M  V30 831 H 74.8841 0.176886 0.640006 0
M  V30 832 H 77.4141 1.12066 1.71179 0
M  V30 833 H 77.4241 0.426196 4.05768 0
M  V30 834 H 76.0991 1.5606 3.8551 0
M  V30 835 H 74.6761 -0.265836 3.71951 0
M  V30 836 N 76.8612 -1.46375 0.584142 0
M  V30 837 C 78.1082 -2.02378 0.0702675 0
M  V30 838 C 78.4362 -1.45545 -1.29023 0
M  V30 839 O 77.6912 -0.610967 -1.85918 0
M  V30 840 C 77.9902 -3.57373 -0.0439342 0
M  V30 841 C 77.6562 -4.33252 1.24915 0
M  V30 842 C 76.3182 -4.53701 1.60341 0
M  V30 843 C 78.6702 -4.7681 2.1048 0
M  V30 844 C 75.9982 -5.1496 2.81128 0
M  V30 845 C 78.3502 -5.39404 3.30494 0
M  V30 846 C 77.0142 -5.5808 3.66201 0
M  V30 847 H 76.2842 -0.740554 0.0257127 0
M  V30 848 H 78.9312 -1.75727 0.761065 0
M  V30 849 H 77.2362 -3.83169 -0.817869 0
M  V30 850 H 78.9332 -3.98384 -0.457318 0
M  V30 851 H 75.5232 -4.17633 0.963364 0
M  V30 852 H 79.7072 -4.60766 1.84414 0
M  V30 853 H 74.9632 -5.27611 3.08928 0
M  V30 854 H 79.1372 -5.72114 3.97063 0
M  V30 855 H 76.7642 -6.05318 4.59885 0
M  V30 856 N 78.3393 -0.321999 -1.54275 0
M  V30 857 C 79.5883 0.281931 -1.9972 0
M  V30 858 C 79.9013 1.53369 -1.21397 0
M  V30 859 O 81.1073 2.21352 -1.57211 0
M  V30 860 C 79.5633 0.5529 -3.55628 0
M  V30 861 C 79.1713 -0.681721 -4.42783 0
M  V30 862 C 80.9153 1.11687 -4.09544 0
M  V30 863 C 78.8223 -0.382742 -5.9016 0
M  V30 864 H 77.7523 0.109124 -0.746062 0
M  V30 865 H 80.4033 -0.43398 -1.78294 0
M  V30 866 H 78.7853 1.32896 -3.73035 0
M  V30 867 H 79.9593 -1.45723 -4.37151 0
M  V30 868 H 78.2743 -1.1658 -3.99748 0
M  V30 869 H 80.8713 1.35515 -5.17242 0
M  V30 870 H 81.2143 2.06575 -3.61431 0
M  V30 871 H 81.7473 0.402032 -3.95763 0
M  V30 872 H 78.4863 -1.30076 -6.42464 0
M  V30 873 H 78.0063 0.355094 -5.98748 0
M  V30 874 H 79.6853 0.00800157 -6.47 0
M  V30 875 N 79.8174 1.5752 -0.0501392 0
M  V30 876 C 80.7504 2.07026 0.959962 0
M  V30 877 C 81.7284 0.970539 1.30458 0
M  V30 878 O 82.9124 1.2424 1.41763 0
M  V30 879 C 80.0394 2.5099 2.27424 0
M  V30 880 C 79.0854 3.72188 2.08275 0
M  V30 881 S 79.9184 5.17888 1.36207 0
M  V30 882 C 81.0744 5.65165 2.6896 0
M  V30 883 H 81.3074 2.9238 0.538631 0
M  V30 884 H 78.8404 1.53547 0.162099 0
M  V30 885 H 80.7984 2.76982 3.02971 0
M  V30 886 H 79.4594 1.65944 2.66686 0
M  V30 887 H 78.6524 4.00866 3.05487 0
M  V30 888 H 78.2544 3.46457 1.40868 0
M  V30 889 H 80.5464 5.70687 3.65133 0
M  V30 890 H 81.4894 6.64394 2.4492 0
M  V30 891 H 81.8974 4.9289 2.75172 0
M  V30 892 N 81.2955 -0.223234 1.56011 0
M  V30 893 C 82.2425 -1.27664 1.92277 0
M  V30 894 C 83.2125 -1.46659 0.779763 0
M  V30 895 O 84.3975 -1.60256 1.03551 0
M  V30 896 C 81.5375 -2.62234 2.24338 0
M  V30 897 C 80.6505 -2.51051 3.51564 0
M  V30 898 C 79.7855 -3.78133 3.7308 0
M  V30 899 C 78.8245 -3.61665 4.93827 0
M  V30 900 N 77.9615 -4.80693 5.11741 0
M  V30 901 H 82.8015 -0.960358 2.82101 0
M  V30 902 H 80.3385 -0.462901 1.39627 0
M  V30 903 H 82.2965 -3.40596 2.40936 0
M  V30 904 H 80.9265 -2.91961 1.3769 0
M  V30 905 H 79.9785 -1.64132 3.43169 0
M  V30 906 H 81.2905 -2.34803 4.40079 0
M  V30 907 H 80.4445 -4.64938 3.89766 0
M  V30 908 H 79.1835 -3.97304 2.82844 0
M  V30 909 H 78.1885 -2.73244 4.77093 0
M  V30 910 H 79.4135 -3.43966 5.85546 0
M  V30 911 H 77.3595 -5.00181 4.24446 0
M  V30 912 H 77.2765 -4.67165 5.94384 0
M  V30 913 H 78.5445 -5.6893 5.3286 0
M  V30 914 N 82.7736 -1.49793 -0.48987 0
M  V30 915 C 83.7366 -1.66752 -1.57246 0
M  V30 916 C 84.7366 -0.538867 -1.51502 0
M  V30 917 O 85.9266 -0.805545 -1.54456 0
M  V30 918 C 83.0586 -1.67528 -2.96896 0
M  V30 919 H 84.2516 -2.63321 -1.43534 0
M  V30 920 H 81.8046 -1.38992 -0.714914 0
M  V30 921 H 82.5396 -0.725837 -3.16073 0
M  V30 922 H 82.3246 -2.49504 -3.02473 0
M  V30 923 H 83.8146 -1.82667 -3.7553 0
M  V30 924 N 84.2517 0.741722 -1.39055 0
M  V30 925 C 85.2017 1.84661 -1.33732 0
M  V30 926 C 86.1857 1.59397 -0.219401 0
M  V30 927 O 87.3777 1.71015 -0.456375 0
M  V30 928 C 84.5067 3.22512 -1.17647 0
M  V30 929 C 83.5927 3.53628 -2.34112 0
M  V30 930 N 83.9837 3.55723 -3.59576 0
M  V30 931 C 82.2817 3.83956 -2.26923 0
M  V30 932 C 82.9827 3.84443 -4.36553 0
M  V30 933 N 81.9587 4.01877 -3.66055 0
M  V30 934 H 85.7607 1.84576 -2.28711 0
M  V30 935 H 83.2747 0.939647 -1.32455 0
M  V30 936 H 85.2717 4.01597 -1.11917 0
M  V30 937 H 83.9317 3.2384 -0.236124 0
M  V30 938 H 84.9427 3.37196 -3.93089 0
M  V30 939 H 81.6197 3.92929 -1.41113 0
M  V30 940 H 83.0097 3.92588 -5.45274 0
M  V30 941 N 85.7298 1.2412 0.971189 0
M  V30 942 C 86.6398 1.04747 2.09917 0
M  V30 943 C 87.6558 -0.0107162 1.73997 0
M  V30 944 O 88.8318 0.186714 2.00533 0
M  V30 945 C 85.8968 0.650828 3.40537 0
M  V30 946 C 84.9578 1.7851 3.90426 0
M  V30 947 C 84.1908 1.40729 5.14812 0
M  V30 948 O 84.4138 0.29557 5.69634 0
M  V30 949 O 83.3478 2.23168 5.58999 0
M  V30 950 H 87.1738 1.99304 2.29154 0
M  V30 951 H 84.7588 1.02908 1.08307 0
M  V30 952 H 86.6408 0.440992 4.19086 0
M  V30 953 H 85.3158 -0.265649 3.22608 0
M  V30 954 H 84.2228 2.04966 3.12953 0
M  V30 955 H 85.5558 2.68023 4.12825 0
M  V30 956 N 87.2079 -1.17134 1.05439 0
M  V30 957 C 88.4329 -1.91913 0.786396 0
M  V30 958 C 88.8579 -1.7643 -0.652234 0
M  V30 959 O 88.2159 -1.08372 -1.45345 0
M  V30 960 C 88.2639 -3.40921 1.17497 0
M  V30 961 O 87.3679 -4.11244 0.308589 0
M  V30 962 H 86.7089 -0.598215 0.288158 0
M  V30 963 H 89.2389 -1.48457 1.4079 0
M  V30 964 H 89.2489 -3.91668 1.14281 0
M  V30 965 H 87.9239 -3.5151 2.22292 0
M  V30 966 H 86.5009 -3.70731 0.40157 0
M  V30 967 N 88.686 -0.835752 -1.33615 0
M  V30 968 C 89.934 -0.429109 -1.97492 0
M  V30 969 C 90.255 1.01433 -1.66543 0
M  V30 970 O 89.525 1.70611 -0.962744 0
M  V30 971 H 88.105 -0.155686 -0.730596 0
M  V30 972 H 90.767 -1.06802 -1.63031 0
M  V30 973 H 89.863 -0.55861 -3.0706 0
M  V30 974 N 90.1641 1.46063 -0.591896 0
M  V30 975 C 91.4131 2.01547 -0.0786637 0
M  V30 976 C 91.7261 1.46796 1.29268 0
M  V30 977 O 92.9321 1.94157 1.89777 0
M  V30 978 C 91.3881 3.59787 -0.0900024 0
M  V30 979 C 90.9961 4.23534 -1.46023 0
M  V30 980 C 92.7401 4.22895 0.368806 0
M  V30 981 C 90.6471 5.73881 -1.4288 0
M  V30 982 H 89.5771 0.753564 -0.0256388 0
M  V30 983 H 92.2281 1.677 -0.744905 0
M  V30 984 H 90.6101 3.90752 0.642586 0
M  V30 985 H 91.7841 4.04167 -2.21328 0
M  V30 986 H 90.0991 3.72558 -1.85982 0
M  V30 987 H 92.6961 5.33116 0.411258 0
M  V30 988 H 93.0391 3.9247 1.38827 0
M  V30 989 H 93.5721 3.9659 -0.31001 0
M  V30 990 H 90.3111 6.0898 -2.42536 0
M  V30 991 H 89.8311 5.95486 -0.718095 0
M  V30 992 H 91.5101 6.36776 -1.14565 0
M  V30 993 N 91.6422 0.330177 1.54103 0
M  V30 994 C 92.8912 -0.271336 1.99867 0
M  V30 995 C 93.2042 -1.52723 1.22209 0
M  V30 996 O 94.4102 -2.20515 1.58383 0
M  V30 997 C 92.8662 -0.534032 3.55916 0
M  V30 998 C 92.4742 0.705193 4.42415 0
M  V30 999 C 94.2182 -1.09514 4.1013 0
M  V30 1000 C 92.1252 0.414035 5.89949 0
M  V30 1001 H 91.0552 -0.105166 0.74663 0
M  V30 1002 H 93.7062 0.443429 1.78062 0
M  V30 1003 H 92.0882 -1.30915 3.73734 0
M  V30 1004 H 93.2622 1.4804 4.36372 0
M  V30 1005 H 91.5772 1.18698 3.99124 0
M  V30 1006 H 94.1742 -1.3277 5.17954 0
M  V30 1007 H 94.5172 -2.04656 3.62521 0
M  V30 1008 H 95.0502 -0.381038 3.95971 0
M  V30 1009 H 91.7892 1.33481 6.41766 0
M  V30 1010 H 91.3092 -0.323336 5.98928 0
M  V30 1011 H 92.9882 0.0263105 6.46995 0
M  V30 1012 N 93.1203 -1.57491 0.0584922 0
M  V30 1013 C 94.0703 -2.08474 -0.923188 0
M  V30 1014 C 95.0543 -0.991479 -1.26722 0
M  V30 1015 O 96.2463 -1.25473 -1.24842 0
M  V30 1016 C 93.3753 -2.6392 -2.19548 0
M  V30 1017 C 92.4613 -3.80227 -1.87852 0
M  V30 1018 N 92.8523 -4.89714 -1.26546 0
M  V30 1019 C 91.1503 -3.89271 -2.17679 0
M  V30 1020 C 91.8513 -5.70689 -1.12644 0
M  V30 1021 N 90.8273 -5.18531 -1.63176 0
M  V30 1022 H 94.6293 -2.90517 -0.444653 0
M  V30 1023 H 92.1433 -1.61745 -0.145764 0
M  V30 1024 H 94.1403 -2.98752 -2.9078 0
M  V30 1025 H 92.8003 -1.83318 -2.68001 0
M  V30 1026 H 93.8113 -5.09358 -0.936757 0
M  V30 1027 H 90.4883 -3.19623 -2.68602 0
M  V30 1028 H 91.8783 -6.6875 -0.6499 0
M  V30 1029 N 94.5984 0.214957 -1.56127 0
M  V30 1030 C 95.8444 0.939762 -1.79712 0
M  V30 1031 C 96.1774 1.83723 -0.629247 0
M  V30 1032 O 95.4524 1.90925 0.371197 0
M  V30 1033 C 95.7354 1.77306 -3.13424 0
M  V30 1034 C 95.5884 0.90164 -4.40671 0
M  V30 1035 C 96.9074 2.74956 -3.43638 0
M  V30 1036 H 94.0264 0.340214 -0.653776 0
M  V30 1037 H 96.6684 0.20824 -1.88855 0
M  V30 1038 H 94.8184 2.39673 -3.0576 0
M  V30 1039 H 96.4904 0.294206 -4.60361 0
M  V30 1040 H 94.7334 0.207368 -4.33304 0
M  V30 1041 H 95.4044 1.51923 -5.30682 0
M  V30 1042 H 97.8804 2.22724 -3.51473 0
M  V30 1043 H 96.7564 3.30358 -4.38355 0
M  V30 1044 H 97.0174 3.53023 -2.66134 0
M  V30 1045 N 96.0765 1.50051 0.48192 0
M  V30 1046 C 97.0265 1.64512 1.5786 0
M  V30 1047 C 98.0105 0.500073 1.52932 0
M  V30 1048 O 99.2025 0.753964 1.60139 0
M  V30 1049 C 96.3315 1.73263 2.9637 0
M  V30 1050 C 95.4175 2.93409 3.06222 0
M  V30 1051 N 95.8085 4.17236 2.85915 0
M  V30 1052 C 94.1065 2.91742 3.37346 0
M  V30 1053 C 94.8075 4.981 3.00451 0
M  V30 1054 N 93.7835 4.3184 3.30174 0
M  V30 1055 H 97.5855 2.57955 1.40842 0
M  V30 1056 H 95.0995 1.47086 0.688439 0
M  V30 1057 H 97.0965 1.81724 3.75209 0
M  V30 1058 H 95.7565 0.809711 3.14442 0
M  V30 1059 H 96.7675 4.46909 2.6171 0
M  V30 1060 H 93.4445 2.08907 3.61475 0
M  V30 1061 H 94.8345 6.06532 2.89082 0
M  V30 1062 N 97.5546 -0.734337 1.39446 0
M  V30 1063 C 98.8316 -1.48579 1.27215 0
M  V30 1064 C 99.2116 -2.1077 -0.117968 0
M  V30 1065 O 98.5596 -1.98646 -1.12924 0
M  V30 1066 C 98.7696 -2.53667 2.39696 0
M  V30 1067 C 100.118 -3.20031 2.79044 0
M  V30 1068 O 101.142 -2.6398 2.39151 0
M  V30 1069 O 100.001 -4.21455 3.47905 0
M  V30 1070 H 97.0946 -0.659816 0.49857 0
M  V30 1071 H 99.6406 -0.768106 1.51322 0
M  V30 1072 H 98.4126 -2.06096 3.32626 0
M  V30 1073 H 98.0356 -3.32994 2.17258 0
M  V30 1074 N 99.0327 -1.24633 -0.964593 0
M  V30 1075 C 100.282 -1.08188 -1.7023 0
M  V30 1076 C 100.595 0.37873 -1.91898 0
M  V30 1077 O 101.801 0.663427 -2.6327 0
M  V30 1078 C 100.257 -1.88773 -3.06419 0
M  V30 1079 C 99.8647 -3.39263 -2.92582 0
M  V30 1080 C 101.609 -1.80867 -3.84041 0
M  V30 1081 C 99.5157 -4.1218 -4.24101 0
M  V30 1082 H 98.4457 -0.401245 -0.638372 0
M  V30 1083 H 101.097 -1.48742 -1.07462 0
M  V30 1084 H 99.4787 -1.41035 -3.70034 0
M  V30 1085 H 100.653 -3.94603 -2.37961 0
M  V30 1086 H 98.9677 -3.48154 -2.28424 0
M  V30 1087 H 101.565 -2.32646 -4.81435 0
M  V30 1088 H 101.908 -0.774543 -4.09031 0
M  V30 1089 H 102.441 -2.26301 -3.27159 0
M  V30 1090 H 99.1797 -5.15965 -4.04303 0
M  V30 1091 H 98.6997 -3.61626 -4.78526 0
M  V30 1092 H 100.379 -4.19349 -4.92702 0
M  V30 1093 N 100.511 1.16574 -1.06058 0
M  V30 1094 C 101.788 1.83048 -0.689416 0
M  V30 1095 C 102.168 1.94122 0.829443 0
M  V30 1096 O 101.516 1.48249 1.7388 0
M  V30 1097 C 101.726 3.20186 -1.38859 0
M  V30 1098 C 103.074 3.95989 -1.53226 0
M  V30 1099 O 104.098 3.29696 -1.3483 0
M  V30 1100 O 102.957 5.14813 -1.83384 0
M  V30 1101 H 100.051 0.790258 -0.243764 0
M  V30 1102 H 102.597 1.23797 -1.16071 0
M  V30 1103 H 101.369 3.07146 -2.4244 0
M  V30 1104 H 100.992 3.87112 -0.907216 0
M  V30 1105 N 101.989 0.842826 1.3317 0
M  V30 1106 C 103.219 0.453397 2.01564 0
M  V30 1107 C 103.627 -0.951147 1.63554 0
M  V30 1108 O 102.97 -1.63021 0.846746 0
M  V30 1109 C 103.032 0.499013 3.5602 0
M  V30 1110 C 102.696 1.86037 4.1742 0
M  V30 1111 C 103.693 2.82416 4.36506 0
M  V30 1112 C 101.378 2.15428 4.53757 0
M  V30 1113 C 103.372 4.06346 4.91082 0
M  V30 1114 C 101.059 3.39615 5.0804 0
M  V30 1115 C 102.057 4.3489 5.26649 0
M  V30 1116 O 101.745 5.5688 5.79776 0
M  V30 1117 H 101.477 0.177871 0.652179 0
M  V30 1118 H 104.031 1.13808 1.70988 0
M  V30 1119 H 102.261 -0.242467 3.85939 0
M  V30 1120 H 103.95 0.126852 4.05702 0
M  V30 1121 H 104.716 2.6101 4.08777 0
M  V30 1122 H 100.595 1.42061 4.38565 0
M  V30 1123 H 104.139 4.80722 5.05522 0
M  V30 1124 H 100.036 3.60876 5.352 0
M  V30 1125 H 100.804 5.58674 5.98185 0
M  V30 1126 N 103.467 -1.45747 0.599634 0
M  V30 1127 C 104.692 -2.07178 0.0960198 0
M  V30 1128 C 105.117 -1.44268 -1.207 0
M  V30 1129 O 104.475 -0.532503 -1.73303 0
M  V30 1130 C 104.523 -3.60579 -0.0385348 0
M  V30 1131 O 103.627 -3.97713 -1.0908 0
M  V30 1132 H 102.968 -0.660251 0.0704593 0
M  V30 1133 H 105.498 -1.87124 0.827385 0
M  V30 1134 H 105.508 -4.07298 -0.239304 0
M  V30 1135 H 104.183 -4.05756 0.912947 0
M  V30 1136 H 102.76 -3.62678 -0.867135 0
M  V30 1137 N 104.945 -0.338344 -1.53925 0
M  V30 1138 C 106.356 0.146651 -1.86123 0
M  V30 1139 C 106.707 1.5042 -1.2597 0
M  V30 1140 O 105.832 2.08723 -0.571294 0
M  V30 1141 C 106.427 0.272879 -3.37699 0
M  V30 1142 C 104.986 0.702103 -3.69794 0
M  V30 1143 C 104.133 -0.167304 -2.76795 0
M  V30 1144 H 107.084 -0.558123 -1.48562 0
M  V30 1145 H 107.105 1.10128 -3.64214 0
M  V30 1146 H 106.617 -0.715307 -3.81451 0
M  V30 1147 H 104.718 1.6995 -3.31584 0
M  V30 1148 H 104.831 0.495604 -4.7653 0
M  V30 1149 H 103.195 0.359527 -2.5215 0
M  V30 1150 H 103.978 -1.15253 -3.23375 0
M  V30 1151 N 106.423 1.57458 -0.0668435 0
M  V30 1152 C 107.386 2.11323 0.887422 0
M  V30 1153 C 108.386 1.03618 1.22964 0
M  V30 1154 O 109.576 1.29626 1.16373 0
M  V30 1155 C 106.708 2.61048 2.19242 0
M  V30 1156 H 107.901 2.96942 0.420194 0
M  V30 1157 H 105.454 1.55239 0.181793 0
M  V30 1158 H 106.189 1.78868 2.70512 0
M  V30 1159 H 105.974 3.39769 1.95702 0
M  V30 1160 H 107.464 3.02814 2.87565 0
M  V30 1161 N 107.901 -0.206675 1.56239 0
M  V30 1162 C 108.831 -1.25909 1.96645 0
M  V30 1163 C 109.812 -1.48097 0.836734 0
M  V30 1164 O 110.997 -1.6003 1.10019 0
M  V30 1165 C 108.127 -2.6058 2.29599 0
M  V30 1166 C 107.081 -2.53024 3.452 0
M  V30 1167 C 106.407 -3.91861 3.63798 0
M  V30 1168 C 107.707 -2.06524 4.79734 0
M  V30 1169 H 109.401 -0.923369 2.84806 0
M  V30 1170 H 106.947 -0.442735 1.37025 0
M  V30 1171 H 108.9 -3.34375 2.56459 0
M  V30 1172 H 107.624 -2.95869 1.38307 0
M  V30 1173 H 106.283 -1.81684 3.18412 0
M  V30 1174 H 105.931 -4.24483 2.69857 0
M  V30 1175 H 105.631 -3.87683 4.4156 0
M  V30 1176 H 107.155 -4.67296 3.93022 0
M  V30 1177 H 108.569 -2.70072 5.05702 0
M  V30 1178 H 106.966 -2.13374 5.60885 0
M  V30 1179 H 108.036 -1.01802 4.74093 0
M  V30 1180 N 109.379 -1.50304 -0.473955 0
M  V30 1181 C 110.79 -1.54042 -1.0549 0
M  V30 1182 C 111.141 -0.342248 -1.93192 0
M  V30 1183 O 110.266 0.545157 -2.09421 0
M  V30 1184 C 110.861 -2.79152 -1.91989 0
M  V30 1185 C 109.42 -2.8558 -2.45196 0
M  V30 1186 C 108.567 -2.48295 -1.2347 0
M  V30 1187 H 111.518 -1.5661 -0.256693 0
M  V30 1188 H 111.539 -2.60845 -2.7702 0
M  V30 1189 H 111.051 -3.66339 -1.28131 0
M  V30 1190 H 109.152 -2.02738 -3.12615 0
M  V30 1191 H 109.265 -3.88403 -2.80499 0
M  V30 1192 H 107.629 -2.00669 -1.56856 0
M  V30 1193 H 108.412 -3.37787 -0.612789 0
M  V30 1194 N 110.857 0.726932 -1.39834 0
M  V30 1195 C 112.104 1.48664 -1.37496 0
M  V30 1196 C 112.432 1.94482 0.0264678 0
M  V30 1197 O 111.687 1.67692 1.00886 0
M  V30 1198 C 111.986 2.73495 -2.30077 0
M  V30 1199 C 111.652 2.46502 -3.77555 0
M  V30 1200 C 110.314 2.3885 -4.17737 0
M  V30 1201 C 112.666 2.23604 -4.70798 0
M  V30 1202 C 109.994 2.06352 -5.49214 0
M  V30 1203 C 112.346 1.92622 -6.02561 0
M  V30 1204 C 111.01 1.83444 -6.41798 0
M  V30 1205 H 110.28 0.544001 -0.503135 0
M  V30 1206 H 112.927 0.833657 -1.72402 0
M  V30 1207 H 111.232 3.43575 -1.88317 0
M  V30 1208 H 112.929 3.31549 -2.25558 0
M  V30 1209 H 109.519 2.5334 -3.45712 0
M  V30 1210 H 113.703 2.28479 -4.40581 0
M  V30 1211 H 108.959 1.97776 -5.78528 0
M  V30 1212 H 113.133 1.73914 -6.74334 0
M  V30 1213 H 110.76 1.58029 -7.43593 0
M  V30 1214 N 112.336 1.25143 0.95797 0
M  V30 1215 C 113.564 1.12424 1.73691 0
M  V30 1216 C 113.979 -0.322304 1.86029 0
M  V30 1217 O 113.336 -1.22186 1.35561 0
M  V30 1218 C 113.387 1.76933 3.15241 0
M  V30 1219 O 113.108 3.15932 3.03511 0
M  V30 1220 C 114.609 1.6995 4.09429 0
M  V30 1221 H 111.829 0.3923 0.544373 0
M  V30 1222 H 114.373 1.6544 1.20207 0
M  V30 1223 H 112.528 1.27895 3.6568 0
M  V30 1224 H 112.942 3.47598 3.9278 0
M  V30 1225 H 114.416 2.19753 5.06372 0
M  V30 1226 H 114.893 0.662619 4.34173 0
M  V30 1227 H 115.499 2.18461 3.64904 0
M  V30 1228 N 113.814 -1.1601 1.06675 0
M  V30 1229 C 114.762 -2.22586 0.675157 0
M  V30 1230 C 115.756 -1.66525 -0.310766 0
M  V30 1231 O 116.962 -1.79145 -0.175215 0
M  V30 1232 H 113.337 -0.724855 0.200223 0
M  V30 1233 H 115.308 -2.52899 1.58381 0
M  V30 1234 C 114.057 -3.47604 0.0817162 0
M  V30 1235 H 113.38 -3.91058 0.831484 0
M  V30 1236 H 114.82 -4.23718 -0.154708 0
M  V30 1237 C 113.279 -3.15718 -1.17576 0
M  V30 1238 O 113.809 -3.31878 -2.26318 0
M  V30 1239 N 112.015 -2.69816 -1.07923 0
M  V30 1240 H 111.562 -2.56866 -0.194293 0
M  V30 1241 H 111.52 -2.48855 -1.92141 0
M  V30 1242 N 115.292 -0.849877 -1.32721 0
M  V30 1243 C 116.532 -0.457146 -1.99222 0
M  V30 1244 C 116.896 0.968038 -1.6581 0
M  V30 1245 O 118.097 1.46507 -2.25364 0
M  V30 1246 C 116.368 -0.683966 -3.50794 0
M  V30 1247 S 117.927 -0.388095 -4.3708 0
M  V30 1248 H 114.745 -0.171464 -0.690015 0
M  V30 1249 H 117.347 -1.10155 -1.61512 0
M  V30 1250 H 116.051 -1.72038 -3.726 0
M  V30 1251 H 115.582 -0.0258086 -3.93392 0
M  V30 1252 H 117.597 0.787791 -4.89906 0
M  V30 1253 N 116.77 1.45427 -0.607355 0
M  V30 1254 C 118.01 2.04128 -0.105458 0
M  V30 1255 C 118.374 1.46555 1.24039 0
M  V30 1256 O 119.575 1.96608 1.833 0
M  V30 1257 C 117.846 3.57338 -0.0665324 0
M  V30 1258 S 119.405 4.37201 0.374207 0
M  V30 1259 H 116.223 0.709278 -0.0494575 0
M  V30 1260 H 118.825 1.78139 -0.805404 0
M  V30 1261 H 117.529 3.96752 -1.04957 0
M  V30 1262 H 117.06 3.87902 0.655415 0
M  V30 1263 H 119.075 4.6888 1.62377 0
M  V30 1264 N 118.248 0.346503 1.53744 0
M  V30 1265 C 119.178 -0.501193 2.28058 0
M  V30 1266 C 120.159 -1.10014 1.29734 0
M  V30 1267 O 121.344 -1.12097 1.58581 0
M  V30 1268 C 118.474 -1.65078 3.05559 0
M  V30 1269 C 117.428 -1.18003 4.11411 0
M  V30 1270 C 116.754 -2.41837 4.76884 0
M  V30 1271 C 118.054 -0.278394 5.21558 0
M  V30 1272 H 119.748 0.11875 2.99164 0
M  V30 1273 H 117.294 0.0585531 1.43881 0
M  V30 1274 H 119.247 -2.25028 3.56287 0
M  V30 1275 H 117.971 -2.29767 2.32109 0
M  V30 1276 H 116.63 -0.603331 3.61601 0
M  V30 1277 H 116.278 -3.0494 4.00026 0
M  V30 1278 H 115.978 -2.1102 5.48402 0
M  V30 1279 H 117.502 -3.02508 5.30397 0
M  V30 1280 H 118.916 -0.784823 5.67903 0
M  V30 1281 H 117.313 -0.0619707 6.00068 0
M  V30 1282 H 118.383 0.684677 4.80042 0
M  V30 1283 N 119.726 -1.57421 0.075193 0
M  V30 1284 C 120.972 -1.93905 -0.594025 0
M  V30 1285 C 121.305 -0.955701 -1.69056 0
M  V30 1286 O 120.58 0.0145373 -1.94495 0
M  V30 1287 C 120.863 -3.40638 -1.1678 0
M  V30 1288 C 120.716 -4.49733 -0.0776792 0
M  V30 1289 C 122.035 -3.88259 -2.07228 0
M  V30 1290 H 119.154 -0.705105 -0.214466 0
M  V30 1291 H 121.796 -1.8947 0.141854 0
M  V30 1292 H 119.946 -3.44549 -1.79494 0
M  V30 1293 H 121.618 -4.57942 0.555573 0
M  V30 1294 H 119.861 -4.29751 0.591286 0
M  V30 1295 H 120.532 -5.49549 -0.519603 0
M  V30 1296 H 123.008 -3.86376 -1.54445 0
M  V30 1297 H 121.884 -4.91533 -2.44308 0
M  V30 1298 H 122.145 -3.26396 -2.98191 0
M  V30 1299 N 121.204 0.198386 -1.56346 0
M  V30 1300 C 122.481 0.944982 -1.71258 0
M  V30 1301 C 122.861 2.0151 -0.629048 0
M  V30 1302 O 122.209 2.25639 0.360473 0
M  V30 1303 C 122.419 1.5344 -3.1346 0
M  V30 1304 C 123.767 2.01778 -3.73591 0
M  V30 1305 O 124.791 1.63288 -3.16568 0
M  V30 1306 O 123.65 2.72594 -4.73661 0
M  V30 1307 H 120.744 0.442939 -0.69838 0
M  V30 1308 H 123.29 0.188342 -1.68652 0
M  V30 1309 H 122.062 0.762869 -3.83792 0
M  V30 1310 H 121.685 2.35596 -3.20282 0
M  V30 1311 N 122.682 1.50554 0.465978 0
M  V30 1312 C 123.612 1.72722 1.57128 0
M  V30 1313 C 124.593 0.576294 1.6004 0
M  V30 1314 O 125.778 0.81598 1.76225 0
M  V30 1315 C 122.908 1.82605 2.95419 0
M  V30 1316 C 121.862 2.97835 3.07373 0
M  V30 1317 C 121.188 2.92867 4.47363 0
M  V30 1318 C 122.488 4.38265 2.84114 0
M  V30 1319 H 124.182 2.65267 1.38829 0
M  V30 1320 H 121.728 1.2765 0.666441 0
M  V30 1321 H 123.681 1.96698 3.72677 0
M  V30 1322 H 122.405 0.866858 3.14886 0
M  V30 1323 H 121.064 2.83401 2.3255 0
M  V30 1324 H 120.712 1.94783 4.63755 0
M  V30 1325 H 120.412 3.70227 4.56296 0
M  V30 1326 H 121.936 3.09015 5.26633 0
M  V30 1327 H 123.35 4.53198 3.51118 0
M  V30 1328 H 121.747 5.17115 3.04487 0
M  V30 1329 H 122.817 4.50281 1.7993 0
M  V30 1330 N 124.16 -0.719506 1.40217 0
M  V30 1331 C 125.107 -1.83359 1.40172 0
M  V30 1332 C 126.077 -1.64065 0.259206 0
M  V30 1333 O 127.262 -1.85254 0.456677 0
M  V30 1334 C 124.402 -3.2103 1.26624 0
M  V30 1335 C 123.515 -3.51923 2.50548 0
M  V30 1336 C 122.65 -4.79079 2.29471 0
M  V30 1337 C 121.689 -5.02863 3.48992 0
M  V30 1338 N 120.826 -6.2123 3.27135 0
M  V30 1339 H 125.666 -1.82733 2.35399 0
M  V30 1340 H 123.203 -0.892688 1.16917 0
M  V30 1341 H 125.161 -4.00524 1.16776 0
M  V30 1342 H 123.791 -3.20895 0.350176 0
M  V30 1343 H 122.843 -2.67014 2.70939 0
M  V30 1344 H 124.155 -3.6541 3.39525 0
M  V30 1345 H 123.309 -5.66582 2.16955 0
M  V30 1346 H 122.048 -4.67794 1.37913 0
M  V30 1347 H 121.053 -4.13816 3.6199 0
M  V30 1348 H 122.278 -5.16023 4.41472 0
M  V30 1349 H 120.224 -6.11204 2.38256 0
M  V30 1350 H 120.141 -6.35375 4.09675 0
M  V30 1351 H 121.409 -7.11532 3.18344 0
M  V30 1352 N 125.638 -1.25649 -0.95132 0
M  V30 1353 C 126.886 -1.10375 -1.69298 0
M  V30 1354 C 127.207 0.355339 -1.91735 0
M  V30 1355 O 126.477 1.25188 -1.50681 0
M  V30 1356 H 125.057 -0.405461 -0.627384 0
M  V30 1357 H 127.719 -1.57823 -1.14358 0
M  V30 1358 H 126.815 -1.61465 -2.67087 0
M  V30 1359 N 127.117 1.15442 -1.07289 0
M  V30 1360 C 128.05 2.19135 -0.636798 0
M  V30 1361 C 129.028 1.58884 0.34562 0
M  V30 1362 O 130.212 1.86805 0.252195 0
M  V30 1363 C 127.339 3.38638 0.0650014 0
M  V30 1364 C 126.385 4.17412 -0.87576 0
M  V30 1365 S 127.218 4.79882 -2.37642 0
M  V30 1366 C 128.374 6.02753 -1.6864 0
M  V30 1367 H 128.607 2.55787 -1.51526 0
M  V30 1368 H 126.14 1.26394 -0.886793 0
M  V30 1369 H 128.098 4.07873 0.463664 0
M  V30 1370 H 126.759 3.00331 0.919801 0
M  V30 1371 H 125.952 5.02909 -0.33143 0
M  V30 1372 H 125.554 3.53722 -1.21478 0
M  V30 1373 H 127.846 6.70113 -0.997753 0
M  V30 1374 H 128.789 6.61754 -2.51967 0
M  V30 1375 H 129.197 5.52355 -1.16465 0
M  V30 1376 N 128.595 0.856903 1.32268 0
M  V30 1377 C 129.525 0.31858 2.31316 0
M  V30 1378 C 130.506 -0.583487 1.59779 0
M  V30 1379 O 131.691 -0.503259 1.87566 0
M  V30 1380 C 128.821 -0.491979 3.43798 0
M  V30 1381 C 127.775 0.315849 4.26833 0
M  V30 1382 C 127.101 -0.619586 5.31098 0
M  V30 1383 C 128.401 1.54282 4.98993 0
M  V30 1384 H 130.095 1.14621 2.76591 0
M  V30 1385 H 127.641 0.552613 1.32974 0
M  V30 1386 H 129.594 -0.879012 4.1213 0
M  V30 1387 H 128.318 -1.35299 2.97257 0
M  V30 1388 H 126.977 0.684664 3.6015 0
M  V30 1389 H 126.625 -1.47751 4.8081 0
M  V30 1390 H 126.325 -0.0830621 5.87541 0
M  V30 1391 H 127.849 -1.00375 6.02293 0
M  V30 1392 H 129.263 1.22796 5.59995 0
M  V30 1393 H 127.66 2.01745 5.65172 0
M  V30 1394 H 128.73 2.30285 4.26728 0
M  V30 1395 N 130.073 -1.45103 0.615059 0
M  V30 1396 C 130.983 -2.34382 -0.101034 0
M  V30 1397 C 131.999 -1.51681 -0.852585 0
M  V30 1398 O 133.175 -1.8446 -0.808484 0
M  V30 1399 C 130.24 -3.29417 -1.08099 0
M  V30 1400 C 129.301 -4.28025 -0.330577 0
M  V30 1401 C 128.534 -5.1852 -1.26385 0
M  V30 1402 O 128.757 -5.12598 -2.50198 0
M  V30 1403 O 127.691 -5.97122 -0.756866 0
M  V30 1404 H 131.517 -2.97033 0.632855 0
M  V30 1405 H 129.102 -1.4461 0.375293 0
M  V30 1406 H 130.984 -3.87958 -1.6452 0
M  V30 1407 H 129.659 -2.69321 -1.79577 0
M  V30 1408 H 128.566 -3.73078 0.276283 0
M  V30 1409 H 129.899 -4.90997 0.343866 0
M  V30 1410 N 131.551 -0.354651 -1.53558 0
M  V30 1411 C 132.499 0.512195 -2.26891 0
M  V30 1412 C 133.493 1.09263 -1.29452 0
M  V30 1413 O 134.699 1.03709 -1.47121 0
M  V30 1414 H 131.074 0.183878 -0.729173 0
M  V30 1415 H 133.045 -0.128202 -2.98124 0
M  V30 1416 C 131.794 1.64563 -3.06291 0
M  V30 1417 H 131.117 1.20829 -3.81104 0
M  V30 1418 H 132.557 2.22711 -3.60799 0
M  V30 1419 C 131.016 2.58158 -2.16462 0
M  V30 1420 O 131.546 3.60695 -1.76811 0
M  V30 1421 N 129.752 2.27096 -1.81317 0
M  V30 1422 H 129.299 1.43751 -2.1376 0
M  V30 1423 H 129.257 2.89975 -1.21498 0
M  V30 1424 N 133.029 1.57378 -0.0835403 0
M  V30 1425 C 134.277 1.93547 0.581718 0
M  V30 1426 C 134.598 0.96524 1.69435 0
M  V30 1427 O 133.868 0.0153369 1.95894 0
M  V30 1428 H 132.448 0.714521 0.217874 0
M  V30 1429 H 135.11 1.94366 -0.144158 0
M  V30 1430 H 134.206 2.95665 0.999423 0
M  V30 1431 N 134.507 -0.190092 1.56449 0
M  V30 1432 C 135.754 -0.909705 1.80916 0
M  V30 1433 C 136.082 -1.83047 0.657583 0
M  V30 1434 O 135.337 -1.92428 -0.356356 0
M  V30 1435 C 135.636 -1.75382 3.1141 0
M  V30 1436 C 135.302 -0.983606 4.40041 0
M  V30 1437 C 133.964 -0.770967 4.74984 0
M  V30 1438 C 136.316 -0.442024 5.19322 0
M  V30 1439 C 133.644 -0.0053448 5.867 0
M  V30 1440 C 135.996 0.310412 6.31838 0
M  V30 1441 C 134.66 0.534023 6.6536 0
M  V30 1442 H 133.93 -0.332885 0.662019 0
M  V30 1443 H 136.577 -0.175762 1.90692 0
M  V30 1444 H 134.882 -2.55659 2.96893 0
M  V30 1445 H 136.579 -2.31331 3.27547 0
M  V30 1446 H 133.169 -1.15936 4.12622 0
M  V30 1447 H 137.353 -0.593693 4.92736 0
M  V30 1448 H 132.609 0.177825 6.11141 0
M  V30 1449 H 136.783 0.737419 6.92485 0
M  V30 1450 H 134.41 1.12918 7.51767 0
M  V30 1451 N 135.985 -1.50799 -0.457987 0
M  V30 1452 C 136.932 -1.70617 -1.5543 0
M  V30 1453 C 137.902 -0.547562 -1.56815 0
M  V30 1454 O 139.087 -0.779647 -1.74144 0
M  V30 1455 C 136.227 -1.81831 -2.93311 0
M  V30 1456 C 135.34 -3.09278 -3.01615 0
M  V30 1457 C 134.475 -3.11209 -4.30491 0
M  V30 1458 C 133.514 -4.33055 -4.32585 0
M  V30 1459 N 132.651 -4.32652 -5.52952 0
M  V30 1460 H 137.491 -2.64207 -1.37836 0
M  V30 1461 H 135.028 -1.30959 -0.669937 0
M  V30 1462 H 136.986 -1.86314 -3.73287 0
M  V30 1463 H 135.616 -0.916685 -3.0951 0
M  V30 1464 H 134.668 -3.14203 -2.1443 0
M  V30 1465 H 135.98 -3.99233 -2.99022 0
M  V30 1466 H 135.134 -3.14494 -5.18824 0
M  V30 1467 H 133.873 -2.19106 -4.35711 0
M  V30 1468 H 132.878 -4.29969 -3.42647 0
M  V30 1469 H 134.103 -5.264 -4.29046 0
M  V30 1470 H 132.049 -3.43409 -5.58933 0
M  V30 1471 H 131.966 -5.16392 -5.52155 0
M  V30 1472 H 133.234 -4.40101 -6.43375 0
M  V30 1473 N 137.463 0.71206 -1.40597 0
M  V30 1474 C 138.393 1.83889 -1.43899 0
M  V30 1475 C 139.374 1.67442 -0.299504 0
M  V30 1476 O 140.559 1.87421 -0.508624 0
M  V30 1477 C 137.689 3.21877 -1.30431 0
M  V30 1478 C 136.643 3.53002 -2.42019 0
M  V30 1479 C 135.969 4.90172 -2.13626 0
M  V30 1480 C 137.269 3.53643 -3.84362 0
M  V30 1481 H 138.963 1.81383 -2.38203 0
M  V30 1482 H 136.509 0.871237 -1.14654 0
M  V30 1483 H 138.462 4.00404 -1.31357 0
M  V30 1484 H 137.186 3.24968 -0.326049 0
M  V30 1485 H 135.845 2.76818 -2.40349 0
M  V30 1486 H 135.493 4.89869 -1.14182 0
M  V30 1487 H 135.193 5.11962 -2.88389 0
M  V30 1488 H 136.717 5.71028 -2.1624 0
M  V30 1489 H 138.131 4.22203 -3.87837 0
M  V30 1490 H 136.528 3.86961 -4.58673 0
M  V30 1491 H 137.598 2.52954 -4.13693 0
M  V30 1492 N 138.941 1.26152 0.944643 0
M  V30 1493 C 140.189 1.11271 1.6871 0
M  V30 1494 C 140.51 -0.345166 1.91921 0
M  V30 1495 O 139.78 -1.24387 1.51343 0
M  V30 1496 H 138.36 0.408783 0.625224 0
M  V30 1497 H 141.022 1.58427 1.1352 0
M  V30 1498 H 140.118 1.62879 2.66227 0
M  V30 1499 N 140.419 -1.14872 1.07899 0
M  V30 1500 C 141.367 -2.21857 0.698727 0
M  V30 1501 C 142.361 -1.66845 -0.293086 0
M  V30 1502 O 143.567 -1.79321 -0.156204 0
M  V30 1503 H 139.942 -0.722691 0.207899 0
M  V30 1504 H 141.913 -2.51205 1.61054 0
M  V30 1505 C 140.662 -3.47498 0.11858 0
M  V30 1506 H 139.985 -3.90154 0.872914 0
M  V30 1507 H 141.425 -4.23858 -0.109759 0
M  V30 1508 C 139.884 -3.16947 -1.1422 0
M  V30 1509 O 140.414 -3.3426 -2.22785 0
M  V30 1510 N 138.62 -2.70946 -1.05055 0
M  V30 1511 H 138.167 -2.57058 -0.167038 0
M  V30 1512 H 138.125 -2.50879 -1.89491 0
M  V30 1513 N 141.898 -0.863906 -1.31812 0
M  V30 1514 C 142.861 -0.320212 -2.26952 0
M  V30 1515 C 143.861 0.525369 -1.51975 0
M  V30 1516 O 145.051 0.335547 -1.70938 0
M  V30 1517 C 142.183 0.545919 -3.365 0
M  V30 1518 H 143.376 -1.16004 -2.76556 0
M  V30 1519 H 140.929 -0.638995 -1.42641 0
M  V30 1520 H 141.664 1.40718 -2.92179 0
M  V30 1521 H 141.449 -0.0594674 -3.92055 0
M  V30 1522 H 142.939 0.918796 -4.07367 0
M  V30 1523 N 143.376 1.44774 -0.622745 0
M  V30 1524 C 144.308 2.28856 0.125485 0
M  V30 1525 C 145.321 1.40811 0.817069 0
M  V30 1526 O 146.51 1.65044 0.679918 0
M  V30 1527 C 143.61 3.16963 1.19949 0
M  V30 1528 C 142.783 4.33374 0.592064 0
M  V30 1529 C 141.842 5.02577 1.55893 0
M  V30 1530 O 140.868 5.58873 1.07933 0
M  V30 1531 N 142.07 5.03256 2.89334 0
M  V30 1532 H 144.835 2.93713 -0.596068 0
M  V30 1533 H 142.396 1.55129 -0.463303 0
M  V30 1534 H 144.388 3.60123 1.84644 0
M  V30 1535 H 142.958 2.53913 1.82337 0
M  V30 1536 H 142.178 3.93509 -0.233322 0
M  V30 1537 H 143.466 5.08527 0.166738 0
M  V30 1538 H 142.864 4.58836 3.30887 0
M  V30 1539 H 141.421 5.50232 3.49412 0
M  V30 1540 N 144.854 0.36279 1.53368 0
M  V30 1541 C 146.103 -0.22888 2.00397 0
M  V30 1542 C 146.416 -1.50096 1.25421 0
M  V30 1543 O 147.622 -2.17106 1.63025 0
M  V30 1544 C 146.078 -0.458417 3.56969 0
M  V30 1545 C 145.686 0.798877 4.4082 0
M  V30 1546 C 147.43 -1.00789 4.12361 0
M  V30 1547 C 145.337 0.539078 5.88938 0
M  V30 1548 H 144.267 -0.089305 0.748693 0
M  V30 1549 H 146.918 0.481099 1.77081 0
M  V30 1550 H 145.3 -1.22959 3.76427 0
M  V30 1551 H 146.474 1.57262 4.33134 0
M  V30 1552 H 144.789 1.27137 3.96516 0
M  V30 1553 H 147.386 -1.21754 5.20653 0
M  V30 1554 H 147.729 -1.9692 3.66781 0
M  V30 1555 H 148.262 -0.296961 3.9669 0
M  V30 1556 H 145.001 1.47064 6.3879 0
M  V30 1557 H 144.521 -0.196222 5.99479 0
M  V30 1558 H 146.2 0.163542 6.46793 0
M  V30 1559 N 146.332 -1.57332 0.0918853 0
M  V30 1560 C 147.242 -2.17368 -0.882505 0
M  V30 1561 C 148.258 -1.14226 -1.31257 0
M  V30 1562 O 149.434 -1.46582 -1.38115 0
M  V30 1563 C 146.499 -2.73962 -2.12476 0
M  V30 1564 C 145.56 -3.92048 -1.7492 0
M  V30 1565 C 144.793 -4.45933 -2.93223 0
M  V30 1566 O 145.016 -3.98764 -4.07852 0
M  V30 1567 O 143.95 -5.36999 -2.71875 0
M  V30 1568 H 147.776 -3.01031 -0.40172 0
M  V30 1569 H 145.361 -1.48813 -0.132291 0
M  V30 1570 H 147.243 -3.10147 -2.85283 0
M  V30 1571 H 145.918 -1.93347 -2.59613 0
M  V30 1572 H 144.825 -3.6068 -0.993025 0
M  V30 1573 H 146.158 -4.74017 -1.32548 0
M  V30 1574 N 147.81 0.181792 -1.56548 0
M  V30 1575 C 149.038 0.915947 -1.85521 0
M  V30 1576 C 149.453 1.76282 -0.676016 0
M  V30 1577 O 148.81 1.79012 0.355077 0
M  V30 1578 C 148.861 1.80126 -3.13427 0
M  V30 1579 O 148.582 0.988562 -4.26801 0
M  V30 1580 C 150.083 2.64597 -3.55673 0
M  V30 1581 H 147.303 0.26661 -0.61576 0
M  V30 1582 H 149.847 0.185039 -2.03661 0
M  V30 1583 H 148.002 2.48563 -2.97145 0
M  V30 1584 H 148.416 1.59308 -4.99721 0
M  V30 1585 H 149.89 3.2235 -4.48101 0
M  V30 1586 H 150.367 3.38958 -2.79292 0
M  V30 1587 H 150.973 2.0151 -3.74532 0
M  V30 1588 N 149.288 1.51039 0.449983 0
M  V30 1589 C 150.699 1.557 1.03026 0
M  V30 1590 C 151.05 0.372939 1.92623 0
M  V30 1591 O 150.175 -0.511771 2.10261 0
M  V30 1592 C 150.77 2.82171 1.87523 0
M  V30 1593 C 149.329 2.89444 2.40622 0
M  V30 1594 C 148.476 2.50228 1.19504 0
M  V30 1595 H 151.427 1.56999 0.231745 0
M  V30 1596 H 151.448 2.65219 2.72835 0
M  V30 1597 H 150.96 3.68331 1.22286 0
M  V30 1598 H 149.061 2.07685 3.0935 0
M  V30 1599 H 149.174 3.92816 2.74285 0
M  V30 1600 H 147.538 2.03139 1.53644 0
M  V30 1601 H 148.321 3.38719 0.558972 0
M  V30 1602 N 150.766 -0.704594 1.40972 0
M  V30 1603 C 151.713 -1.81862 1.42109 0
M  V30 1604 C 152.683 -1.63781 0.276593 0
M  V30 1605 O 153.868 -1.84759 0.4763 0
M  V30 1606 C 151.008 -3.19669 1.30022 0
M  V30 1607 C 150.121 -3.49246 2.54267 0
M  V30 1608 C 149.256 -4.76618 2.3454 0
M  V30 1609 C 148.295 -4.99133 3.54306 0
M  V30 1610 N 147.432 -6.17726 3.33706 0
M  V30 1611 H 152.272 -1.80226 2.37324 0
M  V30 1612 H 149.809 -0.880238 1.17857 0
M  V30 1613 H 151.767 -3.99263 1.21018 0
M  V30 1614 H 150.397 -3.20506 0.384192 0
M  V30 1615 H 149.449 -2.64125 2.73756 0
M  V30 1616 H 150.761 -3.61788 3.43381 0
M  V30 1617 H 149.915 -5.64249 2.22952 0
M  V30 1618 H 148.654 -4.66305 1.42867 0
M  V30 1619 H 147.659 -4.09953 3.66359 0
M  V30 1620 H 148.884 -5.11311 4.4692 0
M  V30 1621 H 146.83 -6.08642 2.44725 0
M  V30 1622 H 146.747 -6.30995 4.16391 0
M  V30 1623 H 148.015 -7.08115 3.25873 0
M  V30 1624 N 152.244 -1.26651 -0.937939 0
M  V30 1625 C 153.469 -1.15279 -1.72411 0
M  V30 1626 C 153.894 0.287866 -1.85884 0
M  V30 1627 O 153.252 1.20855 -1.35143 0
M  V30 1628 C 153.3 -1.83028 -3.10698 0
M  V30 1629 O 152.404 -1.12128 -3.96864 0
M  V30 1630 H 151.745 -0.401504 -0.528858 0
M  V30 1631 H 154.275 -1.67531 -1.1745 0
M  V30 1632 H 154.285 -1.89981 -3.6107 0
M  V30 1633 H 152.96 -2.87833 -3.00208 0
M  V30 1634 H 151.537 -1.13173 -3.55312 0
M  V30 1635 N 153.722 1.14298 -1.08507 0
M  V30 1636 C 154.971 1.84708 -0.810305 0
M  V30 1637 C 155.284 1.83903 0.666271 0
M  V30 1638 O 156.49 2.50112 1.05624 0
M  V30 1639 C 154.946 3.31572 -1.39957 0
M  V30 1640 C 154.554 3.40791 -2.90801 0
M  V30 1641 C 156.298 4.07087 -1.20334 0
M  V30 1642 C 154.205 4.81872 -3.4286 0
M  V30 1643 H 153.135 0.691985 -0.299454 0
M  V30 1644 H 155.786 1.28841 -1.30661 0
M  V30 1645 H 154.168 3.87183 -0.830976 0
M  V30 1646 H 155.342 2.95225 -3.53806 0
M  V30 1647 H 153.657 2.78732 -3.0935 0
M  V30 1648 H 156.254 5.11225 -1.56693 0
M  V30 1649 H 156.597 4.16054 -0.143237 0
M  V30 1650 H 157.13 3.57779 -1.73893 0
M  V30 1651 H 153.869 4.78094 -4.48449 0
M  V30 1652 H 153.389 5.27972 -2.84615 0
M  V30 1653 H 155.068 5.50765 -3.39509 0
M  V30 1654 N 155.201 0.870884 1.31352 0
M  V30 1655 C 156.449 0.48132 1.96285 0
M  V30 1656 C 156.77 -0.969813 1.69173 0
M  V30 1657 O 156.04 -1.67998 1.00764 0
M  V30 1658 H 154.62 0.175002 0.726212 0
M  V30 1659 H 157.282 1.11087 1.60143 0
M  V30 1660 H 156.378 0.639825 3.05471 0
M  V30 1661 N 156.679 -1.44442 0.630414 0
M  V30 1662 C 157.925 -2.02351 0.134816 0
M  V30 1663 C 158.258 -1.4947 -1.23986 0
M  V30 1664 O 157.533 -0.678475 -1.82283 0
M  V30 1665 C 157.816 -3.59898 0.120707 0
M  V30 1666 C 157.669 -4.23063 1.52767 0
M  V30 1667 C 158.988 -4.36585 -0.555127 0
M  V30 1668 H 156.107 -0.73527 0.0504646 0
M  V30 1669 H 158.749 -1.72022 0.806751 0
M  V30 1670 H 156.899 -3.85868 -0.451477 0
M  V30 1671 H 158.571 -4.08202 2.14869 0
M  V30 1672 H 156.814 -3.80586 2.08175 0
M  V30 1673 H 157.485 -5.32071 1.46984 0
M  V30 1674 H 159.961 -4.16044 -0.0685429 0
M  V30 1675 H 158.837 -5.46294 -0.534185 0
M  V30 1676 H 159.098 -4.11138 -1.62535 0
M  V30 1677 N 158.157 -0.370918 -1.53173 0
M  V30 1678 C 159.12 0.460778 -2.24521 0
M  V30 1679 C 160.12 1.00536 -1.25496 0
M  V30 1680 O 161.31 0.890266 -1.49733 0
M  V30 1681 C 158.442 1.64457 -2.98608 0
M  V30 1682 H 159.635 -0.163613 -2.99453 0
M  V30 1683 H 157.188 -0.122699 -1.55818 0
M  V30 1684 H 157.923 2.30691 -2.2793 0
M  V30 1685 H 157.708 1.26099 -3.7127 0
M  V30 1686 H 159.198 2.23384 -3.5283 0
M  V30 1687 N 159.635 1.57281 -0.100228 0
M  V30 1688 C 160.863 1.98879 0.570509 0
M  V30 1689 C 161.278 0.979476 1.61405 0
M  V30 1690 O 160.635 -0.0302288 1.82475 0
M  V30 1691 C 160.686 3.4052 1.2136 0
M  V30 1692 O 160.407 4.37588 0.211786 0
M  V30 1693 C 161.908 3.97149 1.96945 0
M  V30 1694 H 159.128 0.653428 0.152555 0
M  V30 1695 H 161.672 2.03697 -0.18103 0
M  V30 1696 H 159.827 3.367 1.91603 0
M  V30 1697 H 160.241 5.20118 0.676607 0
M  V30 1698 H 161.715 4.98393 2.37294 0
M  V30 1699 H 162.192 3.3525 2.83733 0
M  V30 1700 H 162.798 4.04458 1.31506 0
M  V30 1701 N 161.113 -0.173488 1.56642 0
M  V30 1702 C 162.076 -1.19859 1.95362 0
M  V30 1703 C 163.076 -1.37296 0.83704 0
M  V30 1704 O 164.266 -1.34739 1.10413 0
M  V30 1705 C 161.398 -2.56405 2.24654 0
M  V30 1706 H 162.591 -0.867062 2.87092 0
M  V30 1707 H 160.144 -0.415853 1.50666 0
M  V30 1708 H 160.879 -2.94576 1.35631 0
M  V30 1709 H 160.664 -2.45115 3.06041 0
M  V30 1710 H 162.154 -3.30287 2.5554 0
M  V30 1711 N 162.591 -1.51276 -0.441967 0
M  V30 1712 C 163.84 -1.6295 -1.18871 0
M  V30 1713 C 164.153 -0.349312 -1.92456 0
M  V30 1714 O 165.359 -0.345355 -2.69295 0
M  V30 1715 C 163.815 -2.87759 -2.16155 0
M  V30 1716 C 163.423 -4.22764 -1.48239 0
M  V30 1717 C 165.167 -3.08788 -2.91291 0
M  V30 1718 C 163.074 -5.38728 -2.4398 0
M  V30 1719 H 162.004 -0.606913 -0.447406 0
M  V30 1720 H 164.655 -1.77739 -0.456205 0
M  V30 1721 H 163.037 -2.66593 -2.92821 0
M  V30 1722 H 164.211 -4.54293 -0.771635 0
M  V30 1723 H 162.526 -4.07575 -0.852741 0
M  V30 1724 H 165.123 -3.92599 -3.63002 0
M  V30 1725 H 165.466 -2.21679 -3.5237 0
M  V30 1726 H 165.999 -3.30272 -2.21733 0
M  V30 1727 H 162.738 -6.28082 -1.87598 0
M  V30 1728 H 162.258 -5.1158 -3.13123 0
M  V30 1729 H 163.937 -5.70489 -3.05207 0
M  V30 1730 N 164.069 0.697108 -1.41344 0
M  V30 1731 C 165.002 1.82134 -1.37486 0
M  V30 1732 C 165.98 1.60784 -0.242351 0
M  V30 1733 O 167.164 1.83553 -0.429012 0
M  V30 1734 C 164.291 3.18788 -1.14421 0
M  V30 1735 C 163.337 3.58932 -2.3037 0
M  V30 1736 S 164.17 3.63916 -3.92843 0
M  V30 1737 C 165.326 5.03298 -3.72078 0
M  V30 1738 H 165.559 1.85129 -2.32625 0
M  V30 1739 H 163.092 0.865671 -1.2785 0
M  V30 1740 H 165.05 3.97677 -1.018 0
M  V30 1741 H 163.711 3.13404 -0.20905 0
M  V30 1742 H 162.904 4.58202 -2.09922 0
M  V30 1743 H 162.506 2.87347 -2.39391 0
M  V30 1744 H 164.798 5.90753 -3.31688 0
M  V30 1745 H 165.741 5.28788 -4.70945 0
M  V30 1746 H 166.149 4.74764 -3.05384 0
M  V30 1747 N 165.547 1.27147 0.931209 0
M  V30 1748 C 166.51 1.09615 2.01289 0
M  V30 1749 C 167.51 0.0412581 1.60747 0
M  V30 1750 O 168.7 0.285545 1.71844 0
M  V30 1751 C 165.832 0.669447 3.34262 0
M  V30 1752 H 167.025 2.05662 2.18273 0
M  V30 1753 H 164.578 1.09885 1.11153 0
M  V30 1754 H 165.313 -0.292572 3.22978 0
M  V30 1755 H 165.098 1.43127 3.65044 0
M  V30 1756 H 166.588 0.568921 4.13706 0
M  V30 1757 N 167.025 -1.13721 1.09112 0
M  V30 1758 C 167.957 -2.1871 0.685467 0
M  V30 1759 C 168.97 -1.60527 -0.271068 0
M  V30 1760 O 170.159 -1.78407 -0.0576148 0
M  V30 1761 C 167.259 -3.38898 -0.0111255 0
M  V30 1762 C 166.432 -4.26597 0.966131 0
M  V30 1763 C 165.491 -5.25324 0.303539 0
M  V30 1764 O 164.517 -5.61213 0.950177 0
M  V30 1765 N 165.719 -5.72779 -0.943651 0
M  V30 1766 H 168.484 -2.54126 1.58871 0
M  V30 1767 H 166.045 -1.29012 0.978143 0
M  V30 1768 H 168.037 -4.02014 -0.465517 0
M  V30 1769 H 166.607 -3.01747 -0.816565 0
M  V30 1770 H 165.827 -3.60306 1.59917 0
M  V30 1771 H 167.115 -4.82048 1.6281 0
M  V30 1772 H 166.513 -5.45762 -1.48862 0
M  V30 1773 H 165.07 -6.37847 -1.34142 0
M  V30 1774 N 168.503 -0.877838 -1.30888 0
M  V30 1775 C 169.752 -0.488793 -1.95688 0
M  V30 1776 C 170.065 0.965485 -1.70111 0
M  V30 1777 O 171.271 1.46104 -2.28836 0
M  V30 1778 C 169.727 -0.823201 -3.50359 0
M  V30 1779 C 169.335 -2.29477 -3.84765 0
M  V30 1780 C 171.079 -0.503009 -4.21509 0
M  V30 1781 C 168.986 -2.57118 -5.32583 0
M  V30 1782 H 167.916 -0.179062 -0.732429 0
M  V30 1783 H 170.567 -1.07183 -1.48943 0
M  V30 1784 H 168.949 -0.169331 -3.95638 0
M  V30 1785 H 170.123 -2.99236 -3.5042 0
M  V30 1786 H 168.438 -2.58178 -3.267 0
M  V30 1787 H 171.035 -0.68665 -5.30273 0
M  V30 1788 H 171.378 0.557109 -4.12555 0
M  V30 1789 H 171.911 -1.11376 -3.8189 0
M  V30 1790 H 168.65 -3.61843 -5.4658 0
M  V30 1791 H 168.17 -1.91961 -5.68253 0
M  V30 1792 H 169.849 -2.42251 -5.99936 0
M  V30 1793 N 169.982 1.44106 -0.638065 0
M  V30 1794 C 171.21 2.06336 -0.152615 0
M  V30 1795 C 171.625 1.47731 1.17563 0
M  V30 1796 O 170.982 0.602806 1.72257 0
M  V30 1797 C 171.033 3.61479 -0.0391491 0
M  V30 1798 O 170.754 4.17903 -1.31487 0
M  V30 1799 C 172.255 4.40757 0.474176 0
M  V30 1800 H 169.475 0.665862 -0.0828776 0
M  V30 1801 H 172.019 1.84862 -0.87443 0
M  V30 1802 H 170.174 3.82191 0.633142 0
M  V30 1803 H 170.588 5.11416 -1.16421 0
M  V30 1804 H 172.062 5.49707 0.502562 0
M  V30 1805 H 172.539 4.12697 1.50258 0
M  V30 1806 H 173.145 4.24979 -0.165102 0
M  V30 1807 N 171.46 0.379036 1.52974 0
M  V30 1808 C 172.423 -0.448865 2.24762 0
M  V30 1809 C 173.423 -0.998689 1.26027 0
M  V30 1810 O 174.613 -0.882313 1.50203 0
M  V30 1811 C 171.745 -1.62872 2.99476 0
M  V30 1812 H 172.938 0.179491 2.99362 0
M  V30 1813 H 170.491 0.13096 1.5575 0
M  V30 1814 H 171.226 -2.29479 2.29151 0
M  V30 1815 H 171.011 -1.24128 3.71934 0
M  V30 1816 H 172.501 -2.2151 3.5401 0
M  V30 1817 N 172.938 -1.57226 0.108567 0
M  V30 1818 C 173.87 -2.11809 -0.875752 0
M  V30 1819 C 174.883 -1.05839 -1.23701 0
M  V30 1820 O 176.072 -1.33245 -1.18778 0
M  V30 1821 C 173.172 -2.59411 -2.18081 0
M  V30 1822 C 172.345 -3.89364 -1.99284 0
M  V30 1823 C 171.404 -4.22672 -3.13424 0
M  V30 1824 O 170.43 -4.91668 -2.86795 0
M  V30 1825 N 171.632 -3.79154 -4.3957 0
M  V30 1826 H 174.397 -2.9689 -0.409477 0
M  V30 1827 H 171.958 -1.61721 -0.076158 0
M  V30 1828 H 173.95 -2.7873 -2.93414 0
M  V30 1829 H 172.52 -1.79268 -2.5609 0
M  V30 1830 H 171.74 -3.79059 -1.08203 0
M  V30 1831 H 173.028 -4.74358 -1.84017 0
M  V30 1832 H 172.426 -3.23486 -4.64083 0
M  V30 1833 H 170.983 -4.03602 -5.11809 0
M  V30 1834 N 174.416 0.165178 -1.56732 0
M  V30 1835 C 175.662 0.882112 -1.82611 0
M  V30 1836 C 175.995 1.81628 -0.687378 0
M  V30 1837 O 175.27 1.92009 0.310267 0
M  V30 1838 C 175.553 1.67245 -3.18906 0
M  V30 1839 C 175.406 0.760987 -4.43316 0
M  V30 1840 C 176.725 2.63884 -3.52212 0
M  V30 1841 H 173.844 0.319242 -0.664269 0
M  V30 1842 H 176.486 0.148052 -1.89422 0
M  V30 1843 H 174.636 2.29824 -3.1323 0
M  V30 1844 H 176.308 0.147596 -4.61064 0
M  V30 1845 H 174.551 0.0694102 -4.33744 0
M  V30 1846 H 175.222 1.34962 -5.35247 0
M  V30 1847 H 177.698 2.11429 -3.58381 0
M  V30 1848 H 176.574 3.16245 -4.48643 0
M  V30 1849 H 176.835 3.44377 -2.77231 0
M  V30 1850 N 175.894 1.51508 0.433938 0
M  V30 1851 C 176.857 1.72473 1.50949 0
M  V30 1852 C 177.857 0.594725 1.49398 0
M  V30 1853 O 179.047 0.862315 1.5136 0
M  V30 1854 C 176.179 1.78431 2.90474 0
M  V30 1855 H 177.372 2.68467 1.33662 0
M  V30 1856 H 174.925 1.41549 0.662836 0
M  V30 1857 H 175.66 0.842645 3.13161 0
M  V30 1858 H 175.445 2.60558 2.93005 0
M  V30 1859 H 176.935 1.96479 3.68491 0
M  V30 1860 N 177.372 -0.689602 1.41712 0
M  V30 1861 C 178.597 -1.48329 1.44959 0
M  V30 1862 C 179.022 -1.8801 0.0581283 0
M  V30 1863 O 178.38 -1.55026 -0.940035 0
M  V30 1864 C 178.428 -2.71835 2.36935 0
M  V30 1865 O 177.532 -3.69549 1.8305 0
M  V30 1866 H 176.873 -0.446199 0.491734 0
M  V30 1867 H 179.403 -0.847127 1.86239 0
M  V30 1868 H 179.413 -3.20076 2.53013 0
M  V30 1869 H 178.088 -2.42291 3.38035 0
M  V30 1870 H 176.665 -3.2851 1.76452 0
M  V30 1871 N 178.85 -1.27639 -0.924453 0
M  V30 1872 C 179.8 -1.07295 -2.01176 0
M  V30 1873 C 180.784 5.77352e-05 -1.609 0
M  V30 1874 O 181.976 -0.218855 -1.75642 0
M  V30 1875 C 179.105 -0.725592 -3.35544 0
M  V30 1876 C 178.191 -1.83691 -3.82254 0
M  V30 1877 N 178.582 -3.07697 -4.01443 0
M  V30 1878 C 176.88 -1.72433 -4.11319 0
M  V30 1879 C 177.581 -3.80037 -4.40394 0
M  V30 1880 N 176.557 -3.0782 -4.48049 0
M  V30 1881 H 180.359 -2.01399 -2.14046 0
M  V30 1882 H 177.873 -1.18401 -1.11153 0
M  V30 1883 H 179.87 -0.560959 -4.13109 0
M  V30 1884 H 178.53 0.207782 -3.24034 0
M  V30 1885 H 179.541 -3.43424 -3.8766 0
M  V30 1886 H 176.218 -0.862005 -4.08504 0
M  V30 1887 H 177.608 -4.86632 -4.63291 0
M  V30 1888 N 180.328 1.1314 -1.09713 0
M  V30 1889 C 181.26 2.18343 -0.697056 0
M  V30 1890 C 182.273 1.60669 0.262551 0
M  V30 1891 O 183.462 1.78435 0.0481527 0
M  V30 1892 C 180.562 3.38899 -0.00684728 0
M  V30 1893 C 179.735 4.26078 -0.988741 0
M  V30 1894 C 178.794 5.25155 -0.331394 0
M  V30 1895 O 177.82 5.60701 -0.979926 0
M  V30 1896 N 179.022 5.73271 0.913261 0
M  V30 1897 H 181.787 2.5328 -1.60216 0
M  V30 1898 H 179.348 1.28491 -0.984971 0
M  V30 1899 H 181.34 4.02255 0.444191 0
M  V30 1900 H 179.91 3.02175 0.800551 0
M  V30 1901 H 179.13 3.59453 -1.61826 0
M  V30 1902 H 180.418 4.81178 -1.65364 0
M  V30 1903 H 179.816 5.46544 1.45966 0
M  V30 1904 H 178.373 6.3855 1.30757 0
M  V30 1905 N 181.806 0.884767 1.30421 0
M  V30 1906 C 183.036 0.517293 2.00019 0
M  V30 1907 C 183.444 -0.898632 1.66497 0
M  V30 1908 O 182.787 -1.60245 0.898181 0
M  V30 1909 C 182.849 0.612025 3.54252 0
M  V30 1910 C 182.513 1.99222 4.1129 0
M  V30 1911 C 183.51 2.9616 4.273 0
M  V30 1912 C 181.195 2.29755 4.46674 0
M  V30 1913 C 183.189 4.21764 4.77906 0
M  V30 1914 C 180.876 3.55606 4.96979 0
M  V30 1915 C 181.874 4.51425 5.12547 0
M  V30 1916 O 181.562 5.75043 5.61766 0
M  V30 1917 H 181.294 0.198529 0.64619 0
M  V30 1918 H 183.848 1.1919 1.67281 0
M  V30 1919 H 182.078 -0.119561 3.86515 0
M  V30 1920 H 183.767 0.255859 4.05093 0
M  V30 1921 H 184.533 2.73882 4.00267 0
M  V30 1922 H 180.412 1.55942 4.33824 0
M  V30 1923 H 183.956 4.96561 4.89972 0
M  V30 1924 H 179.853 3.7772 5.23448 0
M  V30 1925 H 180.621 5.77422 5.80109 0
M  V30 1926 N 183.284 -1.43765 0.645699 0
M  V30 1927 C 184.532 -2.01499 0.155731 0
M  V30 1928 C 184.853 -1.51151 -1.232 0
M  V30 1929 O 184.123 -0.721044 -1.82148 0
M  V30 1930 H 182.703 -0.745003 0.0545817 0
M  V30 1931 H 185.365 -1.76075 0.835677 0
M  V30 1932 H 184.461 -3.1181 0.134577 0
M  V30 1933 N 184.763 -0.387143 -1.52771 0
M  V30 1934 C 186.011 0.195349 -2.01154 0
M  V30 1935 C 186.332 1.475 -1.27549 0
M  V30 1936 O 185.602 1.91878 -0.394924 0
M  V30 1937 H 184.182 0.075178 -0.743207 0
M  V30 1938 H 186.844 -0.518337 -1.87881 0
M  V30 1939 H 185.94 0.407096 -3.09434 0
M  V30 1940 N 186.241 1.57166 -0.116904 0
M  V30 1941 C 187.469 1.99473 0.549383 0
M  V30 1942 C 187.884 0.996541 1.60357 0
M  V30 1943 O 187.241 -0.0108731 1.82497 0
M  V30 1944 C 187.292 3.41788 1.17741 0
M  V30 1945 O 187.013 4.37788 0.165362 0
M  V30 1946 C 188.514 3.99216 1.92722 0
M  V30 1947 H 185.734 0.655009 0.145616 0
M  V30 1948 H 188.278 2.03494 -0.202625 0
M  V30 1949 H 186.433 3.38713 1.88021 0
M  V30 1950 H 186.847 5.20806 0.621403 0
M  V30 1951 H 188.321 5.00882 2.31995 0
M  V30 1952 H 188.798 3.3824 2.80161 0
M  V30 1953 H 189.404 4.0583 1.27209 0
M  V30 1954 N 187.719 -0.156864 1.56817 0
M  V30 1955 C 188.947 -0.886316 1.86955 0
M  V30 1956 C 189.362 -1.75185 0.703975 0
M  V30 1957 O 188.719 -1.79555 -0.326552 0
M  V30 1958 C 188.77 -1.75117 3.16253 0
M  V30 1959 O 188.491 -0.920537 4.2832 0
M  V30 1960 C 189.992 -2.58905 3.59837 0
M  V30 1961 H 187.212 -0.25678 0.619923 0
M  V30 1962 H 189.756 -0.152615 2.0393 0
M  V30 1963 H 187.911 -2.43805 3.01062 0
M  V30 1964 H 188.325 -1.51337 5.02192 0
M  V30 1965 H 189.799 -3.1518 4.53172 0
M  V30 1966 H 190.276 -3.34472 2.84649 0
M  V30 1967 H 190.882 -1.95526 3.7769 0
M  V30 1968 N 189.197 -1.51736 -0.425897 0
M  V30 1969 C 190.444 -1.6497 -1.17436 0
M  V30 1970 C 190.772 -0.371445 -1.9092 0
M  V30 1971 O 190.027 0.644963 -1.84767 0
M  V30 1972 C 190.326 -2.81103 -2.20717 0
M  V30 1973 C 189.992 -4.19954 -1.64162 0
M  V30 1974 C 188.654 -4.57725 -1.48462 0
M  V30 1975 C 191.006 -5.06552 -1.22696 0
M  V30 1976 C 188.334 -5.79789 -0.897873 0
M  V30 1977 C 190.686 -6.29205 -0.654464 0
M  V30 1978 C 189.35 -6.6574 -0.484456 0
M  V30 1979 H 188.62 -0.603668 -0.429727 0
M  V30 1980 H 191.267 -1.85798 -0.463829 0
M  V30 1981 H 189.572 -2.54542 -2.97852 0
M  V30 1982 H 191.269 -2.8854 -2.78471 0
M  V30 1983 H 187.859 -3.90181 -1.77361 0
M  V30 1984 H 192.043 -4.77968 -1.33642 0
M  V30 1985 H 187.299 -6.06733 -0.75402 0
M  V30 1986 H 191.473 -6.95643 -0.324694 0
M  V30 1987 H 189.1 -7.60195 -0.0276833 0
M  V30 1988 N 190.675 0.682077 -1.42076 0
M  V30 1989 C 191.638 1.77756 -1.44691 0
M  V30 1990 C 192.638 1.5726 -0.335535 0
M  V30 1991 O 193.828 1.63686 -0.596037 0
M  V30 1992 C 190.96 3.16301 -1.27146 0
M  V30 1993 H 192.153 1.76826 -2.42224 0
M  V30 1994 H 189.706 0.891012 -1.28416 0
M  V30 1995 H 190.441 3.22862 -0.305075 0
M  V30 1996 H 190.226 3.32581 -2.07683 0
M  V30 1997 H 191.716 3.96241 -1.31843 0
M  V30 1998 N 192.153 1.28127 0.917671 0
M  V30 1999 C 193.101 1.11569 2.04096 0
M  V30 2000 C 194.095 0.0360242 1.69362 0
M  V30 2001 O 195.301 0.194501 1.78946 0
M  V30 2002 H 191.676 0.344097 0.668656 0
M  V30 2003 H 193.647 2.06711 2.15205 0
M  V30 2004 C 192.396 0.790197 3.38602 0
M  V30 2005 H 191.719 1.61293 3.6582 0
M  V30 2006 H 193.159 0.714271 4.1794 0
M  V30 2007 C 191.618 -0.505897 3.3308 0
M  V30 2008 O 192.148 -1.53736 3.71117 0
M  V30 2009 N 190.354 -0.505193 2.86175 0
M  V30 2010 H 189.901 0.334621 2.55417 0
M  V30 2011 H 189.859 -1.37243 2.82863 0
M  V30 2012 N 193.631 -1.12557 1.10312 0
M  V30 2013 C 194.877 -1.84311 0.846011 0
M  V30 2014 C 195.21 -1.83805 -0.626859 0
M  V30 2015 O 194.485 -1.28268 -1.46211 0
M  V30 2016 C 194.768 -3.32048 1.39341 0
M  V30 2017 C 194.621 -3.41016 2.93305 0
M  V30 2018 C 195.94 -4.27764 1.03468 0
M  V30 2019 H 193.059 -0.669192 0.30879 0
M  V30 2020 H 195.701 -1.32057 1.36605 0
M  V30 2021 H 193.851 -3.76678 0.951087 0
M  V30 2022 H 195.523 -3.05031 3.46055 0
M  V30 2023 H 193.766 -2.81603 3.29973 0
M  V30 2024 H 194.437 -4.44948 3.26689 0
M  V30 2025 H 196.913 -3.91253 1.41633 0
M  V30 2026 H 195.789 -5.29549 1.44463 0
M  V30 2027 H 196.05 -4.42064 -0.0560404 0
M  V30 2028 N 195.109 -0.891671 -1.2995 0
M  V30 2029 C 196.386 -0.433307 -1.9074 0
M  V30 2030 C 196.766 1.08646 -1.80995 0
M  V30 2031 O 196.114 1.92476 -1.23147 0
M  V30 2032 C 196.324 -0.938895 -3.36134 0
M  V30 2033 C 197.672 -0.977829 -4.13187 0
M  V30 2034 O 198.696 -0.886015 -3.45005 0
M  V30 2035 O 197.555 -1.11453 -5.35015 0
M  V30 2036 H 194.649 -0.133699 -0.816121 0
M  V30 2037 H 197.195 -0.981011 -1.38471 0
M  V30 2038 H 195.967 -1.98281 -3.37343 0
M  V30 2039 H 195.59 -0.37074 -3.95868 0
M  V30 2040 N 196.587 1.43421 -0.653314 0
M  V30 2041 C 197.534 2.30768 0.0382271 0
M  V30 2042 C 198.504 1.44755 0.814576 0
M  V30 2043 O 199.689 1.73624 0.791162 0
M  V30 2044 C 196.829 3.30336 0.998599 0
M  V30 2045 C 195.942 4.31448 0.218342 0
M  V30 2046 C 195.077 5.18098 1.17252 0
M  V30 2047 C 194.116 6.10902 0.382702 0
M  V30 2048 N 193.253 6.90176 1.28848 0
M  V30 2049 H 198.093 2.89357 -0.712511 0
M  V30 2050 H 195.63 1.42548 -0.363128 0
M  V30 2051 H 197.588 3.86572 1.56901 0
M  V30 2052 H 196.218 2.73397 1.71621 0
M  V30 2053 H 195.27 3.77506 -0.46836 0
M  V30 2054 H 196.582 4.97227 -0.395812 0
M  V30 2055 H 195.736 5.7896 1.81356 0
M  V30 2056 H 194.475 4.52444 1.82058 0
M  V30 2057 H 193.48 5.49128 -0.27169 0
M  V30 2058 H 194.705 6.78598 -0.260957 0
M  V30 2059 H 192.651 6.27171 1.92334 0
M  V30 2060 H 192.568 7.52478 0.728887 0
M  V30 2061 H 193.836 7.55543 1.91766 0
M  V30 2062 N 198.065 0.39524 1.52563 0
M  V30 2063 C 199.311 -0.185318 2.01952 0
M  V30 2064 C 199.644 -1.45964 1.28095 0
M  V30 2065 O 198.919 -1.90689 0.38315 0
M  V30 2066 C 199.202 -0.447193 3.57312 0
M  V30 2067 C 199.055 0.842828 4.41833 0
M  V30 2068 C 200.374 -1.23529 4.22408 0
M  V30 2069 H 197.493 -0.0658788 0.73405 0
M  V30 2070 H 200.135 0.525975 1.82575 0
M  V30 2071 H 198.285 -1.05312 3.73954 0
M  V30 2072 H 199.957 1.4795 4.36931 0
M  V30 2073 H 198.2 1.45686 4.08605 0
M  V30 2074 H 198.871 0.614165 5.48573 0
M  V30 2075 H 201.347 -0.722445 4.0978 0
M  V30 2076 H 200.223 -1.38727 5.3108 0
M  V30 2077 H 200.484 -2.25213 3.80436 0
M  V30 2078 N 199.544 -1.57102 0.125237 0
M  V30 2079 C 200.474 -2.18659 -0.819174 0
M  V30 2080 C 201.455 -1.12843 -1.27281 0
M  V30 2081 O 202.64 -1.41104 -1.33429 0
M  V30 2082 C 199.77 -2.79096 -2.06695 0
M  V30 2083 C 198.724 -3.90548 -1.75088 0
M  V30 2084 C 198.05 -4.37821 -3.06948 0
M  V30 2085 C 199.35 -5.12356 -1.01435 0
M  V30 2086 H 201.044 -2.9783 -0.306202 0
M  V30 2087 H 198.59 -1.4326 -0.145839 0
M  V30 2088 H 200.543 -3.2082 -2.73226 0
M  V30 2089 H 199.267 -1.97223 -2.60328 0
M  V30 2090 H 197.926 -3.49409 -1.10944 0
M  V30 2091 H 197.574 -3.52799 -3.58527 0
M  V30 2092 H 197.274 -5.12982 -2.86571 0
M  V30 2093 H 198.798 -4.822 -3.74587 0
M  V30 2094 H 200.212 -5.5106 -1.58132 0
M  V30 2095 H 198.609 -5.9314 -0.911319 0
M  V30 2096 H 199.679 -4.849 -0.00218681 0
M  V30 2097 N 201.022 0.148545 -1.56898 0
M  V30 2098 C 202.247 0.880385 -1.87787 0
M  V30 2099 C 202.672 1.74018 -0.714093 0
M  V30 2100 O 202.03 1.78153 0.336343 0
M  V30 2101 C 202.078 1.71422 -3.17249 0
M  V30 2102 O 201.182 2.8183 -3.01074 0
M  V30 2103 H 200.523 0.245301 -0.617028 0
M  V30 2104 H 203.053 0.139826 -2.04122 0
M  V30 2105 H 203.063 2.10954 -3.49231 0
M  V30 2106 H 201.738 1.08284 -4.01556 0
M  V30 2107 H 200.315 2.45715 -2.80497 0
M  V30 2108 N 202.5 1.5196 0.417844 0
M  V30 2109 C 203.911 1.57851 0.997 0
M  V30 2110 C 204.262 0.413714 1.91789 0
M  V30 2111 O 203.387 -0.467057 2.113 0
M  V30 2112 C 203.982 2.86085 1.81496 0
M  V30 2113 C 202.541 2.94483 2.34428 0
M  V30 2114 C 201.688 2.52707 1.14169 0
M  V30 2115 H 204.639 1.57455 0.198392 0
M  V30 2116 H 204.66 2.70947 2.67148 0
M  V30 2117 H 204.172 3.70842 1.14446 0
M  V30 2118 H 202.273 2.142 3.04875 0
M  V30 2119 H 202.386 3.98546 2.65891 0
M  V30 2120 H 200.75 2.06353 1.49301 0
M  V30 2121 H 201.533 3.39828 0.486999 0
M  V30 2122 N 203.978 -0.674533 1.42435 0
M  V30 2123 C 205.208 -1.46071 1.46105 0
M  V30 2124 C 205.616 -1.89067 0.0709605 0
M  V30 2125 O 204.959 -1.58731 -0.924677 0
M  V30 2126 C 205.021 -2.74145 2.32561 0
M  V30 2127 C 204.685 -2.53224 3.8043 0
M  V30 2128 C 205.682 -2.17809 4.72075 0
M  V30 2129 C 203.367 -2.6821 4.24698 0
M  V30 2130 C 205.361 -1.97648 6.05982 0
M  V30 2131 C 203.048 -2.47665 5.58664 0
M  V30 2132 C 204.046 -2.12437 6.49122 0
M  V30 2133 O 203.734 -1.9209 7.80613 0
M  V30 2134 H 203.466 -0.455959 0.499076 0
M  V30 2135 H 206.02 -0.836193 1.87609 0
M  V30 2136 H 204.25 -3.3908 1.85908 0
M  V30 2137 H 205.939 -3.36028 2.27683 0
M  V30 2138 H 206.705 -2.05826 4.39159 0
M  V30 2139 H 202.584 -2.94609 3.54579 0
M  V30 2140 H 206.128 -1.70075 6.7655 0
M  V30 2141 H 202.025 -2.59244 5.91154 0
M  V30 2142 H 202.793 -2.06686 7.91974 0
M  V30 2143 N 205.456 -1.28612 -0.910864 0
M  V30 2144 C 206.702 -1.16106 -1.66274 0
M  V30 2145 C 207.035 0.289113 -1.92036 0
M  V30 2146 O 206.31 1.21 -1.52281 0
M  V30 2147 C 206.593 -1.96309 -3.01885 0
M  V30 2148 C 206.446 -3.49405 -2.8326 0
M  V30 2149 C 207.765 -1.78076 -4.02463 0
M  V30 2150 H 204.884 -0.423152 -0.603417 0
M  V30 2151 H 207.526 -1.57961 -1.05586 0
M  V30 2152 H 205.676 -1.60742 -3.53687 0
M  V30 2153 H 207.348 -3.94894 -2.38446 0
M  V30 2154 H 205.591 -3.74893 -2.18261 0
M  V30 2155 H 206.262 -4.00784 -3.79574 0
M  V30 2156 H 208.738 -2.0912 -3.59733 0
M  V30 2157 H 207.614 -2.36561 -4.95308 0
M  V30 2158 H 207.875 -0.733008 -4.35981 0
M  V30 2159 N 206.934 1.1197 -1.10907 0
M  V30 2160 C 207.881 2.17846 -0.762345 0
M  V30 2161 C 208.851 1.63995 0.263599 0
M  V30 2162 O 210.036 1.90273 0.141773 0
M  V30 2163 C 207.176 3.44487 -0.205651 0
M  V30 2164 C 206.289 4.12369 -1.28748 0
M  V30 2165 C 205.424 5.26674 -0.691919 0
M  V30 2166 C 204.463 5.86431 -1.75399 0
M  V30 2167 N 203.6 6.92142 -1.17833 0
M  V30 2168 H 208.44 2.46851 -1.6694 0
M  V30 2169 H 205.977 1.21188 -0.833776 0
M  V30 2170 H 207.935 4.16981 0.135037 0
M  V30 2171 H 206.565 3.15884 0.664613 0
M  V30 2172 H 205.617 3.38003 -1.74522 0
M  V30 2173 H 206.929 4.52844 -2.09125 0
M  V30 2174 H 206.083 6.05953 -0.300963 0
M  V30 2175 H 204.822 4.8749 0.143232 0
M  V30 2176 H 203.827 5.05835 -2.15432 0
M  V30 2177 H 205.052 6.27685 -2.59208 0
M  V30 2178 H 202.998 6.54985 -0.364725 0
M  V30 2179 H 202.915 7.31242 -1.91887 0
M  V30 2180 H 204.183 7.75237 -0.81408 0
M  V30 2181 N 208.412 0.89855 1.29475 0
M  V30 2182 C 209.828 0.594483 1.48115 0
M  V30 2183 C 210.028 -0.86431 1.82022 0
M  V30 2184 O 209.084 -1.64457 1.91599 0
M  V30 2185 C 210.397 1.51932 2.59494 0
M  V30 2186 C 211.945 1.5244 2.7337 0
M  V30 2187 C 212.42 2.43548 3.87877 0
M  V30 2188 N 213.911 2.41589 3.95208 0
M  V30 2189 C 214.646 3.08789 4.83153 0
M  V30 2190 N 214.142 3.85265 5.75798 0
M  V30 2191 N 215.935 2.97952 4.76635 0
M  V30 2192 H 208.086 1.84207 1.05742 0
M  V30 2193 H 210.349 0.789251 0.525154 0
M  V30 2194 H 210.055 2.55865 2.41301 0
M  V30 2195 H 209.929 1.23899 3.56271 0
M  V30 2196 H 212.316 0.492518 2.90961 0
M  V30 2197 H 212.397 1.8451 1.77172 0
M  V30 2198 H 212.041 3.46829 3.71041 0
M  V30 2199 H 211.971 2.08788 4.83441 0
M  V30 2200 H 214.462 1.86025 3.28943 0
M  V30 2201 H 214.775 4.33598 6.39697 0
M  V30 2202 H 213.12 3.89371 5.75687 0
M  V30 2203 H 216.311 2.37723 4.03244 0
M  V30 2204 H 216.484 3.50599 5.44962 0
M  V30 2205 N 209.89 -1.43072 0.660911 0
M  V30 2206 C 211.118 -2.06067 0.185422 0
M  V30 2207 C 211.533 -1.49582 -1.15198 0
M  V30 2208 O 210.89 -0.630134 -1.71276 0
M  V30 2209 C 210.941 -3.61371 0.0966523 0
M  V30 2210 O 210.662 -4.15758 1.38119 0
M  V30 2211 C 212.163 -4.41455 -0.403996 0
M  V30 2212 H 209.383 -0.664459 0.0934604 0
M  V30 2213 H 211.927 -1.83447 0.90373 0
M  V30 2214 H 210.082 -3.8315 -0.572259 0
M  V30 2215 H 210.496 -5.09499 1.24542 0
M  V30 2216 H 211.97 -5.50437 -0.415045 0
M  V30 2217 H 212.447 -4.15036 -1.43674 0
M  V30 2218 H 213.053 -4.24663 0.232691 0
M  V30 2219 N 211.368 -0.403325 -1.52352 0
M  V30 2220 C 212.598 0.17376 -2.05868 0
M  V30 2221 C 213.006 1.39898 -1.27378 0
M  V30 2222 O 212.349 1.80939 -0.31729 0
M  V30 2223 C 212.411 0.594756 -3.54546 0
M  V30 2224 C 212.075 -0.518926 -4.54044 0
M  V30 2225 C 213.072 -1.3807 -5.01231 0
M  V30 2226 C 210.757 -0.689961 -4.97539 0
M  V30 2227 C 212.751 -2.39852 -5.90551 0
M  V30 2228 C 210.438 -1.71109 -5.86656 0
M  V30 2229 C 211.436 -2.56378 -6.33056 0
M  V30 2230 O 211.124 -3.56743 -7.20409 0
M  V30 2231 H 210.856 0.0264951 -0.675481 0
M  V30 2232 H 213.41 -0.571179 -1.97299 0
M  V30 2233 H 211.64 1.39189 -3.60782 0
M  V30 2234 H 213.329 1.0991 -3.90736 0
M  V30 2235 H 214.095 -1.25994 -4.68349 0
M  V30 2236 H 209.974 -0.035939 -4.60986 0
M  V30 2237 H 213.518 -3.06441 -6.26689 0
M  V30 2238 H 209.415 -1.83218 -6.18952 0
M  V30 2239 H 210.183 -3.52918 -7.38506 0
M  V30 2240 N 212.846 1.57033 -0.133567 0
M  V30 2241 C 213.809 2.14897 0.796995 0
M  V30 2242 C 214.809 1.0874 1.18458 0
M  V30 2243 O 215.999 1.34446 1.1077 0
M  V30 2244 C 213.131 2.70112 2.07973 0
M  V30 2245 H 214.324 2.98457 0.293873 0
M  V30 2246 H 211.877 1.55871 0.115787 0
M  V30 2247 H 212.612 1.9018 2.62682 0
M  V30 2248 H 212.397 3.47764 1.81115 0
M  V30 2249 H 213.887 3.14738 2.74462 0
M  V30 2250 N 214.325 -0.140222 1.56975 0
M  V30 2251 C 215.272 -1.17292 1.98774 0
M  V30 2252 C 216.242 -1.4232 0.856408 0
M  V30 2253 O 217.427 -1.54541 1.119 0
M  V30 2254 C 214.567 -2.49973 2.37923 0
M  V30 2255 C 213.68 -2.32062 3.64378 0
M  V30 2256 C 212.815 -3.57825 3.926 0
M  V30 2257 C 211.854 -3.3498 5.12303 0
M  V30 2258 N 210.991 -4.52891 5.36502 0
M  V30 2259 H 215.831 -0.809472 2.86795 0
M  V30 2260 H 213.368 -0.388237 1.41884 0
M  V30 2261 H 215.326 -3.27346 2.58652 0
M  V30 2262 H 213.956 -2.84252 1.52972 0
M  V30 2263 H 213.008 -1.45711 3.51387 0
M  V30 2264 H 214.32 -2.11145 4.51906 0
M  V30 2265 H 213.474 -4.43624 4.13863 0
M  V30 2266 H 212.213 -3.81753 3.03506 0
M  V30 2267 H 211.218 -2.4757 4.90906 0
M  V30 2268 H 212.443 -3.12444 6.02956 0
M  V30 2269 H 210.389 -4.76979 4.50363 0
M  V30 2270 H 210.306 -4.35001 6.18312 0
M  V30 2271 H 211.574 -5.39884 5.62268 0
M  V30 2272 N 215.803 -1.52179 -0.40978 0
M  V30 2273 C 216.753 -1.71857 -1.49831 0
M  V30 2274 C 217.737 -0.572469 -1.50372 0
M  V30 2275 O 218.929 -0.829509 -1.56359 0
M  V30 2276 C 216.058 -1.87206 -2.87765 0
M  V30 2277 C 215.144 -3.07685 -2.91875 0
M  V30 2278 N 215.535 -4.30403 -2.65683 0
M  V30 2279 C 213.833 -3.07505 -3.23043 0
M  V30 2280 C 214.534 -5.11868 -2.76344 0
M  V30 2281 N 213.51 -4.47101 -3.09195 0
M  V30 2282 H 217.312 -2.64381 -1.28375 0
M  V30 2283 H 214.826 -1.50203 -0.617479 0
M  V30 2284 H 216.823 -1.99419 -3.66111 0
M  V30 2285 H 215.483 -0.958814 -3.10221 0
M  V30 2286 H 216.494 -4.58887 -2.4009 0
M  V30 2287 H 213.171 -2.25915 -3.51096 0
M  V30 2288 H 214.561 -6.19634 -2.59814 0
M  V30 2289 N 217.281 0.66697 -1.42791 0
M  V30 2290 C 218.53 1.42278 -1.42968 0
M  V30 2291 C 218.843 1.9553 -0.0524489 0
M  V30 2292 O 220.049 2.71414 0.068363 0
M  V30 2293 C 218.505 2.57418 -2.51524 0
M  V30 2294 C 218.113 2.10832 -3.9529 0
M  V30 2295 C 219.857 3.34878 -2.60877 0
M  V30 2296 C 217.764 3.23101 -4.95338 0
M  V30 2297 H 216.694 0.534533 -0.531781 0
M  V30 2298 H 219.345 0.721302 -1.68729 0
M  V30 2299 H 217.727 3.29971 -2.18941 0
M  V30 2300 H 218.901 1.4538 -4.37266 0
M  V30 2301 H 217.216 1.46289 -3.89857 0
M  V30 2302 H 219.813 4.18505 -3.32802 0
M  V30 2303 H 220.156 3.81993 -1.6549 0
M  V30 2304 H 220.689 2.69398 -2.92693 0
M  V30 2305 H 217.428 2.80969 -5.9223 0
M  V30 2306 H 216.948 3.87309 -4.57987 0
M  V30 2307 H 218.627 3.88447 -5.17415 0
M  V30 2308 N 218.759 1.29093 0.90403 0
M  V30 2309 C 219.669 1.15727 2.0407 0
M  V30 2310 C 220.685 0.0815308 1.73809 0
M  V30 2311 O 221.861 0.292749 1.99261 0
M  V30 2312 C 218.926 0.830424 3.36608 0
M  V30 2313 C 217.987 1.98955 3.80415 0
M  V30 2314 C 217.22 1.6782 5.06628 0
M  V30 2315 O 217.443 0.597105 5.67266 0
M  V30 2316 O 216.377 2.52486 5.46383 0
M  V30 2317 H 220.203 2.11171 2.18267 0
M  V30 2318 H 217.788 1.08504 1.027 0
M  V30 2319 H 219.67 0.662521 4.16159 0
M  V30 2320 H 218.345 -0.0942678 3.23563 0
M  V30 2321 H 217.252 2.21267 3.01648 0
M  V30 2322 H 218.585 2.89529 3.98037 0
M  V30 2323 N 220.237 -1.11381 1.11499 0
M  V30 2324 C 221.514 -1.7955 0.775965 0
M  V30 2325 C 221.894 -1.97859 -0.73588 0
M  V30 2326 O 221.242 -1.56376 -1.66609 0
M  V30 2327 C 221.452 -3.13196 1.53977 0
M  V30 2328 C 222.8 -3.88227 1.71944 0
M  V30 2329 O 223.824 -3.22887 1.50407 0
M  V30 2330 O 222.683 -5.05477 2.07738 0
M  V30 2331 H 219.777 -0.777728 0.28119 0
M  V30 2332 H 222.323 -1.18118 1.21845 0
M  V30 2333 H 221.095 -2.95229 2.56818 0
M  V30 2334 H 220.718 -3.82342 1.09088 0
M  V30 2335 N 221.715 -0.905404 -1.28997 0
M  V30 2336 C 222.678 -0.392253 -2.25819 0
M  V30 2337 C 223.678 0.476753 -1.5357 0
M  V30 2338 O 224.868 0.280994 -1.71919 0
M  V30 2339 C 222 0.438588 -3.38067 0
M  V30 2340 H 223.193 -1.24743 -2.72725 0
M  V30 2341 H 220.746 -0.684051 -1.40536 0
M  V30 2342 H 221.481 1.31352 -2.96508 0
M  V30 2343 H 221.266 -0.184167 -3.91667 0
M  V30 2344 H 222.756 0.78873 -4.10084 0
M  V30 2345 N 223.193 1.4272 -0.668489 0
M  V30 2346 C 224.103 2.34596 0.0139753 0
M  V30 2347 C 225.119 1.5474 0.795703 0
M  V30 2348 O 226.295 1.87334 0.739466 0
M  V30 2349 C 223.36 3.33202 0.957982 0
M  V30 2350 C 222.421 4.28957 0.17149 0
M  V30 2351 C 221.654 5.22853 1.07053 0
M  V30 2352 O 221.877 5.21531 2.31001 0
M  V30 2353 O 220.811 5.9952 0.534727 0
M  V30 2354 H 224.637 2.9448 -0.742661 0
M  V30 2355 H 222.222 1.43117 -0.428705 0
M  V30 2356 H 224.104 3.93796 1.50008 0
M  V30 2357 H 222.779 2.758 1.69458 0
M  V30 2358 H 221.686 3.71796 -0.414558 0
M  V30 2359 H 223.019 4.89383 -0.52586 0
M  V30 2360 N 224.671 0.411399 1.52136 0
M  V30 2361 C 225.618 -0.412975 2.27075 0
M  V30 2362 C 226.588 -1.03912 1.29582 0
M  V30 2363 O 227.773 -1.06296 1.58448 0
M  V30 2364 C 224.913 -1.52247 3.09701 0
M  V30 2365 C 224.026 -0.917021 4.22155 0
M  V30 2366 C 223.161 -1.9994 4.92135 0
M  V30 2367 C 222.2 -1.37101 5.96548 0
M  V30 2368 N 221.337 -2.39364 6.60038 0
M  V30 2369 H 226.177 0.232499 2.97092 0
M  V30 2370 H 223.714 0.126496 1.46555 0
M  V30 2371 H 225.672 -2.17674 3.55913 0
M  V30 2372 H 224.302 -2.13794 2.41851 0
M  V30 2373 H 223.354 -0.151742 3.80097 0
M  V30 2374 H 224.666 -0.418006 4.97045 0
M  V30 2375 H 223.82 -2.73088 5.41763 0
M  V30 2376 H 222.559 -2.53208 4.16818 0
M  V30 2377 H 221.564 -0.624873 5.46237 0
M  V30 2378 H 222.789 -0.845998 6.7381 0
M  V30 2379 H 220.735 -2.91759 5.87548 0
M  V30 2380 H 220.652 -1.9428 7.3061 0
M  V30 2381 H 221.92 -3.12074 7.14304 0
M  V30 2382 N 226.149 -1.5696 0.141893 0
M  V30 2383 C 227.395 -1.97034 -0.504884 0
M  V30 2384 C 227.75 -1.02518 -1.62812 0
M  V30 2385 O 227.043 -0.0592943 -1.91508 0
M  V30 2386 C 227.237 -3.41242 -1.06249 0
M  V30 2387 C 227.066 -4.497 0.00519653 0
M  V30 2388 C 225.836 -5.03338 0.444873 0
M  V30 2389 C 228.034 -5.08122 0.794767 0
M  V30 2390 N 226.016 -5.95395 1.49593 0
M  V30 2391 C 227.387 -5.96339 1.69645 0
M  V30 2392 C 229.442 -4.9071 0.843122 0
M  V30 2393 C 228.145 -6.69009 2.64233 0
M  V30 2394 C 230.171 -5.64077 1.77681 0
M  V30 2395 C 229.533 -6.51999 2.66603 0
M  V30 2396 H 225.632 -0.766745 -0.153707 0
M  V30 2397 H 228.216 -1.93273 0.235313 0
M  V30 2398 H 226.387 -3.45606 -1.77231 0
M  V30 2399 H 228.119 -3.68389 -1.67546 0
M  V30 2400 H 224.874 -4.73576 0.0480959 0
M  V30 2401 H 225.298 -6.46128 2.02107 0
M  V30 2402 H 229.94 -4.22459 0.169732 0
M  V30 2403 H 227.658 -7.36492 3.32575 0
M  V30 2404 H 231.244 -5.52602 1.81996 0
M  V30 2405 H 230.124 -7.07775 3.37675 0
M  V30 2406 N 227.627 0.131896 -1.57047 0
M  V30 2407 C 228.559 1.1878 -1.9602 0
M  V30 2408 C 229.572 1.38363 -0.857875 0
M  V30 2409 O 230.761 1.37666 -1.13623 0
M  V30 2410 C 227.861 2.55008 -2.23213 0
M  V30 2411 C 227.034 2.56201 -3.54513 0
M  V30 2412 C 226.093 3.7408 -3.70069 0
M  V30 2413 O 225.119 3.58258 -4.42312 0
M  V30 2414 N 226.321 4.92137 -3.07866 0
M  V30 2415 H 229.086 0.85639 -2.87204 0
M  V30 2416 H 226.647 0.321309 -1.5868 0
M  V30 2417 H 228.639 3.32404 -2.30846 0
M  V30 2418 H 227.209 2.80382 -1.3822 0
M  V30 2419 H 226.429 1.64613 -3.58185 0
M  V30 2420 H 227.717 2.54043 -4.4084 0
M  V30 2421 H 227.115 5.07895 -2.49116 0
M  V30 2422 H 225.672 5.67254 -3.21039 0
M  V30 2423 N 229.106 1.52395 0.401703 0
M  V30 2424 C 230.355 1.66044 1.14509 0
M  V30 2425 C 230.668 0.400216 1.91462 0
M  V30 2426 O 231.874 0.416632 2.68284 0
M  V30 2427 C 230.33 2.93388 2.0845 0
M  V30 2428 C 229.938 4.26545 1.36978 0
M  V30 2429 C 231.682 3.16402 2.83001 0
M  V30 2430 C 229.589 5.45007 2.29611 0
M  V30 2431 H 228.519 0.618562 0.431158 0
M  V30 2432 H 231.17 1.78886 0.40892 0
M  V30 2433 H 229.552 2.74263 2.8565 0
M  V30 2434 H 230.726 4.56179 0.650916 0
M  V30 2435 H 229.041 4.09692 0.74438 0
M  V30 2436 H 231.638 4.02085 3.52465 0
M  V30 2437 H 231.981 2.30943 3.46368 0
M  V30 2438 H 232.514 3.36034 2.12898 0
M  V30 2439 H 229.253 6.32835 1.70879 0
M  V30 2440 H 228.773 5.19702 2.9945 0
M  V30 2441 H 230.452 5.7838 2.89974 0
M  V30 2442 N 230.584 -0.659388 1.43143 0
M  V30 2443 C 231.547 -1.75432 1.47501 0
M  V30 2444 C 232.547 -1.56707 0.360512 0
M  V30 2445 O 233.737 -1.62717 0.622002 0
M  V30 2446 C 230.869 -3.14239 1.32162 0
M  V30 2447 H 232.062 -1.7295 2.45006 0
M  V30 2448 H 229.615 -0.870469 1.29817 0
M  V30 2449 H 230.35 -3.22336 0.356401 0
M  V30 2450 H 230.135 -3.29235 2.12948 0
M  V30 2451 H 231.625 -3.94094 1.3813 0
M  V30 2452 N 232.062 -1.29571 -0.897171 0
M  V30 2453 C 233.339 -1.08365 -1.62839 0
M  V30 2454 C 233.719 0.371331 -2.07808 0
M  V30 2455 O 233.067 1.3606 -1.83576 0
M  V30 2456 C 233.277 -2.0735 -2.80726 0
M  V30 2457 C 234.625 -2.38406 -3.51351 0
M  V30 2458 O 235.649 -2.05564 -2.90898 0
M  V30 2459 O 234.508 -2.9453 -4.60341 0
M  V30 2460 H 231.602 -0.415345 -0.715134 0
M  V30 2461 H 234.148 -1.40952 -0.945018 0
M  V30 2462 H 232.92 -3.05339 -2.44711 0
M  V30 2463 H 232.543 -1.75507 -3.56767 0
M  V30 2464 N 233.54 1.10788 -1.12088 0
M  V30 2465 C 234.503 2.15207 -0.788577 0
M  V30 2466 C 235.503 1.59609 0.195317 0
M  V30 2467 O 236.693 1.74174 -0.0300193 0
M  V30 2468 C 233.825 3.4047 -0.171174 0
M  V30 2469 H 235.018 2.46116 -1.71368 0
M  V30 2470 H 232.571 1.26089 -0.923652 0
M  V30 2471 H 233.306 3.15176 0.763832 0
M  V30 2472 H 233.091 3.82109 -0.879514 0
M  V30 2473 H 234.581 4.17576 0.04496 0
M  V30 2474 N 235.018 0.912232 1.28515 0
M  V30 2475 C 235.948 0.416403 2.29757 0
M  V30 2476 C 236.929 -0.515194 1.6211 0
M  V30 2477 O 238.114 -0.423253 1.89532 0
M  V30 2478 C 235.244 -0.34572 3.45575 0
M  V30 2479 C 234.198 0.496599 4.25109 0
M  V30 2480 C 233.524 -0.393771 5.33248 0
M  V30 2481 C 234.824 1.75307 4.92001 0
M  V30 2482 H 236.518 1.26249 2.7148 0
M  V30 2483 H 234.064 0.608515 1.30511 0
M  V30 2484 H 236.017 -0.703422 4.15488 0
M  V30 2485 H 234.741 -1.2257 3.02728 0
M  V30 2486 H 233.4 0.8368 3.56922 0
M  V30 2487 H 233.048 -1.27225 4.86644 0
M  V30 2488 H 232.748 0.166209 5.87365 0
M  V30 2489 H 234.272 -0.747389 6.06009 0
M  V30 2490 H 235.686 1.46437 5.54283 0
M  V30 2491 H 234.083 2.25534 5.56106 0
M  V30 2492 H 235.153 2.48176 4.16577 0
M  V30 2493 N 236.496 -1.42363 0.676048 0
M  V30 2494 C 237.444 -2.32596 -0.0131507 0
M  V30 2495 C 238.438 -1.49891 -0.789238 0
M  V30 2496 O 239.644 -1.65955 -0.697061 0
M  V30 2497 H 236.019 -0.751647 -0.0230481 0
M  V30 2498 H 237.99 -2.88421 0.765243 0
M  V30 2499 C 236.739 -3.34479 -0.949702 0
M  V30 2500 H 236.062 -3.98158 -0.361938 0
M  V30 2501 H 237.502 -4.00199 -1.4006 0
M  V30 2502 C 235.961 -2.66838 -2.05667 0
M  V30 2503 O 236.491 -2.50124 -3.14326 0
M  V30 2504 N 234.697 -2.25843 -1.82875 0
M  V30 2505 H 234.244 -2.39637 -0.945085 0
M  V30 2506 H 234.202 -1.80918 -2.5713 0
M  V30 2507 N 237.974 -0.419461 -1.51915 0
M  V30 2508 C 239.204 0.151915 -2.06041 0
M  V30 2509 C 239.612 1.38539 -1.28855 0
M  V30 2510 O 238.955 1.80592 -0.336463 0
M  V30 2511 C 239.017 0.557119 -3.55157 0
M  V30 2512 C 238.681 -0.567054 -4.53468 0
M  V30 2513 C 239.678 -1.43379 -4.99738 0
M  V30 2514 C 237.363 -0.742693 -4.96779 0
M  V30 2515 C 239.357 -2.46102 -5.87973 0
M  V30 2516 C 237.044 -1.77322 -5.84808 0
M  V30 2517 C 238.042 -2.63078 -6.30301 0
M  V30 2518 O 237.73 -3.64364 -7.16585 0
M  V30 2519 H 237.462 0.0193293 -0.675724 0
M  V30 2520 H 240.016 -0.592073 -1.96682 0
M  V30 2521 H 238.246 1.35355 -3.62238 0
M  V30 2522 H 239.935 1.05759 -3.9188 0
M  V30 2523 H 240.701 -1.30954 -4.66986 0
M  V30 2524 H 236.58 -0.0848307 -4.60922 0
M  V30 2525 H 240.124 -3.13071 -6.23404 0
M  V30 2526 H 236.021 -1.89773 -6.16974 0
M  V30 2527 H 236.789 -3.60731 -7.34721 0
M  V30 2528 N 239.452 1.56882 -0.150215 0
M  V30 2529 C 240.415 2.1573 0.774157 0
M  V30 2530 C 241.415 1.0999 1.17298 0
M  V30 2531 O 242.605 1.35613 1.09338 0
M  V30 2532 C 239.737 2.72302 2.05096 0
M  V30 2533 H 240.93 2.98752 0.262201 0
M  V30 2534 H 238.483 1.55985 0.099248 0
M  V30 2535 H 239.218 1.92956 2.6065 0
M  V30 2536 H 239.003 3.49665 1.77416 0
M  V30 2537 H 240.493 3.17632 2.71109 0
M  V30 2538 N 240.93 -0.123565 1.57115 0
M  V30 2539 C 241.862 -1.17739 1.96648 0
M  V30 2540 C 242.875 -1.37906 0.865201 0
M  V30 2541 O 244.064 -1.37062 1.14351 0
M  V30 2542 C 241.164 -2.53821 2.24562 0
M  V30 2543 C 240.337 -2.54317 3.55867 0
M  V30 2544 C 239.396 -3.72112 3.72047 0
M  V30 2545 O 238.422 -3.55907 4.44206 0
M  V30 2546 N 239.624 -4.90498 3.10471 0
M  V30 2547 H 242.389 -0.841147 2.87654 0
M  V30 2548 H 239.95 -0.31289 1.58848 0
M  V30 2549 H 241.942 -3.31175 2.32606 0
M  V30 2550 H 240.512 -2.79645 1.39705 0
M  V30 2551 H 239.732 -1.62711 3.59053 0
M  V30 2552 H 241.02 -2.51701 4.42181 0
M  V30 2553 H 240.418 -5.06567 2.51806 0
M  V30 2554 H 238.975 -5.65544 3.24043 0
M  V30 2555 N 242.408 -1.52605 -0.393616 0
M  V30 2556 C 243.633 -1.71592 -1.16495 0
M  V30 2557 C 244.058 -0.43133 -1.83088 0
M  V30 2558 O 243.416 0.612523 -1.7064 0
M  V30 2559 C 243.464 -2.86318 -2.19213 0
M  V30 2560 O 242.568 -2.52969 -3.257 0
M  V30 2561 H 241.909 -0.570734 -0.33935 0
M  V30 2562 H 244.439 -1.99377 -0.459324 0
M  V30 2563 H 244.449 -3.1168 -2.63286 0
M  V30 2564 H 243.124 -3.79511 -1.7013 0
M  V30 2565 H 241.701 -2.38332 -2.86797 0
M  V30 2566 N 243.887 0.651787 -1.4349 0
M  V30 2567 C 244.834 1.76462 -1.4876 0
M  V30 2568 C 245.804 1.62641 -0.337189 0
M  V30 2569 O 246.989 1.82864 -0.544544 0
M  V30 2570 C 244.129 3.14623 -1.41796 0
M  V30 2571 C 243.242 3.39568 -2.67053 0
M  V30 2572 C 242.377 4.67585 -2.52068 0
M  V30 2573 C 241.416 4.85639 -3.72587 0
M  V30 2574 N 240.553 6.04915 -3.56402 0
M  V30 2575 H 245.393 1.71293 -2.43849 0
M  V30 2576 H 242.93 0.835889 -1.21043 0
M  V30 2577 H 244.888 3.94496 -1.35753 0
M  V30 2578 H 243.518 3.18859 -0.50288 0
M  V30 2579 H 242.57 2.53783 -2.8337 0
M  V30 2580 H 243.882 3.48795 -3.56572 0
M  V30 2581 H 243.036 5.55586 -2.4374 0
M  V30 2582 H 241.775 4.60681 -1.60075 0
M  V30 2583 H 240.78 3.96073 -3.81321 0
M  V30 2584 H 242.005 4.94372 -4.65589 0
M  V30 2585 H 239.951 5.9914 -2.67146 0
M  V30 2586 H 239.868 6.15106 -4.39524 0
M  V30 2587 H 241.136 6.95533 -3.51929 0
M  V30 2588 N 245.365 1.30045 0.890287 0
M  V30 2589 C 246.593 1.21472 1.67487 0
M  V30 2590 C 247.008 -0.223241 1.87476 0
M  V30 2591 O 246.365 -1.14828 1.41847 0
M  V30 2592 C 246.416 1.93394 3.05419 0
M  V30 2593 O 246.137 3.31576 2.86337 0
M  V30 2594 C 247.638 1.91414 3.99844 0
M  V30 2595 H 244.858 0.420604 0.522813 0
M  V30 2596 H 247.402 1.7158 1.11268 0
M  V30 2597 H 245.557 1.47099 3.58386 0
M  V30 2598 H 245.971 3.67929 3.73802 0
M  V30 2599 H 247.445 2.46285 4.94012 0
M  V30 2600 H 247.922 0.891833 4.3005 0
M  V30 2601 H 248.528 2.37496 3.52811 0
M  V30 2602 N 246.843 -1.10192 1.12674 0
M  V30 2603 C 247.753 -2.20172 0.810026 0
M  V30 2604 C 248.769 -1.72821 -0.202188 0
M  V30 2605 O 249.945 -2.01369 -0.0351691 0
M  V30 2606 C 247.01 -3.45631 0.272007 0
M  V30 2607 C 246.071 -4.07704 1.34447 0
M  V30 2608 C 245.304 -5.27175 0.832029 0
M  V30 2609 O 245.527 -5.69425 -0.333284 0
M  V30 2610 O 244.461 -5.80168 1.60277 0
M  V30 2611 H 248.287 -2.49701 1.72867 0
M  V30 2612 H 245.872 -1.18977 0.903597 0
M  V30 2613 H 247.754 -4.21394 -0.0230219 0
M  V30 2614 H 246.429 -3.17723 -0.619164 0
M  V30 2615 H 245.336 -3.33614 1.6927 0
M  V30 2616 H 246.669 -4.3982 2.2095 0
M  V30 2617 N 248.321 -0.919034 -1.28029 0
M  V30 2618 C 249.268 -0.410005 -2.27129 0
M  V30 2619 C 250.238 0.518405 -1.57803 0
M  V30 2620 O 251.423 0.439451 -1.8567 0
M  V30 2621 C 248.563 0.339054 -3.4343 0
M  V30 2622 C 247.676 -0.622468 -4.27492 0
M  V30 2623 C 246.811 0.145567 -5.31001 0
M  V30 2624 C 245.85 -0.809226 -6.06727 0
M  V30 2625 N 244.987 -0.0743728 -7.02061 0
M  V30 2626 H 249.827 -1.26011 -2.70047 0
M  V30 2627 H 247.364 -0.632663 -1.328 0
M  V30 2628 H 249.322 0.789586 -4.0966 0
M  V30 2629 H 247.952 1.15346 -3.01488 0
M  V30 2630 H 247.004 -1.19153 -3.61257 0
M  V30 2631 H 248.316 -1.35252 -4.80113 0
M  V30 2632 H 247.47 0.656417 -6.03139 0
M  V30 2633 H 246.209 0.908643 -4.79161 0
M  V30 2634 H 245.214 -1.3314 -5.33436 0
M  V30 2635 H 246.439 -1.57194 -6.60656 0
M  V30 2636 H 244.385 0.670616 -6.52563 0
M  V30 2637 H 244.302 -0.744157 -7.52329 0
M  V30 2638 H 245.57 0.416109 -7.78389 0
M  V30 2639 N 249.799 1.42003 -0.683588 0
M  V30 2640 C 251.076 1.95112 -0.138075 0
M  V30 2641 C 251.456 1.62359 1.34918 0
M  V30 2642 O 250.804 0.924311 2.08971 0
M  V30 2643 C 251.014 3.46505 -0.416581 0
M  V30 2644 C 252.362 4.23254 -0.337834 0
M  V30 2645 O 253.386 3.54468 -0.35082 0
M  V30 2646 O 252.245 5.45743 -0.287596 0
M  V30 2647 H 249.339 0.826961 -0.00797996 0
M  V30 2648 H 251.885 1.51784 -0.758924 0
M  V30 2649 H 250.657 3.63582 -1.4465 0
M  V30 2650 H 250.28 3.969 0.235839 0
M  V30 2651 N 251.277 0.427512 1.51691 0
M  V30 2652 C 252.523 -0.142439 2.02299 0
M  V30 2653 C 252.856 -1.43214 1.31162 0
M  V30 2654 O 252.131 -1.89833 0.423511 0
M  V30 2655 C 252.414 -0.371301 3.58181 0
M  V30 2656 C 252.267 0.936358 4.39946 0
M  V30 2657 C 253.586 -1.14542 4.24933 0
M  V30 2658 H 250.705 -0.0502937 0.735282 0
M  V30 2659 H 253.347 0.564584 1.81418 0
M  V30 2660 H 251.497 -0.973559 3.76104 0
M  V30 2661 H 253.169 1.57184 4.33694 0
M  V30 2662 H 251.412 1.5432 4.05423 0
M  V30 2663 H 252.083 0.730388 5.47147 0
M  V30 2664 H 254.559 -0.635362 4.11221 0
M  V30 2665 H 253.435 -1.27431 5.33903 0
M  V30 2666 H 253.696 -2.17093 3.85127 0
M  V30 2667 N 252.755 -1.56801 0.158532 0
M  V30 2668 C 253.985 -2.00568 -0.495583 0
M  V30 2669 C 254.393 -1.03774 -1.58201 0
M  V30 2670 O 253.736 -0.0285797 -1.83678 0
M  V30 2671 C 253.798 -3.40768 -1.14532 0
M  V30 2672 C 253.462 -4.56553 -0.202101 0
M  V30 2673 C 254.459 -5.16714 0.574675 0
M  V30 2674 C 252.144 -5.02197 -0.101648 0
M  V30 2675 C 254.138 -6.20939 1.43924 0
M  V30 2676 C 251.825 -6.06274 0.766508 0
M  V30 2677 C 252.823 -6.65515 1.53555 0
M  V30 2678 O 252.511 -7.67575 2.38922 0
M  V30 2679 H 252.243 -0.662893 -0.13247 0
M  V30 2680 H 254.797 -2.03829 0.253559 0
M  V30 2681 H 253.027 -3.34381 -1.94233 0
M  V30 2682 H 254.716 -3.6857 -1.70033 0
M  V30 2683 H 255.482 -4.82341 0.507167 0
M  V30 2684 H 251.361 -4.55807 -0.689994 0
M  V30 2685 H 254.905 -6.67107 2.03996 0
M  V30 2686 H 250.802 -6.40073 0.835266 0
M  V30 2687 H 251.57 -7.84844 2.32296 0
M  V30 2688 N 254.233 0.115231 -1.57178 0
M  V30 2689 C 255.51 0.852873 -1.76027 0
M  V30 2690 C 255.89 1.97892 -0.73498 0
M  V30 2691 O 255.238 2.27232 0.24036 0
M  V30 2692 C 255.448 1.36608 -3.21153 0
M  V30 2693 C 256.796 1.81692 -3.83762 0
M  V30 2694 O 257.82 1.46278 -3.24779 0
M  V30 2695 O 256.679 2.47104 -4.87444 0
M  V30 2696 H 253.773 0.405296 -0.720877 0
M  V30 2697 H 256.319 0.0986785 -1.69413 0
M  V30 2698 H 255.091 0.558357 -3.87296 0
M  V30 2699 H 254.714 2.18287 -3.3232 0
M  V30 2700 N 255.711 1.52812 0.385517 0
M  V30 2701 C 256.674 1.77188 1.45386 0
M  V30 2702 C 257.674 0.641953 1.4743 0
M  V30 2703 O 258.864 0.910033 1.4854 0
M  V30 2704 C 255.996 1.87582 2.8465 0
M  V30 2705 H 257.189 2.72583 1.25054 0
M  V30 2706 H 254.742 1.43586 0.617467 0
M  V30 2707 H 255.477 0.941849 3.10322 0
M  V30 2708 H 255.262 2.69748 2.84567 0
M  V30 2709 H 256.752 2.08102 3.62054 0
M  V30 2710 N 257.189 -0.644168 1.43834 0
M  V30 2711 C 258.436 -1.40395 1.4593 0
M  V30 2712 C 258.764 -1.94305 0.0869658 0
M  V30 2713 O 258.019 -1.73288 -0.909378 0
M  V30 2714 C 258.318 -2.59615 2.45631 0
M  V30 2715 C 257.984 -2.2407 3.91284 0
M  V30 2716 C 256.646 -2.14089 4.30952 0
M  V30 2717 C 258.998 -1.95775 4.83034 0
M  V30 2718 C 256.326 -1.73981 5.6031 0
M  V30 2719 C 258.678 -1.57163 6.12766 0
M  V30 2720 C 257.342 -1.45713 6.51402 0
M  V30 2721 H 256.612 -0.513741 0.533995 0
M  V30 2722 H 259.259 -0.731724 1.76969 0
M  V30 2723 H 257.564 -3.32011 2.08028 0
M  V30 2724 H 259.261 -3.17834 2.44504 0
M  V30 2725 H 255.851 -2.32753 3.59895 0
M  V30 2726 H 260.035 -2.02403 4.53152 0
M  V30 2727 H 255.291 -1.63709 5.89075 0
M  V30 2728 H 259.465 -1.34303 6.83327 0
M  V30 2729 H 257.092 -1.14406 7.51542 0
M  V30 2730 N 258.668 -1.30515 -0.883378 0
M  V30 2731 C 259.6 -1.12846 -1.99496 0
M  V30 2732 C 260.613 -0.0712571 -1.62644 0
M  V30 2733 O 261.802 -0.317432 -1.75655 0
M  V30 2734 C 258.902 -0.699123 -3.3161 0
M  V30 2735 C 258.075 -1.83842 -3.96889 0
M  V30 2736 C 257.134 -1.39737 -5.07307 0
M  V30 2737 O 256.16 -2.10485 -5.28852 0
M  V30 2738 N 257.362 -0.277279 -5.79837 0
M  V30 2739 H 260.127 -2.08585 -2.15203 0
M  V30 2740 H 257.688 -1.22672 -1.05656 0
M  V30 2741 H 259.68 -0.387044 -4.02845 0
M  V30 2742 H 258.25 0.166276 -3.12157 0
M  V30 2743 H 257.47 -2.31853 -3.18807 0
M  V30 2744 H 258.758 -2.60187 -4.37241 0
M  V30 2745 H 258.156 0.3122 -5.64838 0
M  V30 2746 H 256.713 -0.0246623 -6.51795 0
M  V30 2747 N 260.146 1.09593 -1.13257 0
M  V30 2748 C 261.109 2.14359 -0.811358 0
M  V30 2749 C 262.109 1.59808 0.178377 0
M  V30 2750 O 263.299 1.74132 -0.0484911 0
M  V30 2751 C 260.431 3.40269 -0.207276 0
M  V30 2752 H 261.624 2.44284 -1.73969 0
M  V30 2753 H 259.177 1.25102 -0.936973 0
M  V30 2754 H 259.912 3.15969 0.73036 0
M  V30 2755 H 259.697 3.81154 -0.919992 0
M  V30 2756 H 261.187 4.176 0.000667944 0
M  V30 2757 N 261.624 0.925811 1.2754 0
M  V30 2758 C 262.854 0.580666 1.98272 0
M  V30 2759 C 263.262 -0.845207 1.69272 0
M  V30 2760 O 262.605 -1.57306 0.948707 0
M  V30 2761 C 262.667 0.724418 3.52126 0
M  V30 2762 C 262.331 2.12206 4.04744 0
M  V30 2763 C 263.328 3.09604 4.17662 0
M  V30 2764 C 261.013 2.4385 4.39138 0
M  V30 2765 C 263.007 4.36755 4.64246 0
M  V30 2766 C 260.694 3.71237 4.85414 0
M  V30 2767 C 261.692 4.67503 4.97926 0
M  V30 2768 O 261.38 5.92624 5.43187 0
M  V30 2769 H 261.112 0.218987 0.639547 0
M  V30 2770 H 263.666 1.24452 1.63404 0
M  V30 2771 H 261.896 0.0034663 3.867 0
M  V30 2772 H 263.585 0.384607 4.04074 0
M  V30 2773 H 264.351 2.86478 3.91351 0
M  V30 2774 H 260.23 1.69665 4.28643 0
M  V30 2775 H 263.774 5.11898 4.73927 0
M  V30 2776 H 259.671 3.94182 5.11166 0
M  V30 2777 H 260.439 5.95585 5.61445 0
M  V30 2778 N 263.102 -1.41638 0.69111 0
M  V30 2779 C 264.012 -2.34588 0.0233487 0
M  V30 2780 C 265.028 -1.55987 -0.770984 0
M  V30 2781 O 266.204 -1.88486 -0.709569 0
M  V30 2782 C 263.269 -3.34684 -0.904851 0
M  V30 2783 C 262.33 -4.29176 -0.103225 0
M  V30 2784 C 261.563 -5.2449 -0.987216 0
M  V30 2785 O 261.786 -5.2514 -2.22674 0
M  V30 2786 O 260.72 -6.00295 -0.439281 0
M  V30 2787 H 264.546 -2.93261 0.789416 0
M  V30 2788 H 262.131 -1.42417 0.45142 0
M  V30 2789 H 264.013 -3.96133 -1.43724 0
M  V30 2790 H 262.688 -2.78461 -1.65049 0
M  V30 2791 H 261.595 -3.71089 0.473655 0
M  V30 2792 H 262.928 -4.88484 0.60365 0
M  V30 2793 N 264.58 -0.43555 -1.51462 0
M  V30 2794 C 265.81 0.130053 -2.0619 0
M  V30 2795 C 266.218 1.37164 -1.30317 0
M  V30 2796 O 265.561 1.80225 -0.355598 0
M  V30 2797 C 265.623 0.519418 -3.55728 0
M  V30 2798 C 265.287 -0.615119 -4.52841 0
M  V30 2799 C 266.284 -1.48671 -4.9819 0
M  V30 2800 C 263.969 -0.795341 -4.95963 0
M  V30 2801 C 265.963 -2.52324 -5.8533 0
M  V30 2802 C 263.65 -1.83514 -5.82894 0
M  V30 2803 C 264.648 -2.69748 -6.27475 0
M  V30 2804 O 264.336 -3.71944 -7.1268 0
M  V30 2805 H 264.068 0.0121612 -0.675891 0
M  V30 2806 H 266.622 -0.6129 -1.96043 0
M  V30 2807 H 264.852 1.31505 -3.63653 0
M  V30 2808 H 266.541 1.01597 -3.92979 0
M  V30 2809 H 267.307 -1.359 -4.65571 0
M  V30 2810 H 263.186 -0.133713 -4.60806 0
M  V30 2811 H 266.73 -3.19665 -6.20048 0
M  V30 2812 H 262.627 -1.96306 -6.14926 0
M  V30 2813 H 263.395 -3.68503 -7.30854 0
M  V30 2814 N 266.058 1.56714 -0.166846 0
M  V30 2815 C 266.968 2.21331 0.777791 0
M  V30 2816 C 267.984 1.20358 1.25658 0
M  V30 2817 O 269.16 1.53005 1.30964 0
M  V30 2818 C 266.225 2.83787 1.99163 0
M  V30 2819 C 265.286 3.99947 1.56016 0
M  V30 2820 C 264.519 4.59415 2.71613 0
M  V30 2821 O 264.742 4.17769 3.88362 0
M  V30 2822 O 263.676 5.49359 2.45945 0
M  V30 2823 H 267.502 3.02605 0.257636 0
M  V30 2824 H 265.087 1.49275 0.0611393 0
M  V30 2825 H 266.969 3.23405 2.70161 0
M  V30 2826 H 265.644 2.05513 2.50092 0
M  V30 2827 H 264.551 3.65007 0.819809 0
M  V30 2828 H 265.884 4.79801 1.09782 0
M  V30 2829 N 267.536 -0.106894 1.57237 0
M  V30 2830 C 268.782 -0.81373 1.85759 0
M  V30 2831 C 269.115 -1.78952 0.754315 0
M  V30 2832 O 268.39 -1.93029 -0.23879 0
M  V30 2833 C 268.673 -1.55293 3.24894 0
M  V30 2834 C 268.526 -0.595929 4.45835 0
M  V30 2835 C 269.845 -2.5063 3.61763 0
M  V30 2836 H 266.964 -0.294369 0.67566 0
M  V30 2837 H 269.606 -0.0776472 1.89841 0
M  V30 2838 H 267.756 -2.1804 3.21544 0
M  V30 2839 H 269.428 0.0236262 4.61294 0
M  V30 2840 H 267.671 0.0916191 4.33703 0
M  V30 2841 H 268.342 -1.15004 5.39887 0
M  V30 2842 H 270.818 -1.97982 3.65981 0
M  V30 2843 H 269.694 -2.99376 4.60071 0
M  V30 2844 H 269.955 -3.3385 2.89821 0
M  V30 2845 N 269.014 -1.53014 -0.377408 0
M  V30 2846 C 269.962 -1.7927 -1.48206 0
M  V30 2847 C 270.956 -0.661195 -1.55963 0
M  V30 2848 O 272.162 -0.843908 -1.58991 0
M  V30 2849 H 268.537 -0.567425 -0.493491 0
M  V30 2850 H 270.508 -2.71753 -1.2326 0
M  V30 2851 C 269.257 -1.98894 -2.85196 0
M  V30 2852 H 268.58 -2.85395 -2.79981 0
M  V30 2853 H 270.02 -2.21249 -3.61698 0
M  V30 2854 C 268.479 -0.764691 -3.28107 0
M  V30 2855 O 269.009 0.0523226 -4.01666 0
M  V30 2856 N 267.215 -0.591493 -2.84517 0
M  V30 2857 H 266.762 -1.25749 -2.24822 0
M  V30 2858 H 266.72 0.226253 -3.13585 0
M  V30 2859 N 270.492 0.636531 -1.44174 0
M  V30 2860 C 271.72 1.42353 -1.50144 0
M  V30 2861 C 272.135 1.88389 -0.124575 0
M  V30 2862 O 271.492 1.6051 0.868489 0
M  V30 2863 C 271.543 2.64744 -2.46156 0
M  V30 2864 O 271.264 2.20629 -3.7849 0
M  V30 2865 C 272.765 3.57929 -2.61537 0
M  V30 2866 H 269.985 0.436752 -0.5094 0
M  V30 2867 H 272.529 0.778933 -1.89084 0
M  V30 2868 H 270.684 3.25307 -2.10366 0
M  V30 2869 H 271.098 2.99938 -4.30276 0
M  V30 2870 H 272.572 4.40428 -3.32757 0
M  V30 2871 H 273.049 4.06382 -1.66585 0
M  V30 2872 H 273.655 3.03238 -2.98206 0
M  V30 2873 N 271.97 1.30982 0.876444 0
M  V30 2874 C 272.9 1.20668 1.99903 0
M  V30 2875 C 273.881 0.095354 1.69833 0
M  V30 2876 O 275.066 0.27885 1.92188 0
M  V30 2877 C 272.196 0.90655 3.3526 0
M  V30 2878 C 271.15 1.97675 3.79617 0
M  V30 2879 C 270.476 1.52943 5.1236 0
M  V30 2880 C 271.776 3.389 3.97422 0
M  V30 2881 H 273.47 2.14586 2.0879 0
M  V30 2882 H 271.016 1.03308 1.00317 0
M  V30 2883 H 272.969 0.821025 4.13324 0
M  V30 2884 H 271.693 -0.0682969 3.26529 0
M  V30 2885 H 270.352 2.05205 3.03787 0
M  V30 2886 H 270 0.54262 5.00065 0
M  V30 2887 H 269.7 2.24532 5.43009 0
M  V30 2888 H 271.224 1.45786 5.92941 0
M  V30 2889 H 272.638 3.34081 4.659 0
M  V30 2890 H 271.035 4.0865 4.3946 0
M  V30 2891 H 272.105 3.80163 3.01006 0
M  V30 2892 N 273.449 -1.08991 1.13837 0
M  V30 2893 C 274.696 -1.81258 0.902882 0
M  V30 2894 C 275.024 -1.85936 -0.570803 0
M  V30 2895 O 274.279 -1.3267 -1.43865 0
M  V30 2896 C 274.578 -3.27042 1.44147 0
M  V30 2897 C 274.244 -3.4249 2.93276 0
M  V30 2898 C 272.906 -3.46414 3.33992 0
M  V30 2899 C 275.258 -3.4666 3.892 0
M  V30 2900 C 272.586 -3.52091 4.69307 0
M  V30 2901 C 274.938 -3.53872 5.24364 0
M  V30 2902 C 273.602 -3.56066 5.646 0
M  V30 2903 H 272.872 -0.663268 0.330388 0
M  V30 2904 H 275.519 -1.28368 1.42105 0
M  V30 2905 H 273.824 -3.82599 0.844097 0
M  V30 2906 H 275.521 -3.81499 1.23528 0
M  V30 2907 H 272.111 -3.40124 2.60794 0
M  V30 2908 H 276.295 -3.42865 3.58828 0
M  V30 2909 H 271.551 -3.52079 4.9985 0
M  V30 2910 H 275.725 -3.56043 5.98503 0
M  V30 2911 H 273.352 -3.60218 6.69438 0
M  V30 2912 N 274.927 -0.932562 -1.27047 0
M  V30 2913 C 276.152 -0.591474 -1.98787 0
M  V30 2914 C 276.577 0.824601 -1.69062 0
M  V30 2915 O 275.935 1.5541 -0.933677 0
M  V30 2916 C 275.983 -0.829808 -3.50922 0
M  V30 2917 O 275.087 0.102266 -4.12273 0
M  V30 2918 H 274.428 -0.227185 -0.623926 0
M  V30 2919 H 276.958 -1.25314 -1.61733 0
M  V30 2920 H 276.968 -0.747292 -4.01098 0
M  V30 2921 H 275.643 -1.86201 -3.7189 0
M  V30 2922 H 274.22 -0.0305761 -3.72887 0
M  V30 2923 N 276.405 1.4127 -0.698611 0
M  V30 2924 C 277.63 2.06024 -0.238512 0
M  V30 2925 C 278.055 1.5224 1.10475 0
M  V30 2926 O 277.413 0.650623 1.69223 0
M  V30 2927 C 277.461 3.59988 -0.209952 0
M  V30 2928 O 276.565 4.04282 0.814235 0
M  V30 2929 H 275.906 0.653829 -0.115775 0
M  V30 2930 H 278.436 1.8098 -0.954326 0
M  V30 2931 H 278.446 4.07979 -0.0418436 0
M  V30 2932 H 277.121 3.98503 -1.1903 0
M  V30 2933 H 275.698 3.6779 0.615234 0
M  V30 2934 N 277.883 0.443576 1.51229 0
M  V30 2935 C 278.831 -0.37904 2.29491 0
M  V30 2936 C 279.825 -1.0153 1.35603 0
M  V30 2937 O 281.031 -0.94955 1.52917 0
M  V30 2938 H 277.406 -0.141053 0.738653 0
M  V30 2939 H 279.377 0.301799 2.9687 0
M  V30 2940 C 278.126 -1.46426 3.15364 0
M  V30 2941 H 277.449 -0.984037 3.87501 0
M  V30 2942 H 278.889 -2.01297 3.7317 0
M  V30 2943 C 277.348 -2.45099 2.31146 0
M  V30 2944 O 277.878 -3.49773 1.9754 0
M  V30 2945 N 276.084 -2.16139 1.94249 0
M  V30 2946 H 275.631 -1.31044 2.21777 0
M  V30 2947 H 275.589 -2.82398 1.38198 0
M  V30 2948 N 279.361 -1.56624 0.175154 0
M  V30 2949 C 280.609 -1.96609 -0.467885 0
M  V30 2950 C 280.93 -1.06238 -1.63519 0
M  V30 2951 O 280.2 -0.129523 -1.95471 0
M  V30 2952 H 278.78 -0.726008 -0.175845 0
M  V30 2953 H 281.442 -1.93195 0.257234 0
M  V30 2954 H 280.538 -3.00989 -0.825342 0
M  V30 2955 N 280.839 0.0985539 -1.57292 0
M  V30 2956 C 281.771 1.14595 -1.98496 0
M  V30 2957 C 282.784 1.36512 -0.887031 0
M  V30 2958 O 283.973 1.35225 -1.16518 0
M  V30 2959 C 281.073 2.50216 -2.28572 0
M  V30 2960 C 280.246 2.48624 -3.59868 0
M  V30 2961 C 279.305 3.66146 -3.7792 0
M  V30 2962 O 278.331 3.48795 -4.49812 0
M  V30 2963 N 279.533 4.85496 -3.18235 0
M  V30 2964 H 282.298 0.795277 -2.88956 0
M  V30 2965 H 279.859 0.287579 -1.59325 0
M  V30 2966 H 281.851 3.27432 -2.37845 0
M  V30 2967 H 280.421 2.77387 -1.44136 0
M  V30 2968 H 279.641 1.56978 -3.61596 0
M  V30 2969 H 280.929 2.44635 -4.46129 0
M  V30 2970 H 280.327 5.02497 -2.59833 0
M  V30 2971 H 278.884 5.60317 -3.32999 0
M  V30 2972 N 282.317 1.53212 0.369288 0
M  V30 2973 C 283.545 1.73119 1.13303 0
M  V30 2974 C 283.96 0.458455 1.83149 0
M  V30 2975 O 283.317 -0.568403 1.73423 0
M  V30 2976 C 283.368 2.89413 2.16616 0
M  V30 2977 O 283.089 4.11761 1.49614 0
M  V30 2978 C 284.59 3.21161 3.05566 0
M  V30 2979 H 281.81 0.579107 0.338934 0
M  V30 2980 H 284.354 1.99942 0.429338 0
M  V30 2981 H 282.509 2.64994 2.82589 0
M  V30 2982 H 282.923 4.76858 2.18419 0
M  V30 2983 H 284.397 4.05949 3.74045 0
M  V30 2984 H 284.874 2.36369 3.70171 0
M  V30 2985 H 285.48 3.47492 2.45213 0
M  V30 2986 N 283.795 -0.628877 1.44509 0
M  V30 2987 C 285.206 -1.21054 1.42137 0
M  V30 2988 C 285.557 -1.95715 0.137881 0
M  V30 2989 O 284.682 -2.02554 -0.761645 0
M  V30 2990 C 285.277 -2.20189 2.57493 0
M  V30 2991 C 283.836 -2.73777 2.58308 0
M  V30 2992 C 282.983 -1.48813 2.33987 0
M  V30 2993 H 285.934 -0.41942 1.53057 0
M  V30 2994 H 285.955 -3.02833 2.30375 0
M  V30 2995 H 285.467 -1.6582 3.50892 0
M  V30 2996 H 283.568 -3.32142 1.68856 0
M  V30 2997 H 283.681 -3.19662 3.56865 0
M  V30 2998 H 282.045 -1.77024 1.83124 0
M  V30 2999 H 282.828 -0.963442 3.29504 0
M  V30 3000 N 285.273 -1.31445 -0.869486 0
M  V30 3001 C 286.52 -1.21158 -1.62256 0
M  V30 3002 C 286.848 0.230155 -1.93133 0
M  V30 3003 O 286.103 1.17906 -1.56194 0
M  V30 3004 C 286.402 -2.00145 -2.96102 0
M  V30 3005 C 286.068 -3.4964 -2.84715 0
M  V30 3006 C 284.73 -3.90403 -2.81317 0
M  V30 3007 C 287.082 -4.44769 -2.71716 0
M  V30 3008 C 284.41 -5.24561 -2.62778 0
M  V30 3009 C 286.762 -5.79054 -2.54714 0
M  V30 3010 C 285.426 -6.19037 -2.49699 0
M  V30 3011 H 284.696 -0.443348 -0.593737 0
M  V30 3012 H 287.343 -1.62715 -1.00976 0
M  V30 3013 H 285.648 -1.5127 -3.6142 0
M  V30 3014 H 287.345 -1.89566 -3.53363 0
M  V30 3015 H 283.935 -3.17256 -2.88178 0
M  V30 3016 H 288.119 -4.14208 -2.73397 0
M  V30 3017 H 283.375 -5.54613 -2.57321 0
M  V30 3018 H 287.549 -6.52393 -2.43632 0
M  V30 3019 H 285.176 -7.22935 -2.35093 0
M  V30 3020 N 286.751 1.08385 -1.14413 0
M  V30 3021 C 287.997 1.81044 -0.913834 0
M  V30 3022 C 288.33 1.86004 0.558209 0
M  V30 3023 O 287.605 1.33606 1.4135 0
M  V30 3024 C 287.888 3.26648 -1.51569 0
M  V30 3025 C 287.741 3.29895 -3.0576 0
M  V30 3026 C 289.06 4.23629 -1.19273 0
M  V30 3027 H 286.179 0.65727 -0.333414 0
M  V30 3028 H 288.821 1.26896 -1.41412 0
M  V30 3029 H 286.971 3.72889 -1.09023 0
M  V30 3030 H 288.643 2.91977 -3.57137 0
M  V30 3031 H 286.886 2.69163 -3.40197 0
M  V30 3032 H 287.557 4.32516 -3.42977 0
M  V30 3033 H 290.033 3.85727 -1.56057 0
M  V30 3034 H 288.909 5.23822 -1.64017 0
M  V30 3035 H 289.17 4.41968 -0.108068 0
M  V30 3036 N 288.23 0.939286 1.26551 0
M  V30 3037 C 289.458 0.602536 1.97932 0
M  V30 3038 C 289.873 -0.82206 1.69964 0
M  V30 3039 O 289.23 -1.54789 0.966784 0
M  V30 3040 C 289.281 0.832946 3.51773 0
M  V30 3041 O 289.002 2.20151 3.78768 0
M  V30 3042 C 290.503 0.506483 4.40397 0
M  V30 3043 H 287.723 0.227248 0.631347 0
M  V30 3044 H 290.267 1.25948 1.61113 0
M  V30 3045 H 288.422 0.222644 3.8676 0
M  V30 3046 H 288.836 2.26013 4.73306 0
M  V30 3047 H 290.31 0.718333 5.47306 0
M  V30 3048 H 290.787 -0.558451 4.35635 0
M  V30 3049 H 291.393 1.09543 4.10951 0
M  V30 3050 N 289.708 -1.40897 0.706093 0
M  V30 3051 C 290.957 -2.00284 0.238574 0
M  V30 3052 C 291.27 -1.56604 -1.17194 0
M  V30 3053 O 292.476 -2.08624 -1.73748 0
M  V30 3054 C 290.932 -3.57934 0.375623 0
M  V30 3055 C 290.54 -4.10591 1.79217 0
M  V30 3056 C 292.284 -4.24488 -0.0315857 0
M  V30 3057 C 290.191 -5.60712 1.88032 0
M  V30 3058 H 289.121 -0.749144 0.0854398 0
M  V30 3059 H 291.772 -1.61251 0.875813 0
M  V30 3060 H 290.154 -3.94622 -0.330042 0
M  V30 3061 H 291.328 -3.85301 2.52745 0
M  V30 3062 H 289.643 -3.56601 2.15 0
M  V30 3063 H 292.24 -5.34698 0.0136842 0
M  V30 3064 H 292.583 -4.02261 -1.072 0
M  V30 3065 H 293.116 -3.92873 0.624181 0
M  V30 3066 H 289.855 -5.87781 2.90161 0
M  V30 3067 H 289.375 -5.87896 1.18903 0
M  V30 3068 H 291.054 -6.25658 1.64805 0
M  V30 3069 N 291.186 -0.45159 -1.50991 0
M  V30 3070 C 292.414 0.108334 -2.06616 0
M  V30 3071 C 292.829 1.35224 -1.31757 0
M  V30 3072 O 292.186 1.78475 -0.381174 0
M  V30 3073 C 292.237 0.41619 -3.59096 0
M  V30 3074 O 291.958 -0.778361 -4.3113 0
M  V30 3075 C 293.459 1.02523 -4.31282 0
M  V30 3076 H 290.679 0.00159995 -0.670998 0
M  V30 3077 H 293.223 -0.634771 -1.94399 0
M  V30 3078 H 291.378 1.10921 -3.71181 0
M  V30 3079 H 291.792 -0.511181 -5.22003 0
M  V30 3080 H 293.266 1.19053 -5.39009 0
M  V30 3081 H 293.743 2.01013 -3.905 0
M  V30 3082 H 294.349 0.371173 -4.23677 0
M  V30 3083 N 292.664 1.56529 -0.183458 0
M  V30 3084 C 293.911 1.97244 0.458357 0
M  V30 3085 C 294.239 1.06992 1.62428 0
M  V30 3086 O 293.494 0.106542 1.9541 0
M  V30 3087 C 293.793 3.43939 0.971637 0
M  V30 3088 C 293.459 4.5083 -0.0796784 0
M  V30 3089 C 292.121 4.79786 -0.368584 0
M  V30 3090 C 294.473 5.15138 -0.792638 0
M  V30 3091 C 291.801 5.70345 -1.37563 0
M  V30 3092 C 294.153 6.06784 -1.78875 0
M  V30 3093 C 292.817 6.34102 -2.08497 0
M  V30 3094 H 292.087 0.721768 0.167725 0
M  V30 3095 H 294.734 1.89472 -0.277976 0
M  V30 3096 H 293.039 3.48724 1.78602 0
M  V30 3097 H 294.736 3.72791 1.47744 0
M  V30 3098 H 291.326 4.28317 0.155668 0
M  V30 3099 H 295.51 4.92868 -0.582659 0
M  V30 3100 H 290.766 5.89789 -1.61118 0
M  V30 3101 H 294.94 6.55677 -2.3465 0
M  V30 3102 H 292.567 7.04074 -2.86678 0
M  V30 3103 N 294.142 -0.090211 1.57342 0
M  V30 3104 C 295.39 -0.791241 1.85967 0
M  V30 3105 C 295.711 -1.7903 0.772859 0
M  V30 3106 O 294.981 -1.94872 -0.200398 0
M  V30 3107 H 293.561 -0.295205 0.686195 0
M  V30 3108 H 296.223 -0.0706782 1.94772 0
M  V30 3109 H 295.319 -1.31882 2.82867 0
M  V30 3110 N 295.62 -1.53406 -0.361157 0
M  V30 3111 C 296.848 -1.73717 -1.12383 0
M  V30 3112 C 297.263 -0.468161 -1.82904 0
M  V30 3113 O 296.62 0.559198 -1.73722 0
M  V30 3114 C 296.671 -2.90558 -2.15078 0
M  V30 3115 O 296.392 -4.12549 -1.47428 0
M  V30 3116 C 297.893 -3.22777 -3.03858 0
M  V30 3117 H 295.113 -0.580896 -0.335858 0
M  V30 3118 H 297.657 -2.00167 -0.418728 0
M  V30 3119 H 295.812 -2.66489 -2.8118 0
M  V30 3120 H 296.226 -4.78009 -2.15887 0
M  V30 3121 H 297.7 -4.07927 -3.71887 0
M  V30 3122 H 298.177 -2.38329 -3.68912 0
M  V30 3123 H 298.783 -3.48787 -2.43367 0
M  V30 3124 N 297.098 0.621204 -1.44841 0
M  V30 3125 C 298.346 1.37783 -1.47852 0
M  V30 3126 C 298.667 1.94653 -0.116224 0
M  V30 3127 O 297.937 1.76367 0.852737 0
M  V30 3128 H 296.517 0.511453 -0.544449 0
M  V30 3129 H 299.179 0.730446 -1.80694 0
M  V30 3130 H 298.275 2.20414 -2.20961 0
M  V30 3131 N 298.576 1.31904 0.862503 0
M  V30 3132 C 299.804 1.24998 1.64873 0
M  V30 3133 C 300.219 -0.183425 1.87907 0
M  V30 3134 O 299.576 -1.11794 1.44251 0
M  V30 3135 C 299.627 1.99829 3.01248 0
M  V30 3136 O 299.348 3.37575 2.79239 0
M  V30 3137 C 300.849 1.99852 3.95694 0
M  V30 3138 H 298.069 0.431599 0.513773 0
M  V30 3139 H 300.613 1.73901 1.07604 0
M  V30 3140 H 298.768 1.54668 3.55185 0
M  V30 3141 H 299.182 3.75776 3.65914 0
M  V30 3142 H 300.656 2.56709 4.88676 0
M  V30 3143 H 301.133 0.982852 4.28062 0
M  V30 3144 H 301.739 2.44926 3.47694 0
M  V30 3145 N 300.054 -1.07777 1.14986 0
M  V30 3146 C 301.331 -1.7699 0.832695 0
M  V30 3147 C 301.711 -2.001 -0.672561 0
M  V30 3148 O 301.059 -1.61598 -1.6155 0
M  V30 3149 C 301.269 -3.08139 1.63863 0
M  V30 3150 C 302.617 -3.8256 1.84208 0
M  V30 3151 O 303.641 -3.17939 1.60603 0
M  V30 3152 O 302.5 -4.98612 2.23714 0
M  V30 3153 H 299.594 -0.768389 0.305791 0
M  V30 3154 H 302.14 -1.14182 1.25541 0
M  V30 3155 H 300.912 -2.86909 2.6608 0
M  V30 3156 H 300.535 -3.78678 1.21197 0
M  V30 3157 N 301.532 -0.945985 -1.26051 0
M  V30 3158 C 302.778 -0.606539 -1.94146 0
M  V30 3159 C 303.133 0.84586 -1.72809 0
M  V30 3160 O 302.426 1.59781 -1.05738 0
M  V30 3161 C 302.62 -0.890475 -3.46129 0
M  V30 3162 C 302.449 -2.36892 -3.82246 0
M  V30 3163 C 301.219 -3.02494 -4.04753 0
M  V30 3164 C 303.417 -3.34772 -3.90425 0
M  V30 3165 N 301.399 -4.40302 -4.27794 0
M  V30 3166 C 302.77 -4.57855 -4.18054 0
M  V30 3167 C 304.825 -3.2973 -3.73072 0
M  V30 3168 C 303.528 -5.76522 -4.30134 0
M  V30 3169 C 305.554 -4.47727 -3.86386 0
M  V30 3170 C 304.916 -5.69593 -4.14419 0
M  V30 3171 H 301.015 -0.272407 -0.73302 0
M  V30 3172 H 303.599 -1.21638 -1.52027 0
M  V30 3173 H 301.77 -0.309638 -3.87164 0
M  V30 3174 H 303.502 -0.51181 -4.01451 0
M  V30 3175 H 300.257 -2.53095 -4.003 0
M  V30 3176 H 300.681 -5.11646 -4.43337 0
M  V30 3177 H 305.323 -2.36565 -3.50424 0
M  V30 3178 H 303.041 -6.70136 -4.51601 0
M  V30 3179 H 306.627 -4.45363 -3.74356 0
M  V30 3180 H 305.507 -6.59375 -4.24493 0
M  V30 3181 N 303.011 1.40521 -0.713556 0
M  V30 3182 C 304.239 2.05237 -0.261775 0
M  V30 3183 C 304.654 1.53755 1.09567 0
M  V30 3184 O 304.011 0.693268 1.6882 0
M  V30 3185 C 304.062 3.60763 -0.230706 0
M  V30 3186 O 303.783 4.10345 -1.53455 0
M  V30 3187 C 305.284 4.42651 0.239874 0
M  V30 3188 H 302.504 0.660533 -0.118057 0
M  V30 3189 H 305.048 1.79967 -0.971192 0
M  V30 3190 H 303.203 3.8501 0.429661 0
M  V30 3191 H 303.617 5.04526 -1.43366 0
M  V30 3192 H 305.091 5.51599 0.210468 0
M  V30 3193 H 305.568 4.20082 1.28171 0
M  V30 3194 H 306.174 4.23507 -0.390142 0
M  V30 3195 N 304.489 0.459591 1.5075 0
M  V30 3196 C 305.399 -0.34613 2.32033 0
M  V30 3197 C 306.415 -1.00686 1.41909 0
M  V30 3198 O 307.591 -0.997361 1.7497 0
M  V30 3199 C 304.656 -1.42029 3.16273 0
M  V30 3200 C 303.717 -0.777362 4.22203 0
M  V30 3201 C 302.95 -1.80034 5.02418 0
M  V30 3202 O 303.173 -3.02544 4.83553 0
M  V30 3203 O 302.107 -1.37853 5.85901 0
M  V30 3204 H 305.933 0.318054 3.0203 0
M  V30 3205 H 303.518 0.221663 1.47746 0
M  V30 3206 H 305.4 -2.04275 3.68578 0
M  V30 3207 H 304.075 -2.06815 2.49016 0
M  V30 3208 H 302.982 -0.116256 3.73919 0
M  V30 3209 H 304.315 -0.172634 4.91897 0
M  V30 3210 N 305.967 -1.56429 0.191757 0
M  V30 3211 C 307.383 -1.58754 -0.164137 0
M  V30 3212 C 307.583 -1.20782 -1.61288 0
M  V30 3213 O 306.639 -0.928999 -2.34789 0
M  V30 3214 C 307.952 -3.00396 0.135195 0
M  V30 3215 C 309.5 -3.1291 0.0750351 0
M  V30 3216 C 309.975 -4.56679 0.347632 0
M  V30 3217 N 311.466 -4.62252 0.296131 0
M  V30 3218 C 312.201 -5.71379 0.480948 0
M  V30 3219 N 311.697 -6.88986 0.725933 0
M  V30 3220 N 313.49 -5.60563 0.415435 0
M  V30 3221 H 305.641 -1.79393 1.13718 0
M  V30 3222 H 307.904 -0.832414 0.453643 0
M  V30 3223 H 307.61 -3.32726 1.13958 0
M  V30 3224 H 307.484 -3.72963 -0.563773 0
M  V30 3225 H 309.871 -2.80394 -0.919948 0
M  V30 3226 H 309.952 -2.42736 0.807029 0
M  V30 3227 H 309.596 -4.89907 1.33992 0
M  V30 3228 H 309.526 -5.25039 -0.405212 0
M  V30 3229 H 312.017 -3.7773 0.113259 0
M  V30 3230 H 312.33 -7.68046 0.855857 0
M  V30 3231 H 310.675 -6.90801 0.762788 0
M  V30 3232 H 313.866 -4.67561 0.224486 0
M  V30 3233 H 314.039 -6.45551 0.562889 0
M  V30 3234 N 307.445 0.0818655 -1.57387 0
M  V30 3235 C 308.378 1.12986 -1.98266 0
M  V30 3236 C 309.356 1.38123 -0.857954 0
M  V30 3237 O 310.54 1.51663 -1.1194 0
M  V30 3238 C 307.667 2.47632 -2.31076 0
M  V30 3239 C 306.713 2.38693 -3.53452 0
M  V30 3240 S 307.546 1.79071 -5.04672 0
M  V30 3241 C 308.702 3.15316 -5.40673 0
M  V30 3242 H 308.935 0.781435 -2.86846 0
M  V30 3243 H 306.468 0.290034 -1.51651 0
M  V30 3244 H 308.426 3.25089 -2.50654 0
M  V30 3245 H 307.087 2.79638 -1.43043 0
M  V30 3246 H 306.28 3.37964 -3.73893 0
M  V30 3247 H 305.882 1.69369 -3.33452 0
M  V30 3248 H 308.174 4.11613 -5.38127 0
M  V30 3249 H 309.117 2.99664 -6.41566 0
M  V30 3250 H 309.525 3.15457 -4.68132 0
M  V30 3251 N 308.923 1.53595 0.353017 0
M  V30 3252 C 310.172 1.69603 1.09168 0
M  V30 3253 C 310.485 0.460925 1.90092 0
M  V30 3254 O 311.691 0.501774 2.66823 0
M  V30 3255 C 310.147 2.99872 1.9901 0
M  V30 3256 C 309.755 4.30687 1.23339 0
M  V30 3257 C 311.499 3.25246 2.72792 0
M  V30 3258 C 309.406 5.52036 2.12156 0
M  V30 3259 H 308.336 0.631966 0.411261 0
M  V30 3260 H 310.987 1.80096 0.351802 0
M  V30 3261 H 309.369 2.83212 2.7678 0
M  V30 3262 H 310.543 4.58019 0.505456 0
M  V30 3263 H 308.858 4.11853 0.613663 0
M  V30 3264 H 311.455 4.13095 3.39495 0
M  V30 3265 H 311.798 2.41846 3.38846 0
M  V30 3266 H 312.331 3.42638 2.021 0
M  V30 3267 H 309.07 6.37951 1.50659 0
M  V30 3268 H 308.59 5.28966 2.82764 0
M  V30 3269 H 310.269 5.87313 2.71427 0
M  V30 3270 N 310.401 -0.613514 1.45168 0
M  V30 3271 C 311.333 -1.73825 1.4939 0
M  V30 3272 C 312.346 -1.58175 0.385304 0
M  V30 3273 O 313.535 -1.66165 0.652036 0
M  V30 3274 C 310.635 -3.11758 1.32891 0
M  V30 3275 C 309.808 -3.53704 2.57317 0
M  V30 3276 C 308.867 -4.70579 2.35462 0
M  V30 3277 O 307.893 -4.77996 3.09044 0
M  V30 3278 N 309.095 -5.63454 1.39644 0
M  V30 3279 H 311.86 -1.70669 2.46358 0
M  V30 3280 H 309.421 -0.79862 1.40832 0
M  V30 3281 H 311.413 -3.87692 1.1609 0
M  V30 3282 H 309.983 -3.09456 0.442218 0
M  V30 3283 H 309.203 -2.67794 2.89275 0
M  V30 3284 H 310.491 -3.78486 3.40038 0
M  V30 3285 H 309.889 -5.6017 0.789062 0
M  V30 3286 H 308.446 -6.38944 1.28816 0
M  V30 3287 N 311.879 -1.3236 -0.855495 0
M  V30 3288 C 312.826 -1.21225 -1.964 0
M  V30 3289 C 313.796 -0.0946204 -1.6583 0
M  V30 3290 O 314.981 -0.27002 -1.8888 0
M  V30 3291 C 312.121 -0.940419 -3.32039 0
M  V30 3292 C 311.234 -2.14276 -3.75113 0
M  V30 3293 C 310.369 -1.80648 -4.9954 0
M  V30 3294 C 309.408 -2.97208 -5.35102 0
M  V30 3295 N 308.545 -2.63678 -6.50706 0
M  V30 3296 H 313.385 -2.16042 -2.05255 0
M  V30 3297 H 310.922 -1.07451 -1.00463 0
M  V30 3298 H 312.88 -0.763311 -4.10158 0
M  V30 3299 H 311.51 -0.0290413 -3.22787 0
M  V30 3300 H 310.562 -2.43017 -2.92655 0
M  V30 3301 H 311.874 -3.01468 -3.97389 0
M  V30 3302 H 311.028 -1.59484 -5.85363 0
M  V30 3303 H 309.767 -0.906678 -4.79198 0
M  V30 3304 H 308.772 -3.19004 -4.47791 0
M  V30 3305 H 309.997 -3.87918 -5.57401 0
M  V30 3306 H 307.943 -1.76238 -6.31883 0
M  V30 3307 H 307.86 -3.444 -6.72997 0
M  V30 3308 H 309.128 -2.45942 -7.39684 0
M  V30 3309 N 313.357 1.07166 -1.15556 0
M  V30 3310 C 314.32 2.12589 -0.856644 0
M  V30 3311 C 315.32 1.6015 0.14444 0
M  V30 3312 O 316.51 1.7399 -0.0854163 0
M  V30 3313 C 313.642 3.39753 -0.279405 0
M  V30 3314 H 314.835 2.40539 -1.79112 0
M  V30 3315 H 312.388 1.23086 -0.963298 0
M  V30 3316 H 313.123 3.17447 0.663174 0
M  V30 3317 H 312.908 3.79117 -1.00063 0
M  V30 3318 H 314.398 4.17507 -0.0879113 0
M  V30 3319 N 314.835 0.952656 1.25548 0
M  V30 3320 C 316.084 0.602053 1.92505 0
M  V30 3321 C 316.397 -0.864663 1.75451 0
M  V30 3322 O 317.603 -1.32514 2.36965 0
M  V30 3323 C 316.059 1.02607 3.44963 0
M  V30 3324 C 315.667 2.51519 3.70732 0
M  V30 3325 C 317.411 0.747905 4.1786 0
M  V30 3326 C 315.318 2.87732 5.16686 0
M  V30 3327 H 314.248 0.22146 0.720744 0
M  V30 3328 H 316.899 1.15684 1.42441 0
M  V30 3329 H 315.281 0.399712 3.93978 0
M  V30 3330 H 316.455 3.19157 3.32378 0
M  V30 3331 H 314.77 2.76786 3.11092 0
M  V30 3332 H 317.367 0.994647 5.25367 0
M  V30 3333 H 317.71 -0.315629 4.15102 0
M  V30 3334 H 318.243 1.33452 3.74747 0
M  V30 3335 H 314.982 3.93095 5.24554 0
M  V30 3336 H 314.502 2.24765 5.56094 0
M  V30 3337 H 316.181 2.76817 5.84792 0
M  V30 3338 N 316.313 -1.40141 0.720998 0
M  V30 3339 C 317.243 -2.33339 0.0867621 0
M  V30 3340 C 318.224 -1.53178 -0.739622 0
M  V30 3341 O 319.409 -1.81625 -0.687449 0
M  V30 3342 C 316.539 -3.37194 -0.831728 0
M  V30 3343 C 315.493 -4.27857 -0.110558 0
M  V30 3344 C 314.819 -5.22294 -1.14513 0
M  V30 3345 C 316.119 -5.11872 1.0385 0
M  V30 3346 H 317.813 -2.86626 0.865219 0
M  V30 3347 H 315.359 -1.37814 0.417516 0
M  V30 3348 H 317.312 -4.01335 -1.28485 0
M  V30 3349 H 316.036 -2.82314 -1.64214 0
M  V30 3350 H 314.695 -3.65176 0.322797 0
M  V30 3351 H 314.343 -4.63717 -1.94874 0
M  V30 3352 H 314.043 -5.83797 -0.667446 0
M  V30 3353 H 315.567 -5.89312 -1.59824 0
M  V30 3354 H 316.981 -5.69436 0.664482 0
M  V30 3355 H 315.378 -5.82445 1.4449 0
M  V30 3356 H 316.448 -4.4753 1.86668 0
M  V30 3357 N 317.792 -0.46758 -1.50504 0
M  V30 3358 C 318.739 0.328413 -2.28452 0
M  V30 3359 C 319.709 0.990313 -1.33349 0
M  V30 3360 O 320.894 1.00343 -1.62284 0
M  V30 3361 C 318.034 1.40648 -3.15138 0
M  V30 3362 C 317.147 0.759709 -4.25267 0
M  V30 3363 C 316.282 1.81537 -4.99217 0
M  V30 3364 C 315.321 1.14866 -6.01226 0
M  V30 3365 N 314.458 2.14702 -6.68467 0
M  V30 3366 H 319.298 -0.342603 -2.96024 0
M  V30 3367 H 316.835 -0.180801 -1.45985 0
M  V30 3368 H 318.793 2.04315 -3.63746 0
M  V30 3369 H 317.423 2.04671 -2.49619 0
M  V30 3370 H 316.475 0.0105671 -3.80399 0
M  V30 3371 H 317.787 0.233243 -4.98254 0
M  V30 3372 H 316.941 2.52793 -5.51526 0
M  V30 3373 H 315.68 2.37564 -4.25928 0
M  V30 3374 H 314.685 0.42171 -5.4818 0
M  V30 3375 H 315.91 0.595334 -6.76485 0
M  V30 3376 H 313.856 2.69752 -5.97972 0
M  V30 3377 H 313.773 1.6703 -7.37317 0
M  V30 3378 H 315.041 2.85348 -7.25394 0
M  V30 3379 N 319.27 1.56325 -0.20005 0
M  V30 3380 C 320.218 2.20666 0.735482 0
M  V30 3381 C 321.212 1.17934 1.21605 0
M  V30 3382 O 322.418 1.36068 1.17837 0
M  V30 3383 H 318.793 0.70725 0.255542 0
M  V30 3384 H 320.764 2.9792 0.169166 0
M  V30 3385 C 319.513 2.88391 1.94232 0
M  V30 3386 H 318.836 3.67185 1.58161 0
M  V30 3387 H 320.276 3.3684 2.57517 0
M  V30 3388 C 318.735 1.89692 2.78421 0
M  V30 3389 O 319.265 1.40032 3.76502 0
M  V30 3390 N 317.471 1.57813 2.44015 0
M  V30 3391 H 317.018 1.9839 1.64314 0
M  V30 3392 H 316.976 0.920325 3.00628 0
M  V30 3393 N 320.748 -0.0735177 1.57428 0
M  V30 3394 C 322.164 -0.428264 1.53747 0
M  V30 3395 C 322.364 -1.79272 0.91998 0
M  V30 3396 O 321.42 -2.47051 0.521745 0
M  V30 3397 C 322.733 -0.370914 2.98404 0
M  V30 3398 C 324.281 -0.451224 3.0973 0
M  V30 3399 C 324.756 -0.4238 4.56035 0
M  V30 3400 N 326.247 -0.483925 4.60665 0
M  V30 3401 C 326.982 -0.484891 5.71346 0
M  V30 3402 N 326.478 -0.440775 6.91396 0
M  V30 3403 N 328.271 -0.531319 5.59583 0
M  V30 3404 H 320.422 0.819949 1.95935 0
M  V30 3405 H 322.685 0.307493 0.896745 0
M  V30 3406 H 322.391 0.564956 3.47133 0
M  V30 3407 H 322.265 -1.18176 3.5821 0
M  V30 3408 H 324.652 -1.37752 2.60976 0
M  V30 3409 H 324.733 0.388167 2.52838 0
M  V30 3410 H 324.377 0.498638 5.05446 0
M  V30 3411 H 324.307 -1.2807 5.10789 0
M  V30 3412 H 326.798 -0.522338 3.74273 0
M  V30 3413 H 327.111 -0.44539 7.71515 0
M  V30 3414 H 325.456 -0.40749 6.93804 0
M  V30 3415 H 328.647 -0.563464 4.64696 0
M  V30 3416 H 328.82 -0.528603 6.4584 0
M  V30 3417 N 322.226 -1.5378 -0.344866 0
M  V30 3418 C 323.475 -1.7018 -1.08267 0
M  V30 3419 C 323.788 -0.471 -1.89845 0
M  V30 3420 O 324.994 -0.515917 -2.66553 0
M  V30 3421 C 323.45 -3.00923 -1.97417 0
M  V30 3422 C 323.058 -4.31335 -1.21053 0
M  V30 3423 C 324.802 -3.26688 -2.71063 0
M  V30 3424 C 322.709 -5.53153 -2.09225 0
M  V30 3425 H 321.639 -0.634138 -0.407903 0
M  V30 3426 H 324.29 -1.8028 -0.342246 0
M  V30 3427 H 322.672 -2.84676 -2.75274 0
M  V30 3428 H 323.846 -4.58281 -0.481159 0
M  V30 3429 H 322.161 -4.12173 -0.591813 0
M  V30 3430 H 324.758 -4.1489 -3.37299 0
M  V30 3431 H 325.101 -2.43639 -3.37558 0
M  V30 3432 H 325.634 -3.43705 -2.0028 0
M  V30 3433 H 322.373 -6.38741 -1.47274 0
M  V30 3434 H 321.893 -5.30458 -2.79955 0
M  V30 3435 H 323.572 -5.88744 -2.68308 0
M  V30 3436 N 323.704 0.605807 -1.45491 0
M  V30 3437 C 324.651 1.7164 -1.54299 0
M  V30 3438 C 325.621 1.61486 -0.388761 0
M  V30 3439 O 326.806 1.81039 -0.602445 0
M  V30 3440 C 323.946 3.09953 -1.51734 0
M  V30 3441 C 323.059 3.309 -2.77721 0
M  V30 3442 C 322.194 4.59329 -2.66816 0
M  V30 3443 C 321.233 4.7354 -3.87848 0
M  V30 3444 N 320.37 5.9327 -3.75467 0
M  V30 3445 H 325.21 1.63449 -2.49176 0
M  V30 3446 H 322.747 0.796957 -1.23641 0
M  V30 3447 H 324.705 3.89977 -1.48235 0
M  V30 3448 H 323.335 3.17098 -0.604068 0
M  V30 3449 H 322.387 2.44639 -2.913 0
M  V30 3450 H 323.699 3.37274 -3.67488 0
M  V30 3451 H 322.853 5.4755 -2.61292 0
M  V30 3452 H 321.592 4.55355 -1.74651 0
M  V30 3453 H 320.597 3.83741 -3.93729 0
M  V30 3454 H 321.822 4.79309 -4.81082 0
M  V30 3455 H 319.768 5.90338 -2.86072 0
M  V30 3456 H 319.685 6.00811 -4.5887 0
M  V30 3457 H 320.953 6.83984 -3.73879 0
M  V30 3458 N 325.182 1.32811 0.848464 0
M  V30 3459 C 326.43 1.23479 1.59991 0
M  V30 3460 C 326.751 -0.201853 1.93952 0
M  V30 3461 O 326.021 -1.12818 1.60153 0
M  V30 3462 H 324.601 0.454034 0.593179 0
M  V30 3463 H 327.263 1.66412 1.01455 0
M  V30 3464 H 326.359 1.82178 2.53412 0
M  V30 3465 N 326.66 -1.06551 1.16123 0
M  V30 3466 C 327.59 -2.15935 0.88851 0
M  V30 3467 C 328.571 -1.69306 -0.164135 0
M  V30 3468 O 329.756 -1.94193 -0.0167857 0
M  V30 3469 C 326.886 -3.45149 0.385942 0
M  V30 3470 C 325.84 -4.05271 1.3762 0
M  V30 3471 C 325.166 -5.29664 0.732137 0
M  V30 3472 C 326.466 -4.44355 2.74493 0
M  V30 3473 H 328.16 -2.39006 1.80323 0
M  V30 3474 H 325.706 -1.14866 0.868435 0
M  V30 3475 H 327.659 -4.21004 0.182647 0
M  V30 3476 H 326.383 -3.21689 -0.564274 0
M  V30 3477 H 325.042 -3.3147 1.56599 0
M  V30 3478 H 324.69 -5.02499 -0.224483 0
M  V30 3479 H 324.39 -5.70848 1.39307 0
M  V30 3480 H 325.914 -6.08218 0.538802 0
M  V30 3481 H 327.328 -5.11303 2.59311 0
M  V30 3482 H 325.725 -4.96515 3.37035 0
M  V30 3483 H 326.795 -3.55339 3.29943 0
M  V30 3484 N 328.138 -0.959301 -1.25041 0
M  V30 3485 C 329.386 -0.615393 -1.92503 0
M  V30 3486 C 329.707 0.850969 -1.75452 0
M  V30 3487 O 328.977 1.60658 -1.12098 0
M  V30 3488 H 327.557 -0.224613 -0.712431 0
M  V30 3489 H 330.219 -1.21855 -1.5211 0
M  V30 3490 H 329.315 -0.848738 -3.00338 0
M  V30 3491 N 329.616 1.39756 -0.72842 0
M  V30 3492 C 331.032 1.5442 -0.403308 0
M  V30 3493 C 331.232 1.69694 1.08656 0
M  V30 3494 O 330.288 1.69373 1.87267 0
M  V30 3495 C 331.601 2.76555 -1.18058 0
M  V30 3496 C 333.149 2.90384 -1.16815 0
M  V30 3497 C 333.624 4.15449 -1.92785 0
M  V30 3498 N 335.115 4.22475 -1.89918 0
M  V30 3499 C 335.85 5.1818 -2.45514 0
M  V30 3500 N 335.346 6.19714 -3.09719 0
M  V30 3501 N 337.139 5.1035 -2.35584 0
M  V30 3502 H 329.29 1.28089 -1.69431 0
M  V30 3503 H 331.553 0.620327 -0.716867 0
M  V30 3504 H 331.259 2.7159 -2.23455 0
M  V30 3505 H 331.133 3.69033 -0.780662 0
M  V30 3506 H 333.52 2.94846 -0.12234 0
M  V30 3507 H 333.601 1.98988 -1.6074 0
M  V30 3508 H 333.245 4.11749 -2.97364 0
M  V30 3509 H 333.175 5.05877 -1.46272 0
M  V30 3510 H 335.666 3.49743 -1.43138 0
M  V30 3511 H 335.979 6.8919 -3.49625 0
M  V30 3512 H 334.324 6.20121 -3.13807 0
M  V30 3513 H 337.515 4.2996 -1.85072 0
M  V30 3514 H 337.688 5.84761 -2.79211 0
M  V30 3515 N 331.094 0.475555 1.50254 0
M  V30 3516 C 332.371 -0.139685 1.95101 0
M  V30 3517 C 332.751 -1.56555 1.41611 0
M  V30 3518 O 332.099 -2.19956 0.618993 0
M  V30 3519 C 332.309 -0.0784298 3.48912 0
M  V30 3520 C 333.657 -0.265095 4.23772 0
M  V30 3521 O 334.681 -0.154808 3.55863 0
M  V30 3522 O 333.54 -0.488327 5.44314 0
M  V30 3523 H 330.634 -0.109236 0.819754 0
M  V30 3524 H 333.18 0.536276 1.61004 0
M  V30 3525 H 331.952 0.916918 3.80405 0
M  V30 3526 H 331.575 -0.795655 3.89558 0
M  V30 3527 N 332.573 -1.56217 0.208337 0
M  V30 3528 C 333.821 -1.97558 -0.426076 0
M  V30 3529 C 334.142 -1.09683 -1.61229 0
M  V30 3530 O 333.412 -0.170956 -1.95153 0
M  V30 3531 H 331.992 -0.729575 -0.160405 0
M  V30 3532 H 334.654 -1.92606 0.298155 0
M  V30 3533 H 333.75 -3.02672 -0.761312 0
M  V30 3534 N 334.051 0.0651679 -1.57465 0
M  V30 3535 C 335.3 0.761916 -1.86756 0
M  V30 3536 C 335.613 1.78406 -0.801925 0
M  V30 3537 O 336.819 2.53084 -0.982885 0
M  V30 3538 C 335.275 1.40603 -3.31299 0
M  V30 3539 C 334.883 0.422115 -4.46007 0
M  V30 3540 C 336.627 2.08476 -3.69781 0
M  V30 3541 C 334.534 1.07252 -5.81593 0
M  V30 3542 H 333.464 0.288308 -0.696702 0
M  V30 3543 H 336.115 0.015344 -1.83494 0
M  V30 3544 H 334.497 2.20109 -3.29193 0
M  V30 3545 H 335.671 -0.343613 -4.59517 0
M  V30 3546 H 333.986 -0.152527 -4.16121 0
M  V30 3547 H 336.583 2.57925 -4.68379 0
M  V30 3548 H 336.926 2.88712 -2.99919 0
M  V30 3549 H 337.459 1.35792 -3.73905 0
M  V30 3550 H 334.198 0.310342 -6.54765 0
M  V30 3551 H 333.718 1.80895 -5.71872 0
M  V30 3552 H 335.397 1.59043 -6.27148 0
M  V30 3553 N 335.529 1.53961 0.336706 0
M  V30 3554 C 336.757 1.75483 1.09605 0
M  V30 3555 C 337.172 0.4972 1.82136 0
M  V30 3556 O 336.529 -0.53149 1.74589 0
M  V30 3557 C 336.58 2.93943 2.10428 0
M  V30 3558 O 336.301 4.14842 1.40846 0
M  V30 3559 C 337.802 3.27571 2.98684 0
M  V30 3560 H 335.022 0.586166 0.326574 0
M  V30 3561 H 337.566 2.00808 0.38683 0
M  V30 3562 H 335.721 2.70929 2.76905 0
M  V30 3563 H 336.135 4.81383 2.08255 0
M  V30 3564 H 337.609 4.13791 3.6535 0
M  V30 3565 H 338.086 2.44168 3.65074 0
M  V30 3566 H 338.692 3.52615 2.37787 0
M  V30 3567 N 337.007 -0.598083 1.45811 0
M  V30 3568 C 338.418 -1.18011 1.44673 0
M  V30 3569 C 338.769 -1.95378 0.179364 0
M  V30 3570 O 337.894 -2.04124 -0.718509 0
M  V30 3571 C 338.489 -2.14677 2.62105 0
M  V30 3572 C 337.048 -2.68236 2.64057 0
M  V30 3573 C 336.195 -1.43816 2.37091 0
M  V30 3574 H 339.146 -0.38686 1.53913 0
M  V30 3575 H 339.167 -2.97878 2.36746 0
M  V30 3576 H 338.679 -1.5834 3.5433 0
M  V30 3577 H 336.78 -3.28486 1.75864 0
M  V30 3578 H 336.893 -3.12021 3.63566 0
M  V30 3579 H 335.257 -1.731 1.86838 0
M  V30 3580 H 336.04 -0.893333 3.31473 0
M  V30 3581 N 338.485 -1.33259 -0.841409 0
M  V30 3582 C 339.734 -1.23921 -1.59143 0
M  V30 3583 C 340.047 0.1941 -1.94635 0
M  V30 3584 O 341.253 0.409474 -2.68394 0
M  V30 3585 C 339.709 -2.17119 -2.87032 0
M  V30 3586 C 339.317 -3.65606 -2.58914 0
M  V30 3587 C 341.061 -2.16648 -3.65053 0
M  V30 3588 C 338.968 -4.50726 -3.82884 0
M  V30 3589 H 337.898 -0.460264 -0.597221 0
M  V30 3590 H 340.549 -1.58307 -0.927959 0
M  V30 3591 H 338.931 -1.75663 -3.54906 0
M  V30 3592 H 340.105 -4.15487 -1.99267 0
M  V30 3593 H 338.42 -3.68341 -1.942 0
M  V30 3594 H 341.017 -2.77474 -4.57069 0
M  V30 3595 H 341.36 -1.16088 -3.99787 0
M  V30 3596 H 341.893 -2.56453 -3.041 0
M  V30 3597 H 338.632 -5.52151 -3.53283 0
M  V30 3598 H 338.152 -4.0559 -4.41879 0
M  V30 3599 H 339.831 -4.64401 -4.50489 0
M  V30 3600 N 339.963 1.05934 -1.16686 0
M  V30 3601 C 341.21 1.788 -0.950622 0
M  V30 3602 C 341.538 1.87384 0.521305 0
M  V30 3603 O 340.793 1.36438 1.40297 0
M  V30 3604 C 341.092 3.23105 -1.52767 0
M  V30 3605 C 340.758 3.34594 -3.02254 0
M  V30 3606 C 339.42 3.37437 -3.43059 0
M  V30 3607 C 341.772 3.36219 -3.98254 0
M  V30 3608 C 339.1 3.39525 -4.78477 0
M  V30 3609 C 341.452 3.39845 -5.33562 0
M  V30 3610 C 340.116 3.40971 -5.73842 0
M  V30 3611 H 339.386 0.654275 -0.347857 0
M  V30 3612 H 342.033 1.24555 -1.45459 0
M  V30 3613 H 340.338 3.80227 -0.94524 0
M  V30 3614 H 342.035 3.7809 -1.336 0
M  V30 3615 H 338.625 3.3309 -2.6972 0
M  V30 3616 H 342.809 3.33231 -3.67792 0
M  V30 3617 H 338.065 3.38703 -5.09009 0
M  V30 3618 H 342.239 3.4005 -6.07733 0
M  V30 3619 H 339.866 3.42342 -6.78753 0
M  V30 3620 N 341.441 0.965919 1.2453 0
M  V30 3621 C 342.852 0.665929 1.7442 0
M  V30 3622 C 343.203 -0.818407 1.78316 0
M  V30 3623 O 342.328 -1.64037 1.41141 0
M  V30 3624 C 342.923 1.20211 3.16757 0
M  V30 3625 C 341.482 0.952059 3.6416 0
M  V30 3626 C 340.629 1.33848 2.42858 0
M  V30 3627 H 343.58 1.14144 1.10258 0
M  V30 3628 H 343.601 0.567544 3.76244 0
M  V30 3629 H 343.113 2.28244 3.13889 0
M  V30 3630 H 341.214 -0.112821 3.72429 0
M  V30 3631 H 341.327 1.59645 4.51719 0
M  V30 3632 H 339.691 0.756864 2.43195 0
M  V30 3633 H 340.474 2.42827 2.42673 0
M  V30 3634 N 342.919 -1.39368 0.735821 0
M  V30 3635 C 343.866 -2.30599 0.0963825 0
M  V30 3636 C 344.836 -1.49257 -0.728794 0
M  V30 3637 O 346.021 -1.77941 -0.688588 0
M  V30 3638 C 343.161 -3.35596 -0.804305 0
M  V30 3639 C 342.274 -4.31987 0.0335761 0
M  V30 3640 C 341.409 -5.24053 -0.868461 0
M  V30 3641 C 340.448 -6.12095 -0.0258776 0
M  V30 3642 N 339.585 -6.96514 -0.883893 0
M  V30 3643 H 344.425 -2.8471 0.880002 0
M  V30 3644 H 341.962 -1.40188 0.445619 0
M  V30 3645 H 343.92 -3.95062 -1.34096 0
M  V30 3646 H 342.55 -2.82938 -1.55389 0
M  V30 3647 H 341.602 -3.74133 0.68766 0
M  V30 3648 H 342.914 -4.94074 0.685036 0
M  V30 3649 H 342.068 -5.88549 -1.47293 0
M  V30 3650 H 340.807 -4.62289 -1.5537 0
M  V30 3651 H 339.812 -5.4661 0.591386 0
M  V30 3652 H 341.037 -6.75923 0.656156 0
M  V30 3653 H 338.983 -6.37318 -1.55441 0
M  V30 3654 H 338.9 -7.55448 -0.288931 0
M  V30 3655 H 340.168 -7.65439 -1.4739 0
M  V30 3656 N 344.397 -0.483516 -1.5 0
M  V30 3657 C 345.327 0.293829 -2.31644 0
M  V30 3658 C 346.308 0.978864 -1.39112 0
M  V30 3659 O 347.493 0.973644 -1.68029 0
M  V30 3660 C 344.623 1.36897 -3.19181 0
M  V30 3661 C 343.577 0.804833 -4.20365 0
M  V30 3662 C 342.903 1.9792 -4.96721 0
M  V30 3663 C 344.203 -0.192313 -5.21946 0
M  V30 3664 H 345.897 -0.387616 -2.9688 0
M  V30 3665 H 343.443 -0.187856 -1.42769 0
M  V30 3666 H 345.396 1.92037 -3.751 0
M  V30 3667 H 344.12 2.07936 -2.51853 0
M  V30 3668 H 342.779 0.275319 -3.65565 0
M  V30 3669 H 342.427 2.67686 -4.25856 0
M  V30 3670 H 342.127 1.60789 -5.65173 0
M  V30 3671 H 343.651 2.53526 -5.55479 0
M  V30 3672 H 345.065 0.270333 -5.72662 0
M  V30 3673 H 343.462 -0.478543 -5.98189 0
M  V30 3674 H 344.532 -1.11409 -4.71928 0
M  V30 3675 N 345.875 1.56104 -0.216619 0
M  V30 3676 C 347.121 1.98466 0.417033 0
M  V30 3677 C 347.454 1.10403 1.59765 0
M  V30 3678 O 346.729 0.160632 1.93836 0
M  V30 3679 C 347.012 3.49769 0.85637 0
M  V30 3680 C 346.865 4.48606 -0.327546 0
M  V30 3681 C 348.184 4.05339 1.7143 0
M  V30 3682 H 345.303 0.721551 0.150112 0
M  V30 3683 H 347.945 1.87423 -0.311864 0
M  V30 3684 H 346.095 3.5931 1.47745 0
M  V30 3685 H 347.767 4.5108 -0.965618 0
M  V30 3686 H 346.01 4.22682 -0.975805 0
M  V30 3687 H 346.681 5.51995 0.0227149 0
M  V30 3688 H 349.157 3.98712 1.19031 0
M  V30 3689 H 348.033 5.11533 1.99061 0
M  V30 3690 H 348.294 3.51918 2.67593 0
M  V30 3691 N 347.353 -0.0568162 1.57498 0
M  V30 3692 C 348.286 -1.09817 2.00039 0
M  V30 3693 C 349.264 -1.3674 0.879819 0
M  V30 3694 O 350.448 -1.49863 1.14338 0
M  V30 3695 C 347.575 -2.43924 2.34986 0
M  V30 3696 C 346.621 -2.33039 3.57204 0
M  V30 3697 S 347.454 -1.7102 5.07457 0
M  V30 3698 C 348.61 -3.06674 5.45621 0
M  V30 3699 H 348.843 -0.735701 2.88053 0
M  V30 3700 H 346.376 -0.265871 1.52094 0
M  V30 3701 H 348.334 -3.2106 2.55795 0
M  V30 3702 H 346.995 -2.77327 1.47474 0
M  V30 3703 H 346.188 -3.31973 3.79223 0
M  V30 3704 H 345.79 -1.64043 3.36104 0
M  V30 3705 H 348.082 -4.03 5.44608 0
M  V30 3706 H 349.025 -2.8942 6.46252 0
M  V30 3707 H 349.433 -3.07969 4.73091 0
M  V30 3708 N 348.832 -1.54138 -0.328536 0
M  V30 3709 C 350.079 -1.72105 -1.06706 0
M  V30 3710 C 350.407 -0.492111 -1.88171 0
M  V30 3711 O 349.662 0.526153 -1.88494 0
M  V30 3712 C 349.961 -2.9457 -2.02393 0
M  V30 3713 C 349.627 -4.29544 -1.37122 0
M  V30 3714 C 348.289 -4.6624 -1.19052 0
M  V30 3715 C 350.641 -5.1333 -0.902331 0
M  V30 3716 C 347.969 -5.84325 -0.527331 0
M  V30 3717 C 350.321 -6.32094 -0.252988 0
M  V30 3718 C 348.985 -6.67473 -0.0600901 0
M  V30 3719 H 348.255 -0.629775 -0.390466 0
M  V30 3720 H 350.902 -1.88372 -0.34473 0
M  V30 3721 H 349.207 -2.72969 -2.81061 0
M  V30 3722 H 350.904 -3.05665 -2.59557 0
M  V30 3723 H 347.494 -4.0067 -1.52188 0
M  V30 3724 H 351.678 -4.855 -1.02974 0
M  V30 3725 H 346.934 -6.103 -0.366634 0
M  V30 3726 H 351.108 -6.96299 0.118366 0
M  V30 3727 H 348.735 -7.58832 0.455828 0
M  V30 3728 N 350.31 0.590341 -1.46126 0
M  V30 3729 C 351.556 1.35082 -1.51264 0
M  V30 3730 C 351.889 1.93534 -0.160711 0
M  V30 3731 O 351.164 1.76045 0.826956 0
M  V30 3732 C 351.447 2.48588 -2.6053 0
M  V30 3733 C 351.3 1.95221 -4.05227 0
M  V30 3734 C 352.619 3.50662 -2.6594 0
M  V30 3735 H 349.738 0.489803 -0.550692 0
M  V30 3736 H 352.38 0.663887 -1.78024 0
M  V30 3737 H 350.53 3.07186 -2.37843 0
M  V30 3738 H 352.202 1.41139 -4.39178 0
M  V30 3739 H 350.445 1.26101 -4.15068 0
M  V30 3740 H 351.116 2.77121 -4.77397 0
M  V30 3741 H 353.592 3.01934 -2.86313 0
M  V30 3742 H 352.468 4.27551 -3.44226 0
M  V30 3743 H 352.729 4.07399 -1.71694 0
M  V30 3744 N 351.788 1.33704 0.83433 0
M  V30 3745 C 352.698 1.26382 1.97648 0
M  V30 3746 C 353.714 0.173548 1.73132 0
M  V30 3747 O 354.89 0.397962 1.97429 0
M  V30 3748 C 351.955 1.00769 3.31733 0
M  V30 3749 C 351.016 2.1884 3.69334 0
M  V30 3750 C 350.249 1.9444 4.9702 0
M  V30 3751 O 350.472 0.896961 5.63303 0
M  V30 3752 O 349.406 2.81093 5.32231 0
M  V30 3753 H 353.232 2.22444 2.06767 0
M  V30 3754 H 350.817 1.13795 0.968037 0
M  V30 3755 H 352.699 0.882186 4.12062 0
M  V30 3756 H 351.374 0.0773783 3.23608 0
M  V30 3757 H 350.281 2.36946 2.89495 0
M  V30 3758 H 351.614 3.10221 3.82131 0
M  V30 3759 N 353.266 -1.05314 1.17247 0
M  V30 3760 C 354.176 -2.16538 0.90268 0
M  V30 3761 C 355.192 -1.73523 -0.128707 0
M  V30 3762 O 356.368 -2.01337 0.0502701 0
M  V30 3763 C 353.433 -3.44167 0.418356 0
M  V30 3764 C 352.494 -4.01635 1.51618 0
M  V30 3765 C 351.727 -5.23171 1.05487 0
M  V30 3766 O 351.95 -5.70327 -0.0914715 0
M  V30 3767 O 350.884 -5.72848 1.8474 0
M  V30 3768 H 354.71 -2.42145 1.83302 0
M  V30 3769 H 352.295 -1.15037 0.953246 0
M  V30 3770 H 354.177 -4.21112 0.155726 0
M  V30 3771 H 352.852 -3.20063 -0.48385 0
M  V30 3772 H 351.759 -3.26135 1.83268 0
M  V30 3773 H 353.092 -4.30053 2.39405 0
M  V30 3774 N 354.744 -0.972509 -1.24016 0
M  V30 3775 C 355.992 -0.635776 -1.91839 0
M  V30 3776 C 356.313 0.832312 -1.76345 0
M  V30 3777 O 355.583 1.5946 -1.13795 0
M  V30 3778 H 354.163 -0.232157 -0.710009 0
M  V30 3779 H 356.825 -1.23462 -1.50809 0
M  V30 3780 H 355.921 -0.880545 -2.99421 0
M  V30 3781 N 356.222 1.38976 -0.743202 0
M  V30 3782 C 357.468 2.0064 -0.295189 0
M  V30 3783 C 357.801 1.5885 1.11716 0
M  V30 3784 O 357.076 0.821181 1.76315 0
M  V30 3785 C 357.359 3.578 -0.406318 0
M  V30 3786 C 357.212 4.09586 -1.85903 0
M  V30 3787 C 358.531 4.39616 0.206439 0
M  V30 3788 H 355.65 0.728935 -0.108733 0
M  V30 3789 H 358.292 1.65067 -0.940897 0
M  V30 3790 H 356.442 3.88235 0.143419 0
M  V30 3791 H 358.114 3.89837 -2.46627 0
M  V30 3792 H 356.357 3.6284 -2.3776 0
M  V30 3793 H 357.028 5.18708 -1.888 0
M  V30 3794 H 359.504 4.15273 -0.262283 0
M  V30 3795 H 358.38 5.48812 0.0983819 0
M  V30 3796 H 358.641 4.22754 1.2935 0
M  V30 3797 N 357.7 0.491464 1.49741 0
M  V30 3798 C 358.648 -0.305837 2.30581 0
M  V30 3799 C 359.642 -0.971642 1.38764 0
M  V30 3800 O 360.848 -0.90042 1.5586 0
M  V30 3801 H 357.223 -0.117482 0.742767 0
M  V30 3802 H 359.194 0.396093 2.95759 0
M  V30 3803 C 357.943 -1.36319 3.19863 0
M  V30 3804 H 357.266 -0.860258 3.90435 0
M  V30 3805 H 358.706 -1.89323 3.79385 0
M  V30 3806 C 357.165 -2.37621 2.38826 0
M  V30 3807 O 357.695 -3.43311 2.08567 0
M  V30 3808 N 355.901 -2.09849 2.01026 0
M  V30 3809 H 355.448 -1.23922 2.25834 0
M  V30 3810 H 355.406 -2.77859 1.47112 0
M  V30 3811 N 359.178 -1.55987 0.224894 0
M  V30 3812 C 360.108 -2.23426 -0.678457 0
M  V30 3813 C 361.089 -1.20709 -1.19847 0
M  V30 3814 O 362.274 -1.49304 -1.24186 0
M  V30 3815 C 359.404 -2.91676 -1.88527 0
M  V30 3816 C 358.358 -4.00893 -1.49896 0
M  V30 3817 C 357.684 -4.56455 -2.78483 0
M  V30 3818 C 358.984 -5.17769 -0.686461 0
M  V30 3819 H 360.678 -2.99175 -0.116173 0
M  V30 3820 H 358.224 -1.43897 -0.054436 0
M  V30 3821 H 360.177 -3.37547 -2.5227 0
M  V30 3822 H 358.901 -2.1338 -2.47258 0
M  V30 3823 H 357.56 -3.55758 -0.884985 0
M  V30 3824 H 357.208 -3.74886 -3.35365 0
M  V30 3825 H 356.908 -5.30169 -2.53368 0
M  V30 3826 H 358.432 -5.05047 -3.43162 0
M  V30 3827 H 359.846 -5.60001 -1.22767 0
M  V30 3828 H 358.243 -5.97735 -0.532259 0
M  V30 3829 H 359.313 -4.83932 0.306196 0
M  V30 3830 N 360.656 0.0484629 -1.57525 0
M  V30 3831 C 361.886 0.754326 -1.92337 0
M  V30 3832 C 362.294 1.70443 -0.82132 0
M  V30 3833 O 361.637 1.82466 0.21254 0
M  V30 3834 C 361.699 1.58231 -3.22805 0
M  V30 3835 C 361.363 0.799074 -4.4996 0
M  V30 3836 C 362.36 0.1079 -5.19788 0
M  V30 3837 C 360.045 0.759345 -4.96527 0
M  V30 3838 C 362.039 -0.612516 -6.3445 0
M  V30 3839 C 359.726 0.0351713 -6.1109 0
M  V30 3840 C 360.724 -0.649537 -6.79904 0
M  V30 3841 O 360.412 -1.36199 -7.92278 0
M  V30 3842 H 360.144 0.218257 -0.639797 0
M  V30 3843 H 362.698 0.0159295 -2.05394 0
M  V30 3844 H 360.928 2.36406 -3.06021 0
M  V30 3845 H 362.617 2.16898 -3.43089 0
M  V30 3846 H 363.383 0.129748 -4.84826 0
M  V30 3847 H 359.262 1.28177 -4.42822 0
M  V30 3848 H 362.806 -1.14751 -6.88097 0
M  V30 3849 H 358.703 0.0113314 -6.45499 0
M  V30 3850 H 359.471 -1.27366 -8.0853 0
M  V30 3851 N 362.134 1.5431 0.320358 0
M  V30 3852 C 363.081 1.83918 1.39438 0
M  V30 3853 C 364.051 0.686525 1.51248 0
M  V30 3854 O 365.236 0.933269 1.66417 0
M  V30 3855 C 362.376 2.075 2.75749 0
M  V30 3856 C 361.489 3.35177 2.72544 0
M  V30 3857 C 360.624 3.48704 4.00723 0
M  V30 3858 C 359.663 4.70244 3.91838 0
M  V30 3859 N 358.8 4.80679 5.11754 0
M  V30 3860 H 363.64 2.75544 1.13489 0
M  V30 3861 H 361.177 1.36459 0.549309 0
M  V30 3862 H 363.135 2.19166 3.54996 0
M  V30 3863 H 361.765 1.19163 3 0
M  V30 3864 H 360.817 3.32233 1.85271 0
M  V30 3865 H 362.129 4.24534 2.61863 0
M  V30 3866 H 361.283 3.59928 4.88402 0
M  V30 3867 H 360.022 2.57445 4.14214 0
M  V30 3868 H 359.027 4.59072 3.02544 0
M  V30 3869 H 360.252 5.6289 3.7991 0
M  V30 3870 H 358.198 3.92337 5.25745 0
M  V30 3871 H 358.115 5.64007 5.0342 0
M  V30 3872 H 359.383 4.96239 6.01138 0
M  V30 3873 N 363.613 -0.582584 1.46437 0
M  V30 3874 C 364.89 -1.34276 1.4223 0
M  V30 3875 C 365.27 -2.10835 0.10583 0
M  V30 3876 O 364.618 -2.09485 -0.912596 0
M  V30 3877 C 364.828 -2.26865 2.65204 0
M  V30 3878 C 366.176 -2.88691 3.11356 0
M  V30 3879 O 367.2 -2.37178 2.65753 0
M  V30 3880 O 366.059 -3.82255 3.90568 0
M  V30 3881 H 363.153 -0.603326 0.565621 0
M  V30 3882 H 365.699 -0.603591 1.58603 0
M  V30 3883 H 364.471 -1.69724 3.52576 0
M  V30 3884 H 364.094 -3.08122 2.5129 0
M  V30 3885 N 365.091 -1.34144 -0.827227 0
M  V30 3886 C 366.368 -1.16844 -1.56865 0
M  V30 3887 C 366.748 0.260654 -2.09485 0
M  V30 3888 O 366.096 1.26138 -1.9053 0
M  V30 3889 C 366.306 -2.21939 -2.6934 0
M  V30 3890 C 367.654 -2.56695 -3.3822 0
M  V30 3891 O 368.678 -2.20695 -2.79593 0
M  V30 3892 O 367.537 -3.18518 -4.44082 0
M  V30 3893 H 364.631 -0.452669 -0.692112 0
M  V30 3894 H 367.177 -1.45763 -0.868973 0
M  V30 3895 H 365.949 -3.17882 -2.28182 0
M  V30 3896 H 365.572 -1.94172 -3.46962 0
M  V30 3897 N 366.569 1.04691 -1.17803 0
M  V30 3898 C 367.98 1.59238 -0.974689 0
M  V30 3899 C 368.331 1.90306 0.477292 0
M  V30 3900 O 367.456 1.68846 1.35352 0
M  V30 3901 C 368.051 2.89318 -1.76296 0
M  V30 3902 C 366.61 3.40506 -1.60414 0
M  V30 3903 C 365.757 2.14172 -1.76141 0
M  V30 3904 H 368.708 0.874395 -1.32439 0
M  V30 3905 H 368.729 3.5944 -1.24833 0
M  V30 3906 H 368.241 2.66675 -2.81968 0
M  V30 3907 H 366.342 3.68175 -0.572519 0
M  V30 3908 H 366.455 4.14753 -2.39827 0
M  V30 3909 H 364.819 2.25176 -1.19028 0
M  V30 3910 H 365.602 1.93992 -2.83235 0
M  V30 3911 N 368.047 0.979072 1.23499 0
M  V30 3912 C 368.995 0.510604 2.26926 0
M  V30 3913 C 369.989 -0.431691 1.63807 0
M  V30 3914 O 371.195 -0.30573 1.77385 0
M  V30 3915 H 367.57 0.146688 0.737554 0
M  V30 3916 H 369.541 1.39466 2.63803 0
M  V30 3917 C 368.29 -0.172658 3.47271 0
M  V30 3918 H 367.613 0.543331 3.96091 0
M  V30 3919 H 369.053 -0.464101 4.21452 0
M  V30 3920 C 367.512 -1.40345 3.06276 0
M  V30 3921 O 368.042 -2.49978 3.14442 0
M  V30 3922 N 366.248 -1.27362 2.61203 0
M  V30 3923 H 365.795 -0.381584 2.54758 0
M  V30 3924 H 365.753 -2.09822 2.34141 0
M  V30 3925 N 369.525 -1.3858 0.750561 0
M  V30 3926 C 370.755 -2.04175 0.31564 0
M  V30 3927 C 371.163 -1.56726 -1.05989 0
M  V30 3928 O 370.506 -0.734225 -1.68389 0
M  V30 3929 C 370.568 -3.58585 0.256389 0
M  V30 3930 C 370.232 -4.29077 1.57296 0
M  V30 3931 C 371.229 -4.54656 2.52159 0
M  V30 3932 C 368.914 -4.67324 1.84156 0
M  V30 3933 C 370.908 -5.17512 3.72103 0
M  V30 3934 C 368.595 -5.29905 3.04374 0
M  V30 3935 C 369.593 -5.54933 3.98168 0
M  V30 3936 O 369.281 -6.16212 5.16273 0
M  V30 3937 H 369.013 -0.662742 0.133226 0
M  V30 3938 H 371.567 -1.78313 1.01948 0
M  V30 3939 H 369.797 -3.83406 -0.503677 0
M  V30 3940 H 371.486 -4.05628 -0.148612 0
M  V30 3941 H 372.252 -4.25539 2.32683 0
M  V30 3942 H 368.131 -4.47191 1.11988 0
M  V30 3943 H 371.675 -5.36963 4.45327 0
M  V30 3944 H 367.572 -5.58444 3.23745 0
M  V30 3945 H 368.34 -6.34701 5.16815 0
M  V30 3946 N 371.003 -0.499398 -1.49478 0
M  V30 3947 C 372.28 0.108629 -1.95298 0
M  V30 3948 C 372.66 1.54282 -1.44084 0
M  V30 3949 O 372.008 2.18944 -0.653908 0
M  V30 3950 C 372.218 0.0229111 -3.48992 0
M  V30 3951 C 373.566 0.197643 -4.2414 0
M  V30 3952 O 374.59 0.0981735 -3.56065 0
M  V30 3953 O 373.449 0.401669 -5.45022 0
M  V30 3954 H 370.543 0.096181 -0.821388 0
M  V30 3955 H 373.089 -0.561822 -1.6013 0
M  V30 3956 H 371.861 -0.977321 -3.78899 0
M  V30 3957 H 371.484 0.733579 -3.90774 0
M  V30 3958 N 372.481 1.55866 -0.233164 0
M  V30 3959 C 373.73 1.97779 0.39579 0
M  V30 3960 C 374.043 1.12419 1.60066 0
M  V30 3961 O 375.249 1.44283 2.29988 0
M  V30 3962 C 373.705 3.5188 0.755556 0
M  V30 3963 C 373.313 4.45959 -0.427152 0
M  V30 3964 C 375.057 4.02479 1.34946 0
M  V30 3965 C 372.964 5.91383 -0.0443043 0
M  V30 3966 H 371.894 0.738592 0.15165 0
M  V30 3967 H 374.545 1.80486 -0.331212 0
M  V30 3968 H 372.927 3.64816 1.5403 0
M  V30 3969 H 374.101 4.44776 -1.20462 0
M  V30 3970 H 372.416 4.05765 -0.935068 0
M  V30 3971 H 375.013 5.08637 1.649 0
M  V30 3972 H 375.356 3.49014 2.26925 0
M  V30 3973 H 375.889 3.92813 0.62791 0
M  V30 3974 H 372.628 6.48857 -0.930874 0
M  V30 3975 H 372.148 5.95734 0.697238 0
M  V30 3976 H 373.827 6.45893 0.378334 0
M  V30 3977 N 373.959 -0.0401083 1.57549 0
M  V30 3978 C 374.906 -1.04413 2.05831 0
M  V30 3979 C 375.876 -1.36585 0.945184 0
M  V30 3980 O 377.061 -1.47112 1.21502 0
M  V30 3981 C 374.201 -2.34336 2.53339 0
M  V30 3982 C 373.314 -2.08419 3.78398 0
M  V30 3983 C 372.449 -3.32133 4.14561 0
M  V30 3984 C 371.488 -3.01721 5.3257 0
M  V30 3985 N 370.625 -4.17855 5.64218 0
M  V30 3986 H 375.465 -0.625442 2.91363 0
M  V30 3987 H 373.002 -0.297218 1.44066 0
M  V30 3988 H 374.96 -3.10234 2.78946 0
M  V30 3989 H 373.59 -2.73948 1.7074 0
M  V30 3990 H 372.642 -1.23069 3.59942 0
M  V30 3991 H 373.954 -1.81978 4.64419 0
M  V30 3992 H 373.108 -4.16406 4.41238 0
M  V30 3993 H 371.847 -3.61678 3.2717 0
M  V30 3994 H 370.852 -2.15849 5.05657 0
M  V30 3995 H 372.077 -2.73466 6.21605 0
M  V30 3996 H 370.023 -4.47372 4.79786 0
M  V30 3997 H 369.94 -3.94798 6.44725 0
M  V30 3998 H 371.208 -5.03033 5.95465 0
M  V30 3999 N 375.437 -1.54477 -0.31217 0
M  V30 4000 C 376.369 -1.81011 -1.40598 0
M  V30 4001 C 377.382 -0.692546 -1.47335 0
M  V30 4002 O 378.571 -0.969847 -1.49854 0
M  V30 4003 C 375.671 -1.92307 -2.79054 0
M  V30 4004 C 374.844 -3.22594 -2.95384 0
M  V30 4005 C 373.903 -3.24448 -4.1427 0
M  V30 4006 O 372.929 -3.98035 -4.06887 0
M  V30 4007 N 374.131 -2.49042 -5.24365 0
M  V30 4008 H 376.896 -2.75408 -1.18196 0
M  V30 4009 H 374.457 -1.53914 -0.502202 0
M  V30 4010 H 376.449 -1.90962 -3.56813 0
M  V30 4011 H 375.019 -1.04955 -2.94454 0
M  V30 4012 H 374.239 -3.36806 -2.04831 0
M  V30 4013 H 375.527 -4.08593 -3.03198 0
M  V30 4014 H 374.925 -1.88867 -5.33241 0
M  V30 4015 H 373.482 -2.53463 -6.005 0
M  V30 4016 N 376.915 0.57481 -1.46744 0
M  V30 4017 C 377.845 1.69337 -1.60771 0
M  V30 4018 C 378.826 1.63825 -0.457736 0
M  V30 4019 O 380.011 1.8172 -0.684947 0
M  V30 4020 C 377.141 3.0798 -1.60517 0
M  V30 4021 C 376.095 3.28327 -2.74564 0
M  V30 4022 C 375.421 4.67578 -2.59373 0
M  V30 4023 C 376.721 3.15398 -4.16319 0
M  V30 4024 H 378.415 1.57853 -2.54407 0
M  V30 4025 H 375.961 0.75799 -1.22436 0
M  V30 4026 H 377.914 3.86061 -1.68923 0
M  V30 4027 H 376.638 3.20381 -0.634305 0
M  V30 4028 H 375.297 2.52649 -2.65639 0
M  V30 4029 H 374.945 4.76755 -1.60353 0
M  V30 4030 H 374.645 4.82144 -3.35873 0
M  V30 4031 H 376.169 5.47817 -2.69682 0
M  V30 4032 H 377.583 3.83315 -4.26313 0
M  V30 4033 H 375.98 3.41482 -4.93468 0
M  V30 4034 H 377.05 2.12372 -4.3592 0
M  V30 4035 N 378.394 1.34581 0.820102 0
M  V30 4036 C 379.357 1.2628 1.91275 0
M  V30 4037 C 380.357 0.177344 1.59819 0
M  V30 4038 O 381.547 0.430156 1.68806 0
M  V30 4039 C 378.679 0.950327 3.27386 0
M  V30 4040 H 379.872 2.23421 2.00057 0
M  V30 4041 H 377.425 1.1891 1.0144 0
M  V30 4042 H 378.16 -0.0177938 3.24295 0
M  V30 4043 H 377.945 1.73549 3.51601 0
M  V30 4044 H 379.435 0.917492 4.07396 0
M  V30 4045 N 379.872 -1.04064 1.18357 0
M  V30 4046 C 380.802 -2.14001 0.934113 0
M  V30 4047 C 381.783 -1.69616 -0.128186 0
M  V30 4048 O 382.968 -1.94185 0.0244093 0
M  V30 4049 C 380.098 -3.44253 0.459066 0
M  V30 4050 C 379.052 -4.02261 1.46185 0
M  V30 4051 C 378.378 -5.27992 0.844322 0
M  V30 4052 C 379.678 -4.38432 2.83856 0
M  V30 4053 H 381.372 -2.35127 1.85352 0
M  V30 4054 H 378.918 -1.12998 0.892604 0
M  V30 4055 H 380.871 -4.20522 0.271907 0
M  V30 4056 H 379.595 -3.22813 -0.495912 0
M  V30 4057 H 378.254 -3.28074 1.63595 0
M  V30 4058 H 377.902 -5.02862 -0.117845 0
M  V30 4059 H 377.602 -5.67765 1.51384 0
M  V30 4060 H 379.126 -6.06938 0.667693 0
M  V30 4061 H 380.54 -5.05688 2.70098 0
M  V30 4062 H 378.937 -4.89254 3.47491 0
M  V30 4063 H 380.007 -3.4826 3.37406 0
M  V30 4064 N 381.35 -0.985608 -1.22978 0
M  V30 4065 C 382.26 -0.538548 -2.28335 0
M  V30 4066 C 383.276 0.409163 -1.69121 0
M  V30 4067 O 384.452 0.277797 -1.99475 0
M  V30 4068 C 381.517 0.146867 -3.46389 0
M  V30 4069 C 380.578 -0.842896 -4.20944 0
M  V30 4070 C 379.811 -0.190095 -5.33361 0
M  V30 4071 O 380.034 1.01767 -5.61248 0
M  V30 4072 O 378.968 -0.891289 -5.95264 0
M  V30 4073 H 382.794 -1.41487 -2.68729 0
M  V30 4074 H 380.379 -0.753495 -1.29007 0
M  V30 4075 H 382.261 0.531125 -4.1804 0
M  V30 4076 H 380.936 0.997871 -3.07935 0
M  V30 4077 H 379.843 -1.27795 -3.51595 0
M  V30 4078 H 381.176 -1.66287 -4.6326 0
M  V30 4079 N 382.828 1.3818 -0.7579 0
M  V30 4080 C 384.068 2.01864 -0.320968 0
M  V30 4081 C 384.432 1.58863 1.07827 0
M  V30 4082 O 385.633 2.14908 1.61456 0
M  V30 4083 C 383.904 3.54626 -0.44446 0
M  V30 4084 S 385.463 4.38706 -0.0907467 0
M  V30 4085 H 382.281 0.700056 -0.124268 0
M  V30 4086 H 384.883 1.68611 -0.989468 0
M  V30 4087 H 383.587 3.83411 -1.4637 0
M  V30 4088 H 383.118 3.92661 0.241073 0
M  V30 4089 H 385.133 4.83435 1.11826 0
M  V30 4090 N 384.306 0.507319 1.49211 0
M  V30 4091 C 385.269 -0.256763 2.27757 0
M  V30 4092 C 386.269 -0.888287 1.34038 0
M  V30 4093 O 387.459 -0.751841 1.5714 0
M  V30 4094 C 384.591 -1.36905 3.12202 0
M  V30 4095 H 385.784 0.432557 2.96764 0
M  V30 4096 H 383.337 0.262488 1.5408 0
M  V30 4097 H 384.072 -2.09233 2.47775 0
M  V30 4098 H 383.857 -0.921599 3.81115 0
M  V30 4099 H 385.347 -1.9071 3.7151 0
M  V30 4100 N 385.784 -1.5574 0.241426 0
M  V30 4101 C 387.009 -2.0366 -0.392111 0
M  V30 4102 C 387.434 -1.11969 -1.51144 0
M  V30 4103 O 386.792 -0.111594 -1.80956 0
M  V30 4104 C 386.84 -3.49638 -0.882371 0
M  V30 4105 O 385.944 -3.6108 -1.99235 0
M  V30 4106 H 385.285 -0.658379 -0.0862122 0
M  V30 4107 H 387.815 -2.01302 0.365881 0
M  V30 4108 H 387.825 -3.90351 -1.18702 0
M  V30 4109 H 386.5 -4.15852 -0.0632361 0
M  V30 4110 H 385.077 -3.32262 -1.69282 0
M  V30 4111 N 387.262 0.0317525 -1.57568 0
M  V30 4112 C 388.209 1.0332 -2.06382 0
M  V30 4113 C 389.179 1.36082 -0.952414 0
M  V30 4114 O 390.364 1.46466 -1.2228 0
M  V30 4115 C 387.504 2.32989 -2.54578 0
M  V30 4116 C 386.617 2.0641 -3.79498 0
M  V30 4117 C 385.752 3.2993 -4.16317 0
M  V30 4118 C 384.791 2.98893 -5.34162 0
M  V30 4119 N 383.928 4.14857 -5.66426 0
M  V30 4120 H 388.768 0.609982 -2.9169 0
M  V30 4121 H 386.305 0.289573 -1.44222 0
M  V30 4122 H 388.263 3.0875 -2.80587 0
M  V30 4123 H 386.893 2.73039 -1.7219 0
M  V30 4124 H 385.945 1.21158 -3.6059 0
M  V30 4125 H 387.257 1.79513 -4.65378 0
M  V30 4126 H 386.411 4.1406 -4.4344 0
M  V30 4127 H 385.15 3.59938 -3.29083 0
M  V30 4128 H 384.155 2.13164 -5.06795 0
M  V30 4129 H 385.38 2.70165 -6.23047 0
M  V30 4130 H 383.326 4.44821 -4.82151 0
M  V30 4131 H 383.243 3.91374 -6.4681 0
M  V30 4132 H 384.511 4.99868 -5.98124 0
M  V30 4133 N 388.74 1.54641 0.303973 0
M  V30 4134 C 390.156 1.45788 0.649463 0
M  V30 4135 C 390.356 0.64666 1.90842 0
M  V30 4136 O 389.412 0.153183 2.52035 0
M  V30 4137 C 390.725 2.89718 0.805227 0
M  V30 4138 C 392.273 2.99742 0.901305 0
M  V30 4139 C 392.748 4.44863 1.08909 0
M  V30 4140 N 394.239 4.48559 1.15536 0
M  V30 4141 C 394.974 5.58026 1.3189 0
M  V30 4142 N 394.47 6.77422 1.45161 0
M  V30 4143 N 396.263 5.45708 1.34755 0
M  V30 4144 H 388.414 2.05854 -0.523237 0
M  V30 4145 H 390.677 0.932186 -0.172431 0
M  V30 4146 H 390.383 3.51666 -0.0489108 0
M  V30 4147 H 390.257 3.36964 1.69513 0
M  V30 4148 H 392.644 2.3791 1.74593 0
M  V30 4149 H 392.725 2.55797 -0.0125531 0
M  V30 4150 H 392.369 5.07288 0.249241 0
M  V30 4151 H 392.299 4.86436 2.01713 0
M  V30 4152 H 394.79 3.6254 1.06646 0
M  V30 4153 H 395.103 7.56604 1.57387 0
M  V30 4154 H 393.448 6.80292 1.42223 0
M  V30 4155 H 396.639 4.51378 1.23996 0
M  V30 4156 H 396.812 6.3107 1.47157 0
M  V30 4157 N 390.218 -0.567019 1.47046 0
M  V30 4158 C 391.151 -1.69016 1.53326 0
M  V30 4159 C 392.129 -1.57949 0.386126 0
M  V30 4160 O 393.313 -1.78945 0.592529 0
M  V30 4161 C 390.44 -3.07191 1.42658 0
M  V30 4162 C 389.486 -3.36733 2.6175 0
M  V30 4163 S 390.319 -3.27069 4.24012 0
M  V30 4164 C 391.475 -4.67755 4.1588 0
M  V30 4165 H 391.708 -1.63434 2.48348 0
M  V30 4166 H 389.241 -0.747048 1.35124 0
M  V30 4167 H 391.199 -3.86897 1.37191 0
M  V30 4168 H 389.86 -3.10249 0.490369 0
M  V30 4169 H 389.053 -4.37441 2.50323 0
M  V30 4170 H 388.655 -2.64627 2.64289 0
M  V30 4171 H 390.947 -5.58491 3.83529 0
M  V30 4172 H 391.89 -4.84239 5.16641 0
M  V30 4173 H 392.298 -4.45341 3.46889 0
M  V30 4174 N 391.696 -1.35014 -0.812953 0
M  V30 4175 C 392.926 -1.30841 -1.59888 0
M  V30 4176 C 393.334 0.117576 -1.88834 0
M  V30 4177 O 392.677 1.07807 -1.48739 0
M  V30 4178 C 392.739 -2.0412 -2.95931 0
M  V30 4179 C 392.403 -3.53336 -2.89832 0
M  V30 4180 C 393.4 -4.48052 -2.63714 0
M  V30 4181 C 391.085 -3.95894 -3.0915 0
M  V30 4182 C 393.079 -5.833 -2.56982 0
M  V30 4183 C 390.766 -5.31239 -3.0204 0
M  V30 4184 C 391.764 -6.24754 -2.75991 0
M  V30 4185 O 391.452 -7.57617 -2.68833 0
M  V30 4186 H 391.184 -0.451215 -0.50337 0
M  V30 4187 H 393.738 -1.78354 -1.01877 0
M  V30 4188 H 391.968 -1.51235 -3.559 0
M  V30 4189 H 393.657 -1.93107 -3.57022 0
M  V30 4190 H 394.423 -4.16492 -2.48515 0
M  V30 4191 H 390.302 -3.23495 -3.28438 0
M  V30 4192 H 393.846 -6.56263 -2.36569 0
M  V30 4193 H 389.743 -5.62415 -3.16796 0
M  V30 4194 H 390.511 -7.67469 -2.84487 0
M  V30 4195 N 393.175 1.03435 -1.18907 0
M  V30 4196 C 394.586 1.58195 -0.991523 0
M  V30 4197 C 394.937 1.90801 0.457081 0
M  V30 4198 O 394.062 1.70272 1.33553 0
M  V30 4199 C 394.657 2.87432 -1.79355 0
M  V30 4200 C 393.216 3.38785 -1.64017 0
M  V30 4201 C 392.363 2.12292 -1.78402 0
M  V30 4202 H 395.314 0.860299 -1.33359 0
M  V30 4203 H 395.335 3.58096 -1.28638 0
M  V30 4204 H 394.847 2.63669 -2.84781 0
M  V30 4205 H 392.948 3.67547 -0.611536 0
M  V30 4206 H 393.061 4.12186 -2.44212 0
M  V30 4207 H 391.425 2.23901 -1.2141 0
M  V30 4208 H 392.208 1.90977 -2.85277 0
M  V30 4209 N 394.653 0.992116 1.22453 0
M  V30 4210 C 395.93 0.583508 1.86694 0
M  V30 4211 C 396.31 -0.9392 1.89056 0
M  V30 4212 O 395.658 -1.82081 1.38053 0
M  V30 4213 C 395.868 1.20304 3.2761 0
M  V30 4214 C 397.216 1.30308 4.0411 0
M  V30 4215 O 398.24 1.15737 3.36873 0
M  V30 4216 O 397.099 1.53615 5.24466 0
M  V30 4217 H 394.193 0.198129 0.802916 0
M  V30 4218 H 396.739 1.08794 1.30238 0
M  V30 4219 H 395.511 2.24461 3.2052 0
M  V30 4220 H 395.134 0.684144 3.9167 0
M  V30 4221 N 396.131 -1.37776 0.765217 0
M  V30 4222 C 397.38 -1.99092 0.323307 0
M  V30 4223 C 397.693 -1.61434 -1.10446 0
M  V30 4224 O 398.899 -2.15805 -1.64743 0
M  V30 4225 C 397.355 -3.56019 0.527098 0
M  V30 4226 C 396.963 -4.0262 1.96471 0
M  V30 4227 C 398.707 -4.2424 0.148483 0
M  V30 4228 C 396.614 -5.52233 2.11644 0
M  V30 4229 H 395.544 -0.744846 0.117137 0
M  V30 4230 H 398.195 -1.57391 0.943417 0
M  V30 4231 H 396.577 -3.95667 -0.162372 0
M  V30 4232 H 397.751 -3.74234 2.68859 0
M  V30 4233 H 396.066 -3.47161 2.29931 0
M  V30 4234 H 398.663 -5.34159 0.240456 0
M  V30 4235 H 399.006 -4.06446 -0.900422 0
M  V30 4236 H 399.539 -3.89872 0.79025 0
M  V30 4237 H 396.278 -5.74945 3.1483 0
M  V30 4238 H 395.798 -5.82324 1.4373 0
M  V30 4239 H 397.477 -6.18106 1.91193 0
M  V30 4240 N 397.609 -0.515225 -1.4894 0
M  V30 4241 C 398.858 0.0261361 -2.01683 0
M  V30 4242 C 399.171 1.36719 -1.39883 0
M  V30 4243 O 400.377 1.99606 -1.84037 0
M  V30 4244 C 398.833 0.0970111 -3.59769 0
M  V30 4245 C 398.441 -1.23825 -4.30548 0
M  V30 4246 C 400.185 0.587981 -4.20408 0
M  V30 4247 C 398.092 -1.12877 -5.80528 0
M  V30 4248 H 397.022 0.0135398 -0.753878 0
M  V30 4249 H 399.673 -0.656787 -1.71343 0
M  V30 4250 H 398.055 0.844694 -3.86886 0
M  V30 4251 H 399.229 -2.00034 -4.15118 0
M  V30 4252 H 397.544 -1.66379 -3.81716 0
M  V30 4253 H 400.141 0.68763 -5.3026 0
M  V30 4254 H 400.484 1.59026 -3.84729 0
M  V30 4255 H 401.017 -0.103582 -3.97665 0
M  V30 4256 H 397.756 -2.10575 -6.20756 0
M  V30 4257 H 397.276 -0.407799 -5.98412 0
M  V30 4258 H 398.955 -0.813332 -6.41868 0
M  V30 4259 N 399.087 1.5561 -0.249682 0
M  V30 4260 C 400.312 2.03865 0.381305 0
M  V30 4261 C 400.737 1.12769 1.50548 0
M  V30 4262 O 400.095 0.121189 1.80895 0
M  V30 4263 C 400.143 3.50101 0.863816 0
M  V30 4264 O 399.247 3.62132 1.97318 0
M  V30 4265 H 398.588 0.658827 0.0827194 0
M  V30 4266 H 401.118 2.01105 -0.376552 0
M  V30 4267 H 401.128 3.90975 1.1663 0
M  V30 4268 H 399.803 4.1588 0.0411816 0
M  V30 4269 H 398.38 3.33155 1.67517 0
M  V30 4270 N 400.565 -0.0233959 1.57583 0
M  V30 4271 C 401.528 -1.00693 2.05897 0
M  V30 4272 C 402.528 -1.28693 0.964092 0
M  V30 4273 O 403.718 -1.23602 1.22753 0
M  V30 4274 C 400.85 -2.33825 2.4807 0
M  V30 4275 H 402.043 -0.589476 2.9405 0
M  V30 4276 H 399.596 -0.270354 1.53944 0
M  V30 4277 H 400.331 -2.80307 1.6309 0
M  V30 4278 H 400.116 -2.1483 3.2801 0
M  V30 4279 H 401.606 -3.04426 2.85857 0
M  V30 4280 N 402.043 -1.548 -0.295768 0
M  V30 4281 C 402.99 -1.86113 -1.36494 0
M  V30 4282 C 403.96 -0.7105 -1.50137 0
M  V30 4283 O 405.145 -0.959626 -1.64912 0
M  V30 4284 C 402.285 -2.11861 -2.72413 0
M  V30 4285 C 401.398 -3.39471 -2.67177 0
M  V30 4286 C 400.533 -3.55035 -3.95125 0
M  V30 4287 C 399.572 -4.76418 -3.84308 0
M  V30 4288 N 398.709 -4.8876 -5.04042 0
M  V30 4289 H 403.549 -2.77314 -1.09091 0
M  V30 4290 H 401.086 -1.37315 -0.52753 0
M  V30 4291 H 403.044 -2.24786 -3.51464 0
M  V30 4292 H 401.674 -1.2392 -2.98066 0
M  V30 4293 H 400.726 -3.35139 -1.79962 0
M  V30 4294 H 402.038 -4.28646 -2.55076 0
M  V30 4295 H 401.192 -3.67653 -4.82614 0
M  V30 4296 H 399.931 -2.64002 -4.10066 0
M  V30 4297 H 398.936 -4.63827 -2.95202 0
M  V30 4298 H 400.161 -5.68863 -3.70906 0
M  V30 4299 H 398.107 -4.00652 -5.19436 0
M  V30 4300 H 398.024 -5.71945 -4.94384 0
M  V30 4301 H 399.292 -5.0574 -5.93167 0
M  V30 4302 N 403.521 0.559213 -1.47345 0
M  V30 4303 C 404.469 1.68747 -1.60085 0
M  V30 4304 C 405.463 1.628 -0.46825 0
M  V30 4305 O 406.669 1.68009 -0.645977 0
M  V30 4306 H 403.044 0.558329 -0.503759 0
M  V30 4307 H 405.015 1.55138 -2.54902 0
M  V30 4308 C 403.764 3.07103 -1.63042 0
M  V30 4309 H 403.087 3.12361 -2.49541 0
M  V30 4310 H 404.527 3.85743 -1.76006 0
M  V30 4311 C 402.986 3.34935 -0.363357 0
M  V30 4312 O 403.516 3.98102 0.536416 0
M  V30 4313 N 401.722 2.89574 -0.244 0
M  V30 4314 H 401.269 2.38348 -0.977133 0
M  V30 4315 H 401.227 3.08566 0.602836 0
M  V30 4316 N 404.999 1.35443 0.805782 0
M  V30 4317 C 405.947 1.28465 1.93906 0
M  V30 4318 C 406.941 0.17943 1.68447 0
M  V30 4319 O 408.147 0.345459 1.76654 0
M  V30 4320 H 404.522 0.399528 0.637088 0
M  V30 4321 H 406.493 2.24206 1.96912 0
M  V30 4322 C 405.242 1.07432 3.30687 0
M  V30 4323 H 404.565 1.91716 3.50835 0
M  V30 4324 H 406.005 1.06591 4.10383 0
M  V30 4325 C 404.464 -0.22179 3.36169 0
M  V30 4326 O 404.994 -1.21731 3.82811 0
M  V30 4327 N 403.2 -0.260841 2.89427 0
M  V30 4328 H 402.747 0.549884 2.51663 0
M  V30 4329 H 402.705 -1.12777 2.93477 0
M  V30 4330 N 406.477 -1.02803 1.19454 0
M  V30 4331 C 407.424 -2.11099 0.933046 0
M  V30 4332 C 408.394 -1.65571 -0.132447 0
M  V30 4333 O 409.579 -1.90797 0.00987576 0
M  V30 4334 C 406.719 -3.41763 0.478747 0
M  V30 4335 C 405.832 -4.00833 1.6111 0
M  V30 4336 C 404.967 -5.19511 1.10825 0
M  V30 4337 C 404.006 -5.70639 2.21445 0
M  V30 4338 N 403.143 -6.80589 1.72461 0
M  V30 4339 H 407.983 -2.32804 1.86028 0
M  V30 4340 H 405.52 -1.14179 0.927441 0
M  V30 4341 H 407.478 -4.16736 0.196745 0
M  V30 4342 H 406.108 -3.20166 -0.411493 0
M  V30 4343 H 405.16 -3.23066 2.00829 0
M  V30 4344 H 406.472 -4.34794 2.4445 0
M  V30 4345 H 405.626 -6.01645 0.781533 0
M  V30 4346 H 404.365 -4.87086 0.244606 0
M  V30 4347 H 403.37 -4.87116 2.54947 0
M  V30 4348 H 404.595 -6.05102 3.08267 0
M  V30 4349 H 402.541 -6.50016 0.884056 0
M  V30 4350 H 402.458 -7.13681 2.49389 0
M  V30 4351 H 403.726 -7.66317 1.42755 0
M  V30 4352 N 407.956 -0.998596 -1.21925 0
M  V30 4353 C 408.919 -0.558679 -2.22287 0
M  V30 4354 C 409.919 0.361525 -1.56683 0
M  V30 4355 O 411.109 0.152695 -1.73529 0
M  V30 4356 C 408.241 0.18661 -3.40389 0
M  V30 4357 H 409.434 -1.4463 -2.62721 0
M  V30 4358 H 406.987 -0.786413 -1.35075 0
M  V30 4359 H 407.722 1.08996 -3.05435 0
M  V30 4360 H 407.507 -0.474188 -3.89222 0
M  V30 4361 H 408.997 0.482367 -4.14805 0
M  V30 4362 N 409.434 1.37368 -0.772513 0
M  V30 4363 C 410.683 1.98918 -0.333861 0
M  V30 4364 C 410.996 1.62017 1.09589 0
M  V30 4365 O 412.202 2.16676 1.63596 0
M  V30 4366 C 410.658 3.55735 -0.545971 0
M  V30 4367 C 410.266 4.01573 -1.98603 0
M  V30 4368 C 412.01 4.24156 -0.170979 0
M  V30 4369 C 409.917 5.51102 -2.1457 0
M  V30 4370 H 408.847 0.744214 -0.121085 0
M  V30 4371 H 411.498 1.56888 -0.95175 0
M  V30 4372 H 409.88 3.95748 0.141387 0
M  V30 4373 H 411.054 3.72803 -2.7084 0
M  V30 4374 H 409.369 3.45937 -2.31769 0
M  V30 4375 H 411.966 5.34024 -0.26878 0
M  V30 4376 H 412.309 4.06917 0.878855 0
M  V30 4377 H 412.842 3.89447 -0.810914 0
M  V30 4378 H 409.581 5.73268 -3.17875 0
M  V30 4379 H 409.101 5.81554 -1.46817 0
M  V30 4380 H 410.78 6.17083 -1.94468 0
M  V30 4381 N 410.912 0.523116 1.48665 0
M  V30 4382 C 412.14 -0.0096312 2.06898 0
M  V30 4383 C 412.555 -1.28784 1.38059 0
M  V30 4384 O 411.912 -1.76453 0.465893 0
M  V30 4385 C 411.963 -0.244386 3.60673 0
M  V30 4386 O 411.684 0.983172 4.26925 0
M  V30 4387 C 413.185 -0.818289 4.35682 0
M  V30 4388 H 410.405 0.0304161 0.67031 0
M  V30 4389 H 412.949 0.726799 1.91149 0
M  V30 4390 H 411.104 -0.930847 3.76051 0
M  V30 4391 H 411.518 0.759653 5.1897 0
M  V30 4392 H 412.992 -0.93201 5.44075 0
M  V30 4393 H 413.469 -1.82153 3.99646 0
M  V30 4394 H 414.075 -0.168609 4.24966 0
M  V30 4395 N 412.39 -1.55475 0.257931 0
M  V30 4396 C 413.638 -1.98813 -0.363009 0
M  V30 4397 C 413.959 -1.14757 -1.57657 0
M  V30 4398 O 413.229 -0.232956 -1.9451 0
M  V30 4399 H 411.809 -0.734308 -0.137113 0
M  V30 4400 H 414.471 -1.9156 0.359281 0
M  V30 4401 H 413.567 -3.04941 -0.664634 0
M  V30 4402 N 413.868 0.0150385 -1.57593 0
M  V30 4403 C 415.093 0.718067 -1.94573 0
M  V30 4404 C 415.518 1.6734 -0.859005 0
M  V30 4405 O 414.876 1.80362 0.184147 0
M  V30 4406 C 414.924 1.43918 -3.30636 0
M  V30 4407 O 414.028 2.55299 -3.23876 0
M  V30 4408 H 413.369 0.192125 -0.635597 0
M  V30 4409 H 415.899 -0.0336708 -2.04572 0
M  V30 4410 H 415.909 1.80598 -3.65853 0
M  V30 4411 H 414.584 0.738619 -4.09289 0
M  V30 4412 H 413.161 2.21058 -3.00312 0
M  V30 4413 N 415.346 1.54954 0.287554 0
M  V30 4414 C 416.571 1.79209 1.04397 0
M  V30 4415 C 416.996 0.556431 1.79682 0
M  V30 4416 O 416.354 -0.493518 1.74454 0
M  V30 4417 C 416.402 3.00739 1.98969 0
M  V30 4418 O 415.506 2.74805 3.075 0
M  V30 4419 H 414.847 0.592755 0.299227 0
M  V30 4420 H 417.377 2.02068 0.320886 0
M  V30 4421 H 417.387 3.29077 2.4119 0
M  V30 4422 H 416.062 3.90329 1.43582 0
M  V30 4423 H 414.639 2.57523 2.69697 0
M  V30 4424 N 416.824 -0.551391 1.4764 0
M  V30 4425 C 418.07 -1.31024 1.54792 0
M  V30 4426 C 418.403 -1.9304 0.211967 0
M  V30 4427 O 417.678 -1.78175 -0.77999 0
M  V30 4428 C 417.961 -2.41593 2.67029 0
M  V30 4429 C 417.814 -1.84408 4.10261 0
M  V30 4430 C 419.133 -3.43488 2.75143 0
M  V30 4431 H 416.252 -0.475031 0.563485 0
M  V30 4432 H 418.894 -0.616454 1.79722 0
M  V30 4433 H 417.044 -3.00772 2.45904 0
M  V30 4434 H 418.716 -1.29445 4.42766 0
M  V30 4435 H 416.959 -1.15051 4.18265 0
M  V30 4436 H 417.63 -2.64367 4.84576 0
M  V30 4437 H 420.106 -2.94236 2.94218 0
M  V30 4438 H 418.982 -4.18274 3.55441 0
M  V30 4439 H 419.243 -4.02703 1.82435 0
M  V30 4440 N 418.302 -1.35869 -0.798587 0
M  V30 4441 C 419.713 -1.26498 -1.37314 0
M  V30 4442 C 420.064 0.0991899 -1.95949 0
M  V30 4443 O 419.189 1.0004 -1.91888 0
M  V30 4444 C 419.784 -2.29054 -2.49639 0
M  V30 4445 C 418.343 -2.234 -3.02935 0
M  V30 4446 C 417.49 -2.14329 -1.75949 0
M  V30 4447 H 420.441 -1.46881 -0.600971 0
M  V30 4448 H 420.462 -1.92166 -3.28409 0
M  V30 4449 H 419.974 -3.2833 -2.06933 0
M  V30 4450 H 418.075 -1.27562 -3.50084 0
M  V30 4451 H 418.188 -3.15703 -3.60372 0
M  V30 4452 H 416.552 -1.60435 -1.9782 0
M  V30 4453 H 417.335 -3.15477 -1.35384 0
M  V30 4454 N 419.78 1.02168 -1.19998 0
M  V30 4455 C 421.026 1.75945 -1.00852 0
M  V30 4456 C 421.359 1.88702 0.458828 0
M  V30 4457 O 420.634 1.40911 1.34069 0
M  V30 4458 C 420.917 3.18154 -1.68671 0
M  V30 4459 C 420.77 3.13224 -3.22817 0
M  V30 4460 C 422.089 4.16711 -1.41561 0
M  V30 4461 H 419.208 0.638673 -0.367785 0
M  V30 4462 H 421.85 1.19222 -1.4794 0
M  V30 4463 H 420 3.66586 -1.28636 0
M  V30 4464 H 421.672 2.72635 -3.72112 0
M  V30 4465 H 419.915 2.50751 -3.53986 0
M  V30 4466 H 420.586 4.13728 -3.65422 0
M  V30 4467 H 423.062 3.76913 -1.76284 0
M  V30 4468 H 421.938 5.14391 -1.91553 0
M  V30 4469 H 422.199 4.40774 -0.342193 0
M  V30 4470 N 421.258 1.00505 1.21394 0
M  V30 4471 C 422.483 0.706367 1.95001 0
M  V30 4472 C 422.908 -0.72463 1.73582 0
M  V30 4473 O 422.266 -1.49702 1.0227 0
M  V30 4474 C 422.314 1.03299 3.45487 0
M  V30 4475 O 421.418 0.138275 4.12168 0
M  V30 4476 H 420.759 0.263175 0.609619 0
M  V30 4477 H 423.289 1.34531 1.54151 0
M  V30 4478 H 423.299 0.979872 3.96059 0
M  V30 4479 H 421.974 2.07567 3.60401 0
M  V30 4480 H 420.551 0.247928 3.72075 0
M  V30 4481 N 422.737 -1.36956 0.779787 0
M  V30 4482 C 424.148 -1.82094 0.412156 0
M  V30 4483 C 424.499 -1.64926 -1.06273 0
M  V30 4484 O 423.624 -1.16483 -1.82375 0
M  V30 4485 C 424.219 -3.3059 0.741319 0
M  V30 4486 C 422.778 -3.73974 0.426641 0
M  V30 4487 C 421.925 -2.59368 0.980987 0
M  V30 4488 H 424.876 -1.25314 0.973758 0
M  V30 4489 H 424.897 -3.80489 0.028887 0
M  V30 4490 H 424.409 -3.43054 1.81482 0
M  V30 4491 H 422.51 -3.67076 -0.639215 0
M  V30 4492 H 422.623 -4.69778 0.940515 0
M  V30 4493 H 420.987 -2.51463 0.404757 0
M  V30 4494 H 421.77 -2.74621 2.06005 0
M  V30 4495 N 424.215 -0.530993 -1.48385 0
M  V30 4496 C 425.148 0.278511 -2.26494 0
M  V30 4497 C 426.126 0.943905 -1.32398 0
M  V30 4498 O 427.31 0.968098 -1.61741 0
M  V30 4499 C 424.437 1.39453 -3.08659 0
M  V30 4500 C 423.483 0.840434 -4.18137 0
M  V30 4501 S 424.316 -0.292496 -5.34701 0
M  V30 4502 C 425.472 0.825973 -6.20426 0
M  V30 4503 H 425.705 -0.384365 -2.94805 0
M  V30 4504 H 423.238 -0.316799 -1.51115 0
M  V30 4505 H 425.196 2.03382 -3.56575 0
M  V30 4506 H 423.857 2.02913 -2.3976 0
M  V30 4507 H 423.05 1.67769 -4.75257 0
M  V30 4508 H 422.652 0.277819 -3.72967 0
M  V30 4509 H 424.944 1.72438 -6.55188 0
M  V30 4510 H 425.887 0.292728 -7.07495 0
M  V30 4511 H 426.295 1.10683 -5.53543 0
M  V30 4512 N 425.693 1.55336 -0.266172 0
M  V30 4513 C 426.941 1.99003 0.35246 0
M  V30 4514 C 427.262 1.15591 1.57047 0
M  V30 4515 O 426.532 0.243268 1.94384 0
M  V30 4516 H 425.112 0.735025 0.133217 0
M  V30 4517 H 427.774 1.91367 -0.369434 0
M  V30 4518 H 426.87 3.05289 0.648453 0
M  V30 4519 N 427.171 -0.0066808 1.57599 0
M  V30 4520 C 428.411 -0.697501 1.92131 0
M  V30 4521 C 428.775 -1.71306 0.867071 0
M  V30 4522 O 429.976 -2.45377 1.09743 0
M  V30 4523 C 428.247 -1.32978 3.3174 0
M  V30 4524 S 429.806 -2.04665 3.88146 0
M  V30 4525 H 426.624 -0.230555 0.672581 0
M  V30 4526 H 429.226 0.0484026 1.9544 0
M  V30 4527 H 427.93 -0.57772 4.06313 0
M  V30 4528 H 427.461 -2.11376 3.31789 0
M  V30 4529 H 429.476 -3.32097 3.68682 0
M  V30 4530 N 428.649 -1.55105 -0.279332 0
M  V30 4531 C 430.065 -1.46803 -0.626187 0
M  V30 4532 C 430.265 -0.676939 -1.89789 0
M  V30 4533 O 429.321 -0.19326 -2.51759 0
M  V30 4534 C 430.634 -2.90962 -0.759034 0
M  V30 4535 C 432.182 -3.01138 -0.853504 0
M  V30 4536 C 432.657 -4.46539 -1.01818 0
M  V30 4537 N 434.148 -4.50341 -1.08386 0
M  V30 4538 C 434.883 -5.60053 -1.22996 0
M  V30 4539 N 434.379 -6.79645 -1.34366 0
M  V30 4540 N 436.172 -5.47783 -1.26056 0
M  V30 4541 H 428.323 -2.04996 0.555921 0
M  V30 4542 H 430.586 -0.929325 0.187239 0
M  V30 4543 H 430.292 -3.51544 0.104852 0
M  V30 4544 H 430.166 -3.39619 -1.64131 0
M  V30 4545 H 432.553 -2.40658 -1.70786 0
M  V30 4546 H 432.634 -2.55745 0.0532466 0
M  V30 4547 H 432.278 -5.0762 -0.168504 0
M  V30 4548 H 432.208 -4.89583 -1.93948 0
M  V30 4549 H 434.699 -3.64191 -1.00864 0
M  V30 4550 H 435.012 -7.59012 -1.4533 0
M  V30 4551 H 433.357 -6.82469 -1.31382 0
M  V30 4552 H 436.548 -4.53294 -1.168 0
M  V30 4553 H 436.721 -6.33331 -1.37098 0
M  V30 4554 N 430.127 0.543554 -1.4793 0
M  V30 4555 C 431.352 1.32995 -1.59145 0
M  V30 4556 C 431.777 1.86472 -0.246956 0
M  V30 4557 O 431.135 1.63696 0.779324 0
M  V30 4558 C 431.183 2.46623 -2.63077 0
M  V30 4559 O 430.287 3.49261 -2.19295 0
M  V30 4560 H 429.628 0.394472 -0.534124 0
M  V30 4561 H 432.158 0.655489 -1.93816 0
M  V30 4562 H 432.168 2.93001 -2.83926 0
M  V30 4563 H 430.843 2.07059 -3.60693 0
M  V30 4564 H 429.42 3.09094 -2.08603 0
M  V30 4565 N 431.605 1.3629 0.791371 0
M  V30 4566 C 432.852 1.30412 1.54916 0
M  V30 4567 C 433.18 -0.117162 1.94147 0
M  V30 4568 O 432.435 -1.08599 1.62803 0
M  V30 4569 C 432.734 2.17068 2.8393 0
M  V30 4570 C 432.4 3.65645 2.63846 0
M  V30 4571 C 431.062 4.0614 2.58077 0
M  V30 4572 C 433.414 4.59855 2.45322 0
M  V30 4573 C 430.742 5.3899 2.31748 0
M  V30 4574 C 433.094 5.9292 2.2052 0
M  V30 4575 C 431.758 6.32542 2.13183 0
M  V30 4576 H 431.028 0.47721 0.566879 0
M  V30 4577 H 433.675 1.68325 0.913172 0
M  V30 4578 H 431.98 1.72085 3.51986 0
M  V30 4579 H 433.677 2.09846 3.4171 0
M  V30 4580 H 430.267 3.33518 2.69191 0
M  V30 4581 H 434.451 4.29443 2.48782 0
M  V30 4582 H 429.707 5.68672 2.24548 0
M  V30 4583 H 433.881 6.65487 2.05182 0
M  V30 4584 H 431.508 7.35412 1.92544 0
M  V30 4585 N 433.083 -1.0153 1.20538 0
M  V30 4586 C 434.013 -2.11972 0.979295 0
M  V30 4587 C 434.994 -1.6985 -0.0921787 0
M  V30 4588 O 436.179 -1.94089 0.0655932 0
M  V30 4589 C 433.309 -3.43201 0.531984 0
M  V30 4590 C 432.263 -3.9907 1.54685 0
M  V30 4591 C 431.589 -5.26082 0.956127 0
M  V30 4592 C 432.889 -4.32313 2.93092 0
M  V30 4593 H 434.583 -2.31143 1.90298 0
M  V30 4594 H 432.129 -1.11079 0.916372 0
M  V30 4595 H 434.082 -4.1985 0.361044 0
M  V30 4596 H 432.806 -3.23792 -0.427327 0
M  V30 4597 H 431.465 -3.2453 1.70517 0
M  V30 4598 H 431.113 -5.02999 -0.0111538 0
M  V30 4599 H 430.813 -5.64426 1.63393 0
M  V30 4600 H 432.337 -6.05386 0.796284 0
M  V30 4601 H 433.751 -4.99845 2.80763 0
M  V30 4602 H 432.148 -4.81774 3.57791 0
M  V30 4603 H 433.218 -3.41025 3.44717 0
M  V30 4604 N 434.561 -1.01147 -1.20859 0
M  V30 4605 C 435.786 -0.716698 -1.94623 0
M  V30 4606 C 436.211 0.715415 -1.73964 0
M  V30 4607 O 435.569 1.49157 -1.03062 0
M  V30 4608 C 435.617 -1.0513 -3.44935 0
M  V30 4609 O 434.721 -0.160131 -4.12089 0
M  V30 4610 H 434.062 -0.266404 -0.608214 0
M  V30 4611 H 436.592 -1.35346 -1.53436 0
M  V30 4612 H 436.602 -1.00086 -3.95533 0
M  V30 4613 H 435.277 -2.09475 -3.59295 0
M  V30 4614 H 433.854 -0.267657 -3.71938 0
M  V30 4615 N 436.039 1.36541 -0.78704 0
M  V30 4616 C 437.285 1.99599 -0.358872 0
M  V30 4617 C 437.618 1.62323 1.06606 0
M  V30 4618 O 436.893 0.876858 1.73613 0
M  V30 4619 C 437.176 3.56327 -0.519944 0
M  V30 4620 C 437.029 4.03464 -1.98839 0
M  V30 4621 C 438.348 4.4005 0.0664737 0
M  V30 4622 H 435.467 0.725107 -0.131869 0
M  V30 4623 H 438.109 1.6199 -0.992936 0
M  V30 4624 H 436.259 3.88495 0.0198321 0
M  V30 4625 H 437.931 3.81793 -2.58905 0
M  V30 4626 H 436.174 3.55092 -2.49183 0
M  V30 4627 H 436.845 5.12439 -2.05207 0
M  V30 4628 H 439.321 4.14228 -0.394267 0
M  V30 4629 H 438.197 5.48847 -0.0762682 0
M  V30 4630 H 438.458 4.26655 1.15835 0
M  V30 4631 N 437.518 0.538854 1.48102 0
M  V30 4632 C 438.764 0.0161732 2.03394 0
M  V30 4633 C 439.119 -1.31154 1.40771 0
M  V30 4634 O 438.412 -1.83613 0.547421 0
M  V30 4635 C 438.606 -0.153808 3.57069 0
M  V30 4636 C 438.435 1.15588 4.34591 0
M  V30 4637 C 437.205 1.71818 4.75191 0
M  V30 4638 C 439.403 2.06867 4.70861 0
M  V30 4639 N 437.385 2.96983 5.37284 0
M  V30 4640 C 438.756 3.16609 5.33066 0
M  V30 4641 C 440.811 2.07085 4.52791 0
M  V30 4642 C 439.514 4.26645 5.79109 0
M  V30 4643 C 441.54 3.16121 4.99821 0
M  V30 4644 C 440.902 4.24582 5.62058 0
M  V30 4645 H 437.001 0.0476346 0.780548 0
M  V30 4646 H 439.585 0.722094 1.80815 0
M  V30 4647 H 437.756 -0.828825 3.79454 0
M  V30 4648 H 439.488 -0.676896 3.98999 0
M  V30 4649 H 436.243 1.25845 4.56574 0
M  V30 4650 H 436.667 3.60732 5.72889 0
M  V30 4651 H 441.309 1.24522 4.04047 0
M  V30 4652 H 439.027 5.0998 6.26854 0
M  V30 4653 H 442.613 3.17355 4.87624 0
M  V30 4654 H 441.493 5.07562 5.97788 0
M  V30 4655 N 438.996 -1.55193 0.274407 0
M  V30 4656 C 439.943 -2.225 -0.613374 0
M  V30 4657 C 440.913 -1.19823 -1.15029 0
M  V30 4658 O 442.098 -1.48362 -1.19973 0
M  V30 4659 C 439.238 -2.94927 -1.79199 0
M  V30 4660 C 438.351 -4.12322 -1.28899 0
M  V30 4661 C 437.486 -4.72394 -2.42934 0
M  V30 4662 C 436.525 -5.81984 -1.89634 0
M  V30 4663 N 435.662 -6.36123 -2.9714 0
M  V30 4664 H 440.502 -2.97982 -0.032756 0
M  V30 4665 H 438.039 -1.47099 -0.00440146 0
M  V30 4666 H 439.997 -3.35134 -2.48478 0
M  V30 4667 H 438.627 -2.2187 -2.34465 0
M  V30 4668 H 437.679 -3.7724 -0.489327 0
M  V30 4669 H 438.991 -4.91355 -0.858587 0
M  V30 4670 H 438.145 -5.15317 -3.20208 0
M  V30 4671 H 436.884 -3.92636 -2.8929 0
M  V30 4672 H 435.889 -5.38511 -1.1084 0
M  V30 4673 H 437.114 -6.6361 -1.44215 0
M  V30 4674 H 435.06 -5.59259 -3.42878 0
M  V30 4675 H 434.977 -7.10427 -2.58515 0
M  V30 4676 H 436.245 -6.83704 -3.74391 0
M  V30 4677 N 440.474 -0.00167713 -1.576 0
M  V30 4678 C 441.751 0.719951 -1.81868 0
M  V30 4679 C 442.131 1.91895 -0.879747 0
M  V30 4680 O 441.479 2.28389 0.0711423 0
M  V30 4681 C 441.689 1.12409 -3.30402 0
M  V30 4682 C 443.037 1.52724 -3.96182 0
M  V30 4683 O 444.061 1.21784 -3.34734 0
M  V30 4684 O 442.92 2.10265 -5.04431 0
M  V30 4685 H 440.014 0.350707 -0.748955 0
M  V30 4686 H 442.56 -0.0272597 -1.69678 0
M  V30 4687 H 441.332 0.269532 -3.90371 0
M  V30 4688 H 440.955 1.93035 -3.47596 0
M  V30 4689 N 441.952 1.55251 0.271103 0
M  V30 4690 C 443.177 1.80306 1.02491 0
M  V30 4691 C 443.602 0.575457 1.79081 0
M  V30 4692 O 442.96 -0.474987 1.74967 0
M  V30 4693 C 443.008 3.02832 1.95768 0
M  V30 4694 O 442.112 2.78051 3.04568 0
M  V30 4695 H 441.453 0.595896 0.292923 0
M  V30 4696 H 443.983 2.02397 0.299436 0
M  V30 4697 H 443.993 3.31616 2.37686 0
M  V30 4698 H 442.668 3.9183 1.39434 0
M  V30 4699 H 441.245 2.60369 2.66951 0
M  V30 4700 N 443.43 -0.535701 1.48216 0
M  V30 4701 C 444.658 -1.31671 1.59594 0
M  V30 4702 C 445.073 -1.87083 0.254056 0
M  V30 4703 O 444.43 -1.66112 -0.755854 0
M  V30 4704 C 444.481 -2.47158 2.63809 0
M  V30 4705 O 444.202 -1.94032 3.92789 0
M  V30 4706 C 445.703 -3.39062 2.85573 0
M  V30 4707 H 442.923 -0.400623 0.538277 0
M  V30 4708 H 445.467 -0.646827 1.94001 0
M  V30 4709 H 443.622 -3.10043 2.32276 0
M  V30 4710 H 444.036 -2.69585 4.49916 0
M  V30 4711 H 445.51 -4.16459 3.62306 0
M  V30 4712 H 445.987 -3.93941 1.94184 0
M  V30 4713 H 446.593 -2.81975 3.18387 0
M  V30 4714 N 444.908 -1.36708 -0.784132 0
M  V30 4715 C 446.156 -1.30972 -1.53918 0
M  V30 4716 C 446.477 0.109086 -1.94695 0
M  V30 4717 O 445.747 1.05048 -1.65353 0
M  V30 4718 H 444.327 -0.481819 -0.570841 0
M  V30 4719 H 446.989 -1.71063 -0.934002 0
M  V30 4720 H 446.085 -1.94061 -2.44431 0
M  V30 4721 N 446.386 1.0089 -1.21074 0
M  V30 4722 C 447.334 2.11707 -0.963476 0
M  V30 4723 C 448.328 1.69172 0.0879032 0
M  V30 4724 O 449.534 1.79889 -0.0631415 0
M  V30 4725 H 445.909 0.692026 -0.294287 0
M  V30 4726 H 447.88 2.29743 -1.90422 0
M  V30 4727 C 446.629 3.43473 -0.540509 0
M  V30 4728 H 445.952 3.76634 -1.34114 0
M  V30 4729 H 447.392 4.22044 -0.406777 0
M  V30 4730 C 445.851 3.2849 0.748079 0
M  V30 4731 O 446.381 3.58883 1.8046 0
M  V30 4732 N 444.587 2.81715 0.713081 0
M  V30 4733 H 444.134 2.5718 -0.146973 0
M  V30 4734 H 444.092 2.72071 1.57558 0
M  V30 4735 N 447.864 1.01787 1.20321 0
M  V30 4736 C 448.774 0.598898 2.26827 0
M  V30 4737 C 449.79 -0.36418 1.70146 0
M  V30 4738 O 450.966 -0.224812 2.00141 0
M  V30 4739 C 448.031 -0.0549769 3.46656 0
M  V30 4740 C 447.092 0.954205 4.18561 0
M  V30 4741 C 446.325 0.331439 5.3267 0
M  V30 4742 O 446.548 -0.86851 5.63749 0
M  V30 4743 O 445.482 1.0488 5.92692 0
M  V30 4744 H 449.308 1.48562 2.64883 0
M  V30 4745 H 446.893 0.787434 1.26964 0
M  V30 4746 H 448.775 -0.420102 4.19301 0
M  V30 4747 H 447.45 -0.915876 3.10473 0
M  V30 4748 H 446.357 1.37072 3.48083 0
M  V30 4749 H 447.69 1.78511 4.58688 0
M  V30 4750 N 449.342 -1.36122 0.79427 0
M  V30 4751 C 450.591 -1.98361 0.365464 0
M  V30 4752 C 450.904 -1.6374 -1.06997 0
M  V30 4753 O 452.11 -2.19251 -1.60129 0
M  V30 4754 C 450.566 -3.54821 0.602496 0
M  V30 4755 C 450.174 -3.98362 2.04967 0
M  V30 4756 C 451.918 -4.2383 0.238437 0
M  V30 4757 C 449.825 -5.47619 2.2331 0
M  V30 4758 H 448.755 -0.742193 0.13291 0
M  V30 4759 H 451.406 -1.55354 0.976589 0
M  V30 4760 H 449.788 -3.95922 -0.078409 0
M  V30 4761 H 450.962 -3.68447 2.76737 0
M  V30 4762 H 449.277 -3.42206 2.37243 0
M  V30 4763 H 451.874 -5.33529 0.353705 0
M  V30 4764 H 452.217 -4.08264 -0.814006 0
M  V30 4765 H 452.75 -3.88108 0.872769 0
M  V30 4766 H 449.489 -5.68138 3.26955 0
M  V30 4767 H 449.009 -5.79145 1.5605 0
M  V30 4768 H 450.688 -6.13911 2.0426 0
M  V30 4769 N 450.82 -0.546701 -1.47814 0
M  V30 4770 C 451.75 0.195317 -2.32682 0
M  V30 4771 C 452.731 0.918981 -1.43139 0
M  V30 4772 O 453.916 0.901501 -1.72008 0
M  V30 4773 C 451.046 1.23237 -3.247 0
M  V30 4774 C 450 0.625818 -4.234 0
M  V30 4775 C 449.326 1.76674 -5.04669 0
M  V30 4776 C 450.626 -0.413515 -5.2066 0
M  V30 4777 H 452.32 -0.513184 -2.94969 0
M  V30 4778 H 449.866 -0.248241 -1.41844 0
M  V30 4779 H 451.819 1.75955 -3.82907 0
M  V30 4780 H 450.543 1.97067 -2.60446 0
M  V30 4781 H 449.202 0.120023 -3.66403 0
M  V30 4782 H 448.85 2.49383 -4.36826 0
M  V30 4783 H 448.55 1.36673 -5.71484 0
M  V30 4784 H 450.074 2.29738 -5.65732 0
M  V30 4785 H 451.488 0.0272042 -5.73294 0
M  V30 4786 H 449.885 -0.731825 -5.95621 0
M  V30 4787 H 450.955 -1.31325 -4.66778 0
M  V30 4788 N 452.299 1.55045 -0.282633 0
M  V30 4789 C 453.576 1.9179 0.384166 0
M  V30 4790 C 453.956 1.20778 1.73136 0
M  V30 4791 O 453.304 0.33719 2.25998 0
M  V30 4792 C 453.514 3.45149 0.517014 0
M  V30 4793 C 454.862 4.17064 0.796427 0
M  V30 4794 O 455.886 3.51084 0.601535 0
M  V30 4795 O 454.745 5.33837 1.16962 0
M  V30 4796 H 451.839 0.799483 0.211558 0
M  V30 4797 H 454.385 1.66474 -0.32934 0
M  V30 4798 H 453.157 3.88922 -0.430772 0
M  V30 4799 H 452.78 3.76443 1.2797 0
M  V30 4800 N 453.777 0.010035 1.57597 0
M  V30 4801 C 455.025 -0.671371 1.90623 0
M  V30 4802 C 455.346 -1.73753 0.885151 0
M  V30 4803 O 454.616 -1.95752 -0.0760611 0
M  V30 4804 H 453.196 -0.250968 0.703579 0
M  V30 4805 H 455.858 0.0533325 1.94827 0
M  V30 4806 H 454.954 -1.13626 2.90681 0
M  V30 4807 N 455.255 -1.55392 -0.262866 0
M  V30 4808 C 456.671 -1.47459 -0.610582 0
M  V30 4809 C 456.871 -0.697031 -1.8906 0
M  V30 4810 O 455.927 -0.219952 -2.5154 0
M  V30 4811 C 457.24 -2.91751 -0.728131 0
M  V30 4812 C 458.788 -3.02027 -0.821517 0
M  V30 4813 C 459.263 -4.47594 -0.97076 0
M  V30 4814 N 460.754 -4.51465 -1.03603 0
M  V30 4815 C 461.489 -5.61326 -1.17049 0
M  V30 4816 N 460.985 -6.81032 -1.2715 0
M  V30 4817 N 462.778 -5.49089 -1.20239 0
M  V30 4818 H 454.929 -2.04395 0.577632 0
M  V30 4819 H 457.192 -0.927287 0.197086 0
M  V30 4820 H 456.898 -3.51413 0.142132 0
M  V30 4821 H 456.772 -3.4134 -1.6052 0
M  V30 4822 H 459.159 -2.42456 -1.68224 0
M  V30 4823 H 459.24 -2.55674 0.0803688 0
M  V30 4824 H 458.884 -5.07771 -0.114655 0
M  V30 4825 H 458.814 -4.91613 -1.88745 0
M  V30 4826 H 461.305 -3.6524 -0.96996 0
M  V30 4827 H 461.618 -7.60511 -1.37271 0
M  V30 4828 H 459.963 -6.83824 -1.24136 0
M  V30 4829 H 463.154 -4.54507 -1.11985 0
M  V30 4830 H 463.327 -6.34749 -1.30373 0
M  V30 4831 N 456.733 0.527833 -1.48498 0
M  V30 4832 C 457.681 1.65313 -1.63628 0
M  V30 4833 C 458.675 1.6177 -0.502676 0
M  V30 4834 O 459.881 1.66601 -0.681469 0
M  V30 4835 H 456.256 0.547518 -0.515488 0
M  V30 4836 H 458.227 1.49696 -2.58135 0
M  V30 4837 C 456.976 3.03576 -1.6952 0
M  V30 4838 H 456.299 3.06997 -2.56111 0
M  V30 4839 H 457.739 3.81923 -1.84149 0
M  V30 4840 C 456.198 3.34089 -0.43432 0
M  V30 4841 O 456.728 3.99151 0.451852 0
M  V30 4842 N 454.934 2.88991 -0.305368 0
M  V30 4843 H 454.481 2.36222 -1.02747 0
M  V30 4844 H 454.439 3.09776 0.537249 0
M  V30 4845 N 458.211 1.37122 0.776871 0
M  V30 4846 C 459.159 1.32549 1.91138 0
M  V30 4847 C 460.153 0.215119 1.68029 0
M  V30 4848 O 461.359 0.382852 1.75881 0
M  V30 4849 H 457.734 0.412952 0.62847 0
M  V30 4850 H 459.705 2.28332 1.92112 0
M  V30 4851 C 458.454 1.14422 3.28333 0
M  V30 4852 H 457.777 1.99115 3.46689 0
M  V30 4853 H 459.217 1.15272 4.0803 0
M  V30 4854 C 457.676 -0.150434 3.36564 0
M  V30 4855 O 458.206 -1.13584 3.85307 0
M  V30 4856 N 456.412 -0.19939 2.89915 0
M  V30 4857 H 455.959 0.603142 2.5044 0
M  V30 4858 H 455.917 -1.06526 2.95803 0
M  V30 4859 N 459.689 -1.00246 1.21608 0
M  V30 4860 C 460.619 -2.10921 1.00172 0
M  V30 4861 C 461.6 -1.69938 -0.0741587 0
M  V30 4862 O 462.785 -1.94009 0.0861753 0
M  V30 4863 C 459.915 -3.42618 0.568355 0
M  V30 4864 C 458.869 -3.97407 1.58909 0
M  V30 4865 C 458.195 -5.25038 1.01187 0
M  V30 4866 C 459.495 -4.2918 2.97661 0
M  V30 4867 H 461.189 -2.29112 1.92739 0
M  V30 4868 H 458.735 -1.10101 0.928102 0
M  V30 4869 H 460.688 -4.19444 0.405555 0
M  V30 4870 H 459.412 -3.24227 -0.392961 0
M  V30 4871 H 458.071 -3.22703 1.73949 0
M  V30 4872 H 457.719 -5.02982 0.0421965 0
M  V30 4873 H 457.419 -5.62661 1.6937 0
M  V30 4874 H 458.943 -6.04507 0.860448 0
M  V30 4875 H 460.357 -4.96839 2.86049 0
M  V30 4876 H 458.754 -4.77952 3.6288 0
M  V30 4877 H 459.824 -3.3735 3.48315 0
M  V30 4878 N 461.167 -1.02423 -1.1978 0
M  V30 4879 C 462.415 -0.716569 -1.8897 0
M  V30 4880 C 462.736 0.756769 -1.79716 0
M  V30 4881 O 462.006 1.5449 -1.20456 0
M  V30 4882 H 460.586 -0.262062 -0.699523 0
M  V30 4883 H 463.248 -1.29747 -1.45436 0
M  V30 4884 H 462.344 -1.00675 -2.95417 0
M  V30 4885 N 462.645 1.35699 -0.801477 0
M  V30 4886 C 463.891 1.99208 -0.380022 0
M  V30 4887 C 464.224 1.63445 1.04878 0
M  V30 4888 O 463.499 0.895223 1.72673 0
M  V30 4889 C 463.782 3.55755 -0.557708 0
M  V30 4890 C 463.635 4.01332 -2.03107 0
M  V30 4891 C 464.954 4.40096 0.0197968 0
M  V30 4892 H 462.073 0.723667 -0.139552 0
M  V30 4893 H 464.715 1.60928 -1.01006 0
M  V30 4894 H 462.865 3.88494 -0.0213741 0
M  V30 4895 H 464.537 3.79026 -2.62939 0
M  V30 4896 H 462.78 3.52429 -2.52936 0
M  V30 4897 H 463.451 5.10234 -2.1063 0
M  V30 4898 H 465.927 4.13786 -0.438179 0
M  V30 4899 H 464.803 5.48735 -0.134477 0
M  V30 4900 H 465.064 4.2786 1.11303 0
M  V30 4901 N 464.123 0.554532 1.47522 0
M  V30 4902 C 465.369 0.0295227 2.02779 0
M  V30 4903 C 465.702 -1.31582 1.42828 0
M  V30 4904 O 464.977 -1.85561 0.582872 0
M  V30 4905 C 465.26 -0.0664057 3.60039 0
M  V30 4906 C 465.113 1.30585 4.30427 0
M  V30 4907 C 466.432 -0.781162 4.33112 0
M  V30 4908 H 463.551 0.0122027 0.736899 0
M  V30 4909 H 466.193 0.716305 1.7598 0
M  V30 4910 H 464.343 -0.651307 3.83002 0
M  V30 4911 H 466.015 1.93374 4.18813 0
M  V30 4912 H 464.258 1.88125 3.90886 0
M  V30 4913 H 464.929 1.19147 5.38988 0
M  V30 4914 H 467.405 -0.284565 4.15126 0
M  V30 4915 H 466.281 -0.817237 5.42782 0
M  V30 4916 H 466.542 -1.83672 4.0214 0
M  V30 4917 N 465.601 -1.54893 0.290851 0
M  V30 4918 C 466.829 -2.04343 -0.324288 0
M  V30 4919 C 467.244 -1.16859 -1.48289 0
M  V30 4920 O 466.601 -0.192018 -1.81487 0
M  V30 4921 C 466.652 -3.52756 -0.79026 0
M  V30 4922 O 466.373 -4.36913 0.322213 0
M  V30 4923 C 467.874 -4.18161 -1.4716 0
M  V30 4924 H 465.094 -0.667135 -0.0719173 0
M  V30 4925 H 467.638 -1.99981 0.427529 0
M  V30 4926 H 465.793 -3.57511 -1.49213 0
M  V30 4927 H 466.207 -5.24486 -0.0387372 0
M  V30 4928 H 467.681 -5.23562 -1.7489 0
M  V30 4929 H 468.158 -3.67282 -2.40834 0
M  V30 4930 H 468.764 -4.17454 -0.813178 0
M  V30 4931 N 467.08 -0.0183926 -1.57589 0
M  V30 4932 C 468.01 0.965596 -2.12599 0
M  V30 4933 C 468.991 1.34641 -1.0395 0
M  V30 4934 O 470.176 1.42693 -1.31729 0
M  V30 4935 C 467.306 2.25149 -2.64434 0
M  V30 4936 C 466.26 2.01175 -3.77773 0
M  V30 4937 C 465.586 3.35937 -4.15994 0
M  V30 4938 C 466.886 1.35953 -5.04296 0
M  V30 4939 H 468.58 0.507504 -2.95067 0
M  V30 4940 H 466.126 0.242671 -1.41941 0
M  V30 4941 H 468.079 2.94357 -3.01549 0
M  V30 4942 H 466.803 2.73105 -1.79112 0
M  V30 4943 H 465.462 1.34388 -3.4108 0
M  V30 4944 H 465.11 3.81631 -3.27669 0
M  V30 4945 H 464.81 3.20705 -4.92364 0
M  V30 4946 H 466.334 4.0643 -4.55683 0
M  V30 4947 H 467.748 1.95144 -5.39065 0
M  V30 4948 H 466.145 1.31152 -5.85593 0
M  V30 4949 H 467.215 0.331071 -4.83768 0
M  V30 4950 N 468.558 1.5553 0.254621 0
M  V30 4951 C 469.506 1.9048 1.33492 0
M  V30 4952 C 470.5 0.78304 1.50216 0
M  V30 4953 O 471.706 0.967582 1.51782 0
M  V30 4954 H 468.081 0.604846 0.44684 0
M  V30 4955 H 470.052 2.80688 1.01275 0
M  V30 4956 C 468.801 2.20928 2.68489 0
M  V30 4957 H 468.124 3.06742 2.56417 0
M  V30 4958 H 469.564 2.49291 3.42972 0
M  V30 4959 C 468.023 1.023 3.20993 0
M  V30 4960 O 468.553 0.267027 4.00811 0
M  V30 4961 N 466.759 0.815714 2.78917 0
M  V30 4962 H 466.306 1.43217 2.14119 0
M  V30 4963 H 466.264 0.0236532 3.14391 0
M  V30 4964 N 470.036 -0.519951 1.48776 0
M  V30 4965 C 470.966 -1.63253 1.66945 0
M  V30 4966 C 471.947 -1.62014 0.518224 0
M  V30 4967 O 473.132 -1.79053 0.751919 0
M  V30 4968 C 470.262 -3.0181 1.71836 0
M  V30 4969 C 469.216 -3.17911 2.8656 0
M  V30 4970 C 468.542 -4.5763 2.76548 0
M  V30 4971 C 469.842 -2.99729 4.27738 0
M  V30 4972 H 471.536 -1.48302 2.6009 0
M  V30 4973 H 469.082 -0.712026 1.25165 0
M  V30 4974 H 471.035 -3.79525 1.83135 0
M  V30 4975 H 469.759 -3.17806 0.752775 0
M  V30 4976 H 468.418 -2.42616 2.74833 0
M  V30 4977 H 468.066 -4.70476 1.77937 0
M  V30 4978 H 467.766 -4.69346 3.53536 0
M  V30 4979 H 469.29 -5.37431 2.89828 0
M  V30 4980 H 470.704 -3.67228 4.40246 0
M  V30 4981 H 469.101 -3.22932 5.05801 0
M  V30 4982 H 470.171 -1.96047 4.43502 0
M  V30 4983 N 471.514 -1.37532 -0.769588 0
M  V30 4984 C 472.925 -1.29382 -1.346 0
M  V30 4985 C 473.276 0.0576039 -1.96115 0
M  V30 4986 O 472.401 0.95947 -1.93967 0
M  V30 4987 C 472.996 -2.34298 -2.44724 0
M  V30 4988 C 471.555 -2.29776 -2.98128 0
M  V30 4989 C 470.702 -2.18013 -1.71364 0
M  V30 4990 H 473.653 -1.48123 -0.56968 0
M  V30 4991 H 473.674 -1.99089 -3.24259 0
M  V30 4992 H 473.186 -3.32645 -1.99922 0
M  V30 4993 H 471.287 -1.34959 -3.47299 0
M  V30 4994 H 471.4 -3.23276 -3.53595 0
M  V30 4995 H 469.764 -1.64595 -1.94372 0
M  V30 4996 H 470.547 -3.18278 -1.28662 0
M  V30 4997 N 472.992 0.995999 -1.22138 0
M  V30 4998 C 474.408 1.25917 -0.980667 0
M  V30 4999 C 474.608 1.98819 0.327604 0
M  V30 5000 O 473.664 2.29587 1.05101 0
M  V30 5001 C 474.977 2.07399 -2.17729 0
M  V30 5002 C 476.525 2.20594 -2.22052 0
M  V30 5003 C 477 3.05462 -3.41258 0
M  V30 5004 N 478.491 3.13049 -3.41401 0
M  V30 5005 C 479.226 3.78997 -4.30289 0
M  V30 5006 N 478.722 4.46899 -5.2939 0
M  V30 5007 N 480.515 3.75728 -4.18073 0
M  V30 5008 H 472.666 0.507158 -2.06256 0
M  V30 5009 H 474.929 0.28658 -0.903646 0
M  V30 5010 H 474.635 1.61191 -3.12586 0
M  V30 5011 H 474.509 3.08154 -2.17534 0
M  V30 5012 H 476.896 2.66017 -1.27745 0
M  V30 5013 H 476.977 1.1928 -2.26287 0
M  V30 5014 H 476.621 2.60739 -4.35864 0
M  V30 5015 H 476.551 4.06911 -3.34262 0
M  V30 5016 H 479.042 2.64721 -2.69688 0
M  V30 5017 H 479.355 4.94952 -5.935 0
M  V30 5018 H 477.7 4.45657 -5.33306 0
M  V30 5019 H 480.891 3.2184 -3.39907 0
M  V30 5020 H 481.064 4.26845 -4.87553 0
M  V30 5021 N 474.47 1.03057 1.19235 0
M  V30 5022 C 475.719 0.72326 1.88287 0
M  V30 5023 C 476.032 -0.751333 1.80594 0
M  V30 5024 O 477.238 -1.17176 2.44912 0
M  V30 5025 C 475.694 1.24338 3.3774 0
M  V30 5026 C 475.302 2.74587 3.53986 0
M  V30 5027 C 477.046 1.01213 4.12257 0
M  V30 5028 C 474.953 3.20009 4.97341 0
M  V30 5029 H 473.883 0.266848 0.705201 0
M  V30 5030 H 476.534 1.24509 1.34795 0
M  V30 5031 H 474.916 0.649457 3.90638 0
M  V30 5032 H 476.09 3.39649 3.11408 0
M  V30 5033 H 474.405 2.9601 2.9286 0
M  V30 5034 H 477.002 1.32675 5.17978 0
M  V30 5035 H 477.345 -0.051001 4.16269 0
M  V30 5036 H 477.878 1.57014 3.65501 0
M  V30 5037 H 474.617 4.25659 4.98493 0
M  V30 5038 H 474.137 2.59676 5.40674 0
M  V30 5039 H 475.816 3.13447 5.66003 0
M  V30 5040 N 475.948 -1.35272 0.808662 0
M  V30 5041 C 476.911 -2.28082 0.226093 0
M  V30 5042 C 477.911 -1.49673 -0.587762 0
M  V30 5043 O 479.101 -1.69404 -0.405943 0
M  V30 5044 C 476.233 -3.33955 -0.684596 0
M  V30 5045 H 477.426 -2.81116 1.04469 0
M  V30 5046 H 474.979 -1.45162 0.579466 0
M  V30 5047 H 475.714 -2.86111 -1.5268 0
M  V30 5048 H 475.499 -3.91965 -0.102699 0
M  V30 5049 H 476.989 -4.03219 -1.08646 0
M  V30 5050 N 477.426 -0.562348 -1.47226 0
M  V30 5051 C 478.356 0.170627 -2.32876 0
M  V30 5052 C 479.337 0.903748 -1.44106 0
M  V30 5053 O 480.522 0.883206 -1.72954 0
M  V30 5054 C 477.652 1.19786 -3.25989 0
M  V30 5055 C 476.606 0.580875 -4.2404 0
M  V30 5056 C 475.932 1.71311 -5.06514 0
M  V30 5057 C 477.232 -0.468714 -5.20193 0
M  V30 5058 H 478.926 -0.544441 -2.94408 0
M  V30 5059 H 476.472 -0.263271 -1.41573 0
M  V30 5060 H 478.425 1.71884 -3.84752 0
M  V30 5061 H 477.149 1.94294 -2.62521 0
M  V30 5062 H 475.808 0.0811538 -3.6651 0
M  V30 5063 H 475.456 2.44736 -4.39447 0
M  V30 5064 H 475.156 1.30604 -5.72902 0
M  V30 5065 H 476.68 2.23725 -5.68137 0
M  V30 5066 H 478.094 -0.0336028 -5.7329 0
M  V30 5067 H 476.491 -0.794957 -5.94811 0
M  V30 5068 H 477.561 -1.36269 -4.65359 0
M  V30 5069 N 478.904 1.54736 -0.299062 0
M  V30 5070 C 480.181 1.92187 0.363802 0
M  V30 5071 C 480.561 1.22607 1.71845 0
M  V30 5072 O 479.909 0.361141 2.25628 0
M  V30 5073 C 480.119 3.45678 0.480377 0
M  V30 5074 C 481.467 4.17885 0.752147 0
M  V30 5075 O 482.491 3.51702 0.564264 0
M  V30 5076 O 481.35 5.35048 1.11294 0
M  V30 5077 H 478.444 0.801681 0.203066 0
M  V30 5078 H 480.99 1.66115 -0.346978 0
M  V30 5079 H 479.762 3.88443 -0.471999 0
M  V30 5080 H 479.385 3.77779 1.2397 0
M  V30 5081 N 480.382 0.0267497 1.57577 0
M  V30 5082 C 481.607 -0.666227 1.96408 0
M  V30 5083 C 482.032 -1.65004 0.903071 0
M  V30 5084 O 481.39 -1.80787 -0.136263 0
M  V30 5085 C 481.438 -1.35101 3.34335 0
M  V30 5086 O 480.542 -2.46623 3.30531 0
M  V30 5087 H 479.883 -0.175206 0.640468 0
M  V30 5088 H 482.413 0.0878977 2.04411 0
M  V30 5089 H 482.423 -1.70834 3.70513 0
M  V30 5090 H 481.098 -0.629844 4.11103 0
M  V30 5091 H 479.675 -2.13019 3.06068 0
M  V30 5092 N 481.861 -1.55662 -0.24637 0
M  V30 5093 C 483.091 -1.81312 -0.990438 0
M  V30 5094 C 483.499 -0.600234 -1.79426 0
M  V30 5095 O 482.842 0.440537 -1.78339 0
M  V30 5096 C 482.904 -3.0032 -1.97607 0
M  V30 5097 C 482.568 -4.36322 -1.35912 0
M  V30 5098 C 483.565 -5.14295 -0.761348 0
M  V30 5099 C 481.25 -4.83019 -1.37833 0
M  V30 5100 C 483.244 -6.37114 -0.190998 0
M  V30 5101 C 480.931 -6.05786 -0.804128 0
M  V30 5102 C 481.929 -6.82672 -0.211489 0
M  V30 5103 O 481.617 -8.03121 0.353845 0
M  V30 5104 H 481.349 -0.607233 -0.297058 0
M  V30 5105 H 483.903 -2.0356 -0.274351 0
M  V30 5106 H 482.133 -2.73829 -2.73047 0
M  V30 5107 H 483.822 -3.13057 -2.58361 0
M  V30 5108 H 484.588 -4.79337 -0.739013 0
M  V30 5109 H 480.467 -4.23165 -1.829 0
M  V30 5110 H 484.011 -6.97069 0.272206 0
M  V30 5111 H 479.908 -6.40222 -0.823792 0
M  V30 5112 H 480.676 -8.18131 0.245761 0
M  V30 5113 N 483.339 0.512053 -1.4905 0
M  V30 5114 C 484.588 1.26343 -1.57227 0
M  V30 5115 C 484.901 1.93876 -0.259155 0
M  V30 5116 O 486.107 2.70612 -0.219358 0
M  V30 5117 C 484.563 2.29343 -2.77362 0
M  V30 5118 C 484.171 1.67799 -4.15388 0
M  V30 5119 C 485.915 3.05378 -2.94864 0
M  V30 5120 C 483.822 2.68845 -5.2676 0
M  V30 5121 H 482.752 0.475231 -0.585382 0
M  V30 5122 H 485.403 0.53862 -1.75417 0
M  V30 5123 H 483.785 3.04938 -2.52643 0
M  V30 5124 H 484.959 0.982715 -4.50199 0
M  V30 5125 H 483.274 1.04194 -4.03153 0
M  V30 5126 H 485.871 3.80921 -3.75238 0
M  V30 5127 H 486.214 3.62327 -2.05 0
M  V30 5128 H 486.747 2.36898 -3.19569 0
M  V30 5129 H 483.486 2.16692 -6.18647 0
M  V30 5130 H 483.006 3.36647 -4.96416 0
M  V30 5131 H 484.685 3.31487 -5.5563 0
M  V30 5132 N 484.817 1.37938 0.762283 0
M  V30 5133 C 486.065 1.33404 1.51815 0
M  V30 5134 C 486.386 -0.0780975 1.94844 0
M  V30 5135 O 485.656 -1.02405 1.67003 0
M  V30 5136 H 484.236 0.490839 0.563104 0
M  V30 5137 H 486.898 1.72527 0.906669 0
M  V30 5138 H 485.994 1.97926 2.41313 0
M  V30 5139 N 486.295 -0.989507 1.22664 0
M  V30 5140 C 487.523 -1.76496 1.07967 0
M  V30 5141 C 487.938 -1.85148 -0.369543 0
M  V30 5142 O 487.295 -1.32408 -1.25596 0
M  V30 5143 C 487.346 -3.19642 1.68853 0
M  V30 5144 O 487.067 -3.11453 3.08105 0
M  V30 5145 C 488.568 -4.13621 1.59475 0
M  V30 5146 H 485.788 -0.55418 0.378319 0
M  V30 5147 H 488.332 -1.24378 1.62328 0
M  V30 5148 H 486.487 -3.68816 1.18547 0
M  V30 5149 H 486.901 -4.01499 3.37489 0
M  V30 5150 H 488.375 -5.11801 2.06795 0
M  V30 5151 H 488.852 -4.35718 0.55191 0
M  V30 5152 H 489.458 -3.70346 2.09103 0
M  V30 5153 N 487.773 -1.03688 -1.18687 0
M  V30 5154 C 488.705 -0.582696 -2.21669 0
M  V30 5155 C 489.718 0.345656 -1.59088 0
M  V30 5156 O 490.907 0.140776 -1.77944 0
M  V30 5157 C 488.007 0.169204 -3.38477 0
M  V30 5158 C 487.18 -0.766079 -4.30639 0
M  V30 5159 C 486.239 -0.0581541 -5.26168 0
M  V30 5160 O 485.265 -0.687346 -5.65035 0
M  V30 5161 N 486.467 1.20981 -5.67753 0
M  V30 5162 H 489.232 -1.46843 -2.61261 0
M  V30 5163 H 486.793 -0.916896 -1.33434 0
M  V30 5164 H 488.785 0.652543 -3.99405 0
M  V30 5165 H 487.355 0.956435 -2.97609 0
M  V30 5166 H 486.575 -1.42935 -3.67373 0
M  V30 5167 H 487.863 -1.40146 -4.89118 0
M  V30 5168 H 487.261 1.74159 -5.38224 0
M  V30 5169 H 485.818 1.6375 -6.30896 0
M  V30 5170 N 489.251 1.34841 -0.815825 0
M  V30 5171 C 490.498 1.98499 -0.400535 0
M  V30 5172 C 490.826 1.64699 1.03463 0
M  V30 5173 O 490.081 0.907006 1.73412 0
M  V30 5174 C 490.38 3.53273 -0.541541 0
M  V30 5175 C 490.046 4.06966 -1.94138 0
M  V30 5176 C 488.708 4.21341 -2.32433 0
M  V30 5177 C 491.06 4.35933 -2.85677 0
M  V30 5178 C 488.388 4.62007 -3.61617 0
M  V30 5179 C 490.74 4.78042 -4.14317 0
M  V30 5180 C 489.404 4.90622 -4.52599 0
M  V30 5181 H 488.674 0.72636 -0.146566 0
M  V30 5182 H 491.321 1.60902 -1.0384 0
M  V30 5183 H 489.626 3.91387 0.179741 0
M  V30 5184 H 491.323 4.00497 -0.20085 0
M  V30 5185 H 487.913 3.96235 -1.63388 0
M  V30 5186 H 492.097 4.24372 -2.57337 0
M  V30 5187 H 487.353 4.69937 -3.91113 0
M  V30 5188 H 491.527 4.99415 -4.85342 0
M  V30 5189 H 489.154 5.2189 -5.52752 0
M  V30 5190 N 490.729 0.570148 1.46925 0
M  V30 5191 C 491.677 -0.183181 2.31878 0
M  V30 5192 C 492.671 -0.896721 1.43719 0
M  V30 5193 O 493.877 -0.816536 1.60414 0
M  V30 5194 H 490.252 -0.077944 0.74795 0
M  V30 5195 H 492.223 0.552312 2.93244 0
M  V30 5196 C 490.972 -1.19172 3.2664 0
M  V30 5197 H 490.295 -0.652088 3.94446 0
M  V30 5198 H 491.735 -1.68946 3.88887 0
M  V30 5199 C 490.194 -2.24627 2.51086 0
M  V30 5200 O 490.724 -3.31773 2.26472 0
M  V30 5201 N 488.93 -1.98898 2.11867 0
M  V30 5202 H 488.477 -1.11777 2.32086 0
M  V30 5203 H 488.435 -2.6967 1.61634 0
M  V30 5204 N 492.207 -1.54576 0.307264 0
M  V30 5205 C 493.117 -2.27435 -0.57536 0
M  V30 5206 C 494.133 -1.31183 -1.14311 0
M  V30 5207 O 495.309 -1.64175 -1.16656 0
M  V30 5208 C 492.374 -3.00566 -1.72803 0
M  V30 5209 C 491.435 -4.12369 -1.19373 0
M  V30 5210 C 490.668 -4.82003 -2.29147 0
M  V30 5211 O 490.891 -4.51038 -3.49171 0
M  V30 5212 O 489.825 -5.69271 -1.95485 0
M  V30 5213 H 493.651 -3.03696 0.0158558 0
M  V30 5214 H 491.236 -1.49219 0.0735064 0
M  V30 5215 H 493.118 -3.46416 -2.39946 0
M  V30 5216 H 491.793 -2.27195 -2.30574 0
M  V30 5217 H 490.7 -3.70905 -0.487851 0
M  V30 5218 H 492.033 -4.87736 -0.661376 0
M  V30 5219 N 493.685 -0.035106 -1.57561 0
M  V30 5220 C 494.617 0.973604 -2.07494 0
M  V30 5221 C 495.63 1.28504 -0.999534 0
M  V30 5222 O 496.819 1.24864 -1.27559 0
M  V30 5223 C 493.919 2.29945 -2.48955 0
M  V30 5224 C 493.092 2.1723 -3.79644 0
M  V30 5225 C 492.151 3.328 -4.07592 0
M  V30 5226 O 491.177 3.09418 -4.77754 0
M  V30 5227 N 492.379 4.56779 -3.58236 0
M  V30 5228 H 495.144 0.547525 -2.94656 0
M  V30 5229 H 492.705 0.151515 -1.61189 0
M  V30 5230 H 494.697 3.06097 -2.64739 0
M  V30 5231 H 493.267 2.64173 -1.67126 0
M  V30 5232 H 492.487 1.25768 -3.73599 0
M  V30 5233 H 493.775 2.05945 -4.65257 0
M  V30 5234 H 493.173 4.78668 -3.01485 0
M  V30 5235 H 491.73 5.30079 -3.79288 0
M  V30 5236 N 495.163 1.55791 0.238111 0
M  V30 5237 C 496.11 1.9105 1.29493 0
M  V30 5238 C 497.08 0.765733 1.47397 0
M  V30 5239 O 498.265 1.02017 1.61236 0
M  V30 5240 C 495.405 2.21826 2.64362 0
M  V30 5241 C 494.518 3.49153 2.54394 0
M  V30 5242 C 493.653 3.69455 3.81676 0
M  V30 5243 C 492.692 4.90353 3.66361 0
M  V30 5244 N 491.829 5.07131 4.85554 0
M  V30 5245 H 496.669 2.81172 0.987233 0
M  V30 5246 H 494.206 1.39179 0.476203 0
M  V30 5247 H 496.164 2.37675 3.4288 0
M  V30 5248 H 494.794 1.34897 2.93262 0
M  V30 5249 H 493.846 3.41587 1.67399 0
M  V30 5250 H 495.158 4.37818 2.38991 0
M  V30 5251 H 494.312 3.85311 4.68636 0
M  V30 5252 H 493.051 2.7904 3.99985 0
M  V30 5253 H 492.056 4.74464 2.77784 0
M  V30 5254 H 493.281 5.82237 3.49538 0
M  V30 5255 H 491.227 4.19654 5.04209 0
M  V30 5256 H 491.144 5.89899 4.72816 0
M  V30 5257 H 492.412 5.27407 5.73988 0
M  V30 5258 N 496.642 -0.504142 1.49319 0
M  V30 5259 C 497.889 -1.25846 1.58647 0
M  V30 5260 C 498.217 -1.92592 0.27177 0
M  V30 5261 O 497.472 -1.81167 -0.74007 0
M  V30 5262 C 497.771 -2.35021 2.69258 0
M  V30 5263 C 497.437 -1.85755 4.1086 0
M  V30 5264 C 496.099 -1.72038 4.49395 0
M  V30 5265 C 498.451 -1.48844 4.99495 0
M  V30 5266 C 495.779 -1.19783 5.74342 0
M  V30 5267 C 498.131 -0.980422 6.24956 0
M  V30 5268 C 496.795 -0.829622 6.62324 0
M  V30 5269 H 496.065 -0.460505 0.580531 0
M  V30 5270 H 498.712 -0.559716 1.83138 0
M  V30 5271 H 497.017 -3.10672 2.38726 0
M  V30 5272 H 498.714 -2.93083 2.73685 0
M  V30 5273 H 495.304 -1.9739 3.80441 0
M  V30 5274 H 499.488 -1.5829 4.70381 0
M  V30 5275 H 494.744 -1.06817 6.01997 0
M  V30 5276 H 498.918 -0.685608 6.93017 0
M  V30 5277 H 496.545 -0.42253 7.59025 0
M  V30 5278 N 498.12 -1.38341 -0.754957 0
M  V30 5279 C 499.366 -1.34672 -1.51628 0
M  V30 5280 C 499.699 0.0636036 -1.94096 0
M  V30 5281 O 498.974 1.0245 -1.6533 0
M  V30 5282 C 499.257 -2.30116 -2.76981 0
M  V30 5283 C 499.11 -3.80003 -2.4066 0
M  V30 5284 C 500.429 -2.23715 -3.78998 0
M  V30 5285 H 497.548 -0.490517 -0.550056 0
M  V30 5286 H 500.19 -1.69178 -0.864807 0
M  V30 5287 H 498.34 -2.00821 -3.3257 0
M  V30 5288 H 500.012 -4.19966 -1.90856 0
M  V30 5289 H 498.255 -3.97751 -1.73137 0
M  V30 5290 H 498.926 -4.42244 -3.30339 0
M  V30 5291 H 501.402 -2.49574 -3.32945 0
M  V30 5292 H 500.278 -2.9261 -4.64403 0
M  V30 5293 H 500.539 -1.23554 -4.24484 0
M  V30 5294 N 499.598 0.982988 -1.23187 0
M  V30 5295 C 500.508 2.10907 -1.02739 0
M  V30 5296 C 501.524 1.73979 0.0273188 0
M  V30 5297 O 502.7 2.00702 -0.16757 0
M  V30 5298 C 499.765 3.41142 -0.618304 0
M  V30 5299 C 498.826 3.92112 -1.74777 0
M  V30 5300 C 498.059 5.16131 -1.3581 0
M  V30 5301 O 498.282 5.6989 -0.241201 0
M  V30 5302 O 497.216 5.61103 -2.17824 0
M  V30 5303 H 501.042 2.31046 -1.97108 0
M  V30 5304 H 498.627 1.09284 -1.01869 0
M  V30 5305 H 500.509 4.19488 -0.400982 0
M  V30 5306 H 499.184 3.2234 0.296421 0
M  V30 5307 H 498.091 3.14895 -2.0197 0
M  V30 5308 H 499.424 4.15364 -2.64071 0
M  V30 5309 N 501.076 1.04316 1.18135 0
M  V30 5310 C 502.006 0.657299 2.24058 0
M  V30 5311 C 502.987 -0.340678 1.66654 0
M  V30 5312 O 504.172 -0.220223 1.92947 0
M  V30 5313 C 501.302 0.0220715 3.47293 0
M  V30 5314 C 500.256 0.943857 4.17463 0
M  V30 5315 C 499.582 0.172973 5.3442 0
M  V30 5316 C 500.882 2.26409 4.70677 0
M  V30 5317 H 502.576 1.5428 2.56589 0
M  V30 5318 H 500.122 0.743263 1.23335 0
M  V30 5319 H 502.075 -0.259607 4.206 0
M  V30 5320 H 500.799 -0.898323 3.14003 0
M  V30 5321 H 499.458 1.20996 3.46057 0
M  V30 5322 H 499.106 -0.749907 4.97379 0
M  V30 5323 H 498.806 0.787098 5.82304 0
M  V30 5324 H 500.33 -0.101628 6.10515 0
M  V30 5325 H 501.744 2.04294 5.35665 0
M  V30 5326 H 500.141 2.8314 5.29105 0
M  V30 5327 H 501.211 2.90883 3.87962 0
M  V30 5328 N 502.554 -1.34406 0.822964 0
M  V30 5329 C 503.801 -1.98284 0.411057 0
M  V30 5330 C 504.129 -1.65245 -1.02588 0
M  V30 5331 O 503.384 -0.91619 -1.72929 0
M  V30 5332 C 503.683 -3.52981 0.560268 0
M  V30 5333 C 503.349 -4.05931 1.96293 0
M  V30 5334 C 502.011 -4.20103 2.34664 0
M  V30 5335 C 504.363 -4.34412 2.87985 0
M  V30 5336 C 501.691 -4.60082 3.64062 0
M  V30 5337 C 504.043 -4.75838 4.16847 0
M  V30 5338 C 502.707 -4.88215 4.55195 0
M  V30 5339 H 501.977 -0.725573 0.150416 0
M  V30 5340 H 504.624 -1.60349 1.04692 0
M  V30 5341 H 502.929 -3.91477 -0.158982 0
M  V30 5342 H 504.626 -4.00385 0.222087 0
M  V30 5343 H 501.216 -3.95363 1.65487 0
M  V30 5344 H 505.4 -4.23001 2.59584 0
M  V30 5345 H 500.656 -4.67856 3.93599 0
M  V30 5346 H 504.83 -4.96834 4.87984 0
M  V30 5347 H 502.457 -5.18952 5.55512 0
M  V30 5348 N 504.032 -0.577932 -1.46621 0
M  V30 5349 C 504.98 0.170882 -2.31971 0
M  V30 5350 C 505.974 0.889086 -1.44193 0
M  V30 5351 O 507.18 0.808017 -1.60845 0
M  V30 5352 H 503.555 0.0739763 -0.748353 0
M  V30 5353 H 505.526 -0.567856 -2.92947 0
M  V30 5354 C 504.275 1.17438 -3.27267 0
M  V30 5355 H 503.598 0.63116 -3.94787 0
M  V30 5356 H 505.038 1.66882 -3.89778 0
M  V30 5357 C 503.497 2.23292 -2.52274 0
M  V30 5358 O 504.027 3.30567 -2.28229 0
M  V30 5359 N 502.233 1.97772 -2.12919 0
M  V30 5360 H 501.78 1.10545 -2.32675 0
M  V30 5361 H 501.738 2.68809 -1.63062 0
M  V30 5362 N 505.51 1.54411 -0.315457 0
M  V30 5363 C 506.42 2.27737 0.56329 0
M  V30 5364 C 507.436 1.31787 1.13614 0
M  V30 5365 O 508.612 1.64791 1.15784 0
M  V30 5366 C 505.677 3.01478 1.71207 0
M  V30 5367 C 504.738 4.12997 1.17185 0
M  V30 5368 C 503.971 4.83212 2.26588 0
M  V30 5369 O 504.194 4.52884 3.46775 0
M  V30 5370 O 503.128 5.70299 1.92463 0
M  V30 5371 H 506.954 3.03683 -0.0319614 0
M  V30 5372 H 504.539 1.49178 -0.0814188 0
M  V30 5373 H 506.421 3.47683 2.38106 0
M  V30 5374 H 505.096 2.28414 2.29366 0
M  V30 5375 H 504.003 3.71159 0.468174 0
M  V30 5376 H 505.336 4.8808 0.635501 0
M  V30 5377 N 506.988 0.0434614 1.5754 0
M  V30 5378 C 508.404 -0.313039 1.565 0
M  V30 5379 C 508.604 -1.71954 1.05043 0
M  V30 5380 O 507.66 -2.425 0.703564 0
M  V30 5381 C 508.973 -0.148544 3.00333 0
M  V30 5382 C 510.521 -0.220231 3.12224 0
M  V30 5383 C 510.996 -0.0843565 4.57922 0
M  V30 5384 N 512.487 -0.140881 4.62986 0
M  V30 5385 C 513.222 -0.0597443 5.73369 0
M  V30 5386 N 512.718 0.0733004 6.92761 0
M  V30 5387 N 514.511 -0.11477 5.61983 0
M  V30 5388 H 506.662 0.96303 1.89313 0
M  V30 5389 H 508.925 0.373164 0.871466 0
M  V30 5390 H 508.631 0.820894 3.41986 0
M  V30 5391 H 508.505 -0.912798 3.65989 0
M  V30 5392 H 510.892 -1.18014 2.70475 0
M  V30 5393 H 510.973 0.574646 2.49262 0
M  V30 5394 H 510.617 0.872192 5.00355 0
M  V30 5395 H 510.547 -0.898281 5.18882 0
M  V30 5396 H 513.038 -0.243273 3.77116 0
M  V30 5397 H 513.351 0.128128 7.72694 0
M  V30 5398 H 511.696 0.10828 6.94916 0
M  V30 5399 H 514.887 -0.217212 4.67596 0
M  V30 5400 H 515.06 -0.0480779 6.47982 0
M  V30 5401 N 508.466 -1.55915 -0.229846 0
M  V30 5402 C 509.399 -1.86734 -1.3117 0
M  V30 5403 C 510.377 -0.723947 -1.45595 0
M  V30 5404 O 511.561 -0.971462 -1.61539 0
M  V30 5405 C 508.688 -2.06707 -2.68309 0
M  V30 5406 C 507.734 -3.2938 -2.70944 0
M  V30 5407 S 508.567 -4.85547 -2.25842 0
M  V30 5408 C 509.723 -5.08546 -3.64873 0
M  V30 5409 H 509.956 -2.78204 -1.04832 0
M  V30 5410 H 507.489 -1.48243 -0.431681 0
M  V30 5411 H 509.447 -2.18898 -3.47267 0
M  V30 5412 H 508.108 -1.16049 -2.91876 0
M  V30 5413 H 507.301 -3.40374 -3.71701 0
M  V30 5414 H 506.903 -3.16004 -2.00044 0
M  V30 5415 H 509.195 -4.96935 -4.60502 0
M  V30 5416 H 510.138 -6.10465 -3.58801 0
M  V30 5417 H 510.546 -4.36314 -3.58176 0
M  V30 5418 N 509.944 0.496216 -1.49584 0
M  V30 5419 C 511.221 1.25755 -1.49816 0
M  V30 5420 C 511.601 2.09859 -0.228572 0
M  V30 5421 O 510.949 2.14449 0.788908 0
M  V30 5422 C 511.159 2.11017 -2.7798 0
M  V30 5423 C 512.507 2.70047 -3.27658 0
M  V30 5424 O 513.531 2.21281 -2.79129 0
M  V30 5425 O 512.39 3.58834 -4.1219 0
M  V30 5426 H 509.484 0.569322 -0.599834 0
M  V30 5427 H 512.03 0.510094 -1.61852 0
M  V30 5428 H 510.802 1.48879 -3.61871 0
M  V30 5429 H 510.425 2.92947 -2.68827 0
M  V30 5430 N 511.423 1.38739 0.74761 0
M  V30 5431 C 512.353 1.39173 1.87492 0
M  V30 5432 C 513.334 0.256794 1.6815 0
M  V30 5433 O 514.519 0.460762 1.88655 0
M  V30 5434 C 511.649 1.22197 3.25093 0
M  V30 5435 C 510.603 2.32957 3.59047 0
M  V30 5436 C 509.929 2.01082 4.95449 0
M  V30 5437 C 511.229 3.75237 3.6331 0
M  V30 5438 H 512.923 2.3351 1.87386 0
M  V30 5439 H 510.469 1.12399 0.900134 0
M  V30 5440 H 512.422 1.21124 4.03617 0
M  V30 5441 H 511.146 0.243241 3.25693 0
M  V30 5442 H 509.805 2.33226 2.82845 0
M  V30 5443 H 509.453 1.01678 4.92616 0
M  V30 5444 H 509.153 2.75267 5.19136 0
M  V30 5445 H 510.677 2.01638 5.76346 0
M  V30 5446 H 512.091 3.76966 4.31937 0
M  V30 5447 H 510.488 4.48677 3.98509 0
M  V30 5448 H 511.558 4.07122 2.634 0
M  V30 5449 N 512.901 -0.976442 1.23707 0
M  V30 5450 C 514.141 -1.73331 1.08332 0
M  V30 5451 C 514.505 -1.88346 -0.372781 0
M  V30 5452 O 515.706 -2.60877 -0.647813 0
M  V30 5453 C 513.977 -3.09159 1.7932 0
M  V30 5454 S 515.536 -4.00376 1.79567 0
M  V30 5455 H 512.354 -0.596045 0.387622 0
M  V30 5456 H 514.956 -1.16625 1.56904 0
M  V30 5457 H 513.66 -2.95884 2.84395 0
M  V30 5458 H 513.191 -3.70932 1.31046 0
M  V30 5459 H 515.206 -4.88742 0.857094 0
M  V30 5460 N 514.379 -1.04941 -1.1758 0
M  V30 5461 C 515.626 -0.757989 -1.87779 0
M  V30 5462 C 515.954 0.714827 -1.80888 0
M  V30 5463 O 515.209 1.53824 -1.20982 0
M  V30 5464 C 515.508 -1.18062 -3.37337 0
M  V30 5465 C 515.174 -2.65521 -3.6443 0
M  V30 5466 C 513.836 -3.05804 -3.71534 0
M  V30 5467 C 516.188 -3.60822 -3.76108 0
M  V30 5468 C 513.516 -4.40256 -3.87803 0
M  V30 5469 C 515.868 -4.95005 -3.93895 0
M  V30 5470 C 514.532 -5.34945 -3.99237 0
M  V30 5471 H 513.802 -0.277368 -0.68713 0
M  V30 5472 H 516.449 -1.31603 -1.39115 0
M  V30 5473 H 514.754 -0.541525 -3.8804 0
M  V30 5474 H 516.451 -0.932368 -3.9001 0
M  V30 5475 H 513.041 -2.33324 -3.59524 0
M  V30 5476 H 517.225 -3.30841 -3.69943 0
M  V30 5477 H 512.481 -4.70707 -3.90186 0
M  V30 5478 H 516.655 -5.68746 -4.01872 0
M  V30 5479 H 514.282 -6.39135 -4.11596 0
M  V30 5480 N 515.857 1.33968 -0.830081 0
M  V30 5481 C 516.767 2.33164 -0.259207 0
M  V30 5482 C 517.783 1.62951 0.610164 0
M  V30 5483 O 518.959 1.94668 0.516369 0
M  V30 5484 C 516.024 3.42088 0.563598 0
M  V30 5485 C 515.085 4.28037 -0.329014 0
M  V30 5486 C 514.318 5.3176 0.454616 0
M  V30 5487 O 514.541 5.44876 1.6872 0
M  V30 5488 O 513.475 6.01669 -0.166794 0
M  V30 5489 H 517.301 2.83832 -1.08041 0
M  V30 5490 H 514.886 1.37154 -0.59239 0
M  V30 5491 H 516.768 4.08581 1.03147 0
M  V30 5492 H 515.443 2.93651 1.36201 0
M  V30 5493 H 514.35 3.64443 -0.844538 0
M  V30 5494 H 515.683 4.79934 -1.09196 0
M  V30 5495 N 517.335 0.585699 1.46312 0
M  V30 5496 C 518.298 -0.135673 2.28798 0
M  V30 5497 C 519.298 -0.815988 1.38558 0
M  V30 5498 O 520.488 -0.667487 1.60904 0
M  V30 5499 C 517.62 -1.20163 3.1902 0
M  V30 5500 H 518.813 0.589257 2.94054 0
M  V30 5501 H 516.366 0.343794 1.52472 0
M  V30 5502 H 517.101 -1.95804 2.58517 0
M  V30 5503 H 516.886 -0.718282 3.85465 0
M  V30 5504 H 518.376 -1.70749 3.81096 0
M  V30 5505 N 518.813 -1.54241 0.323641 0
M  V30 5506 C 519.743 -2.27289 -0.534993 0
M  V30 5507 C 520.724 -1.28087 -1.11927 0
M  V30 5508 O 521.909 -1.56899 -1.14439 0
M  V30 5509 C 519.039 -3.03075 -1.69596 0
M  V30 5510 C 517.993 -4.09614 -1.24098 0
M  V30 5511 C 517.319 -4.73242 -2.4889 0
M  V30 5512 C 518.619 -5.21087 -0.355789 0
M  V30 5513 H 520.313 -2.99308 0.0743257 0
M  V30 5514 H 517.859 -1.43952 0.0371874 0
M  V30 5515 H 519.812 -3.52907 -2.30293 0
M  V30 5516 H 518.536 -2.28673 -2.33187 0
M  V30 5517 H 517.195 -3.60666 -0.656945 0
M  V30 5518 H 516.843 -3.95455 -3.10845 0
M  V30 5519 H 516.543 -5.45209 -2.19138 0
M  V30 5520 H 518.067 -5.25848 -3.10348 0
M  V30 5521 H 519.481 -5.66675 -0.869042 0
M  V30 5522 H 517.878 -5.9991 -0.151045 0
M  V30 5523 H 518.948 -4.81005 0.613339 0
M  V30 5524 N 520.291 -0.0518155 -1.57515 0
M  V30 5525 C 521.224 0.957758 -2.07129 0
M  V30 5526 C 522.202 1.30355 -0.971927 0
M  V30 5527 O 523.386 1.41631 -1.2439 0
M  V30 5528 C 520.513 2.27157 -2.51232 0
M  V30 5529 C 519.559 2.07879 -3.72409 0
M  V30 5530 S 520.392 1.35656 -5.18033 0
M  V30 5531 C 521.548 2.68359 -5.65451 0
M  V30 5532 H 521.781 0.53552 -2.92437 0
M  V30 5533 H 519.314 0.160465 -1.53564 0
M  V30 5534 H 521.272 3.02676 -2.77304 0
M  V30 5535 H 519.933 2.66509 -1.66228 0
M  V30 5536 H 519.126 3.05061 -4.01191 0
M  V30 5537 H 518.728 1.40499 -3.46606 0
M  V30 5538 H 521.02 3.64526 -5.71076 0
M  V30 5539 H 521.963 2.44213 -6.64654 0
M  V30 5540 H 522.371 2.74647 -4.93183 0
M  V30 5541 N 521.769 1.56035 0.221574 0
M  V30 5542 C 523.009 1.80822 0.953038 0
M  V30 5543 C 523.373 0.625316 1.81532 0
M  V30 5544 O 524.574 0.752491 2.58052 0
M  V30 5545 C 522.845 3.10503 1.76983 0
M  V30 5546 S 524.404 3.56604 2.55693 0
M  V30 5547 H 521.222 0.634849 0.320137 0
M  V30 5548 H 523.824 1.94274 0.218619 0
M  V30 5549 H 522.528 3.94636 1.12651 0
M  V30 5550 H 522.059 2.99858 2.54655 0
M  V30 5551 H 524.074 3.1994 3.79279 0
M  V30 5552 N 523.247 -0.488276 1.49845 0
M  V30 5553 C 524.663 -0.820566 1.3689 0
M  V30 5554 C 524.863 -1.97248 0.411752 0
M  V30 5555 O 523.919 -2.52042 -0.151931 0
M  V30 5556 C 525.232 -1.1488 2.77891 0
M  V30 5557 C 526.78 -1.25626 2.86683 0
M  V30 5558 C 527.255 -1.61772 4.28479 0
M  V30 5559 N 528.746 -1.68797 4.31349 0
M  V30 5560 C 529.481 -1.98235 5.38043 0
M  V30 5561 N 528.977 -2.2581 6.54967 0
M  V30 5562 N 530.77 -1.99593 5.2547 0
M  V30 5563 H 522.921 0.271123 2.10662 0
M  V30 5564 H 525.184 0.058735 0.946179 0
M  V30 5565 H 524.89 -0.375614 3.49688 0
M  V30 5566 H 524.764 -2.08919 3.14058 0
M  V30 5567 H 527.151 -2.02014 2.15114 0
M  V30 5568 H 527.232 -0.296072 2.54081 0
M  V30 5569 H 526.876 -0.859295 5.00578 0
M  V30 5570 H 526.806 -2.58912 4.58554 0
M  V30 5571 H 529.297 -1.49595 3.4703 0
M  V30 5572 H 529.61 -2.47497 7.32096 0
M  V30 5573 H 527.955 -2.23239 6.58171 0
M  V30 5574 H 531.146 -1.77535 4.33127 0
M  V30 5575 H 531.319 -2.222 6.08713 0
M  V30 5576 N 524.725 -1.39134 -0.740242 0
M  V30 5577 C 525.974 -1.35384 -1.49512 0
M  V30 5578 C 526.287 0.04919 -1.95538 0
M  V30 5579 O 527.493 0.209257 -2.70692 0
M  V30 5580 C 525.949 -2.37812 -2.70136 0
M  V30 5581 C 525.557 -3.83804 -2.31081 0
M  V30 5582 C 527.301 -2.4313 -3.47977 0
M  V30 5583 C 525.208 -4.77886 -3.48395 0
M  V30 5584 H 524.138 -0.503297 -0.561434 0
M  V30 5585 H 526.789 -1.64754 -0.807974 0
M  V30 5586 H 525.171 -2.01505 -3.40899 0
M  V30 5587 H 526.345 -4.29123 -1.67898 0
M  V30 5588 H 524.66 -3.81732 -1.66343 0
M  V30 5589 H 527.257 -3.10614 -4.35228 0
M  V30 5590 H 527.6 -1.45423 -3.90074 0
M  V30 5591 H 528.133 -2.78304 -2.84239 0
M  V30 5592 H 524.872 -5.76836 -3.11353 0
M  V30 5593 H 524.392 -4.3725 -4.10576 0
M  V30 5594 H 526.071 -4.96538 -4.148 0
M  V30 5595 N 526.204 0.969867 -1.24223 0
M  V30 5596 C 527.429 1.75289 -1.10853 0
M  V30 5597 C 527.854 1.85091 0.335079 0
M  V30 5598 O 527.212 1.32024 1.24255 0
M  V30 5599 C 527.26 3.15255 -1.75062 0
M  V30 5600 O 526.364 3.99589 -1.01992 0
M  V30 5601 H 525.705 0.538904 -0.387915 0
M  V30 5602 H 528.235 1.21675 -1.64488 0
M  V30 5603 H 528.245 3.65787 -1.80731 0
M  V30 5604 H 526.92 3.07436 -2.801 0
M  V30 5605 H 525.497 3.58077 -1.04094 0
M  V30 5606 N 527.682 1.05563 1.17022 0
M  V30 5607 C 528.907 0.788437 1.91829 0
M  V30 5608 C 529.332 -0.650356 1.76499 0
M  V30 5609 O 528.69 -1.45229 1.08527 0
M  V30 5610 C 528.738 1.1786 3.40795 0
M  V30 5611 O 527.842 0.312965 4.11211 0
M  V30 5612 H 527.183 0.288794 0.597908 0
M  V30 5613 H 529.713 1.40948 1.48307 0
M  V30 5614 H 529.723 1.14697 3.91546 0
M  V30 5615 H 528.398 2.22666 3.51273 0
M  V30 5616 H 526.975 0.405515 3.70689 0
M  V30 5617 N 529.16 -1.33526 0.837174 0
M  V30 5618 C 530.09 -2.31764 0.284206 0
M  V30 5619 C 531.071 -1.58896 -0.607142 0
M  V30 5620 O 532.256 -1.86798 -0.531047 0
M  V30 5621 C 529.386 -3.43029 -0.542962 0
M  V30 5622 C 528.34 -4.27255 0.252451 0
M  V30 5623 C 527.666 -5.3012 -0.69836 0
M  V30 5624 C 528.966 -5.01229 1.46858 0
M  V30 5625 H 530.66 -2.78262 1.10502 0
M  V30 5626 H 528.206 -1.3378 0.532812 0
M  V30 5627 H 530.159 -4.1078 -0.940096 0
M  V30 5628 H 528.883 -2.95216 -1.39697 0
M  V30 5629 H 527.542 -3.61127 0.631124 0
M  V30 5630 H 527.19 -4.78564 -1.54872 0
M  V30 5631 H 526.89 -5.87353 -0.170274 0
M  V30 5632 H 528.414 -6.00737 -1.09305 0
M  V30 5633 H 529.828 -5.61756 1.14469 0
M  V30 5634 H 528.225 -5.68104 1.93333 0
M  V30 5635 H 529.295 -4.301 2.23924 0
M  V30 5636 N 530.638 -0.59345 -1.46 0
M  V30 5637 C 531.585 0.133618 -2.30413 0
M  V30 5638 C 532.555 0.873736 -1.41262 0
M  V30 5639 O 533.74 0.862279 -1.70204 0
M  V30 5640 C 530.88 1.13434 -3.25924 0
M  V30 5641 C 529.993 0.39656 -4.30176 0
M  V30 5642 C 529.128 1.38575 -5.12806 0
M  V30 5643 C 528.167 0.634984 -6.08797 0
M  V30 5644 N 527.304 1.57276 -6.84258 0
M  V30 5645 H 532.144 -0.592252 -2.92055 0
M  V30 5646 H 529.681 -0.303874 -1.43927 0
M  V30 5647 H 531.639 1.72752 -3.79753 0
M  V30 5648 H 530.269 1.82779 -2.66067 0
M  V30 5649 H 529.321 -0.311861 -3.79119 0
M  V30 5650 H 530.633 -0.189869 -4.98438 0
M  V30 5651 H 529.787 2.05141 -5.70966 0
M  V30 5652 H 528.526 2.00611 -4.44529 0
M  V30 5653 H 527.531 -0.0443925 -5.49782 0
M  V30 5654 H 528.756 0.0198678 -6.79097 0
M  V30 5655 H 526.702 2.18103 -6.18682 0
M  V30 5656 H 526.619 1.03941 -7.48821 0
M  V30 5657 H 527.887 2.22844 -7.46968 0
M  V30 5658 N 532.116 1.54067 -0.331816 0
M  V30 5659 C 533.364 2.00319 0.267739 0
M  V30 5660 C 533.685 1.22148 1.52003 0
M  V30 5661 O 532.955 0.325494 1.93177 0
M  V30 5662 H 531.535 0.740014 0.101922 0
M  V30 5663 H 534.197 1.89628 -0.450267 0
M  V30 5664 H 533.293 3.07765 0.518385 0
M  V30 5665 N 533.594 0.0601682 1.57485 0
M  V30 5666 C 534.84 -0.612501 1.93329 0
M  V30 5667 C 535.173 -1.6996 0.939526 0
M  V30 5668 O 534.448 -1.94472 -0.0330957 0
M  V30 5669 C 534.731 -1.20025 3.39508 0
M  V30 5670 C 534.584 -0.12059 4.49638 0
M  V30 5671 C 535.903 -2.10923 3.86264 0
M  V30 5672 H 533.022 -0.221185 0.703027 0
M  V30 5673 H 535.664 0.123768 1.89596 0
M  V30 5674 H 533.814 -1.82774 3.42821 0
M  V30 5675 H 535.486 0.51185 4.58452 0
M  V30 5676 H 533.729 0.550251 4.30296 0
M  V30 5677 H 534.4 -0.572019 5.49028 0
M  V30 5678 H 536.876 -1.58124 3.84884 0
M  V30 5679 H 535.752 -2.48987 4.8918 0
M  V30 5680 H 536.013 -3.01292 3.23536 0
M  V30 5681 N 535.072 -1.5615 -0.213296 0
M  V30 5682 C 536.019 -1.93086 -1.26437 0
M  V30 5683 C 536.989 -0.789086 -1.4616 0
M  V30 5684 O 538.174 -1.04569 -1.59593 0
M  V30 5685 C 535.314 -2.26003 -2.608 0
M  V30 5686 C 534.427 -3.53156 -2.48807 0
M  V30 5687 C 533.562 -3.7548 -3.7575 0
M  V30 5688 C 532.601 -4.96119 -3.58514 0
M  V30 5689 N 531.738 -5.14791 -4.77425 0
M  V30 5690 H 536.578 -2.82707 -0.942376 0
M  V30 5691 H 534.115 -1.39919 -0.454001 0
M  V30 5692 H 536.073 -2.431 -3.39055 0
M  V30 5693 H 534.703 -1.39546 -2.91079 0
M  V30 5694 H 533.755 -3.44207 -1.61944 0
M  V30 5695 H 535.067 -4.41565 -2.31996 0
M  V30 5696 H 534.221 -3.92718 -4.62447 0
M  V30 5697 H 532.96 -2.85368 -3.95495 0
M  V30 5698 H 531.965 -4.78823 -2.70201 0
M  V30 5699 H 533.19 -5.87724 -3.40231 0
M  V30 5700 H 531.136 -4.27623 -4.97468 0
M  V30 5701 H 531.053 -5.97347 -4.63371 0
M  V30 5702 H 532.321 -5.36471 -5.65525 0
M  V30 5703 N 536.55 0.480323 -1.50102 0
M  V30 5704 C 537.513 1.56181 -1.6775 0
M  V30 5705 C 538.513 1.51156 -0.548503 0
M  V30 5706 O 539.703 1.5394 -0.815363 0
M  V30 5707 C 536.835 2.95823 -1.69415 0
M  V30 5708 H 538.028 1.41855 -2.6423 0
M  V30 5709 H 535.581 0.70605 -1.39444 0
M  V30 5710 H 536.316 3.15604 -0.745948 0
M  V30 5711 H 536.101 3.00878 -2.51425 0
M  V30 5712 H 537.591 3.74359 -1.85054 0
M  V30 5713 N 538.028 1.39524 0.732853 0
M  V30 5714 C 539.256 1.40143 1.52209 0
M  V30 5715 C 539.671 -0.00348836 1.888 0
M  V30 5716 O 539.028 -0.975357 1.5425 0
M  V30 5717 C 539.079 2.27632 2.8083 0
M  V30 5718 O 538.8 3.62654 2.45792 0
M  V30 5719 C 540.301 2.36658 3.74844 0
M  V30 5720 H 537.521 0.478604 0.470297 0
M  V30 5721 H 540.065 1.83366 0.905388 0
M  V30 5722 H 538.22 1.87818 3.38826 0
M  V30 5723 H 538.634 4.08941 3.28431 0
M  V30 5724 H 540.108 3.02118 4.61984 0
M  V30 5725 H 540.585 1.38638 4.16745 0
M  V30 5726 H 541.191 2.76951 3.22766 0
M  V30 5727 N 539.506 -0.963266 1.24736 0
M  V30 5728 C 540.752 -1.70933 1.09131 0
M  V30 5729 C 541.085 -1.90676 -0.368273 0
M  V30 5730 O 540.36 -1.47147 -1.27193 0
M  V30 5731 C 540.643 -3.09744 1.83658 0
M  V30 5732 C 540.496 -2.97465 3.37394 0
M  V30 5733 C 541.815 -4.09483 1.61282 0
M  V30 5734 H 538.934 -0.620398 0.397838 0
M  V30 5735 H 541.576 -1.12028 1.53459 0
M  V30 5736 H 539.726 -3.60031 1.4598 0
M  V30 5737 H 541.398 -2.54571 3.84696 0
M  V30 5738 H 539.641 -2.33576 3.65547 0
M  V30 5739 H 540.312 -3.95822 3.84745 0
M  V30 5740 H 542.788 -3.68073 1.94066 0
M  V30 5741 H 541.664 -5.04666 2.15878 0
M  V30 5742 H 541.925 -4.38639 0.552102 0
M  V30 5743 N 540.985 -1.06182 -1.16461 0
M  V30 5744 C 541.948 -0.675723 -2.19013 0
M  V30 5745 C 542.948 0.277963 -1.58379 0
M  V30 5746 O 544.138 0.0604962 -1.74095 0
M  V30 5747 C 541.27 0.00591459 -3.40899 0
M  V30 5748 H 542.463 -1.58353 -2.54685 0
M  V30 5749 H 540.016 -0.856908 -1.30716 0
M  V30 5750 H 540.751 0.92652 -3.10783 0
M  V30 5751 H 540.536 -0.67984 -3.86161 0
M  V30 5752 H 542.026 0.26181 -4.16778 0
M  V30 5753 N 542.463 1.3308 -0.844243 0
M  V30 5754 C 543.874 1.7992 -0.498566 0
M  V30 5755 C 544.225 1.69808 0.982834 0
M  V30 5756 O 543.35 1.25051 1.7661 0
M  V30 5757 C 543.945 3.26677 -0.898204 0
M  V30 5758 C 542.504 3.71513 -0.604583 0
M  V30 5759 C 541.651 2.54393 -1.10362 0
M  V30 5760 H 544.602 1.20526 -1.03244 0
M  V30 5761 H 544.623 3.79918 -0.21039 0
M  V30 5762 H 544.135 3.34004 -1.97643 0
M  V30 5763 H 542.236 3.69708 0.46335 0
M  V30 5764 H 542.349 4.64755 -1.16358 0
M  V30 5765 H 540.713 2.49246 -0.524273 0
M  V30 5766 H 541.496 2.6448 -2.18873 0
M  V30 5767 N 543.941 0.601185 1.45683 0
M  V30 5768 C 545.19 0.0914953 2.01492 0
M  V30 5769 C 545.503 -1.28331 1.47616 0
M  V30 5770 O 546.709 -1.88537 1.95362 0
M  V30 5771 C 545.165 0.11291 3.59723 0
M  V30 5772 C 544.773 1.48717 4.22596 0
M  V30 5773 C 546.517 -0.341871 4.23121 0
M  V30 5774 C 544.424 1.46531 5.7296 0
M  V30 5775 H 543.354 0.0304365 0.753385 0
M  V30 5776 H 546.005 0.755568 1.67223 0
M  V30 5777 H 544.387 -0.617692 3.91153 0
M  V30 5778 H 545.561 2.23897 4.02749 0
M  V30 5779 H 543.876 1.88351 3.71366 0
M  V30 5780 H 546.473 -0.377304 5.33367 0
M  V30 5781 H 546.816 -1.36325 3.93346 0
M  V30 5782 H 547.349 0.335256 3.96385 0
M  V30 5783 H 544.088 2.46408 6.07423 0
M  V30 5784 H 543.608 0.755997 5.95017 0
M  V30 5785 H 545.287 1.18618 6.36034 0
M  V30 5786 N 545.419 -1.53889 0.339982 0
M  V30 5787 C 546.349 -2.27843 -0.510856 0
M  V30 5788 C 547.33 -1.29267 -1.10563 0
M  V30 5789 O 548.515 -1.58104 -1.12768 0
M  V30 5790 C 545.645 -3.04857 -1.66372 0
M  V30 5791 C 544.599 -4.10907 -1.19746 0
M  V30 5792 C 543.925 -4.75855 -2.43857 0
M  V30 5793 C 545.225 -5.21435 -0.300501 0
M  V30 5794 H 546.919 -2.99212 0.106067 0
M  V30 5795 H 544.465 -1.43904 0.0524533 0
M  V30 5796 H 546.418 -3.5533 -2.26537 0
M  V30 5797 H 545.142 -2.31133 -2.30749 0
M  V30 5798 H 543.801 -3.61342 -0.618654 0
M  V30 5799 H 543.449 -3.9873 -3.06633 0
M  V30 5800 H 543.149 -5.47502 -2.13343 0
M  V30 5801 H 544.673 -5.2911 -3.04754 0
M  V30 5802 H 546.087 -5.67565 -0.80889 0
M  V30 5803 H 544.484 -6.00036 -0.0874076 0
M  V30 5804 H 545.554 -4.80328 0.664321 0
M  V30 5805 N 546.897 -0.0685191 -1.57451 0
M  V30 5806 C 548.127 0.609577 -1.97402 0
M  V30 5807 C 548.535 1.63882 -0.945489 0
M  V30 5808 O 547.878 1.8354 0.0766052 0
M  V30 5809 C 547.94 1.3385 -3.33653 0
M  V30 5810 C 547.604 0.463103 -4.54648 0
M  V30 5811 C 548.601 -0.277964 -5.19156 0
M  V30 5812 C 546.286 0.388941 -5.00792 0
M  V30 5813 C 548.28 -1.08145 -6.28159 0
M  V30 5814 C 545.967 -0.418217 -6.09667 0
M  V30 5815 C 546.965 -1.15208 -6.73213 0
M  V30 5816 O 546.653 -1.94594 -7.79993 0
M  V30 5817 H 546.385 0.170197 -0.654224 0
M  V30 5818 H 548.939 -0.13647 -2.04946 0
M  V30 5819 H 547.169 2.13055 -3.22714 0
M  V30 5820 H 548.858 1.90851 -3.58233 0
M  V30 5821 H 549.624 -0.230241 -4.84453 0
M  V30 5822 H 545.503 0.949769 -4.5111 0
M  V30 5823 H 549.047 -1.65476 -6.7769 0
M  V30 5824 H 544.944 -0.467515 -6.43805 0
M  V30 5825 H 545.712 -1.8699 -7.96854 0
M  V30 5826 N 548.375 1.56261 0.205012 0
M  V30 5827 C 549.307 1.90266 1.27795 0
M  V30 5828 C 550.32 0.792397 1.42214 0
M  V30 5829 O 551.509 1.07077 1.42817 0
M  V30 5830 C 548.609 2.11074 2.65143 0
M  V30 5831 C 547.782 3.42176 2.7246 0
M  V30 5832 C 546.841 3.52216 3.90936 0
M  V30 5833 O 545.867 4.25119 3.78501 0
M  V30 5834 N 547.069 2.84573 5.05963 0
M  V30 5835 H 549.834 2.82896 0.989434 0
M  V30 5836 H 547.395 1.57008 0.394981 0
M  V30 5837 H 549.387 2.15089 3.4281 0
M  V30 5838 H 547.957 1.2499 2.86524 0
M  V30 5839 H 547.177 3.50116 1.81142 0
M  V30 5840 H 548.465 4.28509 2.74331 0
M  V30 5841 H 547.863 2.25152 5.18963 0
M  V30 5842 H 546.42 2.94228 5.81613 0
M  V30 5843 N 549.853 -0.472356 1.50355 0
M  V30 5844 C 550.763 -1.59637 1.7191 0
M  V30 5845 C 551.779 -1.63247 0.602195 0
M  V30 5846 O 552.955 -1.81139 0.880369 0
M  V30 5847 C 550.02 -2.9586 1.80742 0
M  V30 5848 C 549.081 -3.02649 3.04471 0
M  V30 5849 C 548.314 -4.32374 3.12872 0
M  V30 5850 O 548.537 -5.22807 2.28099 0
M  V30 5851 O 547.471 -4.44728 4.05587 0
M  V30 5852 H 551.297 -1.44373 2.67189 0
M  V30 5853 H 548.882 -0.651717 1.34436 0
M  V30 5854 H 550.764 -3.7677 1.88739 0
M  V30 5855 H 549.439 -3.11325 0.88647 0
M  V30 5856 H 548.346 -2.20821 3.01975 0
M  V30 5857 H 549.679 -2.92119 3.9614 0
M  V30 5858 N 551.331 -1.39911 -0.725443 0
M  V30 5859 C 552.579 -1.37382 -1.48224 0
M  V30 5860 C 552.9 0.0264107 -1.94982 0
M  V30 5861 O 552.17 0.979408 -1.6966 0
M  V30 5862 H 550.75 -0.505596 -0.549892 0
M  V30 5863 H 553.412 -1.7487 -0.860608 0
M  V30 5864 H 552.508 -2.04254 -2.3598 0
M  V30 5865 N 552.809 0.956637 -1.25245 0
M  V30 5866 C 553.772 2.03457 -1.05537 0
M  V30 5867 C 554.772 1.60798 -0.00886317 0
M  V30 5868 O 555.962 1.72384 -0.250865 0
M  V30 5869 C 553.094 3.35543 -0.601965 0
M  V30 5870 H 554.287 2.22372 -2.01223 0
M  V30 5871 H 551.84 1.13344 -1.07623 0
M  V30 5872 H 552.575 3.22323 0.357584 0
M  V30 5873 H 552.36 3.67854 -1.35743 0
M  V30 5874 H 553.85 4.14769 -0.485454 0
M  V30 5875 N 554.287 1.06798 1.15896 0
M  V30 5876 C 555.534 0.787767 1.86549 0
M  V30 5877 C 555.862 -0.685959 1.82002 0
M  V30 5878 O 555.117 -1.5188 1.23414 0
M  V30 5879 C 555.416 1.23414 3.35416 0
M  V30 5880 C 555.082 2.71285 3.6016 0
M  V30 5881 C 553.744 3.11676 3.66622 0
M  V30 5882 C 556.096 3.6676 3.7032 0
M  V30 5883 C 553.424 4.4637 3.8075 0
M  V30 5884 C 555.776 5.01209 3.8597 0
M  V30 5885 C 554.44 5.41229 3.90676 0
M  V30 5886 H 553.71 0.288264 0.682631 0
M  V30 5887 H 556.357 1.338 1.37003 0
M  V30 5888 H 554.662 0.60319 3.87129 0
M  V30 5889 H 556.359 0.994298 3.88477 0
M  V30 5890 H 552.949 2.39015 3.55767 0
M  V30 5891 H 557.133 3.36685 3.64633 0
M  V30 5892 H 552.389 4.76855 3.82648 0
M  V30 5893 H 556.563 5.75067 3.92773 0
M  V30 5894 H 554.19 6.45602 4.01375 0
M  V30 5895 N 555.766 -1.3263 0.851289 0
M  V30 5896 C 557.014 -1.96978 0.452128 0
M  V30 5897 C 557.335 -1.67715 -0.99482 0
M  V30 5898 O 556.605 -0.98259 -1.69476 0
M  V30 5899 H 555.185 -0.72873 0.164202 0
M  V30 5900 H 557.847 -1.61774 1.08698 0
M  V30 5901 H 556.943 -3.06387 0.594407 0
M  V30 5902 N 557.244 -0.608902 -1.45362 0
M  V30 5903 C 558.49 -0.104762 -2.02529 0
M  V30 5904 C 558.823 1.26191 -1.47613 0
M  V30 5905 O 558.098 1.8327 -0.65134 0
M  V30 5906 C 558.381 -0.0672661 -3.60037 0
M  V30 5907 C 558.234 -1.4647 -4.25284 0
M  V30 5908 C 559.553 0.619877 -4.35713 0
M  V30 5909 H 556.672 -0.0395438 -0.735938 0
M  V30 5910 H 559.314 -0.781126 -1.73201 0
M  V30 5911 H 557.464 0.50871 -3.85155 0
M  V30 5912 H 559.136 -2.08785 -4.11347 0
M  V30 5913 H 557.379 -2.02502 -3.83634 0
M  V30 5914 H 558.05 -1.39069 -5.34195 0
M  V30 5915 H 560.526 0.130297 -4.15896 0
M  V30 5916 H 559.402 0.615224 -5.45441 0
M  V30 5917 H 559.663 1.68621 -4.0868 0
M  V30 5918 N 558.722 1.53707 -0.348139 0
M  V30 5919 C 560.138 1.596 0.00361134 0
M  V30 5920 C 560.338 1.36394 1.4832 0
M  V30 5921 O 559.394 1.16046 2.24253 0
M  V30 5922 C 560.707 2.97512 -0.436682 0
M  V30 5923 C 562.255 3.10568 -0.389416 0
M  V30 5924 C 562.73 4.50866 -0.805249 0
M  V30 5925 N 564.221 4.56929 -0.759616 0
M  V30 5926 C 564.956 5.63643 -1.05327 0
M  V30 5927 N 564.452 6.78189 -1.41531 0
M  V30 5928 N 566.245 5.5354 -0.977207 0
M  V30 5929 H 558.396 1.67044 -1.31187 0
M  V30 5930 H 560.659 0.782559 -0.535075 0
M  V30 5931 H 560.365 3.19575 -1.46849 0
M  V30 5932 H 560.239 3.76742 0.185744 0
M  V30 5933 H 562.626 2.88226 0.633228 0
M  V30 5934 H 562.707 2.33387 -1.04711 0
M  V30 5935 H 562.351 4.73943 -1.82593 0
M  V30 5936 H 562.281 5.26452 -0.124989 0
M  V30 5937 H 564.772 3.74675 -0.49265 0
M  V30 5938 H 565.085 7.55541 -1.62411 0
M  V30 5939 H 563.43 6.79624 -1.45381 0
M  V30 5940 H 566.621 4.62932 -0.693675 0
M  V30 5941 H 566.794 6.36614 -1.2094 0
M  V30 5942 N 560.2 0.0768682 1.57412 0
M  V30 5943 C 561.13 -0.886026 2.16037 0
M  V30 5944 C 562.111 -1.30691 1.08876 0
M  V30 5945 O 563.296 -1.37705 1.36934 0
M  V30 5946 C 560.426 -2.1518 2.72608 0
M  V30 5947 C 559.38 -1.87015 3.8498 0
M  V30 5948 C 558.706 -3.20266 4.28175 0
M  V30 5949 C 560.006 -1.17143 5.08994 0
M  V30 5950 H 561.7 -0.397642 2.96748 0
M  V30 5951 H 559.246 -0.189823 1.42743 0
M  V30 5952 H 561.199 -2.82962 3.12266 0
M  V30 5953 H 559.923 -2.66269 1.89125 0
M  V30 5954 H 558.582 -1.21636 3.45833 0
M  V30 5955 H 558.23 -3.69207 3.41607 0
M  V30 5956 H 557.93 -3.0221 5.03927 0
M  V30 5957 H 559.454 -3.89237 4.70454 0
M  V30 5958 H 560.868 -1.75003 5.45937 0
M  V30 5959 H 559.265 -1.09328 5.90057 0
M  V30 5960 H 560.335 -0.151295 4.84664 0
M  V30 5961 N 561.678 -1.56367 -0.196722 0
M  V30 5962 C 562.625 -1.94417 -1.24382 0
M  V30 5963 C 563.595 -0.804543 -1.45315 0
M  V30 5964 O 564.78 -1.06256 -1.58475 0
M  V30 5965 C 561.92 -2.28757 -2.58388 0
M  V30 5966 C 561.033 -3.55775 -2.45047 0
M  V30 5967 C 560.168 -3.79445 -3.71746 0
M  V30 5968 C 559.207 -4.99894 -3.53231 0
M  V30 5969 N 558.344 -5.19826 -4.71938 0
M  V30 5970 H 563.184 -2.83691 -0.912338 0
M  V30 5971 H 560.721 -1.40392 -0.439135 0
M  V30 5972 H 562.679 -2.46682 -3.36457 0
M  V30 5973 H 561.309 -1.42625 -2.89582 0
M  V30 5974 H 560.361 -3.45905 -1.58284 0
M  V30 5975 H 561.673 -4.44 -2.27299 0
M  V30 5976 H 560.827 -3.97601 -4.58256 0
M  V30 5977 H 559.566 -2.89546 -3.92446 0
M  V30 5978 H 558.571 -4.81662 -2.65107 0
M  V30 5979 H 559.796 -5.913 -3.33978 0
M  V30 5980 H 557.742 -4.32875 -4.92905 0
M  V30 5981 H 557.659 -6.02228 -4.57009 0
M  V30 5982 H 558.927 -5.42439 -5.59803 0
M  V30 5983 N 563.156 0.464375 -1.50603 0
M  V30 5984 C 564.567 1.04507 -1.5471 0
M  V30 5985 C 564.918 1.9297 -0.354542 0
M  V30 5986 O 564.043 2.09763 0.531812 0
M  V30 5987 C 564.638 1.90207 -2.80369 0
M  V30 5988 C 563.197 2.43373 -2.87135 0
M  V30 5989 C 562.344 1.21886 -2.49076 0
M  V30 5990 H 565.295 0.246716 -1.56771 0
M  V30 5991 H 565.316 2.75353 -2.62604 0
M  V30 5992 H 564.828 1.25796 -3.67147 0
M  V30 5993 H 562.929 3.11318 -2.04724 0
M  V30 5994 H 563.042 2.7802 -3.90181 0
M  V30 5995 H 561.406 1.55575 -2.01664 0
M  V30 5996 H 562.189 0.591268 -3.3817 0
M  V30 5997 N 564.634 1.40294 0.718013 0
M  V30 5998 C 565.911 1.2894 1.47084 0
M  V30 5999 C 566.291 -0.0933625 2.10893 0
M  V30 6000 O 565.639 -1.10598 1.99951 0
M  V30 6001 C 565.849 2.4264 2.50852 0
M  V30 6002 C 567.197 2.8276 3.16752 0
M  V30 6003 O 568.221 2.42215 2.61171 0
M  V30 6004 O 567.08 3.528 4.17366 0
M  V30 6005 H 564.174 0.506236 0.653952 0
M  V30 6006 H 566.72 1.52208 0.750394 0
M  V30 6007 H 565.492 3.35009 2.022 0
M  V30 6008 H 565.115 2.21129 3.30435 0
M  V30 6009 N 566.112 -0.949982 1.2575 0
M  V30 6010 C 567.389 -1.6718 1.01539 0
M  V30 6011 C 567.769 -2.06095 -0.456942 0
M  V30 6012 O 567.117 -1.77792 -1.43534 0
M  V30 6013 C 567.327 -2.8906 1.95564 0
M  V30 6014 C 568.675 -3.60909 2.23673 0
M  V30 6015 O 569.699 -2.9915 1.9336 0
M  V30 6016 O 568.558 -4.72127 2.75243 0
M  V30 6017 H 565.652 -0.731697 0.385419 0
M  V30 6018 H 568.198 -1.00249 1.36924 0
M  V30 6019 H 566.97 -2.57128 2.94959 0
M  V30 6020 H 566.593 -3.63719 1.60605 0
M  V30 6021 N 567.59 -1.07411 -1.15328 0
M  V30 6022 C 568.867 -0.710732 -1.82231 0
M  V30 6023 C 569.247 0.806732 -1.95077 0
M  V30 6024 O 568.595 1.72139 -1.50268 0
M  V30 6025 C 568.805 -1.42586 -3.18544 0
M  V30 6026 C 570.153 -1.57836 -3.94174 0
M  V30 6027 O 571.177 -1.38669 -3.281 0
M  V30 6028 O 570.036 -1.8938 -5.12638 0
M  V30 6029 H 567.13 -0.25297 -0.78736 0
M  V30 6030 H 569.676 -1.17508 -1.22434 0
M  V30 6031 H 568.448 -2.46008 -3.04296 0
M  V30 6032 H 568.071 -0.952332 -3.86026 0
M  V30 6033 N 569.068 1.32177 -0.85831 0
M  V30 6034 C 570.317 1.96392 -0.459689 0
M  V30 6035 C 570.63 1.68659 0.990632 0
M  V30 6036 O 571.836 2.26641 1.49485 0
M  V30 6037 C 570.292 3.51542 -0.7711 0
M  V30 6038 C 569.9 3.8813 -2.2374 0
M  V30 6039 C 571.644 4.2221 -0.44038 0
M  V30 6040 C 569.551 5.36341 -2.49183 0
M  V30 6041 H 568.481 0.735007 -0.168169 0
M  V30 6042 H 571.132 1.50518 -1.0496 0
M  V30 6043 H 569.514 3.95846 -0.11058 0
M  V30 6044 H 570.688 3.54824 -2.94001 0
M  V30 6045 H 569.003 3.30497 -2.533 0
M  V30 6046 H 571.6 5.31234 -0.607855 0
M  V30 6047 H 571.943 4.11683 0.618291 0
M  V30 6048 H 572.476 3.83502 -1.05695 0
M  V30 6049 H 569.215 5.51892 -3.53689 0
M  V30 6050 H 568.735 5.7104 -1.83504 0
M  V30 6051 H 570.414 6.03466 -2.33318 0
M  V30 6052 N 570.547 0.616602 1.45037 0
M  V30 6053 C 571.796 0.112861 2.01384 0
M  V30 6054 C 572.109 -1.26758 1.48969 0
M  V30 6055 O 573.315 -1.86454 1.9735 0
M  V30 6056 C 571.771 0.151057 3.59583 0
M  V30 6057 C 571.379 1.53191 4.20995 0
M  V30 6058 C 573.123 -0.296974 4.2346 0
M  V30 6059 C 571.03 1.526 5.71373 0
M  V30 6060 H 569.96 0.0384254 0.75302 0
M  V30 6061 H 572.611 0.773262 1.66412 0
M  V30 6062 H 570.993 -0.57617 3.91786 0
M  V30 6063 H 572.167 2.28156 4.00352 0
M  V30 6064 H 570.482 1.92279 3.69348 0
M  V30 6065 H 573.079 -0.320712 5.33737 0
M  V30 6066 H 573.422 -1.32145 3.9477 0
M  V30 6067 H 573.955 0.377279 3.96007 0
M  V30 6068 H 570.694 2.52837 6.04776 0
M  V30 6069 H 570.214 0.819064 5.94181 0
M  V30 6070 H 571.893 1.25357 6.3474 0
M  V30 6071 N 572.025 -1.5352 0.356285 0
M  V30 6072 C 572.935 -2.29151 -0.502712 0
M  V30 6073 C 573.951 -1.34753 -1.1008 0
M  V30 6074 O 575.127 -1.67803 -1.11374 0
M  V30 6075 C 572.192 -3.05911 -1.63154 0
M  V30 6076 C 571.253 -4.15958 -1.06194 0
M  V30 6077 C 570.486 -4.8905 -2.13696 0
M  V30 6078 O 570.709 -4.61919 -3.34645 0
M  V30 6079 O 569.643 -5.75202 -1.77275 0
M  V30 6080 H 573.469 -3.03492 0.112466 0
M  V30 6081 H 571.054 -1.4891 0.120942 0
M  V30 6082 H 572.936 -3.53874 -2.28804 0
M  V30 6083 H 571.611 -2.34415 -2.23229 0
M  V30 6084 H 570.518 -3.7227 -0.369603 0
M  V30 6085 H 571.851 -4.89593 -0.505872 0
M  V30 6086 N 573.503 -0.0852151 -1.57369 0
M  V30 6087 C 574.433 0.874556 -2.16503 0
M  V30 6088 C 575.414 1.30111 -1.09568 0
M  V30 6089 O 576.599 1.36977 -1.37662 0
M  V30 6090 C 573.729 2.13731 -2.73745 0
M  V30 6091 C 572.683 1.84971 -3.85966 0
M  V30 6092 C 572.009 3.17991 -4.29867 0
M  V30 6093 C 573.309 1.14442 -5.09608 0
M  V30 6094 H 575.003 0.381899 -2.96954 0
M  V30 6095 H 572.549 0.18225 -1.42842 0
M  V30 6096 H 574.502 2.81302 -3.13763 0
M  V30 6097 H 573.226 2.65263 -1.90534 0
M  V30 6098 H 571.885 1.19801 -3.46473 0
M  V30 6099 H 571.533 3.6739 -3.4356 0
M  V30 6100 H 571.233 2.99534 -5.05523 0
M  V30 6101 H 572.757 3.86737 -4.72511 0
M  V30 6102 H 574.171 1.72105 -5.46857 0
M  V30 6103 H 572.568 1.06197 -5.90629 0
M  V30 6104 H 573.638 0.12559 -4.84737 0
M  V30 6105 N 574.981 1.5647 0.188427 0
M  V30 6106 C 576.228 1.81013 0.907779 0
M  V30 6107 C 576.556 0.65953 1.82977 0
M  V30 6108 O 575.811 -0.354308 1.92466 0
M  V30 6109 C 576.11 3.11596 1.7505 0
M  V30 6110 C 575.776 4.40145 0.978922 0
M  V30 6111 C 574.438 4.75066 0.765912 0
M  V30 6112 C 576.79 5.19369 0.436498 0
M  V30 6113 C 574.118 5.867 -0.00089868 0
M  V30 6114 C 576.47 6.31805 -0.317136 0
M  V30 6115 C 575.134 6.65303 -0.541103 0
M  V30 6116 H 574.404 0.662373 0.33218 0
M  V30 6117 H 577.051 1.9071 0.173732 0
M  V30 6118 H 575.356 2.97165 2.55343 0
M  V30 6119 H 577.053 3.27793 2.30983 0
M  V30 6120 H 573.643 4.12745 1.15497 0
M  V30 6121 H 577.827 4.92799 0.588449 0
M  V30 6122 H 573.083 6.11122 -0.184329 0
M  V30 6123 H 577.257 6.92406 -0.744788 0
M  V30 6124 H 574.884 7.51646 -1.13718 0
M  V30 6125 N 576.459 -0.456382 1.50847 0
M  V30 6126 C 577.406 -1.55249 1.70782 0
M  V30 6127 C 578.376 -1.56757 0.549231 0
M  V30 6128 O 579.561 -1.74061 0.7815 0
M  V30 6129 C 576.701 -2.93118 1.82143 0
M  V30 6130 C 575.814 -3.01285 3.09598 0
M  V30 6131 C 574.949 -4.30159 3.11667 0
M  V30 6132 C 573.988 -4.32124 4.33515 0
M  V30 6133 N 573.125 -5.52492 4.3324 0
M  V30 6134 H 577.965 -1.37555 2.64353 0
M  V30 6135 H 575.502 -0.668543 1.3103 0
M  V30 6136 H 577.46 -3.73088 1.86711 0
M  V30 6137 H 576.09 -3.09413 0.919978 0
M  V30 6138 H 575.142 -2.14096 3.14431 0
M  V30 6139 H 576.454 -2.98597 3.99551 0
M  V30 6140 H 575.608 -5.18489 3.15046 0
M  V30 6141 H 574.347 -4.35477 2.1957 0
M  V30 6142 H 573.352 -3.42189 4.30333 0
M  V30 6143 H 574.577 -4.28485 5.26856 0
M  V30 6144 H 572.523 -5.58567 3.44004 0
M  V30 6145 H 572.44 -5.51605 5.16979 0
M  V30 6146 H 573.708 -6.42906 4.40786 0
M  V30 6147 N 577.937 -1.40673 -0.710563 0
M  V30 6148 C 578.885 -1.41517 -1.84596 0
M  V30 6149 C 579.879 -0.295043 -1.66811 0
M  V30 6150 O 581.085 -0.466331 -1.73854 0
M  V30 6151 H 577.46 -0.442467 -0.608052 0
M  V30 6152 H 579.431 -2.37238 -1.80999 0
M  V30 6153 C 578.18 -1.29957 -3.225 0
M  V30 6154 H 577.503 -2.15429 -3.36794 0
M  V30 6155 H 578.943 -1.34608 -4.02066 0
M  V30 6156 C 577.402 -0.0103164 -3.36898 0
M  V30 6157 O 577.932 0.950707 -3.90288 0
M  V30 6158 N 576.138 0.0608409 -2.90536 0
M  V30 6159 H 575.685 -0.721943 -2.47277 0
M  V30 6160 H 575.643 0.92292 -3.00549 0
M  V30 6161 N 579.415 0.9433 -1.26252 0
M  V30 6162 C 580.663 1.68592 -1.11451 0
M  V30 6163 C 580.984 1.91957 0.343123 0
M  V30 6164 O 580.254 1.51475 1.24226 0
M  V30 6165 H 578.834 0.624789 -0.409448 0
M  V30 6166 H 581.496 1.13351 -1.58548 0
M  V30 6167 H 580.592 2.66054 -1.63162 0
M  V30 6168 N 580.893 1.08022 1.14757 0
M  V30 6169 C 582.309 0.807072 1.3769 0
M  V30 6170 C 582.509 -0.585504 1.92806 0
M  V30 6171 O 581.565 -1.34301 2.13821 0
M  V30 6172 C 582.878 1.88651 2.34161 0
M  V30 6173 C 584.426 1.91206 2.47809 0
M  V30 6174 C 584.901 2.98253 3.47576 0
M  V30 6175 N 586.392 2.974 3.55117 0
M  V30 6176 C 587.127 3.76872 4.32152 0
M  V30 6177 N 586.623 4.66212 5.12463 0
M  V30 6178 N 588.416 3.6519 4.27309 0
M  V30 6179 H 580.567 1.97824 0.77326 0
M  V30 6180 H 582.83 0.85826 0.402608 0
M  V30 6181 H 582.536 2.88749 2.00791 0
M  V30 6182 H 582.41 1.75244 3.3402 0
M  V30 6183 H 584.797 0.917564 2.80472 0
M  V30 6184 H 584.878 2.08691 1.47925 0
M  V30 6185 H 584.522 3.97907 3.15646 0
M  V30 6186 H 584.452 2.78014 4.47231 0
M  V30 6187 H 586.943 2.32643 2.97801 0
M  V30 6188 H 587.256 5.23468 5.68508 0
M  V30 6189 H 585.601 4.70257 5.11745 0
M  V30 6190 H 588.792 2.94765 3.63636 0
M  V30 6191 H 588.965 4.27366 4.87095 0
M  V30 6192 N 582.371 -1.3172 0.865308 0
M  V30 6193 C 583.596 -2.01591 0.487415 0
M  V30 6194 C 584.021 -1.6455 -0.911307 0
M  V30 6195 O 583.379 -0.851689 -1.6005 0
M  V30 6196 C 583.427 -3.54759 0.646401 0
M  V30 6197 O 582.531 -4.11185 -0.316284 0
M  V30 6198 H 581.872 -0.634884 0.194468 0
M  V30 6199 H 584.402 -1.68024 1.16744 0
M  V30 6200 H 584.412 -4.04438 0.537932 0
M  V30 6201 H 583.087 -3.8106 1.66632 0
M  V30 6202 H 581.664 -3.72543 -0.163162 0
M  V30 6203 N 583.85 -0.624285 -1.44708 0
M  V30 6204 C 585.075 -0.131171 -2.06985 0
M  V30 6205 C 585.5 1.18234 -1.46295 0
M  V30 6206 O 584.858 1.72375 -0.561842 0
M  V30 6207 C 584.906 -0.0226724 -3.60593 0
M  V30 6208 O 584.01 1.02314 -3.99507 0
M  V30 6209 H 583.351 -0.0816556 -0.65896 0
M  V30 6210 H 585.88 -0.859027 -1.85693 0
M  V30 6211 H 585.891 0.170138 -4.07645 0
M  V30 6212 H 584.566 -0.981685 -4.04148 0
M  V30 6213 H 583.143 0.805452 -3.64097 0
M  V30 6214 N 585.328 1.53329 -0.364422 0
M  V30 6215 C 586.574 2.01537 0.225969 0
M  V30 6216 C 586.907 1.25128 1.48515 0
M  V30 6217 O 586.182 0.344653 1.91422 0
M  V30 6218 C 586.465 3.56339 0.519092 0
M  V30 6219 C 586.318 4.43441 -0.753639 0
M  V30 6220 C 587.637 4.19833 1.32015 0
M  V30 6221 H 584.756 0.732573 0.0806548 0
M  V30 6222 H 587.398 1.83597 -0.489084 0
M  V30 6223 H 585.548 3.71756 1.12825 0
M  V30 6224 H 587.22 4.39823 -1.39116 0
M  V30 6225 H 585.463 4.11457 -1.37424 0
M  V30 6226 H 586.134 5.49699 -0.503517 0
M  V30 6227 H 588.61 4.08242 0.804859 0
M  V30 6228 H 587.486 5.28177 1.49399 0
M  V30 6229 H 587.747 3.75821 2.32832 0
M  V30 6230 N 586.806 0.0935595 1.57322 0
M  V30 6231 C 588.031 -0.582324 1.99057 0
M  V30 6232 C 588.456 -1.61025 0.972242 0
M  V30 6233 O 587.814 -1.81202 -0.0594622 0
M  V30 6234 C 587.862 -1.20799 3.39765 0
M  V30 6235 O 586.966 -2.32382 3.40694 0
M  V30 6236 H 586.307 -0.147884 0.647323 0
M  V30 6237 H 588.837 0.174516 2.03854 0
M  V30 6238 H 588.847 -1.54966 3.77425 0
M  V30 6239 H 587.522 -0.454914 4.13405 0
M  V30 6240 H 586.099 -1.99845 3.14827 0
M  V30 6241 N 588.284 -1.56567 -0.180126 0
M  V30 6242 C 589.214 -1.98753 -1.22553 0
M  V30 6243 C 590.195 -0.86175 -1.46656 0
M  V30 6244 O 591.38 -1.12719 -1.58139 0
M  V30 6245 C 588.51 -2.33988 -2.56645 0
M  V30 6246 C 587.464 -3.49445 -2.47128 0
M  V30 6247 C 586.79 -3.70397 -3.8563 0
M  V30 6248 C 588.09 -4.83171 -1.98352 0
M  V30 6249 H 589.784 -2.86332 -0.874896 0
M  V30 6250 H 587.33 -1.37757 -0.419414 0
M  V30 6251 H 589.283 -2.62097 -3.29974 0
M  V30 6252 H 588.007 -1.43309 -2.93479 0
M  V30 6253 H 586.666 -3.2145 -1.76254 0
M  V30 6254 H 586.314 -2.77023 -4.19842 0
M  V30 6255 H 586.014 -4.48077 -3.80132 0
M  V30 6256 H 587.538 -4.00897 -4.60558 0
M  V30 6257 H 588.952 -5.10213 -2.61449 0
M  V30 6258 H 587.349 -5.64425 -2.03823 0
M  V30 6259 H 588.419 -4.75753 -0.937402 0
M  V30 6260 N 589.762 0.448376 -1.51087 0
M  V30 6261 C 591.01 1.19635 -1.62886 0
M  V30 6262 C 591.331 1.91977 -0.342024 0
M  V30 6263 O 590.601 1.85094 0.641636 0
M  V30 6264 H 589.181 0.444598 -0.600285 0
M  V30 6265 H 591.843 0.515138 -1.87969 0
M  V30 6266 H 590.939 1.93194 -2.45117 0
M  V30 6267 N 591.24 1.41047 0.703093 0
M  V30 6268 C 592.47 1.43133 1.48985 0
M  V30 6269 C 592.878 0.0328537 1.89171 0
M  V30 6270 O 592.221 -0.956469 1.56835 0
M  V30 6271 C 592.283 2.26991 2.78775 0
M  V30 6272 C 591.947 3.7525 2.60837 0
M  V30 6273 C 592.944 4.67591 2.27276 0
M  V30 6274 C 590.629 4.19208 2.76712 0
M  V30 6275 C 592.623 6.01877 2.09817 0
M  V30 6276 C 590.31 5.53561 2.5887 0
M  V30 6277 C 591.308 6.4471 2.25472 0
M  V30 6278 O 590.996 7.76584 2.07778 0
M  V30 6279 H 590.728 0.489788 0.465922 0
M  V30 6280 H 593.282 1.85886 0.873822 0
M  V30 6281 H 591.512 1.79038 3.42757 0
M  V30 6282 H 593.201 2.20867 3.40547 0
M  V30 6283 H 593.967 4.34923 2.14633 0
M  V30 6284 H 589.846 3.48572 3.01693 0
M  V30 6285 H 593.39 6.72986 1.83671 0
M  V30 6286 H 589.287 5.85811 2.71102 0
M  V30 6287 H 590.055 7.87649 2.22601 0
M  V30 6288 N 592.718 -0.936591 1.26751 0
M  V30 6289 C 593.967 -1.67778 1.11953 0
M  V30 6290 C 594.28 -1.92694 -0.33589 0
M  V30 6291 O 595.486 -2.64682 -0.604618 0
M  V30 6292 C 593.942 -3.02138 1.95551 0
M  V30 6293 C 593.55 -2.84953 3.45696 0
M  V30 6294 C 595.294 -3.79917 1.89377 0
M  V30 6295 C 593.201 -4.14814 4.21525 0
M  V30 6296 H 592.131 -0.629275 0.415366 0
M  V30 6297 H 594.782 -1.04122 1.51099 0
M  V30 6298 H 593.164 -3.668 1.49243 0
M  V30 6299 H 594.338 -2.29112 3.99805 0
M  V30 6300 H 592.653 -2.20612 3.53156 0
M  V30 6301 H 595.25 -4.76134 2.43312 0
M  V30 6302 H 595.593 -4.07204 0.865464 0
M  V30 6303 H 596.126 -3.22037 2.33532 0
M  V30 6304 H 592.865 -3.92709 5.24843 0
M  V30 6305 H 592.385 -4.70352 3.72195 0
M  V30 6306 H 594.064 -4.83239 4.3022 0
M  V30 6307 N 594.196 -1.08629 -1.14182 0
M  V30 6308 C 595.444 -0.815731 -1.84906 0
M  V30 6309 C 595.765 0.660441 -1.83475 0
M  V30 6310 O 595.035 1.47888 -1.28476 0
M  V30 6311 H 593.615 -0.298773 -0.684648 0
M  V30 6312 H 596.277 -1.37274 -1.38354 0
M  V30 6313 H 595.373 -1.16193 -2.89665 0
M  V30 6314 N 595.674 1.31259 -0.872281 0
M  V30 6315 C 596.923 1.95893 -0.480493 0
M  V30 6316 C 597.236 1.697 0.972688 0
M  V30 6317 O 598.442 2.28214 1.47073 0
M  V30 6318 C 596.898 3.50705 -0.808342 0
M  V30 6319 C 596.506 3.85735 -2.27844 0
M  V30 6320 C 598.25 4.21719 -0.485136 0
M  V30 6321 C 596.157 5.33668 -2.54858 0
M  V30 6322 H 595.087 0.733182 -0.175955 0
M  V30 6323 H 597.738 1.49396 -1.0655 0
M  V30 6324 H 596.12 3.95706 -0.152558 0
M  V30 6325 H 597.294 3.51686 -2.97748 0
M  V30 6326 H 595.609 3.27792 -2.56791 0
M  V30 6327 H 598.206 5.30559 -0.664166 0
M  V30 6328 H 598.549 4.12316 0.574592 0
M  V30 6329 H 599.082 3.82359 -1.09756 0
M  V30 6330 H 595.821 5.48109 -3.59523 0
M  V30 6331 H 595.341 5.69061 -1.8955 0
M  V30 6332 H 597.02 6.00958 -2.39706 0
M  V30 6333 N 597.152 0.631951 1.44375 0
M  V30 6334 C 598.102 -0.0943862 2.27805 0
M  V30 6335 C 599.086 -0.815359 1.38711 0
M  V30 6336 O 600.278 -0.701331 1.62513 0
M  V30 6337 C 597.407 -1.07472 3.26044 0
M  V30 6338 C 596.493 -0.353329 4.22626 0
M  V30 6339 N 596.884 0.618512 5.02004 0
M  V30 6340 C 595.182 -0.597662 4.41977 0
M  V30 6341 C 595.883 1.0448 5.7224 0
M  V30 6342 N 594.859 0.383413 5.42246 0
M  V30 6343 H 598.661 0.651672 2.86584 0
M  V30 6344 H 596.175 0.45752 1.55822 0
M  V30 6345 H 598.172 -1.60969 3.84571 0
M  V30 6346 H 596.832 -1.82107 2.68825 0
M  V30 6347 H 597.843 0.996356 5.08226 0
M  V30 6348 H 594.52 -1.32682 3.95856 0
M  V30 6349 H 595.91 1.84773 6.45994 0
M  V30 6350 N 598.631 -1.53133 0.372548 0
M  V30 6351 C 599.541 -2.29671 -0.478379 0
M  V30 6352 C 600.557 -1.35913 -1.08644 0
M  V30 6353 O 601.733 -1.68975 -1.09588 0
M  V30 6354 C 598.798 -3.07625 -1.599 0
M  V30 6355 C 597.859 -4.17061 -1.01776 0
M  V30 6356 C 597.092 -4.91289 -2.08497 0
M  V30 6357 O 597.315 -4.65442 -3.29727 0
M  V30 6358 O 596.249 -5.7705 -1.71164 0
M  V30 6359 H 600.075 -3.03355 0.144649 0
M  V30 6360 H 597.66 -1.48773 0.136729 0
M  V30 6361 H 599.542 -3.56281 -2.25038 0
M  V30 6362 H 598.217 -2.3677 -2.2073 0
M  V30 6363 H 597.124 -3.72641 -0.330098 0
M  V30 6364 H 598.457 -4.90102 -0.453915 0
M  V30 6365 N 600.109 -0.101901 -1.5727 0
M  V30 6366 C 601.039 0.851544 -2.17419 0
M  V30 6367 C 602.02 1.28942 -1.10941 0
M  V30 6368 O 603.205 1.35509 -1.39107 0
M  V30 6369 C 600.335 2.10816 -2.75996 0
M  V30 6370 C 599.289 1.80867 -3.87906 0
M  V30 6371 C 598.615 3.13413 -4.33216 0
M  V30 6372 C 599.915 1.0903 -5.10793 0
M  V30 6373 H 601.609 0.350381 -2.97343 0
M  V30 6374 H 599.155 0.16709 -1.43027 0
M  V30 6375 H 601.108 2.77959 -3.16729 0
M  V30 6376 H 599.832 2.63227 -1.93337 0
M  V30 6377 H 598.491 1.16119 -3.47724 0
M  V30 6378 H 598.139 3.63725 -3.47438 0
M  V30 6379 H 597.839 2.94155 -5.08671 0
M  V30 6380 H 599.363 3.81704 -4.76586 0
M  V30 6381 H 600.777 1.66295 -5.48652 0
M  V30 6382 H 599.174 0.99927 -5.91722 0
M  V30 6383 H 600.244 0.0741704 -4.84843 0
M  V30 6384 N 601.587 1.56661 0.17182 0
M  V30 6385 C 602.535 1.97289 1.23207 0
M  V30 6386 C 603.529 0.861566 1.45854 0
M  V30 6387 O 604.735 1.04668 1.4644 0
M  V30 6388 H 601.11 0.627681 0.41415 0
M  V30 6389 H 603.081 2.85662 0.862542 0
M  V30 6390 C 601.83 2.34849 2.564 0
M  V30 6391 H 601.153 3.19903 2.39797 0
M  V30 6392 H 602.593 2.67121 3.29276 0
M  V30 6393 C 601.052 1.19172 3.15119 0
M  V30 6394 O 601.582 0.479113 3.98833 0
M  V30 6395 N 599.788 0.962415 2.74201 0
M  V30 6396 H 599.335 1.54365 2.06226 0
M  V30 6397 H 599.293 0.190272 3.13824 0
M  V30 6398 N 603.065 -0.440357 1.51323 0
M  V30 6399 C 604.314 -1.18697 1.63076 0
M  V30 6400 C 604.627 -1.92418 0.35136 0
M  V30 6401 O 605.833 -2.69258 0.348221 0
M  V30 6402 C 604.289 -2.15849 2.87988 0
M  V30 6403 C 603.897 -1.47789 4.22921 0
M  V30 6404 C 605.641 -2.90962 3.09098 0
M  V30 6405 C 603.548 -2.43407 5.38987 0
M  V30 6406 H 602.478 -0.44676 0.607389 0
M  V30 6407 H 605.129 -0.454313 1.77787 0
M  V30 6408 H 603.511 -2.92537 2.66905 0
M  V30 6409 H 604.685 -0.7668 4.54375 0
M  V30 6410 H 603 -0.848404 4.07665 0
M  V30 6411 H 605.597 -3.62584 3.92985 0
M  V30 6412 H 605.94 -3.52133 2.22053 0
M  V30 6413 H 606.473 -2.21381 3.30507 0
M  V30 6414 H 603.212 -1.86929 6.28282 0
M  V30 6415 H 602.732 -3.12579 5.11913 0
M  V30 6416 H 604.411 -3.046 5.70813 0
M  V30 6417 N 604.543 -1.41418 -0.695603 0
M  V30 6418 C 605.473 -1.46035 -1.82197 0
M  V30 6419 C 606.454 -0.319025 -1.67082 0
M  V30 6420 O 607.639 -0.530462 -1.86815 0
M  V30 6421 C 604.769 -1.34179 -3.20333 0
M  V30 6422 C 603.723 -2.46123 -3.50154 0
M  V30 6423 C 603.049 -2.19332 -4.87645 0
M  V30 6424 C 604.349 -3.88463 -3.49133 0
M  V30 6425 H 606.043 -2.40303 -1.78591 0
M  V30 6426 H 603.589 -1.15663 -0.857797 0
M  V30 6427 H 605.542 -1.36021 -3.98844 0
M  V30 6428 H 604.266 -0.363952 -3.24566 0
M  V30 6429 H 602.925 -2.43563 -2.73994 0
M  V30 6430 H 602.573 -1.19891 -4.88503 0
M  V30 6431 H 602.273 -2.94344 -5.08562 0
M  V30 6432 H 603.797 -2.22889 -5.68465 0
M  V30 6433 H 605.211 -3.92738 -4.17648 0
M  V30 6434 H 603.608 -4.63158 -3.81582 0
M  V30 6435 H 604.678 -4.16617 -2.48109 0
M  V30 6436 N 606.021 0.929856 -1.27246 0
M  V30 6437 C 607.267 1.6798 -1.13625 0
M  V30 6438 C 607.6 1.91586 0.317589 0
M  V30 6439 O 606.875 1.50467 1.23247 0
M  V30 6440 C 607.158 3.04766 -1.91806 0
M  V30 6441 C 607.011 2.88415 -3.45162 0
M  V30 6442 C 608.33 4.05063 -1.72082 0
M  V30 6443 H 605.449 0.609632 -0.414147 0
M  V30 6444 H 608.091 1.0792 -1.56376 0
M  V30 6445 H 606.241 3.56034 -1.55474 0
M  V30 6446 H 607.913 2.44282 -3.91311 0
M  V30 6447 H 606.156 2.23802 -3.71611 0
M  V30 6448 H 606.827 3.85482 -3.95105 0
M  V30 6449 H 609.303 3.62798 -2.03757 0
M  V30 6450 H 608.179 4.98765 -2.29182 0
M  V30 6451 H 608.44 4.37021 -0.668206 0
M  V30 6452 N 607.499 1.09233 1.13605 0
M  V30 6453 C 608.747 0.825525 1.84471 0
M  V30 6454 C 609.068 -0.650702 1.83823 0
M  V30 6455 O 608.338 -1.47204 1.29259 0
M  V30 6456 H 606.918 0.3024 0.683054 0
M  V30 6457 H 609.58 1.38006 1.37624 0
M  V30 6458 H 608.676 1.17727 2.89045 0
M  V30 6459 N 608.977 -1.30795 0.87923 0
M  V30 6460 C 610.393 -1.48981 0.57243 0
M  V30 6461 C 610.593 -1.80719 -0.891236 0
M  V30 6462 O 609.649 -1.89136 -1.67283 0
M  V30 6463 C 610.962 -2.61721 1.48063 0
M  V30 6464 C 612.51 -2.75603 1.48365 0
M  V30 6465 C 612.985 -3.91449 2.37763 0
M  V30 6466 N 614.476 -3.98751 2.35695 0
M  V30 6467 C 615.211 -4.87684 3.01583 0
M  V30 6468 N 614.707 -5.81454 3.76674 0
M  V30 6469 N 616.5 -4.81005 2.90844 0
M  V30 6470 H 608.651 -1.08465 1.82617 0
M  V30 6471 H 610.914 -0.536813 0.781368 0
M  V30 6472 H 610.62 -2.45073 2.52254 0
M  V30 6473 H 610.494 -3.58071 1.18596 0
M  V30 6474 H 612.881 -2.9166 0.44927 0
M  V30 6475 H 612.962 -1.79891 1.81859 0
M  V30 6476 H 612.606 -3.76149 3.41283 0
M  V30 6477 H 612.536 -4.86487 2.01589 0
M  V30 6478 H 615.027 -3.31668 1.81121 0
M  V30 6479 H 615.34 -6.46063 4.24054 0
M  V30 6480 H 613.685 -5.81403 3.80782 0
M  V30 6481 H 616.876 -4.06728 2.31711 0
M  V30 6482 H 617.049 -5.50107 3.42471 0
M  V30 6483 N 610.455 -0.639598 -1.44038 0
M  V30 6484 C 611.732 -0.078012 -1.95444 0
M  V30 6485 C 612.112 1.39847 -1.58133 0
M  V30 6486 O 611.46 2.11714 -0.859614 0
M  V30 6487 C 611.67 -0.309832 -3.47622 0
M  V30 6488 C 613.018 -0.207521 -4.24093 0
M  V30 6489 O 614.042 -0.241653 -3.55379 0
M  V30 6490 O 612.901 -0.119641 -5.46369 0
M  V30 6491 H 609.995 0.0174534 -0.826816 0
M  V30 6492 H 612.541 -0.711891 -1.54046 0
M  V30 6493 H 611.313 -1.33401 -3.67858 0
M  V30 6494 H 610.936 0.357777 -3.95987 0
M  V30 6495 N 611.933 1.52934 -0.380664 0
M  V30 6496 C 613.182 2.00651 0.205477 0
M  V30 6497 C 613.495 1.27164 1.48623 0
M  V30 6498 O 614.701 1.65547 2.15189 0
M  V30 6499 C 613.157 3.57479 0.416726 0
M  V30 6500 C 612.765 4.39857 -0.850268 0
M  V30 6501 C 614.509 4.13509 0.959702 0
M  V30 6502 C 612.416 5.88269 -0.607773 0
M  V30 6503 H 611.346 0.749684 0.0805614 0
M  V30 6504 H 613.997 1.76508 -0.501732 0
M  V30 6505 H 612.379 3.77836 1.18557 0
M  V30 6506 H 613.553 4.31269 -1.62307 0
M  V30 6507 H 611.868 3.95005 -1.31756 0
M  V30 6508 H 614.465 5.22039 1.15669 0
M  V30 6509 H 614.808 3.69054 1.92626 0
M  V30 6510 H 615.341 3.9701 0.250645 0
M  V30 6511 H 612.08 6.3703 -1.54509 0
M  V30 6512 H 611.6 5.99667 0.126247 0
M  V30 6513 H 613.279 6.46558 -0.239014 0
M  V30 6514 N 613.412 0.11024 1.57214 0
M  V30 6515 C 614.66 -0.548783 1.94506 0
M  V30 6516 C 614.981 -1.67772 0.99386 0
M  V30 6517 O 614.251 -1.9584 0.0485841 0
M  V30 6518 H 612.831 -0.205715 0.718116 0
M  V30 6519 H 615.493 0.177127 1.94093 0
M  V30 6520 H 614.589 -0.949096 2.97319 0
M  V30 6521 N 614.89 -1.56749 -0.16351 0
M  V30 6522 C 616.306 -1.51043 -0.515567 0
M  V30 6523 C 616.506 -0.815855 -1.84245 0
M  V30 6524 O 615.562 -0.379477 -2.49632 0
M  V30 6525 C 616.875 -2.95791 -0.541114 0
M  V30 6526 C 618.423 -3.0664 -0.627776 0
M  V30 6527 C 618.898 -4.52861 -0.684141 0
M  V30 6528 N 620.389 -4.5714 -0.746818 0
M  V30 6529 C 621.124 -5.67634 -0.811137 0
M  V30 6530 N 620.62 -6.8774 -0.835811 0
M  V30 6531 N 622.413 -5.55624 -0.850756 0
M  V30 6532 H 614.564 -2.00307 0.70645 0
M  V30 6533 H 616.827 -0.912876 0.255659 0
M  V30 6534 H 616.533 -3.49797 0.365329 0
M  V30 6535 H 616.407 -3.50858 -1.38487 0
M  V30 6536 H 618.794 -2.52663 -1.52464 0
M  V30 6537 H 618.875 -2.54645 0.242805 0
M  V30 6538 H 618.519 -5.07472 0.2085 0
M  V30 6539 H 618.449 -5.02621 -1.57098 0
M  V30 6540 H 620.94 -3.70669 -0.735717 0
M  V30 6541 H 621.253 -7.67701 -0.886279 0
M  V30 6542 H 619.598 -6.90334 -0.803958 0
M  V30 6543 H 622.789 -4.60709 -0.828535 0
M  V30 6544 H 622.962 -6.41756 -0.897418 0
M  V30 6545 N 616.368 0.432326 -1.51554 0
M  V30 6546 C 617.278 1.55023 -1.76082 0
M  V30 6547 C 618.294 1.61593 -0.645265 0
M  V30 6548 O 619.47 1.78742 -0.928086 0
M  V30 6549 C 616.535 2.90964 -1.88523 0
M  V30 6550 C 615.596 2.9447 -3.12388 0
M  V30 6551 C 614.829 4.23926 -3.24225 0
M  V30 6552 O 615.052 5.16576 -2.4188 0
M  V30 6553 O 613.986 4.33818 -4.17235 0
M  V30 6554 H 617.812 1.37238 -2.70923 0
M  V30 6555 H 615.397 0.615845 -1.36117 0
M  V30 6556 H 617.279 3.71633 -1.98662 0
M  V30 6557 H 615.954 3.08865 -0.9687 0
M  V30 6558 H 614.861 2.12737 -3.07723 0
M  V30 6559 H 616.194 2.81514 -4.03746 0
M  V30 6560 N 617.846 1.41785 0.688094 0
M  V30 6561 C 619.095 1.4084 1.44385 0
M  V30 6562 C 619.408 0.0234166 1.95586 0
M  V30 6563 O 620.614 -0.108647 2.71283 0
M  V30 6564 C 619.07 2.47675 2.61123 0
M  V30 6565 C 618.678 3.92116 2.16677 0
M  V30 6566 C 620.422 2.55877 3.38714 0
M  V30 6567 C 618.329 4.90487 3.30419 0
M  V30 6568 H 617.259 0.523787 0.542368 0
M  V30 6569 H 619.91 1.6764 0.74627 0
M  V30 6570 H 618.292 2.14018 3.33185 0
M  V30 6571 H 619.466 4.35059 1.51856 0
M  V30 6572 H 617.781 3.87642 1.5206 0
M  V30 6573 H 620.378 3.26553 4.234 0
M  V30 6574 H 620.721 1.59801 3.84408 0
M  V30 6575 H 621.254 2.88662 2.73714 0
M  V30 6576 H 617.993 5.87994 2.89729 0
M  V30 6577 H 617.513 4.52187 3.94065 0
M  V30 6578 H 619.192 5.11591 3.96085 0
M  V30 6579 N 619.324 -0.923095 1.27737 0
M  V30 6580 C 620.254 -2.04124 1.13383 0
M  V30 6581 C 621.235 -1.70066 0.0340658 0
M  V30 6582 O 622.42 -1.93068 0.209383 0
M  V30 6583 C 619.55 -3.3831 0.785097 0
M  V30 6584 C 618.504 -3.86496 1.8386 0
M  V30 6585 C 617.83 -5.1754 1.34373 0
M  V30 6586 C 619.13 -4.09381 3.24353 0
M  V30 6587 H 620.824 -2.1639 2.06919 0
M  V30 6588 H 618.37 -1.03976 0.996243 0
M  V30 6589 H 620.323 -4.16016 0.671485 0
M  V30 6590 H 619.047 -3.2607 -0.185969 0
M  V30 6591 H 617.706 -3.10987 1.9412 0
M  V30 6592 H 617.354 -5.01696 0.361989 0
M  V30 6593 H 617.054 -5.50751 2.04811 0
M  V30 6594 H 618.578 -5.97811 1.24315 0
M  V30 6595 H 619.992 -4.77641 3.17067 0
M  V30 6596 H 618.389 -4.53906 3.92542 0
M  V30 6597 H 619.459 -3.14515 3.69064 0
M  V30 6598 N 620.802 -1.09834 -1.13024 0
M  V30 6599 C 622.03 -0.858902 -1.8823 0
M  V30 6600 C 622.445 0.590164 -1.79339 0
M  V30 6601 O 621.802 1.4065 -1.16292 0
M  V30 6602 C 621.853 -1.29066 -3.37675 0
M  V30 6603 O 621.574 -2.6829 -3.46341 0
M  V30 6604 C 623.075 -1.08421 -4.29837 0
M  V30 6605 H 620.295 -0.308713 -0.595766 0
M  V30 6606 H 622.839 -1.4614 -1.4305 0
M  V30 6607 H 620.994 -0.731961 -3.80422 0
M  V30 6608 H 621.408 -2.86598 -4.39274 0
M  V30 6609 H 622.882 -1.43553 -5.33007 0
M  V30 6610 H 623.359 -0.0223315 -4.39194 0
M  V30 6611 H 623.965 -1.62907 -3.92863 0
M  V30 6612 N 622.28 1.30327 -0.886154 0
M  V30 6613 C 623.227 2.28099 -0.352069 0
M  V30 6614 C 624.197 1.56433 0.558397 0
M  V30 6615 O 625.382 1.84492 0.486561 0
M  V30 6616 C 622.522 3.42456 0.426346 0
M  V30 6617 C 621.635 4.28938 -0.513472 0
M  V30 6618 C 620.77 5.30458 0.280657 0
M  V30 6619 C 619.809 6.0859 -0.654556 0
M  V30 6620 N 618.946 7.02022 0.104322 0
M  V30 6621 H 623.786 2.73166 -1.19097 0
M  V30 6622 H 621.323 1.34367 -0.598662 0
M  V30 6623 H 623.281 4.07518 0.893587 0
M  V30 6624 H 621.911 2.98455 1.22981 0
M  V30 6625 H 620.963 3.64173 -1.09921 0
M  V30 6626 H 622.275 4.83399 -1.2299 0
M  V30 6627 H 621.429 6.01273 0.8097 0
M  V30 6628 H 620.168 4.76693 1.03029 0
M  V30 6629 H 619.173 5.36651 -1.19522 0
M  V30 6630 H 620.398 6.64443 -1.4033 0
M  V30 6631 H 618.344 6.50645 0.836472 0
M  V30 6632 H 618.261 7.53979 -0.552453 0
M  V30 6633 H 619.529 7.77077 0.614069 0
M  V30 6634 N 623.758 0.647228 1.43697 0
M  V30 6635 C 624.691 -0.097646 2.27991 0
M  V30 6636 C 625.669 -0.83571 1.3948 0
M  V30 6637 O 626.853 -0.836509 1.68922 0
M  V30 6638 C 623.98 -1.14484 3.18765 0
M  V30 6639 C 623.026 -0.505503 4.23494 0
M  V30 6640 S 623.859 0.716471 5.30685 0
M  V30 6641 C 625.015 -0.330339 6.25028 0
M  V30 6642 H 625.248 0.617417 2.90818 0
M  V30 6643 H 622.781 0.435881 1.4812 0
M  V30 6644 H 624.739 -1.74403 3.7161 0
M  V30 6645 H 623.4 -1.83219 2.55127 0
M  V30 6646 H 622.593 -1.29473 4.87086 0
M  V30 6647 H 622.195 0.0194377 3.73995 0
M  V30 6648 H 624.487 -1.19828 6.66819 0
M  V30 6649 H 625.43 0.270409 7.07583 0
M  V30 6650 H 625.838 -0.663459 5.60588 0
M  V30 6651 N 625.236 -1.5273 0.388769 0
M  V30 6652 C 626.184 -2.27975 -0.461527 0
M  V30 6653 C 627.178 -1.31854 -1.06352 0
M  V30 6654 O 628.384 -1.49394 -1.00406 0
M  V30 6655 H 624.759 -0.733088 -0.16759 0
M  V30 6656 H 626.73 -2.97765 0.194579 0
M  V30 6657 C 625.479 -3.09881 -1.577 0
M  V30 6658 H 624.802 -3.83701 -1.12309 0
M  V30 6659 H 626.242 -3.6567 -2.14619 0
M  V30 6660 C 624.701 -2.22159 -2.53272 0
M  V30 6661 O 625.231 -1.84802 -3.56667 0
M  V30 6662 N 623.437 -1.8633 -2.23001 0
M  V30 6663 H 622.984 -2.16909 -1.38954 0
M  V30 6664 H 622.942 -1.27927 -2.87197 0
M  V30 6665 N 626.714 -0.118576 -1.57153 0
M  V30 6666 C 627.677 0.817464 -2.14127 0
M  V30 6667 C 628.677 1.1949 -1.07604 0
M  V30 6668 O 629.867 1.12048 -1.33382 0
M  V30 6669 C 626.999 2.10541 -2.68115 0
M  V30 6670 H 628.192 0.322339 -2.98163 0
M  V30 6671 H 625.745 0.130655 -1.55753 0
M  V30 6672 H 626.48 2.64485 -1.87665 0
M  V30 6673 H 626.265 1.84425 -3.4602 0
M  V30 6674 H 627.755 2.77453 -3.12105 0
M  V30 6675 N 628.193 1.56834 0.155195 0
M  V30 6676 C 629.143 1.94061 1.19684 0
M  V30 6677 C 630.127 0.810851 1.38975 0
M  V30 6678 O 631.319 1.07422 1.40675 0
M  V30 6679 C 628.448 2.31778 2.53247 0
M  V30 6680 C 627.534 3.51305 2.37583 0
M  V30 6681 N 627.925 4.68081 1.9166 0
M  V30 6682 C 626.223 3.56228 2.6836 0
M  V30 6683 C 626.924 5.50193 1.88845 0
M  V30 6684 N 625.9 4.91676 2.31852 0
M  V30 6685 H 629.702 2.81826 0.833747 0
M  V30 6686 H 627.216 1.58284 0.363328 0
M  V30 6687 H 629.213 2.56649 3.28538 0
M  V30 6688 H 627.873 1.4536 2.90346 0
M  V30 6689 H 628.884 4.91993 1.6175 0
M  V30 6690 H 625.561 2.8033 3.09389 0
M  V30 6691 H 626.951 6.53801 1.54901 0
M  V30 6692 N 629.671 -0.424282 1.51781 0
M  V30 6693 C 630.601 -1.52305 1.7699 0
M  V30 6694 C 631.582 -1.5839 0.620209 0
M  V30 6695 O 632.767 -1.73908 0.864268 0
M  V30 6696 C 629.897 -2.90271 1.90683 0
M  V30 6697 C 628.851 -2.99043 3.06198 0
M  V30 6698 C 628.177 -4.39116 3.05092 0
M  V30 6699 C 629.477 -2.7192 4.45934 0
M  V30 6700 H 631.171 -1.31461 2.68995 0
M  V30 6701 H 628.717 -0.630985 1.29439 0
M  V30 6702 H 630.67 -3.6711 2.06901 0
M  V30 6703 H 629.394 -3.12376 0.953365 0
M  V30 6704 H 628.053 -2.24646 2.89706 0
M  V30 6705 H 627.701 -4.58207 2.07498 0
M  V30 6706 H 627.401 -4.45912 3.82669 0
M  V30 6707 H 628.925 -5.17911 3.2342 0
M  V30 6708 H 630.339 -3.38487 4.62709 0
M  V30 6709 H 628.736 -2.90111 5.25315 0
M  V30 6710 H 629.806 -1.67445 4.55072 0
M  V30 6711 N 631.149 -1.42148 -0.680565 0
M  V30 6712 C 632.096 -1.45175 -1.79424 0
M  V30 6713 C 633.066 -0.304352 -1.63288 0
M  V30 6714 O 634.251 -0.507591 -1.83924 0
M  V30 6715 C 631.391 -1.35429 -3.17416 0
M  V30 6716 C 630.504 -2.60158 -3.4488 0
M  V30 6717 C 629.639 -2.42596 -4.72568 0
M  V30 6718 C 628.678 -3.62727 -4.93047 0
M  V30 6719 N 627.815 -3.44143 -6.11973 0
M  V30 6720 H 632.655 -2.40349 -1.76172 0
M  V30 6721 H 630.192 -1.19334 -0.860107 0
M  V30 6722 H 632.15 -1.27777 -3.97151 0
M  V30 6723 H 630.78 -0.438536 -3.19807 0
M  V30 6724 H 629.832 -2.78199 -2.5944 0
M  V30 6725 H 631.144 -3.49473 -3.55908 0
M  V30 6726 H 630.298 -2.32497 -5.60384 0
M  V30 6727 H 629.037 -1.50761 -4.63813 0
M  V30 6728 H 628.042 -3.73264 -4.03676 0
M  V30 6729 H 629.267 -4.55534 -5.03652 0
M  V30 6730 H 627.213 -2.5502 -6.04401 0
M  V30 6731 H 627.13 -4.27041 -6.23836 0
M  V30 6732 H 628.398 -3.37845 -7.02482 0
M  V30 6733 N 632.627 0.916307 -1.28225 0
M  V30 6734 C 633.559 2.02303 -1.07732 0
M  V30 6735 C 634.572 1.62773 -0.0298421 0
M  V30 6736 O 635.761 1.76406 -0.272626 0
M  V30 6737 C 632.861 3.33282 -0.614504 0
M  V30 6738 C 632.034 4.01439 -1.73682 0
M  V30 6739 C 631.093 5.10698 -1.26781 0
M  V30 6740 O 630.119 5.34038 -1.96958 0
M  V30 6741 N 631.321 5.80355 -0.129624 0
M  V30 6742 H 634.086 2.20442 -2.03041 0
M  V30 6743 H 631.647 1.08744 -1.19943 0
M  V30 6744 H 633.639 4.03699 -0.284397 0
M  V30 6745 H 632.209 3.11633 0.245664 0
M  V30 6746 H 631.429 3.24604 -2.23665 0
M  V30 6747 H 632.717 4.43721 -2.48976 0
M  V30 6748 H 632.115 5.6386 0.455847 0
M  V30 6749 H 630.672 6.51647 0.141224 0
M  V30 6750 N 634.105 1.10431 1.1244 0
M  V30 6751 C 635.351 0.857864 1.84424 0
M  V30 6752 C 635.706 -0.609995 1.82474 0
M  V30 6753 O 634.999 -1.44401 1.25932 0
M  V30 6754 C 635.193 1.34022 3.3132 0
M  V30 6755 C 635.022 2.85344 3.47576 0
M  V30 6756 C 633.792 3.53345 3.61213 0
M  V30 6757 C 635.99 3.83446 3.42744 0
M  V30 6758 N 633.972 4.92989 3.65834 0
M  V30 6759 C 635.343 5.09101 3.5386 0
M  V30 6760 C 637.398 3.76154 3.26209 0
M  V30 6761 C 636.101 6.28323 3.50146 0
M  V30 6762 C 638.127 4.94876 3.23809 0
M  V30 6763 C 637.489 6.19378 3.35485 0
M  V30 6764 H 633.588 0.366917 0.690577 0
M  V30 6765 H 636.172 1.40668 1.34613 0
M  V30 6766 H 634.343 0.818727 3.79673 0
M  V30 6767 H 636.075 1.03801 3.91162 0
M  V30 6768 H 632.83 3.03791 3.63329 0
M  V30 6769 H 633.254 5.65762 3.71809 0
M  V30 6770 H 637.896 2.80813 3.16076 0
M  V30 6771 H 635.614 7.23953 3.5905 0
M  V30 6772 H 639.2 4.90942 3.12197 0
M  V30 6773 H 638.08 7.09704 3.33602 0
M  V30 6774 N 635.583 -1.29855 0.893053 0
M  V30 6775 C 636.811 -1.99976 0.530788 0
M  V30 6776 C 637.226 -1.66889 -0.882799 0
M  V30 6777 O 636.583 -0.910352 -1.58173 0
M  V30 6778 C 636.634 -3.54547 0.705587 0
M  V30 6779 O 636.355 -3.86458 2.06353 0
M  V30 6780 C 637.856 -4.41937 0.347387 0
M  V30 6781 H 635.076 -0.639129 0.204339 0
M  V30 6782 H 637.62 -1.65549 1.20057 0
M  V30 6783 H 635.775 -3.87311 0.0830685 0
M  V30 6784 H 636.189 -4.81146 2.08803 0
M  V30 6785 H 637.663 -5.4954 0.520557 0
M  V30 6786 H 638.14 -4.33339 -0.715139 0
M  V30 6787 H 638.746 -4.14633 0.946567 0
M  V30 6788 N 637.061 -0.65484 -1.43351 0
M  V30 6789 C 637.971 0.0363603 -2.34572 0
M  V30 6790 C 638.987 0.810432 -1.53974 0
M  V30 6791 O 640.163 0.757308 -1.86619 0
M  V30 6792 C 637.228 0.989733 -3.32273 0
M  V30 6793 C 636.289 0.212414 -4.28774 0
M  V30 6794 C 635.522 1.12038 -5.21808 0
M  V30 6795 O 635.745 2.35967 -5.19303 0
M  V30 6796 O 634.679 0.59191 -5.98982 0
M  V30 6797 H 638.505 -0.714527 -2.95175 0
M  V30 6798 H 636.09 -0.415029 -1.4352 0
M  V30 6799 H 637.972 1.53759 -3.92347 0
M  V30 6800 H 636.647 1.72082 -2.74171 0
M  V30 6801 H 635.554 -0.379062 -3.72175 0
M  V30 6802 H 636.887 -0.479138 -4.89862 0
M  V30 6803 N 638.539 1.52521 -0.396863 0
M  V30 6804 C 639.955 1.5953 -0.0471659 0
M  V30 6805 C 640.155 1.41044 1.43906 0
M  V30 6806 O 639.211 1.23122 2.20448 0
M  V30 6807 C 640.524 2.95972 -0.531113 0
M  V30 6808 C 642.072 3.09172 -0.488024 0
M  V30 6809 C 642.547 4.48075 -0.948281 0
M  V30 6810 N 644.038 4.54281 -0.9046 0
M  V30 6811 C 644.773 5.60007 -1.23205 0
M  V30 6812 N 644.269 6.73343 -1.63036 0
M  V30 6813 N 646.062 5.50151 -1.15282 0
M  V30 6814 H 638.213 1.62786 -1.36435 0
M  V30 6815 H 640.476 0.76514 -0.559701 0
M  V30 6816 H 640.182 3.14741 -1.56942 0
M  V30 6817 H 640.056 3.77143 0.0657922 0
M  V30 6818 H 642.443 2.90095 0.541211 0
M  V30 6819 H 642.524 2.29937 -1.12083 0
M  V30 6820 H 642.168 4.67894 -1.97578 0
M  V30 6821 H 642.098 5.25788 -0.292412 0
M  V30 6822 H 644.589 3.72918 -0.6116 0
M  V30 6823 H 644.902 7.49992 -1.86365 0
M  V30 6824 H 643.247 6.74655 -1.66929 0
M  V30 6825 H 646.438 4.6049 -0.840602 0
M  V30 6826 H 646.611 6.32444 -1.41133 0
M  V30 6827 N 640.017 0.126909 1.57088 0
M  V30 6828 C 641.245 -0.53667 1.99819 0
M  V30 6829 C 641.66 -1.5972 1.00673 0
M  V30 6830 O 641.017 -1.825 0.000747365 0
M  V30 6831 C 641.068 -1.15563 3.42531 0
M  V30 6832 O 640.789 -0.137483 4.37884 0
M  V30 6833 C 642.29 -1.90176 4.00435 0
M  V30 6834 H 639.51 -0.141443 0.655923 0
M  V30 6835 H 642.054 0.215578 2.03361 0
M  V30 6836 H 640.209 -1.85861 3.39904 0
M  V30 6837 H 640.623 -0.588229 5.21191 0
M  V30 6838 H 642.097 -2.28801 5.02349 0
M  V30 6839 H 642.574 -2.78002 3.40017 0
M  V30 6840 H 643.18 -1.24623 4.06632 0
M  V30 6841 N 641.495 -1.56914 -0.146875 0
M  V30 6842 C 642.743 -1.82994 -0.85777 0
M  V30 6843 C 643.064 -0.707814 -1.817 0
M  V30 6844 O 642.334 0.270521 -1.94023 0
M  V30 6845 H 640.914 -0.675106 -0.319751 0
M  V30 6846 H 643.576 -1.9439 -0.140849 0
M  V30 6847 H 642.672 -2.77928 -1.41994 0
M  V30 6848 N 642.974 0.416227 -1.52004 0
M  V30 6849 C 644.221 1.16383 -1.65714 0
M  V30 6850 C 644.549 1.9068 -0.383594 0
M  V30 6851 O 643.804 1.85174 0.633185 0
M  V30 6852 C 644.103 2.18923 -2.82502 0
M  V30 6853 C 643.769 1.61485 -4.20991 0
M  V30 6854 C 642.431 1.45545 -4.58661 0
M  V30 6855 C 644.783 1.19468 -5.07323 0
M  V30 6856 C 642.111 0.860937 -5.80349 0
M  V30 6857 C 644.463 0.614386 -6.29609 0
M  V30 6858 C 643.127 0.442056 -6.66035 0
M  V30 6859 H 642.397 0.425875 -0.606392 0
M  V30 6860 H 645.044 0.45199 -1.8609 0
M  V30 6861 H 643.349 2.96225 -2.56433 0
M  V30 6862 H 645.046 2.76628 -2.90307 0
M  V30 6863 H 641.636 1.74873 -3.91302 0
M  V30 6864 H 645.82 1.30596 -4.78809 0
M  V30 6865 H 641.076 0.715372 -6.072 0
M  V30 6866 H 645.25 0.280393 -6.95835 0
M  V30 6867 H 642.877 -0.0207218 -7.60197 0
M  V30 6868 N 644.452 1.42507 0.673017 0
M  V30 6869 C 645.415 1.4582 1.76831 0
M  V30 6870 C 646.415 0.345542 1.57043 0
M  V30 6871 O 647.605 0.606447 1.63303 0
M  V30 6872 C 644.737 1.29158 3.15485 0
M  V30 6873 H 645.93 2.43345 1.7528 0
M  V30 6874 H 643.483 1.28981 0.882817 0
M  V30 6875 H 644.218 0.325626 3.22661 0
M  V30 6876 H 644.003 2.09797 3.31252 0
M  V30 6877 H 645.493 1.34363 3.95394 0
M  V30 6878 N 645.93 -0.909495 1.28709 0
M  V30 6879 C 647.177 -1.65905 1.16111 0
M  V30 6880 C 647.505 -1.92334 -0.289436 0
M  V30 6881 O 646.76 -1.52495 -1.22653 0
M  V30 6882 C 647.059 -3.02117 1.90945 0
M  V30 6883 C 646.725 -2.95332 3.40719 0
M  V30 6884 C 645.387 -2.93189 3.81567 0
M  V30 6885 C 647.739 -2.85264 4.36204 0
M  V30 6886 C 645.067 -2.78784 5.16233 0
M  V30 6887 C 647.419 -2.724 5.70948 0
M  V30 6888 C 646.083 -2.68617 6.11066 0
M  V30 6889 H 645.353 -0.60709 0.42488 0
M  V30 6890 H 648 -1.05932 1.59533 0
M  V30 6891 H 646.305 -3.65901 1.40085 0
M  V30 6892 H 648.002 -3.59026 1.7861 0
M  V30 6893 H 644.592 -2.97797 3.08245 0
M  V30 6894 H 648.776 -2.86005 4.05605 0
M  V30 6895 H 644.032 -2.74254 5.46438 0
M  V30 6896 H 648.206 -2.63579 6.44592 0
M  V30 6897 H 645.833 -2.57213 7.15364 0
M  V30 6898 N 647.408 -1.11026 -1.11852 0
M  V30 6899 C 648.633 -0.879064 -1.87849 0
M  V30 6900 C 649.058 0.565406 -1.79401 0
M  V30 6901 O 648.416 1.39886 -1.15333 0
M  V30 6902 C 648.464 -1.33985 -3.34784 0
M  V30 6903 O 647.568 -0.508803 -4.09249 0
M  V30 6904 H 646.909 -0.316992 -0.583448 0
M  V30 6905 H 649.439 -1.47863 -1.41413 0
M  V30 6906 H 649.449 -1.33248 -3.85628 0
M  V30 6907 H 648.124 -2.39172 -3.40249 0
M  V30 6908 H 646.701 -0.581913 -3.68332 0
M  V30 6909 N 648.886 1.2938 -0.899927 0
M  V30 6910 C 649.816 2.30144 -0.39446 0
M  V30 6911 C 650.797 1.61611 0.530639 0
M  V30 6912 O 651.982 1.89119 0.441319 0
M  V30 6913 C 649.112 3.45229 0.37868 0
M  V30 6914 C 648.066 4.25564 -0.456012 0
M  V30 6915 C 647.392 5.32848 0.444637 0
M  V30 6916 C 648.692 4.93651 -1.70605 0
M  V30 6917 H 650.386 2.72673 -1.23653 0
M  V30 6918 H 647.932 1.31086 -0.596034 0
M  V30 6919 H 649.885 4.14797 0.743037 0
M  V30 6920 H 648.609 3.01545 1.25453 0
M  V30 6921 H 647.268 3.57704 -0.802704 0
M  V30 6922 H 646.916 4.85408 1.31863 0
M  V30 6923 H 646.616 5.87497 -0.110154 0
M  V30 6924 H 648.14 6.05268 0.805182 0
M  V30 6925 H 649.554 5.55655 -1.41141 0
M  V30 6926 H 647.951 5.58233 -2.20217 0
M  V30 6927 H 649.021 4.18926 -2.4419 0
M  V30 6928 N 650.364 0.662433 1.43002 0
M  V30 6929 C 651.594 0.187343 2.05749 0
M  V30 6930 C 652.002 -1.15582 1.49791 0
M  V30 6931 O 651.345 -1.72651 0.627487 0
M  V30 6932 C 651.407 0.0316493 3.59486 0
M  V30 6933 C 651.071 1.30156 4.38073 0
M  V30 6934 C 652.068 2.23234 4.69535 0
M  V30 6935 C 649.753 1.54572 4.77926 0
M  V30 6936 C 651.747 3.39012 5.39768 0
M  V30 6937 C 649.434 2.70641 5.47902 0
M  V30 6938 C 650.432 3.62687 5.78746 0
M  V30 6939 O 650.12 4.76728 6.47291 0
M  V30 6940 H 649.852 0.0915214 0.669776 0
M  V30 6941 H 652.406 0.905982 1.8434 0
M  V30 6942 H 650.636 -0.742451 3.79506 0
M  V30 6943 H 652.325 -0.401977 4.03905 0
M  V30 6944 H 653.091 2.05616 4.39257 0
M  V30 6945 H 648.97 0.83804 4.53319 0
M  V30 6946 H 652.514 4.10877 5.63761 0
M  V30 6947 H 648.411 2.88189 5.77596 0
M  V30 6948 H 649.179 4.76113 6.65777 0
M  V30 6949 N 651.842 -1.52309 0.404946 0
M  V30 6950 C 653.067 -2.06666 -0.1743 0
M  V30 6951 C 653.492 -1.27341 -1.38441 0
M  V30 6952 O 652.85 -0.302539 -1.78758 0
M  V30 6953 C 652.898 -3.57014 -0.507262 0
M  V30 6954 O 652.002 -3.80144 -1.59889 0
M  V30 6955 H 651.343 -0.663807 -0.0160273 0
M  V30 6956 H 653.873 -1.96297 0.576937 0
M  V30 6957 H 653.883 -4.00724 -0.767098 0
M  V30 6958 H 652.558 -4.14184 0.377368 0
M  V30 6959 H 651.135 -3.48316 -1.33155 0
M  V30 6960 N 653.32 -0.135238 -1.57019 0
M  V30 6961 C 654.548 0.526066 -2.001 0
M  V30 6962 C 654.963 1.59184 -1.01519 0
M  V30 6963 O 654.32 1.82497 -0.0104258 0
M  V30 6964 C 654.371 1.13744 -3.43139 0
M  V30 6965 O 654.092 0.114259 -4.37951 0
M  V30 6966 C 655.593 1.8805 -4.01438 0
M  V30 6967 H 652.813 0.137962 -0.656664 0
M  V30 6968 H 655.357 -0.226359 -2.03243 0
M  V30 6969 H 653.512 1.84056 -3.40885 0
M  V30 6970 H 653.926 0.56058 -5.21496 0
M  V30 6971 H 655.4 2.26133 -5.03555 0
M  V30 6972 H 655.877 2.76194 -3.41487 0
M  V30 6973 H 656.483 1.22464 -4.07287 0
M  V30 6974 N 654.798 1.5699 0.138552 0
M  V30 6975 C 656.209 1.73171 0.697754 0
M  V30 6976 C 656.56 0.750952 1.8126 0
M  V30 6977 O 655.685 -0.080549 2.1625 0
M  V30 6978 C 656.28 3.13996 1.27248 0
M  V30 6979 C 654.839 3.3175 1.77816 0
M  V30 6980 C 653.986 2.69084 0.669991 0
M  V30 6981 H 656.937 1.5846 -0.0871979 0
M  V30 6982 H 656.958 3.14463 2.14227 0
M  V30 6983 H 656.47 3.85354 0.460855 0
M  V30 6984 H 654.571 2.65403 2.61519 0
M  V30 6985 H 654.684 4.39768 1.90107 0
M  V30 6986 H 653.048 2.29782 1.09874 0
M  V30 6987 H 653.831 3.43053 -0.130329 0
M  V30 6988 N 656.276 -0.40816 1.52223 0
M  V30 6989 C 657.239 -1.48 1.7501 0
M  V30 6990 C 658.239 -1.48367 0.619996 0
M  V30 6991 O 659.429 -1.49874 0.887881 0
M  V30 6992 C 656.561 -2.87403 1.83336 0
M  V30 6993 H 657.754 -1.29086 2.70697 0
M  V30 6994 H 655.307 -0.638715 1.42654 0
M  V30 6995 H 656.042 -3.11686 0.895677 0
M  V30 6996 H 655.827 -2.8854 2.65494 0
M  V30 6997 H 657.317 -3.65103 2.02705 0
M  V30 6998 N 657.755 -1.42862 -0.66545 0
M  V30 6999 C 658.665 -1.49491 -1.80803 0
M  V30 7000 C 659.681 -0.382914 -1.69734 0
M  V30 7001 O 660.857 -0.635223 -1.9112 0
M  V30 7002 C 657.922 -1.40383 -3.17007 0
M  V30 7003 C 656.983 -2.62152 -3.39963 0
M  V30 7004 C 656.216 -2.53469 -4.69669 0
M  V30 7005 O 656.439 -1.57568 -5.48205 0
M  V30 7006 O 655.373 -3.43763 -4.94075 0
M  V30 7007 H 659.199 -2.45949 -1.78165 0
M  V30 7008 H 656.784 -1.24728 -0.822387 0
M  V30 7009 H 658.666 -1.377 -3.98267 0
M  V30 7010 H 657.341 -0.470546 -3.20262 0
M  V30 7011 H 656.248 -2.70409 -2.58515 0
M  V30 7012 H 657.581 -3.54411 -3.41546 0
M  V30 7013 N 659.233 0.902656 -1.29189 0
M  V30 7014 C 660.181 2.0278 -1.13943 0
M  V30 7015 C 661.175 1.69308 -0.055787 0
M  V30 7016 O 662.381 1.78707 -0.215371 0
M  V30 7017 H 658.756 0.664595 -0.351877 0
M  V30 7018 H 660.727 2.12778 -2.09208 0
M  V30 7019 C 659.476 3.37657 -0.82966 0
M  V30 7020 H 658.799 3.63913 -1.65551 0
M  V30 7021 H 660.239 4.17078 -0.762998 0
M  V30 7022 C 658.698 3.33648 0.466991 0
M  V30 7023 O 659.228 3.72886 1.49395 0
M  V30 7024 N 657.434 2.86745 0.471761 0
M  V30 7025 H 656.981 2.55009 -0.364406 0
M  V30 7026 H 656.939 2.84446 1.33933 0
M  V30 7027 N 660.711 1.11618 1.11262 0
M  V30 7028 C 661.641 0.79846 2.19424 0
M  V30 7029 C 662.622 -0.234003 1.68483 0
M  V30 7030 O 663.807 -0.0970704 1.93957 0
M  V30 7031 C 660.937 0.242892 3.4645 0
M  V30 7032 C 659.891 1.20744 4.10615 0
M  V30 7033 C 659.217 0.512494 5.32238 0
M  V30 7034 C 660.517 2.55884 4.55325 0
M  V30 7035 H 662.211 1.70286 2.46258 0
M  V30 7036 H 659.757 0.820195 1.18359 0
M  V30 7037 H 661.71 0.00840447 4.21399 0
M  V30 7038 H 660.434 -0.696811 3.1908 0
M  V30 7039 H 659.093 1.42759 3.37662 0
M  V30 7040 H 658.741 -0.432075 5.01141 0
M  V30 7041 H 658.441 1.15583 5.7612 0
M  V30 7042 H 659.965 0.286842 6.09926 0
M  V30 7043 H 661.379 2.37946 5.21588 0
M  V30 7044 H 659.776 3.16216 5.10027 0
M  V30 7045 H 660.846 3.14968 3.68678 0
M  V30 7046 N 662.189 -1.289 0.906776 0
M  V30 7047 C 663.429 -1.97046 0.543329 0
M  V30 7048 C 663.793 -1.69862 -0.895034 0
M  V30 7049 O 664.994 -2.31521 -1.36571 0
M  V30 7050 C 663.265 -3.47489 0.835833 0
M  V30 7051 S 664.824 -4.3498 0.577756 0
M  V30 7052 H 661.642 -0.681908 0.201302 0
M  V30 7053 H 664.244 -1.5657 1.17073 0
M  V30 7054 H 662.948 -3.64768 1.88075 0
M  V30 7055 H 662.479 -3.92907 0.196817 0
M  V30 7056 H 664.494 -4.92868 -0.574052 0
M  V30 7057 N 663.667 -0.670007 -1.42649 0
M  V30 7058 C 664.897 -0.198252 -2.05647 0
M  V30 7059 C 665.305 1.14786 -1.50402 0
M  V30 7060 O 664.648 1.72316 -0.636634 0
M  V30 7061 C 664.71 -0.0507132 -3.59464 0
M  V30 7062 C 664.374 -1.32478 -4.37377 0
M  V30 7063 C 665.371 -2.2572 -4.68344 0
M  V30 7064 C 663.056 -1.57104 -4.77099 0
M  V30 7065 C 665.05 -3.4187 -5.37963 0
M  V30 7066 C 662.737 -2.73543 -5.46459 0
M  V30 7067 C 663.735 -3.65751 -5.76815 0
M  V30 7068 O 663.423 -4.80154 -6.44753 0
M  V30 7069 H 663.155 -0.0950721 -0.669281 0
M  V30 7070 H 665.709 -0.915745 -1.83857 0
M  V30 7071 H 663.939 0.722314 -3.79894 0
M  V30 7072 H 665.628 0.380552 -4.04112 0
M  V30 7073 H 666.394 -2.07943 -4.38161 0
M  V30 7074 H 662.273 -0.862069 -4.52868 0
M  V30 7075 H 665.817 -4.13861 -5.61574 0
M  V30 7076 H 661.714 -2.91248 -5.7606 0
M  V30 7077 H 662.482 -4.79637 -6.63243 0
M  V30 7078 N 665.145 1.52092 -0.413018 0
M  V30 7079 C 666.561 1.59471 -0.0640836 0
M  V30 7080 C 666.761 1.42562 1.42402 0
M  V30 7081 O 665.817 1.25453 2.19129 0
M  V30 7082 C 667.13 2.95392 -0.562474 0
M  V30 7083 C 668.678 3.08637 -0.520788 0
M  V30 7084 C 669.153 4.47044 -0.995752 0
M  V30 7085 N 670.644 4.53296 -0.952732 0
M  V30 7086 C 671.379 5.58669 -1.29138 0
M  V30 7087 N 670.875 6.71576 -1.70168 0
M  V30 7088 N 672.668 5.48898 -1.2111 0
M  V30 7089 H 664.819 1.6133 -1.38153 0
M  V30 7090 H 667.082 0.75916 -0.567785 0
M  V30 7091 H 666.788 3.13059 -1.60271 0
M  V30 7092 H 666.662 3.77191 0.0257875 0
M  V30 7093 H 669.049 2.90652 0.510412 0
M  V30 7094 H 669.13 2.28735 -1.14515 0
M  V30 7095 H 668.774 4.65773 -2.0253 0
M  V30 7096 H 668.704 5.25448 -0.348162 0
M  V30 7097 H 671.195 3.72248 -0.651119 0
M  V30 7098 H 671.508 7.47973 -1.9431 0
M  V30 7099 H 669.853 6.72847 -1.74075 0
M  V30 7100 H 673.044 4.59573 -0.889396 0
M  V30 7101 H 673.217 6.30912 -1.47833 0
M  V30 7102 N 666.623 0.143563 1.56945 0
M  V30 7103 C 667.87 -0.508407 1.96014 0
M  V30 7104 C 668.198 -1.65099 1.02824 0
M  V30 7105 O 667.453 -1.95618 0.0567764 0
M  V30 7106 C 667.752 -1.05885 3.41355 0
M  V30 7107 C 667.418 -0.0350809 4.50886 0
M  V30 7108 C 666.08 0.246362 4.80569 0
M  V30 7109 C 668.432 0.661282 5.16988 0
M  V30 7110 C 665.76 1.23003 5.73661 0
M  V30 7111 C 668.112 1.63375 6.11139 0
M  V30 7112 C 666.776 1.92292 6.39203 0
M  V30 7113 H 666.046 -0.186039 0.717266 0
M  V30 7114 H 668.693 0.229667 1.90118 0
M  V30 7115 H 666.998 -1.87419 3.44066 0
M  V30 7116 H 668.695 -1.57183 3.6891 0
M  V30 7117 H 665.285 -0.264622 4.27782 0
M  V30 7118 H 669.469 0.457038 4.94191 0
M  V30 7119 H 664.725 1.46056 5.93698 0
M  V30 7120 H 668.899 2.17887 6.61436 0
M  V30 7121 H 666.526 2.68666 7.11142 0
M  V30 7122 N 668.101 -1.57061 -0.130224 0
M  V30 7123 C 669.341 -1.86071 -0.845993 0
M  V30 7124 C 669.705 -0.73009 -1.77577 0
M  V30 7125 O 670.906 -0.901663 -2.53226 0
M  V30 7126 C 669.177 -3.20293 -1.58579 0
M  V30 7127 S 670.736 -3.70905 -2.34467 0
M  V30 7128 H 667.554 -0.652434 -0.282579 0
M  V30 7129 H 670.156 -1.95218 -0.10498 0
M  V30 7130 H 668.86 -4.00533 -0.894509 0
M  V30 7131 H 668.391 -3.14195 -2.36739 0
M  V30 7132 H 670.406 -3.41509 -3.59981 0
M  V30 7133 N 669.579 0.400081 -1.52437 0
M  V30 7134 C 670.526 1.48803 -1.76426 0
M  V30 7135 C 671.496 1.5461 -0.607032 0
M  V30 7136 O 672.681 1.71041 -0.845563 0
M  V30 7137 C 669.821 2.86156 -1.92896 0
M  V30 7138 C 668.934 2.89587 -3.20567 0
M  V30 7139 C 668.069 4.18296 -3.27417 0
M  V30 7140 C 667.108 4.15736 -4.49255 0
M  V30 7141 N 666.245 5.36032 -4.53447 0
M  V30 7142 H 671.085 1.27649 -2.69276 0
M  V30 7143 H 668.622 0.619451 -1.33421 0
M  V30 7144 H 670.58 3.65901 -2.00429 0
M  V30 7145 H 669.21 3.05785 -1.03418 0
M  V30 7146 H 668.262 2.02278 -3.22161 0
M  V30 7147 H 669.574 2.83562 -4.10358 0
M  V30 7148 H 668.728 5.06439 -3.34072 0
M  V30 7149 H 667.467 4.27028 -2.35581 0
M  V30 7150 H 666.472 3.25982 -4.42737 0
M  V30 7151 H 667.697 4.08636 -5.42396 0
M  V30 7152 H 665.643 5.45415 -3.64498 0
M  V30 7153 H 665.56 5.32038 -5.37096 0
M  V30 7154 H 666.828 6.26104 -4.64343 0
M  V30 7155 N 671.057 1.43213 0.657864 0
M  V30 7156 C 671.987 1.50815 1.78262 0
M  V30 7157 C 672.968 0.363211 1.66177 0
M  V30 7158 O 674.153 0.579806 1.85343 0
M  V30 7159 C 671.283 1.42625 3.16663 0
M  V30 7160 C 670.237 2.5532 3.43505 0
M  V30 7161 C 669.563 2.32184 4.81658 0
M  V30 7162 C 670.863 3.97583 3.38711 0
M  V30 7163 H 672.557 2.44954 1.72157 0
M  V30 7164 H 670.103 1.17896 0.82683 0
M  V30 7165 H 672.056 1.46548 3.95097 0
M  V30 7166 H 670.78 0.449877 3.23487 0
M  V30 7167 H 669.439 2.50742 2.6744 0
M  V30 7168 H 669.087 1.32801 4.85153 0
M  V30 7169 H 668.787 3.07724 5.00579 0
M  V30 7170 H 670.311 2.37883 5.62356 0
M  V30 7171 H 671.725 4.03673 4.07089 0
M  V30 7172 H 670.122 4.73112 3.69168 0
M  V30 7173 H 671.192 4.23049 2.36976 0
M  V30 7174 N 672.536 -0.895792 1.29666 0
M  V30 7175 C 673.813 -1.62723 1.08538 0
M  V30 7176 C 674.193 -2.07848 -0.369119 0
M  V30 7177 O 673.541 -1.8372 -1.35864 0
M  V30 7178 C 673.751 -2.80505 2.07648 0
M  V30 7179 C 675.099 -3.51098 2.3878 0
M  V30 7180 O 676.123 -2.90679 2.05874 0
M  V30 7181 O 674.982 -4.60028 2.9502 0
M  V30 7182 H 672.076 -0.714692 0.416106 0
M  V30 7183 H 674.622 -0.943517 1.41053 0
M  V30 7184 H 673.394 -2.44386 3.05599 0
M  V30 7185 H 673.017 -3.5658 1.75887 0
M  V30 7186 N 674.014 -1.12206 -1.10668 0
M  V30 7187 C 675.242 -0.898635 -1.86366 0
M  V30 7188 C 675.657 0.551991 -1.80551 0
M  V30 7189 O 675.014 1.38152 -1.19249 0
M  V30 7190 C 675.065 -1.36199 -3.34861 0
M  V30 7191 O 674.786 -2.75576 -3.40573 0
M  V30 7192 C 676.287 -1.17515 -4.2744 0
M  V30 7193 H 673.507 -0.321281 -0.589084 0
M  V30 7194 H 676.051 -1.49142 -1.39918 0
M  V30 7195 H 674.206 -0.81249 -3.78784 0
M  V30 7196 H 674.62 -2.95851 -4.33096 0
M  V30 7197 H 676.094 -1.54827 -5.29842 0
M  V30 7198 H 676.571 -0.115486 -4.39048 0
M  V30 7199 H 677.177 -1.71203 -3.89319 0
M  V30 7200 N 675.492 1.28418 -0.913599 0
M  V30 7201 C 676.402 2.31043 -0.406965 0
M  V30 7202 C 677.418 1.66501 0.505298 0
M  V30 7203 O 678.594 1.97558 0.391522 0
M  V30 7204 C 675.659 3.4498 0.344901 0
M  V30 7205 C 674.72 4.25078 -0.600563 0
M  V30 7206 C 673.953 5.33575 0.115516 0
M  V30 7207 O 674.176 5.54503 1.33727 0
M  V30 7208 O 673.11 5.9939 -0.549095 0
M  V30 7209 H 676.936 2.76387 -1.25873 0
M  V30 7210 H 674.521 1.33109 -0.678415 0
M  V30 7211 H 676.403 4.14314 0.769542 0
M  V30 7212 H 675.078 3.01719 1.1725 0
M  V30 7213 H 673.985 3.58334 -1.0746 0
M  V30 7214 H 675.318 4.72018 -1.39497 0
M  V30 7215 N 676.97 0.677563 1.42291 0
M  V30 7216 C 677.917 0.000947061 2.308 0
M  V30 7217 C 678.887 -0.789889 1.46116 0
M  V30 7218 O 680.072 -0.761578 1.74942 0
M  V30 7219 C 677.212 -0.942387 3.31984 0
M  V30 7220 C 676.325 -0.14508 4.31756 0
M  V30 7221 C 675.46 -1.08442 5.20013 0
M  V30 7222 C 674.499 -0.278958 6.11464 0
M  V30 7223 N 673.636 -1.17115 6.92263 0
M  V30 7224 H 678.476 0.761521 2.88106 0
M  V30 7225 H 676.013 0.38727 1.41911 0
M  V30 7226 H 677.971 -1.50317 3.89179 0
M  V30 7227 H 676.601 -1.66956 2.76271 0
M  V30 7228 H 675.653 0.532368 3.76656 0
M  V30 7229 H 676.965 0.48015 4.96484 0
M  V30 7230 H 676.119 -1.71504 5.81955 0
M  V30 7231 H 674.858 -1.74353 4.55469 0
M  V30 7232 H 673.863 0.364856 5.48588 0
M  V30 7233 H 675.088 0.376099 6.78058 0
M  V30 7234 H 673.034 -1.81661 6.30345 0
M  V30 7235 H 672.951 -0.601063 7.53607 0
M  V30 7236 H 674.219 -1.78915 7.58689 0
M  V30 7237 N 678.448 -1.51871 0.421078 0
M  V30 7238 C 679.678 -2.06057 -0.149723 0
M  V30 7239 C 680.086 -1.29002 -1.38402 0
M  V30 7240 O 679.429 -0.338385 -1.80556 0
M  V30 7241 C 679.491 -3.55216 -0.553339 0
M  V30 7242 C 679.155 -4.53408 0.571879 0
M  V30 7243 C 680.152 -4.99586 1.4391 0
M  V30 7244 C 677.837 -4.967 0.747979 0
M  V30 7245 C 679.831 -5.87711 2.46727 0
M  V30 7246 C 677.518 -5.84619 1.77944 0
M  V30 7247 C 678.516 -6.30021 2.63748 0
M  V30 7248 O 678.204 -7.16197 3.65126 0
M  V30 7249 H 677.936 -0.675744 -0.0186102 0
M  V30 7250 H 680.49 -1.96618 0.594166 0
M  V30 7251 H 678.72 -3.62381 -1.34969 0
M  V30 7252 H 680.409 -3.91992 -1.05342 0
M  V30 7253 H 681.175 -4.66846 1.31451 0
M  V30 7254 H 677.054 -4.60913 0.0897357 0
M  V30 7255 H 680.598 -6.2307 3.13734 0
M  V30 7256 H 676.495 -6.16771 1.90429 0
M  V30 7257 H 677.263 -7.34337 3.61512 0
M  V30 7258 N 679.926 -0.151884 -1.56866 0
M  V30 7259 C 681.174 0.497021 -1.95893 0
M  V30 7260 C 681.495 1.65078 -1.03799 0
M  V30 7261 O 680.765 1.95642 -0.10049 0
M  V30 7262 H 679.345 0.186603 -0.723318 0
M  V30 7263 H 682.007 -0.228525 -1.93556 0
M  V30 7264 H 681.103 0.869933 -2.99731 0
M  V30 7265 N 681.404 1.57128 0.121893 0
M  V30 7266 C 682.629 1.89254 0.848385 0
M  V30 7267 C 683.054 0.743527 1.72781 0
M  V30 7268 O 682.412 -0.306056 1.78698 0
M  V30 7269 C 682.46 3.20113 1.66012 0
M  V30 7270 O 681.564 3.05815 2.76679 0
M  V30 7271 H 680.905 0.621103 0.234793 0
M  V30 7272 H 683.435 2.0433 0.10516 0
M  V30 7273 H 683.445 3.52761 2.04996 0
M  V30 7274 H 682.12 4.03336 1.01452 0
M  V30 7275 H 680.697 2.84627 2.40918 0
M  V30 7276 N 682.882 -0.391992 1.52647 0
M  V30 7277 C 684.128 -1.139 1.67793 0
M  V30 7278 C 684.461 -1.89711 0.41514 0
M  V30 7279 O 683.736 -1.85431 -0.586979 0
M  V30 7280 C 684.019 -2.11966 2.91105 0
M  V30 7281 C 683.872 -1.39939 4.27478 0
M  V30 7282 C 685.191 -3.1243 3.09961 0
M  V30 7283 H 682.31 -0.412707 0.610608 0
M  V30 7284 H 684.952 -0.422725 1.85238 0
M  V30 7285 H 683.102 -2.73048 2.76364 0
M  V30 7286 H 684.774 -0.818439 4.53982 0
M  V30 7287 H 683.017 -0.701246 4.28095 0
M  V30 7288 H 683.688 -2.1158 5.09841 0
M  V30 7289 H 686.164 -2.61435 3.23714 0
M  V30 7290 H 685.04 -3.78294 3.97725 0
M  V30 7291 H 685.301 -3.81127 2.24042 0
M  V30 7292 N 684.36 -1.4356 -0.65026 0
M  V30 7293 C 685.307 -1.48948 -1.76304 0
M  V30 7294 C 686.277 -0.338919 -1.62605 0
M  V30 7295 O 687.462 -0.54649 -1.82806 0
M  V30 7296 C 684.602 -1.42131 -3.14472 0
M  V30 7297 C 683.715 -2.67415 -3.39284 0
M  V30 7298 C 682.85 -2.52565 -4.67316 0
M  V30 7299 C 681.889 -3.73103 -4.85243 0
M  V30 7300 N 681.026 -3.57046 -6.04535 0
M  V30 7301 H 685.866 -2.44032 -1.71034 0
M  V30 7302 H 683.403 -1.21131 -0.834601 0
M  V30 7303 H 685.361 -1.36172 -3.94351 0
M  V30 7304 H 683.991 -0.506273 -3.18805 0
M  V30 7305 H 683.043 -2.8364 -2.53481 0
M  V30 7306 H 684.355 -3.56943 -3.48415 0
M  V30 7307 H 683.509 -2.44331 -5.55326 0
M  V30 7308 H 682.248 -1.60566 -4.60511 0
M  V30 7309 H 681.253 -3.81743 -3.95667 0
M  V30 7310 H 682.478 -4.66115 -4.93876 0
M  V30 7311 H 680.424 -2.67783 -5.98856 0
M  V30 7312 H 680.341 -4.40178 -6.14638 0
M  V30 7313 H 681.609 -3.52669 -6.95158 0
M  V30 7314 N 685.838 0.888903 -1.30139 0
M  V30 7315 C 687.115 1.62145 -1.094 0
M  V30 7316 C 687.495 2.08041 0.358091 0
M  V30 7317 O 686.843 1.84438 1.34888 0
M  V30 7318 C 687.053 2.794 -2.09133 0
M  V30 7319 C 688.401 3.49826 -2.40638 0
M  V30 7320 O 689.425 2.89583 -2.07412 0
M  V30 7321 O 688.284 4.58457 -2.97455 0
M  V30 7322 H 685.378 0.712475 -0.41989 0
M  V30 7323 H 687.924 0.936023 -1.41551 0
M  V30 7324 H 686.696 2.42762 -3.06891 0
M  V30 7325 H 686.319 3.55643 -1.77776 0
M  V30 7326 N 687.317 1.12792 1.10072 0
M  V30 7327 C 688.563 0.886857 1.82381 0
M  V30 7328 C 688.896 -0.58576 1.85155 0
M  V30 7329 O 688.171 -1.43317 1.31493 0
M  V30 7330 C 688.454 1.46703 3.28862 0
M  V30 7331 C 688.307 3.00829 3.34398 0
M  V30 7332 C 689.626 1.12971 4.25353 0
M  V30 7333 H 686.745 0.32362 0.662148 0
M  V30 7334 H 689.387 1.39513 1.28982 0
M  V30 7335 H 687.537 1.03476 3.74466 0
M  V30 7336 H 689.209 3.52764 2.97247 0
M  V30 7337 H 687.452 3.36164 2.74183 0
M  V30 7338 H 688.123 3.36519 4.3756 0
M  V30 7339 H 690.599 1.50313 3.88001 0
M  V30 7340 H 689.475 1.56223 5.26199 0
M  V30 7341 H 689.736 0.0424452 4.4208 0
M  V30 7342 N 688.795 -1.27931 0.920396 0
M  V30 7343 C 690.023 -1.98805 0.573087 0
M  V30 7344 C 690.438 -1.68724 -0.847201 0
M  V30 7345 O 689.795 -0.943699 -1.56207 0
M  V30 7346 C 689.846 -3.52971 0.780633 0
M  V30 7347 O 689.567 -3.81994 2.14504 0
M  V30 7348 C 691.068 -4.411 0.44105 0
M  V30 7349 H 688.288 -0.634651 0.21785 0
M  V30 7350 H 690.832 -1.62965 1.23542 0
M  V30 7351 H 688.987 -3.87048 0.165204 0
M  V30 7352 H 689.401 -4.76609 2.18962 0
M  V30 7353 H 690.875 -5.48312 0.637006 0
M  V30 7354 H 691.352 -4.34758 -0.62306 0
M  V30 7355 H 691.958 -4.12532 1.0343 0
M  V30 7356 N 690.273 -0.685099 -1.4193 0
M  V30 7357 C 691.55 -0.140152 -1.95097 0
M  V30 7358 C 691.93 1.34745 -1.62502 0
M  V30 7359 O 691.278 2.08872 -0.926534 0
M  V30 7360 C 691.488 -0.420268 -3.4646 0
M  V30 7361 C 692.836 -0.342338 -4.23218 0
M  V30 7362 O 693.86 -0.354592 -3.54431 0
M  V30 7363 O 692.719 -0.293404 -5.45712 0
M  V30 7364 H 689.813 -0.00885998 -0.826953 0
M  V30 7365 H 692.359 -0.760539 -1.51703 0
M  V30 7366 H 691.131 -1.45037 -3.63428 0
M  V30 7367 H 690.754 0.231616 -3.96925 0
M  V30 7368 N 691.751 1.51645 -0.429126 0
M  V30 7369 C 692.698 2.27542 0.386446 0
M  V30 7370 C 693.668 1.30786 1.02393 0
M  V30 7371 O 694.853 1.59678 1.0444 0
M  V30 7372 C 691.993 3.11457 1.48623 0
M  V30 7373 C 691.106 4.23196 0.867691 0
M  V30 7374 C 690.241 4.94435 1.94183 0
M  V30 7375 C 689.28 5.98108 1.30129 0
M  V30 7376 N 688.417 6.62786 2.31644 0
M  V30 7377 H 693.257 2.968 -0.267155 0
M  V30 7378 H 690.794 1.46397 -0.143591 0
M  V30 7379 H 692.752 3.58429 2.13506 0
M  V30 7380 H 691.382 2.44329 2.10957 0
M  V30 7381 H 690.434 3.80248 0.107373 0
M  V30 7382 H 691.746 4.97499 0.35997 0
M  V30 7383 H 690.9 5.44914 2.66747 0
M  V30 7384 H 689.639 4.19744 2.48326 0
M  V30 7385 H 688.644 5.4693 0.561082 0
M  V30 7386 H 689.869 6.74751 0.767303 0
M  V30 7387 H 687.815 5.90913 2.84883 0
M  V30 7388 H 687.732 7.32828 1.85741 0
M  V30 7389 H 689 7.17897 3.03717 0
M  V30 7390 N 693.229 0.160201 1.56784 0
M  V30 7391 C 694.477 -0.486625 1.96154 0
M  V30 7392 C 694.798 -1.64525 1.04673 0
M  V30 7393 O 694.068 -1.95586 0.110864 0
M  V30 7394 H 692.648 -0.182764 0.724297 0
M  V30 7395 H 695.31 0.238787 1.93432 0
M  V30 7396 H 694.406 -0.854025 3.00188 0
M  V30 7397 N 694.707 -1.5719 -0.113559 0
M  V30 7398 C 695.953 -1.86289 -0.816583 0
M  V30 7399 C 696.308 -0.748672 -1.77236 0
M  V30 7400 O 695.601 0.250889 -1.8995 0
M  V30 7401 C 695.795 -3.19593 -1.59984 0
M  V30 7402 C 695.624 -4.43876 -0.721414 0
M  V30 7403 C 694.394 -5.03913 -0.374172 0
M  V30 7404 C 696.592 -5.14287 -0.0366045 0
M  V30 7405 N 694.574 -6.11741 0.514352 0
M  V30 7406 C 695.945 -6.15913 0.710706 0
M  V30 7407 C 698 -4.97885 0.039247 0
M  V30 7408 C 696.703 -7.0291 1.52675 0
M  V30 7409 C 698.729 -5.85373 0.842135 0
M  V30 7410 C 698.091 -6.86506 1.57762 0
M  V30 7411 H 694.19 -0.731839 -0.275564 0
M  V30 7412 H 696.774 -1.94535 -0.080033 0
M  V30 7413 H 694.945 -3.12432 -2.30739 0
M  V30 7414 H 696.677 -3.3648 -2.24862 0
M  V30 7415 H 693.432 -4.68131 -0.717653 0
M  V30 7416 H 693.856 -6.70293 0.950623 0
M  V30 7417 H 698.498 -4.19651 -0.51503 0
M  V30 7418 H 696.216 -7.80547 2.09217 0
M  V30 7419 H 699.802 -5.74746 0.903256 0
M  V30 7420 H 698.682 -7.53032 2.1889 0
M  V30 7421 N 696.185 0.383891 -1.52853 0
M  V30 7422 C 697.415 1.14783 -1.7178 0
M  V30 7423 C 697.823 1.84055 -0.438211 0
M  V30 7424 O 697.166 1.73713 0.597465 0
M  V30 7425 C 697.228 2.23543 -2.81547 0
M  V30 7426 C 696.892 1.74195 -4.22499 0
M  V30 7427 C 697.889 1.21591 -5.05481 0
M  V30 7428 C 695.574 1.80262 -4.6884 0
M  V30 7429 C 697.568 0.757104 -6.32888 0
M  V30 7430 C 695.255 1.33993 -5.96229 0
M  V30 7431 C 696.253 0.818049 -6.78083 0
M  V30 7432 O 695.941 0.362123 -8.03084 0
M  V30 7433 H 695.673 0.349908 -0.578395 0
M  V30 7434 H 698.227 0.454377 -2.00311 0
M  V30 7435 H 696.457 2.96328 -2.48449 0
M  V30 7436 H 698.146 2.8519 -2.88828 0
M  V30 7437 H 698.912 1.16257 -4.7086 0
M  V30 7438 H 694.791 2.19825 -4.05213 0
M  V30 7439 H 698.335 0.34908 -6.96726 0
M  V30 7440 H 694.232 1.39015 -6.30353 0
M  V30 7441 H 695 0.483134 -8.17073 0
M  V30 7442 N 697.663 1.43903 0.642637 0
M  V30 7443 C 698.891 1.4954 1.42988 0
M  V30 7444 C 699.306 0.116588 1.8844 0
M  V30 7445 O 698.663 -0.875285 1.60141 0
M  V30 7446 C 698.714 2.45031 2.65785 0
M  V30 7447 O 698.435 3.77551 2.22232 0
M  V30 7448 C 699.936 2.60017 3.59035 0
M  V30 7449 H 697.156 0.507544 0.438907 0
M  V30 7450 H 699.7 1.88752 0.786942 0
M  V30 7451 H 697.855 2.08985 3.26196 0
M  V30 7452 H 698.269 4.29001 3.01759 0
M  V30 7453 H 699.743 3.30887 4.41835 0
M  V30 7454 H 700.22 1.64861 4.07084 0
M  V30 7455 H 700.826 2.96918 3.045 0
M  V30 7456 N 699.141 -0.881989 1.30609 0
M  V30 7457 C 700.089 -2.00942 1.17155 0
M  V30 7458 C 701.083 -1.69198 0.0827154 0
M  V30 7459 O 702.289 -1.78342 0.243775 0
M  V30 7460 H 698.664 -0.658913 0.362406 0
M  V30 7461 H 700.635 -2.09423 2.12567 0
M  V30 7462 C 699.384 -3.36294 0.883273 0
M  V30 7463 H 698.707 -3.61233 1.7132 0
M  V30 7464 H 700.147 -4.15812 0.829255 0
M  V30 7465 C 698.606 -3.34348 -0.413851 0
M  V30 7466 O 699.136 -3.75216 -1.43444 0
M  V30 7467 N 697.342 -2.87459 -0.426082 0
M  V30 7468 H 696.889 -2.54397 0.40493 0
M  V30 7469 H 696.847 -2.8654 -1.29391 0
M  V30 7470 N 700.619 -1.13374 -1.09472 0
M  V30 7471 C 701.844 -0.918711 -1.85942 0
M  V30 7472 C 702.269 0.527225 -1.8056 0
M  V30 7473 O 701.627 1.37408 -1.18274 0
M  V30 7474 C 701.675 -1.41056 -3.31867 0
M  V30 7475 O 700.779 -0.595496 -4.08078 0
M  V30 7476 H 700.12 -0.329297 -0.576593 0
M  V30 7477 H 702.65 -1.50829 -1.38245 0
M  V30 7478 H 702.66 -1.41398 -3.82715 0
M  V30 7479 H 701.335 -2.46335 -3.35099 0
M  V30 7480 H 699.912 -0.659911 -3.67014 0
M  V30 7481 N 702.098 1.27442 -0.927168 0
M  V30 7482 C 703.345 1.94391 -0.567324 0
M  V30 7483 C 703.673 1.72875 0.891321 0
M  V30 7484 O 702.928 1.05071 1.65102 0
M  V30 7485 C 703.227 3.47413 -0.838994 0
M  V30 7486 C 702.893 3.89049 -2.2793 0
M  V30 7487 C 701.555 4.00127 -2.67305 0
M  V30 7488 C 703.907 4.10154 -3.21595 0
M  V30 7489 C 701.235 4.29697 -3.99471 0
M  V30 7490 C 703.587 4.41208 -4.53341 0
M  V30 7491 C 702.251 4.50499 -4.92551 0
M  V30 7492 H 701.521 0.711325 -0.207598 0
M  V30 7493 H 704.168 1.51523 -1.17103 0
M  V30 7494 H 702.473 3.91503 -0.152609 0
M  V30 7495 H 704.17 3.97354 -0.53955 0
M  V30 7496 H 700.76 3.80962 -1.96381 0
M  V30 7497 H 704.944 4.01036 -2.92377 0
M  V30 7498 H 700.2 4.35099 -4.29533 0
M  V30 7499 H 704.374 4.56486 -5.25922 0
M  V30 7500 H 702.001 4.73167 -5.94994 0
M  V30 7501 N 703.576 0.692616 1.41565 0
M  V30 7502 C 704.526 0.00231847 2.28 0
M  V30 7503 C 705.51 -0.755793 1.42044 0
M  V30 7504 O 706.702 -0.631772 1.65341 0
M  V30 7505 C 703.831 -0.935468 3.30309 0
M  V30 7506 C 702.917 -0.173761 4.23744 0
M  V30 7507 N 703.308 0.830872 4.98929 0
M  V30 7508 C 701.606 -0.409666 4.44115 0
M  V30 7509 C 702.307 1.28656 5.67294 0
M  V30 7510 N 701.283 0.613053 5.40132 0
M  V30 7511 H 705.085 0.772635 2.83562 0
M  V30 7512 H 702.599 0.523198 1.53741 0
M  V30 7513 H 704.596 -1.44513 3.91052 0
M  V30 7514 H 703.256 -1.70542 2.76307 0
M  V30 7515 H 704.267 1.21101 5.03542 0
M  V30 7516 H 700.944 -1.15773 4.01127 0
M  V30 7517 H 702.334 2.12006 6.37576 0
M  V30 7518 N 705.054 -1.51416 0.437162 0
M  V30 7519 C 706.3 -2.02386 -0.129555 0
M  V30 7520 C 706.633 -1.32071 -1.42376 0
M  V30 7521 O 705.908 -0.43559 -1.8956 0
M  V30 7522 C 706.191 -3.5841 -0.348487 0
M  V30 7523 C 706.044 -4.39341 0.964352 0
M  V30 7524 C 707.363 -4.25654 -1.11834 0
M  V30 7525 H 704.482 -0.735587 -0.0456109 0
M  V30 7526 H 707.124 -1.81055 0.576124 0
M  V30 7527 H 705.274 -3.76716 -0.949592 0
M  V30 7528 H 706.946 -4.32685 1.59942 0
M  V30 7529 H 705.189 -4.04432 1.56898 0
M  V30 7530 H 705.86 -5.4667 0.765212 0
M  V30 7531 H 708.336 -4.11617 -0.609165 0
M  V30 7532 H 707.212 -5.34704 -1.24029 0
M  V30 7533 H 707.473 -3.86502 -2.14636 0
M  V30 7534 N 706.532 -0.168513 -1.56696 0
M  V30 7535 C 707.757 0.486688 -2.01609 0
M  V30 7536 C 708.182 1.56203 -1.04796 0
M  V30 7537 O 707.54 1.8128 -0.0270596 0
M  V30 7538 C 707.588 1.04451 -3.45141 0
M  V30 7539 O 706.692 2.15862 -3.51393 0
M  V30 7540 H 706.033 0.116831 -0.653641 0
M  V30 7541 H 708.563 -0.271579 -2.0279 0
M  V30 7542 H 708.573 1.36782 -3.84389 0
M  V30 7543 H 707.248 0.257155 -4.15104 0
M  V30 7544 H 705.825 1.84597 -3.24004 0
M  V30 7545 N 708.01 1.57248 0.105221 0
M  V30 7546 C 709.256 1.85845 0.811753 0
M  V30 7547 C 709.589 0.756219 1.78871 0
M  V30 7548 O 708.864 -0.236736 1.93054 0
M  V30 7549 C 709.147 3.25059 1.54947 0
M  V30 7550 C 709 4.45898 0.591185 0
M  V30 7551 C 710.319 3.6203 2.50245 0
M  V30 7552 H 707.438 0.675973 0.293649 0
M  V30 7553 H 710.08 1.89849 0.0756269 0
M  V30 7554 H 708.23 3.21776 2.17698 0
M  V30 7555 H 709.902 4.61291 -0.0285352 0
M  V30 7556 H 708.145 4.33693 -0.0962343 0
M  V30 7557 H 708.816 5.40009 1.1443 0
M  V30 7558 H 711.292 3.66192 1.97593 0
M  V30 7559 H 710.168 4.60389 2.98886 0
M  V30 7560 H 710.429 2.90176 3.33542 0
M  V30 7561 N 709.488 -0.375779 1.53054 0
M  V30 7562 C 710.398 -1.48381 1.81715 0
M  V30 7563 C 711.414 -1.59087 0.704795 0
M  V30 7564 O 712.59 -1.75174 0.993785 0
M  V30 7565 C 709.655 -2.83767 1.99192 0
M  V30 7566 C 708.716 -2.82673 3.23102 0
M  V30 7567 C 707.949 -4.11601 3.39736 0
M  V30 7568 O 708.172 -5.07243 2.60885 0
M  V30 7569 O 707.106 -4.18034 4.33049 0
M  V30 7570 H 710.932 -1.27089 2.7583 0
M  V30 7571 H 708.517 -0.564902 1.38308 0
M  V30 7572 H 710.399 -3.64004 2.12318 0
M  V30 7573 H 709.074 -3.05057 1.08267 0
M  V30 7574 H 707.981 -2.0117 3.15407 0
M  V30 7575 H 709.314 -2.66335 4.13916 0
M  V30 7576 N 710.966 -1.44241 -0.634997 0
M  V30 7577 C 711.876 -1.53293 -1.77591 0
M  V30 7578 C 712.892 -0.418831 -1.68884 0
M  V30 7579 O 714.068 -0.675619 -1.8973 0
M  V30 7580 C 711.133 -1.47075 -3.13958 0
M  V30 7581 C 710.194 -2.69304 -3.34326 0
M  V30 7582 C 709.427 -2.63374 -4.64187 0
M  V30 7583 O 709.65 -1.69161 -5.44739 0
M  V30 7584 O 708.584 -3.54166 -4.86673 0
M  V30 7585 H 712.41 -2.49673 -1.72908 0
M  V30 7586 H 709.995 -1.26445 -0.795745 0
M  V30 7587 H 711.877 -1.46117 -3.95257 0
M  V30 7588 H 710.552 -0.538373 -3.19192 0
M  V30 7589 H 709.459 -2.75831 -2.52721 0
M  V30 7590 H 710.792 -3.61576 -3.33951 0
M  V30 7591 N 712.444 0.87505 -1.31075 0
M  V30 7592 C 713.392 2.00317 -1.18219 0
M  V30 7593 C 714.386 1.69152 -0.0916872 0
M  V30 7594 O 715.592 1.7821 -0.253229 0
M  V30 7595 H 711.967 0.656981 -0.365895 0
M  V30 7596 H 713.938 2.08293 -2.13674 0
M  V30 7597 C 712.687 3.35821 -0.901095 0
M  V30 7598 H 712.01 3.6032 -1.73233 0
M  V30 7599 H 713.45 4.15366 -0.851295 0
M  V30 7600 C 711.909 3.34563 0.396114 0
M  V30 7601 O 712.439 3.75971 1.41452 0
M  V30 7602 N 710.645 2.87681 0.410832 0
M  V30 7603 H 710.192 2.54179 -0.418415 0
M  V30 7604 H 710.15 2.87223 1.27869 0
M  V30 7605 N 713.922 1.13953 1.08869 0
M  V30 7606 C 715.171 0.899431 1.80536 0
M  V30 7607 C 715.484 -0.575781 1.86933 0
M  V30 7608 O 716.69 -0.932988 2.54966 0
M  V30 7609 C 715.146 1.55963 3.24351 0
M  V30 7610 C 714.754 3.07077 3.26202 0
M  V30 7611 C 716.498 1.40046 4.00733 0
M  V30 7612 C 714.405 3.65955 4.64576 0
M  V30 7613 H 713.335 0.332849 0.676556 0
M  V30 7614 H 715.986 1.3679 1.22314 0
M  V30 7615 H 714.368 1.01883 3.82669 0
M  V30 7616 H 715.542 3.67785 2.77617 0
M  V30 7617 H 713.857 3.22576 2.63312 0
M  V30 7618 H 716.454 1.81441 5.02974 0
M  V30 7619 H 716.797 0.345993 4.1486 0
M  V30 7620 H 717.33 1.91137 3.48872 0
M  V30 7621 H 714.069 4.71234 4.55652 0
M  V30 7622 H 713.589 3.10027 5.13462 0
M  V30 7623 H 715.268 3.65968 5.33551 0
M  V30 7624 N 715.4 -1.26948 0.933913 0
M  V30 7625 C 716.628 -1.98186 0.59414 0
M  V30 7626 C 717.043 -1.69614 -0.829257 0
M  V30 7627 O 716.4 -0.960213 -1.55197 0
M  V30 7628 C 716.451 -3.52123 0.818026 0
M  V30 7629 O 716.172 -3.79698 2.18543 0
M  V30 7630 C 717.673 -4.40608 0.48781 0
M  V30 7631 H 714.893 -0.632305 0.224569 0
M  V30 7632 H 717.437 -1.61646 1.25263 0
M  V30 7633 H 715.592 -3.86851 0.206246 0
M  V30 7634 H 716.006 -4.7426 2.24005 0
M  V30 7635 H 717.48 -5.47606 0.695126 0
M  V30 7636 H 717.957 -4.35394 -0.576913 0
M  V30 7637 H 718.563 -4.11411 1.078 0
M  V30 7638 N 716.879 -0.700114 -1.41195 0
M  V30 7639 C 718.29 -0.307249 -1.84154 0
M  V30 7640 C 718.641 1.15539 -1.58572 0
M  V30 7641 O 717.766 1.88744 -1.05852 0
M  V30 7642 C 718.361 -0.550872 -3.34292 0
M  V30 7643 C 716.92 -0.211877 -3.75803 0
M  V30 7644 C 716.067 -0.830915 -2.64558 0
M  V30 7645 H 719.018 -0.900431 -1.30683 0
M  V30 7646 H 719.039 0.188954 -3.80031 0
M  V30 7647 H 718.551 -1.61548 -3.5288 0
M  V30 7648 H 716.652 0.848283 -3.62815 0
M  V30 7649 H 716.765 -0.67007 -4.74391 0
M  V30 7650 H 715.129 -0.260155 -2.53368 0
M  V30 7651 H 715.912 -1.89948 -2.85963 0
M  V30 7652 N 718.357 1.51182 -0.445186 0
M  V30 7653 C 719.604 2.02152 0.118645 0
M  V30 7654 C 719.932 1.32888 1.42025 0
M  V30 7655 O 719.187 0.435041 1.90803 0
M  V30 7656 C 719.486 3.55408 0.376797 0
M  V30 7657 C 719.152 4.43008 -0.839945 0
M  V30 7658 C 717.814 4.66669 -1.17361 0
M  V30 7659 C 720.166 4.9435 -1.65127 0
M  V30 7660 C 717.494 5.38919 -2.31913 0
M  V30 7661 C 719.846 5.67857 -2.78786 0
M  V30 7662 C 718.51 5.89779 -3.12597 0
M  V30 7663 H 717.78 0.739727 0.0434152 0
M  V30 7664 H 720.427 1.82055 -0.593984 0
M  V30 7665 H 718.732 3.73879 1.1714 0
M  V30 7666 H 720.429 3.92388 0.826602 0
M  V30 7667 H 717.019 4.24793 -0.569958 0
M  V30 7668 H 721.203 4.75947 -1.4067 0
M  V30 7669 H 716.459 5.54105 -2.58413 0
M  V30 7670 H 720.633 6.06628 -3.42017 0
M  V30 7671 H 718.26 6.45542 -4.01471 0
M  V30 7672 N 719.835 0.176821 1.56605 0
M  V30 7673 C 720.745 -0.763682 2.21822 0
M  V30 7674 C 721.761 -1.24889 1.21156 0
M  V30 7675 O 722.937 -1.29987 1.53836 0
M  V30 7676 C 720.002 -1.97352 2.8505 0
M  V30 7677 C 719.063 -1.53466 4.00932 0
M  V30 7678 C 718.296 -2.68682 4.61135 0
M  V30 7679 O 718.519 -3.85694 4.20234 0
M  V30 7680 O 717.453 -2.42442 5.50913 0
M  V30 7681 H 721.279 -0.238363 3.02763 0
M  V30 7682 H 718.864 -0.0516331 1.49311 0
M  V30 7683 H 720.746 -2.68096 3.25119 0
M  V30 7684 H 719.421 -2.48779 2.07101 0
M  V30 7685 H 718.328 -0.796551 3.65521 0
M  V30 7686 H 719.661 -1.06724 4.8049 0
M  V30 7687 N 721.313 -1.57302 -0.09688 0
M  V30 7688 C 722.26 -2.01933 -1.11766 0
M  V30 7689 C 723.23 -0.895329 -1.39904 0
M  V30 7690 O 724.415 -1.16119 -1.51397 0
M  V30 7691 C 721.555 -2.44726 -2.43317 0
M  V30 7692 C 720.668 -3.70639 -2.21925 0
M  V30 7693 C 719.803 -4.02318 -3.46862 0
M  V30 7694 C 718.842 -5.21346 -3.20725 0
M  V30 7695 N 717.979 -5.48787 -4.37924 0
M  V30 7696 H 722.819 -2.88919 -0.730075 0
M  V30 7697 H 720.356 -1.42901 -0.348962 0
M  V30 7698 H 722.314 -2.6758 -3.20088 0
M  V30 7699 H 720.944 -1.60753 -2.79926 0
M  V30 7700 H 719.996 -3.55271 -1.35965 0
M  V30 7701 H 721.308 -4.57557 -1.98603 0
M  V30 7702 H 720.462 -4.25939 -4.32042 0
M  V30 7703 H 719.201 -3.13918 -3.73238 0
M  V30 7704 H 718.206 -4.97547 -2.33938 0
M  V30 7705 H 719.431 -6.11343 -2.95697 0
M  V30 7706 H 717.377 -4.63346 -4.64378 0
M  V30 7707 H 717.294 -6.30073 -4.17785 0
M  V30 7708 H 718.562 -5.76943 -5.24173 0
M  V30 7709 N 722.791 0.367657 -1.53252 0
M  V30 7710 C 724.04 1.10782 -1.68554 0
M  V30 7711 C 724.353 1.90523 -0.442765 0
M  V30 7712 O 725.559 2.6729 -0.47629 0
M  V30 7713 C 724.015 2.01863 -2.97959 0
M  V30 7714 C 723.623 1.27443 -4.29491 0
M  V30 7715 C 725.367 2.75883 -3.22628 0
M  V30 7716 C 723.274 2.17414 -5.49987 0
M  V30 7717 H 722.204 0.417272 -0.628013 0
M  V30 7718 H 724.855 0.368971 -1.79752 0
M  V30 7719 H 723.237 2.7947 -2.80558 0
M  V30 7720 H 724.411 0.549138 -4.57516 0
M  V30 7721 H 722.726 0.652935 -4.11249 0
M  V30 7722 H 725.323 3.43421 -4.09837 0
M  V30 7723 H 725.666 3.41138 -2.38601 0
M  V30 7724 H 726.199 2.0536 -3.40693 0
M  V30 7725 H 722.938 1.5674 -6.36485 0
M  V30 7726 H 722.458 2.87799 -5.26243 0
M  V30 7727 H 724.137 2.77019 -5.84696 0
M  V30 7728 N 724.269 1.44576 0.627338 0
M  V30 7729 C 725.494 1.51271 1.41887 0
M  V30 7730 C 725.919 0.139814 1.8758 0
M  V30 7731 O 725.277 -0.871746 1.58966 0
M  V30 7732 C 725.325 2.48529 2.61277 0
M  V30 7733 O 724.429 1.98944 3.61241 0
M  V30 7734 H 723.77 0.510668 0.424399 0
M  V30 7735 H 726.3 1.89746 0.765356 0
M  V30 7736 H 726.31 2.66689 3.08773 0
M  V30 7737 H 724.985 3.48249 2.27366 0
M  V30 7738 H 723.562 1.90568 3.20528 0
M  V30 7739 N 725.747 -0.868086 1.31537 0
M  V30 7740 C 727.163 -1.15414 1.10235 0
M  V30 7741 C 727.363 -2.01106 -0.125947 0
M  V30 7742 O 726.419 -2.38994 -0.814734 0
M  V30 7743 C 727.732 -1.84445 2.37488 0
M  V30 7744 C 729.28 -1.97139 2.43116 0
M  V30 7745 C 729.755 -2.69585 3.70254 0
M  V30 7746 N 731.246 -2.77119 3.71159 0
M  V30 7747 C 731.981 -3.33791 4.6623 0
M  V30 7748 N 731.477 -3.9138 5.71659 0
M  V30 7749 N 733.27 -3.31767 4.53747 0
M  V30 7750 H 725.421 -0.297109 2.10312 0
M  V30 7751 H 727.684 -0.194227 0.92789 0
M  V30 7752 H 727.39 -1.2893 3.27215 0
M  V30 7753 H 727.264 -2.84709 2.47428 0
M  V30 7754 H 729.651 -2.51818 1.53856 0
M  V30 7755 H 729.732 -0.95912 2.37138 0
M  V30 7756 H 729.376 -2.15572 4.59881 0
M  V30 7757 H 729.306 -3.71223 3.73499 0
M  V30 7758 H 731.797 -2.3625 2.94948 0
M  V30 7759 H 732.11 -4.3274 6.40278 0
M  V30 7760 H 730.455 -3.8975 5.7543 0
M  V30 7761 H 733.646 -2.86016 3.70557 0
M  V30 7762 H 733.819 -3.75636 5.28017 0
M  V30 7763 N 727.225 -1.14528 -1.08264 0
M  V30 7764 C 728.135 -0.84728 -2.18765 0
M  V30 7765 C 729.151 0.172826 -1.7314 0
M  V30 7766 O 730.327 0.000985336 -2.014 0
M  V30 7767 C 727.392 -0.330633 -3.4512 0
M  V30 7768 C 726.453 -1.41348 -4.05363 0
M  V30 7769 C 725.686 -0.921387 -5.25686 0
M  V30 7770 O 725.909 0.236587 -5.69909 0
M  V30 7771 O 724.843 -1.70101 -5.77364 0
M  V30 7772 H 728.669 -1.7708 -2.46731 0
M  V30 7773 H 726.254 -0.923661 -1.17426 0
M  V30 7774 H 728.136 -0.0485053 -4.21372 0
M  V30 7775 H 726.811 0.565147 -3.18728 0
M  V30 7776 H 725.718 -1.74908 -3.30693 0
M  V30 7777 H 727.051 -2.28383 -4.36007 0
M  V30 7778 N 728.703 1.26451 -0.940633 0
M  V30 7779 C 729.666 2.24651 -0.454378 0
M  V30 7780 C 730.666 1.54826 0.434222 0
M  V30 7781 O 731.856 1.72628 0.233477 0
M  V30 7782 C 728.988 3.39148 0.345192 0
M  V30 7783 H 730.181 2.69182 -1.32217 0
M  V30 7784 H 727.734 1.38596 -0.722547 0
M  V30 7785 H 728.469 3.00018 1.23125 0
M  V30 7786 H 728.254 3.9101 -0.292107 0
M  V30 7787 H 729.744 4.12103 0.675341 0
M  V30 7788 N 730.181 0.707592 1.40822 0
M  V30 7789 C 731.592 0.317011 1.83989 0
M  V30 7790 C 731.943 -1.14697 1.59182 0
M  V30 7791 O 731.068 -1.8818 1.06852 0
M  V30 7792 C 731.663 0.568593 3.33995 0
M  V30 7793 C 730.222 0.231804 3.75686 0
M  V30 7794 C 729.369 0.844933 2.64114 0
M  V30 7795 H 732.32 0.907349 1.30203 0
M  V30 7796 H 732.341 -0.168798 3.80125 0
M  V30 7797 H 731.853 1.63417 3.52018 0
M  V30 7798 H 729.954 -0.82903 3.6326 0
M  V30 7799 H 730.067 0.695219 4.74029 0
M  V30 7800 H 728.431 0.273588 2.53226 0
M  V30 7801 H 729.214 1.91462 2.84951 0
M  V30 7802 N 731.66 -1.50943 0.453197 0
M  V30 7803 C 732.89 -2.06328 -0.105981 0
M  V30 7804 C 733.298 -1.31909 -1.35634 0
M  V30 7805 O 732.641 -0.376607 -1.79798 0
M  V30 7806 C 732.703 -3.5631 -0.477868 0
M  V30 7807 C 732.367 -4.52093 0.667925 0
M  V30 7808 C 733.364 -4.96421 1.54475 0
M  V30 7809 C 731.049 -4.95001 0.853168 0
M  V30 7810 C 733.043 -5.82346 2.59138 0
M  V30 7811 C 730.73 -5.80713 1.90305 0
M  V30 7812 C 731.728 -6.24284 2.77053 0
M  V30 7813 O 731.416 -7.08291 3.80236 0
M  V30 7814 H 731.148 -0.675986 -0.00427247 0
M  V30 7815 H 733.702 -1.95314 0.635738 0
M  V30 7816 H 731.932 -3.65163 -1.27252 0
M  V30 7817 H 733.621 -3.94138 -0.970039 0
M  V30 7818 H 734.387 -4.63953 1.41324 0
M  V30 7819 H 730.266 -4.60619 0.187482 0
M  V30 7820 H 733.81 -6.16276 3.2688 0
M  V30 7821 H 729.707 -6.12593 2.03469 0
M  V30 7822 H 730.475 -7.26504 3.77007 0
M  V30 7823 N 733.138 -0.185124 -1.56509 0
M  V30 7824 C 734.088 0.752315 -2.15231 0
M  V30 7825 C 735.072 1.18327 -1.0903 0
M  V30 7826 O 736.264 1.14333 -1.35119 0
M  V30 7827 C 733.393 1.97583 -2.80742 0
M  V30 7828 C 732.479 1.56623 -3.94119 0
M  V30 7829 N 732.87 0.867008 -4.98314 0
M  V30 7830 C 731.168 1.85626 -4.05535 0
M  V30 7831 C 731.869 0.663228 -5.77907 0
M  V30 7832 N 730.845 1.20891 -5.29987 0
M  V30 7833 H 734.647 0.209267 -2.93154 0
M  V30 7834 H 732.161 0.0150444 -1.62393 0
M  V30 7835 H 734.158 2.65779 -3.21197 0
M  V30 7836 H 732.818 2.52369 -2.04303 0
M  V30 7837 H 733.829 0.52355 -5.15247 0
M  V30 7838 H 730.506 2.41992 -3.40215 0
M  V30 7839 H 731.896 0.109273 -6.71811 0
M  V30 7840 N 734.616 1.57351 0.0885366 0
M  V30 7841 C 735.863 1.86419 0.790824 0
M  V30 7842 C 736.191 0.774561 1.78412 0
M  V30 7843 O 735.446 -0.23119 1.9433 0
M  V30 7844 C 735.745 3.22098 1.5488 0
M  V30 7845 C 735.411 4.4548 0.697025 0
M  V30 7846 C 734.073 4.78975 0.462237 0
M  V30 7847 C 736.425 5.21094 0.105315 0
M  V30 7848 C 733.753 5.85507 -0.374016 0
M  V30 7849 C 736.105 6.28509 -0.718298 0
M  V30 7850 C 734.769 6.60515 -0.963116 0
M  V30 7851 H 734.039 0.682157 0.289383 0
M  V30 7852 H 736.686 1.91429 0.0520961 0
M  V30 7853 H 734.991 3.12803 2.35927 0
M  V30 7854 H 736.688 3.41819 2.09669 0
M  V30 7855 H 733.278 4.19255 0.890137 0
M  V30 7856 H 737.462 4.95544 0.273856 0
M  V30 7857 H 732.718 6.08713 -0.572606 0
M  V30 7858 H 736.892 6.86268 -1.18362 0
M  V30 7859 H 734.519 7.42893 -1.6129 0
M  V30 7860 N 736.094 -0.359525 1.53444 0
M  V30 7861 C 737.343 -1.09886 1.69139 0
M  V30 7862 C 737.656 -1.90285 0.452863 0
M  V30 7863 O 738.862 -2.67033 0.490459 0
M  V30 7864 C 737.318 -2.0028 2.99025 0
M  V30 7865 C 736.926 -1.25164 4.30161 0
M  V30 7866 C 738.67 -2.74168 3.24086 0
M  V30 7867 C 736.577 -2.14494 5.51132 0
M  V30 7868 H 735.507 -0.413936 0.630217 0
M  V30 7869 H 738.158 -0.359434 1.79945 0
M  V30 7870 H 736.54 -2.77978 2.82036 0
M  V30 7871 H 737.714 -0.524867 4.57801 0
M  V30 7872 H 736.029 -0.631116 4.11589 0
M  V30 7873 H 738.626 -3.41243 4.11652 0
M  V30 7874 H 738.969 -3.39868 2.40407 0
M  V30 7875 H 739.502 -2.0355 3.41778 0
M  V30 7876 H 736.241 -1.53362 6.37307 0
M  V30 7877 H 735.761 -2.85004 5.27762 0
M  V30 7878 H 737.44 -2.73914 5.86157 0
M  V30 7879 N 737.572 -1.44907 -0.619662 0
M  V30 7880 C 738.535 -1.52282 -1.71297 0
M  V30 7881 C 739.535 -0.40359 -1.55653 0
M  V30 7882 O 740.725 -0.666638 -1.6094 0
M  V30 7883 C 737.857 -1.40778 -3.10474 0
M  V30 7884 H 739.05 -2.49683 -1.66128 0
M  V30 7885 H 736.603 -1.32168 -0.834339 0
M  V30 7886 H 737.338 -0.445156 -3.2123 0
M  V30 7887 H 737.123 -2.21947 -3.23237 0
M  V30 7888 H 738.613 -1.48946 -3.90135 0
M  V30 7889 N 739.05 0.861098 -1.31996 0
M  V30 7890 C 740.278 1.6474 -1.25173 0
M  V30 7891 C 740.693 1.87926 0.181425 0
M  V30 7892 O 740.05 1.4437 1.1164 0
M  V30 7893 C 740.101 3.01036 -2.0015 0
M  V30 7894 O 739.822 2.7888 -3.37872 0
M  V30 7895 C 741.323 3.95481 -2.00273 0
M  V30 7896 H 738.543 0.513314 -0.432146 0
M  V30 7897 H 741.087 1.07419 -1.74016 0
M  V30 7898 H 739.242 3.55021 -1.55046 0
M  V30 7899 H 739.656 3.65514 -3.76165 0
M  V30 7900 H 741.13 4.88403 -2.57229 0
M  V30 7901 H 741.607 4.27957 -0.987407 0
M  V30 7902 H 742.213 3.47433 -2.45296 0
M  V30 7903 N 740.528 1.15101 1.07655 0
M  V30 7904 C 741.776 0.922149 1.79836 0
M  V30 7905 C 742.097 -0.552346 1.87014 0
M  V30 7906 O 741.367 -1.40145 1.3688 0
M  V30 7907 H 739.947 0.338182 0.666064 0
M  V30 7908 H 742.609 1.45107 1.30115 0
M  V30 7909 H 741.705 1.32883 2.82398 0
M  V30 7910 N 742.006 -1.2595 0.947325 0
M  V30 7911 C 743.254 -1.93081 0.596996 0
M  V30 7912 C 743.575 -1.74632 -0.867672 0
M  V30 7913 O 742.845 -1.1056 -1.6172 0
M  V30 7914 H 741.425 -0.714542 0.217805 0
M  V30 7915 H 744.087 -1.53265 1.20398 0
M  V30 7916 H 743.183 -3.01134 0.82004 0
M  V30 7917 N 743.484 -0.715051 -1.40445 0
M  V30 7918 C 744.434 -0.038591 -2.27967 0
M  V30 7919 C 745.418 0.733099 -1.43229 0
M  V30 7920 O 746.61 0.605388 -1.66325 0
M  V30 7921 C 743.739 0.882801 -3.31755 0
M  V30 7922 C 742.825 0.106325 -4.23967 0
M  V30 7923 N 743.216 -0.910143 -4.97544 0
M  V30 7924 C 741.514 0.33896 -4.4471 0
M  V30 7925 C 742.215 -1.37665 -5.65175 0
M  V30 7926 N 741.191 -0.698905 -5.39088 0
M  V30 7927 H 744.993 -0.81765 -2.82297 0
M  V30 7928 H 742.507 -0.547591 -1.5289 0
M  V30 7929 H 744.504 1.38273 -3.93302 0
M  V30 7930 H 743.164 1.66124 -2.78985 0
M  V30 7931 H 744.175 -1.29097 -5.01552 0
M  V30 7932 H 740.852 1.09377 -4.02918 0
M  V30 7933 H 742.242 -2.22122 -6.34123 0
M  V30 7934 N 744.962 1.50701 -0.461195 0
M  V30 7935 C 746.211 2.01458 0.0988277 0
M  V30 7936 C 746.524 1.34863 1.41673 0
M  V30 7937 O 747.73 1.76721 2.06111 0
M  V30 7938 C 746.186 3.59186 0.226648 0
M  V30 7939 C 745.794 4.34732 -1.08223 0
M  V30 7940 C 747.538 4.18015 0.73916 0
M  V30 7941 C 745.445 5.8422 -0.918747 0
M  V30 7942 H 744.375 0.7529 0.040709 0
M  V30 7943 H 747.026 1.736 -0.594589 0
M  V30 7944 H 745.408 3.83589 0.983621 0
M  V30 7945 H 746.582 4.22059 -1.84939 0
M  V30 7946 H 744.897 3.87466 -1.52509 0
M  V30 7947 H 747.494 5.27436 0.878347 0
M  V30 7948 H 747.837 3.78746 1.72793 0
M  V30 7949 H 748.37 3.9778 0.0398469 0
M  V30 7950 H 745.109 6.27944 -1.88059 0
M  V30 7951 H 744.629 5.99493 -0.191801 0
M  V30 7952 H 746.308 6.44382 -0.581405 0
M  V30 7953 N 746.441 0.193421 1.56409 0
M  V30 7954 C 747.666 -0.454552 2.02358 0
M  V30 7955 C 748.091 -1.54516 1.07268 0
M  V30 7956 O 747.449 -1.81214 0.0558962 0
M  V30 7957 C 747.497 -0.989469 3.46759 0
M  V30 7958 O 746.601 -2.10244 3.54783 0
M  V30 7959 H 745.942 -0.106417 0.655417 0
M  V30 7960 H 748.472 0.303807 2.02332 0
M  V30 7961 H 748.482 -1.30649 3.86516 0
M  V30 7962 H 747.157 -0.191083 4.15461 0
M  V30 7963 H 745.734 -1.79419 3.26899 0
M  V30 7964 N 747.919 -1.57396 -0.0801906 0
M  V30 7965 C 749.149 -1.90778 -0.792924 0
M  V30 7966 C 749.557 -0.786814 -1.72064 0
M  V30 7967 O 748.9 0.249259 -1.82001 0
M  V30 7968 C 748.962 -3.19552 -1.64702 0
M  V30 7969 C 748.626 -4.48259 -0.889567 0
M  V30 7970 C 749.623 -5.19465 -0.212602 0
M  V30 7971 C 747.308 -4.94896 -0.859229 0
M  V30 7972 C 749.302 -6.35555 0.484566 0
M  V30 7973 C 746.989 -6.10895 -0.158284 0
M  V30 7974 C 747.987 -6.81075 0.512421 0
M  V30 7975 O 747.675 -7.94862 1.20209 0
M  V30 7976 H 747.407 -0.63527 -0.231103 0
M  V30 7977 H 749.961 -2.0532 -0.0573081 0
M  V30 7978 H 748.191 -3.01196 -2.42524 0
M  V30 7979 H 749.88 -3.38649 -2.23767 0
M  V30 7980 H 750.646 -4.84467 -0.227403 0
M  V30 7981 H 746.525 -4.4015 -1.37073 0
M  V30 7982 H 750.069 -6.9027 1.00864 0
M  V30 7983 H 745.966 -6.45345 -0.141381 0
M  V30 7984 H 746.734 -8.10932 1.11051 0
M  V30 7985 N 749.397 0.351382 -1.53633 0
M  V30 7986 C 750.643 1.09411 -1.70754 0
M  V30 7987 C 750.976 1.88544 -0.465293 0
M  V30 7988 O 750.251 1.86923 0.537608 0
M  V30 7989 C 750.534 2.04173 -2.96623 0
M  V30 7990 C 750.387 1.28556 -4.31038 0
M  V30 7991 C 751.706 3.04102 -3.18136 0
M  V30 7992 H 748.825 0.396373 -0.621335 0
M  V30 7993 H 751.467 0.373464 -1.86293 0
M  V30 7994 H 749.617 2.65625 -2.83506 0
M  V30 7995 H 751.289 0.697786 -4.55992 0
M  V30 7996 H 749.532 0.587498 -4.29803 0
M  V30 7997 H 750.203 1.97989 -5.15271 0
M  V30 7998 H 752.679 2.5276 -3.30532 0
M  V30 7999 H 751.555 3.67616 -4.07615 0
M  V30 8000 H 751.816 3.75053 -2.34068 0
M  V30 8001 N 750.875 1.45233 0.611969 0
M  V30 8002 C 751.785 1.56098 1.7513 0
M  V30 8003 C 752.801 0.445646 1.68196 0
M  V30 8004 O 753.977 0.705718 1.88631 0
M  V30 8005 C 751.042 1.52052 3.11579 0
M  V30 8006 C 750.103 2.74589 3.29999 0
M  V30 8007 C 749.336 2.70726 4.59938 0
M  V30 8008 O 749.559 1.77806 5.41979 0
M  V30 8009 O 748.493 3.61864 4.80976 0
M  V30 8010 H 752.319 2.52392 1.68914 0
M  V30 8011 H 749.904 1.27695 0.775528 0
M  V30 8012 H 751.786 1.52387 3.92882 0
M  V30 8013 H 750.461 0.589085 3.18295 0
M  V30 8014 H 749.368 2.79817 2.48301 0
M  V30 8015 H 750.701 3.66843 3.28157 0
M  V30 8016 N 752.353 -0.854086 1.3245 0
M  V30 8017 C 753.283 -1.97827 1.24044 0
M  V30 8018 C 754.264 -1.69646 0.124166 0
M  V30 8019 O 755.449 -1.91687 0.31143 0
M  V30 8020 C 752.579 -3.33673 0.963324 0
M  V30 8021 C 751.533 -3.76207 2.04089 0
M  V30 8022 C 750.859 -5.0969 1.61618 0
M  V30 8023 C 752.159 -3.91612 3.45597 0
M  V30 8024 H 753.853 -2.05118 2.18099 0
M  V30 8025 H 751.399 -0.985489 1.04996 0
M  V30 8026 H 753.352 -4.11871 0.891061 0
M  V30 8027 H 752.076 -3.26597 -0.0128649 0
M  V30 8028 H 750.735 -3.0026 2.10332 0
M  V30 8029 H 750.383 -4.99072 0.627418 0
M  V30 8030 H 750.083 -5.3912 2.33717 0
M  V30 8031 H 751.607 -5.90381 1.55829 0
M  V30 8032 H 753.021 -4.60163 3.4194 0
M  V30 8033 H 751.418 -4.3246 4.16051 0
M  V30 8034 H 752.488 -2.9451 3.85217 0
M  V30 8035 N 753.831 -1.1567 -1.07043 0
M  V30 8036 C 755.242 -0.942408 -1.61169 0
M  V30 8037 C 755.593 0.515537 -1.89306 0
M  V30 8038 O 754.718 1.38726 -1.66084 0
M  V30 8039 C 755.313 -1.70431 -2.92812 0
M  V30 8040 C 753.872 -1.53521 -3.43669 0
M  V30 8041 C 753.019 -1.7179 -2.17678 0
M  V30 8042 H 755.97 -1.3065 -0.9009 0
M  V30 8043 H 755.991 -1.17566 -3.61882 0
M  V30 8044 H 755.503 -2.76538 -2.72302 0
M  V30 8045 H 753.604 -0.498224 -3.69254 0
M  V30 8046 H 753.717 -2.31422 -4.19501 0
M  V30 8047 H 752.081 -1.14468 -2.27529 0
M  V30 8048 H 752.864 -2.79269 -1.99659 0
M  V30 8049 N 755.309 1.25446 -0.953992 0
M  V30 8050 C 756.586 1.884 -0.525823 0
M  V30 8051 C 756.966 1.86079 0.996891 0
M  V30 8052 O 756.314 1.32389 1.8624 0
M  V30 8053 C 756.524 3.31154 -1.10172 0
M  V30 8054 C 757.872 4.07926 -1.17819 0
M  V30 8055 O 758.896 3.40273 -1.05323 0
M  V30 8056 O 757.755 5.28942 -1.37415 0
M  V30 8057 H 754.849 0.808629 -0.173345 0
M  V30 8058 H 757.395 1.33522 -1.04738 0
M  V30 8059 H 756.167 3.27271 -2.14499 0
M  V30 8060 H 755.79 3.93588 -0.56338 0
M  V30 8061 N 756.787 0.722489 1.40064 0
M  V30 8062 C 757.72 0.0233443 2.28188 0
M  V30 8063 C 758.698 -0.7606 1.43714 0
M  V30 8064 O 759.882 -0.745791 1.73119 0
M  V30 8065 C 757.009 -0.974264 3.24385 0
M  V30 8066 C 756.055 -0.280307 4.25578 0
M  V30 8067 S 756.888 0.996769 5.26141 0
M  V30 8068 C 758.044 0.00143923 6.259 0
M  V30 8069 H 758.277 0.770705 2.87137 0
M  V30 8070 H 755.81 0.513783 1.45601 0
M  V30 8071 H 757.768 -1.5446 3.80332 0
M  V30 8072 H 756.429 -1.69438 2.6448 0
M  V30 8073 H 755.622 -1.03471 4.93264 0
M  V30 8074 H 755.224 0.217657 3.73366 0
M  V30 8075 H 757.516 -0.843126 6.72233 0
M  V30 8076 H 758.459 0.645104 7.05155 0
M  V30 8077 H 758.867 -0.365371 5.63316 0
M  V30 8078 N 758.265 -1.50454 0.469181 0
M  V30 8079 C 759.212 -2.28486 -0.325982 0
M  V30 8080 C 760.182 -1.33455 -0.988893 0
M  V30 8081 O 761.367 -1.6239 -1.0017 0
M  V30 8082 C 758.507 -3.15288 -1.40313 0
M  V30 8083 C 757.62 -4.25348 -0.755183 0
M  V30 8084 C 756.755 -4.9941 -1.81006 0
M  V30 8085 C 755.794 -6.01348 -1.14226 0
M  V30 8086 N 754.931 -6.68695 -2.1399 0
M  V30 8087 H 759.771 -2.95987 0.345753 0
M  V30 8088 H 757.308 -1.45965 0.182355 0
M  V30 8089 H 759.266 -3.63964 -2.03927 0
M  V30 8090 H 757.896 -2.49837 -2.04405 0
M  V30 8091 H 756.948 -3.80399 -0.00651901 0
M  V30 8092 H 758.26 -4.98279 -0.227941 0
M  V30 8093 H 757.414 -5.51794 -2.52206 0
M  V30 8094 H 756.153 -4.26181 -2.3711 0
M  V30 8095 H 755.158 -5.48225 -0.415876 0
M  V30 8096 H 756.383 -6.76548 -0.588135 0
M  V30 8097 H 754.329 -5.98258 -2.69115 0
M  V30 8098 H 754.246 -7.37495 -1.66246 0
M  V30 8099 H 755.514 -7.25697 -2.84576 0
M  V30 8100 N 759.743 -0.201713 -1.56304 0
M  V30 8101 C 760.691 0.733133 -2.20744 0
M  V30 8102 C 761.685 1.2148 -1.18064 0
M  V30 8103 O 762.891 1.17692 -1.36193 0
M  V30 8104 H 759.266 0.254789 -0.707521 0
M  V30 8105 H 761.237 0.165996 -2.97938 0
M  V30 8106 C 759.986 1.93925 -2.88597 0
M  V30 8107 H 759.309 1.5777 -3.67353 0
M  V30 8108 H 760.749 2.57158 -3.37114 0
M  V30 8109 C 759.208 2.78219 -1.89989 0
M  V30 8110 O 759.738 3.76353 -1.40432 0
M  V30 8111 N 757.944 2.43847 -1.58072 0
M  V30 8112 H 757.491 1.64103 -1.98565 0
M  V30 8113 H 757.449 3.0053 -0.923524 0
M  V30 8114 N 761.222 1.57436 0.0718424 0
M  V30 8115 C 762.17 2.04725 1.10411 0
M  V30 8116 C 763.164 0.952579 1.4008 0
M  V30 8117 O 764.37 1.13769 1.39487 0
M  V30 8118 H 760.745 0.652749 0.373393 0
M  V30 8119 H 762.716 2.90569 0.679126 0
M  V30 8120 C 761.465 2.5068 2.40946 0
M  V30 8121 H 760.788 3.34505 2.18967 0
M  V30 8122 H 762.228 2.87521 3.11621 0
M  V30 8123 C 760.687 1.38971 3.06902 0
M  V30 8124 O 761.217 0.731786 3.94978 0
M  V30 8125 N 759.423 1.13485 2.67525 0
M  V30 8126 H 758.97 1.67168 1.95991 0
M  V30 8127 H 758.928 0.389467 3.11978 0
M  V30 8128 N 762.7 -0.34323 1.53817 0
M  V30 8129 C 763.63 -1.42709 1.84814 0
M  V30 8130 C 764.611 -1.5488 0.703297 0
M  V30 8131 O 765.796 -1.69082 0.955237 0
M  V30 8132 C 762.926 -2.79756 2.05801 0
M  V30 8133 C 761.88 -2.82392 3.21619 0
M  V30 8134 C 761.206 -4.22326 3.2794 0
M  V30 8135 C 762.506 -2.479 4.59721 0
M  V30 8136 H 764.2 -1.17018 2.75585 0
M  V30 8137 H 761.746 -0.561485 1.32602 0
M  V30 8138 H 763.699 -3.55627 2.26069 0
M  V30 8139 H 762.423 -3.06883 1.11761 0
M  V30 8140 H 761.082 -2.08974 3.01207 0
M  V30 8141 H 760.73 -4.46564 2.31494 0
M  V30 8142 H 760.43 -4.25001 4.05768 0
M  V30 8143 H 761.954 -5.00039 3.50419 0
M  V30 8144 H 763.368 -3.13484 4.80001 0
M  V30 8145 H 761.765 -2.61857 5.39954 0
M  V30 8146 H 762.835 -1.43087 4.63308 0
M  V30 8147 N 764.178 -1.45556 -0.604258 0
M  V30 8148 C 765.125 -1.54482 -1.71476 0
M  V30 8149 C 766.095 -0.390479 -1.61445 0
M  V30 8150 O 767.28 -0.604371 -1.80975 0
M  V30 8151 C 764.42 -1.52064 -3.09791 0
M  V30 8152 C 763.533 -2.78073 -3.30604 0
M  V30 8153 C 762.668 -2.67304 -4.59044 0
M  V30 8154 C 761.707 -3.88352 -4.73127 0
M  V30 8155 N 760.844 -3.76098 -5.9287 0
M  V30 8156 H 765.684 -2.49349 -1.63184 0
M  V30 8157 H 763.221 -1.23725 -0.795641 0
M  V30 8158 H 765.179 -1.48649 -3.89819 0
M  V30 8159 H 763.809 -0.607442 -3.17033 0
M  V30 8160 H 762.861 -2.91561 -2.44329 0
M  V30 8161 H 764.173 -3.67847 -3.36883 0
M  V30 8162 H 763.327 -2.61875 -5.47272 0
M  V30 8163 H 762.066 -1.75135 -4.55169 0
M  V30 8164 H 761.071 -3.94137 -3.83322 0
M  V30 8165 H 762.296 -4.81591 -4.78797 0
M  V30 8166 H 760.242 -2.867 -5.90033 0
M  V30 8167 H 760.159 -4.59509 -6.00323 0
M  V30 8168 H 761.427 -3.74607 -6.83586 0
M  V30 8169 N 765.656 0.84705 -1.32902 0
M  V30 8170 C 766.904 1.5986 -1.2365 0
M  V30 8171 C 767.225 1.93974 0.199789 0
M  V30 8172 O 766.495 1.60273 1.12648 0
M  V30 8173 H 765.075 0.592696 -0.454665 0
M  V30 8174 H 767.737 1.01278 -1.66519 0
M  V30 8175 H 766.833 2.53218 -1.82448 0
M  V30 8176 N 767.134 1.16236 1.06428 0
M  V30 8177 C 768.064 0.890807 2.1584 0
M  V30 8178 C 769.045 -0.162333 1.69324 0
M  V30 8179 O 770.23 -0.0147191 1.94194 0
M  V30 8180 C 767.36 0.389615 3.45108 0
M  V30 8181 C 766.314 1.38051 4.05125 0
M  V30 8182 C 765.64 0.737773 5.29586 0
M  V30 8183 C 766.94 2.74965 4.44062 0
M  V30 8184 H 768.634 1.80577 2.38814 0
M  V30 8185 H 766.18 0.869657 1.14774 0
M  V30 8186 H 768.133 0.187127 4.20984 0
M  V30 8187 H 766.857 -0.560851 3.21748 0
M  V30 8188 H 765.516 1.56952 3.31303 0
M  V30 8189 H 765.164 -0.219135 5.02522 0
M  V30 8190 H 764.864 1.39914 5.70699 0
M  V30 8191 H 766.388 0.545275 6.0816 0
M  V30 8192 H 767.802 2.59855 5.11027 0
M  V30 8193 H 766.199 3.37563 4.96156 0
M  V30 8194 H 767.269 3.30321 3.54987 0
M  V30 8195 N 768.612 -1.24939 0.960631 0
M  V30 8196 C 769.522 -2.29374 0.492435 0
M  V30 8197 C 770.538 -1.68262 -0.443154 0
M  V30 8198 O 771.714 -1.98875 -0.31793 0
M  V30 8199 C 768.779 -3.46023 -0.216626 0
M  V30 8200 C 767.84 -4.22557 0.757915 0
M  V30 8201 C 767.073 -5.33636 0.0825969 0
M  V30 8202 O 767.296 -5.59084 -1.13054 0
M  V30 8203 O 766.23 -5.96939 0.771177 0
M  V30 8204 H 770.056 -2.71525 1.36044 0
M  V30 8205 H 767.641 -1.30499 0.72735 0
M  V30 8206 H 769.523 -4.16885 -0.615241 0
M  V30 8207 H 768.198 -3.05862 -1.05971 0
M  V30 8208 H 767.105 -3.54099 1.20685 0
M  V30 8209 H 768.438 -4.66516 1.5692 0
M  V30 8210 N 770.09 -0.729906 -1.39679 0
M  V30 8211 C 771.053 -0.0951668 -2.29002 0
M  V30 8212 C 772.053 0.672471 -1.46063 0
M  V30 8213 O 773.243 0.502245 -1.66803 0
M  V30 8214 C 770.375 0.874631 -3.29489 0
M  V30 8215 H 771.568 -0.882062 -2.86635 0
M  V30 8216 H 769.121 -0.495424 -1.4824 0
M  V30 8217 H 769.856 1.68807 -2.76902 0
M  V30 8218 H 769.641 0.326893 -3.90735 0
M  V30 8219 H 771.131 1.31548 -3.96339 0
M  V30 8220 N 771.568 1.50203 -0.477153 0
M  V30 8221 C 772.814 2.02658 0.0758507 0
M  V30 8222 C 773.147 1.358 1.38824 0
M  V30 8223 O 772.422 0.485696 1.88338 0
M  V30 8224 C 772.705 3.59208 0.253339 0
M  V30 8225 C 772.558 4.36629 -1.0805 0
M  V30 8226 C 773.877 4.28469 1.00509 0
M  V30 8227 H 770.996 0.736538 0.0260921 0
M  V30 8228 H 773.638 1.79464 -0.623925 0
M  V30 8229 H 771.788 3.79101 0.849378 0
M  V30 8230 H 773.46 4.28292 -1.71358 0
M  V30 8231 H 771.703 4.0013 -1.67566 0
M  V30 8232 H 772.374 5.44449 -0.909883 0
M  V30 8233 H 774.85 4.13087 0.499818 0
M  V30 8234 H 773.726 5.37804 1.09808 0
M  V30 8235 H 773.987 3.92057 2.04314 0
M  V30 8236 N 773.046 0.209999 1.56195 0
M  V30 8237 C 774.292 -0.418742 1.99043 0
M  V30 8238 C 774.647 -1.58201 1.095 0
M  V30 8239 O 773.94 -1.91069 0.1425 0
M  V30 8240 C 774.134 -0.91312 3.45539 0
M  V30 8241 C 773.963 0.200706 4.49252 0
M  V30 8242 C 772.733 0.663287 5.00928 0
M  V30 8243 C 774.931 1.01493 5.04186 0
M  V30 8244 N 772.913 1.75338 5.88328 0
M  V30 8245 C 774.284 1.95411 5.884 0
M  V30 8246 C 776.339 1.05567 4.8658 0
M  V30 8247 C 775.042 2.93069 6.56889 0
M  V30 8248 C 777.068 2.02037 5.55819 0
M  V30 8249 C 776.43 2.94697 6.39791 0
M  V30 8250 H 772.529 -0.120226 0.772703 0
M  V30 8251 H 775.113 0.319119 1.92067 0
M  V30 8252 H 773.284 -1.62038 3.52985 0
M  V30 8253 H 775.016 -1.51371 3.75325 0
M  V30 8254 H 771.771 0.253945 4.72919 0
M  V30 8255 H 772.195 2.30007 6.3673 0
M  V30 8256 H 776.837 0.353242 4.21322 0
M  V30 8257 H 774.555 3.6428 7.21336 0
M  V30 8258 H 778.141 2.05849 5.44167 0
M  V30 8259 H 777.021 3.68128 6.92425 0
M  V30 8260 N 774.524 -1.57472 -0.0634922 0
M  V30 8261 C 775.801 -1.78736 -0.794538 0
M  V30 8262 C 776.181 -0.799645 -1.95369 0
M  V30 8263 O 775.529 0.165521 -2.279 0
M  V30 8264 C 775.739 -3.25471 -1.25975 0
M  V30 8265 C 777.087 -3.89528 -1.68976 0
M  V30 8266 O 778.111 -3.29412 -1.35521 0
M  V30 8267 O 776.97 -4.95305 -2.30944 0
M  V30 8268 H 774.064 -0.733813 -0.381376 0
M  V30 8269 H 776.61 -1.69646 -0.0429258 0
M  V30 8270 H 775.382 -3.88922 -0.430721 0
M  V30 8271 H 775.005 -3.39317 -2.07243 0
M  V30 8272 N 776.003 0.335068 -1.53997 0
M  V30 8273 C 777.233 1.0926 -1.75345 0
M  V30 8274 C 777.641 1.82568 -0.496545 0
M  V30 8275 O 776.984 1.75525 0.541897 0
M  V30 8276 C 777.046 2.14473 -2.88516 0
M  V30 8277 C 776.71 1.60665 -4.27827 0
M  V30 8278 C 777.707 1.05448 -5.09094 0
M  V30 8279 C 775.392 1.65255 -4.74337 0
M  V30 8280 C 777.386 0.555372 -6.34976 0
M  V30 8281 C 775.073 1.14956 -6.0019 0
M  V30 8282 C 776.071 0.601907 -6.80343 0
M  V30 8283 O 775.759 0.106445 -8.0383 0
M  V30 8284 H 775.491 0.331329 -0.589234 0
M  V30 8285 H 778.045 0.39042 -2.01655 0
M  V30 8286 H 776.275 2.88274 -2.5775 0
M  V30 8287 H 777.964 2.75857 -2.97755 0
M  V30 8288 H 778.73 1.01218 -4.74321 0
M  V30 8289 H 774.609 2.06822 -4.12002 0
M  V30 8290 H 778.153 0.127245 -6.97484 0
M  V30 8291 H 774.05 1.18891 -6.34457 0
M  V30 8292 H 774.818 0.222944 -8.18196 0
M  V30 8293 N 777.481 1.45874 0.596531 0
M  V30 8294 C 778.444 1.54988 1.68853 0
M  V30 8295 C 779.444 0.428302 1.54991 0
M  V30 8296 O 780.634 0.692158 1.59859 0
M  V30 8297 C 777.766 1.457 3.08195 0
M  V30 8298 H 778.959 2.52294 1.62135 0
M  V30 8299 H 776.512 1.33479 0.813206 0
M  V30 8300 H 777.247 0.496204 3.20481 0
M  V30 8301 H 777.032 2.27061 3.19665 0
M  V30 8302 H 778.522 1.55133 3.87716 0
M  V30 8303 N 778.959 -0.83999 1.33349 0
M  V30 8304 C 779.922 -1.93128 1.23426 0
M  V30 8305 C 780.922 -1.60065 0.153599 0
M  V30 8306 O 782.112 -1.69425 0.405049 0
M  V30 8307 C 779.244 -3.28761 0.901622 0
M  V30 8308 H 780.437 -2.03352 2.20427 0
M  V30 8309 H 777.99 -1.03194 1.17391 0
M  V30 8310 H 778.725 -3.24233 -0.0659337 0
M  V30 8311 H 778.51 -3.54138 1.68311 0
M  V30 8312 H 780 -4.08714 0.856913 0
M  V30 8313 N 780.437 -1.16799 -1.0581 0
M  V30 8314 C 781.369 -0.836774 -2.13379 0
M  V30 8315 C 782.382 0.158116 -1.6203 0
M  V30 8316 O 783.571 -0.0673211 -1.78373 0
M  V30 8317 C 780.671 -0.225959 -3.38146 0
M  V30 8318 C 779.844 -1.26217 -4.18794 0
M  V30 8319 C 778.903 -0.670257 -5.21914 0
M  V30 8320 O 777.929 -1.34042 -5.53192 0
M  V30 8321 N 779.131 0.540683 -5.77977 0
M  V30 8322 H 781.896 -1.76257 -2.42391 0
M  V30 8323 H 779.457 -1.06599 -1.21853 0
M  V30 8324 H 781.449 0.18317 -4.04285 0
M  V30 8325 H 780.019 0.603494 -3.06719 0
M  V30 8326 H 779.239 -1.84729 -3.48237 0
M  V30 8327 H 780.527 -1.9613 -4.69479 0
M  V30 8328 H 779.925 1.10322 -5.54838 0
M  V30 8329 H 778.482 0.891958 -6.45668 0
M  V30 8330 N 781.915 1.24427 -0.967243 0
M  V30 8331 C 782.865 2.23143 -0.468106 0
M  V30 8332 C 783.849 1.5449 0.449633 0
M  V30 8333 O 785.041 1.74761 0.28063 0
M  V30 8334 C 782.17 3.42454 0.240867 0
M  V30 8335 C 781.256 4.18355 -0.695674 0
M  V30 8336 N 781.647 4.71428 -1.83273 0
M  V30 8337 C 779.945 4.43116 -0.506365 0
M  V30 8338 C 780.646 5.29041 -2.41849 0
M  V30 8339 N 779.622 5.16213 -1.70369 0
M  V30 8340 H 783.424 2.61795 -1.3357 0
M  V30 8341 H 780.938 1.39809 -0.826277 0
M  V30 8342 H 782.935 4.12329 0.615668 0
M  V30 8343 H 781.595 3.05323 1.10491 0
M  V30 8344 H 782.606 4.68177 -2.21428 0
M  V30 8345 H 779.283 4.16319 0.313747 0
M  V30 8346 H 780.673 5.80811 -3.37799 0
M  V30 8347 N 783.393 0.737304 1.3929 0
M  V30 8348 C 784.323 0.113988 2.33222 0
M  V30 8349 C 785.304 -0.721695 1.54031 0
M  V30 8350 O 786.489 -0.666206 1.82415 0
M  V30 8351 C 783.619 -0.792319 3.38141 0
M  V30 8352 C 782.573 -0.0606178 4.27957 0
M  V30 8353 C 781.899 -1.08409 5.23595 0
M  V30 8354 C 783.199 1.09817 5.10625 0
M  V30 8355 H 784.893 0.898611 2.85596 0
M  V30 8356 H 782.439 0.433571 1.37318 0
M  V30 8357 H 784.392 -1.23793 4.02807 0
M  V30 8358 H 783.116 -1.60908 2.84211 0
M  V30 8359 H 781.775 0.365393 3.64775 0
M  V30 8360 H 781.423 -1.89449 4.6596 0
M  V30 8361 H 781.123 -0.599269 5.84536 0
M  V30 8362 H 782.647 -1.52936 5.91137 0
M  V30 8363 H 784.061 0.730892 5.68622 0
M  V30 8364 H 782.458 1.51278 5.80719 0
M  V30 8365 H 783.528 1.91878 4.45321 0
M  V30 8366 N 784.871 -1.49948 0.485112 0
M  V30 8367 C 786.148 -1.95186 -0.12726 0
M  V30 8368 C 786.528 -1.42605 -1.5565 0
M  V30 8369 O 785.876 -0.632986 -2.19558 0
M  V30 8370 C 786.086 -3.48955 -0.0562117 0
M  V30 8371 C 787.434 -4.23932 -0.238106 0
M  V30 8372 O 788.458 -3.55955 -0.132145 0
M  V30 8373 O 787.317 -5.44614 -0.453658 0
M  V30 8374 H 784.411 -0.820433 -0.104014 0
M  V30 8375 H 786.957 -1.60659 0.546517 0
M  V30 8376 H 785.729 -3.79814 0.941122 0
M  V30 8377 H 785.352 -3.90056 -0.770834 0
M  V30 8378 N 786.349 -0.21828 -1.56081 0
M  V30 8379 C 787.579 0.41865 -2.02314 0
M  V30 8380 C 787.987 1.54124 -1.09739 0
M  V30 8381 O 787.33 1.83435 -0.0986829 0
M  V30 8382 C 787.392 1.01439 -3.44892 0
M  V30 8383 C 787.056 0.0276523 -4.56992 0
M  V30 8384 C 788.053 -0.771526 -5.14143 0
M  V30 8385 C 785.738 -0.0901537 -5.02219 0
M  V30 8386 C 787.732 -1.67525 -6.14991 0
M  V30 8387 C 785.419 -0.997411 -6.02905 0
M  V30 8388 C 786.417 -1.78851 -6.59167 0
M  V30 8389 O 786.105 -2.68052 -7.57894 0
M  V30 8390 H 785.837 0.107066 -0.667468 0
M  V30 8391 H 788.391 -0.331191 -2.02712 0
M  V30 8392 H 786.621 1.81326 -3.41552 0
M  V30 8393 H 788.31 1.55838 -3.74792 0
M  V30 8394 H 789.076 -0.690945 -4.80053 0
M  V30 8395 H 784.955 0.515474 -4.58109 0
M  V30 8396 H 788.499 -2.29316 -6.58832 0
M  V30 8397 H 784.396 -1.07902 -6.36418 0
M  V30 8398 H 785.164 -2.6209 -7.75404 0
M  V30 8399 N 787.827 1.57504 0.0551401 0
M  V30 8400 C 789.074 1.88055 0.751104 0
M  V30 8401 C 789.402 0.812231 1.76729 0
M  V30 8402 O 788.657 -0.189918 1.94776 0
M  V30 8403 C 788.956 3.25311 1.48013 0
M  V30 8404 C 788.622 4.46858 0.602375 0
M  V30 8405 C 787.284 4.79847 0.360536 0
M  V30 8406 C 789.636 5.212 -0.00524047 0
M  V30 8407 C 786.964 5.84582 -0.498127 0
M  V30 8408 C 789.316 6.26844 -0.851453 0
M  V30 8409 C 787.98 6.58324 -1.103 0
M  V30 8410 H 787.25 0.688142 0.274848 0
M  V30 8411 H 789.897 1.91497 0.0114795 0
M  V30 8412 H 788.202 3.17737 2.29239 0
M  V30 8413 H 789.899 3.46189 2.02371 0
M  V30 8414 H 786.489 4.21049 0.801007 0
M  V30 8415 H 790.673 4.96013 0.168682 0
M  V30 8416 H 785.929 6.07361 -0.701594 0
M  V30 8417 H 790.103 6.83603 -1.32893 0
M  V30 8418 H 787.73 7.39304 -1.77011 0
M  V30 8419 N 789.305 -0.326896 1.54172 0
M  V30 8420 C 790.553 -1.06313 1.71878 0
M  V30 8421 C 790.874 -1.88652 0.493498 0
M  V30 8422 O 790.144 -1.89608 -0.492522 0
M  V30 8423 H 788.724 -0.39549 0.633716 0
M  V30 8424 H 791.386 -0.364139 1.91468 0
M  V30 8425 H 790.482 -1.73105 2.59694 0
M  V30 8426 N 790.784 -1.46188 -0.588786 0
M  V30 8427 C 792.03 -1.51407 -1.34921 0
M  V30 8428 C 792.363 -0.162771 -1.93517 0
M  V30 8429 O 791.638 0.825082 -1.76132 0
M  V30 8430 C 791.921 -2.60795 -2.48311 0
M  V30 8431 C 791.774 -4.05435 -1.94789 0
M  V30 8432 C 793.093 -2.66313 -3.50379 0
M  V30 8433 H 790.212 -0.551213 -0.489217 0
M  V30 8434 H 792.854 -1.78095 -0.661993 0
M  V30 8435 H 791.004 -2.3817 -3.06932 0
M  V30 8436 H 792.676 -4.39328 -1.40672 0
M  V30 8437 H 790.919 -4.15202 -1.25659 0
M  V30 8438 H 791.59 -4.77691 -2.76613 0
M  V30 8439 H 794.066 -2.86634 -3.01629 0
M  V30 8440 H 792.942 -3.44681 -4.27184 0
M  V30 8441 H 793.203 -1.72127 -4.07216 0
M  V30 8442 N 792.262 0.832906 -1.33792 0
M  V30 8443 C 793.21 1.96455 -1.24532 0
M  V30 8444 C 794.204 1.68774 -0.145455 0
M  V30 8445 O 795.41 1.77314 -0.309797 0
M  V30 8446 H 791.785 0.645008 -0.386611 0
M  V30 8447 H 793.756 2.01389 -2.20193 0
M  V30 8448 C 792.505 3.32784 -1.00748 0
M  V30 8449 H 791.828 3.54626 -1.84609 0
M  V30 8450 H 793.268 4.12447 -0.98301 0
M  V30 8451 C 791.727 3.35654 0.289475 0
M  V30 8452 O 792.257 3.80281 1.29419 0
M  V30 8453 N 790.463 2.88843 0.3191 0
M  V30 8454 H 790.01 2.52719 -0.499069 0
M  V30 8455 H 789.968 2.91145 1.18667 0
M  V30 8456 N 793.74 1.17359 1.05189 0
M  V30 8457 C 794.673 0.833768 2.12423 0
M  V30 8458 C 795.651 -0.19945 1.61372 0
M  V30 8459 O 796.835 -0.080979 1.88326 0
M  V30 8460 C 793.962 0.243745 3.37822 0
M  V30 8461 C 793.008 1.25235 4.07699 0
M  V30 8462 S 793.841 2.80368 4.56239 0
M  V30 8463 C 794.997 2.22846 5.84885 0
M  V30 8464 H 795.23 1.74197 2.40921 0
M  V30 8465 H 792.763 0.998242 1.1779 0
M  V30 8466 H 794.721 -0.0901915 4.10401 0
M  V30 8467 H 793.382 -0.642396 3.07461 0
M  V30 8468 H 792.575 0.788168 4.97799 0
M  V30 8469 H 792.177 1.53194 3.41185 0
M  V30 8470 H 794.469 1.60403 6.58238 0
M  V30 8471 H 795.412 3.112 6.3605 0
M  V30 8472 H 795.82 1.66296 5.39449 0
M  V30 8473 N 795.218 -1.23913 0.973828 0
M  V30 8474 C 796.629 -1.73992 0.677021 0
M  V30 8475 C 796.98 -1.78833 -0.807036 0
M  V30 8476 O 796.105 -1.42183 -1.63135 0
M  V30 8477 C 796.7 -3.15985 1.22226 0
M  V30 8478 C 795.259 -3.63547 0.975228 0
M  V30 8479 C 794.406 -2.42001 1.35392 0
M  V30 8480 H 797.357 -1.09529 1.14844 0
M  V30 8481 H 797.378 -3.75875 0.591489 0
M  V30 8482 H 796.89 -3.12429 2.30238 0
M  V30 8483 H 794.991 -3.72493 -0.0891047 0
M  V30 8484 H 795.104 -4.50693 1.62518 0
M  V30 8485 H 793.468 -2.42708 0.772334 0
M  V30 8486 H 794.251 -2.41122 2.44367 0
M  V30 8487 N 796.696 -0.74468 -1.38897 0
M  V30 8488 C 797.942 -0.297324 -2.00609 0
M  V30 8489 C 798.275 1.11547 -1.58968 0
M  V30 8490 O 797.55 1.76227 -0.823057 0
M  V30 8491 C 797.833 -0.410125 -3.57757 0
M  V30 8492 C 797.686 -1.86338 -4.09387 0
M  V30 8493 C 799.005 0.20176 -4.39637 0
M  V30 8494 H 796.124 -0.109509 -0.728819 0
M  V30 8495 H 798.766 -0.942653 -1.64967 0
M  V30 8496 H 796.916 0.139287 -3.8825 0
M  V30 8497 H 798.588 -2.47042 -3.89574 0
M  V30 8498 H 796.831 -2.38146 -3.62586 0
M  V30 8499 H 797.502 -1.89352 -5.18507 0
M  V30 8500 H 799.978 -0.266703 -4.15244 0
M  V30 8501 H 798.854 0.0925415 -5.48822 0
M  V30 8502 H 799.115 1.289 -4.22891 0
M  V30 8503 N 798.174 1.49689 -0.493057 0
M  V30 8504 C 799.451 1.9525 0.116907 0
M  V30 8505 C 799.831 1.43429 1.54892 0
M  V30 8506 O 799.179 0.644621 2.19219 0
M  V30 8507 C 799.389 3.4898 0.037705 0
M  V30 8508 C 800.737 4.24052 0.215621 0
M  V30 8509 O 801.761 3.5602 0.113266 0
M  V30 8510 O 800.62 5.44847 0.42477 0
M  V30 8511 H 797.714 0.820973 0.099662 0
M  V30 8512 H 800.26 1.60367 -0.555029 0
M  V30 8513 H 799.032 3.79309 -0.961251 0
M  V30 8514 H 798.655 3.9046 0.750137 0
M  V30 8515 N 799.652 0.226554 1.55963 0
M  V30 8516 C 800.599 -0.681504 2.20509 0
M  V30 8517 C 801.569 -1.1866 1.16229 0
M  V30 8518 O 802.754 -1.24478 1.44602 0
M  V30 8519 C 799.894 -1.88183 2.89277 0
M  V30 8520 C 799.007 -1.41517 4.08163 0
M  V30 8521 C 798.142 -2.57346 4.647 0
M  V30 8522 C 797.181 -2.07441 5.75877 0
M  V30 8523 N 796.318 -3.16561 6.26685 0
M  V30 8524 H 801.158 -0.124372 2.9774 0
M  V30 8525 H 798.695 -0.0496333 1.47016 0
M  V30 8526 H 800.653 -2.58666 3.27335 0
M  V30 8527 H 799.283 -2.41177 2.14555 0
M  V30 8528 H 798.335 -0.605099 3.75557 0
M  V30 8529 H 799.647 -1.00928 4.88482 0
M  V30 8530 H 798.801 -3.35903 5.05227 0
M  V30 8531 H 797.54 -3.01227 3.83554 0
M  V30 8532 H 796.545 -1.27347 5.34848 0
M  V30 8533 H 797.77 -1.64554 6.58862 0
M  V30 8534 H 795.716 -3.59914 5.48451 0
M  V30 8535 H 795.633 -2.80239 7.02141 0
M  V30 8536 H 796.901 -3.95238 6.71868 0
M  V30 8537 N 801.13 -1.57531 -0.0467866 0
M  V30 8538 C 802.37 -1.90294 -0.746171 0
M  V30 8539 C 802.734 -0.823194 -1.73458 0
M  V30 8540 O 803.935 -1.03463 -2.48091 0
M  V30 8541 C 802.206 -3.28249 -1.41378 0
M  V30 8542 S 803.765 -3.82812 -2.14477 0
M  V30 8543 H 800.583 -0.666496 -0.247598 0
M  V30 8544 H 803.185 -1.955 -0.00135143 0
M  V30 8545 H 801.889 -4.04712 -0.680937 0
M  V30 8546 H 801.42 -3.26302 -2.19751 0
M  V30 8547 H 803.435 -3.60111 -3.41372 0
M  V30 8548 N 802.608 0.318715 -1.54344 0
M  V30 8549 C 803.855 1.05608 -1.72781 0
M  V30 8550 C 804.183 1.87854 -0.504083 0
M  V30 8551 O 803.438 1.88826 0.51414 0
M  V30 8552 C 803.737 2.00514 -2.95853 0
M  V30 8553 C 803.403 1.34385 -4.30409 0
M  V30 8554 C 802.065 1.16081 -4.66989 0
M  V30 8555 C 804.417 0.869627 -5.13894 0
M  V30 8556 C 801.745 0.490114 -5.84649 0
M  V30 8557 C 804.097 0.212735 -6.32242 0
M  V30 8558 C 802.761 0.0175882 -6.67498 0
M  V30 8559 H 802.031 0.386449 -0.632249 0
M  V30 8560 H 804.678 0.332729 -1.88587 0
M  V30 8561 H 802.983 2.79317 -2.74753 0
M  V30 8562 H 804.68 2.57605 -3.07312 0
M  V30 8563 H 801.27 1.49634 -4.01631 0
M  V30 8564 H 805.454 0.998809 -4.86146 0
M  V30 8565 H 800.71 0.327767 -6.10521 0
M  V30 8566 H 804.884 -0.162699 -6.9621 0
M  V30 8567 H 802.511 -0.504137 -7.58527 0
M  V30 8568 N 804.086 1.46499 0.581025 0
M  V30 8569 C 805.314 1.5547 1.36517 0
M  V30 8570 C 805.729 0.196407 1.87776 0
M  V30 8571 O 805.086 -0.806577 1.63709 0
M  V30 8572 C 805.137 2.56084 2.55154 0
M  V30 8573 O 804.858 3.86637 2.06018 0
M  V30 8574 C 806.359 2.75011 3.47683 0
M  V30 8575 H 803.579 0.525703 0.416986 0
M  V30 8576 H 806.123 1.9192 0.706177 0
M  V30 8577 H 804.278 2.22633 3.17039 0
M  V30 8578 H 804.692 4.41413 2.83292 0
M  V30 8579 H 806.166 3.49329 4.27403 0
M  V30 8580 H 806.643 1.81978 3.99726 0
M  V30 8581 H 807.249 3.09565 2.91632 0
M  V30 8582 N 805.565 -0.825799 1.34232 0
M  V30 8583 C 806.805 -1.59541 1.27773 0
M  V30 8584 C 807.169 -1.91405 -0.150998 0
M  V30 8585 O 808.37 -2.66644 -0.339728 0
M  V30 8586 C 806.641 -2.86183 2.14089 0
M  V30 8587 S 808.2 -3.76751 2.24953 0
M  V30 8588 H 805.018 -0.546871 0.454371 0
M  V30 8589 H 807.62 -0.975677 1.69413 0
M  V30 8590 H 806.324 -2.60767 3.16905 0
M  V30 8591 H 805.855 -3.53155 1.73335 0
M  V30 8592 H 807.87 -4.75442 1.4202 0
M  V30 8593 N 807.043 -1.17915 -1.04565 0
M  V30 8594 C 808.291 -0.969505 -1.77327 0
M  V30 8595 C 808.612 0.502569 -1.88412 0
M  V30 8596 O 807.882 1.36467 -1.40547 0
M  V30 8597 H 806.462 -0.355723 -0.656864 0
M  V30 8598 H 809.124 -1.48506 -1.26223 0
M  V30 8599 H 808.22 -1.40324 -2.78775 0
M  V30 8600 N 808.521 1.23394 -0.980386 0
M  V30 8601 C 809.746 1.96384 -0.666935 0
M  V30 8602 C 810.171 1.72087 0.759456 0
M  V30 8603 O 809.529 0.992328 1.51732 0
M  V30 8604 C 809.577 3.47499 -0.963177 0
M  V30 8605 O 808.681 4.12363 -0.0552051 0
M  V30 8606 H 808.022 0.614797 -0.250839 0
M  V30 8607 H 810.552 1.56831 -1.31398 0
M  V30 8608 H 810.562 3.97953 -0.899877 0
M  V30 8609 H 809.237 3.6451 -2.00264 0
M  V30 8610 H 807.814 3.72499 -0.172914 0
M  V30 8611 N 809.999 0.752036 1.385 0
M  V30 8612 C 811.227 0.318274 2.04437 0
M  V30 8613 C 811.642 -1.05285 1.56718 0
M  V30 8614 O 810.999 -1.66844 0.73956 0
M  V30 8615 C 811.05 0.330106 3.5999 0
M  V30 8616 O 810.771 1.64712 4.05957 0
M  V30 8617 C 812.272 -0.117713 4.43144 0
M  V30 8618 H 809.492 0.136228 0.657026 0
M  V30 8619 H 812.036 1.02045 1.7722 0
M  V30 8620 H 810.191 -0.323323 3.86048 0
M  V30 8621 H 810.605 1.57225 5.0038 0
M  V30 8622 H 812.079 -0.0582735 5.51969 0
M  V30 8623 H 812.556 -1.16538 4.23457 0
M  V30 8624 H 813.162 0.506784 4.2227 0
M  V30 8625 N 811.477 -1.49425 0.500989 0
M  V30 8626 C 812.427 -2.26061 -0.296698 0
M  V30 8627 C 813.411 -1.30906 -0.935541 0
M  V30 8628 O 814.603 -1.55628 -0.843142 0
M  V30 8629 C 811.732 -3.15189 -1.36055 0
M  V30 8630 C 810.818 -4.17806 -0.727952 0
M  V30 8631 N 811.209 -5.05516 0.169408 0
M  V30 8632 C 809.507 -4.34907 -0.988535 0
M  V30 8633 C 810.208 -5.79267 0.531509 0
M  V30 8634 N 809.184 -5.43507 -0.100564 0
M  V30 8635 H 812.986 -2.91246 0.394103 0
M  V30 8636 H 810.5 -1.59275 0.317065 0
M  V30 8637 H 812.497 -3.68724 -1.94547 0
M  V30 8638 H 811.157 -2.51556 -2.05303 0
M  V30 8639 H 812.168 -5.15075 0.540218 0
M  V30 8640 H 808.845 -3.82481 -1.67376 0
M  V30 8641 H 810.235 -6.59872 1.26564 0
M  V30 8642 N 812.955 -0.234822 -1.55841 0
M  V30 8643 C 813.865 0.680828 -2.24504 0
M  V30 8644 C 814.881 1.20306 -1.25708 0
M  V30 8645 O 816.057 1.24188 -1.58554 0
M  V30 8646 C 813.122 1.86636 -2.92178 0
M  V30 8647 C 812.183 1.3848 -4.06352 0
M  V30 8648 C 811.416 2.51382 -4.70789 0
M  V30 8649 O 811.639 3.69831 -4.34259 0
M  V30 8650 O 810.573 2.21828 -5.59532 0
M  V30 8651 H 814.399 0.12583 -3.03439 0
M  V30 8652 H 811.984 -0.00381817 -1.494 0
M  V30 8653 H 813.866 2.55845 -3.34845 0
M  V30 8654 H 812.541 2.40921 -2.16192 0
M  V30 8655 H 811.448 0.660341 -3.68226 0
M  V30 8656 H 812.781 0.888177 -4.8412 0
M  V30 8657 N 814.433 1.57553 0.0384317 0
M  V30 8658 C 815.366 2.01307 1.07475 0
M  V30 8659 C 816.344 0.895717 1.35704 0
M  V30 8660 O 817.528 1.16079 1.48519 0
M  V30 8661 C 814.655 2.37817 2.41165 0
M  V30 8662 C 813.701 3.599 2.28855 0
M  V30 8663 S 814.534 5.09418 1.65086 0
M  V30 8664 C 815.69 5.49162 3.00286 0
M  V30 8665 H 815.923 2.88892 0.702034 0
M  V30 8666 H 813.456 1.52394 0.248103 0
M  V30 8667 H 815.414 2.59524 3.18053 0
M  V30 8668 H 814.075 1.507 2.75587 0
M  V30 8669 H 813.268 3.83071 3.27525 0
M  V30 8670 H 812.87 3.37996 1.60109 0
M  V30 8671 H 815.162 5.49274 3.96617 0
M  V30 8672 H 816.105 6.49586 2.81858 0
M  V30 8673 H 816.513 4.76653 3.02427 0
M  V30 8674 N 815.911 -0.310526 1.54511 0
M  V30 8675 C 817.139 -1.06611 1.77318 0
M  V30 8676 C 817.554 -1.81265 0.528043 0
M  V30 8677 O 816.911 -1.75466 -0.50178 0
M  V30 8678 C 816.962 -2.05409 2.97472 0
M  V30 8679 O 816.683 -1.33785 4.17173 0
M  V30 8680 C 818.184 -2.93082 3.32593 0
M  V30 8681 H 815.404 -0.316578 0.591624 0
M  V30 8682 H 817.948 -0.352691 2.01436 0
M  V30 8683 H 816.103 -2.72266 2.7559 0
M  V30 8684 H 816.517 -2.00055 4.84849 0
M  V30 8685 H 817.991 -3.58274 4.19933 0
M  V30 8686 H 818.468 -3.60877 2.50329 0
M  V30 8687 H 819.074 -2.31768 3.566 0
M  V30 8688 N 817.389 -1.46805 -0.573248 0
M  V30 8689 C 818.8 -1.46655 -1.15539 0
M  V30 8690 C 819.151 -0.2125 -1.95046 0
M  V30 8691 O 818.276 0.683759 -2.05314 0
M  V30 8692 C 818.871 -2.65711 -2.10198 0
M  V30 8693 C 817.43 -2.68572 -2.63716 0
M  V30 8694 C 816.577 -2.39498 -1.39772 0
M  V30 8695 H 819.528 -1.54547 -0.36068 0
M  V30 8696 H 819.549 -2.41768 -2.93817 0
M  V30 8697 H 819.061 -3.56967 -1.52303 0
M  V30 8698 H 817.162 -1.81414 -3.25453 0
M  V30 8699 H 817.275 -3.68809 -3.05805 0
M  V30 8700 H 815.639 -1.89749 -1.69904 0
M  V30 8701 H 816.422 -3.32942 -0.836943 0
M  V30 8702 N 818.867 0.818669 -1.34668 0
M  V30 8703 C 820.095 1.60674 -1.30351 0
M  V30 8704 C 820.51 1.88408 0.121546 0
M  V30 8705 O 819.867 1.47849 1.06991 0
M  V30 8706 C 819.918 2.94516 -2.09625 0
M  V30 8707 O 819.639 2.6799 -3.46573 0
M  V30 8708 C 821.14 3.8891 -2.12754 0
M  V30 8709 H 818.36 0.499306 -0.448258 0
M  V30 8710 H 820.904 1.01828 -1.77345 0
M  V30 8711 H 819.059 3.49908 -1.66262 0
M  V30 8712 H 819.473 3.53361 -3.87603 0
M  V30 8713 H 820.947 4.79972 -2.72637 0
M  V30 8714 H 821.424 4.24599 -1.12306 0
M  V30 8715 H 822.03 3.39453 -2.56225 0
M  V30 8716 N 820.346 1.18468 1.03938 0
M  V30 8717 C 821.256 0.927889 2.1547 0
M  V30 8718 C 822.272 -0.108447 1.73662 0
M  V30 8719 O 823.448 0.0737636 2.01265 0
M  V30 8720 C 820.513 0.458494 3.43655 0
M  V30 8721 C 819.574 1.56295 3.99838 0
M  V30 8722 C 818.807 1.11586 5.21904 0
M  V30 8723 O 819.03 -0.0249057 5.70395 0
M  V30 8724 O 817.964 1.91412 5.70653 0
M  V30 8725 H 821.79 1.86116 2.39989 0
M  V30 8726 H 819.375 0.966607 1.13917 0
M  V30 8727 H 821.257 0.204861 4.20902 0
M  V30 8728 H 819.932 -0.446464 3.20606 0
M  V30 8729 H 818.839 1.87061 3.23974 0
M  V30 8730 H 820.172 2.44408 4.2723 0
M  V30 8731 N 821.824 -1.22873 0.986916 0
M  V30 8732 C 822.772 -2.26597 0.525043 0
M  V30 8733 C 823.766 -1.64079 -0.421252 0
M  V30 8734 O 824.972 -1.77576 -0.294429 0
M  V30 8735 H 821.347 -0.736606 0.151381 0
M  V30 8736 H 823.318 -2.62909 1.41142 0
M  V30 8737 C 822.067 -3.47374 -0.150542 0
M  V30 8738 H 821.39 -3.95737 0.568541 0
M  V30 8739 H 822.83 -4.21739 -0.437256 0
M  V30 8740 C 821.289 -3.07163 -1.38392 0
M  V30 8741 O 821.819 -3.16028 -2.47971 0
M  V30 8742 N 820.025 -2.62009 -1.25697 0
M  V30 8743 H 819.572 -2.54996 -0.365355 0
M  V30 8744 H 819.53 -2.35472 -2.08327 0
M  V30 8745 N 823.302 -0.75937 -1.38099 0
M  V30 8746 C 824.55 -0.317485 -1.99591 0
M  V30 8747 C 824.871 1.10628 -1.60581 0
M  V30 8748 O 824.141 1.7575 -0.865378 0
M  V30 8749 H 822.721 -0.114397 -0.738189 0
M  V30 8750 H 825.383 -0.974749 -1.68774 0
M  V30 8751 H 824.479 -0.385227 -3.09713 0
M  V30 8752 N 824.78 1.49157 -0.508906 0
M  V30 8753 C 826.027 2.02473 0.0327983 0
M  V30 8754 C 826.355 1.38792 1.36261 0
M  V30 8755 O 825.61 0.515576 1.88786 0
M  V30 8756 C 825.909 3.56687 0.225717 0
M  V30 8757 C 825.575 4.39046 -1.02708 0
M  V30 8758 C 824.237 4.61271 -1.37048 0
M  V30 8759 C 826.589 4.86902 -1.85946 0
M  V30 8760 C 823.917 5.28598 -2.54562 0
M  V30 8761 C 826.269 5.55521 -3.0262 0
M  V30 8762 C 824.933 5.7599 -3.3733 0
M  V30 8763 H 824.203 0.740903 0.0120017 0
M  V30 8764 H 826.85 1.79372 -0.670665 0
M  V30 8765 H 825.155 3.78511 1.01177 0
M  V30 8766 H 826.852 3.95541 0.659433 0
M  V30 8767 H 823.442 4.21994 -0.749615 0
M  V30 8768 H 827.626 4.69553 -1.6073 0
M  V30 8769 H 822.882 5.42646 -2.81682 0
M  V30 8770 H 827.056 5.91576 -3.67438 0
M  V30 8771 H 824.683 6.27934 -4.2849 0
M  V30 8772 N 826.258 0.243083 1.55714 0
M  V30 8773 C 827.504 -0.383287 1.99145 0
M  V30 8774 C 827.837 -1.57868 1.13098 0
M  V30 8775 O 827.112 -1.93535 0.193509 0
M  V30 8776 C 827.395 -0.796879 3.51172 0
M  V30 8777 C 827.248 0.403642 4.47985 0
M  V30 8778 C 828.567 -1.64525 4.08191 0
M  V30 8779 H 825.686 -0.137843 0.723995 0
M  V30 8780 H 828.328 0.343631 1.86867 0
M  V30 8781 H 826.478 -1.41625 3.61766 0
M  V30 8782 H 828.15 1.04204 4.49376 0
M  V30 8783 H 826.393 1.04741 4.20965 0
M  V30 8784 H 827.064 0.0709794 5.51954 0
M  V30 8785 H 829.54 -1.12246 4.00674 0
M  V30 8786 H 828.416 -1.9035 5.14838 0
M  V30 8787 H 828.677 -2.61582 3.56409 0
M  V30 8788 N 827.736 -1.57571 -0.0300757 0
M  V30 8789 C 828.976 -1.91074 -0.725946 0
M  V30 8790 C 829.34 -0.841545 -1.72575 0
M  V30 8791 O 830.541 -1.06088 -2.46979 0
M  V30 8792 C 828.812 -3.2973 -1.37888 0
M  V30 8793 S 830.371 -3.85065 -2.10405 0
M  V30 8794 H 827.189 -0.669084 -0.240515 0
M  V30 8795 H 829.791 -1.9549 0.019384 0
M  V30 8796 H 828.495 -4.05411 -0.637974 0
M  V30 8797 H 828.026 -3.28614 -2.16278 0
M  V30 8798 H 830.041 -3.63711 -3.37533 0
M  V30 8799 N 829.214 0.302327 -1.54673 0
M  V30 8800 C 830.439 1.06103 -1.78205 0
M  V30 8801 C 830.864 1.80204 -0.53926 0
M  V30 8802 O 830.222 1.73975 0.510142 0
M  V30 8803 C 830.27 2.01829 -2.98827 0
M  V30 8804 O 829.374 3.10108 -2.71858 0
M  V30 8805 H 828.715 0.30487 -0.589873 0
M  V30 8806 H 831.245 0.340153 -2.01753 0
M  V30 8807 H 831.255 2.44319 -3.2676 0
M  V30 8808 H 829.93 1.473 -3.88942 0
M  V30 8809 H 828.507 2.72142 -2.54937 0
M  V30 8810 N 830.692 1.47107 0.565454 0
M  V30 8811 C 831.941 1.5257 1.31929 0
M  V30 8812 C 832.254 0.189092 1.94684 0
M  V30 8813 O 833.46 0.121657 2.71227 0
M  V30 8814 C 831.916 2.68914 2.39193 0
M  V30 8815 C 831.524 4.09069 1.82665 0
M  V30 8816 C 833.268 2.83663 3.1581 0
M  V30 8817 C 831.175 5.16726 2.87661 0
M  V30 8818 H 830.105 0.567869 0.496025 0
M  V30 8819 H 832.756 1.73361 0.60151 0
M  V30 8820 H 831.138 2.41486 3.13848 0
M  V30 8821 H 832.312 4.46364 1.14438 0
M  V30 8822 H 830.627 3.99135 1.1866 0
M  V30 8823 H 833.224 3.61261 3.94201 0
M  V30 8824 H 833.567 1.91804 3.69482 0
M  V30 8825 H 834.1 3.10821 2.48265 0
M  V30 8826 H 830.839 6.10433 2.38854 0
M  V30 8827 H 830.359 4.83957 3.54324 0
M  V30 8828 H 832.038 5.43319 3.51303 0
M  V30 8829 N 832.17 -0.811516 1.35101 0
M  V30 8830 C 833.41 -1.58177 1.29458 0
M  V30 8831 C 833.774 -1.91555 -0.130688 0
M  V30 8832 O 834.975 -2.6699 -0.311428 0
M  V30 8833 C 833.246 -2.83896 2.17112 0
M  V30 8834 S 834.805 -3.74344 2.28936 0
M  V30 8835 H 831.623 -0.542021 0.460146 0
M  V30 8836 H 834.225 -0.957653 1.70438 0
M  V30 8837 H 832.929 -2.57391 3.19653 0
M  V30 8838 H 832.46 -3.51297 1.7707 0
M  V30 8839 H 834.475 -4.73909 1.47054 0
M  V30 8840 N 833.648 -1.19017 -1.03309 0
M  V30 8841 C 834.896 -0.988258 -1.76289 0
M  V30 8842 C 835.217 0.482557 -1.88935 0
M  V30 8843 O 834.487 1.34969 -1.41987 0
M  V30 8844 H 833.067 -0.36267 -0.653054 0
M  V30 8845 H 835.729 -1.49836 -1.2464 0
M  V30 8846 H 834.825 -1.43273 -2.77271 0
M  V30 8847 N 835.127 1.22348 -0.993418 0
M  V30 8848 C 836.037 2.27987 -0.553076 0
M  V30 8849 C 837.053 1.69378 0.398386 0
M  V30 8850 O 838.229 1.99648 0.26509 0
M  V30 8851 C 835.294 3.46475 0.124809 0
M  V30 8852 C 834.355 4.20399 -0.869682 0
M  V30 8853 C 833.588 5.33229 -0.224052 0
M  V30 8854 O 833.811 5.61885 0.981915 0
M  V30 8855 O 832.745 5.94685 -0.929174 0
M  V30 8856 H 836.571 2.67822 -1.43195 0
M  V30 8857 H 834.156 1.28525 -0.761694 0
M  V30 8858 H 836.038 4.18369 0.504496 0
M  V30 8859 H 834.713 3.08565 0.978243 0
M  V30 8860 H 833.62 3.50774 -1.30031 0
M  V30 8861 H 834.953 4.62191 -1.69233 0
M  V30 8862 N 836.605 0.766683 1.37694 0
M  V30 8863 C 837.833 0.339939 2.04088 0
M  V30 8864 C 838.248 -1.03617 1.57826 0
M  V30 8865 O 837.605 -1.6605 0.757214 0
M  V30 8866 C 837.656 0.368269 3.59619 0
M  V30 8867 O 837.377 1.69009 4.04188 0
M  V30 8868 C 838.878 -0.0707053 4.43244 0
M  V30 8869 H 836.098 0.143189 0.655544 0
M  V30 8870 H 838.642 1.03919 1.76128 0
M  V30 8871 H 836.797 -0.282359 3.8637 0
M  V30 8872 H 837.211 1.62523 4.98685 0
M  V30 8873 H 838.685 0.000273538 5.52 0
M  V30 8874 H 839.162 -1.1204 4.24669 0
M  V30 8875 H 839.768 0.551543 4.21709 0
M  V30 8876 N 838.083 -1.48885 0.516809 0
M  V30 8877 C 839.36 -1.95412 -0.0858293 0
M  V30 8878 C 839.74 -1.45875 -1.5259 0
M  V30 8879 O 839.088 -0.679415 -2.18166 0
M  V30 8880 C 839.298 -3.48995 0.0178194 0
M  V30 8881 C 840.646 -4.24342 -0.14813 0
M  V30 8882 O 841.67 -3.56155 -0.0566125 0
M  V30 8883 O 840.529 -5.45454 -0.338035 0
M  V30 8884 H 837.623 -0.822455 -0.0865884 0
M  V30 8885 H 840.169 -1.59464 0.580472 0
M  V30 8886 H 838.941 -3.77732 1.02147 0
M  V30 8887 H 838.564 -3.91604 -0.687924 0
M  V30 8888 N 839.561 -0.251338 -1.55583 0
M  V30 8889 C 840.972 0.25098 -1.85005 0
M  V30 8890 C 841.323 1.57259 -1.17321 0
M  V30 8891 O 840.448 2.11603 -0.453136 0
M  V30 8892 C 841.043 0.462161 -3.35633 0
M  V30 8893 C 839.602 0.908737 -3.65266 0
M  V30 8894 C 838.749 -0.0115418 -2.77298 0
M  V30 8895 H 841.7 -0.473782 -1.51463 0
M  V30 8896 H 841.721 1.30415 -3.57452 0
M  V30 8897 H 841.233 -0.499886 -3.84867 0
M  V30 8898 H 839.334 1.8831 -3.21512 0
M  V30 8899 H 839.447 0.762526 -4.72993 0
M  V30 8900 H 837.811 0.500612 -2.49732 0
M  V30 8901 H 838.594 -0.969042 -3.29339 0
M  V30 8902 N 841.039 1.57585 0.0217189 0
M  V30 8903 C 841.986 2.07036 1.02004 0
M  V30 8904 C 842.956 0.96106 1.35473 0
M  V30 8905 O 844.141 1.23211 1.45684 0
M  V30 8906 C 841.281 2.56056 2.31364 0
M  V30 8907 C 840.394 3.80805 2.03989 0
M  V30 8908 C 839.529 4.18409 3.27272 0
M  V30 8909 C 838.568 5.36055 2.95486 0
M  V30 8910 N 837.705 5.69056 4.11242 0
M  V30 8911 H 842.545 2.92073 0.591396 0
M  V30 8912 H 840.082 1.44403 0.280384 0
M  V30 8913 H 842.04 2.82548 3.06957 0
M  V30 8914 H 840.67 1.73925 2.71937 0
M  V30 8915 H 839.722 3.61354 1.1886 0
M  V30 8916 H 841.034 4.66512 1.76546 0
M  V30 8917 H 840.188 4.46068 4.11228 0
M  V30 8918 H 838.927 3.31369 3.57835 0
M  V30 8919 H 837.932 5.08142 2.09933 0
M  V30 8920 H 839.157 6.24755 2.66193 0
M  V30 8921 H 837.103 4.84974 4.41742 0
M  V30 8922 H 837.02 6.49288 3.87247 0
M  V30 8923 H 838.288 6.01295 4.96049 0
M  V30 8924 N 842.517 -0.29412 1.54831 0
M  V30 8925 C 843.464 -1.36296 1.86258 0
M  V30 8926 C 844.434 -1.50061 0.712097 0
M  V30 8927 O 845.619 -1.64809 0.961381 0
M  V30 8928 C 842.759 -2.72187 2.12151 0
M  V30 8929 C 841.872 -2.66816 3.39755 0
M  V30 8930 C 841.007 -3.94747 3.55455 0
M  V30 8931 C 840.046 -3.838 4.76827 0
M  V30 8932 N 839.183 -5.03521 4.89296 0
M  V30 8933 H 844.023 -1.08796 2.7743 0
M  V30 8934 H 841.56 -0.526069 1.37371 0
M  V30 8935 H 843.518 -3.51225 2.25159 0
M  V30 8936 H 842.148 -2.97934 1.24237 0
M  V30 8937 H 841.2 -1.79605 3.3533 0
M  V30 8938 H 842.512 -2.5462 4.28917 0
M  V30 8939 H 841.666 -4.82223 3.68166 0
M  V30 8940 H 840.405 -4.09785 2.64438 0
M  V30 8941 H 839.41 -2.94708 4.64141 0
M  V30 8942 H 840.635 -3.70301 5.69258 0
M  V30 8943 H 838.581 -5.1901 4.01204 0
M  V30 8944 H 838.498 -4.93775 5.72471 0
M  V30 8945 H 839.766 -5.92629 5.06371 0
M  V30 8946 N 843.995 -1.47404 -0.557645 0
M  V30 8947 C 844.928 -1.54399 -1.68036 0
M  V30 8948 C 845.906 -0.396175 -1.577 0
M  V30 8949 O 847.09 -0.603911 -1.78564 0
M  V30 8950 C 844.217 -1.44611 -3.06277 0
M  V30 8951 C 843.263 -2.63889 -3.35059 0
M  V30 8952 S 844.096 -4.26086 -3.24362 0
M  V30 8953 C 845.252 -4.1885 -4.65097 0
M  V30 8954 H 845.485 -2.49384 -1.61849 0
M  V30 8955 H 843.018 -1.35597 -0.738429 0
M  V30 8956 H 844.976 -1.39651 -3.86015 0
M  V30 8957 H 843.637 -0.510114 -3.0993 0
M  V30 8958 H 842.83 -2.53103 -4.35838 0
M  V30 8959 H 842.432 -2.65969 -2.62938 0
M  V30 8960 H 844.724 -3.87077 -5.56037 0
M  V30 8961 H 845.667 -5.19714 -4.8094 0
M  V30 8962 H 846.075 -3.49717 -4.43123 0
M  V30 8963 N 845.473 0.80434 -1.35529 0
M  V30 8964 C 846.421 1.93769 -1.28671 0
M  V30 8965 C 847.415 1.68428 -0.181222 0
M  V30 8966 O 848.621 1.76617 -0.347338 0
M  V30 8967 H 844.996 0.636663 -0.400206 0
M  V30 8968 H 846.967 1.96673 -2.24415 0
M  V30 8969 C 845.716 3.30572 -1.07784 0
M  V30 8970 H 845.039 3.5063 -1.9209 0
M  V30 8971 H 846.479 4.1027 -1.07027 0
M  V30 8972 C 844.938 3.36193 0.218213 0
M  V30 8973 O 845.468 3.82941 1.21323 0
M  V30 8974 N 843.674 2.89455 0.257761 0
M  V30 8975 H 843.221 2.51604 -0.552562 0
M  V30 8976 H 843.179 2.93597 1.12465 0
M  V30 8977 N 846.951 1.19563 1.02676 0
M  V30 8978 C 848.179 1.02488 1.79732 0
M  V30 8979 C 848.594 -0.426302 1.83924 0
M  V30 8980 O 847.951 -1.29609 1.28483 0
M  V30 8981 C 848.002 1.58944 3.24683 0
M  V30 8982 O 847.723 2.98382 3.2078 0
M  V30 8983 C 849.224 1.46681 4.1833 0
M  V30 8984 H 846.444 0.361098 0.565552 0
M  V30 8985 H 848.988 1.58426 1.29311 0
M  V30 8986 H 847.143 1.0715 3.72287 0
M  V30 8987 H 847.557 3.24983 4.11687 0
M  V30 8988 H 849.031 1.90959 5.17918 0
M  V30 8989 H 849.508 0.417663 4.3721 0
M  V30 8990 H 850.114 1.97616 3.76601 0
M  V30 8991 N 848.429 -1.21819 0.999893 0
M  V30 8992 C 849.678 -1.90066 0.675108 0
M  V30 8993 C 849.991 -1.78624 -0.79705 0
M  V30 8994 O 851.197 -2.41851 -1.23371 0
M  V30 8995 C 849.653 -3.40795 1.15702 0
M  V30 8996 C 849.261 -3.60859 2.6549 0
M  V30 8997 C 851.005 -4.147 0.906889 0
M  V30 8998 C 848.912 -5.05324 3.07248 0
M  V30 8999 H 847.842 -0.711763 0.248815 0
M  V30 9000 H 850.493 -1.3792 1.21038 0
M  V30 9001 H 848.875 -3.92164 0.549832 0
M  V30 9002 H 850.049 -3.19951 3.31614 0
M  V30 9003 H 848.364 -3.00298 2.88461 0
M  V30 9004 H 850.961 -5.21187 1.1945 0
M  V30 9005 H 851.304 -4.16004 -0.156923 0
M  V30 9006 H 851.837 -3.69379 1.47662 0
M  V30 9007 H 848.576 -5.09164 4.12834 0
M  V30 9008 H 848.096 -5.47108 2.45832 0
M  V30 9009 H 849.775 -5.73797 2.98941 0
M  V30 9010 N 849.908 -0.773975 -1.37286 0
M  V30 9011 C 851.324 -0.45386 -1.53011 0
M  V30 9012 C 851.524 1.03018 -1.73175 0
M  V30 9013 O 850.58 1.81597 -1.75438 0
M  V30 9014 C 851.893 -1.27087 -2.72524 0
M  V30 9015 C 853.441 -1.26299 -2.86387 0
M  V30 9016 C 853.916 -2.0634 -4.08886 0
M  V30 9017 N 855.407 -2.03706 -4.16003 0
M  V30 9018 C 856.142 -2.62418 -5.09828 0
M  V30 9019 N 855.638 -3.29926 -6.09197 0
M  V30 9020 N 857.431 -2.52236 -5.02328 0
M  V30 9021 H 849.582 -1.73551 -1.22449 0
M  V30 9022 H 851.845 -0.736874 -0.596423 0
M  V30 9023 H 851.551 -2.32263 -2.64096 0
M  V30 9024 H 851.425 -0.90157 -3.66267 0
M  V30 9025 H 853.812 -0.219213 -2.94285 0
M  V30 9026 H 853.893 -1.67195 -1.93596 0
M  V30 9027 H 853.537 -3.10741 -4.01749 0
M  V30 9028 H 853.467 -1.62825 -5.00795 0
M  V30 9029 H 855.958 -1.54559 -3.44848 0
M  V30 9030 H 856.271 -3.72095 -6.77322 0
M  V30 9031 H 854.616 -3.34026 -6.09469 0
M  V30 9032 H 857.807 -1.99108 -4.23643 0
M  V30 9033 H 857.98 -2.98286 -5.75265 0
M  V30 9034 N 851.386 1.48609 -0.524698 0
M  V30 9035 C 852.802 1.58557 -0.182199 0
M  V30 9036 C 853.002 1.52732 1.31435 0
M  V30 9037 O 852.058 1.41362 2.0922 0
M  V30 9038 C 853.371 2.90406 -0.78004 0
M  V30 9039 C 854.919 3.03924 -0.748293 0
M  V30 9040 C 855.394 4.38427 -1.32462 0
M  V30 9041 N 856.885 4.4498 -1.28635 0
M  V30 9042 C 857.62 5.47551 -1.70223 0
M  V30 9043 N 857.116 6.57103 -2.19515 0
M  V30 9044 N 858.909 5.38402 -1.61493 0
M  V30 9045 H 851.06 1.50638 -1.4974 0
M  V30 9046 H 853.323 0.714952 -0.622533 0
M  V30 9047 H 853.029 3.00308 -1.83052 0
M  V30 9048 H 852.903 3.76343 -0.254075 0
M  V30 9049 H 855.29 2.93638 0.293407 0
M  V30 9050 H 855.371 2.19611 -1.31167 0
M  V30 9051 H 855.015 4.49466 -2.36522 0
M  V30 9052 H 854.945 5.21418 -0.736967 0
M  V30 9053 H 857.436 3.66393 -0.92545 0
M  V30 9054 H 857.749 7.31499 -2.49257 0
M  V30 9055 H 856.094 6.58081 -2.23506 0
M  V30 9056 H 859.285 4.5171 -1.22785 0
M  V30 9057 H 859.458 6.18208 -1.94225 0
M  V30 9058 N 852.864 0.259585 1.55447 0
M  V30 9059 C 854.092 -0.365392 2.03648 0
M  V30 9060 C 854.507 -1.50613 1.13847 0
M  V30 9061 O 853.864 -1.81837 0.155414 0
M  V30 9062 C 853.915 -0.861172 3.51093 0
M  V30 9063 O 853.636 0.234121 4.37474 0
M  V30 9064 C 855.137 -1.55555 4.15111 0
M  V30 9065 H 852.357 -0.0853439 0.66555 0
M  V30 9066 H 854.901 0.387151 2.00802 0
M  V30 9067 H 853.056 -1.56385 3.54433 0
M  V30 9068 H 853.47 -0.1444 5.24301 0
M  V30 9069 H 854.944 -1.85403 5.19932 0
M  V30 9070 H 855.421 -2.48185 3.62355 0
M  V30 9071 H 856.027 -0.89712 4.15731 0
M  V30 9072 N 854.342 -1.57594 -0.0133615 0
M  V30 9073 C 855.582 -1.91834 -0.705639 0
M  V30 9074 C 855.946 -0.859801 -1.71672 0
M  V30 9075 O 857.147 -1.08702 -2.4584 0
M  V30 9076 C 855.418 -3.31174 -1.34383 0
M  V30 9077 S 856.977 -3.87275 -2.06309 0
M  V30 9078 H 853.795 -0.671598 -0.233404 0
M  V30 9079 H 856.397 -1.95459 0.0401173 0
M  V30 9080 H 855.101 -4.06065 -0.594939 0
M  V30 9081 H 854.632 -3.3089 -2.12781 0
M  V30 9082 H 856.647 -3.67271 -3.33657 0
M  V30 9083 N 855.82 0.285905 -1.54985 0
M  V30 9084 C 857.068 1.01718 -1.74636 0
M  V30 9085 C 857.389 1.87277 -0.543342 0
M  V30 9086 O 856.659 1.90847 0.442078 0
M  V30 9087 H 855.239 0.378549 -0.643979 0
M  V30 9088 H 857.901 0.313247 -1.92366 0
M  V30 9089 H 856.997 1.66159 -2.64192 0
M  V30 9090 N 857.298 1.47698 0.54982 0
M  V30 9091 C 858.528 1.58101 1.32995 0
M  V30 9092 C 858.936 0.232939 1.87761 0
M  V30 9093 O 858.279 -0.785058 1.6608 0
M  V30 9094 C 858.341 2.55228 2.53178 0
M  V30 9095 C 858.005 4.00756 2.19645 0
M  V30 9096 C 859.002 4.89025 1.76496 0
M  V30 9097 C 856.687 4.46147 2.30777 0
M  V30 9098 C 858.681 6.20707 1.44919 0
M  V30 9099 C 856.368 5.77856 1.98812 0
M  V30 9100 C 857.366 6.64957 1.55952 0
M  V30 9101 O 857.054 7.94217 1.24396 0
M  V30 9102 H 856.786 0.536362 0.411451 0
M  V30 9103 H 859.34 1.94092 0.67212 0
M  V30 9104 H 857.57 2.14319 3.21876 0
M  V30 9105 H 859.259 2.55678 3.15251 0
M  V30 9106 H 860.025 4.55201 1.67383 0
M  V30 9107 H 855.904 3.78552 2.63096 0
M  V30 9108 H 859.448 6.88649 1.11392 0
M  V30 9109 H 855.345 6.11219 2.0756 0
M  V30 9110 H 856.113 8.06789 1.37964 0
M  V30 9111 N 858.776 -0.797141 1.35954 0
M  V30 9112 C 859.706 -1.92387 1.32323 0
M  V30 9113 C 860.687 -1.68967 0.196007 0
M  V30 9114 O 861.872 -1.90193 0.39245 0
M  V30 9115 C 859.002 -3.29286 1.10398 0
M  V30 9116 C 857.956 -3.67212 2.19862 0
M  V30 9117 C 857.282 -5.02377 1.8309 0
M  V30 9118 C 858.582 -3.76602 3.61896 0
M  V30 9119 H 860.276 -1.95683 2.26602 0
M  V30 9120 H 857.822 -0.94007 1.09081 0
M  V30 9121 H 859.775 -4.07721 1.06495 0
M  V30 9122 H 858.499 -3.26358 0.125668 0
M  V30 9123 H 857.158 -2.91069 2.22878 0
M  V30 9124 H 856.806 -4.95961 0.838527 0
M  V30 9125 H 856.506 -5.28722 2.56372 0
M  V30 9126 H 858.03 -5.8324 1.80729 0
M  V30 9127 H 859.444 -4.45246 3.6115 0
M  V30 9128 H 857.841 -4.14425 4.34018 0
M  V30 9129 H 858.911 -2.77906 3.97361 0
M  V30 9130 N 860.254 -1.20106 -1.0204 0
M  V30 9131 C 861.502 -1.0069 -1.75231 0
M  V30 9132 C 861.823 0.462491 -1.89436 0
M  V30 9133 O 861.093 1.33455 -1.4341 0
M  V30 9134 H 859.673 -0.369576 -0.649171 0
M  V30 9135 H 862.335 -1.51149 -1.23044 0
M  V30 9136 H 861.431 -1.46205 -2.75736 0
M  V30 9137 N 861.732 1.21287 -1.00634 0
M  V30 9138 C 862.68 2.25733 -0.561026 0
M  V30 9139 C 863.674 1.64728 0.395095 0
M  V30 9140 O 864.88 1.78022 0.266141 0
M  V30 9141 H 861.255 0.734104 -0.163081 0
M  V30 9142 H 863.226 2.60631 -1.45307 0
M  V30 9143 C 861.975 3.47569 0.0952587 0
M  V30 9144 H 861.298 3.94782 -0.631427 0
M  V30 9145 H 862.738 4.22382 0.370105 0
M  V30 9146 C 861.197 3.09326 1.33488 0
M  V30 9147 O 861.727 3.19933 2.42912 0
M  V30 9148 N 859.933 2.63976 1.21512 0
M  V30 9149 H 859.48 2.55545 0.324741 0
M  V30 9150 H 859.438 2.38757 2.04555 0
M  V30 9151 N 863.21 0.781244 1.36873 0
M  V30 9152 C 864.621 0.414093 1.8205 0
M  V30 9153 C 864.972 -1.06098 1.65039 0
M  V30 9154 O 864.097 -1.82251 1.16677 0
M  V30 9155 C 864.692 0.744837 3.30511 0
M  V30 9156 C 863.251 0.430621 3.73929 0
M  V30 9157 C 862.398 0.983746 2.59264 0
M  V30 9158 H 865.349 0.975091 1.2521 0
M  V30 9159 H 865.37 0.032936 3.80486 0
M  V30 9160 H 864.882 1.81847 3.42861 0
M  V30 9161 H 862.983 -0.635308 3.67144 0
M  V30 9162 H 863.096 0.945514 4.69677 0
M  V30 9163 H 861.46 0.407433 2.5142 0
M  V30 9164 H 862.243 2.06297 2.74402 0
M  V30 9165 N 864.689 -1.48329 0.532571 0
M  V30 9166 C 865.637 -2.31336 -0.242133 0
M  V30 9167 C 866.631 -1.41391 -0.933006 0
M  V30 9168 O 867.837 -1.58284 -0.857096 0
M  V30 9169 H 864.212 -0.745724 -0.0969536 0
M  V30 9170 H 866.183 -2.94555 0.477504 0
M  V30 9171 C 864.932 -3.23501 -1.27446 0
M  V30 9172 H 864.255 -3.92659 -0.752261 0
M  V30 9173 H 865.695 -3.84461 -1.78789 0
M  V30 9174 C 864.154 -2.45288 -2.30944 0
M  V30 9175 O 864.684 -2.17955 -3.37429 0
M  V30 9176 N 862.89 -2.06737 -2.04226 0
M  V30 9177 H 862.437 -2.29166 -1.17647 0
M  V30 9178 H 862.395 -1.54719 -2.73696 0
M  V30 9179 N 866.167 -0.267825 -1.55308 0
M  V30 9180 C 867.077 0.633055 -2.25897 0
M  V30 9181 C 868.093 1.17613 -1.28231 0
M  V30 9182 O 869.269 1.20797 -1.61153 0
M  V30 9183 C 866.334 1.80397 -2.96071 0
M  V30 9184 C 865.395 1.29829 -4.09198 0
M  V30 9185 C 864.628 2.4134 -4.76016 0
M  V30 9186 O 864.851 3.60537 -4.42006 0
M  V30 9187 O 863.785 2.09909 -5.64111 0
M  V30 9188 H 867.611 0.0614381 -3.03638 0
M  V30 9189 H 865.196 -0.0355072 -1.49358 0
M  V30 9190 H 867.078 2.48685 -3.40197 0
M  V30 9191 H 865.753 2.36281 -2.21253 0
M  V30 9192 H 864.66 0.582086 -3.69544 0
M  V30 9193 H 865.993 0.785288 -4.85895 0
M  V30 9194 N 867.645 1.57599 0.00500368 0
M  V30 9195 C 869.061 1.55463 0.361015 0
M  V30 9196 C 869.261 0.997051 1.75103 0
M  V30 9197 O 868.317 0.628661 2.44549 0
M  V30 9198 C 869.63 2.99734 0.240828 0
M  V30 9199 C 871.178 3.11399 0.316138 0
M  V30 9200 C 871.653 4.57446 0.22513 0
M  V30 9201 N 873.144 4.62334 0.283186 0
M  V30 9202 C 873.879 5.72914 0.23603 0
M  V30 9203 N 873.375 6.92659 0.139762 0
M  V30 9204 N 875.168 5.61364 0.287529 0
M  V30 9205 H 867.319 1.92185 -0.904359 0
M  V30 9206 H 869.582 0.882529 -0.34619 0
M  V30 9207 H 869.288 3.44348 -0.715343 0
M  V30 9208 H 869.162 3.63009 1.02491 0
M  V30 9209 H 871.549 2.66718 1.26275 0
M  V30 9210 H 871.63 2.50911 -0.497725 0
M  V30 9211 H 871.274 5.02801 -0.717917 0
M  V30 9212 H 871.204 5.15874 1.05742 0
M  V30 9213 H 873.695 3.7619 0.359123 0
M  V30 9214 H 874.008 7.72722 0.10954 0
M  V30 9215 H 872.353 6.9492 0.105462 0
M  V30 9216 H 875.544 4.66707 0.360897 0
M  V30 9217 H 875.717 6.47528 0.247313 0
M  V30 9218 N 869.123 -0.277682 1.55134 0
M  V30 9219 C 870.371 -1.00791 1.75173 0
M  V30 9220 C 870.692 -1.86987 0.553266 0
M  V30 9221 O 869.962 -1.91079 -0.43195 0
M  V30 9222 H 868.542 -0.375129 0.645978 0
M  V30 9223 H 871.204 -0.303041 1.9253 0
M  V30 9224 H 870.3 -1.64756 2.6507 0
M  V30 9225 N 870.601 -1.47988 -0.541979 0
M  V30 9226 C 871.848 -1.55393 -1.29843 0
M  V30 9227 C 872.176 -0.222668 -1.93221 0
M  V30 9228 O 871.431 0.785936 -1.79225 0
M  V30 9229 C 871.73 -2.63189 -2.41798 0
M  V30 9230 C 871.396 -4.05999 -1.96151 0
M  V30 9231 C 870.058 -4.44872 -1.83419 0
M  V30 9232 C 872.41 -4.95545 -1.61507 0
M  V30 9233 C 869.738 -5.71108 -1.34361 0
M  V30 9234 C 872.09 -6.22259 -1.13915 0
M  V30 9235 C 870.754 -6.59998 -0.997911 0
M  V30 9236 H 870.024 -0.568623 -0.47513 0
M  V30 9237 H 872.671 -1.81654 -0.606142 0
M  V30 9238 H 870.976 -2.30743 -3.16647 0
M  V30 9239 H 872.673 -2.66138 -2.99953 0
M  V30 9240 H 869.263 -3.75294 -2.07008 0
M  V30 9241 H 873.447 -4.662 -1.70209 0
M  V30 9242 H 868.703 -5.99083 -1.22103 0
M  V30 9243 H 872.877 -6.91048 -0.861755 0
M  V30 9244 H 870.504 -7.57704 -0.615561 0
M  V30 9245 N 872.079 0.78992 -1.36375 0
M  V30 9246 C 873.027 1.92394 -1.30719 0
M  V30 9247 C 874.021 1.68226 -0.199076 0
M  V30 9248 O 875.227 1.76239 -0.366051 0
M  V30 9249 H 871.602 0.632382 -0.406936 0
M  V30 9250 H 873.573 1.94282 -2.26488 0
M  V30 9251 C 872.322 3.2941 -1.11284 0
M  V30 9252 H 871.645 3.48573 -1.95798 0
M  V30 9253 H 873.085 4.09111 -1.11373 0
M  V30 9254 C 871.544 3.36405 0.182543 0
M  V30 9255 O 872.074 3.84206 1.17255 0
M  V30 9256 N 870.28 2.89712 0.227046 0
M  V30 9257 H 869.827 2.51004 -0.579217 0
M  V30 9258 H 869.785 2.94773 1.09344 0
M  V30 9259 N 873.557 1.20646 1.01402 0
M  V30 9260 C 874.487 0.98155 2.11867 0
M  V30 9261 C 875.468 -0.0903712 1.6986 0
M  V30 9262 O 876.653 0.0676586 1.94082 0
M  V30 9263 C 873.783 0.535636 3.43145 0
M  V30 9264 C 872.737 1.55109 3.98905 0
M  V30 9265 C 872.063 0.961725 5.2598 0
M  V30 9266 C 873.363 2.93552 4.32001 0
M  V30 9267 H 875.057 1.90544 2.3094 0
M  V30 9268 H 872.603 0.917554 1.10982 0
M  V30 9269 H 874.556 0.365512 4.19812 0
M  V30 9270 H 873.28 -0.423882 3.23838 0
M  V30 9271 H 871.939 1.70862 3.24348 0
M  V30 9272 H 871.587 -0.00580108 5.03 0
M  V30 9273 H 871.287 1.63993 5.64252 0
M  V30 9274 H 872.811 0.802726 6.053 0
M  V30 9275 H 874.225 2.81295 4.99546 0
M  V30 9276 H 872.622 3.58303 4.81393 0
M  V30 9277 H 873.692 3.4508 3.40658 0
M  V30 9278 N 875.035 -1.20752 1.01276 0
M  V30 9279 C 876.283 -1.89645 0.698505 0
M  V30 9280 C 876.604 -1.78986 -0.773883 0
M  V30 9281 O 875.874 -1.18977 -1.55632 0
M  V30 9282 H 874.454 -0.701992 0.255375 0
M  V30 9283 H 877.116 -1.46668 1.28353 0
M  V30 9284 H 876.212 -2.96364 0.978512 0
M  V30 9285 N 876.513 -0.788492 -1.36457 0
M  V30 9286 C 877.46 -0.18435 -2.30063 0
M  V30 9287 C 878.43 0.67128 -1.51931 0
M  V30 9288 O 879.615 0.620152 -1.8044 0
M  V30 9289 C 876.755 0.675596 -3.38422 0
M  V30 9290 C 875.868 -0.198475 -4.31544 0
M  V30 9291 C 875.003 0.667757 -5.26986 0
M  V30 9292 C 874.042 -0.207825 -6.11747 0
M  V30 9293 N 873.179 0.617335 -6.99381 0
M  V30 9294 H 878.019 -0.988056 -2.81143 0
M  V30 9295 H 875.556 -0.498815 -1.38384 0
M  V30 9296 H 877.514 1.18916 -3.99894 0
M  V30 9297 H 876.144 1.44474 -2.88664 0
M  V30 9298 H 875.196 -0.829995 -3.71235 0
M  V30 9299 H 876.508 -0.873163 -4.91098 0
M  V30 9300 H 875.662 1.24716 -5.93743 0
M  V30 9301 H 874.401 1.37607 -4.67884 0
M  V30 9302 H 873.406 -0.799638 -5.43954 0
M  V30 9303 H 874.631 -0.913729 -6.72925 0
M  V30 9304 H 872.577 1.30996 -6.42788 0
M  V30 9305 H 872.494 0.000307255 -7.56 0
M  V30 9306 H 873.762 1.1806 -7.70508 0
M  V30 9307 N 877.991 1.48044 -0.54043 0
M  V30 9308 C 878.939 2.31461 0.229862 0
M  V30 9309 C 879.933 1.41884 0.925495 0
M  V30 9310 O 881.139 1.58736 0.848689 0
M  V30 9311 H 877.514 0.746227 0.0929975 0
M  V30 9312 H 879.485 2.94297 -0.493118 0
M  V30 9313 C 878.234 3.24172 1.25729 0
M  V30 9314 H 877.557 3.93052 0.731426 0
M  V30 9315 H 878.997 3.85404 1.76747 0
M  V30 9316 C 877.456 2.4651 2.2964 0
M  V30 9317 O 877.986 2.19742 3.36268 0
M  V30 9318 N 876.192 2.07817 2.03127 0
M  V30 9319 H 875.739 2.29786 1.1643 0
M  V30 9320 H 875.697 1.56168 2.72872 0
M  V30 9321 N 879.47 0.276058 1.55163 0
M  V30 9322 C 880.417 -0.611006 2.22565 0
M  V30 9323 C 881.387 -1.14902 1.19945 0
M  V30 9324 O 882.572 -1.19815 1.48489 0
M  V30 9325 C 879.712 -1.78885 2.95117 0
M  V30 9326 C 878.825 -1.2846 4.12458 0
M  V30 9327 C 877.96 -2.42432 4.72652 0
M  V30 9328 C 876.999 -1.89015 5.82185 0
M  V30 9329 N 876.136 -2.96463 6.36439 0
M  V30 9330 H 880.976 -0.0295849 2.97985 0
M  V30 9331 H 878.513 -0.00283607 1.471 0
M  V30 9332 H 880.471 -2.48121 3.35398 0
M  V30 9333 H 879.101 -2.34229 2.22119 0
M  V30 9334 H 878.153 -0.485312 3.77292 0
M  V30 9335 H 879.465 -0.853358 4.91446 0
M  V30 9336 H 878.619 -3.19659 5.15658 0
M  V30 9337 H 877.358 -2.88872 3.92943 0
M  V30 9338 H 876.363 -1.10267 5.38629 0
M  V30 9339 H 877.588 -1.43509 6.63763 0
M  V30 9340 H 875.534 -3.42283 5.59623 0
M  V30 9341 H 875.451 -2.57759 7.10701 0
M  V30 9342 H 876.719 -3.73663 6.84103 0
M  V30 9343 N 880.948 -1.576 0.00335426 0
M  V30 9344 C 881.858 -2.12067 -1.00322 0
M  V30 9345 C 882.874 -1.06672 -1.37467 0
M  V30 9346 O 884.05 -1.38592 -1.46131 0
M  V30 9347 C 881.115 -2.61593 -2.27531 0
M  V30 9348 C 880.176 -3.81602 -1.96668 0
M  V30 9349 C 879.409 -4.28756 -3.17811 0
M  V30 9350 O 879.632 -3.75222 -4.2961 0
M  V30 9351 O 878.566 -5.20877 -3.01613 0
M  V30 9352 H 882.392 -2.98299 -0.570199 0
M  V30 9353 H 879.977 -1.47835 -0.215682 0
M  V30 9354 H 881.859 -2.93631 -3.02256 0
M  V30 9355 H 880.534 -1.78457 -2.70065 0
M  V30 9356 H 879.441 -3.54531 -1.19408 0
M  V30 9357 H 880.774 -4.65822 -1.58968 0
M  V30 9358 N 882.426 0.269451 -1.5528 0
M  V30 9359 C 883.675 0.998381 -1.75258 0
M  V30 9360 C 883.988 1.87321 -0.563034 0
M  V30 9361 O 885.194 2.63719 -0.645313 0
M  V30 9362 C 883.65 1.82505 -3.10193 0
M  V30 9363 C 883.258 0.99871 -4.36726 0
M  V30 9364 C 885.002 2.54807 -3.3952 0
M  V30 9365 C 882.909 1.81997 -5.627 0
M  V30 9366 H 881.839 0.376488 -0.653278 0
M  V30 9367 H 884.49 0.253909 -1.81735 0
M  V30 9368 H 882.872 2.61061 -2.97763 0
M  V30 9369 H 884.046 0.257064 -4.60082 0
M  V30 9370 H 882.361 0.390074 -4.14569 0
M  V30 9371 H 884.958 3.16662 -4.30847 0
M  V30 9372 H 885.301 3.25273 -2.59813 0
M  V30 9373 H 885.834 1.83278 -3.53064 0
M  V30 9374 H 882.573 1.15945 -6.45164 0
M  V30 9375 H 882.093 2.53749 -5.43481 0
M  V30 9376 H 883.772 2.39274 -6.0113 0
M  V30 9377 N 883.904 1.48273 0.534124 0
M  V30 9378 C 884.837 1.57053 1.65559 0
M  V30 9379 C 885.815 0.421213 1.5705 0
M  V30 9380 O 886.999 0.632242 1.77581 0
M  V30 9381 C 884.126 1.49465 3.03937 0
M  V30 9382 C 883.172 2.69186 3.30819 0
M  V30 9383 S 884.005 4.31192 3.17543 0
M  V30 9384 C 885.161 4.26197 4.58375 0
M  V30 9385 H 885.394 2.51927 1.57861 0
M  V30 9386 H 882.927 1.36755 0.716763 0
M  V30 9387 H 884.885 1.45775 3.83745 0
M  V30 9388 H 883.546 0.559357 3.09079 0
M  V30 9389 H 882.739 2.60005 4.31756 0
M  V30 9390 H 882.341 2.70118 2.58674 0
M  V30 9391 H 884.633 3.95874 5.49809 0
M  V30 9392 H 885.576 5.27299 4.72611 0
M  V30 9393 H 885.984 3.56723 4.37503 0
M  V30 9394 N 885.382 -0.782676 1.36792 0
M  V30 9395 C 886.332 -1.8855 1.28191 0
M  V30 9396 C 887.316 -1.59978 0.171984 0
M  V30 9397 O 888.508 -1.72295 0.405405 0
M  V30 9398 C 885.637 -3.25862 1.08021 0
M  V30 9399 C 884.723 -3.60422 2.2351 0
M  V30 9400 N 885.114 -3.66241 3.48857 0
M  V30 9401 C 883.412 -3.90523 2.15424 0
M  V30 9402 C 884.113 -3.97233 4.24948 0
M  V30 9403 N 883.089 -4.12567 3.53963 0
M  V30 9404 H 886.891 -1.91285 2.23131 0
M  V30 9405 H 884.405 -0.978554 1.29607 0
M  V30 9406 H 886.402 -4.04742 0.999458 0
M  V30 9407 H 885.062 -3.24399 0.139882 0
M  V30 9408 H 886.073 -3.48717 3.82906 0
M  V30 9409 H 882.75 -3.96945 1.29386 0
M  V30 9410 H 884.14 -4.08602 5.33379 0
M  V30 9411 N 886.86 -1.21182 -1.00761 0
M  V30 9412 C 888.276 -0.968607 -1.26847 0
M  V30 9413 C 888.476 0.346561 -1.98497 0
M  V30 9414 O 887.532 1.07287 -2.28573 0
M  V30 9415 C 888.845 -2.1574 -2.09467 0
M  V30 9416 C 890.393 -2.19937 -2.22703 0
M  V30 9417 C 890.868 -3.38328 -3.08704 0
M  V30 9418 N 892.359 -3.38398 -3.16293 0
M  V30 9419 C 893.094 -4.26653 -3.83086 0
M  V30 9420 N 892.59 -5.25101 -4.5193 0
M  V30 9421 N 894.383 -4.14469 -3.797 0
M  V30 9422 H 886.534 -2.05763 -0.526816 0
M  V30 9423 H 888.797 -0.90087 -0.29519 0
M  V30 9424 H 888.503 -3.11034 -1.64167 0
M  V30 9425 H 888.377 -2.14584 -3.10216 0
M  V30 9426 H 890.764 -1.25201 -2.67224 0
M  V30 9427 H 890.845 -2.25139 -1.21433 0
M  V30 9428 H 890.489 -4.33356 -2.64886 0
M  V30 9429 H 890.419 -3.30364 -4.10082 0
M  V30 9430 H 892.91 -2.67149 -2.67282 0
M  V30 9431 H 893.223 -5.8875 -5.00592 0
M  V30 9432 H 891.568 -5.29029 -4.50726 0
M  V30 9433 H 894.759 -3.3682 -3.25069 0
M  V30 9434 H 894.932 -4.83458 -4.31477 0
M  V30 9435 N 888.338 1.20213 -1.01915 0
M  V30 9436 C 889.584 1.89928 -0.711007 0
M  V30 9437 C 889.917 1.7881 0.75767 0
M  V30 9438 O 889.192 1.17399 1.55073 0
M  V30 9439 C 889.475 3.41225 -1.15053 0
M  V30 9440 C 889.328 3.61264 -2.67971 0
M  V30 9441 C 890.647 4.34108 -0.72377 0
M  V30 9442 H 887.766 0.689702 -0.259768 0
M  V30 9443 H 890.408 1.41557 -1.26734 0
M  V30 9444 H 888.558 3.82552 -0.677199 0
M  V30 9445 H 890.23 3.29173 -3.23176 0
M  V30 9446 H 888.473 3.04647 -3.08824 0
M  V30 9447 H 889.144 4.67331 -2.93779 0
M  V30 9448 H 891.62 4.00442 -1.13073 0
M  V30 9449 H 890.496 5.38581 -1.05931 0
M  V30 9450 H 890.757 4.40512 0.374424 0
M  V30 9451 N 889.816 0.795718 1.36037 0
M  V30 9452 C 890.763 0.196548 2.29962 0
M  V30 9453 C 891.733 -0.663213 1.52285 0
M  V30 9454 O 892.918 -0.610574 1.80767 0
M  V30 9455 C 890.058 -0.657639 3.38776 0
M  V30 9456 C 889.171 0.221358 4.31433 0
M  V30 9457 C 888.306 -0.6398 5.27333 0
M  V30 9458 C 887.345 0.240265 6.11628 0
M  V30 9459 N 886.482 -0.580237 6.99698 0
M  V30 9460 H 891.322 1.00295 2.80615 0
M  V30 9461 H 888.859 0.506147 1.38118 0
M  V30 9462 H 890.817 -1.16793 4.00519 0
M  V30 9463 H 889.447 -1.42941 2.89426 0
M  V30 9464 H 888.499 0.84967 3.70789 0
M  V30 9465 H 889.811 0.899195 4.90628 0
M  V30 9466 H 888.965 -1.21566 5.94396 0
M  V30 9467 H 887.704 -1.35124 4.68607 0
M  V30 9468 H 886.709 0.828474 5.43522 0
M  V30 9469 H 887.934 0.949403 6.72431 0
M  V30 9470 H 885.88 -1.27585 6.43473 0
M  V30 9471 H 885.797 0.0397853 7.5599 0
M  V30 9472 H 887.065 -1.13972 7.71123 0
M  V30 9473 N 891.294 -1.47756 0.548274 0
M  V30 9474 C 892.244 -2.26891 -0.224628 0
M  V30 9475 C 893.228 -1.33816 -0.893421 0
M  V30 9476 O 894.42 -1.58232 -0.793204 0
M  V30 9477 C 891.549 -3.19358 -1.25959 0
M  V30 9478 C 890.635 -4.1991 -0.594662 0
M  V30 9479 N 891.026 -5.04721 0.330148 0
M  V30 9480 C 889.324 -4.37832 -0.849672 0
M  V30 9481 C 890.025 -5.77282 0.71553 0
M  V30 9482 N 889.001 -5.43552 0.0723997 0
M  V30 9483 H 892.803 -2.89844 0.486561 0
M  V30 9484 H 890.317 -1.58185 0.367577 0
M  V30 9485 H 892.314 -3.74726 -1.82718 0
M  V30 9486 H 890.974 -2.57961 -1.97196 0
M  V30 9487 H 891.985 -5.13095 0.703811 0
M  V30 9488 H 888.662 -3.87612 -1.55123 0
M  V30 9489 H 890.052 -6.55512 1.47493 0
M  V30 9490 N 892.772 -0.284283 -1.55015 0
M  V30 9491 C 893.704 0.63258 -2.20298 0
M  V30 9492 C 894.717 1.11045 -1.1905 0
M  V30 9493 O 895.906 1.03078 -1.4573 0
M  V30 9494 C 893.006 1.87599 -2.82241 0
M  V30 9495 C 892.179 1.5434 -4.09265 0
M  V30 9496 C 891.238 2.64023 -4.55169 0
M  V30 9497 O 890.264 2.29821 -5.20741 0
M  V30 9498 N 891.466 3.94255 -4.26079 0
M  V30 9499 H 894.231 0.0737928 -2.99609 0
M  V30 9500 H 891.792 -0.105767 -1.61554 0
M  V30 9501 H 893.784 2.60289 -3.0989 0
M  V30 9502 H 892.354 2.3436 -2.06868 0
M  V30 9503 H 891.574 0.649912 -3.88806 0
M  V30 9504 H 892.862 1.29634 -4.92009 0
M  V30 9505 H 892.26 4.24859 -3.73512 0
M  V30 9506 H 890.817 4.63295 -4.58477 0
M  V30 9507 O 894.289 1.608 -0.150255 0
M  V30 9508 H 894.98 1.88563 0.443155 0
M  V30 END ATOM
M  V30 BEGIN BOND
M  V30 END BOND
M  V30 END CTAB
M  END
$$$$
