drugbank_target|Q9HB40 Retinoid-inducible serine carboxypeptidase (DB07506)
 OpenBabel12092120443D

  0  0  0     0  0            999 V3000
M  V30 BEGIN CTAB
M  V30 COUNTS 7144 7234 0 0 0
M  V30 BEGIN ATOM
M  V30 1 H -0.908 1.98254 -0.117106 0
M  V30 2 N 0 1.576 0 0
M  V30 3 C 0.933 2.03868 1.02534 0
M  V30 4 C 1.911 0.928543 1.3348 0
M  V30 5 O 3.095 1.19667 1.45644 0
M  V30 6 C 0.222 2.43627 2.35294 0
M  V30 7 C -0.732 3.65373 2.2001 0
M  V30 8 S 0.101 5.13292 1.52614 0
M  V30 9 C 1.257 5.56322 2.86805 0
M  V30 10 H 1.49 2.90518 0.631377 0
M  V30 11 H -0.977 1.52953 0.210867 0
M  V30 12 H 0.981 2.67203 3.11629 0
M  V30 13 H -0.358 1.57376 2.7183 0
M  V30 14 H -1.165 3.90944 3.18086 0
M  V30 15 H -1.563 3.418 1.51819 0
M  V30 16 H 0.729 5.58782 3.83104 0
M  V30 17 H 1.672 6.56266 2.65933 0
M  V30 18 H 2.08 4.83886 2.90714 0
M  V30 19 N 1.4781 -0.272755 1.55222 0
M  V30 20 C 2.3881 -1.35918 1.91216 0
M  V30 21 C 3.4041 -1.54026 0.809436 0
M  V30 22 O 4.5801 -1.68148 1.10852 0
M  V30 23 C 1.6451 -2.69834 2.17693 0
M  V30 24 C 0.7061 -2.6047 3.41253 0
M  V30 25 C -0.0609 -3.88 3.66458 0
M  V30 26 O 0.1621 -4.88693 2.94169 0
M  V30 27 O -0.9039 -3.88189 4.59992 0
M  V30 28 H 2.9221 -1.0839 2.83699 0
M  V30 29 H 0.5071 -0.471301 1.41771 0
M  V30 30 H 2.3891 -3.49017 2.36147 0
M  V30 31 H 1.0641 -2.97148 1.28392 0
M  V30 32 H -0.0289 -1.79663 3.28134 0
M  V30 33 H 1.3041 -2.38106 4.30774 0
M  V30 34 N 2.9562 -1.48159 -0.537278 0
M  V30 35 C 3.8862 -1.65029 -1.6519 0
M  V30 36 C 4.8672 -0.499281 -1.62607 0
M  V30 37 O 6.0522 -0.730972 -1.79918 0
M  V30 38 C 3.1822 -1.68303 -3.03795 0
M  V30 39 C 2.1362 -2.8283 -3.21234 0
M  V30 40 C 1.4622 -2.71189 -4.60826 0
M  V30 41 C 2.7622 -4.24211 -3.04701 0
M  V30 42 H 4.4562 -2.58341 -1.51328 0
M  V30 43 H 2.0022 -1.24325 -0.726585 0
M  V30 44 H 3.9552 -1.78693 -3.81637 0
M  V30 45 H 2.6792 -0.715635 -3.18663 0
M  V30 46 H 1.3382 -2.71983 -2.45807 0
M  V30 47 H 0.9862 -1.72435 -4.7252 0
M  V30 48 H 0.6862 -3.48035 -4.7344 0
M  V30 49 H 2.2102 -2.83537 -5.40777 0
M  V30 50 H 3.6242 -4.3593 -3.72341 0
M  V30 51 H 2.0212 -5.01998 -3.28813 0
M  V30 52 H 3.0912 -4.41184 -2.01209 0
M  V30 53 N 4.4343 0.785586 -1.36625 0
M  V30 54 C 5.3973 1.87999 -1.31107 0
M  V30 55 C 6.3973 1.59316 -0.217959 0
M  V30 56 O 7.5873 1.67656 -0.472977 0
M  V30 57 C 4.7193 3.24861 -1.03334 0
M  V30 58 H 5.9123 1.94307 -2.2844 0
M  V30 59 H 3.4653 0.983813 -1.21453 0
M  V30 60 H 4.2003 3.24235 -0.0647432 0
M  V30 61 H 3.9853 3.4707 -1.82441 0
M  V30 62 H 5.4753 4.04929 -1.02088 0
M  V30 63 N 5.9124 1.20967 1.01018 0
M  V30 64 C 6.8424 0.988272 2.11555 0
M  V30 65 C 7.8234 -0.0849778 1.69888 0
M  V30 66 O 9.0084 0.0738202 1.9406 0
M  V30 67 C 6.1384 0.546528 3.42973 0
M  V30 68 C 5.0924 1.56375 3.9841 0
M  V30 69 C 4.4184 0.97842 5.25672 0
M  V30 70 C 5.7184 2.94922 4.31066 0
M  V30 71 H 7.4124 1.91276 2.30334 0
M  V30 72 H 4.9584 0.921073 1.1069 0
M  V30 73 H 6.9114 0.378839 4.19694 0
M  V30 74 H 5.6354 -0.413598 3.23971 0
M  V30 75 H 4.2944 1.71891 3.23804 0
M  V30 76 H 3.9424 0.0101688 5.02999 0
M  V30 77 H 3.6424 1.65784 5.63728 0
M  V30 78 H 5.1664 0.821939 6.05043 0
M  V30 79 H 6.5804 2.8288 4.9865 0
M  V30 80 H 4.9774 3.5983 4.80253 0
M  V30 81 H 6.0474 3.4616 3.39561 0
M  V30 82 N 7.3905 -1.2043 1.01659 0
M  V30 83 C 8.8065 -1.41852 0.731442 0
M  V30 84 C 9.0065 -1.89358 -0.688898 0
M  V30 85 O 8.0625 -2.06247 -1.45666 0
M  V30 86 C 9.3755 -2.44019 1.75714 0
M  V30 87 C 10.9235 -2.57785 1.77527 0
M  V30 88 C 11.3985 -3.63194 2.79023 0
M  V30 89 N 12.8895 -3.70678 2.77763 0
M  V30 90 C 13.6245 -4.51897 3.52954 0
M  V30 91 N 13.1205 -5.36921 4.37821 0
M  V30 92 N 14.9135 -4.4643 3.41551 0
M  V30 93 H 7.0645 -0.879093 1.93354 0
M  V30 94 H 9.3275 -0.448425 0.835236 0
M  V30 95 H 9.0335 -2.1611 2.77469 0
M  V30 96 H 8.9075 -3.43007 1.56927 0
M  V30 97 H 11.2945 -2.85023 0.764569 0
M  V30 98 H 11.3755 -1.58992 2.00387 0
M  V30 99 H 11.0195 -3.36699 3.80258 0
M  V30 100 H 10.9495 -4.61609 2.53425 0
M  V30 101 H 13.4405 -3.09944 2.16201 0
M  V30 102 H 13.7535 -5.95981 4.91962 0
M  V30 103 H 12.0985 -5.36424 4.41899 0
M  V30 104 H 15.2895 -3.79042 2.74672 0
M  V30 105 H 15.4625 -5.09491 4.00404 0
M  V30 106 N 8.8686 -0.792821 -1.36206 0
M  V30 107 C 10.2846 -0.474903 -1.52371 0
M  V30 108 C 10.4846 1.00622 -1.74578 0
M  V30 109 O 9.5406 1.79162 -1.77924 0
M  V30 110 C 10.8536 -1.3083 -2.70747 0
M  V30 111 C 12.4016 -1.30234 -2.84619 0
M  V30 112 C 12.8766 -2.11956 -4.06004 0
M  V30 113 N 14.3676 -2.09419 -4.13156 0
M  V30 114 C 15.1026 -2.69419 -5.06163 0
M  V30 115 N 14.5986 -3.3829 -6.04592 0
M  V30 116 N 16.3916 -2.59134 -4.98804 0
M  V30 117 H 8.5426 -1.75222 -1.20046 0
M  V30 118 H 10.8056 -0.745024 -0.586211 0
M  V30 119 H 10.5116 -2.35881 -2.6087 0
M  V30 120 H 10.3856 -0.95196 -3.6499 0
M  V30 121 H 12.7726 -0.259748 -2.93955 0
M  V30 122 H 12.8536 -1.69847 -1.91274 0
M  V30 123 H 12.4976 -3.16248 -3.97429 0
M  V30 124 H 12.4276 -1.69711 -4.98503 0
M  V30 125 H 14.9186 -1.59297 -3.42685 0
M  V30 126 H 15.2316 -3.81394 -6.7213 0
M  V30 127 H 13.5766 -3.42393 -6.04807 0
M  V30 128 H 16.7676 -2.04927 -4.20859 0
M  V30 129 H 16.9406 -3.06185 -5.711 0
M  V30 130 N 10.3467 1.47872 -0.545128 0
M  V30 131 C 11.5717 2.07391 -0.0190611 0
M  V30 132 C 11.9967 1.39688 1.25971 0
M  V30 133 O 11.3547 0.467816 1.7516 0
M  V30 134 C 11.4027 3.60188 0.172335 0
M  V30 135 O 10.5067 3.9339 1.23766 0
M  V30 136 H 9.8477 0.662411 -0.0459059 0
M  V30 137 H 12.3777 1.90066 -0.757365 0
M  V30 138 H 12.3877 4.06129 0.390305 0
M  V30 139 H 11.0627 4.08865 -0.761725 0
M  V30 140 H 9.6397 3.5921 1.00114 0
M  V30 141 N 11.8248 0.280983 1.55075 0
M  V30 142 C 13.2358 -0.215629 1.85451 0
M  V30 143 C 13.5868 -1.54991 1.203 0
M  V30 144 O 12.7118 -2.10699 0.493435 0
M  V30 145 C 13.3068 -0.398026 3.36454 0
M  V30 146 C 11.8658 -0.838866 3.66933 0
M  V30 147 C 11.0128 0.064458 2.77225 0
M  V30 148 H 13.9638 0.502601 1.50531 0
M  V30 149 H 13.9848 -1.23569 3.59876 0
M  V30 150 H 13.4968 0.573241 3.83843 0
M  V30 151 H 11.5978 -1.8214 3.25048 0
M  V30 152 H 11.7108 -0.672123 4.74362 0
M  V30 153 H 10.0748 -0.452863 2.50642 0
M  V30 154 H 10.8578 1.03172 3.2743 0
M  V30 155 N 13.3029 -1.57598 0.00835791 0
M  V30 156 C 14.5489 -1.91211 -0.675732 0
M  V30 157 C 14.8819 -0.883139 -1.72958 0
M  V30 158 O 14.1569 0.097016 -1.94258 0
M  V30 159 C 14.4399 -3.35379 -1.31123 0
M  V30 160 C 14.2929 -4.48999 -0.268356 0
M  V30 161 C 15.6119 -3.7912 -2.23508 0
M  V30 162 H 12.7309 -0.695374 -0.244179 0
M  V30 163 H 15.3729 -1.89901 0.0613655 0
M  V30 164 H 13.5229 -3.36626 -1.93946 0
M  V30 165 H 15.1949 -4.59887 0.360844 0
M  V30 166 H 13.4379 -4.31873 0.408482 0
M  V30 167 H 14.1089 -5.46851 -0.752218 0
M  V30 168 H 16.5849 -3.79477 -1.70693 0
M  V30 169 H 15.4609 -4.80729 -2.64936 0
M  V30 170 H 15.7219 -3.13455 -3.11766 0
M  V30 171 N 14.781 0.264519 -1.55364 0
M  V30 172 C 16.192 0.834936 -1.6699 0
M  V30 173 C 16.543 1.86718 -0.602552 0
M  V30 174 O 15.668 2.14899 0.254425 0
M  V30 175 C 16.263 1.5212 -3.02729 0
M  V30 176 C 14.822 2.03954 -3.16354 0
M  V30 177 C 13.969 0.884498 -2.62815 0
M  V30 178 H 16.92 0.0406869 -1.58648 0
M  V30 179 H 16.941 2.38853 -2.96191 0
M  V30 180 H 16.453 0.769668 -3.80392 0
M  V30 181 H 14.554 2.82041 -2.43482 0
M  V30 182 H 14.667 2.24902 -4.23032 0
M  V30 183 H 13.031 1.2802 -2.20188 0
M  V30 184 H 13.814 0.14634 -3.42988 0
M  V30 185 N 16.2591 1.48442 0.529413 0
M  V30 186 C 17.6751 1.34575 0.858004 0
M  V30 187 C 17.8751 0.3572 1.98309 0
M  V30 188 O 16.9311 -0.221379 2.51528 0
M  V30 189 C 18.2441 2.74617 1.22499 0
M  V30 190 C 19.7921 2.83109 1.33484 0
M  V30 191 C 20.2671 4.23854 1.73526 0
M  V30 192 N 21.7581 4.2653 1.80628 0
M  V30 193 C 22.4931 5.32372 2.12997 0
M  V30 194 N 21.9891 6.48491 2.43786 0
M  V30 195 N 23.7821 5.19766 2.14008 0
M  V30 196 H 15.9331 2.1133 -0.212925 0
M  V30 197 H 18.1961 0.947439 -0.0326199 0
M  V30 198 H 17.9021 3.4852 0.471905 0
M  V30 199 H 17.7761 3.08177 2.17501 0
M  V30 200 H 20.1631 2.09462 2.0787 0
M  V30 201 H 20.2441 2.53168 0.366027 0
M  V30 202 H 19.8881 4.98018 0.997013 0
M  V30 203 H 19.8181 4.5124 2.71459 0
M  V30 204 H 22.3091 3.42772 1.59108 0
M  V30 205 H 22.6221 7.24993 2.67592 0
M  V30 206 H 20.9671 6.51765 2.41304 0
M  V30 207 H 24.1581 4.28066 1.89412 0
M  V30 208 H 24.3311 6.02354 2.38902 0
M  V30 209 N 17.7372 -0.778329 1.37039 0
M  V30 210 C 18.9832 -1.53817 1.33086 0
M  V30 211 C 19.3382 -1.92208 -0.0860346 0
M  V30 212 O 18.6312 -1.60713 -1.04316 0
M  V30 213 C 18.8252 -2.81845 2.19768 0
M  V30 214 C 18.6542 -2.55967 3.69744 0
M  V30 215 C 17.4242 -2.50428 4.38878 0
M  V30 216 C 19.6222 -2.2441 4.62758 0
M  V30 217 N 17.6042 -2.16564 5.74433 0
M  V30 218 C 18.9752 -2.0063 5.86641 0
M  V30 219 C 21.0302 -2.1051 4.5121 0
M  V30 220 C 19.7332 -1.64354 7.00272 0
M  V30 221 C 21.7592 -1.75634 5.64718 0
M  V30 222 C 21.1212 -1.52709 6.87648 0
M  V30 223 H 17.2202 -0.563434 0.542279 0
M  V30 224 H 19.8042 -0.908617 1.72198 0
M  V30 225 H 17.9752 -3.42649 1.82883 0
M  V30 226 H 19.7072 -3.47682 2.07122 0
M  V30 227 H 16.4622 -2.66056 3.91805 0
M  V30 228 H 16.8862 -2.02348 6.46053 0
M  V30 229 H 21.5282 -2.26919 3.56746 0
M  V30 230 H 19.2462 -1.46683 7.94676 0
M  V30 231 H 22.8322 -1.65546 5.57751 0
M  V30 232 H 21.7122 -1.2612 7.73992 0
M  V30 233 N 19.2153 -1.21501 -1.00376 0
M  V30 234 C 20.1453 -0.999478 -2.11028 0
M  V30 235 C 21.1263 0.0759671 -1.6993 0
M  V30 236 O 22.3113 -0.0841106 -1.94018 0
M  V30 237 C 19.4413 -0.564709 -3.42678 0
M  V30 238 C 18.3953 -1.58486 -3.97576 0
M  V30 239 C 17.7213 -1.00628 -5.25146 0
M  V30 240 C 19.0213 -2.97204 -4.29496 0
M  V30 241 H 20.7153 -1.92495 -2.29317 0
M  V30 242 H 18.2613 -0.92693 -1.102 0
M  V30 243 H 20.2143 -0.401091 -4.19487 0
M  V30 244 H 18.9383 0.396411 -3.24185 0
M  V30 245 H 17.5973 -1.73606 -3.22888 0
M  V30 246 H 17.2453 -0.0368439 -5.02987 0
M  V30 247 H 16.9453 -1.68771 -5.62841 0
M  V30 248 H 18.4693 -0.854015 -6.04598 0
M  V30 249 H 19.8833 -2.8552 -4.97143 0
M  V30 250 H 18.2803 -3.62372 -4.78338 0
M  V30 251 H 19.3503 -3.47956 -3.3772 0
M  V30 252 N 20.6934 1.19889 -1.02296 0
M  V30 253 C 21.6234 2.25141 -0.619174 0
M  V30 254 C 22.6044 1.66051 0.368915 0
M  V30 255 O 23.7894 1.92546 0.252941 0
M  V30 256 C 20.9194 3.4728 0.0368783 0
M  V30 257 C 19.8734 4.19005 -0.872865 0
M  V30 258 C 19.1994 5.34637 -0.0822402 0
M  V30 259 C 20.4994 4.74452 -2.18387 0
M  V30 260 H 22.1934 2.59171 -1.49903 0
M  V30 261 H 19.7394 1.24579 -0.722222 0
M  V30 262 H 21.6924 4.20098 0.330958 0
M  V30 263 H 20.4164 3.12433 0.95149 0
M  V30 264 H 19.0754 3.48061 -1.15105 0
M  V30 265 H 18.7234 4.96034 0.83422 0
M  V30 266 H 18.4234 5.83557 -0.688149 0
M  V30 267 H 19.9474 6.10255 0.205238 0
M  V30 268 H 21.3614 5.39055 -1.95172 0
M  V30 269 H 19.7584 5.33834 -2.74119 0
M  V30 270 H 20.8284 3.92844 -2.84257 0
M  V30 271 N 22.1715 0.800033 1.35784 0
M  V30 272 C 23.1015 0.220184 2.3246 0
M  V30 273 C 24.0825 -0.65073 1.57161 0
M  V30 274 O 25.2675 -0.582359 1.85263 0
M  V30 275 C 22.3975 -0.637353 3.41402 0
M  V30 276 C 21.3515 0.134531 4.27789 0
M  V30 277 C 20.6775 -0.844285 5.27992 0
M  V30 278 C 21.9775 1.32979 5.05088 0
M  V30 279 H 23.6715 1.02787 2.81203 0
M  V30 280 H 21.2175 0.495717 1.35199 0
M  V30 281 H 23.1705 -1.05302 4.08031 0
M  V30 282 H 21.8945 -1.47785 2.91251 0
M  V30 283 H 20.5535 0.531296 3.6273 0
M  V30 284 H 20.2015 -1.68011 4.74111 0
M  V30 285 H 19.9015 -0.332184 5.8666 0
M  V30 286 H 21.4255 -1.2583 5.97494 0
M  V30 287 H 22.8395 0.98934 5.64699 0
M  V30 288 H 21.2365 1.77593 5.7322 0
M  V30 289 H 22.3065 2.11978 4.36111 0
M  V30 290 N 23.6496 -1.47581 0.552962 0
M  V30 291 C 24.5796 -2.32762 -0.185451 0
M  V30 292 C 25.5606 -1.43527 -0.912905 0
M  V30 293 O 26.7456 -1.72388 -0.894201 0
M  V30 294 C 23.8756 -3.25219 -1.21859 0
M  V30 295 C 22.8296 -4.23661 -0.607864 0
M  V30 296 C 22.1556 -5.05413 -1.74533 0
M  V30 297 C 23.4556 -5.20481 0.435582 0
M  V30 298 H 25.1496 -2.94749 0.525684 0
M  V30 299 H 22.6956 -1.41738 0.254251 0
M  V30 300 H 24.6486 -3.8365 -1.7433 0
M  V30 301 H 23.3726 -2.61279 -1.95961 0
M  V30 302 H 22.0316 -3.66451 -0.104489 0
M  V30 303 H 21.6796 -4.3788 -2.47529 0
M  V30 304 H 21.3796 -5.72059 -1.34249 0
M  V30 305 H 22.9036 -5.66701 -2.27338 0
M  V30 306 H 24.3176 -5.733 -0.00290157 0
M  V30 307 H 22.7146 -5.95305 0.757067 0
M  V30 308 H 23.7846 -4.66217 1.33303 0
M  V30 309 N 25.1277 -0.289203 -1.54924 0
M  V30 310 C 26.5387 0.205791 -1.85562 0
M  V30 311 C 26.8897 1.54351 -1.2112 0
M  V30 312 O 26.0147 2.10435 -0.504601 0
M  V30 313 C 26.6097 0.380177 -3.3666 0
M  V30 314 C 25.1687 0.819395 -3.67373 0
M  V30 315 C 24.3157 -0.079159 -2.77187 0
M  V30 316 H 27.2667 -0.510577 -1.50262 0
M  V30 317 H 27.2877 1.21659 -3.60526 0
M  V30 318 H 26.7997 -0.593589 -3.83534 0
M  V30 319 H 24.9007 1.80413 -3.26009 0
M  V30 320 H 25.0137 0.646957 -4.74712 0
M  V30 321 H 23.3777 0.439565 -2.50878 0
M  V30 322 H 24.1607 -1.04906 -3.26878 0
M  V30 323 N 26.6058 1.57591 -0.0167156 0
M  V30 324 C 27.5358 2.12496 0.967858 0
M  V30 325 C 28.5168 1.03807 1.34752 0
M  V30 326 O 29.7018 1.31577 1.42833 0
M  V30 327 C 26.8318 2.64194 2.25431 0
M  V30 328 C 25.7858 3.77559 2.01576 0
M  V30 329 C 25.1118 4.15636 3.36379 0
M  V30 330 C 26.4118 5.04151 1.36489 0
M  V30 331 H 28.1058 2.95013 0.510643 0
M  V30 332 H 25.6518 1.41915 0.244181 0
M  V30 333 H 27.6048 3.01236 2.94678 0
M  V30 334 H 26.3288 1.78821 2.73296 0
M  V30 335 H 24.9878 3.40937 1.34751 0
M  V30 336 H 24.6358 3.27263 3.81979 0
M  V30 337 H 24.3358 4.92022 3.21229 0
M  V30 338 H 25.8598 4.5525 4.06915 0
M  V30 339 H 27.2738 5.38857 1.95718 0
M  V30 340 H 25.6708 5.85453 1.31776 0
M  V30 341 H 26.7408 4.83733 0.336219 0
M  V30 342 N 28.0839 -0.256276 1.55502 0
M  V30 343 C 29.0139 -1.32102 1.92539 0
M  V30 344 C 29.9949 -1.50684 0.789194 0
M  V30 345 O 31.1799 -1.63449 1.04872 0
M  V30 346 C 28.3099 -2.67752 2.21192 0
M  V30 347 C 27.2639 -2.63878 3.36975 0
M  V30 348 C 26.5899 -4.03236 3.51147 0
M  V30 349 C 27.8899 -2.21682 4.72921 0
M  V30 350 H 29.5839 -1.01351 2.81724 0
M  V30 351 H 27.1299 -0.486105 1.35547 0
M  V30 352 H 29.0829 -3.42365 2.45691 0
M  V30 353 H 27.8069 -3.0012 1.28824 0
M  V30 354 H 26.4659 -1.91722 3.12471 0
M  V30 355 H 26.1139 -4.32854 2.56216 0
M  V30 356 H 25.8139 -4.01535 4.29003 0
M  V30 357 H 27.3379 -4.79563 3.77957 0
M  V30 358 H 28.7519 -2.86023 4.96854 0
M  V30 359 H 27.1489 -2.3111 5.53812 0
M  V30 360 H 28.2189 -1.16833 4.70615 0
M  V30 361 N 29.562 -1.4872 -0.521534 0
M  V30 362 C 30.492 -1.66771 -1.63431 0
M  V30 363 C 31.473 -0.516499 -1.62069 0
M  V30 364 O 32.658 -0.750013 -1.79132 0
M  V30 365 C 29.788 -1.71515 -3.01993 0
M  V30 366 C 28.742 -2.86222 -3.18216 0
M  V30 367 C 28.068 -2.76061 -4.57924 0
M  V30 368 C 29.368 -4.27419 -3.00184 0
M  V30 369 H 31.062 -2.59932 -1.48579 0
M  V30 370 H 28.608 -1.25089 -0.713358 0
M  V30 371 H 30.561 -1.82731 -3.7972 0
M  V30 372 H 29.285 -0.749393 -3.17886 0
M  V30 373 H 27.944 -2.74575 -2.42908 0
M  V30 374 H 27.592 -1.77437 -4.70665 0
M  V30 375 H 27.292 -3.53037 -4.69722 0
M  V30 376 H 28.816 -2.89256 -5.37739 0
M  V30 377 H 30.23 -4.39855 -3.67697 0
M  V30 378 H 28.627 -5.05458 -3.2347 0
M  V30 379 H 29.697 -4.43293 -1.96518 0
M  V30 380 N 31.0401 0.771051 -1.3745 0
M  V30 381 C 32.2881 1.52661 -1.32435 0
M  V30 382 C 32.6091 1.9479 0.0905024 0
M  V30 383 O 31.8791 1.66348 1.03466 0
M  V30 384 H 30.4591 0.566218 -0.487244 0
M  V30 385 H 33.1211 0.917636 -1.71946 0
M  V30 386 H 32.2171 2.42568 -1.96385 0
M  V30 387 N 32.5182 1.22032 0.997298 0
M  V30 388 C 33.4482 1.01065 2.10495 0
M  V30 389 C 34.4292 -0.0669542 1.69968 0
M  V30 390 O 35.6142 0.0943987 1.9397 0
M  V30 391 C 32.7442 0.582874 3.42374 0
M  V30 392 C 31.6982 1.60592 3.96729 0
M  V30 393 C 31.0242 1.03412 5.24605 0
M  V30 394 C 32.3242 2.99478 4.27914 0
M  V30 395 H 34.0182 1.93708 2.28292 0
M  V30 396 H 31.5642 0.932761 1.09707 0
M  V30 397 H 33.5172 0.423332 4.19268 0
M  V30 398 H 32.2412 -0.379213 3.24391 0
M  V30 399 H 30.9002 1.75316 3.21963 0
M  V30 400 H 30.5482 0.063518 5.0296 0
M  V30 401 H 30.2482 1.71754 5.61938 0
M  V30 402 H 31.7722 0.886066 6.04137 0
M  V30 403 H 33.1862 2.88153 4.95622 0
M  V30 404 H 31.5832 3.64903 4.76409 0
M  V30 405 H 32.6532 3.49742 3.3587 0
M  V30 406 N 33.9963 -1.19345 1.0293 0
M  V30 407 C 34.9443 -2.24621 0.604001 0
M  V30 408 C 35.9383 -1.65452 -0.363587 0
M  V30 409 O 37.1443 -1.78497 -0.23212 0
M  V30 410 H 33.5193 -0.730858 0.177061 0
M  V30 411 H 35.4903 -2.5781 1.50255 0
M  V30 412 C 34.2393 -3.47688 -0.0289127 0
M  V30 413 H 33.5623 -3.93505 0.706651 0
M  V30 414 H 35.0023 -4.23011 -0.289432 0
M  V30 415 C 33.4613 -3.11817 -1.2756 0
M  V30 416 O 33.9913 -3.2451 -2.36762 0
M  V30 417 N 32.1973 -2.66246 -1.16453 0
M  V30 418 H 31.7443 -2.56118 -0.275914 0
M  V30 419 H 31.7023 -2.42617 -1.99961 0
M  V30 420 N 35.4744 -0.807222 -1.35358 0
M  V30 421 C 36.4374 -0.223665 -2.28106 0
M  V30 422 C 37.4374 0.589354 -1.4961 0
M  V30 423 O 38.6274 0.407745 -1.69361 0
M  V30 424 C 35.7594 0.688149 -3.33882 0
M  V30 425 H 36.9524 -1.04169 -2.81227 0
M  V30 426 H 34.5054 -0.577921 -1.45223 0
M  V30 427 H 35.2404 1.52984 -2.85948 0
M  V30 428 H 35.0254 0.10687 -3.91954 0
M  V30 429 H 36.5154 1.09075 -4.03104 0
M  V30 430 N 36.9525 1.47285 -0.560781 0
M  V30 431 C 38.2005 2.02064 -0.0379868 0
M  V30 432 C 38.5215 1.43711 1.31803 0
M  V30 433 O 37.7915 0.61362 1.86042 0
M  V30 434 H 36.3715 0.746918 -0.0110531 0
M  V30 435 H 39.0335 1.80648 -0.731598 0
M  V30 436 H 38.1295 3.12064 0.0474463 0
M  V30 437 N 38.4306 0.297415 1.54768 0
M  V30 438 C 39.3936 -0.567375 2.22066 0
M  V30 439 C 40.3936 -1.06409 1.20556 0
M  V30 440 O 41.5836 -0.960691 1.45315 0
M  V30 441 C 38.7156 -1.78517 2.90421 0
M  V30 442 H 39.9086 0.0205534 2.99893 0
M  V30 443 H 37.4616 0.0482163 1.56226 0
M  V30 444 H 38.1966 -2.41303 2.16664 0
M  V30 445 H 37.9816 -1.43669 3.64831 0
M  V30 446 H 39.4716 -2.39964 3.41771 0
M  V30 447 N 39.9087 -1.5758 0.0250728 0
M  V30 448 C 41.1547 -1.91917 -0.655413 0
M  V30 449 C 41.4877 -0.901433 -1.72011 0
M  V30 450 O 40.7627 0.0764069 -1.9435 0
M  V30 451 C 41.0457 -3.36751 -1.27558 0
M  V30 452 C 40.8987 -4.49258 -0.220719 0
M  V30 453 C 42.2177 -3.81469 -2.19475 0
M  V30 454 H 39.3367 -0.697925 -0.23679 0
M  V30 455 H 41.9787 -1.89825 0.0815036 0
M  V30 456 H 40.1287 -3.38664 -1.90365 0
M  V30 457 H 41.8007 -4.59478 0.409601 0
M  V30 458 H 40.0437 -4.31415 0.454264 0
M  V30 459 H 40.7147 -5.47618 -0.694175 0
M  V30 460 H 43.1907 -3.81266 -1.66659 0
M  V30 461 H 42.0667 -4.83512 -2.59822 0
M  V30 462 H 42.3277 -3.16744 -3.08424 0
M  V30 463 N 41.3868 0.248026 -1.55636 0
M  V30 464 C 42.6358 0.974134 -1.76617 0
M  V30 465 C 42.9488 1.86528 -0.588796 0
M  V30 466 O 44.1548 2.62805 -0.681594 0
M  V30 467 C 42.6108 1.78213 -3.12679 0
M  V30 468 C 42.2188 0.93843 -4.38061 0
M  V30 469 C 43.9628 2.50104 -3.42999 0
M  V30 470 C 41.8698 1.74225 -5.65155 0
M  V30 471 H 40.7998 0.36745 -0.658405 0
M  V30 472 H 43.4508 0.22884 -1.82067 0
M  V30 473 H 41.8328 2.56933 -3.01333 0
M  V30 474 H 43.0068 0.193635 -4.60393 0
M  V30 475 H 41.3218 0.332905 -4.15067 0
M  V30 476 H 43.9188 3.10694 -4.3517 0
M  V30 477 H 44.2618 3.21662 -2.64271 0
M  V30 478 H 44.7948 1.78395 -3.55556 0
M  V30 479 H 41.5338 1.07043 -6.46701 0
M  V30 480 H 41.0538 2.46235 -5.46926 0
M  V30 481 H 42.7328 2.30967 -6.0437 0
M  V30 482 N 42.8649 1.48995 0.513639 0
M  V30 483 C 44.1419 1.48338 1.27495 0
M  V30 484 C 44.5219 0.204065 2.10111 0
M  V30 485 O 43.8699 -0.813881 2.13514 0
M  V30 486 C 44.0799 2.75498 2.14247 0
M  V30 487 C 45.4279 3.24484 2.73852 0
M  V30 488 O 46.4519 2.76528 2.24523 0
M  V30 489 O 45.3109 4.07974 3.6362 0
M  V30 490 H 42.4049 0.593149 0.576284 0
M  V30 491 H 44.9509 1.61246 0.528948 0
M  V30 492 H 43.7229 3.60109 1.53092 0
M  V30 493 H 43.3459 2.6539 2.96064 0
M  V30 494 N 44.343 -0.763751 1.37857 0
M  V30 495 C 45.589 -1.52396 1.3471 0
M  V30 496 C 45.944 -1.92288 -0.0656435 0
M  V30 497 O 45.237 -1.6181 -1.02606 0
M  V30 498 C 45.431 -2.79499 2.22745 0
M  V30 499 C 45.26 -2.52031 3.72438 0
M  V30 500 C 44.03 -2.45759 4.4151 0
M  V30 501 C 46.228 -2.19489 4.65112 0
M  V30 502 N 44.21 -2.1046 5.76697 0
M  V30 503 C 45.581 -1.94396 5.88736 0
M  V30 504 C 47.636 -2.05712 4.53417 0
M  V30 505 C 46.339 -1.56917 7.01975 0
M  V30 506 C 48.365 -1.69634 5.66549 0
M  V30 507 C 47.727 -1.45407 6.89229 0
M  V30 508 H 43.826 -0.55765 0.548225 0
M  V30 509 H 46.41 -0.890302 1.73152 0
M  V30 510 H 44.581 -3.4069 1.86507 0
M  V30 511 H 46.313 -3.45465 2.10798 0
M  V30 512 H 43.068 -2.61885 3.94605 0
M  V30 513 H 43.492 -1.95484 6.48163 0
M  V30 514 H 48.134 -2.23123 3.59133 0
M  V30 515 H 45.852 -1.38246 7.96187 0
M  V30 516 H 49.438 -1.59621 5.59475 0
M  V30 517 H 48.318 -1.17904 7.75286 0
M  V30 518 N 45.8211 -1.22559 -0.990812 0
M  V30 519 C 47.2321 -1.04791 -1.54518 0
M  V30 520 C 47.5831 0.387998 -1.92325 0
M  V30 521 O 46.7081 1.27328 -1.74976 0
M  V30 522 C 47.3031 -1.896 -2.80779 0
M  V30 523 C 45.8621 -1.76124 -3.32652 0
M  V30 524 C 45.0091 -1.8594 -2.05722 0
M  V30 525 H 47.9601 -1.36374 -0.811662 0
M  V30 526 H 47.9811 -1.41464 -3.53225 0
M  V30 527 H 47.4931 -2.94101 -2.53231 0
M  V30 528 H 45.5941 -0.743643 -3.65104 0
M  V30 529 H 45.7071 -2.58913 -4.03114 0
M  V30 530 H 44.0711 -1.29403 -2.19379 0
M  V30 531 H 44.8541 -2.91976 -1.80568 0
M  V30 532 N 47.2992 1.18797 -1.03562 0
M  V30 533 C 48.5272 1.92599 -0.755869 0
M  V30 534 C 48.9422 1.75886 0.686271 0
M  V30 535 O 48.2992 1.08517 1.46732 0
M  V30 536 C 48.3502 3.44159 -1.10619 0
M  V30 537 O 48.0712 3.60341 -2.4917 0
M  V30 538 C 49.5722 4.3507 -0.850214 0
M  V30 539 H 46.7922 0.611587 -0.276048 0
M  V30 540 H 49.3362 1.50742 -1.38192 0
M  V30 541 H 47.4912 3.83823 -0.525194 0
M  V30 542 H 47.9052 4.54128 -2.62427 0
M  V30 543 H 49.3792 5.39989 -1.14523 0
M  V30 544 H 49.8562 4.38673 0.215176 0
M  V30 545 H 50.4622 4.01097 -1.41426 0
M  V30 546 N 48.7773 0.814389 1.34928 0
M  V30 547 C 49.6873 0.231978 2.3345 0
M  V30 548 C 50.7033 -0.629139 1.62228 0
M  V30 549 O 51.8793 -0.539052 1.94052 0
M  V30 550 C 48.9443 -0.603482 3.41407 0
M  V30 551 C 48.0053 0.279037 4.28392 0
M  V30 552 C 47.2383 -0.516643 5.31193 0
M  V30 553 O 47.4613 -1.75068 5.4287 0
M  V30 554 O 46.3953 0.0965652 6.01823 0
M  V30 555 H 50.2213 1.04721 2.85074 0
M  V30 556 H 47.8063 0.576343 1.37836 0
M  V30 557 H 49.6883 -1.07908 4.0735 0
M  V30 558 H 48.3633 -1.39618 2.92042 0
M  V30 559 H 47.2703 0.801948 3.65403 0
M  V30 560 H 48.6033 1.03588 4.81176 0
M  V30 561 N 50.2554 -1.46986 0.568584 0
M  V30 562 C 51.1654 -2.33942 -0.17555 0
M  V30 563 C 52.1814 -1.48891 -0.90041 0
M  V30 564 O 53.3574 -1.81794 -0.86676 0
M  V30 565 C 50.4224 -3.25811 -1.18524 0
M  V30 566 C 49.4834 -4.26757 -0.466582 0
M  V30 567 C 48.7164 -5.14236 -1.42817 0
M  V30 568 O 48.9394 -5.04379 -2.66379 0
M  V30 569 O 47.8734 -5.94412 -0.946453 0
M  V30 570 H 51.6994 -2.98896 0.538036 0
M  V30 571 H 49.2844 -1.4573 0.329097 0
M  V30 572 H 51.1664 -3.82527 -1.76779 0
M  V30 573 H 49.8414 -2.63471 -1.88055 0
M  V30 574 H 48.7484 -3.73769 0.157451 0
M  V30 575 H 50.0814 -4.91843 0.187485 0
M  V30 576 N 51.7335 -0.305618 -1.54608 0
M  V30 577 C 52.9815 0.301701 -1.99835 0
M  V30 578 C 53.3025 1.54054 -1.19551 0
M  V30 579 O 52.5725 1.93702 -0.292658 0
M  V30 580 H 51.1525 0.114468 -0.738178 0
M  V30 581 H 53.8145 -0.418016 -1.90364 0
M  V30 582 H 52.9105 0.570548 -3.06841 0
M  V30 583 N 53.2116 1.57565 -0.0334293 0
M  V30 584 C 54.1586 2.10478 0.946981 0
M  V30 585 C 55.1286 1.00787 1.32027 0
M  V30 586 O 56.3136 1.28232 1.41284 0
M  V30 587 C 53.4536 2.63994 2.22263 0
M  V30 588 C 52.5666 3.87709 1.90541 0
M  V30 589 C 51.7016 4.29604 3.12433 0
M  V30 590 C 50.7406 5.46065 2.76549 0
M  V30 591 N 49.8776 5.83096 3.9108 0
M  V30 592 H 54.7176 2.93963 0.488846 0
M  V30 593 H 52.2546 1.45296 0.22969 0
M  V30 594 H 54.2126 2.93114 2.96884 0
M  V30 595 H 52.8426 1.83333 2.65685 0
M  V30 596 H 51.8946 3.65291 1.06144 0
M  V30 597 H 53.2066 4.72403 1.60116 0
M  V30 598 H 52.3606 4.60182 3.9537 0
M  V30 599 H 51.0996 3.43685 3.46023 0
M  V30 600 H 50.1046 5.15176 1.92026 0
M  V30 601 H 51.3296 6.33685 2.44171 0
M  V30 602 H 49.2756 5.00132 4.24504 0
M  V30 603 H 49.1926 6.6244 3.64293 0
M  V30 604 H 50.4606 6.18282 4.74708 0
M  V30 605 N 54.6897 -0.239769 1.55765 0
M  V30 606 C 55.5997 -1.31831 1.94056 0
M  V30 607 C 56.6157 -1.52275 0.841925 0
M  V30 608 O 57.7917 -1.65759 1.14394 0
M  V30 609 C 54.8567 -2.65156 2.23368 0
M  V30 610 C 53.9177 -2.53173 3.46701 0
M  V30 611 C 53.1507 -3.8014 3.74606 0
M  V30 612 O 53.3737 -4.82343 3.04469 0
M  V30 613 O 52.3077 -3.78344 4.68123 0
M  V30 614 H 56.1337 -1.02347 2.85935 0
M  V30 615 H 53.7187 -0.441123 1.42739 0
M  V30 616 H 55.6007 -3.43929 2.43497 0
M  V30 617 H 54.2757 -2.94358 1.34666 0
M  V30 618 H 53.1827 -1.72662 3.31871 0
M  V30 619 H 54.5157 -2.28915 4.35728 0
M  V30 620 N 56.1678 -1.49265 -0.50573 0
M  V30 621 C 57.4138 -1.58748 -1.26202 0
M  V30 622 C 57.7468 -0.271227 -1.92297 0
M  V30 623 O 57.0218 0.724831 -1.80489 0
M  V30 624 C 57.3048 -2.74332 -2.33268 0
M  V30 625 C 57.1578 -4.15737 -1.71705 0
M  V30 626 C 58.4768 -2.85576 -3.34865 0
M  V30 627 H 55.5958 -0.577826 -0.457478 0
M  V30 628 H 58.2378 -1.81532 -0.560897 0
M  V30 629 H 56.3878 -2.55036 -2.93068 0
M  V30 630 H 58.0598 -4.46537 -1.15769 0
M  V30 631 H 56.3028 -4.21605 -1.02135 0
M  V30 632 H 56.9738 -4.92477 -2.49341 0
M  V30 633 H 59.4498 -3.03127 -2.8505 0
M  V30 634 H 58.3258 -3.68135 -4.07146 0
M  V30 635 H 58.5868 -1.94732 -3.96903 0
M  V30 636 N 57.6459 0.756429 -1.3826 0
M  V30 637 C 58.8919 1.5168 -1.35517 0
M  V30 638 C 59.2469 1.9232 0.0554451 0
M  V30 639 O 58.5399 1.62352 1.01746 0
M  V30 640 C 58.7339 2.78313 -2.24224 0
M  V30 641 C 58.5629 2.50053 -3.7377 0
M  V30 642 C 57.3329 2.43414 -4.42807 0
M  V30 643 C 59.5309 2.1702 -4.66269 0
M  V30 644 N 57.5129 2.07398 -5.77805 0
M  V30 645 C 58.8839 1.91271 -5.89759 0
M  V30 646 C 60.9389 2.03305 -4.54501 0
M  V30 647 C 59.6419 1.53192 -7.02798 0
M  V30 648 C 61.6679 1.66627 -5.67441 0
M  V30 649 C 61.0299 1.4175 -6.8999 0
M  V30 650 H 57.1289 0.554735 -0.551174 0
M  V30 651 H 59.7129 0.881106 -1.73622 0
M  V30 652 H 57.8839 3.39696 -1.88311 0
M  V30 653 H 59.6159 3.44343 -2.12627 0
M  V30 654 H 56.3709 2.59789 -3.95988 0
M  V30 655 H 56.7949 1.92044 -6.4919 0
M  V30 656 H 61.4369 2.21215 -3.60311 0
M  V30 657 H 59.1549 1.34022 -7.96909 0
M  V30 658 H 62.7409 1.56652 -5.60314 0
M  V30 659 H 61.6209 1.1379 -7.759 0
M  V30 660 N 59.124 1.23083 0.984299 0
M  V30 661 C 60.401 0.9689 1.69917 0
M  V30 662 C 60.781 -0.513604 2.04757 0
M  V30 663 O 60.129 -1.48383 1.73767 0
M  V30 664 C 60.339 1.87518 2.94343 0
M  V30 665 C 61.687 2.13636 3.6694 0
M  V30 666 O 62.711 1.85036 3.04368 0
M  V30 667 O 61.57 2.62119 4.79537 0
M  V30 668 H 58.664 0.365095 0.742048 0
M  V30 669 H 61.21 1.34107 1.03987 0
M  V30 670 H 59.982 2.87756 2.65164 0
M  V30 671 H 59.605 1.50514 3.6801 0
M  V30 672 N 60.6021 -1.18246 1.0419 0
M  V30 673 C 61.8321 -1.91916 0.764961 0
M  V30 674 C 62.2401 -1.76485 -0.681898 0
M  V30 675 O 61.5831 -1.09275 -1.47664 0
M  V30 676 C 61.6451 -3.4373 1.05309 0
M  V30 677 C 61.3091 -3.8294 2.4941 0
M  V30 678 C 62.3061 -3.86621 3.47592 0
M  V30 679 C 59.9911 -4.142 2.84155 0
M  V30 680 C 61.9851 -4.21013 4.78568 0
M  V30 681 C 59.6721 -4.48262 4.15337 0
M  V30 682 C 60.6701 -4.51645 5.12353 0
M  V30 683 O 60.3581 -4.84911 6.41183 0
M  V30 684 H 60.0901 -0.61606 0.278292 0
M  V30 685 H 62.6441 -1.50947 1.39299 0
M  V30 686 H 60.8741 -3.84946 0.367933 0
M  V30 687 H 62.5631 -3.9865 0.763752 0
M  V30 688 H 63.3291 -3.62607 3.22089 0
M  V30 689 H 59.2081 -4.10743 2.09311 0
M  V30 690 H 62.7521 -4.23568 5.54289 0
M  V30 691 H 58.6491 -4.71737 4.40607 0
M  V30 692 H 59.4171 -5.02809 6.45852 0
M  V30 693 N 62.0802 -0.821533 -1.34494 0
M  V30 694 C 63.3262 -0.409552 -1.98622 0
M  V30 695 C 63.6592 1.0244 -1.64984 0
M  V30 696 O 62.9342 1.71325 -0.920758 0
M  V30 697 C 63.2172 -0.610458 -3.54888 0
M  V30 698 C 63.0702 -2.09043 -3.98273 0
M  V30 699 C 64.3892 -0.0455379 -4.40076 0
M  V30 700 H 61.5082 -0.15028 -0.721516 0
M  V30 701 H 64.1502 -1.03384 -1.59411 0
M  V30 702 H 62.3002 -0.079044 -3.8842 0
M  V30 703 H 63.9722 -2.68537 -3.75081 0
M  V30 704 H 62.2152 -2.58139 -3.48635 0
M  V30 705 H 62.8862 -2.18182 -5.07051 0
M  V30 706 H 65.3622 -0.499557 -4.1309 0
M  V30 707 H 64.2382 -0.215922 -5.48475 0
M  V30 708 H 64.4992 1.04939 -4.29465 0
M  V30 709 N 63.5583 1.46682 -0.576371 0
M  V30 710 C 64.7863 2.06798 -0.0649635 0
M  V30 711 C 65.2013 1.42612 1.23723 0
M  V30 712 O 64.5583 0.529203 1.74659 0
M  V30 713 C 64.6093 3.6132 0.114202 0
M  V30 714 O 64.3303 4.23104 -1.13644 0
M  V30 715 C 65.8313 4.38349 0.66069 0
M  V30 716 H 63.0513 0.668778 -0.0545616 0
M  V30 717 H 65.5953 1.88404 -0.795237 0
M  V30 718 H 63.7503 3.79162 0.794673 0
M  V30 719 H 64.1643 5.15894 -0.946253 0
M  V30 720 H 65.6383 5.47081 0.73526 0
M  V30 721 H 66.1153 4.05953 1.67627 0
M  V30 722 H 66.7213 4.25297 0.0152951 0
M  V30 723 N 65.0364 0.313813 1.54444 0
M  V30 724 C 66.2824 -0.292108 2.00685 0
M  V30 725 C 66.6154 -1.52548 1.20177 0
M  V30 726 O 65.8904 -1.92452 0.281531 0
M  V30 727 C 66.1734 -0.635968 3.5444 0
M  V30 728 C 66.0264 0.607437 4.4568 0
M  V30 729 C 67.3454 -1.45747 4.15266 0
M  V30 730 H 64.4644 -0.104697 0.729526 0
M  V30 731 H 67.1064 0.428457 1.85106 0
M  V30 732 H 65.2564 -1.24986 3.67846 0
M  V30 733 H 66.9284 1.24581 4.44159 0
M  V30 734 H 65.1714 1.23822 4.15753 0
M  V30 735 H 65.8424 0.322515 5.51057 0
M  V30 736 H 68.3184 -0.938645 4.05375 0
M  V30 737 H 67.1944 -1.66683 5.2298 0
M  V30 738 H 67.4554 -2.45063 3.67963 0
M  V30 739 N 66.5145 -1.57545 0.0417849 0
M  V30 740 C 67.9305 -1.56467 -0.314704 0
M  V30 741 C 68.1305 -1.04859 -1.72066 0
M  V30 742 O 67.1865 -0.700983 -2.42575 0
M  V30 743 C 68.4995 -3.00317 -0.15174 0
M  V30 744 C 70.0475 -3.12201 -0.223553 0
M  V30 745 C 70.5225 -4.57913 -0.0892295 0
M  V30 746 N 72.0135 -4.6297 -0.145808 0
M  V30 747 C 72.7485 -5.73362 -0.0658459 0
M  V30 748 N 72.2445 -6.92769 0.0659282 0
M  V30 749 N 74.0375 -5.6197 -0.12075 0
M  V30 750 H 66.1885 -1.89416 0.961014 0
M  V30 751 H 68.4515 -0.871862 0.372237 0
M  V30 752 H 68.1575 -3.42073 0.817254 0
M  V30 753 H 68.0315 -3.65892 -0.916692 0
M  V30 754 H 70.4185 -2.70349 -1.18301 0
M  V30 755 H 70.4995 -2.49323 0.571994 0
M  V30 756 H 70.1435 -5.00448 0.866867 0
M  V30 757 H 70.0735 -5.18786 -0.903802 0
M  V30 758 H 72.5645 -3.7709 -0.247286 0
M  V30 759 H 72.8775 -7.72707 0.119905 0
M  V30 760 H 71.2225 -6.94927 0.100885 0
M  V30 761 H 74.4135 -4.67572 -0.222187 0
M  V30 762 H 74.5865 -6.47977 -0.0549735 0
M  V30 763 N 67.9926 0.231505 -1.5589 0
M  V30 764 C 68.9396 1.28682 -1.91598 0
M  V30 765 C 69.9096 1.47071 -0.771974 0
M  V30 766 O 71.0946 1.60802 -1.027 0
M  V30 767 C 68.2346 2.6342 -2.22944 0
M  V30 768 C 67.3476 2.52912 -3.50228 0
M  V30 769 C 66.4826 3.80106 -3.7107 0
M  V30 770 C 65.5216 3.64279 -4.91902 0
M  V30 771 N 64.6586 4.834 -5.09184 0
M  V30 772 H 69.4986 0.975305 -2.81588 0
M  V30 773 H 67.0356 0.470299 -1.39379 0
M  V30 774 H 68.9936 3.41869 -2.39126 0
M  V30 775 H 67.6236 2.92687 -1.36139 0
M  V30 776 H 66.6756 1.6595 -3.42294 0
M  V30 777 H 67.9876 2.37133 -4.38827 0
M  V30 778 H 67.1416 4.66999 -3.87295 0
M  V30 779 H 65.8806 3.98799 -2.80733 0
M  V30 780 H 64.8856 2.7577 -4.75637 0
M  V30 781 H 66.1106 3.47067 -5.83714 0
M  V30 782 H 64.0566 5.02425 -4.21788 0
M  V30 783 H 63.9736 4.70311 -5.91898 0
M  V30 784 H 65.2416 5.71747 -5.29835 0
M  V30 785 N 69.4707 1.49531 0.497807 0
M  V30 786 C 70.7477 1.49682 1.25915 0
M  V30 787 C 71.1277 0.226339 2.09883 0
M  V30 788 O 70.4757 -0.791189 2.14365 0
M  V30 789 C 70.6857 2.77755 2.11313 0
M  V30 790 C 72.0337 3.27371 2.70395 0
M  V30 791 O 73.0577 2.78894 2.21578 0
M  V30 792 O 71.9167 4.11808 3.59272 0
M  V30 793 H 69.0107 0.599228 0.56996 0
M  V30 794 H 71.5567 1.61798 0.511816 0
M  V30 795 H 70.3287 3.61713 1.49264 0
M  V30 796 H 69.9517 2.68515 2.93233 0
M  V30 797 N 70.9488 -0.749086 1.3866 0
M  V30 798 C 71.9118 -1.84457 1.36045 0
M  V30 799 C 72.9118 -1.58682 0.260122 0
M  V30 800 O 74.1018 -1.66343 0.517261 0
M  V30 801 C 71.2338 -3.22008 1.11911 0
M  V30 802 H 72.4268 -1.88182 2.33512 0
M  V30 803 H 69.9798 -0.951266 1.24019 0
M  V30 804 H 70.7148 -3.2395 0.150686 0
M  V30 805 H 70.4998 -3.42111 1.91579 0
M  V30 806 H 71.9898 -4.0208 1.12788 0
M  V30 807 N 72.4269 -1.23603 -0.977757 0
M  V30 808 C 73.6569 -1.09487 -1.75203 0
M  V30 809 C 74.0649 0.356321 -1.85814 0
M  V30 810 O 73.4079 1.25816 -1.33851 0
M  V30 811 C 73.4699 -1.64905 -3.19447 0
M  V30 812 C 73.1339 -3.13688 -3.32338 0
M  V30 813 C 74.1309 -4.10953 -3.18455 0
M  V30 814 C 71.8159 -3.53449 -3.56902 0
M  V30 815 C 73.8099 -5.45962 -3.28944 0
M  V30 816 C 71.4969 -4.88602 -3.6703 0
M  V30 817 C 72.4949 -5.84668 -3.53062 0
M  V30 818 O 72.1829 -7.17365 -3.62826 0
M  V30 819 H 71.9149 -0.38367 -0.556573 0
M  V30 820 H 74.4689 -1.6398 -1.23693 0
M  V30 821 H 72.6989 -1.04835 -3.72218 0
M  V30 822 H 74.3879 -1.46226 -3.78646 0
M  V30 823 H 75.1539 -3.81577 -2.99372 0
M  V30 824 H 71.0329 -2.79188 -3.66844 0
M  V30 825 H 74.5769 -6.20925 -3.17958 0
M  V30 826 H 70.4739 -5.17653 -3.85623 0
M  V30 827 H 71.2419 -7.2515 -3.79605 0
M  V30 828 N 73.905 1.17692 -1.04816 0
M  V30 829 C 74.838 2.20436 -0.590173 0
M  V30 830 C 75.816 1.58115 0.379244 0
M  V30 831 O 77 1.86228 0.291762 0
M  V30 832 C 74.127 3.38424 0.136817 0
M  V30 833 C 73.173 4.19176 -0.787023 0
M  V30 834 S 74.006 4.84815 -2.27409 0
M  V30 835 C 75.162 6.06195 -1.55817 0
M  V30 836 H 75.395 2.58944 -1.46067 0
M  V30 837 H 72.928 1.28246 -0.859784 0
M  V30 838 H 74.886 4.06798 0.550076 0
M  V30 839 H 73.547 2.98312 0.983299 0
M  V30 840 H 72.74 5.03499 -0.224681 0
M  V30 841 H 72.342 3.56219 -1.13947 0
M  V30 842 H 74.634 6.72078 -0.855387 0
M  V30 843 H 75.577 6.6695 -2.37873 0
M  V30 844 H 75.985 5.54701 -1.04722 0
M  V30 845 N 75.3831 0.828654 1.34056 0
M  V30 846 C 76.6301 0.419458 1.98108 0
M  V30 847 C 76.9581 -1.01886 1.65679 0
M  V30 848 O 76.2131 -1.72539 0.923512 0
M  V30 849 C 76.5121 0.575226 3.52741 0
M  V30 850 C 76.1781 1.98012 4.05095 0
M  V30 851 C 74.8401 2.36442 4.19104 0
M  V30 852 C 77.1921 2.89824 4.33188 0
M  V30 853 C 74.5201 3.66009 4.58535 0
M  V30 854 C 76.8721 4.1886 4.74066 0
M  V30 855 C 75.5361 4.5726 4.86281 0
M  V30 856 H 74.8061 0.153491 0.724929 0
M  V30 857 H 77.4531 1.05371 1.59904 0
M  V30 858 H 75.7581 -0.142385 3.91541 0
M  V30 859 H 77.4551 0.239057 4.00287 0
M  V30 860 H 74.0451 1.67162 3.94658 0
M  V30 861 H 78.2291 2.61375 4.21897 0
M  V30 862 H 73.4851 3.95579 4.66184 0
M  V30 863 H 77.6591 4.90086 4.94761 0
M  V30 864 H 75.2861 5.57707 5.16592 0
M  V30 865 N 76.8612 -1.46375 0.584142 0
M  V30 866 C 78.1072 -2.03248 0.0787103 0
M  V30 867 C 78.4622 -1.44737 -1.26763 0
M  V30 868 O 77.7552 -0.603625 -1.81843 0
M  V30 869 C 77.9492 -3.57373 -0.0439342 0
M  V30 870 C 77.7782 -4.30831 1.28897 0
M  V30 871 C 76.5482 -4.69683 1.8635 0
M  V30 872 C 78.7462 -4.64278 2.21248 0
M  V30 873 N 76.7282 -5.27898 3.13365 0
M  V30 874 C 78.0992 -5.23078 3.32851 0
M  V30 875 C 80.1542 -4.46209 2.20911 0
M  V30 876 C 78.8572 -5.65715 4.44251 0
M  V30 877 C 80.8832 -4.89864 3.31341 0
M  V30 878 C 80.2452 -5.48736 4.41665 0
M  V30 879 H 76.3442 -0.778714 0.0716144 0
M  V30 880 H 78.9282 -1.78509 0.777355 0
M  V30 881 H 77.0992 -3.81823 -0.711749 0
M  V30 882 H 78.8312 -4.00892 -0.553881 0
M  V30 883 H 75.5862 -4.52488 1.39826 0
M  V30 884 H 76.0102 -5.61525 3.78178 0
M  V30 885 H 80.6522 -4.00027 1.36888 0
M  V30 886 H 78.3702 -6.10875 5.29015 0
M  V30 887 H 81.9562 -4.77634 3.322 0
M  V30 888 H 80.8362 -5.81898 5.25704 0
M  V30 889 N 78.3393 -0.321999 -1.54275 0
M  V30 890 C 79.5853 0.274234 -2.01543 0
M  V30 891 C 79.9403 1.499 -1.20614 0
M  V30 892 O 79.2333 1.89546 -0.279804 0
M  V30 893 C 79.4273 0.661769 -3.5122 0
M  V30 894 C 79.2563 -0.523892 -4.46638 0
M  V30 895 C 78.0263 -1.02251 -4.94846 0
M  V30 896 C 80.2243 -1.37558 -4.95563 0
M  V30 897 N 78.2063 -2.17274 -5.74165 0
M  V30 898 C 79.5773 -2.37301 -5.7279 0
M  V30 899 C 81.6323 -1.40353 -4.77709 0
M  V30 900 C 80.3353 -3.3964 -6.34064 0
M  V30 901 C 82.3613 -2.41562 -5.39817 0
M  V30 902 C 81.7233 -3.40031 -6.16894 0
M  V30 903 H 77.8223 0.0642367 -0.779357 0
M  V30 904 H 80.4063 -0.456683 -1.89268 0
M  V30 905 H 78.5773 1.36182 -3.63743 0
M  V30 906 H 80.3093 1.23934 -3.85256 0
M  V30 907 H 77.0643 -0.594046 -4.6986 0
M  V30 908 H 77.4883 -2.75289 -6.18502 0
M  V30 909 H 82.1303 -0.655907 -4.17681 0
M  V30 910 H 79.8483 -4.15309 -6.93213 0
M  V30 911 H 83.4343 -2.44524 -5.2792 0
M  V30 912 H 82.3143 -4.17063 -6.64099 0
M  V30 913 N 79.8174 1.5752 -0.0501392 0
M  V30 914 C 80.7474 2.14502 0.922566 0
M  V30 915 C 81.7284 1.06642 1.3252 0
M  V30 916 O 82.9134 1.34577 1.4001 0
M  V30 917 C 80.0434 2.68916 2.19776 0
M  V30 918 C 78.9974 3.8175 1.93523 0
M  V30 919 C 78.3234 4.22677 3.27487 0
M  V30 920 C 79.6234 5.06932 1.25765 0
M  V30 921 H 81.3174 2.9603 0.447952 0
M  V30 922 H 78.8634 1.42401 0.214024 0
M  V30 923 H 80.8164 3.07419 2.88222 0
M  V30 924 H 79.5404 1.84578 2.69441 0
M  V30 925 H 78.1994 3.43718 1.27489 0
M  V30 926 H 77.8474 3.35291 3.74952 0
M  V30 927 H 77.5474 4.98725 3.1072 0
M  V30 928 H 79.0714 4.63779 3.97166 0
M  V30 929 H 80.4854 5.42888 1.84244 0
M  V30 930 H 78.8824 5.88116 1.19328 0
M  V30 931 H 79.9524 4.84337 0.233536 0
M  V30 932 N 81.2955 -0.223234 1.56011 0
M  V30 933 C 82.5255 -0.963413 1.82762 0
M  V30 934 C 82.9335 -1.78516 0.626804 0
M  V30 935 O 82.2765 -1.78974 -0.414014 0
M  V30 936 C 82.3385 -1.93126 3.0322 0
M  V30 937 C 82.0025 -1.2942 4.38291 0
M  V30 938 C 82.9995 -0.684916 5.15369 0
M  V30 939 C 80.6845 -1.30647 4.85012 0
M  V30 940 C 82.6785 -0.0963971 6.37327 0
M  V30 941 C 80.3655 -0.71411 6.06913 0
M  V30 942 C 81.3635 -0.110123 6.82911 0
M  V30 943 O 81.0515 0.47303 8.02507 0
M  V30 944 H 80.7835 -0.288011 0.611576 0
M  V30 945 H 83.3375 -0.244103 2.03944 0
M  V30 946 H 81.5675 -2.68952 2.77852 0
M  V30 947 H 83.2565 -2.53685 3.16857 0
M  V30 948 H 84.0225 -0.667774 4.80381 0
M  V30 949 H 79.9015 -1.76598 4.25833 0
M  V30 950 H 83.4455 0.375657 6.96588 0
M  V30 951 H 79.3425 -0.728659 6.41374 0
M  V30 952 H 80.1105 0.367186 8.17676 0
M  V30 953 N 82.7736 -1.49793 -0.48987 0
M  V30 954 C 84.0036 -1.6333 -1.26518 0
M  V30 955 C 84.4116 -0.308392 -1.8667 0
M  V30 956 O 83.7546 0.717512 -1.69108 0
M  V30 957 C 83.8166 -2.6522 -2.4269 0
M  V30 958 C 83.4806 -4.09279 -2.03321 0
M  V30 959 C 84.4776 -4.95738 -1.56652 0
M  V30 960 C 82.1626 -4.55082 -2.12616 0
M  V30 961 C 84.1566 -6.26041 -1.19795 0
M  V30 962 C 81.8436 -5.85396 -1.75371 0
M  V30 963 C 82.8416 -6.707 -1.29036 0
M  V30 964 O 82.5296 -7.98584 -0.92299 0
M  V30 965 H 82.2616 -0.552502 -0.389509 0
M  V30 966 H 84.8156 -1.96642 -0.593381 0
M  V30 967 H 83.0456 -2.27112 -3.12981 0
M  V30 968 H 84.7346 -2.68171 -3.04695 0
M  V30 969 H 85.5006 -4.61575 -1.48908 0
M  V30 970 H 81.3796 -3.88844 -2.47631 0
M  V30 971 H 84.9236 -6.92578 -0.835582 0
M  V30 972 H 80.8206 -6.19085 -1.82768 0
M  V30 973 H 81.5886 -8.11692 -1.05349 0
M  V30 974 N 84.2517 0.741722 -1.39055 0
M  V30 975 C 85.2147 1.83733 -1.37021 0
M  V30 976 C 86.2147 1.58542 -0.268534 0
M  V30 977 O 87.4047 1.66067 -0.526076 0
M  V30 978 C 84.5367 3.2141 -1.13617 0
M  V30 979 H 85.7297 1.86941 -2.34506 0
M  V30 980 H 83.2827 0.944676 -1.24521 0
M  V30 981 H 84.0177 3.23865 -0.167863 0
M  V30 982 H 83.8027 3.4109 -1.93391 0
M  V30 983 H 85.2927 4.01477 -1.14918 0
M  V30 984 N 85.7298 1.2412 0.971189 0
M  V30 985 C 86.9578 1.10575 1.74874 0
M  V30 986 C 87.3728 -0.342017 1.85676 0
M  V30 987 O 86.7298 -1.23617 1.34258 0
M  V30 988 C 86.7808 1.73579 3.171 0
M  V30 989 O 86.5018 3.12695 3.06844 0
M  V30 990 C 88.0028 1.65598 4.11208 0
M  V30 991 H 85.2228 0.386504 0.548503 0
M  V30 992 H 87.7668 1.64156 1.21955 0
M  V30 993 H 85.9218 1.24009 3.67016 0
M  V30 994 H 86.3358 3.43412 3.96445 0
M  V30 995 H 87.8098 2.1437 5.08674 0
M  V30 996 H 88.2868 0.616532 4.34851 0
M  V30 997 H 88.8928 2.14578 3.67201 0
M  V30 998 N 87.2079 -1.17134 1.05439 0
M  V30 999 C 88.1559 -2.23289 0.651511 0
M  V30 1000 C 89.1499 -1.66186 -0.328411 0
M  V30 1001 O 90.3559 -1.78949 -0.194206 0
M  V30 1002 H 86.7309 -0.726938 0.192523 0
M  V30 1003 H 88.7019 -2.54565 1.55689 0
M  V30 1004 C 87.4509 -3.47671 0.0448436 0
M  V30 1005 H 86.7739 -3.91918 0.78996 0
M  V30 1006 H 88.2139 -4.2353 -0.19964 0
M  V30 1007 C 86.6729 -3.14453 -1.20918 0
M  V30 1008 O 87.2029 -3.29459 -2.29825 0
M  V30 1009 N 85.4089 -2.68657 -1.10779 0
M  V30 1010 H 84.9559 -2.56646 -0.221526 0
M  V30 1011 H 84.9139 -2.46804 -1.9477 0
M  V30 1012 N 88.686 -0.835752 -1.33615 0
M  V30 1013 C 89.911 -0.442389 -2.02627 0
M  V30 1014 C 90.336 0.947735 -1.62479 0
M  V30 1015 O 89.694 1.61907 -0.815826 0
M  V30 1016 C 89.742 -0.567216 -3.56111 0
M  V30 1017 O 88.846 0.407799 -4.10379 0
M  V30 1018 H 88.187 -0.180278 -0.639059 0
M  V30 1019 H 90.717 -1.12972 -1.70583 0
M  V30 1020 H 90.727 -0.447708 -4.05536 0
M  V30 1021 H 89.402 -1.58103 -3.84677 0
M  V30 1022 H 87.979 0.246107 -3.72087 0
M  V30 1023 N 90.1641 1.46063 -0.591896 0
M  V30 1024 C 91.4041 2.04228 -0.0838014 0
M  V30 1025 C 91.7681 1.45231 1.25587 0
M  V30 1026 O 92.9691 1.94653 1.85375 0
M  V30 1027 C 91.2401 3.57389 -0.0286282 0
M  V30 1028 S 92.7991 4.3678 0.420557 0
M  V30 1029 H 89.6171 0.709762 -0.0419319 0
M  V30 1030 H 92.2191 1.78983 -0.786465 0
M  V30 1031 H 90.9231 3.97843 -1.00743 0
M  V30 1032 H 90.4541 3.87185 0.69652 0
M  V30 1033 H 92.4691 4.67131 1.67341 0
M  V30 1034 N 91.6422 0.330177 1.54103 0
M  V30 1035 C 92.5892 -0.532762 2.24567 0
M  V30 1036 C 93.5592 -1.10635 1.23892 0
M  V30 1037 O 94.7442 -1.14546 1.5259 0
M  V30 1038 C 91.8842 -1.6845 3.01195 0
M  V30 1039 C 90.9972 -1.13951 4.167 0
M  V30 1040 C 90.1322 -2.25746 4.80845 0
M  V30 1041 C 89.1712 -1.6853 5.88442 0
M  V30 1042 N 88.3082 -2.74014 6.46421 0
M  V30 1043 H 93.1482 0.0746905 2.97906 0
M  V30 1044 H 90.6852 0.048632 1.4702 0
M  V30 1045 H 92.6432 -2.36234 3.43874 0
M  V30 1046 H 91.2732 -2.26314 2.30178 0
M  V30 1047 H 90.3252 -0.35301 3.78758 0
M  V30 1048 H 91.6372 -0.680892 4.94131 0
M  V30 1049 H 90.7912 -3.01422 5.26526 0
M  V30 1050 H 89.5302 -2.74947 4.0281 0
M  V30 1051 H 88.5352 -0.913543 5.42157 0
M  V30 1052 H 89.7602 -1.20198 6.68378 0
M  V30 1053 H 87.7062 -3.22494 5.71256 0
M  V30 1054 H 87.6232 -2.32735 7.19285 0
M  V30 1055 H 88.8912 -3.49499 6.96757 0
M  V30 1056 N 93.1203 -1.57491 0.0584922 0
M  V30 1057 C 94.0683 -2.13148 -0.931168 0
M  V30 1058 C 95.0623 -1.06507 -1.31729 0
M  V30 1059 O 96.2683 -1.24906 -1.29609 0
M  V30 1060 H 92.6433 -0.68137 -0.31818 0
M  V30 1061 H 94.6143 -2.95187 -0.436707 0
M  V30 1062 C 93.3633 -2.69732 -2.19408 0
M  V30 1063 H 92.6863 -3.51454 -1.90578 0
M  V30 1064 H 94.1263 -3.12287 -2.86798 0
M  V30 1065 C 92.5853 -1.63855 -2.94369 0
M  V30 1066 O 93.1153 -1.05565 -3.87581 0
M  V30 1067 N 91.3213 -1.35202 -2.57233 0
M  V30 1068 H 90.8683 -1.82791 -1.81508 0
M  V30 1069 H 90.8263 -0.645922 -3.07693 0
M  V30 1070 N 94.5984 0.214957 -1.56127 0
M  V30 1071 C 95.8454 0.938372 -1.79446 0
M  V30 1072 C 96.1734 1.8407 -0.628378 0
M  V30 1073 O 95.4284 1.91837 0.386925 0
M  V30 1074 C 95.7274 1.80314 -3.0858 0
M  V30 1075 C 95.3934 1.05349 -4.3842 0
M  V30 1076 C 94.0554 0.846435 -4.73697 0
M  V30 1077 C 96.4074 0.524588 -5.18553 0
M  V30 1078 C 93.7354 0.098683 -5.86617 0
M  V30 1079 C 96.0874 -0.209853 -6.32252 0
M  V30 1080 C 94.7514 -0.428102 -6.66126 0
M  V30 1081 H 94.0214 0.343375 -0.656639 0
M  V30 1082 H 96.6684 0.206077 -1.90388 0
M  V30 1083 H 94.9734 2.6035 -2.92789 0
M  V30 1084 H 96.6704 2.36513 -3.23825 0
M  V30 1085 H 93.2604 1.22486 -4.10725 0
M  V30 1086 H 97.4444 0.672008 -4.91729 0
M  V30 1087 H 92.7004 -0.0805753 -6.11347 0
M  V30 1088 H 96.8744 -0.627157 -6.9357 0
M  V30 1089 H 94.5014 -1.00944 -7.53468 0
M  V30 1090 N 96.0765 1.50051 0.48192 0
M  V30 1091 C 97.3015 1.64508 1.26301 0
M  V30 1092 C 97.7265 0.323851 1.85291 0
M  V30 1093 O 97.0845 -0.710969 1.66778 0
M  V30 1094 C 97.1325 2.7305 2.35533 0
M  V30 1095 O 96.2365 2.3355 3.39895 0
M  V30 1096 H 95.5775 0.549978 0.372048 0
M  V30 1097 H 98.1075 1.9636 0.574786 0
M  V30 1098 H 98.1175 2.95799 2.8101 0
M  V30 1099 H 96.7925 3.68946 1.91967 0
M  V30 1100 H 95.3695 2.21205 3.00204 0
M  V30 1101 N 97.5546 -0.734337 1.39446 0
M  V30 1102 C 98.4646 -1.87879 1.40495 0
M  V30 1103 C 99.4806 -1.714 0.299672 0
M  V30 1104 O 100.657 -1.93991 0.541249 0
M  V30 1105 C 97.7216 -3.23477 1.24754 0
M  V30 1106 C 96.7826 -3.52344 2.45259 0
M  V30 1107 C 96.0156 -4.81473 2.30259 0
M  V30 1108 O 96.2386 -5.55237 1.30643 0
M  V30 1109 O 95.1726 -5.10254 3.19256 0
M  V30 1110 H 98.9986 -1.89949 2.36966 0
M  V30 1111 H 96.5836 -0.882243 1.20569 0
M  V30 1112 H 98.4656 -4.04509 1.18111 0
M  V30 1113 H 97.1406 -3.22176 0.313781 0
M  V30 1114 H 96.0476 -2.71396 2.57478 0
M  V30 1115 H 97.3806 -3.58426 3.37331 0
M  V30 1116 N 99.0327 -1.24633 -0.964593 0
M  V30 1117 C 99.9627 -1.06611 -2.07741 0
M  V30 1118 C 100.944 0.0218666 -1.70086 0
M  V30 1119 O 102.129 -0.145793 -1.93652 0
M  V30 1120 C 99.2587 -0.673444 -3.40708 0
M  V30 1121 C 98.2127 -1.71054 -3.92332 0
M  V30 1122 C 97.5387 -1.17285 -5.21678 0
M  V30 1123 C 98.8387 -3.10718 -4.19824 0
M  V30 1124 H 100.533 -1.99693 -2.23076 0
M  V30 1125 H 98.0787 -0.96152 -1.07195 0
M  V30 1126 H 100.032 -0.534345 -4.17998 0
M  V30 1127 H 98.7557 0.293073 -3.25282 0
M  V30 1128 H 97.4147 -1.83791 -3.17201 0
M  V30 1129 H 97.0627 -0.196847 -5.02615 0
M  V30 1130 H 96.7627 -1.86592 -5.57187 0
M  V30 1131 H 98.2867 -1.04593 -6.01575 0
M  V30 1132 H 99.7007 -3.01192 -4.87808 0
M  V30 1133 H 98.0977 -3.77406 -4.66567 0
M  V30 1134 H 99.1677 -3.58524 -3.26479 0
M  V30 1135 N 100.511 1.16574 -1.06058 0
M  V30 1136 C 101.922 1.68662 -0.800632 0
M  V30 1137 C 102.273 1.84184 0.67608 0
M  V30 1138 O 101.398 1.53568 1.52466 0
M  V30 1139 C 101.993 3.06356 -1.44676 0
M  V30 1140 C 100.552 3.55575 -1.23465 0
M  V30 1141 C 99.6988 2.31616 -1.52477 0
M  V30 1142 H 102.65 1.00969 -1.22438 0
M  V30 1143 H 102.671 3.70636 -0.860788 0
M  V30 1144 H 102.183 2.95027 -2.52152 0
M  V30 1145 H 100.284 3.72167 -0.179527 0
M  V30 1146 H 100.397 4.37812 -1.94571 0
M  V30 1147 H 98.7608 2.36512 -0.945209 0
M  V30 1148 H 99.5438 2.22887 -2.61106 0
M  V30 1149 N 101.989 0.842826 1.3317 0
M  V30 1150 C 102.919 0.294028 2.31641 0
M  V30 1151 C 103.9 -0.600401 1.59151 0
M  V30 1152 O 105.085 -0.523124 1.87022 0
M  V30 1153 C 102.215 -0.528416 3.43257 0
M  V30 1154 C 101.169 0.27056 4.27144 0
M  V30 1155 C 100.495 -0.675881 5.30411 0
M  V30 1156 C 101.795 1.48981 5.00602 0
M  V30 1157 H 103.489 1.11681 2.77791 0
M  V30 1158 H 101.035 0.538478 1.33553 0
M  V30 1159 H 102.988 -0.922674 4.11175 0
M  V30 1160 H 101.712 -1.38445 2.95805 0
M  V30 1161 H 100.371 0.646427 3.60856 0
M  V30 1162 H 100.019 -1.52842 4.79216 0
M  V30 1163 H 99.7189 -0.145374 5.8742 0
M  V30 1164 H 101.243 -1.06757 6.01195 0
M  V30 1165 H 102.657 1.16849 5.61266 0
M  V30 1166 H 101.054 1.95739 5.6728 0
M  V30 1167 H 102.124 2.25746 4.29147 0
M  V30 1168 N 103.467 -1.45747 0.599634 0
M  V30 1169 C 104.713 -2.02592 0.0918643 0
M  V30 1170 C 105.046 -1.46806 -1.27128 0
M  V30 1171 O 104.321 -0.639658 -1.83681 0
M  V30 1172 C 104.604 -3.60073 0.0443398 0
M  V30 1173 C 104.457 -4.26208 1.43759 0
M  V30 1174 C 105.776 -4.35309 -0.647608 0
M  V30 1175 H 102.895 -0.736175 0.034857 0
M  V30 1176 H 105.537 -1.73694 0.770081 0
M  V30 1177 H 103.687 -3.84823 -0.533224 0
M  V30 1178 H 105.359 -4.12668 2.06162 0
M  V30 1179 H 103.602 -3.84916 2.00056 0
M  V30 1180 H 104.273 -5.35069 1.35665 0
M  V30 1181 H 106.749 -4.15805 -0.156776 0
M  V30 1182 H 105.625 -5.45038 -0.649942 0
M  V30 1183 H 105.886 -4.07598 -1.71219 0
M  V30 1184 N 104.945 -0.338344 -1.53925 0
M  V30 1185 C 105.878 0.563758 -2.21127 0
M  V30 1186 C 106.856 1.10433 -1.19345 0
M  V30 1187 O 108.04 1.16557 -1.48144 0
M  V30 1188 C 105.167 1.77505 -2.88461 0
M  V30 1189 C 104.213 1.3644 -4.04087 0
M  V30 1190 S 105.046 0.388593 -5.34088 0
M  V30 1191 C 106.202 1.60683 -6.04923 0
M  V30 1192 H 106.435 -0.00704546 -2.97299 0
M  V30 1193 H 103.968 -0.122418 -1.53914 0
M  V30 1194 H 105.926 2.46999 -3.27875 0
M  V30 1195 H 104.587 2.31706 -2.12064 0
M  V30 1196 H 103.78 2.26739 -4.50117 0
M  V30 1197 H 103.382 0.748998 -3.66423 0
M  V30 1198 H 105.674 2.54209 -6.28 0
M  V30 1199 H 106.617 1.18842 -6.98056 0
M  V30 1200 H 107.025 1.80052 -5.35015 0
M  V30 1201 N 106.423 1.57458 -0.0668435 0
M  V30 1202 C 107.669 1.94401 0.598316 0
M  V30 1203 C 108.024 0.946335 1.67518 0
M  V30 1204 O 107.317 -0.0321442 1.91573 0
M  V30 1205 C 107.511 3.35784 1.22409 0
M  V30 1206 C 107.34 4.49212 0.209367 0
M  V30 1207 C 106.11 5.04887 -0.204218 0
M  V30 1208 C 108.308 5.11335 -0.551431 0
M  V30 1209 N 106.29 6.01854 -1.21016 0
M  V30 1210 C 107.661 6.03754 -1.41 0
M  V30 1211 C 109.716 4.94173 -0.608038 0
M  V30 1212 C 108.419 6.80854 -2.32013 0
M  V30 1213 C 110.445 5.71912 -1.50566 0
M  V30 1214 C 109.807 6.63976 -2.35191 0
M  V30 1215 H 105.906 0.758538 0.190114 0
M  V30 1216 H 108.49 1.94175 -0.142832 0
M  V30 1217 H 106.661 3.36757 1.93518 0
M  V30 1218 H 108.393 3.59976 1.84931 0
M  V30 1219 H 105.148 4.73266 0.177908 0
M  V30 1220 H 105.572 6.55035 -1.71049 0
M  V30 1221 H 110.214 4.22788 0.032022 0
M  V30 1222 H 107.932 7.5152 -2.97057 0
M  V30 1223 H 111.518 5.60656 -1.55423 0
M  V30 1224 H 110.398 7.2308 -3.03522 0
M  V30 1225 N 107.901 -0.206675 1.56239 0
M  V30 1226 C 108.831 -1.25909 1.96645 0
M  V30 1227 C 109.812 -1.48097 0.836734 0
M  V30 1228 O 110.997 -1.6003 1.10019 0
M  V30 1229 C 108.127 -2.6058 2.29599 0
M  V30 1230 C 107.081 -2.53024 3.452 0
M  V30 1231 C 106.407 -3.91861 3.63798 0
M  V30 1232 C 107.707 -2.06524 4.79734 0
M  V30 1233 H 109.401 -0.923369 2.84806 0
M  V30 1234 H 106.947 -0.442735 1.37025 0
M  V30 1235 H 108.9 -3.34375 2.56459 0
M  V30 1236 H 107.624 -2.95869 1.38307 0
M  V30 1237 H 106.283 -1.81684 3.18412 0
M  V30 1238 H 105.931 -4.24483 2.69857 0
M  V30 1239 H 105.631 -3.87683 4.4156 0
M  V30 1240 H 107.155 -4.67296 3.93022 0
M  V30 1241 H 108.569 -2.70072 5.05702 0
M  V30 1242 H 106.966 -2.13374 5.60885 0
M  V30 1243 H 108.036 -1.01802 4.74093 0
M  V30 1244 N 109.379 -1.50304 -0.473955 0
M  V30 1245 C 110.311 -1.65109 -1.58971 0
M  V30 1246 C 111.324 -0.532676 -1.53839 0
M  V30 1247 O 112.513 -0.805751 -1.59279 0
M  V30 1248 C 109.613 -1.61684 -2.97845 0
M  V30 1249 C 108.786 -2.8951 -3.27876 0
M  V30 1250 C 107.845 -2.78768 -4.4629 0
M  V30 1251 O 106.871 -3.52722 -4.46739 0
M  V30 1252 N 108.073 -1.9213 -5.47783 0
M  V30 1253 H 110.838 -2.61347 -1.46689 0
M  V30 1254 H 108.399 -1.47732 -0.662324 0
M  V30 1255 H 110.391 -1.52114 -3.75024 0
M  V30 1256 H 108.961 -0.731925 -3.03911 0
M  V30 1257 H 108.181 -3.13228 -2.39336 0
M  V30 1258 H 109.469 -3.74199 -3.4475 0
M  V30 1259 H 108.867 -1.31353 -5.50239 0
M  V30 1260 H 107.424 -1.88466 -6.23958 0
M  V30 1261 N 110.857 0.726932 -1.39834 0
M  V30 1262 C 112.105 1.4837 -1.37225 0
M  V30 1263 C 112.426 1.94979 0.0284857 0
M  V30 1264 O 111.696 1.69555 0.981213 0
M  V30 1265 H 110.276 0.55043 -0.505011 0
M  V30 1266 H 112.938 0.862468 -1.74778 0
M  V30 1267 H 112.034 2.36198 -2.04003 0
M  V30 1268 N 112.336 1.25143 0.95797 0
M  V30 1269 C 113.584 1.09476 1.69881 0
M  V30 1270 C 113.905 -0.365502 1.91544 0
M  V30 1271 O 113.175 -1.25985 1.50015 0
M  V30 1272 H 111.755 0.402128 0.629525 0
M  V30 1273 H 114.417 1.57214 1.15194 0
M  V30 1274 H 113.513 1.60046 2.6794 0
M  V30 1275 N 113.814 -1.1601 1.06675 0
M  V30 1276 C 115.225 -1.68235 0.809565 0
M  V30 1277 C 115.576 -1.8454 -0.666303 0
M  V30 1278 O 114.701 -1.54374 -1.5165 0
M  V30 1279 C 115.296 -3.05585 1.46299 0
M  V30 1280 C 113.855 -3.54915 1.25349 0
M  V30 1281 C 113.002 -2.30804 1.53703 0
M  V30 1282 H 115.953 -1.00318 1.22971 0
M  V30 1283 H 115.974 -3.70174 0.880431 0
M  V30 1284 H 115.486 -2.93686 2.53713 0
M  V30 1285 H 113.587 -3.72067 0.199261 0
M  V30 1286 H 113.7 -4.36774 1.9689 0
M  V30 1287 H 112.064 -2.36007 0.957739 0
M  V30 1288 H 112.847 -2.21499 2.62284 0
M  V30 1289 N 115.292 -0.849877 -1.32721 0
M  V30 1290 C 116.54 -0.450032 -1.97026 0
M  V30 1291 C 116.861 0.996604 -1.67609 0
M  V30 1292 O 116.131 1.6958 -0.980786 0
M  V30 1293 H 114.711 -0.163426 -0.728904 0
M  V30 1294 H 117.373 -1.08526 -1.6189 0
M  V30 1295 H 116.469 -0.591146 -3.0645 0
M  V30 1296 N 116.77 1.45427 -0.607355 0
M  V30 1297 C 118.018 2.01841 -0.102253 0
M  V30 1298 C 118.339 1.47832 1.27164 0
M  V30 1299 O 117.609 0.672497 1.83995 0
M  V30 1300 H 116.189 0.746188 -0.0348101 0
M  V30 1301 H 118.851 1.78229 -0.7887 0
M  V30 1302 H 117.947 3.12057 -0.0518585 0
M  V30 1303 N 118.248 0.346503 1.53744 0
M  V30 1304 C 119.473 -0.253074 2.0585 0
M  V30 1305 C 119.898 -1.43202 1.21962 0
M  V30 1306 O 119.256 -1.79783 0.234073 0
M  V30 1307 C 119.304 -0.643193 3.54817 0
M  V30 1308 O 118.408 -1.74286 3.73762 0
M  V30 1309 H 117.749 -0.0413583 0.662711 0
M  V30 1310 H 120.279 0.501574 1.98357 0
M  V30 1311 H 120.289 -0.919526 3.97503 0
M  V30 1312 H 118.964 0.218966 4.15323 0
M  V30 1313 H 117.541 -1.46356 3.42979 0
M  V30 1314 N 119.726 -1.57421 0.075193 0
M  V30 1315 C 120.951 -1.98364 -0.605515 0
M  V30 1316 C 121.376 -0.953383 -1.62149 0
M  V30 1317 O 120.734 0.0806053 -1.81121 0
M  V30 1318 C 120.782 -3.38332 -1.24756 0
M  V30 1319 O 119.886 -3.37959 -2.36342 0
M  V30 1320 H 119.227 -0.645553 -0.155428 0
M  V30 1321 H 121.757 -2.04044 0.150714 0
M  V30 1322 H 121.767 -3.75591 -1.5936 0
M  V30 1323 H 120.442 -4.12846 -0.503129 0
M  V30 1324 H 119.019 -3.12474 -2.03506 0
M  V30 1325 N 121.204 0.198386 -1.56346 0
M  V30 1326 C 122.432 0.935572 -1.84539 0
M  V30 1327 C 122.847 1.76989 -0.657281 0
M  V30 1328 O 122.204 1.78626 0.374043 0
M  V30 1329 C 122.255 1.8344 -3.11499 0
M  V30 1330 O 121.976 1.03377 -4.25728 0
M  V30 1331 C 123.477 2.68355 -3.52846 0
M  V30 1332 H 120.697 0.273126 -0.612897 0
M  V30 1333 H 123.241 0.20663 -2.03453 0
M  V30 1334 H 121.396 2.51701 -2.94492 0
M  V30 1335 H 121.81 1.64599 -4.98003 0
M  V30 1336 H 123.284 3.27085 -4.44657 0
M  V30 1337 H 123.761 3.41901 -2.75681 0
M  V30 1338 H 124.367 2.05471 -3.72373 0
M  V30 1339 N 122.682 1.50554 0.465978 0
M  V30 1340 C 123.93 1.61479 1.21528 0
M  V30 1341 C 124.251 0.319596 1.92363 0
M  V30 1342 O 123.521 -0.663194 1.84333 0
M  V30 1343 H 122.101 0.595055 0.451573 0
M  V30 1344 H 124.763 1.87355 0.53704 0
M  V30 1345 H 123.859 2.42846 1.96042 0
M  V30 1346 N 124.16 -0.719506 1.40217 0
M  V30 1347 C 125.407 -1.47933 1.38283 0
M  V30 1348 C 125.735 -1.94493 -0.0161536 0
M  V30 1349 O 124.99 -1.68224 -0.999956 0
M  V30 1350 C 125.289 -2.72271 2.31524 0
M  V30 1351 C 124.955 -2.44496 3.78857 0
M  V30 1352 C 123.617 -2.36631 4.18998 0
M  V30 1353 C 125.969 -2.21104 4.71977 0
M  V30 1354 C 123.297 -2.03437 5.503 0
M  V30 1355 C 125.649 -1.89423 6.03574 0
M  V30 1356 C 124.313 -1.80038 6.42762 0
M  V30 1357 H 123.583 -0.541325 0.506012 0
M  V30 1358 H 126.23 -0.824502 1.72842 0
M  V30 1359 H 124.535 -3.42572 1.90137 0
M  V30 1360 H 126.232 -3.30348 2.27313 0
M  V30 1361 H 122.822 -2.51503 3.47051 0
M  V30 1362 H 127.006 -2.26139 4.41786 0
M  V30 1363 H 122.262 -1.94705 5.79569 0
M  V30 1364 H 126.436 -1.70336 6.75247 0
M  V30 1365 H 124.063 -1.54083 7.44421 0
M  V30 1366 N 125.638 -1.25649 -0.95132 0
M  V30 1367 C 126.886 -1.10375 -1.69298 0
M  V30 1368 C 127.207 0.355339 -1.91735 0
M  V30 1369 O 126.477 1.25188 -1.50681 0
M  V30 1370 H 125.057 -0.405461 -0.627384 0
M  V30 1371 H 127.719 -1.57823 -1.14358 0
M  V30 1372 H 126.815 -1.61465 -2.67087 0
M  V30 1373 N 127.117 1.15442 -1.07289 0
M  V30 1374 C 128.065 2.22225 -0.686952 0
M  V30 1375 C 129.059 1.66688 0.30193 0
M  V30 1376 O 130.265 1.79236 0.165712 0
M  V30 1377 H 126.64 0.723783 -0.204064 0
M  V30 1378 H 128.611 2.52056 -1.5972 0
M  V30 1379 C 127.36 3.47556 -0.100149 0
M  V30 1380 H 126.683 3.90612 -0.852211 0
M  V30 1381 H 128.123 4.23794 0.132235 0
M  V30 1382 C 126.582 3.16337 1.159 0
M  V30 1383 O 127.112 3.33074 2.24555 0
M  V30 1384 N 125.318 2.70385 1.06491 0
M  V30 1385 H 124.865 2.56966 0.180668 0
M  V30 1386 H 124.823 2.49871 1.90819 0
M  V30 1387 N 128.595 0.856903 1.32268 0
M  V30 1388 C 129.842 0.461386 1.97174 0
M  V30 1389 C 130.17 -0.983491 1.67803 0
M  V30 1390 O 129.425 -1.70541 0.959903 0
M  V30 1391 C 129.724 0.649919 3.51441 0
M  V30 1392 C 129.39 2.0656 4.00804 0
M  V30 1393 C 128.052 2.45279 4.13995 0
M  V30 1394 C 130.404 2.98947 4.26943 0
M  V30 1395 C 127.732 3.75653 4.50668 0
M  V30 1396 C 130.084 4.28822 4.65075 0
M  V30 1397 C 128.748 4.67472 4.76472 0
M  V30 1398 H 128.018 0.168833 0.72151 0
M  V30 1399 H 130.665 1.08739 1.57633 0
M  V30 1400 H 128.97 -0.0593018 3.91755 0
M  V30 1401 H 130.667 0.32391 3.9969 0
M  V30 1402 H 127.257 1.75495 3.91024 0
M  V30 1403 H 131.441 2.70265 4.16258 0
M  V30 1404 H 126.697 4.05379 4.57688 0
M  V30 1405 H 130.871 5.0047 4.84255 0
M  V30 1406 H 128.498 5.68539 5.04646 0
M  V30 1407 N 130.073 -1.45103 0.615059 0
M  V30 1408 C 130.983 -2.34382 -0.101034 0
M  V30 1409 C 131.999 -1.51681 -0.852585 0
M  V30 1410 O 133.175 -1.8446 -0.808484 0
M  V30 1411 C 130.24 -3.29417 -1.08099 0
M  V30 1412 C 129.301 -4.28025 -0.330577 0
M  V30 1413 C 128.534 -5.1852 -1.26385 0
M  V30 1414 O 128.757 -5.12598 -2.50198 0
M  V30 1415 O 127.691 -5.97122 -0.756866 0
M  V30 1416 H 131.517 -2.97033 0.632855 0
M  V30 1417 H 129.102 -1.4461 0.375293 0
M  V30 1418 H 130.984 -3.87958 -1.6452 0
M  V30 1419 H 129.659 -2.69321 -1.79577 0
M  V30 1420 H 128.566 -3.73078 0.276283 0
M  V30 1421 H 129.899 -4.90997 0.343866 0
M  V30 1422 N 131.551 -0.354651 -1.53558 0
M  V30 1423 C 132.461 0.50515 -2.29097 0
M  V30 1424 C 133.477 1.10223 -1.34636 0
M  V30 1425 O 134.653 1.11553 -1.67684 0
M  V30 1426 C 131.718 1.63479 -3.05738 0
M  V30 1427 C 130.779 1.06636 -4.15845 0
M  V30 1428 C 130.012 2.14217 -4.88822 0
M  V30 1429 O 130.235 3.35137 -4.61562 0
M  V30 1430 O 129.169 1.77887 -5.75013 0
M  V30 1431 H 132.995 -0.109237 -3.03503 0
M  V30 1432 H 130.58 -0.119357 -1.48922 0
M  V30 1433 H 132.462 2.2918 -3.5363 0
M  V30 1434 H 131.137 2.23478 -2.34178 0
M  V30 1435 H 130.044 0.373565 -3.7223 0
M  V30 1436 H 131.377 0.511081 -4.89539 0
M  V30 1437 N 133.029 1.57378 -0.0835403 0
M  V30 1438 C 134.278 1.93106 0.582498 0
M  V30 1439 C 134.591 0.96651 1.70053 0
M  V30 1440 O 135.797 1.21705 2.42693 0
M  V30 1441 C 134.253 3.43076 1.08751 0
M  V30 1442 C 133.861 4.48 -0.000146404 0
M  V30 1443 C 135.605 3.87785 1.72694 0
M  V30 1444 C 133.512 5.89113 0.519568 0
M  V30 1445 H 132.442 0.720775 0.221358 0
M  V30 1446 H 135.093 1.82821 -0.157675 0
M  V30 1447 H 133.475 3.48474 1.88101 0
M  V30 1448 H 134.649 4.54233 -0.775199 0
M  V30 1449 H 132.964 4.1283 -0.54406 0
M  V30 1450 H 135.561 4.90604 2.1263 0
M  V30 1451 H 135.904 3.25796 2.59158 0
M  V30 1452 H 136.437 3.8504 0.999457 0
M  V30 1453 H 133.176 6.54775 -0.308186 0
M  V30 1454 H 132.696 5.86376 1.26188 0
M  V30 1455 H 134.375 6.39346 0.992237 0
M  V30 1456 N 134.507 -0.190092 1.56449 0
M  V30 1457 C 135.755 -0.907908 1.80559 0
M  V30 1458 C 136.076 -1.83583 0.657438 0
M  V30 1459 O 135.346 -1.93203 -0.323924 0
M  V30 1460 H 133.926 -0.338247 0.666032 0
M  V30 1461 H 136.588 -0.194403 1.93928 0
M  V30 1462 H 135.684 -1.49604 2.73907 0
M  V30 1463 N 135.985 -1.50799 -0.457987 0
M  V30 1464 C 137.396 -1.55152 -1.0385 0
M  V30 1465 C 137.747 -0.362719 -1.92818 0
M  V30 1466 O 136.872 0.522915 -2.09987 0
M  V30 1467 C 137.467 -2.81173 -1.89017 0
M  V30 1468 C 136.026 -2.88164 -2.42154 0
M  V30 1469 C 135.173 -2.49591 -1.20829 0
M  V30 1470 H 138.124 -1.56874 -0.240068 0
M  V30 1471 H 138.145 -2.63769 -2.74238 0
M  V30 1472 H 137.657 -3.67677 -1.24238 0
M  V30 1473 H 135.758 -2.06042 -3.10447 0
M  V30 1474 H 135.871 -3.91356 -2.76364 0
M  V30 1475 H 134.235 -2.02322 -1.54719 0
M  V30 1476 H 135.018 -3.38418 -0.576927 0
M  V30 1477 N 137.463 0.71206 -1.40597 0
M  V30 1478 C 138.393 1.83889 -1.43899 0
M  V30 1479 C 139.374 1.67442 -0.299504 0
M  V30 1480 O 140.559 1.87421 -0.508624 0
M  V30 1481 C 137.689 3.21877 -1.30431 0
M  V30 1482 C 136.643 3.53002 -2.42019 0
M  V30 1483 C 135.969 4.90172 -2.13626 0
M  V30 1484 C 137.269 3.53643 -3.84362 0
M  V30 1485 H 138.963 1.81383 -2.38203 0
M  V30 1486 H 136.509 0.871237 -1.14654 0
M  V30 1487 H 138.462 4.00404 -1.31357 0
M  V30 1488 H 137.186 3.24968 -0.326049 0
M  V30 1489 H 135.845 2.76818 -2.40349 0
M  V30 1490 H 135.493 4.89869 -1.14182 0
M  V30 1491 H 135.193 5.11962 -2.88389 0
M  V30 1492 H 136.717 5.71028 -2.1624 0
M  V30 1493 H 138.131 4.22203 -3.87837 0
M  V30 1494 H 136.528 3.86961 -4.58673 0
M  V30 1495 H 137.598 2.52954 -4.13693 0
M  V30 1496 N 138.941 1.26152 0.944643 0
M  V30 1497 C 140.218 1.02247 1.66748 0
M  V30 1498 C 140.598 -0.448202 2.06287 0
M  V30 1499 O 139.946 -1.42779 1.78399 0
M  V30 1500 C 140.156 1.96788 2.88228 0
M  V30 1501 C 141.504 2.25201 3.59958 0
M  V30 1502 O 142.528 1.94626 2.98327 0
M  V30 1503 O 141.387 2.77242 4.70956 0
M  V30 1504 H 138.481 0.388517 0.730057 0
M  V30 1505 H 141.027 1.37348 0.99668 0
M  V30 1506 H 139.799 2.96047 2.55875 0
M  V30 1507 H 139.422 1.62145 3.63035 0
M  V30 1508 N 140.419 -1.14872 1.07899 0
M  V30 1509 C 141.644 -1.90202 0.826926 0
M  V30 1510 C 142.069 -1.77774 -0.614664 0
M  V30 1511 O 141.427 -1.11431 -1.43013 0
M  V30 1512 C 141.475 -3.38352 1.24702 0
M  V30 1513 O 140.579 -4.10497 0.39575 0
M  V30 1514 H 139.92 -0.591968 0.300782 0
M  V30 1515 H 142.45 -1.45437 1.43907 0
M  V30 1516 H 142.46 -3.89156 1.22563 0
M  V30 1517 H 141.135 -3.46715 2.29698 0
M  V30 1518 H 139.712 -3.69796 0.480117 0
M  V30 1519 N 141.898 -0.863906 -1.31812 0
M  V30 1520 C 143.175 -0.39275 -1.91616 0
M  V30 1521 C 143.555 1.12461 -1.7865 0
M  V30 1522 O 142.903 1.95045 -1.19037 0
M  V30 1523 C 143.113 -0.867385 -3.38049 0
M  V30 1524 C 144.461 -0.889966 -4.15168 0
M  V30 1525 O 145.485 -0.812635 -3.46806 0
M  V30 1526 O 144.344 -1.00079 -5.37258 0
M  V30 1527 H 141.438 -0.116358 -0.818773 0
M  V30 1528 H 143.984 -0.951418 -1.40521 0
M  V30 1529 H 142.756 -1.91081 -3.41473 0
M  V30 1530 H 142.379 -0.286687 -3.96565 0
M  V30 1531 N 143.376 1.44774 -0.622745 0
M  V30 1532 C 144.306 2.33382 0.0741861 0
M  V30 1533 C 145.287 1.47719 0.843387 0
M  V30 1534 O 146.472 1.76458 0.810934 0
M  V30 1535 C 143.602 3.30663 1.06204 0
M  V30 1536 C 142.556 4.26079 0.405037 0
M  V30 1537 C 141.882 5.13165 1.5022 0
M  V30 1538 C 143.182 5.1781 -0.683414 0
M  V30 1539 H 144.876 2.91905 -0.665713 0
M  V30 1540 H 142.422 1.40363 -0.321587 0
M  V30 1541 H 144.375 3.9153 1.55827 0
M  V30 1542 H 143.099 2.70331 1.83272 0
M  V30 1543 H 141.758 3.66532 -0.0704683 0
M  V30 1544 H 141.406 4.49191 2.26355 0
M  V30 1545 H 141.106 5.77812 1.06803 0
M  V30 1546 H 142.63 5.76902 2.00041 0
M  V30 1547 H 144.044 5.72661 -0.270631 0
M  V30 1548 H 142.441 5.91015 -1.04023 0
M  V30 1549 H 143.511 4.59326 -1.55395 0
M  V30 1550 N 144.854 0.36279 1.53368 0
M  V30 1551 C 145.801 -0.485008 2.25646 0
M  V30 1552 C 146.771 -1.07982 1.2621 0
M  V30 1553 O 147.956 -1.11284 1.54986 0
M  V30 1554 C 145.096 -1.62023 3.04701 0
M  V30 1555 C 144.209 -1.05086 4.19024 0
M  V30 1556 C 143.344 -2.15496 4.85525 0
M  V30 1557 C 142.383 -1.5601 5.91884 0
M  V30 1558 N 141.52 -2.60241 6.52088 0
M  V30 1559 H 146.36 0.137864 2.97681 0
M  V30 1560 H 143.897 0.0798061 1.46883 0
M  V30 1561 H 145.855 -2.28887 3.48807 0
M  V30 1562 H 144.485 -2.2138 2.34927 0
M  V30 1563 H 143.537 -0.27259 3.79422 0
M  V30 1564 H 144.849 -0.575926 4.95464 0
M  V30 1565 H 144.003 -2.90186 5.32801 0
M  V30 1566 H 142.742 -2.66341 4.08551 0
M  V30 1567 H 141.747 -0.798338 5.43973 0
M  V30 1568 H 142.972 -1.05994 6.70777 0
M  V30 1569 H 140.918 -3.10304 5.77968 0
M  V30 1570 H 140.835 -2.17426 7.24059 0
M  V30 1571 H 142.103 -3.34641 7.04014 0
M  V30 1572 N 146.332 -1.57332 0.0918853 0
M  V30 1573 C 147.743 -1.81496 -0.437739 0
M  V30 1574 C 148.094 -1.00727 -1.6837 0
M  V30 1575 O 147.219 -0.235694 -2.15113 0
M  V30 1576 C 147.814 -3.29197 -0.800939 0
M  V30 1577 C 146.373 -3.54136 -1.27532 0
M  V30 1578 C 145.52 -2.75979 -0.270392 0
M  V30 1579 H 148.471 -1.55494 0.317366 0
M  V30 1580 H 148.492 -3.42344 -1.66074 0
M  V30 1581 H 148.004 -3.87955 0.106078 0
M  V30 1582 H 146.105 -3.00705 -2.20016 0
M  V30 1583 H 146.218 -4.62792 -1.23938 0
M  V30 1584 H 144.582 -2.43349 -0.751872 0
M  V30 1585 H 145.365 -3.37484 0.629248 0
M  V30 1586 N 147.81 0.181792 -1.56548 0
M  V30 1587 C 149.226 0.53316 -1.50431 0
M  V30 1588 C 149.426 1.85184 -0.794297 0
M  V30 1589 O 148.482 2.50058 -0.350318 0
M  V30 1590 C 149.795 0.575597 -2.9514 0
M  V30 1591 C 151.343 0.663519 -3.05886 0
M  V30 1592 C 151.818 0.736946 -4.52032 0
M  V30 1593 N 153.309 0.800118 -4.56237 0
M  V30 1594 C 154.044 0.877327 -5.66649 0
M  V30 1595 N 153.54 0.916016 -6.86718 0
M  V30 1596 N 155.333 0.915542 -5.54594 0
M  V30 1597 H 147.484 -0.683025 -2.01118 0
M  V30 1598 H 149.747 -0.244988 -0.915797 0
M  V30 1599 H 149.453 -0.324482 -3.502 0
M  V30 1600 H 149.327 1.42572 -3.49218 0
M  V30 1601 H 151.714 1.55403 -2.50867 0
M  V30 1602 H 151.795 -0.21307 -2.54911 0
M  V30 1603 H 151.439 -0.149262 -5.07681 0
M  V30 1604 H 151.369 1.62953 -5.00753 0
M  V30 1605 H 153.86 0.778926 -3.69785 0
M  V30 1606 H 154.173 0.975813 -7.66614 0
M  V30 1607 H 152.518 0.884469 -6.89349 0
M  V30 1608 H 155.709 0.882245 -4.59711 0
M  V30 1609 H 155.882 0.972253 -6.40665 0
M  V30 1610 N 149.288 1.51039 0.449983 0
M  V30 1611 C 150.235 1.71439 1.54523 0
M  V30 1612 C 151.205 0.555871 1.56522 0
M  V30 1613 O 152.39 0.788871 1.73728 0
M  V30 1614 C 149.53 1.83384 2.92343 0
M  V30 1615 C 148.643 3.10873 2.9997 0
M  V30 1616 C 147.778 3.13488 4.28834 0
M  V30 1617 C 146.817 4.35343 4.30282 0
M  V30 1618 N 145.954 4.35579 5.5065 0
M  V30 1619 H 150.794 2.64934 1.36433 0
M  V30 1620 H 148.331 1.31312 0.662982 0
M  V30 1621 H 150.289 1.88291 3.72293 0
M  V30 1622 H 148.919 0.933086 3.0902 0
M  V30 1623 H 147.971 3.15336 2.12761 0
M  V30 1624 H 149.283 4.00814 2.96901 0
M  V30 1625 H 148.437 3.17241 5.17149 0
M  V30 1626 H 147.176 2.21414 4.34543 0
M  V30 1627 H 146.181 4.3178 3.40362 0
M  V30 1628 H 147.406 5.28668 4.26248 0
M  V30 1629 H 145.352 3.46369 5.57104 0
M  V30 1630 H 145.269 5.19313 5.49409 0
M  V30 1631 H 146.537 4.43507 6.41032 0
M  V30 1632 N 150.766 -0.704594 1.40972 0
M  V30 1633 C 151.994 -1.49354 1.43182 0
M  V30 1634 C 152.409 -1.88768 0.0345508 0
M  V30 1635 O 151.766 -1.56184 -0.944081 0
M  V30 1636 C 151.817 -2.76187 2.33244 0
M  V30 1637 O 151.538 -2.38436 3.67532 0
M  V30 1638 C 153.039 -3.7 2.44162 0
M  V30 1639 H 150.259 -0.460559 0.487982 0
M  V30 1640 H 152.803 -0.868261 1.85153 0
M  V30 1641 H 150.958 -3.34974 1.94606 0
M  V30 1642 H 151.372 -3.20126 4.15475 0
M  V30 1643 H 152.846 -4.55803 3.11364 0
M  V30 1644 H 153.323 -4.13867 1.47006 0
M  V30 1645 H 153.929 -3.17121 2.83398 0
M  V30 1646 N 152.244 -1.26651 -0.937939 0
M  V30 1647 C 153.472 -1.15173 -1.7188 0
M  V30 1648 C 153.887 0.292668 -1.86518 0
M  V30 1649 O 153.244 1.20014 -1.37488 0
M  V30 1650 C 153.295 -1.81925 -3.12387 0
M  V30 1651 O 153.016 -3.2072 -2.98446 0
M  V30 1652 C 154.517 -1.76442 -4.06673 0
M  V30 1653 H 151.737 -0.400911 -0.538063 0
M  V30 1654 H 154.281 -1.67332 -1.1756 0
M  V30 1655 H 152.436 -1.33696 -3.63599 0
M  V30 1656 H 152.85 -3.53802 -3.872 0
M  V30 1657 H 154.324 -2.27781 -5.02812 0
M  V30 1658 H 154.801 -0.731608 -4.33064 0
M  V30 1659 H 155.407 -2.24238 -3.61382 0
M  V30 1660 N 153.722 1.14298 -1.08507 0
M  V30 1661 C 154.968 1.85854 -0.826438 0
M  V30 1662 C 155.323 1.81413 0.640878 0
M  V30 1663 O 154.616 1.23463 1.46518 0
M  V30 1664 C 154.81 3.33547 -1.28379 0
M  V30 1665 C 154.639 3.52369 -2.79403 0
M  V30 1666 C 153.409 3.67159 -3.47164 0
M  V30 1667 C 155.607 3.49203 -3.77573 0
M  V30 1668 N 153.589 3.74149 -4.86709 0
M  V30 1669 C 154.96 3.6245 -5.03021 0
M  V30 1670 C 157.015 3.32547 -3.70563 0
M  V30 1671 C 155.718 3.60761 -6.2229 0
M  V30 1672 C 157.744 3.32162 -4.89308 0
M  V30 1673 C 157.106 3.45949 -6.13595 0
M  V30 1674 H 153.205 0.696705 -0.355143 0
M  V30 1675 H 155.789 1.36981 -1.38362 0
M  V30 1676 H 153.96 3.81008 -0.754166 0
M  V30 1677 H 155.692 3.92867 -0.971469 0
M  V30 1678 H 152.447 3.68433 -2.9758 0
M  V30 1679 H 152.871 3.81359 -5.5937 0
M  V30 1680 H 157.513 3.20797 -2.75407 0
M  V30 1681 H 155.231 3.71286 -7.17755 0
M  V30 1682 H 158.817 3.20485 -4.85573 0
M  V30 1683 H 157.697 3.456 -7.03939 0
M  V30 1684 N 155.201 0.870884 1.31352 0
M  V30 1685 C 156.131 0.343096 2.30966 0
M  V30 1686 C 157.112 -0.566507 1.60389 0
M  V30 1687 O 158.297 -0.483336 1.88089 0
M  V30 1688 C 155.427 -0.455487 3.443 0
M  V30 1689 C 154.381 0.361103 4.26474 0
M  V30 1690 C 153.707 -0.563221 5.31725 0
M  V30 1691 C 155.007 1.59566 4.97329 0
M  V30 1692 H 156.701 1.17548 2.75359 0
M  V30 1693 H 154.247 0.566686 1.32381 0
M  V30 1694 H 156.2 -0.83525 4.13039 0
M  V30 1695 H 154.924 -1.32139 2.98675 0
M  V30 1696 H 153.583 0.722825 3.59403 0
M  V30 1697 H 153.231 -1.42643 4.82351 0
M  V30 1698 H 152.931 -0.0207409 5.87596 0
M  V30 1699 H 154.455 -0.939808 6.03324 0
M  V30 1700 H 155.869 1.28728 5.58661 0
M  V30 1701 H 154.266 2.07728 5.63 0
M  V30 1702 H 155.336 2.34798 4.24262 0
M  V30 1703 N 156.679 -1.44442 0.630414 0
M  V30 1704 C 157.611 -2.2892 -0.113347 0
M  V30 1705 C 158.624 -1.41243 -0.80959 0
M  V30 1706 O 159.813 -1.65402 -0.671156 0
M  V30 1707 C 156.913 -3.17594 -1.18266 0
M  V30 1708 C 156.086 -4.33682 -0.569073 0
M  V30 1709 C 155.145 -5.03397 -1.53226 0
M  V30 1710 O 154.171 -5.59438 -1.04967 0
M  V30 1711 N 155.373 -5.04783 -2.86661 0
M  V30 1712 H 158.138 -2.93392 0.611636 0
M  V30 1713 H 155.699 -1.54881 0.471523 0
M  V30 1714 H 157.691 -3.61097 -1.82732 0
M  V30 1715 H 156.261 -2.54876 -1.80988 0
M  V30 1716 H 155.481 -3.9338 0.254187 0
M  V30 1717 H 156.769 -5.08608 -0.139767 0
M  V30 1718 H 156.167 -4.60584 -3.28449 0
M  V30 1719 H 154.724 -5.52077 -3.46489 0
M  V30 1720 N 158.157 -0.370918 -1.53173 0
M  V30 1721 C 159.12 0.460778 -2.24521 0
M  V30 1722 C 160.12 1.00536 -1.25496 0
M  V30 1723 O 161.31 0.890266 -1.49733 0
M  V30 1724 C 158.442 1.64457 -2.98608 0
M  V30 1725 H 159.635 -0.163613 -2.99453 0
M  V30 1726 H 157.188 -0.122699 -1.55818 0
M  V30 1727 H 157.923 2.30691 -2.2793 0
M  V30 1728 H 157.708 1.26099 -3.7127 0
M  V30 1729 H 159.198 2.23384 -3.5283 0
M  V30 1730 N 159.635 1.57281 -0.100228 0
M  V30 1731 C 160.598 2.13158 0.842398 0
M  V30 1732 C 161.598 1.06202 1.20738 0
M  V30 1733 O 162.788 1.32066 1.13597 0
M  V30 1734 C 159.92 2.65639 2.13655 0
M  V30 1735 H 161.113 2.97766 0.357114 0
M  V30 1736 H 158.666 1.5559 0.148823 0
M  V30 1737 H 159.401 1.84566 2.66657 0
M  V30 1738 H 159.186 3.43844 1.88451 0
M  V30 1739 H 160.676 3.08846 2.81077 0
M  V30 1740 N 161.113 -0.173488 1.56642 0
M  V30 1741 C 162.338 -0.910149 1.86363 0
M  V30 1742 C 162.763 -1.75132 0.686318 0
M  V30 1743 O 162.121 -1.77595 -0.364643 0
M  V30 1744 C 162.169 -1.76447 3.14482 0
M  V30 1745 O 161.273 -2.86584 2.96553 0
M  V30 1746 H 160.614 -0.255086 0.613047 0
M  V30 1747 H 163.144 -0.172283 2.03873 0
M  V30 1748 H 163.154 -2.16483 3.45831 0
M  V30 1749 H 161.829 -1.14658 3.99783 0
M  V30 1750 H 160.406 -2.50146 2.76553 0
M  V30 1751 N 162.591 -1.51276 -0.441967 0
M  V30 1752 C 163.521 -1.752 -1.54361 0
M  V30 1753 C 164.502 -0.601682 -1.59103 0
M  V30 1754 O 165.687 -0.843913 -1.74905 0
M  V30 1755 C 162.817 -1.87282 -2.92477 0
M  V30 1756 C 161.771 -3.02687 -3.02596 0
M  V30 1757 C 161.097 -2.99947 -4.42647 0
M  V30 1758 C 162.397 -4.4273 -2.77106 0
M  V30 1759 H 164.091 -2.67442 -1.34592 0
M  V30 1760 H 161.637 -1.28694 -0.646048 0
M  V30 1761 H 163.59 -2.02602 -3.695 0
M  V30 1762 H 162.314 -0.916844 -3.13467 0
M  V30 1763 H 160.973 -2.87065 -2.28012 0
M  V30 1764 H 160.621 -2.02136 -4.60597 0
M  V30 1765 H 160.321 -3.77439 -4.50348 0
M  V30 1766 H 161.845 -3.17354 -5.2165 0
M  V30 1767 H 163.259 -4.58727 -3.43864 0
M  V30 1768 H 161.656 -5.21893 -2.96222 0
M  V30 1769 H 162.726 -4.53087 -1.72744 0
M  V30 1770 N 164.069 0.697108 -1.41344 0
M  V30 1771 C 164.999 1.82353 -1.45841 0
M  V30 1772 C 165.98 1.67115 -0.317247 0
M  V30 1773 O 167.165 1.86871 -0.528474 0
M  V30 1774 C 164.295 3.20476 -1.33838 0
M  V30 1775 C 163.249 3.50415 -2.4575 0
M  V30 1776 C 162.575 4.87878 -2.18813 0
M  V30 1777 C 163.875 3.49546 -3.88091 0
M  V30 1778 H 165.569 1.78846 -2.40113 0
M  V30 1779 H 163.115 0.859028 -1.15571 0
M  V30 1780 H 165.068 3.98988 -1.35596 0
M  V30 1781 H 163.792 3.24604 -0.360498 0
M  V30 1782 H 162.451 2.74253 -2.43271 0
M  V30 1783 H 162.099 4.8863 -1.19371 0
M  V30 1784 H 161.799 5.08875 -2.93803 0
M  V30 1785 H 163.323 5.68702 -2.22284 0
M  V30 1786 H 164.737 4.18066 -3.92293 0
M  V30 1787 H 163.134 3.82075 -4.62751 0
M  V30 1788 H 164.204 2.48552 -4.16353 0
M  V30 1789 N 165.547 1.27147 0.931209 0
M  V30 1790 C 166.794 1.13278 1.67852 0
M  V30 1791 C 167.122 -0.32204 1.91815 0
M  V30 1792 O 166.377 -1.25224 1.50391 0
M  V30 1793 C 166.676 1.8579 3.05314 0
M  V30 1794 C 166.342 3.35657 3.01073 0
M  V30 1795 C 165.004 3.76536 2.99623 0
M  V30 1796 C 167.356 4.31299 2.92627 0
M  V30 1797 C 164.684 5.11426 2.87506 0
M  V30 1798 C 167.036 5.66242 2.82051 0
M  V30 1799 C 165.7 6.06418 2.7895 0
M  V30 1800 H 164.97 0.414515 0.614214 0
M  V30 1801 H 167.617 1.57712 1.08624 0
M  V30 1802 H 165.922 1.33854 3.68226 0
M  V30 1803 H 167.619 1.72491 3.62005 0
M  V30 1804 H 164.209 3.03146 3.02986 0
M  V30 1805 H 168.393 4.00692 2.92848 0
M  V30 1806 H 163.649 5.41705 2.83489 0
M  V30 1807 H 167.823 6.40026 2.74481 0
M  V30 1808 H 165.45 7.10895 2.69318 0
M  V30 1809 N 167.025 -1.13721 1.09112 0
M  V30 1810 C 168.271 -1.85198 0.826414 0
M  V30 1811 C 168.604 -1.83129 -0.646319 0
M  V30 1812 O 167.879 -1.2671 -1.47563 0
M  V30 1813 C 168.162 -3.33507 1.35812 0
M  V30 1814 C 168.015 -3.44108 2.89672 0
M  V30 1815 C 169.334 -4.28838 0.989256 0
M  V30 1816 H 166.453 -0.67243 0.301675 0
M  V30 1817 H 169.095 -1.33499 1.35197 0
M  V30 1818 H 167.245 -3.77666 0.911082 0
M  V30 1819 H 168.917 -3.08684 3.428 0
M  V30 1820 H 167.16 -2.85087 3.26967 0
M  V30 1821 H 167.831 -4.48388 3.21951 0
M  V30 1822 H 170.307 -3.92734 1.37475 0
M  V30 1823 H 169.183 -5.31051 1.38838 0
M  V30 1824 H 169.444 -4.4198 -0.102924 0
M  V30 1825 N 168.503 -0.877838 -1.30888 0
M  V30 1826 C 169.78 -0.413052 -1.91189 0
M  V30 1827 C 170.16 1.1056 -1.79832 0
M  V30 1828 O 169.508 1.93771 -1.21099 0
M  V30 1829 C 169.718 -0.903191 -3.3711 0
M  V30 1830 C 171.066 -0.93395 -4.14201 0
M  V30 1831 O 172.09 -0.849373 -3.45925 0
M  V30 1832 O 170.949 -1.05772 -5.36167 0
M  V30 1833 H 168.043 -0.125035 -0.817493 0
M  V30 1834 H 170.589 -0.966269 -1.39504 0
M  V30 1835 H 169.361 -1.94692 -3.39427 0
M  V30 1836 H 168.984 -0.328732 -3.96239 0
M  V30 1837 N 169.982 1.44106 -0.638065 0
M  V30 1838 C 170.93 2.3248 0.0748149 0
M  V30 1839 C 171.924 1.47746 0.828702 0
M  V30 1840 O 173.13 1.64049 0.740816 0
M  V30 1841 H 169.505 0.750771 0.0429686 0
M  V30 1842 H 171.476 2.90348 -0.688504 0
M  V30 1843 C 170.225 3.31843 1.03805 0
M  V30 1844 H 169.548 3.97059 0.467375 0
M  V30 1845 H 170.988 3.96345 1.50622 0
M  V30 1846 C 169.447 2.61291 2.1267 0
M  V30 1847 O 169.977 2.41702 3.20847 0
M  V30 1848 N 168.183 2.20915 1.88798 0
M  V30 1849 H 167.73 2.37047 1.00829 0
M  V30 1850 H 167.688 1.74038 2.61836 0
M  V30 1851 N 171.46 0.379036 1.52974 0
M  V30 1852 C 172.871 -0.0972525 1.86447 0
M  V30 1853 C 173.222 -1.47027 1.29914 0
M  V30 1854 O 172.347 -2.07135 0.626433 0
M  V30 1855 C 172.942 -0.183248 3.38304 0
M  V30 1856 C 171.501 -0.603812 3.71525 0
M  V30 1857 C 170.648 0.240632 2.76254 0
M  V30 1858 H 173.599 0.597316 1.4703 0
M  V30 1859 H 173.62 -1.00432 3.67006 0
M  V30 1860 H 173.132 0.816191 3.79421 0
M  V30 1861 H 171.233 -1.61099 3.35973 0
M  V30 1862 H 171.346 -0.369086 4.77676 0
M  V30 1863 H 169.71 -0.292548 2.53014 0
M  V30 1864 H 170.493 1.23786 3.20206 0
M  V30 1865 N 172.938 -1.57226 0.108567 0
M  V30 1866 C 174.184 -1.95121 -0.552761 0
M  V30 1867 C 174.517 -0.991345 -1.66991 0
M  V30 1868 O 173.792 -0.0267211 -1.94482 0
M  V30 1869 C 174.075 -3.43039 -1.09528 0
M  V30 1870 C 173.928 -4.49797 0.0177332 0
M  V30 1871 C 175.247 -3.92567 -1.98945 0
M  V30 1872 H 172.366 -0.709496 -0.199461 0
M  V30 1873 H 175.008 -1.89126 0.182011 0
M  V30 1874 H 173.158 -3.48279 -1.72146 0
M  V30 1875 H 174.83 -4.56661 0.652584 0
M  V30 1876 H 173.073 -4.284 0.682309 0
M  V30 1877 H 173.744 -5.50528 -0.402919 0
M  V30 1878 H 176.22 -3.89565 -1.46214 0
M  V30 1879 H 175.096 -4.96605 -2.33827 0
M  V30 1880 H 175.357 -3.32648 -2.91201 0
M  V30 1881 N 174.416 0.165178 -1.56732 0
M  V30 1882 C 175.664 0.879068 -1.8198 0
M  V30 1883 C 175.985 1.82514 -0.686561 0
M  V30 1884 O 175.255 1.93694 0.293146 0
M  V30 1885 H 173.835 0.327608 -0.671329 0
M  V30 1886 H 176.497 0.163526 -1.94213 0
M  V30 1887 H 175.593 1.45228 -2.76252 0
M  V30 1888 N 175.894 1.51508 0.433938 0
M  V30 1889 C 177.122 1.68157 1.20543 0
M  V30 1890 C 177.537 0.380362 1.84929 0
M  V30 1891 O 176.894 -0.641446 1.70856 0
M  V30 1892 C 176.945 2.79965 2.28696 0
M  V30 1893 O 176.666 4.05045 1.66943 0
M  V30 1894 C 178.167 3.07912 3.18912 0
M  V30 1895 H 175.387 0.56421 0.363191 0
M  V30 1896 H 177.931 1.97941 0.513754 0
M  V30 1897 H 176.086 2.5277 2.93574 0
M  V30 1898 H 176.5 4.67165 2.38448 0
M  V30 1899 H 177.974 3.89719 3.90926 0
M  V30 1900 H 178.451 2.20456 3.79863 0
M  V30 1901 H 179.057 3.36779 2.59731 0
M  V30 1902 N 177.372 -0.689602 1.41712 0
M  V30 1903 C 178.62 -1.4468 1.4111 0
M  V30 1904 C 178.941 -1.94986 0.0232196 0
M  V30 1905 O 178.211 -1.72097 -0.935913 0
M  V30 1906 H 176.791 -0.536847 0.519427 0
M  V30 1907 H 179.453 -0.815825 1.77004 0
M  V30 1908 H 178.549 -2.30706 2.10193 0
M  V30 1909 N 178.85 -1.27639 -0.924453 0
M  V30 1910 C 180.097 -1.14167 -1.67249 0
M  V30 1911 C 180.425 0.311863 -1.91984 0
M  V30 1912 O 179.68 1.24425 -1.51053 0
M  V30 1913 C 179.979 -1.87407 -3.04325 0
M  V30 1914 C 179.645 -3.37249 -2.99289 0
M  V30 1915 C 178.307 -3.7812 -2.97622 0
M  V30 1916 C 180.659 -4.32845 -2.90336 0
M  V30 1917 C 177.987 -5.12944 -2.8479 0
M  V30 1918 C 180.339 -5.6773 -2.79045 0
M  V30 1919 C 179.003 -6.07889 -2.7573 0
M  V30 1920 H 178.273 -0.417766 -0.612007 0
M  V30 1921 H 180.92 -1.58286 -1.07786 0
M  V30 1922 H 179.225 -1.35805 -3.67511 0
M  V30 1923 H 180.922 -1.74408 -3.61086 0
M  V30 1924 H 177.512 -3.04748 -3.01374 0
M  V30 1925 H 181.696 -4.02239 -2.90719 0
M  V30 1926 H 176.952 -5.432 -2.80612 0
M  V30 1927 H 181.126 -6.41472 -2.71083 0
M  V30 1928 H 178.753 -7.12314 -2.65544 0
M  V30 1929 N 180.328 1.1314 -1.09713 0
M  V30 1930 C 181.553 1.88862 -0.857081 0
M  V30 1931 C 181.978 1.78729 0.586304 0
M  V30 1932 O 181.336 1.13692 1.41222 0
M  V30 1933 C 181.384 3.36325 -1.30069 0
M  V30 1934 O 180.488 4.09815 -0.461007 0
M  V30 1935 H 179.829 0.587108 -0.310162 0
M  V30 1936 H 182.359 1.43129 -1.46203 0
M  V30 1937 H 182.369 3.87157 -1.28738 0
M  V30 1938 H 181.044 3.43017 -2.35185 0
M  V30 1939 H 179.621 3.68986 -0.538888 0
M  V30 1940 N 181.806 0.884767 1.30421 0
M  V30 1941 C 183.036 0.517293 2.00019 0
M  V30 1942 C 183.444 -0.898632 1.66497 0
M  V30 1943 O 182.787 -1.60245 0.898181 0
M  V30 1944 C 182.849 0.612025 3.54252 0
M  V30 1945 C 182.513 1.99222 4.1129 0
M  V30 1946 C 183.51 2.9616 4.273 0
M  V30 1947 C 181.195 2.29755 4.46674 0
M  V30 1948 C 183.189 4.21764 4.77906 0
M  V30 1949 C 180.876 3.55606 4.96979 0
M  V30 1950 C 181.874 4.51425 5.12547 0
M  V30 1951 O 181.562 5.75043 5.61766 0
M  V30 1952 H 181.294 0.198529 0.64619 0
M  V30 1953 H 183.848 1.1919 1.67281 0
M  V30 1954 H 182.078 -0.119561 3.86515 0
M  V30 1955 H 183.767 0.255859 4.05093 0
M  V30 1956 H 184.533 2.73882 4.00267 0
M  V30 1957 H 180.412 1.55942 4.33824 0
M  V30 1958 H 183.956 4.96561 4.89972 0
M  V30 1959 H 179.853 3.7772 5.23448 0
M  V30 1960 H 180.621 5.77422 5.80109 0
M  V30 1961 N 183.284 -1.43765 0.645699 0
M  V30 1962 C 184.53 -2.02197 0.156271 0
M  V30 1963 C 184.863 -1.50776 -1.22393 0
M  V30 1964 O 184.138 -0.697771 -1.81553 0
M  V30 1965 C 184.421 -3.59749 0.158872 0
M  V30 1966 C 184.274 -4.21419 1.57245 0
M  V30 1967 C 185.593 -4.37149 -0.50879 0
M  V30 1968 H 182.712 -0.734694 0.0582602 0
M  V30 1969 H 185.354 -1.71157 0.824951 0
M  V30 1970 H 183.504 -3.86325 -0.410525 0
M  V30 1971 H 185.176 -4.059 2.19186 0
M  V30 1972 H 183.419 -3.78356 2.122 0
M  V30 1973 H 184.09 -5.30482 1.52619 0
M  V30 1974 H 186.566 -4.16093 -0.024412 0
M  V30 1975 H 185.442 -5.4683 -0.476213 0
M  V30 1976 H 185.703 -4.12839 -1.58165 0
M  V30 1977 N 184.763 -0.387143 -1.52771 0
M  V30 1978 C 185.711 0.463953 -2.27926 0
M  V30 1979 C 186.705 1.06493 -1.31741 0
M  V30 1980 O 187.911 1.00565 -1.49287 0
M  V30 1981 H 184.286 0.16837 -0.732909 0
M  V30 1982 H 186.257 -0.19141 -2.97785 0
M  V30 1983 C 185.006 1.5803 -3.09713 0
M  V30 1984 H 184.329 1.12718 -3.83581 0
M  V30 1985 H 185.769 2.15008 -3.65442 0
M  V30 1986 C 184.228 2.53509 -2.2189 0
M  V30 1987 O 184.758 3.56863 -1.84422 0
M  V30 1988 N 182.964 2.23199 -1.86093 0
M  V30 1989 H 182.511 1.39185 -2.16761 0
M  V30 1990 H 182.469 2.87333 -1.27621 0
M  V30 1991 N 186.241 1.57166 -0.116904 0
M  V30 1992 C 187.489 1.94737 0.540533 0
M  V30 1993 C 187.81 1.00096 1.67349 0
M  V30 1994 O 187.08 0.0568854 1.95817 0
M  V30 1995 H 185.66 0.718981 0.202669 0
M  V30 1996 H 188.322 1.94017 -0.185353 0
M  V30 1997 H 187.418 2.97719 0.936483 0
M  V30 1998 N 187.719 -0.156864 1.56817 0
M  V30 1999 C 188.944 -0.890331 1.87318 0
M  V30 2000 C 189.369 -1.74394 0.704855 0
M  V30 2001 O 188.727 -1.77972 -0.345786 0
M  V30 2002 C 188.775 -1.73102 3.16336 0
M  V30 2003 O 187.879 -2.83422 2.99576 0
M  V30 2004 H 187.22 -0.24857 0.615718 0
M  V30 2005 H 189.75 -0.150649 2.04045 0
M  V30 2006 H 189.76 -2.12803 3.48107 0
M  V30 2007 H 188.435 -1.10412 4.00976 0
M  V30 2008 H 187.012 -2.47199 2.7919 0
M  V30 2009 N 189.197 -1.51736 -0.425897 0
M  V30 2010 C 190.445 -1.64644 -1.17204 0
M  V30 2011 C 190.766 -0.370486 -1.91448 0
M  V30 2012 O 190.036 0.614088 -1.86026 0
M  V30 2013 H 188.616 -0.606819 -0.435638 0
M  V30 2014 H 191.278 -1.88713 -0.487177 0
M  V30 2015 H 190.374 -2.47958 -1.89534 0
M  V30 2016 N 190.675 0.682077 -1.42076 0
M  V30 2017 C 191.638 1.77756 -1.44691 0
M  V30 2018 C 192.638 1.5726 -0.335535 0
M  V30 2019 O 193.828 1.63686 -0.596037 0
M  V30 2020 C 190.96 3.16301 -1.27146 0
M  V30 2021 H 192.153 1.76826 -2.42224 0
M  V30 2022 H 189.706 0.891012 -1.28416 0
M  V30 2023 H 190.441 3.22862 -0.305075 0
M  V30 2024 H 190.226 3.32581 -2.07683 0
M  V30 2025 H 191.716 3.96241 -1.31843 0
M  V30 2026 N 192.153 1.28127 0.917671 0
M  V30 2027 C 193.383 1.17722 1.6978 0
M  V30 2028 C 193.791 -0.267261 1.87303 0
M  V30 2029 O 193.134 -1.19286 1.39702 0
M  V30 2030 C 193.196 1.79958 3.11216 0
M  V30 2031 C 192.86 3.29187 3.16993 0
M  V30 2032 C 193.857 4.25679 2.98485 0
M  V30 2033 C 191.542 3.70075 3.39632 0
M  V30 2034 C 193.536 5.61035 3.02521 0
M  V30 2035 C 191.223 5.05557 3.433 0
M  V30 2036 C 192.221 6.00847 3.24764 0
M  V30 2037 O 191.909 7.33859 3.28187 0
M  V30 2038 H 191.641 0.409788 0.537634 0
M  V30 2039 H 194.195 1.69694 1.15728 0
M  V30 2040 H 192.425 1.22475 3.66793 0
M  V30 2041 H 194.114 1.64125 3.71238 0
M  V30 2042 H 194.88 3.95426 2.80826 0
M  V30 2043 H 190.759 2.96373 3.53106 0
M  V30 2044 H 194.303 6.35388 2.87971 0
M  V30 2045 H 190.2 5.35462 3.60486 0
M  V30 2046 H 190.968 7.42436 3.44575 0
M  V30 2047 N 193.631 -1.12557 1.10312 0
M  V30 2048 C 194.594 -2.16434 0.75424 0
M  V30 2049 C 195.594 -1.59278 -0.220685 0
M  V30 2050 O 196.784 -1.742 0.00230591 0
M  V30 2051 C 193.916 -3.40699 0.116987 0
M  V30 2052 H 195.109 -2.48811 1.67431 0
M  V30 2053 H 192.662 -1.27542 0.903475 0
M  V30 2054 H 193.397 -3.13921 -0.813877 0
M  V30 2055 H 193.182 -3.83459 0.818613 0
M  V30 2056 H 194.672 -4.17451 -0.111387 0
M  V30 2057 N 195.109 -0.891671 -1.2995 0
M  V30 2058 C 196.056 -0.361736 -2.27948 0
M  V30 2059 C 197.026 0.551761 -1.56668 0
M  V30 2060 O 198.211 0.478736 -1.84696 0
M  V30 2061 C 195.351 0.411825 -3.42634 0
M  V30 2062 C 194.464 -0.531651 -4.28716 0
M  V30 2063 C 193.599 0.258167 -5.30572 0
M  V30 2064 C 192.638 -0.680349 -6.08307 0
M  V30 2065 N 191.775 0.0745613 -7.0206 0
M  V30 2066 H 196.615 -1.20254 -2.72659 0
M  V30 2067 H 194.152 -0.604352 -1.34112 0
M  V30 2068 H 196.11 0.876304 -4.07893 0
M  V30 2069 H 194.74 1.21715 -2.98974 0
M  V30 2070 H 193.792 -1.11463 -3.63703 0
M  V30 2071 H 195.104 -1.25038 -4.82874 0
M  V30 2072 H 194.258 0.784204 -6.0161 0
M  V30 2073 H 192.997 1.01008 -4.77126 0
M  V30 2074 H 192.002 -1.21796 -5.3614 0
M  V30 2075 H 193.227 -1.43145 -6.63842 0
M  V30 2076 H 191.173 0.808883 -6.50994 0
M  V30 2077 H 191.09 -0.584409 -7.53738 0
M  V30 2078 H 192.358 0.581123 -7.77331 0
M  V30 2079 N 196.587 1.43421 -0.653314 0
M  V30 2080 C 197.864 1.95361 -0.0966581 0
M  V30 2081 C 198.244 1.59461 1.38331 0
M  V30 2082 O 197.592 0.879777 2.10884 0
M  V30 2083 C 197.802 3.47311 -0.342988 0
M  V30 2084 C 199.15 4.23875 -0.24798 0
M  V30 2085 O 200.174 3.55133 -0.275553 0
M  V30 2086 O 199.033 5.4623 -0.171771 0
M  V30 2087 H 196.127 0.826945 0.00956291 0
M  V30 2088 H 198.673 1.5336 -0.726558 0
M  V30 2089 H 197.445 3.66569 -1.36906 0
M  V30 2090 H 197.068 3.9631 0.319975 0
M  V30 2091 N 198.065 0.39524 1.52563 0
M  V30 2092 C 198.995 -0.428384 2.29537 0
M  V30 2093 C 199.976 -1.05831 1.33169 0
M  V30 2094 O 201.161 -1.06995 1.62067 0
M  V30 2095 C 198.291 -1.55274 3.10656 0
M  V30 2096 C 197.245 -1.04855 4.14957 0
M  V30 2097 C 196.571 -2.26543 4.84337 0
M  V30 2098 C 197.871 -0.112324 5.22179 0
M  V30 2099 H 199.565 0.213867 2.98635 0
M  V30 2100 H 197.111 0.104298 1.43622 0
M  V30 2101 H 199.064 -2.1358 3.63265 0
M  V30 2102 H 197.788 -2.22266 2.39302 0
M  V30 2103 H 196.447 -0.487985 3.63338 0
M  V30 2104 H 196.095 -2.92059 4.09525 0
M  V30 2105 H 195.795 -1.93466 5.54837 0
M  V30 2106 H 197.319 -2.85481 5.39753 0
M  V30 2107 H 198.733 -0.603752 5.70112 0
M  V30 2108 H 197.13 0.128968 5.99961 0
M  V30 2109 H 198.2 0.837052 4.77621 0
M  V30 2110 N 199.544 -1.57102 0.125237 0
M  V30 2111 C 200.507 -2.14471 -0.80838 0
M  V30 2112 C 201.507 -1.0811 -1.19033 0
M  V30 2113 O 202.697 -1.33856 -1.11482 0
M  V30 2114 C 199.829 -2.69005 -2.09402 0
M  V30 2115 H 201.022 -2.98297 -0.309696 0
M  V30 2116 H 198.575 -1.55807 -0.124051 0
M  V30 2117 H 199.31 -1.88785 -2.63687 0
M  V30 2118 H 199.095 -3.46799 -1.82957 0
M  V30 2119 H 200.585 -3.13278 -2.76128 0
M  V30 2120 N 201.022 0.148545 -1.56898 0
M  V30 2121 C 201.955 1.21293 -1.93296 0
M  V30 2122 C 202.933 1.41637 -0.798599 0
M  V30 2123 O 204.117 1.56275 -1.05406 0
M  V30 2124 C 201.244 2.5721 -2.20365 0
M  V30 2125 C 200.29 2.53469 -3.4301 0
M  V30 2126 S 201.123 2.00315 -4.96623 0
M  V30 2127 C 202.279 3.37964 -5.26812 0
M  V30 2128 H 202.512 0.902393 -2.83274 0
M  V30 2129 H 200.045 0.354094 -1.50285 0
M  V30 2130 H 202.003 3.35427 -2.36641 0
M  V30 2131 H 200.664 2.85454 -1.31054 0
M  V30 2132 H 199.857 3.53518 -3.59223 0
M  V30 2133 H 199.459 1.83359 -3.25968 0
M  V30 2134 H 201.751 4.34066 -5.20185 0
M  V30 2135 H 202.694 3.26606 -6.28279 0
M  V30 2136 H 203.102 3.35028 -4.54331 0
M  V30 2137 N 202.5 1.5196 0.417844 0
M  V30 2138 C 203.746 1.65836 1.16732 0
M  V30 2139 C 204.079 0.382881 1.90388 0
M  V30 2140 O 203.354 -0.618368 1.84408 0
M  V30 2141 C 203.637 2.87466 2.16876 0
M  V30 2142 C 203.49 4.25041 1.47174 0
M  V30 2143 C 204.809 3.04613 3.17646 0
M  V30 2144 H 201.928 0.603515 0.423011 0
M  V30 2145 H 204.57 1.84494 0.454105 0
M  V30 2146 H 202.72 2.71689 2.777 0
M  V30 2147 H 204.392 4.52527 0.895376 0
M  V30 2148 H 202.635 4.26843 0.773806 0
M  V30 2149 H 203.306 5.06176 2.20204 0
M  V30 2150 H 205.782 3.1923 2.66892 0
M  V30 2151 H 204.658 3.91247 3.8499 0
M  V30 2152 H 204.919 2.17541 3.84874 0
M  V30 2153 N 203.978 -0.674533 1.42435 0
M  V30 2154 C 204.941 -1.76986 1.45632 0
M  V30 2155 C 205.941 -1.5708 0.343871 0
M  V30 2156 O 207.131 -1.63367 0.604709 0
M  V30 2157 C 204.263 -3.15623 1.28822 0
M  V30 2158 H 205.456 -1.75539 2.43158 0
M  V30 2159 H 203.009 -0.884189 1.28887 0
M  V30 2160 H 203.744 -3.22696 0.322193 0
M  V30 2161 H 203.529 -3.31475 2.09444 0
M  V30 2162 H 205.019 -3.95537 1.33942 0
M  V30 2163 N 205.456 -1.28612 -0.910864 0
M  V30 2164 C 206.681 -1.1891 -1.69927 0
M  V30 2165 C 207.106 0.248372 -1.86453 0
M  V30 2166 O 206.464 1.17961 -1.37676 0
M  V30 2167 C 206.512 -1.89578 -3.06745 0
M  V30 2168 O 205.616 -1.20521 -3.94396 0
M  V30 2169 H 204.957 -0.412632 -0.520222 0
M  V30 2170 H 207.487 -1.69985 -1.1387 0
M  V30 2171 H 207.497 -1.97597 -3.56958 0
M  V30 2172 H 206.172 -2.94136 -2.94035 0
M  V30 2173 H 204.749 -1.20684 -3.52831 0
M  V30 2174 N 206.934 1.1197 -1.10907 0
M  V30 2175 C 208.211 1.79959 -0.766432 0
M  V30 2176 C 208.591 1.97466 0.746363 0
M  V30 2177 O 207.939 1.55491 1.67436 0
M  V30 2178 C 208.149 3.14009 -1.52314 0
M  V30 2179 C 209.497 3.89134 -1.69883 0
M  V30 2180 O 210.521 3.2368 -1.48692 0
M  V30 2181 O 209.38 5.06572 -2.05054 0
M  V30 2182 H 206.474 0.779208 -0.277062 0
M  V30 2183 H 209.02 1.18762 -1.21217 0
M  V30 2184 H 207.792 2.96587 -2.55249 0
M  V30 2185 H 207.415 3.82915 -1.07059 0
M  V30 2186 N 208.412 0.89855 1.29475 0
M  V30 2187 C 209.345 0.319981 2.25945 0
M  V30 2188 C 210.323 -0.567189 1.52387 0
M  V30 2189 O 211.507 -0.514254 1.8135 0
M  V30 2190 C 208.634 -0.544013 3.34303 0
M  V30 2191 C 207.68 0.275682 4.25608 0
M  V30 2192 S 208.513 1.67272 5.08704 0
M  V30 2193 C 209.669 0.815621 6.20563 0
M  V30 2194 H 209.902 1.13767 2.74671 0
M  V30 2195 H 207.435 0.69882 1.3768 0
M  V30 2196 H 209.393 -1.03673 3.97193 0
M  V30 2197 H 208.054 -1.33593 2.84274 0
M  V30 2198 H 207.247 -0.384263 5.02533 0
M  V30 2199 H 206.849 0.701496 3.67362 0
M  V30 2200 H 209.141 0.0385042 6.77489 0
M  V30 2201 H 210.084 1.55691 6.90772 0
M  V30 2202 H 210.492 0.370516 5.63283 0
M  V30 2203 N 209.89 -1.43072 0.660911 0
M  V30 2204 C 210.823 -2.28074 -0.0758862 0
M  V30 2205 C 211.801 -1.40271 -0.822362 0
M  V30 2206 O 212.985 -1.69713 -0.820352 0
M  V30 2207 C 210.112 -3.19843 -1.11437 0
M  V30 2208 C 209.158 -4.23957 -0.465069 0
M  V30 2209 S 209.991 -5.29978 0.767078 0
M  V30 2210 C 211.147 -6.25314 -0.270682 0
M  V30 2211 H 211.38 -2.90216 0.645139 0
M  V30 2212 H 208.913 -1.47697 0.449995 0
M  V30 2213 H 210.871 -3.73257 -1.70849 0
M  V30 2214 H 209.532 -2.56863 -1.80776 0
M  V30 2215 H 208.725 -4.88299 -1.24819 0
M  V30 2216 H 208.327 -3.73959 0.0551242 0
M  V30 2217 H 210.619 -6.67932 -1.13459 0
M  V30 2218 H 211.562 -7.07293 0.337916 0
M  V30 2219 H 211.97 -5.61195 -0.609937 0
M  V30 2220 N 211.368 -0.403325 -1.52352 0
M  V30 2221 C 212.614 0.174605 -2.02047 0
M  V30 2222 C 212.947 1.45282 -1.28867 0
M  V30 2223 O 212.222 1.90483 -0.393257 0
M  V30 2224 C 212.505 0.428238 -3.57545 0
M  V30 2225 C 212.358 -0.866248 -4.4138 0
M  V30 2226 C 213.677 1.21287 -4.23057 0
M  V30 2227 H 210.796 0.0619851 -0.734389 0
M  V30 2228 H 213.438 -0.53565 -1.82293 0
M  V30 2229 H 211.588 1.03327 -3.74507 0
M  V30 2230 H 213.26 -1.50265 -4.3614 0
M  V30 2231 H 211.503 -1.47851 -4.07827 0
M  V30 2232 H 212.174 -0.643249 -5.48239 0
M  V30 2233 H 214.65 0.700703 -4.10158 0
M  V30 2234 H 213.526 1.35909 -5.31808 0
M  V30 2235 H 213.787 2.23193 -3.81625 0
M  V30 2236 N 212.846 1.57033 -0.133567 0
M  V30 2237 C 213.776 2.1909 0.807567 0
M  V30 2238 C 214.757 1.13517 1.26681 0
M  V30 2239 O 215.942 1.41809 1.32679 0
M  V30 2240 C 213.072 2.80188 2.05212 0
M  V30 2241 C 212.026 3.91471 1.73015 0
M  V30 2242 C 211.352 4.39443 3.04622 0
M  V30 2243 C 212.652 5.12886 0.987168 0
M  V30 2244 H 214.346 2.97988 0.290403 0
M  V30 2245 H 211.892 1.43335 0.138239 0
M  V30 2246 H 213.845 3.22264 2.71521 0
M  V30 2247 H 212.569 1.98601 2.59278 0
M  V30 2248 H 211.228 3.49993 1.0909 0
M  V30 2249 H 210.876 3.54695 3.56651 0
M  V30 2250 H 210.576 5.14495 2.83847 0
M  V30 2251 H 212.1 4.8418 3.72024 0
M  V30 2252 H 213.514 5.51891 1.55208 0
M  V30 2253 H 211.911 5.93615 0.87985 0
M  V30 2254 H 212.981 4.84894 -0.0235286 0
M  V30 2255 N 214.325 -0.140222 1.56975 0
M  V30 2256 C 215.255 -1.17456 2.01808 0
M  V30 2257 C 216.236 -1.44415 0.898794 0
M  V30 2258 O 217.421 -1.5522 1.16707 0
M  V30 2259 C 214.551 -2.50607 2.40444 0
M  V30 2260 C 213.505 -2.38155 3.55621 0
M  V30 2261 C 212.831 -3.76078 3.80091 0
M  V30 2262 C 214.131 -1.85991 4.88062 0
M  V30 2263 H 215.825 -0.801743 2.88466 0
M  V30 2264 H 213.371 -0.38422 1.38779 0
M  V30 2265 H 215.324 -3.23197 2.7041 0
M  V30 2266 H 214.048 -2.89737 1.50732 0
M  V30 2267 H 212.707 -1.68016 3.25832 0
M  V30 2268 H 212.355 -4.12656 2.87618 0
M  V30 2269 H 212.055 -3.68606 4.57606 0
M  V30 2270 H 213.579 -4.50206 4.12488 0
M  V30 2271 H 214.993 -2.4838 5.16701 0
M  V30 2272 H 213.39 -1.89393 5.6943 0
M  V30 2273 H 214.46 -0.816023 4.77984 0
M  V30 2274 N 215.803 -1.52179 -0.40978 0
M  V30 2275 C 216.75 -1.75475 -1.49924 0
M  V30 2276 C 217.72 -0.597175 -1.54994 0
M  V30 2277 O 218.905 -0.834655 -1.71575 0
M  V30 2278 C 216.045 -1.9107 -2.87378 0
M  V30 2279 C 215.158 -3.18717 -2.91622 0
M  V30 2280 C 214.293 -3.24747 -4.20372 0
M  V30 2281 C 213.332 -4.46598 -4.18588 0
M  V30 2282 N 212.469 -4.50025 -5.38908 0
M  V30 2283 H 217.309 -2.68458 -1.29361 0
M  V30 2284 H 214.846 -1.33024 -0.627934 0
M  V30 2285 H 216.804 -1.98096 -3.6717 0
M  V30 2286 H 215.434 -1.01469 -3.06437 0
M  V30 2287 H 214.486 -3.20866 -2.04326 0
M  V30 2288 H 215.798 -4.08544 -2.86169 0
M  V30 2289 H 214.952 -3.30841 -5.08556 0
M  V30 2290 H 213.691 -2.32857 -4.28519 0
M  V30 2291 H 212.696 -4.40652 -3.28794 0
M  V30 2292 H 213.921 -5.39783 -4.12081 0
M  V30 2293 H 211.867 -3.61017 -5.47725 0
M  V30 2294 H 211.784 -5.33697 -5.35447 0
M  V30 2295 H 213.052 -4.60347 -6.29048 0
M  V30 2296 N 217.281 0.66697 -1.42791 0
M  V30 2297 C 218.509 1.45505 -1.47091 0
M  V30 2298 C 218.924 1.8861 -0.0845873 0
M  V30 2299 O 218.281 1.58632 0.90234 0
M  V30 2300 C 218.332 2.69906 -2.40485 0
M  V30 2301 O 218.053 2.28608 -3.73725 0
M  V30 2302 C 219.554 3.63396 -2.53886 0
M  V30 2303 H 216.774 0.447459 -0.500022 0
M  V30 2304 H 219.318 0.818866 -1.8739 0
M  V30 2305 H 217.473 3.29696 -2.03419 0
M  V30 2306 H 217.887 3.08997 -4.23817 0
M  V30 2307 H 219.361 4.47387 -3.2334 0
M  V30 2308 H 219.838 4.09824 -1.57927 0
M  V30 2309 H 220.444 3.09495 -2.91706 0
M  V30 2310 N 218.759 1.29093 0.90403 0
M  V30 2311 C 220.006 1.16813 1.65411 0
M  V30 2312 C 220.334 -0.28128 1.92455 0
M  V30 2313 O 219.589 -1.22006 1.53013 0
M  V30 2314 C 219.888 1.92224 3.01305 0
M  V30 2315 C 219.554 3.41968 2.93885 0
M  V30 2316 C 218.216 3.82807 2.91569 0
M  V30 2317 C 220.568 4.37409 2.83413 0
M  V30 2318 C 217.896 5.1741 2.76594 0
M  V30 2319 C 220.248 5.72097 2.69977 0
M  V30 2320 C 218.912 6.12199 2.66024 0
M  V30 2321 H 218.182 0.42745 0.605283 0
M  V30 2322 H 220.829 1.59981 1.05254 0
M  V30 2323 H 219.134 1.41635 3.65304 0
M  V30 2324 H 220.831 1.80131 3.58265 0
M  V30 2325 H 217.421 3.09504 2.96488 0
M  V30 2326 H 221.605 4.06813 2.84283 0
M  V30 2327 H 216.861 5.47596 2.71935 0
M  V30 2328 H 221.035 6.45704 2.60844 0
M  V30 2329 H 218.662 7.16448 2.54178 0
M  V30 2330 N 220.237 -1.11381 1.11499 0
M  V30 2331 C 221.484 -1.83132 0.864231 0
M  V30 2332 C 221.812 -1.84683 -0.610114 0
M  V30 2333 O 221.067 -1.29589 -1.46646 0
M  V30 2334 C 221.366 -3.30026 1.37177 0
M  V30 2335 C 221.032 -3.48634 2.85946 0
M  V30 2336 C 219.694 -3.53421 3.26569 0
M  V30 2337 C 222.046 -3.54837 3.81759 0
M  V30 2338 C 219.374 -3.61967 4.61733 0
M  V30 2339 C 221.726 -3.64915 5.1674 0
M  V30 2340 C 220.39 -3.67962 5.5692 0
M  V30 2341 H 219.66 -0.670127 0.316245 0
M  V30 2342 H 222.307 -1.31354 1.3935 0
M  V30 2343 H 220.612 -3.84304 0.762753 0
M  V30 2344 H 222.309 -3.84034 1.15408 0
M  V30 2345 H 218.899 -3.45579 2.53521 0
M  V30 2346 H 223.083 -3.50399 3.51474 0
M  V30 2347 H 218.339 -3.62603 4.92269 0
M  V30 2348 H 222.513 -3.68658 5.90816 0
M  V30 2349 H 220.14 -3.74336 6.61647 0
M  V30 2350 N 221.715 -0.905404 -1.28997 0
M  V30 2351 C 222.94 -0.549175 -1.99997 0
M  V30 2352 C 223.365 0.860276 -1.67275 0
M  V30 2353 O 222.723 1.57355 -0.900502 0
M  V30 2354 C 222.771 -0.755185 -3.52604 0
M  V30 2355 O 221.875 0.189692 -4.11964 0
M  V30 2356 H 221.216 -0.213899 -0.628604 0
M  V30 2357 H 223.746 -1.21856 -1.64354 0
M  V30 2358 H 223.756 -0.662045 -4.02593 0
M  V30 2359 H 222.431 -1.78271 -3.75755 0
M  V30 2360 H 221.008 0.0485257 -3.72868 0
M  V30 2361 N 223.193 1.4272 -0.668489 0
M  V30 2362 C 224.433 2.03497 -0.19194 0
M  V30 2363 C 224.797 1.51684 1.17712 0
M  V30 2364 O 225.998 2.04205 1.74796 0
M  V30 2365 C 224.269 3.56734 -0.218032 0
M  V30 2366 S 225.828 4.38395 0.188438 0
M  V30 2367 H 222.646 0.706542 -0.0794959 0
M  V30 2368 H 225.248 1.74563 -0.880235 0
M  V30 2369 H 223.952 3.91943 -1.2169 0
M  V30 2370 H 223.483 3.90333 0.490303 0
M  V30 2371 H 225.498 4.75345 1.42345 0
M  V30 2372 N 224.671 0.411399 1.52136 0
M  V30 2373 C 225.621 -0.430376 2.23901 0
M  V30 2374 C 226.605 -1.0116 1.25121 0
M  V30 2375 O 227.797 -0.934044 1.50348 0
M  V30 2376 C 224.926 -1.54527 3.06556 0
M  V30 2377 C 224.012 -0.9747 4.12747 0
M  V30 2378 N 224.403 -0.130991 5.0563 0
M  V30 2379 C 222.701 -1.24497 4.28271 0
M  V30 2380 C 223.402 0.186689 5.814 0
M  V30 2381 N 222.378 -0.42304 5.41951 0
M  V30 2382 H 226.18 0.220509 2.93072 0
M  V30 2383 H 223.694 0.221952 1.60876 0
M  V30 2384 H 225.691 -2.16093 3.56524 0
M  V30 2385 H 224.351 -2.19875 2.38925 0
M  V30 2386 H 225.362 0.23349 5.17373 0
M  V30 2387 H 222.039 -1.89787 3.7187 0
M  V30 2388 H 223.429 0.871673 6.66222 0
M  V30 2389 N 226.149 -1.5696 0.141893 0
M  V30 2390 C 227.096 -2.16501 -0.799737 0
M  V30 2391 C 228.066 -1.09643 -1.24771 0
M  V30 2392 O 229.251 -1.3766 -1.32115 0
M  V30 2393 C 226.391 -2.78679 -2.03549 0
M  V30 2394 C 225.504 -3.99914 -1.6338 0
M  V30 2395 C 224.639 -4.50106 -2.82096 0
M  V30 2396 C 223.678 -5.63819 -2.38275 0
M  V30 2397 N 222.815 -6.08651 -3.49983 0
M  V30 2398 H 227.655 -2.96632 -0.285179 0
M  V30 2399 H 225.192 -1.46533 -0.129053 0
M  V30 2400 H 227.15 -3.1287 -2.75986 0
M  V30 2401 H 225.78 -2.012 -2.52425 0
M  V30 2402 H 224.832 -3.71735 -0.807279 0
M  V30 2403 H 226.144 -4.82311 -1.27192 0
M  V30 2404 H 225.298 -4.86325 -3.62729 0
M  V30 2405 H 224.037 -3.66706 -3.21525 0
M  V30 2406 H 223.042 -5.2718 -1.56081 0
M  V30 2407 H 224.267 -6.49 -1.99938 0
M  V30 2408 H 222.213 -5.28188 -3.89042 0
M  V30 2409 H 222.13 -6.85961 -3.17794 0
M  V30 2410 H 223.398 -6.49515 -4.30988 0
M  V30 2411 N 227.627 0.131896 -1.57047 0
M  V30 2412 C 228.537 1.1815 -2.02676 0
M  V30 2413 C 229.553 1.46113 -0.944824 0
M  V30 2414 O 230.729 1.57485 -1.25541 0
M  V30 2415 C 227.794 2.49139 -2.41103 0
M  V30 2416 C 226.855 2.28688 -3.63318 0
M  V30 2417 C 226.088 3.53431 -3.99903 0
M  V30 2418 O 226.311 4.60223 -3.36973 0
M  V30 2419 O 225.245 3.45198 -4.93074 0
M  V30 2420 H 229.071 0.824069 -2.92306 0
M  V30 2421 H 226.656 0.341745 -1.45439 0
M  V30 2422 H 228.538 3.26338 -2.66611 0
M  V30 2423 H 227.213 2.84382 -1.54624 0
M  V30 2424 H 226.12 1.4939 -3.42977 0
M  V30 2425 H 227.453 1.98355 -4.50462 0
M  V30 2426 N 229.106 1.52395 0.401703 0
M  V30 2427 C 230.353 1.66817 1.14796 0
M  V30 2428 C 230.681 0.401772 1.90305 0
M  V30 2429 O 229.936 -0.615487 1.85769 0
M  V30 2430 C 230.235 2.84578 2.16217 0
M  V30 2431 C 229.901 4.22513 1.5746 0
M  V30 2432 C 228.563 4.60029 1.41161 0
M  V30 2433 C 230.915 5.0844 1.14622 0
M  V30 2434 C 228.243 5.81144 0.80552 0
M  V30 2435 C 230.595 6.30167 0.55428 0
M  V30 2436 C 229.259 6.66426 0.378482 0
M  V30 2437 H 228.529 0.610428 0.420069 0
M  V30 2438 H 231.176 1.86512 0.434212 0
M  V30 2439 H 229.481 2.59248 2.93764 0
M  V30 2440 H 231.178 2.92933 2.73845 0
M  V30 2441 H 227.768 3.92953 1.71132 0
M  V30 2442 H 231.952 4.80034 1.26021 0
M  V30 2443 H 227.208 6.07855 0.657399 0
M  V30 2444 H 231.382 6.96071 0.213983 0
M  V30 2445 H 229.009 7.60143 -0.0932606 0
M  V30 2446 N 230.584 -0.659388 1.43143 0
M  V30 2447 C 231.516 -1.7849 1.43784 0
M  V30 2448 C 232.529 -1.5932 0.334787 0
M  V30 2449 O 233.718 -1.68155 0.598842 0
M  V30 2450 C 230.818 -3.15828 1.22906 0
M  V30 2451 C 229.991 -3.61711 2.45934 0
M  V30 2452 C 229.05 -4.77831 2.20371 0
M  V30 2453 O 228.076 -4.87586 2.93681 0
M  V30 2454 N 229.278 -5.67611 1.21647 0
M  V30 2455 H 232.043 -1.7842 2.40803 0
M  V30 2456 H 229.604 -0.84302 1.3822 0
M  V30 2457 H 231.596 -3.91189 1.03697 0
M  V30 2458 H 230.166 -3.10707 0.343542 0
M  V30 2459 H 229.386 -2.76861 2.80609 0
M  V30 2460 H 230.674 -3.89112 3.27825 0
M  V30 2461 H 230.072 -5.62397 0.610449 0
M  V30 2462 H 228.629 -6.42719 1.08423 0
M  V30 2463 N 232.062 -1.29571 -0.897171 0
M  V30 2464 C 233.29 -1.20583 -1.68129 0
M  V30 2465 C 233.705 0.233181 -1.87354 0
M  V30 2466 O 233.062 1.15579 -1.41236 0
M  V30 2467 C 233.113 -1.91772 -3.06441 0
M  V30 2468 O 232.834 -3.30053 -2.88091 0
M  V30 2469 C 234.335 -1.89291 -4.00854 0
M  V30 2470 H 231.555 -0.417826 -0.525036 0
M  V30 2471 H 234.099 -1.70987 -1.12177 0
M  V30 2472 H 232.254 -1.45196 -3.59161 0
M  V30 2473 H 232.668 -3.65942 -3.75748 0
M  V30 2474 H 234.142 -2.43662 -4.95311 0
M  V30 2475 H 234.619 -0.869014 -4.30517 0
M  V30 2476 H 235.225 -2.35622 -3.54066 0
M  V30 2477 N 233.54 1.10788 -1.12088 0
M  V30 2478 C 234.786 1.82942 -0.875226 0
M  V30 2479 C 235.119 1.84779 0.597538 0
M  V30 2480 O 234.394 1.30578 1.44152 0
M  V30 2481 C 234.677 3.29789 -1.44606 0
M  V30 2482 C 234.53 3.36307 -2.98693 0
M  V30 2483 C 235.849 4.26064 -1.10261 0
M  V30 2484 H 232.968 0.664195 -0.319397 0
M  V30 2485 H 235.61 1.29867 -1.38689 0
M  V30 2486 H 233.76 3.75118 -1.01089 0
M  V30 2487 H 235.432 2.99487 -3.50864 0
M  V30 2488 H 233.675 2.76318 -3.34411 0
M  V30 2489 H 234.346 4.39694 -3.33726 0
M  V30 2490 H 236.822 3.88951 -1.4784 0
M  V30 2491 H 235.698 5.27183 -1.52869 0
M  V30 2492 H 235.959 4.42098 -0.0142953 0
M  V30 2493 N 235.018 0.912232 1.28515 0
M  V30 2494 C 236.429 0.591352 1.77087 0
M  V30 2495 C 236.78 -0.8933 1.74684 0
M  V30 2496 O 235.905 -1.69876 1.34056 0
M  V30 2497 C 236.5 1.06668 3.2157 0
M  V30 2498 C 235.059 0.79675 3.67871 0
M  V30 2499 C 234.206 1.23427 2.48316 0
M  V30 2500 H 237.157 1.09365 1.15 0
M  V30 2501 H 237.178 0.407455 3.78312 0
M  V30 2502 H 236.69 2.14726 3.23287 0
M  V30 2503 H 234.791 -0.270679 3.71616 0
M  V30 2504 H 234.904 1.40343 4.58084 0
M  V30 2505 H 233.268 0.653036 2.46186 0
M  V30 2506 H 234.051 2.32316 2.52753 0
M  V30 2507 N 236.496 -1.42363 0.676048 0
M  V30 2508 C 237.743 -2.01522 0.19883 0
M  V30 2509 C 238.071 -1.53456 -1.19505 0
M  V30 2510 O 237.326 -0.727967 -1.81657 0
M  V30 2511 C 237.625 -3.56929 0.183431 0
M  V30 2512 C 237.291 -4.24431 1.52215 0
M  V30 2513 C 235.953 -4.42585 1.8887 0
M  V30 2514 C 238.305 -4.62459 2.40377 0
M  V30 2515 C 235.633 -4.96039 3.13309 0
M  V30 2516 C 237.985 -5.17294 3.64129 0
M  V30 2517 C 236.649 -5.33661 4.00951 0
M  V30 2518 H 235.919 -0.737419 0.0727571 0
M  V30 2519 H 238.566 -1.70531 0.871281 0
M  V30 2520 H 236.871 -3.87594 -0.572532 0
M  V30 2521 H 238.568 -4.00486 -0.203035 0
M  V30 2522 H 235.158 -4.10661 1.22701 0
M  V30 2523 H 239.342 -4.48105 2.13343 0
M  V30 2524 H 234.598 -5.06896 3.41857 0
M  V30 2525 H 238.772 -5.45704 4.32644 0
M  V30 2526 H 236.399 -5.74845 4.9745 0
M  V30 2527 N 237.974 -0.419461 -1.51915 0
M  V30 2528 C 239.204 0.151915 -2.06041 0
M  V30 2529 C 239.612 1.38539 -1.28855 0
M  V30 2530 O 238.955 1.80592 -0.336463 0
M  V30 2531 C 239.017 0.557119 -3.55157 0
M  V30 2532 C 238.681 -0.567054 -4.53468 0
M  V30 2533 C 239.678 -1.43379 -4.99738 0
M  V30 2534 C 237.363 -0.742693 -4.96779 0
M  V30 2535 C 239.357 -2.46102 -5.87973 0
M  V30 2536 C 237.044 -1.77322 -5.84808 0
M  V30 2537 C 238.042 -2.63078 -6.30301 0
M  V30 2538 O 237.73 -3.64364 -7.16585 0
M  V30 2539 H 237.462 0.0193293 -0.675724 0
M  V30 2540 H 240.016 -0.592073 -1.96682 0
M  V30 2541 H 238.246 1.35355 -3.62238 0
M  V30 2542 H 239.935 1.05759 -3.9188 0
M  V30 2543 H 240.701 -1.30954 -4.66986 0
M  V30 2544 H 236.58 -0.0848307 -4.60922 0
M  V30 2545 H 240.124 -3.13071 -6.23404 0
M  V30 2546 H 236.021 -1.89773 -6.16974 0
M  V30 2547 H 236.789 -3.60731 -7.34721 0
M  V30 2548 N 239.452 1.56882 -0.150215 0
M  V30 2549 C 240.701 1.95403 0.500071 0
M  V30 2550 C 241.014 1.03777 1.658 0
M  V30 2551 O 242.22 1.31889 2.37313 0
M  V30 2552 C 240.676 3.4738 0.941018 0
M  V30 2553 C 240.284 4.47596 -0.190158 0
M  V30 2554 C 242.028 3.9476 1.56091 0
M  V30 2555 C 239.935 5.90787 0.269237 0
M  V30 2556 H 238.865 0.729515 0.190588 0
M  V30 2557 H 241.516 1.81988 -0.235074 0
M  V30 2558 H 239.898 3.56138 1.73152 0
M  V30 2559 H 241.072 4.50536 -0.967157 0
M  V30 2560 H 239.387 4.10151 -0.718666 0
M  V30 2561 H 241.984 4.99181 1.9163 0
M  V30 2562 H 242.327 3.36494 2.45107 0
M  V30 2563 H 242.86 3.88932 0.835249 0
M  V30 2564 H 239.599 6.52879 -0.585621 0
M  V30 2565 H 239.119 5.912 1.01204 0
M  V30 2566 H 240.798 6.42979 0.720176 0
M  V30 2567 N 240.93 -0.123565 1.57115 0
M  V30 2568 C 242.177 -0.832153 1.84612 0
M  V30 2569 C 242.505 -1.80093 0.734627 0
M  V30 2570 O 241.76 -1.93766 -0.27442 0
M  V30 2571 C 242.059 -1.62016 3.18568 0
M  V30 2572 C 241.725 -0.796084 4.43817 0
M  V30 2573 C 240.387 -0.568816 4.77826 0
M  V30 2574 C 242.739 -0.221364 5.2073 0
M  V30 2575 C 240.067 0.243499 5.86194 0
M  V30 2576 C 242.419 0.578117 6.29953 0
M  V30 2577 C 241.083 0.815744 6.62497 0
M  V30 2578 H 240.353 -0.304507 0.675542 0
M  V30 2579 H 243 -0.0947248 1.91266 0
M  V30 2580 H 241.305 -2.42837 3.0747 0
M  V30 2581 H 243.002 -2.17231 3.37064 0
M  V30 2582 H 239.592 -0.983307 4.17168 0
M  V30 2583 H 243.776 -0.384173 4.94811 0
M  V30 2584 H 239.032 0.436871 6.09837 0
M  V30 2585 H 243.206 1.03046 6.88734 0
M  V30 2586 H 240.833 1.44701 7.46301 0
M  V30 2587 N 242.408 -1.52605 -0.393616 0
M  V30 2588 C 243.633 -1.71592 -1.16495 0
M  V30 2589 C 244.058 -0.43133 -1.83088 0
M  V30 2590 O 243.416 0.612523 -1.7064 0
M  V30 2591 C 243.464 -2.86318 -2.19213 0
M  V30 2592 O 242.568 -2.52969 -3.257 0
M  V30 2593 H 241.909 -0.570734 -0.33935 0
M  V30 2594 H 244.439 -1.99377 -0.459324 0
M  V30 2595 H 244.449 -3.1168 -2.63286 0
M  V30 2596 H 243.124 -3.79511 -1.7013 0
M  V30 2597 H 241.701 -2.38332 -2.86797 0
M  V30 2598 N 243.887 0.651787 -1.4349 0
M  V30 2599 C 244.797 1.79368 -1.5121 0
M  V30 2600 C 245.813 1.69361 -0.399093 0
M  V30 2601 O 246.989 1.90505 -0.653431 0
M  V30 2602 C 244.054 3.15653 -1.43401 0
M  V30 2603 C 243.115 3.37446 -2.65384 0
M  V30 2604 C 242.348 4.67229 -2.57939 0
M  V30 2605 O 242.571 5.46676 -1.62792 0
M  V30 2606 O 241.505 4.90773 -3.48462 0
M  V30 2607 H 245.331 1.7581 -2.47638 0
M  V30 2608 H 242.916 0.810447 -1.25507 0
M  V30 2609 H 244.798 3.96935 -1.41494 0
M  V30 2610 H 243.473 3.19798 -0.501085 0
M  V30 2611 H 242.38 2.55923 -2.72863 0
M  V30 2612 H 243.713 3.38148 -3.57654 0
M  V30 2613 N 245.365 1.30045 0.890287 0
M  V30 2614 C 246.59 1.21598 1.68014 0
M  V30 2615 C 247.015 -0.218678 1.86825 0
M  V30 2616 O 246.373 -1.15756 1.39536 0
M  V30 2617 C 246.421 1.94434 3.03691 0
M  V30 2618 O 245.525 1.2678 3.92429 0
M  V30 2619 H 244.866 0.420856 0.513592 0
M  V30 2620 H 247.396 1.71775 1.11151 0
M  V30 2621 H 247.406 2.03251 3.5377 0
M  V30 2622 H 246.081 2.98777 2.89318 0
M  V30 2623 H 244.658 1.26282 3.50866 0
M  V30 2624 N 246.843 -1.10192 1.12674 0
M  V30 2625 C 248.073 -1.85713 0.905213 0
M  V30 2626 C 248.481 -1.81056 -0.549108 0
M  V30 2627 O 247.824 -1.19927 -1.39151 0
M  V30 2628 C 247.886 -3.34972 1.30516 0
M  V30 2629 C 247.55 -3.63385 2.77129 0
M  V30 2630 C 248.547 -3.59772 3.75313 0
M  V30 2631 C 246.232 -3.91981 3.14096 0
M  V30 2632 C 248.226 -3.84354 5.08479 0
M  V30 2633 C 245.913 -4.16218 4.47443 0
M  V30 2634 C 246.911 -4.12395 5.44444 0
M  V30 2635 O 246.599 -4.36014 6.75387 0
M  V30 2636 H 246.331 -0.593719 0.323223 0
M  V30 2637 H 248.885 -1.40198 1.50112 0
M  V30 2638 H 247.115 -3.81156 0.652463 0
M  V30 2639 H 248.804 -3.91886 1.05736 0
M  V30 2640 H 249.57 -3.37716 3.48099 0
M  V30 2641 H 245.449 -3.94085 2.39202 0
M  V30 2642 H 248.993 -3.81285 5.84181 0
M  V30 2643 H 244.89 -4.37754 4.74386 0
M  V30 2644 H 245.658 -4.53516 6.8137 0
M  V30 2645 N 248.321 -0.919034 -1.28029 0
M  V30 2646 C 249.569 -0.553838 -1.94363 0
M  V30 2647 C 249.89 0.906357 -1.72656 0
M  V30 2648 O 249.16 1.64143 -1.0693 0
M  V30 2649 H 247.74 -0.201834 -0.719216 0
M  V30 2650 H 250.402 -1.16954 -1.55909 0
M  V30 2651 H 249.498 -0.752758 -3.02886 0
M  V30 2652 N 249.799 1.42003 -0.683588 0
M  V30 2653 C 251.047 2.01015 -0.209101 0
M  V30 2654 C 251.368 1.54365 1.19149 0
M  V30 2655 O 250.638 0.769083 1.80172 0
M  V30 2656 H 249.218 0.743294 -0.074315 0
M  V30 2657 H 251.88 1.73798 -0.882066 0
M  V30 2658 H 250.976 3.11343 -0.2172 0
M  V30 2659 N 251.277 0.427512 1.51691 0
M  V30 2660 C 252.224 -0.388867 2.275 0
M  V30 2661 C 253.194 -1.02532 1.30677 0
M  V30 2662 O 254.379 -1.0461 1.59566 0
M  V30 2663 C 251.519 -1.48954 3.11298 0
M  V30 2664 C 250.632 -0.872194 4.23104 0
M  V30 2665 C 249.767 -1.94709 4.94228 0
M  V30 2666 C 248.806 -1.30766 5.97969 0
M  V30 2667 N 247.943 -2.32349 6.62539 0
M  V30 2668 H 252.783 0.263997 2.96828 0
M  V30 2669 H 250.32 0.142033 1.46413 0
M  V30 2670 H 252.278 -2.13887 3.58201 0
M  V30 2671 H 250.908 -2.11217 2.44105 0
M  V30 2672 H 249.96 -0.111419 3.80237 0
M  V30 2673 H 251.272 -0.365264 4.97461 0
M  V30 2674 H 250.426 -2.67327 5.44629 0
M  V30 2675 H 249.165 -2.48773 4.1948 0
M  V30 2676 H 248.17 -0.566902 5.4687 0
M  V30 2677 H 249.395 -0.774483 6.74669 0
M  V30 2678 H 247.341 -2.85511 5.90609 0
M  V30 2679 H 247.258 -1.8652 7.3263 0
M  V30 2680 H 248.526 -3.04481 7.17574 0
M  V30 2681 N 252.755 -1.56801 0.158532 0
M  V30 2682 C 253.688 -2.13148 -0.815065 0
M  V30 2683 C 254.666 -1.0581 -1.23462 0
M  V30 2684 O 255.85 -1.3371 -1.32868 0
M  V30 2685 C 252.977 -2.6606 -2.09594 0
M  V30 2686 C 252.023 -3.85651 -1.82141 0
M  V30 2687 S 252.856 -5.26041 -1.00207 0
M  V30 2688 C 254.012 -5.8235 -2.29389 0
M  V30 2689 H 254.245 -2.95396 -0.335937 0
M  V30 2690 H 251.778 -1.54299 -0.0559391 0
M  V30 2691 H 253.736 -2.97195 -2.8317 0
M  V30 2692 H 252.397 -1.83921 -2.54621 0
M  V30 2693 H 251.59 -4.20958 -2.77147 0
M  V30 2694 H 251.192 -3.55338 -1.16667 0
M  V30 2695 H 253.484 -5.94485 -3.24952 0
M  V30 2696 H 254.427 -6.79688 -1.9857 0
M  V30 2697 H 254.835 -5.10675 -2.40564 0
M  V30 2698 N 254.233 0.115231 -1.57178 0
M  V30 2699 C 255.196 1.12526 -1.99676 0
M  V30 2700 C 256.196 1.34095 -0.88742 0
M  V30 2701 O 257.386 1.30548 -1.15337 0
M  V30 2702 C 254.518 2.4789 -2.34015 0
M  V30 2703 H 255.711 0.759912 -2.90113 0
M  V30 2704 H 253.264 0.359648 -1.52106 0
M  V30 2705 H 253.999 2.89339 -1.4647 0
M  V30 2706 H 253.784 2.33588 -3.14927 0
M  V30 2707 H 255.274 3.20575 -2.67622 0
M  V30 2708 N 255.711 1.52812 0.385517 0
M  V30 2709 C 256.674 1.77188 1.45386 0
M  V30 2710 C 257.674 0.641953 1.4743 0
M  V30 2711 O 258.864 0.910033 1.4854 0
M  V30 2712 C 255.996 1.87582 2.8465 0
M  V30 2713 H 257.189 2.72583 1.25054 0
M  V30 2714 H 254.742 1.43586 0.617467 0
M  V30 2715 H 255.477 0.941849 3.10322 0
M  V30 2716 H 255.262 2.69748 2.84567 0
M  V30 2717 H 256.752 2.08102 3.62054 0
M  V30 2718 N 257.189 -0.644168 1.43834 0
M  V30 2719 C 258.437 -1.40117 1.45642 0
M  V30 2720 C 258.758 -1.94814 0.0852413 0
M  V30 2721 O 258.028 -1.74988 -0.880688 0
M  V30 2722 H 256.608 -0.52005 0.536243 0
M  V30 2723 H 259.27 -0.7591 1.7951 0
M  V30 2724 H 258.366 -2.23902 2.17427 0
M  V30 2725 N 258.668 -1.30515 -0.883378 0
M  V30 2726 C 259.917 -1.18795 -1.63005 0
M  V30 2727 C 260.23 0.255923 -1.93919 0
M  V30 2728 O 261.436 0.494654 -2.66956 0
M  V30 2729 C 259.892 -2.07878 -2.93794 0
M  V30 2730 C 259.5 -3.57184 -2.70414 0
M  V30 2731 C 261.244 -2.04924 -3.71761 0
M  V30 2732 C 259.151 -4.38317 -3.97029 0
M  V30 2733 H 258.081 -0.441031 -0.611562 0
M  V30 2734 H 260.732 -1.55275 -0.977854 0
M  V30 2735 H 259.114 -1.64283 -3.60315 0
M  V30 2736 H 260.288 -4.08937 -2.12384 0
M  V30 2737 H 258.603 -3.61976 -2.0582 0
M  V30 2738 H 261.2 -2.62792 -4.65665 0
M  V30 2739 H 261.543 -1.0331 -4.03277 0
M  V30 2740 H 262.076 -2.46649 -3.12104 0
M  V30 2741 H 258.815 -5.40632 -3.70671 0
M  V30 2742 H 258.335 -3.91326 -4.54559 0
M  V30 2743 H 260.014 -4.49834 -4.65036 0
M  V30 2744 N 260.146 1.09593 -1.13257 0
M  V30 2745 C 261.394 1.81375 -0.891492 0
M  V30 2746 C 261.715 1.86049 0.584009 0
M  V30 2747 O 260.985 1.34481 1.42449 0
M  V30 2748 H 259.565 0.671708 -0.326828 0
M  V30 2749 H 262.227 1.3256 -1.42877 0
M  V30 2750 H 261.323 2.84612 -1.28071 0
M  V30 2751 N 261.624 0.925811 1.2754 0
M  V30 2752 C 262.554 0.440748 2.29303 0
M  V30 2753 C 263.535 -0.497971 1.62648 0
M  V30 2754 O 264.72 -0.403126 1.8997 0
M  V30 2755 C 261.85 -0.309048 3.45922 0
M  V30 2756 C 260.804 0.54166 4.24559 0
M  V30 2757 C 260.13 -0.337191 5.33636 0
M  V30 2758 C 261.43 1.80516 4.90114 0
M  V30 2759 H 263.124 1.29121 2.70126 0
M  V30 2760 H 260.67 0.622323 1.29858 0
M  V30 2761 H 262.623 -0.659315 4.1621 0
M  V30 2762 H 261.347 -1.19352 3.04011 0
M  V30 2763 H 260.006 0.874609 3.56014 0
M  V30 2764 H 259.654 -1.22056 4.87966 0
M  V30 2765 H 259.354 0.228497 5.87156 0
M  V30 2766 H 260.878 -0.683072 6.06767 0
M  V30 2767 H 262.292 1.52307 5.52698 0
M  V30 2768 H 260.689 2.3142 5.53683 0
M  V30 2769 H 261.759 2.52581 4.13921 0
M  V30 2770 N 263.102 -1.41638 0.69111 0
M  V30 2771 C 264.012 -2.34588 0.0233487 0
M  V30 2772 C 265.028 -1.55987 -0.770984 0
M  V30 2773 O 266.204 -1.88486 -0.709569 0
M  V30 2774 C 263.269 -3.34684 -0.904851 0
M  V30 2775 C 262.33 -4.29176 -0.103225 0
M  V30 2776 C 261.563 -5.2449 -0.987216 0
M  V30 2777 O 261.786 -5.2514 -2.22674 0
M  V30 2778 O 260.72 -6.00295 -0.439281 0
M  V30 2779 H 264.546 -2.93261 0.789416 0
M  V30 2780 H 262.131 -1.42417 0.45142 0
M  V30 2781 H 264.013 -3.96133 -1.43724 0
M  V30 2782 H 262.688 -2.78461 -1.65049 0
M  V30 2783 H 261.595 -3.71089 0.473655 0
M  V30 2784 H 262.928 -4.88484 0.60365 0
M  V30 2785 N 264.58 -0.43555 -1.51462 0
M  V30 2786 C 265.51 0.367376 -2.30592 0
M  V30 2787 C 266.491 1.02263 -1.35928 0
M  V30 2788 O 267.676 1.02661 -1.64847 0
M  V30 2789 C 264.806 1.46983 -3.14664 0
M  V30 2790 C 263.76 0.938161 -4.17591 0
M  V30 2791 C 263.086 2.13622 -4.90173 0
M  V30 2792 C 264.386 -0.0261621 -5.22293 0
M  V30 2793 H 266.08 -0.292969 -2.97963 0
M  V30 2794 H 263.626 -0.14234 -1.43295 0
M  V30 2795 H 265.579 2.03873 -3.688 0
M  V30 2796 H 264.303 2.15843 -2.4511 0
M  V30 2797 H 262.962 0.391481 -3.64504 0
M  V30 2798 H 262.61 2.81098 -4.17124 0
M  V30 2799 H 262.31 1.78688 -5.59772 0
M  V30 2800 H 263.834 2.7107 -5.47132 0
M  V30 2801 H 265.248 0.452384 -5.71512 0
M  V30 2802 H 263.645 -0.287992 -5.99409 0
M  V30 2803 H 264.715 -0.963391 -4.75233 0
M  V30 2804 N 266.058 1.56714 -0.166846 0
M  V30 2805 C 267.288 2.00828 0.48494 0
M  V30 2806 C 267.696 1.04612 1.57648 0
M  V30 2807 O 267.039 0.0383201 1.8366 0
M  V30 2808 C 267.101 3.4137 1.12723 0
M  V30 2809 C 266.765 4.56654 0.177886 0
M  V30 2810 C 267.762 5.16402 -0.60207 0
M  V30 2811 C 265.447 5.02244 0.0750139 0
M  V30 2812 C 267.441 6.20167 -1.47215 0
M  V30 2813 C 265.128 6.05859 -0.798649 0
M  V30 2814 C 266.126 6.64691 -1.57082 0
M  V30 2815 O 265.814 7.66297 -2.42989 0
M  V30 2816 H 265.546 0.663587 0.128953 0
M  V30 2817 H 268.1 2.03692 -0.264365 0
M  V30 2818 H 266.33 3.35406 1.92457 0
M  V30 2819 H 268.019 3.69466 1.68076 0
M  V30 2820 H 268.785 4.82065 -0.53274 0
M  V30 2821 H 264.664 4.56167 0.665812 0
M  V30 2822 H 268.208 6.66016 -2.07531 0
M  V30 2823 H 264.105 6.39621 -0.869199 0
M  V30 2824 H 264.873 7.83601 -2.36455 0
M  V30 2825 N 267.536 -0.106894 1.57237 0
M  V30 2826 C 268.483 -1.13049 2.01217 0
M  V30 2827 C 269.453 -1.40471 0.886403 0
M  V30 2828 O 270.638 -1.52133 1.15153 0
M  V30 2829 C 267.778 -2.4487 2.43172 0
M  V30 2830 C 266.891 -2.24281 3.69218 0
M  V30 2831 C 266.026 -3.49417 4.00101 0
M  V30 2832 C 265.065 -3.24038 5.19294 0
M  V30 2833 N 264.202 -4.41409 5.45988 0
M  V30 2834 H 269.042 -0.748456 2.88448 0
M  V30 2835 H 266.579 -0.358054 1.42676 0
M  V30 2836 H 268.537 -3.21786 2.65537 0
M  V30 2837 H 267.167 -2.80944 1.58967 0
M  V30 2838 H 266.219 -1.38224 3.54398 0
M  V30 2839 H 267.531 -2.01512 4.56283 0
M  V30 2840 H 266.685 -4.34746 4.2318 0
M  V30 2841 H 265.424 -3.75229 3.11535 0
M  V30 2842 H 264.429 -2.37102 4.96047 0
M  V30 2843 H 265.654 -2.99584 6.09447 0
M  V30 2844 H 263.6 -4.67319 4.60379 0
M  V30 2845 H 263.517 -4.21788 6.274 0
M  V30 2846 H 264.785 -5.27836 5.73593 0
M  V30 2847 N 269.014 -1.53014 -0.377408 0
M  V30 2848 C 269.977 -1.77957 -1.44444 0
M  V30 2849 C 270.977 -0.649763 -1.47087 0
M  V30 2850 O 272.167 -0.917897 -1.48055 0
M  V30 2851 C 269.299 -1.89089 -2.83651 0
M  V30 2852 H 270.492 -2.73243 -1.23606 0
M  V30 2853 H 268.045 -1.43912 -0.609844 0
M  V30 2854 H 268.78 -0.958293 -3.09818 0
M  V30 2855 H 268.565 -2.71254 -2.83132 0
M  V30 2856 H 270.055 -2.1002 -3.60945 0
M  V30 2857 N 270.492 0.636531 -1.44174 0
M  V30 2858 C 271.741 1.39213 -1.45954 0
M  V30 2859 C 272.054 1.95374 -0.0939119 0
M  V30 2860 O 273.26 2.71498 0.0107767 0
M  V30 2861 C 271.716 2.52025 -2.56927 0
M  V30 2862 C 271.324 2.024 -3.99673 0
M  V30 2863 C 273.068 3.29269 -2.67922 0
M  V30 2864 C 270.975 3.12521 -5.0208 0
M  V30 2865 H 269.905 0.523132 -0.542999 0
M  V30 2866 H 272.556 0.685349 -1.70221 0
M  V30 2867 H 270.938 3.25253 -2.25891 0
M  V30 2868 H 272.112 1.36073 -4.40251 0
M  V30 2869 H 270.427 1.37987 -3.92872 0
M  V30 2870 H 273.024 4.11352 -3.41605 0
M  V30 2871 H 273.367 3.78397 -1.73555 0
M  V30 2872 H 273.9 2.63129 -2.98342 0
M  V30 2873 H 270.639 2.68343 -5.98057 0
M  V30 2874 H 270.159 3.77507 -4.66099 0
M  V30 2875 H 271.838 3.77385 -5.25538 0
M  V30 2876 N 271.97 1.30982 0.876444 0
M  V30 2877 C 272.902 1.13902 1.98894 0
M  V30 2878 C 273.915 0.0798815 1.62604 0
M  V30 2879 O 275.104 0.326743 1.75484 0
M  V30 2880 C 272.204 0.716699 3.31235 0
M  V30 2881 C 271.377 1.85945 3.95908 0
M  V30 2882 C 270.436 1.42426 5.06558 0
M  V30 2883 O 269.462 2.13287 5.27729 0
M  V30 2884 N 270.664 0.308025 5.79682 0
M  V30 2885 H 273.429 2.09724 2.14094 0
M  V30 2886 H 270.99 1.2323 1.05004 0
M  V30 2887 H 272.982 0.408403 4.02634 0
M  V30 2888 H 271.552 -0.149719 3.12241 0
M  V30 2889 H 270.772 2.33541 3.17573 0
M  V30 2890 H 272.06 2.62503 4.35855 0
M  V30 2891 H 271.458 -0.282241 5.64995 0
M  V30 2892 H 270.015 0.0592282 6.51773 0
M  V30 2893 N 273.449 -1.08991 1.13837 0
M  V30 2894 C 274.865 -1.33312 0.877506 0
M  V30 2895 C 275.065 -1.95587 -0.48456 0
M  V30 2896 O 274.121 -2.20509 -1.23013 0
M  V30 2897 C 275.434 -2.24045 2.0056 0
M  V30 2898 C 276.982 -2.37542 2.03821 0
M  V30 2899 C 277.457 -3.31614 3.15905 0
M  V30 2900 N 278.948 -3.39189 3.15445 0
M  V30 2901 C 279.683 -4.11992 3.98811 0
M  V30 2902 N 279.179 -4.87553 4.92203 0
M  V30 2903 N 280.972 -4.07762 3.86894 0
M  V30 2904 H 273.123 -0.669456 2.01574 0
M  V30 2905 H 275.386 -0.357482 0.878015 0
M  V30 2906 H 275.092 -1.85521 2.98789 0
M  V30 2907 H 274.966 -3.24466 1.92359 0
M  V30 2908 H 277.353 -2.75327 1.06202 0
M  V30 2909 H 277.434 -1.36884 2.16093 0
M  V30 2910 H 277.078 -2.94551 4.13766 0
M  V30 2911 H 277.008 -4.32186 3.0087 0
M  V30 2912 H 279.499 -2.85314 2.47799 0
M  V30 2913 H 279.812 -5.40549 5.52292 0
M  V30 2914 H 278.157 -4.86627 4.96205 0
M  V30 2915 H 281.348 -3.47833 3.13257 0
M  V30 2916 H 281.521 -4.64238 4.52092 0
M  V30 2917 N 274.927 -0.932562 -1.27047 0
M  V30 2918 C 276.175 -0.574422 -1.93765 0
M  V30 2919 C 276.496 0.887993 -1.73608 0
M  V30 2920 O 275.766 1.62999 -1.08665 0
M  V30 2921 H 274.346 -0.209451 -0.717035 0
M  V30 2922 H 277.008 -1.18601 -1.5466 0
M  V30 2923 H 276.104 -0.784841 -3.02071 0
M  V30 2924 N 276.405 1.4127 -0.698611 0
M  V30 2925 C 277.633 2.05503 -0.239992 0
M  V30 2926 C 278.048 1.52584 1.11191 0
M  V30 2927 O 277.405 0.675323 1.69545 0
M  V30 2928 C 277.456 3.60987 -0.192429 0
M  V30 2929 O 277.177 4.1195 -1.49094 0
M  V30 2930 C 278.678 4.42371 0.28681 0
M  V30 2931 H 275.898 0.661748 -0.111045 0
M  V30 2932 H 278.442 1.80987 -0.95205 0
M  V30 2933 H 276.597 3.84533 0.470472 0
M  V30 2934 H 277.011 5.06018 -1.38007 0
M  V30 2935 H 278.485 5.51344 0.26896 0
M  V30 2936 H 278.962 4.18699 1.32619 0
M  V30 2937 H 279.568 4.23897 -0.345201 0
M  V30 2938 N 277.883 0.443576 1.51229 0
M  V30 2939 C 279.132 -0.122332 2.01329 0
M  V30 2940 C 279.445 -1.43237 1.33201 0
M  V30 2941 O 280.651 -2.0816 1.74304 0
M  V30 2942 C 279.107 -0.268551 3.58897 0
M  V30 2943 C 278.715 1.03142 4.35965 0
M  V30 2944 C 280.459 -0.787894 4.17124 0
M  V30 2945 C 278.366 0.850504 5.85252 0
M  V30 2946 H 277.296 -0.0494929 0.752374 0
M  V30 2947 H 279.947 0.574289 1.74282 0
M  V30 2948 H 278.329 -1.02832 3.82415 0
M  V30 2949 H 279.503 1.80001 4.24189 0
M  V30 2950 H 277.818 1.47977 3.89219 0
M  V30 2951 H 280.415 -0.939841 5.26375 0
M  V30 2952 H 280.758 -1.77201 3.76703 0
M  V30 2953 H 281.291 -0.0862669 3.97706 0
M  V30 2954 H 278.03 1.80718 6.30096 0
M  V30 2955 H 277.55 0.121825 5.99676 0
M  V30 2956 H 279.229 0.506163 6.45017 0
M  V30 2957 N 279.361 -1.56624 0.175154 0
M  V30 2958 C 280.308 -2.18149 -0.753634 0
M  V30 2959 C 281.278 -1.12265 -1.22417 0
M  V30 2960 O 282.463 -1.40432 -1.29165 0
M  V30 2961 C 279.603 -2.82933 -1.97592 0
M  V30 2962 C 278.716 -4.03289 -1.5486 0
M  V30 2963 C 277.851 -4.55988 -2.72485 0
M  V30 2964 C 276.89 -5.68746 -2.26262 0
M  V30 2965 N 276.027 -6.15938 -3.36994 0
M  V30 2966 H 280.867 -2.9717 -0.222195 0
M  V30 2967 H 278.404 -1.46774 -0.0979422 0
M  V30 2968 H 280.362 -3.18653 -2.69288 0
M  V30 2969 H 278.992 -2.06509 -2.481 0
M  V30 2970 H 278.044 -3.73364 -0.728246 0
M  V30 2971 H 279.356 -4.849 -1.16933 0
M  V30 2972 H 278.51 -4.9391 -3.52332 0
M  V30 2973 H 277.249 -3.73443 -3.13674 0
M  V30 2974 H 276.254 -5.30372 -1.44863 0
M  V30 2975 H 277.479 -6.53095 -1.86127 0
M  V30 2976 H 275.425 -5.36321 -3.77751 0
M  V30 2977 H 275.342 -6.92548 -3.03172 0
M  V30 2978 H 276.61 -6.58511 -4.17114 0
M  V30 2979 N 280.839 0.0985539 -1.57292 0
M  V30 2980 C 282.079 0.808332 -1.87737 0
M  V30 2981 C 282.443 1.7607 -0.76572 0
M  V30 2982 O 283.644 2.51358 -0.952499 0
M  V30 2983 C 281.915 1.52093 -3.23423 0
M  V30 2984 S 283.474 2.26947 -3.75554 0
M  V30 2985 H 280.292 0.269377 -0.657995 0
M  V30 2986 H 282.894 0.0656269 -1.9539 0
M  V30 2987 H 281.598 0.81363 -4.02254 0
M  V30 2988 H 281.129 2.30361 -3.189 0
M  V30 2989 H 283.144 3.53027 -3.48692 0
M  V30 2990 N 282.317 1.53212 0.369288 0
M  V30 2991 C 283.265 1.80054 1.47253 0
M  V30 2992 C 284.259 0.669456 1.55611 0
M  V30 2993 O 285.465 0.852328 1.58541 0
M  V30 2994 H 281.84 0.570034 0.490475 0
M  V30 2995 H 283.811 2.72403 1.21817 0
M  V30 2996 C 282.56 2.00403 2.84137 0
M  V30 2997 H 281.883 2.86876 2.78464 0
M  V30 2998 H 283.323 2.23164 3.60519 0
M  V30 2999 C 281.782 0.782081 3.27697 0
M  V30 3000 O 282.312 -0.0310205 4.01688 0
M  V30 3001 N 280.518 0.606573 2.84199 0
M  V30 3002 H 280.065 1.26939 2.24152 0
M  V30 3003 H 280.023 -0.20962 3.137 0
M  V30 3004 N 283.795 -0.628877 1.44509 0
M  V30 3005 C 285.042 -1.38839 1.47411 0
M  V30 3006 C 285.37 -1.94202 0.10757 0
M  V30 3007 O 284.625 -1.74243 -0.890947 0
M  V30 3008 C 284.924 -2.56995 2.48371 0
M  V30 3009 C 284.59 -2.19908 3.93639 0
M  V30 3010 C 283.252 -2.09506 4.33198 0
M  V30 3011 C 285.604 -1.9064 4.85083 0
M  V30 3012 C 282.932 -1.68028 5.62124 0
M  V30 3013 C 285.284 -1.50655 6.14399 0
M  V30 3014 C 283.948 -1.38796 6.5291 0
M  V30 3015 H 283.218 -0.508048 0.539414 0
M  V30 3016 H 285.865 -0.712913 1.77735 0
M  V30 3017 H 284.17 -3.29786 2.11538 0
M  V30 3018 H 285.867 -3.15223 2.47861 0
M  V30 3019 H 282.457 -2.28922 3.62343 0
M  V30 3020 H 286.641 -1.97585 4.55273 0
M  V30 3021 H 281.897 -1.57452 5.90778 0
M  V30 3022 H 286.071 -1.27048 6.84713 0
M  V30 3023 H 283.698 -1.06429 7.52713 0
M  V30 3024 N 285.273 -1.31445 -0.869486 0
M  V30 3025 C 286.236 -1.19094 -1.9583 0
M  V30 3026 C 287.236 -0.117906 -1.60367 0
M  V30 3027 O 288.426 -0.367208 -1.70286 0
M  V30 3028 C 285.558 -0.828165 -3.30688 0
M  V30 3029 H 286.751 -2.15842 -2.08212 0
M  V30 3030 H 284.304 -1.15063 -1.05784 0
M  V30 3031 H 285.039 0.138142 -3.24006 0
M  V30 3032 H 284.824 -1.6038 -3.578 0
M  V30 3033 H 286.314 -0.765658 -4.10521 0
M  V30 3034 N 286.751 1.08385 -1.14413 0
M  V30 3035 C 287.999 1.80419 -0.910679 0
M  V30 3036 C 288.32 1.86658 0.564243 0
M  V30 3037 O 287.59 1.35985 1.41014 0
M  V30 3038 H 286.17 0.668204 -0.333934 0
M  V30 3039 H 288.832 1.31037 -1.44275 0
M  V30 3040 H 287.928 2.83238 -1.31082 0
M  V30 3041 N 288.23 0.939286 1.26551 0
M  V30 3042 C 289.476 0.586715 1.94128 0
M  V30 3043 C 289.809 -0.8717 1.73537 0
M  V30 3044 O 289.084 -1.62339 1.07127 0
M  V30 3045 C 289.367 0.927497 3.4795 0
M  V30 3046 C 289.22 2.44052 3.77834 0
M  V30 3047 C 290.539 0.441569 4.37879 0
M  V30 3048 H 287.658 0.21463 0.705055 0
M  V30 3049 H 290.3 1.17316 1.49455 0
M  V30 3050 H 288.45 0.428431 3.8613 0
M  V30 3051 H 290.122 3.01216 3.4938 0
M  V30 3052 H 288.365 2.8848 3.23978 0
M  V30 3053 H 289.036 2.62947 4.85348 0
M  V30 3054 H 291.512 0.869448 4.06915 0
M  V30 3055 H 290.388 0.708856 5.44304 0
M  V30 3056 H 290.649 -0.658467 4.37169 0
M  V30 3057 N 289.708 -1.40897 0.706093 0
M  V30 3058 C 290.671 -2.29131 0.0562841 0
M  V30 3059 C 291.671 -1.44901 -0.697166 0
M  V30 3060 O 292.861 -1.65926 -0.530484 0
M  V30 3061 C 289.993 -3.27957 -0.93043 0
M  V30 3062 H 291.186 -2.88091 0.833284 0
M  V30 3063 H 288.739 -1.4906 0.470192 0
M  V30 3064 H 289.474 -2.73997 -1.73482 0
M  V30 3065 H 289.259 -3.90124 -0.393166 0
M  V30 3066 H 290.749 -3.94049 -1.38256 0
M  V30 3067 N 291.186 -0.45159 -1.50991 0
M  V30 3068 C 292.116 0.342898 -2.30969 0
M  V30 3069 C 293.097 1.00815 -1.37005 0
M  V30 3070 O 294.282 1.00907 -1.65926 0
M  V30 3071 C 291.412 1.43637 -3.16205 0
M  V30 3072 C 290.366 0.893818 -4.18563 0
M  V30 3073 C 289.692 2.08411 -4.92411 0
M  V30 3074 C 290.992 -0.0815568 -5.22236 0
M  V30 3075 H 292.686 -0.324556 -2.97636 0
M  V30 3076 H 290.232 -0.157531 -1.43136 0
M  V30 3077 H 292.185 1.9995 -3.70942 0
M  V30 3078 H 290.909 2.13232 -2.47386 0
M  V30 3079 H 289.568 0.352798 -3.64898 0
M  V30 3080 H 289.216 2.76658 -4.20082 0
M  V30 3081 H 288.916 1.72741 -5.61636 0
M  V30 3082 H 290.44 2.65251 -5.49976 0
M  V30 3083 H 291.854 0.391742 -5.7196 0
M  V30 3084 H 290.251 -0.351551 -5.99069 0
M  V30 3085 H 291.321 -1.01374 -4.74185 0
M  V30 3086 N 292.664 1.56529 -0.183458 0
M  V30 3087 C 293.912 1.96855 0.457452 0
M  V30 3088 C 294.233 1.07104 1.62953 0
M  V30 3089 O 293.503 0.139887 1.954 0
M  V30 3090 H 292.083 0.72693 0.171992 0
M  V30 3091 H 294.745 1.93056 -0.267476 0
M  V30 3092 H 293.841 3.01423 0.809368 0
M  V30 3093 N 294.142 -0.090211 1.57342 0
M  V30 3094 C 295.419 -0.824761 1.77361 0
M  V30 3095 C 295.799 -1.96698 0.76637 0
M  V30 3096 O 295.147 -2.27586 -0.204179 0
M  V30 3097 C 295.357 -1.31481 3.23286 0
M  V30 3098 C 296.705 -1.75563 3.86604 0
M  V30 3099 O 297.729 -1.41093 3.27065 0
M  V30 3100 O 296.588 -2.39317 4.91314 0
M  V30 3101 H 293.682 -0.393776 0.727234 0
M  V30 3102 H 296.228 -0.0717138 1.69548 0
M  V30 3103 H 295 -0.496671 3.88135 0
M  V30 3104 H 294.623 -2.12973 3.35751 0
M  V30 3105 N 295.62 -1.53406 -0.361157 0
M  V30 3106 C 296.845 -1.74024 -1.12829 0
M  V30 3107 C 297.27 -0.470069 -1.82132 0
M  V30 3108 O 296.628 0.57619 -1.719 0
M  V30 3109 C 296.676 -2.90903 -2.13091 0
M  V30 3110 O 295.78 -2.59821 -3.20261 0
M  V30 3111 H 295.121 -0.577804 -0.327168 0
M  V30 3112 H 297.651 -2.00307 -0.41693 0
M  V30 3113 H 297.661 -3.17194 -2.56616 0
M  V30 3114 H 296.336 -3.83034 -1.62042 0
M  V30 3115 H 294.913 -2.44362 -2.81677 0
M  V30 3116 N 297.098 0.621204 -1.44841 0
M  V30 3117 C 298.344 1.38073 -1.49357 0
M  V30 3118 C 298.699 1.91973 -0.128115 0
M  V30 3119 O 297.992 1.71311 0.858087 0
M  V30 3120 C 298.186 2.55675 -2.4973 0
M  V30 3121 C 298.015 2.13289 -3.95901 0
M  V30 3122 C 296.785 2.001 -4.63991 0
M  V30 3123 C 298.983 1.7159 -4.84831 0
M  V30 3124 N 296.965 1.51381 -5.94943 0
M  V30 3125 C 298.336 1.34188 -6.05304 0
M  V30 3126 C 300.391 1.59059 -4.7181 0
M  V30 3127 C 299.094 0.855085 -7.14199 0
M  V30 3128 C 301.12 1.11784 -5.8074 0
M  V30 3129 C 300.482 0.753385 -7.0036 0
M  V30 3130 H 296.581 0.499675 -0.601539 0
M  V30 3131 H 299.165 0.711609 -1.8123 0
M  V30 3132 H 297.336 3.20201 -2.19832 0
M  V30 3133 H 299.068 3.22509 -2.4448 0
M  V30 3134 H 295.823 2.20863 -4.18947 0
M  V30 3135 H 296.247 1.29293 -6.64539 0
M  V30 3136 H 300.889 1.85865 -3.79755 0
M  V30 3137 H 298.607 0.574552 -8.06055 0
M  V30 3138 H 302.193 1.02533 -5.72694 0
M  V30 3139 H 301.073 0.393183 -7.83214 0
M  V30 3140 N 298.576 1.31904 0.862503 0
M  V30 3141 C 299.825 1.21373 1.61094 0
M  V30 3142 C 300.138 -0.22504 1.94301 0
M  V30 3143 O 301.344 -0.452121 2.67709 0
M  V30 3144 C 299.8 2.12525 2.9045 0
M  V30 3145 C 299.408 3.61441 2.64697 0
M  V30 3146 C 301.152 2.10813 3.68454 0
M  V30 3147 C 299.059 4.44578 3.90006 0
M  V30 3148 H 297.989 0.450705 0.604468 0
M  V30 3149 H 300.64 1.56811 0.953027 0
M  V30 3150 H 299.022 1.69994 3.57656 0
M  V30 3151 H 300.196 4.12264 2.05851 0
M  V30 3152 H 298.511 3.65205 2.00036 0
M  V30 3153 H 301.108 2.70167 4.61426 0
M  V30 3154 H 301.451 1.09713 4.01583 0
M  V30 3155 H 301.984 2.51583 3.08141 0
M  V30 3156 H 298.723 5.46461 3.62023 0
M  V30 3157 H 298.243 3.98508 4.48276 0
M  V30 3158 H 299.922 4.57176 4.5782 0
M  V30 3159 N 300.054 -1.07777 1.14986 0
M  V30 3160 C 301.279 -1.84558 0.946213 0
M  V30 3161 C 301.704 -1.81323 -0.500362 0
M  V30 3162 O 301.062 -1.20301 -1.35637 0
M  V30 3163 C 301.11 -3.29736 1.45968 0
M  V30 3164 O 300.214 -4.07149 0.65601 0
M  V30 3165 H 299.555 -0.571641 0.33782 0
M  V30 3166 H 302.085 -1.35991 1.52865 0
M  V30 3167 H 302.095 -3.80574 1.47063 0
M  V30 3168 H 300.77 -3.31406 2.51283 0
M  V30 3169 H 299.347 -3.65994 0.714322 0
M  V30 3170 N 301.532 -0.945985 -1.26051 0
M  V30 3171 C 302.943 -0.638096 -1.75457 0
M  V30 3172 C 303.294 0.846672 -1.76991 0
M  V30 3173 O 302.419 1.66262 -1.38513 0
M  V30 3174 C 303.014 -1.15157 -3.18629 0
M  V30 3175 C 301.573 -0.894004 -3.65629 0
M  V30 3176 C 300.72 -1.29967 -2.44957 0
M  V30 3177 H 303.671 -1.12376 -1.1206 0
M  V30 3178 H 303.692 -0.507615 -3.77099 0
M  V30 3179 H 303.204 -2.23222 -3.1748 0
M  V30 3180 H 301.305 0.172057 -3.72203 0
M  V30 3181 H 301.418 -1.52439 -4.54202 0
M  V30 3182 H 299.782 -0.718078 -2.44368 0
M  V30 3183 H 300.565 -2.38935 -2.46505 0
M  V30 3184 N 303.011 1.40521 -0.713556 0
M  V30 3185 C 304.257 2.01221 -0.252564 0
M  V30 3186 C 304.59 1.56444 1.1506 0
M  V30 3187 O 303.865 0.783597 1.78017 0
M  V30 3188 C 304.148 3.58582 -0.330332 0
M  V30 3189 C 304.001 4.13437 -1.77173 0
M  V30 3190 C 305.32 4.39079 0.299641 0
M  V30 3191 H 302.439 0.731077 -0.0932471 0
M  V30 3192 H 305.081 1.67026 -0.905673 0
M  V30 3193 H 303.231 3.87844 0.225737 0
M  V30 3194 H 304.903 3.9498 -2.38303 0
M  V30 3195 H 303.146 3.67801 -2.3001 0
M  V30 3196 H 303.817 5.22597 -1.77755 0
M  V30 3197 H 306.293 4.15735 -0.174139 0
M  V30 3198 H 305.169 5.4848 0.214771 0
M  V30 3199 H 305.43 4.19915 1.38288 0
M  V30 3200 N 304.489 0.459591 1.5075 0
M  V30 3201 C 305.766 -0.160371 1.94941 0
M  V30 3202 C 306.146 -1.58048 1.39943 0
M  V30 3203 O 305.494 -2.206 0.595629 0
M  V30 3204 C 305.704 -0.115432 3.48809 0
M  V30 3205 C 307.052 -0.310026 4.23467 0
M  V30 3206 O 308.076 -0.192543 3.55679 0
M  V30 3207 O 306.935 -0.546031 5.43765 0
M  V30 3208 H 304.029 -0.117925 0.818549 0
M  V30 3209 H 306.575 0.519169 1.61563 0
M  V30 3210 H 305.347 0.87652 3.81357 0
M  V30 3211 H 304.97 -0.836928 3.88692 0
M  V30 3212 N 305.967 -1.56429 0.191757 0
M  V30 3213 C 307.192 -2.02309 -0.456706 0
M  V30 3214 C 307.617 -1.07103 -1.5463 0
M  V30 3215 O 306.975 -0.0539677 -1.8122 0
M  V30 3216 C 307.023 -3.46654 -0.993159 0
M  V30 3217 O 306.127 -3.54559 -2.10622 0
M  V30 3218 H 305.468 -0.655303 -0.107114 0
M  V30 3219 H 307.998 -2.02364 0.301653 0
M  V30 3220 H 308.008 -3.86377 -1.31061 0
M  V30 3221 H 306.683 -4.1544 -0.195504 0
M  V30 3222 H 305.26 -3.26708 -1.79767 0
M  V30 3223 N 307.445 0.0818655 -1.57387 0
M  V30 3224 C 308.691 0.784074 -1.8703 0
M  V30 3225 C 309.024 1.77729 -0.782689 0
M  V30 3226 O 308.299 1.93384 0.208051 0
M  V30 3227 C 308.582 1.50105 -3.27323 0
M  V30 3228 C 308.435 0.524925 -4.46727 0
M  V30 3229 C 309.754 2.44843 -3.65705 0
M  V30 3230 H 306.873 0.283582 -0.680257 0
M  V30 3231 H 309.515 0.0474352 -1.89941 0
M  V30 3232 H 307.665 2.12897 -3.24972 0
M  V30 3233 H 309.337 -0.0970111 -4.61198 0
M  V30 3234 H 307.58 -0.160606 -4.33503 0
M  V30 3235 H 308.251 1.064 -5.41648 0
M  V30 3236 H 310.727 1.92135 -3.69085 0
M  V30 3237 H 309.603 2.92018 -4.64776 0
M  V30 3238 H 309.864 3.29197 -2.95096 0
M  V30 3239 N 308.923 1.53595 0.353017 0
M  V30 3240 C 309.853 1.83902 1.43883 0
M  V30 3241 C 310.834 0.693421 1.55324 0
M  V30 3242 O 312.019 0.944452 1.69687 0
M  V30 3243 C 309.149 2.04016 2.8106 0
M  V30 3244 C 308.103 3.19814 2.84434 0
M  V30 3245 C 307.429 3.25244 4.24406 0
M  V30 3246 C 308.729 4.58133 2.50822 0
M  V30 3247 H 310.423 2.74835 1.1877 0
M  V30 3248 H 307.969 1.32242 0.569917 0
M  V30 3249 H 309.922 2.238 3.57059 0
M  V30 3250 H 308.646 1.09804 3.07588 0
M  V30 3251 H 307.305 2.9987 2.10887 0
M  V30 3252 H 306.953 2.28646 4.48029 0
M  V30 3253 H 306.653 4.03054 4.27576 0
M  V30 3254 H 308.177 3.47228 5.0226 0
M  V30 3255 H 309.591 4.77995 3.16534 0
M  V30 3256 H 307.988 5.38276 2.6529 0
M  V30 3257 H 309.058 4.62387 1.46034 0
M  V30 3258 N 310.401 -0.613514 1.45168 0
M  V30 3259 C 311.626 -1.40437 1.52618 0
M  V30 3260 C 312.051 -1.87438 0.157707 0
M  V30 3261 O 311.409 -1.59791 -0.856537 0
M  V30 3262 C 311.457 -2.58894 2.51011 0
M  V30 3263 O 310.561 -3.59326 2.02382 0
M  V30 3264 H 309.902 -0.419506 0.514695 0
M  V30 3265 H 312.432 -0.747215 1.90467 0
M  V30 3266 H 312.442 -3.06214 2.69624 0
M  V30 3267 H 311.117 -2.24032 3.50403 0
M  V30 3268 H 309.694 -3.18695 1.93618 0
M  V30 3269 N 311.879 -1.3236 -0.855495 0
M  V30 3270 C 313.125 -1.24064 -1.61182 0
M  V30 3271 C 313.48 0.195914 -1.914 0
M  V30 3272 O 312.773 1.13345 -1.54478 0
M  V30 3273 C 312.967 -2.03275 -2.93963 0
M  V30 3274 C 312.796 -3.54486 -2.76712 0
M  V30 3275 C 311.566 -4.23824 -2.75139 0
M  V30 3276 C 313.764 -4.49154 -2.50531 0
M  V30 3277 N 311.746 -5.61095 -2.4909 0
M  V30 3278 C 313.117 -5.74195 -2.3388 0
M  V30 3279 C 315.172 -4.3842 -2.35992 0
M  V30 3280 C 313.875 -6.89716 -2.04168 0
M  V30 3281 C 315.901 -5.53739 -2.0767 0
M  V30 3282 C 315.263 -6.77779 -1.9182 0
M  V30 3283 H 311.362 -0.509139 -0.59355 0
M  V30 3284 H 313.946 -1.66715 -1.00569 0
M  V30 3285 H 312.117 -1.6297 -3.52555 0
M  V30 3286 H 313.849 -1.86881 -3.58967 0
M  V30 3287 H 310.604 -3.75934 -2.88047 0
M  V30 3288 H 311.028 -6.33411 -2.38996 0
M  V30 3289 H 315.67 -3.43172 -2.46967 0
M  V30 3290 H 313.388 -7.84977 -1.9193 0
M  V30 3291 H 316.974 -5.4736 -1.97201 0
M  V30 3292 H 315.854 -7.65504 -1.70217 0
M  V30 3293 N 313.357 1.07166 -1.15556 0
M  V30 3294 C 314.605 1.79443 -0.929764 0
M  V30 3295 C 314.926 1.87246 0.544414 0
M  V30 3296 O 314.196 1.37473 1.39564 0
M  V30 3297 H 312.776 0.664625 -0.341003 0
M  V30 3298 H 315.438 1.29499 -1.45657 0
M  V30 3299 H 314.534 2.81832 -1.34079 0
M  V30 3300 N 314.835 0.952656 1.25548 0
M  V30 3301 C 316.246 0.647392 1.75116 0
M  V30 3302 C 316.597 -0.837274 1.77438 0
M  V30 3303 O 315.722 -1.65525 1.39393 0
M  V30 3304 C 316.317 1.16845 3.18014 0
M  V30 3305 C 314.876 0.913382 3.6515 0
M  V30 3306 C 314.023 1.31265 2.44264 0
M  V30 3307 H 316.974 1.12968 1.11462 0
M  V30 3308 H 316.995 0.527606 3.76824 0
M  V30 3309 H 316.507 2.24902 3.16292 0
M  V30 3310 H 314.608 -0.152316 3.72289 0
M  V30 3311 H 314.721 1.54845 4.53387 0
M  V30 3312 H 313.085 0.731028 2.43984 0
M  V30 3313 H 313.868 2.40239 2.45234 0
M  V30 3314 N 316.313 -1.40141 0.720998 0
M  V30 3315 C 317.543 -2.04798 0.27226 0
M  V30 3316 C 317.951 -1.54442 -1.09289 0
M  V30 3317 O 317.294 -0.698342 -1.69908 0
M  V30 3318 C 317.356 -3.59048 0.18027 0
M  V30 3319 C 317.02 -4.32317 1.48159 0
M  V30 3320 C 318.017 -4.59902 2.42458 0
M  V30 3321 C 315.702 -4.71125 1.74202 0
M  V30 3322 C 317.696 -5.25288 3.61042 0
M  V30 3323 C 315.383 -5.36242 2.93066 0
M  V30 3324 C 316.381 -5.63254 3.86308 0
M  V30 3325 O 316.069 -6.27024 5.03086 0
M  V30 3326 H 315.801 -0.665419 0.119139 0
M  V30 3327 H 318.355 -1.80436 0.981432 0
M  V30 3328 H 316.585 -3.82251 -0.58489 0
M  V30 3329 H 318.274 -4.05221 -0.234618 0
M  V30 3330 H 319.04 -4.30379 2.23604 0
M  V30 3331 H 314.919 -4.49466 1.02477 0
M  V30 3332 H 318.463 -5.46289 4.33837 0
M  V30 3333 H 314.36 -5.65185 3.11826 0
M  V30 3334 H 315.128 -6.4552 5.03235 0
M  V30 3335 N 317.792 -0.46758 -1.50504 0
M  V30 3336 C 318.722 0.318381 -2.31319 0
M  V30 3337 C 319.703 0.993564 -1.38066 0
M  V30 3338 O 320.888 0.991411 -1.66987 0
M  V30 3339 C 318.018 1.40275 -3.17711 0
M  V30 3340 C 316.972 0.849373 -4.19487 0
M  V30 3341 C 316.298 2.03177 -4.94594 0
M  V30 3342 C 317.598 -0.136942 -5.2212 0
M  V30 3343 H 319.292 -0.356106 -2.97275 0
M  V30 3344 H 316.838 -0.172703 -1.42961 0
M  V30 3345 H 318.791 1.96004 -3.73042 0
M  V30 3346 H 317.515 2.10596 -2.49634 0
M  V30 3347 H 316.174 0.314076 -3.65252 0
M  V30 3348 H 315.822 2.72187 -4.22993 0
M  V30 3349 H 315.522 1.66774 -5.63436 0
M  V30 3350 H 317.046 2.59403 -5.52759 0
M  V30 3351 H 318.46 0.331056 -5.72343 0
M  V30 3352 H 316.857 -0.41507 -5.98663 0
M  V30 3353 H 317.927 -1.06398 -4.73083 0
M  V30 3354 N 319.27 1.56325 -0.20005 0
M  V30 3355 C 320.5 2.01811 0.442232 0
M  V30 3356 C 320.908 1.07932 1.55394 0
M  V30 3357 O 320.251 0.0772685 1.83537 0
M  V30 3358 C 320.313 3.43685 1.05457 0
M  V30 3359 C 319.977 4.56928 0.0809833 0
M  V30 3360 C 320.974 5.15009 -0.711471 0
M  V30 3361 C 318.659 5.0229 -0.0315364 0
M  V30 3362 C 320.653 6.16904 -1.60336 0
M  V30 3363 C 318.34 6.04028 -0.926981 0
M  V30 3364 C 319.338 6.6121 -1.71146 0
M  V30 3365 O 319.026 7.60971 -2.59189 0
M  V30 3366 H 318.758 0.666173 0.114848 0
M  V30 3367 H 321.312 2.03085 -0.307511 0
M  V30 3368 H 319.542 3.39413 1.85299 0
M  V30 3369 H 321.231 3.72948 1.60201 0
M  V30 3370 H 321.997 4.80827 -0.634873 0
M  V30 3371 H 317.876 4.57476 0.568902 0
M  V30 3372 H 321.42 6.61464 -2.21611 0
M  V30 3373 H 317.317 6.37634 -1.00468 0
M  V30 3374 H 318.085 7.7841 -2.53023 0
M  V30 3375 N 320.748 -0.0735177 1.57428 0
M  V30 3376 C 321.973 -0.789787 1.91774 0
M  V30 3377 C 322.398 -1.70413 0.796306 0
M  V30 3378 O 321.756 -1.79555 -0.250961 0
M  V30 3379 C 321.804 -1.5609 3.25067 0
M  V30 3380 O 320.908 -2.67144 3.14178 0
M  V30 3381 H 320.249 -0.215582 0.628029 0
M  V30 3382 H 322.779 -0.0422781 2.04556 0
M  V30 3383 H 322.789 -1.94052 3.58898 0
M  V30 3384 H 321.464 -0.890015 4.06265 0
M  V30 3385 H 320.041 -2.32052 2.91901 0
M  V30 3386 N 322.226 -1.5378 -0.344866 0
M  V30 3387 C 323.159 -1.7649 -1.4466 0
M  V30 3388 C 324.137 -0.613954 -1.50563 0
M  V30 3389 O 325.321 -0.84896 -1.683 0
M  V30 3390 C 322.448 -1.86235 -2.82903 0
M  V30 3391 C 321.494 -3.08375 -2.94631 0
M  V30 3392 S 322.327 -4.67457 -2.61236 0
M  V30 3393 C 323.483 -4.80079 -4.0159 0
M  V30 3394 H 323.716 -2.69661 -1.2518 0
M  V30 3395 H 321.249 -1.44632 -0.540455 0
M  V30 3396 H 323.207 -1.92535 -3.62547 0
M  V30 3397 H 321.868 -0.940786 -2.9968 0
M  V30 3398 H 321.061 -3.11865 -3.95925 0
M  V30 3399 H 320.663 -3.00294 -2.22934 0
M  V30 3400 H 322.955 -4.61407 -4.96094 0
M  V30 3401 H 323.898 -5.82168 -4.03095 0
M  V30 3402 H 324.306 -4.08544 -3.89554 0
M  V30 3403 N 323.704 0.605807 -1.45491 0
M  V30 3404 C 324.929 1.39625 -1.53361 0
M  V30 3405 C 325.354 1.87351 -0.167645 0
M  V30 3406 O 324.712 1.60243 0.848051 0
M  V30 3407 C 324.76 2.57559 -2.5238 0
M  V30 3408 O 323.864 3.58248 -2.04285 0
M  V30 3409 H 323.205 0.416771 -0.516912 0
M  V30 3410 H 325.735 0.737103 -1.90861 0
M  V30 3411 H 325.745 3.0478 -2.71244 0
M  V30 3412 H 324.42 2.22171 -3.51586 0
M  V30 3413 H 322.997 3.17664 -1.95305 0
M  V30 3414 N 325.182 1.32811 0.848464 0
M  V30 3415 C 326.112 1.24882 1.97299 0
M  V30 3416 C 327.093 0.131357 1.69592 0
M  V30 3417 O 328.278 0.319553 1.91553 0
M  V30 3418 C 325.408 0.97746 3.33261 0
M  V30 3419 C 324.362 2.05682 3.75338 0
M  V30 3420 C 323.688 1.63777 5.09 0
M  V30 3421 C 324.988 3.47254 3.90144 0
M  V30 3422 H 326.682 2.18966 2.04191 0
M  V30 3423 H 324.228 1.05413 0.981029 0
M  V30 3424 H 326.181 0.908513 4.1149 0
M  V30 3425 H 324.905 0.000980011 3.266 0
M  V30 3426 H 323.564 2.11603 2.99366 0
M  V30 3427 H 323.212 0.648569 4.98801 0
M  V30 3428 H 322.912 2.36 5.38124 0
M  V30 3429 H 324.436 1.5833 5.89715 0
M  V30 3430 H 325.85 3.43888 4.58709 0
M  V30 3431 H 324.247 4.1788 4.30693 0
M  V30 3432 H 325.317 3.86462 2.92874 0
M  V30 3433 N 326.66 -1.06551 1.16123 0
M  V30 3434 C 327.59 -2.15935 0.88851 0
M  V30 3435 C 328.571 -1.69306 -0.164135 0
M  V30 3436 O 329.756 -1.94193 -0.0167857 0
M  V30 3437 C 326.886 -3.45149 0.385942 0
M  V30 3438 C 325.84 -4.05271 1.3762 0
M  V30 3439 C 325.166 -5.29664 0.732137 0
M  V30 3440 C 326.466 -4.44355 2.74493 0
M  V30 3441 H 328.16 -2.39006 1.80323 0
M  V30 3442 H 325.706 -1.14866 0.868435 0
M  V30 3443 H 327.659 -4.21004 0.182647 0
M  V30 3444 H 326.383 -3.21689 -0.564274 0
M  V30 3445 H 325.042 -3.3147 1.56599 0
M  V30 3446 H 324.69 -5.02499 -0.224483 0
M  V30 3447 H 324.39 -5.70848 1.39307 0
M  V30 3448 H 325.914 -6.08218 0.538802 0
M  V30 3449 H 327.328 -5.11303 2.59311 0
M  V30 3450 H 325.725 -4.96515 3.37035 0
M  V30 3451 H 326.795 -3.55339 3.29943 0
M  V30 3452 N 328.138 -0.959301 -1.25041 0
M  V30 3453 C 329.048 -0.489994 -2.29426 0
M  V30 3454 C 330.064 0.444944 -1.68215 0
M  V30 3455 O 331.24 0.320046 -1.98841 0
M  V30 3456 C 328.305 0.220309 -3.45999 0
M  V30 3457 C 327.366 -0.753418 -4.22637 0
M  V30 3458 C 326.599 -0.076918 -5.33645 0
M  V30 3459 O 326.822 1.13649 -5.58963 0
M  V30 3460 O 325.756 -0.764824 -5.97021 0
M  V30 3461 H 329.582 -1.35755 -2.71669 0
M  V30 3462 H 327.167 -0.725961 -1.30576 0
M  V30 3463 H 329.049 0.619677 -4.16819 0
M  V30 3464 H 327.724 1.06296 -3.0575 0
M  V30 3465 H 326.631 -1.20308 -3.54227 0
M  V30 3466 H 327.964 -1.56423 -4.66683 0
M  V30 3467 N 329.616 1.39756 -0.72842 0
M  V30 3468 C 330.893 1.94574 -0.200079 0
M  V30 3469 C 331.273 1.66569 1.29684 0
M  V30 3470 O 330.621 0.990326 2.05924 0
M  V30 3471 C 330.831 3.45004 -0.526608 0
M  V30 3472 C 332.179 4.21965 -0.472318 0
M  V30 3473 O 333.203 3.53173 -0.463413 0
M  V30 3474 O 332.062 5.44552 -0.461075 0
M  V30 3475 H 329.156 0.826289 -0.0342851 0
M  V30 3476 H 331.702 1.49293 -0.806829 0
M  V30 3477 H 330.474 3.58796 -1.56144 0
M  V30 3478 H 330.097 3.97449 0.109449 0
M  V30 3479 N 331.094 0.475555 1.50254 0
M  V30 3480 C 332.041 -0.316293 2.28622 0
M  V30 3481 C 333.011 -0.983227 1.33873 0
M  V30 3482 O 334.196 -0.994805 1.62814 0
M  V30 3483 C 331.336 -1.38975 3.1588 0
M  V30 3484 C 330.449 -0.737146 4.25664 0
M  V30 3485 C 329.584 -1.78887 5.00173 0
M  V30 3486 C 328.623 -1.11676 6.01826 0
M  V30 3487 N 327.76 -2.11154 6.69596 0
M  V30 3488 H 332.6 0.358297 2.95838 0
M  V30 3489 H 330.137 0.188541 1.45887 0
M  V30 3490 H 332.095 -2.02383 3.64825 0
M  V30 3491 H 330.725 -2.03344 2.50701 0
M  V30 3492 H 329.777 0.0096065 3.80399 0
M  V30 3493 H 331.089 -0.206816 4.98371 0
M  V30 3494 H 330.243 -2.49865 5.52859 0
M  V30 3495 H 328.982 -2.35302 4.27182 0
M  V30 3496 H 327.987 -0.392633 5.48396 0
M  V30 3497 H 329.212 -0.55945 6.76792 0
M  V30 3498 H 327.158 -2.66577 5.99394 0
M  V30 3499 H 327.075 -1.63118 7.38193 0
M  V30 3500 H 328.343 -2.81497 7.26897 0
M  V30 3501 N 332.573 -1.56217 0.208337 0
M  V30 3502 C 333.821 -1.97558 -0.426076 0
M  V30 3503 C 334.142 -1.09683 -1.61229 0
M  V30 3504 O 333.412 -0.170956 -1.95153 0
M  V30 3505 H 331.992 -0.729575 -0.160405 0
M  V30 3506 H 334.654 -1.92606 0.298155 0
M  V30 3507 H 333.75 -3.02672 -0.761312 0
M  V30 3508 N 334.051 0.0651679 -1.57465 0
M  V30 3509 C 334.981 1.07693 -2.07182 0
M  V30 3510 C 335.962 1.39962 -0.966673 0
M  V30 3511 O 337.147 1.49475 -1.2398 0
M  V30 3512 C 334.277 2.3885 -2.52127 0
M  V30 3513 C 333.231 2.20917 -3.66579 0
M  V30 3514 C 332.557 3.57515 -3.97601 0
M  V30 3515 C 333.857 1.62493 -4.9638 0
M  V30 3516 H 335.551 0.663199 -2.91962 0
M  V30 3517 H 333.097 0.317569 -1.40455 0
M  V30 3518 H 335.05 3.09928 -2.85522 0
M  V30 3519 H 333.774 2.82215 -1.64384 0
M  V30 3520 H 332.433 1.52279 -3.33477 0
M  V30 3521 H 332.081 3.98463 -3.06979 0
M  V30 3522 H 331.781 3.46353 -4.74672 0
M  V30 3523 H 333.305 4.30013 -4.33499 0
M  V30 3524 H 334.719 2.23445 -5.27963 0
M  V30 3525 H 333.116 1.62009 -5.77818 0
M  V30 3526 H 334.186 0.587041 -4.81333 0
M  V30 3527 N 335.529 1.53961 0.336706 0
M  V30 3528 C 336.492 1.81724 1.39675 0
M  V30 3529 C 337.492 0.688532 1.45313 0
M  V30 3530 O 338.682 0.956829 1.45569 0
M  V30 3531 C 335.814 1.96543 2.78538 0
M  V30 3532 H 337.007 2.76424 1.16318 0
M  V30 3533 H 334.56 1.45478 0.571474 0
M  V30 3534 H 335.295 1.0401 3.07168 0
M  V30 3535 H 335.08 2.78665 2.75841 0
M  V30 3536 H 336.57 2.19516 3.5525 0
M  V30 3537 N 337.007 -0.598083 1.45811 0
M  V30 3538 C 337.917 -1.73632 1.57763 0
M  V30 3539 C 338.933 -1.67763 0.461676 0
M  V30 3540 O 340.109 -1.87949 0.723685 0
M  V30 3541 C 337.174 -3.10114 1.55018 0
M  V30 3542 C 336.235 -3.27364 2.77726 0
M  V30 3543 C 335.468 -4.57334 2.75102 0
M  V30 3544 O 335.691 -5.40258 1.8297 0
M  V30 3545 O 334.625 -4.77502 3.66437 0
M  V30 3546 H 338.451 -1.66498 2.53992 0
M  V30 3547 H 336.036 -0.763308 1.28429 0
M  V30 3548 H 337.918 -3.9141 1.56129 0
M  V30 3549 H 336.593 -3.17718 0.619431 0
M  V30 3550 H 335.5 -2.45619 2.82174 0
M  V30 3551 H 336.833 -3.24641 3.69958 0
M  V30 3552 N 338.485 -1.33259 -0.841409 0
M  V30 3553 C 339.731 -1.24757 -1.59886 0
M  V30 3554 C 340.064 0.186913 -1.93298 0
M  V30 3555 O 339.339 1.12757 -1.5848 0
M  V30 3556 C 339.622 -2.12036 -2.91055 0
M  V30 3557 C 339.475 -3.63929 -2.6434 0
M  V30 3558 C 340.794 -1.9916 -3.92458 0
M  V30 3559 H 337.913 -0.454542 -0.580138 0
M  V30 3560 H 340.555 -1.63335 -0.970647 0
M  V30 3561 H 338.705 -1.79265 -3.44669 0
M  V30 3562 H 340.377 -4.06978 -2.17178 0
M  V30 3563 H 338.62 -3.85935 -1.98082 0
M  V30 3564 H 339.291 -4.20341 -3.57796 0
M  V30 3565 H 341.767 -2.27895 -3.48143 0
M  V30 3566 H 340.643 -2.62484 -4.82072 0
M  V30 3567 H 340.904 -0.963082 -4.31482 0
M  V30 3568 N 339.963 1.05934 -1.16686 0
M  V30 3569 C 341.188 1.83029 -0.975455 0
M  V30 3570 C 341.613 1.82096 0.471452 0
M  V30 3571 O 340.971 1.22443 1.33706 0
M  V30 3572 C 341.019 3.27372 -1.51195 0
M  V30 3573 O 340.123 4.06054 -0.720701 0
M  V30 3574 H 339.464 0.566194 -0.346872 0
M  V30 3575 H 341.994 1.33541 -1.55009 0
M  V30 3576 H 342.004 3.78186 -1.53099 0
M  V30 3577 H 340.679 3.27366 -2.56523 0
M  V30 3578 H 339.256 3.64812 -0.772458 0
M  V30 3579 N 341.441 0.965919 1.2453 0
M  V30 3580 C 342.388 0.49402 2.25451 0
M  V30 3581 C 343.358 -0.45948 1.59618 0
M  V30 3582 O 344.543 -0.370238 1.87173 0
M  V30 3583 C 341.683 -0.211359 3.44452 0
M  V30 3584 C 340.796 0.7807 4.24887 0
M  V30 3585 C 339.931 0.0516105 5.31175 0
M  V30 3586 C 338.97 1.03385 6.03306 0
M  V30 3587 N 338.107 0.334887 7.01301 0
M  V30 3588 H 342.947 1.35946 2.65184 0
M  V30 3589 H 340.484 0.681515 1.3036 0
M  V30 3590 H 342.442 -0.637 4.12308 0
M  V30 3591 H 341.072 -1.04077 3.05562 0
M  V30 3592 H 340.124 1.32479 3.56586 0
M  V30 3593 H 341.436 1.52978 4.74762 0
M  V30 3594 H 340.59 -0.432114 6.05159 0
M  V30 3595 H 339.329 -0.730179 4.82203 0
M  V30 3596 H 338.334 1.52847 5.28127 0
M  V30 3597 H 339.559 1.81606 6.54367 0
M  V30 3598 H 337.505 -0.427959 6.54603 0
M  V30 3599 H 337.422 1.02287 7.49048 0
M  V30 3600 H 338.69 -0.126928 7.79397 0
M  V30 3601 N 342.919 -1.39368 0.735821 0
M  V30 3602 C 344.165 -2.00794 0.284544 0
M  V30 3603 C 344.498 -1.58255 -1.12557 0
M  V30 3604 O 343.773 -0.811819 -1.76748 0
M  V30 3605 C 344.056 -3.58011 0.387337 0
M  V30 3606 C 343.909 -4.10566 1.83728 0
M  V30 3607 C 345.228 -4.395 -0.22975 0
M  V30 3608 H 342.347 -0.729501 0.104866 0
M  V30 3609 H 344.989 -1.65564 0.93213 0
M  V30 3610 H 343.139 -3.88154 -0.164006 0
M  V30 3611 H 344.811 -3.91139 2.44556 0
M  V30 3612 H 343.054 -3.64095 2.35833 0
M  V30 3613 H 343.725 -5.19702 1.86047 0
M  V30 3614 H 346.201 -4.15406 0.240257 0
M  V30 3615 H 345.077 -5.48752 -0.127485 0
M  V30 3616 H 345.338 -4.22062 -1.3159 0
M  V30 3617 N 344.397 -0.483516 -1.5 0
M  V30 3618 C 345.36 0.292965 -2.2732 0
M  V30 3619 C 346.36 0.909499 -1.32608 0
M  V30 3620 O 347.55 0.776745 -1.55924 0
M  V30 3621 C 344.682 1.41854 -3.09984 0
M  V30 3622 H 345.875 -0.385289 -2.97415 0
M  V30 3623 H 343.428 -0.237942 -1.54478 0
M  V30 3624 H 344.163 2.13148 -2.44414 0
M  V30 3625 H 343.948 0.982114 -3.79601 0
M  V30 3626 H 345.438 1.96597 -3.68429 0
M  V30 3627 N 345.875 1.56104 -0.216619 0
M  V30 3628 C 346.785 2.23694 0.706982 0
M  V30 3629 C 347.801 1.24295 1.21765 0
M  V30 3630 O 348.977 1.57094 1.2603 0
M  V30 3631 C 346.042 2.8998 1.90033 0
M  V30 3632 C 345.103 4.04708 1.43213 0
M  V30 3633 C 344.336 4.67824 2.56859 0
M  V30 3634 O 344.559 4.29913 3.74874 0
M  V30 3635 O 343.493 5.56905 2.28343 0
M  V30 3636 H 347.319 3.03272 0.161235 0
M  V30 3637 H 344.904 1.49394 0.0136177 0
M  V30 3638 H 346.786 3.31837 2.59735 0
M  V30 3639 H 345.461 2.13365 2.43428 0
M  V30 3640 H 344.368 3.6743 0.70327 0
M  V30 3641 H 345.701 4.83051 0.944615 0
M  V30 3642 N 347.353 -0.0568162 1.57498 0
M  V30 3643 C 348.285 -1.09292 2.01464 0
M  V30 3644 C 349.298 -1.34112 0.922913 0
M  V30 3645 O 350.487 -1.32089 1.20062 0
M  V30 3646 C 347.587 -2.44068 2.35125 0
M  V30 3647 C 346.76 -2.38995 3.66333 0
M  V30 3648 C 345.819 -3.55997 3.87495 0
M  V30 3649 O 344.845 -3.36746 4.58901 0
M  V30 3650 N 346.047 -4.76888 3.30996 0
M  V30 3651 H 348.812 -0.718386 2.90963 0
M  V30 3652 H 346.373 -0.245235 1.60032 0
M  V30 3653 H 348.365 -3.21011 2.46443 0
M  V30 3654 H 346.935 -2.73468 1.5144 0
M  V30 3655 H 346.155 -1.47336 3.65631 0
M  V30 3656 H 347.443 -2.3272 4.52458 0
M  V30 3657 H 346.841 -4.95431 2.73065 0
M  V30 3658 H 345.398 -5.51291 3.47738 0
M  V30 3659 N 348.832 -1.54138 -0.328536 0
M  V30 3660 C 350.078 -1.7236 -1.06865 0
M  V30 3661 C 350.411 -0.493231 -1.87832 0
M  V30 3662 O 349.686 0.5098 -1.877 0
M  V30 3663 C 349.969 -2.99621 -1.99747 0
M  V30 3664 C 349.822 -4.32899 -1.22143 0
M  V30 3665 C 351.141 -3.22615 -2.99345 0
M  V30 3666 H 348.26 -0.627151 -0.387105 0
M  V30 3667 H 350.902 -1.86827 -0.345767 0
M  V30 3668 H 349.052 -2.87418 -2.61387 0
M  V30 3669 H 350.724 -4.56978 -0.630017 0
M  V30 3670 H 348.967 -4.30628 -0.523628 0
M  V30 3671 H 349.638 -5.18154 -1.90318 0
M  V30 3672 H 352.114 -3.34248 -2.47826 0
M  V30 3673 H 350.99 -4.13027 -3.61524 0
M  V30 3674 H 351.251 -2.3961 -3.71536 0
M  V30 3675 N 350.31 0.590341 -1.46126 0
M  V30 3676 C 351.24 1.71032 -1.58966 0
M  V30 3677 C 352.221 1.64302 -0.440335 0
M  V30 3678 O 353.406 1.82436 -0.665634 0
M  V30 3679 C 350.536 3.09665 -1.57241 0
M  V30 3680 C 349.49 3.31221 -2.71066 0
M  V30 3681 C 348.816 4.70303 -2.54399 0
M  V30 3682 C 350.116 3.19796 -4.1295 0
M  V30 3683 H 351.81 1.60543 -2.52718 0
M  V30 3684 H 349.356 0.770933 -1.21625 0
M  V30 3685 H 351.309 3.87831 -1.64819 0
M  V30 3686 H 350.033 3.21036 -0.600289 0
M  V30 3687 H 348.692 2.55452 -2.62944 0
M  V30 3688 H 348.34 4.78429 -1.55288 0
M  V30 3689 H 348.04 4.85679 -3.30741 0
M  V30 3690 H 349.564 5.50647 -2.63857 0
M  V30 3691 H 350.978 3.87815 -4.22223 0
M  V30 3692 H 349.375 3.46696 -4.89818 0
M  V30 3693 H 350.445 2.16983 -4.33643 0
M  V30 3694 N 351.788 1.33704 0.83433 0
M  V30 3695 C 352.736 1.24323 1.96587 0
M  V30 3696 C 353.73 0.143659 1.6879 0
M  V30 3697 O 354.936 0.30791 1.77347 0
M  V30 3698 H 351.311 0.385925 0.645419 0
M  V30 3699 H 353.282 2.19978 2.01624 0
M  V30 3700 C 352.031 1.00394 3.32891 0
M  V30 3701 H 351.354 1.84231 3.54822 0
M  V30 3702 H 352.794 0.97862 4.12552 0
M  V30 3703 C 351.253 -0.293047 3.35623 0
M  V30 3704 O 351.783 -1.29823 3.80143 0
M  V30 3705 N 349.989 -0.322174 2.88809 0
M  V30 3706 H 349.536 0.496379 2.52772 0
M  V30 3707 H 349.494 -1.18977 2.91019 0
M  V30 3708 N 353.266 -1.05314 1.17247 0
M  V30 3709 C 354.229 -2.112 0.890357 0
M  V30 3710 C 355.229 -1.60359 -0.118943 0
M  V30 3711 O 356.419 -1.73833 0.113086 0
M  V30 3712 C 353.551 -3.39266 0.333422 0
M  V30 3713 H 354.744 -2.37659 1.82916 0
M  V30 3714 H 352.297 -1.21538 0.982758 0
M  V30 3715 H 353.032 -3.18462 -0.612587 0
M  V30 3716 H 352.817 -3.77477 1.06082 0
M  V30 3717 H 354.307 -4.17315 0.154322 0
M  V30 3718 N 354.744 -0.972509 -1.24016 0
M  V30 3719 C 355.99 -0.637978 -1.92504 0
M  V30 3720 C 356.323 0.825383 -1.75787 0
M  V30 3721 O 355.598 1.59442 -1.11393 0
M  V30 3722 C 355.881 -1.01942 -3.45369 0
M  V30 3723 C 355.734 -2.53983 -3.71231 0
M  V30 3724 C 357.053 -0.55751 -4.36555 0
M  V30 3725 H 354.172 -0.233248 -0.699117 0
M  V30 3726 H 356.814 -1.21238 -1.46292 0
M  V30 3727 H 354.964 -0.530656 -3.84859 0
M  V30 3728 H 356.636 -3.10374 -3.41271 0
M  V30 3729 H 354.879 -2.96968 -3.16216 0
M  V30 3730 H 355.55 -2.75723 -4.78206 0
M  V30 3731 H 358.026 -0.977029 -4.04467 0
M  V30 3732 H 356.902 -0.85292 -5.42233 0
M  V30 3733 H 357.163 0.542328 -4.38761 0
M  V30 3734 N 356.222 1.38976 -0.743202 0
M  V30 3735 C 357.17 2.32394 -0.0978389 0
M  V30 3736 C 358.164 1.53486 0.716824 0
M  V30 3737 O 359.37 1.69092 0.617088 0
M  V30 3738 H 355.745 0.75189 -0.0128402 0
M  V30 3739 H 357.716 2.84441 -0.901981 0
M  V30 3740 C 356.465 3.38629 0.789036 0
M  V30 3741 H 355.788 3.99432 0.171559 0
M  V30 3742 H 357.228 4.06426 1.20807 0
M  V30 3743 C 355.687 2.76347 1.92702 0
M  V30 3744 O 356.217 2.64836 3.02034 0
M  V30 3745 N 354.423 2.34311 1.71891 0
M  V30 3746 H 353.97 2.43873 0.829675 0
M  V30 3747 H 353.928 1.9298 2.48205 0
M  V30 3748 N 357.7 0.491464 1.49741 0
M  V30 3749 C 358.647 -0.292027 2.28945 0
M  V30 3750 C 359.617 -0.968973 1.34908 0
M  V30 3751 O 360.802 -0.97748 1.6386 0
M  V30 3752 C 357.942 -1.35617 3.17336 0
M  V30 3753 C 357.055 -0.691957 4.26422 0
M  V30 3754 C 356.19 -1.73572 5.02042 0
M  V30 3755 C 355.229 -1.05286 6.02977 0
M  V30 3756 N 354.366 -2.0404 6.71798 0
M  V30 3757 H 359.206 0.389654 2.95442 0
M  V30 3758 H 356.743 0.204003 1.45679 0
M  V30 3759 H 358.701 -1.98502 3.66951 0
M  V30 3760 H 357.331 -2.00674 2.52844 0
M  V30 3761 H 356.383 0.0499523 3.80367 0
M  V30 3762 H 357.695 -0.153946 4.98562 0
M  V30 3763 H 356.849 -2.43987 5.55478 0
M  V30 3764 H 355.588 -2.30757 4.29654 0
M  V30 3765 H 354.593 -0.334446 5.48782 0
M  V30 3766 H 355.818 -0.487636 6.77347 0
M  V30 3767 H 353.764 -2.60205 6.02187 0
M  V30 3768 H 353.681 -1.55279 7.39881 0
M  V30 3769 H 354.949 -2.73772 7.29842 0
M  V30 3770 N 359.178 -1.55987 0.224894 0
M  V30 3771 C 360.426 -1.97998 -0.405099 0
M  V30 3772 C 360.747 -1.11387 -1.60056 0
M  V30 3773 O 360.017 -0.191645 -1.9496 0
M  V30 3774 H 358.597 -0.731235 -0.152658 0
M  V30 3775 H 361.259 -1.92279 0.318567 0
M  V30 3776 H 360.355 -3.03463 -0.729167 0
M  V30 3777 N 360.656 0.0484629 -1.57525 0
M  V30 3778 C 361.586 1.0549 -2.08313 0
M  V30 3779 C 362.567 1.38929 -0.981463 0
M  V30 3780 O 363.752 1.48151 -1.25558 0
M  V30 3781 C 360.882 2.36162 -2.54646 0
M  V30 3782 C 359.836 2.17016 -3.68901 0
M  V30 3783 C 359.162 3.53278 -4.01371 0
M  V30 3784 C 360.462 1.57219 -4.98076 0
M  V30 3785 H 362.156 0.632195 -2.92649 0
M  V30 3786 H 359.702 0.302654 -1.40784 0
M  V30 3787 H 361.655 3.06882 -2.88793 0
M  V30 3788 H 360.379 2.80456 -1.67368 0
M  V30 3789 H 359.038 1.48733 -3.35073 0
M  V30 3790 H 358.686 3.95185 -3.11188 0
M  V30 3791 H 358.386 3.41299 -4.78318 0
M  V30 3792 H 359.91 4.25391 -4.38035 0
M  V30 3793 H 361.324 2.17832 -5.30304 0
M  V30 3794 H 359.721 1.55871 -5.79503 0
M  V30 3795 H 360.791 0.535956 -4.81929 0
M  V30 3796 N 362.134 1.5431 0.320358 0
M  V30 3797 C 363.364 1.7638 1.07582 0
M  V30 3798 C 363.772 0.513944 1.82086 0
M  V30 3799 O 363.115 -0.525123 1.76035 0
M  V30 3800 C 363.177 2.9055 2.1171 0
M  V30 3801 C 362.841 4.2934 1.56575 0
M  V30 3802 C 363.838 5.10077 1.00586 0
M  V30 3803 C 361.523 4.75893 1.60722 0
M  V30 3804 C 363.517 6.35477 0.494756 0
M  V30 3805 C 361.204 6.0126 1.09224 0
M  V30 3806 C 362.202 6.80886 0.53696 0
M  V30 3807 O 361.89 8.03894 0.0297371 0
M  V30 3808 H 361.622 0.592369 0.325692 0
M  V30 3809 H 364.176 2.02019 0.37116 0
M  V30 3810 H 362.406 2.60489 2.85801 0
M  V30 3811 H 364.095 3.00373 2.73003 0
M  V30 3812 H 364.861 4.75265 0.966869 0
M  V30 3813 H 360.74 4.13957 2.02882 0
M  V30 3814 H 364.284 6.97574 0.0606842 0
M  V30 3815 H 360.181 6.35562 1.12831 0
M  V30 3816 H 360.949 8.18372 0.14486 0
M  V30 3817 N 363.613 -0.582584 1.46437 0
M  V30 3818 C 365.029 -0.905962 1.31394 0
M  V30 3819 C 365.229 -1.99468 0.285476 0
M  V30 3820 O 364.285 -2.50566 -0.311914 0
M  V30 3821 C 365.598 -1.3232 2.70022 0
M  V30 3822 C 367.146 -1.43604 2.78113 0
M  V30 3823 C 367.621 -1.88694 4.17323 0
M  V30 3824 N 369.112 -1.95887 4.19741 0
M  V30 3825 C 369.847 -2.32051 5.24347 0
M  V30 3826 N 369.343 -2.67006 6.39281 0
M  V30 3827 N 371.136 -2.32606 5.11713 0
M  V30 3828 H 363.287 0.1366 2.1196 0
M  V30 3829 H 365.55 -0.00155736 0.947999 0
M  V30 3830 H 365.256 -0.597242 3.46592 0
M  V30 3831 H 365.13 -2.28469 3.00136 0
M  V30 3832 H 367.517 -2.15286 2.01832 0
M  V30 3833 H 367.598 -0.457059 2.51684 0
M  V30 3834 H 367.242 -1.1759 4.941 0
M  V30 3835 H 367.172 -2.8755 4.4116 0
M  V30 3836 H 369.663 -1.71362 3.36814 0
M  V30 3837 H 369.976 -2.93554 7.14875 0
M  V30 3838 H 368.321 -2.64644 6.42642 0
M  V30 3839 H 371.512 -2.04721 4.2096 0
M  V30 3840 H 371.685 -2.60462 5.93349 0
M  V30 3841 N 365.091 -1.34144 -0.827227 0
M  V30 3842 C 366.001 -1.27428 -1.96975 0
M  V30 3843 C 367.017 -0.182728 -1.73038 0
M  V30 3844 O 368.193 -0.408426 -1.97215 0
M  V30 3845 C 365.258 -1.02526 -3.31194 0
M  V30 3846 C 364.319 -2.20796 -3.68168 0
M  V30 3847 C 363.552 -1.97073 -4.95982 0
M  V30 3848 O 363.775 -0.926822 -5.6282 0
M  V30 3849 O 362.709 -2.83912 -5.30733 0
M  V30 3850 H 366.535 -2.23537 -2.05584 0
M  V30 3851 H 364.12 -1.14307 -0.961989 0
M  V30 3852 H 366.002 -0.904026 -4.11589 0
M  V30 3853 H 364.677 -0.0945389 -3.23562 0
M  V30 3854 H 363.584 -2.38477 -2.88235 0
M  V30 3855 H 364.917 -3.12243 -3.8048 0
M  V30 3856 N 366.569 1.04691 -1.17803 0
M  V30 3857 C 367.532 2.10724 -0.901545 0
M  V30 3858 C 368.532 1.6042 0.110437 0
M  V30 3859 O 369.722 1.7377 -0.122303 0
M  V30 3860 C 366.854 3.39084 -0.351409 0
M  V30 3861 H 368.047 2.36686 -1.84174 0
M  V30 3862 H 365.6 1.21015 -0.98919 0
M  V30 3863 H 366.335 3.18782 0.59569 0
M  V30 3864 H 366.12 3.76909 -1.08083 0
M  V30 3865 H 367.61 4.17227 -0.176451 0
M  V30 3866 N 368.047 0.979072 1.23499 0
M  V30 3867 C 369.275 0.665202 1.95915 0
M  V30 3868 C 369.69 -0.767571 1.72493 0
M  V30 3869 O 369.047 -1.51635 1.01554 0
M  V30 3870 C 369.098 0.944438 3.48945 0
M  V30 3871 O 368.819 2.3209 3.71572 0
M  V30 3872 C 370.32 0.646336 4.38563 0
M  V30 3873 H 367.54 0.247218 0.623798 0
M  V30 3874 H 370.084 1.31009 1.57025 0
M  V30 3875 H 368.239 0.345575 3.85856 0
M  V30 3876 H 368.653 2.40957 4.65876 0
M  V30 3877 H 370.127 0.892091 5.44744 0
M  V30 3878 H 370.604 -0.419575 4.37191 0
M  V30 3879 H 371.21 1.22562 4.07258 0
M  V30 3880 N 369.525 -1.3858 0.750561 0
M  V30 3881 C 370.435 -2.34278 0.122825 0
M  V30 3882 C 371.451 -1.59116 -0.704131 0
M  V30 3883 O 372.627 -1.91326 -0.628987 0
M  V30 3884 C 369.692 -3.38221 -0.762086 0
M  V30 3885 C 368.753 -4.29227 0.078896 0
M  V30 3886 C 367.986 -5.28205 -0.763874 0
M  V30 3887 O 368.209 -5.34112 -2.00201 0
M  V30 3888 O 367.143 -6.01618 -0.18428 0
M  V30 3889 H 370.969 -2.89649 0.913088 0
M  V30 3890 H 368.554 -1.40374 0.511417 0
M  V30 3891 H 370.436 -4.01872 -1.26793 0
M  V30 3892 H 369.111 -2.85211 -1.5309 0
M  V30 3893 H 368.018 -3.68747 0.630621 0
M  V30 3894 H 369.351 -4.85484 0.810289 0
M  V30 3895 N 371.003 -0.499398 -1.49478 0
M  V30 3896 C 371.933 0.269244 -2.31943 0
M  V30 3897 C 372.914 0.964054 -1.40143 0
M  V30 3898 O 374.099 0.955767 -1.69052 0
M  V30 3899 C 371.229 1.33504 -3.20615 0
M  V30 3900 C 370.183 0.760202 -4.21195 0
M  V30 3901 C 369.509 1.9264 -4.98792 0
M  V30 3902 C 370.809 -0.247661 -5.21712 0
M  V30 3903 H 372.503 -0.419082 -2.96452 0
M  V30 3904 H 370.049 -0.202988 -1.42562 0
M  V30 3905 H 372.002 1.88048 -3.77115 0
M  V30 3906 H 370.726 2.05253 -2.54045 0
M  V30 3907 H 369.385 0.23653 -3.65836 0
M  V30 3908 H 369.033 2.63154 -4.28671 0
M  V30 3909 H 368.733 1.54785 -5.66847 0
M  V30 3910 H 370.257 2.4762 -5.58137 0
M  V30 3911 H 371.671 0.209579 -5.72917 0
M  V30 3912 H 370.068 -0.541962 -5.97648 0
M  V30 3913 H 371.138 -1.16409 -4.7072 0
M  V30 3914 N 372.481 1.55866 -0.233164 0
M  V30 3915 C 373.727 1.99643 0.389148 0
M  V30 3916 C 374.082 1.11836 1.56558 0
M  V30 3917 O 373.375 0.170848 1.90837 0
M  V30 3918 C 373.569 3.46856 0.861724 0
M  V30 3919 C 373.398 4.48904 -0.267376 0
M  V30 3920 C 372.168 4.99888 -0.737577 0
M  V30 3921 C 374.366 5.02624 -1.08966 0
M  V30 3922 N 372.348 5.8566 -1.84052 0
M  V30 3923 C 373.719 5.85434 -2.04125 0
M  V30 3924 C 375.774 4.84959 -1.12779 0
M  V30 3925 C 374.477 6.52466 -3.02789 0
M  V30 3926 C 376.503 5.52759 -2.10266 0
M  V30 3927 C 375.865 6.35346 -3.04162 0
M  V30 3928 H 371.964 0.774402 0.108742 0
M  V30 3929 H 374.548 1.91572 -0.347596 0
M  V30 3930 H 372.719 3.55352 1.5678 0
M  V30 3931 H 374.451 3.77531 1.45783 0
M  V30 3932 H 371.206 4.7249 -0.324122 0
M  V30 3933 H 371.63 6.33246 -2.39434 0
M  V30 3934 H 376.272 4.20751 -0.415749 0
M  V30 3935 H 373.99 7.15849 -3.74948 0
M  V30 3936 H 377.576 5.41051 -2.13905 0
M  V30 3937 H 376.456 6.86883 -3.78366 0
M  V30 3938 N 373.959 -0.0401083 1.57549 0
M  V30 3939 C 375.207 -0.731677 1.8839 0
M  V30 3940 C 375.528 -1.76481 0.829425 0
M  V30 3941 O 374.798 -1.95411 -0.1383 0
M  V30 3942 H 373.378 -0.273225 0.695239 0
M  V30 3943 H 376.04 -0.00867725 1.94898 0
M  V30 3944 H 375.136 -1.22816 2.86919 0
M  V30 3945 N 375.437 -1.54477 -0.31217 0
M  V30 3946 C 376.384 -1.84655 -1.38461 0
M  V30 3947 C 377.354 -0.694536 -1.50882 0
M  V30 3948 O 378.539 -0.942081 -1.6592 0
M  V30 3949 C 375.679 -2.0896 -2.74645 0
M  V30 3950 C 374.792 -3.36618 -2.70763 0
M  V30 3951 C 373.927 -3.50824 -3.98868 0
M  V30 3952 C 372.966 -4.72315 -3.89339 0
M  V30 3953 N 372.103 -4.83387 -5.09197 0
M  V30 3954 H 376.943 -2.76142 -1.12026 0
M  V30 3955 H 374.48 -1.36748 -0.542065 0
M  V30 3956 H 376.438 -2.21045 -3.53829 0
M  V30 3957 H 375.068 -1.20752 -2.99364 0
M  V30 3958 H 374.12 -3.33211 -1.83506 0
M  V30 3959 H 375.432 -4.25917 -2.59608 0
M  V30 3960 H 374.586 -3.62513 -4.86486 0
M  V30 3961 H 373.325 -2.59638 -4.12843 0
M  V30 3962 H 372.33 -4.6067 -3.00105 0
M  V30 3963 H 373.555 -5.64897 -3.76919 0
M  V30 3964 H 371.501 -3.9512 -5.23657 0
M  V30 3965 H 371.418 -5.66669 -5.00422 0
M  V30 3966 H 372.686 -4.9942 -5.98498 0
M  V30 3967 N 376.915 0.57481 -1.46744 0
M  V30 3968 C 377.878 1.66533 -1.57478 0
M  V30 3969 C 378.878 1.54338 -0.451263 0
M  V30 3970 O 380.068 1.58814 -0.715813 0
M  V30 3971 C 377.2 3.05999 -1.50259 0
M  V30 3972 H 378.393 1.58372 -2.54673 0
M  V30 3973 H 375.946 0.793301 -1.34672 0
M  V30 3974 H 376.681 3.19709 -0.543725 0
M  V30 3975 H 376.466 3.16259 -2.31781 0
M  V30 3976 H 377.956 3.8537 -1.60872 0
M  V30 3977 N 378.394 1.34581 0.820102 0
M  V30 3978 C 379.304 1.28471 1.96297 0
M  V30 3979 C 380.32 0.191902 1.72939 0
M  V30 3980 O 381.496 0.418879 1.96996 0
M  V30 3981 C 378.561 1.04281 3.30645 0
M  V30 3982 C 377.622 2.22745 3.66992 0
M  V30 3983 C 376.855 1.997 4.9493 0
M  V30 3984 O 377.078 0.956656 5.6232 0
M  V30 3985 O 376.012 2.86723 5.2922 0
M  V30 3986 H 379.838 2.24624 2.04396 0
M  V30 3987 H 377.423 1.14816 0.955913 0
M  V30 3988 H 379.305 0.925841 4.11104 0
M  V30 3989 H 377.98 0.111697 3.23507 0
M  V30 3990 H 376.887 2.40003 2.86966 0
M  V30 3991 H 378.22 3.14257 3.78819 0
M  V30 3992 N 379.872 -1.04064 1.18357 0
M  V30 3993 C 380.805 -2.11618 0.854 0
M  V30 3994 C 381.783 -1.61555 -0.184043 0
M  V30 3995 O 382.967 -1.88395 -0.0630048 0
M  V30 3996 C 380.094 -3.37574 0.27597 0
M  V30 3997 C 379.14 -4.06485 1.2912 0
M  V30 3998 S 379.973 -4.53543 2.84709 0
M  V30 3999 C 381.129 -5.82732 2.28417 0
M  V30 4000 H 381.362 -2.39247 1.76488 0
M  V30 4001 H 378.895 -1.16832 1.00944 0
M  V30 4002 H 380.853 -4.10468 -0.051026 0
M  V30 4003 H 379.514 -3.0806 -0.613028 0
M  V30 4004 H 378.707 -4.97024 0.835633 0
M  V30 4005 H 378.309 -3.39708 1.56443 0
M  V30 4006 H 380.601 -6.56677 1.66677 0
M  V30 4007 H 381.544 -6.33052 3.17256 0
M  V30 4008 H 381.952 -5.37838 1.71436 0
M  V30 4009 N 381.35 -0.985608 -1.22978 0
M  V30 4010 C 382.599 -0.652881 -1.90841 0
M  V30 4011 C 382.912 0.817842 -1.77681 0
M  V30 4012 O 384.118 1.26185 -2.40395 0
M  V30 4013 C 382.574 -1.11717 -3.42122 0
M  V30 4014 C 382.182 -2.6126 -3.63933 0
M  V30 4015 C 383.926 -0.85843 -4.1573 0
M  V30 4016 C 381.833 -3.0133 -5.08876 0
M  V30 4017 H 380.763 -0.240491 -0.714619 0
M  V30 4018 H 383.414 -1.1942 -1.39324 0
M  V30 4019 H 381.796 -0.504027 -3.92779 0
M  V30 4020 H 382.97 -3.27858 -3.23799 0
M  V30 4021 H 381.285 -2.84937 -3.03644 0
M  V30 4022 H 383.882 -1.13359 -5.22546 0
M  V30 4023 H 384.225 0.205461 -4.15793 0
M  V30 4024 H 384.758 -1.43341 -3.71077 0
M  V30 4025 H 381.497 -4.06864 -5.13947 0
M  V30 4026 H 381.017 -2.3943 -5.49939 0
M  V30 4027 H 382.696 -2.92224 -5.77247 0
M  V30 4028 N 382.828 1.3818 -0.7579 0
M  V30 4029 C 384.077 1.99261 -0.312744 0
M  V30 4030 C 384.39 1.60846 1.11301 0
M  V30 4031 O 385.596 2.14929 1.65885 0
M  V30 4032 C 384.052 3.56294 -0.50821 0
M  V30 4033 C 383.66 4.03657 -1.94333 0
M  V30 4034 C 385.404 4.24313 -0.125982 0
M  V30 4035 C 383.311 5.53347 -2.08712 0
M  V30 4036 H 382.241 0.745456 -0.113185 0
M  V30 4037 H 384.892 1.57889 -0.935056 0
M  V30 4038 H 383.274 3.95575 0.183353 0
M  V30 4039 H 384.448 3.75655 -2.66871 0
M  V30 4040 H 382.763 3.48376 -2.28086 0
M  V30 4041 H 385.36 5.34279 -0.212125 0
M  V30 4042 H 385.703 4.05962 0.921964 0
M  V30 4043 H 386.236 3.90285 -0.769563 0
M  V30 4044 H 382.975 5.76607 -3.11777 0
M  V30 4045 H 382.495 5.83078 -1.4064 0
M  V30 4046 H 384.174 6.19111 -1.87912 0
M  V30 4047 N 384.306 0.507319 1.49211 0
M  V30 4048 C 385.216 -0.272136 2.33016 0
M  V30 4049 C 386.232 -0.961206 1.45041 0
M  V30 4050 O 387.408 -0.941191 1.78055 0
M  V30 4051 C 384.473 -1.31895 3.20631 0
M  V30 4052 C 383.534 -0.642648 4.24463 0
M  V30 4053 C 382.767 -1.63959 5.07891 0
M  V30 4054 O 382.99 -2.87007 4.92933 0
M  V30 4055 O 381.924 -1.19143 5.8999 0
M  V30 4056 H 385.75 0.413982 3.00865 0
M  V30 4057 H 383.335 0.268556 1.46966 0
M  V30 4058 H 385.217 -1.92446 3.7489 0
M  V30 4059 H 383.892 -1.98788 2.5547 0
M  V30 4060 H 382.799 0.00276252 3.741 0
M  V30 4061 H 384.132 -0.0160534 4.92197 0
M  V30 4062 N 385.784 -1.5574 0.241426 0
M  V30 4063 C 386.716 -2.18469 -0.693091 0
M  V30 4064 C 387.729 -1.15942 -1.14286 0
M  V30 4065 O 388.918 -1.42832 -1.07058 0
M  V30 4066 C 386.018 -2.7696 -1.95311 0
M  V30 4067 C 385.191 -4.04853 -1.65568 0
M  V30 4068 C 384.25 -4.47715 -2.76474 0
M  V30 4069 O 383.276 -5.14205 -2.44094 0
M  V30 4070 N 384.478 -4.15044 -4.05855 0
M  V30 4071 H 387.243 -2.99292 -0.156388 0
M  V30 4072 H 384.804 -1.61784 0.0611752 0
M  V30 4073 H 386.796 -3.02594 -2.68736 0
M  V30 4074 H 385.366 -2.00326 -2.39975 0
M  V30 4075 H 384.586 -3.86865 -0.756886 0
M  V30 4076 H 385.874 -4.88246 -1.43153 0
M  V30 4077 H 385.272 -3.61654 -4.34998 0
M  V30 4078 H 383.829 -4.45526 -4.75762 0
M  V30 4079 N 387.262 0.0317525 -1.57568 0
M  V30 4080 C 388.21 1.05165 -2.07468 0
M  V30 4081 C 389.204 1.3761 -0.98792 0
M  V30 4082 O 390.41 1.36546 -1.17282 0
M  V30 4083 H 386.785 0.35666 -0.66204 0
M  V30 4084 H 388.756 0.604958 -2.92203 0
M  V30 4085 C 387.505 2.34488 -2.56731 0
M  V30 4086 H 386.828 2.10383 -3.39969 0
M  V30 4087 H 388.268 3.04203 -2.95358 0
M  V30 4088 C 386.727 3.03266 -1.46736 0
M  V30 4089 O 387.257 3.92988 -0.832069 0
M  V30 4090 N 385.463 2.6455 -1.20256 0
M  V30 4091 H 385.01 1.91674 -1.72102 0
M  V30 4092 H 384.968 3.10886 -0.468737 0
M  V30 4093 N 388.74 1.54641 0.303973 0
M  V30 4094 C 389.968 1.77768 1.05858 0
M  V30 4095 C 390.383 0.535722 1.8104 0
M  V30 4096 O 389.74 -0.494337 1.75677 0
M  V30 4097 C 389.791 2.9834 2.04146 0
M  V30 4098 O 389.512 4.17736 1.32015 0
M  V30 4099 C 391.013 3.33832 2.91669 0
M  V30 4100 H 388.233 0.592961 0.314067 0
M  V30 4101 H 390.777 2.01583 0.344149 0
M  V30 4102 H 388.932 2.76742 2.71096 0
M  V30 4103 H 389.346 4.85693 1.97998 0
M  V30 4104 H 390.82 4.21448 3.56491 0
M  V30 4105 H 391.297 2.51857 3.59812 0
M  V30 4106 H 391.903 3.57579 2.30254 0
M  V30 4107 N 390.218 -0.567019 1.47046 0
M  V30 4108 C 391.495 -1.3276 1.43646 0
M  V30 4109 C 391.875 -2.1071 0.128186 0
M  V30 4110 O 391.223 -2.10441 -0.890326 0
M  V30 4111 C 391.433 -2.2404 2.67595 0
M  V30 4112 C 392.781 -2.85372 3.14401 0
M  V30 4113 O 393.805 -2.34346 2.68254 0
M  V30 4114 O 392.664 -3.78091 3.946 0
M  V30 4115 H 389.758 -0.597293 0.571988 0
M  V30 4116 H 392.304 -0.586735 1.59234 0
M  V30 4117 H 391.076 -1.65975 3.54356 0
M  V30 4118 H 390.699 -3.05439 2.54544 0
M  V30 4119 N 391.696 -1.35014 -0.812953 0
M  V30 4120 C 392.944 -1.27678 -1.56661 0
M  V30 4121 C 393.265 0.150359 -1.94419 0
M  V30 4122 O 392.535 1.08532 -1.63088 0
M  V30 4123 H 391.115 -0.469602 -0.580933 0
M  V30 4124 H 393.777 -1.69043 -0.970076 0
M  V30 4125 H 392.873 -1.88833 -2.48492 0
M  V30 4126 N 393.175 1.03435 -1.18907 0
M  V30 4127 C 394.421 1.77005 -0.989798 0
M  V30 4128 C 394.754 1.88205 0.478816 0
M  V30 4129 O 394.029 1.39481 1.35556 0
M  V30 4130 C 394.312 3.19925 -1.65287 0
M  V30 4131 C 394.165 3.1663 -3.19477 0
M  V30 4132 C 395.484 4.18189 -1.37134 0
M  V30 4133 H 392.603 0.642538 -0.360991 0
M  V30 4134 H 395.245 1.20784 -1.46667 0
M  V30 4135 H 393.395 3.67929 -1.24741 0
M  V30 4136 H 395.067 2.76567 -3.692 0
M  V30 4137 H 393.31 2.54491 -3.51307 0
M  V30 4138 H 393.981 4.1758 -3.61013 0
M  V30 4139 H 396.457 3.78761 -1.72276 0
M  V30 4140 H 395.333 5.16394 -1.86087 0
M  V30 4141 H 395.594 4.41112 -0.295424 0
M  V30 4142 N 394.653 0.992116 1.22453 0
M  V30 4143 C 395.601 0.534644 2.26372 0
M  V30 4144 C 396.595 -0.414293 1.64256 0
M  V30 4145 O 397.801 -0.286899 1.77699 0
M  V30 4146 H 394.176 0.154502 0.735957 0
M  V30 4147 H 396.147 1.42256 2.62309 0
M  V30 4148 C 394.896 -0.135815 3.47435 0
M  V30 4149 H 394.219 0.585311 3.95492 0
M  V30 4150 H 395.659 -0.419374 4.21921 0
M  V30 4151 C 394.118 -1.37089 3.07747 0
M  V30 4152 O 394.648 -2.46629 3.17076 0
M  V30 4153 N 392.854 -1.24585 2.62539 0
M  V30 4154 H 392.401 -0.354542 2.55149 0
M  V30 4155 H 392.359 -2.07327 2.36353 0
M  V30 4156 N 396.131 -1.37776 0.765217 0
M  V30 4157 C 397.378 -1.99849 0.326588 0
M  V30 4158 C 397.706 -1.60746 -1.09504 0
M  V30 4159 O 396.961 -0.84202 -1.76659 0
M  V30 4160 C 397.26 -3.5504 0.410053 0
M  V30 4161 C 396.926 -4.13891 1.78899 0
M  V30 4162 C 395.588 -4.29678 2.16635 0
M  V30 4163 C 397.94 -4.46236 2.69301 0
M  V30 4164 C 395.268 -4.7511 3.44221 0
M  V30 4165 C 397.62 -4.93089 3.9629 0
M  V30 4166 C 396.284 -5.07082 4.34078 0
M  V30 4167 H 395.554 -0.7313 0.119507 0
M  V30 4168 H 398.201 -1.64645 0.977968 0
M  V30 4169 H 396.506 -3.90451 -0.324878 0
M  V30 4170 H 398.203 -4.00966 0.0520699 0
M  V30 4171 H 394.793 -4.02026 1.48569 0
M  V30 4172 H 398.977 -4.3363 2.41409 0
M  V30 4173 H 394.233 -4.84129 3.73402 0
M  V30 4174 H 398.407 -5.17084 4.66472 0
M  V30 4175 H 396.034 -5.42046 5.33001 0
M  V30 4176 N 397.609 -0.515225 -1.4894 0
M  V30 4177 C 398.839 0.0205735 -2.0659 0
M  V30 4178 C 399.247 1.30064 -1.37405 0
M  V30 4179 O 398.59 1.78087 -0.450632 0
M  V30 4180 C 398.652 0.330124 -3.57981 0
M  V30 4181 C 398.316 -0.854295 -4.48944 0
M  V30 4182 C 399.313 -1.7487 -4.89609 0
M  V30 4183 C 396.998 -1.05712 -4.9105 0
M  V30 4184 C 398.992 -2.82996 -5.71132 0
M  V30 4185 C 396.679 -2.14154 -5.72347 0
M  V30 4186 C 397.677 -3.0263 -6.12294 0
M  V30 4187 O 397.365 -4.09198 -6.91962 0
M  V30 4188 H 397.097 -0.0236833 -0.675585 0
M  V30 4189 H 399.651 -0.715956 -1.92518 0
M  V30 4190 H 397.881 1.12044 -3.70112 0
M  V30 4191 H 399.57 0.806233 -3.97812 0
M  V30 4192 H 400.336 -1.60388 -4.57712 0
M  V30 4193 H 396.215 -0.377788 -4.59449 0
M  V30 4194 H 399.759 -3.52083 -6.02232 0
M  V30 4195 H 395.656 -2.28626 -6.03656 0
M  V30 4196 H 396.424 -4.06726 -7.10293 0
M  V30 4197 N 399.087 1.5561 -0.249682 0
M  V30 4198 C 400.035 2.22894 0.664906 0
M  V30 4199 C 401.029 1.21743 1.17792 0
M  V30 4200 O 402.235 1.39748 1.13449 0
M  V30 4201 H 398.61 0.715022 0.232912 0
M  V30 4202 H 400.581 2.98307 0.0742998 0
M  V30 4203 C 399.33 2.94424 1.84959 0
M  V30 4204 H 398.653 3.72031 1.46399 0
M  V30 4205 H 400.093 3.44862 2.4667 0
M  V30 4206 C 398.552 1.98454 2.72245 0
M  V30 4207 O 399.082 1.51939 3.71857 0
M  V30 4208 N 397.288 1.65496 2.38871 0
M  V30 4209 H 396.835 2.03517 1.57919 0
M  V30 4210 H 396.793 1.0155 2.97548 0
M  V30 4211 N 400.565 -0.0233959 1.57583 0
M  V30 4212 C 401.814 -0.712133 1.8871 0
M  V30 4213 C 402.127 -1.76217 0.848944 0
M  V30 4214 O 403.333 -2.50389 1.04964 0
M  V30 4215 C 401.789 -1.3177 3.3491 0
M  V30 4216 C 401.397 -0.303715 4.46969 0
M  V30 4217 C 403.141 -1.98598 3.75179 0
M  V30 4218 C 401.048 -0.917945 5.84233 0
M  V30 4219 H 399.978 -0.269735 0.704101 0
M  V30 4220 H 402.629 0.0333114 1.8347 0
M  V30 4221 H 401.011 -2.11304 3.34913 0
M  V30 4222 H 402.185 0.465325 4.58445 0
M  V30 4223 H 400.5 0.2628 4.1557 0
M  V30 4224 H 403.097 -2.45416 4.75053 0
M  V30 4225 H 403.44 -2.80659 3.07468 0
M  V30 4226 H 403.973 -1.25831 3.77374 0
M  V30 4227 H 400.712 -0.136633 6.55358 0
M  V30 4228 H 400.232 -1.65669 5.76467 0
M  V30 4229 H 401.911 -1.4236 6.31144 0
M  V30 4230 N 402.043 -1.548 -0.295768 0
M  V30 4231 C 402.973 -1.89115 -1.36959 0
M  V30 4232 C 403.954 -0.75059 -1.52644 0
M  V30 4233 O 405.139 -1.00678 -1.66065 0
M  V30 4234 C 402.269 -2.14307 -2.73295 0
M  V30 4235 C 401.223 -3.30151 -2.72368 0
M  V30 4236 C 400.549 -3.40772 -4.12042 0
M  V30 4237 C 401.849 -4.67126 -2.33646 0
M  V30 4238 H 403.543 -2.79053 -1.08488 0
M  V30 4239 H 401.089 -1.34266 -0.520443 0
M  V30 4240 H 403.042 -2.36898 -3.48507 0
M  V30 4241 H 401.766 -1.21145 -3.03301 0
M  V30 4242 H 400.425 -3.0749 -1.99613 0
M  V30 4243 H 400.073 -2.45117 -4.39234 0
M  V30 4244 H 399.773 -4.18645 -4.12322 0
M  V30 4245 H 401.297 -3.6563 -4.89027 0
M  V30 4246 H 402.711 -4.89414 -2.98575 0
M  V30 4247 H 401.108 -5.47751 -2.45129 0
M  V30 4248 H 402.178 -4.67489 -1.28772 0
M  V30 4249 N 403.521 0.559213 -1.47345 0
M  V30 4250 C 404.749 1.34194 -1.57479 0
M  V30 4251 C 405.164 1.87463 -0.224261 0
M  V30 4252 O 404.521 1.64888 0.782185 0
M  V30 4253 C 404.572 2.51324 -2.59843 0
M  V30 4254 O 404.293 2.00256 -3.89653 0
M  V30 4255 C 405.794 3.43563 -2.80142 0
M  V30 4256 H 403.014 0.409136 -0.531835 0
M  V30 4257 H 405.558 0.677609 -1.92947 0
M  V30 4258 H 403.713 3.13699 -2.27314 0
M  V30 4259 H 404.127 2.76708 -4.4557 0
M  V30 4260 H 405.601 4.2217 -3.55635 0
M  V30 4261 H 406.078 3.9698 -1.87892 0
M  V30 4262 H 406.684 2.87005 -3.1386 0
M  V30 4263 N 404.999 1.35443 0.805782 0
M  V30 4264 C 405.946 1.28431 1.91766 0
M  V30 4265 C 406.916 0.156102 1.65365 0
M  V30 4266 O 408.101 0.339936 1.87747 0
M  V30 4267 C 405.241 1.06301 3.2832 0
M  V30 4268 C 404.354 2.2805 3.66902 0
M  V30 4269 C 403.489 1.99064 4.92491 0
M  V30 4270 C 402.528 3.16863 5.23703 0
M  V30 4271 N 401.665 2.87647 6.40471 0
M  V30 4272 H 406.505 2.23511 1.97096 0
M  V30 4273 H 404.042 1.11105 0.964054 0
M  V30 4274 H 406 0.915012 4.07042 0
M  V30 4275 H 404.63 0.148822 3.22457 0
M  V30 4276 H 403.682 2.53711 2.83434 0
M  V30 4277 H 404.994 3.1601 3.85927 0
M  V30 4278 H 404.148 1.81099 5.7904 0
M  V30 4279 H 402.887 1.0839 4.75503 0
M  V30 4280 H 401.892 3.35404 4.35642 0
M  V30 4281 H 403.117 4.08339 5.4262 0
M  V30 4282 H 401.063 1.99568 6.24907 0
M  V30 4283 H 400.98 3.69141 6.59751 0
M  V30 4284 H 402.248 2.73226 7.30047 0
M  V30 4285 N 406.477 -1.02803 1.19454 0
M  V30 4286 C 407.702 -1.80378 1.02364 0
M  V30 4287 C 408.127 -1.83282 -0.423007 0
M  V30 4288 O 407.485 -1.25945 -1.30413 0
M  V30 4289 C 407.533 -3.23248 1.59821 0
M  V30 4290 O 406.637 -4.04 0.828105 0
M  V30 4291 H 405.978 -0.556799 0.361761 0
M  V30 4292 H 408.508 -1.29385 1.58495 0
M  V30 4293 H 408.518 -3.73994 1.63073 0
M  V30 4294 H 407.193 -3.2045 2.65113 0
M  V30 4295 H 405.77 -3.62635 0.86891 0
M  V30 4296 N 407.956 -0.998596 -1.21925 0
M  V30 4297 C 409.184 -0.696286 -1.94832 0
M  V30 4298 C 409.599 0.740032 -1.73692 0
M  V30 4299 O 408.956 1.5 -1.03953 0
M  V30 4300 C 409.007 -0.999833 -3.47398 0
M  V30 4301 O 408.728 -2.37972 -3.67833 0
M  V30 4302 C 410.229 -0.716025 -4.37479 0
M  V30 4303 H 407.449 -0.257111 -0.619786 0
M  V30 4304 H 409.993 -1.33491 -1.54921 0
M  V30 4305 H 408.148 -0.406918 -3.85257 0
M  V30 4306 H 408.562 -2.48338 -4.61983 0
M  V30 4307 H 410.036 -0.978642 -5.43256 0
M  V30 4308 H 410.513 0.349968 -4.37803 0
M  V30 4309 H 411.119 -1.29025 -4.05256 0
M  V30 4310 N 409.434 1.37368 -0.772513 0
M  V30 4311 C 410.845 1.8231 -0.402493 0
M  V30 4312 C 411.196 1.6436 1.07146 0
M  V30 4313 O 410.321 1.15514 1.82991 0
M  V30 4314 C 410.916 3.30979 -0.723776 0
M  V30 4315 C 409.475 3.74195 -0.406802 0
M  V30 4316 C 408.622 2.59885 -0.967218 0
M  V30 4317 H 411.573 1.25829 -0.967099 0
M  V30 4318 H 411.594 3.80499 -0.00870832 0
M  V30 4319 H 411.106 3.44011 -1.7966 0
M  V30 4320 H 409.207 3.66732 0.658673 0
M  V30 4321 H 409.32 4.7027 -0.915588 0
M  V30 4322 H 407.684 2.51674 -0.391416 0
M  V30 4323 H 408.467 2.7571 -2.04546 0
M  V30 4324 N 410.912 0.523116 1.48665 0
M  V30 4325 C 412.14 -0.0096312 2.06898 0
M  V30 4326 C 412.555 -1.28784 1.38059 0
M  V30 4327 O 411.912 -1.76453 0.465893 0
M  V30 4328 C 411.963 -0.244386 3.60673 0
M  V30 4329 O 411.684 0.983172 4.26925 0
M  V30 4330 C 413.185 -0.818289 4.35682 0
M  V30 4331 H 410.405 0.0304161 0.67031 0
M  V30 4332 H 412.949 0.726799 1.91149 0
M  V30 4333 H 411.104 -0.930847 3.76051 0
M  V30 4334 H 411.518 0.759653 5.1897 0
M  V30 4335 H 412.992 -0.93201 5.44075 0
M  V30 4336 H 413.469 -1.82153 3.99646 0
M  V30 4337 H 414.075 -0.168609 4.24966 0
M  V30 4338 N 412.39 -1.55475 0.257931 0
M  V30 4339 C 413.615 -2.04064 -0.370488 0
M  V30 4340 C 414.04 -1.13565 -1.49948 0
M  V30 4341 O 413.398 -0.130781 -1.80828 0
M  V30 4342 C 413.446 -3.50554 -0.845237 0
M  V30 4343 O 412.55 -3.63173 -1.95394 0
M  V30 4344 H 411.891 -0.659257 -0.0792243 0
M  V30 4345 H 414.421 -2.00903 0.387212 0
M  V30 4346 H 414.431 -3.91588 -1.14555 0
M  V30 4347 H 413.106 -4.15896 -0.0191259 0
M  V30 4348 H 411.683 -3.34039 -1.65748 0
M  V30 4349 N 413.868 0.0150385 -1.57593 0
M  V30 4350 C 415.096 0.714395 -1.94175 0
M  V30 4351 C 415.511 1.68135 -0.858841 0
M  V30 4352 O 414.868 1.81766 0.163567 0
M  V30 4353 C 414.919 1.45933 -3.30735 0
M  V30 4354 O 414.64 0.531167 -4.34868 0
M  V30 4355 C 416.141 2.25456 -3.81686 0
M  V30 4356 H 413.361 0.199923 -0.640525 0
M  V30 4357 H 415.905 -0.0316096 -2.04476 0
M  V30 4358 H 414.06 2.15709 -3.21789 0
M  V30 4359 H 414.474 1.05509 -5.13778 0
M  V30 4360 H 415.948 2.731 -4.79709 0
M  V30 4361 H 416.425 3.07485 -3.13607 0
M  V30 4362 H 417.031 1.60727 -3.9376 0
M  V30 4363 N 415.346 1.54954 0.287554 0
M  V30 4364 C 416.279 1.81737 1.3801 0
M  V30 4365 C 417.257 0.669412 1.48181 0
M  V30 4366 O 418.441 0.910839 1.65033 0
M  V30 4367 C 415.568 1.96606 2.75796 0
M  V30 4368 C 414.614 3.19098 2.82982 0
M  V30 4369 S 415.447 4.7683 2.43707 0
M  V30 4370 C 416.603 4.94653 3.83496 0
M  V30 4371 H 416.836 2.74122 1.15085 0
M  V30 4372 H 414.369 1.46538 0.486403 0
M  V30 4373 H 416.327 2.05858 3.55152 0
M  V30 4374 H 414.988 1.05136 2.95982 0
M  V30 4375 H 414.181 3.26344 3.84077 0
M  V30 4376 H 413.783 3.08361 2.11635 0
M  V30 4377 H 416.075 4.79502 4.78628 0
M  V30 4378 H 417.018 5.96728 3.8121 0
M  V30 4379 H 417.426 4.2272 3.74123 0
M  V30 4380 N 416.824 -0.551391 1.4764 0
M  V30 4381 C 417.734 -1.68525 1.63207 0
M  V30 4382 C 418.75 -1.6621 0.514815 0
M  V30 4383 O 419.926 -1.85551 0.783113 0
M  V30 4384 C 416.991 -3.05025 1.64805 0
M  V30 4385 C 416.052 -3.18362 2.88 0
M  V30 4386 C 415.285 -4.4835 2.89513 0
M  V30 4387 O 415.508 -5.34163 2.00065 0
M  V30 4388 O 414.442 -4.65602 3.81443 0
M  V30 4389 H 418.268 -1.58333 2.59161 0
M  V30 4390 H 415.853 -0.722063 1.30792 0
M  V30 4391 H 417.735 -3.86245 1.68502 0
M  V30 4392 H 416.41 -3.15587 0.720197 0
M  V30 4393 H 415.317 -2.36518 2.89845 0
M  V30 4394 H 416.65 -3.12707 3.80099 0
M  V30 4395 N 418.302 -1.35869 -0.798587 0
M  V30 4396 C 419.527 -1.32883 -1.59238 0
M  V30 4397 C 419.952 0.0894587 -1.87887 0
M  V30 4398 O 419.31 1.05869 -1.47178 0
M  V30 4399 C 419.358 -2.14892 -2.89575 0
M  V30 4400 O 418.462 -1.53512 -3.82763 0
M  V30 4401 H 417.803 -0.455236 -0.48338 0
M  V30 4402 H 420.333 -1.79024 -0.990539 0
M  V30 4403 H 420.343 -2.27139 -3.38928 0
M  V30 4404 H 419.018 -3.17998 -2.68049 0
M  V30 4405 H 417.595 -1.50153 -3.41334 0
M  V30 4406 N 419.78 1.02168 -1.19998 0
M  V30 4407 C 421.005 1.79833 -1.03319 0
M  V30 4408 C 421.43 1.83504 0.413281 0
M  V30 4409 O 420.788 1.26635 1.29743 0
M  V30 4410 C 420.836 3.22396 -1.61533 0
M  V30 4411 O 419.94 4.03555 -0.849519 0
M  V30 4412 H 419.281 0.554872 -0.364709 0
M  V30 4413 H 421.811 1.28542 -1.59179 0
M  V30 4414 H 421.821 3.73124 -1.65054 0
M  V30 4415 H 420.496 3.19039 -2.66809 0
M  V30 4416 H 419.073 3.62169 -0.888129 0
M  V30 4417 N 421.258 1.00505 1.21394 0
M  V30 4418 C 422.188 0.585684 2.26035 0
M  V30 4419 C 423.169 -0.393525 1.65485 0
M  V30 4420 O 424.354 -0.281497 1.92149 0
M  V30 4421 C 421.484 -0.0884283 3.47187 0
M  V30 4422 C 420.438 0.810567 4.20254 0
M  V30 4423 C 419.764 0.00286382 5.347 0
M  V30 4424 C 421.064 2.1132 4.77641 0
M  V30 4425 H 422.758 1.46039 2.61368 0
M  V30 4426 H 420.304 0.703648 1.25638 0
M  V30 4427 H 422.257 -0.393286 4.19561 0
M  V30 4428 H 420.981 -0.997766 3.10986 0
M  V30 4429 H 419.64 1.09925 3.49731 0
M  V30 4430 H 419.288 -0.907765 4.94741 0
M  V30 4431 H 418.988 0.601444 5.84514 0
M  V30 4432 H 420.512 -0.295808 6.09883 0
M  V30 4433 H 421.926 1.87148 5.41893 0
M  V30 4434 H 420.323 2.66164 5.37845 0
M  V30 4435 H 421.393 2.78393 3.9702 0
M  V30 4436 N 422.737 -1.36956 0.779787 0
M  V30 4437 C 423.647 -2.33965 0.172491 0
M  V30 4438 C 424.663 -1.60574 -0.670222 0
M  V30 4439 O 425.839 -1.92617 -0.588263 0
M  V30 4440 C 422.904 -3.39761 -0.690173 0
M  V30 4441 C 421.965 -4.28964 0.169924 0
M  V30 4442 C 421.198 -5.29707 -0.651662 0
M  V30 4443 O 421.421 -5.38238 -1.88827 0
M  V30 4444 O 420.355 -6.01873 -0.0566264 0
M  V30 4445 H 424.181 -2.87647 0.974321 0
M  V30 4446 H 421.766 -1.39258 0.541078 0
M  V30 4447 H 423.648 -4.04471 -1.1824 0
M  V30 4448 H 422.323 -2.88394 -1.47006 0
M  V30 4449 H 421.23 -3.67326 0.708696 0
M  V30 4450 H 422.563 -4.83656 0.913085 0
M  V30 4451 N 424.215 -0.530993 -1.48385 0
M  V30 4452 C 425.462 0.0027373 -2.025 0
M  V30 4453 C 425.79 1.34186 -1.40799 0
M  V30 4454 O 425.045 1.88 -0.543544 0
M  V30 4455 C 425.344 0.172742 -3.56982 0
M  V30 4456 C 425.01 -1.09215 -4.37473 0
M  V30 4457 C 423.672 -1.43881 -4.59186 0
M  V30 4458 C 426.024 -1.93153 -4.84088 0
M  V30 4459 C 423.352 -2.62381 -5.2476 0
M  V30 4460 C 425.704 -3.10833 -5.50968 0
M  V30 4461 C 424.368 -3.45843 -5.70919 0
M  V30 4462 H 423.638 0.00100165 -0.740999 0
M  V30 4463 H 426.285 -0.697219 -1.78357 0
M  V30 4464 H 424.59 0.955473 -3.79971 0
M  V30 4465 H 426.287 0.600642 -3.96476 0
M  V30 4466 H 422.877 -0.812177 -4.20834 0
M  V30 4467 H 427.061 -1.67683 -4.67115 0
M  V30 4468 H 422.317 -2.89707 -5.38405 0
M  V30 4469 H 426.491 -3.7618 -5.86056 0
M  V30 4470 H 424.118 -4.37764 -6.21503 0
M  V30 4471 N 425.693 1.55336 -0.266172 0
M  V30 4472 C 426.921 2.03801 0.356756 0
M  V30 4473 C 427.336 1.14485 1.50129 0
M  V30 4474 O 426.693 0.163121 1.8177 0
M  V30 4475 C 426.744 3.51455 0.846281 0
M  V30 4476 O 426.465 4.37371 -0.252663 0
M  V30 4477 C 427.966 4.15767 1.53794 0
M  V30 4478 H 425.186 0.665906 0.0825218 0
M  V30 4479 H 427.73 2.00636 -0.39566 0
M  V30 4480 H 425.885 3.55092 1.54881 0
M  V30 4481 H 426.299 5.24358 0.122173 0
M  V30 4482 H 427.773 5.20714 1.83198 0
M  V30 4483 H 428.25 3.63404 2.46646 0
M  V30 4484 H 428.856 4.16107 0.879488 0
M  V30 4485 N 427.171 -0.0066808 1.57599 0
M  V30 4486 C 428.103 -1.02827 2.04839 0
M  V30 4487 C 429.116 -1.31108 0.965113 0
M  V30 4488 O 430.305 -1.28202 1.24203 0
M  V30 4489 C 427.405 -2.36464 2.42771 0
M  V30 4490 C 426.578 -2.27219 3.73751 0
M  V30 4491 C 425.637 -3.43489 3.98625 0
M  V30 4492 O 424.663 -3.21976 4.69382 0
M  V30 4493 N 425.865 -4.66116 3.46 0
M  V30 4494 H 428.63 -0.625455 2.93101 0
M  V30 4495 H 426.191 -0.194198 1.60731 0
M  V30 4496 H 428.183 -3.13008 2.56531 0
M  V30 4497 H 426.753 -2.68512 1.60063 0
M  V30 4498 H 425.973 -1.35629 3.70133 0
M  V30 4499 H 427.261 -2.18208 4.59633 0
M  V30 4500 H 426.659 -4.86493 2.88688 0
M  V30 4501 H 425.216 -5.39949 3.65101 0
M  V30 4502 N 428.649 -1.55105 -0.279332 0
M  V30 4503 C 429.874 -1.7976 -1.03446 0
M  V30 4504 C 430.299 -0.565952 -1.79384 0
M  V30 4505 O 429.657 0.484259 -1.74713 0
M  V30 4506 C 429.705 -3.0179 -1.97371 0
M  V30 4507 O 428.809 -2.76432 -3.06038 0
M  V30 4508 H 428.15 -0.594334 -0.29608 0
M  V30 4509 H 430.68 -2.02235 -0.310165 0
M  V30 4510 H 430.69 -3.30351 -2.39441 0
M  V30 4511 H 429.365 -3.91085 -1.4151 0
M  V30 4512 H 427.942 -2.58949 -2.68328 0
M  V30 4513 N 430.127 0.543554 -1.4793 0
M  V30 4514 C 431.077 1.64527 -1.57844 0
M  V30 4515 C 432.061 1.54869 -0.436408 0
M  V30 4516 O 433.253 1.63119 -0.687101 0
M  V30 4517 C 430.382 3.03281 -1.6086 0
M  V30 4518 C 429.468 3.18093 -2.80495 0
M  V30 4519 N 429.859 3.02923 -4.05057 0
M  V30 4520 C 428.157 3.49121 -2.77543 0
M  V30 4521 C 428.858 3.20791 -4.85251 0
M  V30 4522 N 427.834 3.47749 -4.17818 0
M  V30 4523 H 431.636 1.51388 -2.5191 0
M  V30 4524 H 429.15 0.748671 -1.44113 0
M  V30 4525 H 431.147 3.82403 -1.66054 0
M  V30 4526 H 429.807 3.17521 -0.678996 0
M  V30 4527 H 430.818 2.79966 -4.35705 0
M  V30 4528 H 427.495 3.69804 -1.93781 0
M  V30 4529 H 428.885 3.13915 -5.9406 0
M  V30 4530 N 431.605 1.3629 0.791371 0
M  V30 4531 C 432.535 1.33137 1.91825 0
M  V30 4532 C 433.516 0.203168 1.68882 0
M  V30 4533 O 434.701 0.400509 1.90025 0
M  V30 4534 C 431.831 1.11793 3.28816 0
M  V30 4535 C 430.785 2.21417 3.66277 0
M  V30 4536 C 430.111 1.85218 5.01596 0
M  V30 4537 C 431.411 3.63489 3.75064 0
M  V30 4538 H 433.105 2.2743 1.9472 0
M  V30 4539 H 430.651 1.09479 0.935437 0
M  V30 4540 H 432.604 1.08222 4.07266 0
M  V30 4541 H 431.328 0.139501 3.26302 0
M  V30 4542 H 429.987 2.2411 2.90121 0
M  V30 4543 H 429.635 0.859544 4.95602 0
M  V30 4544 H 429.335 2.58611 5.27631 0
M  V30 4545 H 430.859 1.832 5.82469 0
M  V30 4546 H 432.273 3.63034 4.43711 0
M  V30 4547 H 430.67 4.35771 4.12582 0
M  V30 4548 H 431.74 3.98536 2.76219 0
M  V30 4549 N 433.083 -1.0153 1.20538 0
M  V30 4550 C 434.329 -1.75408 1.01783 0
M  V30 4551 C 434.662 -1.88943 -0.448814 0
M  V30 4552 O 433.937 -1.4162 -1.33319 0
M  V30 4553 C 434.22 -3.17255 1.70356 0
M  V30 4554 C 434.073 -3.11508 3.24473 0
M  V30 4555 C 435.392 -4.15955 1.43769 0
M  V30 4556 H 432.511 -0.636713 0.371167 0
M  V30 4557 H 435.153 -1.18436 1.4857 0
M  V30 4558 H 433.303 -3.65898 1.30578 0
M  V30 4559 H 434.975 -2.70658 3.73553 0
M  V30 4560 H 433.218 -2.4887 3.55311 0
M  V30 4561 H 433.889 -4.11784 3.67611 0
M  V30 4562 H 436.365 -3.75973 1.7828 0
M  V30 4563 H 435.241 -5.13368 1.94279 0
M  V30 4564 H 435.502 -4.40586 0.365564 0
M  V30 4565 N 434.561 -1.01147 -1.20859 0
M  V30 4566 C 435.801 -0.706331 -1.91808 0
M  V30 4567 C 436.165 0.749736 -1.76757 0
M  V30 4568 O 437.366 1.16716 -2.42138 0
M  V30 4569 C 435.637 -1.12371 -3.39275 0
M  V30 4570 S 437.196 -0.939764 -4.28619 0
M  V30 4571 H 434.014 -0.257665 -0.662669 0
M  V30 4572 H 436.616 -1.29766 -1.46223 0
M  V30 4573 H 435.32 -2.17943 -3.47749 0
M  V30 4574 H 434.851 -0.524952 -3.89882 0
M  V30 4575 H 436.866 0.159556 -4.95943 0
M  V30 4576 N 436.039 1.36541 -0.78704 0
M  V30 4577 C 436.969 2.32659 -0.197992 0
M  V30 4578 C 437.95 1.56533 0.665697 0
M  V30 4579 O 439.135 1.84698 0.60001 0
M  V30 4580 C 436.265 3.40778 0.669901 0
M  V30 4581 C 435.219 4.27897 -0.0937039 0
M  V30 4582 C 434.545 5.27163 0.894629 0
M  V30 4583 C 435.845 5.06334 -1.28154 0
M  V30 4584 H 437.539 2.82171 -1.00099 0
M  V30 4585 H 435.085 1.35665 -0.482793 0
M  V30 4586 H 437.038 4.07008 1.09191 0
M  V30 4587 H 435.762 2.89827 1.50558 0
M  V30 4588 H 434.421 3.6322 -0.49666 0
M  V30 4589 H 434.069 4.72486 1.72527 0
M  V30 4590 H 433.769 5.86317 0.388149 0
M  V30 4591 H 435.293 5.96266 1.31525 0
M  V30 4592 H 436.707 5.65617 -0.93541 0
M  V30 4593 H 435.104 5.74888 -1.72115 0
M  V30 4594 H 436.174 4.38114 -2.07807 0
M  V30 4595 N 437.518 0.538854 1.48102 0
M  V30 4596 C 438.758 0.0101209 2.04397 0
M  V30 4597 C 439.122 -1.30741 1.40609 0
M  V30 4598 O 440.323 -1.92272 1.87843 0
M  V30 4599 C 438.594 -0.100232 3.57259 0
M  V30 4600 S 440.153 -0.577746 4.3498 0
M  V30 4601 H 436.971 0.0163171 0.710813 0
M  V30 4602 H 439.573 0.721429 1.81702 0
M  V30 4603 H 438.277 0.863351 4.01216 0
M  V30 4604 H 437.808 -0.835651 3.84422 0
M  V30 4605 H 439.823 -1.84073 4.60794 0
M  V30 4606 N 438.996 -1.55193 0.274407 0
M  V30 4607 C 439.928 -2.1989 -0.646595 0
M  V30 4608 C 440.941 -1.1834 -1.11801 0
M  V30 4609 O 442.13 -1.4507 -1.04004 0
M  V30 4610 C 439.23 -2.8104 -1.89393 0
M  V30 4611 C 438.403 -4.08274 -1.56943 0
M  V30 4612 C 437.462 -4.53478 -2.66916 0
M  V30 4613 O 436.488 -5.19267 -2.33132 0
M  V30 4614 N 437.69 -4.2356 -3.9696 0
M  V30 4615 H 440.455 -2.99556 -0.0928686 0
M  V30 4616 H 438.016 -1.61618 0.0954783 0
M  V30 4617 H 440.008 -3.08226 -2.62257 0
M  V30 4618 H 438.578 -2.05372 -2.35672 0
M  V30 4619 H 437.798 -3.88384 -0.674655 0
M  V30 4620 H 439.086 -4.91173 -1.32764 0
M  V30 4621 H 438.484 -3.70799 -4.27229 0
M  V30 4622 H 437.041 -4.55518 -4.66205 0
M  V30 4623 N 440.474 -0.00167713 -1.576 0
M  V30 4624 C 441.89 0.354422 -1.55615 0
M  V30 4625 C 442.09 1.74679 -1.00447 0
M  V30 4626 O 441.146 2.4428 -0.639022 0
M  V30 4627 C 442.459 0.22812 -2.99833 0
M  V30 4628 C 444.007 0.302934 -3.11531 0
M  V30 4629 C 444.482 0.205737 -4.57538 0
M  V30 4630 N 445.973 0.263584 -4.62449 0
M  V30 4631 C 446.708 0.211742 -5.73009 0
M  V30 4632 N 446.204 0.110399 -6.92712 0
M  V30 4633 N 447.997 0.263729 -5.61481 0
M  V30 4634 H 440.148 -0.912498 -1.918 0
M  V30 4635 H 442.411 -0.349928 -0.881053 0
M  V30 4636 H 442.117 -0.729934 -3.44042 0
M  V30 4637 H 441.991 1.00951 -3.6344 0
M  V30 4638 H 444.378 1.25143 -2.67251 0
M  V30 4639 H 444.459 -0.508357 -2.50698 0
M  V30 4640 H 444.103 -0.739225 -5.02492 0
M  V30 4641 H 444.033 1.03554 -5.16318 0
M  V30 4642 H 446.524 0.343173 -3.76339 0
M  V30 4643 H 446.837 0.0767828 -7.72762 0
M  V30 4644 H 445.182 0.0760025 -6.94958 0
M  V30 4645 H 448.373 0.34111 -4.66855 0
M  V30 4646 H 448.546 0.219862 -6.47627 0
M  V30 4647 N 441.952 1.55251 0.271103 0
M  V30 4648 C 442.902 1.84649 1.33749 0
M  V30 4649 C 443.886 0.705529 1.44607 0
M  V30 4650 O 445.078 0.966916 1.48256 0
M  V30 4651 C 442.207 2.12354 2.69742 0
M  V30 4652 C 441.293 3.32714 2.62988 0
M  V30 4653 N 441.684 4.52575 2.25853 0
M  V30 4654 C 439.982 3.35341 2.94045 0
M  V30 4655 C 440.683 5.34669 2.29136 0
M  V30 4656 N 439.659 4.73123 2.67685 0
M  V30 4657 H 443.461 2.74865 1.0405 0
M  V30 4658 H 440.975 1.55152 0.479738 0
M  V30 4659 H 442.972 2.31572 3.4667 0
M  V30 4660 H 441.632 1.23422 3.00328 0
M  V30 4661 H 442.643 4.78639 1.978 0
M  V30 4662 H 439.32 2.56608 3.2933 0
M  V30 4663 H 440.71 6.40509 2.02971 0
M  V30 4664 N 443.43 -0.535701 1.48216 0
M  V30 4665 C 444.676 -1.29375 1.56173 0
M  V30 4666 C 445.009 -1.92804 0.232429 0
M  V30 4667 O 444.284 -1.78992 -0.761048 0
M  V30 4668 C 444.567 -2.38747 2.69577 0
M  V30 4669 C 444.42 -1.80046 4.12193 0
M  V30 4670 C 445.739 -3.40551 2.78771 0
M  V30 4671 H 442.858 -0.469027 0.568491 0
M  V30 4672 H 445.5 -0.597358 1.80365 0
M  V30 4673 H 443.65 -2.98147 2.4908 0
M  V30 4674 H 445.322 -1.24742 4.44114 0
M  V30 4675 H 443.565 -1.10609 4.19462 0
M  V30 4676 H 444.236 -2.59212 4.87353 0
M  V30 4677 H 446.712 -2.91099 2.97322 0
M  V30 4678 H 445.588 -4.1448 3.59857 0
M  V30 4679 H 445.849 -4.00746 1.86696 0
M  V30 4680 N 444.908 -1.36708 -0.784132 0
M  V30 4681 C 446.324 -1.17237 -1.08294 0
M  V30 4682 C 446.524 -5.93947e-05 -2.015 0
M  V30 4683 O 445.58 0.663686 -2.43622 0
M  V30 4684 C 446.893 -2.48557 -1.69233 0
M  V30 4685 C 448.441 -2.54968 -1.8155 0
M  V30 4686 C 448.916 -3.86388 -2.45904 0
M  V30 4687 N 450.407 -3.87762 -2.53367 0
M  V30 4688 C 451.142 -4.86191 -3.03983 0
M  V30 4689 N 450.638 -5.95015 -3.54866 0
M  V30 4690 N 452.431 -4.73606 -3.02743 0
M  V30 4691 H 444.582 -2.11758 -0.16501 0
M  V30 4692 H 446.845 -0.93822 -0.135822 0
M  V30 4693 H 446.551 -3.34638 -1.08215 0
M  V30 4694 H 446.425 -2.64748 -2.68679 0
M  V30 4695 H 448.812 -1.69302 -2.41704 0
M  V30 4696 H 448.893 -2.42672 -0.80895 0
M  V30 4697 H 448.537 -4.72462 -1.86392 0
M  V30 4698 H 448.467 -3.95982 -3.4714 0
M  V30 4699 H 450.958 -3.09145 -2.17343 0
M  V30 4700 H 451.271 -6.66086 -3.91854 0
M  V30 4701 H 449.616 -5.98676 -3.53003 0
M  V30 4702 H 452.807 -3.87717 -2.62284 0
M  V30 4703 H 452.98 -5.50473 -3.41881 0
M  V30 4704 N 446.386 1.0089 -1.21074 0
M  V30 4705 C 447.336 2.0799 -0.934034 0
M  V30 4706 C 448.32 1.60529 0.10919 0
M  V30 4707 O 449.512 1.76722 -0.0992198 0
M  V30 4708 C 446.641 3.39693 -0.496334 0
M  V30 4709 C 445.727 3.93833 -1.57341 0
M  V30 4710 N 446.118 4.21388 -2.7976 0
M  V30 4711 C 444.416 4.22067 -1.44137 0
M  V30 4712 C 445.117 4.65156 -3.49292 0
M  V30 4713 N 444.093 4.67895 -2.76722 0
M  V30 4714 H 447.895 2.27213 -1.86417 0
M  V30 4715 H 445.409 1.18927 -1.10589 0
M  V30 4716 H 447.406 4.15962 -0.279471 0
M  V30 4717 H 446.066 3.21879 0.427084 0
M  V30 4718 H 447.077 4.10061 -3.1634 0
M  V30 4719 H 443.754 4.1341 -0.582947 0
M  V30 4720 H 445.144 4.95231 -4.54088 0
M  V30 4721 N 447.864 1.01787 1.20321 0
M  V30 4722 C 448.794 0.609625 2.25401 0
M  V30 4723 C 449.775 -0.375951 1.65893 0
M  V30 4724 O 450.96 -0.261101 1.92437 0
M  V30 4725 C 448.09 -0.0515995 3.47262 0
M  V30 4726 C 447.044 0.855095 4.19371 0
M  V30 4727 C 446.37 0.0595757 5.34667 0
M  V30 4728 C 447.67 2.16374 4.75373 0
M  V30 4729 H 449.364 1.48803 2.59804 0
M  V30 4730 H 446.91 0.716934 1.24884 0
M  V30 4731 H 448.863 -0.348764 4.19954 0
M  V30 4732 H 447.587 -0.964726 3.12027 0
M  V30 4733 H 446.246 1.13628 3.48546 0
M  V30 4734 H 445.894 -0.85524 4.95676 0
M  V30 4735 H 445.594 0.663406 5.83843 0
M  V30 4736 H 447.118 -0.231105 6.10162 0
M  V30 4737 H 448.532 1.92885 5.39878 0
M  V30 4738 H 446.929 2.71853 5.34991 0
M  V30 4739 H 447.999 2.82589 3.94045 0
M  V30 4740 N 449.342 -1.36122 0.79427 0
M  V30 4741 C 450.274 -2.28683 0.153903 0
M  V30 4742 C 451.287 -1.49707 -0.639669 0
M  V30 4743 O 452.476 -1.7209 -0.474054 0
M  V30 4744 C 449.576 -3.29202 -0.804921 0
M  V30 4745 C 448.749 -4.37358 -0.060366 0
M  V30 4746 C 447.808 -5.17811 -0.935849 0
M  V30 4747 O 446.834 -5.67853 -0.391309 0
M  V30 4748 N 448.036 -5.34721 -2.25951 0
M  V30 4749 H 450.801 -2.84278 0.949008 0
M  V30 4750 H 448.362 -1.4834 0.648611 0
M  V30 4751 H 450.354 -3.79914 -1.39455 0
M  V30 4752 H 448.924 -2.74212 -1.50088 0
M  V30 4753 H 448.144 -3.87746 0.710382 0
M  V30 4754 H 449.432 -5.06777 0.45324 0
M  V30 4755 H 448.83 -4.95687 -2.72601 0
M  V30 4756 H 447.387 -5.88657 -2.79867 0
M  V30 4757 N 450.82 -0.546701 -1.47814 0
M  V30 4758 C 452.236 -0.205717 -1.58269 0
M  V30 4759 C 452.436 1.29153 -1.54667 0
M  V30 4760 O 451.492 2.07098 -1.44453 0
M  V30 4761 C 452.805 -0.823065 -2.89216 0
M  V30 4762 C 454.353 -0.793328 -3.02779 0
M  V30 4763 C 454.828 -1.38955 -4.36412 0
M  V30 4764 N 456.319 -1.35227 -4.43021 0
M  V30 4765 C 457.054 -1.78333 -5.44963 0
M  V30 4766 N 456.55 -2.29246 -6.53772 0
M  V30 4767 N 458.343 -1.69467 -5.35945 0
M  V30 4768 H 450.494 -1.5196 -1.48398 0
M  V30 4769 H 452.757 -0.633078 -0.705632 0
M  V30 4770 H 452.463 -1.8749 -2.97558 0
M  V30 4771 H 452.337 -0.309915 -3.75925 0
M  V30 4772 H 454.724 0.249784 -2.94041 0
M  V30 4773 H 454.805 -1.34412 -2.17639 0
M  V30 4774 H 454.449 -2.43168 -4.45906 0
M  V30 4775 H 454.379 -0.814291 -5.20266 0
M  V30 4776 H 456.87 -0.979739 -3.64979 0
M  V30 4777 H 457.183 -2.60089 -7.27718 0
M  V30 4778 H 455.528 -2.3325 -6.5469 0
M  V30 4779 H 458.719 -1.29477 -4.49837 0
M  V30 4780 H 458.892 -2.03381 -6.15256 0
M  V30 4781 N 452.299 1.55045 -0.282633 0
M  V30 4782 C 453.576 1.9179 0.384166 0
M  V30 4783 C 453.956 1.20778 1.73136 0
M  V30 4784 O 453.304 0.33719 2.25998 0
M  V30 4785 C 453.514 3.45149 0.517014 0
M  V30 4786 C 454.862 4.17064 0.796427 0
M  V30 4787 O 455.886 3.51084 0.601535 0
M  V30 4788 O 454.745 5.33837 1.16962 0
M  V30 4789 H 451.839 0.799483 0.211558 0
M  V30 4790 H 454.385 1.66474 -0.32934 0
M  V30 4791 H 453.157 3.88922 -0.430772 0
M  V30 4792 H 452.78 3.76443 1.2797 0
M  V30 4793 N 453.777 0.010035 1.57597 0
M  V30 4794 C 454.74 -0.963029 2.07986 0
M  V30 4795 C 455.74 -1.26619 0.991173 0
M  V30 4796 O 456.93 -1.2097 1.25347 0
M  V30 4797 C 454.062 -2.2851 2.52974 0
M  V30 4798 H 455.255 -0.526971 2.95234 0
M  V30 4799 H 452.808 -0.237639 1.54483 0
M  V30 4800 H 453.543 -2.76784 1.69 0
M  V30 4801 H 453.328 -2.07824 3.32493 0
M  V30 4802 H 454.818 -2.98294 2.9225 0
M  V30 4803 N 455.255 -1.55392 -0.262866 0
M  V30 4804 C 456.185 -1.91978 -1.32917 0
M  V30 4805 C 457.166 -0.7828 -1.51017 0
M  V30 4806 O 458.351 -1.04178 -1.63892 0
M  V30 4807 C 455.481 -2.20055 -2.68687 0
M  V30 4808 C 454.435 -3.35854 -2.65304 0
M  V30 4809 C 453.761 -3.49435 -4.04721 0
M  V30 4810 C 455.061 -4.71977 -2.23685 0
M  V30 4811 H 456.755 -2.81292 -1.02544 0
M  V30 4812 H 454.301 -1.3534 -0.491846 0
M  V30 4813 H 456.254 -2.44237 -3.43404 0
M  V30 4814 H 454.978 -1.27551 -3.00663 0
M  V30 4815 H 453.637 -3.11655 -1.93045 0
M  V30 4816 H 453.285 -2.54379 -4.33936 0
M  V30 4817 H 452.985 -4.27297 -4.0335 0
M  V30 4818 H 454.509 -3.7592 -4.81161 0
M  V30 4819 H 455.923 -4.95637 -2.88127 0
M  V30 4820 H 454.32 -5.52828 -2.33456 0
M  V30 4821 H 455.39 -4.70115 -1.18827 0
M  V30 4822 N 456.733 0.527833 -1.48498 0
M  V30 4823 C 457.958 1.313 -1.60546 0
M  V30 4824 C 458.383 1.86199 -0.26672 0
M  V30 4825 O 457.741 1.64513 0.761918 0
M  V30 4826 C 457.789 2.43818 -2.65678 0
M  V30 4827 O 456.893 3.46916 -2.22987 0
M  V30 4828 H 456.234 0.388784 -0.538277 0
M  V30 4829 H 458.764 0.634896 -1.945 0
M  V30 4830 H 458.774 2.89973 -2.87018 0
M  V30 4831 H 457.449 2.03222 -3.62869 0
M  V30 4832 H 456.026 3.06864 -2.11869 0
M  V30 4833 N 458.211 1.37122 0.776871 0
M  V30 4834 C 459.143 1.28342 1.89897 0
M  V30 4835 C 460.156 0.200277 1.61563 0
M  V30 4836 O 461.345 0.456012 1.72577 0
M  V30 4837 C 458.445 0.960427 3.25006 0
M  V30 4838 C 457.618 2.148 3.81025 0
M  V30 4839 C 456.677 1.79608 4.94598 0
M  V30 4840 O 455.703 2.51845 5.10454 0
M  V30 4841 N 456.905 0.737171 5.758 0
M  V30 4842 H 459.67 2.25027 1.97947 0
M  V30 4843 H 457.231 1.3068 0.955739 0
M  V30 4844 H 459.223 0.705942 3.98495 0
M  V30 4845 H 457.793 0.0823066 3.12492 0
M  V30 4846 H 457.013 2.56454 2.99374 0
M  V30 4847 H 458.301 2.9411 4.15183 0
M  V30 4848 H 457.699 0.137637 5.65533 0
M  V30 4849 H 456.256 0.542534 6.49538 0
M  V30 4850 N 459.689 -1.00246 1.21608 0
M  V30 4851 C 460.619 -2.10921 1.00172 0
M  V30 4852 C 461.6 -1.69938 -0.0741587 0
M  V30 4853 O 462.785 -1.94009 0.0861753 0
M  V30 4854 C 459.915 -3.42618 0.568355 0
M  V30 4855 C 458.869 -3.97407 1.58909 0
M  V30 4856 C 458.195 -5.25038 1.01187 0
M  V30 4857 C 459.495 -4.2918 2.97661 0
M  V30 4858 H 461.189 -2.29112 1.92739 0
M  V30 4859 H 458.735 -1.10101 0.928102 0
M  V30 4860 H 460.688 -4.19444 0.405555 0
M  V30 4861 H 459.412 -3.24227 -0.392961 0
M  V30 4862 H 458.071 -3.22703 1.73949 0
M  V30 4863 H 457.719 -5.02982 0.0421965 0
M  V30 4864 H 457.419 -5.62661 1.6937 0
M  V30 4865 H 458.943 -6.04507 0.860448 0
M  V30 4866 H 460.357 -4.96839 2.86049 0
M  V30 4867 H 458.754 -4.77952 3.6288 0
M  V30 4868 H 459.824 -3.3735 3.48315 0
M  V30 4869 N 461.167 -1.02423 -1.1978 0
M  V30 4870 C 462.1 -0.545641 -2.21581 0
M  V30 4871 C 463.078 0.411024 -1.57319 0
M  V30 4872 O 464.262 0.329223 -1.85603 0
M  V30 4873 C 461.389 0.204973 -3.38079 0
M  V30 4874 C 460.435 -0.70241 -4.20676 0
M  V30 4875 S 461.268 -2.17595 -4.89298 0
M  V30 4876 C 462.424 -1.43572 -6.09211 0
M  V30 4877 H 462.657 -1.4082 -2.61834 0
M  V30 4878 H 460.19 -0.833771 -1.29952 0
M  V30 4879 H 462.148 0.631924 -4.05607 0
M  V30 4880 H 460.809 1.0432 -2.9627 0
M  V30 4881 H 460.002 -0.123193 -5.03849 0
M  V30 4882 H 459.604 -1.06747 -3.58442 0
M  V30 4883 H 461.896 -0.719806 -6.73665 0
M  V30 4884 H 462.839 -2.24388 -6.71607 0
M  V30 4885 H 463.247 -0.935252 -5.56699 0
M  V30 4886 N 462.645 1.35699 -0.801477 0
M  V30 4887 C 463.593 2.3177 -0.196317 0
M  V30 4888 C 464.587 1.56388 0.651081 0
M  V30 4889 O 465.793 1.71557 0.544815 0
M  V30 4890 H 462.168 0.750669 -0.0447189 0
M  V30 4891 H 464.139 2.8036 -1.02181 0
M  V30 4892 C 462.888 3.41671 0.644702 0
M  V30 4893 H 462.211 3.998 0.0019921 0
M  V30 4894 H 463.651 4.11184 1.0346 0
M  V30 4895 C 462.11 2.84271 1.80808 0
M  V30 4896 O 462.64 2.77408 2.9053 0
M  V30 4897 N 460.846 2.41391 1.61799 0
M  V30 4898 H 460.393 2.47173 0.725493 0
M  V30 4899 H 460.351 2.03334 2.39797 0
M  V30 4900 N 464.123 0.554532 1.47522 0
M  V30 4901 C 465.371 0.0294208 2.02079 0
M  V30 4902 C 465.692 -1.32411 1.43151 0
M  V30 4903 O 464.962 -1.863 0.605728 0
M  V30 4904 H 463.542 0.00788672 0.746958 0
M  V30 4905 H 466.204 0.723934 1.80956 0
M  V30 4906 H 465.3 -0.0606745 3.12041 0
M  V30 4907 N 465.601 -1.54893 0.290851 0
M  V30 4908 C 467.012 -1.85584 -0.203816 0
M  V30 4909 C 467.363 -1.21285 -1.54222 0
M  V30 4910 O 466.488 -0.506841 -2.10381 0
M  V30 4911 C 467.083 -3.367 -0.376595 0
M  V30 4912 C 465.642 -3.6746 -0.815485 0
M  V30 4913 C 464.789 -2.77178 0.0821087 0
M  V30 4914 H 467.74 -1.50208 0.512175 0
M  V30 4915 H 467.761 -3.60656 -1.21275 0
M  V30 4916 H 467.273 -3.8347 0.59767 0
M  V30 4917 H 465.374 -3.26201 -1.80066 0
M  V30 4918 H 465.487 -4.7478 -0.641905 0
M  V30 4919 H 463.851 -2.50925 -0.436895 0
M  V30 4920 H 464.634 -3.26767 1.05254 0
M  V30 4921 N 467.08 -0.0183926 -1.57589 0
M  V30 4922 C 468.329 0.66185 -1.90532 0
M  V30 4923 C 468.642 1.73904 -0.895366 0
M  V30 4924 O 469.848 2.47518 -1.11566 0
M  V30 4925 C 468.304 1.22844 -3.38286 0
M  V30 4926 C 467.912 0.185103 -4.47617 0
M  V30 4927 C 469.656 1.88581 -3.80312 0
M  V30 4928 C 467.563 0.762723 -5.86461 0
M  V30 4929 H 466.493 0.250972 -0.711006 0
M  V30 4930 H 469.144 -0.0819435 -1.83317 0
M  V30 4931 H 467.526 2.0235 -3.40398 0
M  V30 4932 H 468.7 -0.58671 -4.5705 0
M  V30 4933 H 467.015 -0.372889 -4.14727 0
M  V30 4934 H 469.612 2.32735 -4.81392 0
M  V30 4935 H 469.955 2.72408 -3.14801 0
M  V30 4936 H 470.488 1.15782 -3.80578 0
M  V30 4937 H 467.227 -0.0371713 -6.55489 0
M  V30 4938 H 466.747 1.50327 -5.80656 0
M  V30 4939 H 468.426 1.25576 -6.34697 0
M  V30 4940 N 468.558 1.5553 0.254621 0
M  V30 4941 C 469.974 1.4778 0.602753 0
M  V30 4942 C 470.174 0.707047 1.88688 0
M  V30 4943 O 469.23 0.233288 2.5142 0
M  V30 4944 C 470.543 2.92133 0.712648 0
M  V30 4945 C 472.091 3.02458 0.805488 0
M  V30 4946 C 472.566 4.48102 0.947009 0
M  V30 4947 N 474.057 4.52008 1.01207 0
M  V30 4948 C 474.792 5.61939 1.1407 0
M  V30 4949 N 474.288 6.81697 1.23536 0
M  V30 4950 N 476.081 5.49719 1.17325 0
M  V30 4951 H 468.232 2.04085 -0.588463 0
M  V30 4952 H 470.495 0.926229 -0.202001 0
M  V30 4953 H 470.201 3.51332 -0.160766 0
M  V30 4954 H 470.075 3.42187 1.58707 0
M  V30 4955 H 472.462 2.43344 1.66936 0
M  V30 4956 H 472.543 2.55627 -0.0939266 0
M  V30 4957 H 472.187 5.07824 0.087725 0
M  V30 4958 H 472.117 4.92607 1.86135 0
M  V30 4959 H 474.608 3.65749 0.950577 0
M  V30 4960 H 474.921 7.61228 1.33236 0
M  V30 4961 H 473.266 6.84473 1.20508 0
M  V30 4962 H 476.457 4.55095 1.09573 0
M  V30 4963 H 476.63 6.35432 1.27005 0
M  V30 4964 N 470.036 -0.519951 1.48776 0
M  V30 4965 C 470.983 -1.62352 1.64044 0
M  V30 4966 C 471.953 -1.58945 0.482251 0
M  V30 4967 O 473.138 -1.77219 0.706971 0
M  V30 4968 C 470.278 -3.00579 1.69547 0
M  V30 4969 C 469.391 -3.14145 2.96541 0
M  V30 4970 C 468.526 -4.42991 2.93142 0
M  V30 4971 C 467.565 -4.50122 4.14797 0
M  V30 4972 N 466.702 -5.7037 4.09418 0
M  V30 4973 H 471.542 -1.48643 2.58281 0
M  V30 4974 H 469.079 -0.723516 1.28077 0
M  V30 4975 H 471.037 -3.80671 1.70719 0
M  V30 4976 H 469.667 -3.13036 0.787918 0
M  V30 4977 H 468.719 -2.27239 3.05068 0
M  V30 4978 H 470.031 -3.15275 3.86527 0
M  V30 4979 H 469.185 -5.31385 2.92772 0
M  V30 4980 H 467.924 -4.44398 2.00902 0
M  V30 4981 H 466.929 -3.60133 4.15433 0
M  V30 4982 H 468.154 -4.50445 5.08208 0
M  V30 4983 H 466.1 -5.72655 3.20004 0
M  V30 4984 H 466.017 -5.73036 4.93119 0
M  V30 4985 H 467.285 -6.61023 4.13121 0
M  V30 4986 N 471.514 -1.37532 -0.769588 0
M  V30 4987 C 472.461 -1.3347 -1.88293 0
M  V30 4988 C 473.431 -0.199891 -1.64893 0
M  V30 4989 O 474.616 -0.389594 -1.8678 0
M  V30 4990 C 471.756 -1.14968 -3.25387 0
M  V30 4991 C 470.869 -2.37698 -3.60727 0
M  V30 4992 C 470.004 -2.12051 -4.8704 0
M  V30 4993 C 469.043 -3.30636 -5.15117 0
M  V30 4994 N 468.18 -3.04527 -6.3262 0
M  V30 4995 H 473.02 -2.28658 -1.911 0
M  V30 4996 H 470.557 -1.13622 -0.934257 0
M  V30 4997 H 472.515 -1.02261 -4.04473 0
M  V30 4998 H 471.145 -0.234263 -3.21949 0
M  V30 4999 H 470.197 -2.61137 -2.76608 0
M  V30 5000 H 471.509 -3.26131 -3.77413 0
M  V30 5001 H 470.663 -1.96388 -5.74035 0
M  V30 5002 H 469.402 -1.20959 -4.72462 0
M  V30 5003 H 468.407 -3.46836 -4.26597 0
M  V30 5004 H 469.632 -4.22582 -5.31603 0
M  V30 5005 H 467.578 -2.16067 -6.19396 0
M  V30 5006 H 467.495 -3.86503 -6.49732 0
M  V30 5007 H 468.763 -2.92485 -7.22546 0
M  V30 5008 N 472.992 0.995999 -1.22138 0
M  V30 5009 C 473.922 2.10387 -1.01289 0
M  V30 5010 C 474.903 1.69975 0.0651454 0
M  V30 5011 O 476.088 1.9396 -0.0964628 0
M  V30 5012 C 473.218 3.42312 -0.586517 0
M  V30 5013 C 472.172 3.96558 -1.61014 0
M  V30 5014 C 471.498 5.24494 -1.0397 0
M  V30 5015 C 472.798 4.27595 -2.99933 0
M  V30 5016 H 474.492 2.28086 -1.93951 0
M  V30 5017 H 472.038 1.09607 -0.933928 0
M  V30 5018 H 473.991 4.19223 -0.427793 0
M  V30 5019 H 472.715 3.24431 0.375761 0
M  V30 5020 H 471.374 3.21776 -1.75658 0
M  V30 5021 H 471.022 5.02953 -0.0688703 0
M  V30 5022 H 470.722 5.61755 -1.72352 0
M  V30 5023 H 472.246 6.04042 -0.892494 0
M  V30 5024 H 473.66 4.95315 -2.8868 0
M  V30 5025 H 472.057 4.76021 -3.6541 0
M  V30 5026 H 473.127 3.35498 -3.50099 0
M  V30 5027 N 474.47 1.03057 1.19235 0
M  V30 5028 C 475.417 0.612832 2.22515 0
M  V30 5029 C 476.387 -0.374224 1.61829 0
M  V30 5030 O 477.572 -0.270501 1.88873 0
M  V30 5031 C 474.712 -0.028475 3.45088 0
M  V30 5032 C 473.825 1.00483 4.20151 0
M  V30 5033 C 472.96 0.333102 5.30155 0
M  V30 5034 C 471.999 1.3522 5.96977 0
M  V30 5035 N 471.136 0.70616 6.9854 0
M  V30 5036 H 475.976 1.49812 2.57605 0
M  V30 5037 H 473.513 0.749658 1.26564 0
M  V30 5038 H 475.471 -0.417548 4.15105 0
M  V30 5039 H 474.101 -0.877334 3.10649 0
M  V30 5040 H 473.153 1.51194 3.49062 0
M  V30 5041 H 474.465 1.77929 4.65986 0
M  V30 5042 H 473.619 -0.110725 6.06599 0
M  V30 5043 H 472.358 -0.473547 4.85396 0
M  V30 5044 H 471.363 1.80627 5.19282 0
M  V30 5045 H 472.588 2.16037 6.4382 0
M  V30 5046 H 470.534 -0.0803667 6.55951 0
M  V30 5047 H 470.451 1.41848 7.42573 0
M  V30 5048 H 471.719 0.286391 7.78974 0
M  V30 5049 N 475.948 -1.35272 0.808662 0
M  V30 5050 C 477.197 -1.97963 0.386483 0
M  V30 5051 C 477.51 -1.64866 -1.05255 0
M  V30 5052 O 478.716 -2.20937 -1.57794 0
M  V30 5053 C 477.172 -3.54162 0.640096 0
M  V30 5054 C 476.78 -3.96166 2.0918 0
M  V30 5055 C 478.524 -4.23553 0.283376 0
M  V30 5056 C 476.431 -5.4522 2.29106 0
M  V30 5057 H 475.361 -0.740742 0.140774 0
M  V30 5058 H 478.012 -1.5431 0.993012 0
M  V30 5059 H 476.394 -3.95983 -0.0364117 0
M  V30 5060 H 477.568 -3.65491 2.80629 0
M  V30 5061 H 475.883 -3.3967 2.40859 0
M  V30 5062 H 478.48 -5.33124 0.410273 0
M  V30 5063 H 478.823 -4.09105 -0.770659 0
M  V30 5064 H 479.356 -3.8716 0.913884 0
M  V30 5065 H 476.095 -5.64638 3.32962 0
M  V30 5066 H 475.615 -5.77457 1.62184 0
M  V30 5067 H 477.294 -6.1171 2.1076 0
M  V30 5068 N 477.426 -0.562348 -1.47226 0
M  V30 5069 C 478.675 -0.038041 -2.01664 0
M  V30 5070 C 478.988 1.32199 -1.44162 0
M  V30 5071 O 480.194 1.9365 -1.90294 0
M  V30 5072 C 478.65 -0.0174958 -3.59896 0
M  V30 5073 C 478.258 -1.3746 -4.2639 0
M  V30 5074 C 480.002 0.453934 -4.22066 0
M  V30 5075 C 477.909 -1.31289 -5.76643 0
M  V30 5076 H 476.839 -0.0104511 -0.753928 0
M  V30 5077 H 479.49 -0.710966 -1.69167 0
M  V30 5078 H 477.872 0.721182 -3.89378 0
M  V30 5079 H 479.046 -2.1314 -4.08544 0
M  V30 5080 H 477.361 -1.78438 -3.7623 0
M  V30 5081 H 479.958 0.518584 -5.32179 0
M  V30 5082 H 480.301 1.46706 -3.89594 0
M  V30 5083 H 480.834 -0.230044 -3.97134 0
M  V30 5084 H 477.573 -2.30217 -6.13743 0
M  V30 5085 H 477.093 -0.597973 -5.96812 0
M  V30 5086 H 478.772 -1.01713 -6.38955 0
M  V30 5087 N 478.904 1.54736 -0.299062 0
M  V30 5088 C 480.315 1.8569 0.193971 0
M  V30 5089 C 480.666 1.22101 1.53577 0
M  V30 5090 O 479.791 0.51799 2.10109 0
M  V30 5091 C 480.386 3.36895 0.358733 0
M  V30 5092 C 478.945 3.67887 0.795986 0
M  V30 5093 C 478.092 2.77131 -0.096807 0
M  V30 5094 H 481.043 1.49934 -0.520134 0
M  V30 5095 H 481.064 3.61294 1.19361 0
M  V30 5096 H 480.576 3.83148 -0.617998 0
M  V30 5097 H 478.677 3.27151 1.78334 0
M  V30 5098 H 478.79 4.75114 0.616718 0
M  V30 5099 H 477.154 2.51153 0.423581 0
M  V30 5100 H 477.937 3.26204 -1.06986 0
M  V30 5101 N 480.382 0.0267497 1.57577 0
M  V30 5102 C 481.292 -0.971633 2.13533 0
M  V30 5103 C 482.308 -1.35868 1.08701 0
M  V30 5104 O 483.484 -1.44058 1.40746 0
M  V30 5105 C 480.549 -2.23622 2.64941 0
M  V30 5106 C 479.61 -1.90982 3.8448 0
M  V30 5107 C 478.843 -3.11411 4.33427 0
M  V30 5108 O 479.066 -4.23992 3.81558 0
M  V30 5109 O 478 -2.93848 5.25297 0
M  V30 5110 H 481.826 -0.525853 2.99113 0
M  V30 5111 H 479.411 -0.193712 1.48139 0
M  V30 5112 H 481.293 -2.97864 2.98086 0
M  V30 5113 H 479.968 -2.67386 1.82446 0
M  V30 5114 H 478.875 -1.14132 3.56265 0
M  V30 5115 H 480.208 -1.52036 4.6813 0
M  V30 5116 N 481.861 -1.55662 -0.24637 0
M  V30 5117 C 483.138 -1.68272 -0.997198 0
M  V30 5118 C 483.518 -0.566785 -2.03349 0
M  V30 5119 O 482.866 0.429688 -2.24424 0
M  V30 5120 C 483.076 -3.08594 -1.63006 0
M  V30 5121 C 484.424 -3.6721 -2.13171 0
M  V30 5122 O 485.448 -3.11397 -1.72946 0
M  V30 5123 O 484.307 -4.65054 -2.87031 0
M  V30 5124 H 481.401 -0.684429 -0.464205 0
M  V30 5125 H 483.947 -1.67993 -0.240114 0
M  V30 5126 H 482.719 -3.81264 -0.880527 0
M  V30 5127 H 482.342 -3.12886 -2.45333 0
M  V30 5128 N 483.339 0.512053 -1.4905 0
M  V30 5129 C 484.271 1.63121 -1.6101 0
M  V30 5130 C 485.284 1.55145 -0.493352 0
M  V30 5131 O 486.473 1.61278 -0.764955 0
M  V30 5132 C 483.573 3.01863 -1.54052 0
M  V30 5133 C 482.746 3.35138 -2.81072 0
M  V30 5134 C 481.805 4.5324 -2.67319 0
M  V30 5135 O 480.831 4.55571 -3.41238 0
M  V30 5136 N 482.033 5.52495 -1.78127 0
M  V30 5137 H 484.798 1.53292 -2.5753 0
M  V30 5138 H 482.359 0.699706 -1.45999 0
M  V30 5139 H 484.351 3.78774 -1.42521 0
M  V30 5140 H 482.921 3.05675 -0.654345 0
M  V30 5141 H 482.141 2.4723 -3.07036 0
M  V30 5142 H 483.429 3.54162 -3.65304 0
M  V30 5143 H 482.827 5.53403 -1.17308 0
M  V30 5144 H 481.384 6.28553 -1.72525 0
M  V30 5145 N 484.817 1.37938 0.762283 0
M  V30 5146 C 486.042 1.37059 1.55659 0
M  V30 5147 C 486.467 -0.0396123 1.88058 0
M  V30 5148 O 485.825 -1.01929 1.49934 0
M  V30 5149 C 485.873 2.22494 2.83776 0
M  V30 5150 O 484.977 1.63607 3.78559 0
M  V30 5151 H 484.318 0.467892 0.47114 0
M  V30 5152 H 486.848 1.81587 0.942725 0
M  V30 5153 H 486.858 2.36045 3.32786 0
M  V30 5154 H 485.533 3.24993 2.59524 0
M  V30 5155 H 484.11 1.5915 3.37233 0
M  V30 5156 N 486.295 -0.989507 1.22664 0
M  V30 5157 C 487.541 -1.73298 1.06487 0
M  V30 5158 C 487.896 -1.88292 -0.395438 0
M  V30 5159 O 487.189 -1.41748 -1.28911 0
M  V30 5160 C 487.383 -3.13649 1.71345 0
M  V30 5161 C 487.212 -3.12341 3.23532 0
M  V30 5162 C 485.982 -3.18044 3.92653 0
M  V30 5163 C 488.18 -2.96226 4.20422 0
M  V30 5164 N 486.162 -3.06526 5.31898 0
M  V30 5165 C 487.533 -2.92773 5.4652 0
M  V30 5166 C 489.588 -2.80642 4.11271 0
M  V30 5167 C 488.291 -2.75332 6.64519 0
M  V30 5168 C 490.317 -2.64563 5.28924 0
M  V30 5169 C 489.679 -2.618 6.53942 0
M  V30 5170 H 485.778 -0.643643 0.444126 0
M  V30 5171 H 488.362 -1.17489 1.55256 0
M  V30 5172 H 486.533 -3.67694 1.25122 0
M  V30 5173 H 488.265 -3.76577 1.48229 0
M  V30 5174 H 485.02 -3.25861 3.43673 0
M  V30 5175 H 485.444 -3.04067 6.04874 0
M  V30 5176 H 490.086 -2.81574 3.15398 0
M  V30 5177 H 487.804 -2.73145 7.60538 0
M  V30 5178 H 491.39 -2.53482 5.23677 0
M  V30 5179 H 490.27 -2.49511 7.43447 0
M  V30 5180 N 487.773 -1.03688 -1.18687 0
M  V30 5181 C 489.021 -0.736572 -1.88199 0
M  V30 5182 C 489.342 0.737665 -1.80509 0
M  V30 5183 O 488.612 1.53204 -1.22088 0
M  V30 5184 H 487.192 -0.269466 -0.696704 0
M  V30 5185 H 489.854 -1.31282 -1.44052 0
M  V30 5186 H 488.95 -1.03802 -2.94332 0
M  V30 5187 N 489.251 1.34841 -0.815825 0
M  V30 5188 C 490.499 1.98107 -0.399744 0
M  V30 5189 C 490.82 1.65019 1.03894 0
M  V30 5190 O 490.09 0.937311 1.72021 0
M  V30 5191 H 488.67 0.732827 -0.144823 0
M  V30 5192 H 491.332 1.64599 -1.0437 0
M  V30 5193 H 490.428 3.07856 -0.512965 0
M  V30 5194 N 490.729 0.570148 1.46925 0
M  V30 5195 C 491.661 -0.207909 2.28255 0
M  V30 5196 C 492.674 -0.867301 1.37774 0
M  V30 5197 O 493.863 -0.738976 1.62485 0
M  V30 5198 C 490.963 -1.31298 3.12433 0
M  V30 5199 C 490.136 -0.747915 4.30958 0
M  V30 5200 C 489.195 -1.7391 4.9663 0
M  V30 5201 O 488.221 -1.2801 5.54619 0
M  V30 5202 N 489.423 -3.07288 4.92498 0
M  V30 5203 H 492.188 0.489794 2.95671 0
M  V30 5204 H 489.749 0.407076 1.56699 0
M  V30 5205 H 491.741 -1.97507 3.53232 0
M  V30 5206 H 490.311 -1.91373 2.47175 0
M  V30 5207 H 489.531 0.0913066 3.94094 0
M  V30 5208 H 490.819 -0.349958 5.07595 0
M  V30 5209 H 490.217 -3.47213 4.46609 0
M  V30 5210 H 488.774 -3.69021 5.37277 0
M  V30 5211 N 492.207 -1.54576 0.307264 0
M  V30 5212 C 493.17 -2.22423 -0.553224 0
M  V30 5213 C 494.17 -1.21231 -1.05639 0
M  V30 5214 O 495.36 -1.45923 -0.951419 0
M  V30 5215 C 492.492 -2.91552 -1.76664 0
M  V30 5216 H 493.685 -2.99874 0.0396484 0
M  V30 5217 H 491.238 -1.56192 0.0581629 0
M  V30 5218 H 491.973 -2.18196 -2.39918 0
M  V30 5219 H 491.758 -3.65738 -1.41343 0
M  V30 5220 H 493.248 -3.43292 -2.37783 0
M  V30 5221 N 493.685 -0.035106 -1.57561 0
M  V30 5222 C 494.913 0.652258 -1.9635 0
M  V30 5223 C 495.328 1.65317 -0.911897 0
M  V30 5224 O 494.685 1.82194 0.105657 0
M  V30 5225 C 494.736 1.35337 -3.35211 0
M  V30 5226 O 494.457 0.392548 -4.36338 0
M  V30 5227 C 495.958 2.13199 -3.88666 0
M  V30 5228 H 493.178 0.179444 -0.646561 0
M  V30 5229 H 495.722 -0.0966459 -2.04271 0
M  V30 5230 H 493.877 2.05362 -3.28489 0
M  V30 5231 H 494.291 0.891097 -5.16875 0
M  V30 5232 H 495.765 2.577 -4.88154 0
M  V30 5233 H 496.242 2.97353 -3.23231 0
M  V30 5234 H 496.848 1.48118 -3.98674 0
M  V30 5235 N 495.163 1.55791 0.238111 0
M  V30 5236 C 496.111 1.91885 1.31464 0
M  V30 5237 C 497.105 0.798929 1.49377 0
M  V30 5238 O 498.311 0.983626 1.50747 0
M  V30 5239 H 494.686 0.609551 0.440399 0
M  V30 5240 H 496.657 2.81747 0.982925 0
M  V30 5241 C 495.406 2.23763 2.6613 0
M  V30 5242 H 494.729 3.09444 2.53149 0
M  V30 5243 H 496.169 2.52915 3.40309 0
M  V30 5244 C 494.628 1.05699 3.1989 0
M  V30 5245 O 495.158 0.309524 4.00506 0
M  V30 5246 N 493.364 0.845251 2.78036 0
M  V30 5247 H 492.911 1.4548 2.12588 0
M  V30 5248 H 492.869 0.0569973 3.14348 0
M  V30 5249 N 496.642 -0.504142 1.49319 0
M  V30 5250 C 497.888 -1.26033 1.58882 0
M  V30 5251 C 498.221 -1.92268 0.273274 0
M  V30 5252 O 497.496 -1.80567 -0.72291 0
M  V30 5253 C 497.779 -2.32976 2.7458 0
M  V30 5254 C 497.632 -1.71263 4.1592 0
M  V30 5255 C 498.951 -3.34561 2.85932 0
M  V30 5256 H 496.07 -0.456863 0.578312 0
M  V30 5257 H 498.712 -0.558965 1.81592 0
M  V30 5258 H 496.862 -2.92796 2.55348 0
M  V30 5259 H 498.534 -1.15294 4.4666 0
M  V30 5260 H 496.777 -1.01686 4.21714 0
M  V30 5261 H 497.448 -2.48816 4.92742 0
M  V30 5262 H 499.924 -2.84727 3.0343 0
M  V30 5263 H 498.8 -4.06754 3.68568 0
M  V30 5264 H 499.061 -3.96695 1.95154 0
M  V30 5265 N 498.12 -1.38341 -0.754957 0
M  V30 5266 C 499.367 -1.34473 -1.51404 0
M  V30 5267 C 499.695 0.0656458 -1.94389 0
M  V30 5268 O 498.95 1.04244 -1.65625 0
M  V30 5269 C 499.249 -2.2452 -2.78075 0
M  V30 5270 C 498.915 -3.72512 -2.54059 0
M  V30 5271 C 497.577 -4.1284 -2.47218 0
M  V30 5272 C 499.929 -4.66197 -2.33044 0
M  V30 5273 C 497.257 -5.44945 -2.17376 0
M  V30 5274 C 499.609 -5.98558 -2.04723 0
M  V30 5275 C 498.273 -6.37972 -1.96337 0
M  V30 5276 H 497.543 -0.492072 -0.554027 0
M  V30 5277 H 500.19 -1.70687 -0.868223 0
M  V30 5278 H 498.495 -1.81357 -3.473 0
M  V30 5279 H 500.192 -2.18832 -3.36026 0
M  V30 5280 H 496.782 -3.40538 -2.60253 0
M  V30 5281 H 500.966 -4.35888 -2.37309 0
M  V30 5282 H 496.222 -5.74426 -2.09391 0
M  V30 5283 H 500.396 -6.70693 -1.87465 0
M  V30 5284 H 498.023 -7.40258 -1.72978 0
M  V30 5285 N 499.598 0.982988 -1.23187 0
M  V30 5286 C 500.844 1.72648 -1.06398 0
M  V30 5287 C 501.177 1.90066 0.398561 0
M  V30 5288 O 500.452 1.45105 1.29518 0
M  V30 5289 C 500.735 3.12627 -1.78707 0
M  V30 5290 C 500.588 3.02795 -3.32618 0
M  V30 5291 C 501.907 4.11997 -1.54747 0
M  V30 5292 H 499.026 0.626649 -0.387918 0
M  V30 5293 H 501.668 1.14455 -1.51658 0
M  V30 5294 H 499.818 3.62308 -1.40234 0
M  V30 5295 H 501.49 2.60659 -3.80598 0
M  V30 5296 H 499.733 2.39362 -3.61785 0
M  V30 5297 H 500.404 4.01893 -3.78399 0
M  V30 5298 H 502.88 3.71114 -1.88186 0
M  V30 5299 H 501.756 5.08037 -2.07821 0
M  V30 5300 H 502.017 4.39462 -0.482249 0
M  V30 5301 N 501.076 1.04316 1.18135 0
M  V30 5302 C 502.024 0.630175 2.23901 0
M  V30 5303 C 503.018 -0.344254 1.65865 0
M  V30 5304 O 504.224 -0.211273 1.78756 0
M  V30 5305 H 500.599 0.185578 0.728742 0
M  V30 5306 H 502.57 1.53253 2.56039 0
M  V30 5307 C 501.319 0.011666 3.47698 0
M  V30 5308 H 500.642 0.752526 3.92654 0
M  V30 5309 H 502.082 -0.240046 4.2332 0
M  V30 5310 C 500.541 -1.23913 3.13285 0
M  V30 5311 O 501.071 -2.32959 3.27251 0
M  V30 5312 N 499.277 -1.13338 2.67587 0
M  V30 5313 H 498.824 -0.246006 2.56423 0
M  V30 5314 H 498.782 -1.97116 2.44934 0
M  V30 5315 N 502.554 -1.34406 0.822964 0
M  V30 5316 C 503.487 -2.27407 0.190124 0
M  V30 5317 C 504.465 -1.4889 -0.653486 0
M  V30 5318 O 505.649 -1.78109 -0.617216 0
M  V30 5319 C 502.776 -3.3064 -0.734477 0
M  V30 5320 C 501.822 -4.26488 0.0316099 0
M  V30 5321 S 502.655 -5.17445 1.3788 0
M  V30 5322 C 503.811 -6.24214 0.45907 0
M  V30 5323 H 504.044 -2.80733 0.978586 0
M  V30 5324 H 501.577 -1.41455 0.618866 0
M  V30 5325 H 503.535 -3.90607 -1.26238 0
M  V30 5326 H 502.196 -2.76161 -1.49646 0
M  V30 5327 H 501.389 -4.9951 -0.671285 0
M  V30 5328 H 500.991 -3.70775 0.490066 0
M  V30 5329 H 503.283 -6.76599 -0.349357 0
M  V30 5330 H 504.226 -6.98551 1.15896 0
M  V30 5331 H 504.634 -5.6448 0.0474825 0
M  V30 5332 N 504.032 -0.577932 -1.46621 0
M  V30 5333 C 504.942 0.160651 -2.34049 0
M  V30 5334 C 505.958 0.890911 -1.49462 0
M  V30 5335 O 507.134 0.855166 -1.82343 0
M  V30 5336 C 504.199 1.16447 -3.26559 0
M  V30 5337 C 503.26 0.4394 -4.27045 0
M  V30 5338 C 502.493 1.3954 -5.15135 0
M  V30 5339 O 502.716 2.63162 -5.06065 0
M  V30 5340 O 501.65 0.908585 -5.95003 0
M  V30 5341 H 505.476 -0.557057 -2.98547 0
M  V30 5342 H 503.061 -0.338369 -1.45518 0
M  V30 5343 H 504.943 1.7434 -3.83645 0
M  V30 5344 H 503.618 1.86373 -2.64663 0
M  V30 5345 H 502.525 -0.181247 -3.73661 0
M  V30 5346 H 503.858 -0.218799 -4.91713 0
M  V30 5347 N 505.51 1.54411 -0.315457 0
M  V30 5348 C 506.42 2.27737 0.56329 0
M  V30 5349 C 507.436 1.31787 1.13614 0
M  V30 5350 O 508.612 1.64791 1.15784 0
M  V30 5351 C 505.677 3.01478 1.71207 0
M  V30 5352 C 504.738 4.12997 1.17185 0
M  V30 5353 C 503.971 4.83212 2.26588 0
M  V30 5354 O 504.194 4.52884 3.46775 0
M  V30 5355 O 503.128 5.70299 1.92463 0
M  V30 5356 H 506.954 3.03683 -0.0319614 0
M  V30 5357 H 504.539 1.49178 -0.0814188 0
M  V30 5358 H 506.421 3.47683 2.38106 0
M  V30 5359 H 505.096 2.28414 2.29366 0
M  V30 5360 H 504.003 3.71159 0.468174 0
M  V30 5361 H 505.336 4.8808 0.635501 0
M  V30 5362 N 506.988 0.0434614 1.5754 0
M  V30 5363 C 508.265 -0.671479 1.83713 0
M  V30 5364 C 508.645 -1.89495 0.930315 0
M  V30 5365 O 507.993 -2.28498 -0.0105639 0
M  V30 5366 C 508.203 -1.0361 3.33266 0
M  V30 5367 C 509.551 -1.42167 4.00092 0
M  V30 5368 O 510.575 -1.12866 3.37846 0
M  V30 5369 O 509.434 -1.96817 5.09829 0
M  V30 5370 H 506.528 -0.330726 0.75799 0
M  V30 5371 H 509.074 0.0722373 1.69546 0
M  V30 5372 H 507.846 -0.165938 3.90948 0
M  V30 5373 H 507.469 -1.83751 3.52592 0
M  V30 5374 N 508.466 -1.55915 -0.229846 0
M  V30 5375 C 509.713 -1.78542 -0.955452 0
M  V30 5376 C 510.041 -0.610785 -1.84661 0
M  V30 5377 O 509.296 0.405213 -1.91459 0
M  V30 5378 C 509.595 -3.06845 -1.8325 0
M  V30 5379 C 509.261 -4.37395 -1.09528 0
M  V30 5380 C 507.923 -4.72868 -0.891598 0
M  V30 5381 C 510.275 -5.18029 -0.574046 0
M  V30 5382 C 507.603 -5.86496 -0.154655 0
M  V30 5383 C 509.955 -6.32423 0.149513 0
M  V30 5384 C 508.619 -6.66504 0.364519 0
M  V30 5385 H 507.889 -0.653333 -0.349625 0
M  V30 5386 H 510.536 -1.90183 -0.224235 0
M  V30 5387 H 508.841 -2.90291 -2.63132 0
M  V30 5388 H 510.538 -3.21553 -2.39592 0
M  V30 5389 H 507.128 -4.09538 -1.26399 0
M  V30 5390 H 511.312 -4.91066 -0.718899 0
M  V30 5391 H 506.568 -6.11396 0.0222356 0
M  V30 5392 H 510.742 -6.94137 0.560947 0
M  V30 5393 H 508.369 -7.54397 0.937495 0
M  V30 5394 N 509.944 0.496216 -1.49584 0
M  V30 5395 C 510.877 1.61508 -1.61215 0
M  V30 5396 C 511.855 1.55927 -0.461045 0
M  V30 5397 O 513.039 1.75914 -0.677231 0
M  V30 5398 C 510.166 3.00035 -1.57152 0
M  V30 5399 C 509.212 3.23861 -2.77518 0
M  V30 5400 S 510.045 3.06466 -4.39134 0
M  V30 5401 C 511.201 4.4738 -4.37724 0
M  V30 5402 H 511.434 1.51398 -2.55863 0
M  V30 5403 H 508.967 0.681727 -1.38535 0
M  V30 5404 H 510.925 3.7991 -1.55494 0
M  V30 5405 H 509.586 3.07556 -0.637834 0
M  V30 5406 H 508.779 4.25 -2.70908 0
M  V30 5407 H 508.381 2.51716 -2.76614 0
M  V30 5408 H 510.673 5.39556 -4.09738 0
M  V30 5409 H 511.616 4.59038 -5.39156 0
M  V30 5410 H 512.024 4.28283 -3.67742 0
M  V30 5411 N 511.423 1.38739 0.74761 0
M  V30 5412 C 512.37 1.36449 1.86146 0
M  V30 5413 C 513.34 0.226098 1.64554 0
M  V30 5414 O 514.525 0.41926 1.86137 0
M  V30 5415 C 511.665 1.2013 3.23516 0
M  V30 5416 C 510.778 2.43407 3.56899 0
M  V30 5417 C 509.913 2.19773 4.83605 0
M  V30 5418 C 508.952 3.3879 5.09792 0
M  V30 5419 N 508.089 3.14553 6.27695 0
M  V30 5420 H 512.929 2.3167 1.87438 0
M  V30 5421 H 510.466 1.15094 0.916063 0
M  V30 5422 H 512.424 1.08683 4.02795 0
M  V30 5423 H 511.054 0.285453 3.21535 0
M  V30 5424 H 510.106 2.65504 2.72418 0
M  V30 5425 H 511.418 3.32094 3.72176 0
M  V30 5426 H 510.572 2.05496 5.70838 0
M  V30 5427 H 509.311 1.28461 4.70478 0
M  V30 5428 H 508.316 3.53579 4.21025 0
M  V30 5429 H 509.541 4.30986 5.24812 0
M  V30 5430 H 507.487 2.25893 6.1588 0
M  V30 5431 H 507.404 3.96791 6.435 0
M  V30 5432 H 508.672 3.03943 7.17801 0
M  V30 5433 N 512.901 -0.976442 1.23707 0
M  V30 5434 C 514.312 -1.53284 1.06587 0
M  V30 5435 C 514.663 -1.92765 -0.365526 0
M  V30 5436 O 513.788 -1.7645 -1.25277 0
M  V30 5437 C 514.383 -2.78548 1.92864 0
M  V30 5438 C 512.942 -3.30574 1.79994 0
M  V30 5439 C 512.089 -2.03538 1.88328 0
M  V30 5440 H 515.04 -0.795692 1.37311 0
M  V30 5441 H 515.061 -3.5155 1.45577 0
M  V30 5442 H 514.573 -2.49782 2.97037 0
M  V30 5443 H 512.674 -3.64211 0.786202 0
M  V30 5444 H 512.787 -4.00065 2.636 0
M  V30 5445 H 511.151 -2.17853 1.31954 0
M  V30 5446 H 511.934 -1.77149 2.94063 0
M  V30 5447 N 514.379 -1.04941 -1.1758 0
M  V30 5448 C 515.625 -0.759112 -1.88057 0
M  V30 5449 C 515.958 0.711918 -1.8068 0
M  V30 5450 O 515.233 1.52035 -1.21308 0
M  V30 5451 C 515.516 -1.237 -3.38187 0
M  V30 5452 C 515.369 -2.77078 -3.54327 0
M  V30 5453 C 516.688 -0.834014 -4.32125 0
M  V30 5454 H 513.807 -0.277237 -0.682868 0
M  V30 5455 H 516.449 -1.30296 -1.38286 0
M  V30 5456 H 514.599 -0.774337 -3.80705 0
M  V30 5457 H 516.271 -3.31449 -3.20842 0
M  V30 5458 H 514.514 -3.16477 -2.96689 0
M  V30 5459 H 515.185 -3.05577 -4.59703 0
M  V30 5460 H 517.661 -1.23228 -3.97434 0
M  V30 5461 H 516.537 -1.19603 -5.35711 0
M  V30 5462 H 516.798 0.262195 -4.41322 0
M  V30 5463 N 515.857 1.33968 -0.830081 0
M  V30 5464 C 517.106 1.97323 -0.417928 0
M  V30 5465 C 517.419 1.6652 1.02618 0
M  V30 5466 O 518.625 2.2342 1.54259 0
M  V30 5467 C 517.081 3.53099 -0.696359 0
M  V30 5468 C 516.689 3.92788 -2.15457 0
M  V30 5469 C 518.433 4.23049 -0.350724 0
M  V30 5470 C 516.34 5.41506 -2.37751 0
M  V30 5471 H 515.27 0.738409 -0.152541 0
M  V30 5472 H 517.921 1.52711 -1.01744 0
M  V30 5473 H 516.303 3.95991 -0.0265904 0
M  V30 5474 H 517.477 3.6098 -2.86408 0
M  V30 5475 H 515.792 3.35795 -2.46232 0
M  V30 5476 H 518.389 5.32403 -0.495036 0
M  V30 5477 H 518.732 4.10279 0.705476 0
M  V30 5478 H 519.265 3.85657 -0.975362 0
M  V30 5479 H 516.004 5.5927 -3.41903 0
M  V30 5480 H 515.524 5.74804 -1.7135 0
M  V30 5481 H 517.203 6.0828 -2.20465 0
M  V30 5482 N 517.335 0.585699 1.46312 0
M  V30 5483 C 518.56 0.0762461 2.0726 0
M  V30 5484 C 518.985 -1.22071 1.43109 0
M  V30 5485 O 518.343 -1.73804 0.515942 0
M  V30 5486 C 518.391 -0.0729404 3.60526 0
M  V30 5487 O 517.495 -1.1287 3.96654 0
M  V30 5488 H 516.836 0.0641558 0.660893 0
M  V30 5489 H 519.366 0.809492 1.87905 0
M  V30 5490 H 519.376 -0.278158 4.07051 0
M  V30 5491 H 518.051 0.874188 4.06609 0
M  V30 5492 H 516.628 -0.901703 3.61834 0
M  V30 5493 N 518.813 -1.54241 0.323641 0
M  V30 5494 C 520.062 -1.9975 -0.279806 0
M  V30 5495 C 520.375 -1.2156 -1.5324 0
M  V30 5496 O 521.581 -1.57447 -2.21185 0
M  V30 5497 C 520.037 -3.55686 -0.549115 0
M  V30 5498 C 519.645 -4.4271 0.686432 0
M  V30 5499 C 521.389 -4.09663 -1.11251 0
M  V30 5500 C 519.296 -5.90119 0.389022 0
M  V30 5501 H 518.226 -0.746177 -0.10833 0
M  V30 5502 H 520.877 -1.78248 0.435877 0
M  V30 5503 H 519.259 -3.73176 -1.32499 0
M  V30 5504 H 520.433 -4.36996 1.46188 0
M  V30 5505 H 518.748 -3.99623 1.17005 0
M  V30 5506 H 521.345 -5.17386 -1.34965 0
M  V30 5507 H 521.688 -3.61651 -2.06191 0
M  V30 5508 H 522.221 -3.95806 -0.39782 0
M  V30 5509 H 518.96 -6.42326 1.30759 0
M  V30 5510 H 518.48 -5.98785 -0.348722 0
M  V30 5511 H 520.159 -6.47 -0.0011164 0
M  V30 5512 N 520.291 -0.0518155 -1.57515 0
M  V30 5513 C 521.537 0.622745 -1.93002 0
M  V30 5514 C 521.87 1.70456 -0.930499 0
M  V30 5515 O 521.145 1.94452 0.0434086 0
M  V30 5516 C 521.428 1.21824 -3.38867 0
M  V30 5517 C 521.281 0.144434 -4.49568 0
M  V30 5518 C 522.6 2.12968 -3.8514 0
M  V30 5519 H 519.719 0.22491 -0.701844 0
M  V30 5520 H 522.361 -0.113711 -1.89659 0
M  V30 5521 H 520.511 1.8459 -3.41846 0
M  V30 5522 H 522.183 -0.48753 -4.58717 0
M  V30 5523 H 520.426 -0.527424 -4.30582 0
M  V30 5524 H 521.097 0.601127 -5.48717 0
M  V30 5525 H 523.573 1.60163 -3.8404 0
M  V30 5526 H 522.449 2.51578 -4.87852 0
M  V30 5527 H 522.71 3.03004 -3.21934 0
M  V30 5528 N 521.769 1.56035 0.221574 0
M  V30 5529 C 523.046 1.69837 0.970301 0
M  V30 5530 C 523.426 0.599065 2.02421 0
M  V30 5531 O 522.774 -0.393929 2.25079 0
M  V30 5532 C 522.984 3.11148 1.58076 0
M  V30 5533 C 524.332 3.70555 2.07302 0
M  V30 5534 O 525.356 3.14109 1.6797 0
M  V30 5535 O 524.215 4.69562 2.79596 0
M  V30 5536 H 521.309 0.691727 0.453257 0
M  V30 5537 H 523.855 1.68353 0.213358 0
M  V30 5538 H 522.627 3.82617 0.819759 0
M  V30 5539 H 522.25 3.16749 2.40324 0
M  V30 5540 N 523.247 -0.488276 1.49845 0
M  V30 5541 C 524.157 -1.61451 1.70207 0
M  V30 5542 C 525.173 -1.63877 0.584846 0
M  V30 5543 O 526.349 -1.82063 0.861107 0
M  V30 5544 C 523.414 -2.9776 1.77594 0
M  V30 5545 C 522.475 -3.05861 3.01243 0
M  V30 5546 C 521.708 -4.35668 3.08268 0
M  V30 5547 O 521.931 -5.25197 2.22541 0
M  V30 5548 O 520.865 -4.49005 4.00847 0
M  V30 5549 H 524.691 -1.47199 2.65643 0
M  V30 5550 H 522.276 -0.665939 1.33737 0
M  V30 5551 H 524.158 -3.7875 1.84732 0
M  V30 5552 H 522.833 -3.12248 0.8534 0
M  V30 5553 H 521.74 -2.24012 2.99616 0
M  V30 5554 H 523.073 -2.96304 3.9302 0
M  V30 5555 N 524.725 -1.39134 -0.740242 0
M  V30 5556 C 525.655 -1.40165 -1.86751 0
M  V30 5557 C 526.636 -0.265708 -1.68012 0
M  V30 5558 O 527.821 -0.47076 -1.88408 0
M  V30 5559 C 524.951 -1.2392 -3.2444 0
M  V30 5560 C 523.905 -2.34858 -3.57807 0
M  V30 5561 C 523.231 -2.03707 -4.94376 0
M  V30 5562 C 524.531 -3.77159 -3.61315 0
M  V30 5563 H 526.225 -2.345 -1.86145 0
M  V30 5564 H 523.771 -1.12875 -0.89416 0
M  V30 5565 H 525.724 -1.23263 -4.02969 0
M  V30 5566 H 524.448 -0.26051 -3.25559 0
M  V30 5567 H 523.107 -2.34723 -2.81604 0
M  V30 5568 H 522.755 -1.04289 -4.9207 0
M  V30 5569 H 522.455 -2.78016 -5.17669 0
M  V30 5570 H 523.979 -2.04691 -5.75268 0
M  V30 5571 H 525.393 -3.79252 -4.29931 0
M  V30 5572 H 523.79 -4.50784 -3.96124 0
M  V30 5573 H 524.86 -4.08513 -2.61238 0
M  V30 5574 N 526.204 0.969867 -1.24223 0
M  V30 5575 C 527.134 2.08191 -1.05729 0
M  V30 5576 C 528.115 1.70075 0.0290765 0
M  V30 5577 O 529.3 1.93712 -0.137583 0
M  V30 5578 C 526.43 3.40991 -0.658995 0
M  V30 5579 C 525.384 3.93054 -1.69389 0
M  V30 5580 C 524.71 5.22171 -1.15072 0
M  V30 5581 C 526.01 4.21137 -3.08935 0
M  V30 5582 H 527.704 2.23921 -1.98746 0
M  V30 5583 H 525.25 1.07602 -0.956967 0
M  V30 5584 H 527.203 4.18221 -0.51662 0
M  V30 5585 H 525.927 3.25155 0.30686 0
M  V30 5586 H 524.586 3.17977 -1.82444 0
M  V30 5587 H 524.234 5.02694 -0.175539 0
M  V30 5588 H 523.934 5.57973 -1.84229 0
M  V30 5589 H 525.458 6.02013 -1.02042 0
M  V30 5590 H 526.872 4.8908 -2.99121 0
M  V30 5591 H 525.269 4.68163 -3.75425 0
M  V30 5592 H 526.339 3.27996 -3.57137 0
M  V30 5593 N 527.682 1.05563 1.17022 0
M  V30 5594 C 528.592 0.670758 2.24807 0
M  V30 5595 C 529.608 -0.309865 1.71219 0
M  V30 5596 O 530.784 -0.161025 2.00755 0
M  V30 5597 C 527.849 0.055337 3.46656 0
M  V30 5598 C 526.91 1.08688 4.15314 0
M  V30 5599 C 526.143 0.500736 5.31346 0
M  V30 5600 O 526.366 -0.688718 5.66227 0
M  V30 5601 O 525.3 1.23683 5.89055 0
M  V30 5602 H 529.126 1.56914 2.60023 0
M  V30 5603 H 526.711 0.827428 1.24395 0
M  V30 5604 H 528.593 -0.286492 4.20425 0
M  V30 5605 H 527.268 -0.816638 3.13229 0
M  V30 5606 H 526.175 1.48077 3.43546 0
M  V30 5607 H 527.508 1.93014 4.52777 0
M  V30 5608 N 529.16 -1.33526 0.837174 0
M  V30 5609 C 530.123 -2.27551 0.274421 0
M  V30 5610 C 531.123 -1.50886 -0.555881 0
M  V30 5611 O 532.313 -1.70227 -0.369918 0
M  V30 5612 C 529.445 -3.35332 -0.613605 0
M  V30 5613 H 530.638 -2.78837 1.10408 0
M  V30 5614 H 528.191 -1.439 0.610126 0
M  V30 5615 H 528.926 -2.89285 -1.46577 0
M  V30 5616 H 528.711 -3.92095 -0.0195341 0
M  V30 5617 H 530.201 -4.05433 -1.00068 0
M  V30 5618 N 530.638 -0.59345 -1.46 0
M  V30 5619 C 531.886 -0.082988 -2.0193 0
M  V30 5620 C 532.207 1.28569 -1.46612 0
M  V30 5621 O 531.477 1.84629 -0.654909 0
M  V30 5622 H 530.057 -0.0276882 -0.746487 0
M  V30 5623 H 532.719 -0.771657 -1.78973 0
M  V30 5624 H 531.815 -0.022079 -3.12092 0
M  V30 5625 N 532.116 1.54067 -0.331816 0
M  V30 5626 C 533.365 1.99895 0.269209 0
M  V30 5627 C 533.678 1.22371 1.52593 0
M  V30 5628 O 534.884 1.58618 2.20347 0
M  V30 5629 C 533.34 3.55972 0.530244 0
M  V30 5630 C 532.948 4.4234 -0.709901 0
M  V30 5631 C 534.692 4.10247 1.09077 0
M  V30 5632 C 532.599 5.89905 -0.420312 0
M  V30 5633 H 531.529 0.746741 0.104371 0
M  V30 5634 H 534.18 1.78014 -0.445324 0
M  V30 5635 H 532.562 3.73873 1.30518 0
M  V30 5636 H 533.736 4.36215 -1.48504 0
M  V30 5637 H 532.051 3.98997 -1.19123 0
M  V30 5638 H 534.648 5.18095 1.32219 0
M  V30 5639 H 534.991 3.62739 2.0427 0
M  V30 5640 H 535.524 3.96011 0.376824 0
M  V30 5641 H 532.263 6.41623 -1.34164 0
M  V30 5642 H 531.783 5.98962 0.316962 0
M  V30 5643 H 533.462 6.46991 -0.0331956 0
M  V30 5644 N 533.594 0.0601682 1.57485 0
M  V30 5645 C 534.542 -0.928899 2.13247 0
M  V30 5646 C 535.536 -1.31616 1.06647 0
M  V30 5647 O 536.742 -1.29476 1.25043 0
M  V30 5648 H 533.117 -0.317455 0.681708 0
M  V30 5649 H 535.088 -0.433566 2.95233 0
M  V30 5650 C 533.837 -2.19121 2.69965 0
M  V30 5651 H 533.16 -1.90204 3.51657 0
M  V30 5652 H 534.6 -2.86465 3.12592 0
M  V30 5653 C 533.059 -2.94195 1.64168 0
M  V30 5654 O 533.589 -3.87468 1.05978 0
M  V30 5655 N 531.795 -2.57089 1.35476 0
M  V30 5656 H 531.342 -1.81314 1.82984 0
M  V30 5657 H 531.3 -3.07624 0.649196 0
M  V30 5658 N 535.072 -1.5615 -0.213296 0
M  V30 5659 C 536.318 -1.79812 -0.937849 0
M  V30 5660 C 536.651 -0.631201 -1.83656 0
M  V30 5661 O 535.926 0.369165 -1.90964 0
M  V30 5662 C 536.209 -3.13613 -1.76972 0
M  V30 5663 C 536.062 -4.40766 -0.89695 0
M  V30 5664 C 537.381 -3.43931 -2.7459 0
M  V30 5665 H 534.5 -0.654138 -0.339518 0
M  V30 5666 H 537.142 -1.88877 -0.20623 0
M  V30 5667 H 535.292 -3.06015 -2.39347 0
M  V30 5668 H 536.964 -4.60392 -0.289306 0
M  V30 5669 H 535.207 -4.33326 -0.202756 0
M  V30 5670 H 535.878 -5.30843 -1.51358 0
M  V30 5671 H 538.354 -3.5171 -2.22349 0
M  V30 5672 H 537.23 -4.38706 -3.29891 0
M  V30 5673 H 537.491 -2.6651 -3.52739 0
M  V30 5674 N 536.55 0.480323 -1.50102 0
M  V30 5675 C 537.778 1.25657 -1.64371 0
M  V30 5676 C 538.193 1.86011 -0.323316 0
M  V30 5677 O 537.55 1.68803 0.693682 0
M  V30 5678 C 537.601 2.37197 -2.728 0
M  V30 5679 O 537.322 1.7932 -3.9972 0
M  V30 5680 C 538.823 3.2823 -2.9796 0
M  V30 5681 H 536.043 0.380369 -0.552775 0
M  V30 5682 H 538.587 0.574379 -1.96268 0
M  V30 5683 H 536.742 3.01208 -2.43623 0
M  V30 5684 H 537.156 2.52701 -4.59611 0
M  V30 5685 H 538.63 4.02725 -3.77513 0
M  V30 5686 H 539.107 3.86462 -2.08671 0
M  V30 5687 H 539.713 2.69964 -3.28633 0
M  V30 5688 N 538.028 1.39524 0.732853 0
M  V30 5689 C 539.274 1.37068 1.49467 0
M  V30 5690 C 539.607 -0.0327166 1.94172 0
M  V30 5691 O 538.882 -0.998071 1.66939 0
M  V30 5692 C 539.165 2.34494 2.73285 0
M  V30 5693 C 539.018 3.83784 2.34585 0
M  V30 5694 C 540.337 2.29717 3.75391 0
M  V30 5695 H 537.456 0.499206 0.542183 0
M  V30 5696 H 540.098 1.70532 0.837783 0
M  V30 5697 H 538.248 2.06087 3.29333 0
M  V30 5698 H 539.92 4.22949 1.84151 0
M  V30 5699 H 538.163 4.00455 1.66787 0
M  V30 5700 H 538.834 4.47444 3.23262 0
M  V30 5701 H 541.31 2.54839 3.28932 0
M  V30 5702 H 540.186 2.99962 4.59689 0
M  V30 5703 H 540.447 1.30291 4.22465 0
M  V30 5704 N 539.506 -0.963266 1.24736 0
M  V30 5705 C 540.736 -1.73913 1.11524 0
M  V30 5706 C 541.144 -1.86218 -0.334612 0
M  V30 5707 O 540.487 -1.3531 -1.24245 0
M  V30 5708 C 540.549 -3.17501 1.68622 0
M  V30 5709 C 540.213 -3.28655 3.17546 0
M  V30 5710 C 541.21 -3.13637 4.14642 0
M  V30 5711 C 538.895 -3.52753 3.5759 0
M  V30 5712 C 540.889 -3.2255 5.49764 0
M  V30 5713 C 538.576 -3.61303 4.92852 0
M  V30 5714 C 539.574 -3.46214 5.88748 0
M  V30 5715 O 539.262 -3.5443 7.2155 0
M  V30 5716 H 538.994 -0.552057 0.390139 0
M  V30 5717 H 541.548 -1.2177 1.65412 0
M  V30 5718 H 539.778 -3.70969 1.09172 0
M  V30 5719 H 541.467 -3.76914 1.50635 0
M  V30 5720 H 542.233 -2.94899 3.85045 0
M  V30 5721 H 538.112 -3.63561 2.83451 0
M  V30 5722 H 541.656 -3.1069 6.24594 0
M  V30 5723 H 537.553 -3.79556 5.22118 0
M  V30 5724 H 538.321 -3.71116 7.29531 0
M  V30 5725 N 540.985 -1.06182 -1.16461 0
M  V30 5726 C 541.933 -0.665716 -2.2287 0
M  V30 5727 C 542.927 0.317822 -1.66392 0
M  V30 5728 O 544.133 0.182807 -1.79069 0
M  V30 5729 H 540.508 -0.197148 -0.725697 0
M  V30 5730 H 542.479 -1.57307 -2.53569 0
M  V30 5731 C 541.228 -0.0669803 -3.47635 0
M  V30 5732 H 540.551 -0.814899 -3.91407 0
M  V30 5733 H 541.991 0.172669 -4.23648 0
M  V30 5734 C 540.45 1.18913 -3.15216 0
M  V30 5735 O 540.98 2.27723 -3.30916 0
M  V30 5736 N 539.186 1.09066 -2.69357 0
M  V30 5737 H 538.733 0.20518 -2.56782 0
M  V30 5738 H 538.691 1.93195 -2.48039 0
M  V30 5739 N 542.463 1.3308 -0.844243 0
M  V30 5740 C 543.711 1.97215 -0.441676 0
M  V30 5741 C 544.032 1.67185 1.0037 0
M  V30 5742 O 543.302 0.973588 1.69994 0
M  V30 5743 H 541.882 0.72959 -0.160335 0
M  V30 5744 H 544.544 1.62348 -1.07838 0
M  V30 5745 H 543.64 3.06698 -0.57815 0
M  V30 5746 N 543.941 0.601185 1.45683 0
M  V30 5747 C 544.873 -0.159446 2.28645 0
M  V30 5748 C 545.886 -0.837882 1.39583 0
M  V30 5749 O 547.075 -0.704344 1.64016 0
M  V30 5750 C 544.175 -1.24641 3.15147 0
M  V30 5751 C 543.348 -0.656334 4.32448 0
M  V30 5752 C 542.407 -1.63337 5.00208 0
M  V30 5753 O 541.433 -1.16217 5.57209 0
M  V30 5754 N 542.635 -2.96773 4.98905 0
M  V30 5755 H 545.4 0.5524 2.94565 0
M  V30 5756 H 542.961 0.440223 1.558 0
M  V30 5757 H 544.953 -1.8997 3.57342 0
M  V30 5758 H 543.523 -1.86087 2.51178 0
M  V30 5759 H 542.743 0.174879 3.93812 0
M  V30 5760 H 544.031 -0.242211 5.08223 0
M  V30 5761 H 543.429 -3.37662 4.53873 0
M  V30 5762 H 541.986 -3.57541 5.44984 0
M  V30 5763 N 545.419 -1.53889 0.339982 0
M  V30 5764 C 546.349 -2.27843 -0.510856 0
M  V30 5765 C 547.33 -1.29267 -1.10563 0
M  V30 5766 O 548.515 -1.58104 -1.12768 0
M  V30 5767 C 545.645 -3.04857 -1.66372 0
M  V30 5768 C 544.599 -4.10907 -1.19746 0
M  V30 5769 C 543.925 -4.75855 -2.43857 0
M  V30 5770 C 545.225 -5.21435 -0.300501 0
M  V30 5771 H 546.919 -2.99212 0.106067 0
M  V30 5772 H 544.465 -1.43904 0.0524533 0
M  V30 5773 H 546.418 -3.5533 -2.26537 0
M  V30 5774 H 545.142 -2.31133 -2.30749 0
M  V30 5775 H 543.801 -3.61342 -0.618654 0
M  V30 5776 H 543.449 -3.9873 -3.06633 0
M  V30 5777 H 543.149 -5.47502 -2.13343 0
M  V30 5778 H 544.673 -5.2911 -3.04754 0
M  V30 5779 H 546.087 -5.67565 -0.80889 0
M  V30 5780 H 544.484 -6.00036 -0.0874076 0
M  V30 5781 H 545.554 -4.80328 0.664321 0
M  V30 5782 N 546.897 -0.0685191 -1.57451 0
M  V30 5783 C 548.174 0.642167 -1.84758 0
M  V30 5784 C 548.554 1.87991 -0.960344 0
M  V30 5785 O 547.902 2.28485 -0.0257894 0
M  V30 5786 C 548.112 0.982946 -3.34872 0
M  V30 5787 C 549.46 1.35784 -4.02303 0
M  V30 5788 O 550.484 1.07477 -3.39598 0
M  V30 5789 O 549.343 1.88681 -5.12895 0
M  V30 5790 H 546.437 0.318625 -0.763156 0
M  V30 5791 H 548.983 -0.0992015 -1.6941 0
M  V30 5792 H 547.755 0.10372 -3.91163 0
M  V30 5793 H 547.378 1.78119 -3.55471 0
M  V30 5794 N 548.375 1.56261 0.205012 0
M  V30 5795 C 549.305 1.96779 1.257 0
M  V30 5796 C 550.286 0.838309 1.48008 0
M  V30 5797 O 551.471 1.10189 1.59913 0
M  V30 5798 C 548.601 2.29876 2.60335 0
M  V30 5799 C 547.555 3.45469 2.52656 0
M  V30 5800 C 546.881 3.64215 3.91473 0
M  V30 5801 C 548.181 4.79954 2.06014 0
M  V30 5802 H 549.875 2.84904 0.920338 0
M  V30 5803 H 547.421 1.37072 0.441277 0
M  V30 5804 H 549.374 2.56814 3.34102 0
M  V30 5805 H 548.098 1.38622 2.95722 0
M  V30 5806 H 546.757 3.18605 1.81345 0
M  V30 5807 H 546.405 2.70309 4.24196 0
M  V30 5808 H 546.105 4.41973 3.87213 0
M  V30 5809 H 547.629 3.93519 4.66878 0
M  V30 5810 H 549.043 5.05989 2.69533 0
M  V30 5811 H 547.44 5.61111 2.12777 0
M  V30 5812 H 548.51 4.74201 1.01297 0
M  V30 5813 N 549.853 -0.472356 1.50355 0
M  V30 5814 C 551.102 -1.2213 1.60522 0
M  V30 5815 C 551.415 -1.9312 0.310466 0
M  V30 5816 O 552.621 -2.69936 0.291029 0
M  V30 5817 C 551.077 -2.21909 2.83345 0
M  V30 5818 C 550.685 -1.56727 4.19691 0
M  V30 5819 C 552.429 -2.97453 3.02856 0
M  V30 5820 C 550.336 -2.54785 5.33703 0
M  V30 5821 H 549.266 -0.459543 0.597776 0
M  V30 5822 H 551.917 -0.491922 1.76783 0
M  V30 5823 H 550.299 -2.98133 2.60639 0
M  V30 5824 H 551.473 -0.863007 4.52646 0
M  V30 5825 H 549.788 -0.934685 4.05774 0
M  V30 5826 H 552.385 -3.70838 3.85205 0
M  V30 5827 H 552.728 -3.56764 2.14534 0
M  V30 5828 H 553.261 -2.28342 3.25737 0
M  V30 5829 H 550 -2.00214 6.24175 0
M  V30 5830 H 549.52 -3.23367 5.05167 0
M  V30 5831 H 551.199 -3.16639 5.64224 0
M  V30 5832 N 551.331 -1.39911 -0.725443 0
M  V30 5833 C 552.577 -1.37858 -1.48738 0
M  V30 5834 C 552.91 0.0224187 -1.94187 0
M  V30 5835 O 552.185 0.989204 -1.67466 0
M  V30 5836 C 552.468 -2.3594 -2.72038 0
M  V30 5837 C 552.321 -3.85023 -2.32546 0
M  V30 5838 C 553.64 -2.31704 -3.74167 0
M  V30 5839 H 550.759 -0.502074 -0.539528 0
M  V30 5840 H 553.401 -1.70974 -0.828728 0
M  V30 5841 H 551.551 -2.0783 -3.28236 0
M  V30 5842 H 553.223 -4.2392 -1.81905 0
M  V30 5843 H 551.466 -4.01334 -1.64661 0
M  V30 5844 H 552.137 -4.49152 -3.20884 0
M  V30 5845 H 554.613 -2.5658 -3.27576 0
M  V30 5846 H 553.489 -3.02395 -4.58092 0
M  V30 5847 H 553.75 -1.3253 -4.21768 0
M  V30 5848 N 552.809 0.956637 -1.25245 0
M  V30 5849 C 554.086 1.67716 -1.00651 0
M  V30 5850 C 554.466 2.0585 0.467866 0
M  V30 5851 O 553.814 1.77029 1.44475 0
M  V30 5852 C 554.024 2.90093 -1.94028 0
M  V30 5853 C 555.372 3.6209 -2.21756 0
M  V30 5854 O 556.396 3.00171 -1.9177 0
M  V30 5855 O 555.255 4.7358 -2.72735 0
M  V30 5856 H 552.349 0.733731 -0.381533 0
M  V30 5857 H 554.895 1.00974 -1.3639 0
M  V30 5858 H 553.667 2.58689 -2.93591 0
M  V30 5859 H 553.29 3.64566 -1.58674 0
M  V30 5860 N 554.287 1.06798 1.15896 0
M  V30 5861 C 555.515 0.808694 1.90441 0
M  V30 5862 C 555.93 -0.637506 1.77711 0
M  V30 5863 O 555.287 -1.43684 1.12522 0
M  V30 5864 C 555.338 1.20068 3.40978 0
M  V30 5865 O 555.059 2.59013 3.53333 0
M  V30 5866 C 556.56 0.96987 4.3256 0
M  V30 5867 H 553.78 0.292809 0.603742 0
M  V30 5868 H 556.324 1.42296 1.46874 0
M  V30 5869 H 554.479 0.630842 3.82229 0
M  V30 5870 H 554.893 2.7485 4.46719 0
M  V30 5871 H 556.367 1.29371 5.36626 0
M  V30 5872 H 556.844 -0.0941209 4.39099 0
M  V30 5873 H 557.45 1.52433 3.97044 0
M  V30 5874 N 555.766 -1.3263 0.851289 0
M  V30 5875 C 556.699 -2.26952 0.238318 0
M  V30 5876 C 557.677 -1.50243 -0.621757 0
M  V30 5877 O 558.861 -1.79378 -0.579298 0
M  V30 5878 C 555.988 -3.32124 -0.664178 0
M  V30 5879 C 555.034 -4.26325 0.122067 0
M  V30 5880 S 555.867 -5.14404 1.48824 0
M  V30 5881 C 557.023 -6.231 0.591372 0
M  V30 5882 H 557.256 -2.78594 1.03791 0
M  V30 5883 H 554.789 -1.4011 0.648731 0
M  V30 5884 H 556.747 -3.93197 -1.17924 0
M  V30 5885 H 555.408 -2.79273 -1.43755 0
M  V30 5886 H 554.601 -5.00821 -0.565181 0
M  V30 5887 H 554.203 -3.69652 0.568602 0
M  V30 5888 H 556.495 -6.77187 -0.205762 0
M  V30 5889 H 557.438 -6.95936 1.30687 0
M  V30 5890 H 557.846 -5.64252 0.167206 0
M  V30 5891 N 557.244 -0.608902 -1.45362 0
M  V30 5892 C 558.492 -0.104401 -2.0183 0
M  V30 5893 C 558.813 1.27007 -1.47967 0
M  V30 5894 O 558.083 1.83924 -0.674455 0
M  V30 5895 H 556.663 -0.0356042 -0.746151 0
M  V30 5896 H 559.325 -0.790596 -1.78145 0
M  V30 5897 H 558.421 -0.0551793 -3.12051 0
M  V30 5898 N 558.722 1.53707 -0.348139 0
M  V30 5899 C 559.654 2.22725 0.540946 0
M  V30 5900 C 560.667 1.2354 1.06027 0
M  V30 5901 O 561.856 1.49867 0.96964 0
M  V30 5902 C 558.956 2.89756 1.75768 0
M  V30 5903 C 558.129 4.15297 1.37285 0
M  V30 5904 C 557.188 4.65697 2.44976 0
M  V30 5905 O 556.214 5.29798 2.08092 0
M  V30 5906 N 557.416 4.42017 3.763 0
M  V30 5907 H 560.181 2.99658 -0.0501592 0
M  V30 5908 H 557.742 1.60979 -0.17248 0
M  V30 5909 H 559.734 3.20388 2.47252 0
M  V30 5910 H 558.304 2.16382 2.25605 0
M  V30 5911 H 557.524 3.9116 0.488584 0
M  V30 5912 H 558.812 4.96948 1.09179 0
M  V30 5913 H 558.21 3.9076 4.09051 0
M  V30 5914 H 556.767 4.77242 4.4394 0
M  V30 5915 N 560.2 0.0768682 1.57412 0
M  V30 5916 C 561.11 -0.903207 2.16516 0
M  V30 5917 C 562.126 -1.32341 1.12968 0
M  V30 5918 O 563.302 -1.39507 1.45258 0
M  V30 5919 C 560.367 -2.1508 2.71922 0
M  V30 5920 C 559.428 -1.78653 3.90361 0
M  V30 5921 C 558.661 -2.97465 4.43114 0
M  V30 5922 O 558.884 -4.11638 3.94854 0
M  V30 5923 O 557.818 -2.76987 5.3438 0
M  V30 5924 H 561.644 -0.430427 3.00634 0
M  V30 5925 H 559.229 -0.146485 1.4868 0
M  V30 5926 H 561.111 -2.8823 3.07411 0
M  V30 5927 H 559.786 -2.61446 1.9086 0
M  V30 5928 H 558.693 -1.0274 3.59716 0
M  V30 5929 H 560.026 -1.37066 4.7273 0
M  V30 5930 N 561.678 -1.56367 -0.196722 0
M  V30 5931 C 562.641 -1.93561 -1.22746 0
M  V30 5932 C 563.641 -0.816566 -1.38524 0
M  V30 5933 O 564.831 -1.084 -1.36363 0
M  V30 5934 C 561.963 -2.20823 -2.59712 0
M  V30 5935 H 563.156 -2.85774 -0.909586 0
M  V30 5936 H 560.709 -1.50032 -0.438174 0
M  V30 5937 H 561.444 -1.31243 -2.96557 0
M  V30 5938 H 561.229 -3.02368 -2.49632 0
M  V30 5939 H 562.719 -2.50608 -3.34044 0
M  V30 5940 N 563.156 0.464375 -1.50603 0
M  V30 5941 C 564.402 1.21485 -1.63135 0
M  V30 5942 C 564.757 1.89538 -0.33063 0
M  V30 5943 O 564.05 1.79432 0.671903 0
M  V30 5944 C 564.244 2.278 -2.75394 0
M  V30 5945 C 564.073 1.70178 -4.16257 0
M  V30 5946 C 562.843 1.49854 -4.82568 0
M  V30 5947 C 565.041 1.19298 -5.00272 0
M  V30 5948 N 563.023 0.875458 -6.07626 0
M  V30 5949 C 564.394 0.693527 -6.16109 0
M  V30 5950 C 566.449 1.08216 -4.85998 0
M  V30 5951 C 565.152 0.0941808 -7.19238 0
M  V30 5952 C 567.178 0.496745 -5.8931 0
M  V30 5953 C 566.54 0.00770448 -7.044 0
M  V30 5954 H 562.639 0.433184 -0.651057 0
M  V30 5955 H 565.223 0.515748 -1.87745 0
M  V30 5956 H 563.394 2.95129 -2.52495 0
M  V30 5957 H 565.126 2.94814 -2.77249 0
M  V30 5958 H 561.881 1.75269 -4.39975 0
M  V30 5959 H 562.305 0.582135 -6.74493 0
M  V30 5960 H 566.947 1.44617 -3.97298 0
M  V30 5961 H 564.665 -0.28202 -8.07608 0
M  V30 5962 H 568.251 0.413275 -5.8033 0
M  V30 5963 H 567.131 -0.438188 -7.82975 0
M  V30 5964 N 564.634 1.40294 0.718013 0
M  V30 5965 C 565.88 1.38645 1.48005 0
M  V30 5966 C 566.213 -0.0121202 1.94196 0
M  V30 5967 O 565.488 -0.980309 1.67989 0
M  V30 5968 C 565.771 2.37379 2.70782 0
M  V30 5969 C 565.624 3.8625 2.30501 0
M  V30 5970 C 566.943 2.33685 3.72933 0
M  V30 5971 H 564.062 0.504928 0.536858 0
M  V30 5972 H 566.704 1.71411 0.819649 0
M  V30 5973 H 564.854 2.09568 3.27129 0
M  V30 5974 H 566.526 4.24879 1.79655 0
M  V30 5975 H 564.769 4.02202 1.6253 0
M  V30 5976 H 565.44 4.50847 3.18498 0
M  V30 5977 H 567.916 2.58314 3.2621 0
M  V30 5978 H 566.792 3.0482 4.56482 0
M  V30 5979 H 567.053 1.34765 4.21059 0
M  V30 5980 N 566.112 -0.949982 1.2575 0
M  V30 5981 C 567.528 -1.22191 1.02672 0
M  V30 5982 C 567.728 -1.99898 -0.253588 0
M  V30 5983 O 566.784 -2.33329 -0.965076 0
M  V30 5984 C 568.097 -1.99175 2.25277 0
M  V30 5985 C 569.645 -2.12201 2.30087 0
M  V30 5986 C 570.12 -2.92586 3.5236 0
M  V30 5987 N 571.611 -3.00163 3.52784 0
M  V30 5988 C 572.346 -3.62766 4.44059 0
M  V30 5989 N 571.842 -4.26943 5.45611 0
M  V30 5990 N 573.635 -3.59953 4.3173 0
M  V30 5991 H 565.786 -0.430258 2.07996 0
M  V30 5992 H 568.049 -0.252844 0.91366 0
M  V30 5993 H 567.755 -1.49479 3.18354 0
M  V30 5994 H 567.629 -2.99868 2.28821 0
M  V30 5995 H 570.016 -2.61093 1.3753 0
M  V30 5996 H 570.097 -1.10799 2.30559 0
M  V30 5997 H 569.741 -2.44383 4.45241 0
M  V30 5998 H 569.671 -3.94224 3.49134 0
M  V30 5999 H 572.162 -2.54529 2.79327 0
M  V30 6000 H 572.475 -4.72583 6.11461 0
M  V30 6001 H 570.82 -4.25557 5.49478 0
M  V30 6002 H 574.011 -3.09003 3.51617 0
M  V30 6003 H 574.184 -4.08455 5.03059 0
M  V30 6004 N 567.59 -1.07411 -1.15328 0
M  V30 6005 C 568.537 -0.694995 -2.20087 0
M  V30 6006 C 569.507 0.313904 -1.63107 0
M  V30 6007 O 570.692 0.200216 -1.89747 0
M  V30 6008 C 567.832 -0.0996218 -3.44956 0
M  V30 6009 C 566.945 -1.16007 -4.16133 0
M  V30 6010 C 566.08 -0.529636 -5.28553 0
M  V30 6011 C 565.119 -1.57283 -5.91548 0
M  V30 6012 N 564.256 -0.964932 -6.95438 0
M  V30 6013 H 569.096 -1.5927 -2.51867 0
M  V30 6014 H 566.633 -0.796115 -1.23695 0
M  V30 6015 H 568.591 0.263197 -4.16369 0
M  V30 6016 H 567.221 0.761435 -3.13691 0
M  V30 6017 H 566.273 -1.64045 -3.4321 0
M  V30 6018 H 567.585 -1.95101 -4.59061 0
M  V30 6019 H 566.739 -0.114487 -6.06592 0
M  V30 6020 H 565.478 0.29307 -4.86819 0
M  V30 6021 H 564.483 -1.99775 -5.12221 0
M  V30 6022 H 565.708 -2.39783 -6.35359 0
M  V30 6023 H 563.654 -0.16314 -6.55797 0
M  V30 6024 H 563.571 -1.69311 -7.36797 0
M  V30 6025 H 564.839 -0.575305 -7.77374 0
M  V30 6026 N 569.068 1.32177 -0.85831 0
M  V30 6027 C 569.998 2.31282 -0.321041 0
M  V30 6028 C 570.979 1.59841 0.581786 0
M  V30 6029 O 572.164 1.87619 0.501262 0
M  V30 6030 C 569.294 3.4385 0.48832 0
M  V30 6031 C 568.248 4.26799 -0.320391 0
M  V30 6032 C 567.574 5.31164 0.613934 0
M  V30 6033 C 568.874 4.98829 -1.54813 0
M  V30 6034 H 570.568 2.76469 -1.14915 0
M  V30 6035 H 568.114 1.32916 -0.554028 0
M  V30 6036 H 570.067 4.12224 0.874626 0
M  V30 6037 H 568.791 2.97401 1.34983 0
M  V30 6038 H 567.45 3.60077 -0.688497 0
M  V30 6039 H 567.098 4.80967 1.47239 0
M  V30 6040 H 566.798 5.8755 0.0768097 0
M  V30 6041 H 568.322 6.024 0.997336 0
M  V30 6042 H 569.736 5.59864 -1.23392 0
M  V30 6043 H 568.133 5.64957 -2.02346 0
M  V30 6044 H 569.203 4.26483 -2.30739 0
M  V30 6045 N 570.547 0.616602 1.45037 0
M  V30 6046 C 571.494 -0.0969439 2.30596 0
M  V30 6047 C 572.464 -0.851151 1.42635 0
M  V30 6048 O 573.649 -0.835092 1.71554 0
M  V30 6049 C 570.789 -1.08234 3.27688 0
M  V30 6050 C 569.902 -0.328072 4.30752 0
M  V30 6051 C 569.037 -1.30399 5.14946 0
M  V30 6052 C 568.076 -0.538049 6.09731 0
M  V30 6053 N 567.213 -1.46371 6.86673 0
M  V30 6054 H 572.053 0.63864 2.91076 0
M  V30 6055 H 569.59 0.326733 1.43425 0
M  V30 6056 H 571.548 -1.66688 3.82454 0
M  V30 6057 H 570.178 -1.78523 2.68941 0
M  V30 6058 H 569.23 0.372136 3.78575 0
M  V30 6059 H 570.542 0.269142 4.98073 0
M  V30 6060 H 569.696 -1.96032 5.74157 0
M  V30 6061 H 568.435 -1.93514 4.47665 0
M  V30 6062 H 567.44 0.131852 5.49642 0
M  V30 6063 H 568.665 0.0881732 6.79043 0
M  V30 6064 H 566.611 -2.08233 6.22073 0
M  V30 6065 H 566.528 -0.920152 7.50379 0
M  V30 6066 H 567.796 -2.10932 7.50418 0
M  V30 6067 N 572.025 -1.5352 0.356285 0
M  V30 6068 C 573.271 -2.02104 -0.229271 0
M  V30 6069 C 573.626 -1.23923 -1.47176 0
M  V30 6070 O 572.919 -0.321957 -1.88876 0
M  V30 6071 C 573.113 -3.52607 -0.583369 0
M  V30 6072 C 572.942 -4.4536 0.623253 0
M  V30 6073 C 571.712 -4.92446 1.13248 0
M  V30 6074 C 573.91 -4.92375 1.48563 0
M  V30 6075 N 571.892 -5.69183 2.3001 0
M  V30 6076 C 573.263 -5.67362 2.50001 0
M  V30 6077 C 575.318 -4.74464 1.50959 0
M  V30 6078 C 574.021 -6.26341 3.5368 0
M  V30 6079 C 576.047 -5.34302 2.53526 0
M  V30 6080 C 575.409 -6.09166 3.53688 0
M  V30 6081 H 571.508 -0.780595 -0.0468602 0
M  V30 6082 H 574.092 -1.88204 0.49873 0
M  V30 6083 H 572.263 -3.66686 -1.28046 0
M  V30 6084 H 573.995 -3.87922 -1.15321 0
M  V30 6085 H 570.75 -4.6842 0.698562 0
M  V30 6086 H 571.174 -6.12216 2.88998 0
M  V30 6087 H 575.816 -4.16117 0.748785 0
M  V30 6088 H 573.534 -6.8379 4.30648 0
M  V30 6089 H 577.12 -5.22342 2.56223 0
M  V30 6090 H 576 -6.54644 4.31753 0
M  V30 6091 N 573.503 -0.0852151 -1.57369 0
M  V30 6092 C 574.914 0.445428 -1.81309 0
M  V30 6093 C 575.265 1.68795 -1.00013 0
M  V30 6094 O 574.39 2.15211 -0.226573 0
M  V30 6095 C 574.985 0.814887 -3.28854 0
M  V30 6096 C 573.544 1.29032 -3.53592 0
M  V30 6097 C 572.691 0.282089 -2.75861 0
M  V30 6098 H 575.642 -0.310771 -1.55627 0
M  V30 6099 H 575.663 1.67524 -3.41637 0
M  V30 6100 H 575.175 -0.0896309 -3.87996 0
M  V30 6101 H 573.276 2.21289 -2.9977 0
M  V30 6102 H 573.389 1.25898 -4.62262 0
M  V30 6103 H 571.753 0.762182 -2.43029 0
M  V30 6104 H 572.536 -0.614936 -3.37748 0
M  V30 6105 N 574.981 1.5647 0.188427 0
M  V30 6106 C 575.891 1.98285 1.2538 0
M  V30 6107 C 576.907 0.891535 1.49424 0
M  V30 6108 O 578.083 1.19782 1.61908 0
M  V30 6109 C 575.148 2.31965 2.57669 0
M  V30 6110 C 574.209 3.54838 2.41638 0
M  V30 6111 C 573.442 3.86901 3.67618 0
M  V30 6112 O 573.665 3.20163 4.72072 0
M  V30 6113 O 572.599 4.80309 3.62749 0
M  V30 6114 H 576.425 2.89145 0.928912 0
M  V30 6115 H 574.01 1.44112 0.393955 0
M  V30 6116 H 575.892 2.54673 3.35737 0
M  V30 6117 H 574.567 1.44271 2.89771 0
M  V30 6118 H 573.474 3.37369 1.61658 0
M  V30 6119 H 574.807 4.43019 2.14465 0
M  V30 6120 N 576.459 -0.456382 1.50847 0
M  V30 6121 C 577.389 -1.56025 1.73719 0
M  V30 6122 C 578.37 -1.5967 0.586473 0
M  V30 6123 O 579.555 -1.75702 0.827185 0
M  V30 6124 C 576.685 -2.94251 1.84483 0
M  V30 6125 C 575.639 -3.05471 2.99786 0
M  V30 6126 C 574.965 -4.45489 2.95709 0
M  V30 6127 C 576.265 -2.81318 4.40065 0
M  V30 6128 H 577.959 -1.37138 2.66146 0
M  V30 6129 H 575.505 -0.658299 1.28072 0
M  V30 6130 H 577.458 -3.71417 1.99067 0
M  V30 6131 H 576.182 -3.14328 0.886891 0
M  V30 6132 H 574.841 -2.30741 2.84876 0
M  V30 6133 H 574.489 -4.62505 1.97732 0
M  V30 6134 H 574.189 -4.53929 3.73125 0
M  V30 6135 H 575.713 -5.24655 3.12362 0
M  V30 6136 H 577.127 -3.48226 4.55425 0
M  V30 6137 H 575.524 -3.01188 5.19043 0
M  V30 6138 H 576.594 -1.7706 4.51418 0
M  V30 6139 N 577.937 -1.40673 -0.710563 0
M  V30 6140 C 579.348 -1.34975 -1.28991 0
M  V30 6141 C 579.699 -0.0256272 -1.96183 0
M  V30 6142 O 578.824 0.876339 -1.97862 0
M  V30 6143 C 579.419 -2.44467 -2.34567 0
M  V30 6144 C 577.978 -2.42213 -2.88114 0
M  V30 6145 C 577.125 -2.25085 -1.61963 0
M  V30 6146 H 580.076 -1.50406 -0.506343 0
M  V30 6147 H 580.097 -2.12663 -3.15523 0
M  V30 6148 H 579.609 -3.40825 -1.85634 0
M  V30 6149 H 577.71 -1.49568 -3.41263 0
M  V30 6150 H 577.823 -3.37983 -3.39565 0
M  V30 6151 H 576.187 -1.72691 -1.87216 0
M  V30 6152 H 576.97 -3.23449 -1.15047 0
M  V30 6153 N 579.415 0.9433 -1.26252 0
M  V30 6154 C 580.362 2.0417 -1.07625 0
M  V30 6155 C 581.332 1.6609 0.0180738 0
M  V30 6156 O 582.517 1.90276 -0.141289 0
M  V30 6157 C 579.657 3.37653 -0.713043 0
M  V30 6158 C 578.77 3.88783 -1.8834 0
M  V30 6159 C 577.905 5.10642 -1.4635 0
M  V30 6160 C 576.944 5.54028 -2.60229 0
M  V30 6161 N 576.081 6.67092 -2.18936 0
M  V30 6162 H 580.921 2.19436 -2.01623 0
M  V30 6163 H 578.458 1.07519 -1.00389 0
M  V30 6164 H 580.416 4.14391 -0.483358 0
M  V30 6165 H 579.046 3.22241 0.18996 0
M  V30 6166 H 578.098 3.08464 -2.22608 0
M  V30 6167 H 579.41 4.16922 -2.73821 0
M  V30 6168 H 578.564 5.94832 -1.19414 0
M  V30 6169 H 577.303 4.84244 -0.579568 0
M  V30 6170 H 576.308 4.68396 -2.87898 0
M  V30 6171 H 577.533 5.82429 -3.49219 0
M  V30 6172 H 575.479 6.42381 -1.32974 0
M  V30 6173 H 575.396 6.94806 -2.97961 0
M  V30 6174 H 576.664 7.54662 -1.95206 0
M  V30 6175 N 580.893 1.08022 1.14757 0
M  V30 6176 C 582.14 0.807509 1.85703 0
M  V30 6177 C 582.468 -0.666617 1.8272 0
M  V30 6178 O 581.723 -1.50562 1.25018 0
M  V30 6179 C 582.022 1.26964 3.34088 0
M  V30 6180 C 581.688 2.7509 3.57262 0
M  V30 6181 C 580.35 3.15547 3.63296 0
M  V30 6182 C 582.702 3.70667 3.66409 0
M  V30 6183 C 580.03 4.50384 3.75994 0
M  V30 6184 C 582.382 5.05274 3.80632 0
M  V30 6185 C 581.046 5.45342 3.84913 0
M  V30 6186 H 580.316 0.295488 0.679535 0
M  V30 6187 H 582.963 1.35245 1.35577 0
M  V30 6188 H 581.268 0.644216 3.86467 0
M  V30 6189 H 582.965 1.03544 3.87401 0
M  V30 6190 H 579.555 2.42775 3.53212 0
M  V30 6191 H 583.739 3.40533 3.61041 0
M  V30 6192 H 578.995 4.80886 3.77569 0
M  V30 6193 H 583.169 5.79201 3.86652 0
M  V30 6194 H 580.796 6.49823 3.94505 0
M  V30 6195 N 582.371 -1.3172 0.865308 0
M  V30 6196 C 583.596 -2.01591 0.487415 0
M  V30 6197 C 584.021 -1.6455 -0.911307 0
M  V30 6198 O 583.379 -0.851689 -1.6005 0
M  V30 6199 C 583.427 -3.54759 0.646401 0
M  V30 6200 O 582.531 -4.11185 -0.316284 0
M  V30 6201 H 581.872 -0.634884 0.194468 0
M  V30 6202 H 584.402 -1.68024 1.16744 0
M  V30 6203 H 584.412 -4.04438 0.537932 0
M  V30 6204 H 583.087 -3.8106 1.66632 0
M  V30 6205 H 581.664 -3.72543 -0.163162 0
M  V30 6206 N 583.85 -0.624285 -1.44708 0
M  V30 6207 C 584.782 0.12305 -2.28869 0
M  V30 6208 C 585.795 0.81557 -1.40898 0
M  V30 6209 O 586.984 0.678162 -1.65116 0
M  V30 6210 C 584.084 1.19612 -3.1709 0
M  V30 6211 C 583.257 0.587452 -4.33437 0
M  V30 6212 C 582.316 1.55358 -5.02743 0
M  V30 6213 O 581.341 1.07338 -5.58988 0
M  V30 6214 N 582.543 2.88798 -5.03563 0
M  V30 6215 H 585.308 -0.599193 -2.93649 0
M  V30 6216 H 582.87 -0.464954 -1.5508 0
M  V30 6217 H 584.861 1.84261 -3.60319 0
M  V30 6218 H 583.432 1.82067 -2.54107 0
M  V30 6219 H 582.652 -0.237509 -3.93484 0
M  V30 6220 H 583.94 0.161326 -5.08544 0
M  V30 6221 H 583.338 3.30399 -4.59188 0
M  V30 6222 H 581.894 3.48826 -5.50603 0
M  V30 6223 N 585.328 1.53329 -0.364422 0
M  V30 6224 C 586.258 2.28627 0.474543 0
M  V30 6225 C 587.239 1.31009 1.08492 0
M  V30 6226 O 588.424 1.59878 1.10239 0
M  V30 6227 C 585.554 3.07465 1.61501 0
M  V30 6228 C 584.508 4.1276 1.13194 0
M  V30 6229 C 583.834 4.79674 2.36255 0
M  V30 6230 C 585.134 5.21847 0.217507 0
M  V30 6231 H 586.828 2.99005 -0.153656 0
M  V30 6232 H 584.374 1.43803 -0.0753406 0
M  V30 6233 H 586.327 3.58889 2.20855 0
M  V30 6234 H 585.051 2.34775 2.27042 0
M  V30 6235 H 583.71 3.62281 0.56109 0
M  V30 6236 H 583.358 4.03557 3.00251 0
M  V30 6237 H 583.058 5.50827 2.04606 0
M  V30 6238 H 584.582 5.33892 2.96297 0
M  V30 6239 H 585.996 5.6878 0.718493 0
M  V30 6240 H 584.393 6.00099 -0.00806408 0
M  V30 6241 H 585.463 4.7921 -0.740653 0
M  V30 6242 N 586.806 0.0935595 1.57322 0
M  V30 6243 C 587.753 -0.865935 2.1394 0
M  V30 6244 C 588.723 -1.28083 1.05754 0
M  V30 6245 O 589.908 -1.36285 1.33533 0
M  V30 6246 C 587.048 -2.12023 2.72287 0
M  V30 6247 C 586.161 -1.756 3.94701 0
M  V30 6248 C 585.296 -2.95804 4.41218 0
M  V30 6249 C 584.335 -2.555 5.56225 0
M  V30 6250 N 583.472 -3.68534 5.97601 0
M  V30 6251 H 588.312 -0.376261 2.95615 0
M  V30 6252 H 585.849 -0.174052 1.46067 0
M  V30 6253 H 587.807 -2.85477 3.04235 0
M  V30 6254 H 586.437 -2.58492 1.93343 0
M  V30 6255 H 585.489 -0.921208 3.69077 0
M  V30 6256 H 586.801 -1.41964 4.78171 0
M  V30 6257 H 585.955 -3.77513 4.74941 0
M  V30 6258 H 584.694 -3.32649 3.56645 0
M  V30 6259 H 583.699 -1.72218 5.22131 0
M  V30 6260 H 584.924 -2.19801 6.42545 0
M  V30 6261 H 582.87 -4.051 5.15974 0
M  V30 6262 H 582.787 -3.38737 6.75865 0
M  V30 6263 H 584.055 -4.50757 6.35955 0
M  V30 6264 N 588.284 -1.56567 -0.180126 0
M  V30 6265 C 589.53 -1.82658 -0.894859 0
M  V30 6266 C 589.885 -0.672826 -1.80252 0
M  V30 6267 O 589.178 0.331227 -1.88715 0
M  V30 6268 C 589.372 -3.1252 -1.73395 0
M  V30 6269 C 589.201 -4.40417 -0.909028 0
M  V30 6270 C 587.971 -5.01872 -0.587562 0
M  V30 6271 C 590.169 -5.13669 -0.254698 0
M  V30 6272 N 588.151 -6.13373 0.254428 0
M  V30 6273 C 589.522 -6.18373 0.448837 0
M  V30 6274 C 591.577 -4.97603 -0.171958 0
M  V30 6275 C 590.28 -7.08753 1.22725 0
M  V30 6276 C 592.306 -5.88418 0.593101 0
M  V30 6277 C 591.668 -6.92579 1.28503 0
M  V30 6278 H 587.767 -0.719493 -0.306356 0
M  V30 6279 H 590.351 -1.94021 -0.16247 0
M  V30 6280 H 588.522 -3.02365 -2.43783 0
M  V30 6281 H 590.254 -3.2664 -2.38931 0
M  V30 6282 H 587.009 -4.64666 -0.915557 0
M  V30 6283 H 587.433 -6.73721 0.665474 0
M  V30 6284 H 592.075 -4.17089 -0.692555 0
M  V30 6285 H 589.793 -7.88718 1.75923 0
M  V30 6286 H 593.379 -5.78059 0.658674 0
M  V30 6287 H 592.259 -7.61638 1.86754 0
M  V30 6288 N 589.762 0.448376 -1.51087 0
M  V30 6289 C 590.709 1.54341 -1.71603 0
M  V30 6290 C 591.679 1.56463 -0.557536 0
M  V30 6291 O 592.864 1.73644 -0.79072 0
M  V30 6292 C 590.004 2.92148 -1.83695 0
M  V30 6293 C 589.117 2.99639 -3.11192 0
M  V30 6294 C 588.252 4.285 -3.13944 0
M  V30 6295 C 587.291 4.29819 -4.35801 0
M  V30 6296 N 586.428 5.50186 -4.36164 0
M  V30 6297 H 591.268 1.36151 -2.65079 0
M  V30 6298 H 588.805 0.661585 -1.31383 0
M  V30 6299 H 590.763 3.72093 -1.88687 0
M  V30 6300 H 589.393 3.0892 -0.936374 0
M  V30 6301 H 588.445 2.12425 -3.15562 0
M  V30 6302 H 589.757 2.96474 -4.01129 0
M  V30 6303 H 588.911 5.16811 -3.17791 0
M  V30 6304 H 587.65 4.34307 -2.21876 0
M  V30 6305 H 586.655 3.39902 -4.32142 0
M  V30 6306 H 587.88 4.25685 -5.29121 0
M  V30 6307 H 585.826 5.56735 -3.46961 0
M  V30 6308 H 585.743 5.48856 -5.19897 0
M  V30 6309 H 587.011 6.40559 -4.44189 0
M  V30 6310 N 591.24 1.41047 0.703093 0
M  V30 6311 C 592.203 1.42036 1.79884 0
M  V30 6312 C 593.203 0.312153 1.57741 0
M  V30 6313 O 594.393 0.571672 1.64553 0
M  V30 6314 C 591.525 1.22437 3.18154 0
M  V30 6315 H 592.718 2.39572 1.80403 0
M  V30 6316 H 590.271 1.27079 0.909977 0
M  V30 6317 H 591.006 0.257112 3.23279 0
M  V30 6318 H 590.791 2.02723 3.35627 0
M  V30 6319 H 592.281 1.25946 3.98155 0
M  V30 6320 N 592.718 -0.936591 1.26751 0
M  V30 6321 C 593.648 -2.05315 1.11212 0
M  V30 6322 C 594.629 -1.70092 0.0160262 0
M  V30 6323 O 595.814 -1.93279 0.188894 0
M  V30 6324 C 592.944 -3.39123 0.749171 0
M  V30 6325 C 591.898 -3.88425 1.79751 0
M  V30 6326 C 591.224 -5.18936 1.28876 0
M  V30 6327 C 592.524 -4.12798 3.19992 0
M  V30 6328 H 594.218 -2.18573 2.04613 0
M  V30 6329 H 591.764 -1.05027 0.985159 0
M  V30 6330 H 593.717 -4.16704 0.627323 0
M  V30 6331 H 592.441 -3.25855 -0.220543 0
M  V30 6332 H 591.1 -3.13028 1.90811 0
M  V30 6333 H 590.748 -5.02051 0.308757 0
M  V30 6334 H 590.448 -5.52892 1.98958 0
M  V30 6335 H 591.972 -5.99096 1.17967 0
M  V30 6336 H 593.386 -4.80977 3.11983 0
M  V30 6337 H 591.783 -4.58044 3.87705 0
M  V30 6338 H 592.853 -3.18412 3.65707 0
M  V30 6339 N 594.196 -1.08629 -1.14182 0
M  V30 6340 C 595.426 -0.837673 -1.88856 0
M  V30 6341 C 595.834 0.614024 -1.78959 0
M  V30 6342 O 595.177 1.43384 -1.14833 0
M  V30 6343 C 595.239 -1.18355 -3.39459 0
M  V30 6344 C 594.903 -2.63848 -3.73139 0
M  V30 6345 C 595.9 -3.62099 -3.73069 0
M  V30 6346 C 593.585 -2.99761 -4.03049 0
M  V30 6347 C 595.579 -4.94292 -4.02435 0
M  V30 6348 C 593.266 -4.32147 -4.32078 0
M  V30 6349 C 594.264 -5.29223 -4.31755 0
M  V30 6350 O 593.952 -6.59229 -4.60079 0
M  V30 6351 H 593.684 -0.301609 -0.604986 0
M  V30 6352 H 596.238 -1.44961 -1.45518 0
M  V30 6353 H 594.468 -0.514628 -3.8326 0
M  V30 6354 H 596.157 -0.915391 -3.95443 0
M  V30 6355 H 596.923 -3.35698 -3.50046 0
M  V30 6356 H 592.802 -2.2484 -4.02453 0
M  V30 6357 H 596.346 -5.70055 -4.02098 0
M  V30 6358 H 592.243 -4.58296 -4.54571 0
M  V30 6359 H 593.011 -6.64578 -4.77785 0
M  V30 6360 N 595.674 1.31259 -0.872281 0
M  V30 6361 C 596.899 2.0133 -0.498099 0
M  V30 6362 C 597.324 1.65031 0.902568 0
M  V30 6363 O 596.682 0.860164 1.59596 0
M  V30 6364 C 596.73 3.54411 -0.665205 0
M  V30 6365 O 595.834 4.11347 0.294473 0
M  V30 6366 H 595.175 0.633844 -0.197832 0
M  V30 6367 H 597.705 1.67402 -1.17633 0
M  V30 6368 H 597.715 4.04147 -0.559373 0
M  V30 6369 H 596.39 3.80171 -1.68651 0
M  V30 6370 H 594.967 3.72624 0.143403 0
M  V30 6371 N 597.152 0.631951 1.44375 0
M  V30 6372 C 598.429 0.067646 1.95483 0
M  V30 6373 C 598.809 -1.40683 1.57389 0
M  V30 6374 O 598.157 -2.12167 0.848375 0
M  V30 6375 C 598.367 0.291392 3.47781 0
M  V30 6376 C 599.715 0.185028 4.24197 0
M  V30 6377 O 600.739 0.222803 3.55503 0
M  V30 6378 O 599.598 0.0906642 5.46425 0
M  V30 6379 H 596.692 -0.0218379 0.826712 0
M  V30 6380 H 599.238 0.703711 1.54421 0
M  V30 6381 H 598.01 1.31449 3.68561 0
M  V30 6382 H 597.633 -0.378772 3.95792 0
M  V30 6383 N 598.631 -1.53133 0.372548 0
M  V30 6384 C 600.042 -1.86404 -0.105155 0
M  V30 6385 C 600.393 -1.29289 -1.47576 0
M  V30 6386 O 599.518 -0.617646 -2.07398 0
M  V30 6387 C 600.113 -3.38223 -0.197588 0
M  V30 6388 C 598.672 -3.71266 -0.619556 0
M  V30 6389 C 597.819 -2.76353 0.228919 0
M  V30 6390 H 600.77 -1.47282 0.591077 0
M  V30 6391 H 600.791 -3.66577 -1.01987 0
M  V30 6392 H 600.303 -3.79763 0.800099 0
M  V30 6393 H 598.404 -3.35287 -1.62522 0
M  V30 6394 H 598.517 -4.77515 -0.389332 0
M  V30 6395 H 596.881 -2.52888 -0.303271 0
M  V30 6396 H 597.664 -3.20728 1.22428 0
M  V30 6397 N 600.109 -0.101901 -1.5727 0
M  V30 6398 C 601.056 0.854577 -2.14396 0
M  V30 6399 C 602.026 1.27521 -1.06432 0
M  V30 6400 O 603.211 1.35575 -1.34253 0
M  V30 6401 C 600.351 2.10576 -2.73408 0
M  V30 6402 C 599.464 1.73504 -3.95626 0
M  V30 6403 C 598.599 2.9346 -4.42781 0
M  V30 6404 C 597.638 2.52547 -5.57572 0
M  V30 6405 N 596.775 3.65359 -5.99547 0
M  V30 6406 H 601.615 0.360578 -2.9581 0
M  V30 6407 H 599.152 0.166303 -1.46157 0
M  V30 6408 H 601.11 2.83859 -3.05745 0
M  V30 6409 H 599.74 2.57463 -1.94711 0
M  V30 6410 H 598.792 0.901622 -3.6956 0
M  V30 6411 H 600.104 1.39426 -4.78917 0
M  V30 6412 H 599.258 3.74988 -4.76937 0
M  V30 6413 H 597.997 3.30753 -3.58404 0
M  V30 6414 H 597.002 1.69446 -5.23037 0
M  V30 6415 H 598.227 2.1639 -6.43702 0
M  V30 6416 H 596.173 4.02358 -5.18116 0
M  V30 6417 H 596.09 3.35148 -6.77652 0
M  V30 6418 H 597.358 4.47378 -6.38336 0
M  V30 6419 N 601.587 1.56661 0.17182 0
M  V30 6420 C 602.812 1.86459 0.908165 0
M  V30 6421 C 603.237 0.688181 1.75059 0
M  V30 6422 O 602.595 -0.362753 1.77634 0
M  V30 6423 C 602.643 3.14669 1.76112 0
M  V30 6424 O 601.747 2.96858 2.86268 0
M  V30 6425 H 601.088 0.613318 0.254434 0
M  V30 6426 H 603.618 2.03892 0.170113 0
M  V30 6427 H 603.628 3.46061 2.16115 0
M  V30 6428 H 602.303 3.99905 1.14233 0
M  V30 6429 H 600.88 2.76819 2.49852 0
M  V30 6430 N 603.065 -0.440357 1.51323 0
M  V30 6431 C 603.995 -1.54174 1.75364 0
M  V30 6432 C 604.976 -1.59039 0.603375 0
M  V30 6433 O 606.161 -1.74815 0.845774 0
M  V30 6434 C 603.291 -2.92277 1.87593 0
M  V30 6435 C 602.245 -3.02274 3.03009 0
M  V30 6436 C 601.571 -4.42327 3.00418 0
M  V30 6437 C 602.871 -2.76634 4.43024 0
M  V30 6438 H 604.565 -1.34307 2.67585 0
M  V30 6439 H 602.111 -0.644678 1.28763 0
M  V30 6440 H 604.064 -3.69284 2.02995 0
M  V30 6441 H 602.788 -3.13369 0.920179 0
M  V30 6442 H 601.447 -2.27706 2.87307 0
M  V30 6443 H 601.095 -4.60382 2.02626 0
M  V30 6444 H 600.795 -4.49946 3.77918 0
M  V30 6445 H 602.319 -5.21312 3.17909 0
M  V30 6446 H 603.733 -3.43376 4.59093 0
M  V30 6447 H 602.13 -2.95666 5.22208 0
M  V30 6448 H 603.2 -1.72262 4.5327 0
M  V30 6449 N 604.543 -1.41418 -0.695603 0
M  V30 6450 C 605.453 -1.45622 -1.83933 0
M  V30 6451 C 606.469 -0.346825 -1.70508 0
M  V30 6452 O 607.645 -0.59454 -1.92424 0
M  V30 6453 C 604.71 -1.33627 -3.19914 0
M  V30 6454 C 603.771 -2.54882 -3.45447 0
M  V30 6455 C 603.004 -2.43449 -4.7494 0
M  V30 6456 O 603.227 -1.45905 -5.51424 0
M  V30 6457 O 602.161 -3.33206 -5.01256 0
M  V30 6458 H 605.987 -2.42114 -1.83342 0
M  V30 6459 H 603.572 -1.22956 -0.848658 0
M  V30 6460 H 605.454 -1.29221 -4.01098 0
M  V30 6461 H 604.129 -0.402508 -3.21188 0
M  V30 6462 H 603.036 -2.64865 -2.64192 0
M  V30 6463 H 604.369 -3.47087 -3.48987 0
M  V30 6464 N 606.021 0.929856 -1.27246 0
M  V30 6465 C 607.249 1.71144 -1.16265 0
M  V30 6466 C 607.664 1.867 0.280786 0
M  V30 6467 O 607.021 1.38249 1.19136 0
M  V30 6468 C 607.072 3.11222 -1.83911 0
M  V30 6469 O 606.793 2.96398 -3.22614 0
M  V30 6470 C 608.294 4.05541 -1.79028 0
M  V30 6471 H 605.514 0.535499 -0.404328 0
M  V30 6472 H 608.058 1.16492 -1.68077 0
M  V30 6473 H 606.213 3.6274 -1.36009 0
M  V30 6474 H 606.627 3.8494 -3.56261 0
M  V30 6475 H 608.101 5.01351 -2.30978 0
M  V30 6476 H 608.578 4.32589 -0.759168 0
M  V30 6477 H 609.184 3.59947 -2.26535 0
M  V30 6478 N 607.499 1.09233 1.13605 0
M  V30 6479 C 608.724 0.849067 1.89224 0
M  V30 6480 C 609.149 -0.593875 1.78479 0
M  V30 6481 O 608.507 -1.41703 1.13092 0
M  V30 6482 C 608.555 1.28642 3.36873 0
M  V30 6483 O 607.659 0.44363 4.10007 0
M  V30 6484 H 607 0.30767 0.588417 0
M  V30 6485 H 609.53 1.45595 1.43748 0
M  V30 6486 H 609.54 1.27096 3.87699 0
M  V30 6487 H 608.215 2.33729 3.44011 0
M  V30 6488 H 606.792 0.523241 3.69211 0
M  V30 6489 N 608.977 -1.30795 0.87923 0
M  V30 6490 C 609.94 -2.26563 0.346676 0
M  V30 6491 C 610.94 -1.52578 -0.507597 0
M  V30 6492 O 612.13 -1.71318 -0.315575 0
M  V30 6493 C 609.262 -3.37115 -0.506611 0
M  V30 6494 H 610.455 -2.75183 1.19223 0
M  V30 6495 H 608.008 -1.41886 0.655598 0
M  V30 6496 H 608.743 -2.93802 -1.37299 0
M  V30 6497 H 608.528 -3.91959 0.105218 0
M  V30 6498 H 610.018 -4.08412 -0.871192 0
M  V30 6499 N 610.455 -0.639598 -1.44038 0
M  V30 6500 C 611.702 -0.14748 -2.01962 0
M  V30 6501 C 612.03 1.23372 -1.50365 0
M  V30 6502 O 611.285 1.8345 -0.681501 0
M  V30 6503 C 611.584 -0.0925348 -3.5728 0
M  V30 6504 C 611.25 -1.41365 -4.28167 0
M  V30 6505 C 609.912 -1.77545 -4.47248 0
M  V30 6506 C 612.264 -2.2853 -4.68427 0
M  V30 6507 C 609.592 -3.00583 -5.03852 0
M  V30 6508 C 611.944 -3.50846 -5.26393 0
M  V30 6509 C 610.608 -3.8724 -5.43692 0
M  V30 6510 H 609.878 -0.0539666 -0.739032 0
M  V30 6511 H 612.525 -0.827599 -1.72694 0
M  V30 6512 H 610.83 0.670987 -3.86012 0
M  V30 6513 H 612.527 0.304891 -3.99839 0
M  V30 6514 H 609.117 -1.1221 -4.13651 0
M  V30 6515 H 613.301 -2.0187 -4.5339 0
M  V30 6516 H 608.557 -3.28846 -5.15432 0
M  V30 6517 H 612.731 -4.18616 -5.56537 0
M  V30 6518 H 610.358 -4.8266 -5.87319 0
M  V30 6519 N 611.933 1.52934 -0.380664 0
M  V30 6520 C 613.179 2.01765 0.20458 0
M  V30 6521 C 613.512 1.26696 1.47179 0
M  V30 6522 O 612.787 0.364936 1.91046 0
M  V30 6523 C 613.07 3.56869 0.481269 0
M  V30 6524 C 612.923 4.42617 -0.800629 0
M  V30 6525 C 614.242 4.2121 1.27554 0
M  V30 6526 H 611.361 0.733388 0.0728803 0
M  V30 6527 H 614.003 1.83068 -0.50853 0
M  V30 6528 H 612.153 3.72932 1.08875 0
M  V30 6529 H 613.825 4.38323 -1.43773 0
M  V30 6530 H 612.068 4.09977 -1.4178 0
M  V30 6531 H 612.739 5.49134 -0.561791 0
M  V30 6532 H 615.215 4.09072 0.761514 0
M  V30 6533 H 614.091 5.29732 1.43788 0
M  V30 6534 H 614.352 3.78269 2.28833 0
M  V30 6535 N 613.412 0.11024 1.57214 0
M  V30 6536 C 614.359 -0.843195 2.14846 0
M  V30 6537 C 615.329 -1.26954 1.07107 0
M  V30 6538 O 616.514 -1.34861 1.34971 0
M  V30 6539 C 613.654 -2.09123 2.74521 0
M  V30 6540 C 612.767 -1.71404 3.96541 0
M  V30 6541 C 611.902 -2.91107 4.44331 0
M  V30 6542 C 610.941 -2.49586 5.58903 0
M  V30 6543 N 610.078 -3.62175 6.01477 0
M  V30 6544 H 614.918 -0.344886 2.95998 0
M  V30 6545 H 612.455 -0.15855 1.46243 0
M  V30 6546 H 614.413 -2.82234 3.07246 0
M  V30 6547 H 613.043 -2.56427 1.96074 0
M  V30 6548 H 612.095 -0.88201 3.70033 0
M  V30 6549 H 613.407 -1.36884 4.7965 0
M  V30 6550 H 612.561 -3.72454 4.78919 0
M  V30 6551 H 611.3 -3.28848 3.60153 0
M  V30 6552 H 610.305 -1.6667 5.23929 0
M  V30 6553 H 611.53 -2.12973 6.4484 0
M  V30 6554 H 609.476 -3.99605 5.20242 0
M  V30 6555 H 609.393 -3.3155 6.79419 0
M  V30 6556 H 610.661 -4.43987 6.407 0
M  V30 6557 N 614.89 -1.56749 -0.16351 0
M  V30 6558 C 616.115 -1.86938 -0.898264 0
M  V30 6559 C 616.54 -0.697456 -1.74692 0
M  V30 6560 O 615.898 0.353327 -1.77824 0
M  V30 6561 C 615.946 -3.15599 -1.74441 0
M  V30 6562 O 615.05 -2.98371 -2.8469 0
M  V30 6563 H 614.391 -0.614659 -0.251178 0
M  V30 6564 H 616.921 -2.03979 -0.159298 0
M  V30 6565 H 616.931 -3.47202 -2.14277 0
M  V30 6566 H 615.606 -4.00505 -1.1211 0
M  V30 6567 H 614.183 -2.7814 -2.4838 0
M  V30 6568 N 616.368 0.432326 -1.51554 0
M  V30 6569 C 617.598 1.2019 -1.68042 0
M  V30 6570 C 618.006 1.85356 -0.379434 0
M  V30 6571 O 617.349 1.71724 0.652427 0
M  V30 6572 C 617.411 2.32387 -2.74292 0
M  V30 6573 C 617.075 1.87548 -4.16743 0
M  V30 6574 C 618.072 1.37611 -5.01357 0
M  V30 6575 C 615.757 1.95087 -4.62868 0
M  V30 6576 C 617.751 0.958069 -6.30159 0
M  V30 6577 C 615.438 1.52894 -5.91664 0
M  V30 6578 C 616.436 1.03336 -6.75137 0
M  V30 6579 O 616.124 0.617435 -8.01525 0
M  V30 6580 H 615.856 0.368132 -0.56697 0
M  V30 6581 H 618.41 0.517875 -1.98764 0
M  V30 6582 H 616.64 3.04082 -2.38895 0
M  V30 6583 H 618.329 2.94235 -2.79608 0
M  V30 6584 H 619.095 1.31178 -4.66923 0
M  V30 6585 H 614.974 2.32606 -3.98015 0
M  V30 6586 H 618.518 0.570562 -6.95263 0
M  V30 6587 H 614.415 1.58999 -6.25611 0
M  V30 6588 H 615.183 0.742835 -8.15122 0
M  V30 6589 N 617.846 1.41785 0.688094 0
M  V30 6590 C 618.793 1.44221 1.80191 0
M  V30 6591 C 619.763 0.295688 1.63447 0
M  V30 6592 O 620.948 0.49783 1.84191 0
M  V30 6593 C 618.088 1.33743 3.1813 0
M  V30 6594 C 617.201 2.58325 3.46254 0
M  V30 6595 C 616.336 2.40086 4.73848 0
M  V30 6596 C 615.375 3.60107 4.94964 0
M  V30 6597 N 614.512 3.40892 6.13789 0
M  V30 6598 H 619.352 2.39411 1.77444 0
M  V30 6599 H 616.889 1.18876 0.866423 0
M  V30 6600 H 618.847 1.25669 3.97823 0
M  V30 6601 H 617.477 0.42157 3.20035 0
M  V30 6602 H 616.529 2.7682 2.60912 0
M  V30 6603 H 617.841 3.4758 3.57756 0
M  V30 6604 H 616.995 2.29522 5.61609 0
M  V30 6605 H 615.734 1.483 4.64606 0
M  V30 6606 H 614.739 3.71118 4.05649 0
M  V30 6607 H 615.964 4.52857 5.06061 0
M  V30 6608 H 613.91 2.51812 6.05745 0
M  V30 6609 H 613.827 4.23727 6.26092 0
M  V30 6610 H 615.095 3.34114 7.04264 0
M  V30 6611 N 619.324 -0.923095 1.27737 0
M  V30 6612 C 620.272 -2.04567 1.10703 0
M  V30 6613 C 621.266 -1.69375 0.0288445 0
M  V30 6614 O 622.472 -1.79027 0.186913 0
M  V30 6615 H 618.847 -0.670109 0.34126 0
M  V30 6616 H 620.818 -2.1608 2.05796 0
M  V30 6617 C 619.567 -3.38934 0.775837 0
M  V30 6618 H 618.89 -3.66501 1.59741 0
M  V30 6619 H 620.33 -4.18239 0.696548 0
M  V30 6620 C 618.789 -3.32863 -0.520012 0
M  V30 6621 O 619.319 -3.70462 -1.55308 0
M  V30 6622 N 617.525 -2.85958 -0.51732 0
M  V30 6623 H 617.072 -2.55557 0.32379 0
M  V30 6624 H 617.03 -2.82279 -1.38441 0
M  V30 6625 N 620.802 -1.09834 -1.13024 0
M  V30 6626 C 621.732 -0.763451 -2.20666 0
M  V30 6627 C 622.713 0.260778 -1.68089 0
M  V30 6628 O 623.898 0.127915 -1.93778 0
M  V30 6629 C 621.028 -0.187744 -3.46792 0
M  V30 6630 C 619.982 -1.14196 -4.12484 0
M  V30 6631 C 619.308 -0.427755 -5.32986 0
M  V30 6632 C 620.608 -2.48607 -4.59338 0
M  V30 6633 H 622.302 -1.66347 -2.48936 0
M  V30 6634 H 619.848 -0.801261 -1.19649 0
M  V30 6635 H 621.801 0.0586375 -4.21359 0
M  V30 6636 H 620.525 0.747485 -3.17931 0
M  V30 6637 H 619.184 -1.37369 -3.3989 0
M  V30 6638 H 618.832 0.511747 -5.0039 0
M  V30 6639 H 618.532 -1.06403 -5.77886 0
M  V30 6640 H 620.056 -0.189772 -6.10305 0
M  V30 6641 H 621.47 -2.29618 -5.25308 0
M  V30 6642 H 619.867 -3.08062 -5.14993 0
M  V30 6643 H 620.937 -3.09062 -3.73642 0
M  V30 6644 N 622.28 1.30327 -0.886154 0
M  V30 6645 C 623.243 2.26376 -0.358687 0
M  V30 6646 C 624.243 1.52845 0.499498 0
M  V30 6647 O 625.433 1.71483 0.306485 0
M  V30 6648 C 622.565 3.37379 0.488726 0
M  V30 6649 H 623.758 2.74547 -1.20681 0
M  V30 6650 H 621.311 1.41536 -0.663113 0
M  V30 6651 H 622.046 2.94526 1.35739 0
M  V30 6652 H 621.831 3.91897 -0.126003 0
M  V30 6653 H 623.321 4.08868 0.84952 0
M  V30 6654 N 623.758 0.647228 1.43697 0
M  V30 6655 C 625.005 0.158188 2.01881 0
M  V30 6656 C 625.333 -1.22573 1.51017 0
M  V30 6657 O 624.588 -1.83086 0.69122 0
M  V30 6658 C 624.887 0.111481 3.57226 0
M  V30 6659 C 624.553 1.43633 4.27411 0
M  V30 6660 C 623.215 1.79915 4.463 0
M  V30 6661 C 625.567 2.31011 4.67208 0
M  V30 6662 C 622.895 3.03251 5.02251 0
M  V30 6663 C 625.247 3.53633 5.24525 0
M  V30 6664 C 623.911 3.90118 5.41631 0
M  V30 6665 H 623.181 0.0578851 0.738736 0
M  V30 6666 H 625.828 0.836746 1.72252 0
M  V30 6667 H 624.133 -0.650507 3.86362 0
M  V30 6668 H 625.83 -0.283682 3.99995 0
M  V30 6669 H 622.42 1.14403 4.1305 0
M  V30 6670 H 626.604 2.04272 4.52313 0
M  V30 6671 H 621.86 3.31575 5.13681 0
M  V30 6672 H 626.034 4.21561 5.5431 0
M  V30 6673 H 623.661 4.85768 5.84751 0
M  V30 6674 N 625.236 -1.5273 0.388769 0
M  V30 6675 C 626.466 -2.05693 -0.193397 0
M  V30 6676 C 626.874 -1.26038 -1.41107 0
M  V30 6677 O 626.217 -0.30001 -1.81234 0
M  V30 6678 C 626.279 -3.53962 -0.628561 0
M  V30 6679 C 625.943 -4.54519 0.475576 0
M  V30 6680 C 626.94 -5.02526 1.33281 0
M  V30 6681 C 624.625 -4.98174 0.642453 0
M  V30 6682 C 626.619 -5.92812 2.34205 0
M  V30 6683 C 624.306 -5.88262 1.65503 0
M  V30 6684 C 625.304 -6.35473 2.50325 0
M  V30 6685 O 624.992 -7.23781 3.49852 0
M  V30 6686 H 624.724 -0.675197 -0.0329395 0
M  V30 6687 H 627.278 -1.97835 0.552326 0
M  V30 6688 H 625.508 -3.59437 -1.42625 0
M  V30 6689 H 627.197 -3.89669 -1.13633 0
M  V30 6690 H 627.963 -4.6953 1.21519 0
M  V30 6691 H 623.842 -4.60999 -0.00805093 0
M  V30 6692 H 627.386 -6.29585 3.00447 0
M  V30 6693 H 623.283 -6.20672 1.77304 0
M  V30 6694 H 624.051 -7.4184 3.45855 0
M  V30 6695 N 626.714 -0.118576 -1.57153 0
M  V30 6696 C 627.96 0.534078 -1.96263 0
M  V30 6697 C 628.315 1.64316 -1.0009 0
M  V30 6698 O 627.608 1.91575 -0.0308582 0
M  V30 6699 C 627.802 1.11303 -3.39627 0
M  V30 6700 C 627.631 0.0615624 -4.49658 0
M  V30 6701 C 626.401 -0.370103 -5.03943 0
M  V30 6702 C 628.599 -0.719249 -5.09246 0
M  V30 6703 N 626.581 -1.40738 -5.9755 0
M  V30 6704 C 627.952 -1.60774 -5.98792 0
M  V30 6705 C 630.007 -0.770183 -4.91907 0
M  V30 6706 C 628.71 -2.54272 -6.72858 0
M  V30 6707 C 630.736 -1.69288 -5.66653 0
M  V30 6708 C 630.098 -2.56894 -6.55885 0
M  V30 6709 H 626.197 0.165072 -0.764379 0
M  V30 6710 H 628.781 -0.206596 -1.93601 0
M  V30 6711 H 626.952 1.82342 -3.42937 0
M  V30 6712 H 628.684 1.72996 -3.65861 0
M  V30 6713 H 625.439 0.0222121 -4.73595 0
M  V30 6714 H 625.863 -1.92493 -6.49057 0
M  V30 6715 H 630.505 -0.106999 -4.22665 0
M  V30 6716 H 628.223 -3.21605 -7.41347 0
M  V30 6717 H 631.809 -1.73772 -5.55243 0
M  V30 6718 H 630.689 -3.27131 -7.1271 0
M  V30 6719 N 628.193 1.56834 0.155195 0
M  V30 6720 C 629.442 1.82088 0.867567 0
M  V30 6721 C 629.755 0.69849 1.82703 0
M  V30 6722 O 630.961 0.836407 2.58295 0
M  V30 6723 C 629.417 3.22707 1.59336 0
M  V30 6724 C 629.025 4.42859 0.676719 0
M  V30 6725 C 630.769 3.57242 2.293 0
M  V30 6726 C 628.676 5.74501 1.40367 0
M  V30 6727 H 627.606 0.679057 0.327715 0
M  V30 6728 H 630.257 1.83105 0.120351 0
M  V30 6729 H 628.639 3.16054 2.38591 0
M  V30 6730 H 629.813 4.60731 -0.0800196 0
M  V30 6731 H 628.128 4.16311 0.0859129 0
M  V30 6732 H 630.725 4.52847 2.84312 0
M  V30 6733 H 631.068 2.82901 3.05406 0
M  V30 6734 H 631.601 3.6552 1.56972 0
M  V30 6735 H 628.34 6.51915 0.684623 0
M  V30 6736 H 627.86 5.60579 2.13332 0
M  V30 6737 H 629.539 6.17016 1.94681 0
M  V30 6738 N 629.671 -0.424282 1.51781 0
M  V30 6739 C 630.601 -1.52305 1.7699 0
M  V30 6740 C 631.582 -1.5839 0.620209 0
M  V30 6741 O 632.767 -1.73908 0.864268 0
M  V30 6742 C 629.897 -2.90271 1.90683 0
M  V30 6743 C 628.851 -2.99043 3.06198 0
M  V30 6744 C 628.177 -4.39116 3.05092 0
M  V30 6745 C 629.477 -2.7192 4.45934 0
M  V30 6746 H 631.171 -1.31461 2.68995 0
M  V30 6747 H 628.717 -0.630985 1.29439 0
M  V30 6748 H 630.67 -3.6711 2.06901 0
M  V30 6749 H 629.394 -3.12376 0.953365 0
M  V30 6750 H 628.053 -2.24646 2.89706 0
M  V30 6751 H 627.701 -4.58207 2.07498 0
M  V30 6752 H 627.401 -4.45912 3.82669 0
M  V30 6753 H 628.925 -5.17911 3.2342 0
M  V30 6754 H 630.339 -3.38487 4.62709 0
M  V30 6755 H 628.736 -2.90111 5.25315 0
M  V30 6756 H 629.806 -1.67445 4.55072 0
M  V30 6757 N 631.149 -1.42148 -0.680565 0
M  V30 6758 C 632.096 -1.45175 -1.79424 0
M  V30 6759 C 633.066 -0.304352 -1.63288 0
M  V30 6760 O 634.251 -0.507591 -1.83924 0
M  V30 6761 C 631.391 -1.35429 -3.17416 0
M  V30 6762 C 630.504 -2.60158 -3.4488 0
M  V30 6763 C 629.639 -2.42596 -4.72568 0
M  V30 6764 C 628.678 -3.62727 -4.93047 0
M  V30 6765 N 627.815 -3.44143 -6.11973 0
M  V30 6766 H 632.655 -2.40349 -1.76172 0
M  V30 6767 H 630.192 -1.19334 -0.860107 0
M  V30 6768 H 632.15 -1.27777 -3.97151 0
M  V30 6769 H 630.78 -0.438536 -3.19807 0
M  V30 6770 H 629.832 -2.78199 -2.5944 0
M  V30 6771 H 631.144 -3.49473 -3.55908 0
M  V30 6772 H 630.298 -2.32497 -5.60384 0
M  V30 6773 H 629.037 -1.50761 -4.63813 0
M  V30 6774 H 628.042 -3.73264 -4.03676 0
M  V30 6775 H 629.267 -4.55534 -5.03652 0
M  V30 6776 H 627.213 -2.5502 -6.04401 0
M  V30 6777 H 627.13 -4.27041 -6.23836 0
M  V30 6778 H 628.398 -3.37845 -7.02482 0
M  V30 6779 N 632.627 0.916307 -1.28225 0
M  V30 6780 C 633.59 1.99996 -1.11957 0
M  V30 6781 C 634.59 1.60688 -0.0600152 0
M  V30 6782 O 635.78 1.71499 -0.30558 0
M  V30 6783 C 632.912 3.33458 -0.708411 0
M  V30 6784 H 634.105 2.15858 -2.08196 0
M  V30 6785 H 631.658 1.09863 -1.11175 0
M  V30 6786 H 632.393 3.23297 0.254859 0
M  V30 6787 H 632.178 3.63349 -1.47377 0
M  V30 6788 H 633.668 4.13014 -0.617164 0
M  V30 6789 N 634.105 1.10431 1.1244 0
M  V30 6790 C 635.353 0.845045 1.83585 0
M  V30 6791 C 635.674 -0.631168 1.84503 0
M  V30 6792 O 634.944 -1.45825 1.30813 0
M  V30 6793 H 633.524 0.309628 0.679809 0
M  V30 6794 H 636.186 1.39458 1.36153 0
M  V30 6795 H 635.282 1.20786 2.8778 0
M  V30 6796 N 635.583 -1.29855 0.893053 0
M  V30 6797 C 636.533 -2.25493 0.337211 0
M  V30 6798 C 637.517 -1.51606 -0.53894 0
M  V30 6799 O 638.709 -1.72828 -0.382043 0
M  V30 6800 C 635.838 -3.40467 -0.440117 0
M  V30 6801 C 634.924 -4.217 0.450578 0
M  V30 6802 N 635.315 -4.81312 1.55476 0
M  V30 6803 C 633.613 -4.45315 0.247154 0
M  V30 6804 C 634.314 -5.42241 2.10593 0
M  V30 6805 N 633.29 -5.25267 1.39982 0
M  V30 6806 H 637.092 -2.69137 1.18079 0
M  V30 6807 H 634.606 -1.44388 0.743359 0
M  V30 6808 H 636.603 -4.08038 -0.855021 0
M  V30 6809 H 635.263 -2.98361 -1.28104 0
M  V30 6810 H 636.274 -4.80291 1.93755 0
M  V30 6811 H 632.951 -4.13782 -0.555939 0
M  V30 6812 H 634.341 -5.99517 3.03362 0
M  V30 6813 N 637.061 -0.65484 -1.43351 0
M  V30 6814 C 637.994 0.0855537 -2.2804 0
M  V30 6815 C 638.972 0.828301 -1.39921 0
M  V30 6816 O 640.156 0.827539 -1.69364 0
M  V30 6817 C 637.283 1.12792 -3.19368 0
M  V30 6818 C 636.329 0.483037 -4.23756 0
M  V30 6819 S 637.162 -0.744605 -5.30298 0
M  V30 6820 C 638.318 0.297187 -6.25194 0
M  V30 6821 H 638.551 -0.632831 -2.90487 0
M  V30 6822 H 636.084 -0.44373 -1.47886 0
M  V30 6823 H 638.042 1.7243 -3.72529 0
M  V30 6824 H 636.703 1.81863 -2.56095 0
M  V30 6825 H 635.896 1.26888 -4.87766 0
M  V30 6826 H 635.498 -0.0392713 -3.73979 0
M  V30 6827 H 637.79 1.1629 -6.67445 0
M  V30 6828 H 638.733 -0.30793 -7.0743 0
M  V30 6829 H 639.141 0.633721 -5.60932 0
M  V30 6830 N 638.539 1.52521 -0.396863 0
M  V30 6831 C 639.785 2.01971 0.183169 0
M  V30 6832 C 640.118 1.2825 1.45827 0
M  V30 6833 O 639.393 0.385179 1.90648 0
M  V30 6834 C 639.676 3.5736 0.443391 0
M  V30 6835 C 639.529 4.41743 -0.84753 0
M  V30 6836 C 640.848 4.22539 1.2308 0
M  V30 6837 H 637.967 0.734119 0.0650976 0
M  V30 6838 H 640.609 1.82519 -0.527918 0
M  V30 6839 H 638.759 3.74066 1.04914 0
M  V30 6840 H 640.431 4.36773 -1.48414 0
M  V30 6841 H 638.674 4.0845 -1.4612 0
M  V30 6842 H 639.345 5.48507 -0.620003 0
M  V30 6843 H 641.821 4.09857 0.718084 0
M  V30 6844 H 640.697 5.31227 1.38162 0
M  V30 6845 H 640.958 3.80675 2.24808 0
M  V30 6846 N 640.017 0.126909 1.57088 0
M  V30 6847 C 641.428 -0.397201 1.82426 0
M  V30 6848 C 641.779 -1.66084 1.04453 0
M  V30 6849 O 640.904 -2.14534 0.283552 0
M  V30 6850 C 641.499 -0.727411 3.30899 0
M  V30 6851 C 640.058 -1.19612 3.56889 0
M  V30 6852 C 639.205 -0.20885 2.76512 0
M  V30 6853 H 642.156 0.351924 1.54749 0
M  V30 6854 H 642.177 -1.58407 3.45959 0
M  V30 6855 H 641.689 0.19247 3.87622 0
M  V30 6856 H 639.79 -2.13263 3.05532 0
M  V30 6857 H 639.903 -1.13598 4.65438 0
M  V30 6858 H 638.267 -0.697479 2.44964 0
M  V30 6859 H 639.05 0.704267 3.35998 0
M  V30 6860 N 641.495 -1.56914 -0.146875 0
M  V30 6861 C 642.72 -1.87881 -0.878386 0
M  V30 6862 C 643.145 -0.715945 -1.73942 0
M  V30 6863 O 642.503 0.334447 -1.78189 0
M  V30 6864 C 642.551 -3.17431 -1.71084 0
M  V30 6865 O 641.655 -3.01374 -2.81509 0
M  V30 6866 H 640.996 -0.617289 -0.244644 0
M  V30 6867 H 643.526 -2.04136 -0.137654 0
M  V30 6868 H 643.536 -3.49455 -2.10582 0
M  V30 6869 H 642.211 -4.01671 -1.07856 0
M  V30 6870 H 640.788 -2.80758 -2.45416 0
M  V30 6871 N 642.974 0.416227 -1.52004 0
M  V30 6872 C 644.251 1.17637 -1.56272 0
M  V30 6873 C 644.631 2.08352 -0.339493 0
M  V30 6874 O 643.979 2.1833 0.674124 0
M  V30 6875 C 644.189 1.95986 -2.88774 0
M  V30 6876 C 645.537 2.52299 -3.41512 0
M  V30 6877 O 646.561 2.06174 -2.90467 0
M  V30 6878 O 645.42 3.3648 -4.30631 0
M  V30 6879 H 642.514 0.536726 -0.629169 0
M  V30 6880 H 645.06 0.423583 -1.64329 0
M  V30 6881 H 643.832 1.29487 -3.69254 0
M  V30 6882 H 643.455 2.78285 -2.83978 0
M  V30 6883 N 644.452 1.42507 0.673017 0
M  V30 6884 C 645.384 1.42074 1.79854 0
M  V30 6885 C 646.397 0.319569 1.59633 0
M  V30 6886 O 647.586 0.582769 1.68719 0
M  V30 6887 C 644.686 1.19886 3.16987 0
M  V30 6888 C 643.859 2.42471 3.64042 0
M  V30 6889 C 642.918 2.15802 4.79913 0
M  V30 6890 O 641.944 2.89015 4.90366 0
M  V30 6891 N 643.146 1.16225 5.68746 0
M  V30 6892 H 645.911 2.3909 1.8071 0
M  V30 6893 H 643.472 1.37409 0.856171 0
M  V30 6894 H 645.464 0.999591 3.92161 0
M  V30 6895 H 644.034 0.313879 3.1102 0
M  V30 6896 H 643.254 2.77954 2.79526 0
M  V30 6897 H 644.542 3.24097 3.92223 0
M  V30 6898 H 643.94 0.556756 5.62954 0
M  V30 6899 H 642.497 1.02285 6.43724 0
M  V30 6900 N 645.93 -0.909495 1.28709 0
M  V30 6901 C 647.178 -1.65577 1.15882 0
M  V30 6902 C 647.499 -1.928 -0.292108 0
M  V30 6903 O 646.769 -1.54716 -1.20166 0
M  V30 6904 H 645.349 -0.613714 0.425869 0
M  V30 6905 H 648.011 -1.09108 1.61498 0
M  V30 6906 H 647.107 -2.61634 1.70159 0
M  V30 6907 N 647.408 -1.11026 -1.11852 0
M  V30 6908 C 648.685 -0.768347 -1.79877 0
M  V30 6909 C 649.065 0.744261 -1.97545 0
M  V30 6910 O 648.413 1.67271 -1.55669 0
M  V30 6911 C 648.623 -1.52648 -3.13846 0
M  V30 6912 C 649.971 -1.70297 -3.88953 0
M  V30 6913 O 650.995 -1.49037 -3.23522 0
M  V30 6914 O 649.854 -2.05593 -5.06353 0
M  V30 6915 H 646.948 -0.277891 -0.778913 0
M  V30 6916 H 649.494 -1.21343 -1.18633 0
M  V30 6917 H 648.266 -2.55564 -2.96315 0
M  V30 6918 H 647.889 -1.07466 -3.82801 0
M  V30 6919 N 648.886 1.2938 -0.899927 0
M  V30 6920 C 649.819 2.25911 -0.322386 0
M  V30 6921 C 650.797 1.52447 0.565567 0
M  V30 6922 O 651.981 1.81404 0.512324 0
M  V30 6923 C 649.108 3.3436 0.540455 0
M  V30 6924 C 648.154 4.25579 -0.280211 0
M  V30 6925 S 648.987 5.08526 -1.67814 0
M  V30 6926 C 650.143 6.20476 -0.822224 0
M  V30 6927 H 650.376 2.7455 -1.1406 0
M  V30 6928 H 647.909 1.37606 -0.700285 0
M  V30 6929 H 649.867 3.97303 1.0325 0
M  V30 6930 H 648.528 2.84416 1.33291 0
M  V30 6931 H 647.721 5.02574 0.378915 0
M  V30 6932 H 647.323 3.67287 -0.705405 0
M  V30 6933 H 649.615 6.77485 -0.0457138 0
M  V30 6934 H 650.558 6.90606 -1.56426 0
M  V30 6935 H 650.966 5.63243 -0.37651 0
M  V30 6936 N 650.364 0.662433 1.43002 0
M  V30 6937 C 651.327 -0.0142016 2.29196 0
M  V30 6938 C 652.327 -0.741394 1.42688 0
M  V30 6939 O 653.517 -0.581257 1.64216 0
M  V30 6940 C 650.649 -1.03084 3.24941 0
M  V30 6941 H 651.842 0.7443 2.90517 0
M  V30 6942 H 649.395 0.424133 1.50435 0
M  V30 6943 H 650.13 -1.81826 2.68533 0
M  V30 6944 H 649.915 -0.512946 3.8873 0
M  V30 6945 H 651.405 -1.50308 3.89612 0
M  V30 6946 N 651.842 -1.52309 0.404946 0
M  V30 6947 C 652.772 -2.29805 -0.41376 0
M  V30 6948 C 653.753 -1.3384 -1.0498 0
M  V30 6949 O 654.938 -1.62745 -1.05961 0
M  V30 6950 C 652.068 -3.11639 -1.53292 0
M  V30 6951 C 651.022 -4.15616 -1.02211 0
M  V30 6952 C 650.348 -4.8577 -2.23455 0
M  V30 6953 C 651.648 -5.2224 -0.0790725 0
M  V30 6954 H 653.342 -2.98493 0.232878 0
M  V30 6955 H 650.888 -1.43552 0.113441 0
M  V30 6956 H 652.841 -3.64618 -2.11262 0
M  V30 6957 H 651.565 -2.40712 -2.20738 0
M  V30 6958 H 650.224 -3.63641 -0.46484 0
M  V30 6959 H 649.872 -4.11376 -2.89445 0
M  V30 6960 H 649.572 -5.56058 -1.89929 0
M  V30 6961 H 651.096 -5.4156 -2.82038 0
M  V30 6962 H 652.51 -5.70485 -0.567438 0
M  V30 6963 H 650.907 -5.99867 0.167167 0
M  V30 6964 H 651.977 -4.77078 0.867447 0
M  V30 6965 N 653.32 -0.135238 -1.57019 0
M  V30 6966 C 654.267 0.808908 -2.1616 0
M  V30 6967 C 655.237 1.25234 -1.09113 0
M  V30 6968 O 656.422 1.32697 -1.37099 0
M  V30 6969 C 653.562 2.04729 -2.77813 0
M  V30 6970 C 652.675 1.65074 -3.99218 0
M  V30 6971 C 651.81 2.84002 -4.48906 0
M  V30 6972 C 650.849 2.40663 -5.62803 0
M  V30 6973 N 649.986 3.5256 -6.07162 0
M  V30 6974 H 654.826 0.297751 -2.96509 0
M  V30 6975 H 652.363 0.135264 -1.46477 0
M  V30 6976 H 654.321 2.7731 -3.11697 0
M  V30 6977 H 652.951 2.53275 -2.00128 0
M  V30 6978 H 652.003 0.823029 -3.7139 0
M  V30 6979 H 653.315 1.29236 -4.81767 0
M  V30 6980 H 652.469 3.64788 -4.84783 0
M  V30 6981 H 651.208 3.23076 -3.65339 0
M  V30 6982 H 650.213 1.58314 -5.26514 0
M  V30 6983 H 651.438 2.02687 -6.48147 0
M  V30 6984 H 649.384 3.91278 -5.26534 0
M  V30 6985 H 649.301 3.20699 -6.84608 0
M  V30 6986 H 650.569 4.33738 -6.47682 0
M  V30 6987 N 654.798 1.5699 0.138552 0
M  V30 6988 C 655.731 1.94064 1.2006 0
M  V30 6989 C 656.709 0.807601 1.41126 0
M  V30 6990 O 657.893 1.06399 1.556 0
M  V30 6991 C 655.02 2.21999 2.55801 0
M  V30 6992 C 654.066 3.44617 2.5128 0
M  V30 6993 S 654.899 4.97888 1.97149 0
M  V30 6994 C 656.055 5.28954 3.34602 0
M  V30 6995 H 656.288 2.83843 0.884337 0
M  V30 6996 H 653.821 1.50507 0.344517 0
M  V30 6997 H 655.779 2.38772 3.33914 0
M  V30 6998 H 654.44 1.32869 2.84613 0
M  V30 6999 H 653.633 3.61466 3.51224 0
M  V30 7000 H 653.235 3.27129 1.8128 0
M  V30 7001 H 655.527 5.22938 4.30745 0
M  V30 7002 H 656.47 6.30346 3.22598 0
M  V30 7003 H 656.878 4.56455 3.32128 0
M  V30 7004 N 656.276 -0.40816 1.52223 0
M  V30 7005 C 657.209 -1.51834 1.70357 0
M  V30 7006 C 658.187 -1.52973 0.551171 0
M  V30 7007 O 659.371 -1.71667 0.778642 0
M  V30 7008 C 656.498 -2.90362 1.74378 0
M  V30 7009 C 655.544 -3.0713 2.95928 0
M  V30 7010 S 656.377 -2.80342 4.56255 0
M  V30 7011 C 657.533 -4.21098 4.63063 0
M  V30 7012 H 657.766 -1.36223 2.64255 0
M  V30 7013 H 655.299 -0.599798 1.42274 0
M  V30 7014 H 657.257 -3.70199 1.77379 0
M  V30 7015 H 655.918 -3.03314 0.816063 0
M  V30 7016 H 655.111 -4.08482 2.95226 0
M  V30 7017 H 654.713 -2.3516 2.90819 0
M  V30 7018 H 657.005 -5.14749 4.40499 0
M  V30 7019 H 657.948 -4.26823 5.65002 0
M  V30 7020 H 658.356 -4.06114 3.92086 0
M  V30 7021 N 657.755 -1.42862 -0.66545 0
M  V30 7022 C 659.171 -1.25993 -0.979687 0
M  V30 7023 C 659.371 -0.170831 -2.00775 0
M  V30 7024 O 658.427 0.454827 -2.4837 0
M  V30 7025 C 659.74 -2.62005 -1.47559 0
M  V30 7026 C 661.288 -2.69437 -1.59288 0
M  V30 7027 C 661.763 -4.05838 -2.12272 0
M  V30 7028 N 663.254 -4.0784 -2.19592 0
M  V30 7029 C 663.989 -5.10205 -2.61684 0
M  V30 7030 N 663.485 -6.22949 -3.03161 0
M  V30 7031 N 665.278 -4.9756 -2.61516 0
M  V30 7032 H 657.429 -2.12395 0.0150493 0
M  V30 7033 H 659.692 -0.946355 -0.0558187 0
M  V30 7034 H 659.398 -3.42605 -0.794654 0
M  V30 7035 H 659.272 -2.86566 -2.45275 0
M  V30 7036 H 661.659 -1.89178 -2.26486 0
M  V30 7037 H 661.74 -2.48655 -0.600374 0
M  V30 7038 H 661.384 -4.86559 -1.4568 0
M  V30 7039 H 661.314 -4.23977 -3.12331 0
M  V30 7040 H 663.805 -3.26452 -1.90361 0
M  V30 7041 H 664.118 -6.96899 -3.33993 0
M  V30 7042 H 662.463 -6.2644 -3.00995 0
M  V30 7043 H 665.654 -4.08551 -2.28481 0
M  V30 7044 H 665.827 -5.77468 -2.93999 0
M  V30 7045 N 659.233 0.902656 -1.29189 0
M  V30 7046 C 660.163 2.02294 -1.16616 0
M  V30 7047 C 661.144 1.6999 -0.0611175 0
M  V30 7048 O 662.329 1.9271 -0.240072 0
M  V30 7049 C 659.459 3.37018 -0.83882 0
M  V30 7050 C 658.413 3.83522 -1.89986 0
M  V30 7051 C 657.739 5.15337 -1.42589 0
M  V30 7052 C 659.039 4.04169 -3.30824 0
M  V30 7053 H 660.733 2.13071 -2.10336 0
M  V30 7054 H 658.279 1.02378 -1.01266 0
M  V30 7055 H 660.232 4.14895 -0.737584 0
M  V30 7056 H 658.956 3.26325 0.134071 0
M  V30 7057 H 657.615 3.07859 -1.99043 0
M  V30 7058 H 657.263 5.01056 -0.441759 0
M  V30 7059 H 656.963 5.47423 -2.13547 0
M  V30 7060 H 658.487 5.95758 -1.3381 0
M  V30 7061 H 659.901 4.72537 -3.24626 0
M  V30 7062 H 658.298 4.47604 -3.99713 0
M  V30 7063 H 659.368 3.08604 -3.74021 0
M  V30 7064 N 660.711 1.11618 1.11262 0
M  V30 7065 C 661.957 0.867463 1.83311 0
M  V30 7066 C 662.29 -0.605366 1.84524 0
M  V30 7067 O 661.565 -1.44704 1.29965 0
M  V30 7068 C 661.848 1.43207 3.30399 0
M  V30 7069 C 661.701 2.97265 3.3757 0
M  V30 7070 C 663.02 1.08454 4.26528 0
M  V30 7071 H 660.139 0.316578 0.665543 0
M  V30 7072 H 662.781 1.38137 1.30454 0
M  V30 7073 H 660.931 0.994982 3.75543 0
M  V30 7074 H 662.603 3.49591 3.00971 0
M  V30 7075 H 660.846 3.33237 2.77733 0
M  V30 7076 H 661.517 3.31859 4.41105 0
M  V30 7077 H 663.993 1.4619 3.89574 0
M  V30 7078 H 662.869 1.50633 5.27826 0
M  V30 7079 H 663.13 -0.00444568 4.421 0
M  V30 7080 N 662.189 -1.289 0.906776 0
M  V30 7081 C 663.417 -1.99401 0.551969 0
M  V30 7082 C 663.832 -1.67816 -0.865048 0
M  V30 7083 O 663.189 -0.927078 -1.57199 0
M  V30 7084 C 663.24 -3.53779 0.743152 0
M  V30 7085 O 662.961 -3.84248 2.1044 0
M  V30 7086 C 664.462 -4.41543 0.39424 0
M  V30 7087 H 661.682 -0.636926 0.211106 0
M  V30 7088 H 664.226 -1.64266 1.21807 0
M  V30 7089 H 662.381 -3.87201 0.124143 0
M  V30 7090 H 662.795 -4.78904 2.13895 0
M  V30 7091 H 664.269 -5.48957 0.578814 0
M  V30 7092 H 664.746 -4.34073 -0.669137 0
M  V30 7093 H 665.352 -4.13605 0.990491 0
M  V30 7094 N 663.667 -0.670007 -1.42649 0
M  V30 7095 C 664.599 0.0501746 -2.29145 0
M  V30 7096 C 665.612 0.770331 -1.43422 0
M  V30 7097 O 666.801 0.625288 -1.6719 0
M  V30 7098 C 663.901 1.09463 -3.20735 0
M  V30 7099 C 663.074 0.44926 -4.35087 0
M  V30 7100 C 662.133 1.39285 -5.07431 0
M  V30 7101 O 661.159 0.894997 -5.6212 0
M  V30 7102 N 662.361 2.72631 -5.12496 0
M  V30 7103 H 665.126 -0.692312 -2.91594 0
M  V30 7104 H 662.687 -0.514056 -1.53522 0
M  V30 7105 H 664.679 1.72705 -3.65999 0
M  V30 7106 H 663.249 1.73891 -2.59771 0
M  V30 7107 H 662.469 -0.362573 -3.92529 0
M  V30 7108 H 663.757 -0.000544776 -5.088 0
M  V30 7109 H 663.155 3.15623 -4.69467 0
M  V30 7110 H 661.712 3.31132 -5.61422 0
M  V30 7111 N 665.145 1.52092 -0.413018 0
M  V30 7112 C 666.077 2.24819 0.445994 0
M  V30 7113 C 667.09 1.27925 1.00692 0
M  V30 7114 O 668.279 1.53845 0.905204 0
M  V30 7115 C 665.379 2.96951 1.6332 0
M  V30 7116 C 664.552 4.20746 1.19548 0
M  V30 7117 C 663.611 4.75668 2.25003 0
M  V30 7118 O 662.637 5.38148 1.85434 0
M  V30 7119 N 663.839 4.57579 3.57214 0
M  V30 7120 H 666.604 2.99176 -0.177209 0
M  V30 7121 H 664.165 1.60102 -0.240601 0
M  V30 7122 H 666.157 3.30586 2.33441 0
M  V30 7123 H 664.727 2.25756 2.16225 0
M  V30 7124 H 663.947 3.92881 0.32224 0
M  V30 7125 H 665.235 5.01132 0.880033 0
M  V30 7126 H 664.633 4.07758 3.92109 0
M  V30 7127 H 663.19 4.95642 4.23299 0
M  V30 7128 N 666.623 0.143563 1.56945 0
M  V30 7129 C 667.533 -0.810562 2.20152 0
M  V30 7130 C 668.549 -1.27431 1.1848 0
M  V30 7131 O 669.725 -1.33221 1.51044 0
M  V30 7132 C 666.79 -2.03353 2.80799 0
M  V30 7133 C 665.851 -1.61936 3.97587 0
M  V30 7134 C 665.084 -2.78403 4.55332 0
M  V30 7135 O 665.307 -3.94521 4.11958 0
M  V30 7136 O 664.241 -2.54073 5.45647 0
M  V30 7137 H 668.067 -0.30253 3.02189 0
M  V30 7138 H 665.652 -0.0832925 1.49168 0
M  V30 7139 H 667.534 -2.74932 3.19359 0
M  V30 7140 H 666.209 -2.53116 2.01777 0
M  V30 7141 H 665.116 -0.873904 3.6375 0
M  V30 7142 H 666.449 -1.16892 4.78118 0
M  V30 7143 O 668.14 -1.61499 0.00487092 0
M  V30 7144 H 668.831 -1.83807 -0.611124 0
M  V30 END ATOM
M  V30 BEGIN BOND
M  V30 END BOND
M  V30 END CTAB
M  END
$$$$
