drugbank_target|P12995 Adenosylmethionine-8-amino-7-oxononanoate aminotransferase (DB02274; DB02725; DB04083)
 OpenBabel12092119553D

  0  0  0     0  0            999 V3000
M  V30 BEGIN CTAB
M  V30 COUNTS 6582 6662 0 0 0
M  V30 BEGIN ATOM
M  V30 1 H -0.908 1.98254 -0.117106 0
M  V30 2 N 0 1.576 0 0
M  V30 3 C 0.933 2.03868 1.02534 0
M  V30 4 C 1.911 0.928543 1.3348 0
M  V30 5 O 3.095 1.19667 1.45644 0
M  V30 6 C 0.222 2.43627 2.35294 0
M  V30 7 C -0.732 3.65373 2.2001 0
M  V30 8 S 0.101 5.13292 1.52614 0
M  V30 9 C 1.257 5.56322 2.86805 0
M  V30 10 H 1.49 2.90518 0.631377 0
M  V30 11 H -0.977 1.52953 0.210867 0
M  V30 12 H 0.981 2.67203 3.11629 0
M  V30 13 H -0.358 1.57376 2.7183 0
M  V30 14 H -1.165 3.90944 3.18086 0
M  V30 15 H -1.563 3.418 1.51819 0
M  V30 16 H 0.729 5.58782 3.83104 0
M  V30 17 H 1.672 6.56266 2.65933 0
M  V30 18 H 2.08 4.83886 2.90714 0
M  V30 19 N 1.4781 -0.272755 1.55222 0
M  V30 20 C 2.7061 -1.02255 1.79865 0
M  V30 21 C 3.1211 -1.79924 0.572088 0
M  V30 22 O 2.4781 -1.76638 -0.458842 0
M  V30 23 C 2.5291 -1.98094 3.02392 0
M  V30 24 O 2.2501 -1.23572 4.20311 0
M  V30 25 C 3.7511 -2.84884 3.39641 0
M  V30 26 H 0.9711 -0.302057 0.599168 0
M  V30 27 H 3.5151 -0.303465 2.02236 0
M  V30 28 H 1.6701 -2.65465 2.82147 0
M  V30 29 H 2.0841 -1.88172 4.89583 0
M  V30 30 H 3.5581 -3.47927 4.28545 0
M  V30 31 H 4.0351 -3.54665 2.59055 0
M  V30 32 H 4.6411 -2.23003 3.62146 0
M  V30 33 N 2.9562 -1.48159 -0.537278 0
M  V30 34 C 4.1842 -1.59454 -1.31841 0
M  V30 35 C 4.5992 -0.252065 -1.8711 0
M  V30 36 O 3.9562 0.757621 -1.66031 0
M  V30 37 C 4.0072 -2.63546 -2.47439 0
M  V30 38 O 3.7282 -3.92583 -1.94449 0
M  V30 39 C 5.2292 -2.85212 -3.39366 0
M  V30 40 H 2.4492 -0.53785 -0.401196 0
M  V30 41 H 4.9932 -1.93932 -0.648891 0
M  V30 42 H 3.1482 -2.31946 -3.1029 0
M  V30 43 H 3.5622 -4.49629 -2.70063 0
M  V30 44 H 5.0362 -3.61863 -4.16844 0
M  V30 45 H 5.5132 -1.93765 -3.94147 0
M  V30 46 H 6.1192 -3.18086 -2.82314 0
M  V30 47 N 4.4343 0.785586 -1.36625 0
M  V30 48 C 5.7113 1.53198 -1.21613 0
M  V30 49 C 6.0913 2.10187 0.196113 0
M  V30 50 O 5.4393 1.94318 1.20219 0
M  V30 51 C 5.6493 2.62388 -2.30116 0
M  V30 52 C 6.9973 3.30167 -2.66974 0
M  V30 53 O 8.0213 2.72674 -2.29188 0
M  V30 54 O 6.8803 4.34077 -3.32023 0
M  V30 55 H 3.9743 0.677865 -0.473738 0
M  V30 56 H 6.5203 0.823739 -1.48367 0
M  V30 57 H 5.2923 2.18299 -3.24748 0
M  V30 58 H 4.9153 3.40827 -2.0475 0
M  V30 59 N 5.9124 1.20967 1.01018 0
M  V30 60 C 7.1894 0.93264 1.71934 0
M  V30 61 C 7.5694 -0.55692 2.03621 0
M  V30 62 O 6.9174 -1.52035 1.7058 0
M  V30 63 C 7.1274 1.81233 2.98254 0
M  V30 64 C 8.4754 2.05804 3.71389 0
M  V30 65 O 9.4994 1.78539 3.08225 0
M  V30 66 O 8.3584 2.51888 4.84989 0
M  V30 67 H 5.4524 0.349272 0.749625 0
M  V30 68 H 7.9984 1.31871 1.06808 0
M  V30 69 H 6.7704 2.82067 2.71208 0
M  V30 70 H 6.3934 1.42674 3.7112 0
M  V30 71 N 7.3905 -1.2043 1.01659 0
M  V30 72 C 8.3205 -2.25466 0.607226 0
M  V30 73 C 9.3015 -1.65853 -0.377716 0
M  V30 74 O 10.4865 -1.92409 -0.263149 0
M  V30 75 C 7.6165 -3.47256 -0.0552949 0
M  V30 76 C 6.5705 -4.19462 0.850632 0
M  V30 77 C 5.8965 -5.34673 0.0538859 0
M  V30 78 C 7.1965 -4.75603 2.15868 0
M  V30 79 H 8.8905 -2.59962 1.48526 0
M  V30 80 H 6.4365 -1.2496 0.715605 0
M  V30 81 H 8.3895 -4.19917 -0.353233 0
M  V30 82 H 7.1135 -3.11924 -0.968045 0
M  V30 83 H 5.7725 -3.48667 1.13257 0
M  V30 84 H 5.4205 -4.95585 -0.860514 0
M  V30 85 H 5.1205 -5.83913 0.657192 0
M  V30 86 H 6.6445 -6.10138 -0.237598 0
M  V30 87 H 8.0585 -5.40083 1.92311 0
M  V30 88 H 6.4555 -5.3528 2.71284 0
M  V30 89 H 7.5255 -3.94346 2.82169 0
M  V30 90 N 8.8686 -0.792821 -1.36206 0
M  V30 91 C 9.8316 -0.199459 -2.2833 0
M  V30 92 C 10.8316 0.605189 -1.48977 0
M  V30 93 O 12.0216 0.425685 -1.68919 0
M  V30 94 C 9.1536 0.723523 -3.33134 0
M  V30 95 H 10.3466 -1.01181 -2.82316 0
M  V30 96 H 7.8996 -0.562485 -1.45828 0
M  V30 97 H 8.6346 1.56008 -2.84309 0
M  V30 98 H 8.4196 0.148436 -3.91819 0
M  V30 99 H 9.9096 1.13344 -4.01924 0
M  V30 100 N 10.3467 1.47872 -0.545128 0
M  V30 101 C 11.5937 2.02493 -0.0165858 0
M  V30 102 C 11.9217 1.42073 1.32836 0
M  V30 103 O 11.1767 0.561459 1.87473 0
M  V30 104 C 11.4757 3.57131 0.13867 0
M  V30 105 C 11.1417 4.36411 -1.13384 0
M  V30 106 C 9.8037 4.57792 -1.48256 0
M  V30 107 C 12.1557 4.82223 -1.97764 0
M  V30 108 C 9.4837 5.22233 -2.67376 0
M  V30 109 C 11.8357 5.47977 -3.16076 0
M  V30 110 C 10.4997 5.67593 -3.51275 0
M  V30 111 H 9.7697 0.740975 -0.00606918 0
M  V30 112 H 12.4167 1.77683 -0.714207 0
M  V30 113 H 10.7217 3.80865 0.919172 0
M  V30 114 H 12.4187 3.97031 0.562782 0
M  V30 115 H 9.0087 4.2004 -0.852297 0
M  V30 116 H 13.1927 4.65493 -1.72132 0
M  V30 117 H 8.4487 5.35616 -2.94831 0
M  V30 118 H 12.6227 5.8244 -3.81755 0
M  V30 119 H 10.2497 6.17298 -4.43675 0
M  V30 120 N 11.8248 0.280983 1.55075 0
M  V30 121 C 13.1018 -0.386207 1.91749 0
M  V30 122 C 13.4818 -1.73264 1.20594 0
M  V30 123 O 12.8298 -2.26034 0.334784 0
M  V30 124 C 13.0398 -0.520687 3.45094 0
M  V30 125 C 14.3878 -0.800865 4.16979 0
M  V30 126 O 15.4118 -0.605271 3.5102 0
M  V30 127 O 14.2708 -1.1753 5.33712 0
M  V30 128 H 11.3648 -0.212408 0.799257 0
M  V30 129 H 13.9108 0.327568 1.66509 0
M  V30 130 H 12.6828 0.426633 3.88967 0
M  V30 131 H 12.3058 -1.2837 3.76307 0
M  V30 132 N 13.3029 -1.57598 0.00835791 0
M  V30 133 C 14.2349 -2.05811 -1.00868 0
M  V30 134 C 15.2479 -0.977579 -1.30182 0
M  V30 135 O 16.4369 -1.25421 -1.27011 0
M  V30 136 C 13.5369 -2.45016 -2.34137 0
M  V30 137 C 12.7099 -3.75903 -2.23643 0
M  V30 138 C 11.7689 -4.01884 -3.3967 0
M  V30 139 O 10.7949 -4.72433 -3.17483 0
M  V30 140 N 11.9969 -3.50432 -4.62793 0
M  V30 141 H 14.7619 -2.93684 -0.597458 0
M  V30 142 H 12.3229 -1.60909 -0.178852 0
M  V30 143 H 14.3149 -2.59506 -3.10546 0
M  V30 144 H 12.8849 -1.62618 -2.66972 0
M  V30 145 H 12.1049 -3.7141 -1.32091 0
M  V30 146 H 13.3929 -4.61695 -2.13812 0
M  V30 147 H 12.7909 -2.93317 -4.83716 0
M  V30 148 H 11.3479 -3.70236 -5.3644 0
M  V30 149 N 14.781 0.264519 -1.55364 0
M  V30 150 C 16.197 0.61215 -1.47394 0
M  V30 151 C 16.397 1.89134 -0.695018 0
M  V30 152 O 15.453 2.51563 -0.217275 0
M  V30 153 C 16.766 0.731235 -2.91674 0
M  V30 154 C 18.314 0.82473 -3.01939 0
M  V30 155 C 18.789 0.975522 -4.4749 0
M  V30 156 N 20.28 1.04083 -4.51354 0
M  V30 157 C 21.015 1.17646 -5.61201 0
M  V30 158 N 20.511 1.27874 -6.80896 0
M  V30 159 N 22.304 1.20823 -5.48961 0
M  V30 160 H 14.455 -0.575456 -2.04456 0
M  V30 161 H 16.718 -0.196099 -0.927496 0
M  V30 162 H 16.424 -0.138392 -3.51428 0
M  V30 163 H 16.298 1.60883 -3.41169 0
M  V30 164 H 18.685 1.68482 -2.42276 0
M  V30 165 H 18.766 -0.0776479 -2.55682 0
M  V30 166 H 18.41 0.120058 -5.07758 0
M  V30 167 H 18.34 1.89268 -4.91412 0
M  V30 168 H 20.831 0.973846 -3.65136 0
M  V30 169 H 21.144 1.38081 -7.60364 0
M  V30 170 H 19.489 1.24863 -6.83692 0
M  V30 171 H 22.68 1.12469 -4.54388 0
M  V30 172 H 22.853 1.31049 -6.3461 0
M  V30 173 N 16.2591 1.48442 0.529413 0
M  V30 174 C 17.2091 1.59407 1.63014 0
M  V30 175 C 18.1931 0.451166 1.54445 0
M  V30 176 O 19.3851 0.702635 1.62456 0
M  V30 177 C 16.5141 1.63746 3.01732 0
M  V30 178 C 15.6001 2.83518 3.15402 0
M  V30 179 N 15.9911 4.07929 2.99045 0
M  V30 180 C 14.2891 2.80862 3.46457 0
M  V30 181 C 14.9901 4.8829 3.16146 0
M  V30 182 N 13.9661 4.21117 3.43746 0
M  V30 183 H 17.7681 2.53343 1.48978 0
M  V30 184 H 15.2821 1.44821 0.734885 0
M  V30 185 H 17.2791 1.69695 3.80801 0
M  V30 186 H 15.9391 0.709264 3.16859 0
M  V30 187 H 16.9501 4.38357 2.75796 0
M  V30 188 H 13.6271 1.97301 3.67938 0
M  V30 189 H 15.0171 5.97028 3.08232 0
M  V30 190 N 17.7372 -0.778329 1.37039 0
M  V30 191 C 18.9862 -1.53189 1.3121 0
M  V30 192 C 19.2992 -1.95328 -0.103095 0
M  V30 193 O 20.5052 -2.70012 -0.283826 0
M  V30 194 C 18.9612 -2.76591 2.30272 0
M  V30 195 C 18.5692 -2.41577 3.77286 0
M  V30 196 C 20.3132 -3.5455 2.33441 0
M  V30 197 C 18.2202 -3.61441 4.68096 0
M  V30 198 H 17.1502 -0.5751 0.487622 0
M  V30 199 H 19.8012 -0.853101 1.62464 0
M  V30 200 H 18.1832 -3.46326 1.92027 0
M  V30 201 H 19.3572 -1.79668 4.2433 0
M  V30 202 H 17.6722 -1.76806 3.76999 0
M  V30 203 H 20.2692 -4.43628 2.98493 0
M  V30 204 H 20.6122 -3.93936 1.34611 0
M  V30 205 H 21.1452 -2.91805 2.7036 0
M  V30 206 H 17.8842 -3.27142 5.6803 0
M  V30 207 H 17.4042 -4.22478 4.25761 0
M  V30 208 H 19.0832 -4.28335 4.8491 0
M  V30 209 N 19.2153 -1.21501 -1.00376 0
M  V30 210 C 20.4613 -1.04457 -1.74529 0
M  V30 211 C 20.8163 0.417386 -1.87818 0
M  V30 212 O 20.1093 1.30556 -1.40234 0
M  V30 213 C 20.3033 -1.67673 -3.15627 0
M  V30 214 C 20.1323 -3.19865 -3.16096 0
M  V30 215 C 18.9023 -3.88915 -3.22604 0
M  V30 216 C 21.1003 -4.16936 -3.01112 0
M  V30 217 N 19.0823 -5.28284 -3.12712 0
M  V30 218 C 20.4533 -5.43066 -2.99131 0
M  V30 219 C 22.5083 -4.07968 -2.85423 0
M  V30 220 C 21.2113 -6.6126 -2.83068 0
M  V30 221 C 23.2373 -5.258 -2.70718 0
M  V30 222 C 22.5993 -6.50842 -2.69414 0
M  V30 223 H 18.6983 -0.436584 -0.648782 0
M  V30 224 H 21.2823 -1.53875 -1.19293 0
M  V30 225 H 19.4533 -1.20822 -3.6913 0
M  V30 226 H 21.1853 -1.43824 -3.78281 0
M  V30 227 H 17.9403 -3.39847 -3.2985 0
M  V30 228 H 18.3643 -6.01284 -3.11105 0
M  V30 229 H 23.0063 -3.1209 -2.85236 0
M  V30 230 H 20.7243 -7.57298 -2.82002 0
M  V30 231 H 24.3103 -5.20683 -2.59577 0
M  V30 232 H 23.1903 -7.40485 -2.5817 0
M  V30 233 N 20.6934 1.19889 -1.02296 0
M  V30 234 C 21.6434 2.20777 -0.56934 0
M  V30 235 C 22.6274 1.56379 0.378741 0
M  V30 236 O 23.8194 1.75859 0.200673 0
M  V30 237 C 20.9484 3.43196 0.0845077 0
M  V30 238 C 20.0344 4.14749 -0.88566 0
M  V30 239 N 20.4254 4.62584 -2.04573 0
M  V30 240 C 18.7234 4.40347 -0.707835 0
M  V30 241 C 19.4244 5.17466 -2.65714 0
M  V30 242 N 18.4004 5.0791 -1.93723 0
M  V30 243 H 22.2024 2.55434 -1.45365 0
M  V30 244 H 19.7164 1.35897 -0.88915 0
M  V30 245 H 21.7134 4.14707 0.427067 0
M  V30 246 H 20.3734 3.10042 0.964574 0
M  V30 247 H 21.3844 4.57597 -2.4254 0
M  V30 248 H 18.0614 4.17317 0.12364 0
M  V30 249 H 19.4514 5.64808 -3.63925 0
M  V30 250 N 22.1715 0.800033 1.35784 0
M  V30 251 C 23.5825 0.439142 1.81462 0
M  V30 252 C 23.9335 -1.03813 1.66485 0
M  V30 253 O 23.0585 -1.80626 1.19177 0
M  V30 254 C 23.6535 0.790314 3.29453 0
M  V30 255 C 22.2125 0.482111 3.733 0
M  V30 256 C 21.3595 1.01938 2.57883 0
M  V30 257 H 24.3105 0.992254 1.23855 0
M  V30 258 H 24.3315 0.0853677 3.80404 0
M  V30 259 H 23.8435 1.86554 3.40322 0
M  V30 260 H 21.9445 -0.584652 3.67984 0
M  V30 261 H 22.0575 1.01015 4.6833 0
M  V30 262 H 20.4215 0.442043 2.50835 0
M  V30 263 H 21.2045 2.10059 2.71533 0
M  V30 264 N 23.6496 -1.47581 0.552962 0
M  V30 265 C 24.8796 -2.06575 0.0320091 0
M  V30 266 C 25.2876 -1.4067 -1.26525 0
M  V30 267 O 24.6306 -0.495808 -1.76883 0
M  V30 268 C 24.6926 -3.58705 -0.238913 0
M  V30 269 C 24.3566 -4.46625 0.968272 0
M  V30 270 C 25.3536 -4.85 1.87274 0
M  V30 271 C 23.0386 -4.88201 1.18175 0
M  V30 272 C 25.0326 -5.63745 2.9744 0
M  V30 273 C 22.7196 -5.66712 2.28651 0
M  V30 274 C 23.7176 -6.04394 3.18114 0
M  V30 275 O 23.4056 -6.81324 4.26676 0
M  V30 276 H 23.1376 -0.674763 0.0408689 0
M  V30 277 H 25.6916 -1.90634 0.764719 0
M  V30 278 H 23.9216 -3.72844 -1.02588 0
M  V30 279 H 25.6106 -3.99735 -0.704731 0
M  V30 280 H 26.3766 -4.53482 1.71984 0
M  V30 281 H 22.2556 -4.58339 0.494593 0
M  V30 282 H 25.7996 -5.93077 3.67296 0
M  V30 283 H 21.6966 -5.97642 2.43915 0
M  V30 284 H 22.4646 -6.99712 4.24671 0
M  V30 285 N 25.1277 -0.289203 -1.54924 0
M  V30 286 C 26.3557 0.326463 -2.04308 0
M  V30 287 C 26.7707 1.48413 -1.16701 0
M  V30 288 O 26.1277 1.81507 -0.190087 0
M  V30 289 C 26.1787 0.794014 -3.52672 0
M  V30 290 O 25.8997 -0.317564 -4.36948 0
M  V30 291 C 27.4007 1.47605 -4.18004 0
M  V30 292 H 24.6207 0.0726272 -0.667058 0
M  V30 293 H 27.1647 -0.425401 -2.00026 0
M  V30 294 H 25.3197 1.49593 -3.57352 0
M  V30 295 H 25.7337 0.0443186 -5.24481 0
M  V30 296 H 27.2077 1.75447 -5.23376 0
M  V30 297 H 27.6847 2.41224 -3.67025 0
M  V30 298 H 28.2907 0.81762 -4.17367 0
M  V30 299 N 26.6058 1.57591 -0.0167156 0
M  V30 300 C 27.8308 1.9598 0.67872 0
M  V30 301 C 28.2558 0.892546 1.65575 0
M  V30 302 O 27.6138 -0.147772 1.80697 0
M  V30 303 C 27.6618 3.33468 1.37227 0
M  V30 304 O 26.7658 3.28954 2.48722 0
M  V30 305 H 26.1068 0.639339 0.17928 0
M  V30 306 H 28.6368 2.04463 -0.0748802 0
M  V30 307 H 28.6468 3.69417 1.7319 0
M  V30 308 H 27.3218 4.10694 0.656007 0
M  V30 309 H 25.8988 3.04705 2.14963 0
M  V30 310 N 28.0839 -0.256276 1.55502 0
M  V30 311 C 29.0169 -1.34321 1.84481 0
M  V30 312 C 29.9949 -1.46802 0.699131 0
M  V30 313 O 31.1789 -1.63165 0.943904 0
M  V30 314 C 28.3059 -2.71779 2.02123 0
M  V30 315 C 27.3519 -2.76496 3.24734 0
M  V30 316 S 28.1849 -2.3405 4.81644 0
M  V30 317 C 29.3409 -3.73452 5.02279 0
M  V30 318 H 29.5739 -1.09539 2.76385 0
M  V30 319 H 27.1069 -0.45678 1.47489 0
M  V30 320 H 29.0649 -3.50932 2.12972 0
M  V30 321 H 27.7259 -2.93803 1.11078 0
M  V30 322 H 26.9189 -3.77424 3.34016 0
M  V30 323 H 26.5209 -2.05379 3.12563 0
M  V30 324 H 28.8129 -4.6887 4.89047 0
M  V30 325 H 29.7559 -3.6911 6.04287 0
M  V30 326 H 30.1639 -3.6553 4.30172 0
M  V30 327 N 29.562 -1.4872 -0.521534 0
M  V30 328 C 30.79 -1.60843 -1.30142 0
M  V30 329 C 31.205 -0.271897 -1.86832 0
M  V30 330 O 30.562 0.739969 -1.66825 0
M  V30 331 C 30.613 -2.66155 -2.4463 0
M  V30 332 O 30.334 -3.94623 -1.90275 0
M  V30 333 C 31.835 -2.88795 -3.36322 0
M  V30 334 H 29.055 -0.542075 -0.395468 0
M  V30 335 H 31.599 -1.94609 -0.628285 0
M  V30 336 H 29.754 -2.35224 -3.07812 0
M  V30 337 H 30.168 -4.52468 -2.65279 0
M  V30 338 H 31.642 -3.66264 -4.12983 0
M  V30 339 H 32.119 -1.97934 -3.9207 0
M  V30 340 H 32.725 -3.21063 -2.78924 0
M  V30 341 N 31.0401 0.771051 -1.3745 0
M  V30 342 C 32.2651 1.56529 -1.36065 0
M  V30 343 C 32.6901 1.88029 0.0515859 0
M  V30 344 O 32.0481 1.49282 1.02882 0
M  V30 345 C 32.0961 2.85187 -2.20683 0
M  V30 346 O 31.2001 3.79593 -1.61193 0
M  V30 347 H 30.5411 0.47411 -0.464883 0
M  V30 348 H 33.0711 0.954269 -1.80983 0
M  V30 349 H 33.0811 3.34283 -2.33921 0
M  V30 350 H 31.7561 2.61588 -3.23334 0
M  V30 351 H 30.3331 3.38239 -1.56999 0
M  V30 352 N 32.5182 1.22032 0.997298 0
M  V30 353 C 33.9292 1.0397 1.55071 0
M  V30 354 C 34.2802 -0.398192 1.92117 0
M  V30 355 O 33.4052 -1.28254 1.74298 0
M  V30 356 C 34.0002 1.88109 2.81781 0
M  V30 357 C 32.5592 1.74357 3.33581 0
M  V30 358 C 31.7062 1.84846 2.06706 0
M  V30 359 H 34.6572 1.35941 0.818883 0
M  V30 360 H 34.6782 1.39589 3.53971 0
M  V30 361 H 34.1902 2.92754 2.54787 0
M  V30 362 H 32.2912 0.72427 3.65493 0
M  V30 363 H 32.4042 2.56772 4.04481 0
M  V30 364 H 30.7682 1.28238 2.20062 0
M  V30 365 H 31.5512 2.91014 1.82114 0
M  V30 366 N 33.9963 -1.19345 1.0293 0
M  V30 367 C 34.9263 -2.2481 0.631105 0
M  V30 368 C 35.9073 -1.66245 -0.360104 0
M  V30 369 O 37.0923 -1.92677 -0.242726 0
M  V30 370 C 34.2223 -3.47295 -0.0184607 0
M  V30 371 C 33.1763 -4.18536 0.895073 0
M  V30 372 C 32.5023 -5.34586 0.110592 0
M  V30 373 C 33.8023 -4.73287 2.209 0
M  V30 374 H 35.4963 -2.58372 1.51275 0
M  V30 375 H 33.0423 -1.24194 0.728818 0
M  V30 376 H 34.9953 -4.20268 -0.308675 0
M  V30 377 H 33.7193 -3.12933 -0.934907 0
M  V30 378 H 32.3783 -3.47446 1.16949 0
M  V30 379 H 32.0263 -4.96469 -0.807902 0
M  V30 380 H 31.7263 -5.83183 0.719087 0
M  V30 381 H 33.2503 -6.10355 -0.172871 0
M  V30 382 H 34.6643 -5.38013 1.98028 0
M  V30 383 H 33.0613 -5.32373 2.76946 0
M  V30 384 H 34.1313 -3.91331 2.86336 0
M  V30 385 N 35.4744 -0.807222 -1.35358 0
M  V30 386 C 36.8854 -0.44876 -1.81226 0
M  V30 387 C 37.2364 1.02929 -1.67033 0
M  V30 388 O 36.3614 1.79991 -1.20133 0
M  V30 389 C 36.9564 -0.807774 -3.2903 0
M  V30 390 C 35.5154 -0.501901 -3.73039 0
M  V30 391 C 34.6624 -1.03304 -2.57339 0
M  V30 392 H 37.6134 -0.998808 -1.23327 0
M  V30 393 H 37.6344 -0.10554 -3.80354 0
M  V30 394 H 37.1464 -1.88357 -3.39328 0
M  V30 395 H 35.2474 0.565128 -3.68289 0
M  V30 396 H 35.3604 -1.03497 -4.67787 0
M  V30 397 H 33.7244 -0.455339 -2.50597 0
M  V30 398 H 34.5074 -2.11496 -2.70415 0
M  V30 399 N 36.9525 1.47285 -0.560781 0
M  V30 400 C 38.1985 2.02764 -0.0381184 0
M  V30 401 C 38.5315 1.43384 1.30976 0
M  V30 402 O 37.8065 0.590733 1.85312 0
M  V30 403 C 38.0895 3.60064 0.0511427 0
M  V30 404 C 37.9425 4.2987 -1.32408 0
M  V30 405 C 39.2615 4.33439 0.762795 0
M  V30 406 H 36.3805 0.736841 -0.0153264 0
M  V30 407 H 39.0225 1.75675 -0.723759 0
M  V30 408 H 37.1725 3.83274 0.635065 0
M  V30 409 H 38.8445 4.17989 -1.95148 0
M  V30 410 H 37.0875 3.90085 -1.8978 0
M  V30 411 H 37.7585 5.38478 -1.21431 0
M  V30 412 H 40.2345 4.15243 0.266965 0
M  V30 413 H 39.1105 5.43124 0.794221 0
M  V30 414 H 39.3715 4.02915 1.81966 0
M  V30 415 N 38.4306 0.297415 1.54768 0
M  V30 416 C 39.6606 -0.315165 2.04182 0
M  V30 417 C 40.0686 -1.4834 1.17439 0
M  V30 418 O 39.4116 -1.82695 0.191891 0
M  V30 419 C 39.4736 -0.837583 3.49607 0
M  V30 420 C 39.1376 0.204912 4.5654 0
M  V30 421 C 40.1346 1.03214 5.09552 0
M  V30 422 C 37.8196 0.345578 5.0111 0
M  V30 423 C 39.8136 1.986 6.05671 0
M  V30 424 C 37.5006 1.30289 5.97049 0
M  V30 425 C 38.4986 2.12159 6.49213 0
M  V30 426 O 38.1866 3.06268 7.43273 0
M  V30 427 H 37.9186 -0.0729646 0.672051 0
M  V30 428 H 40.4726 0.433907 2.00765 0
M  V30 429 H 38.7026 -1.63712 3.50336 0
M  V30 430 H 40.3916 -1.36566 3.82236 0
M  V30 431 H 41.1576 0.934312 4.75916 0
M  V30 432 H 37.0366 -0.28171 4.60138 0
M  V30 433 H 40.5806 2.62542 6.46311 0
M  V30 434 H 36.4776 1.40145 6.30103 0
M  V30 435 H 37.2456 3.01205 7.61064 0
M  V30 436 N 39.9087 -1.5758 0.0250728 0
M  V30 437 C 41.3197 -1.79476 -0.514323 0
M  V30 438 C 41.6707 -0.934956 -1.72491 0
M  V30 439 O 40.7957 -0.144245 -2.15919 0
M  V30 440 C 41.3907 -3.25503 -0.939842 0
M  V30 441 C 39.9497 -3.48408 -1.42438 0
M  V30 442 C 39.0967 -2.74583 -0.387201 0
M  V30 443 H 42.0477 -1.567 0.25113 0
M  V30 444 H 42.0687 -3.34992 -1.80445 0
M  V30 445 H 41.5807 -3.88056 -0.0585628 0
M  V30 446 H 39.6817 -2.91103 -2.32572 0
M  V30 447 H 39.7947 -4.57119 -1.43455 0
M  V30 448 H 38.1587 -2.39942 -0.854409 0
M  V30 449 H 38.9417 -3.39849 0.485543 0
M  V30 450 N 41.3868 0.248026 -1.55636 0
M  V30 451 C 42.6328 0.97767 -1.77678 0
M  V30 452 C 42.9658 1.85016 -0.590135 0
M  V30 453 O 42.2408 1.90095 0.411611 0
M  V30 454 C 42.5238 1.83914 -3.09593 0
M  V30 455 C 42.3768 0.99491 -4.38659 0
M  V30 456 C 43.6958 2.82183 -3.37729 0
M  V30 457 H 40.8148 0.354005 -0.646413 0
M  V30 458 H 43.4568 0.248253 -1.88371 0
M  V30 459 H 41.6068 2.46104 -3.00608 0
M  V30 460 H 43.2788 0.391789 -4.59633 0
M  V30 461 H 41.5218 0.299231 -4.32767 0
M  V30 462 H 42.1928 1.63145 -5.2734 0
M  V30 463 H 44.6688 2.30129 -3.4667 0
M  V30 464 H 43.5448 3.39582 -4.31249 0
M  V30 465 H 43.8058 3.58588 -2.58586 0
M  V30 466 N 42.8649 1.48995 0.513639 0
M  V30 467 C 44.1109 1.58076 1.27042 0
M  V30 468 C 44.4439 0.261026 1.92438 0
M  V30 469 O 43.7189 -0.734393 1.80103 0
M  V30 470 C 44.0019 2.73091 2.34719 0
M  V30 471 C 43.8549 4.14821 1.73907 0
M  V30 472 C 45.1739 2.83796 3.36375 0
M  V30 473 H 42.2929 0.575391 0.460536 0
M  V30 474 H 44.9349 1.81232 0.570516 0
M  V30 475 H 43.0849 2.53479 2.94416 0
M  V30 476 H 44.7569 4.45917 1.18135 0
M  V30 477 H 42.9999 4.21058 1.0437 0
M  V30 478 H 43.6709 4.91147 2.51949 0
M  V30 479 H 46.1469 3.01611 2.86653 0
M  V30 480 H 45.0229 3.65971 4.09093 0
M  V30 481 H 45.2839 1.92624 3.9793 0
M  V30 482 N 44.343 -0.763751 1.37857 0
M  V30 483 C 45.568 -1.55805 1.36893 0
M  V30 484 C 45.993 -1.88054 -0.0416135 0
M  V30 485 O 45.351 -1.49825 -1.02089 0
M  V30 486 C 45.399 -2.84012 2.22192 0
M  V30 487 O 44.503 -3.78732 1.63204 0
M  V30 488 H 43.844 -0.471638 0.46739 0
M  V30 489 H 46.374 -0.944657 1.81487 0
M  V30 490 H 46.384 -3.33037 2.35691 0
M  V30 491 H 45.059 -2.59869 3.24716 0
M  V30 492 H 43.636 -3.37402 1.58791 0
M  V30 493 N 45.8211 -1.22559 -0.990812 0
M  V30 494 C 46.7841 -0.998863 -2.0629 0
M  V30 495 C 47.7841 0.0354834 -1.60761 0
M  V30 496 O 48.9741 -0.203231 -1.7301 0
M  V30 497 C 46.1061 -0.509203 -3.37076 0
M  V30 498 H 47.2991 -1.95014 -2.27837 0
M  V30 499 H 44.8521 -1.04456 -1.16269 0
M  V30 500 H 45.5871 0.446335 -3.21214 0
M  V30 501 H 45.3721 -1.25547 -3.71457 0
M  V30 502 H 46.8621 -0.370888 -4.1595 0
M  V30 503 N 47.2992 1.18797 -1.03562 0
M  V30 504 C 48.2092 2.25913 -0.632505 0
M  V30 505 C 49.2252 1.70668 0.338882 0
M  V30 506 O 50.4012 2.00453 0.195076 0
M  V30 507 C 47.4662 3.467 0.00350942 0
M  V30 508 C 46.5272 4.17098 -1.01624 0
M  V30 509 C 45.7602 5.32119 -0.410478 0
M  V30 510 O 45.9832 5.64976 0.784725 0
M  V30 511 O 44.9172 5.9107 -1.13667 0
M  V30 512 H 48.7432 2.62648 -1.52478 0
M  V30 513 H 46.3282 1.25781 -0.806195 0
M  V30 514 H 48.2102 4.19878 0.35781 0
M  V30 515 H 46.8852 3.11798 0.869686 0
M  V30 516 H 45.7922 3.4601 -1.42224 0
M  V30 517 H 47.1252 4.55987 -1.85301 0
M  V30 518 N 48.7773 0.814389 1.34928 0
M  V30 519 C 50.0253 0.397636 1.9815 0
M  V30 520 C 50.3463 -1.04069 1.64908 0
M  V30 521 O 49.6163 -1.72121 0.93548 0
M  V30 522 H 48.1963 0.144043 0.732981 0
M  V30 523 H 50.8583 1.04195 1.6471 0
M  V30 524 H 49.9543 0.509688 3.0791 0
M  V30 525 N 50.2554 -1.46986 0.568584 0
M  V30 526 C 51.4954 -2.04336 0.0512999 0
M  V30 527 C 51.8594 -1.43214 -1.27881 0
M  V30 528 O 53.0604 -1.91679 -1.88448 0
M  V30 529 C 51.3314 -3.57389 -0.0282328 0
M  V30 530 S 52.8904 -4.36056 -0.489991 0
M  V30 531 H 49.7084 -0.71034 0.0306349 0
M  V30 532 H 52.3104 -1.80212 0.757891 0
M  V30 533 H 51.0144 -3.99395 0.944011 0
M  V30 534 H 50.5454 -3.86028 -0.75803 0
M  V30 535 H 52.5604 -4.6441 -1.74752 0
M  V30 536 N 51.7335 -0.305618 -1.54608 0
M  V30 537 C 52.6435 0.57778 -2.27374 0
M  V30 538 C 53.6595 1.14451 -1.31061 0
M  V30 539 O 54.8355 1.16831 -1.6405 0
M  V30 540 C 51.9005 1.73123 -3.00382 0
M  V30 541 C 50.9615 1.19812 -4.12242 0
M  V30 542 C 50.1945 2.2966 -4.81759 0
M  V30 543 O 50.4175 3.49651 -4.50666 0
M  V30 544 O 49.3515 1.96091 -5.69062 0
M  V30 545 H 53.1775 -0.012624 -3.03697 0
M  V30 546 H 50.7625 -0.0719184 -1.49227 0
M  V30 547 H 52.6445 2.40315 -3.4616 0
M  V30 548 H 51.3195 2.30815 -2.26949 0
M  V30 549 H 50.2265 0.491798 -3.70853 0
M  V30 550 H 51.5595 0.666566 -4.87666 0
M  V30 551 N 53.2116 1.57565 -0.0334293 0
M  V30 552 C 54.1416 2.13511 0.945265 0
M  V30 553 C 55.1226 1.05231 1.33643 0
M  V30 554 O 56.3076 1.33084 1.41429 0
M  V30 555 C 53.4376 2.6657 2.22616 0
M  V30 556 C 52.3916 3.79676 1.97561 0
M  V30 557 C 51.7176 4.1918 3.31952 0
M  V30 558 C 53.0176 5.0557 1.31135 0
M  V30 559 H 54.7116 2.95538 0.479325 0
M  V30 560 H 52.2576 1.42166 0.229115 0
M  V30 561 H 54.2106 3.04344 2.91466 0
M  V30 562 H 52.9346 1.8171 2.71384 0
M  V30 563 H 51.5936 3.42347 1.31127 0
M  V30 564 H 51.2416 3.31296 3.78487 0
M  V30 565 H 50.9416 4.95402 3.15992 0
M  V30 566 H 52.4656 4.59541 4.02063 0
M  V30 567 H 53.8796 5.40903 1.89992 0
M  V30 568 H 52.2766 5.86818 1.25559 0
M  V30 569 H 53.3466 4.84062 0.284894 0
M  V30 570 N 54.6897 -0.239769 1.55765 0
M  V30 571 C 55.9387 -0.964754 1.77131 0
M  V30 572 C 56.2517 -1.86213 0.59868 0
M  V30 573 O 57.4577 -2.6244 0.695522 0
M  V30 574 C 55.9137 -1.76552 3.1362 0
M  V30 575 C 55.5217 -0.915185 4.38553 0
M  V30 576 C 57.2657 -2.48281 3.44321 0
M  V30 577 C 55.1727 -1.71225 5.66071 0
M  V30 578 H 54.1027 -0.363953 0.660344 0
M  V30 579 H 56.7537 -0.219181 1.82186 0
M  V30 580 H 55.1357 -2.55331 3.02691 0
M  V30 581 H 56.3097 -0.169217 4.60489 0
M  V30 582 H 54.6247 -0.310889 4.15238 0
M  V30 583 H 57.2217 -3.08382 4.36812 0
M  V30 584 H 57.5647 -3.20256 2.65973 0
M  V30 585 H 58.0977 -1.76507 3.56497 0
M  V30 586 H 54.8367 -1.03612 6.4726 0
M  V30 587 H 54.3567 -2.43331 5.48224 0
M  V30 588 H 56.0357 -2.27758 6.05587 0
M  V30 589 N 56.1678 -1.49265 -0.50573 0
M  V30 590 C 57.0978 -1.68495 -1.61653 0
M  V30 591 C 58.0788 -0.53366 -1.61512 0
M  V30 592 O 59.2638 -0.76897 -1.78327 0
M  V30 593 C 56.3938 -1.74709 -3.00157 0
M  V30 594 C 55.3478 -2.89581 -3.15162 0
M  V30 595 C 54.6738 -2.80903 -4.5497 0
M  V30 596 C 55.9738 -4.30578 -2.95634 0
M  V30 597 H 57.6678 -2.61493 -1.45814 0
M  V30 598 H 55.2138 -1.25838 -0.70005 0
M  V30 599 H 57.1668 -1.86748 -3.77761 0
M  V30 600 H 55.8908 -0.783067 -3.17074 0
M  V30 601 H 54.5498 -2.77136 -2.39982 0
M  V30 602 H 54.1978 -1.82419 -4.68756 0
M  V30 603 H 53.8978 -3.57999 -4.65951 0
M  V30 604 H 55.4218 -2.94944 -5.34641 0
M  V30 605 H 56.8358 -4.4373 -3.63011 0
M  V30 606 H 55.2328 -5.0886 -3.18091 0
M  V30 607 H 56.3028 -4.45352 -1.91806 0
M  V30 608 N 57.6459 0.756429 -1.3826 0
M  V30 609 C 58.8709 1.55077 -1.37717 0
M  V30 610 C 59.2959 1.88073 0.03164 0
M  V30 611 O 58.6539 1.50364 1.01293 0
M  V30 612 C 58.7019 2.8283 -2.23695 0
M  V30 613 O 57.8059 3.77862 -1.6521 0
M  V30 614 H 57.1469 0.469152 -0.469885 0
M  V30 615 H 59.6769 0.935019 -1.81985 0
M  V30 616 H 59.6869 3.31783 -2.37453 0
M  V30 617 H 58.3619 2.58144 -3.2609 0
M  V30 618 H 56.9389 3.36555 -1.60578 0
M  V30 619 N 59.124 1.23083 0.984299 0
M  V30 620 C 60.401 0.9689 1.69917 0
M  V30 621 C 60.781 -0.513604 2.04757 0
M  V30 622 O 60.129 -1.48383 1.73767 0
M  V30 623 C 60.339 1.87518 2.94343 0
M  V30 624 C 61.687 2.13636 3.6694 0
M  V30 625 O 62.711 1.85036 3.04368 0
M  V30 626 O 61.57 2.62119 4.79537 0
M  V30 627 H 58.664 0.365095 0.742048 0
M  V30 628 H 61.21 1.34107 1.03987 0
M  V30 629 H 59.982 2.87756 2.65164 0
M  V30 630 H 59.605 1.50514 3.6801 0
M  V30 631 N 60.6021 -1.18246 1.0419 0
M  V30 632 C 61.8501 -1.87886 0.744543 0
M  V30 633 C 62.1711 -1.8082 -0.730006 0
M  V30 634 O 61.4411 -1.22736 -1.52685 0
M  V30 635 H 60.0211 -0.695556 0.272417 0
M  V30 636 H 62.6831 -1.43494 1.31892 0
M  V30 637 H 61.7791 -2.9389 1.05049 0
M  V30 638 N 62.0802 -0.821533 -1.34494 0
M  V30 639 C 63.4962 -0.507117 -1.51329 0
M  V30 640 C 63.6962 0.968964 -1.76673 0
M  V30 641 O 62.7522 1.75348 -1.81685 0
M  V30 642 C 64.0652 -1.36544 -2.67911 0
M  V30 643 C 65.6132 -1.36242 -2.81793 0
M  V30 644 C 66.0882 -2.2052 -4.01416 0
M  V30 645 N 67.5792 -2.18136 -4.08621 0
M  V30 646 C 68.3142 -2.80095 -5.00334 0
M  V30 647 N 67.8102 -3.51039 -5.9728 0
M  V30 648 N 69.6032 -2.69656 -4.93196 0
M  V30 649 H 61.7542 -1.77729 -1.16302 0
M  V30 650 H 64.0172 -0.757291 -0.570276 0
M  V30 651 H 63.7232 -2.41361 -2.55808 0
M  V30 652 H 63.5972 -1.02917 -3.62888 0
M  V30 653 H 65.9842 -0.322041 -2.93338 0
M  V30 654 H 66.0652 -1.73866 -1.87628 0
M  V30 655 H 65.7092 -3.24607 -3.90631 0
M  V30 656 H 65.6392 -1.80247 -4.94791 0
M  V30 657 H 68.1302 -1.6653 -3.39229 0
M  V30 658 H 68.4432 -3.95565 -6.63889 0
M  V30 659 H 66.7882 -3.55145 -5.97409 0
M  V30 660 H 69.9792 -2.13808 -4.16418 0
M  V30 661 H 70.1522 -3.1823 -5.64476 0
M  V30 662 N 63.5583 1.46682 -0.576371 0
M  V30 663 C 64.9743 1.57822 -0.237562 0
M  V30 664 C 65.1743 1.57237 1.26011 0
M  V30 665 O 64.2303 1.48596 2.04146 0
M  V30 666 C 65.5433 2.87499 -0.881168 0
M  V30 667 C 67.0913 3.01119 -0.85417 0
M  V30 668 C 67.5663 4.33524 -1.4772 0
M  V30 669 N 69.0573 4.40207 -1.44125 0
M  V30 670 C 69.7923 5.4126 -1.89276 0
M  V30 671 N 69.2883 6.49021 -2.42371 0
M  V30 672 N 71.0813 5.32422 -1.80231 0
M  V30 673 H 63.2323 1.45306 -1.54919 0
M  V30 674 H 65.4953 0.692733 -0.647167 0
M  V30 675 H 65.2013 2.9372 -1.93447 0
M  V30 676 H 65.0753 3.75224 -0.385592 0
M  V30 677 H 67.4623 2.94485 0.190491 0
M  V30 678 H 67.5433 2.14887 -1.3877 0
M  V30 679 H 67.1873 4.40916 -2.52103 0
M  V30 680 H 67.1173 5.1852 -0.918947 0
M  V30 681 H 69.6083 3.62931 -1.05307 0
M  V30 682 H 69.9213 7.2233 -2.74698 0
M  V30 683 H 68.2663 6.49858 -2.46393 0
M  V30 684 H 71.4573 4.47137 -1.38514 0
M  V30 685 H 71.6303 6.11034 -2.15735 0
M  V30 686 N 65.0364 0.313813 1.54444 0
M  V30 687 C 65.9664 -0.549454 2.26943 0
M  V30 688 C 66.9474 -1.12741 1.27372 0
M  V30 689 O 68.1324 -1.15436 1.56167 0
M  V30 690 C 65.2624 -1.71523 3.01989 0
M  V30 691 C 64.2164 -1.26703 4.08816 0
M  V30 692 C 63.5424 -2.51898 4.71647 0
M  V30 693 C 64.8424 -0.388962 5.2085 0
M  V30 694 H 66.5364 0.0552661 2.99349 0
M  V30 695 H 64.0824 0.0280207 1.43973 0
M  V30 696 H 66.0354 -2.32535 3.51433 0
M  V30 697 H 64.7594 -2.34639 2.27183 0
M  V30 698 H 63.4184 -0.679896 3.6024 0
M  V30 699 H 63.0664 -3.13356 3.93468 0
M  V30 700 H 62.7664 -2.22605 5.43802 0
M  V30 701 H 64.2904 -3.1369 5.23861 0
M  V30 702 H 65.7044 -0.905107 5.6611 0
M  V30 703 H 64.1014 -0.18924 5.99802 0
M  V30 704 H 65.1714 0.582699 4.81386 0
M  V30 705 N 66.5145 -1.57545 0.0417849 0
M  V30 706 C 67.7605 -1.92601 -0.635021 0
M  V30 707 C 68.0935 -0.919627 -1.71045 0
M  V30 708 O 67.3685 0.0557892 -1.9442 0
M  V30 709 C 67.6515 -3.38085 -1.23979 0
M  V30 710 C 67.5045 -4.49467 -0.173057 0
M  V30 711 C 68.8235 -3.83776 -2.15416 0
M  V30 712 H 65.9425 -0.700397 -0.229374 0
M  V30 713 H 68.5845 -1.89728 0.101633 0
M  V30 714 H 66.7345 -3.40664 -1.86762 0
M  V30 715 H 68.4065 -4.59018 0.458312 0
M  V30 716 H 66.6495 -4.30909 0.499996 0
M  V30 717 H 67.3205 -5.48323 -0.636054 0
M  V30 718 H 69.7965 -3.83013 -1.62605 0
M  V30 719 H 68.6725 -4.8624 -2.54679 0
M  V30 720 H 68.9335 -3.19998 -3.05047 0
M  V30 721 N 67.9926 0.231505 -1.5589 0
M  V30 722 C 69.2696 0.981096 -1.69215 0
M  V30 723 C 69.6496 2.02799 -0.586164 0
M  V30 724 O 68.9976 2.24823 0.408253 0
M  V30 725 C 69.2076 1.60054 -3.10135 0
M  V30 726 C 70.5556 2.09658 -3.69227 0
M  V30 727 O 71.5796 1.69967 -3.13033 0
M  V30 728 O 70.4386 2.8258 -4.67772 0
M  V30 729 H 67.5326 0.457653 -0.688827 0
M  V30 730 H 70.0786 0.224073 -1.68214 0
M  V30 731 H 68.8506 0.844105 -3.82087 0
M  V30 732 H 68.4736 2.42336 -3.15212 0
M  V30 733 N 69.4707 1.49531 0.497807 0
M  V30 734 C 70.7187 1.58865 1.24926 0
M  V30 735 C 71.0397 0.278721 1.92998 0
M  V30 736 O 70.3097 -0.702144 1.82885 0
M  V30 737 H 68.8897 0.585343 0.464094 0
M  V30 738 H 71.5517 1.86174 0.57666 0
M  V30 739 H 70.6477 2.38633 2.01149 0
M  V30 740 N 70.9488 -0.749086 1.3866 0
M  V30 741 C 71.8818 -1.87111 1.30631 0
M  V30 742 C 72.8598 -1.61572 0.18251 0
M  V30 743 O 74.0438 -1.85019 0.360592 0
M  V30 744 C 71.1708 -3.22815 1.02511 0
M  V30 745 C 70.2168 -3.67234 2.1689 0
M  V30 746 S 71.0498 -3.78245 3.79066 0
M  V30 747 C 72.2058 -5.16761 3.53142 0
M  V30 748 H 72.4388 -1.93636 2.25594 0
M  V30 749 H 69.9718 -0.912525 1.24549 0
M  V30 750 H 71.9298 -4.01181 0.869701 0
M  V30 751 H 70.5908 -3.13964 0.0925884 0
M  V30 752 H 69.7838 -4.65677 1.92771 0
M  V30 753 H 69.3858 -2.96034 2.28561 0
M  V30 754 H 71.6778 -6.02656 3.09534 0
M  V30 755 H 72.6208 -5.45902 4.50995 0
M  V30 756 H 73.0288 -4.85771 2.87554 0
M  V30 757 N 72.4269 -1.23603 -0.977757 0
M  V30 758 C 73.6519 -1.09735 -1.75991 0
M  V30 759 C 74.0769 0.346858 -1.84874 0
M  V30 760 O 73.4349 1.25093 -1.3123 0
M  V30 761 C 73.4829 -1.73051 -3.16363 0
M  V30 762 O 72.5869 -0.994452 -4.0023 0
M  V30 763 H 71.9279 -0.384476 -0.541364 0
M  V30 764 H 74.4579 -1.6371 -1.2272 0
M  V30 765 H 74.4679 -1.78398 -3.66931 0
M  V30 766 H 73.1429 -2.78137 -3.09213 0
M  V30 767 H 71.7199 -1.01812 -3.58732 0
M  V30 768 N 73.905 1.17692 -1.04816 0
M  V30 769 C 75.13 1.92327 -0.776207 0
M  V30 770 C 75.555 1.76082 0.661581 0
M  V30 771 O 74.913 1.076 1.45917 0
M  V30 772 C 74.961 3.41539 -1.15687 0
M  V30 773 O 74.065 4.11402 -0.286775 0
M  V30 774 H 73.406 0.599735 -0.284981 0
M  V30 775 H 75.936 1.49201 -1.4 0
M  V30 776 H 75.946 3.92269 -1.12202 0
M  V30 777 H 74.621 3.52684 -2.20425 0
M  V30 778 H 73.198 3.70939 -0.381903 0
M  V30 779 N 75.3831 0.828654 1.34056 0
M  V30 780 C 76.6291 0.429279 1.98818 0
M  V30 781 C 76.9841 -0.998011 1.64492 0
M  V30 782 O 76.2771 -1.68652 0.909228 0
M  V30 783 C 76.4711 0.575226 3.52741 0
M  V30 784 C 76.3001 2.01515 4.02022 0
M  V30 785 C 75.0701 2.64825 4.30344 0
M  V30 786 C 77.2681 2.98261 4.18981 0
M  V30 787 N 75.2501 3.99998 4.65698 0
M  V30 788 C 76.6211 4.18356 4.57578 0
M  V30 789 C 78.6761 2.94802 4.01243 0
M  V30 790 C 77.3791 5.35454 4.80293 0
M  V30 791 C 79.4051 4.11121 4.25128 0
M  V30 792 C 78.7671 5.29969 4.64018 0
M  V30 793 H 74.8661 0.205304 0.754569 0
M  V30 794 H 77.4501 1.07457 1.62361 0
M  V30 795 H 75.6211 -0.0401962 3.88379 0
M  V30 796 H 77.3531 0.148292 4.04428 0
M  V30 797 H 74.1081 2.16027 4.21461 0
M  V30 798 H 74.5321 4.69653 4.87601 0
M  V30 799 H 79.1741 2.04054 3.70299 0
M  V30 800 H 76.8921 6.26755 5.10102 0
M  V30 801 H 80.4781 4.0985 4.12934 0
M  V30 802 H 79.3581 6.18479 4.82134 0
M  V30 803 N 76.8612 -1.46375 0.584142 0
M  V30 804 C 78.1072 -2.03248 0.0787103 0
M  V30 805 C 78.4622 -1.44737 -1.26763 0
M  V30 806 O 77.7552 -0.603625 -1.81843 0
M  V30 807 C 77.9492 -3.57373 -0.0439342 0
M  V30 808 C 77.7782 -4.30831 1.28897 0
M  V30 809 C 76.5482 -4.69683 1.8635 0
M  V30 810 C 78.7462 -4.64278 2.21248 0
M  V30 811 N 76.7282 -5.27898 3.13365 0
M  V30 812 C 78.0992 -5.23078 3.32851 0
M  V30 813 C 80.1542 -4.46209 2.20911 0
M  V30 814 C 78.8572 -5.65715 4.44251 0
M  V30 815 C 80.8832 -4.89864 3.31341 0
M  V30 816 C 80.2452 -5.48736 4.41665 0
M  V30 817 H 76.3442 -0.778714 0.0716144 0
M  V30 818 H 78.9282 -1.78509 0.777355 0
M  V30 819 H 77.0992 -3.81823 -0.711749 0
M  V30 820 H 78.8312 -4.00892 -0.553881 0
M  V30 821 H 75.5862 -4.52488 1.39826 0
M  V30 822 H 76.0102 -5.61525 3.78178 0
M  V30 823 H 80.6522 -4.00027 1.36888 0
M  V30 824 H 78.3702 -6.10875 5.29015 0
M  V30 825 H 81.9562 -4.77634 3.322 0
M  V30 826 H 80.8362 -5.81898 5.25704 0
M  V30 827 N 78.3393 -0.321999 -1.54275 0
M  V30 828 C 79.3023 0.531975 -2.22941 0
M  V30 829 C 80.3023 1.04478 -1.22234 0
M  V30 830 O 81.4923 0.937452 -1.46825 0
M  V30 831 C 78.6243 1.73874 -2.93224 0
M  V30 832 H 79.8173 -0.0682612 -2.99822 0
M  V30 833 H 77.3703 -0.0730644 -1.56129 0
M  V30 834 H 78.1053 2.37825 -2.20476 0
M  V30 835 H 77.8903 1.37847 -3.6707 0
M  V30 836 H 79.3803 2.34496 -3.45545 0
M  V30 837 N 79.8174 1.5752 -0.0501392 0
M  V30 838 C 80.7804 2.1037 0.909786 0
M  V30 839 C 81.7804 1.02308 1.24056 0
M  V30 840 O 82.9704 1.28385 1.17741 0
M  V30 841 C 80.1024 2.58708 2.21998 0
M  V30 842 H 81.2954 2.96479 0.451665 0
M  V30 843 H 78.8484 1.55038 0.198248 0
M  V30 844 H 79.5834 1.75989 2.72394 0
M  V30 845 H 79.3684 3.37675 1.99295 0
M  V30 846 H 80.8584 2.99747 2.9076 0
M  V30 847 N 81.2955 -0.223234 1.56011 0
M  V30 848 C 82.5445 -0.945912 1.78144 0
M  V30 849 C 82.8575 -1.85567 0.618396 0
M  V30 850 O 84.0635 -2.61688 0.723318 0
M  V30 851 C 82.5195 -1.73216 3.15475 0
M  V30 852 C 82.1275 -0.868619 4.39499 0
M  V30 853 C 83.8715 -2.44615 3.46935 0
M  V30 854 C 81.7785 -1.65212 5.67855 0
M  V30 855 H 80.7085 -0.356929 0.664167 0
M  V30 856 H 83.3595 -0.199845 1.82409 0
M  V30 857 H 81.7415 -2.52107 3.05382 0
M  V30 858 H 82.9155 -0.120366 4.60643 0
M  V30 859 H 81.2305 -0.26683 4.15544 0
M  V30 860 H 83.8275 -3.03732 4.40058 0
M  V30 861 H 84.1705 -3.17417 2.69355 0
M  V30 862 H 84.7035 -1.72715 3.58349 0
M  V30 863 H 81.4425 -0.967407 6.48322 0
M  V30 864 H 80.9625 -2.37503 5.50774 0
M  V30 865 H 82.6415 -2.21322 6.07968 0
M  V30 866 N 82.7736 -1.49793 -0.48987 0
M  V30 867 C 83.7236 -1.63673 -1.5873 0
M  V30 868 C 84.7076 -0.491956 -1.53195 0
M  V30 869 O 85.8996 -0.745461 -1.60536 0
M  V30 870 C 83.0286 -1.71689 -2.97284 0
M  V30 871 C 82.1146 -2.91781 -3.07774 0
M  V30 872 N 82.5056 -4.15714 -2.88124 0
M  V30 873 C 80.8036 -2.89949 -3.38889 0
M  V30 874 C 81.5046 -4.965 -3.03088 0
M  V30 875 N 80.4806 -4.30083 -3.3246 0
M  V30 876 H 84.2826 -2.57204 -1.42208 0
M  V30 877 H 81.7966 -1.46719 -0.69623 0
M  V30 878 H 83.7936 -1.79732 -3.76168 0
M  V30 879 H 82.4536 -0.793024 -3.14867 0
M  V30 880 H 83.4646 -4.45515 -2.64077 0
M  V30 881 H 80.1416 -2.06987 -3.62578 0
M  V30 882 H 81.5316 -6.04991 -2.92294 0
M  V30 883 N 84.2517 0.741722 -1.39055 0
M  V30 884 C 85.4997 1.49818 -1.35643 0
M  V30 885 C 85.8207 1.94938 0.0491642 0
M  V30 886 O 85.0907 1.68505 0.999141 0
M  V30 887 H 83.6707 0.555755 -0.499144 0
M  V30 888 H 86.3327 0.880957 -1.73854 0
M  V30 889 H 85.4287 2.38348 -2.01486 0
M  V30 890 N 85.7298 1.2412 0.971189 0
M  V30 891 C 86.9598 1.10415 1.7462 0
M  V30 892 C 87.3678 -0.346462 1.86001 0
M  V30 893 O 86.7108 -1.25104 1.34517 0
M  V30 894 C 86.7728 1.66596 3.18568 0
M  V30 895 C 86.4368 3.15446 3.3067 0
M  V30 896 C 87.4338 4.12636 3.16271 0
M  V30 897 C 85.1188 3.55337 3.55022 0
M  V30 898 C 87.1128 5.47699 3.26044 0
M  V30 899 C 84.7998 4.90542 3.64434 0
M  V30 900 C 85.7978 5.86532 3.49956 0
M  V30 901 O 85.4858 7.19279 3.59017 0
M  V30 902 H 85.2178 0.386616 0.55453 0
M  V30 903 H 87.7718 1.64633 1.22821 0
M  V30 904 H 86.0018 1.06808 3.71657 0
M  V30 905 H 87.6908 1.48232 3.77865 0
M  V30 906 H 88.4568 3.8316 2.97344 0
M  V30 907 H 84.3358 2.8113 3.65359 0
M  V30 908 H 87.8798 6.22603 3.14661 0
M  V30 909 H 83.7768 5.19691 3.82873 0
M  V30 910 H 84.5448 7.27153 3.75754 0
M  V30 911 N 87.2079 -1.17134 1.05439 0
M  V30 912 C 88.1559 -2.23289 0.651511 0
M  V30 913 C 89.1499 -1.66186 -0.328411 0
M  V30 914 O 90.3559 -1.78949 -0.194206 0
M  V30 915 H 86.7309 -0.726938 0.192523 0
M  V30 916 H 88.7019 -2.54565 1.55689 0
M  V30 917 C 87.4509 -3.47671 0.0448436 0
M  V30 918 H 86.7739 -3.91918 0.78996 0
M  V30 919 H 88.2139 -4.2353 -0.19964 0
M  V30 920 C 86.6729 -3.14453 -1.20918 0
M  V30 921 O 87.2029 -3.29459 -2.29825 0
M  V30 922 N 85.4089 -2.68657 -1.10779 0
M  V30 923 H 84.9559 -2.56646 -0.221526 0
M  V30 924 H 84.9139 -2.46804 -1.9477 0
M  V30 925 N 88.686 -0.835752 -1.33615 0
M  V30 926 C 89.636 -0.238856 -2.26745 0
M  V30 927 C 90.62 0.604343 -1.49119 0
M  V30 928 O 91.812 0.456822 -1.71003 0
M  V30 929 C 88.941 0.587725 -3.38232 0
M  V30 930 C 88.027 -0.266811 -4.2326 0
M  V30 931 N 88.418 -1.34403 -4.87616 0
M  V30 932 C 86.716 -0.0533131 -4.45968 0
M  V30 933 C 87.417 -1.86819 -5.50884 0
M  V30 934 N 86.393 -1.17013 -5.30857 0
M  V30 935 H 90.195 -1.06266 -2.74016 0
M  V30 936 H 87.709 -0.679881 -1.47483 0
M  V30 937 H 89.706 1.03161 -4.03935 0
M  V30 938 H 88.366 1.40954 -2.9251 0
M  V30 939 H 89.377 -1.7269 -4.88261 0
M  V30 940 H 86.054 0.735312 -4.10974 0
M  V30 941 H 87.444 -2.7701 -6.1214 0
M  V30 942 N 90.1641 1.46063 -0.591896 0
M  V30 943 C 91.5751 1.85944 -0.167822 0
M  V30 944 C 91.9261 1.49429 1.27143 0
M  V30 945 O 91.0511 0.913515 1.96173 0
M  V30 946 C 91.6461 3.37489 -0.297794 0
M  V30 947 C 90.2051 3.76332 0.0714732 0
M  V30 948 C 89.3521 2.7006 -0.629509 0
M  V30 949 H 92.3031 1.37087 -0.799555 0
M  V30 950 H 92.3241 3.77532 0.474349 0
M  V30 951 H 91.8361 3.64034 -1.3454 0
M  V30 952 H 89.9371 3.55405 1.11886 0
M  V30 953 H 90.0501 4.78088 -0.311245 0
M  V30 954 H 88.4141 2.54607 -0.0687867 0
M  V30 955 H 89.1971 2.99444 -1.67894 0
M  V30 956 N 91.6422 0.330177 1.54103 0
M  V30 957 C 92.5742 -0.566902 2.22079 0
M  V30 958 C 93.5872 -1.07462 1.22294 0
M  V30 959 O 94.7762 -0.987065 1.48726 0
M  V30 960 C 91.8762 -1.79138 2.87685 0
M  V30 961 C 91.0492 -1.42123 4.13666 0
M  V30 962 C 90.1082 -2.50394 4.62806 0
M  V30 963 O 89.1342 -2.14261 5.27334 0
M  V30 964 N 90.3362 -3.81433 4.37595 0
M  V30 965 H 93.1012 0.0151844 2.99696 0
M  V30 966 H 90.6622 0.153681 1.61169 0
M  V30 967 H 92.6542 -2.50975 3.1748 0
M  V30 968 H 91.2242 -2.28115 2.13734 0
M  V30 969 H 90.4442 -0.534201 3.90564 0
M  V30 970 H 91.7322 -1.14971 4.9564 0
M  V30 971 H 91.1302 -4.13584 3.8596 0
M  V30 972 H 89.6872 -4.4948 4.72029 0
M  V30 973 N 93.1203 -1.57491 0.0584922 0
M  V30 974 C 94.0503 -2.14988 -0.911178 0
M  V30 975 C 95.0313 -1.07343 -1.31952 0
M  V30 976 O 96.2163 -1.35318 -1.39294 0
M  V30 977 C 93.3463 -2.70078 -2.18347 0
M  V30 978 C 92.3003 -3.82771 -1.91495 0
M  V30 979 C 91.6263 -4.24408 -3.25241 0
M  V30 980 C 92.9263 -5.07592 -1.23075 0
M  V30 981 H 94.6203 -2.96263 -0.432246 0
M  V30 982 H 92.1663 -1.42512 -0.206469 0
M  V30 983 H 94.1193 -3.08943 -2.86587 0
M  V30 984 H 92.8433 -1.86005 -2.68458 0
M  V30 985 H 91.5023 -3.44389 -1.25664 0
M  V30 986 H 91.1503 -3.37275 -3.73168 0
M  V30 987 H 90.8503 -5.00366 -3.08071 0
M  V30 988 H 92.3743 -4.65879 -3.94701 0
M  V30 989 H 93.7883 -5.43857 -1.81362 0
M  V30 990 H 92.1853 -5.88741 -1.16207 0
M  V30 991 H 93.2553 -4.84454 -0.207847 0
M  V30 992 N 94.5984 0.214957 -1.56127 0
M  V30 993 C 95.5464 1.28601 -1.93816 0
M  V30 994 C 96.5404 1.48175 -0.821016 0
M  V30 995 O 97.7464 1.49271 -1.0059 0
M  V30 996 H 94.1214 0.431302 -0.616022 0
M  V30 997 H 96.0924 0.940991 -2.83175 0
M  V30 998 C 94.8414 2.62779 -2.27689 0
M  V30 999 H 94.1644 2.48527 -3.13168 0
M  V30 1000 H 95.6044 3.36517 -2.57939 0
M  V30 1001 C 94.0634 3.18285 -1.10436 0
M  V30 1002 O 94.5934 4.00002 -0.368945 0
M  V30 1003 N 92.7994 2.7675 -0.886433 0
M  V30 1004 H 92.3464 2.10404 -1.48619 0
M  V30 1005 H 92.3044 3.14229 -0.103656 0
M  V30 1006 N 96.0765 1.50051 0.48192 0
M  V30 1007 C 97.0395 1.67584 1.5636 0
M  V30 1008 C 98.0395 0.546894 1.51214 0
M  V30 1009 O 99.2295 0.813725 1.54026 0
M  V30 1010 C 96.3615 1.691 2.96003 0
M  V30 1011 H 97.5545 2.64078 1.42136 0
M  V30 1012 H 95.1075 1.39369 0.707533 0
M  V30 1013 H 95.8425 0.742589 3.15684 0
M  V30 1014 H 95.6275 2.51105 3.01146 0
M  V30 1015 H 97.1175 1.84656 3.74556 0
M  V30 1016 N 97.5546 -0.734337 1.39446 0
M  V30 1017 C 98.5176 -1.83004 1.37994 0
M  V30 1018 C 99.5176 -1.58397 0.276938 0
M  V30 1019 O 100.708 -1.65785 0.534875 0
M  V30 1020 C 97.8396 -3.20802 1.1532 0
M  V30 1021 H 99.0326 -1.85694 2.35494 0
M  V30 1022 H 96.5856 -0.938059 1.25021 0
M  V30 1023 H 97.3206 -3.23772 0.185036 0
M  V30 1024 H 97.1056 -3.4006 1.95197 0
M  V30 1025 H 98.5956 -4.00862 1.17046 0
M  V30 1026 N 99.0327 -1.24633 -0.964593 0
M  V30 1027 C 99.9657 -0.984662 -2.05863 0
M  V30 1028 C 100.944 0.0826554 -1.6239 0
M  V30 1029 O 102.128 -0.0549296 -1.8842 0
M  V30 1030 C 99.2547 -0.486529 -3.35187 0
M  V30 1031 C 98.3007 -1.54286 -3.97615 0
M  V30 1032 S 99.1337 -3.12513 -4.34851 0
M  V30 1033 C 100.29 -2.6441 -5.67308 0
M  V30 1034 H 100.523 -1.91104 -2.27743 0
M  V30 1035 H 98.0557 -1.08052 -1.10291 0
M  V30 1036 H 100.014 -0.205757 -4.09984 0
M  V30 1037 H 98.6747 0.419186 -3.1129 0
M  V30 1038 H 97.8677 -1.14481 -4.90826 0
M  V30 1039 H 97.4697 -1.7738 -3.2926 0
M  V30 1040 H 99.7617 -2.07416 -6.44969 0
M  V30 1041 H 100.705 -3.56222 -6.11973 0
M  V30 1042 H 101.113 -2.04734 -5.26065 0
M  V30 1043 N 100.511 1.16574 -1.06058 0
M  V30 1044 C 101.458 2.20883 -0.669263 0
M  V30 1045 C 102.428 1.62729 0.332918 0
M  V30 1046 O 103.613 1.895 0.222346 0
M  V30 1047 C 100.753 3.45049 -0.0593572 0
M  V30 1048 C 99.8658 4.17458 -1.11143 0
M  V30 1049 C 99.0008 5.29135 -0.467916 0
M  V30 1050 C 98.0398 5.93343 -1.50369 0
M  V30 1051 N 97.1768 6.96516 -0.883706 0
M  V30 1052 H 102.017 2.53709 -1.5632 0
M  V30 1053 H 99.5538 1.24616 -0.781625 0
M  V30 1054 H 101.512 4.16033 0.311771 0
M  V30 1055 H 100.142 3.12781 0.797992 0
M  V30 1056 H 99.1938 3.45101 -1.60029 0
M  V30 1057 H 100.506 4.61307 -1.89731 0
M  V30 1058 H 99.6598 6.06684 -0.0436871 0
M  V30 1059 H 98.3988 4.86443 0.349864 0
M  V30 1060 H 97.4038 5.14517 -1.93784 0
M  V30 1061 H 98.6288 6.38114 -2.32352 0
M  V30 1062 H 96.5748 6.55943 -0.086595 0
M  V30 1063 H 96.4918 7.38723 -1.607 0
M  V30 1064 H 97.7598 7.77993 -0.484543 0
M  V30 1065 N 101.989 0.842826 1.3317 0
M  V30 1066 C 103.214 0.453129 2.02389 0
M  V30 1067 C 103.639 -0.939105 1.6298 0
M  V30 1068 O 102.997 -1.61472 0.8244 0
M  V30 1069 C 103.045 0.586094 3.55805 0
M  V30 1070 O 102.149 -0.386029 4.10589 0
M  V30 1071 H 101.49 0.183664 0.638094 0
M  V30 1072 H 104.02 1.13875 1.69981 0
M  V30 1073 H 104.03 0.469209 4.05293 0
M  V30 1074 H 102.705 1.6014 3.83833 0
M  V30 1075 H 101.282 -0.226371 3.72212 0
M  V30 1076 N 103.467 -1.45747 0.599634 0
M  V30 1077 C 104.399 -2.28628 -0.161879 0
M  V30 1078 C 105.412 -1.39494 -0.839367 0
M  V30 1079 O 106.601 -1.63941 -0.706089 0
M  V30 1080 C 103.701 -3.15014 -1.24976 0
M  V30 1081 C 102.874 -4.32378 -0.660935 0
M  V30 1082 C 101.933 -5.00033 -1.63869 0
M  V30 1083 O 100.959 -5.57085 -1.1681 0
M  V30 1084 N 102.161 -4.98589 -2.97303 0
M  V30 1085 H 104.926 -2.94624 0.549265 0
M  V30 1086 H 102.487 -1.55847 0.438565 0
M  V30 1087 H 104.479 -3.5714 -1.9035 0
M  V30 1088 H 103.049 -2.5098 -1.86354 0
M  V30 1089 H 102.269 -3.9383 0.170688 0
M  V30 1090 H 103.557 -5.08197 -0.247619 0
M  V30 1091 H 102.955 -4.53514 -3.38145 0
M  V30 1092 H 101.512 -5.44603 -3.58121 0
M  V30 1093 N 104.945 -0.338344 -1.53925 0
M  V30 1094 C 106.194 0.260732 -2.00008 0
M  V30 1095 C 106.507 1.52073 -1.23017 0
M  V30 1096 O 107.713 2.19672 -1.5955 0
M  V30 1097 C 106.169 0.51515 -3.56194 0
M  V30 1098 C 105.777 -0.728645 -4.42035 0
M  V30 1099 C 107.521 1.07337 -4.10706 0
M  V30 1100 C 105.428 -0.445315 -5.89721 0
M  V30 1101 H 104.358 0.101205 -0.747177 0
M  V30 1102 H 107.009 -0.452866 -1.77824 0
M  V30 1103 H 105.391 1.28932 -3.74423 0
M  V30 1104 H 106.565 -1.50352 -4.35581 0
M  V30 1105 H 104.88 -1.20813 -3.98489 0
M  V30 1106 H 107.477 1.30022 -5.18651 0
M  V30 1107 H 107.82 2.0273 -3.63602 0
M  V30 1108 H 108.353 0.360034 -3.96167 0
M  V30 1109 H 105.092 -1.36883 -6.41049 0
M  V30 1110 H 104.612 0.291569 -5.99091 0
M  V30 1111 H 106.291 -0.0606218 -6.46972 0
M  V30 1112 N 106.423 1.57458 -0.0668435 0
M  V30 1113 C 107.7 1.8469 0.644132 0
M  V30 1114 C 108.08 0.958343 1.88093 0
M  V30 1115 O 107.428 0.0233579 2.28488 0
M  V30 1116 C 107.638 3.34767 0.986509 0
M  V30 1117 C 108.986 4.02159 1.36212 0
M  V30 1118 O 110.01 3.39484 1.07839 0
M  V30 1119 O 108.869 5.12694 1.89227 0
M  V30 1120 H 105.963 0.762816 0.319437 0
M  V30 1121 H 108.509 1.6942 -0.0973986 0
M  V30 1122 H 107.281 3.91151 0.107883 0
M  V30 1123 H 106.904 3.55281 1.78497 0
M  V30 1124 N 107.901 -0.206675 1.56239 0
M  V30 1125 C 108.864 -1.23976 1.92776 0
M  V30 1126 C 109.864 -1.39041 0.807729 0
M  V30 1127 O 111.054 -1.37051 1.0753 0
M  V30 1128 C 108.186 -2.61112 2.19165 0
M  V30 1129 H 109.379 -0.927764 2.85189 0
M  V30 1130 H 106.932 -0.447718 1.4975 0
M  V30 1131 H 107.667 -2.97386 1.29352 0
M  V30 1132 H 107.452 -2.51552 3.00772 0
M  V30 1133 H 108.942 -3.35633 2.48476 0
M  V30 1134 N 109.379 -1.50304 -0.473955 0
M  V30 1135 C 110.312 -1.63595 -1.59097 0
M  V30 1136 C 111.29 -0.484142 -1.55225 0
M  V30 1137 O 112.474 -0.703271 -1.7489 0
M  V30 1138 C 109.601 -1.61589 -2.97669 0
M  V30 1139 C 108.647 -2.82295 -3.19705 0
M  V30 1140 S 109.48 -4.43635 -2.99913 0
M  V30 1141 C 110.636 -4.44317 -4.40832 0
M  V30 1142 H 110.869 -2.58082 -1.47583 0
M  V30 1143 H 108.402 -1.39531 -0.661087 0
M  V30 1144 H 110.36 -1.61116 -3.7756 0
M  V30 1145 H 109.021 -0.683421 -3.06575 0
M  V30 1146 H 108.214 -2.77188 -4.20931 0
M  V30 1147 H 107.816 -2.8032 -2.47582 0
M  V30 1148 H 110.108 -4.17703 -5.33414 0
M  V30 1149 H 111.051 -5.45911 -4.50984 0
M  V30 1150 H 111.459 -3.74059 -4.22777 0
M  V30 1151 N 110.857 0.726932 -1.39834 0
M  V30 1152 C 112.082 1.52121 -1.40976 0
M  V30 1153 C 112.507 1.88098 -0.00826029 0
M  V30 1154 O 111.865 1.52479 0.980807 0
M  V30 1155 C 111.913 2.78021 -2.29644 0
M  V30 1156 O 111.017 3.74272 -1.73188 0
M  V30 1157 H 110.358 0.45908 -0.479731 0
M  V30 1158 H 112.888 0.896207 -1.83927 0
M  V30 1159 H 112.898 3.26671 -2.44438 0
M  V30 1160 H 111.573 2.51169 -3.31492 0
M  V30 1161 H 110.15 3.33073 -1.6768 0
M  V30 1162 N 112.336 1.25143 0.95797 0
M  V30 1163 C 113.286 1.01924 2.0395 0
M  V30 1164 C 114.27 -0.0427175 1.60843 0
M  V30 1165 O 115.462 0.17221 1.7616 0
M  V30 1166 C 112.591 0.636373 3.3735 0
M  V30 1167 C 111.677 1.73492 3.8699 0
M  V30 1168 N 112.068 2.96945 4.0946 0
M  V30 1169 C 110.366 1.61467 4.15746 0
M  V30 1170 C 111.067 3.68228 4.50315 0
M  V30 1171 N 110.043 2.95833 4.56053 0
M  V30 1172 H 113.845 1.95653 2.19311 0
M  V30 1173 H 111.359 1.15413 1.14253 0
M  V30 1174 H 113.356 0.451233 4.14451 0
M  V30 1175 H 112.016 -0.293621 3.2337 0
M  V30 1176 H 113.027 3.33025 3.96629 0
M  V30 1177 H 109.704 0.753394 4.10646 0
M  V30 1178 H 111.094 4.74178 4.76031 0
M  V30 1179 N 113.814 -1.1601 1.06675 0
M  V30 1180 C 115.06 -1.86909 0.786945 0
M  V30 1181 C 115.393 -1.81717 -0.685018 0
M  V30 1182 O 114.668 -1.23551 -1.50218 0
M  V30 1183 C 114.951 -3.36313 1.28707 0
M  V30 1184 C 114.804 -3.50175 2.82308 0
M  V30 1185 C 116.123 -4.3084 0.898071 0
M  V30 1186 H 113.242 -0.678677 0.287343 0
M  V30 1187 H 115.884 -1.36336 1.32334 0
M  V30 1188 H 114.034 -3.79513 0.830768 0
M  V30 1189 H 115.706 -3.15886 3.36175 0
M  V30 1190 H 113.949 -2.91959 3.20847 0
M  V30 1191 H 114.62 -4.55116 3.12368 0
M  V30 1192 H 117.096 -3.95561 1.29114 0
M  V30 1193 H 115.972 -5.33876 1.27543 0
M  V30 1194 H 116.233 -4.41662 -0.196651 0
M  V30 1195 N 115.292 -0.849877 -1.32721 0
M  V30 1196 C 116.225 -0.235903 -2.26977 0
M  V30 1197 C 117.203 0.623355 -1.50177 0
M  V30 1198 O 118.387 0.581207 -1.79316 0
M  V30 1199 C 115.514 0.667712 -3.32053 0
M  V30 1200 C 114.56 -0.11753 -4.26338 0
M  V30 1201 S 115.393 -1.48277 -5.14562 0
M  V30 1202 C 116.549 -0.584741 -6.23163 0
M  V30 1203 H 116.782 -1.03495 -2.78704 0
M  V30 1204 H 114.315 -0.64724 -1.40179 0
M  V30 1205 H 116.273 1.18343 -3.93072 0
M  V30 1206 H 114.934 1.44052 -2.7912 0
M  V30 1207 H 114.127 0.57051 -5.00761 0
M  V30 1208 H 113.729 -0.564668 -3.69713 0
M  V30 1209 H 116.021 0.212968 -6.77165 0
M  V30 1210 H 116.964 -1.29947 -6.96074 0
M  V30 1211 H 117.372 -0.161202 -5.6427 0
M  V30 1212 N 116.77 1.45427 -0.607355 0
M  V30 1213 C 118.017 2.02241 -0.102455 0
M  V30 1214 C 118.345 1.4758 1.26691 0
M  V30 1215 O 117.6 0.640468 1.84923 0
M  V30 1216 C 117.899 3.57398 -0.0129263 0
M  V30 1217 C 117.565 4.3121 -1.31792 0
M  V30 1218 C 116.227 4.51092 -1.67539 0
M  V30 1219 C 118.579 4.73401 -2.18039 0
M  V30 1220 C 115.907 5.10422 -2.89285 0
M  V30 1221 C 118.259 5.34078 -3.39034 0
M  V30 1222 C 116.923 5.52184 -3.75033 0
M  V30 1223 H 116.193 0.740051 -0.037491 0
M  V30 1224 H 118.84 1.74494 -0.788926 0
M  V30 1225 H 117.145 3.84421 0.756806 0
M  V30 1226 H 118.842 3.99061 0.393881 0
M  V30 1227 H 115.432 4.16047 -1.02968 0
M  V30 1228 H 119.616 4.57774 -1.91721 0
M  V30 1229 H 114.872 5.22629 -3.17283 0
M  V30 1230 H 119.046 5.65724 -4.06115 0
M  V30 1231 H 116.673 5.97925 -4.69457 0
M  V30 1232 N 118.248 0.346503 1.53744 0
M  V30 1233 C 119.496 -0.248612 2.00565 0
M  V30 1234 C 119.817 -1.5083 1.23593 0
M  V30 1235 O 119.087 -1.92858 0.343912 0
M  V30 1236 H 117.667 -0.0948564 0.740953 0
M  V30 1237 H 120.329 0.468341 1.89189 0
M  V30 1238 H 119.425 -0.488994 3.08245 0
M  V30 1239 N 119.726 -1.57421 0.075193 0
M  V30 1240 C 120.974 -1.93236 -0.591974 0
M  V30 1241 C 121.295 -0.956241 -1.69944 0
M  V30 1242 O 120.565 -0.00494792 -1.95899 0
M  V30 1243 H 119.145 -0.713355 -0.22166 0
M  V30 1244 H 121.807 -1.9444 0.133848 0
M  V30 1245 H 120.903 -2.95131 -1.01509 0
M  V30 1246 N 121.204 0.198386 -1.56346 0
M  V30 1247 C 122.453 0.917451 -1.79627 0
M  V30 1248 C 122.766 1.8456 -0.64784 0
M  V30 1249 O 123.972 2.60504 -0.764859 0
M  V30 1250 C 122.428 1.68175 -3.18191 0
M  V30 1251 C 122.036 0.798589 -4.40825 0
M  V30 1252 C 123.78 2.39065 -3.50782 0
M  V30 1253 C 121.687 1.56157 -5.70411 0
M  V30 1254 H 120.617 0.346317 -0.669762 0
M  V30 1255 H 123.268 0.170801 -1.82703 0
M  V30 1256 H 121.65 2.47216 -3.09354 0
M  V30 1257 H 122.824 0.0470665 -4.60776 0
M  V30 1258 H 121.139 0.200686 -4.15916 0
M  V30 1259 H 123.736 2.96692 -4.44835 0
M  V30 1260 H 124.079 3.13091 -2.74371 0
M  V30 1261 H 124.612 1.66993 -3.61052 0
M  V30 1262 H 121.351 0.864142 -6.49779 0
M  V30 1263 H 120.871 2.2871 -5.54483 0
M  V30 1264 H 122.55 2.11622 -6.11412 0
M  V30 1265 N 122.682 1.50554 0.465978 0
M  V30 1266 C 123.91 1.65563 1.24083 0
M  V30 1267 C 124.325 0.341051 1.85694 0
M  V30 1268 O 123.682 -0.677543 1.69457 0
M  V30 1269 C 123.733 2.75051 2.34583 0
M  V30 1270 O 123.454 4.01413 1.75497 0
M  V30 1271 C 124.955 3.01078 3.25372 0
M  V30 1272 H 122.175 0.55638 0.375077 0
M  V30 1273 H 124.719 1.96807 0.555624 0
M  V30 1274 H 122.874 2.46486 2.9887 0
M  V30 1275 H 123.288 4.62002 2.48303 0
M  V30 1276 H 124.762 3.81339 3.99105 0
M  V30 1277 H 125.239 2.12349 3.84453 0
M  V30 1278 H 125.845 3.31194 2.66816 0
M  V30 1279 N 124.16 -0.719506 1.40217 0
M  V30 1280 C 125.11 -1.8251 1.36653 0
M  V30 1281 C 126.094 -1.59028 0.244732 0
M  V30 1282 O 127.286 -1.70268 0.483524 0
M  V30 1283 C 124.415 -3.20599 1.22763 0
M  V30 1284 C 123.501 -3.49858 2.39708 0
M  V30 1285 N 123.892 -3.49957 3.6519 0
M  V30 1286 C 122.19 -3.80297 2.33002 0
M  V30 1287 C 122.891 -3.77449 4.42614 0
M  V30 1288 N 121.867 -3.96002 3.72402 0
M  V30 1289 H 125.669 -1.80914 2.31619 0
M  V30 1290 H 123.183 -0.918455 1.33933 0
M  V30 1291 H 125.18 -3.99766 1.18292 0
M  V30 1292 H 123.84 -3.23424 0.287614 0
M  V30 1293 H 124.851 -3.309 3.98404 0
M  V30 1294 H 121.528 -3.90635 1.47346 0
M  V30 1295 H 122.918 -3.83863 5.51451 0
M  V30 1296 N 125.638 -1.25649 -0.95132 0
M  V30 1297 C 126.601 -1.06399 -2.03007 0
M  V30 1298 C 127.601 -0.0156794 -1.60792 0
M  V30 1299 O 128.791 -0.25817 -1.72276 0
M  V30 1300 C 125.923 -0.616184 -3.35285 0
M  V30 1301 H 127.116 -2.02164 -2.21517 0
M  V30 1302 H 124.669 -1.08103 -1.12887 0
M  V30 1303 H 125.404 0.343917 -3.22471 0
M  V30 1304 H 125.189 -1.37301 -3.67275 0
M  V30 1305 H 126.679 -0.503032 -4.14559 0
M  V30 1306 N 127.117 1.15442 -1.07289 0
M  V30 1307 C 128.528 1.67803 -0.818475 0
M  V30 1308 C 128.879 1.8489 0.656507 0
M  V30 1309 O 128.004 1.55176 1.50829 0
M  V30 1310 C 128.599 3.04805 -1.47917 0
M  V30 1311 C 127.158 3.54245 -1.27229 0
M  V30 1312 C 126.305 2.29986 -1.54925 0
M  V30 1313 H 129.256 0.996646 -1.23502 0
M  V30 1314 H 129.277 3.69702 -0.90005 0
M  V30 1315 H 128.789 2.92336 -2.55267 0
M  V30 1316 H 126.89 3.71956 -0.21899 0
M  V30 1317 H 127.003 4.35723 -1.99203 0
M  V30 1318 H 125.367 2.35496 -0.970242 0
M  V30 1319 H 126.15 2.20105 -2.63455 0
M  V30 1320 N 128.595 0.856903 1.32268 0
M  V30 1321 C 129.558 0.308171 2.27119 0
M  V30 1322 C 130.558 -0.533421 1.51695 0
M  V30 1323 O 131.748 -0.344607 1.70757 0
M  V30 1324 C 128.88 -0.563757 3.36206 0
M  V30 1325 H 130.073 1.14535 2.77167 0
M  V30 1326 H 127.626 0.631421 1.42978 0
M  V30 1327 H 128.361 -1.42266 2.91429 0
M  V30 1328 H 128.146 0.0386749 3.92081 0
M  V30 1329 H 129.636 -0.940386 4.06874 0
M  V30 1330 N 130.073 -1.45103 0.615059 0
M  V30 1331 C 131.322 -2.01396 0.110718 0
M  V30 1332 C 131.635 -1.48834 -1.26916 0
M  V30 1333 O 132.841 -1.97152 -1.86664 0
M  V30 1334 C 131.297 -3.59599 0.14723 0
M  V30 1335 C 130.905 -4.21158 1.52743 0
M  V30 1336 C 132.649 -4.23428 -0.30148 0
M  V30 1337 C 130.556 -5.71535 1.51992 0
M  V30 1338 H 129.486 -0.753061 0.0376241 0
M  V30 1339 H 132.137 -1.66494 0.77149 0
M  V30 1340 H 130.519 -3.91724 -0.580339 0
M  V30 1341 H 131.693 -4.00594 2.2773 0
M  V30 1342 H 130.008 -3.69552 1.91886 0
M  V30 1343 H 132.605 -5.33703 -0.326392 0
M  V30 1344 H 132.948 -3.94629 -1.32565 0
M  V30 1345 H 133.481 -3.96047 0.373065 0
M  V30 1346 H 130.22 -6.05044 2.52193 0
M  V30 1347 H 129.74 -5.94268 0.81274 0
M  V30 1348 H 131.419 -6.34873 1.24681 0
M  V30 1349 N 131.551 -0.354651 -1.53558 0
M  V30 1350 C 132.461 0.50515 -2.29097 0
M  V30 1351 C 133.477 1.10223 -1.34636 0
M  V30 1352 O 134.653 1.11553 -1.67684 0
M  V30 1353 C 131.718 1.63479 -3.05738 0
M  V30 1354 C 130.779 1.06636 -4.15845 0
M  V30 1355 C 130.012 2.14217 -4.88822 0
M  V30 1356 O 130.235 3.35137 -4.61562 0
M  V30 1357 O 129.169 1.77887 -5.75013 0
M  V30 1358 H 132.995 -0.109237 -3.03503 0
M  V30 1359 H 130.58 -0.119357 -1.48922 0
M  V30 1360 H 132.462 2.2918 -3.5363 0
M  V30 1361 H 131.137 2.23478 -2.34178 0
M  V30 1362 H 130.044 0.373565 -3.7223 0
M  V30 1363 H 131.377 0.511081 -4.89539 0
M  V30 1364 N 133.029 1.57378 -0.0835403 0
M  V30 1365 C 133.959 2.1641 0.87686 0
M  V30 1366 C 134.94 1.09429 1.30228 0
M  V30 1367 O 136.125 1.37516 1.37124 0
M  V30 1368 C 133.255 2.73517 2.14022 0
M  V30 1369 C 132.209 3.85769 1.85381 0
M  V30 1370 C 131.535 4.29529 3.18448 0
M  V30 1371 C 132.835 5.09486 1.14984 0
M  V30 1372 H 134.529 2.96914 0.385059 0
M  V30 1373 H 132.075 1.42823 0.18377 0
M  V30 1374 H 134.028 3.13463 2.81636 0
M  V30 1375 H 132.752 1.90252 2.65465 0
M  V30 1376 H 131.411 3.46345 1.20169 0
M  V30 1377 H 131.059 3.43169 3.67755 0
M  V30 1378 H 130.759 5.05204 3.00071 0
M  V30 1379 H 132.283 4.72099 3.8724 0
M  V30 1380 H 133.697 5.46674 1.72687 0
M  V30 1381 H 132.094 5.90515 1.06826 0
M  V30 1382 H 133.164 4.84724 0.130749 0
M  V30 1383 N 134.507 -0.190092 1.56449 0
M  V30 1384 C 135.747 -0.916414 1.82705 0
M  V30 1385 C 136.111 -1.80235 0.661763 0
M  V30 1386 O 137.312 -2.56484 0.80433 0
M  V30 1387 C 135.583 -1.70691 3.14005 0
M  V30 1388 S 137.142 -2.48457 3.61683 0
M  V30 1389 H 133.96 -0.307281 0.64117 0
M  V30 1390 H 136.562 -0.179433 1.94675 0
M  V30 1391 H 135.266 -1.04677 3.96826 0
M  V30 1392 H 134.797 -2.48562 3.04927 0
M  V30 1393 H 136.812 -3.72756 3.27517 0
M  V30 1394 N 135.985 -1.50799 -0.457987 0
M  V30 1395 C 137.401 -1.38515 -0.792819 0
M  V30 1396 C 137.601 -0.451409 -1.96379 0
M  V30 1397 O 136.657 0.10112 -2.52297 0
M  V30 1398 C 137.97 -2.80149 -1.09258 0
M  V30 1399 C 139.518 -2.89156 -1.19825 0
M  V30 1400 C 139.993 -4.31651 -1.53106 0
M  V30 1401 N 141.484 -4.34662 -1.60072 0
M  V30 1402 C 142.219 -5.41928 -1.87354 0
M  V30 1403 N 141.715 -6.59384 -2.12568 0
M  V30 1404 N 143.508 -5.29385 -1.88965 0
M  V30 1405 H 135.659 -2.10073 0.313511 0
M  V30 1406 H 137.922 -0.944803 0.0777862 0
M  V30 1407 H 137.628 -3.50374 -0.305084 0
M  V30 1408 H 137.502 -3.18204 -2.02549 0
M  V30 1409 H 139.889 -2.19141 -1.97639 0
M  V30 1410 H 139.97 -2.54626 -0.244821 0
M  V30 1411 H 139.614 -5.02208 -0.758266 0
M  V30 1412 H 139.544 -4.63678 -2.49621 0
M  V30 1413 H 142.035 -3.49973 -1.42573 0
M  V30 1414 H 142.348 -7.36934 -2.32696 0
M  V30 1415 H 140.693 -6.62535 -2.09933 0
M  V30 1416 H 143.884 -4.36616 -1.68772 0
M  V30 1417 H 144.057 -6.13066 -2.09891 0
M  V30 1418 N 137.463 0.71206 -1.40597 0
M  V30 1419 C 138.41 1.82613 -1.41142 0
M  V30 1420 C 139.38 1.63925 -0.267903 0
M  V30 1421 O 140.565 1.85009 -0.466495 0
M  V30 1422 C 137.705 3.20354 -1.28324 0
M  V30 1423 C 136.818 3.50589 -2.52411 0
M  V30 1424 C 135.953 4.77855 -2.32009 0
M  V30 1425 C 134.992 5.01005 -3.51654 0
M  V30 1426 N 134.129 6.19487 -3.30425 0
M  V30 1427 H 138.969 1.81482 -2.36365 0
M  V30 1428 H 136.506 0.886475 -1.17388 0
M  V30 1429 H 138.464 3.99899 -1.18899 0
M  V30 1430 H 137.094 3.20705 -0.367189 0
M  V30 1431 H 136.146 2.65573 -2.72351 0
M  V30 1432 H 137.458 3.63604 -3.41458 0
M  V30 1433 H 136.612 5.65424 -2.19956 0
M  V30 1434 H 135.351 4.67056 -1.40392 0
M  V30 1435 H 134.356 4.1189 -3.64179 0
M  V30 1436 H 135.581 5.13674 -4.44202 0
M  V30 1437 H 133.527 6.09932 -2.41494 0
M  V30 1438 H 133.444 6.33194 -4.13039 0
M  V30 1439 H 134.712 7.09834 -3.22113 0
M  V30 1440 N 138.941 1.26152 0.944643 0
M  V30 1441 C 139.871 1.09902 2.06019 0
M  V30 1442 C 140.852 0.00519538 1.70099 0
M  V30 1443 O 142.037 0.176583 1.93396 0
M  V30 1444 C 139.167 0.727562 3.39594 0
M  V30 1445 C 138.121 1.77274 3.89561 0
M  V30 1446 C 137.447 1.25569 5.19747 0
M  V30 1447 C 138.747 3.17357 4.14827 0
M  V30 1448 H 140.441 2.03217 2.19871 0
M  V30 1449 H 137.987 0.978452 1.05652 0
M  V30 1450 H 139.94 0.600777 4.17095 0
M  V30 1451 H 138.664 -0.241287 3.25707 0
M  V30 1452 H 137.323 1.88814 3.14237 0
M  V30 1453 H 136.971 0.276783 5.02238 0
M  V30 1454 H 136.671 1.95433 5.54148 0
M  V30 1455 H 138.195 1.1415 5.99835 0
M  V30 1456 H 139.609 3.08914 4.82954 0
M  V30 1457 H 138.006 3.84781 4.60504 0
M  V30 1458 H 139.076 3.63673 3.20734 0
M  V30 1459 N 140.419 -1.14872 1.07899 0
M  V30 1460 C 141.665 -1.86064 0.806725 0
M  V30 1461 C 141.998 -1.82434 -0.665706 0
M  V30 1462 O 141.273 -1.25138 -1.48899 0
M  V30 1463 C 141.556 -3.34929 1.32267 0
M  V30 1464 C 141.409 -3.47161 2.86006 0
M  V30 1465 C 142.728 -4.29863 0.943717 0
M  V30 1466 H 139.847 -0.675591 0.294526 0
M  V30 1467 H 142.489 -1.34925 1.33773 0
M  V30 1468 H 140.639 -3.78611 0.870974 0
M  V30 1469 H 142.311 -3.12302 3.39507 0
M  V30 1470 H 140.554 -2.88539 3.23925 0
M  V30 1471 H 141.225 -4.51777 3.17177 0
M  V30 1472 H 143.701 -3.9417 1.33302 0
M  V30 1473 H 142.577 -5.32494 1.33198 0
M  V30 1474 H 142.838 -4.41846 -0.149796 0
M  V30 1475 N 141.898 -0.863906 -1.31812 0
M  V30 1476 C 142.861 -0.320212 -2.26952 0
M  V30 1477 C 143.861 0.525369 -1.51975 0
M  V30 1478 O 145.051 0.335547 -1.70938 0
M  V30 1479 C 142.183 0.545919 -3.365 0
M  V30 1480 H 143.376 -1.16004 -2.76556 0
M  V30 1481 H 140.929 -0.638995 -1.42641 0
M  V30 1482 H 141.664 1.40718 -2.92179 0
M  V30 1483 H 141.449 -0.0594674 -3.92055 0
M  V30 1484 H 142.939 0.918796 -4.07367 0
M  V30 1485 N 143.376 1.44774 -0.622745 0
M  V30 1486 C 144.309 2.27792 0.136329 0
M  V30 1487 C 145.287 1.38041 0.859264 0
M  V30 1488 O 146.471 1.67478 0.86506 0
M  V30 1489 C 143.598 3.16776 1.19878 0
M  V30 1490 C 142.644 4.22575 0.57731 0
M  V30 1491 S 143.477 5.31825 -0.626294 0
M  V30 1492 C 144.633 6.24377 0.436378 0
M  V30 1493 H 144.866 2.91824 -0.567967 0
M  V30 1494 H 142.399 1.48838 -0.410677 0
M  V30 1495 H 144.357 3.68596 1.80686 0
M  V30 1496 H 143.018 2.5198 1.87523 0
M  V30 1497 H 142.211 4.84818 1.37721 0
M  V30 1498 H 141.813 3.73974 0.0440439 0
M  V30 1499 H 144.105 6.64689 1.31128 0
M  V30 1500 H 145.048 7.07941 -0.150271 0
M  V30 1501 H 145.456 5.59381 0.758513 0
M  V30 1502 N 144.854 0.36279 1.53368 0
M  V30 1503 C 146.082 -0.228613 2.05633 0
M  V30 1504 C 146.497 -1.42676 1.23649 0
M  V30 1505 O 145.854 -1.80394 0.27647 0
M  V30 1506 C 145.905 -0.624845 3.56059 0
M  V30 1507 O 145.626 0.525675 4.34935 0
M  V30 1508 C 147.127 -1.27493 4.24571 0
M  V30 1509 H 144.347 -0.0407183 0.669763 0
M  V30 1510 H 146.891 0.520352 1.97769 0
M  V30 1511 H 145.046 -1.32373 3.64083 0
M  V30 1512 H 145.46 0.205969 5.24095 0
M  V30 1513 H 146.934 -1.50277 5.31151 0
M  V30 1514 H 147.411 -2.23439 3.78116 0
M  V30 1515 H 148.017 -0.617558 4.20792 0
M  V30 1516 N 146.332 -1.57332 0.0918853 0
M  V30 1517 C 147.743 -1.81496 -0.437739 0
M  V30 1518 C 148.094 -1.00727 -1.6837 0
M  V30 1519 O 147.219 -0.235694 -2.15113 0
M  V30 1520 C 147.814 -3.29197 -0.800939 0
M  V30 1521 C 146.373 -3.54136 -1.27532 0
M  V30 1522 C 145.52 -2.75979 -0.270392 0
M  V30 1523 H 148.471 -1.55494 0.317366 0
M  V30 1524 H 148.492 -3.42344 -1.66074 0
M  V30 1525 H 148.004 -3.87955 0.106078 0
M  V30 1526 H 146.105 -3.00705 -2.20016 0
M  V30 1527 H 146.218 -4.62792 -1.23938 0
M  V30 1528 H 144.582 -2.43349 -0.751872 0
M  V30 1529 H 145.365 -3.37484 0.629248 0
M  V30 1530 N 147.81 0.181792 -1.56548 0
M  V30 1531 C 148.742 1.24956 -1.92142 0
M  V30 1532 C 149.755 1.41022 -0.813422 0
M  V30 1533 O 150.944 1.41212 -1.09186 0
M  V30 1534 C 148.044 2.61981 -2.14987 0
M  V30 1535 C 147.217 2.6735 -3.46183 0
M  V30 1536 C 146.276 3.85664 -3.5798 0
M  V30 1537 O 145.302 3.72148 -4.30691 0
M  V30 1538 N 146.504 5.01683 -2.92053 0
M  V30 1539 H 149.269 0.947329 -2.84334 0
M  V30 1540 H 146.83 0.371629 -1.57577 0
M  V30 1541 H 148.822 3.3958 -2.20154 0
M  V30 1542 H 147.392 2.84637 -1.2923 0
M  V30 1543 H 146.612 1.75925 -3.52766 0
M  V30 1544 H 147.9 2.67939 -4.32534 0
M  V30 1545 H 147.298 5.15564 -2.32832 0
M  V30 1546 H 145.855 5.77181 -3.0283 0
M  V30 1547 N 149.288 1.51039 0.449983 0
M  V30 1548 C 150.699 1.557 1.03026 0
M  V30 1549 C 151.05 0.372939 1.92623 0
M  V30 1550 O 150.175 -0.511771 2.10261 0
M  V30 1551 C 150.77 2.82171 1.87523 0
M  V30 1552 C 149.329 2.89444 2.40622 0
M  V30 1553 C 148.476 2.50228 1.19504 0
M  V30 1554 H 151.427 1.56999 0.231745 0
M  V30 1555 H 151.448 2.65219 2.72835 0
M  V30 1556 H 150.96 3.68331 1.22286 0
M  V30 1557 H 149.061 2.07685 3.0935 0
M  V30 1558 H 149.174 3.92816 2.74285 0
M  V30 1559 H 147.538 2.03139 1.53644 0
M  V30 1560 H 148.321 3.38719 0.558972 0
M  V30 1561 N 150.766 -0.704594 1.40972 0
M  V30 1562 C 151.696 -1.83124 1.44872 0
M  V30 1563 C 152.677 -1.67281 0.30838 0
M  V30 1564 O 153.862 -1.87149 0.518556 0
M  V30 1565 C 150.992 -3.21181 1.32136 0
M  V30 1566 C 149.946 -3.51714 2.43888 0
M  V30 1567 C 149.272 -4.89032 2.16222 0
M  V30 1568 C 150.572 -3.516 3.86232 0
M  V30 1569 H 152.266 -1.80117 2.39161 0
M  V30 1570 H 149.812 -0.865145 1.15114 0
M  V30 1571 H 151.765 -3.99702 1.33479 0
M  V30 1572 H 150.489 -3.24791 0.343279 0
M  V30 1573 H 149.148 -2.75539 2.41813 0
M  V30 1574 H 148.796 -4.89256 1.16778 0
M  V30 1575 H 148.496 -5.10426 2.911 0
M  V30 1576 H 150.02 -5.69873 2.19265 0
M  V30 1577 H 151.434 -4.2014 3.9007 0
M  V30 1578 H 149.831 -3.84523 4.60719 0
M  V30 1579 H 150.901 -2.50757 4.15029 0
M  V30 1580 N 152.244 -1.26651 -0.937939 0
M  V30 1581 C 153.154 -1.10276 -2.07066 0
M  V30 1582 C 154.17 -0.0354197 -1.73964 0
M  V30 1583 O 155.346 -0.239816 -1.99967 0
M  V30 1584 C 152.411 -0.740887 -3.38691 0
M  V30 1585 C 151.472 -1.88799 -3.85556 0
M  V30 1586 C 150.705 -1.54329 -5.10899 0
M  V30 1587 O 150.928 -0.446494 -5.6865 0
M  V30 1588 O 149.862 -2.37911 -5.52885 0
M  V30 1589 H 153.688 -2.05309 -2.23789 0
M  V30 1590 H 151.273 -1.05743 -1.0554 0
M  V30 1591 H 153.155 -0.55195 -4.1777 0
M  V30 1592 H 151.83 0.180022 -3.23199 0
M  V30 1593 H 150.737 -2.13191 -3.07409 0
M  V30 1594 H 152.07 -2.78874 -4.05574 0
M  V30 1595 N 153.722 1.14298 -1.08507 0
M  V30 1596 C 154.962 1.87016 -0.824894 0
M  V30 1597 C 155.326 1.81099 0.637735 0
M  V30 1598 O 156.527 2.48963 1.01345 0
M  V30 1599 C 154.798 3.31584 -1.33368 0
M  V30 1600 S 156.357 4.21903 -1.20596 0
M  V30 1601 H 153.175 0.645259 -0.2986 0
M  V30 1602 H 155.777 1.37822 -1.38656 0
M  V30 1603 H 154.481 3.33439 -2.39262 0
M  V30 1604 H 154.012 3.85836 -0.767734 0
M  V30 1605 H 156.027 4.95971 -0.150891 0
M  V30 1606 N 155.201 0.870884 1.31352 0
M  V30 1607 C 156.447 0.482987 1.96965 0
M  V30 1608 C 156.78 -0.962462 1.68672 0
M  V30 1609 O 156.055 -1.6779 0.98371 0
M  V30 1610 C 156.338 0.741752 3.52378 0
M  V30 1611 C 156.191 2.2368 3.9024 0
M  V30 1612 C 157.51 0.208838 4.39604 0
M  V30 1613 H 154.629 0.176955 0.715441 0
M  V30 1614 H 157.271 1.09229 1.55464 0
M  V30 1615 H 155.421 0.223149 3.87859 0
M  V30 1616 H 157.093 2.82273 3.64856 0
M  V30 1617 H 155.336 2.70901 3.38814 0
M  V30 1618 H 156.007 2.3685 4.98604 0
M  V30 1619 H 158.483 0.652529 4.10952 0
M  V30 1620 H 157.359 0.419336 5.47296 0
M  V30 1621 H 157.62 -0.889275 4.33064 0
M  V30 1622 N 156.679 -1.44442 0.630414 0
M  V30 1623 C 157.926 -2.02052 0.134617 0
M  V30 1624 C 158.254 -1.49576 -1.24327 0
M  V30 1625 O 157.509 -0.669806 -1.83881 0
M  V30 1626 C 157.808 -3.57332 0.0697835 0
M  V30 1627 C 157.474 -4.29058 1.38635 0
M  V30 1628 C 156.136 -4.4837 1.74694 0
M  V30 1629 C 158.488 -4.69872 2.25543 0
M  V30 1630 C 155.816 -5.05756 2.97369 0
M  V30 1631 C 158.168 -5.28616 3.47487 0
M  V30 1632 C 156.832 -5.46147 3.8377 0
M  V30 1633 H 156.102 -0.739361 0.0492598 0
M  V30 1634 H 158.749 -1.73217 0.816586 0
M  V30 1635 H 157.054 -3.85577 -0.695553 0
M  V30 1636 H 158.751 -3.99637 -0.330344 0
M  V30 1637 H 155.341 -4.14357 1.09574 0
M  V30 1638 H 159.525 -4.54666 1.98979 0
M  V30 1639 H 154.781 -5.17515 3.25558 0
M  V30 1640 H 158.955 -5.59192 4.15063 0
M  V30 1641 H 156.582 -5.9038 4.7891 0
M  V30 1642 N 158.157 -0.370918 -1.53173 0
M  V30 1643 C 159.087 0.464847 -2.28826 0
M  V30 1644 C 160.068 1.07936 -1.31468 0
M  V30 1645 O 161.253 1.0956 -1.60344 0
M  V30 1646 C 158.383 1.60196 -3.08147 0
M  V30 1647 C 157.337 1.11443 -4.13237 0
M  V30 1648 C 156.663 2.3422 -4.80672 0
M  V30 1649 C 157.963 0.195384 -5.21934 0
M  V30 1650 H 159.657 -0.166329 -2.98938 0
M  V30 1651 H 157.203 -0.0814359 -1.4377 0
M  V30 1652 H 159.156 2.19332 -3.59822 0
M  V30 1653 H 157.88 2.26045 -2.35735 0
M  V30 1654 H 156.539 0.545727 -3.62515 0
M  V30 1655 H 156.187 2.98537 -4.04827 0
M  V30 1656 H 155.887 2.02269 -5.51689 0
M  V30 1657 H 157.411 2.94032 -5.35143 0
M  V30 1658 H 158.825 0.694375 -5.69079 0
M  V30 1659 H 157.222 -0.0335027 -6.00091 0
M  V30 1660 H 158.292 -0.760961 -4.78892 0
M  V30 1661 N 159.635 1.57281 -0.100228 0
M  V30 1662 C 160.598 2.13158 0.842398 0
M  V30 1663 C 161.598 1.06202 1.20738 0
M  V30 1664 O 162.788 1.32066 1.13597 0
M  V30 1665 C 159.92 2.65639 2.13655 0
M  V30 1666 H 161.113 2.97766 0.357114 0
M  V30 1667 H 158.666 1.5559 0.148823 0
M  V30 1668 H 159.401 1.84566 2.66657 0
M  V30 1669 H 159.186 3.43844 1.88451 0
M  V30 1670 H 160.676 3.08846 2.81077 0
M  V30 1671 N 161.113 -0.173488 1.56642 0
M  V30 1672 C 162.39 -0.917617 1.7274 0
M  V30 1673 C 162.77 -2.00484 0.661027 0
M  V30 1674 O 162.118 -2.26184 -0.32453 0
M  V30 1675 C 162.328 -1.48433 3.15862 0
M  V30 1676 C 163.676 -1.95809 3.76754 0
M  V30 1677 O 164.7 -1.58231 3.19126 0
M  V30 1678 O 163.559 -2.65024 4.77938 0
M  V30 1679 H 160.653 -0.431772 0.705338 0
M  V30 1680 H 163.199 -0.161487 1.6893 0
M  V30 1681 H 161.971 -0.701715 3.84957 0
M  V30 1682 H 161.594 -2.30471 3.23989 0
M  V30 1683 N 162.591 -1.51276 -0.441967 0
M  V30 1684 C 163.816 -1.67799 -1.21895 0
M  V30 1685 C 164.241 -0.372864 -1.84367 0
M  V30 1686 O 163.599 0.666501 -1.68604 0
M  V30 1687 C 163.647 -2.79199 -2.28211 0
M  V30 1688 O 162.751 -2.42479 -3.33583 0
M  V30 1689 H 162.092 -0.559649 -0.357336 0
M  V30 1690 H 164.622 -1.97815 -0.522522 0
M  V30 1691 H 164.632 -3.03146 -2.73069 0
M  V30 1692 H 163.307 -3.73906 -1.82118 0
M  V30 1693 H 161.884 -2.29087 -2.94234 0
M  V30 1694 N 164.069 0.697108 -1.41344 0
M  V30 1695 C 165.317 1.45426 -1.40341 0
M  V30 1696 C 165.638 1.94996 -0.0128787 0
M  V30 1697 O 164.908 1.71599 0.945027 0
M  V30 1698 H 163.488 0.539594 -0.516573 0
M  V30 1699 H 166.15 0.825201 -1.76569 0
M  V30 1700 H 165.246 2.31817 -2.08967 0
M  V30 1701 N 165.547 1.27147 0.931209 0
M  V30 1702 C 166.772 1.16191 1.71797 0
M  V30 1703 C 167.197 -0.278004 1.86034 0
M  V30 1704 O 166.555 -1.20137 1.35782 0
M  V30 1705 C 166.603 1.84673 3.09723 0
M  V30 1706 O 165.707 1.14231 3.96264 0
M  V30 1707 H 165.048 0.404303 0.526721 0
M  V30 1708 H 167.578 1.68152 1.1656 0
M  V30 1709 H 167.588 1.91893 3.60057 0
M  V30 1710 H 166.263 2.89421 2.98677 0
M  V30 1711 H 164.84 1.15056 3.54706 0
M  V30 1712 N 167.025 -1.13721 1.09112 0
M  V30 1713 C 168.271 -1.85198 0.826414 0
M  V30 1714 C 168.604 -1.83129 -0.646319 0
M  V30 1715 O 167.879 -1.2671 -1.47563 0
M  V30 1716 C 168.162 -3.33507 1.35812 0
M  V30 1717 C 168.015 -3.44108 2.89672 0
M  V30 1718 C 169.334 -4.28838 0.989256 0
M  V30 1719 H 166.453 -0.67243 0.301675 0
M  V30 1720 H 169.095 -1.33499 1.35197 0
M  V30 1721 H 167.245 -3.77666 0.911082 0
M  V30 1722 H 168.917 -3.08684 3.428 0
M  V30 1723 H 167.16 -2.85087 3.26967 0
M  V30 1724 H 167.831 -4.48388 3.21951 0
M  V30 1725 H 170.307 -3.92734 1.37475 0
M  V30 1726 H 169.183 -5.31051 1.38838 0
M  V30 1727 H 169.444 -4.4198 -0.102924 0
M  V30 1728 N 168.503 -0.877838 -1.30888 0
M  V30 1729 C 169.466 -0.344265 -2.266 0
M  V30 1730 C 170.466 0.50922 -1.52524 0
M  V30 1731 O 171.656 0.317398 -1.71284 0
M  V30 1732 C 168.788 0.510198 -3.37061 0
M  V30 1733 H 169.981 -1.1893 -2.7531 0
M  V30 1734 H 167.534 -0.654088 -1.41956 0
M  V30 1735 H 168.269 1.37612 -2.93655 0
M  V30 1736 H 168.054 -0.101047 -3.9197 0
M  V30 1737 H 169.544 0.875537 -4.08319 0
M  V30 1738 N 169.982 1.44106 -0.638065 0
M  V30 1739 C 171.228 2.02277 -0.145546 0
M  V30 1740 C 171.561 1.50125 1.23191 0
M  V30 1741 O 170.836 0.688133 1.8192 0
M  V30 1742 C 171.119 3.59829 -0.139791 0
M  V30 1743 C 170.972 4.22247 -1.55008 0
M  V30 1744 C 172.291 4.36873 0.531966 0
M  V30 1745 H 169.41 0.734992 -0.0543632 0
M  V30 1746 H 172.052 1.71592 -0.815863 0
M  V30 1747 H 170.202 3.86102 0.431007 0
M  V30 1748 H 171.874 4.07057 -2.1703 0
M  V30 1749 H 170.117 3.79476 -2.10191 0
M  V30 1750 H 170.788 5.31284 -1.49804 0
M  V30 1751 H 173.264 4.16074 0.0464781 0
M  V30 1752 H 172.14 5.4657 0.505206 0
M  V30 1753 H 172.401 4.11995 1.60352 0
M  V30 1754 N 171.46 0.379036 1.52974 0
M  V30 1755 C 172.37 -0.468639 2.29872 0
M  V30 1756 C 173.386 -1.08067 1.36373 0
M  V30 1757 O 174.562 -1.08871 1.69438 0
M  V30 1758 C 171.627 -1.58594 3.083 0
M  V30 1759 C 170.688 -1.00007 4.17489 0
M  V30 1760 C 169.921 -2.06413 4.92168 0
M  V30 1761 O 170.144 -3.27751 4.66835 0
M  V30 1762 O 169.078 -1.68717 5.7777 0
M  V30 1763 H 172.904 0.157508 3.03291 0
M  V30 1764 H 170.489 0.143035 1.48714 0
M  V30 1765 H 172.371 -2.23525 3.57232 0
M  V30 1766 H 171.046 -2.19724 2.37703 0
M  V30 1767 H 169.953 -0.314299 3.72777 0
M  V30 1768 H 171.286 -0.433135 4.90291 0
M  V30 1769 N 172.938 -1.57226 0.108567 0
M  V30 1770 C 174.184 -1.95121 -0.552761 0
M  V30 1771 C 174.517 -0.991345 -1.66991 0
M  V30 1772 O 173.792 -0.0267211 -1.94482 0
M  V30 1773 C 174.075 -3.43039 -1.09528 0
M  V30 1774 C 173.928 -4.49797 0.0177332 0
M  V30 1775 C 175.247 -3.92567 -1.98945 0
M  V30 1776 H 172.366 -0.709496 -0.199461 0
M  V30 1777 H 175.008 -1.89126 0.182011 0
M  V30 1778 H 173.158 -3.48279 -1.72146 0
M  V30 1779 H 174.83 -4.56661 0.652584 0
M  V30 1780 H 173.073 -4.284 0.682309 0
M  V30 1781 H 173.744 -5.50528 -0.402919 0
M  V30 1782 H 176.22 -3.89565 -1.46214 0
M  V30 1783 H 175.096 -4.96605 -2.33827 0
M  V30 1784 H 175.357 -3.32648 -2.91201 0
M  V30 1785 N 174.416 0.165178 -1.56732 0
M  V30 1786 C 175.379 1.18822 -1.95995 0
M  V30 1787 C 176.379 1.3685 -0.84431 0
M  V30 1788 O 177.569 1.34152 -1.11126 0
M  V30 1789 C 174.701 2.5521 -2.26011 0
M  V30 1790 H 175.894 0.851825 -2.87548 0
M  V30 1791 H 173.447 0.407857 -1.50885 0
M  V30 1792 H 174.182 2.93852 -1.37191 0
M  V30 1793 H 173.967 2.43489 -3.07336 0
M  V30 1794 H 175.457 3.28927 -2.57288 0
M  V30 1795 N 175.894 1.51508 0.433938 0
M  V30 1796 C 176.827 1.67756 1.54704 0
M  V30 1797 C 177.805 0.525127 1.53887 0
M  V30 1798 O 178.989 0.749393 1.72963 0
M  V30 1799 C 176.116 1.69424 2.9328 0
M  V30 1800 C 175.162 2.90673 3.12108 0
M  V30 1801 S 175.995 4.51431 2.88046 0
M  V30 1802 C 177.151 4.55849 4.28897 0
M  V30 1803 H 177.384 2.61904 1.40689 0
M  V30 1804 H 174.917 1.41235 0.62386 0
M  V30 1805 H 176.875 1.7107 3.73156 0
M  V30 1806 H 175.536 0.764464 3.04655 0
M  V30 1807 H 174.729 2.88251 4.13434 0
M  V30 1808 H 174.331 2.86786 2.40062 0
M  V30 1809 H 176.623 4.31699 5.22152 0
M  V30 1810 H 177.566 5.57676 4.36351 0
M  V30 1811 H 177.974 3.85137 4.12711 0
M  V30 1812 N 177.372 -0.689602 1.41712 0
M  V30 1813 C 178.319 -1.80345 1.44029 0
M  V30 1814 C 179.289 -1.63478 0.293948 0
M  V30 1815 O 180.474 -1.84244 0.495869 0
M  V30 1816 C 177.614 -3.18272 1.33405 0
M  V30 1817 C 176.727 -3.46529 2.57956 0
M  V30 1818 C 175.862 -4.74103 2.39582 0
M  V30 1819 C 174.901 -4.95347 3.5958 0
M  V30 1820 N 174.038 -6.14151 3.40239 0
M  V30 1821 H 178.878 -1.77698 2.39222 0
M  V30 1822 H 176.415 -0.867688 1.18784 0
M  V30 1823 H 178.373 -3.97956 1.25246 0
M  V30 1824 H 177.003 -3.2008 0.418164 0
M  V30 1825 H 176.055 -2.61207 2.76542 0
M  V30 1826 H 177.367 -3.58126 3.47199 0
M  V30 1827 H 176.521 -5.61853 2.28924 0
M  V30 1828 H 175.26 -4.64763 1.47805 0
M  V30 1829 H 174.265 -4.06044 3.70686 0
M  V30 1830 H 175.49 -5.06542 4.52318 0
M  V30 1831 H 173.436 -6.06013 2.51167 0
M  V30 1832 H 173.353 -6.26543 4.23061 0
M  V30 1833 H 174.621 -7.04619 3.33365 0
M  V30 1834 N 178.85 -1.27639 -0.924453 0
M  V30 1835 C 179.783 -1.04966 -2.02626 0
M  V30 1836 C 180.761 0.0309505 -1.62571 0
M  V30 1837 O 181.945 -0.114846 -1.8815 0
M  V30 1838 C 179.072 -0.59292 -3.3347 0
M  V30 1839 C 178.118 -1.66858 -3.92506 0
M  V30 1840 S 178.951 -3.2619 -4.24689 0
M  V30 1841 C 180.107 -2.82325 -5.58609 0
M  V30 1842 H 180.34 -1.98252 -2.21547 0
M  V30 1843 H 177.873 -1.11506 -1.06798 0
M  V30 1844 H 179.831 -0.336086 -4.09122 0
M  V30 1845 H 178.492 0.319939 -3.12466 0
M  V30 1846 H 177.685 -1.30038 -4.86935 0
M  V30 1847 H 177.287 -1.87766 -3.2345 0
M  V30 1848 H 179.579 -2.2783 -6.38044 0
M  V30 1849 H 180.522 -3.75511 -6.00331 0
M  V30 1850 H 180.93 -2.21367 -5.19285 0
M  V30 1851 N 180.328 1.1314 -1.09713 0
M  V30 1852 C 181.291 2.16831 -0.742751 0
M  V30 1853 C 182.291 1.59159 0.229129 0
M  V30 1854 O 183.481 1.74199 0.00693237 0
M  V30 1855 C 180.613 3.40756 -0.0989168 0
M  V30 1856 H 181.806 2.49695 -1.66109 0
M  V30 1857 H 179.359 1.2802 -0.896699 0
M  V30 1858 H 180.094 3.13485 0.830514 0
M  V30 1859 H 179.879 3.83888 -0.798265 0
M  V30 1860 H 181.369 4.17386 0.133524 0
M  V30 1861 N 181.806 0.884767 1.30421 0
M  V30 1862 C 182.736 0.367574 2.30589 0
M  V30 1863 C 183.717 -0.549464 1.60981 0
M  V30 1864 O 184.902 -0.46336 1.88591 0
M  V30 1865 C 182.032 -0.418944 3.44764 0
M  V30 1866 C 180.986 0.406316 4.26067 0
M  V30 1867 C 180.312 -0.506793 5.32293 0
M  V30 1868 C 181.612 1.64832 4.95608 0
M  V30 1869 H 183.306 1.20462 2.74097 0
M  V30 1870 H 180.852 0.580695 1.31772 0
M  V30 1871 H 182.805 -0.791395 4.13902 0
M  V30 1872 H 181.529 -1.28964 3.0006 0
M  V30 1873 H 180.188 0.760903 3.58617 0
M  V30 1874 H 179.836 -1.37519 4.83836 0
M  V30 1875 H 179.536 0.0415828 5.87585 0
M  V30 1876 H 181.06 -0.875764 6.04287 0
M  V30 1877 H 182.474 1.34646 5.57264 0
M  V30 1878 H 180.871 2.13688 5.60765 0
M  V30 1879 H 181.941 2.39284 4.21748 0
M  V30 1880 N 183.284 -1.43765 0.645699 0
M  V30 1881 C 184.216 -2.29027 -0.0890605 0
M  V30 1882 C 185.229 -1.42093 -0.794563 0
M  V30 1883 O 186.418 -1.66104 -0.653575 0
M  V30 1884 C 183.518 -3.18831 -1.14891 0
M  V30 1885 C 182.691 -4.34261 -0.523043 0
M  V30 1886 C 181.75 -5.04994 -1.47878 0
M  V30 1887 O 180.776 -5.6052 -0.990277 0
M  V30 1888 N 181.978 -5.07795 -2.81291 0
M  V30 1889 H 184.743 -2.92727 0.64272 0
M  V30 1890 H 182.304 -1.54373 0.487924 0
M  V30 1891 H 184.296 -3.63015 -1.78892 0
M  V30 1892 H 182.866 -2.56782 -1.78275 0
M  V30 1893 H 182.086 -3.93088 0.295896 0
M  V30 1894 H 183.374 -5.08728 -0.0858147 0
M  V30 1895 H 182.772 -4.64042 -3.23546 0
M  V30 1896 H 181.329 -5.55721 -3.40614 0
M  V30 1897 N 184.763 -0.387143 -1.52771 0
M  V30 1898 C 185.993 0.195585 -2.05672 0
M  V30 1899 C 186.401 1.41241 -1.25887 0
M  V30 1900 O 185.744 1.81265 -0.298081 0
M  V30 1901 C 185.806 0.632327 -3.53895 0
M  V30 1902 C 185.47 -0.470739 -4.54569 0
M  V30 1903 C 186.467 -1.32746 -5.02667 0
M  V30 1904 C 184.152 -0.637151 -4.98243 0
M  V30 1905 C 186.146 -2.33574 -5.93061 0
M  V30 1906 C 183.833 -1.64877 -5.88438 0
M  V30 1907 C 184.831 -2.49649 -6.35739 0
M  V30 1908 O 184.519 -3.49082 -7.24153 0
M  V30 1909 H 184.251 0.033658 -0.675162 0
M  V30 1910 H 186.805 -0.550221 -1.97893 0
M  V30 1911 H 185.035 1.43008 -3.59285 0
M  V30 1912 H 186.724 1.14048 -3.89548 0
M  V30 1913 H 187.49 -1.21019 -4.69659 0
M  V30 1914 H 183.369 0.0129567 -4.60998 0
M  V30 1915 H 186.913 -2.99777 -6.29904 0
M  V30 1916 H 182.81 -1.76643 -6.2086 0
M  V30 1917 H 183.578 -3.45065 -7.42208 0
M  V30 1918 N 186.241 1.57166 -0.116904 0
M  V30 1919 C 187.487 1.96206 0.536166 0
M  V30 1920 C 187.842 0.99915 1.64422 0
M  V30 1921 O 187.135 0.0288195 1.91578 0
M  V30 1922 C 187.329 3.39508 1.11664 0
M  V30 1923 C 187.158 4.49651 0.0663474 0
M  V30 1924 C 185.928 5.03982 -0.36474 0
M  V30 1925 C 188.126 5.09322 -0.713829 0
M  V30 1926 N 186.108 5.97699 -1.40102 0
M  V30 1927 C 187.479 5.98963 -1.60136 0
M  V30 1928 C 189.534 4.91989 -0.764948 0
M  V30 1929 C 188.237 6.73128 -2.53556 0
M  V30 1930 C 190.263 5.66833 -1.68685 0
M  V30 1931 C 189.625 6.56158 -2.56196 0
M  V30 1932 H 185.724 0.764203 0.165886 0
M  V30 1933 H 188.308 1.93623 -0.204535 0
M  V30 1934 H 186.479 3.42743 1.82707 0
M  V30 1935 H 188.211 3.65677 1.73386 0
M  V30 1936 H 184.966 4.73592 0.027252 0
M  V30 1937 H 185.39 6.49262 -1.91802 0
M  V30 1938 H 190.032 4.22676 -0.102501 0
M  V30 1939 H 187.75 7.41689 -3.20816 0
M  V30 1940 H 191.336 5.55427 -1.73181 0
M  V30 1941 H 190.216 7.13057 -3.26372 0
M  V30 1942 N 187.719 -0.156864 1.56817 0
M  V30 1943 C 188.651 -1.21883 1.94106 0
M  V30 1944 C 189.664 -1.3971 0.835754 0
M  V30 1945 O 190.853 -1.39457 1.11418 0
M  V30 1946 C 187.953 -2.58527 2.19127 0
M  V30 1947 C 187.126 -2.61809 3.50393 0
M  V30 1948 C 186.185 -3.7992 3.64071 0
M  V30 1949 O 185.211 -3.65249 4.36557 0
M  V30 1950 N 186.413 -4.96973 2.99997 0
M  V30 1951 H 189.178 -0.901974 2.85805 0
M  V30 1952 H 186.739 -0.346513 1.58148 0
M  V30 1953 H 188.731 -3.36034 2.25529 0
M  V30 1954 H 187.301 -2.82545 1.33742 0
M  V30 1955 H 186.521 -1.7029 3.5552 0
M  V30 1956 H 187.809 -2.61024 4.36742 0
M  V30 1957 H 187.207 -5.11794 2.41004 0
M  V30 1958 H 185.764 -5.7229 3.11974 0
M  V30 1959 N 189.197 -1.51736 -0.425897 0
M  V30 1960 C 190.16 -1.73271 -1.50032 0
M  V30 1961 C 191.16 -0.602639 -1.4908 0
M  V30 1962 O 192.35 -0.87033 -1.509 0
M  V30 1963 C 189.482 -1.79969 -2.89523 0
M  V30 1964 H 190.675 -2.69172 -1.32237 0
M  V30 1965 H 188.228 -1.41899 -0.65532 0
M  V30 1966 H 188.963 -0.859241 -3.1271 0
M  V30 1967 H 188.748 -2.62109 -2.91619 0
M  V30 1968 H 190.238 -1.9843 -3.67444 0
M  V30 1969 N 190.675 0.682077 -1.42076 0
M  V30 1970 C 191.622 1.79578 -1.44984 0
M  V30 1971 C 192.592 1.6332 -0.302614 0
M  V30 1972 O 193.777 1.83978 -0.505633 0
M  V30 1973 C 190.917 3.1756 -1.35091 0
M  V30 1974 C 190.03 3.45156 -2.59791 0
M  V30 1975 C 189.165 4.72826 -2.42093 0
M  V30 1976 C 188.204 4.93433 -3.62202 0
M  V30 1977 N 187.341 6.12338 -3.43491 0
M  V30 1978 H 192.181 1.76427 -2.40161 0
M  V30 1979 H 189.718 0.861376 -1.19242 0
M  V30 1980 H 191.676 3.97287 -1.27354 0
M  V30 1981 H 190.306 3.19854 -0.435133 0
M  V30 1982 H 189.358 2.59736 -2.77923 0
M  V30 1983 H 190.67 3.5628 -3.49094 0
M  V30 1984 H 189.824 5.60631 -2.319 0
M  V30 1985 H 188.563 4.63973 -1.50268 0
M  V30 1986 H 187.568 4.04073 -3.72834 0
M  V30 1987 H 188.793 5.04136 -4.54998 0
M  V30 1988 H 186.739 6.04672 -2.54377 0
M  V30 1989 H 186.656 6.2429 -4.26377 0
M  V30 1990 H 187.924 7.02841 -3.37097 0
M  V30 1991 N 192.153 1.28127 0.917671 0
M  V30 1992 C 193.401 1.14825 1.66312 0
M  V30 1993 C 193.722 -0.304379 1.9261 0
M  V30 1994 O 192.992 -1.21149 1.53947 0
M  V30 1995 H 191.572 0.421953 0.616413 0
M  V30 1996 H 194.234 1.608 1.10134 0
M  V30 1997 H 193.33 1.68489 2.62712 0
M  V30 1998 N 193.631 -1.12557 1.10312 0
M  V30 1999 C 194.541 -2.21841 0.763142 0
M  V30 2000 C 195.557 -1.72354 -0.238801 0
M  V30 2001 O 196.733 -2.01249 -0.0778746 0
M  V30 2002 C 193.798 -3.46131 0.198632 0
M  V30 2003 C 192.859 -4.10464 1.25769 0
M  V30 2004 C 192.092 -5.28821 0.72002 0
M  V30 2005 O 192.315 -5.6859 -0.453993 0
M  V30 2006 O 191.249 -5.83437 1.47935 0
M  V30 2007 H 195.075 -2.53312 1.67532 0
M  V30 2008 H 192.66 -1.20867 0.878157 0
M  V30 2009 H 194.542 -4.2125 -0.112401 0
M  V30 2010 H 193.217 -3.16338 -0.686419 0
M  V30 2011 H 192.124 -3.3713 1.62156 0
M  V30 2012 H 193.457 -4.44408 2.11571 0
M  V30 2013 N 195.109 -0.891671 -1.2995 0
M  V30 2014 C 196.072 -0.36828 -2.26222 0
M  V30 2015 C 197.072 0.493014 -1.53056 0
M  V30 2016 O 198.262 0.299213 -1.71611 0
M  V30 2017 C 195.394 0.47442 -3.37583 0
M  V30 2018 H 196.587 -1.21844 -2.74033 0
M  V30 2019 H 194.14 -0.669107 -1.41254 0
M  V30 2020 H 194.875 1.34489 -2.95099 0
M  V30 2021 H 194.66 -0.142615 -3.91841 0
M  V30 2022 H 196.15 0.83218 -4.09224 0
M  V30 2023 N 196.587 1.43421 -0.653314 0
M  V30 2024 C 198.003 1.56341 -0.320886 0
M  V30 2025 C 198.203 1.63696 1.17499 0
M  V30 2026 O 197.259 1.59208 1.95982 0
M  V30 2027 C 198.572 2.82424 -1.03233 0
M  V30 2028 C 200.12 2.96168 -1.01259 0
M  V30 2029 C 200.595 4.25084 -1.70492 0
M  V30 2030 N 202.086 4.31948 -1.67257 0
M  V30 2031 C 202.821 5.30466 -2.17701 0
M  V30 2032 N 202.317 6.35261 -2.76434 0
M  V30 2033 N 204.11 5.2212 -2.082 0
M  V30 2034 H 196.261 1.3689 -1.62403 0
M  V30 2035 H 198.524 0.657455 -0.682977 0
M  V30 2036 H 198.23 2.83053 -2.08744 0
M  V30 2037 H 198.104 3.72653 -0.583948 0
M  V30 2038 H 200.491 2.9508 0.0341235 0
M  V30 2039 H 200.572 2.07229 -1.49966 0
M  V30 2040 H 200.216 4.26932 -2.7512 0
M  V30 2041 H 200.146 5.1292 -1.19251 0
M  V30 2042 H 202.637 3.56838 -1.24398 0
M  V30 2043 H 202.95 7.06754 -3.12601 0
M  V30 2044 H 201.295 6.35884 -2.80495 0
M  V30 2045 H 204.486 4.39166 -1.62021 0
M  V30 2046 H 204.659 5.98739 -2.47822 0
M  V30 2047 N 198.065 0.39524 1.52563 0
M  V30 2048 C 198.997 -0.472201 2.24283 0
M  V30 2049 C 200.01 -1.02178 1.26742 0
M  V30 2050 O 201.199 -0.923097 1.52778 0
M  V30 2051 C 198.299 -1.66775 2.95024 0
M  V30 2052 C 197.472 -1.2445 4.19322 0
M  V30 2053 C 196.531 -2.30539 4.7301 0
M  V30 2054 O 195.557 -1.91702 5.35947 0
M  V30 2055 N 196.759 -3.6253 4.53379 0
M  V30 2056 H 199.524 0.142282 2.99362 0
M  V30 2057 H 197.085 0.2219 1.60372 0
M  V30 2058 H 199.077 -2.37283 3.27839 0
M  V30 2059 H 197.647 -2.18845 2.23217 0
M  V30 2060 H 196.867 -0.368069 3.92478 0
M  V30 2061 H 198.155 -0.938457 5.0007 0
M  V30 2062 H 197.553 -3.96841 4.03154 0
M  V30 2063 H 196.11 -4.29055 4.90668 0
M  V30 2064 N 199.544 -1.57102 0.125237 0
M  V30 2065 C 200.96 -1.57915 -0.231322 0
M  V30 2066 C 201.16 -1.13833 -1.66266 0
M  V30 2067 O 200.216 -0.828581 -2.38518 0
M  V30 2068 C 201.529 -3.00699 0.00766489 0
M  V30 2069 C 203.077 -3.12947 -0.0577483 0
M  V30 2070 C 203.552 -4.57742 0.153626 0
M  V30 2071 N 205.043 -4.63092 0.0998073 0
M  V30 2072 C 205.778 -5.72905 0.238174 0
M  V30 2073 N 205.274 -6.91445 0.433057 0
M  V30 2074 N 207.067 -5.6182 0.177308 0
M  V30 2075 H 199.218 -1.84055 1.06007 0
M  V30 2076 H 201.481 -0.850905 0.417929 0
M  V30 2077 H 201.187 -3.3726 0.997431 0
M  V30 2078 H 201.061 -3.70236 -0.721452 0
M  V30 2079 H 203.448 -2.7624 -1.03804 0
M  V30 2080 H 203.529 -2.4594 0.70335 0
M  V30 2081 H 203.173 -4.95149 1.13092 0
M  V30 2082 H 203.103 -5.22848 -0.627534 0
M  V30 2083 H 205.594 -3.77871 -0.047051 0
M  V30 2084 H 205.907 -7.70985 0.529332 0
M  V30 2085 H 204.252 -6.93415 0.469109 0
M  V30 2086 H 207.443 -4.68093 0.0259748 0
M  V30 2087 H 207.616 -6.47357 0.288582 0
M  V30 2088 N 201.022 0.148545 -1.56898 0
M  V30 2089 C 202.269 0.861418 -1.83264 0
M  V30 2090 C 202.597 1.81239 -0.705883 0
M  V30 2091 O 201.852 1.93305 0.305212 0
M  V30 2092 C 202.151 1.67064 -3.1595 0
M  V30 2093 C 201.817 0.866591 -4.42494 0
M  V30 2094 C 200.479 0.644762 -4.76861 0
M  V30 2095 C 202.831 0.30418 -5.20312 0
M  V30 2096 C 200.159 -0.15021 -5.86508 0
M  V30 2097 C 202.511 -0.477824 -6.30793 0
M  V30 2098 C 201.175 -0.710244 -6.63711 0
M  V30 2099 H 200.445 0.315215 -0.670612 0
M  V30 2100 H 203.092 0.125142 -1.91091 0
M  V30 2101 H 201.397 2.47698 -3.03567 0
M  V30 2102 H 203.094 2.22566 -3.33565 0
M  V30 2103 H 199.684 1.04955 -4.15551 0
M  V30 2104 H 203.868 0.462844 -4.94137 0
M  V30 2105 H 199.124 -0.339796 -6.10455 0
M  V30 2106 H 203.298 -0.92076 -6.90286 0
M  V30 2107 H 200.925 -1.3281 -7.48509 0
M  V30 2108 N 202.5 1.5196 0.417844 0
M  V30 2109 C 203.43 1.77634 1.51554 0
M  V30 2110 C 204.411 0.626918 1.58126 0
M  V30 2111 O 205.596 0.871632 1.7354 0
M  V30 2112 C 202.726 1.91911 2.8946 0
M  V30 2113 C 201.68 3.07463 2.97743 0
M  V30 2114 C 201.006 3.06951 4.37819 0
M  V30 2115 C 202.306 4.47082 2.70027 0
M  V30 2116 H 204 2.6955 1.3032 0
M  V30 2117 H 201.546 1.29706 0.625492 0
M  V30 2118 H 203.499 2.08455 3.6623 0
M  V30 2119 H 202.223 0.966598 3.11969 0
M  V30 2120 H 200.882 2.90656 2.23416 0
M  V30 2121 H 200.53 2.09438 4.57323 0
M  V30 2122 H 200.23 3.84556 4.44286 0
M  V30 2123 H 201.754 3.25613 5.16535 0
M  V30 2124 H 203.168 4.6414 3.36522 0
M  V30 2125 H 201.565 5.2654 2.87881 0
M  V30 2126 H 202.635 4.55777 1.65514 0
M  V30 2127 N 203.978 -0.674533 1.42435 0
M  V30 2128 C 205.206 -1.46283 1.46317 0
M  V30 2129 C 205.621 -1.88653 0.0745836 0
M  V30 2130 O 204.978 -1.58151 -0.91074 0
M  V30 2131 C 205.029 -2.71178 2.3905 0
M  V30 2132 O 204.75 -2.30586 3.72507 0
M  V30 2133 C 206.251 -3.64738 2.51955 0
M  V30 2134 H 203.471 -0.450104 0.497642 0
M  V30 2135 H 206.015 -0.828792 1.86953 0
M  V30 2136 H 204.17 -3.3077 2.01667 0
M  V30 2137 H 204.584 -3.11241 4.22172 0
M  V30 2138 H 206.058 -4.49096 3.20962 0
M  V30 2139 H 206.535 -4.10656 1.55752 0
M  V30 2140 H 207.141 -3.11038 2.90061 0
M  V30 2141 N 205.456 -1.28612 -0.910864 0
M  V30 2142 C 206.703 -1.15934 -1.66029 0
M  V30 2143 C 207.031 0.291483 -1.92303 0
M  V30 2144 O 206.286 1.22816 -1.52364 0
M  V30 2145 C 206.585 -1.90624 -3.0232 0
M  V30 2146 C 206.251 -3.40405 -2.95695 0
M  V30 2147 C 204.913 -3.81255 -2.93595 0
M  V30 2148 C 207.265 -4.359 -2.85728 0
M  V30 2149 C 204.593 -5.15936 -2.79334 0
M  V30 2150 C 206.945 -5.70657 -2.73007 0
M  V30 2151 C 205.609 -6.10779 -2.69267 0
M  V30 2152 H 204.879 -0.424234 -0.607541 0
M  V30 2153 H 207.526 -1.5942 -1.06101 0
M  V30 2154 H 205.831 -1.39696 -3.6605 0
M  V30 2155 H 207.528 -1.78228 -3.59215 0
M  V30 2156 H 204.118 -3.07927 -2.98125 0
M  V30 2157 H 208.302 -4.053 -2.86436 0
M  V30 2158 H 203.558 -5.46146 -2.74835 0
M  V30 2159 H 207.732 -6.44311 -2.64264 0
M  V30 2160 H 205.359 -7.1509 -2.57974 0
M  V30 2161 N 206.934 1.1197 -1.10907 0
M  V30 2162 C 208.35 1.35591 -0.841852 0
M  V30 2163 C 208.55 1.94233 0.536246 0
M  V30 2164 O 207.606 2.1717 1.28816 0
M  V30 2165 C 208.919 2.29284 -1.94549 0
M  V30 2166 C 210.467 2.42862 -1.97451 0
M  V30 2167 C 210.942 3.39873 -3.07002 0
M  V30 2168 N 212.433 3.47433 -3.06341 0
M  V30 2169 C 213.168 4.22421 -3.87748 0
M  V30 2170 N 212.664 5.00432 -4.79103 0
M  V30 2171 N 214.457 4.17876 -3.75946 0
M  V30 2172 H 206.608 0.722664 -1.99728 0
M  V30 2173 H 208.871 0.380635 -0.868229 0
M  V30 2174 H 208.577 1.93378 -2.93765 0
M  V30 2175 H 208.451 3.29452 -1.83688 0
M  V30 2176 H 210.838 2.78046 -0.988645 0
M  V30 2177 H 210.919 1.42566 -2.12388 0
M  V30 2178 H 210.563 3.05417 -4.05811 0
M  V30 2179 H 210.493 4.40011 -2.89306 0
M  V30 2180 H 212.984 2.91784 -2.40147 0
M  V30 2181 H 213.297 5.55002 -5.37766 0
M  V30 2182 H 211.642 4.99612 -4.83128 0
M  V30 2183 H 214.833 3.56016 -3.03924 0
M  V30 2184 H 215.006 4.76061 -4.39624 0
M  V30 2185 N 208.412 0.89855 1.29475 0
M  V30 2186 C 209.36 0.365253 2.29714 0
M  V30 2187 C 210.354 -0.534993 1.6073 0
M  V30 2188 O 211.56 -0.417921 1.75081 0
M  V30 2189 H 207.935 0.0994853 0.74539 0
M  V30 2190 H 209.906 1.22406 2.72138 0
M  V30 2191 C 208.655 -0.393159 3.4547 0
M  V30 2192 H 207.978 0.290332 3.98744 0
M  V30 2193 H 209.418 -0.731189 4.17648 0
M  V30 2194 C 207.877 -1.59539 2.9673 0
M  V30 2195 O 208.407 -2.69469 2.97908 0
M  V30 2196 N 206.613 -1.43716 2.52575 0
M  V30 2197 H 206.16 -0.542828 2.51816 0
M  V30 2198 H 206.118 -2.24288 2.20323 0
M  V30 2199 N 209.89 -1.43072 0.660911 0
M  V30 2200 C 211.138 -2.01323 0.177094 0
M  V30 2201 C 211.459 -1.5245 -1.2159 0
M  V30 2202 O 210.729 -0.740322 -1.81373 0
M  V30 2203 H 209.309 -0.744382 0.0624804 0
M  V30 2204 H 211.971 -1.75179 0.854305 0
M  V30 2205 H 211.067 -3.11649 0.167641 0
M  V30 2206 N 211.368 -0.403325 -1.52352 0
M  V30 2207 C 212.598 0.17376 -2.05868 0
M  V30 2208 C 213.006 1.39898 -1.27378 0
M  V30 2209 O 212.349 1.80939 -0.31729 0
M  V30 2210 C 212.411 0.594756 -3.54546 0
M  V30 2211 C 212.075 -0.518926 -4.54044 0
M  V30 2212 C 213.072 -1.3807 -5.01231 0
M  V30 2213 C 210.757 -0.689961 -4.97539 0
M  V30 2214 C 212.751 -2.39852 -5.90551 0
M  V30 2215 C 210.438 -1.71109 -5.86656 0
M  V30 2216 C 211.436 -2.56378 -6.33056 0
M  V30 2217 O 211.124 -3.56743 -7.20409 0
M  V30 2218 H 210.856 0.0264951 -0.675481 0
M  V30 2219 H 213.41 -0.571179 -1.97299 0
M  V30 2220 H 211.64 1.39189 -3.60782 0
M  V30 2221 H 213.329 1.0991 -3.90736 0
M  V30 2222 H 214.095 -1.25994 -4.68349 0
M  V30 2223 H 209.974 -0.035939 -4.60986 0
M  V30 2224 H 213.518 -3.06441 -6.26689 0
M  V30 2225 H 209.415 -1.83218 -6.18952 0
M  V30 2226 H 210.183 -3.52918 -7.38506 0
M  V30 2227 N 212.846 1.57033 -0.133567 0
M  V30 2228 C 213.796 2.12641 0.822671 0
M  V30 2229 C 214.78 1.05081 1.21847 0
M  V30 2230 O 215.972 1.31287 1.18713 0
M  V30 2231 C 213.101 2.74094 2.06706 0
M  V30 2232 C 212.187 3.88757 1.69497 0
M  V30 2233 N 212.578 4.95194 1.03037 0
M  V30 2234 C 210.876 3.99213 1.98859 0
M  V30 2235 C 211.577 5.75414 0.852873 0
M  V30 2236 N 210.553 5.25726 1.3825 0
M  V30 2237 H 214.355 2.92308 0.305537 0
M  V30 2238 H 211.869 1.62256 0.0684276 0
M  V30 2239 H 213.866 3.12285 2.76195 0
M  V30 2240 H 212.526 1.95896 2.5895 0
M  V30 2241 H 213.537 5.13247 0.692669 0
M  V30 2242 H 210.214 3.32075 2.53047 0
M  V30 2243 H 211.604 6.71089 0.330091 0
M  V30 2244 N 214.325 -0.140222 1.56975 0
M  V30 2245 C 215.573 -0.850005 1.83356 0
M  V30 2246 C 215.894 -1.81399 0.71551 0
M  V30 2247 O 215.164 -1.94136 -0.262294 0
M  V30 2248 H 213.744 -0.316886 0.676456 0
M  V30 2249 H 216.406 -0.132608 1.94448 0
M  V30 2250 H 215.502 -1.40814 2.78528 0
M  V30 2251 N 215.803 -1.52179 -0.40978 0
M  V30 2252 C 217.08 -1.56769 -1.16974 0
M  V30 2253 C 217.46 -0.348322 -2.08206 0
M  V30 2254 O 216.808 0.664862 -2.18613 0
M  V30 2255 C 217.018 -2.89603 -1.9476 0
M  V30 2256 C 218.366 -3.42579 -2.50849 0
M  V30 2257 O 219.39 -2.91338 -2.04941 0
M  V30 2258 O 218.249 -4.32054 -3.34652 0
M  V30 2259 H 215.343 -0.631439 -0.534054 0
M  V30 2260 H 217.889 -1.64507 -0.416613 0
M  V30 2261 H 216.661 -3.698 -1.27921 0
M  V30 2262 H 216.284 -2.85155 -2.77079 0
M  V30 2263 N 217.281 0.66697 -1.42791 0
M  V30 2264 C 218.509 1.45505 -1.47091 0
M  V30 2265 C 218.924 1.8861 -0.0845873 0
M  V30 2266 O 218.281 1.58632 0.90234 0
M  V30 2267 C 218.332 2.69906 -2.40485 0
M  V30 2268 O 218.053 2.28608 -3.73725 0
M  V30 2269 C 219.554 3.63396 -2.53886 0
M  V30 2270 H 216.774 0.447459 -0.500022 0
M  V30 2271 H 219.318 0.818866 -1.8739 0
M  V30 2272 H 217.473 3.29696 -2.03419 0
M  V30 2273 H 217.887 3.08997 -4.23817 0
M  V30 2274 H 219.361 4.47387 -3.2334 0
M  V30 2275 H 219.838 4.09824 -1.57927 0
M  V30 2276 H 220.444 3.09495 -2.91706 0
M  V30 2277 N 218.759 1.29093 0.90403 0
M  V30 2278 C 220.006 1.16813 1.65411 0
M  V30 2279 C 220.334 -0.28128 1.92455 0
M  V30 2280 O 219.589 -1.22006 1.53013 0
M  V30 2281 C 219.888 1.92224 3.01305 0
M  V30 2282 C 219.554 3.41968 2.93885 0
M  V30 2283 C 218.216 3.82807 2.91569 0
M  V30 2284 C 220.568 4.37409 2.83413 0
M  V30 2285 C 217.896 5.1741 2.76594 0
M  V30 2286 C 220.248 5.72097 2.69977 0
M  V30 2287 C 218.912 6.12199 2.66024 0
M  V30 2288 H 218.182 0.42745 0.605283 0
M  V30 2289 H 220.829 1.59981 1.05254 0
M  V30 2290 H 219.134 1.41635 3.65304 0
M  V30 2291 H 220.831 1.80131 3.58265 0
M  V30 2292 H 217.421 3.09504 2.96488 0
M  V30 2293 H 221.605 4.06813 2.84283 0
M  V30 2294 H 216.861 5.47596 2.71935 0
M  V30 2295 H 221.035 6.45704 2.60844 0
M  V30 2296 H 218.662 7.16448 2.54178 0
M  V30 2297 N 220.237 -1.11381 1.11499 0
M  V30 2298 C 221.485 -1.8277 0.862524 0
M  V30 2299 C 221.806 -1.85097 -0.613534 0
M  V30 2300 O 221.076 -1.32198 -1.4457 0
M  V30 2301 H 219.656 -0.676823 0.316101 0
M  V30 2302 H 222.318 -1.34816 1.4075 0
M  V30 2303 H 221.414 -2.86614 1.23527 0
M  V30 2304 N 221.715 -0.905404 -1.28997 0
M  V30 2305 C 222.678 -0.392253 -2.25819 0
M  V30 2306 C 223.678 0.476753 -1.5357 0
M  V30 2307 O 224.868 0.280994 -1.71919 0
M  V30 2308 C 222 0.438588 -3.38067 0
M  V30 2309 H 223.193 -1.24743 -2.72725 0
M  V30 2310 H 220.746 -0.684051 -1.40536 0
M  V30 2311 H 221.481 1.31352 -2.96508 0
M  V30 2312 H 221.266 -0.184167 -3.91667 0
M  V30 2313 H 222.756 0.78873 -4.10084 0
M  V30 2314 N 223.193 1.4272 -0.668489 0
M  V30 2315 C 224.126 2.28111 0.0637898 0
M  V30 2316 C 225.104 1.40705 0.814912 0
M  V30 2317 O 226.288 1.70146 0.81134 0
M  V30 2318 C 223.415 3.20429 1.0974 0
M  V30 2319 C 222.461 4.24197 0.442579 0
M  V30 2320 S 223.294 5.29563 -0.795173 0
M  V30 2321 C 224.45 6.25449 0.237516 0
M  V30 2322 H 224.683 2.8987 -0.660521 0
M  V30 2323 H 222.216 1.47456 -0.457821 0
M  V30 2324 H 224.174 3.74158 1.68868 0
M  V30 2325 H 222.835 2.57818 1.79411 0
M  V30 2326 H 222.028 4.88954 1.22227 0
M  V30 2327 H 221.63 3.73925 -0.0749554 0
M  V30 2328 H 223.922 6.68524 1.09915 0
M  V30 2329 H 224.865 7.07104 -0.375421 0
M  V30 2330 H 225.273 5.61511 0.580167 0
M  V30 2331 N 224.671 0.411399 1.52136 0
M  V30 2332 C 225.896 -0.165538 2.06738 0
M  V30 2333 C 226.321 -1.379 1.27926 0
M  V30 2334 O 225.679 -1.78628 0.310114 0
M  V30 2335 C 225.727 -0.492124 3.57226 0
M  V30 2336 O 224.831 -1.58276 3.80818 0
M  V30 2337 H 224.172 -0.0132132 0.663869 0
M  V30 2338 H 226.702 0.585253 1.96051 0
M  V30 2339 H 226.712 -0.750104 4.01045 0
M  V30 2340 H 225.387 0.394922 4.14021 0
M  V30 2341 H 223.964 -1.31677 3.48877 0
M  V30 2342 N 226.149 -1.5696 0.141893 0
M  V30 2343 C 227.395 -1.9625 -0.511248 0
M  V30 2344 C 227.728 -1.02654 -1.64851 0
M  V30 2345 O 227.003 -0.0679676 -1.94381 0
M  V30 2346 C 227.286 -3.45285 -1.02227 0
M  V30 2347 C 227.139 -4.49658 0.113138 0
M  V30 2348 C 228.458 -3.96698 -1.90574 0
M  V30 2349 H 225.577 -0.713567 -0.184367 0
M  V30 2350 H 228.219 -1.88698 0.222087 0
M  V30 2351 H 226.369 -3.51852 -1.64719 0
M  V30 2352 H 228.041 -4.55174 0.749302 0
M  V30 2353 H 226.284 -4.26857 0.773026 0
M  V30 2354 H 226.955 -5.51258 -0.286053 0
M  V30 2355 H 229.431 -3.92578 -1.37918 0
M  V30 2356 H 228.307 -5.01453 -2.2324 0
M  V30 2357 H 228.568 -3.3875 -2.84079 0
M  V30 2358 N 227.627 0.131896 -1.57047 0
M  V30 2359 C 228.867 0.847972 -1.85981 0
M  V30 2360 C 229.231 1.77655 -0.7282 0
M  V30 2361 O 230.432 2.53322 -0.898968 0
M  V30 2362 C 228.703 1.58919 -3.20124 0
M  V30 2363 S 230.262 2.34862 -3.70655 0
M  V30 2364 H 227.08 0.283273 -0.652133 0
M  V30 2365 H 229.682 0.107057 -1.95207 0
M  V30 2366 H 228.386 0.898771 -4.00438 0
M  V30 2367 H 227.917 2.37073 -3.13942 0
M  V30 2368 H 229.932 3.60344 -3.41126 0
M  V30 2369 N 229.106 1.52395 0.401703 0
M  V30 2370 C 230.383 1.57387 1.16141 0
M  V30 2371 C 230.763 0.359359 2.08019 0
M  V30 2372 O 230.111 -0.65326 2.18963 0
M  V30 2373 C 230.321 2.90631 1.93221 0
M  V30 2374 C 231.669 3.43904 2.49028 0
M  V30 2375 O 232.693 2.92421 2.03393 0
M  V30 2376 O 231.552 4.33823 3.32356 0
M  V30 2377 H 228.646 0.634262 0.530698 0
M  V30 2378 H 231.192 1.64725 0.407883 0
M  V30 2379 H 229.964 3.70473 1.25958 0
M  V30 2380 H 229.587 2.8662 2.75563 0
M  V30 2381 N 230.584 -0.659388 1.43143 0
M  V30 2382 C 231.995 -1.24041 1.39537 0
M  V30 2383 C 232.346 -1.95963 0.0963364 0
M  V30 2384 O 231.471 -2.00892 -0.804438 0
M  V30 2385 C 232.066 -2.25601 2.52764 0
M  V30 2386 C 230.625 -2.79195 2.52443 0
M  V30 2387 C 229.772 -1.53743 2.30778 0
M  V30 2388 H 232.723 -0.451792 1.52133 0
M  V30 2389 H 232.744 -3.07651 2.23899 0
M  V30 2390 H 232.256 -1.73226 3.47296 0
M  V30 2391 H 230.357 -3.35649 1.61773 0
M  V30 2392 H 230.47 -3.2716 3.50004 0
M  V30 2393 H 228.834 -1.80869 1.79328 0
M  V30 2394 H 229.617 -1.03312 3.27386 0
M  V30 2395 N 232.062 -1.29571 -0.897171 0
M  V30 2396 C 233.339 -1.08365 -1.62839 0
M  V30 2397 C 233.719 0.371331 -2.07808 0
M  V30 2398 O 233.067 1.3606 -1.83576 0
M  V30 2399 C 233.277 -2.0735 -2.80726 0
M  V30 2400 C 234.625 -2.38406 -3.51351 0
M  V30 2401 O 235.649 -2.05564 -2.90898 0
M  V30 2402 O 234.508 -2.9453 -4.60341 0
M  V30 2403 H 231.602 -0.415345 -0.715134 0
M  V30 2404 H 234.148 -1.40952 -0.945018 0
M  V30 2405 H 232.92 -3.05339 -2.44711 0
M  V30 2406 H 232.543 -1.75507 -3.56767 0
M  V30 2407 N 233.54 1.10788 -1.12088 0
M  V30 2408 C 234.488 2.19111 -0.780587 0
M  V30 2409 C 235.482 1.67818 0.230961 0
M  V30 2410 O 236.688 1.79777 0.0895427 0
M  V30 2411 H 233.063 0.714477 -0.234578 0
M  V30 2412 H 235.034 2.45055 -1.70266 0
M  V30 2413 C 233.783 3.46818 -0.24747 0
M  V30 2414 H 233.106 3.86646 -1.01712 0
M  V30 2415 H 234.546 4.23973 -0.0476291 0
M  V30 2416 C 233.005 3.20968 1.02378 0
M  V30 2417 O 233.535 3.42298 2.10226 0
M  V30 2418 N 231.741 2.74658 0.949271 0
M  V30 2419 H 231.288 2.57501 0.0715173 0
M  V30 2420 H 231.246 2.57739 1.80049 0
M  V30 2421 N 235.018 0.912232 1.28515 0
M  V30 2422 C 236.243 0.559774 1.99703 0
M  V30 2423 C 236.668 -0.851393 1.67729 0
M  V30 2424 O 236.026 -1.56875 0.908834 0
M  V30 2425 C 236.074 0.773874 3.52198 0
M  V30 2426 O 235.178 -0.167842 4.12058 0
M  V30 2427 H 234.519 0.21723 0.627461 0
M  V30 2428 H 237.049 1.22725 1.63706 0
M  V30 2429 H 237.059 0.683386 4.02236 0
M  V30 2430 H 235.734 1.80261 3.74805 0
M  V30 2431 H 234.311 -0.0287509 3.72889 0
M  V30 2432 N 236.496 -1.42363 0.676048 0
M  V30 2433 C 237.429 -2.28141 -0.0516916 0
M  V30 2434 C 238.407 -1.41135 -0.807439 0
M  V30 2435 O 239.591 -1.70573 -0.802305 0
M  V30 2436 C 236.718 -3.21007 -1.08039 0
M  V30 2437 C 235.764 -4.24426 -0.420076 0
M  V30 2438 S 236.597 -5.29134 0.823246 0
M  V30 2439 C 237.753 -6.25566 -0.204344 0
M  V30 2440 H 237.986 -2.89515 0.675884 0
M  V30 2441 H 235.519 -1.47211 0.465635 0
M  V30 2442 H 237.477 -3.75048 -1.66881 0
M  V30 2443 H 236.138 -2.58766 -1.78042 0
M  V30 2444 H 235.331 -4.89596 -1.19633 0
M  V30 2445 H 234.933 -3.7388 0.0947845 0
M  V30 2446 H 237.225 -6.69098 -1.06369 0
M  V30 2447 H 238.168 -7.06895 0.412915 0
M  V30 2448 H 238.576 -5.61811 -0.55038 0
M  V30 2449 N 237.974 -0.419461 -1.51915 0
M  V30 2450 C 238.924 0.418496 -2.24126 0
M  V30 2451 C 239.908 1.00495 -1.25656 0
M  V30 2452 O 241.1 0.926058 -1.50842 0
M  V30 2453 C 238.229 1.52899 -3.07371 0
M  V30 2454 C 237.315 0.952797 -4.13258 0
M  V30 2455 N 237.706 0.104175 -5.05693 0
M  V30 2456 C 236.004 1.22224 -4.28926 0
M  V30 2457 C 236.705 -0.21752 -5.81293 0
M  V30 2458 N 235.681 0.394293 -5.42168 0
M  V30 2459 H 239.483 -0.236048 -2.92951 0
M  V30 2460 H 236.997 -0.230481 -1.60756 0
M  V30 2461 H 238.994 2.14199 -3.57665 0
M  V30 2462 H 237.654 2.18605 -2.40088 0
M  V30 2463 H 238.665 -0.260924 -5.17242 0
M  V30 2464 H 235.342 1.87812 -3.72871 0
M  V30 2465 H 236.732 -0.906992 -6.6575 0
M  V30 2466 N 239.452 1.56882 -0.150215 0
M  V30 2467 C 240.677 2.01027 0.510184 0
M  V30 2468 C 241.102 1.02966 1.57415 0
M  V30 2469 O 240.46 0.00590158 1.81299 0
M  V30 2470 C 240.508 3.43899 1.08472 0
M  V30 2471 O 239.612 3.4885 2.19948 0
M  V30 2472 H 238.953 0.652233 0.124451 0
M  V30 2473 H 241.483 2.03093 -0.247894 0
M  V30 2474 H 241.493 3.82766 1.41259 0
M  V30 2475 H 240.168 4.14776 0.305582 0
M  V30 2476 H 238.745 3.21827 1.88366 0
M  V30 2477 N 240.93 -0.123565 1.57115 0
M  V30 2478 C 241.86 -1.15309 2.03042 0
M  V30 2479 C 242.841 -1.43454 0.914061 0
M  V30 2480 O 244.026 -1.53973 1.18347 0
M  V30 2481 C 241.156 -2.48043 2.43089 0
M  V30 2482 C 240.11 -2.3437 3.58127 0
M  V30 2483 C 239.436 -3.72026 3.84059 0
M  V30 2484 C 240.736 -1.80804 4.90007 0
M  V30 2485 H 242.43 -0.771102 2.893 0
M  V30 2486 H 239.976 -0.369479 1.39179 0
M  V30 2487 H 241.929 -3.20311 2.73823 0
M  V30 2488 H 240.653 -2.88122 1.53796 0
M  V30 2489 H 239.312 -1.64551 3.27595 0
M  V30 2490 H 238.96 -4.09582 2.91979 0
M  V30 2491 H 238.66 -3.63732 4.6149 0
M  V30 2492 H 240.184 -4.45806 4.1724 0
M  V30 2493 H 241.598 -2.42886 5.19307 0
M  V30 2494 H 239.995 -1.83343 5.71407 0
M  V30 2495 H 241.065 -0.76528 4.78823 0
M  V30 2496 N 242.408 -1.52605 -0.393616 0
M  V30 2497 C 243.654 -1.68624 -1.13743 0
M  V30 2498 C 244.009 -0.418687 -1.87789 0
M  V30 2499 O 243.302 0.58747 -1.82371 0
M  V30 2500 C 243.496 -2.85721 -2.14705 0
M  V30 2501 C 243.325 -4.23742 -1.50575 0
M  V30 2502 C 242.095 -4.89033 -1.2718 0
M  V30 2503 C 244.293 -5.05293 -0.958311 0
M  V30 2504 N 242.275 -6.11048 -0.591058 0
M  V30 2505 C 243.646 -6.18673 -0.405367 0
M  V30 2506 C 245.701 -4.90517 -0.854274 0
M  V30 2507 C 244.404 -7.18895 0.241434 0
M  V30 2508 C 246.43 -5.90986 -0.221301 0
M  V30 2509 C 245.792 -7.03669 0.320894 0
M  V30 2510 H 241.891 -0.670556 -0.402342 0
M  V30 2511 H 244.475 -1.89946 -0.427607 0
M  V30 2512 H 242.646 -2.65987 -2.83029 0
M  V30 2513 H 244.378 -2.90699 -2.8156 0
M  V30 2514 H 241.133 -4.47672 -1.54554 0
M  V30 2515 H 241.557 -6.76474 -0.266862 0
M  V30 2516 H 246.199 -4.03612 -1.25926 0
M  V30 2517 H 243.917 -8.05413 0.658448 0
M  V30 2518 H 247.503 -5.81626 -0.142111 0
M  V30 2519 H 246.383 -7.80078 0.802956 0
M  V30 2520 N 243.887 0.651787 -1.4349 0
M  V30 2521 C 244.834 1.76462 -1.4876 0
M  V30 2522 C 245.804 1.62641 -0.337189 0
M  V30 2523 O 246.989 1.82864 -0.544544 0
M  V30 2524 C 244.129 3.14623 -1.41796 0
M  V30 2525 C 243.242 3.39568 -2.67053 0
M  V30 2526 C 242.377 4.67585 -2.52068 0
M  V30 2527 C 241.416 4.85639 -3.72587 0
M  V30 2528 N 240.553 6.04915 -3.56402 0
M  V30 2529 H 245.393 1.71293 -2.43849 0
M  V30 2530 H 242.93 0.835889 -1.21043 0
M  V30 2531 H 244.888 3.94496 -1.35753 0
M  V30 2532 H 243.518 3.18859 -0.50288 0
M  V30 2533 H 242.57 2.53783 -2.8337 0
M  V30 2534 H 243.882 3.48795 -3.56572 0
M  V30 2535 H 243.036 5.55586 -2.4374 0
M  V30 2536 H 241.775 4.60681 -1.60075 0
M  V30 2537 H 240.78 3.96073 -3.81321 0
M  V30 2538 H 242.005 4.94372 -4.65589 0
M  V30 2539 H 239.951 5.9914 -2.67146 0
M  V30 2540 H 239.868 6.15106 -4.39524 0
M  V30 2541 H 241.136 6.95533 -3.51929 0
M  V30 2542 N 245.365 1.30045 0.890287 0
M  V30 2543 C 246.613 1.18327 1.63839 0
M  V30 2544 C 246.934 -0.263455 1.93212 0
M  V30 2545 O 246.204 -1.17856 1.56482 0
M  V30 2546 H 244.784 0.434933 0.607324 0
M  V30 2547 H 247.446 1.631 1.06698 0
M  V30 2548 H 246.542 1.74024 2.59079 0
M  V30 2549 N 246.843 -1.10192 1.12674 0
M  V30 2550 C 248.073 -1.85713 0.905213 0
M  V30 2551 C 248.481 -1.81056 -0.549108 0
M  V30 2552 O 247.824 -1.19927 -1.39151 0
M  V30 2553 C 247.886 -3.34972 1.30516 0
M  V30 2554 C 247.55 -3.63385 2.77129 0
M  V30 2555 C 248.547 -3.59772 3.75313 0
M  V30 2556 C 246.232 -3.91981 3.14096 0
M  V30 2557 C 248.226 -3.84354 5.08479 0
M  V30 2558 C 245.913 -4.16218 4.47443 0
M  V30 2559 C 246.911 -4.12395 5.44444 0
M  V30 2560 O 246.599 -4.36014 6.75387 0
M  V30 2561 H 246.331 -0.593719 0.323223 0
M  V30 2562 H 248.885 -1.40198 1.50112 0
M  V30 2563 H 247.115 -3.81156 0.652463 0
M  V30 2564 H 248.804 -3.91886 1.05736 0
M  V30 2565 H 249.57 -3.37716 3.48099 0
M  V30 2566 H 245.449 -3.94085 2.39202 0
M  V30 2567 H 248.993 -3.81285 5.84181 0
M  V30 2568 H 244.89 -4.37754 4.74386 0
M  V30 2569 H 245.658 -4.53516 6.8137 0
M  V30 2570 N 248.321 -0.919034 -1.28029 0
M  V30 2571 C 249.251 -0.428581 -2.29533 0
M  V30 2572 C 250.232 0.50659 -1.62381 0
M  V30 2573 O 251.417 0.413195 -1.89753 0
M  V30 2574 C 248.547 0.327388 -3.45753 0
M  V30 2575 C 247.501 -0.519137 -4.2484 0
M  V30 2576 C 246.827 0.365486 -5.33449 0
M  V30 2577 C 248.127 -1.77914 -4.91064 0
M  V30 2578 H 249.821 -1.27687 -2.70807 0
M  V30 2579 H 247.367 -0.615428 -1.30186 0
M  V30 2580 H 249.32 0.681378 -4.15855 0
M  V30 2581 H 248.044 1.20963 -3.03374 0
M  V30 2582 H 246.703 -0.855717 -3.56473 0
M  V30 2583 H 246.351 1.24642 -4.87312 0
M  V30 2584 H 246.051 -0.197356 -5.87268 0
M  V30 2585 H 247.575 0.715241 -6.06396 0
M  V30 2586 H 248.989 -1.49374 -5.53498 0
M  V30 2587 H 247.386 -2.2848 -5.54903 0
M  V30 2588 H 248.456 -2.50382 -4.15255 0
M  V30 2589 N 249.799 1.42003 -0.683588 0
M  V30 2590 C 251.21 1.84501 -0.285736 0
M  V30 2591 C 251.561 1.57213 1.17382 0
M  V30 2592 O 250.686 1.03642 1.89966 0
M  V30 2593 C 251.281 3.34912 -0.511821 0
M  V30 2594 C 249.84 3.76025 -0.168005 0
M  V30 2595 C 248.987 2.6551 -0.799983 0
M  V30 2596 H 251.938 1.31724 -0.885119 0
M  V30 2597 H 251.959 3.79784 0.233292 0
M  V30 2598 H 251.471 3.54741 -1.57418 0
M  V30 2599 H 249.572 3.61801 0.890567 0
M  V30 2600 H 249.685 4.75141 -0.614661 0
M  V30 2601 H 248.049 2.53654 -0.230568 0
M  V30 2602 H 248.832 2.8816 -1.86597 0
M  V30 2603 N 251.277 0.427512 1.51691 0
M  V30 2604 C 252.187 -0.39527 2.31246 0
M  V30 2605 C 253.203 -1.03674 1.39742 0
M  V30 2606 O 254.379 -1.03425 1.72816 0
M  V30 2607 C 251.444 -1.48706 3.13189 0
M  V30 2608 C 250.505 -0.866743 4.20459 0
M  V30 2609 C 249.738 -1.90651 4.98486 0
M  V30 2610 O 249.961 -3.12733 4.77026 0
M  V30 2611 O 248.895 -1.5025 5.82845 0
M  V30 2612 H 252.721 0.253918 3.02637 0
M  V30 2613 H 250.306 0.190274 1.48183 0
M  V30 2614 H 252.188 -2.12047 3.64162 0
M  V30 2615 H 250.863 -2.12051 2.44573 0
M  V30 2616 H 249.77 -0.195544 3.73589 0
M  V30 2617 H 251.103 -0.276934 4.9142 0
M  V30 2618 N 252.755 -1.56801 0.158532 0
M  V30 2619 C 253.703 -2.18638 -0.793729 0
M  V30 2620 C 254.697 -1.14669 -1.24689 0
M  V30 2621 O 255.903 -1.32895 -1.21403 0
M  V30 2622 H 252.278 -0.700226 -0.274204 0
M  V30 2623 H 254.249 -2.97367 -0.248095 0
M  V30 2624 C 252.998 -2.83139 -2.0181 0
M  V30 2625 H 252.321 -3.62863 -1.67841 0
M  V30 2626 H 253.761 -3.29894 -2.66357 0
M  V30 2627 C 252.22 -1.82244 -2.83353 0
M  V30 2628 O 252.75 -1.3 -3.80083 0
M  V30 2629 N 250.956 -1.51288 -2.48114 0
M  V30 2630 H 250.503 -1.93964 -1.69516 0
M  V30 2631 H 250.461 -0.840296 -3.02963 0
M  V30 2632 N 254.233 0.115231 -1.57178 0
M  V30 2633 C 255.163 1.1423 -2.03651 0
M  V30 2634 C 256.144 1.42967 -0.921655 0
M  V30 2635 O 257.329 1.53343 -1.19162 0
M  V30 2636 C 254.459 2.4675 -2.44401 0
M  V30 2637 C 253.413 2.32467 -3.59365 0
M  V30 2638 C 252.739 3.69984 -3.86026 0
M  V30 2639 C 254.039 1.78203 -4.90959 0
M  V30 2640 H 255.733 0.755749 -2.89705 0
M  V30 2641 H 253.279 0.362093 -1.39373 0
M  V30 2642 H 255.232 3.18854 -2.75517 0
M  V30 2643 H 253.956 2.87302 -1.55322 0
M  V30 2644 H 252.615 1.62811 -3.28463 0
M  V30 2645 H 252.263 4.08028 -2.94147 0
M  V30 2646 H 251.963 3.61279 -4.63412 0
M  V30 2647 H 253.487 4.43587 -4.19599 0
M  V30 2648 H 254.901 2.40128 -5.20587 0
M  V30 2649 H 253.298 1.8031 -5.72371 0
M  V30 2650 H 254.368 0.739876 -4.79222 0
M  V30 2651 N 255.711 1.52812 0.385517 0
M  V30 2652 C 256.958 1.68026 1.1302 0
M  V30 2653 C 257.286 0.421934 1.89868 0
M  V30 2654 O 256.541 -0.595749 1.86412 0
M  V30 2655 C 256.84 2.86856 2.13187 0
M  V30 2656 C 256.506 4.24159 1.5297 0
M  V30 2657 C 255.168 4.61501 1.36274 0
M  V30 2658 C 257.52 5.09627 1.09223 0
M  V30 2659 C 254.848 5.81966 0.743837 0
M  V30 2660 C 257.2 6.30719 0.487411 0
M  V30 2661 C 255.864 6.6679 0.307777 0
M  V30 2662 H 255.134 0.614849 0.413571 0
M  V30 2663 H 257.781 1.86962 0.414405 0
M  V30 2664 H 256.086 2.6235 2.90998 0
M  V30 2665 H 257.783 2.95821 2.70722 0
M  V30 2666 H 254.373 3.94746 1.66954 0
M  V30 2667 H 258.557 4.81343 1.20922 0
M  V30 2668 H 253.813 6.08519 0.592891 0
M  V30 2669 H 257.987 6.96259 0.140143 0
M  V30 2670 H 255.614 7.60001 -0.173879 0
M  V30 2671 N 257.189 -0.644168 1.43834 0
M  V30 2672 C 258.152 -1.73857 1.49353 0
M  V30 2673 C 259.152 -1.56315 0.377112 0
M  V30 2674 O 260.342 -1.62048 0.639226 0
M  V30 2675 C 257.474 -3.12819 1.35488 0
M  V30 2676 H 258.667 -1.70342 2.46827 0
M  V30 2677 H 256.22 -0.856652 1.30733 0
M  V30 2678 H 256.955 -3.2194 0.390569 0
M  V30 2679 H 256.74 -3.26958 2.16428 0
M  V30 2680 H 258.23 -3.92606 1.42302 0
M  V30 2681 N 258.668 -1.30515 -0.883378 0
M  V30 2682 C 260.079 -1.17509 -1.45081 0
M  V30 2683 C 260.43 0.223605 -1.94922 0
M  V30 2684 O 259.555 1.12041 -1.85137 0
M  V30 2685 C 260.15 -2.12715 -2.63701 0
M  V30 2686 C 258.709 -2.03682 -3.16529 0
M  V30 2687 C 257.856 -2.02706 -1.89224 0
M  V30 2688 H 260.807 -1.42762 -0.693165 0
M  V30 2689 H 260.828 -1.70891 -3.39965 0
M  V30 2690 H 260.34 -3.14505 -2.27395 0
M  V30 2691 H 258.441 -1.05039 -3.57488 0
M  V30 2692 H 258.554 -2.92146 -3.7972 0
M  V30 2693 H 256.918 -1.4753 -2.07622 0
M  V30 2694 H 257.701 -3.06229 -1.55174 0
M  V30 2695 N 260.146 1.09593 -1.13257 0
M  V30 2696 C 261.109 2.14359 -0.811358 0
M  V30 2697 C 262.109 1.59808 0.178377 0
M  V30 2698 O 263.299 1.74132 -0.0484911 0
M  V30 2699 C 260.431 3.40269 -0.207276 0
M  V30 2700 H 261.624 2.44284 -1.73969 0
M  V30 2701 H 259.177 1.25102 -0.936973 0
M  V30 2702 H 259.912 3.15969 0.73036 0
M  V30 2703 H 259.697 3.81154 -0.919992 0
M  V30 2704 H 261.187 4.176 0.000667944 0
M  V30 2705 N 261.624 0.925811 1.2754 0
M  V30 2706 C 263.035 0.610102 1.7645 0
M  V30 2707 C 263.386 -0.874723 1.75622 0
M  V30 2708 O 262.511 -1.68444 1.35851 0
M  V30 2709 C 263.106 1.10073 3.20421 0
M  V30 2710 C 261.665 0.835723 3.67005 0
M  V30 2711 C 260.812 1.26054 2.46993 0
M  V30 2712 H 263.763 1.10579 1.13833 0
M  V30 2713 H 263.784 0.447557 3.77859 0
M  V30 2714 H 263.296 2.18143 3.20991 0
M  V30 2715 H 261.397 -0.231249 3.71882 0
M  V30 2716 H 261.51 1.45193 4.56569 0
M  V30 2717 H 259.874 0.679111 2.45479 0
M  V30 2718 H 260.657 2.34984 2.50275 0
M  V30 2719 N 263.102 -1.41638 0.69111 0
M  V30 2720 C 264.034 -2.29194 -0.0161523 0
M  V30 2721 C 265.047 -1.44549 -0.748955 0
M  V30 2722 O 266.236 -1.681 -0.6004 0
M  V30 2723 C 263.336 -3.22325 -1.0469 0
M  V30 2724 C 262.509 -4.35706 -0.384621 0
M  V30 2725 C 261.568 -5.09443 -1.31737 0
M  V30 2726 O 260.594 -5.63386 -0.811451 0
M  V30 2727 N 261.796 -5.16487 -2.64993 0
M  V30 2728 H 264.561 -2.90534 0.735523 0
M  V30 2729 H 262.122 -1.52742 0.53679 0
M  V30 2730 H 264.114 -3.68522 -1.67252 0
M  V30 2731 H 262.684 -2.62323 -1.70015 0
M  V30 2732 H 261.904 -3.91948 0.420804 0
M  V30 2733 H 263.192 -5.08743 0.0760765 0
M  V30 2734 H 262.59 -4.741 -3.08619 0
M  V30 2735 H 261.147 -5.66276 -3.22761 0
M  V30 2736 N 264.58 -0.43555 -1.51462 0
M  V30 2737 C 265.805 0.132627 -2.06976 0
M  V30 2738 C 266.23 1.35848 -1.30104 0
M  V30 2739 O 265.588 1.78112 -0.338493 0
M  V30 2740 C 265.636 0.43523 -3.57964 0
M  V30 2741 O 264.74 1.52198 -3.83288 0
M  V30 2742 H 264.081 0.00265 -0.663995 0
M  V30 2743 H 266.611 -0.616369 -1.95095 0
M  V30 2744 H 266.621 0.686206 -4.02188 0
M  V30 2745 H 265.296 -0.460739 -4.1334 0
M  V30 2746 H 263.873 1.2611 -3.50928 0
M  V30 2747 N 266.058 1.56714 -0.166846 0
M  V30 2748 C 267.474 1.58473 0.189372 0
M  V30 2749 C 267.674 1.18201 1.63189 0
M  V30 2750 O 266.73 0.891528 2.36237 0
M  V30 2751 C 268.043 3.00573 -0.0873872 0
M  V30 2752 C 269.591 3.1299 -0.0252443 0
M  V30 2753 C 270.066 4.57174 -0.274934 0
M  V30 2754 N 271.557 4.62665 -0.222553 0
M  V30 2755 C 272.292 5.72072 -0.389985 0
M  V30 2756 N 271.788 6.90054 -0.616229 0
M  V30 2757 N 273.581 5.61153 -0.326202 0
M  V30 2758 H 265.732 1.8118 -1.10849 0
M  V30 2759 H 267.995 0.839525 -0.440342 0
M  V30 2760 H 267.701 3.34497 -1.0865 0
M  V30 2761 H 267.575 3.72019 0.623037 0
M  V30 2762 H 269.962 2.78895 0.96444 0
M  V30 2763 H 270.043 2.43989 -0.768309 0
M  V30 2764 H 269.687 4.91976 -1.26181 0
M  V30 2765 H 269.617 5.24328 0.48869 0
M  V30 2766 H 272.108 3.77863 -0.0531512 0
M  V30 2767 H 272.421 7.69311 -0.733559 0
M  V30 2768 H 270.766 6.91927 -0.652791 0
M  V30 2769 H 273.957 4.67859 -0.150072 0
M  V30 2770 H 274.13 6.46364 -0.460116 0
M  V30 2771 N 267.536 -0.106894 1.57237 0
M  V30 2772 C 268.469 -1.16125 1.96444 0
M  V30 2773 C 269.447 -1.3947 0.835871 0
M  V30 2774 O 270.631 -1.53425 1.09513 0
M  V30 2775 C 267.758 -2.51277 2.27107 0
M  V30 2776 C 266.804 -2.44285 3.4961 0
M  V30 2777 S 267.637 -1.87077 5.01759 0
M  V30 2778 C 268.793 -3.23877 5.35588 0
M  V30 2779 H 269.026 -0.826971 2.85567 0
M  V30 2780 H 266.559 -0.314124 1.51171 0
M  V30 2781 H 268.517 -3.29035 2.45451 0
M  V30 2782 H 267.178 -2.81879 1.38576 0
M  V30 2783 H 266.371 -3.4387 3.68469 0
M  V30 2784 H 265.973 -1.74652 3.30715 0
M  V30 2785 H 268.265 -4.20122 5.31511 0
M  V30 2786 H 269.208 -3.09833 6.36717 0
M  V30 2787 H 269.616 -3.22864 4.63054 0
M  V30 2788 N 269.014 -1.53014 -0.377408 0
M  V30 2789 C 270.291 -1.59215 -1.13622 0
M  V30 2790 C 270.671 -0.392407 -2.07421 0
M  V30 2791 O 270.019 0.618342 -2.19975 0
M  V30 2792 C 270.229 -2.93669 -1.88573 0
M  V30 2793 C 271.577 -3.47822 -2.43526 0
M  V30 2794 O 272.601 -2.9562 -1.98715 0
M  V30 2795 O 271.46 -4.39055 -3.25412 0
M  V30 2796 H 268.554 -0.642625 -0.52054 0
M  V30 2797 H 271.1 -1.65353 -0.381625 0
M  V30 2798 H 269.872 -3.7243 -1.20048 0
M  V30 2799 H 269.495 -2.90968 -2.70968 0
M  V30 2800 N 270.492 0.636531 -1.44174 0
M  V30 2801 C 271.74 1.39343 -1.46383 0
M  V30 2802 C 272.061 1.94766 -0.0955715 0
M  V30 2803 O 271.331 1.75452 0.871395 0
M  V30 2804 H 269.911 0.517199 -0.538994 0
M  V30 2805 H 272.573 0.74957 -1.7991 0
M  V30 2806 H 271.669 2.22746 -2.18611 0
M  V30 2807 N 271.97 1.30982 0.876444 0
M  V30 2808 C 272.88 1.2003 2.01569 0
M  V30 2809 C 273.896 0.11838 1.73597 0
M  V30 2810 O 275.072 0.33495 1.98595 0
M  V30 2811 C 272.137 0.901637 3.34771 0
M  V30 2812 C 271.198 2.06979 3.76109 0
M  V30 2813 C 270.431 1.78529 5.02954 0
M  V30 2814 O 270.654 0.717296 5.65872 0
M  V30 2815 O 269.588 2.64019 5.40905 0
M  V30 2816 H 273.414 2.15753 2.13739 0
M  V30 2817 H 270.999 1.10658 1.00375 0
M  V30 2818 H 272.881 0.750645 4.1466 0
M  V30 2819 H 271.556 -0.0256141 3.2369 0
M  V30 2820 H 270.463 2.27616 2.96887 0
M  V30 2821 H 271.796 2.97907 3.91807 0
M  V30 2822 N 273.449 -1.08991 1.13837 0
M  V30 2823 C 274.695 -1.81699 0.91417 0
M  V30 2824 C 275.05 -1.84264 -0.553594 0
M  V30 2825 O 274.343 -1.30313 -1.4046 0
M  V30 2826 C 274.537 -3.27042 1.44147 0
M  V30 2827 C 274.366 -3.38637 2.95897 0
M  V30 2828 C 273.136 -3.50177 3.64286 0
M  V30 2829 C 275.334 -3.30791 3.93804 0
M  V30 2830 N 273.316 -3.50501 5.04006 0
M  V30 2831 C 274.687 -3.38037 5.19741 0
M  V30 2832 C 276.742 -3.14488 3.86007 0
M  V30 2833 C 275.445 -3.30659 6.38793 0
M  V30 2834 C 277.471 -3.08438 5.04599 0
M  V30 2835 C 276.833 -3.1628 6.29402 0
M  V30 2836 H 272.932 -0.678967 0.387979 0
M  V30 2837 H 275.516 -1.30224 1.4474 0
M  V30 2838 H 273.687 -3.76976 0.935091 0
M  V30 2839 H 275.419 -3.87785 1.1578 0
M  V30 2840 H 272.174 -3.53815 3.1482 0
M  V30 2841 H 272.598 -3.54236 5.76928 0
M  V30 2842 H 277.24 -3.07291 2.90399 0
M  V30 2843 H 274.958 -3.36618 7.34652 0
M  V30 2844 H 278.544 -2.96952 5.0031 0
M  V30 2845 H 277.424 -3.1162 7.19627 0
M  V30 2846 N 274.927 -0.932562 -1.27047 0
M  V30 2847 C 276.204 -0.49377 -1.89265 0
M  V30 2848 C 276.584 1.02833 -1.8436 0
M  V30 2849 O 275.932 1.88461 -1.29209 0
M  V30 2850 C 276.142 -1.04536 -3.32976 0
M  V30 2851 C 277.49 -1.10879 -4.09867 0
M  V30 2852 O 278.514 -0.995327 -3.42011 0
M  V30 2853 O 277.373 -1.28417 -5.31198 0
M  V30 2854 H 274.467 -0.159596 -0.811454 0
M  V30 2855 H 277.013 -1.02457 -1.3528 0
M  V30 2856 H 275.785 -2.08913 -3.30864 0
M  V30 2857 H 275.408 -0.496494 -3.94488 0
M  V30 2858 N 276.405 1.4127 -0.698611 0
M  V30 2859 C 277.315 2.34573 -0.0357891 0
M  V30 2860 C 278.331 1.56393 0.762701 0
M  V30 2861 O 279.507 1.8886 0.699564 0
M  V30 2862 C 276.572 3.35159 0.887089 0
M  V30 2863 C 275.633 4.29225 0.0804634 0
M  V30 2864 C 274.866 5.25006 0.959387 0
M  V30 2865 O 275.089 5.26314 2.19886 0
M  V30 2866 O 274.023 6.00519 0.407439 0
M  V30 2867 H 277.849 2.92838 -0.804957 0
M  V30 2868 H 275.434 1.42175 -0.458966 0
M  V30 2869 H 277.316 3.9689 1.41621 0
M  V30 2870 H 275.991 2.79333 1.6357 0
M  V30 2871 H 274.898 3.70833 -0.493328 0
M  V30 2872 H 276.231 4.88157 -0.629547 0
M  V30 2873 N 277.883 0.443576 1.51229 0
M  V30 2874 C 279.299 0.0962001 1.5931 0
M  V30 2875 C 279.499 -1.39501 1.45402 0
M  V30 2876 O 278.555 -2.16557 1.29843 0
M  V30 2877 C 279.868 0.621875 2.94199 0
M  V30 2878 C 281.416 0.582865 3.07525 0
M  V30 2879 C 281.891 1.08562 4.44948 0
M  V30 2880 N 283.382 1.04387 4.51284 0
M  V30 2881 C 284.117 1.40368 5.55954 0
M  V30 2882 N 283.613 1.83664 6.68011 0
M  V30 2883 N 285.406 1.32145 5.46346 0
M  V30 2884 H 277.557 1.41376 1.58514 0
M  V30 2885 H 279.82 0.582965 0.747567 0
M  V30 2886 H 279.526 1.66546 3.09767 0
M  V30 2887 H 279.4 0.0502125 3.77167 0
M  V30 2888 H 281.787 -0.451749 2.91622 0
M  V30 2889 H 281.868 1.191 2.26382 0
M  V30 2890 H 281.512 2.11873 4.61598 0
M  V30 2891 H 281.442 0.453956 5.2464 0
M  V30 2892 H 283.933 0.725986 3.70861 0
M  V30 2893 H 284.246 2.0934 7.43906 0
M  V30 2894 H 282.591 1.87596 6.69203 0
M  V30 2895 H 285.782 0.981808 4.57688 0
M  V30 2896 H 285.955 1.60514 6.27805 0
M  V30 2897 N 279.361 -1.56624 0.175154 0
M  V30 2898 C 280.638 -1.88688 -0.515373 0
M  V30 2899 C 281.018 -1.08564 -1.81044 0
M  V30 2900 O 280.366 -0.180703 -2.27784 0
M  V30 2901 C 280.576 -3.40768 -0.753552 0
M  V30 2902 C 281.924 -4.10587 -1.08184 0
M  V30 2903 O 282.948 -3.46106 -0.841961 0
M  V30 2904 O 281.807 -5.24512 -1.53459 0
M  V30 2905 H 278.901 -0.78301 -0.26613 0
M  V30 2906 H 281.447 -1.68347 0.213877 0
M  V30 2907 H 280.219 -3.90965 0.161829 0
M  V30 2908 H 279.842 -3.66733 -1.53598 0
M  V30 2909 N 280.839 0.0985539 -1.57292 0
M  V30 2910 C 281.772 1.15082 -1.97057 0
M  V30 2911 C 282.75 1.39025 -0.843255 0
M  V30 2912 O 283.934 1.52842 -1.10325 0
M  V30 2913 C 281.061 2.50069 -2.28437 0
M  V30 2914 C 280.107 2.42428 -3.509 0
M  V30 2915 S 280.94 1.84414 -5.02744 0
M  V30 2916 C 282.096 3.21032 -5.37298 0
M  V30 2917 H 282.329 0.811815 -2.86002 0
M  V30 2918 H 279.862 0.306102 -1.51335 0
M  V30 2919 H 281.82 3.27729 -2.47192 0
M  V30 2920 H 280.481 2.8114 -1.40069 0
M  V30 2921 H 279.674 3.41911 -3.70288 0
M  V30 2922 H 279.276 1.72896 -3.31637 0
M  V30 2923 H 281.568 4.17297 -5.33731 0
M  V30 2924 H 282.511 3.06452 -6.38352 0
M  V30 2925 H 282.919 3.20404 -4.64759 0
M  V30 2926 N 282.317 1.53212 0.369288 0
M  V30 2927 C 283.563 1.69466 1.11397 0
M  V30 2928 C 283.896 0.443257 1.89074 0
M  V30 2929 O 283.171 -0.559386 1.86282 0
M  V30 2930 C 283.454 2.9422 2.07621 0
M  V30 2931 C 283.307 4.29508 1.33577 0
M  V30 2932 C 284.626 3.14565 3.07794 0
M  V30 2933 H 281.745 0.616667 0.403597 0
M  V30 2934 H 284.387 1.85845 0.395179 0
M  V30 2935 H 282.537 2.80387 2.68916 0
M  V30 2936 H 284.209 4.55147 0.750955 0
M  V30 2937 H 282.452 4.29088 0.637618 0
M  V30 2938 H 283.123 5.12926 2.03989 0
M  V30 2939 H 285.599 3.2756 2.56601 0
M  V30 2940 H 284.475 4.03297 3.72348 0
M  V30 2941 H 284.736 2.29675 3.77759 0
M  V30 2942 N 283.795 -0.628877 1.44509 0
M  V30 2943 C 285.043 -1.38565 1.4712 0
M  V30 2944 C 285.364 -1.94712 0.105899 0
M  V30 2945 O 284.634 -1.75912 -0.862079 0
M  V30 2946 H 283.214 -0.514333 0.541729 0
M  V30 2947 H 285.876 -0.740018 1.80305 0
M  V30 2948 H 284.972 -2.21583 2.19789 0
M  V30 2949 N 285.273 -1.31445 -0.869486 0
M  V30 2950 C 286.52 -1.21158 -1.62256 0
M  V30 2951 C 286.848 0.230155 -1.93133 0
M  V30 2952 O 286.103 1.17906 -1.56194 0
M  V30 2953 C 286.402 -2.00145 -2.96102 0
M  V30 2954 C 286.068 -3.4964 -2.84715 0
M  V30 2955 C 284.73 -3.90403 -2.81317 0
M  V30 2956 C 287.082 -4.44769 -2.71716 0
M  V30 2957 C 284.41 -5.24561 -2.62778 0
M  V30 2958 C 286.762 -5.79054 -2.54714 0
M  V30 2959 C 285.426 -6.19037 -2.49699 0
M  V30 2960 H 284.696 -0.443348 -0.593737 0
M  V30 2961 H 287.343 -1.62715 -1.00976 0
M  V30 2962 H 285.648 -1.5127 -3.6142 0
M  V30 2963 H 287.345 -1.89566 -3.53363 0
M  V30 2964 H 283.935 -3.17256 -2.88178 0
M  V30 2965 H 288.119 -4.14208 -2.73397 0
M  V30 2966 H 283.375 -5.54613 -2.57321 0
M  V30 2967 H 287.549 -6.52393 -2.43632 0
M  V30 2968 H 285.176 -7.22935 -2.35093 0
M  V30 2969 N 286.751 1.08385 -1.14413 0
M  V30 2970 C 287.714 2.13486 -0.834048 0
M  V30 2971 C 288.714 1.59988 0.161418 0
M  V30 2972 O 289.904 1.74071 -0.0669575 0
M  V30 2973 C 287.036 3.4003 -0.243354 0
M  V30 2974 H 288.229 2.42425 -1.7655 0
M  V30 2975 H 285.782 1.24101 -0.950189 0
M  V30 2976 H 286.517 3.16726 0.696807 0
M  V30 2977 H 286.302 3.80157 -0.960367 0
M  V30 2978 H 287.792 4.17577 -0.0436242 0
M  V30 2979 N 288.23 0.939286 1.26551 0
M  V30 2980 C 289.646 0.641304 1.46149 0
M  V30 2981 C 289.846 -0.805964 1.84679 0
M  V30 2982 O 288.902 -1.58278 1.96734 0
M  V30 2983 C 290.215 1.6011 2.54529 0
M  V30 2984 C 291.763 1.6106 2.68382 0
M  V30 2985 C 292.238 2.55765 3.79932 0
M  V30 2986 N 293.729 2.5404 3.87322 0
M  V30 2987 C 294.464 3.24004 4.73085 0
M  V30 2988 N 293.96 4.03388 5.63249 0
M  V30 2989 N 295.753 3.12965 4.66914 0
M  V30 2990 H 287.904 1.87478 0.998285 0
M  V30 2991 H 290.167 0.805559 0.499779 0
M  V30 2992 H 289.873 2.63412 2.33039 0
M  V30 2993 H 289.747 1.35171 3.52149 0
M  V30 2994 H 292.134 0.584835 2.89247 0
M  V30 2995 H 292.215 1.90053 1.71212 0
M  V30 2996 H 291.859 3.58458 3.5982 0
M  V30 2997 H 291.789 2.24063 4.76554 0
M  V30 2998 H 294.28 1.96396 3.22858 0
M  V30 2999 H 294.593 4.5373 6.25579 0
M  V30 3000 H 292.938 4.07489 5.63008 0
M  V30 3001 H 296.129 2.50432 3.95476 0
M  V30 3002 H 296.302 3.67759 5.33533 0
M  V30 3003 N 289.708 -1.40897 0.706093 0
M  V30 3004 C 290.638 -2.33418 0.0620085 0
M  V30 3005 C 291.619 -1.52385 -0.755827 0
M  V30 3006 O 292.804 -1.80886 -0.706674 0
M  V30 3007 C 289.934 -3.36293 -0.867445 0
M  V30 3008 C 288.888 -4.27716 -0.155932 0
M  V30 3009 C 288.214 -5.2105 -1.20046 0
M  V30 3010 C 289.514 -5.12944 0.984149 0
M  V30 3011 H 291.208 -2.87527 0.83477 0
M  V30 3012 H 288.754 -1.38249 0.402875 0
M  V30 3013 H 290.707 -3.99949 -1.32735 0
M  V30 3014 H 289.431 -2.80556 -1.67199 0
M  V30 3015 H 288.09 -3.65498 0.284047 0
M  V30 3016 H 287.738 -4.61624 -1.99781 0
M  V30 3017 H 287.438 -5.83056 -0.729328 0
M  V30 3018 H 288.962 -5.87584 -1.66066 0
M  V30 3019 H 290.376 -5.70109 0.604048 0
M  V30 3020 H 288.773 -5.83945 1.38304 0
M  V30 3021 H 289.843 -4.49485 1.81911 0
M  V30 3022 N 291.186 -0.45159 -1.50991 0
M  V30 3023 C 292.119 0.398179 -2.24699 0
M  V30 3024 C 293.097 1.01276 -1.27208 0
M  V30 3025 O 294.281 1.05247 -1.56382 0
M  V30 3026 C 291.408 1.55618 -3.00833 0
M  V30 3027 C 290.454 1.0609 -4.13095 0
M  V30 3028 S 291.287 -0.00865136 -5.35499 0
M  V30 3029 C 292.443 1.15369 -6.15175 0
M  V30 3030 H 292.676 -0.227555 -2.96428 0
M  V30 3031 H 290.209 -0.236251 -1.52582 0
M  V30 3032 H 292.167 2.21997 -3.45293 0
M  V30 3033 H 290.828 2.15337 -2.28667 0
M  V30 3034 H 290.021 1.92726 -4.65696 0
M  V30 3035 H 289.623 0.47513 -3.7097 0
M  V30 3036 H 291.915 2.06925 -6.45126 0
M  V30 3037 H 292.858 0.667344 -7.04948 0
M  V30 3038 H 293.266 1.3987 -5.46897 0
M  V30 3039 N 292.664 1.56529 -0.183458 0
M  V30 3040 C 293.627 2.17324 0.728223 0
M  V30 3041 C 294.627 1.12453 1.14939 0
M  V30 3042 O 295.817 1.37902 1.06437 0
M  V30 3043 C 292.949 2.76591 1.99274 0
M  V30 3044 H 294.142 2.99241 0.198772 0
M  V30 3045 H 291.695 1.5616 0.0661391 0
M  V30 3046 H 292.43 1.98441 2.56499 0
M  V30 3047 H 292.215 3.5335 1.69959 0
M  V30 3048 H 293.705 3.23311 2.6431 0
M  V30 3049 N 294.142 -0.090211 1.57342 0
M  V30 3050 C 295.105 -1.09335 2.01441 0
M  V30 3051 C 296.105 -1.32666 0.908641 0
M  V30 3052 O 297.295 -1.28697 1.174 0
M  V30 3053 C 294.427 -2.44136 2.3793 0
M  V30 3054 H 295.62 -0.713662 2.91285 0
M  V30 3055 H 293.173 -0.335404 1.52659 0
M  V30 3056 H 293.908 -2.86972 1.51055 0
M  V30 3057 H 293.693 -2.28548 3.18603 0
M  V30 3058 H 295.183 -3.16277 2.72688 0
M  V30 3059 N 295.62 -1.53406 -0.361157 0
M  V30 3060 C 296.57 -1.76536 -1.44287 0
M  V30 3061 C 297.554 -0.620019 -1.48474 0
M  V30 3062 O 298.746 -0.878834 -1.53641 0
M  V30 3063 C 295.875 -1.96266 -2.81664 0
M  V30 3064 C 294.961 -3.16815 -2.81938 0
M  V30 3065 N 295.352 -4.38637 -2.51855 0
M  V30 3066 C 293.65 -3.17627 -3.13096 0
M  V30 3067 C 294.351 -5.20401 -2.59919 0
M  V30 3068 N 293.327 -4.56712 -2.94814 0
M  V30 3069 H 297.129 -2.68331 -1.19899 0
M  V30 3070 H 294.643 -1.52091 -0.56938 0
M  V30 3071 H 296.64 -2.10966 -3.59582 0
M  V30 3072 H 295.3 -1.05702 -3.07013 0
M  V30 3073 H 296.311 -4.66293 -2.25369 0
M  V30 3074 H 292.988 -2.36971 -3.43731 0
M  V30 3075 H 294.378 -6.27586 -2.39969 0
M  V30 3076 N 297.098 0.621204 -1.44841 0
M  V30 3077 C 298.514 0.94048 -1.28946 0
M  V30 3078 C 298.714 2.00154 -0.23249 0
M  V30 3079 O 297.77 2.49651 0.378237 0
M  V30 3080 C 299.083 1.39433 -2.66419 0
M  V30 3081 C 300.631 1.50927 -2.74208 0
M  V30 3082 C 301.106 1.99692 -4.12174 0
M  V30 3083 N 302.597 2.06947 -4.144 0
M  V30 3084 C 303.332 2.45871 -5.1801 0
M  V30 3085 N 302.828 2.83862 -6.31977 0
M  V30 3086 N 304.621 2.46092 -5.05366 0
M  V30 3087 H 296.772 -0.0803548 -2.12248 0
M  V30 3088 H 299.035 0.0266913 -0.947624 0
M  V30 3089 H 298.741 0.688925 -3.44887 0
M  V30 3090 H 298.615 2.36347 -2.93973 0
M  V30 3091 H 301.002 2.20561 -1.96053 0
M  V30 3092 H 301.083 0.523627 -2.50383 0
M  V30 3093 H 300.727 1.30649 -4.90809 0
M  V30 3094 H 300.657 2.99146 -4.33381 0
M  V30 3095 H 303.148 1.80232 -3.32152 0
M  V30 3096 H 303.461 3.12405 -7.0684 0
M  V30 3097 H 301.806 2.8159 -6.35399 0
M  V30 3098 H 304.997 2.1581 -4.15384 0
M  V30 3099 H 305.17 2.76102 -5.86235 0
M  V30 3100 N 298.576 1.31904 0.862503 0
M  V30 3101 C 299.526 1.16772 1.95827 0
M  V30 3102 C 300.51 0.0767098 1.60717 0
M  V30 3103 O 301.702 0.302407 1.74398 0
M  V30 3104 C 298.831 0.884858 3.317 0
M  V30 3105 C 297.917 2.0172 3.73055 0
M  V30 3106 N 298.308 3.265 3.86305 0
M  V30 3107 C 296.606 1.91861 4.02623 0
M  V30 3108 C 297.307 4.00616 4.2176 0
M  V30 3109 N 296.283 3.28847 4.32852 0
M  V30 3110 H 300.085 2.11382 2.04193 0
M  V30 3111 H 297.599 1.2357 1.05377 0
M  V30 3112 H 299.596 0.757419 4.09962 0
M  V30 3113 H 298.256 -0.0529448 3.24657 0
M  V30 3114 H 299.267 3.61529 3.70833 0
M  V30 3115 H 295.944 1.05593 4.03926 0
M  V30 3116 H 297.334 5.08182 4.39546 0
M  V30 3117 N 300.054 -1.07777 1.14986 0
M  V30 3118 C 300.964 -2.18404 0.856546 0
M  V30 3119 C 301.98 -1.73211 -0.165485 0
M  V30 3120 O 303.156 -2.01399 0.00755219 0
M  V30 3121 C 300.221 -3.44977 0.34526 0
M  V30 3122 C 299.282 -4.0476 1.43065 0
M  V30 3123 C 298.515 -5.25291 0.943663 0
M  V30 3124 O 298.738 -5.70004 -0.212426 0
M  V30 3125 O 297.672 -5.76638 1.72547 0
M  V30 3126 H 301.498 -2.45978 1.78125 0
M  V30 3127 H 299.083 -1.17033 0.928631 0
M  V30 3128 H 300.965 -4.21348 0.0663671 0
M  V30 3129 H 299.64 -3.18965 -0.551631 0
M  V30 3130 H 298.547 -3.29949 1.76309 0
M  V30 3131 H 299.88 -4.35035 2.30229 0
M  V30 3132 N 301.532 -0.945985 -1.26051 0
M  V30 3133 C 302.781 -0.591836 -1.92822 0
M  V30 3134 C 303.094 0.873956 -1.7499 0
M  V30 3135 O 304.3 1.33769 -2.36259 0
M  V30 3136 C 302.756 -1.00776 -3.45503 0
M  V30 3137 C 302.364 -2.4955 -3.7206 0
M  V30 3138 C 304.108 -0.725735 -4.1825 0
M  V30 3139 C 302.015 -2.84988 -5.18205 0
M  V30 3140 H 300.945 -0.217635 -0.721908 0
M  V30 3141 H 303.596 -1.14927 -1.43052 0
M  V30 3142 H 301.978 -0.378812 -3.94184 0
M  V30 3143 H 303.152 -3.1739 -3.34066 0
M  V30 3144 H 301.467 -2.75133 -3.12555 0
M  V30 3145 H 304.064 -0.966771 -5.25887 0
M  V30 3146 H 304.407 0.337639 -4.14929 0
M  V30 3147 H 304.94 -1.31463 -3.7545 0
M  V30 3148 H 301.679 -3.90307 -5.26631 0
M  V30 3149 H 301.199 -2.21813 -5.57278 0
M  V30 3150 H 302.878 -2.73712 -5.86252 0
M  V30 3151 N 303.011 1.40521 -0.713556 0
M  V30 3152 C 303.974 2.29098 -0.0684347 0
M  V30 3153 C 304.974 1.45268 0.689472 0
M  V30 3154 O 306.164 1.66205 0.521677 0
M  V30 3155 C 303.296 3.28446 0.913024 0
M  V30 3156 H 304.489 2.87645 -0.84855 0
M  V30 3157 H 302.042 1.48809 -0.47809 0
M  V30 3158 H 302.777 2.74913 1.72027 0
M  V30 3159 H 302.562 3.90327 0.372472 0
M  V30 3160 H 304.052 3.94777 1.36165 0
M  V30 3161 N 304.489 0.459591 1.5075 0
M  V30 3162 C 305.452 -0.329093 2.26825 0
M  V30 3163 C 306.452 -0.930481 1.31144 0
M  V30 3164 O 307.642 -0.801453 1.54669 0
M  V30 3165 C 304.774 -1.46768 3.07688 0
M  V30 3166 H 305.967 0.337924 2.9799 0
M  V30 3167 H 303.52 0.213336 1.54837 0
M  V30 3168 H 304.255 -2.17009 2.40993 0
M  V30 3169 H 304.04 -1.04238 3.77991 0
M  V30 3170 H 305.53 -2.02433 3.65254 0
M  V30 3171 N 305.967 -1.56429 0.191757 0
M  V30 3172 C 307.213 -1.97777 -0.448554 0
M  V30 3173 C 307.546 -1.07847 -1.61501 0
M  V30 3174 O 306.821 -0.129774 -1.94067 0
M  V30 3175 C 307.104 -3.48362 -0.911906 0
M  V30 3176 C 306.957 -4.4907 0.256136 0
M  V30 3177 C 308.276 -4.02561 -1.77857 0
M  V30 3178 H 305.395 -0.719071 -0.161572 0
M  V30 3179 H 308.037 -1.87896 0.282007 0
M  V30 3180 H 306.187 -3.56914 -1.53442 0
M  V30 3181 H 307.859 -4.5256 0.893733 0
M  V30 3182 H 306.102 -4.24181 0.908436 0
M  V30 3183 H 306.773 -5.51889 -0.11053 0
M  V30 3184 H 309.249 -3.96767 -1.25359 0
M  V30 3185 H 308.125 -5.08301 -2.07174 0
M  V30 3186 H 308.386 -3.47616 -2.73158 0
M  V30 3187 N 307.445 0.0818655 -1.57387 0
M  V30 3188 C 308.694 0.781681 -1.85937 0
M  V30 3189 C 309.007 1.79246 -0.782957 0
M  V30 3190 O 310.213 2.54112 -0.955987 0
M  V30 3191 C 308.669 1.44109 -3.29789 0
M  V30 3192 C 308.277 0.469396 -4.45534 0
M  V30 3193 C 310.021 2.12386 -3.67549 0
M  V30 3194 C 307.928 1.13415 -5.80423 0
M  V30 3195 H 306.858 0.295682 -0.693605 0
M  V30 3196 H 309.509 0.0348051 -1.83467 0
M  V30 3197 H 307.891 2.23588 -3.2684 0
M  V30 3198 H 309.065 -0.294856 -4.59856 0
M  V30 3199 H 307.38 -0.108383 -4.16259 0
M  V30 3200 H 309.977 2.62878 -4.65617 0
M  V30 3201 H 310.32 2.91877 -2.96839 0
M  V30 3202 H 310.853 1.39751 -3.72444 0
M  V30 3203 H 307.592 0.379771 -6.54399 0
M  V30 3204 H 307.112 1.8695 -5.69921 0
M  V30 3205 H 308.791 1.65686 -6.25426 0
M  V30 3206 N 308.923 1.53595 0.353017 0
M  V30 3207 C 310.172 1.69603 1.09168 0
M  V30 3208 C 310.485 0.460925 1.90092 0
M  V30 3209 O 311.691 0.501774 2.66823 0
M  V30 3210 C 310.147 2.99872 1.9901 0
M  V30 3211 C 309.755 4.30687 1.23339 0
M  V30 3212 C 311.499 3.25246 2.72792 0
M  V30 3213 C 309.406 5.52036 2.12156 0
M  V30 3214 H 308.336 0.631966 0.411261 0
M  V30 3215 H 310.987 1.80096 0.351802 0
M  V30 3216 H 309.369 2.83212 2.7678 0
M  V30 3217 H 310.543 4.58019 0.505456 0
M  V30 3218 H 308.858 4.11853 0.613663 0
M  V30 3219 H 311.455 4.13095 3.39495 0
M  V30 3220 H 311.798 2.41846 3.38846 0
M  V30 3221 H 312.331 3.42638 2.021 0
M  V30 3222 H 309.07 6.37951 1.50659 0
M  V30 3223 H 308.59 5.28966 2.82764 0
M  V30 3224 H 310.269 5.87313 2.71427 0
M  V30 3225 N 310.401 -0.613514 1.45168 0
M  V30 3226 C 311.311 -1.75296 1.55912 0
M  V30 3227 C 312.327 -1.68244 0.443856 0
M  V30 3228 O 313.503 -1.88706 0.70371 0
M  V30 3229 C 310.568 -3.1174 1.5172 0
M  V30 3230 C 309.629 -3.30291 2.74238 0
M  V30 3231 C 308.862 -4.60226 2.70236 0
M  V30 3232 O 309.085 -5.42168 1.77229 0
M  V30 3233 O 308.019 -4.81361 3.61352 0
M  V30 3234 H 311.845 -1.69183 2.52212 0
M  V30 3235 H 309.43 -0.776886 1.27612 0
M  V30 3236 H 311.312 -3.93044 1.51968 0
M  V30 3237 H 309.987 -3.18357 0.585697 0
M  V30 3238 H 308.894 -2.48598 2.79553 0
M  V30 3239 H 310.227 -3.28547 3.66494 0
M  V30 3240 N 311.879 -1.3236 -0.855495 0
M  V30 3241 C 313.29 -1.2056 -1.42556 0
M  V30 3242 C 313.641 0.182209 -1.95352 0
M  V30 3243 O 312.766 1.08088 -1.87472 0
M  V30 3244 C 313.361 -2.1826 -2.59129 0
M  V30 3245 C 311.92 -2.10351 -3.12137 0
M  V30 3246 C 311.067 -2.06674 -1.84882 0
M  V30 3247 H 314.018 -1.442 -0.662727 0
M  V30 3248 H 314.039 -1.78064 -3.36264 0
M  V30 3249 H 313.551 -3.19257 -2.20673 0
M  V30 3250 H 311.652 -1.12599 -3.55179 0
M  V30 3251 H 311.765 -3.00135 -3.73438 0
M  V30 3252 H 310.129 -1.51901 -2.04446 0
M  V30 3253 H 310.912 -3.09451 -1.48643 0
M  V30 3254 N 313.357 1.07166 -1.15556 0
M  V30 3255 C 314.606 1.79181 -0.926132 0
M  V30 3256 C 314.919 1.87768 0.547967 0
M  V30 3257 O 316.125 2.56323 0.895036 0
M  V30 3258 C 314.581 3.22 -1.60761 0
M  V30 3259 C 314.189 3.21607 -3.11886 0
M  V30 3260 C 315.933 3.9861 -1.4598 0
M  V30 3261 C 313.84 4.59092 -3.72812 0
M  V30 3262 H 312.77 0.67154 -0.342856 0
M  V30 3263 H 315.421 1.2027 -1.3859 0
M  V30 3264 H 313.803 3.81115 -1.07553 0
M  V30 3265 H 314.977 2.72127 -3.71865 0
M  V30 3266 H 313.292 2.58495 -3.2645 0
M  V30 3267 H 315.889 5.00225 -1.88888 0
M  V30 3268 H 316.232 4.143 -0.407541 0
M  V30 3269 H 316.765 3.45996 -1.96295 0
M  V30 3270 H 313.504 4.48606 -4.77946 0
M  V30 3271 H 313.024 5.08803 -3.17616 0
M  V30 3272 H 314.703 5.28059 -3.73848 0
M  V30 3273 N 314.835 0.952656 1.25548 0
M  V30 3274 C 316.081 0.607272 1.93494 0
M  V30 3275 C 316.414 -0.853245 1.74452 0
M  V30 3276 O 315.689 -1.61194 1.08843 0
M  V30 3277 C 315.972 0.96435 3.46947 0
M  V30 3278 C 315.825 2.48045 3.75225 0
M  V30 3279 C 317.144 0.487987 4.37386 0
M  V30 3280 H 314.263 0.222096 0.702739 0
M  V30 3281 H 316.905 1.18895 1.48203 0
M  V30 3282 H 315.055 0.469361 3.85654 0
M  V30 3283 H 316.727 3.04905 3.46166 0
M  V30 3284 H 314.97 2.919 3.209 0
M  V30 3285 H 315.641 2.6808 4.82532 0
M  V30 3286 H 318.117 0.912558 4.0597 0
M  V30 3287 H 316.993 0.766547 5.43521 0
M  V30 3288 H 317.254 -0.612063 4.37843 0
M  V30 3289 N 316.313 -1.40141 0.720998 0
M  V30 3290 C 317.245 -2.29177 0.0324669 0
M  V30 3291 C 318.258 -1.46105 -0.718126 0
M  V30 3292 O 319.447 -1.69335 -0.564608 0
M  V30 3293 C 316.547 -3.24473 -0.978292 0
M  V30 3294 C 315.72 -4.36423 -0.292115 0
M  V30 3295 C 314.779 -5.12122 -1.20901 0
M  V30 3296 O 313.805 -5.64981 -0.691766 0
M  V30 3297 N 315.007 -5.21992 -2.53978 0
M  V30 3298 H 317.772 -2.88909 0.796984 0
M  V30 3299 H 315.333 -1.51569 0.569068 0
M  V30 3300 H 317.325 -3.71987 -1.59398 0
M  V30 3301 H 315.895 -2.65871 -1.64413 0
M  V30 3302 H 315.115 -3.90967 0.503847 0
M  V30 3303 H 316.403 -5.08467 0.183971 0
M  V30 3304 H 315.801 -4.8054 -2.98493 0
M  V30 3305 H 314.358 -5.72995 -3.10677 0
M  V30 3306 N 317.792 -0.46758 -1.50504 0
M  V30 3307 C 319.04 0.0884469 -2.01906 0
M  V30 3308 C 319.361 1.40532 -1.35188 0
M  V30 3309 O 318.631 1.89515 -0.496079 0
M  V30 3310 H 317.211 0.0356765 -0.746148 0
M  V30 3311 H 319.873 -0.6172 -1.84869 0
M  V30 3312 H 318.969 0.2425 -3.11156 0
M  V30 3313 N 319.27 1.56325 -0.20005 0
M  V30 3314 C 320.233 2.18084 0.705132 0
M  V30 3315 C 321.233 1.13666 1.1374 0
M  V30 3316 O 322.423 1.39023 1.04968 0
M  V30 3317 C 319.555 2.78689 1.96329 0
M  V30 3318 H 320.748 2.99435 0.167023 0
M  V30 3319 H 318.301 1.56221 0.0495725 0
M  V30 3320 H 319.036 2.0115 2.5438 0
M  V30 3321 H 318.821 3.55133 1.66202 0
M  V30 3322 H 320.311 3.26096 2.60866 0
M  V30 3323 N 320.748 -0.0735177 1.57428 0
M  V30 3324 C 321.996 -0.771472 1.86796 0
M  V30 3325 C 322.317 -1.78201 0.791804 0
M  V30 3326 O 321.587 -1.95074 -0.179718 0
M  V30 3327 H 320.167 -0.28791 0.689287 0
M  V30 3328 H 322.829 -0.0500161 1.94836 0
M  V30 3329 H 321.925 -1.28874 2.8425 0
M  V30 3330 N 322.226 -1.5378 -0.344866 0
M  V30 3331 C 323.474 -1.70625 -1.08311 0
M  V30 3332 C 323.795 -0.471447 -1.89215 0
M  V30 3333 O 323.065 0.514616 -1.8902 0
M  V30 3334 H 321.645 -0.629058 -0.402859 0
M  V30 3335 H 324.307 -1.9103 -0.386459 0
M  V30 3336 H 323.403 -2.57656 -1.76124 0
M  V30 3337 N 323.704 0.605807 -1.45491 0
M  V30 3338 C 324.637 1.73022 -1.48791 0
M  V30 3339 C 325.615 1.58917 -0.344112 0
M  V30 3340 O 326.799 1.80453 -0.544876 0
M  V30 3341 C 323.926 3.10865 -1.34463 0
M  V30 3342 C 322.972 3.43554 -2.5273 0
M  V30 3343 S 323.805 3.38196 -4.15191 0
M  V30 3344 C 324.961 4.78616 -4.03333 0
M  V30 3345 H 325.194 1.69961 -2.43928 0
M  V30 3346 H 322.727 0.782611 -1.33096 0
M  V30 3347 H 324.685 3.90398 -1.26884 0
M  V30 3348 H 323.346 3.1144 -0.40794 0
M  V30 3349 H 322.539 4.43924 -2.38637 0
M  V30 3350 H 322.141 2.71541 -2.5718 0
M  V30 3351 H 324.433 5.68463 -3.68587 0
M  V30 3352 H 325.376 4.97767 -5.03621 0
M  V30 3353 H 325.784 4.54381 -3.34959 0
M  V30 3354 N 325.182 1.32811 0.848464 0
M  V30 3355 C 326.598 1.11937 1.13764 0
M  V30 3356 C 326.798 -0.0960789 2.01271 0
M  V30 3357 O 325.854 -0.779165 2.40178 0
M  V30 3358 C 327.167 2.402 1.809 0
M  V30 3359 C 328.715 2.46016 1.93508 0
M  V30 3360 C 329.19 3.74215 2.64059 0
M  V30 3361 N 330.681 3.75232 2.71579 0
M  V30 3362 C 331.416 4.71134 3.26833 0
M  V30 3363 N 330.912 5.77406 3.8285 0
M  V30 3364 N 332.705 4.58623 3.24995 0
M  V30 3365 H 324.856 2.1073 0.265855 0
M  V30 3366 H 327.119 0.930671 0.180431 0
M  V30 3367 H 326.825 3.29093 1.24058 0
M  V30 3368 H 326.699 2.51628 2.81004 0
M  V30 3369 H 329.086 1.57577 2.49506 0
M  V30 3370 H 329.167 2.38536 0.923811 0
M  V30 3371 H 328.811 4.63031 2.08722 0
M  V30 3372 H 328.741 3.78968 3.65637 0
M  V30 3373 H 331.232 2.98423 2.31845 0
M  V30 3374 H 331.545 6.46632 4.23187 0
M  V30 3375 H 329.89 5.81152 3.81165 0
M  V30 3376 H 333.081 3.74762 2.80484 0
M  V30 3377 H 333.254 5.33535 3.67756 0
M  V30 3378 N 326.66 -1.06551 1.16123 0
M  V30 3379 C 327.593 -2.13382 0.80892 0
M  V30 3380 C 328.571 -1.61128 -0.21827 0
M  V30 3381 O 329.755 -1.88219 -0.102952 0
M  V30 3382 C 326.882 -3.38083 0.204303 0
M  V30 3383 C 325.928 -4.09133 1.20469 0
M  V30 3384 S 326.761 -4.5948 2.75024 0
M  V30 3385 C 327.917 -5.87446 2.16005 0
M  V30 3386 H 328.15 -2.42937 1.71373 0
M  V30 3387 H 325.683 -1.18947 0.984428 0
M  V30 3388 H 327.641 -4.10268 -0.138081 0
M  V30 3389 H 326.302 -3.0669 -0.678234 0
M  V30 3390 H 325.495 -4.98685 0.730019 0
M  V30 3391 H 325.097 -3.4295 1.49202 0
M  V30 3392 H 327.389 -6.60065 1.5271 0
M  V30 3393 H 328.332 -6.39639 3.03756 0
M  V30 3394 H 328.74 -5.41354 1.59989 0
M  V30 3395 N 328.138 -0.959301 -1.25041 0
M  V30 3396 C 329.368 -0.63303 -1.96663 0
M  V30 3397 C 329.776 0.800031 -1.71453 0
M  V30 3398 O 329.119 1.54736 -0.99008 0
M  V30 3399 C 329.181 -0.817523 -3.50081 0
M  V30 3400 C 328.845 -2.22863 -3.98975 0
M  V30 3401 C 329.842 -3.20569 -4.09306 0
M  V30 3402 C 327.527 -2.55407 -4.32519 0
M  V30 3403 C 329.521 -4.4891 -4.52503 0
M  V30 3404 C 327.208 -3.83976 -4.754 0
M  V30 3405 C 328.206 -4.8054 -4.85356 0
M  V30 3406 O 327.894 -6.06817 -5.27284 0
M  V30 3407 H 327.626 -0.235866 -0.633516 0
M  V30 3408 H 330.18 -1.2874 -1.60047 0
M  V30 3409 H 328.41 -0.105992 -3.86555 0
M  V30 3410 H 330.099 -0.491604 -4.02912 0
M  V30 3411 H 330.865 -2.96753 -3.83618 0
M  V30 3412 H 326.744 -1.8097 -4.23994 0
M  V30 3413 H 330.288 -5.24283 -4.60188 0
M  V30 3414 H 326.185 -4.07596 -5.00535 0
M  V30 3415 H 326.953 -6.10262 -5.45457 0
M  V30 3416 N 329.616 1.39756 -0.72842 0
M  V30 3417 C 330.566 2.2792 -0.0603424 0
M  V30 3418 C 331.55 1.43922 0.719399 0
M  V30 3419 O 332.742 1.66895 0.589489 0
M  V30 3420 C 329.871 3.32582 0.851104 0
M  V30 3421 C 328.957 4.24049 0.0658641 0
M  V30 3422 N 329.348 4.96653 -0.957578 0
M  V30 3423 C 327.646 4.45013 0.296509 0
M  V30 3424 C 328.347 5.63836 -1.43052 0
M  V30 3425 N 327.323 5.38397 -0.750315 0
M  V30 3426 H 331.125 2.81504 -0.84455 0
M  V30 3427 H 328.639 1.5236 -0.562155 0
M  V30 3428 H 330.636 3.94603 1.34514 0
M  V30 3429 H 329.296 2.80558 1.63454 0
M  V30 3430 H 330.307 5.00297 -1.33877 0
M  V30 3431 H 326.984 4.03943 1.05527 0
M  V30 3432 H 328.374 6.31974 -2.28163 0
M  V30 3433 N 331.094 0.475555 1.50254 0
M  V30 3434 C 332.505 0.0215174 1.86688 0
M  V30 3435 C 332.856 -1.38467 1.39001 0
M  V30 3436 O 331.981 -2.02732 0.756894 0
M  V30 3437 C 332.576 0.0322715 3.38785 0
M  V30 3438 C 331.135 -0.366314 3.74613 0
M  V30 3439 C 330.282 0.415832 2.74164 0
M  V30 3440 H 333.233 0.689612 1.42934 0
M  V30 3441 H 333.254 -0.76889 3.7265 0
M  V30 3442 H 332.766 1.05584 3.73462 0
M  V30 3443 H 330.867 -1.39406 3.45538 0
M  V30 3444 H 330.98 -0.064555 4.79057 0
M  V30 3445 H 329.344 -0.131048 2.54363 0
M  V30 3446 H 330.127 1.43899 3.11686 0
M  V30 3447 N 332.573 -1.56217 0.208337 0
M  V30 3448 C 333.483 -2.23316 -0.718836 0
M  V30 3449 C 334.499 -1.23648 -1.22422 0
M  V30 3450 O 335.675 -1.56423 -1.26861 0
M  V30 3451 C 332.74 -2.88968 -1.91568 0
M  V30 3452 C 331.801 -4.03943 -1.45357 0
M  V30 3453 C 331.034 -4.66455 -2.59337 0
M  V30 3454 O 331.257 -4.27919 -3.77149 0
M  V30 3455 O 330.191 -5.55686 -2.31293 0
M  V30 3456 H 334.017 -3.03182 -0.177315 0
M  V30 3457 H 331.602 -1.49384 -0.0215402 0
M  V30 3458 H 333.484 -3.30455 -2.61491 0
M  V30 3459 H 332.159 -2.12071 -2.44556 0
M  V30 3460 H 331.066 -3.67052 -0.722746 0
M  V30 3461 H 332.399 -4.82543 -0.970219 0
M  V30 3462 N 334.051 0.0651679 -1.57465 0
M  V30 3463 C 335.297 0.758912 -1.88712 0
M  V30 3464 C 335.652 1.7485 -0.802819 0
M  V30 3465 O 334.945 1.90632 0.192359 0
M  V30 3466 C 335.139 1.50081 -3.24362 0
M  V30 3467 C 334.968 0.584579 -4.45884 0
M  V30 3468 C 333.738 0.219039 -5.04825 0
M  V30 3469 C 335.936 -0.121559 -5.14156 0
M  V30 3470 N 333.918 -0.702222 -6.09871 0
M  V30 3471 C 335.289 -0.899767 -6.13436 0
M  V30 3472 C 337.344 -0.192331 -4.97528 0
M  V30 3473 C 336.047 -1.74218 -6.97883 0
M  V30 3474 C 338.073 -1.02174 -5.82507 0
M  V30 3475 C 337.435 -1.78798 -6.8133 0
M  V30 3476 H 333.534 0.25293 -0.739967 0
M  V30 3477 H 336.118 0.0201744 -1.9469 0
M  V30 3478 H 334.289 2.21023 -3.1938 0
M  V30 3479 H 336.021 2.14409 -3.43236 0
M  V30 3480 H 332.776 0.57336 -4.70117 0
M  V30 3481 H 333.2 -1.15629 -6.67052 0
M  V30 3482 H 337.842 0.385741 -4.21037 0
M  V30 3483 H 335.56 -2.3312 -7.73745 0
M  V30 3484 H 339.146 -1.07957 -5.71696 0
M  V30 3485 H 338.026 -2.41942 -7.45945 0
M  V30 3486 N 335.529 1.53961 0.336706 0
M  V30 3487 C 336.459 1.85417 1.41925 0
M  V30 3488 C 337.44 0.709856 1.5458 0
M  V30 3489 O 338.625 0.962396 1.68676 0
M  V30 3490 C 335.755 2.06985 2.78881 0
M  V30 3491 C 334.709 3.22813 2.81026 0
M  V30 3492 C 334.035 3.29727 4.20932 0
M  V30 3493 C 335.335 4.60767 2.45949 0
M  V30 3494 H 337.029 2.76079 1.15848 0
M  V30 3495 H 334.575 1.32839 0.555859 0
M  V30 3496 H 336.528 2.27575 3.54665 0
M  V30 3497 H 335.252 1.13061 3.06406 0
M  V30 3498 H 333.911 3.0209 2.07695 0
M  V30 3499 H 333.559 2.33385 4.45579 0
M  V30 3500 H 333.259 4.07566 4.23277 0
M  V30 3501 H 334.783 3.52536 4.98549 0
M  V30 3502 H 336.197 4.81325 3.11446 0
M  V30 3503 H 334.594 5.4106 2.59566 0
M  V30 3504 H 335.664 4.6391 1.41122 0
M  V30 3505 N 337.007 -0.598083 1.45811 0
M  V30 3506 C 337.954 -1.7082 1.55207 0
M  V30 3507 C 338.924 -1.61278 0.39732 0
M  V30 3508 O 340.109 -1.80717 0.612038 0
M  V30 3509 C 337.249 -3.09144 1.53376 0
M  V30 3510 C 336.362 -3.29423 2.79472 0
M  V30 3511 C 335.497 -4.57907 2.69248 0
M  V30 3512 C 334.536 -4.71476 3.90354 0
M  V30 3513 N 333.673 -5.9127 3.78608 0
M  V30 3514 H 338.513 -1.62125 2.50039 0
M  V30 3515 H 336.05 -0.790389 1.24062 0
M  V30 3516 H 338.008 -3.89186 1.50301 0
M  V30 3517 H 336.638 -3.16773 0.620876 0
M  V30 3518 H 335.69 -2.43091 2.92594 0
M  V30 3519 H 337.002 -3.3532 3.69272 0
M  V30 3520 H 336.156 -5.46157 2.64192 0
M  V30 3521 H 334.895 -4.54423 1.77063 0
M  V30 3522 H 333.9 -3.81648 3.95759 0
M  V30 3523 H 335.125 -4.76751 4.83617 0
M  V30 3524 H 333.071 -5.88813 2.89199 0
M  V30 3525 H 332.988 -5.98369 4.6205 0
M  V30 3526 H 334.256 -6.81992 3.77501 0
M  V30 3527 N 338.485 -1.33259 -0.841409 0
M  V30 3528 C 339.901 -1.12538 -1.13169 0
M  V30 3529 C 340.101 0.0854037 -2.01319 0
M  V30 3530 O 339.157 0.766417 -2.40587 0
M  V30 3531 C 340.47 -2.41156 -1.79623 0
M  V30 3532 C 342.018 -2.47038 -1.922 0
M  V30 3533 C 342.493 -3.7561 -2.6207 0
M  V30 3534 N 343.984 -3.76667 -2.69585 0
M  V30 3535 C 344.719 -4.72861 -3.2433 0
M  V30 3536 N 344.215 -5.79428 -3.79783 0
M  V30 3537 N 346.008 -4.6034 -3.22558 0
M  V30 3538 H 338.159 -2.10868 -0.254676 0
M  V30 3539 H 340.422 -0.931615 -0.175493 0
M  V30 3540 H 340.128 -3.29747 -1.22311 0
M  V30 3541 H 340.002 -2.53114 -2.79666 0
M  V30 3542 H 342.389 -1.58898 -2.48667 0
M  V30 3543 H 342.47 -2.39022 -0.911148 0
M  V30 3544 H 342.114 -4.64131 -2.06263 0
M  V30 3545 H 342.044 -3.80902 -3.63622 0
M  V30 3546 H 344.535 -2.99648 -2.30259 0
M  V30 3547 H 344.848 -6.48867 -4.19752 0
M  V30 3548 H 343.193 -5.83166 -3.78078 0
M  V30 3549 H 346.384 -3.76244 -2.78492 0
M  V30 3550 H 346.557 -5.35478 -3.64921 0
M  V30 3551 N 339.963 1.05934 -1.16686 0
M  V30 3552 C 341.212 1.78188 -0.945085 0
M  V30 3553 C 341.525 1.88338 0.528021 0
M  V30 3554 O 342.731 2.57258 0.867799 0
M  V30 3555 C 341.187 3.20277 -1.64167 0
M  V30 3556 C 340.795 3.18281 -3.15279 0
M  V30 3557 C 342.539 3.97039 -1.502 0
M  V30 3558 C 340.446 4.55112 -3.7766 0
M  V30 3559 H 339.376 0.667866 -0.349959 0
M  V30 3560 H 342.027 1.18794 -1.39858 0
M  V30 3561 H 340.409 3.79952 -1.11589 0
M  V30 3562 H 341.583 2.68167 -3.74731 0
M  V30 3563 H 339.898 2.55018 -3.29173 0
M  V30 3564 H 342.495 4.98194 -1.94183 0
M  V30 3565 H 342.838 4.13845 -0.451461 0
M  V30 3566 H 343.371 3.43894 -1.99954 0
M  V30 3567 H 340.11 4.43512 -4.82677 0
M  V30 3568 H 339.63 5.05406 -3.22994 0
M  V30 3569 H 341.309 5.24064 -3.79428 0
M  V30 3570 N 341.441 0.965919 1.2453 0
M  V30 3571 C 342.857 0.67216 1.44756 0
M  V30 3572 C 343.057 -0.766609 1.86347 0
M  V30 3573 O 342.113 -1.5407 2.00047 0
M  V30 3574 C 343.426 1.65473 2.51076 0
M  V30 3575 C 344.974 1.66716 2.64905 0
M  V30 3576 C 345.449 2.63766 3.74421 0
M  V30 3577 N 346.94 2.62198 3.81846 0
M  V30 3578 C 347.675 3.33966 4.66106 0
M  V30 3579 N 347.171 4.15245 5.54566 0
M  V30 3580 N 348.964 3.22799 4.60171 0
M  V30 3581 H 341.115 1.89553 0.958293 0
M  V30 3582 H 343.378 0.815979 0.482579 0
M  V30 3583 H 343.084 2.68296 2.27399 0
M  V30 3584 H 342.958 1.4261 3.49202 0
M  V30 3585 H 345.345 0.646057 2.87941 0
M  V30 3586 H 345.426 1.93642 1.67142 0
M  V30 3587 H 345.07 3.6601 3.52135 0
M  V30 3588 H 345 2.34121 4.71694 0
M  V30 3589 H 347.491 2.032 3.18619 0
M  V30 3590 H 347.804 4.66898 6.15814 0
M  V30 3591 H 346.149 4.1934 5.54237 0
M  V30 3592 H 349.34 2.58764 3.90075 0
M  V30 3593 H 349.513 3.78994 5.25612 0
M  V30 3594 N 342.919 -1.39368 0.735821 0
M  V30 3595 C 343.866 -2.30599 0.0963825 0
M  V30 3596 C 344.836 -1.49257 -0.728794 0
M  V30 3597 O 346.021 -1.77941 -0.688588 0
M  V30 3598 C 343.161 -3.35596 -0.804305 0
M  V30 3599 C 342.274 -4.31987 0.0335761 0
M  V30 3600 C 341.409 -5.24053 -0.868461 0
M  V30 3601 C 340.448 -6.12095 -0.0258776 0
M  V30 3602 N 339.585 -6.96514 -0.883893 0
M  V30 3603 H 344.425 -2.8471 0.880002 0
M  V30 3604 H 341.962 -1.40188 0.445619 0
M  V30 3605 H 343.92 -3.95062 -1.34096 0
M  V30 3606 H 342.55 -2.82938 -1.55389 0
M  V30 3607 H 341.602 -3.74133 0.68766 0
M  V30 3608 H 342.914 -4.94074 0.685036 0
M  V30 3609 H 342.068 -5.88549 -1.47293 0
M  V30 3610 H 340.807 -4.62289 -1.5537 0
M  V30 3611 H 339.812 -5.4661 0.591386 0
M  V30 3612 H 341.037 -6.75923 0.656156 0
M  V30 3613 H 338.983 -6.37318 -1.55441 0
M  V30 3614 H 338.9 -7.55448 -0.288931 0
M  V30 3615 H 340.168 -7.65439 -1.4739 0
M  V30 3616 N 344.397 -0.483516 -1.5 0
M  V30 3617 C 345.646 0.0689102 -2.01582 0
M  V30 3618 C 345.959 1.39655 -1.36952 0
M  V30 3619 O 347.165 2.03465 -1.79762 0
M  V30 3620 C 345.621 0.173302 -3.59483 0
M  V30 3621 C 345.229 -1.14665 -4.33077 0
M  V30 3622 C 346.973 0.677024 -4.19066 0
M  V30 3623 C 344.88 -1.00537 -5.82792 0
M  V30 3624 H 343.81 0.0295277 -0.753422 0
M  V30 3625 H 346.461 -0.620295 -1.72698 0
M  V30 3626 H 344.843 0.926569 -3.85007 0
M  V30 3627 H 346.017 -1.91184 -4.19268 0
M  V30 3628 H 344.332 -1.58244 -3.85159 0
M  V30 3629 H 346.929 0.799952 -5.28682 0
M  V30 3630 H 347.272 1.67151 -3.81269 0
M  V30 3631 H 347.805 -0.0192083 -3.97795 0
M  V30 3632 H 344.544 -1.9736 -6.25083 0
M  V30 3633 H 344.064 -0.280776 -5.99142 0
M  V30 3634 H 345.743 -0.677 -6.43448 0
M  V30 3635 N 345.875 1.56104 -0.216619 0
M  V30 3636 C 347.115 2.00074 0.418322 0
M  V30 3637 C 347.479 1.10098 1.57297 0
M  V30 3638 O 348.68 1.43393 2.27359 0
M  V30 3639 C 346.951 3.47231 0.846477 0
M  V30 3640 S 348.51 4.13223 1.47622 0
M  V30 3641 H 345.328 0.698457 0.132962 0
M  V30 3642 H 347.93 1.92784 -0.324748 0
M  V30 3643 H 346.634 4.104 -0.0036319 0
M  V30 3644 H 346.165 3.58384 1.62248 0
M  V30 3645 H 348.18 4.12005 2.76526 0
M  V30 3646 N 347.353 -0.0568162 1.57498 0
M  V30 3647 C 348.63 -0.786954 1.79071 0
M  V30 3648 C 349.01 -1.95028 0.80792 0
M  V30 3649 O 348.358 -2.27968 -0.155858 0
M  V30 3650 C 348.568 -1.24594 3.26002 0
M  V30 3651 C 349.916 -1.67323 3.90241 0
M  V30 3652 O 350.94 -1.34124 3.29984 0
M  V30 3653 O 349.799 -2.28842 4.9628 0
M  V30 3654 H 346.893 -0.378262 0.735423 0
M  V30 3655 H 349.439 -0.035734 1.69662 0
M  V30 3656 H 348.211 -0.41423 3.89101 0
M  V30 3657 H 347.834 -2.05803 3.40192 0
M  V30 3658 N 348.832 -1.54138 -0.328536 0
M  V30 3659 C 350.248 -1.44736 -0.672574 0
M  V30 3660 C 350.448 -0.616217 -1.91846 0
M  V30 3661 O 349.504 -0.113067 -2.52247 0
M  V30 3662 C 350.817 -2.884 -0.851217 0
M  V30 3663 C 352.365 -2.98271 -0.948877 0
M  V30 3664 C 352.84 -4.43074 -1.15973 0
M  V30 3665 N 354.331 -4.46665 -1.22658 0
M  V30 3666 C 355.066 -5.55857 -1.40751 0
M  V30 3667 N 354.562 -6.75026 -1.5592 0
M  V30 3668 N 356.355 -5.43495 -1.4342 0
M  V30 3669 H 348.506 -2.06661 0.490421 0
M  V30 3670 H 350.769 -0.934812 0.157579 0
M  V30 3671 H 350.475 -3.51699 -0.00704236 0
M  V30 3672 H 350.349 -3.34225 -1.74853 0
M  V30 3673 H 352.736 -2.35102 -1.78356 0
M  V30 3674 H 352.817 -2.55785 -0.0281435 0
M  V30 3675 H 352.461 -5.06827 -0.329915 0
M  V30 3676 H 352.391 -4.83165 -2.09426 0
M  V30 3677 H 354.882 -3.60797 -1.124 0
M  V30 3678 H 355.195 -7.54004 -1.69404 0
M  V30 3679 H 353.54 -6.77944 -1.53027 0
M  V30 3680 H 356.731 -4.49349 -1.31162 0
M  V30 3681 H 356.904 -6.28649 -1.57178 0
M  V30 3682 N 350.31 0.590341 -1.46126 0
M  V30 3683 C 351.22 1.72793 -1.58681 0
M  V30 3684 C 352.236 1.67516 -0.470566 0
M  V30 3685 O 353.412 1.87562 -0.733642 0
M  V30 3686 C 350.477 3.09287 -1.5666 0
M  V30 3687 C 349.538 3.25886 -2.79458 0
M  V30 3688 C 348.771 4.55869 -2.77524 0
M  V30 3689 O 348.994 5.3928 -1.85832 0
M  V30 3690 O 347.928 4.75552 -3.68964 0
M  V30 3691 H 351.754 1.65149 -2.54872 0
M  V30 3692 H 349.339 0.756486 -1.28832 0
M  V30 3693 H 351.221 3.90577 -1.58202 0
M  V30 3694 H 349.896 3.17385 -0.636271 0
M  V30 3695 H 348.803 2.44119 -2.83472 0
M  V30 3696 H 350.136 3.22675 -3.71674 0
M  V30 3697 N 351.788 1.33704 0.83433 0
M  V30 3698 C 353.036 1.25169 1.58673 0
M  V30 3699 C 353.357 -0.18127 1.94156 0
M  V30 3700 O 352.627 -1.11113 1.6134 0
M  V30 3701 H 351.207 0.4603 0.58833 0
M  V30 3702 H 353.869 1.67478 0.996847 0
M  V30 3703 H 352.965 1.84856 2.51465 0
M  V30 3704 N 353.266 -1.05314 1.17247 0
M  V30 3705 C 354.515 -1.77685 0.954521 0
M  V30 3706 C 354.828 -1.88616 -0.518025 0
M  V30 3707 O 356.034 -2.57714 -0.854144 0
M  V30 3708 C 354.49 -3.19402 1.65863 0
M  V30 3709 C 354.098 -3.16605 3.16963 0
M  V30 3710 C 355.842 -3.96237 1.52303 0
M  V30 3711 C 353.749 -4.53103 3.80068 0
M  V30 3712 H 352.679 -0.666 0.353496 0
M  V30 3713 H 355.33 -1.1805 1.40486 0
M  V30 3714 H 353.712 -3.79355 1.13602 0
M  V30 3715 H 354.886 -2.66176 3.76148 0
M  V30 3716 H 353.201 -2.53268 3.30521 0
M  V30 3717 H 355.798 -4.97157 1.96822 0
M  V30 3718 H 356.141 -4.136 0.473401 0
M  V30 3719 H 356.674 -3.42829 2.01775 0
M  V30 3720 H 353.413 -4.40946 4.85023 0
M  V30 3721 H 352.933 -5.03686 3.2567 0
M  V30 3722 H 354.612 -5.22045 3.82202 0
M  V30 3723 N 354.744 -0.972509 -1.24016 0
M  V30 3724 C 355.674 -0.525548 -2.27509 0
M  V30 3725 C 356.655 0.437262 -1.64384 0
M  V30 3726 O 357.84 0.332343 -1.91335 0
M  V30 3727 C 354.97 0.180448 -3.46831 0
M  V30 3728 C 353.924 -0.698859 -4.22256 0
M  V30 3729 C 353.25 0.138903 -5.3452 0
M  V30 3730 C 354.55 -1.98582 -4.83076 0
M  V30 3731 H 356.244 -1.39058 -2.65148 0
M  V30 3732 H 353.79 -0.67009 -1.27459 0
M  V30 3733 H 355.743 0.504387 -4.18371 0
M  V30 3734 H 354.467 1.07987 -3.08231 0
M  V30 3735 H 353.126 -1.00614 -3.52523 0
M  V30 3736 H 352.774 1.03862 -4.9216 0
M  V30 3737 H 352.474 -0.446259 -5.85903 0
M  V30 3738 H 353.998 0.457404 -6.08884 0
M  V30 3739 H 355.412 -1.72715 -5.46665 0
M  V30 3740 H 353.809 -2.5181 -5.44713 0
M  V30 3741 H 354.879 -2.67769 -4.04262 0
M  V30 3742 N 356.222 1.38976 -0.743202 0
M  V30 3743 C 357.152 2.33171 -0.123873 0
M  V30 3744 C 358.133 1.54336 0.71516 0
M  V30 3745 O 359.318 1.82696 0.658467 0
M  V30 3746 C 356.448 3.38474 0.777978 0
M  V30 3747 C 355.402 4.27979 0.0424758 0
M  V30 3748 C 354.728 5.2405 1.06189 0
M  V30 3749 C 356.028 5.10155 -1.1198 0
M  V30 3750 H 357.722 2.85213 -0.910709 0
M  V30 3751 H 355.268 1.37133 -0.439388 0
M  V30 3752 H 357.221 4.03328 1.22084 0
M  V30 3753 H 355.945 2.84891 1.59702 0
M  V30 3754 H 354.604 3.64616 -0.380853 0
M  V30 3755 H 354.252 4.66758 1.87472 0
M  V30 3756 H 353.952 5.84785 0.574485 0
M  V30 3757 H 355.476 5.9178 1.50428 0
M  V30 3758 H 356.89 5.68307 -0.75499 0
M  V30 3759 H 355.287 5.80073 -1.53738 0
M  V30 3760 H 356.357 4.44504 -1.93764 0
M  V30 3761 N 357.7 0.491464 1.49741 0
M  V30 3762 C 358.949 -0.0582189 2.01616 0
M  V30 3763 C 359.262 -1.38927 1.3769 0
M  V30 3764 O 360.468 -2.02509 1.80838 0
M  V30 3765 C 358.924 -0.154235 3.59569 0
M  V30 3766 C 358.532 1.1696 4.32463 0
M  V30 3767 C 360.276 -0.65479 4.1942 0
M  V30 3768 C 358.183 1.03627 5.8225 0
M  V30 3769 H 357.113 -0.0255317 0.753568 0
M  V30 3770 H 359.764 0.629445 1.72367 0
M  V30 3771 H 358.146 -0.906138 3.85493 0
M  V30 3772 H 359.32 1.93405 4.18248 0
M  V30 3773 H 357.635 1.60285 3.84315 0
M  V30 3774 H 360.232 -0.771903 5.29099 0
M  V30 3775 H 360.575 -1.65127 3.8215 0
M  V30 3776 H 361.108 0.040304 3.9778 0
M  V30 3777 H 357.847 2.00672 6.24028 0
M  V30 3778 H 357.367 0.312546 5.98985 0
M  V30 3779 H 359.046 0.711114 6.4308 0
M  V30 3780 N 359.178 -1.55987 0.224894 0
M  V30 3781 C 360.141 -2.19178 -0.670348 0
M  V30 3782 C 361.141 -1.15461 -1.11917 0
M  V30 3783 O 362.331 -1.40675 -1.02743 0
M  V30 3784 C 359.463 -2.81777 -1.9187 0
M  V30 3785 H 360.656 -2.99662 -0.119364 0
M  V30 3786 H 358.209 -1.5628 -0.0247128 0
M  V30 3787 H 358.944 -2.05172 -2.51147 0
M  V30 3788 H 358.729 -3.57732 -1.60531 0
M  V30 3789 H 360.219 -3.30205 -2.55645 0
M  V30 3790 N 360.656 0.0484629 -1.57525 0
M  V30 3791 C 361.933 0.777447 -1.79486 0
M  V30 3792 C 362.313 1.94597 -0.818251 0
M  V30 3793 O 361.661 2.28047 0.143767 0
M  V30 3794 C 361.871 1.22864 -3.26658 0
M  V30 3795 C 363.219 1.65251 -3.91123 0
M  V30 3796 O 364.243 1.32372 -3.3069 0
M  V30 3797 O 363.102 2.26207 -4.97486 0
M  V30 3798 H 360.196 0.374357 -0.737419 0
M  V30 3799 H 362.742 0.0267359 -1.69679 0
M  V30 3800 H 361.514 0.393589 -3.89316 0
M  V30 3801 H 361.137 2.03996 -3.41279 0
M  V30 3802 N 362.134 1.5431 0.320358 0
M  V30 3803 C 363.044 1.86946 1.41734 0
M  V30 3804 C 364.06 0.761689 1.56443 0
M  V30 3805 O 365.236 1.05629 1.71477 0
M  V30 3806 C 362.301 2.09293 2.76401 0
M  V30 3807 C 361.362 3.33082 2.70841 0
M  V30 3808 C 360.595 3.54353 3.99086 0
M  V30 3809 O 360.818 2.79002 4.97508 0
M  V30 3810 O 359.752 4.47838 4.0215 0
M  V30 3811 H 363.578 2.80232 1.17062 0
M  V30 3812 H 361.163 1.40255 0.514673 0
M  V30 3813 H 363.045 2.25303 3.56113 0
M  V30 3814 H 361.72 1.19194 3.00956 0
M  V30 3815 H 360.627 3.22454 1.89668 0
M  V30 3816 H 361.96 4.23249 2.5124 0
M  V30 3817 N 363.613 -0.582584 1.46437 0
M  V30 3818 C 364.862 -1.337 1.5102 0
M  V30 3819 C 365.175 -1.94891 0.166359 0
M  V30 3820 O 366.381 -2.71351 0.0899954 0
M  V30 3821 C 364.837 -2.42315 2.66104 0
M  V30 3822 C 364.445 -1.87427 4.06909 0
M  V30 3823 C 366.189 -3.19099 2.79958 0
M  V30 3824 C 364.096 -2.93672 5.13333 0
M  V30 3825 H 363.026 -0.502619 0.562041 0
M  V30 3826 H 365.677 -0.621701 1.72647 0
M  V30 3827 H 364.059 -3.16645 2.37807 0
M  V30 3828 H 365.233 -1.19639 4.44998 0
M  V30 3829 H 363.548 -1.2331 3.97723 0
M  V30 3830 H 366.145 -3.9839 3.56636 0
M  V30 3831 H 366.488 -3.71695 1.87479 0
M  V30 3832 H 367.021 -2.51875 3.07902 0
M  V30 3833 H 363.76 -2.45962 6.07604 0
M  V30 3834 H 363.28 -3.59948 4.79789 0
M  V30 3835 H 364.959 -3.5762 5.39182 0
M  V30 3836 N 365.091 -1.34144 -0.827227 0
M  V30 3837 C 366.054 -1.25264 -1.91942 0
M  V30 3838 C 367.054 -0.168866 -1.59911 0
M  V30 3839 O 368.244 -0.421198 -1.69031 0
M  V30 3840 C 365.376 -0.932952 -3.27885 0
M  V30 3841 H 366.569 -2.22357 -2.0124 0
M  V30 3842 H 364.122 -1.1837 -1.0207 0
M  V30 3843 H 364.857 0.0349917 -3.24281 0
M  V30 3844 H 364.642 -1.71682 -3.52516 0
M  V30 3845 H 366.132 -0.895874 -4.07877 0
M  V30 3846 N 366.569 1.04691 -1.17803 0
M  V30 3847 C 367.797 1.81446 -0.99423 0
M  V30 3848 C 368.212 1.83174 0.457459 0
M  V30 3849 O 367.569 1.26265 1.31771 0
M  V30 3850 C 367.62 3.27334 -1.5341 0
M  V30 3851 O 367.341 3.25798 -2.92895 0
M  V30 3852 C 368.842 4.20759 -1.39559 0
M  V30 3853 H 366.062 0.571599 -0.351447 0
M  V30 3854 H 368.606 1.31982 -1.56208 0
M  V30 3855 H 366.761 3.74052 -1.00815 0
M  V30 3856 H 367.175 4.17144 -3.17949 0
M  V30 3857 H 368.649 5.21084 -1.82141 0
M  V30 3858 H 369.126 4.37856 -0.343394 0
M  V30 3859 H 369.732 3.79901 -1.91195 0
M  V30 3860 N 368.047 0.979072 1.23499 0
M  V30 3861 C 369.295 0.645941 1.91499 0
M  V30 3862 C 369.616 -0.822948 1.76784 0
M  V30 3863 O 368.886 -1.58854 1.14639 0
M  V30 3864 H 367.466 0.235919 0.708767 0
M  V30 3865 H 370.128 1.2426 1.50152 0
M  V30 3866 H 369.224 0.896411 2.9895 0
M  V30 3867 N 369.525 -1.3858 0.750561 0
M  V30 3868 C 370.772 -2.00184 0.305373 0
M  V30 3869 C 371.1 -1.59575 -1.11203 0
M  V30 3870 O 370.355 -0.823236 -1.77542 0
M  V30 3871 C 370.654 -3.55455 0.372373 0
M  V30 3872 C 370.32 -4.15765 1.745 0
M  V30 3873 C 368.982 -4.31951 2.12065 0
M  V30 3874 C 371.334 -4.49067 2.64553 0
M  V30 3875 C 368.662 -4.78734 3.39162 0
M  V30 3876 C 371.014 -4.97265 3.91038 0
M  V30 3877 C 369.678 -5.11658 4.28676 0
M  V30 3878 H 368.948 -0.732526 0.111744 0
M  V30 3879 H 371.595 -1.65673 0.960451 0
M  V30 3880 H 369.9 -3.90084 -0.366272 0
M  V30 3881 H 371.597 -4.00999 0.00953918 0
M  V30 3882 H 368.187 -4.03579 1.44297 0
M  V30 3883 H 372.371 -4.36166 2.36796 0
M  V30 3884 H 367.627 -4.88062 3.68246 0
M  V30 3885 H 371.801 -5.22003 4.60962 0
M  V30 3886 H 369.428 -5.47668 5.27222 0
M  V30 3887 N 371.003 -0.499398 -1.49478 0
M  V30 3888 C 372.251 0.0455996 -2.02049 0
M  V30 3889 C 372.572 1.37633 -1.38138 0
M  V30 3890 O 371.842 1.8842 -0.536166 0
M  V30 3891 H 370.422 0.0198416 -0.746736 0
M  V30 3892 H 373.084 -0.656274 -1.83519 0
M  V30 3893 H 372.18 0.176445 -3.11601 0
M  V30 3894 N 372.481 1.55866 -0.233164 0
M  V30 3895 C 373.897 1.59133 0.121988 0
M  V30 3896 C 374.097 1.25016 1.58029 0
M  V30 3897 O 373.153 0.990922 2.32243 0
M  V30 3898 C 374.466 2.99932 -0.214792 0
M  V30 3899 C 376.014 3.12601 -0.157971 0
M  V30 3900 C 376.489 4.55597 -0.46859 0
M  V30 3901 N 377.98 4.61305 -0.418585 0
M  V30 3902 C 378.715 5.69903 -0.63227 0
M  V30 3903 N 378.211 6.86819 -0.90835 0
M  V30 3904 N 380.004 5.59264 -0.563913 0
M  V30 3905 H 372.155 1.76315 -1.18434 0
M  V30 3906 H 374.418 0.820093 -0.475553 0
M  V30 3907 H 374.124 3.29588 -1.22739 0
M  V30 3908 H 373.998 3.74327 0.464691 0
M  V30 3909 H 376.385 2.82735 0.845283 0
M  V30 3910 H 376.466 2.40511 -0.871102 0
M  V30 3911 H 376.11 4.86182 -1.46934 0
M  V30 3912 H 376.04 5.25928 0.265865 0
M  V30 3913 H 378.531 3.77297 -0.213368 0
M  V30 3914 H 378.844 7.65507 -1.05919 0
M  V30 3915 H 377.189 6.88536 -0.945673 0
M  V30 3916 H 380.38 4.66802 -0.348372 0
M  V30 3917 H 380.553 6.43831 -0.733847 0
M  V30 3918 N 373.959 -0.0401083 1.57549 0
M  V30 3919 C 375.187 -0.745196 1.93014 0
M  V30 3920 C 375.602 -1.6948 0.831984 0
M  V30 3921 O 374.959 -1.81482 -0.192463 0
M  V30 3922 C 375.01 -1.51176 3.28372 0
M  V30 3923 O 374.731 -0.600284 4.33968 0
M  V30 3924 C 376.232 -2.315 3.78051 0
M  V30 3925 H 373.452 -0.210088 0.637263 0
M  V30 3926 H 375.996 -0.000924689 2.045 0
M  V30 3927 H 374.151 -2.20801 3.18317 0
M  V30 3928 H 374.565 -1.13669 5.12035 0
M  V30 3929 H 376.039 -2.80697 4.75303 0
M  V30 3930 H 376.516 -3.12436 3.08675 0
M  V30 3931 H 377.122 -1.66971 3.91153 0
M  V30 3932 N 375.437 -1.54477 -0.31217 0
M  V30 3933 C 376.685 -1.72884 -1.04668 0
M  V30 3934 C 377.006 -0.511477 -1.88173 0
M  V30 3935 O 376.276 0.474407 -1.90069 0
M  V30 3936 H 374.856 -0.637461 -0.389425 0
M  V30 3937 H 377.518 -1.91807 -0.345852 0
M  V30 3938 H 376.614 -2.61334 -1.70619 0
M  V30 3939 N 376.915 0.57481 -1.46744 0
M  V30 3940 C 377.862 1.68329 -1.57905 0
M  V30 3941 C 378.832 1.60625 -0.422927 0
M  V30 3942 O 380.017 1.79721 -0.640711 0
M  V30 3943 C 377.157 3.06665 -1.58274 0
M  V30 3944 C 376.27 3.24935 -2.84678 0
M  V30 3945 C 375.405 4.53566 -2.76499 0
M  V30 3946 C 374.444 4.65207 -3.97806 0
M  V30 3947 N 373.581 5.85172 -3.87967 0
M  V30 3948 H 378.421 1.58127 -2.52587 0
M  V30 3949 H 375.958 0.770552 -1.25303 0
M  V30 3950 H 377.916 3.86745 -1.56473 0
M  V30 3951 H 376.546 3.15745 -0.671194 0
M  V30 3952 H 375.598 2.38405 -2.96424 0
M  V30 3953 H 376.91 3.29403 -3.7456 0
M  V30 3954 H 376.064 5.41885 -2.72848 0
M  V30 3955 H 374.803 4.51548 -1.8427 0
M  V30 3956 H 373.808 3.75304 -4.0178 0
M  V30 3957 H 375.033 4.68997 -4.9114 0
M  V30 3958 H 372.979 5.84137 -2.98529 0
M  V30 3959 H 372.896 5.90943 -4.71511 0
M  V30 3960 H 374.164 6.759 -3.88303 0
M  V30 3961 N 378.394 1.34581 0.820102 0
M  V30 3962 C 379.324 1.29038 1.94606 0
M  V30 3963 C 380.305 0.1673 1.69275 0
M  V30 3964 O 381.49 0.360112 1.90832 0
M  V30 3965 C 378.62 1.04793 3.31113 0
M  V30 3966 C 377.574 2.13597 3.70891 0
M  V30 3967 C 376.9 1.74537 5.05412 0
M  V30 3968 C 378.2 3.55451 3.8269 0
M  V30 3969 H 379.894 2.23248 1.99501 0
M  V30 3970 H 377.44 1.0747 0.958449 0
M  V30 3971 H 379.393 0.995592 4.0947 0
M  V30 3972 H 378.117 0.0702565 3.26524 0
M  V30 3973 H 376.776 2.17905 2.9481 0
M  V30 3974 H 376.424 0.754226 4.97313 0
M  V30 3975 H 376.124 2.47361 5.32997 0
M  V30 3976 H 377.648 1.70803 5.86224 0
M  V30 3977 H 379.062 3.5354 4.51312 0
M  V30 3978 H 377.459 4.26922 4.21732 0
M  V30 3979 H 378.529 3.92587 2.84611 0
M  V30 3980 N 379.872 -1.04064 1.18357 0
M  V30 3981 C 381.119 -1.77265 0.978947 0
M  V30 3982 C 381.447 -1.88189 -0.491428 0
M  V30 3983 O 380.702 -1.38653 -1.38108 0
M  V30 3984 C 381.001 -3.20634 1.57888 0
M  V30 3985 C 380.667 -3.29743 3.07539 0
M  V30 3986 C 379.329 -3.31937 3.48384 0
M  V30 3987 C 381.681 -3.29841 4.03552 0
M  V30 3988 C 379.009 -3.3187 4.83818 0
M  V30 3989 C 381.361 -3.31313 5.38901 0
M  V30 3990 C 380.025 -3.31799 5.79194 0
M  V30 3991 H 379.295 -0.648659 0.358222 0
M  V30 3992 H 381.942 -1.22225 1.47422 0
M  V30 3993 H 380.247 -3.78675 1.00561 0
M  V30 3994 H 381.944 -3.75917 1.39598 0
M  V30 3995 H 378.534 -3.28757 2.74986 0
M  V30 3996 H 382.718 -3.27337 3.73047 0
M  V30 3997 H 377.974 -3.30562 5.14333 0
M  V30 3998 H 382.148 -3.30338 6.13066 0
M  V30 3999 H 379.775 -3.315 6.84114 0
M  V30 4000 N 381.35 -0.985608 -1.22978 0
M  V30 4001 C 382.313 -0.535071 -2.22867 0
M  V30 4002 C 383.313 0.378123 -1.56291 0
M  V30 4003 O 384.503 0.171092 -1.73358 0
M  V30 4004 C 381.635 0.222702 -3.40172 0
M  V30 4005 H 382.828 -1.41835 -2.6424 0
M  V30 4006 H 380.381 -0.772042 -1.35901 0
M  V30 4007 H 381.116 1.12229 -3.04262 0
M  V30 4008 H 380.901 -0.43288 -3.89703 0
M  V30 4009 H 382.391 0.526335 -4.1427 0
M  V30 4010 N 382.828 1.3818 -0.7579 0
M  V30 4011 C 384.068 2.01864 -0.320968 0
M  V30 4012 C 384.432 1.58863 1.07827 0
M  V30 4013 O 385.633 2.14908 1.61456 0
M  V30 4014 C 383.904 3.54626 -0.44446 0
M  V30 4015 S 385.463 4.38706 -0.0907467 0
M  V30 4016 H 382.281 0.700056 -0.124268 0
M  V30 4017 H 384.883 1.68611 -0.989468 0
M  V30 4018 H 383.587 3.83411 -1.4637 0
M  V30 4019 H 383.118 3.92661 0.241073 0
M  V30 4020 H 385.133 4.83435 1.11826 0
M  V30 4021 N 384.306 0.507319 1.49211 0
M  V30 4022 C 385.216 -0.272136 2.33016 0
M  V30 4023 C 386.232 -0.961206 1.45041 0
M  V30 4024 O 387.408 -0.941191 1.78055 0
M  V30 4025 C 384.473 -1.31895 3.20631 0
M  V30 4026 C 383.534 -0.642648 4.24463 0
M  V30 4027 C 382.767 -1.63959 5.07891 0
M  V30 4028 O 382.99 -2.87007 4.92933 0
M  V30 4029 O 381.924 -1.19143 5.8999 0
M  V30 4030 H 385.75 0.413982 3.00865 0
M  V30 4031 H 383.335 0.268556 1.46966 0
M  V30 4032 H 385.217 -1.92446 3.7489 0
M  V30 4033 H 383.892 -1.98788 2.5547 0
M  V30 4034 H 382.799 0.00276252 3.741 0
M  V30 4035 H 384.132 -0.0160534 4.92197 0
M  V30 4036 N 385.784 -1.5574 0.241426 0
M  V30 4037 C 386.734 -2.17803 -0.674233 0
M  V30 4038 C 387.718 -1.13225 -1.14319 0
M  V30 4039 O 388.91 -1.39153 -1.09387 0
M  V30 4040 C 386.039 -2.87682 -1.87333 0
M  V30 4041 C 385.125 -3.99509 -1.42313 0
M  V30 4042 N 385.516 -5.01115 -0.686798 0
M  V30 4043 C 383.814 -4.11964 -1.70885 0
M  V30 4044 C 384.515 -5.79922 -0.454456 0
M  V30 4045 N 383.491 -5.34001 -1.01705 0
M  V30 4046 H 387.293 -2.93718 -0.103447 0
M  V30 4047 H 384.807 -1.62342 0.0435095 0
M  V30 4048 H 386.804 -3.3057 -2.54026 0
M  V30 4049 H 385.464 -2.13269 -2.4484 0
M  V30 4050 H 386.475 -5.16799 -0.337459 0
M  V30 4051 H 383.152 -3.48718 -2.2957 0
M  V30 4052 H 384.542 -6.71768 0.132992 0
M  V30 4053 N 387.262 0.0317525 -1.57568 0
M  V30 4054 C 388.225 1.01783 -2.0536 0
M  V30 4055 C 389.225 1.29203 -0.957253 0
M  V30 4056 O 390.415 1.24251 -1.22095 0
M  V30 4057 C 387.547 2.35137 -2.46827 0
M  V30 4058 H 388.74 0.605062 -2.93733 0
M  V30 4059 H 386.293 0.278514 -1.53799 0
M  V30 4060 H 387.028 2.81168 -1.61602 0
M  V30 4061 H 386.813 2.16566 -3.26866 0
M  V30 4062 H 388.303 3.05938 -2.84239 0
M  V30 4063 N 388.74 1.54641 0.303973 0
M  V30 4064 C 389.65 1.88439 1.39743 0
M  V30 4065 C 390.666 0.778239 1.55626 0
M  V30 4066 O 391.842 1.07442 1.70347 0
M  V30 4067 C 388.907 2.12212 2.74166 0
M  V30 4068 C 387.968 3.35936 2.67293 0
M  V30 4069 C 387.201 3.58566 3.95305 0
M  V30 4070 O 387.424 2.84263 4.9452 0
M  V30 4071 O 386.358 4.52078 3.97378 0
M  V30 4072 H 390.184 2.81458 1.14083 0
M  V30 4073 H 387.769 1.40793 0.499768 0
M  V30 4074 H 389.651 2.29067 3.53704 0
M  V30 4075 H 388.326 1.22379 2.99675 0
M  V30 4076 H 387.233 3.24448 1.86237 0
M  V30 4077 H 388.566 4.2589 2.46736 0
M  V30 4078 N 390.218 -0.567019 1.47046 0
M  V30 4079 C 391.467 -1.32091 1.5243 0
M  V30 4080 C 391.78 -1.94704 0.187021 0
M  V30 4081 O 392.986 -2.7124 0.118771 0
M  V30 4082 C 391.442 -2.39479 2.68659 0
M  V30 4083 C 391.05 -1.831 4.08874 0
M  V30 4084 C 392.794 -3.16111 2.83327 0
M  V30 4085 C 390.701 -2.8821 5.16419 0
M  V30 4086 H 389.631 -0.496629 0.56734 0
M  V30 4087 H 392.282 -0.603354 1.73297 0
M  V30 4088 H 390.664 -3.14105 2.41152 0
M  V30 4089 H 391.838 -1.14913 4.46242 0
M  V30 4090 H 390.153 -1.19085 3.99008 0
M  V30 4091 H 392.75 -3.94585 3.60842 0
M  V30 4092 H 393.093 -3.69686 1.91411 0
M  V30 4093 H 393.626 -2.48595 3.10556 0
M  V30 4094 H 390.365 -2.39504 6.10179 0
M  V30 4095 H 389.885 -3.54839 4.8358 0
M  V30 4096 H 391.564 -3.51881 5.42945 0
M  V30 4097 N 391.696 -1.35014 -0.812953 0
M  V30 4098 C 392.659 -1.27292 -1.90602 0
M  V30 4099 C 393.659 -0.185817 -1.59723 0
M  V30 4100 O 394.849 -0.439102 -1.68575 0
M  V30 4101 C 391.981 -0.967676 -3.26877 0
M  V30 4102 H 393.174 -2.24479 -1.9887 0
M  V30 4103 H 390.727 -1.19446 -1.00808 0
M  V30 4104 H 391.462 0.0005954 -3.243 0
M  V30 4105 H 391.247 -1.75412 -3.50675 0
M  V30 4106 H 392.737 -0.939085 -4.06904 0
M  V30 4107 N 393.175 1.03435 -1.18907 0
M  V30 4108 C 394.586 1.58195 -0.991523 0
M  V30 4109 C 394.937 1.90801 0.457081 0
M  V30 4110 O 394.062 1.70272 1.33553 0
M  V30 4111 C 394.657 2.87432 -1.79355 0
M  V30 4112 C 393.216 3.38785 -1.64017 0
M  V30 4113 C 392.363 2.12292 -1.78402 0
M  V30 4114 H 395.314 0.860299 -1.33359 0
M  V30 4115 H 395.335 3.58096 -1.28638 0
M  V30 4116 H 394.847 2.63669 -2.84781 0
M  V30 4117 H 392.948 3.67547 -0.611536 0
M  V30 4118 H 393.061 4.12186 -2.44212 0
M  V30 4119 H 391.425 2.23901 -1.2141 0
M  V30 4120 H 392.208 1.90977 -2.85277 0
M  V30 4121 N 394.653 0.992116 1.22453 0
M  V30 4122 C 395.93 0.583508 1.86694 0
M  V30 4123 C 396.31 -0.9392 1.89056 0
M  V30 4124 O 395.658 -1.82081 1.38053 0
M  V30 4125 C 395.868 1.20304 3.2761 0
M  V30 4126 C 397.216 1.30308 4.0411 0
M  V30 4127 O 398.24 1.15737 3.36873 0
M  V30 4128 O 397.099 1.53615 5.24466 0
M  V30 4129 H 394.193 0.198129 0.802916 0
M  V30 4130 H 396.739 1.08794 1.30238 0
M  V30 4131 H 395.511 2.24461 3.2052 0
M  V30 4132 H 395.134 0.684144 3.9167 0
M  V30 4133 N 396.131 -1.37776 0.765217 0
M  V30 4134 C 397.38 -1.99092 0.323307 0
M  V30 4135 C 397.693 -1.61434 -1.10446 0
M  V30 4136 O 398.899 -2.15805 -1.64743 0
M  V30 4137 C 397.355 -3.56019 0.527098 0
M  V30 4138 C 396.963 -4.0262 1.96471 0
M  V30 4139 C 398.707 -4.2424 0.148483 0
M  V30 4140 C 396.614 -5.52233 2.11644 0
M  V30 4141 H 395.544 -0.744846 0.117137 0
M  V30 4142 H 398.195 -1.57391 0.943417 0
M  V30 4143 H 396.577 -3.95667 -0.162372 0
M  V30 4144 H 397.751 -3.74234 2.68859 0
M  V30 4145 H 396.066 -3.47161 2.29931 0
M  V30 4146 H 398.663 -5.34159 0.240456 0
M  V30 4147 H 399.006 -4.06446 -0.900422 0
M  V30 4148 H 399.539 -3.89872 0.79025 0
M  V30 4149 H 396.278 -5.74945 3.1483 0
M  V30 4150 H 395.798 -5.82324 1.4373 0
M  V30 4151 H 397.477 -6.18106 1.91193 0
M  V30 4152 N 397.609 -0.515225 -1.4894 0
M  V30 4153 C 398.539 0.244628 -2.32215 0
M  V30 4154 C 399.52 0.949136 -1.41157 0
M  V30 4155 O 400.705 0.937783 -1.70057 0
M  V30 4156 C 397.835 1.30096 -3.22013 0
M  V30 4157 C 396.789 0.715486 -4.21977 0
M  V30 4158 C 396.115 1.87339 -5.00808 0
M  V30 4159 C 397.415 -0.302982 -5.2142 0
M  V30 4160 H 399.109 -0.450501 -2.95991 0
M  V30 4161 H 396.655 -0.218098 -1.42339 0
M  V30 4162 H 398.608 1.84037 -3.79089 0
M  V30 4163 H 397.332 2.02547 -2.56207 0
M  V30 4164 H 395.991 0.197715 -3.66066 0
M  V30 4165 H 395.639 2.58592 -4.31438 0
M  V30 4166 H 395.339 1.48764 -5.68457 0
M  V30 4167 H 396.863 2.41686 -5.60732 0
M  V30 4168 H 398.277 0.148802 -5.73107 0
M  V30 4169 H 396.674 -0.60532 -5.97039 0
M  V30 4170 H 397.744 -1.21395 -4.69459 0
M  V30 4171 N 399.087 1.5561 -0.249682 0
M  V30 4172 C 400.327 2.00916 0.37579 0
M  V30 4173 C 400.691 1.13409 1.54927 0
M  V30 4174 O 401.892 1.48183 2.24266 0
M  V30 4175 C 400.163 3.48949 0.772633 0
M  V30 4176 S 401.722 4.16261 1.38824 0
M  V30 4177 H 398.54 0.70112 0.118117 0
M  V30 4178 H 401.142 1.92052 -0.365567 0
M  V30 4179 H 399.846 4.103 -0.090683 0
M  V30 4180 H 399.377 3.61745 1.5461 0
M  V30 4181 H 401.392 4.17778 2.67724 0
M  V30 4182 N 400.565 -0.0233959 1.57583 0
M  V30 4183 C 401.495 -1.02162 2.09965 0
M  V30 4184 C 402.476 -1.3735 1.00344 0
M  V30 4185 O 403.661 -1.46135 1.27899 0
M  V30 4186 C 400.791 -2.32081 2.58371 0
M  V30 4187 C 399.745 -2.1112 3.72307 0
M  V30 4188 C 399.071 -3.46848 4.06941 0
M  V30 4189 C 400.371 -1.49276 5.00514 0
M  V30 4190 H 402.065 -0.585557 2.93618 0
M  V30 4191 H 399.611 -0.280218 1.41247 0
M  V30 4192 H 401.564 -3.02249 2.93639 0
M  V30 4193 H 400.288 -2.77758 1.71808 0
M  V30 4194 H 398.947 -1.43384 3.37397 0
M  V30 4195 H 398.595 -3.90184 3.17436 0
M  V30 4196 H 398.295 -3.33646 4.83688 0
M  V30 4197 H 399.819 -4.18369 4.44747 0
M  V30 4198 H 401.233 -2.09368 5.33702 0
M  V30 4199 H 399.63 -1.46632 5.8191 0
M  V30 4200 H 400.7 -0.459217 4.82721 0
M  V30 4201 N 402.043 -1.548 -0.295768 0
M  V30 4202 C 403.291 -1.73985 -1.02828 0
M  V30 4203 C 403.612 -0.531406 -1.87619 0
M  V30 4204 O 402.882 0.454221 -1.90561 0
M  V30 4205 H 401.462 -0.641556 -0.382642 0
M  V30 4206 H 404.124 -1.92163 -0.325489 0
M  V30 4207 H 403.22 -2.63129 -1.67838 0
M  V30 4208 N 403.521 0.559213 -1.47345 0
M  V30 4209 C 404.468 1.66645 -1.59682 0
M  V30 4210 C 405.438 1.60168 -0.43994 0
M  V30 4211 O 406.623 1.79031 -0.659736 0
M  V30 4212 C 403.763 3.04969 -1.61518 0
M  V30 4213 C 402.876 3.21897 -2.88108 0
M  V30 4214 C 402.011 4.50608 -2.81294 0
M  V30 4215 C 401.05 4.60961 -4.02717 0
M  V30 4216 N 400.187 5.81024 -3.94151 0
M  V30 4217 H 405.027 1.55439 -2.54249 0
M  V30 4218 H 402.564 0.757219 -1.26113 0
M  V30 4219 H 404.522 3.85064 -1.60566 0
M  V30 4220 H 403.152 3.15015 -0.704645 0
M  V30 4221 H 402.204 2.35248 -2.98936 0
M  V30 4222 H 403.516 3.25412 -3.78032 0
M  V30 4223 H 402.67 5.3896 -2.7858 0
M  V30 4224 H 401.409 4.49568 -1.89049 0
M  V30 4225 H 400.414 3.71021 -4.05738 0
M  V30 4226 H 401.639 4.63761 -4.96087 0
M  V30 4227 H 399.585 5.80938 -3.04708 0
M  V30 4228 H 399.502 5.85909 -4.77752 0
M  V30 4229 H 400.77 6.71744 -3.9545 0
M  V30 4230 N 404.999 1.35443 0.805782 0
M  V30 4231 C 405.962 1.28301 1.89925 0
M  V30 4232 C 406.962 0.194285 1.59622 0
M  V30 4233 O 408.152 0.448036 1.6834 0
M  V30 4234 C 405.284 0.984997 3.2636 0
M  V30 4235 H 406.477 2.2553 1.97677 0
M  V30 4236 H 404.03 1.19979 1.00173 0
M  V30 4237 H 404.765 0.016603 3.24296 0
M  V30 4238 H 404.55 1.77269 3.4974 0
M  V30 4239 H 406.04 0.960651 4.064 0
M  V30 4240 N 406.477 -1.02803 1.19454 0
M  V30 4241 C 407.407 -2.12999 0.956758 0
M  V30 4242 C 408.388 -1.69743 -0.110188 0
M  V30 4243 O 409.573 -1.94148 0.0450038 0
M  V30 4244 C 406.703 -3.43746 0.495553 0
M  V30 4245 C 405.657 -4.00688 1.50443 0
M  V30 4246 C 404.983 -5.27067 0.900275 0
M  V30 4247 C 406.283 -4.35397 2.8849 0
M  V30 4248 H 407.977 -2.33148 1.87836 0
M  V30 4249 H 405.523 -1.12045 0.904539 0
M  V30 4250 H 407.476 -4.2021 0.316493 0
M  V30 4251 H 406.2 -3.23321 -0.461646 0
M  V30 4252 H 404.859 -3.2632 1.67065 0
M  V30 4253 H 404.507 -5.02959 -0.064503 0
M  V30 4254 H 404.207 -5.66127 1.57397 0
M  V30 4255 H 405.731 -6.06196 0.73203 0
M  V30 4256 H 407.145 -5.02795 2.75446 0
M  V30 4257 H 405.542 -4.85541 3.52661 0
M  V30 4258 H 406.612 -3.44662 3.41081 0
M  V30 4259 N 407.956 -0.998596 -1.21925 0
M  V30 4260 C 409.184 -0.696286 -1.94832 0
M  V30 4261 C 409.599 0.740032 -1.73692 0
M  V30 4262 O 408.956 1.5 -1.03953 0
M  V30 4263 C 409.007 -0.999833 -3.47398 0
M  V30 4264 O 408.728 -2.37972 -3.67833 0
M  V30 4265 C 410.229 -0.716025 -4.37479 0
M  V30 4266 H 407.449 -0.257111 -0.619786 0
M  V30 4267 H 409.993 -1.33491 -1.54921 0
M  V30 4268 H 408.148 -0.406918 -3.85257 0
M  V30 4269 H 408.562 -2.48338 -4.61983 0
M  V30 4270 H 410.036 -0.978642 -5.43256 0
M  V30 4271 H 410.513 0.349968 -4.37803 0
M  V30 4272 H 411.119 -1.29025 -4.05256 0
M  V30 4273 N 409.434 1.37368 -0.772513 0
M  V30 4274 C 410.682 1.99279 -0.336516 0
M  V30 4275 C 411.003 1.6163 1.09091 0
M  V30 4276 O 410.273 0.882109 1.74916 0
M  V30 4277 H 408.853 0.737063 -0.121435 0
M  V30 4278 H 411.515 1.67836 -0.990809 0
M  V30 4279 H 410.611 3.09332 -0.414763 0
M  V30 4280 N 410.912 0.523116 1.48665 0
M  V30 4281 C 412.16 -0.0134497 2.02096 0
M  V30 4282 C 412.481 -1.35418 1.40311 0
M  V30 4283 O 411.751 -1.87543 0.566074 0
M  V30 4284 H 410.331 -0.00795915 0.746958 0
M  V30 4285 H 412.993 0.685388 1.82451 0
M  V30 4286 H 412.089 -0.126849 3.11842 0
M  V30 4287 N 412.39 -1.55475 0.257931 0
M  V30 4288 C 413.618 -2.03609 -0.367559 0
M  V30 4289 C 414.033 -1.13687 -1.50734 0
M  V30 4290 O 413.39 -0.153479 -1.81853 0
M  V30 4291 C 413.441 -3.51001 -0.864908 0
M  V30 4292 O 413.162 -4.37499 0.229465 0
M  V30 4293 C 414.663 -4.14946 -1.55997 0
M  V30 4294 H 411.883 -0.665459 -0.0860521 0
M  V30 4295 H 414.427 -2.00843 0.385014 0
M  V30 4296 H 412.582 -3.54266 -1.56762 0
M  V30 4297 H 412.996 -5.24286 -0.14998 0
M  V30 4298 H 414.47 -5.19735 -1.85956 0
M  V30 4299 H 414.947 -3.6209 -2.4857 0
M  V30 4300 H 415.553 -4.15635 -0.901543 0
M  V30 4301 N 413.868 0.0150385 -1.57593 0
M  V30 4302 C 414.801 1.04475 -2.0288 0
M  V30 4303 C 415.779 1.3436 -0.915764 0
M  V30 4304 O 416.963 1.46779 -1.18271 0
M  V30 4305 C 414.09 2.37608 -2.41371 0
M  V30 4306 C 413.136 2.23487 -3.63257 0
M  V30 4307 S 413.969 1.57505 -5.11813 0
M  V30 4308 C 415.125 2.921 -5.5356 0
M  V30 4309 H 415.358 0.65907 -2.89903 0
M  V30 4310 H 412.891 0.225452 -1.52745 0
M  V30 4311 H 414.849 3.14165 -2.64217 0
M  V30 4312 H 413.51 2.7332 -1.54775 0
M  V30 4313 H 412.703 3.21802 -3.87891 0
M  V30 4314 H 412.305 1.55074 -3.40335 0
M  V30 4315 H 414.597 3.88419 -5.55101 0
M  V30 4316 H 415.54 2.72184 -6.53698 0
M  V30 4317 H 415.948 2.95318 -4.8109 0
M  V30 4318 N 415.346 1.54954 0.287554 0
M  V30 4319 C 416.574 1.78881 1.03967 0
M  V30 4320 C 416.989 0.554894 1.80462 0
M  V30 4321 O 416.346 -0.475676 1.76192 0
M  V30 4322 C 416.397 3.00488 2.0097 0
M  V30 4323 O 416.118 4.19113 1.27577 0
M  V30 4324 C 417.619 3.36907 2.88112 0
M  V30 4325 H 414.839 0.596259 0.307761 0
M  V30 4326 H 417.383 2.01937 0.322749 0
M  V30 4327 H 415.538 2.79601 2.68145 0
M  V30 4328 H 415.952 4.87765 1.92835 0
M  V30 4329 H 417.426 4.25205 3.52001 0
M  V30 4330 H 417.903 2.55659 3.57121 0
M  V30 4331 H 418.509 3.60001 2.26449 0
M  V30 4332 N 416.824 -0.551391 1.4764 0
M  V30 4333 C 417.754 -1.66757 1.63445 0
M  V30 4334 C 418.735 -1.63077 0.483742 0
M  V30 4335 O 419.92 -1.80607 0.71377 0
M  V30 4336 C 417.05 -3.05387 1.65396 0
M  V30 4337 C 416.004 -3.23918 2.79752 0
M  V30 4338 C 415.33 -4.63393 2.66779 0
M  V30 4339 C 416.63 -3.08735 4.21284 0
M  V30 4340 H 418.324 -1.53786 2.56886 0
M  V30 4341 H 415.87 -0.738415 1.23626 0
M  V30 4342 H 417.823 -3.83325 1.75043 0
M  V30 4343 H 416.547 -3.19332 0.685195 0
M  V30 4344 H 415.206 -2.48391 2.69625 0
M  V30 4345 H 414.854 -4.74144 1.67918 0
M  V30 4346 H 414.554 -4.7674 3.43501 0
M  V30 4347 H 416.078 -5.43458 2.78364 0
M  V30 4348 H 417.492 -3.76484 4.32357 0
M  V30 4349 H 415.889 -3.33588 4.98838 0
M  V30 4350 H 416.959 -2.0541 4.39243 0
M  V30 4351 N 418.302 -1.35869 -0.798587 0
M  V30 4352 C 419.527 -1.32883 -1.59238 0
M  V30 4353 C 419.952 0.0894587 -1.87887 0
M  V30 4354 O 419.31 1.05869 -1.47178 0
M  V30 4355 C 419.358 -2.14892 -2.89575 0
M  V30 4356 O 418.462 -1.53512 -3.82763 0
M  V30 4357 H 417.803 -0.455236 -0.48338 0
M  V30 4358 H 420.333 -1.79024 -0.990539 0
M  V30 4359 H 420.343 -2.27139 -3.38928 0
M  V30 4360 H 419.018 -3.17998 -2.68049 0
M  V30 4361 H 417.595 -1.50153 -3.41334 0
M  V30 4362 N 419.78 1.02168 -1.19998 0
M  V30 4363 C 420.743 2.08765 -0.94604 0
M  V30 4364 C 421.743 1.60618 0.0763846 0
M  V30 4365 O 422.933 1.73472 -0.159135 0
M  V30 4366 C 420.065 3.38262 -0.423255 0
M  V30 4367 H 421.258 2.32726 -1.89153 0
M  V30 4368 H 418.811 1.1889 -1.01464 0
M  V30 4369 H 419.546 3.19974 0.527938 0
M  V30 4370 H 419.331 3.74532 -1.16053 0
M  V30 4371 H 420.821 4.16759 -0.264911 0
M  V30 4372 N 421.258 1.00505 1.21394 0
M  V30 4373 C 422.486 0.706609 1.9446 0
M  V30 4374 C 422.901 -0.73081 1.74082 0
M  V30 4375 O 422.258 -1.49446 1.04747 0
M  V30 4376 C 422.309 1.01824 3.46863 0
M  V30 4377 O 422.03 2.39919 3.66566 0
M  V30 4378 C 423.531 0.739216 4.37093 0
M  V30 4379 H 420.751 0.260394 0.618414 0
M  V30 4380 H 423.295 1.34311 1.54211 0
M  V30 4381 H 421.45 0.427343 3.85036 0
M  V30 4382 H 421.864 2.50784 4.6066 0
M  V30 4383 H 423.338 1.00744 5.42729 0
M  V30 4384 H 423.815 -0.326746 4.37983 0
M  V30 4385 H 424.421 1.31173 4.04566 0
M  V30 4386 N 422.737 -1.36956 0.779787 0
M  V30 4387 C 423.667 -2.32761 0.185651 0
M  V30 4388 C 424.648 -1.56177 -0.673989 0
M  V30 4389 O 425.833 -1.84378 -0.609797 0
M  V30 4390 C 422.963 -3.40418 -0.687964 0
M  V30 4391 C 421.917 -4.27941 0.0710102 0
M  V30 4392 C 421.243 -5.26681 -0.922573 0
M  V30 4393 C 422.543 -5.07006 1.25467 0
M  V30 4394 H 424.237 -2.82698 0.986008 0
M  V30 4395 H 421.783 -1.3592 0.475592 0
M  V30 4396 H 423.736 -4.06423 -1.11348 0
M  V30 4397 H 422.46 -2.89025 -1.52093 0
M  V30 4398 H 421.119 -3.63478 0.47739 0
M  V30 4399 H 420.767 -4.71565 -1.7503 0
M  V30 4400 H 420.467 -5.86103 -0.419237 0
M  V30 4401 H 421.991 -5.9556 -1.34686 0
M  V30 4402 H 423.405 -5.66105 0.905401 0
M  V30 4403 H 421.802 -5.75793 1.69063 0
M  V30 4404 H 422.872 -4.3921 2.05481 0
M  V30 4405 N 424.215 -0.530993 -1.48385 0
M  V30 4406 C 425.443 -0.00134122 -2.069 0
M  V30 4407 C 425.858 1.2805 -1.3874 0
M  V30 4408 O 425.215 1.76204 -0.475244 0
M  V30 4409 C 425.266 0.225256 -3.60798 0
M  V30 4410 O 424.987 -1.0058 -4.26398 0
M  V30 4411 C 426.488 0.795172 -4.3611 0
M  V30 4412 H 423.708 -0.0339704 -0.67014 0
M  V30 4413 H 426.252 -0.736926 -1.90761 0
M  V30 4414 H 424.407 0.910891 -3.76539 0
M  V30 4415 H 424.821 -0.787165 -5.1856 0
M  V30 4416 H 426.295 0.903143 -5.44562 0
M  V30 4417 H 426.772 1.80031 -4.00606 0
M  V30 4418 H 427.378 0.146069 -4.25049 0
M  V30 4419 N 425.693 1.55336 -0.266172 0
M  V30 4420 C 426.921 2.03801 0.356756 0
M  V30 4421 C 427.336 1.14485 1.50129 0
M  V30 4422 O 426.693 0.163121 1.8177 0
M  V30 4423 C 426.744 3.51455 0.846281 0
M  V30 4424 O 426.465 4.37371 -0.252663 0
M  V30 4425 C 427.966 4.15767 1.53794 0
M  V30 4426 H 425.186 0.665906 0.0825218 0
M  V30 4427 H 427.73 2.00636 -0.39566 0
M  V30 4428 H 425.885 3.55092 1.54881 0
M  V30 4429 H 426.299 5.24358 0.122173 0
M  V30 4430 H 427.773 5.20714 1.83198 0
M  V30 4431 H 428.25 3.63404 2.46646 0
M  V30 4432 H 428.856 4.16107 0.879488 0
M  V30 4433 N 427.171 -0.0066808 1.57599 0
M  V30 4434 C 428.587 -0.36267 1.55425 0
M  V30 4435 C 428.787 -1.75209 0.995187 0
M  V30 4436 O 427.843 -2.44616 0.626058 0
M  V30 4437 C 429.156 -0.244017 2.99708 0
M  V30 4438 C 430.704 -0.319451 3.11366 0
M  V30 4439 C 431.179 -0.229998 4.57422 0
M  V30 4440 N 432.67 -0.288105 4.62303 0
M  V30 4441 C 433.405 -0.242127 5.72889 0
M  V30 4442 N 432.901 -0.147133 6.92644 0
M  V30 4443 N 434.694 -0.293502 5.61333 0
M  V30 4444 H 426.845 0.902314 1.92281 0
M  V30 4445 H 429.108 0.34525 0.882896 0
M  V30 4446 H 428.814 0.711678 3.44424 0
M  V30 4447 H 428.688 -1.02877 3.629 0
M  V30 4448 H 431.075 -1.26559 2.66584 0
M  V30 4449 H 431.156 0.495055 2.50964 0
M  V30 4450 H 430.8 0.712566 5.02877 0
M  V30 4451 H 430.73 -1.0629 5.15761 0
M  V30 4452 H 433.221 -0.363126 3.76151 0
M  V30 4453 H 433.534 -0.117763 7.7271 0
M  V30 4454 H 431.879 -0.112857 6.94908 0
M  V30 4455 H 435.07 -0.365864 4.66668 0
M  V30 4456 H 435.243 -0.254204 6.47501 0
M  V30 4457 N 428.649 -1.55105 -0.279332 0
M  V30 4458 C 429.559 -1.90638 -1.36727 0
M  V30 4459 C 430.575 -0.802899 -1.54368 0
M  V30 4460 O 431.751 -1.10138 -1.68616 0
M  V30 4461 C 428.816 -2.16547 -2.70755 0
M  V30 4462 C 427.877 -3.40146 -2.61915 0
M  V30 4463 C 427.11 -3.6481 -3.8955 0
M  V30 4464 O 427.333 -2.92095 -4.89935 0
M  V30 4465 O 426.267 -4.58343 -3.90135 0
M  V30 4466 H 430.093 -2.83237 -1.09591 0
M  V30 4467 H 427.678 -1.4157 -0.477306 0
M  V30 4468 H 429.56 -2.34665 -3.50014 0
M  V30 4469 H 428.235 -1.27131 -2.9769 0
M  V30 4470 H 427.142 -3.2737 -1.81052 0
M  V30 4471 H 428.475 -4.29761 -2.3993 0
M  V30 4472 N 430.127 0.543554 -1.4793 0
M  V30 4473 C 431.373 1.30201 -1.55485 0
M  V30 4474 C 431.706 1.92925 -0.222201 0
M  V30 4475 O 430.981 1.78586 0.77053 0
M  V30 4476 C 431.264 2.40174 -2.68307 0
M  V30 4477 C 431.117 1.8223 -4.11233 0
M  V30 4478 C 432.436 3.42024 -2.76961 0
M  V30 4479 H 429.555 0.472036 -0.565996 0
M  V30 4480 H 432.197 0.606914 -1.80046 0
M  V30 4481 H 430.347 2.99463 -2.47495 0
M  V30 4482 H 432.019 1.27096 -4.43446 0
M  V30 4483 H 430.262 1.12832 -4.18869 0
M  V30 4484 H 430.933 2.61793 -4.85972 0
M  V30 4485 H 433.409 2.92672 -2.95774 0
M  V30 4486 H 432.285 4.16383 -3.57654 0
M  V30 4487 H 432.546 4.0173 -1.84568 0
M  V30 4488 N 431.605 1.3629 0.791371 0
M  V30 4489 C 432.568 1.30309 1.88553 0
M  V30 4490 C 433.568 0.211204 1.59407 0
M  V30 4491 O 434.758 0.465865 1.67855 0
M  V30 4492 C 431.89 1.01956 3.25297 0
M  V30 4493 H 433.083 2.27614 1.95273 0
M  V30 4494 H 430.636 1.21035 0.988953 0
M  V30 4495 H 431.371 0.050998 3.2426 0
M  V30 4496 H 431.156 1.80968 3.4784 0
M  V30 4497 H 432.646 1.0037 4.05359 0
M  V30 4498 N 433.083 -1.0153 1.20538 0
M  V30 4499 C 433.993 -2.13557 0.971113 0
M  V30 4500 C 435.009 -1.73845 -0.0734366 0
M  V30 4501 O 436.185 -2.01075 0.114299 0
M  V30 4502 C 433.25 -3.42661 0.527639 0
M  V30 4503 C 432.311 -3.96608 1.64319 0
M  V30 4504 C 431.544 -5.1955 1.22078 0
M  V30 4505 O 431.767 -5.70329 0.0900198 0
M  V30 4506 O 430.701 -5.66681 2.02871 0
M  V30 4507 H 434.527 -2.3619 1.90913 0
M  V30 4508 H 432.112 -1.11946 0.989362 0
M  V30 4509 H 433.994 -4.20404 0.289621 0
M  V30 4510 H 432.669 -3.21441 -0.381779 0
M  V30 4511 H 431.576 -3.20139 1.93551 0
M  V30 4512 H 432.909 -4.22219 2.52966 0
M  V30 4513 N 434.561 -1.01147 -1.20859 0
M  V30 4514 C 435.789 -0.716911 -1.94082 0
M  V30 4515 C 436.204 0.721568 -1.74467 0
M  V30 4516 O 435.561 1.48889 -1.05539 0
M  V30 4517 C 435.612 -1.03662 -3.46318 0
M  V30 4518 O 435.333 -2.4186 -3.65288 0
M  V30 4519 C 436.834 -0.762386 -4.36695 0
M  V30 4520 H 434.054 -0.26367 -0.617024 0
M  V30 4521 H 436.598 -1.35127 -1.53496 0
M  V30 4522 H 434.753 -0.447757 -3.84804 0
M  V30 4523 H 435.167 -2.53224 -4.59323 0
M  V30 4524 H 436.641 -1.03621 -5.42187 0
M  V30 4525 H 437.118 0.303514 -4.3815 0
M  V30 4526 H 437.724 -1.33316 -4.03865 0
M  V30 4527 N 436.039 1.36541 -0.78704 0
M  V30 4528 C 437.288 1.98552 -0.35494 0
M  V30 4529 C 437.601 1.63171 1.07864 0
M  V30 4530 O 438.807 2.18399 1.61289 0
M  V30 4531 C 437.263 3.55136 -0.583671 0
M  V30 4532 C 436.871 3.99444 -2.02851 0
M  V30 4533 C 438.615 4.2395 -0.215957 0
M  V30 4534 C 436.522 5.48796 -2.20403 0
M  V30 4535 H 435.452 0.742888 -0.128972 0
M  V30 4536 H 438.103 1.5587 -0.968337 0
M  V30 4537 H 436.485 3.95875 0.0994046 0
M  V30 4538 H 437.659 3.6991 -2.74779 0
M  V30 4539 H 435.974 3.43459 -2.35425 0
M  V30 4540 H 438.571 5.33709 -0.325405 0
M  V30 4541 H 438.914 4.07827 0.835646 0
M  V30 4542 H 439.447 3.88565 -0.852175 0
M  V30 4543 H 436.186 5.69864 -3.23937 0
M  V30 4544 H 435.706 5.79964 -1.52977 0
M  V30 4545 H 437.385 6.14986 -2.01002 0
M  V30 4546 N 437.518 0.538854 1.48102 0
M  V30 4547 C 438.743 0.0102694 2.07397 0
M  V30 4548 C 439.168 -1.26562 1.39153 0
M  V30 4549 O 438.526 -1.75357 0.460387 0
M  V30 4550 C 438.574 -0.187602 3.60112 0
M  V30 4551 O 437.678 -1.25432 3.92862 0
M  V30 4552 H 437.019 0.0430975 0.6626 0
M  V30 4553 H 439.549 0.749301 1.90385 0
M  V30 4554 H 439.559 -0.407517 4.0596 0
M  V30 4555 H 438.234 0.744386 4.09184 0
M  V30 4556 H 436.811 -1.01636 3.58782 0
M  V30 4557 N 438.996 -1.55193 0.274407 0
M  V30 4558 C 439.944 -2.23924 -0.629362 0
M  V30 4559 C 440.938 -1.23602 -1.1584 0
M  V30 4560 O 442.144 -1.41535 -1.11211 0
M  V30 4561 H 438.519 -0.718637 -0.221507 0
M  V30 4562 H 440.49 -2.98388 -0.0268322 0
M  V30 4563 C 439.239 -2.97329 -1.80252 0
M  V30 4564 H 438.562 -3.74313 -1.40462 0
M  V30 4565 H 440.002 -3.48743 -2.41152 0
M  V30 4566 C 438.461 -2.0276 -2.69054 0
M  V30 4567 O 438.991 -1.57836 -3.69392 0
M  V30 4568 N 437.197 -1.69275 -2.36208 0
M  V30 4569 H 436.744 -2.06004 -1.54661 0
M  V30 4570 H 436.702 -1.06271 -2.95895 0
M  V30 4571 N 440.474 -0.00167713 -1.576 0
M  V30 4572 C 441.722 0.681471 -1.90264 0
M  V30 4573 C 442.043 1.7422 -0.875924 0
M  V30 4574 O 441.313 1.95709 0.0864412 0
M  V30 4575 H 439.893 0.254696 -0.702239 0
M  V30 4576 H 442.555 -0.0429996 -1.94853 0
M  V30 4577 H 441.651 1.15166 -2.90075 0
M  V30 4578 N 441.952 1.55251 0.271103 0
M  V30 4579 C 442.862 1.9136 1.35714 0
M  V30 4580 C 443.878 0.811075 1.5394 0
M  V30 4581 O 445.054 1.11031 1.6803 0
M  V30 4582 C 442.119 2.1798 2.69603 0
M  V30 4583 C 441.18 3.4153 2.60107 0
M  V30 4584 C 440.413 3.66871 3.8761 0
M  V30 4585 O 440.636 2.94689 4.8838 0
M  V30 4586 O 439.57 4.60405 3.87699 0
M  V30 4587 H 443.396 2.83815 1.08088 0
M  V30 4588 H 440.981 1.41821 0.469792 0
M  V30 4589 H 442.863 2.36518 3.48765 0
M  V30 4590 H 441.538 1.28708 2.97012 0
M  V30 4591 H 440.445 3.28325 1.79314 0
M  V30 4592 H 441.778 4.31027 2.37647 0
M  V30 4593 N 443.43 -0.535701 1.48216 0
M  V30 4594 C 444.393 -1.623 1.61838 0
M  V30 4595 C 445.393 -1.53087 0.492024 0
M  V30 4596 O 446.583 -1.5686 0.757668 0
M  V30 4597 C 443.715 -3.01907 1.58319 0
M  V30 4598 H 444.908 -1.51564 2.58783 0
M  V30 4599 H 442.461 -0.757317 1.36727 0
M  V30 4600 H 443.196 -3.18155 0.628299 0
M  V30 4601 H 442.981 -3.10003 2.40085 0
M  V30 4602 H 444.471 -3.80969 1.71033 0
M  V30 4603 N 444.908 -1.36708 -0.784132 0
M  V30 4604 C 446.156 -1.30972 -1.53918 0
M  V30 4605 C 446.477 0.109086 -1.94695 0
M  V30 4606 O 445.747 1.05048 -1.65353 0
M  V30 4607 H 444.327 -0.481819 -0.570841 0
M  V30 4608 H 446.989 -1.71063 -0.934002 0
M  V30 4609 H 446.085 -1.94061 -2.44431 0
M  V30 4610 N 446.386 1.0089 -1.21074 0
M  V30 4611 C 447.626 1.76142 -1.03699 0
M  V30 4612 C 447.99 1.87292 0.422587 0
M  V30 4613 O 449.191 2.59068 0.716752 0
M  V30 4614 C 447.462 3.13805 -1.7106 0
M  V30 4615 S 449.021 4.04996 -1.68889 0
M  V30 4616 H 445.839 0.606113 -0.371683 0
M  V30 4617 H 448.441 1.20744 -1.53756 0
M  V30 4618 H 447.145 3.0332 -2.76451 0
M  V30 4619 H 446.676 3.74276 -1.21166 0
M  V30 4620 H 448.691 4.90842 -0.727211 0
M  V30 4621 N 447.864 1.01787 1.20321 0
M  V30 4622 C 449.111 0.707936 1.89722 0
M  V30 4623 C 449.439 -0.762535 1.78929 0
M  V30 4624 O 448.694 -1.56977 1.16861 0
M  V30 4625 C 448.993 1.09076 3.40349 0
M  V30 4626 C 448.659 2.55765 3.71342 0
M  V30 4627 C 447.321 2.95845 3.79511 0
M  V30 4628 C 449.673 3.50723 3.85542 0
M  V30 4629 C 447.001 4.2982 3.99339 0
M  V30 4630 C 449.353 4.84387 4.06881 0
M  V30 4631 C 448.017 5.24172 4.1328 0
M  V30 4632 H 447.287 0.259052 0.694243 0
M  V30 4633 H 449.934 1.27868 1.42555 0
M  V30 4634 H 448.239 0.438453 3.89339 0
M  V30 4635 H 449.936 0.828636 3.92345 0
M  V30 4636 H 446.526 2.2371 3.65584 0
M  V30 4637 H 450.71 3.20916 3.78585 0
M  V30 4638 H 445.966 4.60196 4.02529 0
M  V30 4639 H 450.14 5.57891 4.1681 0
M  V30 4640 H 447.767 6.27997 4.28396 0
M  V30 4641 N 449.342 -1.36122 0.79427 0
M  V30 4642 C 450.275 -2.27759 0.141845 0
M  V30 4643 C 451.253 -1.47471 -0.684921 0
M  V30 4644 O 452.437 -1.76759 -0.654857 0
M  V30 4645 C 449.564 -3.29008 -0.804446 0
M  V30 4646 C 448.61 -4.26459 -0.0588617 0
M  V30 4647 S 449.443 -5.20253 1.26873 0
M  V30 4648 C 450.599 -6.25048 0.326562 0
M  V30 4649 H 450.832 -2.82746 0.918818 0
M  V30 4650 H 448.365 -1.42736 0.588722 0
M  V30 4651 H 450.323 -3.87842 -1.34495 0
M  V30 4652 H 448.984 -2.72924 -1.5547 0
M  V30 4653 H 448.177 -4.97973 -0.777087 0
M  V30 4654 H 447.779 -3.71731 0.411309 0
M  V30 4655 H 450.071 -6.75705 -0.492795 0
M  V30 4656 H 451.014 -7.00852 1.01053 0
M  V30 4657 H 451.422 -5.64454 -0.0722627 0
M  V30 4658 N 450.82 -0.546701 -1.47814 0
M  V30 4659 C 451.77 0.227042 -2.26867 0
M  V30 4660 C 452.754 0.894844 -1.33721 0
M  V30 4661 O 453.946 0.794887 -1.58147 0
M  V30 4662 C 451.075 1.26299 -3.19223 0
M  V30 4663 C 450.161 0.59913 -4.19847 0
M  V30 4664 N 450.552 -0.324777 -5.04756 0
M  V30 4665 C 448.85 0.854331 -4.37741 0
M  V30 4666 C 449.551 -0.709386 -5.77358 0
M  V30 4667 N 448.527 -0.0666153 -5.43559 0
M  V30 4668 H 452.329 -0.483476 -2.89896 0
M  V30 4669 H 449.843 -0.365893 -1.58224 0
M  V30 4670 H 451.84 1.83116 -3.74532 0
M  V30 4671 H 450.5 1.97471 -2.57751 0
M  V30 4672 H 451.511 -0.698351 -5.1317 0
M  V30 4673 H 448.188 1.55536 -3.87447 0
M  V30 4674 H 449.578 -1.46796 -6.55668 0
M  V30 4675 N 452.299 1.55045 -0.282633 0
M  V30 4676 C 453.547 1.99365 0.331334 0
M  V30 4677 C 453.868 1.1725 1.55812 0
M  V30 4678 O 453.138 0.263871 1.94115 0
M  V30 4679 H 451.718 0.736397 0.125414 0
M  V30 4680 H 454.38 1.90964 -0.389711 0
M  V30 4681 H 453.476 3.0596 0.616036 0
M  V30 4682 N 453.777 0.010035 1.57597 0
M  V30 4683 C 455.188 -0.531426 1.78977 0
M  V30 4684 C 455.539 -1.73375 0.918454 0
M  V30 4685 O 454.664 -2.16047 0.123635 0
M  V30 4686 C 455.259 -0.97086 3.24592 0
M  V30 4687 C 453.818 -1.45756 3.47033 0
M  V30 4688 C 452.965 -0.413384 2.74201 0
M  V30 4689 H 455.916 0.236166 1.56933 0
M  V30 4690 H 455.937 -1.83633 3.33255 0
M  V30 4691 H 455.449 -0.0955893 3.87982 0
M  V30 4692 H 453.55 -2.35339 2.88871 0
M  V30 4693 H 453.663 -1.4781 4.55729 0
M  V30 4694 H 452.027 -0.877266 2.39115 0
M  V30 4695 H 452.81 0.453092 3.40297 0
M  V30 4696 N 455.255 -1.55392 -0.262866 0
M  V30 4697 C 456.483 -1.80513 -1.01108 0
M  V30 4698 C 456.898 -0.583533 -1.79556 0
M  V30 4699 O 456.255 0.447585 -1.76926 0
M  V30 4700 C 456.306 -3.03648 -1.96164 0
M  V30 4701 O 456.027 -4.2109 -1.20893 0
M  V30 4702 C 457.528 -3.41448 -2.82715 0
M  V30 4703 H 454.748 -0.601079 -0.298236 0
M  V30 4704 H 457.292 -2.02425 -0.290582 0
M  V30 4705 H 455.447 -2.83832 -2.63663 0
M  V30 4706 H 455.861 -4.90771 -1.85051 0
M  V30 4707 H 457.335 -4.30751 -3.45192 0
M  V30 4708 H 457.812 -2.61308 -3.53008 0
M  V30 4709 H 458.418 -3.63559 -2.20693 0
M  V30 4710 N 456.733 0.527833 -1.48498 0
M  V30 4711 C 457.98 1.28354 -1.56625 0
M  V30 4712 C 458.308 1.93 -0.241096 0
M  V30 4713 O 457.563 1.79967 0.768798 0
M  V30 4714 C 457.862 2.39275 -2.65485 0
M  V30 4715 C 457.528 1.92268 -4.07853 0
M  V30 4716 C 456.19 1.79166 -4.46602 0
M  V30 4717 C 458.542 1.56771 -4.97064 0
M  V30 4718 C 455.87 1.28905 -5.72364 0
M  V30 4719 C 458.222 1.07972 -6.23318 0
M  V30 4720 C 456.886 0.934887 -6.60921 0
M  V30 4721 H 456.156 0.469682 -0.573131 0
M  V30 4722 H 458.803 0.588781 -1.82224 0
M  V30 4723 H 457.108 3.1443 -2.33754 0
M  V30 4724 H 458.805 2.974 -2.68988 0
M  V30 4725 H 455.395 2.03417 -3.77252 0
M  V30 4726 H 459.579 1.65753 -4.67803 0
M  V30 4727 H 454.835 1.16381 -6.00221 0
M  V30 4728 H 459.009 0.795775 -6.91838 0
M  V30 4729 H 456.636 0.543231 -7.58257 0
M  V30 4730 N 458.211 1.37122 0.776871 0
M  V30 4731 C 459.144 1.26835 1.89705 0
M  V30 4732 C 460.122 0.14992 1.61907 0
M  V30 4733 O 461.306 0.323242 1.85708 0
M  V30 4734 C 458.433 0.95986 3.24814 0
M  V30 4735 C 457.479 2.09447 3.7153 0
M  V30 4736 S 458.312 3.71368 3.85806 0
M  V30 4737 C 459.468 3.42659 5.23771 0
M  V30 4738 H 459.701 2.21647 1.98141 0
M  V30 4739 H 457.234 1.22685 0.937433 0
M  V30 4740 H 459.192 0.788696 4.02852 0
M  V30 4741 H 457.853 0.0293137 3.14086 0
M  V30 4742 H 457.046 1.8335 4.69467 0
M  V30 4743 H 456.648 2.2255 3.00578 0
M  V30 4744 H 458.94 2.9733 6.0877 0
M  V30 4745 H 459.883 4.39905 5.54878 0
M  V30 4746 H 460.291 2.77708 4.91466 0
M  V30 4747 N 459.689 -1.00246 1.21608 0
M  V30 4748 C 460.937 -1.73717 1.0328 0
M  V30 4749 C 461.258 -1.90102 -0.434318 0
M  V30 4750 O 460.528 -1.45376 -1.31311 0
M  V30 4751 H 459.108 -0.643613 0.379172 0
M  V30 4752 H 461.77 -1.20787 1.52959 0
M  V30 4753 H 460.866 -2.73535 1.50283 0
M  V30 4754 N 461.167 -1.02423 -1.1978 0
M  V30 4755 C 462.115 -0.594474 -2.24875 0
M  V30 4756 C 463.109 0.370598 -1.65296 0
M  V30 4757 O 464.315 0.239684 -1.78397 0
M  V30 4758 H 460.69 -0.173961 -0.731602 0
M  V30 4759 H 462.661 -1.4916 -2.58445 0
M  V30 4760 C 461.41 0.0436512 -3.47673 0
M  V30 4761 H 460.733 -0.689963 -3.93801 0
M  V30 4762 H 462.173 0.307362 -4.22884 0
M  V30 4763 C 460.632 1.28881 -3.11274 0
M  V30 4764 O 461.162 2.38135 -3.23503 0
M  V30 4765 N 459.368 1.1758 -2.6575 0
M  V30 4766 H 458.915 0.286769 -2.55999 0
M  V30 4767 H 458.873 2.00988 -2.41767 0
M  V30 4768 N 462.645 1.35699 -0.801477 0
M  V30 4769 C 464.056 1.81415 -0.441073 0
M  V30 4770 C 464.407 1.66595 1.03636 0
M  V30 4771 O 463.532 1.19369 1.80499 0
M  V30 4772 C 464.127 3.29369 -0.793819 0
M  V30 4773 C 462.686 3.73248 -0.486083 0
M  V30 4774 C 461.833 2.57775 -1.02213 0
M  V30 4775 H 464.784 1.23749 -0.993572 0
M  V30 4776 H 464.805 3.80395 -0.0894158 0
M  V30 4777 H 464.317 3.40123 -1.86917 0
M  V30 4778 H 462.418 3.68046 0.580735 0
M  V30 4779 H 462.531 4.68222 -1.01513 0
M  V30 4780 H 460.895 2.50788 -0.444712 0
M  V30 4781 H 461.678 2.71309 -2.10348 0
M  V30 4782 N 464.123 0.554532 1.47522 0
M  V30 4783 C 465.053 -0.182974 2.32782 0
M  V30 4784 C 466.034 -0.911377 1.43624 0
M  V30 4785 O 467.219 -0.892366 1.72483 0
M  V30 4786 C 464.349 -1.21513 3.25349 0
M  V30 4787 C 463.303 -0.603355 4.23726 0
M  V30 4788 C 462.629 -1.73995 5.05598 0
M  V30 4789 C 463.929 0.441121 5.20434 0
M  V30 4790 H 465.623 0.52882 2.94693 0
M  V30 4791 H 463.169 0.255759 1.41711 0
M  V30 4792 H 465.122 -1.73922 3.83835 0
M  V30 4793 H 463.846 -1.95683 2.61487 0
M  V30 4794 H 462.505 -0.10059 3.66462 0
M  V30 4795 H 462.153 -2.47063 4.38143 0
M  V30 4796 H 461.853 -1.3364 5.72201 0
M  V30 4797 H 463.377 -2.26735 5.66942 0
M  V30 4798 H 464.791 0.00319931 5.733 0
M  V30 4799 H 463.188 0.763402 5.95224 0
M  V30 4800 H 464.258 1.33799 4.66075 0
M  V30 4801 N 465.601 -1.54893 0.290851 0
M  V30 4802 C 466.564 -2.21824 -0.576784 0
M  V30 4803 C 467.564 -1.20104 -1.06919 0
M  V30 4804 O 468.754 -1.44906 -0.966843 0
M  V30 4805 C 465.886 -2.89662 -1.79747 0
M  V30 4806 H 467.079 -2.99899 0.00784051 0
M  V30 4807 H 464.632 -1.56245 0.0415934 0
M  V30 4808 H 465.367 -2.15639 -2.42219 0
M  V30 4809 H 465.152 -3.64219 -1.45214 0
M  V30 4810 H 466.642 -3.4075 -2.4141 0
M  V30 4811 N 467.08 -0.0183926 -1.57589 0
M  V30 4812 C 468.32 0.666846 -1.93216 0
M  V30 4813 C 468.684 1.69905 -0.894215 0
M  V30 4814 O 469.885 2.436 -1.13633 0
M  V30 4815 C 468.156 1.27684 -3.33814 0
M  V30 4816 S 469.715 1.98464 -3.91353 0
M  V30 4817 H 466.533 0.219826 -0.676164 0
M  V30 4818 H 469.135 -0.0794893 -1.95338 0
M  V30 4819 H 467.839 0.513006 -4.07181 0
M  V30 4820 H 467.37 2.06071 -3.3511 0
M  V30 4821 H 469.385 3.26189 -3.73918 0
M  V30 4822 N 468.558 1.5553 0.254621 0
M  V30 4823 C 469.521 1.88872 1.29846 0
M  V30 4824 C 470.521 0.764591 1.41459 0
M  V30 4825 O 471.711 1.03265 1.40293 0
M  V30 4826 C 468.843 2.11032 2.67728 0
M  V30 4827 H 470.036 2.82201 1.01502 0
M  V30 4828 H 467.589 1.48303 0.493556 0
M  V30 4829 H 468.324 1.20146 3.01223 0
M  V30 4830 H 468.109 2.92895 2.60682 0
M  V30 4831 H 469.599 2.38038 3.43115 0
M  V30 4832 N 470.036 -0.519951 1.48776 0
M  V30 4833 C 470.999 -1.60574 1.6355 0
M  V30 4834 C 471.999 -1.52557 0.508234 0
M  V30 4835 O 473.189 -1.56047 0.774262 0
M  V30 4836 C 470.321 -3.00211 1.61512 0
M  V30 4837 H 471.514 -1.4881 2.60376 0
M  V30 4838 H 469.067 -0.742772 1.37523 0
M  V30 4839 H 469.802 -3.17471 0.662009 0
M  V30 4840 H 469.587 -3.07439 2.43359 0
M  V30 4841 H 471.077 -3.79134 1.75064 0
M  V30 4842 N 471.514 -1.37532 -0.769588 0
M  V30 4843 C 472.477 -1.33292 -1.86456 0
M  V30 4844 C 473.477 -0.236537 -1.59051 0
M  V30 4845 O 474.667 -0.492511 -1.67093 0
M  V30 4846 C 471.799 -1.07118 -3.23633 0
M  V30 4847 H 472.992 -2.30692 -1.91628 0
M  V30 4848 H 470.545 -1.22593 -0.969572 0
M  V30 4849 H 471.28 -0.102578 -3.24138 0
M  V30 4850 H 471.065 -1.86479 -3.44917 0
M  V30 4851 H 472.555 -1.06806 -4.03711 0
M  V30 4852 N 472.992 0.995999 -1.22138 0
M  V30 4853 C 473.94 2.10673 -0.985876 0
M  V30 4854 C 474.934 1.69255 0.0699553 0
M  V30 4855 O 476.14 1.79812 -0.0822176 0
M  V30 4856 H 472.515 0.688865 -0.30161 0
M  V30 4857 H 474.486 2.27711 -1.92848 0
M  V30 4858 C 473.235 3.42881 -0.576909 0
M  V30 4859 H 472.558 3.75191 -1.38101 0
M  V30 4860 H 473.998 4.21589 -0.451518 0
M  V30 4861 C 472.457 3.29265 0.713196 0
M  V30 4862 O 472.987 3.60777 1.76643 0
M  V30 4863 N 471.193 2.82456 0.683162 0
M  V30 4864 H 470.74 2.5701 -0.174242 0
M  V30 4865 H 470.698 2.73727 1.54663 0
M  V30 4866 N 474.47 1.03057 1.19235 0
M  V30 4867 C 475.433 0.617418 2.20727 0
M  V30 4868 C 476.433 -0.319856 1.57587 0
M  V30 4869 O 477.623 -0.106633 1.73873 0
M  V30 4870 C 474.755 -0.096296 3.40764 0
M  V30 4871 H 475.948 1.51544 2.58794 0
M  V30 4872 H 473.501 0.821949 1.32942 0
M  V30 4873 H 474.236 -1.00859 3.08217 0
M  V30 4874 H 474.021 0.577217 3.87828 0
M  V30 4875 H 475.511 -0.372219 4.15938 0
M  V30 4876 N 475.948 -1.35272 0.808662 0
M  V30 4877 C 477.173 -2.03477 0.401475 0
M  V30 4878 C 477.598 -1.60537 -0.980279 0
M  V30 4879 O 476.956 -0.78304 -1.63518 0
M  V30 4880 C 477.004 -3.57181 0.495354 0
M  V30 4881 O 476.108 -4.09474 -0.490397 0
M  V30 4882 H 475.449 -0.642561 0.167366 0
M  V30 4883 H 477.979 -1.72824 1.09512 0
M  V30 4884 H 477.989 -4.06356 0.365912 0
M  V30 4885 H 476.664 -3.87784 1.5032 0
M  V30 4886 H 475.241 -3.71516 -0.321023 0
M  V30 4887 N 477.426 -0.562348 -1.47226 0
M  V30 4888 C 478.356 0.170627 -2.32876 0
M  V30 4889 C 479.337 0.903748 -1.44106 0
M  V30 4890 O 480.522 0.883206 -1.72954 0
M  V30 4891 C 477.652 1.19786 -3.25989 0
M  V30 4892 C 476.606 0.580875 -4.2404 0
M  V30 4893 C 475.932 1.71311 -5.06514 0
M  V30 4894 C 477.232 -0.468714 -5.20193 0
M  V30 4895 H 478.926 -0.544441 -2.94408 0
M  V30 4896 H 476.472 -0.263271 -1.41573 0
M  V30 4897 H 478.425 1.71884 -3.84752 0
M  V30 4898 H 477.149 1.94294 -2.62521 0
M  V30 4899 H 475.808 0.0811538 -3.6651 0
M  V30 4900 H 475.456 2.44736 -4.39447 0
M  V30 4901 H 475.156 1.30604 -5.72902 0
M  V30 4902 H 476.68 2.23725 -5.68137 0
M  V30 4903 H 478.094 -0.0336028 -5.7329 0
M  V30 4904 H 476.491 -0.794957 -5.94811 0
M  V30 4905 H 477.561 -1.36269 -4.65359 0
M  V30 4906 N 478.904 1.54736 -0.299062 0
M  V30 4907 C 479.867 2.22127 0.565012 0
M  V30 4908 C 480.867 1.20669 1.06281 0
M  V30 4909 O 482.057 1.45417 0.959145 0
M  V30 4910 C 479.189 2.90611 1.78208 0
M  V30 4911 H 480.382 2.99891 -0.0237448 0
M  V30 4912 H 477.935 1.5622 -0.0498788 0
M  V30 4913 H 478.67 2.16921 2.41072 0
M  V30 4914 H 478.455 3.64984 1.43281 0
M  V30 4915 H 479.945 3.42026 2.396 0
M  V30 4916 N 480.382 0.0267497 1.57577 0
M  V30 4917 C 481.631 -0.651736 1.9088 0
M  V30 4918 C 481.944 -1.73427 0.904576 0
M  V30 4919 O 483.15 -2.46923 1.12877 0
M  V30 4920 C 481.606 -1.21048 3.38933 0
M  V30 4921 C 481.214 -0.161362 4.47709 0
M  V30 4922 C 482.958 -1.86562 3.81307 0
M  V30 4923 C 480.865 -0.731611 5.86857 0
M  V30 4924 H 479.795 -0.247198 0.712326 0
M  V30 4925 H 482.446 0.0916641 1.83271 0
M  V30 4926 H 480.828 -2.00542 3.41466 0
M  V30 4927 H 482.002 0.61094 4.56732 0
M  V30 4928 H 480.317 0.394877 4.14523 0
M  V30 4929 H 482.914 -2.30178 4.8262 0
M  V30 4930 H 483.257 -2.70735 3.16241 0
M  V30 4931 H 483.79 -1.13762 3.81186 0
M  V30 4932 H 480.529 0.0719329 6.55461 0
M  V30 4933 H 480.049 -1.47245 5.81445 0
M  V30 4934 H 481.728 -1.22208 6.35354 0
M  V30 4935 N 481.861 -1.55662 -0.24637 0
M  V30 4936 C 482.791 -1.93377 -1.30873 0
M  V30 4937 C 483.772 -0.798773 -1.50179 0
M  V30 4938 O 484.957 -1.0591 -1.62778 0
M  V30 4939 C 482.087 -2.22893 -2.66338 0
M  V30 4940 C 481.041 -3.38649 -2.61727 0
M  V30 4941 C 480.367 -3.53708 -4.00992 0
M  V30 4942 C 481.667 -4.74323 -2.18666 0
M  V30 4943 H 483.361 -2.82363 -0.995552 0
M  V30 4944 H 480.907 -1.35854 -0.477464 0
M  V30 4945 H 482.86 -2.47866 -3.40794 0
M  V30 4946 H 481.584 -1.30733 -2.99293 0
M  V30 4947 H 480.243 -3.13685 -1.89729 0
M  V30 4948 H 479.891 -2.58967 -4.31214 0
M  V30 4949 H 479.591 -4.31551 -3.98795 0
M  V30 4950 H 481.115 -3.81003 -4.77147 0
M  V30 4951 H 482.529 -4.98665 -2.82854 0
M  V30 4952 H 480.926 -5.55273 -2.27579 0
M  V30 4953 H 481.996 -4.71349 -1.13834 0
M  V30 4954 N 483.339 0.512053 -1.4905 0
M  V30 4955 C 484.249 1.64139 -1.67617 0
M  V30 4956 C 485.265 1.64786 -0.558701 0
M  V30 4957 O 486.441 1.8341 -0.832034 0
M  V30 4958 C 483.506 3.00548 -1.72835 0
M  V30 4959 C 482.567 3.10615 -2.96339 0
M  V30 4960 C 481.8 4.40517 -3.01298 0
M  V30 4961 O 482.023 5.28671 -2.14157 0
M  V30 4962 O 480.957 4.55325 -3.93653 0
M  V30 4963 H 484.783 1.51407 -2.63267 0
M  V30 4964 H 482.368 0.687131 -1.32661 0
M  V30 4965 H 484.25 3.81641 -1.78683 0
M  V30 4966 H 482.925 3.13566 -0.803616 0
M  V30 4967 H 481.832 2.2875 -2.96014 0
M  V30 4968 H 483.165 3.0252 -3.88256 0
M  V30 4969 N 484.817 1.37938 0.762283 0
M  V30 4970 C 486.042 1.37059 1.55659 0
M  V30 4971 C 486.467 -0.0396123 1.88058 0
M  V30 4972 O 485.825 -1.01929 1.49934 0
M  V30 4973 C 485.873 2.22494 2.83776 0
M  V30 4974 O 484.977 1.63607 3.78559 0
M  V30 4975 H 484.318 0.467892 0.47114 0
M  V30 4976 H 486.848 1.81587 0.942725 0
M  V30 4977 H 486.858 2.36045 3.32786 0
M  V30 4978 H 485.533 3.24993 2.59524 0
M  V30 4979 H 484.11 1.5915 3.37233 0
M  V30 4980 N 486.295 -0.989507 1.22664 0
M  V30 4981 C 487.543 -1.72612 1.05117 0
M  V30 4982 C 487.864 -1.90552 -0.414131 0
M  V30 4983 O 487.134 -1.4676 -1.29762 0
M  V30 4984 H 485.714 -0.639555 0.385977 0
M  V30 4985 H 488.376 -1.19158 1.54232 0
M  V30 4986 H 487.472 -2.71926 1.53175 0
M  V30 4987 N 487.773 -1.03688 -1.18687 0
M  V30 4988 C 489.05 -0.652397 -1.84399 0
M  V30 4989 C 489.43 0.868386 -1.92412 0
M  V30 4990 O 488.778 1.76832 -1.44716 0
M  V30 4991 C 488.988 -1.3238 -3.22919 0
M  V30 4992 C 490.336 -1.45216 -3.98996 0
M  V30 4993 O 491.36 -1.2816 -3.32345 0
M  V30 4994 O 490.219 -1.72975 -5.18403 0
M  V30 4995 H 487.313 -0.227793 -0.795009 0
M  V30 4996 H 489.859 -1.13553 -1.2611 0
M  V30 4997 H 488.631 -2.36202 -3.11968 0
M  V30 4998 H 488.254 -0.829039 -3.88861 0
M  V30 4999 N 489.251 1.34841 -0.815825 0
M  V30 5000 C 490.497 1.99219 -0.410288 0
M  V30 5001 C 490.852 1.63532 1.01366 0
M  V30 5002 O 490.145 0.893093 1.69512 0
M  V30 5003 C 490.339 3.53273 -0.541541 0
M  V30 5004 C 490.168 4.03927 -1.9767 0
M  V30 5005 C 488.938 4.32852 -2.60706 0
M  V30 5006 C 491.136 4.21808 -2.9425 0
M  V30 5007 N 489.118 4.69494 -3.95536 0
M  V30 5008 C 490.489 4.6155 -4.13971 0
M  V30 5009 C 492.544 4.04038 -2.9096 0
M  V30 5010 C 491.247 4.85381 -5.30847 0
M  V30 5011 C 493.273 4.29031 -4.07046 0
M  V30 5012 C 492.635 4.69054 -5.25517 0
M  V30 5013 H 488.734 0.756494 -0.198094 0
M  V30 5014 H 491.318 1.63379 -1.05902 0
M  V30 5015 H 489.489 3.88323 0.0772544 0
M  V30 5016 H 491.221 4.04551 -0.109694 0
M  V30 5017 H 487.976 4.23503 -2.11995 0
M  V30 5018 H 488.4 4.92061 -4.64979 0
M  V30 5019 H 493.042 3.7223 -2.00512 0
M  V30 5020 H 490.76 5.16059 -6.21859 0
M  V30 5021 H 494.346 4.16826 -4.05891 0
M  V30 5022 H 493.226 4.88014 -6.1385 0
M  V30 5023 N 490.729 0.570148 1.46925 0
M  V30 5024 C 491.661 -0.207909 2.28255 0
M  V30 5025 C 492.674 -0.867301 1.37774 0
M  V30 5026 O 493.863 -0.738976 1.62485 0
M  V30 5027 C 490.963 -1.31298 3.12433 0
M  V30 5028 C 490.136 -0.747915 4.30958 0
M  V30 5029 C 489.195 -1.7391 4.9663 0
M  V30 5030 O 488.221 -1.2801 5.54619 0
M  V30 5031 N 489.423 -3.07288 4.92498 0
M  V30 5032 H 492.188 0.489794 2.95671 0
M  V30 5033 H 489.749 0.407076 1.56699 0
M  V30 5034 H 491.741 -1.97507 3.53232 0
M  V30 5035 H 490.311 -1.91373 2.47175 0
M  V30 5036 H 489.531 0.0913066 3.94094 0
M  V30 5037 H 490.819 -0.349958 5.07595 0
M  V30 5038 H 490.217 -3.47213 4.46609 0
M  V30 5039 H 488.774 -3.69021 5.37277 0
M  V30 5040 N 492.207 -1.54576 0.307264 0
M  V30 5041 C 493.139 -2.21212 -0.599807 0
M  V30 5042 C 494.152 -1.20685 -1.09266 0
M  V30 5043 O 495.341 -1.47244 -1.00903 0
M  V30 5044 C 492.441 -2.84994 -1.83389 0
M  V30 5045 C 491.614 -4.11511 -1.48248 0
M  V30 5046 C 490.673 -4.59038 -2.57237 0
M  V30 5047 O 489.699 -5.24095 -2.22065 0
M  V30 5048 N 490.901 -4.31884 -3.87887 0
M  V30 5049 H 493.666 -2.99686 -0.0293075 0
M  V30 5050 H 491.227 -1.61379 0.129738 0
M  V30 5051 H 493.219 -3.1372 -2.5566 0
M  V30 5052 H 491.789 -2.10324 -2.31263 0
M  V30 5053 H 491.009 -3.89728 -0.592122 0
M  V30 5054 H 492.297 -4.93879 -1.22316 0
M  V30 5055 H 491.695 -3.79778 -4.19268 0
M  V30 5056 H 490.252 -4.65304 -4.56438 0
M  V30 5057 N 493.685 -0.035106 -1.57561 0
M  V30 5058 C 494.617 0.973604 -2.07494 0
M  V30 5059 C 495.63 1.28504 -0.999534 0
M  V30 5060 O 496.819 1.24864 -1.27559 0
M  V30 5061 C 493.919 2.29945 -2.48955 0
M  V30 5062 C 493.092 2.1723 -3.79644 0
M  V30 5063 C 492.151 3.328 -4.07592 0
M  V30 5064 O 491.177 3.09418 -4.77754 0
M  V30 5065 N 492.379 4.56779 -3.58236 0
M  V30 5066 H 495.144 0.547525 -2.94656 0
M  V30 5067 H 492.705 0.151515 -1.61189 0
M  V30 5068 H 494.697 3.06097 -2.64739 0
M  V30 5069 H 493.267 2.64173 -1.67126 0
M  V30 5070 H 492.487 1.25768 -3.73599 0
M  V30 5071 H 493.775 2.05945 -4.65257 0
M  V30 5072 H 493.173 4.78668 -3.01485 0
M  V30 5073 H 491.73 5.30079 -3.79288 0
M  V30 5074 N 495.163 1.55791 0.238111 0
M  V30 5075 C 496.409 1.78297 0.966337 0
M  V30 5076 C 496.742 0.601903 1.84637 0
M  V30 5077 O 496.017 -0.399499 1.90353 0
M  V30 5078 C 496.3 3.10758 1.81939 0
M  V30 5079 C 496.153 4.39283 0.966958 0
M  V30 5080 C 497.472 3.39519 2.80027 0
M  V30 5081 H 494.591 0.648654 0.349882 0
M  V30 5082 H 497.233 1.88525 0.236253 0
M  V30 5083 H 495.383 3.02168 2.44185 0
M  V30 5084 H 497.055 4.59873 0.362514 0
M  V30 5085 H 495.298 4.32948 0.271669 0
M  V30 5086 H 495.969 5.28368 1.59784 0
M  V30 5087 H 498.445 3.48128 2.27917 0
M  V30 5088 H 497.321 4.33402 3.36829 0
M  V30 5089 H 497.582 2.60864 3.56934 0
M  V30 5090 N 496.642 -0.504142 1.49319 0
M  V30 5091 C 497.605 -1.5883 1.65244 0
M  V30 5092 C 498.605 -1.52009 0.524386 0
M  V30 5093 O 499.795 -1.55218 0.79077 0
M  V30 5094 C 496.927 -2.98481 1.64687 0
M  V30 5095 H 498.12 -1.4604 2.61939 0
M  V30 5096 H 495.673 -0.728144 1.38303 0
M  V30 5097 H 496.408 -3.16751 0.695644 0
M  V30 5098 H 496.193 -3.0484 2.46607 0
M  V30 5099 H 497.683 -3.77256 1.79075 0
M  V30 5100 N 498.12 -1.38341 -0.754957 0
M  V30 5101 C 499.397 -1.24995 -1.50451 0
M  V30 5102 C 499.777 0.149244 -2.10572 0
M  V30 5103 O 499.125 1.15861 -1.96948 0
M  V30 5104 C 499.335 -2.35904 -2.57197 0
M  V30 5105 C 500.683 -2.74262 -3.24138 0
M  V30 5106 O 501.707 -2.35205 -2.67501 0
M  V30 5107 O 500.566 -3.4161 -4.26574 0
M  V30 5108 H 497.66 -0.48872 -0.667144 0
M  V30 5109 H 500.206 -1.50165 -0.790486 0
M  V30 5110 H 498.978 -3.2953 -2.11011 0
M  V30 5111 H 498.601 -2.12291 -3.36182 0
M  V30 5112 N 499.598 0.982988 -1.23187 0
M  V30 5113 C 500.847 1.71817 -1.05649 0
M  V30 5114 C 501.16 1.91315 0.407176 0
M  V30 5115 O 502.366 2.62256 0.702436 0
M  V30 5116 C 500.822 3.09188 -1.84203 0
M  V30 5117 C 500.43 2.97586 -3.34882 0
M  V30 5118 C 502.174 3.86684 -1.75146 0
M  V30 5119 C 500.081 4.30173 -4.05839 0
M  V30 5120 H 499.011 0.644258 -0.391724 0
M  V30 5121 H 501.662 1.09659 -1.4713 0
M  V30 5122 H 500.044 3.72087 -1.35527 0
M  V30 5123 H 501.218 2.43793 -3.91026 0
M  V30 5124 H 499.533 2.33567 -3.44725 0
M  V30 5125 H 502.13 4.84836 -2.25473 0
M  V30 5126 H 502.473 4.10136 -0.713737 0
M  V30 5127 H 503.006 3.30482 -2.21419 0
M  V30 5128 H 499.745 4.11918 -5.09906 0
M  V30 5129 H 499.265 4.83841 -3.54482 0
M  V30 5130 H 500.944 4.98873 -4.11989 0
M  V30 5131 N 501.076 1.04316 1.18135 0
M  V30 5132 C 501.986 0.646876 2.25505 0
M  V30 5133 C 503.002 -0.328008 1.7088 0
M  V30 5134 O 504.178 -0.182309 2.00573 0
M  V30 5135 C 501.243 0.0185664 3.46695 0
M  V30 5136 C 500.304 1.04277 4.16443 0
M  V30 5137 C 499.537 0.444352 5.31847 0
M  V30 5138 O 499.76 -0.748735 5.65465 0
M  V30 5139 O 498.694 1.17428 5.90334 0
M  V30 5140 H 502.52 1.54147 2.61672 0
M  V30 5141 H 500.105 0.814188 1.25265 0
M  V30 5142 H 501.987 -0.331068 4.20097 0
M  V30 5143 H 500.662 -0.849814 3.12346 0
M  V30 5144 H 499.569 1.44425 3.45098 0
M  V30 5145 H 500.902 1.882 4.54798 0
M  V30 5146 N 502.554 -1.34406 0.822964 0
M  V30 5147 C 503.8 -1.98578 0.411666 0
M  V30 5148 C 504.133 -1.65093 -1.02264 0
M  V30 5149 O 503.408 -0.92258 -1.71227 0
M  V30 5150 C 503.691 -3.54823 0.614235 0
M  V30 5151 C 503.544 -3.9805 2.09466 0
M  V30 5152 C 504.863 -4.40071 0.050221 0
M  V30 5153 H 501.982 -0.721355 0.151047 0
M  V30 5154 H 504.624 -1.59301 1.03554 0
M  V30 5155 H 502.774 -3.88411 0.0831774 0
M  V30 5156 H 504.446 -3.74795 2.68936 0
M  V30 5157 H 502.689 -3.4836 2.5851 0
M  V30 5158 H 503.36 -5.06819 2.18721 0
M  V30 5159 H 505.836 -4.13037 0.503953 0
M  V30 5160 H 504.712 -5.48452 0.221759 0
M  V30 5161 H 504.973 -4.29576 -1.04482 0
M  V30 5162 N 504.032 -0.577932 -1.46621 0
M  V30 5163 C 504.964 0.195801 -2.28362 0
M  V30 5164 C 505.977 0.859983 -1.38232 0
M  V30 5165 O 507.166 0.730349 -1.62875 0
M  V30 5166 C 504.266 1.29639 -3.13124 0
M  V30 5167 C 503.439 0.725049 -4.31349 0
M  V30 5168 C 502.498 1.71274 -4.97546 0
M  V30 5169 O 501.524 1.25067 -5.5529 0
M  V30 5170 N 502.726 3.04672 -4.94121 0
M  V30 5171 H 505.491 -0.505468 -2.95407 0
M  V30 5172 H 503.052 -0.415381 -1.56481 0
M  V30 5173 H 505.044 1.95631 -3.54275 0
M  V30 5174 H 503.614 1.90059 -2.48186 0
M  V30 5175 H 502.834 -0.112205 -3.9404 0
M  V30 5176 H 504.122 0.323034 -5.07774 0
M  V30 5177 H 503.52 3.4484 -4.48444 0
M  V30 5178 H 502.077 3.66166 -5.39227 0
M  V30 5179 N 505.51 1.54411 -0.315457 0
M  V30 5180 C 506.44 2.27002 0.547039 0
M  V30 5181 C 507.421 1.27492 1.12605 0
M  V30 5182 O 508.606 1.5629 1.15269 0
M  V30 5183 C 505.736 3.02171 1.71201 0
M  V30 5184 C 504.69 4.0895 1.26268 0
M  V30 5185 C 504.016 4.71915 2.51396 0
M  V30 5186 C 505.316 5.20891 0.383419 0
M  V30 5187 H 507.01 2.99343 -0.0584517 0
M  V30 5188 H 504.556 1.4397 -0.0295527 0
M  V30 5189 H 506.509 3.51681 2.32161 0
M  V30 5190 H 505.233 2.27433 2.34397 0
M  V30 5191 H 503.892 3.60312 0.676062 0
M  V30 5192 H 503.54 3.93801 3.12937 0
M  V30 5193 H 503.24 5.44039 2.22026 0
M  V30 5194 H 504.764 5.24195 3.13133 0
M  V30 5195 H 506.178 5.66206 0.899082 0
M  V30 5196 H 504.575 5.99821 0.182857 0
M  V30 5197 H 505.645 4.81324 -0.587821 0
M  V30 5198 N 506.988 0.0434614 1.5754 0
M  V30 5199 C 508.404 -0.313039 1.565 0
M  V30 5200 C 508.604 -1.71954 1.05043 0
M  V30 5201 O 507.66 -2.425 0.703564 0
M  V30 5202 C 508.973 -0.148544 3.00333 0
M  V30 5203 C 510.521 -0.220231 3.12224 0
M  V30 5204 C 510.996 -0.0843565 4.57922 0
M  V30 5205 N 512.487 -0.140881 4.62986 0
M  V30 5206 C 513.222 -0.0597443 5.73369 0
M  V30 5207 N 512.718 0.0733004 6.92761 0
M  V30 5208 N 514.511 -0.11477 5.61983 0
M  V30 5209 H 506.662 0.96303 1.89313 0
M  V30 5210 H 508.925 0.373164 0.871466 0
M  V30 5211 H 508.631 0.820894 3.41986 0
M  V30 5212 H 508.505 -0.912798 3.65989 0
M  V30 5213 H 510.892 -1.18014 2.70475 0
M  V30 5214 H 510.973 0.574646 2.49262 0
M  V30 5215 H 510.617 0.872192 5.00355 0
M  V30 5216 H 510.547 -0.898281 5.18882 0
M  V30 5217 H 513.038 -0.243273 3.77116 0
M  V30 5218 H 513.351 0.128128 7.72694 0
M  V30 5219 H 511.696 0.10828 6.94916 0
M  V30 5220 H 514.887 -0.217212 4.67596 0
M  V30 5221 H 515.06 -0.0480779 6.47982 0
M  V30 5222 N 508.466 -1.55915 -0.229846 0
M  V30 5223 C 509.376 -1.94891 -1.30593 0
M  V30 5224 C 510.392 -0.851604 -1.51736 0
M  V30 5225 O 511.568 -1.15447 -1.65027 0
M  V30 5226 C 508.633 -2.25052 -2.63728 0
M  V30 5227 C 507.694 -3.48306 -2.5096 0
M  V30 5228 C 506.927 -3.77019 -3.77747 0
M  V30 5229 O 507.15 -3.07534 -4.80395 0
M  V30 5230 O 506.084 -4.70523 -3.75356 0
M  V30 5231 H 509.91 -2.86581 -1.00525 0
M  V30 5232 H 507.495 -1.43017 -0.432025 0
M  V30 5233 H 509.377 -2.45682 -3.42372 0
M  V30 5234 H 508.052 -1.36538 -2.93495 0
M  V30 5235 H 506.959 -3.32964 -1.70546 0
M  V30 5236 H 508.292 -4.37177 -2.26136 0
M  V30 5237 N 509.944 0.496216 -1.49584 0
M  V30 5238 C 510.876 1.61404 -1.62731 0
M  V30 5239 C 511.889 1.54613 -0.50978 0
M  V30 5240 O 513.078 1.60458 -0.782017 0
M  V30 5241 C 510.178 3.00212 -1.57245 0
M  V30 5242 C 509.351 3.32138 -2.84611 0
M  V30 5243 C 508.41 4.5038 -2.72112 0
M  V30 5244 O 507.436 4.51926 -3.46051 0
M  V30 5245 N 508.638 5.50575 -1.83977 0
M  V30 5246 H 511.403 1.50552 -2.59141 0
M  V30 5247 H 508.964 0.684182 -1.46733 0
M  V30 5248 H 510.956 3.77241 -1.4653 0
M  V30 5249 H 509.526 3.04964 -0.686729 0
M  V30 5250 H 508.746 2.4396 -3.09641 0
M  V30 5251 H 510.034 3.50268 -3.69039 0
M  V30 5252 H 509.432 5.52128 -1.23171 0
M  V30 5253 H 507.989 6.26687 -1.79182 0
M  V30 5254 N 511.423 1.38739 0.74761 0
M  V30 5255 C 512.353 1.39173 1.87492 0
M  V30 5256 C 513.334 0.256794 1.6815 0
M  V30 5257 O 514.519 0.460762 1.88655 0
M  V30 5258 C 511.649 1.22197 3.25093 0
M  V30 5259 C 510.603 2.32957 3.59047 0
M  V30 5260 C 509.929 2.01082 4.95449 0
M  V30 5261 C 511.229 3.75237 3.6331 0
M  V30 5262 H 512.923 2.3351 1.87386 0
M  V30 5263 H 510.469 1.12399 0.900134 0
M  V30 5264 H 512.422 1.21124 4.03617 0
M  V30 5265 H 511.146 0.243241 3.25693 0
M  V30 5266 H 509.805 2.33226 2.82845 0
M  V30 5267 H 509.453 1.01678 4.92616 0
M  V30 5268 H 509.153 2.75267 5.19136 0
M  V30 5269 H 510.677 2.01638 5.76346 0
M  V30 5270 H 512.091 3.76966 4.31937 0
M  V30 5271 H 510.488 4.48677 3.98509 0
M  V30 5272 H 511.558 4.07122 2.634 0
M  V30 5273 N 512.901 -0.976442 1.23707 0
M  V30 5274 C 513.864 -2.0511 1.02287 0
M  V30 5275 C 514.864 -1.60791 -0.0167195 0
M  V30 5276 O 516.054 -1.72761 0.223408 0
M  V30 5277 C 513.186 -3.36458 0.548507 0
M  V30 5278 H 514.379 -2.25545 1.9766 0
M  V30 5279 H 511.932 -1.15042 1.05806 0
M  V30 5280 H 512.667 -3.21713 -0.408818 0
M  V30 5281 H 512.452 -3.69967 1.29874 0
M  V30 5282 H 513.942 -4.15489 0.419406 0
M  V30 5283 N 514.379 -1.04941 -1.1758 0
M  V30 5284 C 515.79 -0.784501 -1.69418 0
M  V30 5285 C 516.141 0.693625 -1.8353 0
M  V30 5286 O 515.266 1.53925 -1.52106 0
M  V30 5287 C 515.861 -1.41746 -3.07723 0
M  V30 5288 C 514.42 -1.20066 -3.56737 0
M  V30 5289 C 513.567 -1.5026 -2.33061 0
M  V30 5290 H 516.518 -1.21469 -1.02133 0
M  V30 5291 H 516.539 -0.825381 -3.7144 0
M  V30 5292 H 516.051 -2.49325 -2.9742 0
M  V30 5293 H 514.152 -0.144006 -3.72322 0
M  V30 5294 H 514.265 -1.90384 -4.39648 0
M  V30 5295 H 512.629 -0.922598 -2.37403 0
M  V30 5296 H 513.412 -2.58967 -2.25368 0
M  V30 5297 N 515.857 1.33968 -0.830081 0
M  V30 5298 C 516.82 2.27694 -0.26235 0
M  V30 5299 C 517.82 1.50589 0.563876 0
M  V30 5300 O 519.01 1.70028 0.378941 0
M  V30 5301 C 516.142 3.35002 0.63138 0
M  V30 5302 H 517.335 2.79419 -1.08928 0
M  V30 5303 H 514.888 1.44221 -0.602486 0
M  V30 5304 H 515.623 2.88504 1.48109 0
M  V30 5305 H 515.408 3.92079 0.0403276 0
M  V30 5306 H 516.898 4.04897 1.02217 0
M  V30 5307 N 517.335 0.585699 1.46312 0
M  V30 5308 C 518.751 0.247607 1.57668 0
M  V30 5309 C 518.951 -1.25007 1.58037 0
M  V30 5310 O 518.007 -2.03196 1.49893 0
M  V30 5311 C 519.32 0.899456 2.86933 0
M  V30 5312 C 520.868 0.873326 3.00569 0
M  V30 5313 C 521.343 1.50477 4.32574 0
M  V30 5314 N 522.834 1.46925 4.3928 0
M  V30 5315 C 523.569 1.92719 5.40044 0
M  V30 5316 N 523.065 2.46499 6.47464 0
M  V30 5317 N 524.858 1.83617 5.31264 0
M  V30 5318 H 517.009 1.55841 1.44317 0
M  V30 5319 H 519.272 0.651564 0.688599 0
M  V30 5320 H 518.978 1.95313 2.92482 0
M  V30 5321 H 518.852 0.409476 3.74971 0
M  V30 5322 H 521.239 -0.171736 2.946 0
M  V30 5323 H 521.32 1.40136 2.13999 0
M  V30 5324 H 520.964 2.54905 4.39302 0
M  V30 5325 H 520.894 0.951944 5.17924 0
M  V30 5326 H 523.385 1.07616 3.62253 0
M  V30 5327 H 523.698 2.79291 7.20567 0
M  V30 5328 H 522.043 2.50526 6.48276 0
M  V30 5329 H 525.234 1.41358 4.46246 0
M  V30 5330 H 525.407 2.19622 6.09648 0
M  V30 5331 N 518.813 -1.54241 0.323641 0
M  V30 5332 C 520.09 -1.92741 -0.333181 0
M  V30 5333 C 520.47 -1.25326 -1.69872 0
M  V30 5334 O 519.818 -0.396991 -2.25025 0
M  V30 5335 C 520.028 -3.46399 -0.425322 0
M  V30 5336 C 521.376 -4.19029 -0.68557 0
M  V30 5337 O 522.4 -3.52555 -0.50824 0
M  V30 5338 O 521.259 -5.36751 -1.02767 0
M  V30 5339 H 518.353 -0.804811 -0.190286 0
M  V30 5340 H 520.899 -1.65542 0.373361 0
M  V30 5341 H 519.671 -3.87643 0.533737 0
M  V30 5342 H 519.294 -3.79704 -1.17944 0
M  V30 5343 N 520.291 -0.0518155 -1.57515 0
M  V30 5344 C 521.254 0.907547 -2.10467 0
M  V30 5345 C 522.254 1.23947 -1.02439 0
M  V30 5346 O 523.444 1.17604 -1.2851 0
M  V30 5347 C 520.576 2.21723 -2.58944 0
M  V30 5348 H 521.769 0.44851 -2.96527 0
M  V30 5349 H 519.322 0.196598 -1.55059 0
M  V30 5350 H 520.057 2.72206 -1.76279 0
M  V30 5351 H 519.842 1.98935 -3.37886 0
M  V30 5352 H 521.332 2.90441 -3.00056 0
M  V30 5353 N 521.769 1.56035 0.221574 0
M  V30 5354 C 522.679 1.95581 1.29558 0
M  V30 5355 C 523.695 0.859639 1.51282 0
M  V30 5356 O 524.871 1.16321 1.64413 0
M  V30 5357 C 521.936 2.26447 2.62531 0
M  V30 5358 C 520.997 3.49632 2.4911 0
M  V30 5359 C 520.23 3.79017 3.75742 0
M  V30 5360 O 520.453 3.10077 4.78757 0
M  V30 5361 O 519.387 4.72507 3.72855 0
M  V30 5362 H 523.213 2.8711 0.990035 0
M  V30 5363 H 520.798 1.43244 0.424434 0
M  V30 5364 H 522.68 2.47494 3.41064 0
M  V30 5365 H 521.355 1.38092 2.92766 0
M  V30 5366 H 520.262 3.33864 1.68777 0
M  V30 5367 H 521.595 4.3837 2.23814 0
M  V30 5368 N 523.247 -0.488276 1.49845 0
M  V30 5369 C 524.18 -1.60651 1.62069 0
M  V30 5370 C 525.158 -1.5568 0.469308 0
M  V30 5371 O 526.342 -1.75553 0.686551 0
M  V30 5372 C 523.469 -2.99197 1.58741 0
M  V30 5373 C 522.515 -3.22385 2.79232 0
M  V30 5374 S 523.348 -3.04133 4.40753 0
M  V30 5375 C 524.504 -4.45052 4.4009 0
M  V30 5376 H 524.737 -1.50039 2.56662 0
M  V30 5377 H 522.27 -0.674371 1.38894 0
M  V30 5378 H 524.228 -3.79081 1.57506 0
M  V30 5379 H 522.889 -3.07213 0.654136 0
M  V30 5380 H 522.082 -4.23557 2.73159 0
M  V30 5381 H 521.684 -2.50245 2.77945 0
M  V30 5382 H 523.976 -5.37375 4.12594 0
M  V30 5383 H 524.919 -4.56172 5.41583 0
M  V30 5384 H 525.327 -4.26327 3.70008 0
M  V30 5385 N 524.725 -1.39134 -0.740242 0
M  V30 5386 C 525.971 -1.36273 -1.50192 0
M  V30 5387 C 526.304 0.0430136 -1.94152 0
M  V30 5388 O 525.579 1.00691 -1.66408 0
M  V30 5389 C 525.862 -2.33041 -2.74525 0
M  V30 5390 C 525.715 -3.82535 -2.36617 0
M  V30 5391 C 527.034 -2.27723 -3.76604 0
M  V30 5392 H 524.153 -0.496323 -0.544823 0
M  V30 5393 H 526.795 -1.70085 -0.846815 0
M  V30 5394 H 524.945 -2.04337 -3.30422 0
M  V30 5395 H 526.617 -4.21967 -1.86391 0
M  V30 5396 H 524.86 -3.99565 -1.68909 0
M  V30 5397 H 525.531 -4.45723 -3.2563 0
M  V30 5398 H 528.007 -2.53091 -3.30279 0
M  V30 5399 H 526.883 -2.97519 -4.61274 0
M  V30 5400 H 527.144 -1.28049 -4.2315 0
M  V30 5401 N 526.204 0.969867 -1.24223 0
M  V30 5402 C 527.167 2.04564 -1.03373 0
M  V30 5403 C 528.167 1.60798 0.00819206 0
M  V30 5404 O 529.357 1.72641 -0.232567 0
M  V30 5405 C 526.489 3.36163 -0.566343 0
M  V30 5406 H 527.682 2.24494 -1.98853 0
M  V30 5407 H 525.235 1.1448 -1.06415 0
M  V30 5408 H 525.97 3.21925 0.391751 0
M  V30 5409 H 525.755 3.69273 -1.31834 0
M  V30 5410 H 527.245 4.1526 -0.441435 0
M  V30 5411 N 527.682 1.05563 1.17022 0
M  V30 5412 C 528.959 0.68165 1.83338 0
M  V30 5413 C 529.339 -0.837665 1.93769 0
M  V30 5414 O 528.687 -1.74507 1.47511 0
M  V30 5415 C 528.897 1.375 3.20772 0
M  V30 5416 C 530.245 1.51545 3.96635 0
M  V30 5417 O 531.269 1.33431 3.30264 0
M  V30 5418 O 530.128 1.812 5.15586 0
M  V30 5419 H 527.222 0.240412 0.791285 0
M  V30 5420 H 529.768 1.15545 1.24288 0
M  V30 5421 H 528.54 2.41135 3.08171 0
M  V30 5422 H 528.163 0.890798 3.87493 0
M  V30 5423 N 529.16 -1.33526 0.837174 0
M  V30 5424 C 530.406 -1.9813 0.432704 0
M  V30 5425 C 530.739 -1.66168 -1.00508 0
M  V30 5426 O 530.014 -0.94069 -1.70239 0
M  V30 5427 C 530.297 -3.54151 0.651834 0
M  V30 5428 C 530.15 -3.95806 2.13676 0
M  V30 5429 C 531.469 -4.39993 0.0968937 0
M  V30 5430 H 528.588 -0.719713 0.15869 0
M  V30 5431 H 531.23 -1.58193 1.05237 0
M  V30 5432 H 529.38 -3.88301 0.124369 0
M  V30 5433 H 531.052 -3.71921 2.72896 0
M  V30 5434 H 529.295 -3.45599 2.62191 0
M  V30 5435 H 529.966 -5.0447 2.24084 0
M  V30 5436 H 532.442 -4.12479 0.547733 0
M  V30 5437 H 531.318 -5.48186 0.279917 0
M  V30 5438 H 531.579 -4.3066 -0.9992 0
M  V30 5439 N 530.638 -0.59345 -1.46 0
M  V30 5440 C 532.054 -0.255965 -1.57534 0
M  V30 5441 C 532.254 1.24167 -1.58697 0
M  V30 5442 O 531.31 2.02398 -1.50968 0
M  V30 5443 C 532.623 -0.91466 -2.86451 0
M  V30 5444 C 534.171 -0.889253 -3.00102 0
M  V30 5445 C 534.646 -1.52769 -4.3177 0
M  V30 5446 N 536.137 -1.49253 -4.38495 0
M  V30 5447 C 536.872 -1.9558 -5.39014 0
M  V30 5448 N 536.368 -2.49929 -6.46148 0
M  V30 5449 N 538.161 -1.86432 -5.30282 0
M  V30 5450 H 530.312 -1.56604 -1.43489 0
M  V30 5451 H 532.575 -0.655207 -0.685133 0
M  V30 5452 H 532.281 -1.96861 -2.91442 0
M  V30 5453 H 532.155 -0.429356 -3.74748 0
M  V30 5454 H 534.542 0.156111 -2.94687 0
M  V30 5455 H 534.623 -1.41268 -2.13253 0
M  V30 5456 H 534.267 -2.57231 -4.37944 0
M  V30 5457 H 534.197 -0.979398 -5.17412 0
M  V30 5458 H 536.688 -1.09536 -3.61677 0
M  V30 5459 H 537.001 -2.83109 -7.19075 0
M  V30 5460 H 535.346 -2.53961 -6.46938 0
M  V30 5461 H 538.537 -1.43722 -4.4549 0
M  V30 5462 H 538.71 -2.22852 -6.08474 0
M  V30 5463 N 532.116 1.54067 -0.331816 0
M  V30 5464 C 533.362 2.01012 0.268667 0
M  V30 5465 C 533.695 1.2195 1.51136 0
M  V30 5466 O 532.97 0.303972 1.9211 0
M  V30 5467 C 533.253 3.55158 0.59456 0
M  V30 5468 C 533.106 4.4494 -0.659409 0
M  V30 5469 C 534.425 4.16939 1.4089 0
M  V30 5470 H 531.544 0.730698 0.0961756 0
M  V30 5471 H 534.186 1.84593 -0.450031 0
M  V30 5472 H 532.336 3.6928 1.20685 0
M  V30 5473 H 534.008 4.42675 -1.29756 0
M  V30 5474 H 532.251 4.1428 -1.28665 0
M  V30 5475 H 532.922 5.50643 -0.386804 0
M  V30 5476 H 535.398 4.06443 0.891272 0
M  V30 5477 H 534.274 5.24889 1.60569 0
M  V30 5478 H 534.535 3.70798 2.40752 0
M  V30 5479 N 533.594 0.0601682 1.57485 0
M  V30 5480 C 534.524 -0.90889 2.15085 0
M  V30 5481 C 535.505 -1.31838 1.07484 0
M  V30 5482 O 536.69 -1.3915 1.35466 0
M  V30 5483 C 533.82 -2.18059 2.7031 0
M  V30 5484 C 532.774 -1.91088 3.82974 0
M  V30 5485 C 532.1 -3.24789 4.24754 0
M  V30 5486 C 533.4 -1.22535 5.07723 0
M  V30 5487 H 535.094 -0.429093 2.96309 0
M  V30 5488 H 532.64 -0.204952 1.42534 0
M  V30 5489 H 534.593 -2.86258 3.09248 0
M  V30 5490 H 533.317 -2.6826 1.8629 0
M  V30 5491 H 531.976 -1.25297 3.44523 0
M  V30 5492 H 531.624 -3.72809 3.37672 0
M  V30 5493 H 531.324 -3.07538 5.00694 0
M  V30 5494 H 532.848 -3.94205 4.66299 0
M  V30 5495 H 534.262 -1.80783 5.4405 0
M  V30 5496 H 532.659 -1.1558 5.88864 0
M  V30 5497 H 533.729 -0.202692 4.84476 0
M  V30 5498 N 535.072 -1.5615 -0.213296 0
M  V30 5499 C 536.32 -1.79191 -0.934612 0
M  V30 5500 C 536.641 -0.630112 -1.84539 0
M  V30 5501 O 535.911 0.35257 -1.92701 0
M  V30 5502 H 534.491 -0.660937 -0.348097 0
M  V30 5503 H 537.153 -1.93618 -0.22317 0
M  V30 5504 H 536.249 -2.71656 -1.53654 0
M  V30 5505 N 536.55 0.480323 -1.50102 0
M  V30 5506 C 537.513 1.56181 -1.6775 0
M  V30 5507 C 538.513 1.51156 -0.548503 0
M  V30 5508 O 539.703 1.5394 -0.815363 0
M  V30 5509 C 536.835 2.95823 -1.69415 0
M  V30 5510 H 538.028 1.41855 -2.6423 0
M  V30 5511 H 535.581 0.70605 -1.39444 0
M  V30 5512 H 536.316 3.15604 -0.745948 0
M  V30 5513 H 536.101 3.00878 -2.51425 0
M  V30 5514 H 537.591 3.74359 -1.85054 0
M  V30 5515 N 538.028 1.39524 0.732853 0
M  V30 5516 C 539.277 1.36175 1.48792 0
M  V30 5517 C 539.59 -0.0388195 1.95561 0
M  V30 5518 O 540.796 -0.194899 2.708 0
M  V30 5519 C 539.252 2.39242 2.68871 0
M  V30 5520 C 538.86 3.85024 2.29042 0
M  V30 5521 C 540.604 2.44972 3.46683 0
M  V30 5522 C 538.511 4.79727 3.45856 0
M  V30 5523 H 537.441 0.506267 0.558757 0
M  V30 5524 H 540.092 1.65181 0.799226 0
M  V30 5525 H 538.474 2.0331 3.39825 0
M  V30 5526 H 539.648 4.30008 1.6562 0
M  V30 5527 H 537.963 3.82609 1.64316 0
M  V30 5528 H 540.56 3.12918 4.33574 0
M  V30 5529 H 540.903 1.4749 3.89297 0
M  V30 5530 H 541.436 2.79808 2.82759 0
M  V30 5531 H 538.175 5.78479 3.08289 0
M  V30 5532 H 537.695 4.39421 4.08251 0
M  V30 5533 H 539.374 4.98731 4.12161 0
M  V30 5534 N 539.506 -0.963266 1.24736 0
M  V30 5535 C 540.754 -1.70343 1.08755 0
M  V30 5536 C 541.075 -1.91387 -0.373619 0
M  V30 5537 O 540.345 -1.4948 -1.2662 0
M  V30 5538 H 538.925 -0.631224 0.399456 0
M  V30 5539 H 541.587 -1.15859 1.56725 0
M  V30 5540 H 540.683 -2.68616 1.58909 0
M  V30 5541 N 540.985 -1.06182 -1.16461 0
M  V30 5542 C 542.231 -0.779015 -1.87241 0
M  V30 5543 C 542.564 0.692715 -1.81425 0
M  V30 5544 O 541.839 1.5074 -1.22913 0
M  V30 5545 C 542.122 -1.2728 -3.36856 0
M  V30 5546 C 541.975 -2.80821 -3.51368 0
M  V30 5547 C 543.294 -0.879799 -4.31216 0
M  V30 5548 H 540.413 -0.284464 -0.679889 0
M  V30 5549 H 543.055 -1.31755 -1.36896 0
M  V30 5550 H 541.205 -0.814673 -3.79862 0
M  V30 5551 H 542.877 -3.34833 -3.17308 0
M  V30 5552 H 541.12 -3.19606 -2.93316 0
M  V30 5553 H 541.791 -3.10435 -4.56436 0
M  V30 5554 H 544.267 -1.27436 -3.96105 0
M  V30 5555 H 543.143 -1.25278 -5.34412 0
M  V30 5556 H 543.404 0.215372 -4.41575 0
M  V30 5557 N 542.463 1.3308 -0.844243 0
M  V30 5558 C 543.709 1.97898 -0.443206 0
M  V30 5559 C 544.042 1.66699 0.99625 0
M  V30 5560 O 543.317 0.949704 1.69738 0
M  V30 5561 C 543.6 3.53801 -0.670606 0
M  V30 5562 C 543.453 3.94667 -2.15772 0
M  V30 5563 C 544.772 4.39936 -0.120226 0
M  V30 5564 H 541.891 0.718861 -0.162504 0
M  V30 5565 H 544.533 1.57633 -1.06075 0
M  V30 5566 H 542.683 3.88229 -0.14496 0
M  V30 5567 H 544.355 3.70469 -2.74865 0
M  V30 5568 H 542.598 3.44203 -2.6402 0
M  V30 5569 H 543.269 5.03275 -2.26757 0
M  V30 5570 H 545.745 4.12183 -0.5696 0
M  V30 5571 H 544.621 5.4803 -0.308984 0
M  V30 5572 H 544.882 4.31184 0.976347 0
M  V30 5573 N 543.941 0.601185 1.45683 0
M  V30 5574 C 544.851 -0.123395 2.34275 0
M  V30 5575 C 545.867 -0.86702 1.5086 0
M  V30 5576 O 547.043 -0.826049 1.8368 0
M  V30 5577 C 544.108 -1.11237 3.2837 0
M  V30 5578 C 543.169 -0.371405 4.2769 0
M  V30 5579 C 542.402 -1.31327 5.1729 0
M  V30 5580 O 542.625 -2.55078 5.10188 0
M  V30 5581 O 541.559 -0.813811 5.96373 0
M  V30 5582 H 545.385 0.604483 2.97623 0
M  V30 5583 H 542.97 0.361477 1.44961 0
M  V30 5584 H 544.852 -1.68214 3.8637 0
M  V30 5585 H 543.527 -1.82139 2.67595 0
M  V30 5586 H 542.434 0.24067 3.73325 0
M  V30 5587 H 543.767 0.296998 4.91303 0
M  V30 5588 N 545.419 -1.53889 0.339982 0
M  V30 5589 C 546.647 -2.05271 -0.259114 0
M  V30 5590 C 547.062 -1.21517 -1.44496 0
M  V30 5591 O 546.419 -0.24966 -1.80784 0
M  V30 5592 C 546.47 -3.55092 -0.677634 0
M  V30 5593 O 546.191 -4.35667 0.461051 0
M  V30 5594 C 547.692 -4.22631 -1.33782 0
M  V30 5595 H 544.912 -0.669085 -0.0506566 0
M  V30 5596 H 547.456 -1.9852 0.490935 0
M  V30 5597 H 545.611 -3.62077 -1.37763 0
M  V30 5598 H 546.025 -5.24343 0.128144 0
M  V30 5599 H 547.499 -5.28861 -1.58145 0
M  V30 5600 H 547.976 -3.74758 -2.29027 0
M  V30 5601 H 548.582 -4.19829 -0.679957 0
M  V30 5602 N 546.897 -0.0685191 -1.57451 0
M  V30 5603 C 548.125 0.610462 -1.97689 0
M  V30 5604 C 548.54 1.63346 -0.946758 0
M  V30 5605 O 547.897 1.82377 0.0669868 0
M  V30 5606 C 547.948 1.28196 -3.38006 0
M  V30 5607 O 547.669 0.299906 -4.37072 0
M  V30 5608 C 549.17 2.04907 -3.931 0
M  V30 5609 H 546.39 0.165689 -0.650222 0
M  V30 5610 H 548.934 -0.139953 -2.04021 0
M  V30 5611 H 547.089 1.98348 -3.32771 0
M  V30 5612 H 547.503 0.78126 -5.18649 0
M  V30 5613 H 548.977 2.47287 -4.93511 0
M  V30 5614 H 549.454 2.9043 -3.29465 0
M  V30 5615 H 550.06 1.39629 -4.01726 0
M  V30 5616 N 548.375 1.56261 0.205012 0
M  V30 5617 C 549.325 1.90155 1.25798 0
M  V30 5618 C 550.309 0.766227 1.41484 0
M  V30 5619 O 551.501 1.02893 1.44021 0
M  V30 5620 C 548.63 2.23603 2.60493 0
M  V30 5621 C 547.716 3.43568 2.48639 0
M  V30 5622 N 548.107 4.61747 2.06455 0
M  V30 5623 C 546.405 3.4751 2.79558 0
M  V30 5624 C 547.106 5.43907 2.06253 0
M  V30 5625 N 546.082 4.84051 2.47377 0
M  V30 5626 H 549.884 2.79031 0.922986 0
M  V30 5627 H 547.398 1.57048 0.413501 0
M  V30 5628 H 549.395 2.46067 3.36537 0
M  V30 5629 H 548.055 1.36049 2.94823 0
M  V30 5630 H 549.066 4.86598 1.77321 0
M  V30 5631 H 545.743 2.70345 3.18151 0
M  V30 5632 H 547.133 6.48542 1.75622 0
M  V30 5633 N 549.853 -0.472356 1.50355 0
M  V30 5634 C 551.264 -1.05326 1.54154 0
M  V30 5635 C 551.615 -1.93155 0.344303 0
M  V30 5636 O 550.74 -2.09479 -0.542928 0
M  V30 5637 C 551.335 -1.91691 2.79356 0
M  V30 5638 C 549.894 -2.44892 2.8584 0
M  V30 5639 C 549.041 -1.23205 2.48426 0
M  V30 5640 H 551.992 -0.255027 1.56637 0
M  V30 5641 H 552.013 -2.76742 2.6114 0
M  V30 5642 H 551.525 -1.27741 3.66475 0
M  V30 5643 H 549.626 -3.12399 2.0307 0
M  V30 5644 H 549.739 -2.80086 3.88701 0
M  V30 5645 H 548.103 -1.56643 2.00836 0
M  V30 5646 H 548.886 -0.609194 3.37852 0
M  V30 5647 N 551.331 -1.39911 -0.725443 0
M  V30 5648 C 552.577 -1.37858 -1.48738 0
M  V30 5649 C 552.91 0.0224187 -1.94187 0
M  V30 5650 O 552.185 0.989204 -1.67466 0
M  V30 5651 C 552.468 -2.3594 -2.72038 0
M  V30 5652 C 552.321 -3.85023 -2.32546 0
M  V30 5653 C 553.64 -2.31704 -3.74167 0
M  V30 5654 H 550.759 -0.502074 -0.539528 0
M  V30 5655 H 553.401 -1.70974 -0.828728 0
M  V30 5656 H 551.551 -2.0783 -3.28236 0
M  V30 5657 H 553.223 -4.2392 -1.81905 0
M  V30 5658 H 551.466 -4.01334 -1.64661 0
M  V30 5659 H 552.137 -4.49152 -3.20884 0
M  V30 5660 H 554.613 -2.5658 -3.27576 0
M  V30 5661 H 553.489 -3.02395 -4.58092 0
M  V30 5662 H 553.75 -1.3253 -4.21768 0
M  V30 5663 N 552.809 0.956637 -1.25245 0
M  V30 5664 C 553.757 2.0743 -1.0524 0
M  V30 5665 C 554.751 1.69392 0.0160725 0
M  V30 5666 O 555.957 1.7946 -0.139382 0
M  V30 5667 H 552.332 0.678921 -0.323373 0
M  V30 5668 H 554.303 2.2146 -1.99995 0
M  V30 5669 C 553.052 3.40872 -0.685702 0
M  V30 5670 H 552.375 3.70607 -1.49968 0
M  V30 5671 H 553.815 4.19939 -0.585415 0
M  V30 5672 C 552.274 3.31367 0.608082 0
M  V30 5673 O 552.804 3.66214 1.65076 0
M  V30 5674 N 551.01 2.84486 0.592955 0
M  V30 5675 H 550.557 2.56326 -0.25592 0
M  V30 5676 H 550.515 2.78509 1.45877 0
M  V30 5677 N 554.287 1.06798 1.15896 0
M  V30 5678 C 555.22 0.627503 2.19403 0
M  V30 5679 C 556.198 -0.352352 1.58736 0
M  V30 5680 O 557.382 -0.260111 1.86697 0
M  V30 5681 C 554.509 -0.079356 3.38607 0
M  V30 5682 C 553.555 0.858057 4.17779 0
M  V30 5683 S 554.388 2.35605 4.80885 0
M  V30 5684 C 555.544 1.66083 6.03463 0
M  V30 5685 H 555.777 1.50441 2.56427 0
M  V30 5686 H 553.31 0.881427 1.26768 0
M  V30 5687 H 555.268 -0.48095 4.07673 0
M  V30 5688 H 553.929 -0.932524 2.99938 0
M  V30 5689 H 553.122 0.310108 5.03045 0
M  V30 5690 H 552.724 1.19977 3.54234 0
M  V30 5691 H 555.016 0.969337 6.7053 0
M  V30 5692 H 555.959 2.49159 6.62816 0
M  V30 5693 H 556.367 1.14122 5.52844 0
M  V30 5694 N 555.766 -1.3263 0.851289 0
M  V30 5695 C 556.729 -2.27247 0.298541 0
M  V30 5696 C 557.729 -1.51467 -0.539847 0
M  V30 5697 O 558.919 -1.7061 -0.351843 0
M  V30 5698 C 556.051 -3.35964 -0.578004 0
M  V30 5699 H 557.244 -2.7765 1.13359 0
M  V30 5700 H 554.797 -1.43245 0.625354 0
M  V30 5701 H 555.532 -2.90823 -1.435 0
M  V30 5702 H 555.317 -3.92094 0.0220539 0
M  V30 5703 H 556.807 -4.06472 -0.957626 0
M  V30 5704 N 557.244 -0.608902 -1.45362 0
M  V30 5705 C 558.207 0.0992563 -2.28985 0
M  V30 5706 C 559.207 0.793841 -1.39838 0
M  V30 5707 O 560.397 0.641804 -1.61946 0
M  V30 5708 C 557.529 1.15073 -3.20891 0
M  V30 5709 H 558.722 -0.635964 -2.93079 0
M  V30 5710 H 556.275 -0.368007 -1.51906 0
M  V30 5711 H 557.01 1.91667 -2.616 0
M  V30 5712 H 556.795 0.656867 -3.86559 0
M  V30 5713 H 558.285 1.64665 -3.83765 0
M  V30 5714 N 558.722 1.53707 -0.348139 0
M  V30 5715 C 559.652 2.28111 0.498766 0
M  V30 5716 C 560.633 1.29851 1.09876 0
M  V30 5717 O 561.818 1.587 1.11928 0
M  V30 5718 C 558.948 3.05735 1.64753 0
M  V30 5719 C 557.902 4.11537 1.17565 0
M  V30 5720 C 557.228 4.77142 2.4133 0
M  V30 5721 C 558.528 5.21587 0.272844 0
M  V30 5722 H 560.222 2.99152 -0.121934 0
M  V30 5723 H 557.768 1.43875 -0.0600842 0
M  V30 5724 H 559.721 3.56526 2.24649 0
M  V30 5725 H 558.445 2.32354 2.2952 0
M  V30 5726 H 557.104 3.61665 0.599483 0
M  V30 5727 H 556.752 4.0035 3.04514 0
M  V30 5728 H 556.452 5.48626 2.10436 0
M  V30 5729 H 557.976 5.30719 3.01943 0
M  V30 5730 H 559.39 5.67986 0.778779 0
M  V30 5731 H 557.787 6.00074 0.0555849 0
M  V30 5732 H 558.857 4.79969 -0.689785 0
M  V30 5733 N 560.2 0.0768682 1.57412 0
M  V30 5734 C 561.132 -0.918248 2.10002 0
M  V30 5735 C 562.145 -1.25808 1.03325 0
M  V30 5736 O 563.334 -1.21438 1.30824 0
M  V30 5737 C 560.434 -2.23263 2.54964 0
M  V30 5738 C 559.607 -2.07088 3.8527 0
M  V30 5739 C 558.666 -3.21876 4.16272 0
M  V30 5740 O 557.692 -2.96643 4.8579 0
M  V30 5741 N 558.894 -4.4712 3.70221 0
M  V30 5742 H 561.659 -0.469209 2.96004 0
M  V30 5743 H 559.22 -0.108725 1.61535 0
M  V30 5744 H 561.212 -2.9897 2.72762 0
M  V30 5745 H 559.782 -2.59649 1.74072 0
M  V30 5746 H 559.002 -1.15818 3.76802 0
M  V30 5747 H 560.29 -1.93537 4.70554 0
M  V30 5748 H 559.688 -4.70506 3.1407 0
M  V30 5749 H 558.245 -5.19837 3.93209 0
M  V30 5750 N 561.678 -1.56367 -0.196722 0
M  V30 5751 C 562.625 -1.94417 -1.24382 0
M  V30 5752 C 563.595 -0.804543 -1.45315 0
M  V30 5753 O 564.78 -1.06256 -1.58475 0
M  V30 5754 C 561.92 -2.28757 -2.58388 0
M  V30 5755 C 561.033 -3.55775 -2.45047 0
M  V30 5756 C 560.168 -3.79445 -3.71746 0
M  V30 5757 C 559.207 -4.99894 -3.53231 0
M  V30 5758 N 558.344 -5.19826 -4.71938 0
M  V30 5759 H 563.184 -2.83691 -0.912338 0
M  V30 5760 H 560.721 -1.40392 -0.439135 0
M  V30 5761 H 562.679 -2.46682 -3.36457 0
M  V30 5762 H 561.309 -1.42625 -2.89582 0
M  V30 5763 H 560.361 -3.45905 -1.58284 0
M  V30 5764 H 561.673 -4.44 -2.27299 0
M  V30 5765 H 560.827 -3.97601 -4.58256 0
M  V30 5766 H 559.566 -2.89546 -3.92446 0
M  V30 5767 H 558.571 -4.81662 -2.65107 0
M  V30 5768 H 559.796 -5.913 -3.33978 0
M  V30 5769 H 557.742 -4.32875 -4.92905 0
M  V30 5770 H 557.659 -6.02228 -4.57009 0
M  V30 5771 H 558.927 -5.42439 -5.59803 0
M  V30 5772 N 563.156 0.464375 -1.50603 0
M  V30 5773 C 564.403 1.21596 -1.61928 0
M  V30 5774 C 564.731 1.91804 -0.322737 0
M  V30 5775 O 563.986 1.83065 0.691776 0
M  V30 5776 C 564.285 2.278 -2.75394 0
M  V30 5777 C 563.951 1.74797 -4.1564 0
M  V30 5778 C 562.613 1.60063 -4.53799 0
M  V30 5779 C 564.965 1.35548 -5.03266 0
M  V30 5780 C 562.293 1.04514 -5.77316 0
M  V30 5781 C 564.645 0.814381 -6.27336 0
M  V30 5782 C 563.309 0.653726 -6.64291 0
M  V30 5783 H 562.579 0.444951 -0.592536 0
M  V30 5784 H 565.226 0.510964 -1.84557 0
M  V30 5785 H 563.531 3.04233 -2.46879 0
M  V30 5786 H 565.228 2.85723 -2.81359 0
M  V30 5787 H 561.818 1.87234 -3.8554 0
M  V30 5788 H 566.002 1.45763 -4.74412 0
M  V30 5789 H 561.258 0.908186 -6.04617 0
M  V30 5790 H 565.432 0.501626 -6.94591 0
M  V30 5791 H 563.059 0.22114 -7.59878 0
M  V30 5792 N 564.634 1.40294 0.718013 0
M  V30 5793 C 565.881 1.3844 1.47786 0
M  V30 5794 C 566.209 -0.0140838 1.94495 0
M  V30 5795 O 565.464 -0.998165 1.68331 0
M  V30 5796 C 565.763 2.31814 2.72024 0
M  V30 5797 C 565.429 3.79117 2.44093 0
M  V30 5798 C 564.091 4.19249 2.36185 0
M  V30 5799 C 566.443 4.72212 2.20602 0
M  V30 5800 C 563.771 5.50516 2.02851 0
M  V30 5801 C 566.123 6.03775 1.88781 0
M  V30 5802 C 564.787 6.42953 1.79354 0
M  V30 5803 H 564.057 0.506588 0.540786 0
M  V30 5804 H 566.704 1.72929 0.822663 0
M  V30 5805 H 565.009 1.90501 3.42369 0
M  V30 5806 H 566.706 2.27664 3.30106 0
M  V30 5807 H 563.296 3.47318 2.51133 0
M  V30 5808 H 567.48 4.42026 2.25669 0
M  V30 5809 H 562.736 5.79776 1.94088 0
M  V30 5810 H 566.91 6.75428 1.69617 0
M  V30 5811 H 564.537 7.44584 1.53291 0
M  V30 5812 N 566.112 -0.949982 1.2575 0
M  V30 5813 C 567.358 -1.69766 1.10938 0
M  V30 5814 C 567.691 -1.91056 -0.348028 0
M  V30 5815 O 566.966 -1.48488 -1.25625 0
M  V30 5816 C 567.249 -3.07779 1.86933 0
M  V30 5817 C 567.102 -2.9387 3.4053 0
M  V30 5818 C 568.421 -4.07749 1.65616 0
M  V30 5819 H 565.54 -0.616144 0.404396 0
M  V30 5820 H 568.182 -1.10394 1.54639 0
M  V30 5821 H 566.332 -3.58462 1.4979 0
M  V30 5822 H 568.004 -2.50476 3.87375 0
M  V30 5823 H 566.247 -2.29686 3.68004 0
M  V30 5824 H 566.918 -3.91719 3.88922 0
M  V30 5825 H 569.394 -3.65994 1.97959 0
M  V30 5826 H 568.27 -5.02348 2.21218 0
M  V30 5827 H 568.531 -4.38029 0.598595 0
M  V30 5828 N 567.59 -1.07411 -1.15328 0
M  V30 5829 C 568.5 -0.706438 -2.23711 0
M  V30 5830 C 569.516 0.282586 -1.7169 0
M  V30 5831 O 570.692 0.129066 -2.00986 0
M  V30 5832 C 567.757 -0.11048 -3.46524 0
M  V30 5833 C 566.818 -1.15282 -4.13532 0
M  V30 5834 C 566.051 -0.585205 -5.30482 0
M  V30 5835 O 566.274 0.598549 -5.67251 0
M  V30 5836 O 565.208 -1.33039 -5.87013 0
M  V30 5837 H 569.034 -1.61031 -2.57493 0
M  V30 5838 H 566.619 -0.847113 -1.23062 0
M  V30 5839 H 568.501 0.21957 -4.20828 0
M  V30 5840 H 567.176 0.766703 -3.14489 0
M  V30 5841 H 566.083 -1.53523 -3.41147 0
M  V30 5842 H 567.416 -2.00192 -4.49649 0
M  V30 5843 N 569.068 1.32177 -0.85831 0
M  V30 5844 C 570 2.27688 -0.262835 0
M  V30 5845 C 571.013 1.52588 0.567513 0
M  V30 5846 O 572.202 1.74156 0.391407 0
M  V30 5847 C 569.302 3.32668 0.646937 0
M  V30 5848 C 568.475 4.37148 -0.148372 0
M  V30 5849 C 567.534 5.21686 0.687728 0
M  V30 5850 O 566.56 5.69074 0.119934 0
M  V30 5851 N 567.762 5.44892 2.00182 0
M  V30 5852 H 570.527 2.79426 -1.08356 0
M  V30 5853 H 568.088 1.45076 -0.718647 0
M  V30 5854 H 570.08 3.86134 1.2117 0
M  V30 5855 H 568.65 2.81061 1.36834 0
M  V30 5856 H 567.87 3.83915 -0.894572 0
M  V30 5857 H 569.158 5.04038 -0.694514 0
M  V30 5858 H 568.556 5.08128 2.4864 0
M  V30 5859 H 567.113 6.0134 2.51463 0
M  V30 5860 N 570.547 0.616602 1.45037 0
M  V30 5861 C 571.795 0.115103 2.01772 0
M  V30 5862 C 572.116 -1.2622 1.48639 0
M  V30 5863 O 571.386 -1.83563 0.684199 0
M  V30 5864 H 569.966 0.0395607 0.745952 0
M  V30 5865 H 572.628 0.800032 1.77723 0
M  V30 5866 H 571.724 0.0717274 3.12018 0
M  V30 5867 N 572.025 -1.5352 0.356285 0
M  V30 5868 C 573.271 -2.01414 -0.236653 0
M  V30 5869 C 573.604 -1.24339 -1.49176 0
M  V30 5870 O 572.879 -0.334496 -1.91602 0
M  V30 5871 C 573.162 -3.56059 -0.537982 0
M  V30 5872 C 573.015 -4.43835 0.730112 0
M  V30 5873 C 574.334 -4.19127 -1.34239 0
M  V30 5874 H 571.453 -0.732135 -0.0845386 0
M  V30 5875 H 574.095 -1.83854 0.479341 0
M  V30 5876 H 572.245 -3.71153 -1.14795 0
M  V30 5877 H 573.917 -4.40555 1.36782 0
M  V30 5878 H 572.16 -4.1218 1.3524 0
M  V30 5879 H 572.831 -5.49958 0.474358 0
M  V30 5880 H 575.307 -4.07809 -0.826498 0
M  V30 5881 H 574.183 -5.27378 -1.52198 0
M  V30 5882 H 574.444 -3.74581 -2.34822 0
M  V30 5883 N 573.503 -0.0852151 -1.57369 0
M  V30 5884 C 574.749 0.575588 -1.95086 0
M  V30 5885 C 575.104 1.66402 -0.96582 0
M  V30 5886 O 574.397 1.91598 0.00978463 0
M  V30 5887 C 574.591 1.18482 -3.3719 0
M  V30 5888 C 574.42 0.156928 -4.49426 0
M  V30 5889 C 573.19 -0.263126 -5.04614 0
M  V30 5890 C 575.388 -0.611068 -5.10657 0
M  V30 5891 N 573.37 -1.28032 -6.00401 0
M  V30 5892 C 574.741 -1.48036 -6.02068 0
M  V30 5893 C 576.796 -0.665669 -4.9343 0
M  V30 5894 C 575.499 -2.39943 -6.781 0
M  V30 5895 C 577.525 -1.5723 -5.70116 0
M  V30 5896 C 576.887 -2.42924 -6.61186 0
M  V30 5897 H 572.986 0.181249 -0.760705 0
M  V30 5898 H 575.57 -0.165484 -1.93995 0
M  V30 5899 H 573.741 1.89575 -3.38992 0
M  V30 5900 H 575.473 1.80718 -3.62109 0
M  V30 5901 H 572.228 0.122664 -4.73441 0
M  V30 5902 H 572.652 -1.78682 -6.52994 0
M  V30 5903 H 577.294 -0.0173214 -4.22796 0
M  V30 5904 H 575.012 -3.05807 -7.48002 0
M  V30 5905 H 578.598 -1.61956 -5.58804 0
M  V30 5906 H 577.478 -3.1194 -7.19488 0
M  V30 5907 N 574.981 1.5647 0.188427 0
M  V30 5908 C 576.23 1.80207 0.905995 0
M  V30 5909 C 576.543 0.659579 1.84144 0
M  V30 5910 O 577.749 0.781431 2.60011 0
M  V30 5911 C 576.205 3.19255 1.66145 0
M  V30 5912 C 575.813 4.41324 0.770504 0
M  V30 5913 C 577.557 3.52298 2.36826 0
M  V30 5914 C 575.464 5.71394 1.52521 0
M  V30 5915 H 574.394 0.671953 0.342045 0
M  V30 5916 H 577.045 1.82808 0.159164 0
M  V30 5917 H 575.427 3.10922 2.45242 0
M  V30 5918 H 576.601 4.60797 0.0177261 0
M  V30 5919 H 574.916 4.16035 0.174199 0
M  V30 5920 H 577.513 4.46715 2.93854 0
M  V30 5921 H 577.856 2.76359 3.11338 0
M  V30 5922 H 578.389 3.62108 1.6469 0
M  V30 5923 H 575.128 6.50316 0.82275 0
M  V30 5924 H 574.648 5.55928 2.25175 0
M  V30 5925 H 576.327 6.12747 2.07725 0
M  V30 5926 N 576.459 -0.456382 1.50847 0
M  V30 5927 C 577.875 -0.791345 1.386 0
M  V30 5928 C 578.075 -1.9633 0.453498 0
M  V30 5929 O 577.131 -2.52308 -0.0984353 0
M  V30 5930 C 578.444 -1.08959 2.80265 0
M  V30 5931 C 579.992 -1.19517 2.89283 0
M  V30 5932 C 580.467 -1.52647 4.31814 0
M  V30 5933 N 581.958 -1.59609 4.34832 0
M  V30 5934 C 582.693 -1.86777 5.42127 0
M  V30 5935 N 582.189 -2.11866 6.59609 0
M  V30 5936 N 583.982 -1.88402 5.29586 0
M  V30 5937 H 576.133 0.315746 2.1004 0
M  V30 5938 H 578.396 0.0787916 0.94472 0
M  V30 5939 H 578.102 -0.301355 3.50407 0
M  V30 5940 H 577.976 -2.02211 3.18419 0
M  V30 5941 H 580.363 -1.97406 2.19351 0
M  V30 5942 H 580.444 -0.242111 2.54652 0
M  V30 5943 H 580.088 -0.752922 5.02288 0
M  V30 5944 H 580.018 -2.49127 4.63943 0
M  V30 5945 H 582.509 -1.42201 3.50125 0
M  V30 5946 H 582.822 -2.31912 7.37182 0
M  V30 5947 H 581.167 -2.09228 6.62758 0
M  V30 5948 H 584.358 -1.68307 4.36795 0
M  V30 5949 H 584.531 -2.09238 6.13289 0
M  V30 5950 N 577.937 -1.40673 -0.710563 0
M  V30 5951 C 579.348 -1.34975 -1.28991 0
M  V30 5952 C 579.699 -0.0256272 -1.96183 0
M  V30 5953 O 578.824 0.876339 -1.97862 0
M  V30 5954 C 579.419 -2.44467 -2.34567 0
M  V30 5955 C 577.978 -2.42213 -2.88114 0
M  V30 5956 C 577.125 -2.25085 -1.61963 0
M  V30 5957 H 580.076 -1.50406 -0.506343 0
M  V30 5958 H 580.097 -2.12663 -3.15523 0
M  V30 5959 H 579.609 -3.40825 -1.85634 0
M  V30 5960 H 577.71 -1.49568 -3.41263 0
M  V30 5961 H 577.823 -3.37983 -3.39565 0
M  V30 5962 H 576.187 -1.72691 -1.87216 0
M  V30 5963 H 576.97 -3.23449 -1.15047 0
M  V30 5964 N 579.415 0.9433 -1.26252 0
M  V30 5965 C 580.662 1.68925 -1.11672 0
M  V30 5966 C 580.99 1.91499 0.340329 0
M  V30 5967 O 580.245 1.49189 1.26653 0
M  V30 5968 C 580.544 3.07073 -1.82868 0
M  V30 5969 C 580.21 3.04262 -3.32769 0
M  V30 5970 C 578.872 3.03203 -3.7366 0
M  V30 5971 C 581.224 2.96729 -4.28487 0
M  V30 5972 C 578.552 2.92373 -5.0866 0
M  V30 5973 C 580.904 2.87442 -5.63525 0
M  V30 5974 C 579.568 2.84724 -6.03729 0
M  V30 5975 H 578.838 0.618141 -0.408635 0
M  V30 5976 H 581.485 1.10124 -1.56668 0
M  V30 5977 H 579.79 3.69486 -1.30335 0
M  V30 5978 H 581.487 3.63635 -1.69029 0
M  V30 5979 H 578.077 3.05865 -3.00241 0
M  V30 5980 H 582.261 2.96658 -3.97879 0
M  V30 5981 H 577.517 2.88645 -5.38975 0
M  V30 5982 H 581.691 2.80576 -6.37377 0
M  V30 5983 H 579.318 2.76089 -7.08293 0
M  V30 5984 N 580.893 1.08022 1.14757 0
M  V30 5985 C 582.141 0.805913 1.85336 0
M  V30 5986 C 582.462 -0.670162 1.83122 0
M  V30 5987 O 581.732 -1.48567 1.2769 0
M  V30 5988 H 580.312 0.295138 0.686223 0
M  V30 5989 H 582.974 1.36538 1.3908 0
M  V30 5990 H 582.07 1.14655 2.90277 0
M  V30 5991 N 582.371 -1.3172 0.865308 0
M  V30 5992 C 583.318 -2.2863 0.315736 0
M  V30 5993 C 584.288 -1.55524 -0.583213 0
M  V30 5994 O 585.473 -1.83694 -0.51585 0
M  V30 5995 C 582.613 -3.41735 -0.480773 0
M  V30 5996 C 581.726 -4.297 0.445167 0
M  V30 5997 C 580.861 -5.29944 -0.365012 0
M  V30 5998 C 579.9 -6.09554 0.557651 0
M  V30 5999 N 579.037 -7.01768 -0.215994 0
M  V30 6000 H 583.877 -2.75026 1.14736 0
M  V30 6001 H 581.414 -1.35302 0.577209 0
M  V30 6002 H 583.372 -4.06045 -0.958306 0
M  V30 6003 H 582.002 -2.96461 -1.27714 0
M  V30 6004 H 581.054 -3.65875 1.04113 0
M  V30 6005 H 582.366 -4.85295 1.15284 0
M  V30 6006 H 581.52 -5.99908 -0.905255 0
M  V30 6007 H 580.259 -4.74994 -1.106 0
M  V30 6008 H 579.264 -5.38485 1.10969 0
M  V30 6009 H 580.489 -6.66591 1.29742 0
M  V30 6010 H 578.435 -6.49232 -0.939878 0
M  V30 6011 H 578.352 -7.54762 0.432431 0
M  V30 6012 H 579.62 -7.76002 -0.737618 0
M  V30 6013 N 583.85 -0.624285 -1.44708 0
M  V30 6014 C 584.779 0.0717025 -2.3339 0
M  V30 6015 C 585.76 0.841814 -1.47809 0
M  V30 6016 O 586.946 0.809056 -1.76544 0
M  V30 6017 C 584.076 1.05852 -3.30776 0
M  V30 6018 C 583.029 0.400503 -4.26122 0
M  V30 6019 C 582.356 1.49674 -5.13324 0
M  V30 6020 C 583.656 -0.688924 -5.17737 0
M  V30 6021 H 585.35 -0.668819 -2.91834 0
M  V30 6022 H 582.896 -0.32308 -1.40329 0
M  V30 6023 H 584.849 1.5541 -3.91696 0
M  V30 6024 H 583.572 1.82984 -2.70526 0
M  V30 6025 H 582.231 -0.0743687 -3.66525 0
M  V30 6026 H 581.88 2.25877 -4.49431 0
M  V30 6027 H 581.58 1.06188 -5.77926 0
M  V30 6028 H 583.104 1.99427 -5.77115 0
M  V30 6029 H 584.518 -0.276724 -5.72632 0
M  V30 6030 H 582.915 -1.04652 -5.90904 0
M  V30 6031 H 583.985 -1.55884 -4.5916 0
M  V30 6032 N 585.328 1.53329 -0.364422 0
M  V30 6033 C 586.577 2.00421 0.226747 0
M  V30 6034 C 586.89 1.25581 1.49963 0
M  V30 6035 O 588.096 1.63256 2.16933 0
M  V30 6036 C 586.552 3.57017 0.454618 0
M  V30 6037 C 586.16 4.40734 -0.803568 0
M  V30 6038 C 587.904 4.12468 1.00351 0
M  V30 6039 C 585.811 5.8888 -0.545345 0
M  V30 6040 H 584.741 0.748787 0.0885082 0
M  V30 6041 H 587.392 1.7703 -0.482983 0
M  V30 6042 H 585.774 3.76558 1.22558 0
M  V30 6043 H 586.948 4.32967 -1.57723 0
M  V30 6044 H 585.263 3.96381 -1.27559 0
M  V30 6045 H 587.86 5.20783 1.212 0
M  V30 6046 H 588.203 3.6699 1.9653 0
M  V30 6047 H 588.736 3.96721 0.29274 0
M  V30 6048 H 585.475 6.38633 -1.47743 0
M  V30 6049 H 584.995 5.99499 0.189842 0
M  V30 6050 H 586.674 6.46776 -0.170425 0
M  V30 6051 N 586.806 0.0935595 1.57322 0
M  V30 6052 C 588.036 -0.578095 1.98347 0
M  V30 6053 C 588.444 -1.62357 0.971441 0
M  V30 6054 O 587.787 -1.83639 -0.0473959 0
M  V30 6055 C 587.849 -1.28525 3.3574 0
M  V30 6056 C 587.513 -0.390714 4.55327 0
M  V30 6057 C 588.51 0.360522 5.18648 0
M  V30 6058 C 586.195 -0.309221 5.01347 0
M  V30 6059 C 588.189 1.18125 6.26359 0
M  V30 6060 C 585.876 0.515157 6.08925 0
M  V30 6061 C 586.874 1.25904 6.71295 0
M  V30 6062 O 586.562 2.06978 7.76798 0
M  V30 6063 H 586.294 -0.159767 0.656849 0
M  V30 6064 H 588.848 0.169058 2.04703 0
M  V30 6065 H 587.078 -2.07894 3.26063 0
M  V30 6066 H 588.767 -1.85128 3.61223 0
M  V30 6067 H 589.533 0.307285 4.84026 0
M  V30 6068 H 585.412 -0.877881 4.52564 0
M  V30 6069 H 588.956 1.76236 6.74971 0
M  V30 6070 H 584.853 0.56988 6.42979 0
M  V30 6071 H 585.621 1.99644 7.93779 0
M  V30 6072 N 588.284 -1.56567 -0.180126 0
M  V30 6073 C 589.214 -1.98753 -1.22553 0
M  V30 6074 C 590.195 -0.86175 -1.46656 0
M  V30 6075 O 591.38 -1.12719 -1.58139 0
M  V30 6076 C 588.51 -2.33988 -2.56645 0
M  V30 6077 C 587.464 -3.49445 -2.47128 0
M  V30 6078 C 586.79 -3.70397 -3.8563 0
M  V30 6079 C 588.09 -4.83171 -1.98352 0
M  V30 6080 H 589.784 -2.86332 -0.874896 0
M  V30 6081 H 587.33 -1.37757 -0.419414 0
M  V30 6082 H 589.283 -2.62097 -3.29974 0
M  V30 6083 H 588.007 -1.43309 -2.93479 0
M  V30 6084 H 586.666 -3.2145 -1.76254 0
M  V30 6085 H 586.314 -2.77023 -4.19842 0
M  V30 6086 H 586.014 -4.48077 -3.80132 0
M  V30 6087 H 587.538 -4.00897 -4.60558 0
M  V30 6088 H 588.952 -5.10213 -2.61449 0
M  V30 6089 H 587.349 -5.64425 -2.03823 0
M  V30 6090 H 588.419 -4.75753 -0.937402 0
M  V30 6091 N 589.762 0.448376 -1.51087 0
M  V30 6092 C 590.695 1.56298 -1.66272 0
M  V30 6093 C 591.673 1.54381 -0.510419 0
M  V30 6094 O 592.857 1.73671 -0.732854 0
M  V30 6095 C 589.984 2.94883 -1.66618 0
M  V30 6096 C 589.03 3.14868 -2.87681 0
M  V30 6097 S 589.863 2.9234 -4.48662 0
M  V30 6098 C 591.019 4.33227 -4.51735 0
M  V30 6099 H 591.252 1.43182 -2.6055 0
M  V30 6100 H 588.785 0.637309 -1.40633 0
M  V30 6101 H 590.743 3.74771 -1.67502 0
M  V30 6102 H 589.404 3.05371 -0.735358 0
M  V30 6103 H 588.597 4.16166 -2.84292 0
M  V30 6104 H 588.199 2.42788 -2.84482 0
M  V30 6105 H 590.491 5.26247 -4.26697 0
M  V30 6106 H 591.434 4.41653 -5.53487 0
M  V30 6107 H 591.842 4.16367 -3.81181 0
M  V30 6108 N 591.24 1.41047 0.703093 0
M  V30 6109 C 592.651 1.35657 1.28274 0
M  V30 6110 C 593.002 0.0360309 1.96167 0
M  V30 6111 O 592.127 -0.865833 1.98324 0
M  V30 6112 C 592.722 2.45707 2.33267 0
M  V30 6113 C 591.281 2.43738 2.86825 0
M  V30 6114 C 590.428 2.25941 1.60767 0
M  V30 6115 H 593.379 1.50672 0.49836 0
M  V30 6116 H 593.4 2.14333 3.14391 0
M  V30 6117 H 592.912 3.41805 1.83824 0
M  V30 6118 H 591.013 1.51375 3.40465 0
M  V30 6119 H 591.126 3.39779 3.37768 0
M  V30 6120 H 589.49 1.73681 1.86298 0
M  V30 6121 H 590.273 3.24054 1.1333 0
M  V30 6122 N 592.718 -0.936591 1.26751 0
M  V30 6123 C 594.129 -1.49816 1.1141 0
M  V30 6124 C 594.48 -1.9383 -0.304015 0
M  V30 6125 O 593.605 -1.80346 -1.196 0
M  V30 6126 C 594.2 -2.72271 2.01629 0
M  V30 6127 C 592.759 -3.2468 1.9042 0
M  V30 6128 C 591.906 -1.97444 1.94708 0
M  V30 6129 H 594.857 -0.751604 1.39773 0
M  V30 6130 H 594.878 -3.46741 1.56688 0
M  V30 6131 H 594.39 -2.40205 3.04833 0
M  V30 6132 H 592.491 -3.61525 0.901674 0
M  V30 6133 H 592.604 -3.91476 2.76195 0
M  V30 6134 H 590.968 -2.13545 1.38818 0
M  V30 6135 H 591.751 -1.67703 2.9955 0
M  V30 6136 N 594.196 -1.08629 -1.14182 0
M  V30 6137 C 595.426 -0.837673 -1.88856 0
M  V30 6138 C 595.834 0.614024 -1.78959 0
M  V30 6139 O 595.177 1.43384 -1.14833 0
M  V30 6140 C 595.239 -1.18355 -3.39459 0
M  V30 6141 C 594.903 -2.63848 -3.73139 0
M  V30 6142 C 595.9 -3.62099 -3.73069 0
M  V30 6143 C 593.585 -2.99761 -4.03049 0
M  V30 6144 C 595.579 -4.94292 -4.02435 0
M  V30 6145 C 593.266 -4.32147 -4.32078 0
M  V30 6146 C 594.264 -5.29223 -4.31755 0
M  V30 6147 O 593.952 -6.59229 -4.60079 0
M  V30 6148 H 593.684 -0.301609 -0.604986 0
M  V30 6149 H 596.238 -1.44961 -1.45518 0
M  V30 6150 H 594.468 -0.514628 -3.8326 0
M  V30 6151 H 596.157 -0.915391 -3.95443 0
M  V30 6152 H 596.923 -3.35698 -3.50046 0
M  V30 6153 H 592.802 -2.2484 -4.02453 0
M  V30 6154 H 596.346 -5.70055 -4.02098 0
M  V30 6155 H 592.243 -4.58296 -4.54571 0
M  V30 6156 H 593.011 -6.64578 -4.77785 0
M  V30 6157 N 595.674 1.31259 -0.872281 0
M  V30 6158 C 596.923 1.95893 -0.480493 0
M  V30 6159 C 597.236 1.697 0.972688 0
M  V30 6160 O 598.442 2.28214 1.47073 0
M  V30 6161 C 596.898 3.50705 -0.808342 0
M  V30 6162 C 596.506 3.85735 -2.27844 0
M  V30 6163 C 598.25 4.21719 -0.485136 0
M  V30 6164 C 596.157 5.33668 -2.54858 0
M  V30 6165 H 595.087 0.733182 -0.175955 0
M  V30 6166 H 597.738 1.49396 -1.0655 0
M  V30 6167 H 596.12 3.95706 -0.152558 0
M  V30 6168 H 597.294 3.51686 -2.97748 0
M  V30 6169 H 595.609 3.27792 -2.56791 0
M  V30 6170 H 598.206 5.30559 -0.664166 0
M  V30 6171 H 598.549 4.12316 0.574592 0
M  V30 6172 H 599.082 3.82359 -1.09756 0
M  V30 6173 H 595.821 5.48109 -3.59523 0
M  V30 6174 H 595.341 5.69061 -1.8955 0
M  V30 6175 H 597.02 6.00958 -2.39706 0
M  V30 6176 N 597.152 0.631951 1.44375 0
M  V30 6177 C 598.401 0.134214 2.01253 0
M  V30 6178 C 598.714 -1.25171 1.50305 0
M  V30 6179 O 599.92 -1.8435 1.99317 0
M  V30 6180 C 598.376 0.189187 3.59402 0
M  V30 6181 C 597.984 1.57647 4.19346 0
M  V30 6182 C 599.728 -0.252044 4.23751 0
M  V30 6183 C 597.635 1.58651 5.69722 0
M  V30 6184 H 596.565 0.0464101 0.75257 0
M  V30 6185 H 599.216 0.790868 1.65582 0
M  V30 6186 H 597.598 -0.534584 3.92375 0
M  V30 6187 H 598.772 2.32389 3.97909 0
M  V30 6188 H 597.087 1.96186 3.67288 0
M  V30 6189 H 599.684 -0.264084 5.34047 0
M  V30 6190 H 600.027 -1.27951 3.96149 0
M  V30 6191 H 600.56 0.41926 3.95584 0
M  V30 6192 H 597.299 2.59237 6.0206 0
M  V30 6193 H 596.819 0.882039 5.93279 0
M  V30 6194 H 598.498 1.32082 6.33375 0
M  V30 6195 N 598.631 -1.53133 0.372548 0
M  V30 6196 C 599.561 -2.28876 -0.462412 0
M  V30 6197 C 600.542 -1.31583 -1.07796 0
M  V30 6198 O 601.727 -1.60461 -1.09389 0
M  V30 6199 C 598.857 -3.08317 -1.59868 0
M  V30 6200 C 597.811 -4.13355 -1.11003 0
M  V30 6201 C 597.137 -4.8092 -2.33708 0
M  V30 6202 C 598.437 -5.21955 -0.18983 0
M  V30 6203 H 600.131 -2.9892 0.169511 0
M  V30 6204 H 597.677 -1.43761 0.0829658 0
M  V30 6205 H 599.63 -3.60055 -2.18949 0
M  V30 6206 H 598.354 -2.35976 -2.25794 0
M  V30 6207 H 597.013 -3.62573 -0.541869 0
M  V30 6208 H 596.661 -4.05144 -2.98106 0
M  V30 6209 H 596.361 -5.51904 -2.01682 0
M  V30 6210 H 597.885 -5.35455 -2.93462 0
M  V30 6211 H 599.299 -5.69153 -0.688319 0
M  V30 6212 H 597.696 -6.00087 0.0398887 0
M  V30 6213 H 598.766 -4.78811 0.766057 0
M  V30 6214 N 600.109 -0.101901 -1.5727 0
M  V30 6215 C 601.52 0.426173 -1.81771 0
M  V30 6216 C 601.871 1.67725 -1.01797 0
M  V30 6217 O 600.996 2.14958 -0.249386 0
M  V30 6218 C 601.591 0.779962 -3.297 0
M  V30 6219 C 600.15 1.25275 -3.54941 0
M  V30 6220 C 599.297 0.252814 -2.76145 0
M  V30 6221 H 602.248 -0.32726 -1.55289 0
M  V30 6222 H 602.269 1.63891 -3.43395 0
M  V30 6223 H 601.781 -0.130778 -3.8788 0
M  V30 6224 H 599.882 2.18097 -3.021 0
M  V30 6225 H 599.995 1.20988 -4.63572 0
M  V30 6226 H 598.359 0.736362 -2.43823 0
M  V30 6227 H 599.142 -0.650724 -3.37076 0
M  V30 6228 N 601.587 1.56661 0.17182 0
M  V30 6229 C 602.519 1.92934 1.2373 0
M  V30 6230 C 603.532 0.822385 1.40502 0
M  V30 6231 O 604.721 1.10083 1.40514 0
M  V30 6232 C 601.821 2.16651 2.60607 0
M  V30 6233 C 600.994 3.47878 2.6514 0
M  V30 6234 C 600.053 3.60429 3.83377 0
M  V30 6235 O 599.079 4.33051 3.69398 0
M  V30 6236 N 600.281 2.95241 4.99813 0
M  V30 6237 H 603.046 2.84931 0.929205 0
M  V30 6238 H 600.607 1.5781 0.361588 0
M  V30 6239 H 602.599 2.22312 3.38171 0
M  V30 6240 H 601.169 1.3104 2.83809 0
M  V30 6241 H 600.389 3.53879 1.73675 0
M  V30 6242 H 601.677 4.34232 2.6518 0
M  V30 6243 H 601.075 2.3611 5.14071 0
M  V30 6244 H 599.632 3.06499 5.75241 0
M  V30 6245 N 603.065 -0.440357 1.51323 0
M  V30 6246 C 603.997 -1.55254 1.68609 0
M  V30 6247 C 605.01 -1.52614 0.566812 0
M  V30 6248 O 606.199 -1.57445 0.841032 0
M  V30 6249 C 603.299 -2.94169 1.68279 0
M  V30 6250 C 602.472 -3.21346 2.96742 0
M  V30 6251 C 601.531 -4.3997 2.8864 0
M  V30 6252 O 600.557 -4.38771 3.62586 0
M  V30 6253 N 601.759 -5.43367 2.04285 0
M  V30 6254 H 604.524 -1.40831 2.6455 0
M  V30 6255 H 602.085 -0.629251 1.49171 0
M  V30 6256 H 604.077 -3.71543 1.60431 0
M  V30 6257 H 602.647 -3.02205 0.799441 0
M  V30 6258 H 601.867 -2.32299 3.18482 0
M  V30 6259 H 603.155 -3.3633 3.81785 0
M  V30 6260 H 602.553 -5.47176 1.43578 0
M  V30 6261 H 601.11 -6.19605 2.02318 0
M  V30 6262 N 604.543 -1.41418 -0.695603 0
M  V30 6263 C 605.473 -1.46035 -1.82197 0
M  V30 6264 C 606.454 -0.319025 -1.67082 0
M  V30 6265 O 607.639 -0.530462 -1.86815 0
M  V30 6266 C 604.769 -1.34179 -3.20333 0
M  V30 6267 C 603.723 -2.46123 -3.50154 0
M  V30 6268 C 603.049 -2.19332 -4.87645 0
M  V30 6269 C 604.349 -3.88463 -3.49133 0
M  V30 6270 H 606.043 -2.40303 -1.78591 0
M  V30 6271 H 603.589 -1.15663 -0.857797 0
M  V30 6272 H 605.542 -1.36021 -3.98844 0
M  V30 6273 H 604.266 -0.363952 -3.24566 0
M  V30 6274 H 602.925 -2.43563 -2.73994 0
M  V30 6275 H 602.573 -1.19891 -4.88503 0
M  V30 6276 H 602.273 -2.94344 -5.08562 0
M  V30 6277 H 603.797 -2.22889 -5.68465 0
M  V30 6278 H 605.211 -3.92738 -4.17648 0
M  V30 6279 H 603.608 -4.63158 -3.81582 0
M  V30 6280 H 604.678 -4.16617 -2.48109 0
M  V30 6281 N 606.021 0.929856 -1.27246 0
M  V30 6282 C 606.953 2.03434 -1.0558 0
M  V30 6283 C 607.966 1.62795 -0.0125762 0
M  V30 6284 O 609.155 1.76685 -0.2539 0
M  V30 6285 C 606.255 3.33915 -0.57912 0
M  V30 6286 C 605.428 4.03259 -1.69415 0
M  V30 6287 C 604.487 5.12014 -1.21357 0
M  V30 6288 O 603.513 5.36097 -1.91282 0
M  V30 6289 N 604.715 5.8046 -0.0680622 0
M  V30 6290 H 607.48 2.22583 -2.00691 0
M  V30 6291 H 605.041 1.1001 -1.18783 0
M  V30 6292 H 607.033 4.03978 -0.241563 0
M  V30 6293 H 605.603 3.11355 0.278703 0
M  V30 6294 H 604.823 3.26958 -2.20209 0
M  V30 6295 H 606.111 4.46337 -2.44255 0
M  V30 6296 H 605.509 5.63345 0.515626 0
M  V30 6297 H 604.066 6.51461 0.210332 0
M  V30 6298 N 607.499 1.09233 1.13605 0
M  V30 6299 C 608.915 0.82163 1.36826 0
M  V30 6300 C 609.115 -0.565021 1.93416 0
M  V30 6301 O 608.171 -1.32026 2.15234 0
M  V30 6302 C 609.484 1.91124 2.32147 0
M  V30 6303 C 611.032 1.93824 2.45767 0
M  V30 6304 C 611.507 3.01923 3.44393 0
M  V30 6305 N 612.998 3.01149 3.51942 0
M  V30 6306 C 613.733 3.81434 4.2813 0
M  V30 6307 N 613.229 4.71621 5.07489 0
M  V30 6308 N 615.022 3.69702 4.23411 0
M  V30 6309 H 607.173 1.98633 0.752234 0
M  V30 6310 H 609.436 0.862482 0.393482 0
M  V30 6311 H 609.142 2.90862 1.97717 0
M  V30 6312 H 609.016 1.78777 3.32142 0
M  V30 6313 H 611.403 0.94726 2.79483 0
M  V30 6314 H 611.484 2.10248 1.45703 0
M  V30 6315 H 611.128 4.01232 3.11408 0
M  V30 6316 H 611.058 2.82742 4.44257 0
M  V30 6317 H 613.549 2.35789 2.95317 0
M  V30 6318 H 613.862 5.29468 5.62924 0
M  V30 6319 H 612.207 4.75658 5.06729 0
M  V30 6320 H 615.398 2.98606 3.60489 0
M  V30 6321 H 615.571 4.32509 4.82535 0
M  V30 6322 N 608.977 -1.30795 0.87923 0
M  V30 6323 C 609.907 -2.30742 0.357796 0
M  V30 6324 C 610.888 -1.60747 -0.556283 0
M  V30 6325 O 612.073 -1.88393 -0.47135 0
M  V30 6326 C 609.203 -3.44583 -0.433555 0
M  V30 6327 C 608.157 -4.26235 0.388251 0
M  V30 6328 C 607.483 -5.32073 -0.529352 0
M  V30 6329 C 608.783 -4.96303 1.62729 0
M  V30 6330 H 610.477 -2.74605 1.19299 0
M  V30 6331 H 608.023 -1.32017 0.575104 0
M  V30 6332 H 609.976 -4.13563 -0.808934 0
M  V30 6333 H 608.7 -2.99511 -1.30234 0
M  V30 6334 H 607.359 -3.58936 0.745695 0
M  V30 6335 H 607.007 -4.83249 -1.39569 0
M  V30 6336 H 606.707 -5.87598 0.0166741 0
M  V30 6337 H 608.231 -6.0391 -0.901373 0
M  V30 6338 H 609.645 -5.5783 1.32283 0
M  V30 6339 H 608.042 -5.61666 2.11309 0
M  V30 6340 H 609.112 -4.22758 2.37494 0
M  V30 6341 N 610.455 -0.639598 -1.44038 0
M  V30 6342 C 611.683 -0.154811 -2.0632 0
M  V30 6343 C 612.098 1.17406 -1.47856 0
M  V30 6344 O 611.455 1.72193 -0.604638 0
M  V30 6345 C 611.506 -0.0429958 -3.61474 0
M  V30 6346 O 611.227 -1.31932 -4.17763 0
M  V30 6347 C 612.728 0.469486 -4.40807 0
M  V30 6348 H 609.948 -0.0835862 -0.665773 0
M  V30 6349 H 612.492 -0.876397 -1.84769 0
M  V30 6350 H 610.647 0.629075 -3.82258 0
M  V30 6351 H 611.061 -1.16965 -5.11292 0
M  V30 6352 H 612.535 0.496712 -5.49761 0
M  V30 6353 H 613.012 1.49819 -4.12857 0
M  V30 6354 H 613.618 -0.169624 -4.24962 0
M  V30 6355 N 611.933 1.52934 -0.380664 0
M  V30 6356 C 612.896 2.24809 0.446473 0
M  V30 6357 C 613.896 1.26133 0.997347 0
M  V30 6358 O 615.086 1.50297 0.880714 0
M  V30 6359 C 612.218 2.99649 1.62553 0
M  V30 6360 H 613.411 2.99343 -0.182677 0
M  V30 6361 H 610.964 1.55736 -0.132618 0
M  V30 6362 H 611.699 2.29395 2.29235 0
M  V30 6363 H 611.484 3.72066 1.23732 0
M  V30 6364 H 612.974 3.54246 2.21133 0
M  V30 6365 N 613.412 0.11024 1.57214 0
M  V30 6366 C 614.375 -0.828808 2.1369 0
M  V30 6367 C 615.375 -1.20059 1.06969 0
M  V30 6368 O 616.565 -1.12754 1.32786 0
M  V30 6369 C 613.697 -2.11959 2.66994 0
M  V30 6370 H 614.89 -0.338146 2.97988 0
M  V30 6371 H 612.443 -0.138913 1.55681 0
M  V30 6372 H 613.178 -2.65476 1.8626 0
M  V30 6373 H 612.963 -1.86258 3.45037 0
M  V30 6374 H 614.453 -2.79105 3.10629 0
M  V30 6375 N 614.89 -1.56749 -0.16351 0
M  V30 6376 C 616.136 -1.82704 -0.880168 0
M  V30 6377 C 616.469 -0.689311 -1.81555 0
M  V30 6378 O 615.744 0.308224 -1.92042 0
M  V30 6379 C 616.027 -3.19084 -1.66905 0
M  V30 6380 C 615.88 -4.43397 -0.756269 0
M  V30 6381 C 617.199 -3.52493 -2.63509 0
M  V30 6382 H 614.318 -0.664608 -0.318535 0
M  V30 6383 H 616.96 -1.89438 -0.146036 0
M  V30 6384 H 615.11 -3.13475 -2.2949 0
M  V30 6385 H 616.782 -4.61079 -0.14269 0
M  V30 6386 H 615.025 -4.33752 -0.0647944 0
M  V30 6387 H 615.696 -5.3539 -1.34393 0
M  V30 6388 H 618.172 -3.58606 -2.11047 0
M  V30 6389 H 617.048 -4.48979 -3.15767 0
M  V30 6390 H 617.309 -2.77597 -3.44082 0
M  V30 6391 N 616.368 0.432326 -1.51554 0
M  V30 6392 C 617.316 1.54572 -1.73811 0
M  V30 6393 C 618.31 1.58246 -0.604539 0
M  V30 6394 O 619.516 1.6193 -0.786041 0
M  V30 6395 H 615.891 0.513626 -0.549265 0
M  V30 6396 H 617.862 1.32977 -2.67132 0
M  V30 6397 C 616.611 2.92181 -1.88483 0
M  V30 6398 H 615.934 2.90088 -2.75116 0
M  V30 6399 H 617.374 3.69439 -2.08065 0
M  V30 6400 C 615.833 3.3065 -0.645909 0
M  V30 6401 O 616.363 4.01216 0.197093 0
M  V30 6402 N 614.569 2.86464 -0.488538 0
M  V30 6403 H 614.116 2.29209 -1.17562 0
M  V30 6404 H 614.074 3.12565 0.339156 0
M  V30 6405 N 617.846 1.41785 0.688094 0
M  V30 6406 C 619.262 1.24419 0.999608 0
M  V30 6407 C 619.462 0.138868 2.01021 0
M  V30 6408 O 618.518 -0.494283 2.47615 0
M  V30 6409 C 619.831 2.59625 1.51709 0
M  V30 6410 C 621.379 2.66869 1.63554 0
M  V30 6411 C 621.854 4.0241 2.18702 0
M  V30 6412 N 623.345 4.04295 2.26053 0
M  V30 6413 C 624.08 5.05977 2.69768 0
M  V30 6414 N 623.576 6.18047 3.13033 0
M  V30 6415 N 625.369 4.93336 2.69398 0
M  V30 6416 H 617.52 2.12392 0.0187427 0
M  V30 6417 H 619.783 0.945347 0.0708673 0
M  V30 6418 H 619.489 3.41297 0.849059 0
M  V30 6419 H 619.363 2.82628 2.49803 0
M  V30 6420 H 621.75 1.8555 2.29467 0
M  V30 6421 H 621.831 2.47668 0.639857 0
M  V30 6422 H 621.475 4.8418 1.53402 0
M  V30 6423 H 621.405 4.18955 3.19037 0
M  V30 6424 H 623.896 3.23383 1.9553 0
M  V30 6425 H 624.209 6.91498 3.45038 0
M  V30 6426 H 622.554 6.21572 3.10923 0
M  V30 6427 H 625.745 4.04865 2.34952 0
M  V30 6428 H 625.918 5.72717 3.03148 0
M  V30 6429 N 619.324 -0.923095 1.27737 0
M  V30 6430 C 620.287 -2.00587 1.10894 0
M  V30 6431 C 621.287 -1.60718 0.0514927 0
M  V30 6432 O 622.477 -1.71658 0.296481 0
M  V30 6433 C 619.609 -3.33829 0.690717 0
M  V30 6434 H 620.802 -2.16959 2.07048 0
M  V30 6435 H 618.355 -1.10451 1.1059 0
M  V30 6436 H 619.09 -3.23157 -0.272 0
M  V30 6437 H 618.875 -3.64125 1.45448 0
M  V30 6438 H 620.365 -4.13336 0.595252 0
M  V30 6439 N 620.802 -1.09834 -1.13024 0
M  V30 6440 C 622.048 -0.83819 -1.84668 0
M  V30 6441 C 622.381 0.634645 -1.83537 0
M  V30 6442 O 621.656 1.46753 -1.27647 0
M  V30 6443 C 621.939 -1.37933 -3.32636 0
M  V30 6444 C 621.792 -2.91857 -3.42257 0
M  V30 6445 C 623.111 -1.01654 -4.28199 0
M  V30 6446 H 620.23 -0.30595 -0.670495 0
M  V30 6447 H 622.872 -1.36044 -1.32635 0
M  V30 6448 H 621.022 -0.935111 -3.77078 0
M  V30 6449 H 622.694 -3.44759 -3.06495 0
M  V30 6450 H 620.937 -3.28776 -2.83 0
M  V30 6451 H 621.608 -3.24799 -4.46329 0
M  V30 6452 H 624.084 -1.39973 -3.9185 0
M  V30 6453 H 622.96 -1.42217 -5.30156 0
M  V30 6454 H 623.221 0.0747794 -4.42037 0
M  V30 6455 N 622.28 1.30327 -0.886154 0
M  V30 6456 C 623.212 2.27079 -0.311072 0
M  V30 6457 C 624.225 1.53758 0.53502 0
M  V30 6458 O 625.414 1.74947 0.354378 0
M  V30 6459 C 622.514 3.33965 0.576228 0
M  V30 6460 C 621.687 4.36735 -0.241064 0
M  V30 6461 C 620.746 5.23028 0.576916 0
M  V30 6462 O 619.772 5.692 -0.000802231 0
M  V30 6463 N 620.974 5.49016 1.88579 0
M  V30 6464 H 623.739 2.77065 -1.14259 0
M  V30 6465 H 621.3 1.43519 -0.749258 0
M  V30 6466 H 623.292 3.88618 1.12953 0
M  V30 6467 H 621.862 2.839 1.30842 0
M  V30 6468 H 621.082 3.81932 -0.975805 0
M  V30 6469 H 622.37 5.02451 -0.801272 0
M  V30 6470 H 621.768 5.13288 2.37806 0
M  V30 6471 H 620.325 6.06539 2.38651 0
M  V30 6472 N 623.758 0.647228 1.43697 0
M  V30 6473 C 625.035 0.0883758 1.954 0
M  V30 6474 C 625.415 -1.39006 1.58873 0
M  V30 6475 O 624.763 -2.11255 0.87083 0
M  V30 6476 C 624.973 0.328263 3.47453 0
M  V30 6477 C 626.321 0.230009 4.23977 0
M  V30 6478 O 627.345 0.260496 3.55246 0
M  V30 6479 O 626.204 0.148615 5.46298 0
M  V30 6480 H 623.298 -0.0130683 0.826897 0
M  V30 6481 H 625.844 0.72005 1.53666 0
M  V30 6482 H 624.616 1.3535 3.67146 0
M  V30 6483 H 624.239 -0.336772 3.96171 0
M  V30 6484 N 625.236 -1.5273 0.388769 0
M  V30 6485 C 626.146 -2.30165 -0.453993 0
M  V30 6486 C 627.162 -1.37058 -1.07197 0
M  V30 6487 O 628.338 -1.70127 -1.0779 0
M  V30 6488 C 625.403 -3.09303 -1.56628 0
M  V30 6489 C 624.464 -4.18117 -0.973467 0
M  V30 6490 C 623.697 -4.93472 -2.03275 0
M  V30 6491 O 623.92 -4.68913 -3.24772 0
M  V30 6492 O 622.854 -5.78833 -1.65034 0
M  V30 6493 H 626.68 -3.03185 0.176816 0
M  V30 6494 H 624.265 -1.4862 0.152501 0
M  V30 6495 H 626.147 -3.58648 -2.21246 0
M  V30 6496 H 624.822 -2.39098 -2.18206 0
M  V30 6497 H 623.729 -3.7297 -0.290556 0
M  V30 6498 H 625.062 -4.90556 -0.401908 0
M  V30 6499 N 626.714 -0.118576 -1.57153 0
M  V30 6500 C 627.942 0.54726 -1.99531 0
M  V30 6501 C 628.357 1.60251 -0.998246 0
M  V30 6502 O 627.714 1.82498 0.00893106 0
M  V30 6503 C 627.765 1.17378 -3.41913 0
M  V30 6504 O 627.486 0.160703 -4.37805 0
M  V30 6505 C 628.987 1.92297 -3.9942 0
M  V30 6506 H 626.207 0.144919 -0.655164 0
M  V30 6507 H 628.751 -0.20479 -2.03472 0
M  V30 6508 H 626.906 1.87661 -3.38913 0
M  V30 6509 H 627.32 0.61586 -5.20872 0
M  V30 6510 H 628.794 2.31462 -5.01128 0
M  V30 6511 H 629.271 2.79801 -3.38538 0
M  V30 6512 H 629.877 1.26777 -4.05965 0
M  V30 6513 N 628.193 1.56834 0.155195 0
M  V30 6514 C 629.44 1.82898 0.869179 0
M  V30 6515 C 629.768 0.698194 1.81537 0
M  V30 6516 O 629.023 -0.313404 1.93174 0
M  V30 6517 C 629.322 3.15239 1.68402 0
M  V30 6518 C 628.988 4.42123 0.885341 0
M  V30 6519 C 627.65 4.76583 0.664971 0
M  V30 6520 C 630.002 5.20178 0.326234 0
M  V30 6521 C 627.33 5.86566 -0.125346 0
M  V30 6522 C 629.682 6.3099 -0.45108 0
M  V30 6523 C 628.346 6.64006 -0.682102 0
M  V30 6524 H 627.616 0.66927 0.318055 0
M  V30 6525 H 630.263 1.91036 0.133241 0
M  V30 6526 H 628.568 3.02515 2.48982 0
M  V30 6527 H 630.265 3.32618 2.23978 0
M  V30 6528 H 626.855 4.15102 1.06716 0
M  V30 6529 H 631.039 4.93936 0.483787 0
M  V30 6530 H 626.295 6.10594 -0.313915 0
M  V30 6531 H 630.469 6.9067 -0.89149 0
M  V30 6532 H 628.096 7.49065 -1.29636 0
M  V30 6533 N 629.671 -0.424282 1.51781 0
M  V30 6534 C 630.918 -1.1726 1.65095 0
M  V30 6535 C 631.246 -1.90881 0.373477 0
M  V30 6536 O 630.501 -1.84835 -0.642997 0
M  V30 6537 C 630.8 -2.20418 2.81337 0
M  V30 6538 C 630.466 -1.63715 4.20129 0
M  V30 6539 C 629.128 -1.47975 4.57883 0
M  V30 6540 C 631.48 -1.22157 5.06682 0
M  V30 6541 C 628.808 -0.891703 5.79884 0
M  V30 6542 C 631.16 -0.647767 6.29275 0
M  V30 6543 C 629.824 -0.477371 6.65791 0
M  V30 6544 H 629.094 -0.429085 0.604125 0
M  V30 6545 H 631.741 -0.461852 1.85847 0
M  V30 6546 H 630.046 -2.97581 2.54859 0
M  V30 6547 H 631.743 -2.78163 2.88836 0
M  V30 6548 H 628.333 -1.76946 3.90369 0
M  V30 6549 H 632.517 -1.33133 4.7811 0
M  V30 6550 H 627.773 -0.747563 6.06813 0
M  V30 6551 H 631.947 -0.317291 6.95677 0
M  V30 6552 H 629.574 -0.0195936 7.60197 0
M  V30 6553 N 631.149 -1.42148 -0.680565 0
M  V30 6554 C 632.389 -1.4379 -1.45271 0
M  V30 6555 C 632.753 -0.0504426 -1.91934 0
M  V30 6556 O 633.954 0.0583916 -2.68737 0
M  V30 6557 C 632.225 -2.42904 -2.62168 0
M  V30 6558 S 633.784 -2.63201 -3.51099 0
M  V30 6559 H 630.602 -0.509185 -0.496237 0
M  V30 6560 H 633.204 -1.78706 -0.792744 0
M  V30 6561 H 631.908 -3.4249 -2.26116 0
M  V30 6562 H 631.439 -2.09394 -3.33043 0
M  V30 6563 H 633.454 -1.91068 -4.57938 0
M  V30 6564 N 632.627 0.916307 -1.28225 0
M  V30 6565 C 633.559 2.02303 -1.07732 0
M  V30 6566 C 634.572 1.62773 -0.0298421 0
M  V30 6567 O 635.761 1.76406 -0.272626 0
M  V30 6568 C 632.861 3.33282 -0.614504 0
M  V30 6569 C 632.034 4.01439 -1.73682 0
M  V30 6570 C 631.093 5.10698 -1.26781 0
M  V30 6571 O 630.119 5.34038 -1.96958 0
M  V30 6572 N 631.321 5.80355 -0.129624 0
M  V30 6573 H 634.086 2.20442 -2.03041 0
M  V30 6574 H 631.647 1.08744 -1.19943 0
M  V30 6575 H 633.639 4.03699 -0.284397 0
M  V30 6576 H 632.209 3.11633 0.245664 0
M  V30 6577 H 631.429 3.24604 -2.23665 0
M  V30 6578 H 632.717 4.43721 -2.48976 0
M  V30 6579 H 632.115 5.6386 0.455847 0
M  V30 6580 H 630.672 6.51647 0.141224 0
M  V30 6581 O 634.144 1.22616 1.05108 0
M  V30 6582 H 634.835 0.992769 1.66324 0
M  V30 END ATOM
M  V30 BEGIN BOND
M  V30 END BOND
M  V30 END CTAB
M  END
$$$$
