drugbank_target|Q13131 5'-AMP-activated protein kinase catalytic subunit alpha-1 (DB00131; DB00171; DB00914; DB12010)
 OpenBabel12092119363D

  0  0  0     0  0            999 V3000
M  V30 BEGIN CTAB
M  V30 COUNTS 8987 9088 0 0 0
M  V30 BEGIN ATOM
M  V30 1 H -0.908 1.98254 -0.117106 0
M  V30 2 N 0 1.576 0 0
M  V30 3 C 0.933 2.03868 1.02534 0
M  V30 4 C 1.911 0.928543 1.3348 0
M  V30 5 O 3.095 1.19667 1.45644 0
M  V30 6 C 0.222 2.43627 2.35294 0
M  V30 7 C -0.732 3.65373 2.2001 0
M  V30 8 S 0.101 5.13292 1.52614 0
M  V30 9 C 1.257 5.56322 2.86805 0
M  V30 10 H 1.49 2.90518 0.631377 0
M  V30 11 H -0.977 1.52953 0.210867 0
M  V30 12 H 0.981 2.67203 3.11629 0
M  V30 13 H -0.358 1.57376 2.7183 0
M  V30 14 H -1.165 3.90944 3.18086 0
M  V30 15 H -1.563 3.418 1.51819 0
M  V30 16 H 0.729 5.58782 3.83104 0
M  V30 17 H 1.672 6.56266 2.65933 0
M  V30 18 H 2.08 4.83886 2.90714 0
M  V30 19 N 1.4781 -0.272755 1.55222 0
M  V30 20 C 2.8941 -0.619959 1.47067 0
M  V30 21 C 3.0941 -1.895 0.684978 0
M  V30 22 O 2.1501 -2.51675 0.203931 0
M  V30 23 C 3.4631 -0.746693 2.91282 0
M  V30 24 C 5.0111 -0.840731 3.01497 0
M  V30 25 C 5.4861 -0.99924 4.46967 0
M  V30 26 N 6.9771 -1.06476 4.50796 0
M  V30 27 C 7.7121 -1.20621 5.6057 0
M  V30 28 N 7.2081 -1.31483 6.80209 0
M  V30 29 N 9.0011 -1.23733 5.48312 0
M  V30 30 H 1.1521 0.564606 2.04758 0
M  V30 31 H 3.4151 0.191177 0.928523 0
M  V30 32 H 3.1211 0.119753 3.51496 0
M  V30 33 H 2.9951 -1.6269 3.40311 0
M  V30 34 H 5.3821 -1.69764 2.41379 0
M  V30 35 H 5.4631 0.0640874 2.5572 0
M  V30 36 H 5.1071 -0.146984 5.07687 0
M  V30 37 H 5.0371 -1.91871 4.90401 0
M  V30 38 H 7.5281 -0.993196 3.64615 0
M  V30 39 H 7.8411 -1.42111 7.59621 0
M  V30 40 H 6.1861 -1.28487 6.8302 0
M  V30 41 H 9.3771 -1.14877 4.53785 0
M  V30 42 H 9.5501 -1.34412 6.33906 0
M  V30 43 N 2.9562 -1.48159 -0.537278 0
M  V30 44 C 4.3722 -1.34118 -0.865129 0
M  V30 45 C 4.5722 -0.346678 -1.98495 0
M  V30 46 O 3.6282 0.234715 -2.51407 0
M  V30 47 C 4.9412 -2.73963 -1.23954 0
M  V30 48 C 6.4892 -2.82397 -1.34984 0
M  V30 49 C 6.9642 -4.22928 -1.75772 0
M  V30 50 N 8.4552 -4.25566 -1.82887 0
M  V30 51 C 9.1902 -5.31235 -2.15817 0
M  V30 52 N 8.6862 -6.47189 -2.47222 0
M  V30 53 N 10.4792 -5.18624 -2.16761 0
M  V30 54 H 2.6302 -2.1144 0.201715 0
M  V30 55 H 4.8932 -0.947598 0.0275949 0
M  V30 56 H 4.5992 -3.48264 -0.490381 0
M  V30 57 H 4.4732 -3.0702 -2.19132 0
M  V30 58 H 6.8602 -2.08356 -2.08978 0
M  V30 59 H 6.9412 -2.5297 -0.379448 0
M  V30 60 H 6.5852 -4.97482 -1.02341 0
M  V30 61 H 6.5152 -4.49794 -2.73848 0
M  V30 62 H 9.0062 -3.41924 -1.60924 0
M  V30 63 H 9.3192 -7.23564 -2.71433 0
M  V30 64 H 7.6642 -6.50476 -2.44757 0
M  V30 65 H 10.8552 -4.27056 -1.91679 0
M  V30 66 H 11.0282 -6.01078 -2.42093 0
M  V30 67 N 4.4343 0.785586 -1.36625 0
M  V30 68 C 5.3643 1.91259 -1.33949 0
M  V30 69 C 6.3453 1.68795 -0.210325 0
M  V30 70 O 7.5303 1.89854 -0.408561 0
M  V30 71 C 4.6603 3.28339 -1.13186 0
M  V30 72 C 3.6143 3.65335 -2.22967 0
M  V30 73 C 2.9403 5.00806 -1.87342 0
M  V30 74 C 4.2403 3.7352 -3.65075 0
M  V30 75 H 5.9343 1.93755 -2.28253 0
M  V30 76 H 3.4803 0.930788 -1.09874 0
M  V30 77 H 5.4333 4.06804 -1.09948 0
M  V30 78 H 4.1573 3.2624 -0.153332 0
M  V30 79 H 2.8163 2.89169 -2.25337 0
M  V30 80 H 2.4643 4.95233 -0.880545 0
M  V30 81 H 2.1643 5.26529 -2.60846 0
M  V30 82 H 3.6883 5.81687 -1.85667 0
M  V30 83 H 5.1023 4.42168 -3.64911 0
M  V30 84 H 3.4993 4.10731 -4.37516 0
M  V30 85 H 4.5693 2.74527 -3.99703 0
M  V30 86 N 5.9124 1.20967 1.01018 0
M  V30 87 C 7.1374 1.0503 1.78839 0
M  V30 88 C 7.5624 -0.395752 1.8389 0
M  V30 89 O 6.9204 -1.28529 1.27867 0
M  V30 90 C 6.9684 1.64602 3.2084 0
M  V30 91 O 6.0724 0.887988 4.02726 0
M  V30 92 H 5.4134 0.369987 0.551367 0
M  V30 93 H 7.9434 1.60399 1.27018 0
M  V30 94 H 7.9534 1.68607 3.71532 0
M  V30 95 H 6.6284 2.69841 3.16479 0
M  V30 96 H 5.2054 0.922648 3.61305 0
M  V30 97 N 7.3905 -1.2043 1.01659 0
M  V30 98 C 8.6155 -1.94318 0.724942 0
M  V30 99 C 9.0405 -1.74266 -0.708034 0
M  V30 100 O 8.3985 -1.03694 -1.48719 0
M  V30 101 C 8.4465 -3.44486 1.06591 0
M  V30 102 O 7.5505 -4.12017 0.177599 0
M  V30 103 H 6.8915 -0.60708 0.26898 0
M  V30 104 H 9.4215 -1.52861 1.35995 0
M  V30 105 H 9.4315 -3.95106 1.01762 0
M  V30 106 H 8.1065 -3.58404 2.10997 0
M  V30 107 H 6.6835 -3.71821 0.283421 0
M  V30 108 N 8.8686 -0.792821 -1.36206 0
M  V30 109 C 10.1146 -0.376415 -1.99887 0
M  V30 110 C 10.4696 1.04127 -1.61788 0
M  V30 111 O 9.7626 1.71004 -0.864193 0
M  V30 112 C 9.9566 -0.481501 -3.54142 0
M  V30 113 C 9.7856 -1.90786 -4.07223 0
M  V30 114 C 8.5556 -2.53322 -4.37214 0
M  V30 115 C 10.7536 -2.87048 -4.26741 0
M  V30 116 N 8.7356 -3.8751 -4.7614 0
M  V30 117 C 10.1066 -4.06077 -4.6851 0
M  V30 118 C 12.1616 -2.8406 -4.08918 0
M  V30 119 C 10.8646 -5.22532 -4.94321 0
M  V30 120 C 12.8906 -3.99705 -4.35878 0
M  V30 121 C 12.2526 -5.1748 -4.77906 0
M  V30 122 H 8.3516 -0.185226 -0.759747 0
M  V30 123 H 10.9356 -1.03114 -1.65153 0
M  V30 124 H 9.1066 0.143154 -3.88136 0
M  V30 125 H 10.8386 -0.0410128 -4.04679 0
M  V30 126 H 7.5936 -2.04777 -4.2704 0
M  V30 127 H 8.0176 -4.5656 -4.99882 0
M  V30 128 H 12.6596 -1.94165 -3.75579 0
M  V30 129 H 10.3776 -6.1301 -5.2654 0
M  V30 130 H 13.9636 -3.98758 -4.23655 0
M  V30 131 H 12.8436 -6.05478 -4.98363 0
M  V30 132 N 10.3467 1.47872 -0.545128 0
M  V30 133 C 11.7627 1.5829 -0.204032 0
M  V30 134 C 11.9627 1.54529 1.29317 0
M  V30 135 O 11.0187 1.44232 2.07252 0
M  V30 136 C 12.3317 2.89304 -0.819987 0
M  V30 137 C 13.8797 3.02864 -0.790105 0
M  V30 138 C 14.3547 4.3656 -1.38491 0
M  V30 139 N 15.8457 4.43165 -1.34755 0
M  V30 140 C 16.5807 5.45153 -1.77753 0
M  V30 141 N 16.0767 6.54016 -2.2855 0
M  V30 142 N 17.8697 5.36125 -1.68897 0
M  V30 143 H 10.0207 1.4856 -1.51802 0
M  V30 144 H 12.2837 0.706305 -0.632327 0
M  V30 145 H 11.9897 2.97757 -1.87173 0
M  V30 146 H 11.8637 3.75957 -0.305915 0
M  V30 147 H 14.2507 2.94014 0.252913 0
M  V30 148 H 14.3317 2.17782 -1.34181 0
M  V30 149 H 13.9757 4.46164 -2.42693 0
M  V30 150 H 13.9057 5.20353 -0.808754 0
M  V30 151 H 16.3967 3.65083 -0.975855 0
M  V30 152 H 16.7097 7.27994 -2.59314 0
M  V30 153 H 15.0547 6.54938 -2.32553 0
M  V30 154 H 18.2457 4.49975 -1.28998 0
M  V30 155 H 18.4187 6.15472 -2.02726 0
M  V30 156 N 11.8248 0.280983 1.55075 0
M  V30 157 C 12.7718 -0.603937 2.22758 0
M  V30 158 C 13.7418 -1.1452 1.20309 0
M  V30 159 O 14.9268 -1.19343 1.48869 0
M  V30 160 C 12.0668 -1.77947 2.95684 0
M  V30 161 C 11.1798 -1.2715 4.12864 0
M  V30 162 C 10.3148 -2.4093 4.7342 0
M  V30 163 C 9.3538 -1.87165 5.82783 0
M  V30 164 N 8.4908 -2.94441 6.37377 0
M  V30 165 H 13.3308 -0.020124 2.97993 0
M  V30 166 H 10.8678 0.00183425 1.471 0
M  V30 167 H 12.8258 -2.47055 3.36184 0
M  V30 168 H 11.4558 -2.33522 2.22861 0
M  V30 169 H 10.5078 -0.473331 3.77444 0
M  V30 170 H 11.8198 -0.837751 4.91715 0
M  V30 171 H 10.9738 -3.18021 5.1667 0
M  V30 172 H 9.7128 -2.87623 3.93859 0
M  V30 173 H 8.7178 -1.08556 5.38976 0
M  V30 174 H 9.9428 -1.41401 6.64216 0
M  V30 175 H 7.8888 -3.40505 5.60707 0
M  V30 176 H 7.8058 -2.55501 7.11516 0
M  V30 177 H 9.0738 -3.71489 6.85285 0
M  V30 178 N 13.3029 -1.57598 0.00835791 0
M  V30 179 C 14.2359 -2.04409 -1.01451 0
M  V30 180 C 15.2139 -0.935609 -1.32985 0
M  V30 181 O 16.3979 -1.20437 -1.45007 0
M  V30 182 C 13.5249 -2.44872 -2.33999 0
M  V30 183 C 12.5709 -3.66535 -2.18069 0
M  V30 184 S 13.4039 -5.14095 -1.4989 0
M  V30 185 C 14.5599 -5.57835 -2.8385 0
M  V30 186 H 14.7929 -2.90849 -0.615961 0
M  V30 187 H 12.3259 -1.53063 -0.202752 0
M  V30 188 H 14.2839 -2.68852 -3.10208 0
M  V30 189 H 12.9449 -1.58815 -2.70992 0
M  V30 190 H 12.1379 -3.92626 -3.16008 0
M  V30 191 H 11.7399 -3.426 -1.50004 0
M  V30 192 H 14.0319 -5.60806 -3.80136 0
M  V30 193 H 14.9749 -6.57667 -2.62449 0
M  V30 194 H 15.3829 -4.85421 -2.88144 0
M  V30 195 N 14.781 0.264519 -1.55364 0
M  V30 196 C 15.744 1.31046 -1.88042 0
M  V30 197 C 16.744 1.41943 -0.755569 0
M  V30 198 O 17.934 1.40947 -1.02369 0
M  V30 199 C 15.066 2.69067 -2.09323 0
M  V30 200 H 16.259 1.03297 -2.81549 0
M  V30 201 H 13.812 0.502989 -1.47986 0
M  V30 202 H 14.547 3.01982 -1.18226 0
M  V30 203 H 14.332 2.62542 -2.91229 0
M  V30 204 H 15.822 3.44623 -2.35848 0
M  V30 205 N 16.2591 1.48442 0.529413 0
M  V30 206 C 17.4871 1.60151 1.30994 0
M  V30 207 C 17.9021 0.261985 1.86973 0
M  V30 208 O 17.2591 -0.748805 1.66431 0
M  V30 209 C 17.3101 2.64854 2.46038 0
M  V30 210 O 17.0311 3.93608 1.92365 0
M  V30 211 C 18.5321 2.87007 3.37849 0
M  V30 212 H 15.7521 0.539971 0.398338 0
M  V30 213 H 18.2961 1.94273 0.638597 0
M  V30 214 H 16.4511 2.33589 3.09055 0
M  V30 215 H 16.8651 4.51055 2.67675 0
M  V30 216 H 18.3391 3.64068 4.14919 0
M  V30 217 H 18.8161 1.95852 3.93114 0
M  V30 218 H 19.4221 3.19579 2.80623 0
M  V30 219 N 17.7372 -0.778329 1.37039 0
M  V30 220 C 18.7002 -1.87301 1.32102 0
M  V30 221 C 19.7002 -1.59198 0.226405 0
M  V30 222 O 20.8902 -1.67403 0.481861 0
M  V30 223 C 18.0222 -3.24309 1.05055 0
M  V30 224 H 19.2152 -1.93093 2.29467 0
M  V30 225 H 16.7682 -0.977358 1.21973 0
M  V30 226 H 17.5032 -3.24196 0.0819373 0
M  V30 227 H 17.2882 -3.46098 1.84279 0
M  V30 228 H 18.7782 -4.04382 1.04234 0
M  V30 229 N 19.2153 -1.21501 -1.00376 0
M  V30 230 C 20.1253 -0.991447 -2.12621 0
M  V30 231 C 21.1413 0.0568446 -1.73907 0
M  V30 232 O 22.3173 -0.13348 -2.00957 0
M  V30 233 C 19.3823 -0.560312 -3.42142 0
M  V30 234 C 18.4433 -1.68096 -3.95022 0
M  V30 235 C 17.6763 -1.2703 -5.18362 0
M  V30 236 O 17.8993 -0.144438 -5.70217 0
M  V30 237 O 16.8333 -2.08269 -5.64719 0
M  V30 238 H 20.6593 -1.93158 -2.34358 0
M  V30 239 H 18.2443 -0.999999 -1.10997 0
M  V30 240 H 20.1263 -0.329724 -4.20108 0
M  V30 241 H 18.8013 0.351089 -3.2179 0
M  V30 242 H 17.7083 -1.96597 -3.18278 0
M  V30 243 H 19.0413 -2.56983 -4.19786 0
M  V30 244 N 20.6934 1.19889 -1.02296 0
M  V30 245 C 21.6404 2.22901 -0.598651 0
M  V30 246 C 22.6104 1.61588 0.384521 0
M  V30 247 O 23.7954 1.88697 0.282522 0
M  V30 248 C 20.9354 3.45063 0.0504476 0
M  V30 249 C 20.0484 4.20783 -0.978053 0
M  V30 250 C 19.1834 5.30356 -0.299338 0
M  V30 251 C 18.2224 5.97826 -1.31416 0
M  V30 252 N 17.3594 6.98975 -0.661667 0
M  V30 253 H 22.1994 2.58554 -1.48169 0
M  V30 254 H 19.7364 1.27039 -0.741584 0
M  V30 255 H 21.6944 4.14831 0.443971 0
M  V30 256 H 20.3244 3.10084 0.897097 0
M  V30 257 H 19.3764 3.50018 -1.48969 0
M  V30 258 H 20.6884 4.67109 -1.74958 0
M  V30 259 H 19.8424 6.06516 0.149347 0
M  V30 260 H 18.5814 4.85084 0.504445 0
M  V30 261 H 17.5864 5.20422 -1.77317 0
M  V30 262 H 18.8114 6.45183 -2.11933 0
M  V30 263 H 16.7574 6.55886 0.122132 0
M  V30 264 H 16.6744 7.43461 -1.37117 0
M  V30 265 H 17.9424 7.7914 -0.236785 0
M  V30 266 N 22.1715 0.800033 1.35784 0
M  V30 267 C 23.1035 0.163596 2.28615 0
M  V30 268 C 24.1165 -0.633317 1.49976 0
M  V30 269 O 25.3055 -0.466754 1.72289 0
M  V30 270 C 22.4055 -0.790958 3.29541 0
M  V30 271 C 21.5785 -0.0418255 4.3738 0
M  V30 272 C 20.6375 -0.91389 5.18203 0
M  V30 273 O 19.6635 -0.367234 5.68014 0
M  V30 274 N 20.8655 -2.23682 5.35674 0
M  V30 275 H 23.6305 0.96105 2.83873 0
M  V30 276 H 21.1915 0.654894 1.48063 0
M  V30 277 H 23.1835 -1.37844 3.80501 0
M  V30 278 H 21.7535 -1.48925 2.74846 0
M  V30 279 H 20.9735 0.726813 3.87442 0
M  V30 280 H 22.2615 0.474719 5.06581 0
M  V30 281 H 21.6595 -2.70497 4.96838 0
M  V30 282 H 20.2165 -2.77369 5.89839 0
M  V30 283 N 23.6496 -1.47581 0.552962 0
M  V30 284 C 24.5966 -2.29957 -0.197108 0
M  V30 285 C 25.5666 -1.38799 -0.912359 0
M  V30 286 O 26.7516 -1.67761 -0.908888 0
M  V30 287 C 23.8916 -3.22672 -1.22379 0
M  V30 288 C 23.0046 -4.28919 -0.515038 0
M  V30 289 C 22.1396 -5.0879 -1.52664 0
M  V30 290 C 21.1786 -6.06815 -0.802631 0
M  V30 291 N 20.3156 -6.7966 -1.76086 0
M  V30 292 H 25.1556 -2.93578 0.511486 0
M  V30 293 H 22.6926 -1.4471 0.264067 0
M  V30 294 H 24.6506 -3.74845 -1.83159 0
M  V30 295 H 23.2806 -2.60925 -1.90047 0
M  V30 296 H 22.3326 -3.79835 0.207192 0
M  V30 297 H 23.6446 -4.98773 0.0523425 0
M  V30 298 H 22.7986 -5.65091 -2.20809 0
M  V30 299 H 21.5376 -4.38828 -2.12794 0
M  V30 300 H 20.5426 -5.49695 -0.107238 0
M  V30 301 H 21.7676 -6.78784 -0.207135 0
M  V30 302 H 19.7136 -6.12432 -2.35081 0
M  V30 303 H 19.6306 -7.45669 -1.24552 0
M  V30 304 H 20.8986 -7.40538 -2.43359 0
M  V30 305 N 25.1277 -0.289203 -1.54924 0
M  V30 306 C 26.0777 0.606939 -2.19773 0
M  V30 307 C 27.0617 1.10783 -1.16687 0
M  V30 308 O 28.2537 1.05057 -1.4245 0
M  V30 309 C 25.3827 1.78398 -2.93307 0
M  V30 310 C 24.4687 1.29961 -4.03697 0
M  V30 311 N 24.8597 0.532377 -5.0299 0
M  V30 312 C 23.1577 1.58136 -4.17024 0
M  V30 313 C 23.8587 0.275912 -5.81045 0
M  V30 314 N 22.8347 0.852365 -5.36876 0
M  V30 315 H 26.6367 0.0130779 -2.93897 0
M  V30 316 H 24.1507 -0.09341 -1.62131 0
M  V30 317 H 26.1477 2.43741 -3.38225 0
M  V30 318 H 24.8077 2.38166 -2.20697 0
M  V30 319 H 25.8187 0.17838 -5.17593 0
M  V30 320 H 22.4957 2.18738 -3.55612 0
M  V30 321 H 23.8857 -0.339502 -6.71042 0
M  V30 322 N 26.6058 1.57591 -0.0167156 0
M  V30 323 C 27.8828 1.82547 0.702564 0
M  V30 324 C 28.2628 0.898018 1.91047 0
M  V30 325 O 27.6108 -0.0493456 2.28447 0
M  V30 326 C 27.8208 3.31459 1.09251 0
M  V30 327 C 29.1688 3.97622 1.48937 0
M  V30 328 O 30.1928 3.35881 1.18584 0
M  V30 329 O 29.0518 5.06415 2.05442 0
M  V30 330 H 26.1458 0.752268 0.343544 0
M  V30 331 H 28.6918 1.69644 -0.0434495 0
M  V30 332 H 27.4638 3.9061 0.23227 0
M  V30 333 H 27.0868 3.49422 1.89709 0
M  V30 334 N 28.0839 -0.256276 1.55502 0
M  V30 335 C 29.3319 -0.983672 1.76545 0
M  V30 336 C 29.6529 -1.86206 0.578982 0
M  V30 337 O 28.9229 -1.91656 -0.405577 0
M  V30 338 H 27.5029 -0.366191 0.651086 0
M  V30 339 H 30.1649 -0.276479 1.92929 0
M  V30 340 H 29.2609 -1.61087 2.67315 0
M  V30 341 N 29.562 -1.4872 -0.521534 0
M  V30 342 C 30.978 -1.35028 -0.850855 0
M  V30 343 C 31.178 -0.367712 -1.98116 0
M  V30 344 O 30.234 0.208037 -2.51642 0
M  V30 345 C 31.547 -2.75263 -1.21041 0
M  V30 346 C 33.095 -2.83813 -1.31981 0
M  V30 347 C 33.57 -4.24769 -1.71276 0
M  V30 348 N 35.061 -4.27482 -1.78363 0
M  V30 349 C 35.796 -5.33494 -2.1017 0
M  V30 350 N 35.292 -6.49775 -2.40343 0
M  V30 351 N 37.085 -5.20894 -2.11248 0
M  V30 352 H 29.236 -2.11214 0.22413 0
M  V30 353 H 31.499 -0.947252 0.0376439 0
M  V30 354 H 31.205 -3.48765 -0.453415 0
M  V30 355 H 31.079 -3.09327 -2.15863 0
M  V30 356 H 33.466 -2.10561 -2.06756 0
M  V30 357 H 33.547 -2.53358 -0.352596 0
M  V30 358 H 33.191 -4.9854 -0.970588 0
M  V30 359 H 33.121 -4.52673 -2.69062 0
M  V30 360 H 35.612 -3.43611 -1.57288 0
M  V30 361 H 35.925 -7.26402 -2.63743 0
M  V30 362 H 34.27 -6.53035 -2.37844 0
M  V30 363 H 37.461 -4.29065 -1.87139 0
M  V30 364 H 37.634 -6.03612 -2.35704 0
M  V30 365 N 31.0401 0.771051 -1.3745 0
M  V30 366 C 32.2861 1.5319 -1.32894 0
M  V30 367 C 32.6191 1.94008 0.0862511 0
M  V30 368 O 31.8941 1.64124 1.04373 0
M  V30 369 C 32.1771 2.79648 -2.26868 0
M  V30 370 C 32.0301 2.45079 -3.77169 0
M  V30 371 C 33.3491 3.81583 -2.19277 0
M  V30 372 H 30.4681 0.555744 -0.484064 0
M  V30 373 H 33.1101 0.884492 -1.68157 0
M  V30 374 H 31.2601 3.34891 -1.96926 0
M  V30 375 H 32.9321 1.95745 -4.1771 0
M  V30 376 H 31.1751 1.77767 -3.95704 0
M  V30 377 H 31.8461 3.35478 -4.38359 0
M  V30 378 H 34.3221 3.35835 -2.45671 0
M  V30 379 H 33.1981 4.67787 -2.87171 0
M  V30 380 H 33.4591 4.25897 -1.18592 0
M  V30 381 N 32.5182 1.22032 0.997298 0
M  V30 382 C 33.4652 0.986467 2.08656 0
M  V30 383 C 34.4352 -0.0902671 1.65855 0
M  V30 384 O 35.6202 0.0584294 1.90711 0
M  V30 385 C 32.7602 0.565569 3.40434 0
M  V30 386 C 31.8732 1.71259 3.96604 0
M  V30 387 C 31.0082 1.24011 5.16522 0
M  V30 388 C 30.0472 2.35896 5.64818 0
M  V30 389 N 29.1842 1.89726 6.7598 0
M  V30 390 H 34.0242 1.91892 2.27994 0
M  V30 391 H 31.5612 0.956199 1.11782 0
M  V30 392 H 33.5192 0.302738 4.161 0
M  V30 393 H 32.1492 -0.329879 3.2111 0
M  V30 394 H 31.2012 2.08986 3.17851 0
M  V30 395 H 32.5132 2.55436 4.28432 0
M  V30 396 H 31.6672 0.934395 5.99461 0
M  V30 397 H 30.4062 0.368487 4.86306 0
M  V30 398 H 29.4112 2.67261 4.8047 0
M  V30 399 H 30.6362 3.23567 5.97061 0
M  V30 400 H 28.5822 1.0492 6.47555 0
M  V30 401 H 28.4992 2.67471 7.07103 0
M  V30 402 H 29.7672 1.62211 7.62435 0
M  V30 403 N 33.9963 -1.19345 1.0293 0
M  V30 404 C 35.2453 -1.88363 0.721256 0
M  V30 405 C 35.5583 -1.80514 -0.753254 0
M  V30 406 O 36.7643 -2.44788 -1.17436 0
M  V30 407 C 35.2203 -3.37872 1.23978 0
M  V30 408 C 34.8283 -3.54278 2.74211 0
M  V30 409 C 36.5723 -4.12365 1.00775 0
M  V30 410 C 34.4793 -4.97682 3.19479 0
M  V30 411 H 33.4093 -0.705484 0.266098 0
M  V30 412 H 36.0603 -1.34928 1.24365 0
M  V30 413 H 34.4423 -3.90707 0.6453 0
M  V30 414 H 35.6163 -3.11769 3.39318 0
M  V30 415 H 33.9313 -2.93174 2.95699 0
M  V30 416 H 36.5283 -5.18119 1.32123 0
M  V30 417 H 36.8713 -4.16263 -0.0554308 0
M  V30 418 H 37.4043 -3.65668 1.56625 0
M  V30 419 H 34.1433 -4.98945 4.25128 0
M  V30 420 H 33.6633 -5.4095 2.591 0
M  V30 421 H 35.3423 -5.66337 3.12845 0
M  V30 422 N 35.4744 -0.807222 -1.35358 0
M  V30 423 C 36.7224 -0.387122 -1.98358 0
M  V30 424 C 37.0434 1.04942 -1.64354 0
M  V30 425 O 36.3134 1.72615 -0.926339 0
M  V30 426 H 34.8934 -0.140154 -0.733734 0
M  V30 427 H 37.5554 -1.0332 -1.6526 0
M  V30 428 H 36.6514 -0.493352 -3.08176 0
M  V30 429 N 36.9525 1.47285 -0.560781 0
M  V30 430 C 37.9025 2.27073 0.205384 0
M  V30 431 C 38.8865 1.34569 0.882044 0
M  V30 432 O 40.0785 1.58899 0.77976 0
M  V30 433 C 37.2075 3.20414 1.23247 0
M  V30 434 C 36.2935 4.20399 0.559041 0
M  V30 435 N 36.6845 5.04423 -0.372927 0
M  V30 436 C 34.9825 4.38536 0.812522 0
M  V30 437 C 35.6835 5.76655 -0.764446 0
M  V30 438 N 34.6595 5.43471 -0.11848 0
M  V30 439 H 38.4615 2.89422 -0.511117 0
M  V30 440 H 35.9755 1.57868 -0.380975 0
M  V30 441 H 37.9725 3.76262 1.79534 0
M  V30 442 H 36.6325 2.59623 1.95002 0
M  V30 443 H 37.6435 5.1248 -0.747287 0
M  V30 444 H 34.3205 3.88913 1.51832 0
M  V30 445 H 35.7105 6.54238 -1.53045 0
M  V30 446 N 38.4306 0.297415 1.54768 0
M  V30 447 C 39.6606 -0.315165 2.04182 0
M  V30 448 C 40.0686 -1.4834 1.17439 0
M  V30 449 O 39.4116 -1.82695 0.191891 0
M  V30 450 C 39.4736 -0.837583 3.49607 0
M  V30 451 C 39.1376 0.204912 4.5654 0
M  V30 452 C 40.1346 1.03214 5.09552 0
M  V30 453 C 37.8196 0.345578 5.0111 0
M  V30 454 C 39.8136 1.986 6.05671 0
M  V30 455 C 37.5006 1.30289 5.97049 0
M  V30 456 C 38.4986 2.12159 6.49213 0
M  V30 457 O 38.1866 3.06268 7.43273 0
M  V30 458 H 37.9186 -0.0729646 0.672051 0
M  V30 459 H 40.4726 0.433907 2.00765 0
M  V30 460 H 38.7026 -1.63712 3.50336 0
M  V30 461 H 40.3916 -1.36566 3.82236 0
M  V30 462 H 41.1576 0.934312 4.75916 0
M  V30 463 H 37.0366 -0.28171 4.60138 0
M  V30 464 H 40.5806 2.62542 6.46311 0
M  V30 465 H 36.4776 1.40145 6.30103 0
M  V30 466 H 37.2456 3.01205 7.61064 0
M  V30 467 N 39.9087 -1.5758 0.0250728 0
M  V30 468 C 41.1577 -1.90811 -0.653767 0
M  V30 469 C 41.4707 -0.90273 -1.73523 0
M  V30 470 O 42.6767 -1.12614 -2.47043 0
M  V30 471 C 41.1327 -3.38804 -1.21409 0
M  V30 472 C 40.7407 -4.47692 -0.166126 0
M  V30 473 C 42.4847 -3.81108 -1.86967 0
M  V30 474 C 40.3917 -5.86779 -0.737856 0
M  V30 475 H 39.3217 -0.712063 -0.247956 0
M  V30 476 H 41.9727 -1.83281 0.0897137 0
M  V30 477 H 40.3547 -3.41252 -2.00905 0
M  V30 478 H 41.5287 -4.56797 0.606079 0
M  V30 479 H 39.8437 -4.14565 0.390466 0
M  V30 480 H 42.4407 -4.82375 -2.30692 0
M  V30 481 H 42.7837 -3.15953 -2.71071 0
M  V30 482 H 43.3167 -3.81065 -1.14167 0
M  V30 483 H 40.0557 -6.55468 0.0649577 0
M  V30 484 H 39.5757 -5.81288 -1.47864 0
M  V30 485 H 41.2547 -6.35223 -1.22884 0
M  V30 486 N 41.3868 0.248026 -1.55636 0
M  V30 487 C 42.3168 1.31079 -1.93237 0
M  V30 488 C 43.2978 1.50264 -0.797174 0
M  V30 489 O 44.4828 1.62891 -1.05737 0
M  V30 490 C 41.6128 2.66575 -2.22609 0
M  V30 491 C 40.5668 2.62087 -3.3837 0
M  V30 492 C 39.8928 4.01369 -3.53281 0
M  V30 493 C 41.1928 2.19171 -4.7409 0
M  V30 494 H 42.8868 0.998556 -2.82257 0
M  V30 495 H 40.4328 0.47891 -1.35803 0
M  V30 496 H 42.3858 3.41057 -2.47503 0
M  V30 497 H 41.1098 2.99432 -1.30414 0
M  V30 498 H 39.7688 1.90063 -3.13483 0
M  V30 499 H 39.4168 4.31489 -2.58508 0
M  V30 500 H 39.1168 3.99254 -4.31127 0
M  V30 501 H 40.6408 4.77552 -3.80495 0
M  V30 502 H 42.0548 2.83384 -4.98363 0
M  V30 503 H 40.4518 2.2817 -5.5503 0
M  V30 504 H 41.5218 1.14336 -4.71227 0
M  V30 505 N 42.8649 1.48995 0.513639 0
M  V30 506 C 44.1129 1.57531 1.26604 0
M  V30 507 C 44.4339 0.258236 1.93283 0
M  V30 508 O 43.7039 -0.721502 1.8213 0
M  V30 509 H 42.2839 0.580387 0.470276 0
M  V30 510 H 44.9459 1.85552 0.596373 0
M  V30 511 H 44.0419 2.36486 2.03669 0
M  V30 512 N 44.343 -0.763751 1.37857 0
M  V30 513 C 45.62 -1.51244 1.24035 0
M  V30 514 C 46 -2.10472 -0.162649 0
M  V30 515 O 45.348 -1.96206 -1.17112 0
M  V30 516 C 45.558 -2.58694 2.34261 0
M  V30 517 C 46.906 -3.25878 2.72193 0
M  V30 518 O 47.93 -2.68993 2.33497 0
M  V30 519 O 46.789 -4.2874 3.38887 0
M  V30 520 H 43.883 -0.670243 0.484462 0
M  V30 521 H 46.429 -0.800031 1.49658 0
M  V30 522 H 45.201 -2.13105 3.2818 0
M  V30 523 H 44.824 -3.37527 2.10146 0
M  V30 524 N 45.8211 -1.22559 -0.990812 0
M  V30 525 C 47.0491 -1.07779 -1.76611 0
M  V30 526 C 47.4641 0.371513 -1.85109 0
M  V30 527 O 46.8211 1.25737 -1.32274 0
M  V30 528 C 46.8721 -1.68512 -3.19822 0
M  V30 529 O 46.5931 -3.07774 -3.1178 0
M  V30 530 C 48.0941 -1.59035 -4.13791 0
M  V30 531 H 45.3141 -0.377729 -0.554583 0
M  V30 532 H 47.8581 -1.62195 -1.24551 0
M  V30 533 H 46.0131 -1.18154 -3.68942 0
M  V30 534 H 46.4271 -3.37062 -4.01858 0
M  V30 535 H 47.9011 -2.0625 -5.1202 0
M  V30 536 H 48.3781 -0.547273 -4.35777 0
M  V30 537 H 48.9841 -2.08709 -3.70568 0
M  V30 538 N 47.2992 1.18797 -1.03562 0
M  V30 539 C 48.2292 2.24472 -0.643019 0
M  V30 540 C 49.2102 1.66433 0.351283 0
M  V30 541 O 50.3952 1.92803 0.232505 0
M  V30 542 C 47.5252 3.473 4.24935e-05 0
M  V30 543 C 46.4792 4.18055 -0.917257 0
M  V30 544 C 45.8052 5.34519 -0.138941 0
M  V30 545 C 47.1052 4.72109 -2.23407 0
M  V30 546 H 48.7992 2.57566 -1.52643 0
M  V30 547 H 46.3452 1.23806 -0.735394 0
M  V30 548 H 48.2982 4.20426 0.286383 0
M  V30 549 H 47.0222 3.13424 0.918299 0
M  V30 550 H 45.6812 3.46821 -1.1879 0
M  V30 551 H 45.3292 4.96891 0.781562 0
M  V30 552 H 45.0292 5.82794 -0.750005 0
M  V30 553 H 46.5532 6.10438 0.1405 0
M  V30 554 H 47.9672 5.36955 -2.00879 0
M  V30 555 H 46.3642 5.30897 -2.79765 0
M  V30 556 H 47.4342 3.89807 -2.88407 0
M  V30 557 N 48.7773 0.814389 1.34928 0
M  V30 558 C 50.0253 0.397636 1.9815 0
M  V30 559 C 50.3463 -1.04069 1.64908 0
M  V30 560 O 49.6163 -1.72121 0.93548 0
M  V30 561 H 48.1963 0.144043 0.732981 0
M  V30 562 H 50.8583 1.04195 1.6471 0
M  V30 563 H 49.9543 0.509688 3.0791 0
M  V30 564 N 50.2554 -1.46986 0.568584 0
M  V30 565 C 51.5014 -2.02741 0.0488709 0
M  V30 566 C 51.8344 -1.44077 -1.30214 0
M  V30 567 O 51.1094 -0.600552 -1.84996 0
M  V30 568 C 51.3924 -3.60086 -0.032047 0
M  V30 569 C 51.2454 -4.29162 1.34686 0
M  V30 570 C 52.5644 -4.33838 -0.739798 0
M  V30 571 H 49.6834 -0.736749 0.0192338 0
M  V30 572 H 52.3254 -1.75289 0.733065 0
M  V30 573 H 50.4754 -3.83606 -0.61473 0
M  V30 574 H 52.1474 -4.16948 1.97362 0
M  V30 575 H 50.3904 -3.89073 1.91846 0
M  V30 576 H 51.0614 -5.37826 1.24285 0
M  V30 577 H 53.5374 -4.15378 -0.244939 0
M  V30 578 H 52.4134 -5.43537 -0.765406 0
M  V30 579 H 52.6744 -4.03875 -1.79827 0
M  V30 580 N 51.7335 -0.305618 -1.54608 0
M  V30 581 C 52.9815 0.301701 -1.99835 0
M  V30 582 C 53.3025 1.54054 -1.19551 0
M  V30 583 O 52.5725 1.93702 -0.292658 0
M  V30 584 H 51.1525 0.114468 -0.738178 0
M  V30 585 H 53.8145 -0.418016 -1.90364 0
M  V30 586 H 52.9105 0.570548 -3.06841 0
M  V30 587 N 53.2116 1.57565 -0.0334293 0
M  V30 588 C 54.4396 1.9628 0.654347 0
M  V30 589 C 54.8546 0.910138 1.65414 0
M  V30 590 O 54.2116 -0.107595 1.82183 0
M  V30 591 C 54.2626 3.35067 1.35693 0
M  V30 592 O 53.9836 4.36296 0.397191 0
M  V30 593 C 55.4846 3.88439 2.13613 0
M  V30 594 H 52.7046 0.646369 0.180132 0
M  V30 595 H 55.2486 2.04282 -0.0944721 0
M  V30 596 H 53.4036 3.2827 2.05712 0
M  V30 597 H 53.8176 5.1678 0.896597 0
M  V30 598 H 55.2916 4.8788 2.58219 0
M  V30 599 H 55.7686 3.22914 2.97696 0
M  V30 600 H 56.3746 3.98516 1.48543 0
M  V30 601 N 54.6897 -0.239769 1.55765 0
M  V30 602 C 55.9367 -0.966801 1.7793 0
M  V30 603 C 56.2647 -1.85046 0.599015 0
M  V30 604 O 55.5197 -1.91197 -0.417395 0
M  V30 605 C 55.8187 -1.852 3.05672 0
M  V30 606 C 55.4847 -1.1231 4.36689 0
M  V30 607 C 54.1467 -0.921689 4.72291 0
M  V30 608 C 56.4987 -0.607019 5.17653 0
M  V30 609 C 53.8267 -0.191996 5.86386 0
M  V30 610 C 56.1787 0.109241 6.32506 0
M  V30 611 C 54.8427 0.322073 6.66723 0
M  V30 612 H 54.1127 -0.353778 0.651093 0
M  V30 613 H 56.7597 -0.23634 1.90036 0
M  V30 614 H 55.0647 -2.64975 2.8861 0
M  V30 615 H 56.7617 -2.41635 3.20021 0
M  V30 616 H 53.3517 -1.29004 4.08725 0
M  V30 617 H 57.5357 -0.750153 4.90598 0
M  V30 618 H 52.7917 -0.0166949 6.11398 0
M  V30 619 H 56.9657 0.516737 6.9448 0
M  V30 620 H 54.5927 0.88944 7.54979 0
M  V30 621 N 56.1678 -1.49265 -0.50573 0
M  V30 622 C 57.4158 -1.582 -1.25766 0
M  V30 623 C 57.7368 -0.268482 -1.93143 0
M  V30 624 O 57.0068 0.711833 -1.8251 0
M  V30 625 H 55.5868 -0.582873 -0.467191 0
M  V30 626 H 58.2488 -1.85865 -0.586525 0
M  V30 627 H 57.3448 -2.37563 -2.02412 0
M  V30 628 N 57.6459 0.756429 -1.3826 0
M  V30 629 C 58.5929 1.87011 -1.35261 0
M  V30 630 C 59.5629 1.64695 -0.215616 0
M  V30 631 O 60.7479 1.864 -0.407399 0
M  V30 632 C 57.8879 3.24275 -1.18068 0
M  V30 633 C 57.0009 3.58442 -2.41129 0
M  V30 634 C 56.1359 4.84994 -2.16689 0
M  V30 635 C 55.1749 5.11939 -3.35537 0
M  V30 636 N 54.3119 6.29685 -3.10549 0
M  V30 637 H 59.1519 1.8891 -2.30472 0
M  V30 638 H 56.6889 0.923373 -1.14509 0
M  V30 639 H 58.6469 4.03479 -1.06116 0
M  V30 640 H 57.2769 3.21711 -0.264973 0
M  V30 641 H 56.3289 2.74103 -2.63764 0
M  V30 642 H 57.6409 3.74283 -3.29717 0
M  V30 643 H 56.7949 5.72135 -2.01857 0
M  V30 644 H 55.5339 4.71286 -1.25462 0
M  V30 645 H 54.5389 4.23268 -3.50891 0
M  V30 646 H 55.7639 5.27546 -4.27635 0
M  V30 647 H 53.7099 6.17306 -2.21967 0
M  V30 648 H 53.6269 6.46014 -3.92686 0
M  V30 649 H 54.8949 7.19722 -2.99367 0
M  V30 650 N 59.124 1.23083 0.984299 0
M  V30 651 C 60.37 1.06214 1.72761 0
M  V30 652 C 60.703 -0.400584 1.90024 0
M  V30 653 O 59.978 -1.29672 1.44967 0
M  V30 654 C 60.261 1.78375 3.12817 0
M  V30 655 C 60.114 3.32296 3.03149 0
M  V30 656 C 61.433 1.54309 4.12161 0
M  V30 657 H 58.552 0.387251 0.627061 0
M  V30 658 H 61.194 1.51536 1.14616 0
M  V30 659 H 59.344 1.39848 3.62457 0
M  V30 660 H 61.016 3.8032 2.61064 0
M  V30 661 H 59.259 3.6153 2.39747 0
M  V30 662 H 59.93 3.77972 4.02295 0
M  V30 663 H 62.406 1.87791 3.71314 0
M  V30 664 H 61.282 2.07281 5.08258 0
M  V30 665 H 61.543 0.477572 4.39513 0
M  V30 666 N 60.6021 -1.18246 1.0419 0
M  V30 667 C 61.5491 -2.2192 0.634037 0
M  V30 668 C 62.5191 -1.62179 -0.358765 0
M  V30 669 O 63.7041 -1.89122 -0.252466 0
M  V30 670 C 60.8441 -3.451 0.00445535 0
M  V30 671 C 59.9571 -4.19174 1.04487 0
M  V30 672 C 59.0921 -5.29813 0.383676 0
M  V30 673 C 58.1311 -5.9566 1.4091 0
M  V30 674 N 57.2681 -6.97834 0.772784 0
M  V30 675 H 62.1081 -2.56164 1.52263 0
M  V30 676 H 59.6451 -1.25843 0.761701 0
M  V30 677 H 61.6031 -4.15485 -0.377919 0
M  V30 678 H 60.2331 -3.11472 -0.847652 0
M  V30 679 H 59.2851 -3.47604 1.54518 0
M  V30 680 H 60.5971 -4.64267 1.82368 0
M  V30 681 H 59.7511 -6.06677 -0.0528366 0
M  V30 682 H 58.4901 -4.85825 -0.427208 0
M  V30 683 H 57.4951 -5.17535 1.85574 0
M  V30 684 H 58.7201 -6.4173 2.22171 0
M  V30 685 H 56.6661 -6.55998 -0.0177708 0
M  V30 686 H 56.5831 -7.41186 1.48928 0
M  V30 687 H 57.8511 -7.78665 0.36071 0
M  V30 688 N 62.0802 -0.821533 -1.34494 0
M  V30 689 C 63.3262 -0.409552 -1.98622 0
M  V30 690 C 63.6592 1.0244 -1.64984 0
M  V30 691 O 62.9342 1.71325 -0.920758 0
M  V30 692 C 63.2172 -0.610458 -3.54888 0
M  V30 693 C 63.0702 -2.09043 -3.98273 0
M  V30 694 C 64.3892 -0.0455379 -4.40076 0
M  V30 695 H 61.5082 -0.15028 -0.721516 0
M  V30 696 H 64.1502 -1.03384 -1.59411 0
M  V30 697 H 62.3002 -0.079044 -3.8842 0
M  V30 698 H 63.9722 -2.68537 -3.75081 0
M  V30 699 H 62.2152 -2.58139 -3.48635 0
M  V30 700 H 62.8862 -2.18182 -5.07051 0
M  V30 701 H 65.3622 -0.499557 -4.1309 0
M  V30 702 H 64.2382 -0.215922 -5.48475 0
M  V30 703 H 64.4992 1.04939 -4.29465 0
M  V30 704 N 63.5583 1.46682 -0.576371 0
M  V30 705 C 64.8063 2.02013 -0.0594163 0
M  V30 706 C 65.1273 1.45101 1.30271 0
M  V30 707 O 64.3973 0.633317 1.8538 0
M  V30 708 H 62.9773 0.746759 -0.0189745 0
M  V30 709 H 65.6393 1.79862 -0.750717 0
M  V30 710 H 64.7353 3.12097 0.014345 0
M  V30 711 N 65.0364 0.313813 1.54444 0
M  V30 712 C 65.9834 -0.55655 2.23989 0
M  V30 713 C 66.9534 -1.11943 1.22711 0
M  V30 714 O 68.1384 -1.16158 1.51367 0
M  V30 715 C 65.2784 -1.71635 2.99392 0
M  V30 716 C 64.3914 -1.18364 4.15468 0
M  V30 717 C 63.5264 -2.30834 4.78424 0
M  V30 718 C 62.5654 -1.74762 5.86622 0
M  V30 719 N 61.7024 -2.80855 6.43479 0
M  V30 720 H 66.5424 0.0430893 2.97969 0
M  V30 721 H 64.0794 0.0330359 1.47063 0
M  V30 722 H 66.0374 -2.39868 3.41349 0
M  V30 723 H 64.6674 -2.28742 2.27765 0
M  V30 724 H 63.7194 -0.393163 3.78363 0
M  V30 725 H 65.0314 -0.733262 4.93381 0
M  V30 726 H 64.1854 -3.0699 5.23299 0
M  V30 727 H 62.9244 -2.79204 3.99871 0
M  V30 728 H 61.9294 -0.970995 5.41158 0
M  V30 729 H 63.1544 -1.2728 6.67066 0
M  V30 730 H 61.1004 -3.28535 5.67804 0
M  V30 731 H 61.0174 -2.40351 7.16776 0
M  V30 732 H 62.2854 -3.5687 6.93011 0
M  V30 733 N 66.5145 -1.57545 0.0417849 0
M  V30 734 C 67.4645 -2.07483 -0.945247 0
M  V30 735 C 68.4485 -0.977983 -1.27767 0
M  V30 736 O 69.6405 -1.24142 -1.26166 0
M  V30 737 C 66.7695 -2.61576 -2.22335 0
M  V30 738 C 65.8555 -3.78213 -1.91874 0
M  V30 739 N 66.2465 -4.88344 -1.31733 0
M  V30 740 C 64.5445 -3.8694 -2.21796 0
M  V30 741 C 65.2455 -5.69462 -1.1869 0
M  V30 742 N 64.2215 -5.16771 -1.68666 0
M  V30 743 H 68.0235 -2.90029 -0.475441 0
M  V30 744 H 65.5375 -1.61581 -0.162911 0
M  V30 745 H 67.5345 -2.95651 -2.93932 0
M  V30 746 H 66.1945 -1.80465 -2.69931 0
M  V30 747 H 67.2055 -5.08335 -0.990729 0
M  V30 748 H 63.8825 -3.16757 -2.71977 0
M  V30 749 H 65.2725 -6.68023 -0.720793 0
M  V30 750 N 67.9926 0.231505 -1.5589 0
M  V30 751 C 68.9026 1.308 -1.94752 0
M  V30 752 C 69.9186 1.51826 -0.849989 0
M  V30 753 O 71.0946 1.6515 -1.15271 0
M  V30 754 C 68.1596 2.63968 -2.24771 0
M  V30 755 C 67.2206 2.51331 -3.48039 0
M  V30 756 C 66.4536 3.78148 -3.76616 0
M  V30 757 O 66.6766 4.80722 -3.07022 0
M  V30 758 O 65.6106 3.75857 -4.70123 0
M  V30 759 H 69.4366 1.0083 -2.86474 0
M  V30 760 H 67.0216 0.433547 -1.42971 0
M  V30 761 H 68.9036 3.42633 -2.45318 0
M  V30 762 H 67.5786 2.9364 -1.36225 0
M  V30 763 H 66.4856 1.709 -3.32782 0
M  V30 764 H 67.8186 2.26601 -4.36936 0
M  V30 765 N 69.4707 1.49531 0.497807 0
M  V30 766 C 70.4007 1.6935 1.60757 0
M  V30 767 C 71.3817 0.542218 1.61227 0
M  V30 768 O 72.5667 0.778417 1.77917 0
M  V30 769 C 69.6967 1.76298 2.99226 0
M  V30 770 C 68.6507 2.91248 3.13622 0
M  V30 771 C 67.9767 2.83312 4.53474 0
M  V30 772 C 69.2767 4.3214 2.93346 0
M  V30 773 H 70.9707 2.62263 1.44425 0
M  V30 774 H 68.5167 1.26208 0.693367 0
M  V30 775 H 70.4697 1.88749 3.76765 0
M  V30 776 H 69.1937 0.799871 3.16654 0
M  V30 777 H 67.8527 2.78404 2.38509 0
M  V30 778 H 67.5007 1.84902 4.67782 0
M  V30 779 H 67.2007 3.60465 4.64046 0
M  V30 780 H 68.7247 2.97775 5.33069 0
M  V30 781 H 70.1387 4.45649 3.60652 0
M  V30 782 H 68.5357 5.1054 3.15387 0
M  V30 783 H 69.6057 4.46363 1.89441 0
M  V30 784 N 70.9488 -0.749086 1.3866 0
M  V30 785 C 72.1768 -1.53834 1.38358 0
M  V30 786 C 72.5918 -1.88783 -0.0255219 0
M  V30 787 O 71.9488 -1.53101 -0.993292 0
M  V30 788 C 71.9998 -2.83468 2.2434 0
M  V30 789 O 71.7208 -2.50008 3.5976 0
M  V30 790 C 73.2218 -3.7758 2.32267 0
M  V30 791 H 70.4418 -0.47585 0.473083 0
M  V30 792 H 72.9858 -0.926726 1.82297 0
M  V30 793 H 71.1408 -3.40995 1.83851 0
M  V30 794 H 71.5548 -3.33182 4.05081 0
M  V30 795 H 73.0288 -4.65478 2.96706 0
M  V30 796 H 73.5058 -4.18334 1.33765 0
M  V30 797 H 74.1118 -3.25976 2.73166 0
M  V30 798 N 72.4269 -1.23603 -0.977757 0
M  V30 799 C 73.6749 -1.06759 -1.71601 0
M  V30 800 C 73.9959 0.395929 -1.90938 0
M  V30 801 O 73.2659 1.28356 -1.47992 0
M  V30 802 H 71.8459 -0.392062 -0.635843 0
M  V30 803 H 74.5079 -1.55362 -1.1768 0
M  V30 804 H 73.6039 -1.55763 -2.70452 0
M  V30 805 N 73.905 1.17692 -1.04816 0
M  V30 806 C 74.855 2.1952 -0.616042 0
M  V30 807 C 75.839 1.57147 0.345485 0
M  V30 808 O 77.031 1.76245 0.163325 0
M  V30 809 C 74.16 3.43298 0.0116917 0
M  V30 810 C 73.246 4.12777 -0.973435 0
M  V30 811 N 73.637 4.5814 -2.14339 0
M  V30 812 C 71.935 4.38747 -0.80108 0
M  V30 813 C 72.636 5.11713 -2.7663 0
M  V30 814 N 71.612 5.03686 -2.04453 0
M  V30 815 H 75.414 2.52293 -1.5075 0
M  V30 816 H 72.928 1.3398 -0.917776 0
M  V30 817 H 74.925 4.15519 0.339006 0
M  V30 818 H 73.585 3.12018 0.898593 0
M  V30 819 H 74.596 4.52349 -2.52191 0
M  V30 820 H 71.273 4.17485 0.0350934 0
M  V30 821 H 72.663 5.56962 -3.75823 0
M  V30 822 N 75.3831 0.828654 1.34056 0
M  V30 823 C 76.3301 0.252567 2.29414 0
M  V30 824 C 77.3001 -0.62588 1.53857 0
M  V30 825 O 78.4851 -0.566312 1.82202 0
M  V30 826 C 75.6251 -0.574831 3.40279 0
M  V30 827 C 74.7381 0.326499 4.30764 0
M  V30 828 C 73.8731 -0.511016 5.28736 0
M  V30 829 C 72.9121 0.389342 6.1086 0
M  V30 830 N 72.0491 -0.409439 7.00905 0
M  V30 831 H 76.8891 1.07108 2.78086 0
M  V30 832 H 74.4261 0.539677 1.36843 0
M  V30 833 H 76.3841 -1.06992 4.03248 0
M  V30 834 H 75.0141 -1.35841 2.92826 0
M  V30 835 H 74.0661 0.939837 3.68607 0
M  V30 836 H 75.3781 1.01857 4.88289 0
M  V30 837 H 74.5321 -1.07035 5.97184 0
M  V30 838 H 73.2711 -1.23657 4.71763 0
M  V30 839 H 72.2761 0.960769 5.4134 0
M  V30 840 H 73.5011 1.1131 6.69916 0
M  V30 841 H 71.4471 -1.11856 6.46393 0
M  V30 842 H 71.3641 0.224126 7.55668 0
M  V30 843 H 72.6321 -0.951336 7.73673 0
M  V30 844 N 76.8612 -1.46375 0.584142 0
M  V30 845 C 78.1072 -2.02678 0.0703716 0
M  V30 846 C 78.4402 -1.4545 -1.28678 0
M  V30 847 O 77.7152 -0.62014 -1.84349 0
M  V30 848 C 77.9982 -3.60099 0.00614674 0
M  V30 849 C 77.8512 -4.27709 1.3923 0
M  V30 850 C 79.1702 -4.34598 -0.693742 0
M  V30 851 H 76.2892 -0.736504 0.027047 0
M  V30 852 H 78.9312 -1.74501 0.751615 0
M  V30 853 H 77.0812 -3.84236 -0.574009 0
M  V30 854 H 78.7532 -4.14832 2.01773 0
M  V30 855 H 76.9962 -3.87016 1.95962 0
M  V30 856 H 77.6672 -5.36478 1.29982 0
M  V30 857 H 80.1432 -4.15615 -0.200869 0
M  V30 858 H 79.0192 -5.44318 -0.707714 0
M  V30 859 H 79.2802 -4.05759 -1.75533 0
M  V30 860 N 78.3393 -0.321999 -1.54275 0
M  V30 861 C 79.3023 0.531975 -2.22941 0
M  V30 862 C 80.3023 1.04478 -1.22234 0
M  V30 863 O 81.4923 0.937452 -1.46825 0
M  V30 864 C 78.6243 1.73874 -2.93224 0
M  V30 865 H 79.8173 -0.0682612 -2.99822 0
M  V30 866 H 77.3703 -0.0730644 -1.56129 0
M  V30 867 H 78.1053 2.37825 -2.20476 0
M  V30 868 H 77.8903 1.37847 -3.6707 0
M  V30 869 H 79.3803 2.34496 -3.45545 0
M  V30 870 N 79.8174 1.5752 -0.0501392 0
M  V30 871 C 81.0634 1.92936 0.624798 0
M  V30 872 C 81.3964 0.928685 1.70555 0
M  V30 873 O 80.6714 -0.0454779 1.94447 0
M  V30 874 C 80.9544 3.38737 1.22185 0
M  V30 875 C 80.8074 4.49552 0.149218 0
M  V30 876 C 82.1264 3.84913 2.13378 0
M  V30 877 H 79.2454 0.701604 0.225657 0
M  V30 878 H 81.8874 1.89671 -0.111693 0
M  V30 879 H 80.0374 3.4165 1.84953 0
M  V30 880 H 81.7094 4.58768 -0.482648 0
M  V30 881 H 79.9524 4.30638 -0.522841 0
M  V30 882 H 80.6234 5.48653 0.606966 0
M  V30 883 H 83.0994 3.8387 1.60572 0
M  V30 884 H 81.9754 4.87584 2.52097 0
M  V30 885 H 82.2364 3.21611 3.03346 0
M  V30 886 N 81.2955 -0.223234 1.56011 0
M  V30 887 C 82.2425 -1.27664 1.92277 0
M  V30 888 C 83.2125 -1.46659 0.779763 0
M  V30 889 O 84.3975 -1.60256 1.03551 0
M  V30 890 C 81.5375 -2.62234 2.24338 0
M  V30 891 C 80.6505 -2.51051 3.51564 0
M  V30 892 C 79.7855 -3.78133 3.7308 0
M  V30 893 C 78.8245 -3.61665 4.93827 0
M  V30 894 N 77.9615 -4.80693 5.11741 0
M  V30 895 H 82.8015 -0.960358 2.82101 0
M  V30 896 H 80.3385 -0.462901 1.39627 0
M  V30 897 H 82.2965 -3.40596 2.40936 0
M  V30 898 H 80.9265 -2.91961 1.3769 0
M  V30 899 H 79.9785 -1.64132 3.43169 0
M  V30 900 H 81.2905 -2.34803 4.40079 0
M  V30 901 H 80.4445 -4.64938 3.89766 0
M  V30 902 H 79.1835 -3.97304 2.82844 0
M  V30 903 H 78.1885 -2.73244 4.77093 0
M  V30 904 H 79.4135 -3.43966 5.85546 0
M  V30 905 H 77.3595 -5.00181 4.24446 0
M  V30 906 H 77.2765 -4.67165 5.94384 0
M  V30 907 H 78.5445 -5.6893 5.3286 0
M  V30 908 N 82.7736 -1.49793 -0.48987 0
M  V30 909 C 84.0226 -1.59085 -1.23995 0
M  V30 910 C 84.3356 -0.287907 -1.9347 0
M  V30 911 O 85.5416 -0.259506 -2.70257 0
M  V30 912 C 83.9976 -2.80736 -2.252 0
M  V30 913 C 83.6056 -4.17833 -1.61614 0
M  V30 914 C 85.3496 -2.99364 -3.00967 0
M  V30 915 C 83.2566 -5.30693 -2.60996 0
M  V30 916 H 82.1866 -0.592372 -0.466488 0
M  V30 917 H 84.8376 -1.76197 -0.51252 0
M  V30 918 H 83.2196 -2.57142 -3.01154 0
M  V30 919 H 84.3936 -4.51608 -0.915774 0
M  V30 920 H 82.7086 -4.04656 -0.981977 0
M  V30 921 H 85.3056 -3.80851 -3.75308 0
M  V30 922 H 85.6486 -2.10356 -3.59244 0
M  V30 923 H 86.1816 -3.2305 -2.32128 0
M  V30 924 H 82.9206 -6.21796 -2.07485 0
M  V30 925 H 82.4406 -5.01359 -3.2924 0
M  V30 926 H 84.1196 -5.6049 -3.23202 0
M  V30 927 N 84.2517 0.741722 -1.39055 0
M  V30 928 C 85.1817 1.869 -1.39966 0
M  V30 929 C 86.1627 1.6804 -0.26392 0
M  V30 930 O 87.3477 1.88458 -0.468755 0
M  V30 931 C 84.4777 3.24572 -1.23574 0
M  V30 932 C 83.4317 3.58056 -2.34477 0
M  V30 933 C 82.7577 4.94593 -2.0318 0
M  V30 934 C 84.0577 3.61716 -3.76774 0
M  V30 935 H 85.7517 1.86395 -2.34302 0
M  V30 936 H 83.2977 0.895361 -1.1278 0
M  V30 937 H 85.2507 4.031 -1.22834 0
M  V30 938 H 83.9747 3.25587 -0.257045 0
M  V30 939 H 82.6337 2.81854 -2.34423 0
M  V30 940 H 82.2817 4.92181 -1.03765 0
M  V30 941 H 81.9817 5.17964 -2.77465 0
M  V30 942 H 83.5057 5.75486 -2.04079 0
M  V30 943 H 84.9197 4.30335 -3.78794 0
M  V30 944 H 83.3167 3.96603 -4.50362 0
M  V30 945 H 84.3867 2.61672 -4.08235 0
M  V30 946 N 85.7298 1.2412 0.971189 0
M  V30 947 C 86.6778 1.02812 2.08644 0
M  V30 948 C 87.6718 -0.0358403 1.69362 0
M  V30 949 O 88.8778 0.118429 1.7961 0
M  V30 950 H 85.2528 0.315428 0.682649 0
M  V30 951 H 87.2238 1.97397 2.23779 0
M  V30 952 C 85.9728 0.645874 3.41649 0
M  V30 953 H 85.2958 1.45632 3.72332 0
M  V30 954 H 86.7358 0.536366 4.20594 0
M  V30 955 C 85.1948 -0.646713 3.30635 0
M  V30 956 O 85.7248 -1.69338 3.64263 0
M  V30 957 N 83.9308 -0.626115 2.83775 0
M  V30 958 H 83.4778 0.225988 2.56607 0
M  V30 959 H 83.4358 -1.49117 2.76788 0
M  V30 960 N 87.2079 -1.17134 1.05439 0
M  V30 961 C 88.6239 -1.39454 0.776201 0
M  V30 962 C 88.8239 -1.91454 -0.628307 0
M  V30 963 O 87.8799 -2.10777 -1.39031 0
M  V30 964 C 89.1929 -2.38305 1.83388 0
M  V30 965 C 90.7409 -2.52006 1.85639 0
M  V30 966 C 91.2159 -3.54133 2.90437 0
M  V30 967 N 92.7069 -3.61653 2.89415 0
M  V30 968 C 93.4419 -4.4044 3.67152 0
M  V30 969 N 92.9379 -5.22721 4.54681 0
M  V30 970 N 94.7309 -4.35337 3.55581 0
M  V30 971 H 86.8819 -0.817134 1.96053 0
M  V30 972 H 89.1449 -0.421626 0.849079 0
M  V30 973 H 88.8509 -2.07173 2.84204 0
M  V30 974 H 88.7249 -3.37841 1.67761 0
M  V30 975 H 91.1119 -2.82447 0.85486 0
M  V30 976 H 91.1929 -1.52537 2.05344 0
M  V30 977 H 90.8369 -3.24431 3.90777 0
M  V30 978 H 90.7669 -4.53313 2.67983 0
M  V30 979 H 93.2579 -3.02909 2.25952 0
M  V30 980 H 93.5709 -5.80027 5.10674 0
M  V30 981 H 91.9159 -5.22093 4.58741 0
M  V30 982 H 95.1069 -3.70112 2.86592 0
M  V30 983 H 95.2799 -4.96494 4.1641 0
M  V30 984 N 88.686 -0.835752 -1.33615 0
M  V30 985 C 89.618 -0.224151 -2.28101 0
M  V30 986 C 90.631 0.593331 -1.51603 0
M  V30 987 O 91.82 0.420911 -1.73466 0
M  V30 988 C 88.92 0.703309 -3.31522 0
M  V30 989 C 88.093 -0.0741528 -4.37337 0
M  V30 990 C 87.152 0.776176 -5.20444 0
M  V30 991 O 86.178 0.216506 -5.68788 0
M  V30 992 N 87.38 2.09401 -5.41416 0
M  V30 993 H 90.145 -1.03598 -2.81225 0
M  V30 994 H 87.706 -0.69392 -1.46275 0
M  V30 995 H 89.698 1.27707 -3.84022 0
M  V30 996 H 88.268 1.41585 -2.78698 0
M  V30 997 H 87.488 -0.82928 -3.85378 0
M  V30 998 H 88.776 -0.608863 -5.05144 0
M  V30 999 H 88.174 2.57229 -5.03835 0
M  V30 1000 H 86.731 2.61633 -5.96985 0
M  V30 1001 N 90.1641 1.46063 -0.591896 0
M  V30 1002 C 91.1111 2.30399 0.136069 0
M  V30 1003 C 92.0811 1.41169 0.875238 0
M  V30 1004 O 93.2661 1.70112 0.86409 0
M  V30 1005 C 90.4061 3.25804 1.13781 0
M  V30 1006 C 89.5191 4.30134 0.401137 0
M  V30 1007 C 88.6541 5.12659 1.39121 0
M  V30 1008 C 87.6931 6.0873 0.641462 0
M  V30 1009 N 86.8301 6.8409 1.58004 0
M  V30 1010 H 91.6701 2.92118 -0.589144 0
M  V30 1011 H 89.2071 1.43959 -0.302342 0
M  V30 1012 H 91.1651 3.79569 1.73156 0
M  V30 1013 H 89.7951 2.65872 1.83062 0
M  V30 1014 H 88.8471 3.79152 -0.307826 0
M  V30 1015 H 90.1591 4.98458 -0.184565 0
M  V30 1016 H 89.3131 5.70747 2.05749 0
M  V30 1017 H 88.0521 4.44316 2.01084 0
M  V30 1018 H 87.0571 5.49786 -0.0385419 0
M  V30 1019 H 88.2821 6.79095 0.0270945 0
M  V30 1020 H 86.2281 6.18449 2.18761 0
M  V30 1021 H 86.1451 7.48709 1.04738 0
M  V30 1022 H 87.4131 7.4673 2.23639 0
M  V30 1023 N 91.6422 0.330177 1.54103 0
M  V30 1024 C 92.8912 -0.271336 1.99867 0
M  V30 1025 C 93.2042 -1.52723 1.22209 0
M  V30 1026 O 94.4102 -2.20515 1.58383 0
M  V30 1027 C 92.8662 -0.534032 3.55916 0
M  V30 1028 C 92.4742 0.705193 4.42415 0
M  V30 1029 C 94.2182 -1.09514 4.1013 0
M  V30 1030 C 92.1252 0.414035 5.89949 0
M  V30 1031 H 91.0552 -0.105166 0.74663 0
M  V30 1032 H 93.7062 0.443429 1.78062 0
M  V30 1033 H 92.0882 -1.30915 3.73734 0
M  V30 1034 H 93.2622 1.4804 4.36372 0
M  V30 1035 H 91.5772 1.18698 3.99124 0
M  V30 1036 H 94.1742 -1.3277 5.17954 0
M  V30 1037 H 94.5172 -2.04656 3.62521 0
M  V30 1038 H 95.0502 -0.381038 3.95971 0
M  V30 1039 H 91.7892 1.33481 6.41766 0
M  V30 1040 H 91.3092 -0.323336 5.98928 0
M  V30 1041 H 92.9882 0.0263105 6.46995 0
M  V30 1042 N 93.1203 -1.57491 0.0584922 0
M  V30 1043 C 94.5363 -1.56792 -0.298091 0
M  V30 1044 C 94.7363 -1.06679 -1.70944 0
M  V30 1045 O 93.7923 -0.726672 -2.41818 0
M  V30 1046 C 95.1053 -3.00461 -0.119879 0
M  V30 1047 C 96.6533 -3.1242 -0.190428 0
M  V30 1048 C 97.1283 -4.57982 -0.0406567 0
M  V30 1049 N 98.6193 -4.63099 -0.0966958 0
M  V30 1050 C 99.3543 -5.734 -0.00502943 0
M  V30 1051 N 98.8503 -6.9266 0.139402 0
M  V30 1052 N 100.643 -5.62067 -0.0611391 0
M  V30 1053 H 92.7943 -1.88386 0.98105 0
M  V30 1054 H 95.0573 -0.867865 0.381463 0
M  V30 1055 H 94.7633 -3.41187 0.85349 0
M  V30 1056 H 94.6373 -3.66843 -0.877833 0
M  V30 1057 H 97.0243 -2.71589 -1.15427 0
M  V30 1058 H 97.1053 -2.48702 0.598405 0
M  V30 1059 H 96.7493 -4.995 0.919897 0
M  V30 1060 H 96.6793 -5.19715 -0.848727 0
M  V30 1061 H 99.1703 -3.77331 -0.207277 0
M  V30 1062 H 99.4833 -7.72536 0.201855 0
M  V30 1063 H 97.8283 -6.94781 0.174586 0
M  V30 1064 H 101.019 -4.67782 -0.172583 0
M  V30 1065 H 101.192 -6.47999 0.0137562 0
M  V30 1066 N 94.5984 0.214957 -1.56127 0
M  V30 1067 C 95.8234 0.95924 -1.83884 0
M  V30 1068 C 96.2484 1.7689 -0.639644 0
M  V30 1069 O 95.6064 1.76566 0.411601 0
M  V30 1070 C 95.6544 1.84723 -3.09693 0
M  V30 1071 O 94.7584 2.94346 -2.8885 0
M  V30 1072 H 94.0994 0.27125 -0.606069 0
M  V30 1073 H 96.6294 0.226276 -2.03345 0
M  V30 1074 H 96.6394 2.25576 -3.39969 0
M  V30 1075 H 95.3144 1.25218 -3.96602 0
M  V30 1076 H 93.8914 2.57391 -2.69823 0
M  V30 1077 N 96.0765 1.50051 0.48192 0
M  V30 1078 C 97.0065 1.71046 1.58951 0
M  V30 1079 C 97.9875 0.559288 1.60642 0
M  V30 1080 O 99.1725 0.797243 1.77081 0
M  V30 1081 C 96.3025 1.79462 2.97339 0
M  V30 1082 C 95.2565 2.94558 3.10515 0
M  V30 1083 C 94.5825 2.88105 4.50444 0
M  V30 1084 C 95.8825 4.35227 2.88747 0
M  V30 1085 H 97.5765 2.6378 1.41635 0
M  V30 1086 H 95.1225 1.26936 0.679942 0
M  V30 1087 H 97.0755 1.92734 3.74742 0
M  V30 1088 H 95.7995 0.833412 3.15788 0
M  V30 1089 H 94.4585 2.80918 2.35543 0
M  V30 1090 H 94.1065 1.89853 4.65795 0
M  V30 1091 H 93.8065 3.65366 4.60197 0
M  V30 1092 H 95.3305 3.03412 5.29881 0
M  V30 1093 H 96.7445 4.49449 3.55905 0
M  V30 1094 H 95.1415 5.13856 3.09955 0
M  V30 1095 H 96.2115 4.48347 1.84696 0
M  V30 1096 N 97.5546 -0.734337 1.39446 0
M  V30 1097 C 98.8316 -1.48579 1.27215 0
M  V30 1098 C 99.2116 -2.1077 -0.117968 0
M  V30 1099 O 98.5596 -1.98646 -1.12924 0
M  V30 1100 C 98.7696 -2.53667 2.39696 0
M  V30 1101 C 100.118 -3.20031 2.79044 0
M  V30 1102 O 101.142 -2.6398 2.39151 0
M  V30 1103 O 100.001 -4.21455 3.47905 0
M  V30 1104 H 97.0946 -0.659816 0.49857 0
M  V30 1105 H 99.6406 -0.768106 1.51322 0
M  V30 1106 H 98.4126 -2.06096 3.32626 0
M  V30 1107 H 98.0356 -3.32994 2.17258 0
M  V30 1108 N 99.0327 -1.24633 -0.964593 0
M  V30 1109 C 100.279 -1.08949 -1.71049 0
M  V30 1110 C 100.612 0.370302 -1.90637 0
M  V30 1111 O 99.8867 1.27349 -1.47011 0
M  V30 1112 C 100.17 -1.83329 -3.0994 0
M  V30 1113 C 100.023 -3.37077 -2.97824 0
M  V30 1114 C 101.342 -1.60846 -4.09654 0
M  V30 1115 H 98.4607 -0.397178 -0.620821 0
M  V30 1116 H 101.103 -1.5334 -1.12191 0
M  V30 1117 H 99.2527 -1.45597 -3.60186 0
M  V30 1118 H 100.925 -3.84425 -2.5498 0
M  V30 1119 H 99.1677 -3.65298 -2.33965 0
M  V30 1120 H 99.8387 -3.84324 -3.96231 0
M  V30 1121 H 102.315 -1.93674 -3.68279 0
M  V30 1122 H 101.191 -2.1534 -5.04896 0
M  V30 1123 H 101.452 -0.547434 -4.38698 0
M  V30 1124 N 100.511 1.16574 -1.06058 0
M  V30 1125 C 101.757 1.87324 -0.777022 0
M  V30 1126 C 102.09 1.81351 0.694645 0
M  V30 1127 O 101.365 1.22753 1.50871 0
M  V30 1128 C 101.648 3.36991 -1.26922 0
M  V30 1129 C 101.501 3.51667 -2.80447 0
M  V30 1130 C 102.82 4.3131 -0.87521 0
M  V30 1131 H 99.9388 0.680191 -0.28374 0
M  V30 1132 H 102.581 1.37036 -1.3161 0
M  V30 1133 H 100.731 3.79949 -0.81063 0
M  V30 1134 H 102.403 3.17664 -3.34495 0
M  V30 1135 H 100.646 2.93656 -3.19294 0
M  V30 1136 H 101.317 4.56766 -3.0995 0
M  V30 1137 H 103.793 3.9624 -1.27014 0
M  V30 1138 H 102.669 5.34545 -1.2471 0
M  V30 1139 H 102.93 4.41552 0.220071 0
M  V30 1140 N 101.989 0.842826 1.3317 0
M  V30 1141 C 103.237 0.439577 1.97262 0
M  V30 1142 C 103.558 -1.00548 1.67078 0
M  V30 1143 O 102.828 -1.70098 0.971779 0
M  V30 1144 H 101.408 0.159558 0.72976 0
M  V30 1145 H 104.07 1.07665 1.62463 0
M  V30 1146 H 103.166 0.574886 3.0676 0
M  V30 1147 N 103.467 -1.45747 0.599634 0
M  V30 1148 C 104.414 -2.30467 -0.123849 0
M  V30 1149 C 105.384 -1.41632 -0.86774 0
M  V30 1150 O 106.569 -1.70568 -0.855056 0
M  V30 1151 C 103.709 -3.26402 -1.12051 0
M  V30 1152 C 102.822 -4.3034 -0.37832 0
M  V30 1153 C 101.957 -5.13389 -1.364 0
M  V30 1154 C 100.996 -6.09061 -0.609171 0
M  V30 1155 N 100.133 -6.84918 -1.54374 0
M  V30 1156 H 104.973 -2.91802 0.604627 0
M  V30 1157 H 102.51 -1.43797 0.309972 0
M  V30 1158 H 104.468 -3.80482 -1.7114 0
M  V30 1159 H 103.098 -2.66839 -1.8165 0
M  V30 1160 H 102.15 -3.78984 0.327929 0
M  V30 1161 H 103.462 -4.98354 0.210997 0
M  V30 1162 H 102.616 -5.7183 -2.02719 0
M  V30 1163 H 101.355 -4.45376 -1.98725 0
M  V30 1164 H 100.36 -5.49758 0.0676979 0
M  V30 1165 H 101.585 -6.79099 0.00891991 0
M  V30 1166 H 99.531 -6.19601 -2.15478 0
M  V30 1167 H 99.448 -7.49254 -1.00766 0
M  V30 1168 H 100.716 -7.47906 -2.19676 0
M  V30 1169 N 104.945 -0.338344 -1.53925 0
M  V30 1170 C 106.194 0.260732 -2.00008 0
M  V30 1171 C 106.507 1.52073 -1.23017 0
M  V30 1172 O 107.713 2.19672 -1.5955 0
M  V30 1173 C 106.169 0.51515 -3.56194 0
M  V30 1174 C 105.777 -0.728645 -4.42035 0
M  V30 1175 C 107.521 1.07337 -4.10706 0
M  V30 1176 C 105.428 -0.445315 -5.89721 0
M  V30 1177 H 104.358 0.101205 -0.747177 0
M  V30 1178 H 107.009 -0.452866 -1.77824 0
M  V30 1179 H 105.391 1.28932 -3.74423 0
M  V30 1180 H 106.565 -1.50352 -4.35581 0
M  V30 1181 H 104.88 -1.20813 -3.98489 0
M  V30 1182 H 107.477 1.30022 -5.18651 0
M  V30 1183 H 107.82 2.0273 -3.63602 0
M  V30 1184 H 108.353 0.360034 -3.96167 0
M  V30 1185 H 105.092 -1.36883 -6.41049 0
M  V30 1186 H 104.612 0.291569 -5.99091 0
M  V30 1187 H 106.291 -0.0606218 -6.46972 0
M  V30 1188 N 106.423 1.57458 -0.0668435 0
M  V30 1189 C 107.839 1.56947 0.289772 0
M  V30 1190 C 108.039 1.07584 1.70376 0
M  V30 1191 O 107.095 0.739486 2.41429 0
M  V30 1192 C 108.408 3.0052 0.103943 0
M  V30 1193 C 109.956 3.12517 0.173857 0
M  V30 1194 C 110.431 4.57997 0.0163682 0
M  V30 1195 N 111.922 4.63144 0.0721352 0
M  V30 1196 C 112.657 5.73394 -0.0253794 0
M  V30 1197 N 112.153 6.92576 -0.176133 0
M  V30 1198 N 113.946 5.62091 0.0313305 0
M  V30 1199 H 106.097 1.87863 -0.991027 0
M  V30 1200 H 108.36 0.86583 -0.38606 0
M  V30 1201 H 108.066 3.40729 -0.871572 0
M  V30 1202 H 107.94 3.67304 0.858366 0
M  V30 1203 H 110.327 2.72197 1.13985 0
M  V30 1204 H 110.408 2.48381 -0.611586 0
M  V30 1205 H 110.052 4.99005 -0.946374 0
M  V30 1206 H 109.982 5.20158 0.821153 0
M  V30 1207 H 112.473 3.77436 0.187263 0
M  V30 1208 H 112.786 7.72418 -0.242821 0
M  V30 1209 H 111.131 6.94678 -0.211429 0
M  V30 1210 H 114.322 4.67867 0.147773 0
M  V30 1211 H 114.495 6.47982 -0.048121 0
M  V30 1212 N 107.901 -0.206675 1.56239 0
M  V30 1213 C 109.317 -0.557025 1.49564 0
M  V30 1214 C 109.517 -1.86424 0.764735 0
M  V30 1215 O 108.573 -2.50584 0.310491 0
M  V30 1216 C 109.886 -0.622478 2.94186 0
M  V30 1217 C 111.434 -0.712099 3.04792 0
M  V30 1218 C 111.909 -0.808767 4.50803 0
M  V30 1219 N 113.4 -0.8726 4.54907 0
M  V30 1220 C 114.135 -0.967365 5.65181 0
M  V30 1221 N 113.631 -1.02515 6.85173 0
M  V30 1222 N 115.424 -1.00366 5.53067 0
M  V30 1223 H 107.575 0.650943 2.02179 0
M  V30 1224 H 109.838 0.230387 0.919579 0
M  V30 1225 H 109.544 0.268727 3.50672 0
M  V30 1226 H 109.418 -1.4811 3.46905 0
M  V30 1227 H 111.805 -1.59374 2.48363 0
M  V30 1228 H 111.886 0.172489 2.55218 0
M  V30 1229 H 111.53 0.0684754 5.07854 0
M  V30 1230 H 111.46 -1.70899 4.98098 0
M  V30 1231 H 113.951 -0.837657 3.68499 0
M  V30 1232 H 114.264 -1.09765 7.64965 0
M  V30 1233 H 112.609 -0.994026 6.87855 0
M  V30 1234 H 115.8 -0.95527 4.58249 0
M  V30 1235 H 115.973 -1.07405 6.39037 0
M  V30 1236 N 109.379 -1.50304 -0.473955 0
M  V30 1237 C 110.289 -1.7174 -1.5982 0
M  V30 1238 C 111.305 -0.600457 -1.63311 0
M  V30 1239 O 112.481 -0.878441 -1.81233 0
M  V30 1240 C 109.546 -1.80427 -2.96052 0
M  V30 1241 C 108.607 -3.04148 -3.02972 0
M  V30 1242 C 107.84 -3.12411 -4.32706 0
M  V30 1243 O 108.063 -2.27542 -5.23049 0
M  V30 1244 O 106.997 -4.05113 -4.45159 0
M  V30 1245 H 110.823 -2.67035 -1.44657 0
M  V30 1246 H 108.408 -1.34366 -0.653148 0
M  V30 1247 H 110.29 -1.88338 -3.7697 0
M  V30 1248 H 108.965 -0.883156 -3.11419 0
M  V30 1249 H 107.872 -3.0174 -2.21142 0
M  V30 1250 H 109.205 -3.95829 -2.92541 0
M  V30 1251 N 110.857 0.726932 -1.39834 0
M  V30 1252 C 112.106 1.48214 -1.36805 0
M  V30 1253 C 112.419 1.95576 0.0305291 0
M  V30 1254 O 113.625 2.7088 0.183417 0
M  V30 1255 C 112.081 2.67854 -2.40379 0
M  V30 1256 C 111.689 2.27408 -3.85992 0
M  V30 1257 C 113.433 3.45641 -2.46439 0
M  V30 1258 C 111.34 3.43819 -4.81189 0
M  V30 1259 H 110.27 0.556606 -0.508631 0
M  V30 1260 H 112.921 0.792216 -1.65518 0
M  V30 1261 H 111.303 3.3896 -2.04749 0
M  V30 1262 H 112.477 1.63795 -4.30706 0
M  V30 1263 H 110.792 1.62692 -3.83302 0
M  V30 1264 H 113.389 4.32244 -3.14753 0
M  V30 1265 H 113.732 3.88669 -1.49139 0
M  V30 1266 H 114.265 2.8157 -2.81004 0
M  V30 1267 H 111.004 3.05834 -5.79781 0
M  V30 1268 H 110.524 4.06385 -4.41148 0
M  V30 1269 H 112.203 4.10043 -5.00474 0
M  V30 1270 N 112.336 1.25143 0.95797 0
M  V30 1271 C 113.268 1.01023 2.05735 0
M  V30 1272 C 114.281 -0.0236902 1.62783 0
M  V30 1273 O 115.47 0.21448 1.77207 0
M  V30 1274 C 112.57 0.504595 3.35122 0
M  V30 1275 C 111.743 1.6039 4.06932 0
M  V30 1276 C 110.802 1.09922 5.14591 0
M  V30 1277 O 109.828 1.79293 5.40225 0
M  V30 1278 N 111.03 -0.0612545 5.80468 0
M  V30 1279 H 113.795 1.95683 2.26998 0
M  V30 1280 H 111.356 1.16303 1.12629 0
M  V30 1281 H 113.348 0.151516 4.04416 0
M  V30 1282 H 111.918 -0.347989 3.10657 0
M  V30 1283 H 111.138 2.12872 3.31782 0
M  V30 1284 H 112.426 2.34252 4.51667 0
M  V30 1285 H 111.824 -0.640985 5.62057 0
M  V30 1286 H 110.381 -0.355395 6.5083 0
M  V30 1287 N 113.814 -1.1601 1.06675 0
M  V30 1288 C 114.762 -2.22586 0.675157 0
M  V30 1289 C 115.756 -1.66525 -0.310766 0
M  V30 1290 O 116.962 -1.79145 -0.175215 0
M  V30 1291 H 113.337 -0.724855 0.200223 0
M  V30 1292 H 115.308 -2.52899 1.58381 0
M  V30 1293 C 114.057 -3.47604 0.0817162 0
M  V30 1294 H 113.38 -3.91058 0.831484 0
M  V30 1295 H 114.82 -4.23718 -0.154708 0
M  V30 1296 C 113.279 -3.15718 -1.17576 0
M  V30 1297 O 113.809 -3.31878 -2.26318 0
M  V30 1298 N 112.015 -2.69816 -1.07923 0
M  V30 1299 H 111.562 -2.56866 -0.194293 0
M  V30 1300 H 111.52 -2.48855 -1.92141 0
M  V30 1301 N 115.292 -0.849877 -1.32721 0
M  V30 1302 C 116.222 -0.306308 -2.31482 0
M  V30 1303 C 117.203 0.591952 -1.59468 0
M  V30 1304 O 118.388 0.513199 -1.87296 0
M  V30 1305 C 115.518 0.510204 -3.43532 0
M  V30 1306 C 114.472 -0.293209 -4.26994 0
M  V30 1307 C 113.798 0.647743 -5.30762 0
M  V30 1308 C 115.098 -1.51634 -4.99804 0
M  V30 1309 H 116.792 -1.13153 -2.77195 0
M  V30 1310 H 114.338 -0.545553 -1.33266 0
M  V30 1311 H 116.291 0.900856 -4.11658 0
M  V30 1312 H 115.015 1.36874 -2.96535 0
M  V30 1313 H 113.674 -0.665555 -3.60508 0
M  V30 1314 H 113.322 1.50299 -4.8002 0
M  V30 1315 H 113.022 0.11422 -5.87489 0
M  V30 1316 H 114.546 1.03567 -6.01753 0
M  V30 1317 H 115.96 -1.19824 -5.60638 0
M  V30 1318 H 114.357 -1.98745 -5.66234 0
M  V30 1319 H 115.427 -2.28018 -4.27943 0
M  V30 1320 N 116.77 1.45427 -0.607355 0
M  V30 1321 C 117.717 2.3053 0.111625 0
M  V30 1322 C 118.687 1.4209 0.860216 0
M  V30 1323 O 119.872 1.71019 0.845998 0
M  V30 1324 C 117.012 3.26992 1.10319 0
M  V30 1325 C 116.125 4.30535 0.355493 0
M  V30 1326 C 115.26 5.14105 1.33676 0
M  V30 1327 C 114.299 6.09376 0.576862 0
M  V30 1328 N 113.436 6.85727 1.5074 0
M  V30 1329 H 118.276 2.91477 -0.620093 0
M  V30 1330 H 115.813 1.43631 -0.317594 0
M  V30 1331 H 117.771 3.81385 1.6912 0
M  V30 1332 H 116.401 2.67799 1.80232 0
M  V30 1333 H 115.453 3.78805 -0.348023 0
M  V30 1334 H 116.765 4.98235 -0.237423 0
M  V30 1335 H 115.919 5.72897 1.99684 0
M  V30 1336 H 114.658 4.46423 1.9636 0
M  V30 1337 H 113.663 5.49715 -0.0968519 0
M  V30 1338 H 114.888 6.79085 -0.0449341 0
M  V30 1339 H 112.834 6.20735 2.12189 0
M  V30 1340 H 112.751 7.49778 0.967913 0
M  V30 1341 H 114.019 7.4906 2.15706 0
M  V30 1342 N 118.248 0.346503 1.53744 0
M  V30 1343 C 119.178 -0.501193 2.28058 0
M  V30 1344 C 120.159 -1.10014 1.29734 0
M  V30 1345 O 121.344 -1.12097 1.58581 0
M  V30 1346 C 118.474 -1.65078 3.05559 0
M  V30 1347 C 117.428 -1.18003 4.11411 0
M  V30 1348 C 116.754 -2.41837 4.76884 0
M  V30 1349 C 118.054 -0.278394 5.21558 0
M  V30 1350 H 119.748 0.11875 2.99164 0
M  V30 1351 H 117.294 0.0585531 1.43881 0
M  V30 1352 H 119.247 -2.25028 3.56287 0
M  V30 1353 H 117.971 -2.29767 2.32109 0
M  V30 1354 H 116.63 -0.603331 3.61601 0
M  V30 1355 H 116.278 -3.0494 4.00026 0
M  V30 1356 H 115.978 -2.1102 5.48402 0
M  V30 1357 H 117.502 -3.02508 5.30397 0
M  V30 1358 H 118.916 -0.784823 5.67903 0
M  V30 1359 H 117.313 -0.0619707 6.00068 0
M  V30 1360 H 118.383 0.684677 4.80042 0
M  V30 1361 N 119.726 -1.57421 0.075193 0
M  V30 1362 C 120.973 -1.93618 -0.593146 0
M  V30 1363 C 121.301 -0.955484 -1.69413 0
M  V30 1364 O 120.556 0.0283251 -1.9568 0
M  V30 1365 C 120.855 -3.36428 -1.20626 0
M  V30 1366 C 120.521 -4.50307 -0.231078 0
M  V30 1367 C 119.183 -4.81186 0.0371936 0
M  V30 1368 C 121.535 -5.19374 0.435888 0
M  V30 1369 C 118.863 -5.78466 0.979461 0
M  V30 1370 C 121.215 -6.17665 1.3665 0
M  V30 1371 C 119.879 -6.46958 1.6432 0
M  V30 1372 H 119.149 -0.708499 -0.217047 0
M  V30 1373 H 121.796 -1.90937 0.146793 0
M  V30 1374 H 120.101 -3.35592 -2.02201 0
M  V30 1375 H 121.798 -3.61727 -1.73073 0
M  V30 1376 H 118.388 -4.26227 -0.450357 0
M  V30 1377 H 122.572 -4.95711 0.241748 0
M  V30 1378 H 117.828 -5.99487 1.20106 0
M  V30 1379 H 122.002 -6.70284 1.88924 0
M  V30 1380 H 119.629 -7.2215 2.37494 0
M  V30 1381 N 121.204 0.198386 -1.56346 0
M  V30 1382 C 122.62 0.549085 -1.49857 0
M  V30 1383 C 122.82 1.86016 -0.774611 0
M  V30 1384 O 121.876 2.50416 -0.323776 0
M  V30 1385 C 123.189 0.606868 -2.94512 0
M  V30 1386 C 124.737 0.695925 -3.05165 0
M  V30 1387 C 125.212 0.784848 -4.51225 0
M  V30 1388 N 126.703 0.848463 -4.55363 0
M  V30 1389 C 127.438 0.937378 -5.65686 0
M  V30 1390 N 126.934 0.9888 -6.85707 0
M  V30 1391 N 128.727 0.974312 -5.53592 0
M  V30 1392 H 120.878 -0.661655 -2.01831 0
M  V30 1393 H 123.141 -0.235261 -0.918344 0
M  V30 1394 H 122.847 -0.28732 -3.50524 0
M  V30 1395 H 122.721 1.46268 -3.47686 0
M  V30 1396 H 125.108 1.58055 -2.49204 0
M  V30 1397 H 125.189 -0.186022 -2.55123 0
M  V30 1398 H 124.833 -0.0954072 -5.0781 0
M  V30 1399 H 124.763 1.68255 -4.98997 0
M  V30 1400 H 127.254 0.818103 -3.68938 0
M  V30 1401 H 127.567 1.05707 -7.65536 0
M  V30 1402 H 125.912 0.957534 -6.88372 0
M  V30 1403 H 129.103 0.930954 -4.58749 0
M  V30 1404 H 129.276 1.04015 -6.39597 0
M  V30 1405 N 122.682 1.50554 0.465978 0
M  V30 1406 C 123.632 1.66177 1.56106 0
M  V30 1407 C 124.616 0.516265 1.52393 0
M  V30 1408 O 125.808 0.770906 1.5933 0
M  V30 1409 C 122.937 1.76396 2.94515 0
M  V30 1410 C 122.023 2.9664 3.03093 0
M  V30 1411 N 122.414 4.20245 2.81474 0
M  V30 1412 C 120.712 2.95304 3.34233 0
M  V30 1413 C 121.413 5.01259 2.95151 0
M  V30 1414 N 120.389 4.35318 3.25576 0
M  V30 1415 H 124.191 2.59434 1.38099 0
M  V30 1416 H 121.705 1.47808 0.6728 0
M  V30 1417 H 123.702 1.85694 3.73261 0
M  V30 1418 H 122.362 0.843017 3.13565 0
M  V30 1419 H 123.373 4.4966 2.56956 0
M  V30 1420 H 120.05 2.12729 3.59239 0
M  V30 1421 H 121.44 6.09564 2.82632 0
M  V30 1422 N 124.16 -0.719506 1.40217 0
M  V30 1423 C 125.571 -1.29848 1.34151 0
M  V30 1424 C 125.922 -1.96196 0.0131349 0
M  V30 1425 O 125.047 -1.973 -0.88892 0
M  V30 1426 C 125.642 -2.36118 2.42968 0
M  V30 1427 C 124.201 -2.8965 2.40374 0
M  V30 1428 C 123.348 -1.63393 2.24049 0
M  V30 1429 H 126.299 -0.51591 1.5008 0
M  V30 1430 H 126.32 -3.16871 2.10649 0
M  V30 1431 H 125.832 -1.878 3.39636 0
M  V30 1432 H 123.933 -3.42208 1.47392 0
M  V30 1433 H 124.046 -3.4171 3.35814 0
M  V30 1434 H 122.41 -1.88312 1.71495 0
M  V30 1435 H 123.193 -1.17104 3.2271 0
M  V30 1436 N 125.638 -1.25649 -0.95132 0
M  V30 1437 C 126.588 -1.03004 -2.03406 0
M  V30 1438 C 127.572 0.034187 -1.60864 0
M  V30 1439 O 128.764 -0.181549 -1.76066 0
M  V30 1440 C 125.893 -0.654255 -3.37008 0
M  V30 1441 C 124.979 -1.75542 -3.86065 0
M  V30 1442 N 125.37 -2.99113 -4.07879 0
M  V30 1443 C 123.668 -1.63669 -4.14884 0
M  V30 1444 C 124.369 -3.70611 -4.48356 0
M  V30 1445 N 123.345 -2.98247 -4.54477 0
M  V30 1446 H 127.147 -1.96813 -2.1827 0
M  V30 1447 H 124.661 -1.16017 -1.13639 0
M  V30 1448 H 126.658 -0.473206 -4.14206 0
M  V30 1449 H 125.318 0.276468 -3.23521 0
M  V30 1450 H 126.329 -3.35124 -3.94857 0
M  V30 1451 H 123.006 -0.775161 -4.10241 0
M  V30 1452 H 124.396 -4.76695 -4.73509 0
M  V30 1453 N 127.117 1.15442 -1.07289 0
M  V30 1454 C 128.366 1.85557 -0.790669 0
M  V30 1455 C 128.679 1.83186 0.685739 0
M  V30 1456 O 129.885 2.48977 1.0827 0
M  V30 1457 C 128.341 3.33038 -1.36433 0
M  V30 1458 C 127.949 3.43856 -2.8717 0
M  V30 1459 C 129.693 4.0834 -1.1601 0
M  V30 1460 C 127.6 4.85482 -3.3773 0
M  V30 1461 H 126.53 0.695122 -0.292098 0
M  V30 1462 H 129.181 1.30219 -1.29287 0
M  V30 1463 H 127.563 3.88043 -0.789864 0
M  V30 1464 H 128.737 2.98961 -3.50655 0
M  V30 1465 H 127.052 2.81998 -3.06376 0
M  V30 1466 H 129.649 5.12859 -1.51262 0
M  V30 1467 H 129.992 4.16182 -0.0991007 0
M  V30 1468 H 130.525 3.59603 -1.70089 0
M  V30 1469 H 127.264 4.82823 -4.43353 0
M  V30 1470 H 126.784 5.30961 -2.78999 0
M  V30 1471 H 128.463 5.54335 -3.33648 0
M  V30 1472 N 128.595 0.856903 1.32268 0
M  V30 1473 C 129.844 0.457599 1.96441 0
M  V30 1474 C 130.157 -0.992426 1.68553 0
M  V30 1475 O 131.363 -1.49727 2.26482 0
M  V30 1476 C 129.819 0.767358 3.51624 0
M  V30 1477 C 129.427 2.23326 3.88367 0
M  V30 1478 C 131.171 0.435887 4.22256 0
M  V30 1479 C 129.078 2.48613 5.36606 0
M  V30 1480 H 128.008 0.167387 0.735185 0
M  V30 1481 H 130.659 1.048 1.5063 0
M  V30 1482 H 129.041 0.106367 3.95857 0
M  V30 1483 H 130.215 2.93623 3.55137 0
M  V30 1484 H 128.53 2.52948 3.30766 0
M  V30 1485 H 131.127 0.602202 5.31298 0
M  V30 1486 H 131.47 -0.622672 4.11617 0
M  V30 1487 H 132.003 1.05286 3.83614 0
M  V30 1488 H 128.742 3.53101 5.52268 0
M  V30 1489 H 128.262 1.82896 5.71235 0
M  V30 1490 H 129.941 2.32676 6.03714 0
M  V30 1491 N 130.073 -1.45103 0.615059 0
M  V30 1492 C 131.02 -2.30586 -0.0993978 0
M  V30 1493 C 131.99 -1.42544 -0.852669 0
M  V30 1494 O 133.175 -1.71465 -0.836917 0
M  V30 1495 C 130.315 -3.27572 -1.08583 0
M  V30 1496 C 129.428 -4.30717 -0.332656 0
M  V30 1497 C 128.563 -5.14807 -1.30947 0
M  V30 1498 C 127.602 -6.09673 -0.544538 0
M  V30 1499 N 126.739 -6.86517 -1.47101 0
M  V30 1500 H 131.579 -2.91144 0.635542 0
M  V30 1501 H 129.116 -1.4346 0.325206 0
M  V30 1502 H 131.074 -3.82276 -1.67095 0
M  V30 1503 H 129.704 -2.68751 -1.78809 0
M  V30 1504 H 128.756 -3.78615 0.368107 0
M  V30 1505 H 130.068 -4.98102 0.263842 0
M  V30 1506 H 129.222 -5.73948 -1.96643 0
M  V30 1507 H 127.961 -4.47458 -1.9399 0
M  V30 1508 H 126.966 -5.49656 0.126003 0
M  V30 1509 H 128.191 -6.79052 0.080947 0
M  V30 1510 H 126.137 -6.21851 -2.08895 0
M  V30 1511 H 126.054 -7.50281 -0.928137 0
M  V30 1512 H 127.322 -7.50194 -2.11731 0
M  V30 1513 N 131.551 -0.354651 -1.53558 0
M  V30 1514 C 132.481 0.489091 -2.2832 0
M  V30 1515 C 133.462 1.09324 -1.30316 0
M  V30 1516 O 134.647 1.11255 -1.59173 0
M  V30 1517 C 131.777 1.63456 -3.0643 0
M  V30 1518 C 130.731 1.1582 -4.12031 0
M  V30 1519 C 130.057 2.39305 -4.7816 0
M  V30 1520 C 131.357 0.250731 -5.21698 0
M  V30 1521 H 133.051 -0.134614 -2.99097 0
M  V30 1522 H 130.597 -0.0661826 -1.43848 0
M  V30 1523 H 132.55 2.23136 -3.57475 0
M  V30 1524 H 131.274 2.28533 -2.33325 0
M  V30 1525 H 129.933 0.584146 -3.61916 0
M  V30 1526 H 129.581 3.02814 -4.01637 0
M  V30 1527 H 129.281 2.08109 -5.49513 0
M  V30 1528 H 130.805 2.99691 -5.31994 0
M  V30 1529 H 132.219 0.754695 -5.68311 0
M  V30 1530 H 130.616 0.0301468 -6.00092 0
M  V30 1531 H 131.686 -0.710125 -4.79672 0
M  V30 1532 N 133.029 1.57378 -0.0835403 0
M  V30 1533 C 134.259 1.97975 0.590713 0
M  V30 1534 C 134.667 0.961083 1.62972 0
M  V30 1535 O 134.01 -0.0590879 1.83605 0
M  V30 1536 C 134.072 3.34915 1.3066 0
M  V30 1537 C 133.736 4.55069 0.419698 0
M  V30 1538 C 134.733 5.18868 -0.32749 0
M  V30 1539 C 132.418 5.0114 0.341137 0
M  V30 1540 C 134.412 6.27098 -1.14134 0
M  V30 1541 C 132.099 6.0924 -0.476374 0
M  V30 1542 C 133.097 6.72083 -1.21627 0
M  V30 1543 O 132.785 7.781 -2.02028 0
M  V30 1544 H 132.517 0.655818 0.163947 0
M  V30 1545 H 135.071 2.04807 -0.156021 0
M  V30 1546 H 133.301 3.24733 2.09966 0
M  V30 1547 H 134.99 3.60037 1.87424 0
M  V30 1548 H 135.756 4.84211 -0.276459 0
M  V30 1549 H 131.635 4.51996 0.90668 0
M  V30 1550 H 135.179 6.7608 -1.71935 0
M  V30 1551 H 131.076 6.43329 -0.528927 0
M  V30 1552 H 131.844 7.95034 -1.94586 0
M  V30 1553 N 134.507 -0.190092 1.56449 0
M  V30 1554 C 135.439 -1.25973 1.91477 0
M  V30 1555 C 136.452 -1.41452 0.805931 0
M  V30 1556 O 137.641 -1.41789 1.08435 0
M  V30 1557 C 134.741 -2.63117 2.13594 0
M  V30 1558 C 133.914 -2.69182 3.4476 0
M  V30 1559 C 132.973 -3.87557 3.5593 0
M  V30 1560 O 131.999 -3.74427 4.28711 0
M  V30 1561 N 133.201 -5.03224 2.89388 0
M  V30 1562 H 135.966 -0.962394 2.83828 0
M  V30 1563 H 133.527 -0.379981 1.57378 0
M  V30 1564 H 135.519 -3.40742 2.1835 0
M  V30 1565 H 134.089 -2.85319 1.27719 0
M  V30 1566 H 133.309 -1.77793 3.51828 0
M  V30 1567 H 134.597 -2.70229 4.31107 0
M  V30 1568 H 133.995 -5.16791 2.30094 0
M  V30 1569 H 132.552 -5.78778 2.99764 0
M  V30 1570 N 135.985 -1.50799 -0.457987 0
M  V30 1571 C 137.231 -1.62683 -1.21088 0
M  V30 1572 C 137.564 -0.332268 -1.91336 0
M  V30 1573 O 136.839 0.667043 -1.82704 0
M  V30 1574 C 137.122 -2.81615 -2.24422 0
M  V30 1575 C 136.975 -4.20989 -1.58392 0
M  V30 1576 C 138.294 -2.96085 -3.2561 0
M  V30 1577 H 135.413 -0.592087 -0.438864 0
M  V30 1578 H 138.055 -1.83225 -0.50286 0
M  V30 1579 H 136.205 -2.64231 -2.84806 0
M  V30 1580 H 137.877 -4.49994 -1.01504 0
M  V30 1581 H 136.12 -4.24641 -0.886704 0
M  V30 1582 H 136.791 -5.0016 -2.33547 0
M  V30 1583 H 139.267 -3.12042 -2.75262 0
M  V30 1584 H 138.143 -3.80902 -3.95228 0
M  V30 1585 H 138.404 -2.0726 -3.90507 0
M  V30 1586 N 137.463 0.71206 -1.40597 0
M  V30 1587 C 138.712 1.46754 -1.38369 0
M  V30 1588 C 139.025 1.95598 0.0097839 0
M  V30 1589 O 140.231 2.71059 0.154677 0
M  V30 1590 C 138.687 2.65289 -2.43207 0
M  V30 1591 C 138.295 2.23301 -3.88382 0
M  V30 1592 C 140.039 3.43008 -2.50091 0
M  V30 1593 C 137.946 3.38696 -4.84808 0
M  V30 1594 H 136.876 0.55118 -0.514506 0
M  V30 1595 H 139.527 0.774616 -1.66349 0
M  V30 1596 H 137.909 3.36769 -2.08332 0
M  V30 1597 H 139.083 1.59218 -4.32419 0
M  V30 1598 H 137.398 1.58618 -3.85006 0
M  V30 1599 H 139.995 4.28881 -3.1932 0
M  V30 1600 H 140.338 3.87065 -1.53253 0
M  V30 1601 H 140.871 2.78574 -2.83974 0
M  V30 1602 H 137.61 2.99668 -5.82992 0
M  V30 1603 H 137.13 4.01683 -4.45433 0
M  V30 1604 H 138.809 4.04712 -5.04794 0
M  V30 1605 N 138.941 1.26152 0.944643 0
M  V30 1606 C 140.166 1.14363 1.7302 0
M  V30 1607 C 140.591 -0.29772 1.85729 0
M  V30 1608 O 139.949 -1.2157 1.34501 0
M  V30 1609 C 139.997 1.81378 3.11664 0
M  V30 1610 O 139.101 1.10022 3.97453 0
M  V30 1611 H 138.442 0.398694 0.53098 0
M  V30 1612 H 140.972 1.66906 1.18337 0
M  V30 1613 H 140.982 1.88064 3.62072 0
M  V30 1614 H 139.657 2.86237 3.0173 0
M  V30 1615 H 138.234 1.11287 3.55907 0
M  V30 1616 N 140.419 -1.14872 1.07899 0
M  V30 1617 C 141.647 -1.89661 0.82683 0
M  V30 1618 C 142.062 -1.78312 -0.620519 0
M  V30 1619 O 141.419 -1.13888 -1.42604 0
M  V30 1620 C 141.47 -3.39817 1.23316 0
M  V30 1621 O 141.191 -3.50845 2.62372 0
M  V30 1622 C 142.692 -4.31615 1.0111 0
M  V30 1623 H 139.912 -0.60092 0.298557 0
M  V30 1624 H 142.456 -1.4551 1.43691 0
M  V30 1625 H 140.611 -3.8161 0.667286 0
M  V30 1626 H 141.025 -4.44076 2.79101 0
M  V30 1627 H 142.499 -5.35367 1.34486 0
M  V30 1628 H 142.976 -4.39169 -0.0522168 0
M  V30 1629 H 143.582 -3.95572 1.56215 0
M  V30 1630 N 141.898 -0.863906 -1.31812 0
M  V30 1631 C 143.309 -0.52522 -1.7916 0
M  V30 1632 C 143.66 0.957518 -1.71248 0
M  V30 1633 O 142.785 1.74734 -1.27659 0
M  V30 1634 C 143.38 -0.9466 -3.25307 0
M  V30 1635 C 141.939 -0.659668 -3.70574 0
M  V30 1636 C 141.086 -1.14126 -2.52726 0
M  V30 1637 H 144.037 -1.05022 -1.1898 0
M  V30 1638 H 144.058 -0.266766 -3.79564 0
M  V30 1639 H 143.57 -2.02579 -3.31034 0
M  V30 1640 H 141.671 0.408416 -3.70355 0
M  V30 1641 H 141.784 -1.23245 -4.62977 0
M  V30 1642 H 140.148 -0.561216 -2.4844 0
M  V30 1643 H 140.931 -2.22775 -2.61201 0
M  V30 1644 N 143.376 1.44774 -0.622745 0
M  V30 1645 C 144.601 2.06999 -0.128968 0
M  V30 1646 C 145.026 1.4617 1.1839 0
M  V30 1647 O 144.384 0.560007 1.72434 0
M  V30 1648 C 144.432 3.60595 -0.0188351 0
M  V30 1649 O 143.536 3.99398 1.02739 0
M  V30 1650 H 142.877 0.659047 -0.0809544 0
M  V30 1651 H 145.407 1.85784 -0.85705 0
M  V30 1652 H 145.417 4.07627 0.174476 0
M  V30 1653 H 144.092 4.04252 -0.977384 0
M  V30 1654 H 142.669 3.64011 0.809326 0
M  V30 1655 N 144.854 0.36279 1.53368 0
M  V30 1656 C 146.131 -0.284021 1.93527 0
M  V30 1657 C 146.511 -1.66628 1.29608 0
M  V30 1658 O 145.859 -2.23942 0.45413 0
M  V30 1659 C 146.069 -0.337028 3.47369 0
M  V30 1660 C 147.417 -0.578708 4.20638 0
M  V30 1661 O 148.441 -0.418352 3.53735 0
M  V30 1662 O 147.3 -0.89074 5.39192 0
M  V30 1663 H 144.394 -0.169743 0.809393 0
M  V30 1664 H 146.94 0.41537 1.64538 0
M  V30 1665 H 145.712 0.632217 3.86159 0
M  V30 1666 H 145.335 -1.08243 3.82582 0
M  V30 1667 N 146.332 -1.57332 0.0918853 0
M  V30 1668 C 147.581 -1.93412 -0.572249 0
M  V30 1669 C 147.894 -0.975515 -1.69538 0
M  V30 1670 O 149.1 -1.22991 -2.42045 0
M  V30 1671 C 147.556 -3.43648 -1.0693 0
M  V30 1672 C 147.164 -4.47994 0.0239049 0
M  V30 1673 C 148.908 -3.88695 -1.70635 0
M  V30 1674 C 146.815 -5.89381 -0.488319 0
M  V30 1675 H 145.745 -0.721939 -0.217532 0
M  V30 1676 H 148.396 -1.82735 0.167369 0
M  V30 1677 H 146.778 -3.49466 -1.8625 0
M  V30 1678 H 147.952 -4.53815 0.799277 0
M  V30 1679 H 146.267 -4.12536 0.565946 0
M  V30 1680 H 148.864 -4.91725 -2.10025 0
M  V30 1681 H 149.207 -3.27166 -2.57426 0
M  V30 1682 H 149.74 -3.85564 -0.979023 0
M  V30 1683 H 146.479 -6.54602 0.342906 0
M  V30 1684 H 145.999 -5.87037 -1.23077 0
M  V30 1685 H 147.678 -6.39863 -0.958317 0
M  V30 1686 N 147.81 0.181792 -1.56548 0
M  V30 1687 C 149.057 0.900097 -1.81396 0
M  V30 1688 C 149.385 1.82695 -0.667281 0
M  V30 1689 O 148.64 1.92614 0.346146 0
M  V30 1690 C 148.939 1.73728 -3.12335 0
M  V30 1691 C 148.605 0.960255 -4.40556 0
M  V30 1692 C 147.267 0.745766 -4.75386 0
M  V30 1693 C 149.619 0.414477 -5.19549 0
M  V30 1694 C 146.947 -0.0257694 -5.86694 0
M  V30 1695 C 149.299 -0.343916 -6.31664 0
M  V30 1696 C 147.963 -0.569301 -6.65068 0
M  V30 1697 H 147.233 0.329369 -0.663775 0
M  V30 1698 H 149.88 0.165647 -1.90782 0
M  V30 1699 H 148.185 2.54081 -2.98245 0
M  V30 1700 H 149.882 2.29591 -3.28769 0
M  V30 1701 H 146.472 1.13746 -4.13231 0
M  V30 1702 H 150.656 0.567554 -4.93044 0
M  V30 1703 H 145.912 -0.210233 -6.11038 0
M  V30 1704 H 150.086 -0.774133 -6.92084 0
M  V30 1705 H 147.713 -1.16903 -7.51158 0
M  V30 1706 N 149.288 1.51039 0.449983 0
M  V30 1707 C 150.221 1.66105 1.56474 0
M  V30 1708 C 151.199 0.508776 1.54435 0
M  V30 1709 O 152.383 0.731005 1.73749 0
M  V30 1710 C 149.51 1.66304 2.9506 0
M  V30 1711 C 148.556 2.87346 3.15174 0
M  V30 1712 S 149.389 4.4835 2.92818 0
M  V30 1713 C 150.545 4.51274 4.33708 0
M  V30 1714 H 150.778 2.60397 1.43459 0
M  V30 1715 H 148.311 1.40565 0.638805 0
M  V30 1716 H 150.269 1.67103 3.74949 0
M  V30 1717 H 148.93 0.732108 3.05449 0
M  V30 1718 H 148.123 2.83849 4.16468 0
M  V30 1719 H 147.725 2.84223 2.43091 0
M  V30 1720 H 150.017 4.26136 5.26701 0
M  V30 1721 H 150.96 5.53017 4.42242 0
M  V30 1722 H 151.368 3.80738 4.16772 0
M  V30 1723 N 150.766 -0.704594 1.40972 0
M  V30 1724 C 152.012 -1.46675 1.40051 0
M  V30 1725 C 152.345 -1.94199 0.00641102 0
M  V30 1726 O 151.62 -1.68916 -0.964235 0
M  V30 1727 C 151.903 -2.68505 2.39952 0
M  V30 1728 C 151.756 -2.26805 3.88432 0
M  V30 1729 C 153.075 -3.70686 2.37233 0
M  V30 1730 H 150.194 -0.532015 0.510028 0
M  V30 1731 H 152.836 -0.803255 1.72185 0
M  V30 1732 H 150.986 -3.25114 2.1268 0
M  V30 1733 H 152.658 -1.75592 4.26574 0
M  V30 1734 H 150.901 -1.58685 4.03734 0
M  V30 1735 H 151.572 -3.14181 4.53866 0
M  V30 1736 H 154.048 -3.23731 2.61415 0
M  V30 1737 H 152.924 -4.53553 3.09162 0
M  V30 1738 H 153.185 -4.19754 1.38777 0
M  V30 1739 N 152.244 -1.26651 -0.937939 0
M  V30 1740 C 153.177 -1.02811 -2.03728 0
M  V30 1741 C 154.155 0.0481915 -1.62529 0
M  V30 1742 O 155.339 -0.0948839 -1.88261 0
M  V30 1743 C 152.466 -0.557517 -3.3408 0
M  V30 1744 C 151.512 -1.62686 -3.94253 0
M  V30 1745 S 152.345 -3.21667 -4.28125 0
M  V30 1746 C 153.501 -2.76384 -5.61572 0
M  V30 1747 H 153.734 -1.95891 -2.23638 0
M  V30 1748 H 151.267 -1.10367 -1.07974 0
M  V30 1749 H 153.225 -0.292674 -4.09455 0
M  V30 1750 H 151.886 0.353062 -3.12109 0
M  V30 1751 H 151.079 -1.24866 -4.88287 0
M  V30 1752 H 150.681 -1.84324 -3.25424 0
M  V30 1753 H 152.973 -2.2105 -6.40424 0
M  V30 1754 H 153.916 -3.69123 -6.0428 0
M  V30 1755 H 154.324 -2.15847 -5.21604 0
M  V30 1756 N 153.722 1.14298 -1.08507 0
M  V30 1757 C 154.632 2.23027 -0.727753 0
M  V30 1758 C 155.648 1.71952 0.26619 0
M  V30 1759 O 156.824 2.011 0.109882 0
M  V30 1760 C 153.889 3.46403 -0.143541 0
M  V30 1761 C 152.95 4.12413 -1.19223 0
M  V30 1762 C 152.183 5.29899 -0.635798 0
M  V30 1763 O 152.406 5.67796 0.544393 0
M  V30 1764 O 151.34 5.85717 -1.38634 0
M  V30 1765 H 155.166 2.55945 -1.63481 0
M  V30 1766 H 152.751 1.22248 -0.858817 0
M  V30 1767 H 154.633 4.21018 0.179404 0
M  V30 1768 H 153.308 3.15206 0.736659 0
M  V30 1769 H 152.215 3.39667 -1.56772 0
M  V30 1770 H 153.548 4.47718 -2.04474 0
M  V30 1771 N 155.201 0.870884 1.31352 0
M  V30 1772 C 156.431 0.496049 2.00557 0
M  V30 1773 C 156.839 -0.916241 1.65534 0
M  V30 1774 O 156.182 -1.61188 0.881134 0
M  V30 1775 C 156.244 0.574418 3.54881 0
M  V30 1776 C 155.908 1.94849 4.1338 0
M  V30 1777 C 156.905 2.91611 4.30417 0
M  V30 1778 C 154.59 2.25005 4.49086 0
M  V30 1779 C 156.584 4.16672 4.82352 0
M  V30 1780 C 154.271 3.50315 5.00722 0
M  V30 1781 C 155.269 4.45964 5.17306 0
M  V30 1782 O 154.957 5.69052 5.67833 0
M  V30 1783 H 154.689 0.191664 0.64826 0
M  V30 1784 H 157.243 1.17409 1.68536 0
M  V30 1785 H 155.473 -0.160549 3.86367 0
M  V30 1786 H 157.162 0.212879 4.05341 0
M  V30 1787 H 157.928 2.69622 4.03149 0
M  V30 1788 H 153.807 1.51332 4.35453 0
M  V30 1789 H 157.351 4.91336 4.95211 0
M  V30 1790 H 153.248 3.72147 5.27424 0
M  V30 1791 H 154.016 5.71236 5.86201 0
M  V30 1792 N 156.679 -1.44442 0.630414 0
M  V30 1793 C 157.925 -2.02351 0.134816 0
M  V30 1794 C 158.258 -1.4947 -1.23986 0
M  V30 1795 O 157.533 -0.678475 -1.82283 0
M  V30 1796 C 157.816 -3.59898 0.120707 0
M  V30 1797 C 157.669 -4.23063 1.52767 0
M  V30 1798 C 158.988 -4.36585 -0.555127 0
M  V30 1799 H 156.107 -0.73527 0.0504646 0
M  V30 1800 H 158.749 -1.72022 0.806751 0
M  V30 1801 H 156.899 -3.85868 -0.451477 0
M  V30 1802 H 158.571 -4.08202 2.14869 0
M  V30 1803 H 156.814 -3.80586 2.08175 0
M  V30 1804 H 157.485 -5.32071 1.46984 0
M  V30 1805 H 159.961 -4.16044 -0.0685429 0
M  V30 1806 H 158.837 -5.46294 -0.534185 0
M  V30 1807 H 159.098 -4.11138 -1.62535 0
M  V30 1808 N 158.157 -0.370918 -1.53173 0
M  V30 1809 C 159.382 0.220293 -2.06227 0
M  V30 1810 C 159.807 1.41243 -1.24225 0
M  V30 1811 O 159.165 1.79387 -0.262645 0
M  V30 1812 C 159.213 0.586663 -3.55796 0
M  V30 1813 O 158.317 1.68317 -3.76488 0
M  V30 1814 H 157.658 0.0308099 -0.663285 0
M  V30 1815 H 160.188 -0.533068 -1.97534 0
M  V30 1816 H 160.198 0.85617 -3.98916 0
M  V30 1817 H 158.873 -0.285013 -4.14922 0
M  V30 1818 H 157.45 1.40881 -3.45264 0
M  V30 1819 N 159.635 1.57281 -0.100228 0
M  V30 1820 C 160.883 1.94153 0.561157 0
M  V30 1821 C 161.204 0.983157 1.68401 0
M  V30 1822 O 160.474 0.0361132 1.95867 0
M  V30 1823 H 159.054 0.716791 0.210283 0
M  V30 1824 H 161.716 1.94202 -0.164765 0
M  V30 1825 H 160.812 2.96709 0.968008 0
M  V30 1826 N 161.113 -0.173488 1.56642 0
M  V30 1827 C 162.361 -0.888706 1.81512 0
M  V30 1828 C 162.682 -1.82875 0.676872 0
M  V30 1829 O 161.952 -1.93536 -0.303414 0
M  V30 1830 H 160.532 -0.331164 0.669582 0
M  V30 1831 H 163.194 -0.173823 1.94123 0
M  V30 1832 H 162.29 -1.46691 2.75478 0
M  V30 1833 N 162.591 -1.51276 -0.441967 0
M  V30 1834 C 163.501 -1.75092 -1.56141 0
M  V30 1835 C 164.517 -0.634963 -1.62001 0
M  V30 1836 O 165.693 -0.916686 -1.79329 0
M  V30 1837 C 162.758 -1.86666 -2.92158 0
M  V30 1838 C 161.819 -3.10506 -2.96453 0
M  V30 1839 C 161.052 -3.21519 -4.25982 0
M  V30 1840 O 161.275 -2.38586 -5.18105 0
M  V30 1841 O 160.209 -4.14465 -4.36466 0
M  V30 1842 H 164.035 -2.70044 -1.38961 0
M  V30 1843 H 161.62 -1.35722 -0.624499 0
M  V30 1844 H 163.502 -1.96292 -3.72891 0
M  V30 1845 H 162.177 -0.949014 -3.09476 0
M  V30 1846 H 161.084 -3.06363 -2.14692 0
M  V30 1847 H 162.417 -4.01945 -2.84079 0
M  V30 1848 N 164.069 0.697108 -1.41344 0
M  V30 1849 C 164.999 1.82353 -1.45841 0
M  V30 1850 C 165.98 1.67115 -0.317247 0
M  V30 1851 O 167.165 1.86871 -0.528474 0
M  V30 1852 C 164.295 3.20476 -1.33838 0
M  V30 1853 C 163.249 3.50415 -2.4575 0
M  V30 1854 C 162.575 4.87878 -2.18813 0
M  V30 1855 C 163.875 3.49546 -3.88091 0
M  V30 1856 H 165.569 1.78846 -2.40113 0
M  V30 1857 H 163.115 0.859028 -1.15571 0
M  V30 1858 H 165.068 3.98988 -1.35596 0
M  V30 1859 H 163.792 3.24604 -0.360498 0
M  V30 1860 H 162.451 2.74253 -2.43271 0
M  V30 1861 H 162.099 4.8863 -1.19371 0
M  V30 1862 H 161.799 5.08875 -2.93803 0
M  V30 1863 H 163.323 5.68702 -2.22284 0
M  V30 1864 H 164.737 4.18066 -3.92293 0
M  V30 1865 H 163.134 3.82075 -4.62751 0
M  V30 1866 H 164.204 2.48552 -4.16353 0
M  V30 1867 N 165.547 1.27147 0.931209 0
M  V30 1868 C 166.794 1.13278 1.67852 0
M  V30 1869 C 167.122 -0.32204 1.91815 0
M  V30 1870 O 166.377 -1.25224 1.50391 0
M  V30 1871 C 166.676 1.8579 3.05314 0
M  V30 1872 C 166.342 3.35657 3.01073 0
M  V30 1873 C 165.004 3.76536 2.99623 0
M  V30 1874 C 167.356 4.31299 2.92627 0
M  V30 1875 C 164.684 5.11426 2.87506 0
M  V30 1876 C 167.036 5.66242 2.82051 0
M  V30 1877 C 165.7 6.06418 2.7895 0
M  V30 1878 H 164.97 0.414515 0.614214 0
M  V30 1879 H 167.617 1.57712 1.08624 0
M  V30 1880 H 165.922 1.33854 3.68226 0
M  V30 1881 H 167.619 1.72491 3.62005 0
M  V30 1882 H 164.209 3.03146 3.02986 0
M  V30 1883 H 168.393 4.00692 2.92848 0
M  V30 1884 H 163.649 5.41705 2.83489 0
M  V30 1885 H 167.823 6.40026 2.74481 0
M  V30 1886 H 165.45 7.10895 2.69318 0
M  V30 1887 N 167.025 -1.13721 1.09112 0
M  V30 1888 C 168.302 -1.81155 0.737706 0
M  V30 1889 C 168.682 -1.96253 -0.777683 0
M  V30 1890 O 168.03 -1.52807 -1.69889 0
M  V30 1891 C 168.24 -3.16392 1.47299 0
M  V30 1892 C 169.588 -3.91787 1.63671 0
M  V30 1893 O 170.612 -3.26005 1.43524 0
M  V30 1894 O 169.471 -5.0977 1.96969 0
M  V30 1895 H 166.565 -0.783518 0.26463 0
M  V30 1896 H 169.111 -1.20676 1.19312 0
M  V30 1897 H 167.883 -3.0061 2.50498 0
M  V30 1898 H 167.506 -3.8457 1.00953 0
M  V30 1899 N 168.503 -0.877838 -1.30888 0
M  V30 1900 C 169.733 -0.506678 -2.00291 0
M  V30 1901 C 170.141 0.907449 -1.66018 0
M  V30 1902 O 169.484 1.60719 -0.88967 0
M  V30 1903 C 169.546 -0.59323 -3.54572 0
M  V30 1904 C 169.21 -1.97038 -4.12341 0
M  V30 1905 C 170.207 -2.93889 -4.28865 0
M  V30 1906 C 167.892 -2.27383 -4.47886 0
M  V30 1907 C 169.886 -4.19224 -4.80136 0
M  V30 1908 C 167.573 -3.52965 -4.98857 0
M  V30 1909 C 168.571 -4.48701 -5.14934 0
M  V30 1910 O 168.259 -5.72056 -5.64808 0
M  V30 1911 H 167.991 -0.1951 -0.647234 0
M  V30 1912 H 170.545 -1.18301 -1.6791 0
M  V30 1913 H 168.775 0.140057 -3.86446 0
M  V30 1914 H 170.464 -0.234372 -4.05223 0
M  V30 1915 H 171.23 -2.71756 -4.01714 0
M  V30 1916 H 167.109 -1.53639 -4.34645 0
M  V30 1917 H 170.653 -4.93956 -4.92599 0
M  V30 1918 H 166.55 -3.74939 -5.25443 0
M  V30 1919 H 167.318 -5.74337 -5.83163 0
M  V30 1920 N 169.982 1.44106 -0.638065 0
M  V30 1921 C 171.231 2.01194 -0.142744 0
M  V30 1922 C 171.544 1.50835 1.24532 0
M  V30 1923 O 172.75 2.00096 1.83504 0
M  V30 1924 C 171.206 3.59319 -0.20442 0
M  V30 1925 C 170.814 4.18674 -1.59423 0
M  V30 1926 C 172.558 4.23854 0.234079 0
M  V30 1927 C 170.465 5.69045 -1.61065 0
M  V30 1928 H 169.395 0.752367 -0.0495998 0
M  V30 1929 H 172.046 1.65246 -0.797881 0
M  V30 1930 H 170.428 3.92598 0.517946 0
M  V30 1931 H 171.602 3.96921 -2.34074 0
M  V30 1932 H 169.917 3.66453 -1.97741 0
M  V30 1933 H 172.514 5.34155 0.241443 0
M  V30 1934 H 172.857 3.96688 1.2627 0
M  V30 1935 H 173.39 3.95403 -0.436025 0
M  V30 1936 H 170.129 6.00956 -2.61787 0
M  V30 1937 H 169.649 5.929 -0.90718 0
M  V30 1938 H 171.328 6.32809 -1.34766 0
M  V30 1939 N 171.46 0.379036 1.52974 0
M  V30 1940 C 172.7 -0.206325 2.03356 0
M  V30 1941 C 173.064 -1.44892 1.25977 0
M  V30 1942 O 174.265 -2.11078 1.66432 0
M  V30 1943 C 172.536 -0.477887 3.54191 0
M  V30 1944 S 174.095 -1.035 4.26419 0
M  V30 1945 H 170.913 -0.0590259 0.708546 0
M  V30 1946 H 173.515 0.525013 1.88319 0
M  V30 1947 H 172.219 0.433745 4.08101 0
M  V30 1948 H 171.75 -1.23793 3.73415 0
M  V30 1949 H 173.765 -2.31821 4.38718 0
M  V30 1950 N 172.938 -1.57226 0.108567 0
M  V30 1951 C 173.885 -2.14756 -0.845481 0
M  V30 1952 C 174.855 -1.06971 -1.27068 0
M  V30 1953 O 176.04 -1.34827 -1.35005 0
M  V30 1954 C 173.18 -2.74298 -2.09415 0
M  V30 1955 C 172.293 -3.96358 -1.71826 0
M  V30 1956 C 171.428 -4.44021 -2.9158 0
M  V30 1957 C 170.467 -5.58637 -2.50181 0
M  V30 1958 N 169.604 -6.01091 -3.62814 0
M  V30 1959 H 174.444 -2.95961 -0.348035 0
M  V30 1960 H 171.981 -1.46226 -0.160106 0
M  V30 1961 H 173.939 -3.06945 -2.82561 0
M  V30 1962 H 172.569 -1.95801 -2.56636 0
M  V30 1963 H 171.621 -3.69939 -0.885947 0
M  V30 1964 H 172.933 -4.79504 -1.37394 0
M  V30 1965 H 172.087 -4.78522 -3.72963 0
M  V30 1966 H 170.826 -3.59803 -3.29231 0
M  V30 1967 H 169.831 -5.23751 -1.67228 0
M  V30 1968 H 171.056 -6.44613 -2.13659 0
M  V30 1969 H 169.002 -5.19817 -4.00158 0
M  V30 1970 H 168.919 -6.79066 -3.32273 0
M  V30 1971 H 170.187 -6.40227 -4.44668 0
M  V30 1972 N 174.416 0.165178 -1.56732 0
M  V30 1973 C 175.364 1.22369 -1.97809 0
M  V30 1974 C 176.358 1.45488 -0.867741 0
M  V30 1975 O 177.564 1.45995 -1.05288 0
M  V30 1976 H 173.939 0.411486 -0.629431 0
M  V30 1977 H 175.91 0.850425 -2.86025 0
M  V30 1978 C 174.659 2.55403 -2.35934 0
M  V30 1979 H 173.982 2.38438 -3.20916 0
M  V30 1980 H 175.422 3.2814 -2.68514 0
M  V30 1981 C 173.881 3.14611 -1.20506 0
M  V30 1982 O 174.411 3.98626 -0.496016 0
M  V30 1983 N 172.617 2.7379 -0.97403 0
M  V30 1984 H 172.164 2.0557 -1.55238 0
M  V30 1985 H 172.122 3.1374 -0.203573 0
M  V30 1986 N 175.894 1.51508 0.433938 0
M  V30 1987 C 177.142 1.6402 1.18075 0
M  V30 1988 C 177.463 0.360328 1.91642 0
M  V30 1989 O 176.733 -0.623945 1.85698 0
M  V30 1990 H 175.313 0.6045 0.43885 0
M  V30 1991 H 177.975 1.88452 0.497178 0
M  V30 1992 H 177.071 2.46949 1.90847 0
M  V30 1993 N 177.372 -0.689602 1.41712 0
M  V30 1994 C 178.788 -1.00093 1.24312 0
M  V30 1995 C 178.988 -2.01036 0.136729 0
M  V30 1996 O 178.044 -2.47562 -0.496918 0
M  V30 1997 C 179.357 -1.51985 2.59463 0
M  V30 1998 C 180.905 -1.63838 2.66695 0
M  V30 1999 C 181.38 -2.1913 4.02177 0
M  V30 2000 N 182.871 -2.26483 4.04054 0
M  V30 2001 C 183.606 -2.70306 5.0569 0
M  V30 2002 N 183.102 -3.13691 6.17713 0
M  V30 2003 N 184.895 -2.69923 4.9305 0
M  V30 2004 H 177.046 -0.0210029 2.1239 0
M  V30 2005 H 179.309 -0.0718733 0.945272 0
M  V30 2006 H 179.015 -0.85269 3.41207 0
M  V30 2007 H 178.889 -2.50103 2.82362 0
M  V30 2008 H 181.276 -2.29664 1.85306 0
M  V30 2009 H 181.357 -0.642492 2.476 0
M  V30 2010 H 181.001 -1.53918 4.84016 0
M  V30 2011 H 180.931 -3.19482 4.18615 0
M  V30 2012 H 183.422 -1.95874 3.23174 0
M  V30 2013 H 183.735 -3.45773 6.9113 0
M  V30 2014 H 182.08 -3.11585 6.21241 0
M  V30 2015 H 185.271 -2.35382 4.04614 0
M  V30 2016 H 185.444 -3.03758 5.72394 0
M  V30 2017 N 178.85 -1.27639 -0.924453 0
M  V30 2018 C 179.78 -1.13166 -2.04244 0
M  V30 2019 C 180.761 -0.032256 -1.70069 0
M  V30 2020 O 181.946 -0.207328 -1.9309 0
M  V30 2021 C 179.076 -0.781496 -3.38393 0
M  V30 2022 C 178.03 -1.83449 -3.86692 0
M  V30 2023 C 177.356 -1.33822 -5.17683 0
M  V30 2024 C 178.656 -3.23917 -4.09726 0
M  V30 2025 H 180.35 -2.06689 -2.1661 0
M  V30 2026 H 177.896 -0.995136 -1.04082 0
M  V30 2027 H 179.849 -0.667057 -4.16087 0
M  V30 2028 H 178.573 0.189439 -3.2605 0
M  V30 2029 H 177.232 -1.93789 -3.11193 0
M  V30 2030 H 176.88 -0.35665 -5.01734 0
M  V30 2031 H 176.58 -2.04224 -5.50968 0
M  V30 2032 H 178.104 -1.23679 -5.97943 0
M  V30 2033 H 179.518 -3.16559 -4.77978 0
M  V30 2034 H 177.915 -3.92059 -4.54324 0
M  V30 2035 H 178.985 -3.68729 -3.14908 0
M  V30 2036 N 180.328 1.1314 -1.09713 0
M  V30 2037 C 181.605 1.80762 -0.747302 0
M  V30 2038 C 181.985 1.96663 0.767265 0
M  V30 2039 O 181.333 1.53706 1.69076 0
M  V30 2040 C 181.543 3.15606 -1.48975 0
M  V30 2041 C 182.891 3.90914 -1.65746 0
M  V30 2042 O 183.915 3.25239 -1.45251 0
M  V30 2043 O 182.774 5.08718 -1.9967 0
M  V30 2044 H 179.868 0.782103 -0.268782 0
M  V30 2045 H 182.414 1.20041 -1.19951 0
M  V30 2046 H 181.186 2.99278 -2.52088 0
M  V30 2047 H 180.809 3.84029 -1.02991 0
M  V30 2048 N 181.806 0.884767 1.30421 0
M  V30 2049 C 182.716 0.355398 2.31892 0
M  V30 2050 C 183.732 -0.542261 1.65335 0
M  V30 2051 O 184.908 -0.435432 1.96637 0
M  V30 2052 C 181.973 -0.421661 3.44126 0
M  V30 2053 C 181.034 0.505727 4.26311 0
M  V30 2054 C 180.267 -0.234343 5.33185 0
M  V30 2055 O 180.49 -1.46045 5.51386 0
M  V30 2056 O 179.424 0.415443 6.00465 0
M  V30 2057 H 183.25 1.19685 2.79122 0
M  V30 2058 H 180.835 0.648596 1.34587 0
M  V30 2059 H 182.717 -0.861641 4.12497 0
M  V30 2060 H 181.392 -1.23942 2.99032 0
M  V30 2061 H 180.299 0.994513 3.60639 0
M  V30 2062 H 181.632 1.28948 4.75009 0
M  V30 2063 N 183.284 -1.43765 0.645699 0
M  V30 2064 C 184.231 -2.30745 -0.0504648 0
M  V30 2065 C 185.201 -1.4432 -0.822241 0
M  V30 2066 O 186.386 -1.73202 -0.800358 0
M  V30 2067 C 183.526 -3.29802 -1.0161 0
M  V30 2068 C 182.639 -4.31326 -0.241219 0
M  V30 2069 C 181.774 -5.17469 -1.19998 0
M  V30 2070 C 180.813 -6.10691 -0.415094 0
M  V30 2071 N 179.95 -6.89483 -1.32506 0
M  V30 2072 H 184.79 -2.8973 0.697155 0
M  V30 2073 H 182.327 -1.42738 0.355563 0
M  V30 2074 H 184.285 -3.85734 -1.58949 0
M  V30 2075 H 182.915 -2.72483 -1.73069 0
M  V30 2076 H 181.967 -3.77749 0.448334 0
M  V30 2077 H 183.279 -4.9743 0.369437 0
M  V30 2078 H 182.433 -5.7799 -1.84424 0
M  V30 2079 H 181.172 -4.51473 -1.84455 0
M  V30 2080 H 180.177 -5.49265 0.242565 0
M  V30 2081 H 181.402 -6.78727 0.224966 0
M  V30 2082 H 179.348 -6.26142 -1.95657 0
M  V30 2083 H 179.265 -7.52081 -0.768783 0
M  V30 2084 H 180.533 -7.54516 -1.9577 0
M  V30 2085 N 184.763 -0.387143 -1.52771 0
M  V30 2086 C 185.673 0.456442 -2.30117 0
M  V30 2087 C 186.689 1.07342 -1.36944 0
M  V30 2088 O 187.865 1.07971 -1.70013 0
M  V30 2089 C 184.93 1.56957 -3.09136 0
M  V30 2090 C 183.991 0.977916 -4.18014 0
M  V30 2091 C 183.224 2.038 -4.93256 0
M  V30 2092 O 183.447 3.25271 -4.68567 0
M  V30 2093 O 182.381 1.6565 -5.78657 0
M  V30 2094 H 186.207 -0.17359 -3.03203 0
M  V30 2095 H 183.792 -0.150919 -1.48636 0
M  V30 2096 H 185.674 2.21628 -3.58412 0
M  V30 2097 H 184.349 2.18461 -2.38865 0
M  V30 2098 H 183.256 0.294525 -3.72939 0
M  V30 2099 H 184.589 0.407128 -4.90513 0
M  V30 2100 N 186.241 1.57166 -0.116904 0
M  V30 2101 C 187.466 1.999 0.55271 0
M  V30 2102 C 187.891 0.996039 1.59564 0
M  V30 2103 O 187.249 -0.032556 1.81271 0
M  V30 2104 C 187.297 3.4152 1.15742 0
M  V30 2105 O 186.401 3.44106 2.27299 0
M  V30 2106 H 185.742 0.649447 0.138258 0
M  V30 2107 H 188.272 2.03573 -0.204759 0
M  V30 2108 H 188.282 3.79684 1.49346 0
M  V30 2109 H 186.957 4.14034 0.393493 0
M  V30 2110 H 185.534 3.17759 1.9515 0
M  V30 2111 N 187.719 -0.156864 1.56817 0
M  V30 2112 C 189.135 -0.50916 1.5126 0
M  V30 2113 C 189.335 -1.83897 0.823658 0
M  V30 2114 O 188.391 -2.49469 0.390055 0
M  V30 2115 C 189.704 -0.52857 2.96018 0
M  V30 2116 C 191.252 -0.614771 3.06903 0
M  V30 2117 C 191.727 -0.664938 4.53147 0
M  V30 2118 N 193.218 -0.727433 4.57452 0
M  V30 2119 C 193.953 -0.787067 5.67973 0
M  V30 2120 N 193.449 -0.806649 6.88088 0
M  V30 2121 N 195.242 -0.827195 5.5598 0
M  V30 2122 H 187.393 0.714935 2.00006 0
M  V30 2123 H 189.656 0.259526 0.911784 0
M  V30 2124 H 189.362 0.380154 3.49639 0
M  V30 2125 H 189.236 -1.36998 3.51442 0
M  V30 2126 H 191.623 -1.51392 2.53307 0
M  V30 2127 H 191.704 0.253597 2.5454 0
M  V30 2128 H 191.348 0.230011 5.07379 0
M  V30 2129 H 191.278 -1.54966 5.03282 0
M  V30 2130 H 193.769 -0.719998 3.70978 0
M  V30 2131 H 194.082 -0.853727 7.6807 0
M  V30 2132 H 192.427 -0.774687 6.90669 0
M  V30 2133 H 195.618 -0.808998 4.61056 0
M  V30 2134 H 195.791 -0.870206 6.4213 0
M  V30 2135 N 189.197 -1.51736 -0.425897 0
M  V30 2136 C 190.613 -1.40166 -0.76326 0
M  V30 2137 C 190.813 -0.492962 -1.95377 0
M  V30 2138 O 189.869 0.0475815 -2.52455 0
M  V30 2139 C 191.182 -2.82403 -1.03291 0
M  V30 2140 C 192.73 -2.91632 -1.13665 0
M  V30 2141 C 193.205 -4.34801 -1.43916 0
M  V30 2142 N 194.696 -4.3796 -1.50816 0
M  V30 2143 C 195.431 -5.4578 -1.75817 0
M  V30 2144 N 194.927 -6.63744 -1.98534 0
M  V30 2145 N 196.72 -5.33274 -1.77694 0
M  V30 2146 H 188.871 -2.09361 0.358 0
M  V30 2147 H 191.134 -0.942941 0.0978094 0
M  V30 2148 H 190.84 -3.50943 -0.230696 0
M  V30 2149 H 190.714 -3.22428 -1.95754 0
M  V30 2150 H 193.101 -2.23284 -1.92947 0
M  V30 2151 H 193.182 -2.55088 -0.190756 0
M  V30 2152 H 192.826 -5.03703 -0.65157 0
M  V30 2153 H 192.756 -4.68868 -2.39729 0
M  V30 2154 H 195.247 -3.52919 -1.35118 0
M  V30 2155 H 195.56 -7.41704 -2.17013 0
M  V30 2156 H 193.905 -6.66839 -1.95832 0
M  V30 2157 H 197.096 -4.40098 -1.59473 0
M  V30 2158 H 197.269 -6.1738 -1.9684 0
M  V30 2159 N 190.675 0.682077 -1.42076 0
M  V30 2160 C 191.605 1.80796 -1.47767 0
M  V30 2161 C 192.586 1.6677 -0.334954 0
M  V30 2162 O 193.771 1.863 -0.548264 0
M  V30 2163 C 190.901 3.19038 -1.37229 0
M  V30 2164 C 189.855 3.47789 -2.49453 0
M  V30 2165 C 189.181 4.8553 -2.23975 0
M  V30 2166 C 190.481 3.45411 -3.91776 0
M  V30 2167 H 192.175 1.7629 -2.41997 0
M  V30 2168 H 189.721 0.846721 -1.16476 0
M  V30 2169 H 191.674 3.97528 -1.39821 0
M  V30 2170 H 190.398 3.24204 -0.394907 0
M  V30 2171 H 189.057 2.71657 -2.46166 0
M  V30 2172 H 188.705 4.87337 -1.24547 0
M  V30 2173 H 188.405 5.0573 -2.99184 0
M  V30 2174 H 189.929 5.66312 -2.28304 0
M  V30 2175 H 191.343 4.13882 -3.96705 0
M  V30 2176 H 189.74 3.77145 -4.66778 0
M  V30 2177 H 190.81 2.44122 -4.18966 0
M  V30 2178 N 192.153 1.28127 0.917671 0
M  V30 2179 C 193.4 1.15052 1.66641 0
M  V30 2180 C 193.728 -0.301677 1.92146 0
M  V30 2181 O 192.983 -1.23622 1.51711 0
M  V30 2182 C 193.282 1.89018 3.03327 0
M  V30 2183 C 192.948 3.38832 2.97496 0
M  V30 2184 C 191.61 3.79693 2.95613 0
M  V30 2185 C 193.962 4.34378 2.88036 0
M  V30 2186 C 191.29 5.14447 2.82066 0
M  V30 2187 C 193.642 5.69201 2.7603 0
M  V30 2188 C 192.306 6.09343 2.72502 0
M  V30 2189 H 191.576 0.421006 0.609783 0
M  V30 2190 H 194.223 1.58855 1.06945 0
M  V30 2191 H 192.528 1.37752 3.66785 0
M  V30 2192 H 194.225 1.76321 3.60156 0
M  V30 2193 H 190.815 3.06342 2.99754 0
M  V30 2194 H 194.999 4.03775 2.88581 0
M  V30 2195 H 190.255 5.44681 2.77728 0
M  V30 2196 H 194.429 6.42901 2.67678 0
M  V30 2197 H 192.056 7.13712 2.61762 0
M  V30 2198 N 193.631 -1.12557 1.10312 0
M  V30 2199 C 194.563 -2.17971 0.708625 0
M  V30 2200 C 195.576 -1.60806 -0.254027 0
M  V30 2201 O 196.765 -1.78458 -0.0386891 0
M  V30 2202 C 193.865 -3.38891 0.0248198 0
M  V30 2203 C 193.038 -4.25548 1.01132 0
M  V30 2204 C 192.097 -5.24972 0.35924 0
M  V30 2205 O 191.123 -5.60174 1.00965 0
M  V30 2206 N 192.325 -5.73747 -0.882847 0
M  V30 2207 H 195.09 -2.52427 1.61557 0
M  V30 2208 H 192.651 -1.27967 0.991771 0
M  V30 2209 H 194.643 -4.02485 -0.422852 0
M  V30 2210 H 193.213 -3.02596 -0.784514 0
M  V30 2211 H 192.433 -3.58589 1.6373 0
M  V30 2212 H 193.721 -4.80294 1.67914 0
M  V30 2213 H 193.119 -5.4731 -1.43065 0
M  V30 2214 H 191.676 -6.39234 -1.27369 0
M  V30 2215 N 195.109 -0.891671 -1.2995 0
M  V30 2216 C 196.041 -0.320695 -2.26945 0
M  V30 2217 C 197.054 0.528497 -1.53983 0
M  V30 2218 O 198.243 0.346959 -1.75096 0
M  V30 2219 C 195.343 0.562066 -3.34207 0
M  V30 2220 C 194.516 -0.259576 -4.36629 0
M  V30 2221 C 193.575 0.554739 -5.23268 0
M  V30 2222 O 192.601 -0.0249311 -5.69195 0
M  V30 2223 N 193.803 1.8625 -5.4981 0
M  V30 2224 H 196.568 -1.15432 -2.76578 0
M  V30 2225 H 194.129 -0.755336 -1.432 0
M  V30 2226 H 196.121 1.11304 -3.89093 0
M  V30 2227 H 194.691 1.29637 -2.84452 0
M  V30 2228 H 193.911 -0.991986 -3.81514 0
M  V30 2229 H 195.199 -0.822564 -5.02107 0
M  V30 2230 H 194.597 2.35628 -5.14292 0
M  V30 2231 H 193.154 2.36078 -6.07545 0
M  V30 2232 N 196.587 1.43421 -0.653314 0
M  V30 2233 C 197.836 2.01032 -0.164076 0
M  V30 2234 C 198.149 1.52147 1.22926 0
M  V30 2235 O 199.355 2.02031 1.81371 0
M  V30 2236 C 197.811 3.59082 -0.24252 0
M  V30 2237 C 197.419 4.1696 -1.63855 0
M  V30 2238 C 199.163 4.24079 0.18911 0
M  V30 2239 C 197.07 5.67304 -1.67092 0
M  V30 2240 H 196 0.751798 -0.0575769 0
M  V30 2241 H 198.651 1.6439 -0.815362 0
M  V30 2242 H 197.033 3.93125 0.476276 0
M  V30 2243 H 198.207 3.94416 -2.38271 0
M  V30 2244 H 196.522 3.64335 -2.01616 0
M  V30 2245 H 199.119 5.34381 0.184775 0
M  V30 2246 H 199.462 3.98005 1.22056 0
M  V30 2247 H 199.995 3.94918 -0.477938 0
M  V30 2248 H 196.734 5.98145 -2.68146 0
M  V30 2249 H 196.254 5.91904 -0.970014 0
M  V30 2250 H 197.933 6.31344 -1.4147 0
M  V30 2251 N 198.065 0.39524 1.52563 0
M  V30 2252 C 198.995 -0.428384 2.29537 0
M  V30 2253 C 199.976 -1.05831 1.33169 0
M  V30 2254 O 201.161 -1.06995 1.62067 0
M  V30 2255 C 198.291 -1.55274 3.10656 0
M  V30 2256 C 197.245 -1.04855 4.14957 0
M  V30 2257 C 196.571 -2.26543 4.84337 0
M  V30 2258 C 197.871 -0.112324 5.22179 0
M  V30 2259 H 199.565 0.213867 2.98635 0
M  V30 2260 H 197.111 0.104298 1.43622 0
M  V30 2261 H 199.064 -2.1358 3.63265 0
M  V30 2262 H 197.788 -2.22266 2.39302 0
M  V30 2263 H 196.447 -0.487985 3.63338 0
M  V30 2264 H 196.095 -2.92059 4.09525 0
M  V30 2265 H 195.795 -1.93466 5.54837 0
M  V30 2266 H 197.319 -2.85481 5.39753 0
M  V30 2267 H 198.733 -0.603752 5.70112 0
M  V30 2268 H 197.13 0.128968 5.99961 0
M  V30 2269 H 198.2 0.837052 4.77621 0
M  V30 2270 N 199.544 -1.57102 0.125237 0
M  V30 2271 C 200.769 -2.0019 -0.542101 0
M  V30 2272 C 201.194 -1.00449 -1.59034 0
M  V30 2273 O 200.552 0.0229423 -1.81285 0
M  V30 2274 C 200.6 -3.42129 -1.13929 0
M  V30 2275 O 199.704 -3.45307 -2.2547 0
M  V30 2276 H 199.045 -0.650171 -0.134812 0
M  V30 2277 H 201.575 -2.03461 0.215553 0
M  V30 2278 H 201.585 -3.80471 -1.4733 0
M  V30 2279 H 200.26 -4.14237 -0.371531 0
M  V30 2280 H 198.837 -3.1879 -1.93462 0
M  V30 2281 N 201.022 0.148545 -1.56898 0
M  V30 2282 C 202.27 0.859717 -1.82902 0
M  V30 2283 C 202.591 1.81775 -0.70588 0
M  V30 2284 O 201.861 1.93994 0.272586 0
M  V30 2285 H 200.441 0.320469 -0.674766 0
M  V30 2286 H 203.103 0.142918 -1.94375 0
M  V30 2287 H 202.199 1.4229 -2.77777 0
M  V30 2288 N 202.5 1.5196 0.417844 0
M  V30 2289 C 203.746 1.65836 1.16732 0
M  V30 2290 C 204.079 0.382881 1.90388 0
M  V30 2291 O 203.354 -0.618368 1.84408 0
M  V30 2292 C 203.637 2.87466 2.16876 0
M  V30 2293 C 203.49 4.25041 1.47174 0
M  V30 2294 C 204.809 3.04613 3.17646 0
M  V30 2295 H 201.928 0.603515 0.423011 0
M  V30 2296 H 204.57 1.84494 0.454105 0
M  V30 2297 H 202.72 2.71689 2.777 0
M  V30 2298 H 204.392 4.52527 0.895376 0
M  V30 2299 H 202.635 4.26843 0.773806 0
M  V30 2300 H 203.306 5.06176 2.20204 0
M  V30 2301 H 205.782 3.1923 2.66892 0
M  V30 2302 H 204.658 3.91247 3.8499 0
M  V30 2303 H 204.919 2.17541 3.84874 0
M  V30 2304 N 203.978 -0.674533 1.42435 0
M  V30 2305 C 205.255 -1.4305 1.33402 0
M  V30 2306 C 205.635 -2.11081 -0.0284674 0
M  V30 2307 O 204.983 -2.03257 -1.04397 0
M  V30 2308 C 205.193 -2.43272 2.50239 0
M  V30 2309 C 206.541 -3.07907 2.92367 0
M  V30 2310 O 207.565 -2.53599 2.50132 0
M  V30 2311 O 206.424 -4.0632 3.65467 0
M  V30 2312 H 203.518 -0.638076 0.526106 0
M  V30 2313 H 206.064 -0.703235 1.54443 0
M  V30 2314 H 204.836 -1.91803 3.41068 0
M  V30 2315 H 204.459 -3.23479 2.31186 0
M  V30 2316 N 205.456 -1.28612 -0.910864 0
M  V30 2317 C 206.686 -1.1862 -1.69153 0
M  V30 2318 C 207.094 0.257324 -1.87442 0
M  V30 2319 O 206.437 1.18543 -1.40332 0
M  V30 2320 C 206.499 -1.81606 -3.10257 0
M  V30 2321 C 206.163 -3.30864 -3.15243 0
M  V30 2322 C 207.16 -4.27256 -2.96223 0
M  V30 2323 C 204.845 -3.71871 -3.37664 0
M  V30 2324 C 206.839 -5.62631 -2.99541 0
M  V30 2325 C 204.526 -5.07371 -3.40614 0
M  V30 2326 C 205.524 -6.02561 -3.21573 0
M  V30 2327 O 205.212 -7.35589 -3.2429 0
M  V30 2328 H 204.944 -0.412633 -0.535453 0
M  V30 2329 H 207.498 -1.70306 -1.14827 0
M  V30 2330 H 205.728 -1.24418 -3.66138 0
M  V30 2331 H 207.417 -1.66092 -3.70362 0
M  V30 2332 H 208.183 -3.9691 -2.78725 0
M  V30 2333 H 204.062 -2.98241 -3.5153 0
M  V30 2334 H 207.606 -6.36907 -2.84597 0
M  V30 2335 H 203.503 -5.37366 -3.57642 0
M  V30 2336 H 204.271 -7.44252 -3.40633 0
M  V30 2337 N 206.934 1.1197 -1.10907 0
M  V30 2338 C 208.174 1.85224 -0.864378 0
M  V30 2339 C 208.538 1.82411 0.599178 0
M  V30 2340 O 209.739 2.51057 0.960416 0
M  V30 2341 C 208.01 3.2868 -1.40371 0
M  V30 2342 S 209.569 4.1925 -1.29518 0
M  V30 2343 H 206.387 0.63878 -0.312219 0
M  V30 2344 H 208.989 1.3485 -1.41548 0
M  V30 2345 H 207.693 3.28289 -2.46281 0
M  V30 2346 H 207.224 3.84121 -0.849402 0
M  V30 2347 H 209.239 4.95539 -0.256059 0
M  V30 2348 N 208.412 0.89855 1.29475 0
M  V30 2349 C 209.362 0.346767 2.25348 0
M  V30 2350 C 210.346 -0.532509 1.51833 0
M  V30 2351 O 211.538 -0.374714 1.72988 0
M  V30 2352 C 208.667 -0.425681 3.40651 0
M  V30 2353 C 207.753 0.46845 4.21505 0
M  V30 2354 N 208.144 1.57514 4.80648 0
M  V30 2355 C 206.442 0.26603 4.45206 0
M  V30 2356 C 207.143 2.12889 5.41344 0
M  V30 2357 N 206.119 1.42208 5.24669 0
M  V30 2358 H 209.921 1.19219 2.68634 0
M  V30 2359 H 207.435 0.749473 1.44072 0
M  V30 2360 H 209.432 -0.837716 4.08397 0
M  V30 2361 H 208.092 -1.26838 2.98902 0
M  V30 2362 H 209.103 1.95789 4.79465 0
M  V30 2363 H 205.78 -0.538394 4.14014 0
M  V30 2364 H 207.17 3.05901 5.98226 0
M  V30 2365 N 209.89 -1.43072 0.660911 0
M  V30 2366 C 211.306 -1.56169 0.329173 0
M  V30 2367 C 211.506 -1.64317 -1.16629 0
M  V30 2368 O 210.562 -1.60245 -1.95135 0
M  V30 2369 C 211.875 -2.81873 1.04729 0
M  V30 2370 C 213.423 -2.95627 1.02828 0
M  V30 2371 C 213.898 -4.24174 1.72744 0
M  V30 2372 N 215.389 -4.31055 1.69545 0
M  V30 2373 C 216.124 -5.29304 2.20511 0
M  V30 2374 N 215.62 -6.33786 2.79799 0
M  V30 2375 N 217.413 -5.21008 2.10966 0
M  V30 2376 H 209.564 -1.36027 1.63127 0
M  V30 2377 H 211.827 -0.653823 0.686454 0
M  V30 2378 H 211.533 -2.81942 2.10242 0
M  V30 2379 H 211.407 -3.72338 0.603702 0
M  V30 2380 H 213.794 -2.95094 -0.0184742 0
M  V30 2381 H 213.875 -2.06431 1.51063 0
M  V30 2382 H 213.519 -4.25467 2.7738 0
M  V30 2383 H 213.449 -5.1228 1.2197 0
M  V30 2384 H 215.94 -3.56174 1.26288 0
M  V30 2385 H 216.253 -7.05086 3.16344 0
M  V30 2386 H 214.598 -6.34387 2.83863 0
M  V30 2387 H 217.789 -4.38301 1.64347 0
M  V30 2388 H 217.962 -5.97416 2.50993 0
M  V30 2389 N 211.368 -0.403325 -1.52352 0
M  V30 2390 C 212.318 0.442244 -2.2367 0
M  V30 2391 C 213.302 1.01823 -1.24583 0
M  V30 2392 O 214.494 0.942005 -1.49851 0
M  V30 2393 C 211.623 1.5615 -3.05732 0
M  V30 2394 C 210.709 0.996575 -4.12225 0
M  V30 2395 N 211.1 0.157804 -5.05554 0
M  V30 2396 C 209.398 1.26767 -4.27605 0
M  V30 2397 C 210.099 -0.155853 -5.81491 0
M  V30 2398 N 209.075 0.451775 -5.41719 0
M  V30 2399 H 212.877 -0.204964 -2.93184 0
M  V30 2400 H 210.391 -0.213418 -1.60992 0
M  V30 2401 H 212.388 2.17981 -3.55373 0
M  V30 2402 H 211.048 2.21139 -2.37755 0
M  V30 2403 H 212.059 -0.206049 -5.1749 0
M  V30 2404 H 208.736 1.91757 -3.70858 0
M  V30 2405 H 210.126 -0.836329 -6.66675 0
M  V30 2406 N 212.846 1.57033 -0.133567 0
M  V30 2407 C 213.779 2.11824 0.848872 0
M  V30 2408 C 214.757 1.03833 1.2513 0
M  V30 2409 O 215.941 1.31579 1.34978 0
M  V30 2410 C 213.068 2.62692 2.138 0
M  V30 2411 C 212.114 3.82705 1.88253 0
M  V30 2412 S 212.947 5.2438 1.08563 0
M  V30 2413 C 214.103 5.78627 2.38624 0
M  V30 2414 H 214.336 2.94824 0.38289 0
M  V30 2415 H 211.869 1.5419 0.0804796 0
M  V30 2416 H 213.827 2.92652 2.87863 0
M  V30 2417 H 212.488 1.79847 2.57515 0
M  V30 2418 H 211.681 4.16496 2.83809 0
M  V30 2419 H 211.283 3.53437 1.22305 0
M  V30 2420 H 213.575 5.8924 3.34369 0
M  V30 2421 H 214.518 6.76443 2.09358 0
M  V30 2422 H 214.926 5.06783 2.48658 0
M  V30 2423 N 214.325 -0.140222 1.56975 0
M  V30 2424 C 215.571 -0.852949 1.83991 0
M  V30 2425 C 215.904 -1.80512 0.716187 0
M  V30 2426 O 215.179 -1.92479 -0.279681 0
M  V30 2427 C 215.462 -1.6215 3.21527 0
M  V30 2428 C 215.315 -0.690363 4.4447 0
M  V30 2429 C 216.634 -2.58247 3.56366 0
M  V30 2430 H 213.753 -0.308634 0.669264 0
M  V30 2431 H 216.395 -0.117898 1.89634 0
M  V30 2432 H 214.545 -2.24812 3.16847 0
M  V30 2433 H 216.217 -0.0742264 4.6124 0
M  V30 2434 H 214.46 -0.000396433 4.338 0
M  V30 2435 H 215.131 -1.2643 5.37326 0
M  V30 2436 H 217.607 -2.05701 3.61699 0
M  V30 2437 H 216.483 -3.09067 4.53617 0
M  V30 2438 H 216.744 -3.39923 2.82674 0
M  V30 2439 N 215.803 -1.52179 -0.40978 0
M  V30 2440 C 217.049 -1.66453 -1.15851 0
M  V30 2441 C 217.382 -0.392972 -1.90182 0
M  V30 2442 O 216.657 0.608579 -1.84734 0
M  V30 2443 C 216.94 -2.88612 -2.15349 0
M  V30 2444 C 216.793 -4.25815 -1.44918 0
M  V30 2445 C 218.112 -3.06294 -3.16026 0
M  V30 2446 H 215.231 -0.60575 -0.419805 0
M  V30 2447 H 217.873 -1.84732 -0.444314 0
M  V30 2448 H 216.023 -2.73158 -2.76255 0
M  V30 2449 H 217.695 -4.52995 -0.871365 0
M  V30 2450 H 215.938 -4.27247 -0.751159 0
M  V30 2451 H 216.609 -5.07337 -2.17516 0
M  V30 2452 H 219.085 -3.20641 -2.65195 0
M  V30 2453 H 217.961 -3.93283 -3.8291 0
M  V30 2454 H 218.222 -2.19579 -3.83715 0
M  V30 2455 N 217.281 0.66697 -1.42791 0
M  V30 2456 C 218.231 1.77313 -1.43332 0
M  V30 2457 C 219.215 1.5801 -0.303586 0
M  V30 2458 O 220.407 1.68356 -0.546385 0
M  V30 2459 C 217.536 3.15822 -1.34578 0
M  V30 2460 C 216.622 3.40721 -2.52528 0
M  V30 2461 N 217.013 3.36162 -3.77927 0
M  V30 2462 C 215.311 3.71387 -2.46956 0
M  V30 2463 C 216.012 3.60762 -4.56318 0
M  V30 2464 N 214.988 3.81908 -3.86843 0
M  V30 2465 H 218.79 1.72193 -2.38174 0
M  V30 2466 H 216.304 0.868114 -1.3725 0
M  V30 2467 H 218.301 3.951 -1.33048 0
M  V30 2468 H 216.961 3.22133 -0.407453 0
M  V30 2469 H 217.972 3.15885 -4.10411 0
M  V30 2470 H 214.649 3.84897 -1.61743 0
M  V30 2471 H 216.039 3.63132 -5.65318 0
M  V30 2472 N 218.759 1.29093 0.90403 0
M  V30 2473 C 220.175 1.07011 1.1841 0
M  V30 2474 C 220.375 -0.181358 2.00682 0
M  V30 2475 O 219.431 -0.880331 2.36657 0
M  V30 2476 C 220.744 2.32311 1.90924 0
M  V30 2477 C 222.292 2.37587 2.03768 0
M  V30 2478 C 222.767 3.62679 2.79693 0
M  V30 2479 N 224.258 3.63376 2.87249 0
M  V30 2480 C 224.993 4.56848 3.46522 0
M  V30 2481 N 224.489 5.60648 4.06996 0
M  V30 2482 N 226.282 4.44426 3.44154 0
M  V30 2483 H 218.433 2.09412 0.354993 0
M  V30 2484 H 220.696 0.922181 0.219742 0
M  V30 2485 H 220.402 3.23536 1.37905 0
M  V30 2486 H 220.276 2.39483 2.91424 0
M  V30 2487 H 222.663 1.46853 2.55965 0
M  V30 2488 H 222.744 2.34403 1.02415 0
M  V30 2489 H 222.388 4.53762 2.28173 0
M  V30 2490 H 222.318 3.63119 3.81381 0
M  V30 2491 H 224.809 2.88321 2.44293 0
M  V30 2492 H 225.122 6.28101 4.50232 0
M  V30 2493 H 223.467 5.64463 4.05471 0
M  V30 2494 H 226.658 3.62529 2.96126 0
M  V30 2495 H 226.831 5.17457 3.90054 0
M  V30 2496 N 220.237 -1.11381 1.11499 0
M  V30 2497 C 221.514 -1.7955 0.775965 0
M  V30 2498 C 221.894 -1.97859 -0.73588 0
M  V30 2499 O 221.242 -1.56376 -1.66609 0
M  V30 2500 C 221.452 -3.13196 1.53977 0
M  V30 2501 C 222.8 -3.88227 1.71944 0
M  V30 2502 O 223.824 -3.22887 1.50407 0
M  V30 2503 O 222.683 -5.05477 2.07738 0
M  V30 2504 H 219.777 -0.777728 0.28119 0
M  V30 2505 H 222.323 -1.18118 1.21845 0
M  V30 2506 H 221.095 -2.95229 2.56818 0
M  V30 2507 H 220.718 -3.82342 1.09088 0
M  V30 2508 N 221.715 -0.905404 -1.28997 0
M  V30 2509 C 222.645 -0.404212 -2.29975 0
M  V30 2510 C 223.626 0.523784 -1.61835 0
M  V30 2511 O 224.811 0.433298 -1.89304 0
M  V30 2512 C 221.941 0.364042 -3.45387 0
M  V30 2513 C 220.895 -0.474048 -4.25367 0
M  V30 2514 C 220.221 0.422045 -5.33032 0
M  V30 2515 C 221.521 -1.72696 -4.92923 0
M  V30 2516 H 223.215 -1.24807 -2.72146 0
M  V30 2517 H 220.761 -0.601585 -1.30832 0
M  V30 2518 H 222.714 0.725447 -4.15109 0
M  V30 2519 H 221.438 1.24174 -3.02074 0
M  V30 2520 H 220.097 -0.81786 -3.57361 0
M  V30 2521 H 219.745 1.29804 -4.85963 0
M  V30 2522 H 219.445 -0.135057 -5.87445 0
M  V30 2523 H 220.969 0.779517 -6.05604 0
M  V30 2524 H 222.383 -1.43495 -5.55051 0
M  V30 2525 H 220.78 -2.22582 -5.57295 0
M  V30 2526 H 221.85 -2.45964 -4.17887 0
M  V30 2527 N 223.193 1.4272 -0.668489 0
M  V30 2528 C 224.14 2.30796 0.0137489 0
M  V30 2529 C 225.11 1.4561 0.799177 0
M  V30 2530 O 226.295 1.74453 0.772702 0
M  V30 2531 C 223.435 3.31377 0.963507 0
M  V30 2532 C 222.548 4.31655 0.172569 0
M  V30 2533 C 221.683 5.19312 1.1175 0
M  V30 2534 C 220.722 6.11274 0.317886 0
M  V30 2535 N 219.859 6.91504 1.2152 0
M  V30 2536 H 224.699 2.88585 -0.743161 0
M  V30 2537 H 222.236 1.42154 -0.378226 0
M  V30 2538 H 224.194 3.88214 1.52792 0
M  V30 2539 H 222.824 2.75202 1.68712 0
M  V30 2540 H 221.876 3.76988 -0.508374 0
M  V30 2541 H 223.188 4.96779 -0.448527 0
M  V30 2542 H 222.342 5.80851 1.75206 0
M  V30 2543 H 221.081 4.5435 1.77249 0
M  V30 2544 H 220.086 5.48809 -0.329918 0
M  V30 2545 H 221.311 6.78283 -0.332917 0
M  V30 2546 H 219.257 6.29176 1.85671 0
M  V30 2547 H 219.174 7.53209 0.649036 0
M  V30 2548 H 220.442 7.57535 1.83742 0
M  V30 2549 N 224.671 0.411399 1.52136 0
M  V30 2550 C 226.082 -0.0576826 1.86611 0
M  V30 2551 C 226.433 -1.44238 1.33003 0
M  V30 2552 O 225.558 -2.05759 0.670228 0
M  V30 2553 C 226.153 -0.111448 3.38617 0
M  V30 2554 C 224.712 -0.52487 3.72723 0
M  V30 2555 C 223.859 0.299176 2.75681 0
M  V30 2556 H 226.81 0.628368 1.4573 0
M  V30 2557 H 226.831 -0.926252 3.69054 0
M  V30 2558 H 226.343 0.896488 3.77604 0
M  V30 2559 H 224.444 -1.53936 3.39315 0
M  V30 2560 H 224.557 -0.267681 4.78352 0
M  V30 2561 H 222.921 -0.238814 2.53578 0
M  V30 2562 H 223.704 1.3055 3.17508 0
M  V30 2563 N 226.149 -1.5696 0.141893 0
M  V30 2564 C 227.059 -2.20066 -0.812905 0
M  V30 2565 C 228.075 -1.18344 -1.27557 0
M  V30 2566 O 229.251 -1.50902 -1.33381 0
M  V30 2567 C 226.316 -2.80583 -2.03652 0
M  V30 2568 C 225.377 -3.97414 -1.62359 0
M  V30 2569 C 224.61 -4.55036 -2.78887 0
M  V30 2570 O 224.833 -4.11538 -3.94959 0
M  V30 2571 O 223.767 -5.45376 -2.54653 0
M  V30 2572 H 227.593 -3.02157 -0.305746 0
M  V30 2573 H 225.178 -1.49159 -0.0848799 0
M  V30 2574 H 227.06 -3.19067 -2.75272 0
M  V30 2575 H 225.735 -2.01508 -2.5333 0
M  V30 2576 H 224.642 -3.63656 -0.877775 0
M  V30 2577 H 225.975 -4.77994 -1.17401 0
M  V30 2578 N 227.627 0.131896 -1.57047 0
M  V30 2579 C 228.575 1.18146 -2.0036 0
M  V30 2580 C 229.569 1.43614 -0.898406 0
M  V30 2581 O 230.775 1.43729 -1.08361 0
M  V30 2582 H 227.15 0.398042 -0.638018 0
M  V30 2583 H 229.121 0.789564 -2.87765 0
M  V30 2584 C 227.87 2.50341 -2.41298 0
M  V30 2585 H 227.193 2.31578 -3.25902 0
M  V30 2586 H 228.633 3.22371 -2.75414 0
M  V30 2587 C 227.092 3.11984 -1.27153 0
M  V30 2588 O 227.622 3.97484 -0.580459 0
M  V30 2589 N 225.828 2.71662 -1.03189 0
M  V30 2590 H 225.375 2.02231 -1.59564 0
M  V30 2591 H 225.333 3.13238 -0.270077 0
M  V30 2592 N 229.106 1.52395 0.401703 0
M  V30 2593 C 230.352 1.67065 1.14966 0
M  V30 2594 C 230.685 0.403052 1.89971 0
M  V30 2595 O 229.96 -0.598774 1.85054 0
M  V30 2596 C 230.243 2.8975 2.13815 0
M  V30 2597 C 230.096 4.26578 1.42658 0
M  V30 2598 C 231.415 3.07965 3.14397 0
M  V30 2599 H 228.534 0.607968 0.416587 0
M  V30 2600 H 231.176 1.84965 0.434511 0
M  V30 2601 H 229.326 2.74619 2.74803 0
M  V30 2602 H 230.998 4.53451 0.847329 0
M  V30 2603 H 229.241 4.27639 0.72849 0
M  V30 2604 H 229.912 5.08483 2.14823 0
M  V30 2605 H 232.388 3.22043 2.63491 0
M  V30 2606 H 231.264 3.95308 3.80819 0
M  V30 2607 H 231.525 2.21611 3.82545 0
M  V30 2608 N 230.584 -0.659388 1.43143 0
M  V30 2609 C 231.514 -1.78422 1.50625 0
M  V30 2610 C 232.495 -1.66216 0.361443 0
M  V30 2611 O 233.68 -1.85404 0.577834 0
M  V30 2612 C 230.81 -3.16815 1.42287 0
M  V30 2613 C 229.764 -3.43777 2.54954 0
M  V30 2614 C 229.09 -4.81905 2.31671 0
M  V30 2615 C 230.39 -3.39134 3.97222 0
M  V30 2616 H 232.084 -1.72417 2.44771 0
M  V30 2617 H 229.63 -0.828084 1.17808 0
M  V30 2618 H 231.583 -3.95253 1.46127 0
M  V30 2619 H 230.307 -3.23534 0.446435 0
M  V30 2620 H 228.966 -2.67707 2.50457 0
M  V30 2621 H 228.614 -4.85294 1.32284 0
M  V30 2622 H 228.314 -5.00906 3.07192 0
M  V30 2623 H 229.838 -5.62609 2.37284 0
M  V30 2624 H 231.252 -4.07518 4.03239 0
M  V30 2625 H 229.649 -3.69671 4.72719 0
M  V30 2626 H 230.719 -2.37426 4.22797 0
M  V30 2627 N 232.062 -1.29571 -0.897171 0
M  V30 2628 C 232.992 -1.17473 -2.01798 0
M  V30 2629 C 233.973 -0.068323 -1.69963 0
M  V30 2630 O 235.158 -0.248239 -1.92607 0
M  V30 2631 C 232.288 -0.853099 -3.36659 0
M  V30 2632 C 231.242 -1.9161 -3.82713 0
M  V30 2633 C 230.568 -1.44773 -5.14728 0
M  V30 2634 C 231.868 -3.32535 -4.02763 0
M  V30 2635 H 233.562 -2.11237 -2.12177 0
M  V30 2636 H 231.108 -1.01699 -1.01948 0
M  V30 2637 H 233.061 -0.755165 -4.14578 0
M  V30 2638 H 231.785 0.120236 -3.26379 0
M  V30 2639 H 230.444 -2.00346 -3.07013 0
M  V30 2640 H 230.092 -0.462995 -5.00865 0
M  V30 2641 H 229.792 -2.15865 -5.46513 0
M  V30 2642 H 231.316 -1.36334 -5.95185 0
M  V30 2643 H 232.73 -3.26626 -4.71156 0
M  V30 2644 H 231.127 -4.01607 -4.45905 0
M  V30 2645 H 232.197 -3.75326 -3.07016 0
M  V30 2646 N 233.54 1.10788 -1.12088 0
M  V30 2647 C 234.817 1.79136 -0.785476 0
M  V30 2648 C 235.197 1.98246 0.725377 0
M  V30 2649 O 234.545 1.57258 1.65778 0
M  V30 2650 C 234.755 3.12375 -1.55636 0
M  V30 2651 C 236.103 3.8731 -1.74001 0
M  V30 2652 O 237.127 3.22085 -1.52117 0
M  V30 2653 O 235.986 5.04369 -2.10415 0
M  V30 2654 H 233.08 0.776226 -0.285311 0
M  V30 2655 H 235.626 1.1747 -1.2247 0
M  V30 2656 H 234.398 2.93863 -2.5838 0
M  V30 2657 H 234.021 3.81758 -1.11114 0
M  V30 2658 N 235.018 0.912232 1.28515 0
M  V30 2659 C 235.981 0.404223 2.25607 0
M  V30 2660 C 236.981 -0.468602 1.53821 0
M  V30 2661 O 238.171 -0.271873 1.72065 0
M  V30 2662 C 235.303 -0.420653 3.38295 0
M  V30 2663 H 236.496 1.26188 2.7206 0
M  V30 2664 H 234.049 0.691495 1.40171 0
M  V30 2665 H 234.784 -1.29777 2.97201 0
M  V30 2666 H 234.569 0.204935 3.91564 0
M  V30 2667 H 236.059 -0.766971 4.10496 0
M  V30 2668 N 236.496 -1.42363 0.676048 0
M  V30 2669 C 237.446 -2.27987 -0.0242903 0
M  V30 2670 C 238.43 -1.41153 -0.772319 0
M  V30 2671 O 239.622 -1.64592 -0.651025 0
M  V30 2672 C 236.751 -3.29195 -0.973953 0
M  V30 2673 C 235.837 -4.23512 -0.223202 0
M  V30 2674 N 236.228 -4.99865 0.772589 0
M  V30 2675 C 234.526 -4.43606 -0.461469 0
M  V30 2676 C 235.227 -5.68757 1.22027 0
M  V30 2677 N 234.203 -5.40811 0.549975 0
M  V30 2678 H 238.005 -2.84445 0.73949 0
M  V30 2679 H 235.519 -1.54341 0.50522 0
M  V30 2680 H 237.516 -3.89339 -1.49067 0
M  V30 2681 H 236.176 -2.74298 -1.73755 0
M  V30 2682 H 237.187 -5.04921 1.15217 0
M  V30 2683 H 233.864 -3.99749 -1.20446 0
M  V30 2684 H 235.254 -6.40007 2.0455 0
M  V30 2685 N 237.974 -0.419461 -1.51915 0
M  V30 2686 C 238.907 0.445751 -2.23804 0
M  V30 2687 C 239.885 1.03951 -1.25031 0
M  V30 2688 O 241.069 1.08541 -1.54114 0
M  V30 2689 C 238.196 1.61964 -2.97465 0
M  V30 2690 C 237.242 1.14828 -4.10751 0
M  V30 2691 S 238.075 0.104938 -5.35397 0
M  V30 2692 C 239.231 1.28391 -6.1259 0
M  V30 2693 H 239.464 -0.164627 -2.96844 0
M  V30 2694 H 236.997 -0.203833 -1.53049 0
M  V30 2695 H 238.955 2.29271 -3.40507 0
M  V30 2696 H 237.616 2.20139 -2.24048 0
M  V30 2697 H 236.809 2.02561 -4.61503 0
M  V30 2698 H 236.411 0.553712 -3.69878 0
M  V30 2699 H 238.703 2.20563 -6.40592 0
M  V30 2700 H 239.646 0.816724 -7.03374 0
M  V30 2701 H 240.054 1.51439 -5.43807 0
M  V30 2702 N 239.452 1.56882 -0.150215 0
M  V30 2703 C 240.4 2.18214 0.805313 0
M  V30 2704 C 241.394 1.14006 1.25296 0
M  V30 2705 O 242.6 1.3225 1.22107 0
M  V30 2706 H 238.975 0.698762 0.277913 0
M  V30 2707 H 240.946 2.97231 0.263862 0
M  V30 2708 C 239.695 2.82065 2.03309 0
M  V30 2709 H 239.018 3.61968 1.69763 0
M  V30 2710 H 240.458 3.28477 2.68103 0
M  V30 2711 C 238.917 1.80739 2.84315 0
M  V30 2712 O 239.447 1.27983 3.80767 0
M  V30 2713 N 237.653 1.4997 2.48913 0
M  V30 2714 H 237.2 1.93062 1.70542 0
M  V30 2715 H 237.158 0.824217 3.03404 0
M  V30 2716 N 240.93 -0.123565 1.57115 0
M  V30 2717 C 241.893 -1.13583 1.99076 0
M  V30 2718 C 242.893 -1.34564 0.880296 0
M  V30 2719 O 244.083 -1.31158 1.14644 0
M  V30 2720 C 241.215 -2.49128 2.32698 0
M  V30 2721 H 242.408 -0.775287 2.89706 0
M  V30 2722 H 239.961 -0.36771 1.51913 0
M  V30 2723 H 240.696 -2.90111 1.44934 0
M  V30 2724 H 240.481 -2.35255 3.13684 0
M  V30 2725 H 241.971 -3.2199 2.65918 0
M  V30 2726 N 242.408 -1.52605 -0.393616 0
M  V30 2727 C 243.355 -1.77055 -1.48054 0
M  V30 2728 C 244.325 -0.61358 -1.54352 0
M  V30 2729 O 245.51 -0.852806 -1.70681 0
M  V30 2730 C 242.65 -1.94108 -2.85335 0
M  V30 2731 C 241.763 -3.21792 -2.88226 0
M  V30 2732 C 240.898 -3.29188 -4.16904 0
M  V30 2733 C 239.937 -4.51013 -4.13828 0
M  V30 2734 N 239.074 -4.55716 -5.34105 0
M  V30 2735 H 243.914 -2.69815 -1.26506 0
M  V30 2736 H 241.451 -1.33683 -0.61379 0
M  V30 2737 H 243.409 -2.01979 -3.65049 0
M  V30 2738 H 242.039 -1.04713 -3.05344 0
M  V30 2739 H 241.091 -3.23015 -2.00911 0
M  V30 2740 H 242.403 -4.11557 -2.8182 0
M  V30 2741 H 241.557 -3.36216 -5.05018 0
M  V30 2742 H 240.296 -2.37389 -4.26026 0
M  V30 2743 H 239.301 -4.44115 -3.24102 0
M  V30 2744 H 240.526 -5.44123 -4.06333 0
M  V30 2745 H 238.472 -3.66807 -5.43865 0
M  V30 2746 H 238.389 -5.39346 -5.29756 0
M  V30 2747 H 239.657 -4.66993 -6.2413 0
M  V30 2748 N 243.887 0.651787 -1.4349 0
M  V30 2749 C 245.136 1.40754 -1.44469 0
M  V30 2750 C 245.449 1.95463 -0.0731845 0
M  V30 2751 O 246.655 2.71471 0.0395721 0
M  V30 2752 C 245.111 2.54735 -2.5424 0
M  V30 2753 C 244.719 2.06628 -3.97504 0
M  V30 2754 C 246.463 3.32092 -2.64414 0
M  V30 2755 C 244.37 3.17829 -4.98737 0
M  V30 2756 H 243.3 0.528862 -0.53742 0
M  V30 2757 H 245.951 0.703365 -1.69485 0
M  V30 2758 H 244.333 3.2763 -2.22428 0
M  V30 2759 H 245.507 1.40734 -4.38783 0
M  V30 2760 H 243.822 1.42146 -3.91387 0
M  V30 2761 H 246.419 4.14952 -3.37223 0
M  V30 2762 H 246.762 3.80217 -1.69532 0
M  V30 2763 H 247.295 2.66279 -2.95534 0
M  V30 2764 H 244.034 2.74671 -5.95177 0
M  V30 2765 H 243.554 3.82429 -4.62069 0
M  V30 2766 H 245.233 3.82937 -5.21505 0
M  V30 2767 N 245.365 1.30045 0.890287 0
M  V30 2768 C 246.328 1.15963 1.977 0
M  V30 2769 C 247.328 0.0923777 1.60534 0
M  V30 2770 O 248.518 0.340071 1.70848 0
M  V30 2771 C 245.65 0.775451 3.31963 0
M  V30 2772 H 246.843 2.12502 2.11619 0
M  V30 2773 H 244.396 1.13366 1.07601 0
M  V30 2774 H 245.131 -0.189671 3.23745 0
M  V30 2775 H 244.916 1.54668 3.60306 0
M  V30 2776 H 246.406 0.700251 4.11687 0
M  V30 2777 N 246.843 -1.10192 1.12674 0
M  V30 2778 C 248.12 -1.78717 0.794965 0
M  V30 2779 C 248.5 -1.98628 -0.714853 0
M  V30 2780 O 247.848 -1.58135 -1.64941 0
M  V30 2781 C 248.058 -3.11546 1.5729 0
M  V30 2782 C 249.406 -3.86382 1.76052 0
M  V30 2783 O 250.43 -3.21274 1.53823 0
M  V30 2784 O 249.289 -5.03246 2.13087 0
M  V30 2785 H 246.383 -0.774702 0.289423 0
M  V30 2786 H 248.929 -1.16819 1.23091 0
M  V30 2787 H 247.701 -2.92489 2.59935 0
M  V30 2788 H 247.324 -3.81164 1.13137 0
M  V30 2789 N 248.321 -0.919034 -1.28029 0
M  V30 2790 C 249.568 -0.554934 -1.94748 0
M  V30 2791 C 249.896 0.90231 -1.72304 0
M  V30 2792 O 249.151 1.65767 -1.04018 0
M  V30 2793 C 249.45 -0.816855 -3.4794 0
M  V30 2794 C 249.116 -2.25448 -3.90492 0
M  V30 2795 C 247.778 -2.64752 -4.01821 0
M  V30 2796 C 250.13 -3.18977 -4.12193 0
M  V30 2797 C 247.458 -3.96727 -4.32232 0
M  V30 2798 C 249.81 -4.50523 -4.44086 0
M  V30 2799 C 248.474 -4.89673 -4.53626 0
M  V30 2800 H 247.744 -0.203065 -0.712633 0
M  V30 2801 H 250.391 -1.16136 -1.52265 0
M  V30 2802 H 248.696 -0.127677 -3.91592 0
M  V30 2803 H 250.393 -0.514238 -3.97689 0
M  V30 2804 H 246.983 -1.93952 -3.82205 0
M  V30 2805 H 251.167 -2.89817 -4.02889 0
M  V30 2806 H 246.423 -4.26754 -4.37825 0
M  V30 2807 H 250.597 -5.23005 -4.59825 0
M  V30 2808 H 248.224 -5.91969 -4.76946 0
M  V30 2809 N 249.799 1.42003 -0.683588 0
M  V30 2810 C 251.047 2.01015 -0.209101 0
M  V30 2811 C 251.368 1.54365 1.19149 0
M  V30 2812 O 250.638 0.769083 1.80172 0
M  V30 2813 H 249.218 0.743294 -0.074315 0
M  V30 2814 H 251.88 1.73798 -0.882066 0
M  V30 2815 H 250.976 3.11343 -0.2172 0
M  V30 2816 N 251.277 0.427512 1.51691 0
M  V30 2817 C 252.207 -0.3796 2.30394 0
M  V30 2818 C 253.188 -1.02982 1.35384 0
M  V30 2819 O 254.373 -1.03534 1.643 0
M  V30 2820 C 251.503 -1.48649 3.1388 0
M  V30 2821 C 250.457 -0.960294 4.17088 0
M  V30 2822 C 249.783 -2.16219 4.89033 0
M  V30 2823 C 251.083 -0.00153679 5.223 0
M  V30 2824 H 252.777 0.277164 2.98114 0
M  V30 2825 H 250.323 0.134739 1.43368 0
M  V30 2826 H 252.276 -2.05826 3.67714 0
M  V30 2827 H 251 -2.1714 2.43962 0
M  V30 2828 H 249.659 -0.410806 3.64291 0
M  V30 2829 H 249.307 -2.83307 4.15628 0
M  V30 2830 H 249.007 -1.81654 5.58816 0
M  V30 2831 H 250.531 -2.73968 5.45687 0
M  V30 2832 H 251.945 -0.482687 5.71264 0
M  V30 2833 H 250.342 0.256199 5.99553 0
M  V30 2834 H 251.412 0.938174 4.75738 0
M  V30 2835 N 252.755 -1.56801 0.158532 0
M  V30 2836 C 253.98 -2.01295 -0.499516 0
M  V30 2837 C 254.405 -1.03799 -1.56867 0
M  V30 2838 O 253.763 -0.0155162 -1.81293 0
M  V30 2839 C 253.811 -3.44469 -1.06647 0
M  V30 2840 O 252.915 -3.50012 -2.18095 0
M  V30 2841 H 252.256 -0.652884 -0.12099 0
M  V30 2842 H 254.786 -2.02958 0.258661 0
M  V30 2843 H 254.796 -3.8351 -1.39227 0
M  V30 2844 H 253.471 -4.14932 -0.283581 0
M  V30 2845 H 252.048 -3.22822 -1.86656 0
M  V30 2846 N 254.233 0.115231 -1.57178 0
M  V30 2847 C 255.181 1.16014 -2.01602 0
M  V30 2848 C 256.175 1.42653 -0.913587 0
M  V30 2849 O 257.381 1.42571 -1.09879 0
M  V30 2850 H 253.756 0.391252 -0.642204 0
M  V30 2851 H 255.727 0.758998 -2.88586 0
M  V30 2852 C 254.476 2.47767 -2.4394 0
M  V30 2853 H 253.799 2.28108 -3.28339 0
M  V30 2854 H 255.239 3.19432 -2.78818 0
M  V30 2855 C 253.698 3.10617 -1.30455 0
M  V30 2856 O 254.228 3.96846 -0.622585 0
M  V30 2857 N 252.434 2.70553 -1.06064 0
M  V30 2858 H 251.981 2.00527 -1.61699 0
M  V30 2859 H 251.939 3.12934 -0.303284 0
M  V30 2860 N 255.711 1.52812 0.385517 0
M  V30 2861 C 256.644 1.72592 1.49289 0
M  V30 2862 C 257.622 0.573819 1.52138 0
M  V30 2863 O 258.806 0.80404 1.70492 0
M  V30 2864 C 255.933 1.78669 2.87741 0
M  V30 2865 C 254.979 3.00455 3.02703 0
M  V30 2866 S 255.812 4.60366 2.73538 0
M  V30 2867 C 256.968 4.69263 4.14177 0
M  V30 2868 H 257.201 2.66248 1.32285 0
M  V30 2869 H 254.734 1.43148 0.578611 0
M  V30 2870 H 256.692 1.82855 3.67524 0
M  V30 2871 H 255.353 0.861 3.02069 0
M  V30 2872 H 254.546 3.01258 4.04054 0
M  V30 2873 H 254.148 2.94278 2.30817 0
M  V30 2874 H 256.44 4.48092 5.08153 0
M  V30 2875 H 257.383 5.71276 4.18388 0
M  V30 2876 H 257.791 3.98072 4.00249 0
M  V30 2877 N 257.189 -0.644168 1.43834 0
M  V30 2878 C 258.122 -1.76906 1.44151 0
M  V30 2879 C 259.1 -1.59774 0.301857 0
M  V30 2880 O 260.284 -1.81834 0.496841 0
M  V30 2881 C 257.411 -3.14321 1.26174 0
M  V30 2882 C 256.457 -3.50134 2.43533 0
M  V30 2883 S 257.29 -3.49085 4.06079 0
M  V30 2884 C 258.446 -4.89142 3.90501 0
M  V30 2885 H 258.679 -1.76368 2.39336 0
M  V30 2886 H 256.212 -0.817624 1.30974 0
M  V30 2887 H 258.17 -3.93625 1.16489 0
M  V30 2888 H 256.831 -3.12412 0.325224 0
M  V30 2889 H 256.024 -4.50095 2.26783 0
M  V30 2890 H 255.626 -2.78264 2.4989 0
M  V30 2891 H 257.918 -5.78036 3.53385 0
M  V30 2892 H 258.861 -5.10945 4.90246 0
M  V30 2893 H 259.269 -4.63102 3.22795 0
M  V30 2894 N 258.668 -1.30515 -0.883378 0
M  V30 2895 C 259.893 -1.22487 -1.67367 0
M  V30 2896 C 260.318 0.208767 -1.86938 0
M  V30 2897 O 259.676 1.15015 -1.40148 0
M  V30 2898 C 259.724 -1.96041 -3.02655 0
M  V30 2899 O 258.828 -1.28859 -3.91751 0
M  V30 2900 H 258.169 -0.423573 -0.511353 0
M  V30 2901 H 260.699 -1.72362 -1.10239 0
M  V30 2902 H 260.709 -2.05124 -3.52687 0
M  V30 2903 H 259.384 -3.00307 -2.8773 0
M  V30 2904 H 257.961 -1.28141 -3.50192 0
M  V30 2905 N 260.146 1.09593 -1.13257 0
M  V30 2906 C 261.423 1.78293 -0.804432 0
M  V30 2907 C 261.803 1.99004 0.70431 0
M  V30 2908 O 261.151 1.59007 1.641 0
M  V30 2909 C 261.361 3.10707 -1.5894 0
M  V30 2910 C 262.709 3.85443 -1.78099 0
M  V30 2911 O 263.733 3.20454 -1.55525 0
M  V30 2912 O 262.592 5.02108 -2.15753 0
M  V30 2913 H 259.686 0.773156 -0.293528 0
M  V30 2914 H 262.232 1.16164 -1.23709 0
M  V30 2915 H 261.004 2.91106 -2.61482 0
M  V30 2916 H 260.627 3.80558 -1.15157 0
M  V30 2917 N 261.624 0.925811 1.2754 0
M  V30 2918 C 262.872 0.564138 1.94067 0
M  V30 2919 C 263.193 -0.897188 1.73134 0
M  V30 2920 O 262.463 -1.63573 1.07799 0
M  V30 2921 H 261.043 0.205645 0.718136 0
M  V30 2922 H 263.705 1.1778 1.55287 0
M  V30 2923 H 262.801 0.76881 3.02483 0
M  V30 2924 N 263.102 -1.41638 0.69111 0
M  V30 2925 C 264.012 -2.34588 0.0233487 0
M  V30 2926 C 265.028 -1.55987 -0.770984 0
M  V30 2927 O 266.204 -1.88486 -0.709569 0
M  V30 2928 C 263.269 -3.34684 -0.904851 0
M  V30 2929 C 262.33 -4.29176 -0.103225 0
M  V30 2930 C 261.563 -5.2449 -0.987216 0
M  V30 2931 O 261.786 -5.2514 -2.22674 0
M  V30 2932 O 260.72 -6.00295 -0.439281 0
M  V30 2933 H 264.546 -2.93261 0.789416 0
M  V30 2934 H 262.131 -1.42417 0.45142 0
M  V30 2935 H 264.013 -3.96133 -1.43724 0
M  V30 2936 H 262.688 -2.78461 -1.65049 0
M  V30 2937 H 261.595 -3.71089 0.473655 0
M  V30 2938 H 262.928 -4.88484 0.60365 0
M  V30 2939 N 264.58 -0.43555 -1.51462 0
M  V30 2940 C 265.827 0.131514 -2.02072 0
M  V30 2941 C 266.155 1.42868 -1.31981 0
M  V30 2942 O 265.41 1.91076 -0.422883 0
M  V30 2943 C 265.709 0.39942 -3.55161 0
M  V30 2944 C 265.375 -0.81172 -4.43533 0
M  V30 2945 C 264.037 -1.14387 -4.67407 0
M  V30 2946 C 266.389 -1.61976 -4.95392 0
M  V30 2947 C 263.717 -2.28477 -5.40384 0
M  V30 2948 C 266.069 -2.75164 -5.6962 0
M  V30 2949 C 264.733 -3.08835 -5.91758 0
M  V30 2950 H 264.003 0.0481244 -0.739436 0
M  V30 2951 H 266.65 -0.58238 -1.8243 0
M  V30 2952 H 264.955 1.19519 -3.73125 0
M  V30 2953 H 266.652 0.85157 -3.91854 0
M  V30 2954 H 263.242 -0.542898 -4.25148 0
M  V30 2955 H 267.426 -1.37637 -4.76833 0
M  V30 2956 H 262.682 -2.5488 -5.55739 0
M  V30 2957 H 266.856 -3.38147 -6.08793 0
M  V30 2958 H 264.483 -3.97353 -6.48086 0
M  V30 2959 N 266.058 1.56714 -0.166846 0
M  V30 2960 C 266.988 2.20754 0.760913 0
M  V30 2961 C 267.969 1.16178 1.24244 0
M  V30 2962 O 269.154 1.44592 1.29641 0
M  V30 2963 C 266.284 2.84478 1.99223 0
M  V30 2964 C 265.238 3.95053 1.64672 0
M  V30 2965 C 264.564 4.45805 2.95232 0
M  V30 2966 C 265.864 5.14865 0.878155 0
M  V30 2967 H 267.558 2.98537 0.22713 0
M  V30 2968 H 265.104 1.43596 0.107805 0
M  V30 2969 H 267.057 3.27951 2.64624 0
M  V30 2970 H 265.781 2.04056 2.55007 0
M  V30 2971 H 264.44 3.52228 1.01641 0
M  V30 2972 H 264.088 3.62181 3.49047 0
M  V30 2973 H 263.788 5.204 2.7287 0
M  V30 2974 H 265.312 4.91962 3.6167 0
M  V30 2975 H 266.726 5.55059 1.43466 0
M  V30 2976 H 265.123 5.95348 0.753738 0
M  V30 2977 H 266.193 4.84735 -0.126377 0
M  V30 2978 N 267.536 -0.106894 1.57237 0
M  V30 2979 C 268.952 -0.46078 1.52804 0
M  V30 2980 C 269.152 -1.81184 0.881746 0
M  V30 2981 O 268.208 -2.48102 0.469224 0
M  V30 2982 C 269.521 -0.434127 2.9755 0
M  V30 2983 C 271.069 -0.516821 3.08704 0
M  V30 2984 C 271.544 -0.520436 4.55033 0
M  V30 2985 N 273.035 -0.58153 4.59535 0
M  V30 2986 C 273.77 -0.605973 5.70189 0
M  V30 2987 N 273.266 -0.587331 6.90306 0
M  V30 2988 N 275.059 -0.649895 5.5833 0
M  V30 2989 H 267.21 0.778203 1.9763 0
M  V30 2990 H 269.473 0.288403 0.903066 0
M  V30 2991 H 269.179 0.491197 3.48253 0
M  V30 2992 H 269.053 -1.25748 3.55622 0
M  V30 2993 H 271.44 -1.43256 2.57995 0
M  V30 2994 H 271.521 0.334449 2.53604 0
M  V30 2995 H 271.165 0.391313 5.0639 0
M  V30 2996 H 271.095 -1.38876 5.07958 0
M  V30 2997 H 273.586 -0.60161 3.73081 0
M  V30 2998 H 273.899 -0.60894 7.70397 0
M  V30 2999 H 272.244 -0.554564 6.92784 0
M  V30 3000 H 275.435 -0.661907 4.63397 0
M  V30 3001 H 275.608 -0.665476 6.44574 0
M  V30 3002 N 269.014 -1.53014 -0.377408 0
M  V30 3003 C 270.242 -1.72515 -1.14219 0
M  V30 3004 C 270.657 -0.448735 -1.8339 0
M  V30 3005 O 270.014 0.577592 -1.73119 0
M  V30 3006 C 270.065 -2.8826 -2.18148 0
M  V30 3007 O 269.786 -4.10962 -1.51795 0
M  V30 3008 C 271.287 -3.19536 -3.07264 0
M  V30 3009 H 268.507 -0.577301 -0.342001 0
M  V30 3010 H 271.051 -1.99712 -0.439935 0
M  V30 3011 H 269.206 -2.63492 -2.83991 0
M  V30 3012 H 269.62 -4.75693 -2.20945 0
M  V30 3013 H 271.094 -4.03959 -3.76193 0
M  V30 3014 H 271.571 -2.34403 -3.71419 0
M  V30 3015 H 272.177 -3.46186 -2.47053 0
M  V30 3016 N 270.492 0.636531 -1.44174 0
M  V30 3017 C 271.717 1.42847 -1.50364 0
M  V30 3018 C 272.142 1.87665 -0.127867 0
M  V30 3019 O 271.5 1.58408 0.88185 0
M  V30 3020 C 271.548 2.62854 -2.4686 0
M  V30 3021 O 270.652 3.62501 -1.9664 0
M  V30 3022 H 269.993 0.427642 -0.507955 0
M  V30 3023 H 272.523 0.777422 -1.89255 0
M  V30 3024 H 272.533 3.10465 -2.64718 0
M  V30 3025 H 271.208 2.29578 -3.46795 0
M  V30 3026 H 269.785 3.21735 -1.88523 0
M  V30 3027 N 271.97 1.30982 0.876444 0
M  V30 3028 C 273.21 1.21589 1.64303 0
M  V30 3029 C 273.574 -0.223962 1.90689 0
M  V30 3030 O 274.775 -0.44128 2.65153 0
M  V30 3031 C 273.046 2.03007 2.94148 0
M  V30 3032 S 274.605 2.10405 3.85065 0
M  V30 3033 H 271.423 0.433161 0.563819 0
M  V30 3034 H 274.025 1.65565 1.03964 0
M  V30 3035 H 272.729 3.06719 2.72675 0
M  V30 3036 H 272.26 1.59725 3.59515 0
M  V30 3037 H 274.275 1.23765 4.80517 0
M  V30 3038 N 273.449 -1.08991 1.13837 0
M  V30 3039 C 274.697 -1.80899 0.901098 0
M  V30 3040 C 275.018 -1.86356 -0.574134 0
M  V30 3041 O 274.288 -1.35235 -1.41733 0
M  V30 3042 H 272.868 -0.669966 0.330386 0
M  V30 3043 H 275.53 -1.318 1.43578 0
M  V30 3044 H 274.626 -2.83929 1.29578 0
M  V30 3045 N 274.927 -0.932562 -1.27047 0
M  V30 3046 C 276.152 -0.591474 -1.98787 0
M  V30 3047 C 276.577 0.824601 -1.69062 0
M  V30 3048 O 275.935 1.5541 -0.933677 0
M  V30 3049 C 275.983 -0.829808 -3.50922 0
M  V30 3050 O 275.087 0.102266 -4.12273 0
M  V30 3051 H 274.428 -0.227185 -0.623926 0
M  V30 3052 H 276.958 -1.25314 -1.61733 0
M  V30 3053 H 276.968 -0.747292 -4.01098 0
M  V30 3054 H 275.643 -1.86201 -3.7189 0
M  V30 3055 H 274.22 -0.0305761 -3.72887 0
M  V30 3056 N 276.405 1.4127 -0.698611 0
M  V30 3057 C 277.816 1.84187 -0.305289 0
M  V30 3058 C 278.167 1.58449 1.15708 0
M  V30 3059 O 277.292 1.05651 1.88856 0
M  V30 3060 C 277.887 3.3435 -0.547314 0
M  V30 3061 C 276.446 3.75826 -0.207878 0
M  V30 3062 C 275.593 2.64647 -0.828099 0
M  V30 3063 H 278.544 1.30778 -0.89904 0
M  V30 3064 H 278.565 3.8001 0.192998 0
M  V30 3065 H 278.077 3.53051 -1.61172 0
M  V30 3066 H 276.178 3.62725 0.852143 0
M  V30 3067 H 276.291 4.74462 -0.665021 0
M  V30 3068 H 274.655 2.53395 -0.257458 0
M  V30 3069 H 275.438 2.86165 -1.89643 0
M  V30 3070 N 277.883 0.443576 1.51229 0
M  V30 3071 C 278.831 -0.37904 2.29491 0
M  V30 3072 C 279.825 -1.0153 1.35603 0
M  V30 3073 O 281.031 -0.94955 1.52917 0
M  V30 3074 H 277.406 -0.141053 0.738653 0
M  V30 3075 H 279.377 0.301799 2.9687 0
M  V30 3076 C 278.126 -1.46426 3.15364 0
M  V30 3077 H 277.449 -0.984037 3.87501 0
M  V30 3078 H 278.889 -2.01297 3.7317 0
M  V30 3079 C 277.348 -2.45099 2.31146 0
M  V30 3080 O 277.878 -3.49773 1.9754 0
M  V30 3081 N 276.084 -2.16139 1.94249 0
M  V30 3082 H 275.631 -1.31044 2.21777 0
M  V30 3083 H 275.589 -2.82398 1.38198 0
M  V30 3084 N 279.361 -1.56624 0.175154 0
M  V30 3085 C 280.591 -2.01082 -0.474283 0
M  V30 3086 C 280.999 -1.05447 -1.57091 0
M  V30 3087 O 280.342 -0.0480595 -1.83637 0
M  V30 3088 C 280.404 -3.41963 -1.10911 0
M  V30 3089 C 280.068 -4.56742 -0.153666 0
M  V30 3090 C 281.065 -5.16076 0.629448 0
M  V30 3091 C 278.75 -5.02277 -0.0483776 0
M  V30 3092 C 280.744 -6.19377 1.50501 0
M  V30 3093 C 278.431 -6.05427 0.830768 0
M  V30 3094 C 279.429 -6.63849 1.60605 0
M  V30 3095 O 279.117 -7.64998 2.47049 0
M  V30 3096 H 278.849 -0.664261 -0.125432 0
M  V30 3097 H 281.403 -2.03549 0.275163 0
M  V30 3098 H 279.633 -3.36422 -1.90676 0
M  V30 3099 H 281.322 -3.70352 -1.66114 0
M  V30 3100 H 282.088 -4.81776 0.558297 0
M  V30 3101 H 277.967 -4.56513 -0.641611 0
M  V30 3102 H 281.511 -6.64906 2.1106 0
M  V30 3103 H 277.408 -6.39151 0.903107 0
M  V30 3104 H 278.176 -7.82336 2.40607 0
M  V30 3105 N 280.839 0.0985539 -1.57292 0
M  V30 3106 C 281.802 1.10402 -2.00858 0
M  V30 3107 C 282.802 1.33146 -0.901593 0
M  V30 3108 O 283.992 1.29318 -1.16716 0
M  V30 3109 C 281.124 2.45394 -2.36632 0
M  V30 3110 H 282.317 0.729099 -2.90902 0
M  V30 3111 H 279.87 0.343495 -1.52479 0
M  V30 3112 H 280.605 2.87769 -1.49531 0
M  V30 3113 H 280.39 2.30235 -3.17387 0
M  V30 3114 H 281.88 3.17718 -2.71007 0
M  V30 3115 N 282.317 1.53212 0.369288 0
M  V30 3116 C 283.28 1.7872 1.43498 0
M  V30 3117 C 284.28 0.657554 1.46741 0
M  V30 3118 O 285.47 0.925736 1.47566 0
M  V30 3119 C 282.602 1.90591 2.82645 0
M  V30 3120 H 283.795 2.73894 1.22156 0
M  V30 3121 H 281.348 1.44233 0.602203 0
M  V30 3122 H 282.083 0.974709 3.09306 0
M  V30 3123 H 281.868 2.72751 2.8169 0
M  V30 3124 H 283.358 2.11931 3.59826 0
M  V30 3125 N 283.795 -0.628877 1.44509 0
M  V30 3126 C 285.206 -1.21054 1.42137 0
M  V30 3127 C 285.557 -1.95715 0.137881 0
M  V30 3128 O 284.682 -2.02554 -0.761645 0
M  V30 3129 C 285.277 -2.20189 2.57493 0
M  V30 3130 C 283.836 -2.73777 2.58308 0
M  V30 3131 C 282.983 -1.48813 2.33987 0
M  V30 3132 H 285.934 -0.41942 1.53057 0
M  V30 3133 H 285.955 -3.02833 2.30375 0
M  V30 3134 H 285.467 -1.6582 3.50892 0
M  V30 3135 H 283.568 -3.32142 1.68856 0
M  V30 3136 H 283.681 -3.19662 3.56865 0
M  V30 3137 H 282.045 -1.77024 1.83124 0
M  V30 3138 H 282.828 -0.963442 3.29504 0
M  V30 3139 N 285.273 -1.31445 -0.869486 0
M  V30 3140 C 286.183 -1.21097 -2.0093 0
M  V30 3141 C 287.199 -0.127584 -1.73532 0
M  V30 3142 O 288.375 -0.345477 -1.98415 0
M  V30 3143 C 285.44 -0.919378 -3.34288 0
M  V30 3144 C 284.501 -2.08971 -3.75006 0
M  V30 3145 C 283.734 -1.81194 -5.02001 0
M  V30 3146 O 283.957 -0.747296 -5.65484 0
M  V30 3147 O 282.891 -2.66883 -5.39497 0
M  V30 3148 H 286.717 -2.16883 -2.12592 0
M  V30 3149 H 284.302 -1.11189 -0.997868 0
M  V30 3150 H 286.184 -0.772625 -4.14257 0
M  V30 3151 H 284.859 0.00844772 -3.23699 0
M  V30 3152 H 283.766 -2.29187 -2.95676 0
M  V30 3153 H 285.099 -2.9998 -3.90221 0
M  V30 3154 N 286.751 1.08385 -1.14413 0
M  V30 3155 C 287.997 1.81044 -0.913834 0
M  V30 3156 C 288.33 1.86004 0.558209 0
M  V30 3157 O 287.605 1.33606 1.4135 0
M  V30 3158 C 287.888 3.26648 -1.51569 0
M  V30 3159 C 287.741 3.29895 -3.0576 0
M  V30 3160 C 289.06 4.23629 -1.19273 0
M  V30 3161 H 286.179 0.65727 -0.333414 0
M  V30 3162 H 288.821 1.26896 -1.41412 0
M  V30 3163 H 286.971 3.72889 -1.09023 0
M  V30 3164 H 288.643 2.91977 -3.57137 0
M  V30 3165 H 286.886 2.69163 -3.40197 0
M  V30 3166 H 287.557 4.32516 -3.42977 0
M  V30 3167 H 290.033 3.85727 -1.56057 0
M  V30 3168 H 288.909 5.23822 -1.64017 0
M  V30 3169 H 289.17 4.41968 -0.108068 0
M  V30 3170 N 288.23 0.939286 1.26551 0
M  V30 3171 C 289.479 0.581601 1.93133 0
M  V30 3172 C 289.792 -0.883224 1.74524 0
M  V30 3173 O 290.998 -1.3502 2.35546 0
M  V30 3174 C 289.454 0.989425 3.46032 0
M  V30 3175 C 289.062 2.47573 3.73379 0
M  V30 3176 C 290.806 0.703544 4.18629 0
M  V30 3177 C 288.713 2.82235 5.19709 0
M  V30 3178 H 287.643 0.213803 0.723052 0
M  V30 3179 H 290.294 1.14167 1.4366 0
M  V30 3180 H 288.676 0.357902 3.94379 0
M  V30 3181 H 289.85 3.15614 3.35744 0
M  V30 3182 H 288.165 2.73471 3.1401 0
M  V30 3183 H 290.762 0.938869 5.26393 0
M  V30 3184 H 291.105 -0.359639 4.14744 0
M  V30 3185 H 291.638 1.2947 3.76141 0
M  V30 3186 H 288.377 3.87509 5.28694 0
M  V30 3187 H 287.897 2.18854 5.58447 0
M  V30 3188 H 289.576 2.70599 5.87695 0
M  V30 3189 N 289.708 -1.40897 0.706093 0
M  V30 3190 C 290.933 -2.05895 0.249435 0
M  V30 3191 C 291.358 -1.52823 -1.09666 0
M  V30 3192 O 290.716 -0.659589 -1.68876 0
M  V30 3193 C 290.764 -3.59872 0.22904 0
M  V30 3194 O 289.868 -4.04708 -0.792784 0
M  V30 3195 H 289.209 -0.653206 0.119241 0
M  V30 3196 H 291.739 -1.80471 0.96391 0
M  V30 3197 H 291.749 -4.07951 0.0634791 0
M  V30 3198 H 290.424 -3.97866 1.21141 0
M  V30 3199 H 289.001 -3.68111 -0.59572 0
M  V30 3200 N 291.186 -0.45159 -1.50991 0
M  V30 3201 C 292.434 0.109857 -2.01801 0
M  V30 3202 C 292.755 1.41958 -1.3369 0
M  V30 3203 O 292.025 1.9003 -0.475951 0
M  V30 3204 H 290.605 0.0435884 -0.745727 0
M  V30 3205 H 293.267 -0.597557 -1.85514 0
M  V30 3206 H 292.363 0.275489 -3.10882 0
M  V30 3207 N 292.664 1.56529 -0.183458 0
M  V30 3208 C 294.08 1.58664 0.172554 0
M  V30 3209 C 294.28 1.19925 1.61926 0
M  V30 3210 O 293.336 0.916534 2.35278 0
M  V30 3211 C 294.649 3.00463 -0.119262 0
M  V30 3212 C 296.197 3.12945 -0.0584396 0
M  V30 3213 C 296.672 4.56857 -0.323408 0
M  V30 3214 N 298.163 4.62403 -0.271612 0
M  V30 3215 C 298.898 5.71626 -0.450639 0
M  V30 3216 N 298.394 6.89362 -0.689384 0
M  V30 3217 N 300.187 5.60775 -0.385701 0
M  V30 3218 H 292.338 1.79994 -1.12765 0
M  V30 3219 H 294.601 0.834808 -0.449222 0
M  V30 3220 H 294.307 3.33326 -1.12192 0
M  V30 3221 H 294.181 3.72659 0.583544 0
M  V30 3222 H 296.568 2.79902 0.934805 0
M  V30 3223 H 296.649 2.4316 -0.794144 0
M  V30 3224 H 296.293 4.9061 -1.31392 0
M  V30 3225 H 296.223 5.24816 0.43305 0
M  V30 3226 H 298.714 3.77785 -0.0932256 0
M  V30 3227 H 299.027 7.68489 -0.815113 0
M  V30 3228 H 297.372 6.91196 -0.726142 0
M  V30 3229 H 300.563 4.67674 -0.199687 0
M  V30 3230 H 300.736 6.4584 -0.528646 0
M  V30 3231 N 294.142 -0.090211 1.57342 0
M  V30 3232 C 295.072 -1.10976 2.05443 0
M  V30 3233 C 296.053 -1.41482 0.944284 0
M  V30 3234 O 297.238 -1.51428 1.21586 0
M  V30 3235 C 294.368 -2.42831 2.48295 0
M  V30 3236 C 293.322 -2.26721 3.63018 0
M  V30 3237 C 292.648 -3.63796 3.91863 0
M  V30 3238 C 293.948 -1.7037 4.93732 0
M  V30 3239 H 295.642 -0.709564 2.9087 0
M  V30 3240 H 293.188 -0.339874 1.39932 0
M  V30 3241 H 295.141 -3.14431 2.80555 0
M  V30 3242 H 293.865 -2.84795 1.59873 0
M  V30 3243 H 292.524 -1.57565 3.31012 0
M  V30 3244 H 292.172 -4.03297 3.00601 0
M  V30 3245 H 291.872 -3.53861 4.69101 0
M  V30 3246 H 293.396 -4.36855 4.26603 0
M  V30 3247 H 294.81 -2.31816 5.24342 0
M  V30 3248 H 293.207 -1.71181 5.75167 0
M  V30 3249 H 294.277 -0.663542 4.80339 0
M  V30 3250 N 295.62 -1.53406 -0.361157 0
M  V30 3251 C 296.85 -1.73465 -1.1222 0
M  V30 3252 C 297.258 -0.465486 -1.83384 0
M  V30 3253 O 296.601 0.571611 -1.7458 0
M  V30 3254 C 296.663 -2.84834 -2.19339 0
M  V30 3255 C 296.327 -4.25038 -1.67903 0
M  V30 3256 C 297.324 -5.07231 -1.14074 0
M  V30 3257 C 295.009 -4.71464 -1.73282 0
M  V30 3258 C 297.003 -6.33942 -0.663068 0
M  V30 3259 C 294.69 -5.98153 -1.25127 0
M  V30 3260 C 295.688 -6.79223 -0.717296 0
M  V30 3261 O 295.376 -8.03533 -0.242865 0
M  V30 3262 H 295.108 -0.583526 -0.341283 0
M  V30 3263 H 297.662 -2.00964 -0.424591 0
M  V30 3264 H 295.892 -2.5282 -2.92607 0
M  V30 3265 H 297.581 -2.9303 -2.80871 0
M  V30 3266 H 298.347 -4.72534 -1.09254 0
M  V30 3267 H 294.226 -4.08432 -2.13786 0
M  V30 3268 H 297.77 -6.97167 -0.245612 0
M  V30 3269 H 293.667 -6.32347 -1.29642 0
M  V30 3270 H 294.435 -8.177 -0.361786 0
M  V30 3271 N 297.098 0.621204 -1.44841 0
M  V30 3272 C 298.061 1.71459 -1.521 0
M  V30 3273 C 299.061 1.55696 -0.401933 0
M  V30 3274 O 300.251 1.61011 -0.664925 0
M  V30 3275 C 297.383 3.10624 -1.40447 0
M  V30 3276 H 298.576 1.66394 -2.49506 0
M  V30 3277 H 296.129 0.835745 -1.3208 0
M  V30 3278 H 296.864 3.21277 -0.441737 0
M  V30 3279 H 296.649 3.23473 -2.21602 0
M  V30 3280 H 298.139 3.90293 -1.4853 0
M  V30 3281 N 298.576 1.31904 0.862503 0
M  V30 3282 C 299.824 1.21776 1.61292 0
M  V30 3283 C 300.145 -0.222413 1.93727 0
M  V30 3284 O 299.415 -1.1451 1.58947 0
M  V30 3285 H 297.995 0.447717 0.597962 0
M  V30 3286 H 300.657 1.65326 1.03215 0
M  V30 3287 H 299.753 1.7948 2.5533 0
M  V30 3288 N 300.054 -1.07777 1.14986 0
M  V30 3289 C 301.465 -1.61766 0.932127 0
M  V30 3290 C 301.816 -1.88974 -0.527581 0
M  V30 3291 O 300.941 -1.65198 -1.39781 0
M  V30 3292 C 301.536 -2.93891 1.68563 0
M  V30 3293 C 300.095 -3.44639 1.5133 0
M  V30 3294 C 299.242 -2.18767 1.704 0
M  V30 3295 H 302.193 -0.909201 1.30074 0
M  V30 3296 H 302.214 -3.62623 1.15259 0
M  V30 3297 H 301.726 -2.74057 2.74799 0
M  V30 3298 H 299.827 -3.69564 0.474702 0
M  V30 3299 H 299.94 -4.20966 2.28746 0
M  V30 3300 H 298.304 -2.28253 1.13016 0
M  V30 3301 H 299.087 -2.01433 2.77992 0
M  V30 3302 N 301.532 -0.945985 -1.26051 0
M  V30 3303 C 302.442 -0.465633 -2.29933 0
M  V30 3304 C 303.458 0.462761 -1.67733 0
M  V30 3305 O 304.634 0.341118 -1.9849 0
M  V30 3306 C 301.699 0.256994 -3.45746 0
M  V30 3307 C 300.76 -0.708549 -4.23412 0
M  V30 3308 C 299.993 -0.0203135 -5.33696 0
M  V30 3309 O 300.216 1.19571 -5.57726 0
M  V30 3310 O 299.15 -0.701459 -5.97799 0
M  V30 3311 H 302.976 -1.32866 -2.73094 0
M  V30 3312 H 300.561 -0.712071 -1.31339 0
M  V30 3313 H 302.443 0.663852 -4.16138 0
M  V30 3314 H 301.118 1.09533 -3.04605 0
M  V30 3315 H 300.025 -1.16545 -3.55483 0
M  V30 3316 H 301.358 -1.51465 -4.68315 0
M  V30 3317 N 303.011 1.40521 -0.713556 0
M  V30 3318 C 304.257 2.01221 -0.252564 0
M  V30 3319 C 304.59 1.56444 1.1506 0
M  V30 3320 O 303.865 0.783597 1.78017 0
M  V30 3321 C 304.148 3.58582 -0.330332 0
M  V30 3322 C 304.001 4.13437 -1.77173 0
M  V30 3323 C 305.32 4.39079 0.299641 0
M  V30 3324 H 302.439 0.731077 -0.0932471 0
M  V30 3325 H 305.081 1.67026 -0.905673 0
M  V30 3326 H 303.231 3.87844 0.225737 0
M  V30 3327 H 304.903 3.9498 -2.38303 0
M  V30 3328 H 303.146 3.67801 -2.3001 0
M  V30 3329 H 303.817 5.22597 -1.77755 0
M  V30 3330 H 306.293 4.15735 -0.174139 0
M  V30 3331 H 305.169 5.4848 0.214771 0
M  V30 3332 H 305.43 4.19915 1.38288 0
M  V30 3333 N 304.489 0.459591 1.5075 0
M  V30 3334 C 305.766 -0.160371 1.94941 0
M  V30 3335 C 306.146 -1.58048 1.39943 0
M  V30 3336 O 305.494 -2.206 0.595629 0
M  V30 3337 C 305.704 -0.115432 3.48809 0
M  V30 3338 C 307.052 -0.310026 4.23467 0
M  V30 3339 O 308.076 -0.192543 3.55679 0
M  V30 3340 O 306.935 -0.546031 5.43765 0
M  V30 3341 H 304.029 -0.117925 0.818549 0
M  V30 3342 H 306.575 0.519169 1.61563 0
M  V30 3343 H 305.347 0.87652 3.81357 0
M  V30 3344 H 304.97 -0.836928 3.88692 0
M  V30 3345 N 305.967 -1.56429 0.191757 0
M  V30 3346 C 307.216 -1.9666 -0.448088 0
M  V30 3347 C 307.529 -1.08136 -1.62991 0
M  V30 3348 O 308.735 -1.38135 -2.33733 0
M  V30 3349 C 307.191 -3.49753 -0.848585 0
M  V30 3350 C 306.799 -4.46935 0.308764 0
M  V30 3351 C 308.543 -3.9876 -1.4557 0
M  V30 3352 C 306.45 -5.91293 -0.112506 0
M  V30 3353 H 305.38 -0.734312 -0.171179 0
M  V30 3354 H 308.031 -1.81301 0.283242 0
M  V30 3355 H 306.413 -3.60604 -1.63649 0
M  V30 3356 H 307.587 -4.47813 1.08627 0
M  V30 3357 H 305.902 -4.08102 0.827158 0
M  V30 3358 H 308.499 -5.04086 -1.78328 0
M  V30 3359 H 308.842 -3.42875 -2.36099 0
M  V30 3360 H 309.375 -3.9101 -0.731836 0
M  V30 3361 H 306.114 -6.51097 0.758514 0
M  V30 3362 H 305.634 -5.93676 -0.854941 0
M  V30 3363 H 307.313 -6.44663 -0.549448 0
M  V30 3364 N 307.445 0.0818655 -1.57387 0
M  V30 3365 C 308.691 0.778884 -1.87896 0
M  V30 3366 C 309.046 1.75692 -0.784229 0
M  V30 3367 O 308.339 1.90417 0.212567 0
M  V30 3368 C 308.533 1.53513 -3.22752 0
M  V30 3369 C 308.362 0.631838 -4.45239 0
M  V30 3370 C 307.132 0.272571 -5.04564 0
M  V30 3371 C 309.33 -0.0670191 -5.14256 0
M  V30 3372 N 307.312 -0.637498 -6.10581 0
M  V30 3373 C 308.683 -0.834653 -6.14356 0
M  V30 3374 C 310.738 -0.139551 -4.97704 0
M  V30 3375 C 309.441 -1.66806 -6.99691 0
M  V30 3376 C 311.467 -0.959903 -5.83558 0
M  V30 3377 C 310.829 -1.71561 -6.83188 0
M  V30 3378 H 306.928 0.260764 -0.737242 0
M  V30 3379 H 309.512 0.0408227 -1.94657 0
M  V30 3380 H 307.683 2.24398 -3.17018 0
M  V30 3381 H 309.415 2.18038 -3.40942 0
M  V30 3382 H 306.17 0.62319 -4.69482 0
M  V30 3383 H 306.594 -1.08548 -6.68241 0
M  V30 3384 H 311.236 0.430376 -4.20604 0
M  V30 3385 H 308.954 -2.249 -7.76174 0
M  V30 3386 H 312.54 -1.01887 -5.72809 0
M  V30 3387 H 311.42 -2.34017 -7.48469 0
M  V30 3388 N 308.923 1.53595 0.353017 0
M  V30 3389 C 310.148 1.7462 1.11904 0
M  V30 3390 C 310.573 0.479721 1.8188 0
M  V30 3391 O 309.931 -0.567066 1.72204 0
M  V30 3392 C 309.979 2.92029 2.11545 0
M  V30 3393 O 309.083 2.61516 3.18878 0
M  V30 3394 H 308.424 0.579531 0.324099 0
M  V30 3395 H 310.954 2.00525 0.406301 0
M  V30 3396 H 310.964 3.18551 2.5493 0
M  V30 3397 H 309.639 3.83888 1.60008 0
M  V30 3398 H 308.216 2.45852 2.80377 0
M  V30 3399 N 310.401 -0.613514 1.45168 0
M  V30 3400 C 311.626 -1.40437 1.52618 0
M  V30 3401 C 312.051 -1.87438 0.157707 0
M  V30 3402 O 311.409 -1.59791 -0.856537 0
M  V30 3403 C 311.457 -2.58894 2.51011 0
M  V30 3404 O 310.561 -3.59326 2.02382 0
M  V30 3405 H 309.902 -0.419506 0.514695 0
M  V30 3406 H 312.432 -0.747215 1.90467 0
M  V30 3407 H 312.442 -3.06214 2.69624 0
M  V30 3408 H 311.117 -2.24032 3.50403 0
M  V30 3409 H 309.694 -3.18695 1.93618 0
M  V30 3410 N 311.879 -1.3236 -0.855495 0
M  V30 3411 C 313.127 -1.22629 -1.60644 0
M  V30 3412 C 313.448 0.212136 -1.93843 0
M  V30 3413 O 312.718 1.13666 -1.59552 0
M  V30 3414 H 311.298 -0.450882 -0.595579 0
M  V30 3415 H 313.96 -1.65871 -1.02337 0
M  V30 3416 H 313.056 -1.80832 -2.54374 0
M  V30 3417 N 313.357 1.07166 -1.15556 0
M  V30 3418 C 314.603 1.80065 -0.932984 0
M  V30 3419 C 314.936 1.86586 0.53845 0
M  V30 3420 O 314.211 1.35098 1.39924 0
M  V30 3421 C 314.494 3.25022 -1.55025 0
M  V30 3422 C 314.347 3.26634 -3.09242 0
M  V30 3423 C 315.666 4.22341 -1.2376 0
M  V30 3424 H 312.785 0.653697 -0.340366 0
M  V30 3425 H 315.427 1.25389 -1.4275 0
M  V30 3426 H 313.577 3.71712 -1.12972 0
M  V30 3427 H 315.249 2.88173 -3.60214 0
M  V30 3428 H 313.492 2.65539 -3.43033 0
M  V30 3429 H 314.163 4.28854 -3.47546 0
M  V30 3430 H 316.639 3.8405 -1.60139 0
M  V30 3431 H 315.515 5.22053 -1.69564 0
M  V30 3432 H 315.776 4.41828 -0.154938 0
M  V30 3433 N 314.835 0.952656 1.25548 0
M  V30 3434 C 316.084 0.602053 1.92505 0
M  V30 3435 C 316.397 -0.864663 1.75451 0
M  V30 3436 O 317.603 -1.32514 2.36965 0
M  V30 3437 C 316.059 1.02607 3.44963 0
M  V30 3438 C 315.667 2.51519 3.70732 0
M  V30 3439 C 317.411 0.747905 4.1786 0
M  V30 3440 C 315.318 2.87732 5.16686 0
M  V30 3441 H 314.248 0.22146 0.720744 0
M  V30 3442 H 316.899 1.15684 1.42441 0
M  V30 3443 H 315.281 0.399712 3.93978 0
M  V30 3444 H 316.455 3.19157 3.32378 0
M  V30 3445 H 314.77 2.76786 3.11092 0
M  V30 3446 H 317.367 0.994647 5.25367 0
M  V30 3447 H 317.71 -0.315629 4.15102 0
M  V30 3448 H 318.243 1.33452 3.74747 0
M  V30 3449 H 314.982 3.93095 5.24554 0
M  V30 3450 H 314.502 2.24765 5.56094 0
M  V30 3451 H 316.181 2.76817 5.84792 0
M  V30 3452 N 316.313 -1.40141 0.720998 0
M  V30 3453 C 317.243 -2.33339 0.0867621 0
M  V30 3454 C 318.224 -1.53178 -0.739622 0
M  V30 3455 O 319.409 -1.81625 -0.687449 0
M  V30 3456 C 316.539 -3.37194 -0.831728 0
M  V30 3457 C 315.493 -4.27857 -0.110558 0
M  V30 3458 C 314.819 -5.22294 -1.14513 0
M  V30 3459 C 316.119 -5.11872 1.0385 0
M  V30 3460 H 317.813 -2.86626 0.865219 0
M  V30 3461 H 315.359 -1.37814 0.417516 0
M  V30 3462 H 317.312 -4.01335 -1.28485 0
M  V30 3463 H 316.036 -2.82314 -1.64214 0
M  V30 3464 H 314.695 -3.65176 0.322797 0
M  V30 3465 H 314.343 -4.63717 -1.94874 0
M  V30 3466 H 314.043 -5.83797 -0.667446 0
M  V30 3467 H 315.567 -5.89312 -1.59824 0
M  V30 3468 H 316.981 -5.69436 0.664482 0
M  V30 3469 H 315.378 -5.82445 1.4449 0
M  V30 3470 H 316.448 -4.4753 1.86668 0
M  V30 3471 N 317.792 -0.46758 -1.50504 0
M  V30 3472 C 319.022 0.086288 -2.0642 0
M  V30 3473 C 319.43 1.34369 -1.33197 0
M  V30 3474 O 318.773 1.79431 -0.393747 0
M  V30 3475 C 318.835 0.443846 -3.5675 0
M  V30 3476 C 318.499 -0.711035 -4.51435 0
M  V30 3477 C 319.496 -1.59205 -4.94924 0
M  V30 3478 C 317.181 -0.900363 -4.94165 0
M  V30 3479 C 319.175 -2.64683 -5.79846 0
M  V30 3480 C 316.862 -1.95837 -5.7887 0
M  V30 3481 C 317.86 -2.82997 -6.21612 0
M  V30 3482 O 317.548 -3.86977 -7.0463 0
M  V30 3483 H 317.28 -0.00217814 -0.675996 0
M  V30 3484 H 319.834 -0.654346 -1.94698 0
M  V30 3485 H 318.064 1.23762 -3.6636 0
M  V30 3486 H 319.753 0.932386 -3.95046 0
M  V30 3487 H 320.519 -1.45745 -4.62583 0
M  V30 3488 H 316.398 -0.231427 -4.60419 0
M  V30 3489 H 319.942 -3.32745 -6.13128 0
M  V30 3490 H 315.839 -2.09305 -6.10624 0
M  V30 3491 H 316.607 -3.83923 -7.22873 0
M  V30 3492 N 319.27 1.56325 -0.20005 0
M  V30 3493 C 320.233 2.18084 0.705132 0
M  V30 3494 C 321.233 1.13666 1.1374 0
M  V30 3495 O 322.423 1.39023 1.04968 0
M  V30 3496 C 319.555 2.78689 1.96329 0
M  V30 3497 H 320.748 2.99435 0.167023 0
M  V30 3498 H 318.301 1.56221 0.0495725 0
M  V30 3499 H 319.036 2.0115 2.5438 0
M  V30 3500 H 318.821 3.55133 1.66202 0
M  V30 3501 H 320.311 3.26096 2.60866 0
M  V30 3502 N 320.748 -0.0735177 1.57428 0
M  V30 3503 C 321.678 -1.0879 2.06608 0
M  V30 3504 C 322.659 -1.40473 0.959237 0
M  V30 3505 O 323.844 -1.5013 1.23185 0
M  V30 3506 C 320.974 -2.40183 2.50857 0
M  V30 3507 C 319.928 -2.22858 3.65402 0
M  V30 3508 C 319.254 -3.59619 3.957 0
M  V30 3509 C 320.554 -1.65123 4.95511 0
M  V30 3510 H 322.248 -0.678673 2.91607 0
M  V30 3511 H 319.794 -0.325013 1.40284 0
M  V30 3512 H 321.747 -3.11437 2.83874 0
M  V30 3513 H 320.471 -2.83083 1.62885 0
M  V30 3514 H 319.13 -1.54045 3.32664 0
M  V30 3515 H 318.778 -4.00086 3.04861 0
M  V30 3516 H 318.478 -3.48866 4.72828 0
M  V30 3517 H 320.002 -4.32306 4.31212 0
M  V30 3518 H 321.416 -2.26241 5.26771 0
M  V30 3519 H 319.813 -1.65071 5.7695 0
M  V30 3520 H 320.883 -0.612559 4.81015 0
M  V30 3521 N 322.226 -1.5378 -0.344866 0
M  V30 3522 C 323.156 -1.84662 -1.42906 0
M  V30 3523 C 324.137 -0.701648 -1.54955 0
M  V30 3524 O 325.322 -0.953438 -1.69184 0
M  V30 3525 C 322.452 -2.05503 -2.79974 0
M  V30 3526 C 321.406 -3.21318 -2.82734 0
M  V30 3527 C 320.732 -3.2749 -4.22675 0
M  V30 3528 C 322.032 -4.59456 -2.48389 0
M  V30 3529 H 323.726 -2.75461 -1.17311 0
M  V30 3530 H 321.272 -1.32542 -0.562896 0
M  V30 3531 H 323.225 -2.25691 -3.55867 0
M  V30 3532 H 321.949 -1.11434 -3.07002 0
M  V30 3533 H 320.608 -3.00984 -2.09294 0
M  V30 3534 H 320.256 -2.31019 -4.4681 0
M  V30 3535 H 319.956 -4.05316 -4.25433 0
M  V30 3536 H 321.48 -3.49887 -5.00412 0
M  V30 3537 H 322.894 -4.79667 -3.13995 0
M  V30 3538 H 321.291 -5.39675 -2.62432 0
M  V30 3539 H 322.361 -4.63155 -1.4358 0
M  V30 3540 N 323.704 0.605807 -1.45491 0
M  V30 3541 C 324.944 1.37606 -1.51142 0
M  V30 3542 C 325.308 1.91413 -0.150075 0
M  V30 3543 O 326.509 2.68677 -0.0812828 0
M  V30 3544 C 324.78 2.49197 -2.56195 0
M  V30 3545 S 326.339 3.36953 -2.81083 0
M  V30 3546 H 323.157 0.469118 -0.534275 0
M  V30 3547 H 325.759 0.698845 -1.82583 0
M  V30 3548 H 324.463 2.0802 -3.53773 0
M  V30 3549 H 323.994 3.21717 -2.26411 0
M  V30 3550 H 326.009 4.47395 -2.14598 0
M  V30 3551 N 325.182 1.32811 0.848464 0
M  V30 3552 C 326.43 1.23479 1.59991 0
M  V30 3553 C 326.751 -0.201853 1.93952 0
M  V30 3554 O 326.021 -1.12818 1.60153 0
M  V30 3555 H 324.601 0.454034 0.593179 0
M  V30 3556 H 327.263 1.66412 1.01455 0
M  V30 3557 H 326.359 1.82178 2.53412 0
M  V30 3558 N 326.66 -1.06551 1.16123 0
M  V30 3559 C 327.888 -1.83005 0.965237 0
M  V30 3560 C 328.303 -1.82423 -0.486542 0
M  V30 3561 O 327.66 -1.24152 -1.33763 0
M  V30 3562 C 327.711 -3.29733 1.48183 0
M  V30 3563 O 327.432 -3.30416 2.87674 0
M  V30 3564 C 328.933 -4.22926 1.32848 0
M  V30 3565 H 326.153 -0.577118 0.342309 0
M  V30 3566 H 328.697 -1.3445 1.54089 0
M  V30 3567 H 326.852 -3.75609 0.948517 0
M  V30 3568 H 327.266 -4.22149 3.11272 0
M  V30 3569 H 328.74 -5.23916 1.73827 0
M  V30 3570 H 329.217 -4.38346 0.273692 0
M  V30 3571 H 329.823 -3.82894 1.85127 0
M  V30 3572 N 328.138 -0.959301 -1.25041 0
M  V30 3573 C 329.068 -0.501388 -2.28053 0
M  V30 3574 C 330.049 0.454673 -1.63911 0
M  V30 3575 O 331.234 0.352618 -1.90972 0
M  V30 3576 C 328.364 0.217224 -3.4662 0
M  V30 3577 C 327.318 -0.654034 -4.22973 0
M  V30 3578 C 326.644 0.195589 -5.34342 0
M  V30 3579 C 327.944 -1.93447 -4.85155 0
M  V30 3580 H 329.638 -1.36238 -2.66608 0
M  V30 3581 H 327.184 -0.656534 -1.28163 0
M  V30 3582 H 329.137 0.548732 -4.17812 0
M  V30 3583 H 327.861 1.1125 -3.07068 0
M  V30 3584 H 326.52 -0.968693 -3.5357 0
M  V30 3585 H 326.168 1.09076 -4.91031 0
M  V30 3586 H 325.868 -0.384091 -5.86343 0
M  V30 3587 H 327.392 0.521958 -6.08365 0
M  V30 3588 H 328.806 -1.66908 -5.48466 0
M  V30 3589 H 327.203 -2.46018 -5.47353 0
M  V30 3590 H 328.273 -2.63466 -4.07079 0
M  V30 3591 N 329.616 1.39756 -0.72842 0
M  V30 3592 C 331.027 1.83498 -0.344289 0
M  V30 3593 C 331.378 1.60868 1.12321 0
M  V30 3594 O 330.503 1.09634 1.86573 0
M  V30 3595 C 331.098 3.33114 -0.618112 0
M  V30 3596 C 329.657 3.753 -0.287549 0
M  V30 3597 C 328.804 2.62831 -0.884048 0
M  V30 3598 H 331.755 1.28842 -0.926578 0
M  V30 3599 H 331.776 3.80334 0.112349 0
M  V30 3600 H 331.288 3.49553 -1.68625 0
M  V30 3601 H 329.389 3.64451 0.775012 0
M  V30 3602 H 329.502 4.72945 -0.765512 0
M  V30 3603 H 327.866 2.52792 -0.311149 0
M  V30 3604 H 328.649 2.82078 -1.95671 0
M  V30 3605 N 331.094 0.475555 1.50254 0
M  V30 3606 C 332.341 -0.0778919 2.0235 0
M  V30 3607 C 332.669 -1.39319 1.35722 0
M  V30 3608 O 331.924 -1.89888 0.473395 0
M  V30 3609 C 332.223 -0.305114 3.56095 0
M  V30 3610 C 331.889 0.92903 4.41225 0
M  V30 3611 C 330.551 1.26739 4.6421 0
M  V30 3612 C 332.903 1.75054 4.90923 0
M  V30 3613 C 330.231 2.42724 5.34137 0
M  V30 3614 C 332.583 2.9017 5.62125 0
M  V30 3615 C 331.247 3.24416 5.83362 0
M  V30 3616 H 330.517 -0.0285027 0.740452 0
M  V30 3617 H 333.164 0.630543 1.80821 0
M  V30 3618 H 331.469 -1.09584 3.76163 0
M  V30 3619 H 333.166 -0.747377 3.93974 0
M  V30 3620 H 329.756 0.655428 4.23559 0
M  V30 3621 H 333.94 1.50231 4.73016 0
M  V30 3622 H 329.196 2.69525 5.48786 0
M  V30 3623 H 333.37 3.54169 5.99614 0
M  V30 3624 H 330.997 4.14396 6.37323 0
M  V30 3625 N 332.573 -1.56217 0.208337 0
M  V30 3626 C 333.85 -1.89739 -0.475234 0
M  V30 3627 C 334.23 -1.1238 -1.78701 0
M  V30 3628 O 333.578 -0.228979 -2.2735 0
M  V30 3629 C 333.788 -3.42289 -0.681101 0
M  V30 3630 C 335.136 -4.12789 -0.994507 0
M  V30 3631 O 336.16 -3.47814 -0.768357 0
M  V30 3632 O 335.019 -5.27649 -1.42299 0
M  V30 3633 H 332.113 -0.788478 -0.249461 0
M  V30 3634 H 334.659 -1.67855 0.249538 0
M  V30 3635 H 333.431 -3.90534 0.244722 0
M  V30 3636 H 333.054 -3.69909 -1.45785 0
M  V30 3637 N 334.051 0.0651679 -1.57465 0
M  V30 3638 C 335.328 0.79644 -1.78651 0
M  V30 3639 C 335.708 1.95454 -0.797566 0
M  V30 3640 O 335.056 2.27882 0.167946 0
M  V30 3641 C 335.266 1.26322 -3.25337 0
M  V30 3642 C 336.614 1.6939 -3.89348 0
M  V30 3643 O 337.638 1.35872 -3.29268 0
M  V30 3644 O 336.497 2.31471 -4.95059 0
M  V30 3645 H 333.591 0.382157 -0.733407 0
M  V30 3646 H 336.137 0.0447311 -1.69641 0
M  V30 3647 H 334.909 0.434859 -3.88876 0
M  V30 3648 H 334.532 2.07604 -3.39096 0
M  V30 3649 N 335.529 1.53961 0.336706 0
M  V30 3650 C 336.806 1.62171 1.09361 0
M  V30 3651 C 337.186 0.447263 2.06307 0
M  V30 3652 O 336.534 -0.559802 2.21537 0
M  V30 3653 C 336.744 2.98565 1.80721 0
M  V30 3654 C 338.092 3.54157 2.34218 0
M  V30 3655 O 339.116 3.00784 1.90807 0
M  V30 3656 O 337.975 4.47528 3.13657 0
M  V30 3657 H 335.069 0.6562 0.503319 0
M  V30 3658 H 337.615 1.66307 0.33765 0
M  V30 3659 H 336.387 3.75482 1.10132 0
M  V30 3660 H 336.01 2.9805 2.63158 0
M  V30 3661 N 337.007 -0.598083 1.45811 0
M  V30 3662 C 337.957 -1.70272 1.51629 0
M  V30 3663 C 338.941 -1.56382 0.378629 0
M  V30 3664 O 340.133 -1.65557 0.626087 0
M  V30 3665 C 337.262 -3.09042 1.49493 0
M  V30 3666 C 336.348 -3.28284 2.68496 0
M  V30 3667 N 336.739 -3.17748 3.93535 0
M  V30 3668 C 335.037 -3.59182 2.64394 0
M  V30 3669 C 335.738 -3.38579 4.7301 0
M  V30 3670 N 334.714 -3.63016 4.04624 0
M  V30 3671 H 338.516 -1.60634 2.46118 0
M  V30 3672 H 336.03 -0.801642 1.41235 0
M  V30 3673 H 338.027 -3.88302 1.51747 0
M  V30 3674 H 336.687 -3.19823 0.560683 0
M  V30 3675 H 337.698 -2.95944 4.25014 0
M  V30 3676 H 334.375 -3.76742 1.79922 0
M  V30 3677 H 335.765 -3.35747 5.82 0
M  V30 3678 N 338.485 -1.33259 -0.841409 0
M  V30 3679 C 339.731 -1.24757 -1.59886 0
M  V30 3680 C 340.064 0.186913 -1.93298 0
M  V30 3681 O 339.339 1.12757 -1.5848 0
M  V30 3682 C 339.622 -2.12036 -2.91055 0
M  V30 3683 C 339.475 -3.63929 -2.6434 0
M  V30 3684 C 340.794 -1.9916 -3.92458 0
M  V30 3685 H 337.913 -0.454542 -0.580138 0
M  V30 3686 H 340.555 -1.63335 -0.970647 0
M  V30 3687 H 338.705 -1.79265 -3.44669 0
M  V30 3688 H 340.377 -4.06978 -2.17178 0
M  V30 3689 H 338.62 -3.85935 -1.98082 0
M  V30 3690 H 339.291 -4.20341 -3.57796 0
M  V30 3691 H 341.767 -2.27895 -3.48143 0
M  V30 3692 H 340.643 -2.62484 -4.82072 0
M  V30 3693 H 340.904 -0.963082 -4.31482 0
M  V30 3694 N 339.963 1.05934 -1.16686 0
M  V30 3695 C 341.374 1.60263 -0.957745 0
M  V30 3696 C 341.725 1.89789 0.49745 0
M  V30 3697 O 340.85 1.67401 1.37135 0
M  V30 3698 C 341.445 2.91172 -1.73218 0
M  V30 3699 C 340.004 3.42188 -1.56794 0
M  V30 3700 C 339.151 2.16028 -1.73859 0
M  V30 3701 H 342.102 0.888392 -1.31504 0
M  V30 3702 H 342.123 3.60744 -1.21014 0
M  V30 3703 H 341.635 2.6965 -2.79124 0
M  V30 3704 H 339.736 3.68762 -0.533437 0
M  V30 3705 H 339.849 4.17273 -2.35414 0
M  V30 3706 H 338.213 2.26426 -1.16633 0
M  V30 3707 H 338.996 1.96985 -2.81161 0
M  V30 3708 N 341.441 0.965919 1.2453 0
M  V30 3709 C 342.669 0.644385 1.96609 0
M  V30 3710 C 343.084 -0.785823 1.71669 0
M  V30 3711 O 342.441 -1.52703 0.999399 0
M  V30 3712 C 342.492 0.907375 3.49927 0
M  V30 3713 O 342.213 2.28136 3.74013 0
M  V30 3714 C 343.714 0.599784 4.39224 0
M  V30 3715 H 340.934 0.240588 0.626385 0
M  V30 3716 H 343.478 1.29337 1.58405 0
M  V30 3717 H 341.633 0.304631 3.862 0
M  V30 3718 H 342.047 2.36002 4.68405 0
M  V30 3719 H 343.521 0.834263 5.45659 0
M  V30 3720 H 343.998 -0.465921 4.36722 0
M  V30 3721 H 344.604 1.18235 4.08535 0
M  V30 3722 N 342.919 -1.39368 0.735821 0
M  V30 3723 C 343.849 -2.33234 0.111506 0
M  V30 3724 C 344.83 -1.53954 -0.723334 0
M  V30 3725 O 346.015 -1.82344 -0.668147 0
M  V30 3726 C 343.145 -3.38057 -0.795917 0
M  V30 3727 C 342.099 -4.2795 -0.065172 0
M  V30 3728 C 341.425 -5.23479 -1.08967 0
M  V30 3729 C 342.725 -5.10741 1.09273 0
M  V30 3730 H 344.419 -2.85692 0.895571 0
M  V30 3731 H 341.965 -1.37364 0.432109 0
M  V30 3732 H 343.918 -4.02675 -1.24221 0
M  V30 3733 H 342.642 -2.8404 -1.61211 0
M  V30 3734 H 341.301 -3.64813 0.361511 0
M  V30 3735 H 340.949 -4.65758 -1.89944 0
M  V30 3736 H 340.649 -5.84472 -0.605489 0
M  V30 3737 H 342.173 -5.90974 -1.53565 0
M  V30 3738 H 343.587 -5.68699 0.724841 0
M  V30 3739 H 341.984 -5.8088 1.50659 0
M  V30 3740 H 343.054 -4.45525 1.91404 0
M  V30 3741 N 344.397 -0.483516 -1.5 0
M  V30 3742 C 345.644 0.0671597 -2.02389 0
M  V30 3743 C 345.972 1.38597 -1.36459 0
M  V30 3744 O 345.227 1.89634 -0.483458 0
M  V30 3745 C 345.526 0.286226 -3.56252 0
M  V30 3746 C 345.192 -0.952416 -4.40726 0
M  V30 3747 C 343.854 -1.29199 -4.63531 0
M  V30 3748 C 346.206 -1.77655 -4.89988 0
M  V30 3749 C 343.534 -2.45553 -5.32842 0
M  V30 3750 C 345.886 -2.93147 -5.60578 0
M  V30 3751 C 344.55 -3.27505 -5.81633 0
M  V30 3752 H 343.82 0.0245755 -0.740592 0
M  V30 3753 H 346.467 -0.640124 -1.80485 0
M  V30 3754 H 344.772 1.07587 -3.76739 0
M  V30 3755 H 346.469 0.726473 -3.94365 0
M  V30 3756 H 343.059 -0.677881 -4.23205 0
M  V30 3757 H 347.243 -1.52737 -4.72213 0
M  V30 3758 H 342.499 -2.72431 -5.47349 0
M  V30 3759 H 346.673 -3.57344 -5.97727 0
M  V30 3760 H 344.3 -4.1777 -6.35116 0
M  V30 3761 N 345.875 1.56104 -0.216619 0
M  V30 3762 C 346.822 2.2007 0.695531 0
M  V30 3763 C 347.792 1.15471 1.19397 0
M  V30 3764 O 348.977 1.43807 1.25396 0
M  V30 3765 C 346.117 2.88073 1.90021 0
M  V30 3766 C 345.23 4.07253 1.44113 0
M  V30 3767 C 344.365 4.63052 2.603 0
M  V30 3768 C 343.404 5.74545 2.11103 0
M  V30 3769 N 342.541 6.24656 3.20545 0
M  V30 3770 H 347.381 2.97655 0.143327 0
M  V30 3771 H 344.918 1.46982 0.0589934 0
M  V30 3772 H 346.876 3.25681 2.60745 0
M  V30 3773 H 345.506 2.13015 2.42538 0
M  V30 3774 H 344.558 3.75164 0.628999 0
M  V30 3775 H 345.87 4.8783 1.04036 0
M  V30 3776 H 345.024 5.03078 3.39113 0
M  V30 3777 H 343.763 3.81628 3.03663 0
M  V30 3778 H 342.768 5.34027 1.3075 0
M  V30 3779 H 343.993 6.57801 1.68746 0
M  V30 3780 H 341.939 5.46148 3.63399 0
M  V30 3781 H 341.856 7.00343 2.84704 0
M  V30 3782 H 343.124 6.69338 3.99508 0
M  V30 3783 N 347.353 -0.0568162 1.57498 0
M  V30 3784 C 348.3 -1.06591 2.04712 0
M  V30 3785 C 349.27 -1.3758 0.930644 0
M  V30 3786 O 350.455 -1.48392 1.19935 0
M  V30 3787 C 347.595 -2.3701 2.50839 0
M  V30 3788 C 346.708 -2.12421 3.76167 0
M  V30 3789 C 345.843 -3.36511 4.11015 0
M  V30 3790 C 344.882 -3.07353 5.2934 0
M  V30 3791 N 344.019 -4.23816 5.59754 0
M  V30 3792 H 348.859 -0.65631 2.90683 0
M  V30 3793 H 346.396 -0.312481 1.43743 0
M  V30 3794 H 348.354 -3.13175 2.7564 0
M  V30 3795 H 346.984 -2.75744 1.67825 0
M  V30 3796 H 346.036 -1.2688 3.58616 0
M  V30 3797 H 347.348 -1.86894 4.62463 0
M  V30 3798 H 346.502 -4.21062 4.36797 0
M  V30 3799 H 345.241 -3.65128 3.23315 0
M  V30 3800 H 344.246 -2.212 5.03339 0
M  V30 3801 H 345.471 -2.80043 6.1867 0
M  V30 3802 H 343.417 -4.52436 4.75014 0
M  V30 3803 H 343.334 -4.01614 6.40501 0
M  V30 3804 H 344.602 -5.0932 5.90096 0
M  V30 3805 N 348.832 -1.54138 -0.328536 0
M  V30 3806 C 350.081 -1.71318 -1.06456 0
M  V30 3807 C 350.394 -0.491109 -1.89334 0
M  V30 3808 O 351.6 -0.54416 -2.65991 0
M  V30 3809 C 350.056 -3.03 -1.94214 0
M  V30 3810 C 349.664 -4.32595 -1.16471 0
M  V30 3811 C 351.408 -3.29544 -2.67583 0
M  V30 3812 C 349.315 -5.55341 -2.03347 0
M  V30 3813 H 348.245 -0.638429 -0.401155 0
M  V30 3814 H 350.896 -1.80633 -0.323106 0
M  V30 3815 H 349.278 -2.87579 -2.72239 0
M  V30 3816 H 350.452 -4.58766 -0.432525 0
M  V30 3817 H 348.767 -4.12777 -0.548063 0
M  V30 3818 H 351.364 -4.18444 -3.3288 0
M  V30 3819 H 351.707 -2.47206 -3.34955 0
M  V30 3820 H 352.24 -3.45809 -1.96623 0
M  V30 3821 H 348.979 -6.40268 -1.40491 0
M  V30 3822 H 348.499 -5.33397 -2.74313 0
M  V30 3823 H 350.178 -5.91557 -2.62049 0
M  V30 3824 N 350.31 0.590341 -1.46126 0
M  V30 3825 C 351.55 1.35995 -1.52593 0
M  V30 3826 C 351.914 1.91243 -0.170368 0
M  V30 3827 O 353.115 2.68576 -0.109775 0
M  V30 3828 C 351.386 2.46465 -2.58823 0
M  V30 3829 S 352.945 3.33953 -2.84641 0
M  V30 3830 H 349.763 0.463425 -0.53922 0
M  V30 3831 H 352.365 0.67944 -1.83314 0
M  V30 3832 H 351.069 2.04256 -3.5596 0
M  V30 3833 H 350.6 3.19297 -2.2981 0
M  V30 3834 H 352.615 4.45094 -2.19331 0
M  V30 3835 N 351.788 1.33704 0.83433 0
M  V30 3836 C 353.065 1.16011 1.57483 0
M  V30 3837 C 353.445 -0.27176 2.09343 0
M  V30 3838 O 352.793 -1.27146 1.89858 0
M  V30 3839 C 353.003 2.20507 2.70514 0
M  V30 3840 C 354.351 2.54898 3.39577 0
M  V30 3841 O 355.375 2.19209 2.80759 0
M  V30 3842 O 354.234 3.16158 4.45765 0
M  V30 3843 H 351.328 0.448992 0.694503 0
M  V30 3844 H 353.874 1.453 0.876691 0
M  V30 3845 H 352.646 3.16667 2.29865 0
M  V30 3846 H 352.269 1.92329 3.47987 0
M  V30 3847 N 353.266 -1.05314 1.17247 0
M  V30 3848 C 354.514 -1.77941 0.958194 0
M  V30 3849 C 354.835 -1.88089 -0.514556 0
M  V30 3850 O 354.105 -1.39676 -1.37359 0
M  V30 3851 H 352.685 -0.659116 0.351533 0
M  V30 3852 H 355.347 -1.27166 1.47699 0
M  V30 3853 H 354.443 -2.79663 1.38546 0
M  V30 3854 N 354.744 -0.972509 -1.24016 0
M  V30 3855 C 355.993 -0.632603 -1.91523 0
M  V30 3856 C 356.306 0.836641 -1.76804 0
M  V30 3857 O 357.512 1.28728 -2.39043 0
M  V30 3858 C 355.968 -1.08082 -3.43287 0
M  V30 3859 C 355.576 -2.57386 -3.66683 0
M  V30 3860 C 357.32 -0.814288 -4.16617 0
M  V30 3861 C 355.227 -2.95915 -5.12043 0
M  V30 3862 H 354.157 -0.232898 -0.717129 0
M  V30 3863 H 356.808 -1.17936 -1.40582 0
M  V30 3864 H 355.19 -0.462339 -3.93292 0
M  V30 3865 H 356.364 -3.24405 -3.27258 0
M  V30 3866 H 354.679 -2.81701 -3.06649 0
M  V30 3867 H 357.276 -1.0781 -5.23718 0
M  V30 3868 H 357.619 0.24955 -4.15551 0
M  V30 3869 H 358.152 -1.39397 -3.72577 0
M  V30 3870 H 354.891 -4.0139 -5.18234 0
M  V30 3871 H 354.411 -2.33584 -5.52448 0
M  V30 3872 H 356.09 -2.86086 -5.80314 0
M  V30 3873 N 356.222 1.38976 -0.743202 0
M  V30 3874 C 357.469 2.00343 -0.294752 0
M  V30 3875 C 357.797 1.58983 1.12047 0
M  V30 3876 O 357.052 0.813809 1.77977 0
M  V30 3877 C 357.351 3.55647 -0.353517 0
M  V30 3878 C 357.017 4.16685 -1.72292 0
M  V30 3879 C 355.679 4.3307 -2.09771 0
M  V30 3880 C 358.031 4.50464 -2.62168 0
M  V30 3881 C 355.359 4.80526 -3.36618 0
M  V30 3882 C 357.711 4.99332 -3.88395 0
M  V30 3883 C 356.375 5.13924 -4.25956 0
M  V30 3884 H 355.645 0.733108 -0.107857 0
M  V30 3885 H 358.292 1.6618 -0.951651 0
M  V30 3886 H 356.597 3.89884 0.386954 0
M  V30 3887 H 358.294 4.00998 0.0117269 0
M  V30 3888 H 354.884 4.04339 -1.42155 0
M  V30 3889 H 359.068 4.37416 -2.3448 0
M  V30 3890 H 354.324 4.90008 -3.65653 0
M  V30 3891 H 358.498 5.2444 -4.58187 0
M  V30 3892 H 356.125 5.50457 -5.2431 0
M  V30 3893 N 357.7 0.491464 1.49741 0
M  V30 3894 C 358.93 -0.0534375 2.06531 0
M  V30 3895 C 359.338 -1.32233 1.35318 0
M  V30 3896 O 358.681 -1.78781 0.422243 0
M  V30 3897 C 358.743 -0.387034 3.57411 0
M  V30 3898 C 358.407 0.782764 4.50246 0
M  V30 3899 C 359.404 1.67059 4.92329 0
M  V30 3900 C 357.089 0.978866 4.9267 0
M  V30 3901 C 359.083 2.73874 5.75562 0
M  V30 3902 C 356.77 2.05022 5.75682 0
M  V30 3903 C 357.768 2.92851 6.17031 0
M  V30 3904 O 357.456 3.98138 6.98385 0
M  V30 3905 H 357.188 0.0129324 0.675876 0
M  V30 3906 H 359.742 0.685238 1.93633 0
M  V30 3907 H 357.972 -1.17918 3.68283 0
M  V30 3908 H 359.661 -0.869419 3.96479 0
M  V30 3909 H 360.427 1.53086 4.60206 0
M  V30 3910 H 356.306 0.304646 4.59992 0
M  V30 3911 H 359.85 3.42458 6.07757 0
M  V30 3912 H 355.747 2.18993 6.07217 0
M  V30 3913 H 356.515 3.95374 7.16674 0
M  V30 3914 N 359.178 -1.55987 0.224894 0
M  V30 3915 C 360.406 -2.02784 -0.410665 0
M  V30 3916 C 360.821 -1.10464 -1.53112 0
M  V30 3917 O 360.178 -0.114871 -1.82138 0
M  V30 3918 C 360.229 -3.49087 -0.939165 0
M  V30 3919 O 359.95 -4.37887 0.136614 0
M  V30 3920 C 361.451 -4.11543 -1.64763 0
M  V30 3921 H 358.671 -0.663484 -0.100148 0
M  V30 3922 H 361.215 -2.01614 0.342326 0
M  V30 3923 H 359.37 -3.50861 -1.64242 0
M  V30 3924 H 359.784 -5.23849 -0.261155 0
M  V30 3925 H 361.258 -5.15673 -1.96939 0
M  V30 3926 H 361.735 -3.56736 -2.56195 0
M  V30 3927 H 362.341 -4.13629 -0.989503 0
M  V30 3928 N 360.656 0.0484629 -1.57525 0
M  V30 3929 C 362.067 0.597486 -1.76881 0
M  V30 3930 C 362.418 1.76664 -0.853475 0
M  V30 3931 O 361.543 2.16357 -0.0433656 0
M  V30 3932 C 362.138 1.09066 -3.20765 0
M  V30 3933 C 360.697 1.58535 -3.41385 0
M  V30 3934 C 359.844 0.514868 -2.72478 0
M  V30 3935 H 362.795 -0.177758 -1.57701 0
M  V30 3936 H 362.816 1.95875 -3.2621 0
M  V30 3937 H 362.328 0.239521 -3.8736 0
M  V30 3938 H 360.429 2.45898 -2.79937 0
M  V30 3939 H 360.542 1.64622 -4.49929 0
M  V30 3940 H 358.906 0.965407 -2.35695 0
M  V30 3941 H 359.689 -0.32648 -3.41744 0
M  V30 3942 N 362.134 1.5431 0.320358 0
M  V30 3943 C 363.066 1.80262 1.41556 0
M  V30 3944 C 364.079 0.684723 1.477 0
M  V30 3945 O 365.268 0.961886 1.50366 0
M  V30 3946 C 362.368 1.90825 2.8007 0
M  V30 3947 C 361.541 3.21023 2.97091 0
M  V30 3948 C 360.6 3.22247 4.15985 0
M  V30 3949 O 359.626 3.95871 4.08992 0
M  V30 3950 N 360.828 2.46258 5.25678 0
M  V30 3951 H 363.593 2.74778 1.19655 0
M  V30 3952 H 361.154 1.53646 0.510358 0
M  V30 3953 H 363.146 1.89067 3.57821 0
M  V30 3954 H 361.716 1.03392 2.95006 0
M  V30 3955 H 360.936 3.35715 2.06614 0
M  V30 3956 H 362.224 4.0698 3.05361 0
M  V30 3957 H 361.622 1.86037 5.34235 0
M  V30 3958 H 360.179 2.50275 6.01835 0
M  V30 3959 N 363.613 -0.582584 1.46437 0
M  V30 3960 C 364.843 -1.36484 1.55099 0
M  V30 3961 C 365.251 -1.88233 0.191056 0
M  V30 3962 O 364.594 -1.6429 -0.821858 0
M  V30 3963 C 364.656 -2.588 2.49525 0
M  V30 3964 C 364.32 -2.28517 3.95764 0
M  V30 3965 C 365.317 -1.87346 4.84972 0
M  V30 3966 C 363.002 -2.40658 4.40896 0
M  V30 3967 C 364.996 -1.5871 6.17325 0
M  V30 3968 C 362.683 -2.11635 5.73284 0
M  V30 3969 C 363.681 -1.70725 6.61318 0
M  V30 3970 O 363.369 -1.42057 7.91249 0
M  V30 3971 H 363.101 -0.423297 0.527063 0
M  V30 3972 H 365.655 -0.715188 1.92547 0
M  V30 3973 H 363.885 -3.26571 2.07095 0
M  V30 3974 H 365.574 -3.20868 2.48593 0
M  V30 3975 H 366.34 -1.77481 4.5136 0
M  V30 3976 H 362.219 -2.71463 3.72598 0
M  V30 3977 H 365.763 -1.26704 6.85997 0
M  V30 3978 H 361.66 -2.21124 6.06444 0
M  V30 3979 H 362.428 -1.55901 8.03515 0
M  V30 3980 N 365.091 -1.34144 -0.827227 0
M  V30 3981 C 366.021 -1.28005 -1.95287 0
M  V30 3982 C 367.002 -0.158321 -1.69362 0
M  V30 3983 O 368.187 -0.349987 -1.9102 0
M  V30 3984 C 365.317 -1.03036 -3.31664 0
M  V30 3985 C 364.271 -2.11628 -3.72019 0
M  V30 3986 C 363.597 -1.71854 -5.0633 0
M  V30 3987 C 364.897 -3.53417 -3.8457 0
M  V30 3988 H 366.591 -2.22187 -2.00682 0
M  V30 3989 H 364.137 -1.0696 -0.964135 0
M  V30 3990 H 366.09 -0.973863 -4.09993 0
M  V30 3991 H 364.814 -0.0529391 -3.26557 0
M  V30 3992 H 363.473 -2.16339 -2.95961 0
M  V30 3993 H 363.121 -0.727841 -4.97706 0
M  V30 3994 H 362.821 -2.44531 -5.34302 0
M  V30 3995 H 364.345 -1.67692 -5.87122 0
M  V30 3996 H 365.759 -3.51142 -4.5318 0
M  V30 3997 H 364.156 -4.24679 -4.2399 0
M  V30 3998 H 365.226 -3.91072 -2.86689 0
M  V30 3999 N 366.569 1.04691 -1.17803 0
M  V30 4000 C 367.517 2.14665 -0.895635 0
M  V30 4001 C 368.511 1.68806 0.141679 0
M  V30 4002 O 369.717 1.79999 -0.00587914 0
M  V30 4003 H 366.092 0.701038 -0.272121 0
M  V30 4004 H 368.063 2.35685 -1.83017 0
M  V30 4005 C 366.812 3.45019 -0.430962 0
M  V30 4006 H 366.135 3.8071 -1.22064 0
M  V30 4007 H 367.575 4.23125 -0.272301 0
M  V30 4008 C 366.034 3.25943 0.852207 0
M  V30 4009 O 366.564 3.5296 1.91786 0
M  V30 4010 N 364.77 2.79304 0.802346 0
M  V30 4011 H 364.317 2.57518 -0.0650788 0
M  V30 4012 H 364.275 2.66921 1.66134 0
M  V30 4013 N 368.047 0.979072 1.23499 0
M  V30 4014 C 369.458 0.684391 1.73704 0
M  V30 4015 C 369.809 -0.799448 1.79174 0
M  V30 4016 O 368.934 -1.62531 1.42873 0
M  V30 4017 C 369.529 1.23564 3.15464 0
M  V30 4018 C 368.088 0.99063 3.6313 0
M  V30 4019 C 367.235 1.36416 2.41425 0
M  V30 4020 H 370.186 1.15307 1.09041 0
M  V30 4021 H 370.207 0.607417 3.7562 0
M  V30 4022 H 369.719 2.31561 3.1145 0
M  V30 4023 H 367.82 -0.0733136 3.72528 0
M  V30 4024 H 367.933 1.64427 4.5 0
M  V30 4025 H 366.297 0.782616 2.42378 0
M  V30 4026 H 367.08 2.45387 2.40083 0
M  V30 4027 N 369.525 -1.3858 0.750561 0
M  V30 4028 C 370.75 -2.04997 0.314812 0
M  V30 4029 C 371.175 -1.56235 -1.04749 0
M  V30 4030 O 370.533 -0.712981 -1.66692 0
M  V30 4031 C 370.581 -3.58961 0.343415 0
M  V30 4032 O 369.685 -4.07025 -0.663628 0
M  V30 4033 H 369.026 -0.649081 0.139962 0
M  V30 4034 H 371.556 -1.77313 1.02084 0
M  V30 4035 H 371.566 -4.07542 0.193233 0
M  V30 4036 H 370.241 -3.93811 1.33738 0
M  V30 4037 H 368.818 -3.6982 -0.478307 0
M  V30 4038 N 371.003 -0.499398 -1.49478 0
M  V30 4039 C 372.249 0.0457576 -2.02748 0
M  V30 4040 C 372.582 1.36793 -1.37846 0
M  V30 4041 O 371.857 1.87596 -0.513601 0
M  V30 4042 C 372.14 0.199986 -3.59544 0
M  V30 4043 C 371.993 -1.1452 -4.34977 0
M  V30 4044 C 373.312 0.94137 -4.29914 0
M  V30 4045 H 370.431 0.0151552 -0.736844 0
M  V30 4046 H 373.073 -0.650498 -1.78518 0
M  V30 4047 H 371.223 0.793007 -3.8032 0
M  V30 4048 H 372.895 -1.77697 -4.25701 0
M  V30 4049 H 371.138 -1.73488 -3.97598 0
M  V30 4050 H 371.809 -0.990607 -5.43039 0
M  V30 4051 H 374.285 0.43844 -4.13784 0
M  V30 4052 H 373.161 1.01812 -5.39375 0
M  V30 4053 H 373.422 1.98471 -3.95046 0
M  V30 4054 N 372.481 1.55866 -0.233164 0
M  V30 4055 C 373.73 1.97779 0.39579 0
M  V30 4056 C 374.043 1.12419 1.60066 0
M  V30 4057 O 375.249 1.44283 2.29988 0
M  V30 4058 C 373.705 3.5188 0.755556 0
M  V30 4059 C 373.313 4.45959 -0.427152 0
M  V30 4060 C 375.057 4.02479 1.34946 0
M  V30 4061 C 372.964 5.91383 -0.0443043 0
M  V30 4062 H 371.894 0.738592 0.15165 0
M  V30 4063 H 374.545 1.80486 -0.331212 0
M  V30 4064 H 372.927 3.64816 1.5403 0
M  V30 4065 H 374.101 4.44776 -1.20462 0
M  V30 4066 H 372.416 4.05765 -0.935068 0
M  V30 4067 H 375.013 5.08637 1.649 0
M  V30 4068 H 375.356 3.49014 2.26925 0
M  V30 4069 H 375.889 3.92813 0.62791 0
M  V30 4070 H 372.628 6.48857 -0.930874 0
M  V30 4071 H 372.148 5.95734 0.697238 0
M  V30 4072 H 373.827 6.45893 0.378334 0
M  V30 4073 N 373.959 -0.0401083 1.57549 0
M  V30 4074 C 375.184 -0.748931 1.93406 0
M  V30 4075 C 375.609 -1.68686 0.832274 0
M  V30 4076 O 374.967 -1.80047 -0.212818 0
M  V30 4077 C 375.015 -1.4916 3.28304 0
M  V30 4078 O 374.119 -2.6042 3.19774 0
M  V30 4079 H 373.46 -0.202212 0.63246 0
M  V30 4080 H 375.99 0.00112086 2.046 0
M  V30 4081 H 376 -1.86395 3.62934 0
M  V30 4082 H 374.675 -0.80364 4.08062 0
M  V30 4083 H 373.252 -2.25808 2.96758 0
M  V30 4084 N 375.437 -1.54477 -0.31217 0
M  V30 4085 C 376.367 -1.87652 -1.38957 0
M  V30 4086 C 377.348 -0.734358 -1.53431 0
M  V30 4087 O 378.533 -0.98911 -1.67123 0
M  V30 4088 C 375.663 -2.11396 -2.75552 0
M  V30 4089 C 374.617 -3.27243 -2.75855 0
M  V30 4090 C 373.943 -3.36382 -4.15633 0
M  V30 4091 C 375.243 -4.64622 -2.38587 0
M  V30 4092 H 376.937 -2.77887 -1.11442 0
M  V30 4093 H 374.483 -1.33707 -0.534655 0
M  V30 4094 H 376.436 -2.33189 -3.51 0
M  V30 4095 H 375.16 -1.17921 -3.04569 0
M  V30 4096 H 373.819 -3.05356 -2.02863 0
M  V30 4097 H 373.467 -2.40445 -4.41809 0
M  V30 4098 H 373.167 -4.14249 -4.1674 0
M  V30 4099 H 374.691 -3.60422 -4.92877 0
M  V30 4100 H 376.105 -4.86219 -3.03749 0
M  V30 4101 H 374.502 -5.45121 -2.50925 0
M  V30 4102 H 375.572 -4.66097 -1.33723 0
M  V30 4103 N 376.915 0.57481 -1.46744 0
M  V30 4104 C 377.845 1.69337 -1.60771 0
M  V30 4105 C 378.826 1.63825 -0.457736 0
M  V30 4106 O 380.011 1.8172 -0.684947 0
M  V30 4107 C 377.141 3.0798 -1.60517 0
M  V30 4108 C 376.095 3.28327 -2.74564 0
M  V30 4109 C 375.421 4.67578 -2.59373 0
M  V30 4110 C 376.721 3.15398 -4.16319 0
M  V30 4111 H 378.415 1.57853 -2.54407 0
M  V30 4112 H 375.961 0.75799 -1.22436 0
M  V30 4113 H 377.914 3.86061 -1.68923 0
M  V30 4114 H 376.638 3.20381 -0.634305 0
M  V30 4115 H 375.297 2.52649 -2.65639 0
M  V30 4116 H 374.945 4.76755 -1.60353 0
M  V30 4117 H 374.645 4.82144 -3.35873 0
M  V30 4118 H 376.169 5.47817 -2.69682 0
M  V30 4119 H 377.583 3.83315 -4.26313 0
M  V30 4120 H 375.98 3.41482 -4.93468 0
M  V30 4121 H 377.05 2.12372 -4.3592 0
M  V30 4122 N 378.394 1.34581 0.820102 0
M  V30 4123 C 379.341 1.2639 1.93117 0
M  V30 4124 C 380.311 0.138554 1.65521 0
M  V30 4125 O 381.496 0.320004 1.88097 0
M  V30 4126 C 378.636 1.02812 3.29429 0
M  V30 4127 C 377.749 2.24146 3.693 0
M  V30 4128 C 376.884 1.93829 4.94574 0
M  V30 4129 C 375.923 3.1129 5.27034 0
M  V30 4130 N 375.06 2.80838 6.43486 0
M  V30 4131 H 379.9 2.21408 1.99455 0
M  V30 4132 H 377.437 1.10077 0.975784 0
M  V30 4133 H 379.395 0.871788 4.0799 0
M  V30 4134 H 378.025 0.114612 3.22596 0
M  V30 4135 H 377.077 2.50691 2.86109 0
M  V30 4136 H 378.389 3.11899 3.89257 0
M  V30 4137 H 377.543 1.74948 5.80929 0
M  V30 4138 H 376.282 1.03341 4.76626 0
M  V30 4139 H 375.287 3.30764 4.39175 0
M  V30 4140 H 376.512 4.02561 5.4692 0
M  V30 4141 H 374.458 1.92929 6.26988 0
M  V30 4142 H 374.375 3.62123 6.63629 0
M  V30 4143 H 375.643 2.65467 7.32903 0
M  V30 4144 N 379.872 -1.04064 1.18357 0
M  V30 4145 C 380.822 -2.10393 0.878561 0
M  V30 4146 C 381.806 -1.60183 -0.151713 0
M  V30 4147 O 382.998 -1.76923 0.0523303 0
M  V30 4148 C 380.127 -3.4089 0.406096 0
M  V30 4149 C 379.213 -3.97866 1.46844 0
M  V30 4150 N 379.604 -4.28657 2.68489 0
M  V30 4151 C 377.902 -4.2574 1.32896 0
M  V30 4152 C 378.603 -4.74253 3.36836 0
M  V30 4153 N 377.579 -4.75068 2.64219 0
M  V30 4154 H 381.381 -2.32076 1.80327 0
M  V30 4155 H 378.895 -1.21818 1.07397 0
M  V30 4156 H 380.892 -4.16557 0.169088 0
M  V30 4157 H 379.552 -3.20633 -0.512275 0
M  V30 4158 H 380.563 -4.18304 3.05356 0
M  V30 4159 H 377.24 -4.1481 0.473134 0
M  V30 4160 H 378.63 -5.07096 4.40798 0
M  V30 4161 N 381.35 -0.985608 -1.22978 0
M  V30 4162 C 382.283 -0.47487 -2.23204 0
M  V30 4163 C 383.261 0.460865 -1.55932 0
M  V30 4164 O 384.445 0.388105 -1.84461 0
M  V30 4165 C 381.572 0.312427 -3.37256 0
M  V30 4166 C 380.618 -0.568219 -4.22698 0
M  V30 4167 S 381.451 -2.01919 -4.95973 0
M  V30 4168 C 382.607 -1.24118 -6.1347 0
M  V30 4169 H 382.84 -1.32419 -2.66181 0
M  V30 4170 H 380.373 -0.792005 -1.32539 0
M  V30 4171 H 382.331 0.760645 -4.03391 0
M  V30 4172 H 380.992 1.13693 -2.92801 0
M  V30 4173 H 380.185 0.0371657 -5.03986 0
M  V30 4174 H 379.787 -0.952897 -3.61657 0
M  V30 4175 H 382.079 -0.505121 -6.75614 0
M  V30 4176 H 383.022 -2.02907 -6.78406 0
M  V30 4177 H 383.43 -0.757669 -5.59392 0
M  V30 4178 N 382.828 1.3818 -0.7579 0
M  V30 4179 C 383.758 2.33027 -0.148597 0
M  V30 4180 C 384.739 1.55085 0.69875 0
M  V30 4181 O 385.924 1.83384 0.639053 0
M  V30 4182 C 383.054 3.3928 0.742034 0
M  V30 4183 C 382.008 4.28 -0.00291946 0
M  V30 4184 C 381.334 5.25146 1.00625 0
M  V30 4185 C 382.634 5.08938 -1.17385 0
M  V30 4186 H 384.328 2.84231 -0.940909 0
M  V30 4187 H 381.874 1.36659 -0.453908 0
M  V30 4188 H 383.827 4.046 1.17799 0
M  V30 4189 H 382.551 2.86569 1.56671 0
M  V30 4190 H 381.21 3.64192 -0.419504 0
M  V30 4191 H 380.858 4.68721 1.8251 0
M  V30 4192 H 380.558 5.85361 0.512428 0
M  V30 4193 H 382.082 5.93342 1.44143 0
M  V30 4194 H 383.496 5.67474 -0.815224 0
M  V30 4195 H 381.893 5.7841 -1.59882 0
M  V30 4196 H 382.963 4.42424 -1.98468 0
M  V30 4197 N 384.306 0.507319 1.49211 0
M  V30 4198 C 385.238 -0.304532 2.27168 0
M  V30 4199 C 386.251 -0.924956 1.33972 0
M  V30 4200 O 387.44 -0.807227 1.59205 0
M  V30 4201 C 384.54 -1.44431 3.06583 0
M  V30 4202 C 383.713 -0.930026 4.27398 0
M  V30 4203 C 382.772 -1.94817 4.88807 0
M  V30 4204 O 381.798 -1.51418 5.4869 0
M  V30 4205 N 383 -3.279 4.79022 0
M  V30 4206 H 385.765 0.36395 2.97482 0
M  V30 4207 H 383.326 0.340249 1.58284 0
M  V30 4208 H 385.318 -2.12311 3.44537 0
M  V30 4209 H 383.888 -2.01684 2.38835 0
M  V30 4210 H 383.108 -0.0759244 3.94127 0
M  V30 4211 H 384.396 -0.564932 5.05654 0
M  V30 4212 H 383.794 -3.65843 4.3148 0
M  V30 4213 H 382.351 -3.91476 5.21142 0
M  V30 4214 N 385.784 -1.5574 0.241426 0
M  V30 4215 C 387.03 -1.99104 -0.385406 0
M  V30 4216 C 387.363 -1.1293 -1.57988 0
M  V30 4217 O 386.638 -0.191449 -1.93555 0
M  V30 4218 C 386.921 -3.51087 -0.800616 0
M  V30 4219 C 386.774 -4.48028 0.398874 0
M  V30 4220 C 388.093 -4.08015 -1.64959 0
M  V30 4221 H 385.212 -0.723848 -0.138614 0
M  V30 4222 H 387.854 -1.86903 0.341642 0
M  V30 4223 H 386.004 -3.61615 -1.4201 0
M  V30 4224 H 387.676 -4.49487 1.03726 0
M  V30 4225 H 385.919 -4.21077 1.04293 0
M  V30 4226 H 386.59 -5.51962 0.0651056 0
M  V30 4227 H 389.066 -4.00555 -1.12672 0
M  V30 4228 H 387.942 -5.14635 -1.90898 0
M  V30 4229 H 388.203 -3.56131 -2.61961 0
M  V30 4230 N 387.262 0.0317525 -1.57568 0
M  V30 4231 C 388.539 0.758366 -1.803 0
M  V30 4232 C 388.919 1.93718 -0.838845 0
M  V30 4233 O 388.267 2.28187 0.119571 0
M  V30 4234 C 388.477 1.19392 -3.27943 0
M  V30 4235 C 389.825 1.61094 -3.92854 0
M  V30 4236 O 390.849 1.28857 -3.32076 0
M  V30 4237 O 389.708 2.20918 -4.99858 0
M  V30 4238 H 386.802 0.366514 -0.741348 0
M  V30 4239 H 389.348 0.00873765 -1.69698 0
M  V30 4240 H 388.12 0.352275 -3.89711 0
M  V30 4241 H 387.743 2.00365 -3.43424 0
M  V30 4242 N 388.74 1.54641 0.303973 0
M  V30 4243 C 390.151 1.64811 0.877163 0
M  V30 4244 C 390.502 0.554838 1.88191 0
M  V30 4245 O 389.627 -0.309033 2.14182 0
M  V30 4246 C 390.222 2.9876 1.59775 0
M  V30 4247 C 388.781 3.11061 2.11938 0
M  V30 4248 C 387.928 2.60479 0.951097 0
M  V30 4249 H 390.879 1.58493 0.0810486 0
M  V30 4250 H 390.9 2.90017 2.46314 0
M  V30 4251 H 390.412 3.7831 0.866226 0
M  V30 4252 H 388.513 2.36225 2.88146 0
M  V30 4253 H 388.626 4.17171 2.35595 0
M  V30 4254 H 386.99 2.16859 1.33583 0
M  V30 4255 H 387.773 3.42504 0.233581 0
M  V30 4256 N 390.218 -0.567019 1.47046 0
M  V30 4257 C 391.151 -1.69016 1.53326 0
M  V30 4258 C 392.129 -1.57949 0.386126 0
M  V30 4259 O 393.313 -1.78945 0.592529 0
M  V30 4260 C 390.44 -3.07191 1.42658 0
M  V30 4261 C 389.486 -3.36733 2.6175 0
M  V30 4262 S 390.319 -3.27069 4.24012 0
M  V30 4263 C 391.475 -4.67755 4.1588 0
M  V30 4264 H 391.708 -1.63434 2.48348 0
M  V30 4265 H 389.241 -0.747048 1.35124 0
M  V30 4266 H 391.199 -3.86897 1.37191 0
M  V30 4267 H 389.86 -3.10249 0.490369 0
M  V30 4268 H 389.053 -4.37441 2.50323 0
M  V30 4269 H 388.655 -2.64627 2.64289 0
M  V30 4270 H 390.947 -5.58491 3.83529 0
M  V30 4271 H 391.89 -4.84239 5.16641 0
M  V30 4272 H 392.298 -4.45341 3.46889 0
M  V30 4273 N 391.696 -1.35014 -0.812953 0
M  V30 4274 C 392.643 -1.27412 -1.92444 0
M  V30 4275 C 393.613 -0.14733 -1.65445 0
M  V30 4276 O 394.798 -0.329974 -1.87925 0
M  V30 4277 C 391.938 -1.04558 -3.28879 0
M  V30 4278 C 391.051 -2.26101 -3.68106 0
M  V30 4279 C 390.186 -1.96449 -4.9354 0
M  V30 4280 C 389.225 -3.14081 -5.25376 0
M  V30 4281 N 388.362 -2.84246 -6.41988 0
M  V30 4282 H 393.202 -2.22463 -1.98278 0
M  V30 4283 H 390.739 -1.10593 -0.969933 0
M  V30 4284 H 392.697 -0.893413 -4.07522 0
M  V30 4285 H 391.327 -0.131719 -3.22531 0
M  V30 4286 H 390.379 -2.52204 -2.84775 0
M  V30 4287 H 391.691 -3.13959 -3.87597 0
M  V30 4288 H 390.845 -1.78026 -5.79993 0
M  V30 4289 H 389.584 -1.05867 -4.76071 0
M  V30 4290 H 388.589 -3.33089 -4.37415 0
M  V30 4291 H 389.814 -4.05455 -5.44778 0
M  V30 4292 H 387.76 -1.96252 -6.25956 0
M  V30 4293 H 387.677 -3.65637 -6.61699 0
M  V30 4294 H 388.945 -2.6935 -7.31485 0
M  V30 4295 N 393.175 1.03435 -1.18907 0
M  V30 4296 C 394.591 1.28973 -0.940111 0
M  V30 4297 C 394.791 1.97676 0.390691 0
M  V30 4298 O 393.847 2.26127 1.12352 0
M  V30 4299 C 395.16 2.14221 -2.11021 0
M  V30 4300 C 396.708 2.27547 -2.14922 0
M  V30 4301 C 397.183 3.16164 -3.31367 0
M  V30 4302 N 398.674 3.23752 -3.31269 0
M  V30 4303 C 399.409 3.92495 -4.18014 0
M  V30 4304 N 398.905 4.63515 -5.14904 0
M  V30 4305 N 400.698 3.88838 -4.05908 0
M  V30 4306 H 392.849 0.57252 -2.04538 0
M  V30 4307 H 395.112 0.315184 -0.894071 0
M  V30 4308 H 394.818 1.71054 -3.073 0
M  V30 4309 H 394.692 3.14919 -2.0762 0
M  V30 4310 H 397.079 2.69947 -1.19217 0
M  V30 4311 H 397.16 1.26418 -2.22378 0
M  V30 4312 H 396.804 2.74474 -4.27348 0
M  V30 4313 H 396.734 4.17339 -3.21148 0
M  V30 4314 H 399.225 2.73167 -2.61129 0
M  V30 4315 H 399.538 5.13583 -5.77453 0
M  V30 4316 H 397.883 4.62398 -5.18857 0
M  V30 4317 H 401.074 3.32491 -3.29495 0
M  V30 4318 H 401.247 4.4214 -4.73726 0
M  V30 4319 N 394.653 0.992116 1.22453 0
M  V30 4320 C 395.616 0.546883 2.2258 0
M  V30 4321 C 396.616 -0.369829 1.56489 0
M  V30 4322 O 397.806 -0.161896 1.73446 0
M  V30 4323 C 394.938 -0.204659 3.40285 0
M  V30 4324 H 396.131 1.43234 2.63484 0
M  V30 4325 H 393.684 0.779239 1.3549 0
M  V30 4326 H 394.419 -1.10614 3.04853 0
M  V30 4327 H 394.204 0.45354 3.89468 0
M  V30 4328 H 395.694 -0.504358 4.14543 0
M  V30 4329 N 396.131 -1.37776 0.765217 0
M  V30 4330 C 397.359 -2.04124 0.337767 0
M  V30 4331 C 397.774 -1.57715 -1.03785 0
M  V30 4332 O 397.131 -0.755447 -1.6613 0
M  V30 4333 C 397.182 -3.59658 0.364442 0
M  V30 4334 O 396.903 -4.04367 1.68579 0
M  V30 4335 C 398.404 -4.43236 -0.0754221 0
M  V30 4336 H 395.624 -0.655696 0.142491 0
M  V30 4337 H 398.168 -1.76238 1.03732 0
M  V30 4338 H 396.323 -3.86339 -0.286471 0
M  V30 4339 H 396.737 -4.98857 1.61993 0
M  V30 4340 H 398.211 -5.52 -0.00560067 0
M  V30 4341 H 398.688 -4.2455 -1.12491 0
M  V30 4342 H 399.294 -4.21767 0.547055 0
M  V30 4343 N 397.609 -0.515225 -1.4894 0
M  V30 4344 C 398.858 0.0261361 -2.01683 0
M  V30 4345 C 399.171 1.36719 -1.39883 0
M  V30 4346 O 400.377 1.99606 -1.84037 0
M  V30 4347 C 398.833 0.0970111 -3.59769 0
M  V30 4348 C 398.441 -1.23825 -4.30548 0
M  V30 4349 C 400.185 0.587981 -4.20408 0
M  V30 4350 C 398.092 -1.12877 -5.80528 0
M  V30 4351 H 397.022 0.0135398 -0.753878 0
M  V30 4352 H 399.673 -0.656787 -1.71343 0
M  V30 4353 H 398.055 0.844694 -3.86886 0
M  V30 4354 H 399.229 -2.00034 -4.15118 0
M  V30 4355 H 397.544 -1.66379 -3.81716 0
M  V30 4356 H 400.141 0.68763 -5.3026 0
M  V30 4357 H 400.484 1.59026 -3.84729 0
M  V30 4358 H 401.017 -0.103582 -3.97665 0
M  V30 4359 H 397.756 -2.10575 -6.20756 0
M  V30 4360 H 397.276 -0.407799 -5.98412 0
M  V30 4361 H 398.955 -0.813332 -6.41868 0
M  V30 4362 N 399.087 1.5561 -0.249682 0
M  V30 4363 C 400.034 2.21496 0.648694 0
M  V30 4364 C 401.004 1.17977 1.16921 0
M  V30 4365 O 402.189 1.46434 1.22318 0
M  V30 4366 C 399.329 2.92039 1.83868 0
M  V30 4367 C 398.442 4.10219 1.35442 0
M  V30 4368 C 397.577 4.6847 2.50419 0
M  V30 4369 C 396.616 5.78893 1.98869 0
M  V30 4370 N 395.753 6.31315 3.07223 0
M  V30 4371 H 400.593 2.97892 0.0801582 0
M  V30 4372 H 398.13 1.47074 0.0278031 0
M  V30 4373 H 400.088 3.31138 2.53778 0
M  V30 4374 H 398.718 2.18111 2.37965 0
M  V30 4375 H 397.77 3.76413 0.54928 0
M  V30 4376 H 399.082 4.89927 0.936649 0
M  V30 4377 H 398.236 5.10158 3.28366 0
M  V30 4378 H 396.975 3.87984 2.95499 0
M  V30 4379 H 395.98 5.3668 1.19393 0
M  V30 4380 H 397.205 6.61232 1.54755 0
M  V30 4381 H 395.151 5.53733 3.51732 0
M  V30 4382 H 395.068 7.06224 2.69784 0
M  V30 4383 H 396.336 6.77662 3.8522 0
M  V30 4384 N 400.565 -0.0233959 1.57583 0
M  V30 4385 C 401.842 -0.748794 1.807 0
M  V30 4386 C 402.222 -1.9327 0.849106 0
M  V30 4387 O 401.57 -2.28247 -0.107468 0
M  V30 4388 C 401.78 -1.17651 3.28571 0
M  V30 4389 C 403.128 -1.59008 3.93702 0
M  V30 4390 O 404.152 -1.27094 3.32755 0
M  V30 4391 O 403.011 -2.18264 5.01022 0
M  V30 4392 H 400.105 -0.362578 0.743281 0
M  V30 4393 H 402.651 0.000261958 1.697 0
M  V30 4394 H 401.423 -0.331603 3.89892 0
M  V30 4395 H 401.046 -1.98541 3.44481 0
M  V30 4396 N 402.043 -1.548 -0.295768 0
M  V30 4397 C 403.292 -1.73538 -1.02798 0
M  V30 4398 C 403.605 -0.531159 -1.8825 0
M  V30 4399 O 404.811 -0.600458 -2.64777 0
M  V30 4400 C 403.267 -3.07051 -1.87744 0
M  V30 4401 C 402.875 -4.34968 -1.07269 0
M  V30 4402 C 404.619 -3.35146 -2.60533 0
M  V30 4403 C 402.526 -5.5953 -1.91521 0
M  V30 4404 H 401.456 -0.646794 -0.387522 0
M  V30 4405 H 404.107 -1.81278 -0.284718 0
M  V30 4406 H 402.489 -2.93289 -2.66078 0
M  V30 4407 H 403.663 -4.5958 -0.335117 0
M  V30 4408 H 401.978 -4.13847 -0.460384 0
M  V30 4409 H 404.575 -4.2541 -3.23929 0
M  V30 4410 H 404.918 -2.54255 -3.29636 0
M  V30 4411 H 405.451 -3.49902 -1.89244 0
M  V30 4412 H 402.19 -6.43103 -1.26878 0
M  V30 4413 H 401.71 -5.39096 -2.62937 0
M  V30 4414 H 403.389 -5.96982 -2.49442 0
M  V30 4415 N 403.521 0.559213 -1.47345 0
M  V30 4416 C 404.937 0.884943 -1.32819 0
M  V30 4417 C 405.137 1.98988 -0.317173 0
M  V30 4418 O 404.193 2.51031 0.272011 0
M  V30 4419 C 405.506 1.28007 -2.72093 0
M  V30 4420 C 407.054 1.39161 -2.80363 0
M  V30 4421 C 407.529 1.82031 -4.20272 0
M  V30 4422 N 409.02 1.89185 -4.22804 0
M  V30 4423 C 409.755 2.2368 -5.27973 0
M  V30 4424 N 409.251 2.56802 -6.43447 0
M  V30 4425 N 411.044 2.24436 -5.15349 0
M  V30 4426 H 403.195 -0.170304 -2.11716 0
M  V30 4427 H 405.458 -0.0135247 -0.947904 0
M  V30 4428 H 405.164 0.542027 -3.47498 0
M  V30 4429 H 405.038 2.23665 -3.03733 0
M  V30 4430 H 407.425 2.12048 -2.05231 0
M  V30 4431 H 407.506 0.41696 -2.52379 0
M  V30 4432 H 407.15 1.09715 -4.95908 0
M  V30 4433 H 407.08 2.80495 -4.45679 0
M  V30 4434 H 409.571 1.65982 -3.39497 0
M  V30 4435 H 409.884 2.82144 -7.19454 0
M  V30 4436 H 408.229 2.54387 -6.46771 0
M  V30 4437 H 411.42 1.97998 -4.24163 0
M  V30 4438 H 411.593 2.50989 -5.97418 0
M  V30 4439 N 404.999 1.35443 0.805782 0
M  V30 4440 C 405.909 1.30546 1.94923 0
M  V30 4441 C 406.925 0.210233 1.72725 0
M  V30 4442 O 408.101 0.43975 1.9654 0
M  V30 4443 C 405.166 1.07782 3.29521 0
M  V30 4444 C 404.227 2.26625 3.64609 0
M  V30 4445 C 403.46 2.04938 4.92784 0
M  V30 4446 O 403.683 1.01624 5.61274 0
M  V30 4447 O 402.617 2.9232 5.26149 0
M  V30 4448 H 406.443 2.26779 2.02002 0
M  V30 4449 H 404.028 1.15823 0.943682 0
M  V30 4450 H 405.91 0.969392 4.10098 0
M  V30 4451 H 404.585 0.146003 3.23371 0
M  V30 4452 H 403.492 2.43033 2.84404 0
M  V30 4453 H 404.825 3.18257 3.75464 0
M  V30 4454 N 406.477 -1.02803 1.19454 0
M  V30 4455 C 407.427 -2.0945 0.900827 0
M  V30 4456 C 408.411 -1.60335 -0.134715 0
M  V30 4457 O 409.603 -1.76857 0.0710924 0
M  V30 4458 C 406.732 -3.4044 0.442229 0
M  V30 4459 C 405.818 -3.96286 1.51056 0
M  V30 4460 N 406.209 -4.25785 2.73021 0
M  V30 4461 C 404.507 -4.24307 1.37404 0
M  V30 4462 C 405.208 -4.70654 3.41848 0
M  V30 4463 N 404.184 -4.72238 2.69243 0
M  V30 4464 H 407.986 -2.3015 1.82779 0
M  V30 4465 H 405.5 -1.20672 1.08683 0
M  V30 4466 H 407.497 -4.16354 0.21326 0
M  V30 4467 H 406.157 -3.21159 -0.478238 0
M  V30 4468 H 407.168 -4.15041 3.09776 0
M  V30 4469 H 403.845 -4.14285 0.517103 0
M  V30 4470 H 405.235 -5.02392 4.46152 0
M  V30 4471 N 407.956 -0.998596 -1.21925 0
M  V30 4472 C 408.866 -0.562736 -2.27751 0
M  V30 4473 C 409.882 0.391203 -1.69545 0
M  V30 4474 O 411.058 0.256625 -1.99758 0
M  V30 4475 C 408.123 0.11012 -3.46525 0
M  V30 4476 C 407.184 -0.887495 -4.20026 0
M  V30 4477 C 406.417 -0.246654 -5.3313 0
M  V30 4478 O 406.64 0.958088 -5.62296 0
M  V30 4479 O 405.574 -0.954374 -5.94286 0
M  V30 4480 H 409.4 -1.44329 -2.67213 0
M  V30 4481 H 406.985 -0.767135 -1.28201 0
M  V30 4482 H 408.867 0.486756 -4.18579 0
M  V30 4483 H 407.542 0.965154 -3.08976 0
M  V30 4484 H 406.449 -1.31517 -3.5022 0
M  V30 4485 H 407.782 -1.71191 -4.6147 0
M  V30 4486 N 409.434 1.37368 -0.772513 0
M  V30 4487 C 410.68 2.00423 -0.3467 0
M  V30 4488 C 411.035 1.60224 1.06518 0
M  V30 4489 O 410.328 0.838712 1.72268 0
M  V30 4490 C 410.522 3.54817 -0.428876 0
M  V30 4491 C 410.351 4.10011 -1.84719 0
M  V30 4492 C 409.121 4.40927 -2.46803 0
M  V30 4493 C 411.319 4.30955 -2.80681 0
M  V30 4494 N 409.301 4.8184 -3.80399 0
M  V30 4495 C 410.672 4.74486 -3.99078 0
M  V30 4496 C 412.727 4.1309 -2.77958 0
M  V30 4497 C 411.43 5.02023 -5.15136 0
M  V30 4498 C 413.456 4.41764 -3.9319 0
M  V30 4499 C 412.818 4.85535 -5.10328 0
M  V30 4500 H 408.917 0.762413 -0.173927 0
M  V30 4501 H 411.501 1.66666 -1.00651 0
M  V30 4502 H 409.672 3.87881 0.200757 0
M  V30 4503 H 411.404 4.04696 0.0190668 0
M  V30 4504 H 408.159 4.30033 -1.98415 0
M  V30 4505 H 408.583 5.06604 -4.49089 0
M  V30 4506 H 413.225 3.7842 -1.88568 0
M  V30 4507 H 410.943 5.35582 -6.05126 0
M  V30 4508 H 414.529 4.29528 -3.92425 0
M  V30 4509 H 413.409 5.07296 -5.98013 0
M  V30 4510 N 410.912 0.523116 1.48665 0
M  V30 4511 C 412.159 -0.0134763 2.02496 0
M  V30 4512 C 412.487 -1.3493 1.40086 0
M  V30 4513 O 411.742 -1.88286 0.533567 0
M  V30 4514 C 412.041 -0.191671 3.56886 0
M  V30 4515 C 411.707 1.06893 4.38046 0
M  V30 4516 C 410.369 1.41443 4.59943 0
M  V30 4517 C 412.721 1.90584 4.85106 0
M  V30 4518 C 410.049 2.59594 5.26144 0
M  V30 4519 C 412.401 3.07907 5.52609 0
M  V30 4520 C 411.065 3.42811 5.72745 0
M  V30 4521 H 410.335 -0.00493133 0.740984 0
M  V30 4522 H 412.982 0.687751 1.78724 0
M  V30 4523 H 411.287 -0.97561 3.79459 0
M  V30 4524 H 412.984 -0.621659 3.96152 0
M  V30 4525 H 409.574 0.789848 4.21259 0
M  V30 4526 H 413.758 1.65203 4.67997 0
M  V30 4527 H 409.014 2.86847 5.39934 0
M  V30 4528 H 413.188 3.73066 5.88043 0
M  V30 4529 H 410.815 4.34462 6.23816 0
M  V30 4530 N 412.39 -1.55475 0.257931 0
M  V30 4531 C 413.337 -2.21837 -0.636939 0
M  V30 4532 C 414.307 -1.18596 -1.16294 0
M  V30 4533 O 415.492 -1.47081 -1.21539 0
M  V30 4534 C 412.632 -2.9301 -1.82317 0
M  V30 4535 C 411.745 -4.10931 -1.33265 0
M  V30 4536 C 410.88 -4.69791 -2.47931 0
M  V30 4537 C 409.919 -5.7994 -1.95796 0
M  V30 4538 N 409.056 -6.32935 -3.0387 0
M  V30 4539 H 413.896 -2.9793 -0.0643591 0
M  V30 4540 H 411.433 -1.47086 -0.0200031 0
M  V30 4541 H 413.391 -3.3248 -2.52018 0
M  V30 4542 H 412.021 -2.1937 -2.36805 0
M  V30 4543 H 411.073 -3.76699 -0.52931 0
M  V30 4544 H 412.385 -4.90417 -0.910654 0
M  V30 4545 H 411.539 -5.11892 -3.25656 0
M  V30 4546 H 410.278 -3.89545 -2.93438 0
M  V30 4547 H 409.283 -5.37305 -1.16546 0
M  V30 4548 H 410.508 -6.62043 -1.51246 0
M  V30 4549 H 408.454 -5.55591 -3.48791 0
M  V30 4550 H 408.371 -7.07645 -2.66035 0
M  V30 4551 H 409.639 -6.79695 -3.81621 0
M  V30 4552 N 413.868 0.0150385 -1.57593 0
M  V30 4553 C 414.8 1.03912 -2.04291 0
M  V30 4554 C 415.813 1.31618 -0.958146 0
M  V30 4555 O 417.002 1.28859 -1.23522 0
M  V30 4556 C 414.102 2.37749 -2.41514 0
M  V30 4557 C 413.275 2.29198 -3.72541 0
M  V30 4558 C 412.334 3.45598 -3.96797 0
M  V30 4559 O 411.36 3.24461 -4.67668 0
M  V30 4560 N 412.562 4.67945 -3.43523 0
M  V30 4561 H 415.327 0.64099 -2.92765 0
M  V30 4562 H 412.888 0.20272 -1.60626 0
M  V30 4563 H 414.88 3.14364 -2.54867 0
M  V30 4564 H 413.45 2.69357 -1.58637 0
M  V30 4565 H 412.67 1.3759 -3.69408 0
M  V30 4566 H 413.958 2.20642 -4.5847 0
M  V30 4567 H 413.356 4.88017 -2.86104 0
M  V30 4568 H 411.913 5.41878 -3.62232 0
M  V30 4569 N 415.346 1.54954 0.287554 0
M  V30 4570 C 416.623 1.65569 1.04146 0
M  V30 4571 C 417.003 0.512672 2.0478 0
M  V30 4572 O 416.351 -0.489038 2.23205 0
M  V30 4573 C 416.561 3.04163 1.71131 0
M  V30 4574 C 417.909 3.61429 2.22832 0
M  V30 4575 O 418.933 3.06702 1.81141 0
M  V30 4576 O 417.792 4.57281 2.9926 0
M  V30 4577 H 414.886 0.671881 0.482188 0
M  V30 4578 H 417.432 1.67297 0.28457 0
M  V30 4579 H 416.204 3.78796 0.981303 0
M  V30 4580 H 415.827 3.06271 2.53543 0
M  V30 4581 N 416.824 -0.551391 1.4764 0
M  V30 4582 C 417.754 -1.66757 1.63445 0
M  V30 4583 C 418.735 -1.63077 0.483742 0
M  V30 4584 O 419.92 -1.80607 0.71377 0
M  V30 4585 C 417.05 -3.05387 1.65396 0
M  V30 4586 C 416.004 -3.23918 2.79752 0
M  V30 4587 C 415.33 -4.63393 2.66779 0
M  V30 4588 C 416.63 -3.08735 4.21284 0
M  V30 4589 H 418.324 -1.53786 2.56886 0
M  V30 4590 H 415.87 -0.738415 1.23626 0
M  V30 4591 H 417.823 -3.83325 1.75043 0
M  V30 4592 H 416.547 -3.19332 0.685195 0
M  V30 4593 H 415.206 -2.48391 2.69625 0
M  V30 4594 H 414.854 -4.74144 1.67918 0
M  V30 4595 H 414.554 -4.7674 3.43501 0
M  V30 4596 H 416.078 -5.43458 2.78364 0
M  V30 4597 H 417.492 -3.76484 4.32357 0
M  V30 4598 H 415.889 -3.33588 4.98838 0
M  V30 4599 H 416.959 -2.0541 4.39243 0
M  V30 4600 N 418.302 -1.35869 -0.798587 0
M  V30 4601 C 419.713 -1.26498 -1.37314 0
M  V30 4602 C 420.064 0.0991899 -1.95949 0
M  V30 4603 O 419.189 1.0004 -1.91888 0
M  V30 4604 C 419.784 -2.29054 -2.49639 0
M  V30 4605 C 418.343 -2.234 -3.02935 0
M  V30 4606 C 417.49 -2.14329 -1.75949 0
M  V30 4607 H 420.441 -1.46881 -0.600971 0
M  V30 4608 H 420.462 -1.92166 -3.28409 0
M  V30 4609 H 419.974 -3.2833 -2.06933 0
M  V30 4610 H 418.075 -1.27562 -3.50084 0
M  V30 4611 H 418.188 -3.15703 -3.60372 0
M  V30 4612 H 416.552 -1.60435 -1.9782 0
M  V30 4613 H 417.335 -3.15477 -1.35384 0
M  V30 4614 N 419.78 1.02168 -1.19998 0
M  V30 4615 C 420.727 2.10601 -0.944228 0
M  V30 4616 C 421.697 1.65639 0.123664 0
M  V30 4617 O 422.882 1.9079 -0.0199941 0
M  V30 4618 C 420.022 3.41504 -0.496865 0
M  V30 4619 C 419.135 3.99973 -1.63234 0
M  V30 4620 C 418.27 5.18915 -1.13579 0
M  V30 4621 C 417.309 5.69456 -2.24468 0
M  V30 4622 N 416.446 6.79665 -1.76068 0
M  V30 4623 H 421.286 2.31814 -1.8726 0
M  V30 4624 H 418.823 1.13686 -0.933483 0
M  V30 4625 H 420.781 4.16626 -0.218843 0
M  V30 4626 H 419.411 3.2038 0.394508 0
M  V30 4627 H 418.463 3.21997 -2.0254 0
M  V30 4628 H 419.775 4.33492 -2.46752 0
M  V30 4629 H 418.929 6.01222 -0.813429 0
M  V30 4630 H 417.668 4.8695 -0.270434 0
M  V30 4631 H 416.673 4.85757 -2.57526 0
M  V30 4632 H 417.898 6.03459 -3.11472 0
M  V30 4633 H 415.844 6.49538 -0.918516 0
M  V30 4634 H 415.761 7.12349 -2.5317 0
M  V30 4635 H 417.029 7.65549 -1.46817 0
M  V30 4636 N 421.258 1.00505 1.21394 0
M  V30 4637 C 422.488 0.705584 1.94178 0
M  V30 4638 C 422.896 -0.735846 1.74304 0
M  V30 4639 O 422.239 -1.50954 1.04683 0
M  V30 4640 C 422.301 0.94689 3.46806 0
M  V30 4641 C 421.965 2.37517 3.90429 0
M  V30 4642 C 422.962 3.35539 3.97127 0
M  V30 4643 C 420.647 2.71284 4.22742 0
M  V30 4644 C 422.641 4.65395 4.3553 0
M  V30 4645 C 420.328 4.01356 4.60822 0
M  V30 4646 C 421.326 4.98223 4.67186 0
M  V30 4647 O 421.014 6.25969 5.04399 0
M  V30 4648 H 420.746 0.259216 0.624326 0
M  V30 4649 H 423.3 1.34592 1.55159 0
M  V30 4650 H 421.53 0.249386 3.85895 0
M  V30 4651 H 423.219 0.640804 4.0081 0
M  V30 4652 H 423.985 3.10786 3.7234 0
M  V30 4653 H 419.864 1.96581 4.16985 0
M  V30 4654 H 423.408 5.41002 4.40412 0
M  V30 4655 H 419.305 4.25893 4.85063 0
M  V30 4656 H 420.073 6.30085 5.22431 0
M  V30 4657 N 422.737 -1.36956 0.779787 0
M  V30 4658 C 423.667 -2.32761 0.185651 0
M  V30 4659 C 424.648 -1.56177 -0.673989 0
M  V30 4660 O 425.833 -1.84378 -0.609797 0
M  V30 4661 C 422.963 -3.40418 -0.687964 0
M  V30 4662 C 421.917 -4.27941 0.0710102 0
M  V30 4663 C 421.243 -5.26681 -0.922573 0
M  V30 4664 C 422.543 -5.07006 1.25467 0
M  V30 4665 H 424.237 -2.82698 0.986008 0
M  V30 4666 H 421.783 -1.3592 0.475592 0
M  V30 4667 H 423.736 -4.06423 -1.11348 0
M  V30 4668 H 422.46 -2.89025 -1.52093 0
M  V30 4669 H 421.119 -3.63478 0.47739 0
M  V30 4670 H 420.767 -4.71565 -1.7503 0
M  V30 4671 H 420.467 -5.86103 -0.419237 0
M  V30 4672 H 421.991 -5.9556 -1.34686 0
M  V30 4673 H 423.405 -5.66105 0.905401 0
M  V30 4674 H 421.802 -5.75793 1.69063 0
M  V30 4675 H 422.872 -4.3921 2.05481 0
M  V30 4676 N 424.215 -0.530993 -1.48385 0
M  V30 4677 C 425.462 0.0027373 -2.025 0
M  V30 4678 C 425.79 1.34186 -1.40799 0
M  V30 4679 O 425.045 1.88 -0.543544 0
M  V30 4680 C 425.344 0.172742 -3.56982 0
M  V30 4681 C 425.01 -1.09215 -4.37473 0
M  V30 4682 C 423.672 -1.43881 -4.59186 0
M  V30 4683 C 426.024 -1.93153 -4.84088 0
M  V30 4684 C 423.352 -2.62381 -5.2476 0
M  V30 4685 C 425.704 -3.10833 -5.50968 0
M  V30 4686 C 424.368 -3.45843 -5.70919 0
M  V30 4687 H 423.638 0.00100165 -0.740999 0
M  V30 4688 H 426.285 -0.697219 -1.78357 0
M  V30 4689 H 424.59 0.955473 -3.79971 0
M  V30 4690 H 426.287 0.600642 -3.96476 0
M  V30 4691 H 422.877 -0.812177 -4.20834 0
M  V30 4692 H 427.061 -1.67683 -4.67115 0
M  V30 4693 H 422.317 -2.89707 -5.38405 0
M  V30 4694 H 426.491 -3.7618 -5.86056 0
M  V30 4695 H 424.118 -4.37764 -6.21503 0
M  V30 4696 N 425.693 1.55336 -0.266172 0
M  V30 4697 C 427.104 1.85236 0.233315 0
M  V30 4698 C 427.455 1.18816 1.56132 0
M  V30 4699 O 426.58 0.473307 2.11161 0
M  V30 4700 C 427.175 3.36059 0.430113 0
M  V30 4701 C 425.734 3.66116 0.873842 0
M  V30 4702 C 424.881 2.77274 -0.0380016 0
M  V30 4703 H 427.832 1.51004 -0.488214 0
M  V30 4704 H 427.853 3.58681 1.26998 0
M  V30 4705 H 427.365 3.84373 -0.536588 0
M  V30 4706 H 425.466 3.23295 1.85233 0
M  V30 4707 H 425.579 4.73699 0.717358 0
M  V30 4708 H 423.943 2.50198 0.476759 0
M  V30 4709 H 424.726 3.284 -1.00042 0
M  V30 4710 N 427.171 -0.0066808 1.57599 0
M  V30 4711 C 428.081 -1.01671 2.11424 0
M  V30 4712 C 429.097 -1.38143 1.05795 0
M  V30 4713 O 430.273 -1.47011 1.37658 0
M  V30 4714 C 427.338 -2.29192 2.60139 0
M  V30 4715 C 426.399 -1.99094 3.80342 0
M  V30 4716 C 425.632 -3.20535 4.26724 0
M  V30 4717 O 425.855 -4.3199 3.72479 0
M  V30 4718 O 424.789 -3.04924 5.18946 0
M  V30 4719 H 428.615 -0.589181 2.9793 0
M  V30 4720 H 426.2 -0.225091 1.47695 0
M  V30 4721 H 428.082 -3.0412 2.917 0
M  V30 4722 H 426.757 -2.71195 1.76733 0
M  V30 4723 H 425.664 -1.21663 3.53764 0
M  V30 4724 H 426.997 -1.61931 4.648 0
M  V30 4725 N 428.649 -1.55105 -0.279332 0
M  V30 4726 C 429.926 -1.66119 -1.03267 0
M  V30 4727 C 430.306 -0.523525 -2.04505 0
M  V30 4728 O 429.654 0.477194 -2.23462 0
M  V30 4729 C 429.864 -3.05067 -1.69515 0
M  V30 4730 C 431.212 -3.62606 -2.20912 0
M  V30 4731 O 432.236 -3.07659 -1.79512 0
M  V30 4732 O 431.095 -4.58861 -2.96831 0
M  V30 4733 H 428.189 -0.674429 -0.478618 0
M  V30 4734 H 430.735 -1.67446 -0.275694 0
M  V30 4735 H 429.507 -3.79311 -0.9612 0
M  V30 4736 H 429.13 -3.07611 -2.51915 0
M  V30 4737 N 430.127 0.543554 -1.4793 0
M  V30 4738 C 431.538 1.12561 -1.48953 0
M  V30 4739 C 431.889 1.94578 -0.251754 0
M  V30 4740 O 431.014 2.0665 0.642255 0
M  V30 4741 C 431.609 2.04801 -2.69892 0
M  V30 4742 C 430.168 2.58251 -2.73831 0
M  V30 4743 C 429.315 1.34918 -2.42265 0
M  V30 4744 H 432.266 0.32947 -1.55242 0
M  V30 4745 H 432.287 2.88886 -2.47639 0
M  V30 4746 H 431.799 1.4508 -3.59963 0
M  V30 4747 H 429.9 3.21732 -1.87934 0
M  V30 4748 H 430.013 2.98312 -3.74895 0
M  V30 4749 H 428.377 1.66046 -1.93134 0
M  V30 4750 H 429.16 0.769693 -3.3456 0
M  V30 4751 N 431.605 1.3629 0.791371 0
M  V30 4752 C 432.83 1.33726 1.58531 0
M  V30 4753 C 433.255 -0.0794933 1.87932 0
M  V30 4754 O 432.613 -1.05087 1.47738 0
M  V30 4755 C 432.661 2.16425 2.88431 0
M  V30 4756 O 431.765 1.5554 3.81944 0
M  V30 4757 H 431.106 0.457793 0.480959 0
M  V30 4758 H 433.636 1.79547 0.981031 0
M  V30 4759 H 433.646 2.28933 3.37718 0
M  V30 4760 H 432.321 3.19415 2.66359 0
M  V30 4761 H 430.898 1.51961 3.40532 0
M  V30 4762 N 433.083 -1.0153 1.20538 0
M  V30 4763 C 434.313 -1.78487 1.04048 0
M  V30 4764 C 434.721 -1.84631 -0.413292 0
M  V30 4765 O 434.064 -1.29919 -1.29872 0
M  V30 4766 C 434.126 -3.24367 1.55003 0
M  V30 4767 C 433.79 -3.41827 3.0332 0
M  V30 4768 C 434.787 -3.30941 4.00966 0
M  V30 4769 C 432.472 -3.67602 3.42307 0
M  V30 4770 C 434.466 -3.45577 5.35589 0
M  V30 4771 C 432.153 -3.81881 4.77085 0
M  V30 4772 C 433.151 -3.70874 5.73534 0
M  V30 4773 O 432.839 -3.84714 7.05868 0
M  V30 4774 H 432.571 -0.568108 0.366373 0
M  V30 4775 H 435.125 -1.28677 1.60098 0
M  V30 4776 H 433.355 -3.75266 0.933397 0
M  V30 4777 H 435.044 -3.82963 1.34514 0
M  V30 4778 H 435.81 -3.10964 3.72191 0
M  V30 4779 H 431.689 -3.75256 2.67776 0
M  V30 4780 H 435.233 -3.36902 6.10854 0
M  V30 4781 H 431.13 -4.01359 5.0555 0
M  V30 4782 H 431.898 -4.01724 7.13134 0
M  V30 4783 N 434.561 -1.01147 -1.20859 0
M  V30 4784 C 435.786 -0.716698 -1.94623 0
M  V30 4785 C 436.211 0.715415 -1.73964 0
M  V30 4786 O 435.569 1.49157 -1.03062 0
M  V30 4787 C 435.617 -1.0513 -3.44935 0
M  V30 4788 O 434.721 -0.160131 -4.12089 0
M  V30 4789 H 434.062 -0.266404 -0.608214 0
M  V30 4790 H 436.592 -1.35346 -1.53436 0
M  V30 4791 H 436.602 -1.00086 -3.95533 0
M  V30 4792 H 435.277 -2.09475 -3.59295 0
M  V30 4793 H 433.854 -0.267657 -3.71938 0
M  V30 4794 N 436.039 1.36541 -0.78704 0
M  V30 4795 C 437.264 2.0409 -0.369053 0
M  V30 4796 C 437.689 1.58957 1.00569 0
M  V30 4797 O 437.047 0.756926 1.64743 0
M  V30 4798 C 437.095 3.57924 -0.438466 0
M  V30 4799 O 436.199 4.08642 0.555479 0
M  V30 4800 H 435.54 0.645142 -0.157122 0
M  V30 4801 H 438.07 1.74545 -1.06749 0
M  V30 4802 H 438.08 4.06887 -0.301218 0
M  V30 4803 H 436.755 3.90127 -1.44132 0
M  V30 4804 H 435.332 3.70958 0.380088 0
M  V30 4805 N 437.518 0.538854 1.48102 0
M  V30 4806 C 438.746 0.0123136 2.06896 0
M  V30 4807 C 439.161 -1.27312 1.39417 0
M  V30 4808 O 438.518 -1.75949 0.484582 0
M  V30 4809 C 438.569 -0.206118 3.60912 0
M  V30 4810 O 438.29 1.0284 4.25859 0
M  V30 4811 C 439.791 -0.772033 4.36526 0
M  V30 4812 H 437.011 0.0375239 0.66995 0
M  V30 4813 H 439.555 0.747032 1.90367 0
M  V30 4814 H 437.71 -0.89091 3.77017 0
M  V30 4815 H 438.124 0.814654 5.18135 0
M  V30 4816 H 439.598 -0.874251 5.45033 0
M  V30 4817 H 440.075 -1.77904 4.01555 0
M  V30 4818 H 440.681 -0.123526 4.25121 0
M  V30 4819 N 438.996 -1.55193 0.274407 0
M  V30 4820 C 439.929 -2.18606 -0.654712 0
M  V30 4821 C 440.907 -1.14677 -1.15273 0
M  V30 4822 O 442.091 -1.43198 -1.22583 0
M  V30 4823 C 439.218 -2.80875 -1.89281 0
M  V30 4824 C 438.264 -3.981 -1.53032 0
M  V30 4825 S 439.097 -5.32025 -0.609107 0
M  V30 4826 C 440.253 -5.97761 -1.85559 0
M  V30 4827 H 440.486 -2.97074 -0.115894 0
M  V30 4828 H 438.019 -1.54288 0.05867 0
M  V30 4829 H 439.977 -3.17381 -2.60345 0
M  V30 4830 H 438.638 -2.02302 -2.40277 0
M  V30 4831 H 437.831 -4.40356 -2.45158 0
M  V30 4832 H 437.433 -3.63013 -0.899874 0
M  V30 4833 H 439.725 -6.16951 -2.7996 0
M  V30 4834 H 440.668 -6.92545 -1.47605 0
M  V30 4835 H 441.076 -5.27113 -2.02021 0
M  V30 4836 N 440.474 -0.00167713 -1.576 0
M  V30 4837 C 441.723 0.682021 -1.89819 0
M  V30 4838 C 442.036 1.74844 -0.876871 0
M  V30 4839 O 443.242 2.48688 -1.08934 0
M  V30 4840 C 441.698 1.26425 -3.36964 0
M  V30 4841 C 441.306 0.232568 -4.47396 0
M  V30 4842 C 443.05 1.92604 -3.78291 0
M  V30 4843 C 440.957 0.824882 -5.85619 0
M  V30 4844 H 439.887 0.258499 -0.708304 0
M  V30 4845 H 442.538 -0.0624957 -1.83394 0
M  V30 4846 H 440.92 2.05949 -3.38232 0
M  V30 4847 H 442.094 -0.5382 -4.57646 0
M  V30 4848 H 440.409 -0.32888 -4.15099 0
M  V30 4849 H 443.006 2.37827 -4.78897 0
M  V30 4850 H 443.349 2.75732 -3.11894 0
M  V30 4851 H 443.882 1.19812 -3.79328 0
M  V30 4852 H 440.621 0.0323542 -6.55492 0
M  V30 4853 H 440.141 1.56477 -5.79029 0
M  V30 4854 H 441.82 1.32301 -6.33329 0
M  V30 4855 N 441.952 1.55251 0.271103 0
M  V30 4856 C 443.229 1.66664 1.02384 0
M  V30 4857 C 443.609 0.534363 2.04225 0
M  V30 4858 O 442.957 -0.465337 2.23712 0
M  V30 4859 C 443.167 3.05961 1.67895 0
M  V30 4860 C 444.515 3.63772 2.18986 0
M  V30 4861 O 445.539 3.08606 1.77878 0
M  V30 4862 O 444.398 4.60429 2.94393 0
M  V30 4863 H 441.492 0.676957 0.475035 0
M  V30 4864 H 444.038 1.67589 0.26681 0
M  V30 4865 H 442.81 3.79815 0.941071 0
M  V30 4866 H 442.433 3.08943 2.5028 0
M  V30 4867 N 443.43 -0.535701 1.48216 0
M  V30 4868 C 444.707 -1.29683 1.46429 0
M  V30 4869 C 445.087 -2.10391 0.172852 0
M  V30 4870 O 444.435 -2.12282 -0.845488 0
M  V30 4871 C 444.645 -2.18313 2.72287 0
M  V30 4872 C 445.993 -2.78639 3.20383 0
M  V30 4873 O 447.017 -2.28604 2.73164 0
M  V30 4874 O 445.876 -3.69636 4.02531 0
M  V30 4875 H 442.97 -0.585026 0.584529 0
M  V30 4876 H 445.516 -0.552827 1.60443 0
M  V30 4877 H 444.288 -1.58421 3.57797 0
M  V30 4878 H 443.911 -2.99971 2.60966 0
M  V30 4879 N 444.908 -1.36708 -0.784132 0
M  V30 4880 C 445.818 -1.3363 -1.92822 0
M  V30 4881 C 446.834 -0.237686 -1.72369 0
M  V30 4882 O 448.01 -0.470962 -1.95816 0
M  V30 4883 C 445.075 -1.13011 -3.27764 0
M  V30 4884 C 444.136 -2.32397 -3.60957 0
M  V30 4885 C 443.369 -2.12752 -4.89461 0
M  V30 4886 O 443.592 -1.10541 -5.59586 0
M  V30 4887 O 442.526 -3.00653 -5.21432 0
M  V30 4888 H 446.352 -2.29964 -1.98369 0
M  V30 4889 H 443.937 -1.1731 -0.925136 0
M  V30 4890 H 445.819 -1.03451 -4.08504 0
M  V30 4891 H 444.494 -0.19743 -3.23097 0
M  V30 4892 H 443.401 -2.47527 -2.80502 0
M  V30 4893 H 444.734 -3.2419 -3.70354 0
M  V30 4894 N 446.386 1.0089 -1.21074 0
M  V30 4895 C 447.349 2.0775 -0.968129 0
M  V30 4896 C 448.349 1.6069 0.0593445 0
M  V30 4897 O 449.539 1.73293 -0.177525 0
M  V30 4898 C 446.671 3.37794 -0.459108 0
M  V30 4899 H 447.864 2.30707 -1.9161 0
M  V30 4900 H 445.417 1.17807 -1.02719 0
M  V30 4901 H 446.152 3.20516 0.49397 0
M  V30 4902 H 445.937 3.7328 -1.20019 0
M  V30 4903 H 447.427 4.16454 -0.309099 0
M  V30 4904 N 447.864 1.01787 1.20321 0
M  V30 4905 C 448.794 0.609625 2.25401 0
M  V30 4906 C 449.775 -0.375951 1.65893 0
M  V30 4907 O 450.96 -0.261101 1.92437 0
M  V30 4908 C 448.09 -0.0515995 3.47262 0
M  V30 4909 C 447.044 0.855095 4.19371 0
M  V30 4910 C 446.37 0.0595757 5.34667 0
M  V30 4911 C 447.67 2.16374 4.75373 0
M  V30 4912 H 449.364 1.48803 2.59804 0
M  V30 4913 H 446.91 0.716934 1.24884 0
M  V30 4914 H 448.863 -0.348764 4.19954 0
M  V30 4915 H 447.587 -0.964726 3.12027 0
M  V30 4916 H 446.246 1.13628 3.48546 0
M  V30 4917 H 445.894 -0.85524 4.95676 0
M  V30 4918 H 445.594 0.663406 5.83843 0
M  V30 4919 H 447.118 -0.231105 6.10162 0
M  V30 4920 H 448.532 1.92885 5.39878 0
M  V30 4921 H 446.929 2.71853 5.34991 0
M  V30 4922 H 447.999 2.82589 3.94045 0
M  V30 4923 N 449.342 -1.36122 0.79427 0
M  V30 4924 C 450.289 -2.29982 0.194101 0
M  V30 4925 C 451.259 -1.52214 -0.664833 0
M  V30 4926 O 452.444 -1.80702 -0.612498 0
M  V30 4927 C 449.584 -3.38706 -0.661244 0
M  V30 4928 C 448.697 -4.31456 0.216766 0
M  V30 4929 C 447.832 -5.27265 -0.645411 0
M  V30 4930 C 446.871 -6.11653 0.233756 0
M  V30 4931 N 446.008 -6.99636 -0.587682 0
M  V30 4932 H 450.848 -2.80722 0.999965 0
M  V30 4933 H 448.385 -1.38172 0.504677 0
M  V30 4934 H 450.343 -4.00394 -1.17219 0
M  V30 4935 H 448.973 -2.89274 -1.43249 0
M  V30 4936 H 448.025 -3.7088 0.845724 0
M  V30 4937 H 449.337 -4.90724 0.893973 0
M  V30 4938 H 448.491 -5.94266 -1.22198 0
M  V30 4939 H 447.23 -4.68463 -1.35623 0
M  V30 4940 H 446.235 -5.4361 0.82269 0
M  V30 4941 H 447.46 -6.72531 0.942247 0
M  V30 4942 H 445.406 -6.43337 -1.2827 0
M  V30 4943 H 445.323 -7.55993 0.0317402 0
M  V30 4944 H 446.591 -7.71001 -1.14792 0
M  V30 4945 N 450.82 -0.546701 -1.47814 0
M  V30 4946 C 451.73 0.21026 -2.33656 0
M  V30 4947 C 452.746 0.922413 -1.47538 0
M  V30 4948 O 453.922 0.893652 -1.80488 0
M  V30 4949 C 450.987 1.23348 -3.24016 0
M  V30 4950 C 450.048 0.529883 -4.26017 0
M  V30 4951 C 449.281 1.50435 -5.12059 0
M  V30 4952 O 449.504 2.73837 -5.00369 0
M  V30 4953 O 448.438 1.03459 -5.92942 0
M  V30 4954 H 452.264 -0.493605 -2.99662 0
M  V30 4955 H 449.849 -0.307427 -1.46203 0
M  V30 4956 H 451.731 1.82438 -3.79861 0
M  V30 4957 H 450.406 1.91945 -2.60651 0
M  V30 4958 H 449.313 -0.101948 -3.73961 0
M  V30 4959 H 450.646 -0.11445 -4.92067 0
M  V30 4960 N 452.299 1.55045 -0.282633 0
M  V30 4961 C 453.545 2.00056 0.332481 0
M  V30 4962 C 453.878 1.1708 1.54939 0
M  V30 4963 O 453.153 0.2427 1.9298 0
M  V30 4964 C 453.436 3.53086 0.70725 0
M  V30 4965 C 453.289 4.46813 -0.517521 0
M  V30 4966 C 454.608 4.12245 1.54084 0
M  V30 4967 H 451.727 0.727268 0.119373 0
M  V30 4968 H 454.369 1.85932 -0.391076 0
M  V30 4969 H 452.519 3.65253 1.32372 0
M  V30 4970 H 454.191 4.46579 -1.15607 0
M  V30 4971 H 452.434 4.18163 -1.1542 0
M  V30 4972 H 453.105 5.51595 -0.211426 0
M  V30 4973 H 455.581 4.03401 1.02013 0
M  V30 4974 H 454.457 5.19515 1.77186 0
M  V30 4975 H 454.718 3.62951 2.52427 0
M  V30 4976 N 453.777 0.010035 1.57597 0
M  V30 4977 C 455.017 -0.677084 1.9286 0
M  V30 4978 C 455.381 -1.70377 0.885192 0
M  V30 4979 O 456.582 -2.44199 1.12339 0
M  V30 4980 C 454.853 -1.29452 3.33132 0
M  V30 4981 S 456.412 -2.00537 3.90295 0
M  V30 4982 H 453.23 -0.223409 0.674989 0
M  V30 4983 H 455.832 0.0691289 1.95378 0
M  V30 4984 H 454.536 -0.534593 4.06903 0
M  V30 4985 H 454.067 -2.07845 3.34012 0
M  V30 4986 H 456.082 -3.28168 3.72183 0
M  V30 4987 N 455.255 -1.55392 -0.262866 0
M  V30 4988 C 456.165 -1.92077 -1.34698 0
M  V30 4989 C 457.181 -0.819227 -1.53508 0
M  V30 4990 O 458.357 -1.11921 -1.67439 0
M  V30 4991 C 455.422 -2.19407 -2.68443 0
M  V30 4992 C 454.483 -3.42905 -2.58292 0
M  V30 4993 C 453.716 -3.68921 -3.85659 0
M  V30 4994 O 453.939 -2.97275 -4.8681 0
M  V30 4995 O 452.873 -4.62455 -3.85252 0
M  V30 4996 H 456.699 -2.84384 -1.06581 0
M  V30 4997 H 454.284 -1.42069 -0.462264 0
M  V30 4998 H 456.166 -2.38365 -3.47506 0
M  V30 4999 H 454.841 -1.30282 -2.96325 0
M  V30 5000 H 453.748 -3.29272 -1.7757 0
M  V30 5001 H 455.081 -4.32282 -2.35358 0
M  V30 5002 N 456.733 0.527833 -1.48498 0
M  V30 5003 C 457.68 1.6322 -1.6318 0
M  V30 5004 C 458.65 1.59199 -0.473815 0
M  V30 5005 O 459.835 1.77591 -0.697563 0
M  V30 5006 C 456.975 3.01474 -1.67951 0
M  V30 5007 C 456.088 3.15713 -2.94871 0
M  V30 5008 C 455.223 4.44539 -2.90789 0
M  V30 5009 C 454.262 4.52315 -4.12404 0
M  V30 5010 N 453.399 5.72533 -4.06387 0
M  V30 5011 H 458.239 1.50011 -2.57489 0
M  V30 5012 H 455.776 0.730298 -1.27691 0
M  V30 5013 H 457.734 3.81572 -1.68698 0
M  V30 5014 H 456.364 3.1345 -0.771306 0
M  V30 5015 H 455.416 2.28854 -3.03859 0
M  V30 5016 H 456.728 3.1732 -3.8485 0
M  V30 5017 H 455.882 5.3293 -2.89949 0
M  V30 5018 H 454.621 4.45457 -1.98542 0
M  V30 5019 H 453.626 3.62331 -4.13517 0
M  V30 5020 H 454.851 4.53134 -5.05812 0
M  V30 5021 H 452.797 5.74344 -3.16962 0
M  V30 5022 H 452.714 5.75643 -4.90073 0
M  V30 5023 H 453.982 6.63204 -4.0961 0
M  V30 5024 N 458.211 1.37122 0.776871 0
M  V30 5025 C 459.458 1.32047 1.53524 0
M  V30 5026 C 459.786 -0.0965631 1.9426 0
M  V30 5027 O 459.041 -1.06866 1.63945 0
M  V30 5028 C 459.34 2.20068 2.81611 0
M  V30 5029 C 459.006 3.68423 2.59953 0
M  V30 5030 C 457.668 4.08854 2.53755 0
M  V30 5031 C 460.02 4.62431 2.40431 0
M  V30 5032 C 457.348 5.41417 2.26018 0
M  V30 5033 C 459.7 5.95225 2.14219 0
M  V30 5034 C 458.364 6.34767 2.06462 0
M  V30 5035 H 457.634 0.483196 0.561785 0
M  V30 5036 H 460.281 1.69284 0.895268 0
M  V30 5037 H 458.586 1.75809 3.50141 0
M  V30 5038 H 460.283 2.13458 3.39465 0
M  V30 5039 H 456.873 3.36354 2.65638 0
M  V30 5040 H 461.057 4.32057 2.44213 0
M  V30 5041 H 456.313 5.71022 2.18504 0
M  V30 5042 H 460.487 6.67626 1.98112 0
M  V30 5043 H 458.114 7.37413 1.84733 0
M  V30 5044 N 459.689 -1.00246 1.21608 0
M  V30 5045 C 460.599 -2.12515 0.993709 0
M  V30 5046 C 461.615 -1.73913 -0.0549939 0
M  V30 5047 O 462.791 -2.00943 0.135619 0
M  V30 5048 C 459.856 -3.42083 0.563953 0
M  V30 5049 C 458.917 -3.94843 1.68516 0
M  V30 5050 C 458.15 -5.18226 1.27582 0
M  V30 5051 O 458.373 -5.70201 0.150506 0
M  V30 5052 O 457.307 -5.64497 2.0887 0
M  V30 5053 H 461.133 -2.34152 1.93407 0
M  V30 5054 H 458.718 -1.10891 1.00118 0
M  V30 5055 H 460.6 -4.20073 0.334194 0
M  V30 5056 H 459.275 -3.21828 -0.347665 0
M  V30 5057 H 458.182 -3.18068 1.96935 0
M  V30 5058 H 459.515 -4.19512 2.5743 0
M  V30 5059 N 461.167 -1.02423 -1.1978 0
M  V30 5060 C 462.407 -0.726635 -1.91048 0
M  V30 5061 C 462.771 0.730947 -1.77542 0
M  V30 5062 O 463.972 1.14141 -2.43362 0
M  V30 5063 C 462.243 -1.15964 -3.38064 0
M  V30 5064 S 463.802 -0.985172 -4.27598 0
M  V30 5065 H 460.62 -0.264679 -0.659899 0
M  V30 5066 H 463.222 -1.31309 -1.44838 0
M  V30 5067 H 461.926 -2.21619 -3.45417 0
M  V30 5068 H 461.457 -0.566274 -3.89303 0
M  V30 5069 H 463.472 0.106946 -4.96085 0
M  V30 5070 N 462.645 1.35699 -0.801477 0
M  V30 5071 C 463.87 2.03687 -0.390678 0
M  V30 5072 C 464.295 1.60015 0.988778 0
M  V30 5073 O 463.653 0.774357 1.63931 0
M  V30 5074 C 463.701 3.57439 -0.476404 0
M  V30 5075 O 462.805 4.09208 0.512106 0
M  V30 5076 H 462.146 0.64344 -0.163956 0
M  V30 5077 H 464.676 1.73403 -1.08594 0
M  V30 5078 H 464.686 4.06544 -0.344357 0
M  V30 5079 H 463.361 3.88576 -1.48262 0
M  V30 5080 H 461.938 3.7134 0.340721 0
M  V30 5081 N 464.123 0.554532 1.47522 0
M  V30 5082 C 465.033 -0.197865 2.33764 0
M  V30 5083 C 466.049 -0.914576 1.48025 0
M  V30 5084 O 467.225 -0.884067 1.80959 0
M  V30 5085 C 464.29 -1.21628 3.24665 0
M  V30 5086 C 463.351 -0.507283 4.26292 0
M  V30 5087 C 462.584 -1.47718 5.1285 0
M  V30 5088 O 462.807 -2.7118 5.01814 0
M  V30 5089 O 461.741 -1.00313 5.93482 0
M  V30 5090 H 465.567 0.50949 2.99396 0
M  V30 5091 H 463.152 0.315176 1.46038 0
M  V30 5092 H 465.034 -1.80421 3.80823 0
M  V30 5093 H 463.709 -1.9056 2.61665 0
M  V30 5094 H 462.616 0.121778 3.73902 0
M  V30 5095 H 463.949 0.140544 4.91999 0
M  V30 5096 N 465.601 -1.54893 0.290851 0
M  V30 5097 C 466.511 -2.26812 -0.59945 0
M  V30 5098 C 467.527 -1.29963 -1.15696 0
M  V30 5099 O 468.703 -1.62928 -1.18391 0
M  V30 5100 C 465.768 -2.98716 -1.75982 0
M  V30 5101 C 464.829 -4.1108 -1.2374 0
M  V30 5102 C 464.062 -4.79546 -2.34246 0
M  V30 5103 O 464.285 -4.47309 -3.53936 0
M  V30 5104 O 463.219 -5.67165 -2.01512 0
M  V30 5105 H 467.045 -3.03696 -0.0163561 0
M  V30 5106 H 464.63 -1.49289 0.0576755 0
M  V30 5107 H 466.512 -3.43851 -2.43607 0
M  V30 5108 H 465.187 -2.24737 -2.3297 0
M  V30 5109 H 464.094 -3.70367 -0.527163 0
M  V30 5110 H 465.427 -4.87007 -0.71307 0
M  V30 5111 N 467.08 -0.0183926 -1.57589 0
M  V30 5112 C 467.99 0.982943 -2.13015 0
M  V30 5113 C 469.006 1.36443 -1.07979 0
M  V30 5114 O 470.182 1.44802 -1.3998 0
M  V30 5115 C 467.247 2.25024 -2.63752 0
M  V30 5116 C 466.308 1.93018 -3.83461 0
M  V30 5117 C 465.541 3.13706 -4.31769 0
M  V30 5118 O 465.764 4.2601 -3.79305 0
M  V30 5119 O 464.698 2.96629 -5.23732 0
M  V30 5120 H 468.524 0.541709 -2.9883 0
M  V30 5121 H 466.109 0.201565 -1.48034 0
M  V30 5122 H 467.991 2.99441 -2.96502 0
M  V30 5123 H 466.666 2.68349 -1.81026 0
M  V30 5124 H 465.573 1.16019 -3.55655 0
M  V30 5125 H 466.906 1.54516 -4.67317 0
M  V30 5126 N 468.558 1.5553 0.254621 0
M  V30 5127 C 469.804 1.77262 0.985193 0
M  V30 5128 C 470.137 0.582286 1.85265 0
M  V30 5129 O 469.412 -0.419666 1.89919 0
M  V30 5130 C 469.695 3.0881 1.85225 0
M  V30 5131 C 469.548 4.38233 1.0135 0
M  V30 5132 C 470.867 3.3653 2.83612 0
M  V30 5133 H 467.986 0.644906 0.356742 0
M  V30 5134 H 470.628 1.88264 0.256236 0
M  V30 5135 H 468.778 2.99562 2.47376 0
M  V30 5136 H 470.45 4.59463 0.411269 0
M  V30 5137 H 468.693 4.32636 0.317574 0
M  V30 5138 H 469.364 5.26644 1.65379 0
M  V30 5139 H 471.84 3.45691 2.31596 0
M  V30 5140 H 470.716 4.29805 3.41407 0
M  V30 5141 H 470.977 2.57064 3.59681 0
M  V30 5142 N 470.036 -0.519951 1.48776 0
M  V30 5143 C 470.966 -1.63253 1.66945 0
M  V30 5144 C 471.947 -1.62014 0.518224 0
M  V30 5145 O 473.132 -1.79053 0.751919 0
M  V30 5146 C 470.262 -3.0181 1.71836 0
M  V30 5147 C 469.216 -3.17911 2.8656 0
M  V30 5148 C 468.542 -4.5763 2.76548 0
M  V30 5149 C 469.842 -2.99729 4.27738 0
M  V30 5150 H 471.536 -1.48302 2.6009 0
M  V30 5151 H 469.082 -0.712026 1.25165 0
M  V30 5152 H 471.035 -3.79525 1.83135 0
M  V30 5153 H 469.759 -3.17806 0.752775 0
M  V30 5154 H 468.418 -2.42616 2.74833 0
M  V30 5155 H 468.066 -4.70476 1.77937 0
M  V30 5156 H 467.766 -4.69346 3.53536 0
M  V30 5157 H 469.29 -5.37431 2.89828 0
M  V30 5158 H 470.704 -3.67228 4.40246 0
M  V30 5159 H 469.101 -3.22932 5.05801 0
M  V30 5160 H 470.171 -1.96047 4.43502 0
M  V30 5161 N 471.514 -1.37532 -0.769588 0
M  V30 5162 C 472.739 -1.36231 -1.56384 0
M  V30 5163 C 473.164 0.0495849 -1.88035 0
M  V30 5164 O 472.522 1.02723 -1.49391 0
M  V30 5165 C 472.57 -2.20986 -2.84952 0
M  V30 5166 O 471.674 -1.61597 -3.79421 0
M  V30 5167 H 471.015 -0.465387 -0.473615 0
M  V30 5168 H 473.545 -1.81085 -0.952342 0
M  V30 5169 H 473.555 -2.34277 -3.34034 0
M  V30 5170 H 472.23 -3.23612 -2.61243 0
M  V30 5171 H 470.807 -1.57359 -3.38072 0
M  V30 5172 N 472.992 0.995999 -1.22138 0
M  V30 5173 C 474.232 1.75032 -1.05561 0
M  V30 5174 C 474.596 1.87729 0.402698 0
M  V30 5175 O 475.797 2.59813 0.689234 0
M  V30 5176 C 474.068 3.11973 -1.74379 0
M  V30 5177 S 475.627 4.03182 -1.73175 0
M  V30 5178 H 472.445 0.602137 -0.37809 0
M  V30 5179 H 475.047 1.19107 -1.55028 0
M  V30 5180 H 473.751 3.00371 -2.79652 0
M  V30 5181 H 473.282 3.7297 -1.25128 0
M  V30 5182 H 475.297 4.90043 -0.77923 0
M  V30 5183 N 474.47 1.03057 1.19235 0
M  V30 5184 C 475.4 0.633497 2.24742 0
M  V30 5185 C 476.381 -0.358335 1.66283 0
M  V30 5186 O 477.566 -0.240676 1.92703 0
M  V30 5187 C 474.696 -0.0147648 3.47297 0
M  V30 5188 C 473.65 0.899527 4.18441 0
M  V30 5189 C 472.976 0.116281 5.34574 0
M  V30 5190 C 474.276 2.21404 4.73051 0
M  V30 5191 H 475.97 1.5155 2.58211 0
M  V30 5192 H 473.516 0.73014 1.24117 0
M  V30 5193 H 475.469 -0.304202 4.20301 0
M  V30 5194 H 474.193 -0.931577 3.13032 0
M  V30 5195 H 472.852 1.17319 3.47321 0
M  V30 5196 H 472.5 -0.802619 4.96555 0
M  V30 5197 H 472.2 0.725293 5.83107 0
M  V30 5198 H 473.724 -0.166376 6.10373 0
M  V30 5199 H 475.138 1.98601 5.37802 0
M  V30 5200 H 473.535 2.77512 5.32078 0
M  V30 5201 H 474.605 2.86752 3.91026 0
M  V30 5202 N 475.948 -1.35272 0.808662 0
M  V30 5203 C 477.178 -2.02652 0.401953 0
M  V30 5204 C 477.586 -1.6108 -0.992462 0
M  V30 5205 O 476.929 -0.804984 -1.65123 0
M  V30 5206 C 476.991 -3.57174 0.408246 0
M  V30 5207 C 476.655 -4.22019 1.75353 0
M  V30 5208 C 477.652 -4.43552 2.71215 0
M  V30 5209 C 475.337 -4.59093 2.03811 0
M  V30 5210 C 477.331 -5.01264 3.93717 0
M  V30 5211 C 475.018 -5.16519 3.26576 0
M  V30 5212 C 476.016 -5.37546 4.21347 0
M  V30 5213 O 475.704 -5.93761 5.41944 0
M  V30 5214 H 475.436 -0.656495 0.161216 0
M  V30 5215 H 477.99 -1.73829 1.0942 0
M  V30 5216 H 476.22 -3.85197 -0.340608 0
M  V30 5217 H 477.909 -4.05893 0.0235623 0
M  V30 5218 H 478.675 -4.15288 2.50522 0
M  V30 5219 H 474.554 -4.42039 1.30854 0
M  V30 5220 H 478.098 -5.17592 4.67701 0
M  V30 5221 H 473.995 -5.4421 3.47139 0
M  V30 5222 H 474.763 -6.1221 5.43269 0
M  V30 5223 N 477.426 -0.562348 -1.47226 0
M  V30 5224 C 478.374 0.195476 -2.31777 0
M  V30 5225 C 479.368 0.90433 -1.43242 0
M  V30 5226 O 480.574 0.825031 -1.59979 0
M  V30 5227 H 476.949 0.0819095 -0.747526 0
M  V30 5228 H 478.92 -0.536753 -2.93533 0
M  V30 5229 C 477.669 1.20902 -3.26003 0
M  V30 5230 H 476.992 0.672997 -3.94095 0
M  V30 5231 H 478.432 1.71006 -3.87986 0
M  V30 5232 C 476.891 2.25955 -2.49891 0
M  V30 5233 O 477.421 3.32969 -2.2471 0
M  V30 5234 N 475.627 2.00019 -2.1081 0
M  V30 5235 H 475.174 1.13006 -2.31489 0
M  V30 5236 H 475.132 2.70523 -1.60201 0
M  V30 5237 N 478.904 1.54736 -0.299062 0
M  V30 5238 C 480.32 1.59507 0.0543849 0
M  V30 5239 C 480.52 1.31606 1.52585 0
M  V30 5240 O 479.576 1.08853 2.27832 0
M  V30 5241 C 480.889 2.98751 -0.34181 0
M  V30 5242 C 482.437 3.1165 -0.290414 0
M  V30 5243 C 482.912 4.53199 -0.661402 0
M  V30 5244 N 484.403 4.59114 -0.613863 0
M  V30 5245 C 485.138 5.66709 -0.873417 0
M  V30 5246 N 484.634 6.82349 -1.19884 0
M  V30 5247 N 486.427 5.56369 -0.800608 0
M  V30 5248 H 478.578 1.71133 -1.25806 0
M  V30 5249 H 480.841 0.799186 -0.509908 0
M  V30 5250 H 480.547 3.24085 -1.36608 0
M  V30 5251 H 480.421 3.75961 0.305508 0
M  V30 5252 H 482.808 2.86066 0.724605 0
M  V30 5253 H 482.889 2.366 -0.972327 0
M  V30 5254 H 482.533 4.79513 -1.67422 0
M  V30 5255 H 482.463 5.26583 0.0425612 0
M  V30 5256 H 484.954 3.76053 -0.3732 0
M  V30 5257 H 485.267 7.60326 -1.38291 0
M  V30 5258 H 483.612 6.83906 -1.23685 0
M  V30 5259 H 486.803 4.64904 -0.546045 0
M  V30 5260 H 486.976 6.40139 -1.00626 0
M  V30 5261 N 480.382 0.0267497 1.57577 0
M  V30 5262 C 481.33 -0.973923 2.11229 0
M  V30 5263 C 482.324 -1.33849 1.03831 0
M  V30 5264 O 483.53 -1.321 1.22269 0
M  V30 5265 H 479.905 -0.331844 0.674821 0
M  V30 5266 H 481.876 -0.496092 2.94247 0
M  V30 5267 C 480.625 -2.24798 2.65257 0
M  V30 5268 H 479.948 -1.9762 3.47543 0
M  V30 5269 H 481.388 -2.93031 3.06445 0
M  V30 5270 C 479.847 -2.97611 1.57891 0
M  V30 5271 O 480.377 -3.89629 0.97735 0
M  V30 5272 N 478.583 -2.59905 1.29992 0
M  V30 5273 H 478.13 -1.85154 1.79097 0
M  V30 5274 H 478.088 -3.08932 0.583798 0
M  V30 5275 N 481.861 -1.55662 -0.24637 0
M  V30 5276 C 482.811 -1.86753 -1.30795 0
M  V30 5277 C 483.795 -0.728445 -1.43466 0
M  V30 5278 O 484.987 -0.99038 -1.46699 0
M  V30 5279 C 482.116 -2.16618 -2.66329 0
M  V30 5280 C 481.202 -3.36855 -2.57661 0
M  V30 5281 N 481.593 -4.56111 -2.18624 0
M  V30 5282 C 479.891 -3.39976 -2.88673 0
M  V30 5283 C 480.592 -5.38247 -2.20601 0
M  V30 5284 N 479.568 -4.77322 -2.60124 0
M  V30 5285 H 483.37 -2.76486 -0.996642 0
M  V30 5286 H 480.884 -1.55896 -0.454994 0
M  V30 5287 H 482.881 -2.37057 -3.42942 0
M  V30 5288 H 481.541 -1.28185 -2.98327 0
M  V30 5289 H 482.552 -4.81726 -1.9016 0
M  V30 5290 H 479.229 -2.61815 -3.25206 0
M  V30 5291 H 480.619 -6.43657 -1.92756 0
M  V30 5292 N 483.339 0.512053 -1.4905 0
M  V30 5293 C 484.271 1.63121 -1.6101 0
M  V30 5294 C 485.284 1.55145 -0.493352 0
M  V30 5295 O 486.473 1.61278 -0.764955 0
M  V30 5296 C 483.573 3.01863 -1.54052 0
M  V30 5297 C 482.746 3.35138 -2.81072 0
M  V30 5298 C 481.805 4.5324 -2.67319 0
M  V30 5299 O 480.831 4.55571 -3.41238 0
M  V30 5300 N 482.033 5.52495 -1.78127 0
M  V30 5301 H 484.798 1.53292 -2.5753 0
M  V30 5302 H 482.359 0.699706 -1.45999 0
M  V30 5303 H 484.351 3.78774 -1.42521 0
M  V30 5304 H 482.921 3.05675 -0.654345 0
M  V30 5305 H 482.141 2.4723 -3.07036 0
M  V30 5306 H 483.429 3.54162 -3.65304 0
M  V30 5307 H 482.827 5.53403 -1.17308 0
M  V30 5308 H 481.384 6.28553 -1.72525 0
M  V30 5309 N 484.817 1.37938 0.762283 0
M  V30 5310 C 486.094 1.24196 1.51112 0
M  V30 5311 C 486.474 -0.160409 2.1049 0
M  V30 5312 O 485.822 -1.16904 1.96331 0
M  V30 5313 C 486.032 2.34537 2.58445 0
M  V30 5314 C 487.38 2.7254 3.25588 0
M  V30 5315 O 488.404 2.33783 2.68745 0
M  V30 5316 O 487.263 3.39343 4.28379 0
M  V30 5317 H 484.357 0.485175 0.669727 0
M  V30 5318 H 486.903 1.49743 0.798438 0
M  V30 5319 H 485.675 3.28406 2.12756 0
M  V30 5320 H 485.298 2.10505 3.37303 0
M  V30 5321 N 486.295 -0.989507 1.22664 0
M  V30 5322 C 487.706 -1.54406 1.04955 0
M  V30 5323 C 488.057 -1.92366 -0.385951 0
M  V30 5324 O 487.182 -1.75111 -1.27142 0
M  V30 5325 C 487.777 -2.80578 1.89899 0
M  V30 5326 C 486.336 -3.32464 1.76478 0
M  V30 5327 C 485.483 -2.05524 1.86159 0
M  V30 5328 H 488.434 -0.810211 1.3646 0
M  V30 5329 H 488.455 -3.53075 1.4184 0
M  V30 5330 H 487.967 -2.52918 2.94371 0
M  V30 5331 H 486.068 -3.65024 0.747528 0
M  V30 5332 H 486.181 -4.02838 2.59342 0
M  V30 5333 H 484.545 -2.19241 1.29636 0
M  V30 5334 H 485.328 -1.80258 2.92168 0
M  V30 5335 N 487.773 -1.03688 -1.18687 0
M  V30 5336 C 488.703 -0.645407 -2.24403 0
M  V30 5337 C 489.684 0.349511 -1.66471 0
M  V30 5338 O 490.869 0.230453 -1.92828 0
M  V30 5339 C 487.999 -0.00365337 -3.473 0
M  V30 5340 C 486.953 -0.921705 -4.17958 0
M  V30 5341 C 486.279 -0.144629 -5.34504 0
M  V30 5342 C 487.579 -2.23909 -4.71871 0
M  V30 5343 H 489.273 -1.52917 -2.57404 0
M  V30 5344 H 486.819 -0.736711 -1.23728 0
M  V30 5345 H 488.772 0.281908 -4.20456 0
M  V30 5346 H 487.496 0.914963 -3.13522 0
M  V30 5347 H 486.155 -1.19159 -3.46694 0
M  V30 5348 H 485.803 0.776274 -4.96974 0
M  V30 5349 H 485.503 -0.756206 -5.82714 0
M  V30 5350 H 487.027 0.134004 -6.10453 0
M  V30 5351 H 488.441 -2.0145 -5.36741 0
M  V30 5352 H 486.838 -2.8033 -5.30599 0
M  V30 5353 H 487.908 -2.88822 -3.895 0
M  V30 5354 N 489.251 1.34841 -0.815825 0
M  V30 5355 C 490.214 2.27959 -0.238185 0
M  V30 5356 C 491.214 1.49983 0.579816 0
M  V30 5357 O 492.404 1.69617 0.396953 0
M  V30 5358 C 489.536 3.34314 0.666876 0
M  V30 5359 H 490.729 2.80558 -1.05958 0
M  V30 5360 H 488.282 1.44852 -0.587156 0
M  V30 5361 H 489.017 2.86916 1.5116 0
M  V30 5362 H 488.802 3.92014 0.0819106 0
M  V30 5363 H 490.292 4.0379 1.06506 0
M  V30 5364 N 490.729 0.570148 1.46925 0
M  V30 5365 C 491.975 0.0510284 2.02736 0
M  V30 5366 C 492.308 -1.3006 1.44215 0
M  V30 5367 O 491.583 -1.84932 0.602521 0
M  V30 5368 C 491.866 -0.028215 3.60089 0
M  V30 5369 C 491.719 1.35142 4.29018 0
M  V30 5370 C 493.038 -0.735181 4.33916 0
M  V30 5371 H 490.157 0.0200178 0.736728 0
M  V30 5372 H 492.799 0.73493 1.75211 0
M  V30 5373 H 490.949 -0.610648 3.83671 0
M  V30 5374 H 492.621 1.97806 4.16738 0
M  V30 5375 H 490.864 1.9226 3.88868 0
M  V30 5376 H 491.535 1.24857 5.37694 0
M  V30 5377 H 494.011 -0.240519 4.15404 0
M  V30 5378 H 492.887 -0.759622 5.43618 0
M  V30 5379 H 493.148 -1.79397 4.04066 0
M  V30 5380 N 492.207 -1.54576 0.307264 0
M  V30 5381 C 493.17 -2.22423 -0.553224 0
M  V30 5382 C 494.17 -1.21231 -1.05639 0
M  V30 5383 O 495.36 -1.45923 -0.951419 0
M  V30 5384 C 492.492 -2.91552 -1.76664 0
M  V30 5385 H 493.685 -2.99874 0.0396484 0
M  V30 5386 H 491.238 -1.56192 0.0581629 0
M  V30 5387 H 491.973 -2.18196 -2.39918 0
M  V30 5388 H 491.758 -3.65738 -1.41343 0
M  V30 5389 H 493.248 -3.43292 -2.37783 0
M  V30 5390 N 493.685 -0.035106 -1.57561 0
M  V30 5391 C 494.915 0.651312 -1.96065 0
M  V30 5392 C 495.323 1.6585 -0.910514 0
M  V30 5393 O 494.666 1.83336 0.11552 0
M  V30 5394 C 494.728 1.40897 -3.30739 0
M  V30 5395 C 494.392 0.559436 -4.53563 0
M  V30 5396 C 495.389 -0.16778 -5.19629 0
M  V30 5397 C 493.074 0.495079 -4.99854 0
M  V30 5398 C 495.068 -0.947963 -6.30311 0
M  V30 5399 C 492.755 -0.288804 -6.10417 0
M  V30 5400 C 493.753 -1.00903 -6.75505 0
M  V30 5401 O 493.441 -1.78005 -7.83945 0
M  V30 5402 H 493.173 0.184036 -0.650467 0
M  V30 5403 H 495.727 -0.0929677 -2.05189 0
M  V30 5404 H 493.957 2.19852 -3.18123 0
M  V30 5405 H 495.646 1.98407 -3.54104 0
M  V30 5406 H 496.412 -0.12743 -4.84833 0
M  V30 5407 H 492.291 1.04524 -4.48994 0
M  V30 5408 H 495.835 -1.51064 -6.81047 0
M  V30 5409 H 491.732 -0.33085 -6.44652 0
M  V30 5410 H 492.5 -1.70046 -8.00641 0
M  V30 5411 N 495.163 1.55791 0.238111 0
M  V30 5412 C 496.113 1.87444 1.29803 0
M  V30 5413 C 497.097 0.736043 1.43078 0
M  V30 5414 O 498.289 0.998146 1.46171 0
M  V30 5415 C 495.418 2.18028 2.65177 0
M  V30 5416 C 494.504 3.38217 2.55871 0
M  V30 5417 N 494.895 4.57264 2.16202 0
M  V30 5418 C 493.193 3.41502 2.86866 0
M  V30 5419 C 493.894 5.3941 2.17744 0
M  V30 5420 N 492.87 4.78695 2.57589 0
M  V30 5421 H 496.672 2.7701 0.981965 0
M  V30 5422 H 494.186 1.56135 0.44672 0
M  V30 5423 H 496.183 2.38873 3.4168 0
M  V30 5424 H 494.843 1.29765 2.97643 0
M  V30 5425 H 495.854 4.82727 1.87602 0
M  V30 5426 H 492.531 2.63536 3.23813 0
M  V30 5427 H 493.921 6.44671 1.89339 0
M  V30 5428 N 496.642 -0.504142 1.49319 0
M  V30 5429 C 497.572 -1.61473 1.68667 0
M  V30 5430 C 498.553 -1.61455 0.535378 0
M  V30 5431 O 499.738 -1.78245 0.770868 0
M  V30 5432 C 496.868 -2.99971 1.75028 0
M  V30 5433 C 495.822 -3.14854 2.89916 0
M  V30 5434 C 495.148 -4.54671 2.81387 0
M  V30 5435 C 496.448 -2.95176 4.30893 0
M  V30 5436 H 498.142 -1.45535 2.61648 0
M  V30 5437 H 495.688 -0.698711 1.25913 0
M  V30 5438 H 497.641 -3.77562 1.8715 0
M  V30 5439 H 496.365 -3.1699 0.786441 0
M  V30 5440 H 495.024 -2.39687 2.77391 0
M  V30 5441 H 494.672 -4.68562 1.82917 0
M  V30 5442 H 494.372 -4.6557 3.58494 0
M  V30 5443 H 495.896 -5.34327 2.95512 0
M  V30 5444 H 497.31 -3.62538 4.44116 0
M  V30 5445 H 495.707 -3.17549 5.09198 0
M  V30 5446 H 496.777 -1.91332 4.45556 0
M  V30 5447 N 498.12 -1.38341 -0.754957 0
M  V30 5448 C 499.369 -1.33791 -1.5094 0
M  V30 5449 C 499.682 0.0699267 -1.95475 0
M  V30 5450 O 500.888 0.237956 -2.70455 0
M  V30 5451 C 499.344 -2.34934 -2.72643 0
M  V30 5452 C 498.952 -3.81332 -2.35138 0
M  V30 5453 C 500.696 -2.39425 -3.50536 0
M  V30 5454 C 498.603 -4.74164 -3.53444 0
M  V30 5455 H 497.533 -0.497314 -0.566741 0
M  V30 5456 H 500.184 -1.63888 -0.825403 0
M  V30 5457 H 498.566 -1.97878 -3.43017 0
M  V30 5458 H 499.74 -4.27319 -1.7244 0
M  V30 5459 H 498.055 -3.79946 -1.70382 0
M  V30 5460 H 500.652 -3.0598 -4.38498 0
M  V30 5461 H 500.995 -1.41278 -3.91594 0
M  V30 5462 H 501.528 -2.75274 -2.87174 0
M  V30 5463 H 498.267 -5.73501 -3.17453 0
M  V30 5464 H 497.787 -4.3287 -4.15191 0
M  V30 5465 H 499.466 -4.92111 -4.20043 0
M  V30 5466 N 499.598 0.982988 -1.23187 0
M  V30 5467 C 500.847 1.71817 -1.05649 0
M  V30 5468 C 501.16 1.91315 0.407176 0
M  V30 5469 O 502.366 2.62256 0.702436 0
M  V30 5470 C 500.822 3.09188 -1.84203 0
M  V30 5471 C 500.43 2.97586 -3.34882 0
M  V30 5472 C 502.174 3.86684 -1.75146 0
M  V30 5473 C 500.081 4.30173 -4.05839 0
M  V30 5474 H 499.011 0.644258 -0.391724 0
M  V30 5475 H 501.662 1.09659 -1.4713 0
M  V30 5476 H 500.044 3.72087 -1.35527 0
M  V30 5477 H 501.218 2.43793 -3.91026 0
M  V30 5478 H 499.533 2.33567 -3.44725 0
M  V30 5479 H 502.13 4.84836 -2.25473 0
M  V30 5480 H 502.473 4.10136 -0.713737 0
M  V30 5481 H 503.006 3.30482 -2.21419 0
M  V30 5482 H 499.745 4.11918 -5.09906 0
M  V30 5483 H 499.265 4.83841 -3.54482 0
M  V30 5484 H 500.944 4.98873 -4.11989 0
M  V30 5485 N 501.076 1.04316 1.18135 0
M  V30 5486 C 502.353 0.662166 1.84051 0
M  V30 5487 C 502.733 -0.858169 1.9287 0
M  V30 5488 O 502.081 -1.76062 1.45652 0
M  V30 5489 C 502.291 1.3409 3.22212 0
M  V30 5490 C 503.639 1.4733 3.9822 0
M  V30 5491 O 504.663 1.29921 3.31661 0
M  V30 5492 O 503.522 1.75722 5.17479 0
M  V30 5493 H 500.616 0.232005 0.79379 0
M  V30 5494 H 503.162 1.1422 1.25506 0
M  V30 5495 H 501.934 2.37853 3.10711 0
M  V30 5496 H 501.557 0.849649 3.88416 0
M  V30 5497 N 502.554 -1.34406 0.822964 0
M  V30 5498 C 503.502 -2.31428 0.233165 0
M  V30 5499 C 504.496 -1.57404 -0.626118 0
M  V30 5500 O 505.702 -1.72402 -0.517453 0
M  V30 5501 H 502.077 -0.749863 0.0566557 0
M  V30 5502 H 504.048 -2.78699 1.06628 0
M  V30 5503 C 502.797 -3.42653 -0.590264 0
M  V30 5504 H 502.12 -3.99753 0.0616129 0
M  V30 5505 H 503.56 -4.12778 -0.969054 0
M  V30 5506 C 502.019 -2.87112 -1.76262 0
M  V30 5507 O 502.549 -2.81995 -2.8608 0
M  V30 5508 N 500.755 -2.43934 -1.57938 0
M  V30 5509 H 500.302 -2.48296 -0.686078 0
M  V30 5510 H 500.26 -2.07123 -2.36532 0
M  V30 5511 N 504.032 -0.577932 -1.46621 0
M  V30 5512 C 505.448 -0.239242 -1.57797 0
M  V30 5513 C 505.648 1.25843 -1.57371 0
M  V30 5514 O 504.704 2.03988 -1.48813 0
M  V30 5515 C 506.017 -0.884227 -2.87405 0
M  V30 5516 C 507.565 -0.857373 -3.01028 0
M  V30 5517 C 508.04 -1.48181 -4.33366 0
M  V30 5518 N 509.531 -1.44593 -4.40053 0
M  V30 5519 C 510.266 -1.89852 -5.41058 0
M  V30 5520 N 509.762 -2.43062 -6.48762 0
M  V30 5521 N 511.555 -1.80797 -5.3223 0
M  V30 5522 H 503.706 -1.55073 -1.45142 0
M  V30 5523 H 505.969 -0.647903 -0.692044 0
M  V30 5524 H 505.675 -1.93759 -2.93514 0
M  V30 5525 H 505.549 -0.389585 -3.75183 0
M  V30 5526 H 507.936 0.187357 -2.94505 0
M  V30 5527 H 508.017 -1.38999 -2.14739 0
M  V30 5528 H 507.661 -2.52572 -4.40647 0
M  V30 5529 H 507.591 -0.924464 -5.18422 0
M  V30 5530 H 510.082 -1.05694 -3.62819 0
M  V30 5531 H 510.395 -2.75466 -7.22038 0
M  V30 5532 H 508.74 -2.47085 -6.49595 0
M  V30 5533 H 511.931 -1.38989 -4.46989 0
M  V30 5534 H 512.104 -2.16385 -6.10804 0
M  V30 5535 N 505.51 1.54411 -0.315457 0
M  V30 5536 C 506.926 1.59556 0.037464 0
M  V30 5537 C 507.126 1.33217 1.5118 0
M  V30 5538 O 506.182 1.11264 2.26664 0
M  V30 5539 C 507.495 2.98372 -0.373477 0
M  V30 5540 C 509.043 3.11324 -0.323452 0
M  V30 5541 C 509.518 4.52472 -0.709433 0
M  V30 5542 N 511.009 4.58437 -0.662524 0
M  V30 5543 C 511.744 5.65751 -0.933474 0
M  V30 5544 N 511.24 6.81039 -1.27114 0
M  V30 5545 N 513.033 5.55489 -0.859573 0
M  V30 5546 H 505.184 1.6979 -1.27614 0
M  V30 5547 H 507.447 0.793732 -0.518356 0
M  V30 5548 H 507.153 3.22618 -1.40037 0
M  V30 5549 H 507.027 3.76264 0.265615 0
M  V30 5550 H 509.414 2.86818 0.694223 0
M  V30 5551 H 509.495 2.35555 -0.997367 0
M  V30 5552 H 509.139 4.7771 -1.72498 0
M  V30 5553 H 509.069 5.26598 -0.0132923 0
M  V30 5554 H 511.56 3.75636 -0.413065 0
M  V30 5555 H 511.873 7.58816 -1.46348 0
M  V30 5556 H 510.218 6.82555 -1.30932 0
M  V30 5557 H 513.409 4.64299 -0.595324 0
M  V30 5558 H 513.582 6.39036 -1.0741 0
M  V30 5559 N 506.988 0.0434614 1.5754 0
M  V30 5560 C 508.237 -0.631454 1.91561 0
M  V30 5561 C 508.55 -1.72457 0.92292 0
M  V30 5562 O 509.756 -2.45712 1.15489 0
M  V30 5563 C 508.212 -1.17447 3.40197 0
M  V30 5564 C 507.82 -0.113867 4.47855 0
M  V30 5565 C 509.564 -1.82507 3.83264 0
M  V30 5566 C 507.471 -0.669326 5.876 0
M  V30 5567 H 506.401 -0.239629 0.714908 0
M  V30 5568 H 509.052 0.111097 1.83163 0
M  V30 5569 H 507.434 -1.96909 3.43574 0
M  V30 5570 H 508.608 0.659348 4.56058 0
M  V30 5571 H 506.923 0.438821 4.14081 0
M  V30 5572 H 509.52 -2.25047 4.85034 0
M  V30 5573 H 509.863 -2.67365 3.19095 0
M  V30 5574 H 510.396 -1.09712 3.82372 0
M  V30 5575 H 507.135 0.141449 6.55347 0
M  V30 5576 H 506.655 -1.4107 5.82974 0
M  V30 5577 H 508.334 -1.15463 6.36614 0
M  V30 5578 N 508.466 -1.55915 -0.229846 0
M  V30 5579 C 509.399 -1.86734 -1.3117 0
M  V30 5580 C 510.377 -0.723947 -1.45595 0
M  V30 5581 O 511.561 -0.971462 -1.61539 0
M  V30 5582 C 508.688 -2.06707 -2.68309 0
M  V30 5583 C 507.734 -3.2938 -2.70944 0
M  V30 5584 S 508.567 -4.85547 -2.25842 0
M  V30 5585 C 509.723 -5.08546 -3.64873 0
M  V30 5586 H 509.956 -2.78204 -1.04832 0
M  V30 5587 H 507.489 -1.48243 -0.431681 0
M  V30 5588 H 509.447 -2.18898 -3.47267 0
M  V30 5589 H 508.108 -1.16049 -2.91876 0
M  V30 5590 H 507.301 -3.40374 -3.71701 0
M  V30 5591 H 506.903 -3.16004 -2.00044 0
M  V30 5592 H 509.195 -4.96935 -4.60502 0
M  V30 5593 H 510.138 -6.10465 -3.58801 0
M  V30 5594 H 510.546 -4.36314 -3.58176 0
M  V30 5595 N 509.944 0.496216 -1.49584 0
M  V30 5596 C 510.892 1.61805 -1.67098 0
M  V30 5597 C 511.886 1.60667 -0.536877 0
M  V30 5598 O 513.092 1.65118 -0.716654 0
M  V30 5599 H 509.467 0.53646 -0.526986 0
M  V30 5600 H 511.438 1.44187 -2.61252 0
M  V30 5601 C 510.187 2.99912 -1.75921 0
M  V30 5602 H 509.51 3.01496 -2.62565 0
M  V30 5603 H 510.95 3.77931 -1.92209 0
M  V30 5604 C 509.409 3.33092 -0.505088 0
M  V30 5605 O 509.939 4.00019 0.367085 0
M  V30 5606 N 508.145 2.88278 -0.366599 0
M  V30 5607 H 507.692 2.33989 -1.07735 0
M  V30 5608 H 507.65 3.10846 0.47142 0
M  V30 5609 N 511.423 1.38739 0.74761 0
M  V30 5610 C 512.333 1.38696 1.89211 0
M  V30 5611 C 513.349 0.283303 1.71678 0
M  V30 5612 O 514.525 0.522713 1.94498 0
M  V30 5613 C 511.59 1.21662 3.24653 0
M  V30 5614 C 510.651 2.41886 3.54669 0
M  V30 5615 C 509.884 2.25655 4.83648 0
M  V30 5616 O 510.107 1.25339 5.56459 0
M  V30 5617 O 509.041 3.14372 5.13277 0
M  V30 5618 H 512.867 2.35143 1.92202 0
M  V30 5619 H 510.452 1.19721 0.893708 0
M  V30 5620 H 512.334 1.14246 4.05618 0
M  V30 5621 H 511.009 0.283024 3.2246 0
M  V30 5622 H 509.916 2.54877 2.73841 0
M  V30 5623 H 511.249 3.33895 3.61628 0
M  V30 5624 N 512.901 -0.976442 1.23707 0
M  V30 5625 C 513.864 -2.0511 1.02287 0
M  V30 5626 C 514.864 -1.60791 -0.0167195 0
M  V30 5627 O 516.054 -1.72761 0.223408 0
M  V30 5628 C 513.186 -3.36458 0.548507 0
M  V30 5629 H 514.379 -2.25545 1.9766 0
M  V30 5630 H 511.932 -1.15042 1.05806 0
M  V30 5631 H 512.667 -3.21713 -0.408818 0
M  V30 5632 H 512.452 -3.69967 1.29874 0
M  V30 5633 H 513.942 -4.15489 0.419406 0
M  V30 5634 N 514.379 -1.04941 -1.1758 0
M  V30 5635 C 515.326 -0.648155 -2.21512 0
M  V30 5636 C 516.296 0.348431 -1.62404 0
M  V30 5637 O 517.481 0.240419 -1.89279 0
M  V30 5638 C 514.621 -0.0264291 -3.4509 0
M  V30 5639 C 513.734 -1.07154 -4.185 0
M  V30 5640 C 512.869 -0.417403 -5.29558 0
M  V30 5641 C 511.908 -1.447 -5.94751 0
M  V30 5642 N 511.045 -0.817203 -6.97328 0
M  V30 5643 H 515.885 -1.53891 -2.55189 0
M  V30 5644 H 513.422 -0.769699 -1.25356 0
M  V30 5645 H 515.38 0.351456 -4.15717 0
M  V30 5646 H 514.01 0.827802 -3.12005 0
M  V30 5647 H 513.062 -1.56728 -3.46613 0
M  V30 5648 H 514.374 -1.8532 -4.63096 0
M  V30 5649 H 513.528 0.0142061 -6.06698 0
M  V30 5650 H 512.267 0.396265 -4.86087 0
M  V30 5651 H 511.272 -1.88865 -5.16343 0
M  V30 5652 H 512.497 -2.26252 -6.40302 0
M  V30 5653 H 510.443 -0.0239995 -6.55996 0
M  V30 5654 H 510.36 -1.53644 -7.40223 0
M  V30 5655 H 511.628 -0.410283 -7.7842 0
M  V30 5656 N 515.857 1.33968 -0.830081 0
M  V30 5657 C 517.134 1.92554 -0.343858 0
M  V30 5658 C 517.514 1.7573 1.16971 0
M  V30 5659 O 516.862 1.14035 1.98011 0
M  V30 5660 C 517.072 3.40147 -0.781073 0
M  V30 5661 C 518.42 4.17299 -0.78402 0
M  V30 5662 O 519.444 3.48762 -0.724112 0
M  V30 5663 O 518.303 5.39631 -0.863739 0
M  V30 5664 H 515.397 0.821469 -0.0954827 0
M  V30 5665 H 517.943 1.42897 -0.915348 0
M  V30 5666 H 516.715 3.46225 -1.82329 0
M  V30 5667 H 516.338 3.97166 -0.18567 0
M  V30 5668 N 517.335 0.585699 1.46312 0
M  V30 5669 C 518.582 0.0724211 2.0237 0
M  V30 5670 C 518.91 -1.28868 1.45683 0
M  V30 5671 O 518.165 -1.85853 0.612945 0
M  V30 5672 C 518.464 -0.0401312 3.57377 0
M  V30 5673 C 518.13 1.25376 4.33119 0
M  V30 5674 C 516.792 1.60824 4.5353 0
M  V30 5675 C 519.144 2.10987 4.76586 0
M  V30 5676 C 516.472 2.81676 5.14661 0
M  V30 5677 C 518.824 3.31068 5.39052 0
M  V30 5678 C 517.488 3.66794 5.5769 0
M  V30 5679 H 516.758 0.0265007 0.740526 0
M  V30 5680 H 519.405 0.762935 1.75646 0
M  V30 5681 H 517.71 -0.813791 3.83255 0
M  V30 5682 H 519.407 -0.453078 3.98432 0
M  V30 5683 H 515.997 0.967808 4.1753 0
M  V30 5684 H 520.181 1.84904 4.60569 0
M  V30 5685 H 515.437 3.0949 5.27282 0
M  V30 5686 H 519.611 3.97672 5.71691 0
M  V30 5687 H 517.238 4.60529 6.04828 0
M  V30 5688 N 518.813 -1.54241 0.323641 0
M  V30 5689 C 520.043 -2.04687 -0.280464 0
M  V30 5690 C 520.451 -1.19939 -1.46326 0
M  V30 5691 O 519.794 -0.222872 -1.82343 0
M  V30 5692 C 519.856 -3.50978 -0.778123 0
M  V30 5693 C 519.52 -4.56127 0.282371 0
M  V30 5694 C 520.517 -5.07726 1.11847 0
M  V30 5695 C 518.202 -5.00451 0.430582 0
M  V30 5696 C 520.196 -6.02212 2.08851 0
M  V30 5697 C 517.883 -5.94752 1.40404 0
M  V30 5698 C 518.881 -6.45519 2.23147 0
M  V30 5699 O 518.569 -7.37968 3.1884 0
M  V30 5700 H 518.301 -0.673192 -0.0615473 0
M  V30 5701 H 520.855 -1.99999 0.467921 0
M  V30 5702 H 519.085 -3.53064 -1.57742 0
M  V30 5703 H 520.774 -3.84499 -1.30058 0
M  V30 5704 H 521.54 -4.74261 1.01496 0
M  V30 5705 H 517.419 -4.6055 -0.203569 0
M  V30 5706 H 520.963 -6.41761 2.73474 0
M  V30 5707 H 516.86 -6.27633 1.5082 0
M  V30 5708 H 517.628 -7.55841 3.14079 0
M  V30 5709 N 520.291 -0.0518155 -1.57515 0
M  V30 5710 C 521.221 0.920283 -2.146 0
M  V30 5711 C 522.202 1.32406 -1.06783 0
M  V30 5712 O 523.387 1.39866 -1.34726 0
M  V30 5713 C 520.517 2.1949 -2.6915 0
M  V30 5714 C 519.471 1.93116 -3.81956 0
M  V30 5715 C 518.797 3.27037 -4.23026 0
M  V30 5716 C 520.097 1.25225 -5.07066 0
M  V30 5717 H 521.791 0.444801 -2.96077 0
M  V30 5718 H 519.337 0.212508 -1.42423 0
M  V30 5719 H 521.29 2.87894 -3.07725 0
M  V30 5720 H 520.014 2.69244 -1.84865 0
M  V30 5721 H 518.673 1.27123 -3.43854 0
M  V30 5722 H 518.321 3.74595 -3.3569 0
M  V30 5723 H 518.021 3.10189 -4.99056 0
M  V30 5724 H 519.545 3.96673 -4.64202 0
M  V30 5725 H 520.959 1.83666 -5.43083 0
M  V30 5726 H 519.356 1.18702 -5.88243 0
M  V30 5727 H 520.426 0.228382 -4.84362 0
M  V30 5728 N 521.769 1.56035 0.221574 0
M  V30 5729 C 522.732 1.91584 1.2581 0
M  V30 5730 C 523.732 0.794425 1.39805 0
M  V30 5731 O 524.922 1.06217 1.38071 0
M  V30 5732 C 522.054 2.16663 2.63192 0
M  V30 5733 H 523.247 2.8429 0.954935 0
M  V30 5734 H 520.8 1.49316 0.461988 0
M  V30 5735 H 521.535 1.26508 2.98607 0
M  V30 5736 H 521.32 2.98358 2.5441 0
M  V30 5737 H 522.81 2.45262 3.37988 0
M  V30 5738 N 523.247 -0.488276 1.49845 0
M  V30 5739 C 524.475 -1.26527 1.63702 0
M  V30 5740 C 524.89 -1.8618 0.313447 0
M  V30 5741 O 524.247 -1.68432 -0.702624 0
M  V30 5742 C 524.298 -2.3864 2.71538 0
M  V30 5743 O 524.019 -1.81437 3.98763 0
M  V30 5744 C 525.52 -3.29805 2.96215 0
M  V30 5745 H 522.74 -0.383295 0.55075 0
M  V30 5746 H 525.284 -0.584779 1.95961 0
M  V30 5747 H 523.439 -3.02496 2.42023 0
M  V30 5748 H 523.853 -2.55135 4.58265 0
M  V30 5749 H 525.327 -4.04722 3.75372 0
M  V30 5750 H 525.804 -3.87563 2.06619 0
M  V30 5751 H 526.41 -2.71703 3.27196 0
M  V30 5752 N 524.725 -1.39134 -0.740242 0
M  V30 5753 C 525.95 -1.39518 -1.53459 0
M  V30 5754 C 526.375 0.00968883 -1.88098 0
M  V30 5755 O 525.733 0.995312 -1.51536 0
M  V30 5756 C 525.781 -2.26981 -2.802 0
M  V30 5757 O 524.885 -1.69609 -3.75908 0
M  V30 5758 H 524.226 -0.475328 -0.463637 0
M  V30 5759 H 526.756 -1.83064 -0.913717 0
M  V30 5760 H 526.766 -2.41309 -3.28989 0
M  V30 5761 H 525.441 -3.29081 -2.5432 0
M  V30 5762 H 524.018 -1.64495 -3.34658 0
M  V30 5763 N 526.204 0.969867 -1.24223 0
M  V30 5764 C 527.615 1.52717 -1.07399 0
M  V30 5765 C 527.966 1.92956 0.355298 0
M  V30 5766 O 527.091 1.77112 1.2434 0
M  V30 5767 C 527.686 2.77521 -1.94339 0
M  V30 5768 C 526.245 3.29615 -1.81744 0
M  V30 5769 C 525.392 2.02537 -1.89405 0
M  V30 5770 H 528.343 0.788399 -1.37732 0
M  V30 5771 H 528.364 3.50773 -1.47439 0
M  V30 5772 H 527.876 2.48203 -2.98357 0
M  V30 5773 H 525.977 3.63789 -0.805505 0
M  V30 5774 H 526.09 3.98661 -2.65718 0
M  V30 5775 H 524.454 2.17151 -1.33108 0
M  V30 5776 H 525.237 1.75587 -2.94999 0
M  V30 5777 N 527.682 1.05563 1.17022 0
M  V30 5778 C 529.093 0.793475 1.69 0
M  V30 5779 C 529.444 -0.683882 1.83895 0
M  V30 5780 O 528.569 -1.53116 1.5292 0
M  V30 5781 C 529.164 1.43376 3.06967 0
M  V30 5782 C 527.723 1.21956 3.56095 0
M  V30 5783 C 526.87 1.51494 2.3226 0
M  V30 5784 H 529.821 1.22008 1.01487 0
M  V30 5785 H 529.842 0.845068 3.70997 0
M  V30 5786 H 529.354 2.50899 2.96093 0
M  V30 5787 H 527.455 0.163749 3.7224 0
M  V30 5788 H 527.568 1.92713 4.38633 0
M  V30 5789 H 525.932 0.935175 2.3691 0
M  V30 5790 H 526.715 2.60159 2.23992 0
M  V30 5791 N 529.16 -1.33526 0.837174 0
M  V30 5792 C 530.437 -1.92369 0.354065 0
M  V30 5793 C 530.817 -1.76348 -1.16038 0
M  V30 5794 O 530.165 -1.15083 -1.97403 0
M  V30 5795 C 530.375 -3.39728 0.799101 0
M  V30 5796 C 531.723 -4.16877 0.806139 0
M  V30 5797 O 532.747 -3.48373 0.742597 0
M  V30 5798 O 531.606 -5.39166 0.892345 0
M  V30 5799 H 528.7 -0.820952 0.0998378 0
M  V30 5800 H 531.246 -1.42409 0.922913 0
M  V30 5801 H 530.018 -3.45254 1.84162 0
M  V30 5802 H 529.641 -3.97062 0.206731 0
M  V30 5803 N 530.638 -0.59345 -1.46 0
M  V30 5804 C 531.863 -0.0872365 -2.07216 0
M  V30 5805 C 532.288 1.2131 -1.43755 0
M  V30 5806 O 531.646 1.73528 -0.525152 0
M  V30 5807 C 531.694 0.0538197 -3.6056 0
M  V30 5808 O 530.798 1.10765 -3.97247 0
M  V30 5809 H 530.139 -0.0676598 -0.660544 0
M  V30 5810 H 532.669 -0.819445 -1.87473 0
M  V30 5811 H 532.679 0.256567 -4.07193 0
M  V30 5812 H 531.354 -0.895739 -4.0614 0
M  V30 5813 H 529.931 0.882501 -3.62307 0
M  V30 5814 N 532.116 1.54067 -0.331816 0
M  V30 5815 C 533.363 2.00715 0.268269 0
M  V30 5816 C 533.691 1.21986 1.51491 0
M  V30 5817 O 532.946 0.292309 1.93505 0
M  V30 5818 C 533.245 3.51634 0.639392 0
M  V30 5819 C 532.911 4.48018 -0.509019 0
M  V30 5820 C 531.573 4.74089 -0.824209 0
M  V30 5821 C 533.925 5.05237 -1.28003 0
M  V30 5822 C 531.253 5.54637 -1.91298 0
M  V30 5823 C 533.605 5.86972 -2.35895 0
M  V30 5824 C 532.269 6.11342 -2.67987 0
M  V30 5825 H 531.539 0.734469 0.0981667 0
M  V30 5826 H 534.186 1.8596 -0.457304 0
M  V30 5827 H 532.491 3.6416 1.44551 0
M  V30 5828 H 534.188 3.85175 1.11539 0
M  V30 5829 H 530.778 4.27851 -0.253287 0
M  V30 5830 H 534.962 4.8507 -1.04978 0
M  V30 5831 H 530.218 5.71747 -2.16599 0
M  V30 5832 H 534.392 6.30327 -2.96076 0
M  V30 5833 H 532.019 6.73544 -3.5248 0
M  V30 5834 N 533.594 0.0601682 1.57485 0
M  V30 5835 C 534.524 -0.90889 2.15085 0
M  V30 5836 C 535.505 -1.31838 1.07484 0
M  V30 5837 O 536.69 -1.3915 1.35466 0
M  V30 5838 C 533.82 -2.18059 2.7031 0
M  V30 5839 C 532.774 -1.91088 3.82974 0
M  V30 5840 C 532.1 -3.24789 4.24754 0
M  V30 5841 C 533.4 -1.22535 5.07723 0
M  V30 5842 H 535.094 -0.429093 2.96309 0
M  V30 5843 H 532.64 -0.204952 1.42534 0
M  V30 5844 H 534.593 -2.86258 3.09248 0
M  V30 5845 H 533.317 -2.6826 1.8629 0
M  V30 5846 H 531.976 -1.25297 3.44523 0
M  V30 5847 H 531.624 -3.72809 3.37672 0
M  V30 5848 H 531.324 -3.07538 5.00694 0
M  V30 5849 H 532.848 -3.94205 4.66299 0
M  V30 5850 H 534.262 -1.80783 5.4405 0
M  V30 5851 H 532.659 -1.1558 5.88864 0
M  V30 5852 H 533.729 -0.202692 4.84476 0
M  V30 5853 N 535.072 -1.5615 -0.213296 0
M  V30 5854 C 536.349 -1.70349 -0.961281 0
M  V30 5855 C 536.729 -0.609791 -2.02101 0
M  V30 5856 O 536.077 0.381987 -2.25285 0
M  V30 5857 C 536.287 -3.11982 -1.56424 0
M  V30 5858 C 537.635 -3.71649 -2.05334 0
M  V30 5859 O 538.659 -3.14995 -1.66302 0
M  V30 5860 O 537.518 -4.71038 -2.77102 0
M  V30 5861 H 534.612 -0.694121 -0.449582 0
M  V30 5862 H 537.158 -1.68464 -0.204426 0
M  V30 5863 H 535.93 -3.83046 -0.799457 0
M  V30 5864 H 535.553 -3.18019 -2.38641 0
M  V30 5865 N 536.55 0.480323 -1.50102 0
M  V30 5866 C 537.827 1.24159 -1.51142 0
M  V30 5867 C 538.207 2.09605 -0.250818 0
M  V30 5868 O 537.555 2.15274 0.766118 0
M  V30 5869 C 537.765 2.08057 -2.80202 0
M  V30 5870 C 539.113 2.66556 -3.30504 0
M  V30 5871 O 540.137 2.18308 -2.81461 0
M  V30 5872 O 538.996 3.54442 -4.15973 0
M  V30 5873 H 536.09 0.562928 -0.605839 0
M  V30 5874 H 538.636 0.492899 -1.62384 0
M  V30 5875 H 537.408 1.45032 -3.6343 0
M  V30 5876 H 537.031 2.90079 -2.71919 0
M  V30 5877 N 538.028 1.39524 0.732853 0
M  V30 5878 C 538.978 1.34905 1.83806 0
M  V30 5879 C 539.962 0.229546 1.59254 0
M  V30 5880 O 541.154 0.467255 1.70721 0
M  V30 5881 C 538.283 1.19699 3.21756 0
M  V30 5882 C 537.369 2.36359 3.5213 0
M  V30 5883 N 537.76 3.61834 3.53426 0
M  V30 5884 C 536.058 2.29363 3.82503 0
M  V30 5885 C 536.759 4.38992 3.81655 0
M  V30 5886 N 535.735 3.68606 3.99538 0
M  V30 5887 H 539.537 2.29882 1.83116 0
M  V30 5888 H 537.051 1.33051 0.931194 0
M  V30 5889 H 539.048 1.14472 4.00876 0
M  V30 5890 H 537.708 0.256739 3.23683 0
M  V30 5891 H 538.719 3.95228 3.34686 0
M  V30 5892 H 535.396 1.43612 3.92023 0
M  V30 5893 H 536.786 5.47763 3.89108 0
M  V30 5894 N 539.506 -0.963266 1.24736 0
M  V30 5895 C 540.456 -2.0438 1.01058 0
M  V30 5896 C 541.44 -1.60824 -0.0495354 0
M  V30 5897 O 542.632 -1.76232 0.164741 0
M  V30 5898 C 539.761 -3.37617 0.622067 0
M  V30 5899 C 538.847 -3.87722 1.7185 0
M  V30 5900 N 539.238 -4.10715 2.95207 0
M  V30 5901 C 537.536 -4.16426 1.59703 0
M  V30 5902 C 538.237 -4.51872 3.66315 0
M  V30 5903 N 537.213 -4.57302 2.93897 0
M  V30 5904 H 541.015 -2.20138 1.94721 0
M  V30 5905 H 538.529 -1.14741 1.14927 0
M  V30 5906 H 540.526 -4.14638 0.43366 0
M  V30 5907 H 539.186 -3.23242 -0.307327 0
M  V30 5908 H 540.197 -3.98037 3.31341 0
M  V30 5909 H 536.874 -4.10962 0.73598 0
M  V30 5910 H 538.264 -4.78037 4.72155 0
M  V30 5911 N 540.985 -1.06182 -1.16461 0
M  V30 5912 C 541.915 -0.692861 -2.22984 0
M  V30 5913 C 542.896 0.314122 -1.67174 0
M  V30 5914 O 544.081 0.189499 -1.93273 0
M  V30 5915 C 541.211 -0.07732 -3.47214 0
M  V30 5916 C 540.165 -1.01015 -4.15909 0
M  V30 5917 C 539.491 -0.257973 -5.34077 0
M  V30 5918 C 540.791 -2.33868 -4.67015 0
M  V30 5919 H 542.485 -1.58343 -2.54102 0
M  V30 5920 H 540.031 -0.76279 -1.22137 0
M  V30 5921 H 541.984 0.19266 -4.20959 0
M  V30 5922 H 540.708 0.848254 -3.15392 0
M  V30 5923 H 539.367 -1.26486 -3.44088 0
M  V30 5924 H 539.015 0.670684 -4.98509 0
M  V30 5925 H 538.715 -0.879638 -5.80979 0
M  V30 5926 H 540.239 0.00448788 -6.106 0
M  V30 5927 H 541.653 -2.1279 -5.32347 0
M  V30 5928 H 540.05 -2.91522 -5.24533 0
M  V30 5929 H 541.12 -2.97019 -3.83286 0
M  V30 5930 N 542.463 1.3308 -0.844243 0
M  V30 5931 C 543.691 2.01808 -0.456203 0
M  V30 5932 C 544.106 1.63498 0.944131 0
M  V30 5933 O 543.463 0.85102 1.61443 0
M  V30 5934 C 543.514 3.56922 -0.573513 0
M  V30 5935 O 543.235 3.93851 -1.91868 0
M  V30 5936 C 544.736 4.42922 -0.183125 0
M  V30 5937 H 541.956 0.646273 -0.180477 0
M  V30 5938 H 544.5 1.69891 -1.1383 0
M  V30 5939 H 542.655 3.87352 0.0607367 0
M  V30 5940 H 543.069 4.88564 -1.90802 0
M  V30 5941 H 544.543 5.51093 -0.316241 0
M  V30 5942 H 545.02 4.30386 0.875477 0
M  V30 5943 H 545.626 4.1786 -0.792027 0
M  V30 5944 N 543.941 0.601185 1.45683 0
M  V30 5945 C 545.357 0.264315 1.57396 0
M  V30 5946 C 545.557 -1.23324 1.59353 0
M  V30 5947 O 544.613 -2.01594 1.52039 0
M  V30 5948 C 545.926 0.929839 2.85962 0
M  V30 5949 C 547.474 0.905156 2.99626 0
M  V30 5950 C 547.949 1.55057 4.30954 0
M  V30 5951 N 549.44 1.51576 4.37697 0
M  V30 5952 C 550.175 1.98436 5.37969 0
M  V30 5953 N 549.671 2.53352 6.44813 0
M  V30 5954 N 551.464 1.89242 5.29286 0
M  V30 5955 H 543.615 1.57363 1.42656 0
M  V30 5956 H 545.878 0.658831 0.681649 0
M  V30 5957 H 545.584 1.98404 2.90394 0
M  V30 5958 H 545.458 0.449224 3.74515 0
M  V30 5959 H 547.845 -0.14048 2.94765 0
M  V30 5960 H 547.926 1.42397 2.12501 0
M  V30 5961 H 547.57 2.5955 4.36573 0
M  V30 5962 H 547.5 1.00682 5.16886 0
M  V30 5963 H 549.991 1.11452 3.61091 0
M  V30 5964 H 550.304 2.86918 7.17564 0
M  V30 5965 H 548.649 2.57388 6.45582 0
M  V30 5966 H 551.84 1.46083 4.44722 0
M  V30 5967 H 552.013 2.26075 6.07284 0
M  V30 5968 N 545.419 -1.53889 0.339982 0
M  V30 5969 C 546.83 -1.86139 -0.144671 0
M  V30 5970 C 547.181 -1.2613 -1.50285 0
M  V30 5971 O 546.306 -0.573515 -2.08662 0
M  V30 5972 C 546.901 -3.37728 -0.269285 0
M  V30 5973 C 545.46 -3.69868 -0.698168 0
M  V30 5974 C 544.607 -2.76777 0.170249 0
M  V30 5975 H 547.558 -1.48503 0.559704 0
M  V30 5976 H 547.579 -3.64331 -1.0974 0
M  V30 5977 H 547.091 -3.81375 0.719366 0
M  V30 5978 H 545.192 -3.31764 -1.69597 0
M  V30 5979 H 545.305 -4.76582 -0.490533 0
M  V30 5980 H 543.669 -2.52188 -0.356844 0
M  V30 5981 H 544.452 -3.23253 1.15597 0
M  V30 5982 N 546.897 -0.0685191 -1.57451 0
M  V30 5983 C 547.847 0.909895 -2.09057 0
M  V30 5984 C 548.831 1.26088 -0.999528 0
M  V30 5985 O 550.023 1.24041 -1.26265 0
M  V30 5986 C 547.152 2.17863 -2.65312 0
M  V30 5987 C 546.238 1.85427 -3.81415 0
M  V30 5988 N 546.629 1.23426 -4.9051 0
M  V30 5989 C 544.927 2.15196 -3.90649 0
M  V30 5990 C 545.628 1.09008 -5.71395 0
M  V30 5991 N 544.604 1.59871 -5.1956 0
M  V30 5992 H 548.406 0.426145 -2.90794 0
M  V30 5993 H 545.92 0.135462 -1.61834 0
M  V30 5994 H 547.917 2.88872 -3.00597 0
M  V30 5995 H 546.577 2.66829 -1.85021 0
M  V30 5996 H 547.588 0.904305 -5.09944 0
M  V30 5997 H 544.265 2.66562 -3.21327 0
M  V30 5998 H 545.655 0.607305 -6.6915 0
M  V30 5999 N 548.375 1.56261 0.205012 0
M  V30 6000 C 549.786 1.70056 0.770574 0
M  V30 6001 C 550.137 0.673398 1.84282 0
M  V30 6002 O 549.262 -0.172196 2.15714 0
M  V30 6003 C 549.857 3.08316 1.40451 0
M  V30 6004 C 548.416 3.2391 1.91727 0
M  V30 6005 C 547.563 2.66001 0.783516 0
M  V30 6006 H 550.514 1.58688 -0.019911 0
M  V30 6007 H 550.535 3.05094 2.27371 0
M  V30 6008 H 550.047 3.83053 0.623882 0
M  V30 6009 H 548.148 2.54072 2.7254 0
M  V30 6010 H 548.261 4.3131 2.08588 0
M  V30 6011 H 546.625 2.24915 1.19521 0
M  V30 6012 H 547.408 3.43297 0.0152883 0
M  V30 6013 N 549.853 -0.472356 1.50355 0
M  V30 6014 C 550.763 -1.59637 1.7191 0
M  V30 6015 C 551.779 -1.63247 0.602195 0
M  V30 6016 O 552.955 -1.81139 0.880369 0
M  V30 6017 C 550.02 -2.9586 1.80742 0
M  V30 6018 C 549.081 -3.02649 3.04471 0
M  V30 6019 C 548.314 -4.32374 3.12872 0
M  V30 6020 O 548.537 -5.22807 2.28099 0
M  V30 6021 O 547.471 -4.44728 4.05587 0
M  V30 6022 H 551.297 -1.44373 2.67189 0
M  V30 6023 H 548.882 -0.651717 1.34436 0
M  V30 6024 H 550.764 -3.7677 1.88739 0
M  V30 6025 H 549.439 -3.11325 0.88647 0
M  V30 6026 H 548.346 -2.20821 3.01975 0
M  V30 6027 H 549.679 -2.92119 3.9614 0
M  V30 6028 N 551.331 -1.39911 -0.725443 0
M  V30 6029 C 552.747 -1.21725 -1.03224 0
M  V30 6030 C 552.947 -0.0855224 -2.01318 0
M  V30 6031 O 552.003 0.55976 -2.46217 0
M  V30 6032 C 553.316 -2.55511 -1.58539 0
M  V30 6033 C 554.864 -2.62439 -1.70572 0
M  V30 6034 C 555.339 -3.9647 -2.29294 0
M  V30 6035 N 556.83 -3.98159 -2.36692 0
M  V30 6036 C 557.565 -4.98647 -2.83088 0
M  V30 6037 N 557.061 -6.0953 -3.2931 0
M  V30 6038 N 558.854 -4.8602 -2.82384 0
M  V30 6039 H 551.005 -2.12267 -0.075048 0
M  V30 6040 H 553.268 -0.943136 -0.0959066 0
M  V30 6041 H 552.974 -3.38926 -0.939249 0
M  V30 6042 H 552.848 -2.75905 -2.57208 0
M  V30 6043 H 555.235 -1.79401 -2.34306 0
M  V30 6044 H 555.316 -2.45885 -0.705297 0
M  V30 6045 H 554.96 -4.79942 -1.66186 0
M  V30 6046 H 554.89 -4.10349 -3.30032 0
M  V30 6047 H 557.381 -3.18085 -2.04035 0
M  V30 6048 H 557.694 -6.82106 -3.6325 0
M  V30 6049 H 556.039 -6.1311 -3.27294 0
M  V30 6050 H 559.23 -3.98493 -2.45603 0
M  V30 6051 H 559.403 -5.64478 -3.18226 0
M  V30 6052 N 552.809 0.956637 -1.25245 0
M  V30 6053 C 554.055 1.70352 -1.10036 0
M  V30 6054 C 554.388 1.90869 0.358156 0
M  V30 6055 O 553.663 1.47819 1.26411 0
M  V30 6056 C 553.946 3.08766 -1.85298 0
M  V30 6057 C 553.799 2.95672 -3.38966 0
M  V30 6058 C 555.118 4.08622 -1.63451 0
M  V30 6059 H 552.237 0.618279 -0.401123 0
M  V30 6060 H 554.879 1.11212 -1.54051 0
M  V30 6061 H 553.029 3.59252 -1.47887 0
M  V30 6062 H 554.701 2.52527 -3.86041 0
M  V30 6063 H 552.944 2.31634 -3.6678 0
M  V30 6064 H 553.615 3.93776 -3.86839 0
M  V30 6065 H 556.091 3.67038 -1.96015 0
M  V30 6066 H 554.967 5.03514 -2.18551 0
M  V30 6067 H 555.228 4.3834 -0.575357 0
M  V30 6068 N 554.287 1.06798 1.15896 0
M  V30 6069 C 555.698 0.811355 1.68149 0
M  V30 6070 C 556.049 -0.664339 1.8461 0
M  V30 6071 O 555.174 -1.51485 1.54535 0
M  V30 6072 C 555.769 1.46624 3.05429 0
M  V30 6073 C 554.328 1.25726 3.54781 0
M  V30 6074 C 553.475 1.53949 2.3064 0
M  V30 6075 H 556.426 1.23078 1.00187 0
M  V30 6076 H 556.447 0.88437 3.7008 0
M  V30 6077 H 555.959 2.54025 2.93416 0
M  V30 6078 H 554.06 0.20322 3.72045 0
M  V30 6079 H 554.173 1.97354 4.36564 0
M  V30 6080 H 552.537 0.96025 2.35905 0
M  V30 6081 H 553.32 2.6252 2.2122 0
M  V30 6082 N 555.766 -1.3263 0.851289 0
M  V30 6083 C 557.013 -1.97368 0.453023 0
M  V30 6084 C 557.341 -1.67384 -0.990596 0
M  V30 6085 O 556.596 -0.952665 -1.70947 0
M  V30 6086 C 556.895 -3.51713 0.635015 0
M  V30 6087 C 556.561 -4.01676 2.04859 0
M  V30 6088 C 555.223 -4.15031 2.43522 0
M  V30 6089 C 557.575 -4.28206 2.97135 0
M  V30 6090 C 554.903 -4.52257 3.73739 0
M  V30 6091 C 557.255 -4.66889 4.26846 0
M  V30 6092 C 555.919 -4.7845 4.65448 0
M  V30 6093 H 555.189 -0.722219 0.165773 0
M  V30 6094 H 557.836 -1.58092 1.0807 0
M  V30 6095 H 556.141 -3.91726 -0.0759081 0
M  V30 6096 H 557.838 -3.99823 0.306964 0
M  V30 6097 H 554.428 -3.91764 1.73836 0
M  V30 6098 H 558.612 -4.174 2.68498 0
M  V30 6099 H 553.868 -4.59402 4.03435 0
M  V30 6100 H 558.042 -4.86372 4.98413 0
M  V30 6101 H 555.669 -5.07052 5.66395 0
M  V30 6102 N 557.244 -0.608902 -1.45362 0
M  V30 6103 C 558.174 0.0964526 -2.33301 0
M  V30 6104 C 559.155 0.857444 -1.46908 0
M  V30 6105 O 560.34 0.827735 -1.75676 0
M  V30 6106 C 557.47 1.09354 -3.29635 0
M  V30 6107 C 556.424 0.445676 -4.25673 0
M  V30 6108 C 555.75 1.5511 -5.11708 0
M  V30 6109 C 557.05 -0.633972 -5.18438 0
M  V30 6110 H 558.744 -0.637829 -2.92527 0
M  V30 6111 H 556.29 -0.308178 -1.40664 0
M  V30 6112 H 558.243 1.59556 -3.90025 0
M  V30 6113 H 556.967 1.85843 -2.6857 0
M  V30 6114 H 555.626 -0.0354897 -3.66583 0
M  V30 6115 H 555.274 2.30631 -4.4701 0
M  V30 6116 H 554.974 1.12311 -5.76767 0
M  V30 6117 H 556.498 2.05537 -5.74967 0
M  V30 6118 H 557.912 -0.215974 -5.72893 0
M  V30 6119 H 556.309 -0.983789 -5.91981 0
M  V30 6120 H 557.379 -1.51005 -4.60788 0
M  V30 6121 N 558.722 1.53707 -0.348139 0
M  V30 6122 C 559.968 2.01286 0.247332 0
M  V30 6123 C 560.301 1.23546 1.49834 0
M  V30 6124 O 559.576 0.324331 1.91777 0
M  V30 6125 C 559.859 3.55768 0.556858 0
M  V30 6126 C 559.712 4.44216 -0.706564 0
M  V30 6127 C 561.031 4.1841 1.3646 0
M  V30 6128 H 558.15 0.731677 0.0884201 0
M  V30 6129 H 560.792 1.84106 -0.469584 0
M  V30 6130 H 558.942 3.70539 1.16761 0
M  V30 6131 H 560.614 4.41274 -1.34444 0
M  V30 6132 H 558.857 4.12892 -1.33052 0
M  V30 6133 H 559.528 5.50202 -0.445186 0
M  V30 6134 H 562.004 4.07365 0.848113 0
M  V30 6135 H 560.88 5.26563 1.54992 0
M  V30 6136 H 561.141 3.7333 2.36805 0
M  V30 6137 N 560.2 0.0768682 1.57412 0
M  V30 6138 C 561.163 -0.873949 2.11884 0
M  V30 6139 C 562.163 -1.22301 1.04398 0
M  V30 6140 O 563.353 -1.15545 1.30365 0
M  V30 6141 C 560.485 -2.17575 2.62438 0
M  V30 6142 H 561.678 -0.401278 2.97203 0
M  V30 6143 H 559.231 -0.171904 1.55352 0
M  V30 6144 H 559.966 -2.69368 1.80587 0
M  V30 6145 H 559.751 -1.93534 3.41009 0
M  V30 6146 H 561.241 -2.85631 3.04639 0
M  V30 6147 N 561.678 -1.56367 -0.196722 0
M  V30 6148 C 562.588 -1.97617 -1.2643 0
M  V30 6149 C 563.604 -0.883598 -1.49895 0
M  V30 6150 O 564.78 -1.18921 -1.62541 0
M  V30 6151 C 561.845 -2.30595 -2.58895 0
M  V30 6152 C 560.906 -3.53551 -2.43516 0
M  V30 6153 C 560.139 -3.84946 -3.69665 0
M  V30 6154 O 560.362 -3.17655 -4.73763 0
M  V30 6155 O 559.296 -4.78379 -3.65291 0
M  V30 6156 H 563.122 -2.88648 -0.944233 0
M  V30 6157 H 560.707 -1.43901 -0.401592 0
M  V30 6158 H 562.589 -2.52889 -3.37083 0
M  V30 6159 H 561.264 -1.42732 -2.90533 0
M  V30 6160 H 560.171 -3.36507 -1.63445 0
M  V30 6161 H 561.504 -4.41875 -2.16812 0
M  V30 6162 N 563.156 0.464375 -1.50603 0
M  V30 6163 C 564.384 1.23907 -1.65695 0
M  V30 6164 C 564.799 1.85658 -0.343027 0
M  V30 6165 O 564.156 1.69529 0.675739 0
M  V30 6166 C 564.207 2.3429 -2.75301 0
M  V30 6167 O 563.928 1.7507 -4.01599 0
M  V30 6168 C 565.429 3.25051 -3.01424 0
M  V30 6169 H 562.649 0.374485 -0.556778 0
M  V30 6170 H 565.193 0.55353 -1.96866 0
M  V30 6171 H 563.348 2.98607 -2.46804 0
M  V30 6172 H 563.762 2.47812 -4.62266 0
M  V30 6173 H 565.236 3.98699 -3.81763 0
M  V30 6174 H 565.713 3.84227 -2.12758 0
M  V30 6175 H 566.319 2.66463 -3.31477 0
M  V30 6176 N 564.634 1.40294 0.718013 0
M  V30 6177 C 566.045 1.34289 1.29705 0
M  V30 6178 C 566.396 0.0152228 1.96194 0
M  V30 6179 O 565.521 -0.88682 1.97394 0
M  V30 6180 C 566.116 2.43219 2.3586 0
M  V30 6181 C 564.675 2.40682 2.89394 0
M  V30 6182 C 563.822 2.24223 1.63154 0
M  V30 6183 H 566.773 1.50135 0.514312 0
M  V30 6184 H 566.794 2.10986 3.16647 0
M  V30 6185 H 566.306 3.39836 1.87439 0
M  V30 6186 H 564.407 1.47756 3.42051 0
M  V30 6187 H 564.52 3.36177 3.41353 0
M  V30 6188 H 562.884 1.71696 1.88129 0
M  V30 6189 H 563.667 3.22834 1.16761 0
M  V30 6190 N 566.112 -0.949982 1.2575 0
M  V30 6191 C 567.528 -1.22191 1.02672 0
M  V30 6192 C 567.728 -1.99898 -0.253588 0
M  V30 6193 O 566.784 -2.33329 -0.965076 0
M  V30 6194 C 568.097 -1.99175 2.25277 0
M  V30 6195 C 569.645 -2.12201 2.30087 0
M  V30 6196 C 570.12 -2.92586 3.5236 0
M  V30 6197 N 571.611 -3.00163 3.52784 0
M  V30 6198 C 572.346 -3.62766 4.44059 0
M  V30 6199 N 571.842 -4.26943 5.45611 0
M  V30 6200 N 573.635 -3.59953 4.3173 0
M  V30 6201 H 565.786 -0.430258 2.07996 0
M  V30 6202 H 568.049 -0.252844 0.91366 0
M  V30 6203 H 567.755 -1.49479 3.18354 0
M  V30 6204 H 567.629 -2.99868 2.28821 0
M  V30 6205 H 570.016 -2.61093 1.3753 0
M  V30 6206 H 570.097 -1.10799 2.30559 0
M  V30 6207 H 569.741 -2.44383 4.45241 0
M  V30 6208 H 569.671 -3.94224 3.49134 0
M  V30 6209 H 572.162 -2.54529 2.79327 0
M  V30 6210 H 572.475 -4.72583 6.11461 0
M  V30 6211 H 570.82 -4.25557 5.49478 0
M  V30 6212 H 574.011 -3.09003 3.51617 0
M  V30 6213 H 574.184 -4.08455 5.03059 0
M  V30 6214 N 567.59 -1.07411 -1.15328 0
M  V30 6215 C 568.553 -0.698914 -2.18284 0
M  V30 6216 C 569.553 0.261149 -1.58665 0
M  V30 6217 O 570.743 0.0420277 -1.74149 0
M  V30 6218 C 567.875 -0.0302427 -3.40887 0
M  V30 6219 H 569.068 -1.61045 -2.52991 0
M  V30 6220 H 566.621 -0.870724 -1.298 0
M  V30 6221 H 567.356 0.893505 -3.11748 0
M  V30 6222 H 567.141 -0.720759 -3.85419 0
M  V30 6223 H 568.631 0.21759 -4.17033 0
M  V30 6224 N 569.068 1.32177 -0.85831 0
M  V30 6225 C 570.484 1.49873 -0.548656 0
M  V30 6226 C 570.684 1.79278 0.919874 0
M  V30 6227 O 569.74 1.86451 1.70271 0
M  V30 6228 C 571.053 2.64043 -1.4388 0
M  V30 6229 C 572.601 2.77928 -1.43961 0
M  V30 6230 C 573.076 3.95182 -2.31506 0
M  V30 6231 N 574.567 4.0245 -2.29321 0
M  V30 6232 C 575.302 4.9242 -2.93786 0
M  V30 6233 N 574.798 5.87373 -3.67376 0
M  V30 6234 N 576.591 4.85572 -2.83155 0
M  V30 6235 H 568.742 1.11357 -1.80868 0
M  V30 6236 H 571.005 0.549175 -0.772729 0
M  V30 6237 H 570.711 2.49055 -2.48324 0
M  V30 6238 H 570.585 3.59912 -1.12885 0
M  V30 6239 H 572.972 2.92338 -0.402813 0
M  V30 6240 H 573.053 1.82762 -1.78974 0
M  V30 6241 H 572.697 3.81531 -3.35256 0
M  V30 6242 H 572.627 4.89633 -1.93823 0
M  V30 6243 H 575.118 3.34507 -1.75822 0
M  V30 6244 H 575.431 6.52728 -4.13722 0
M  V30 6245 H 573.776 5.87388 -3.71484 0
M  V30 6246 H 576.967 4.10363 -2.25211 0
M  V30 6247 H 577.14 5.55486 -3.33676 0
M  V30 6248 N 570.547 0.616602 1.45037 0
M  V30 6249 C 571.497 -0.118543 2.27692 0
M  V30 6250 C 572.481 -0.830025 1.37838 0
M  V30 6251 O 573.673 -0.718528 1.6176 0
M  V30 6252 C 570.802 -1.10924 3.24886 0
M  V30 6253 C 569.888 -0.398134 4.22227 0
M  V30 6254 N 570.279 0.565233 5.02632 0
M  V30 6255 C 568.577 -0.644506 4.41319 0
M  V30 6256 C 569.278 0.984043 5.73316 0
M  V30 6257 N 568.254 0.325879 5.42622 0
M  V30 6258 H 572.056 0.621239 2.87259 0
M  V30 6259 H 569.57 0.440968 1.56299 0
M  V30 6260 H 571.567 -1.65038 3.82842 0
M  V30 6261 H 570.227 -1.84948 2.66879 0
M  V30 6262 H 571.238 0.942395 5.09254 0
M  V30 6263 H 567.915 -1.36873 3.94426 0
M  V30 6264 H 569.305 1.77911 6.47918 0
M  V30 6265 N 572.025 -1.5352 0.356285 0
M  V30 6266 C 573.253 -2.05534 -0.237328 0
M  V30 6267 C 573.668 -1.23043 -1.43199 0
M  V30 6268 O 573.025 -0.268821 -1.80509 0
M  V30 6269 C 573.076 -3.55791 -0.639933 0
M  V30 6270 O 572.797 -4.35154 0.507233 0
M  V30 6271 C 574.298 -4.24027 -1.29292 0
M  V30 6272 H 571.518 -0.669585 -0.0435572 0
M  V30 6273 H 574.062 -1.97988 0.511963 0
M  V30 6274 H 572.217 -3.63518 -1.33915 0
M  V30 6275 H 572.631 -5.24178 0.18375 0
M  V30 6276 H 574.105 -5.30509 -1.52527 0
M  V30 6277 H 574.582 -3.77166 -2.25039 0
M  V30 6278 H 575.188 -4.20527 -0.63539 0
M  V30 6279 N 573.503 -0.0852151 -1.57369 0
M  V30 6280 C 574.433 0.874556 -2.16503 0
M  V30 6281 C 575.414 1.30111 -1.09568 0
M  V30 6282 O 576.599 1.36977 -1.37662 0
M  V30 6283 C 573.729 2.13731 -2.73745 0
M  V30 6284 C 572.683 1.84971 -3.85966 0
M  V30 6285 C 572.009 3.17991 -4.29867 0
M  V30 6286 C 573.309 1.14442 -5.09608 0
M  V30 6287 H 575.003 0.381899 -2.96954 0
M  V30 6288 H 572.549 0.18225 -1.42842 0
M  V30 6289 H 574.502 2.81302 -3.13763 0
M  V30 6290 H 573.226 2.65263 -1.90534 0
M  V30 6291 H 571.885 1.19801 -3.46473 0
M  V30 6292 H 571.533 3.6739 -3.4356 0
M  V30 6293 H 571.233 2.99534 -5.05523 0
M  V30 6294 H 572.757 3.86737 -4.72511 0
M  V30 6295 H 574.171 1.72105 -5.46857 0
M  V30 6296 H 572.568 1.06197 -5.90629 0
M  V30 6297 H 573.638 0.12559 -4.84737 0
M  V30 6298 N 574.981 1.5647 0.188427 0
M  V30 6299 C 576.258 1.71857 0.934058 0
M  V30 6300 C 576.638 0.641867 2.01105 0
M  V30 6301 O 575.986 -0.346098 2.25864 0
M  V30 6302 C 576.196 3.14431 1.5144 0
M  V30 6303 C 577.544 3.74869 1.99396 0
M  V30 6304 O 578.568 3.17601 1.61269 0
M  V30 6305 O 577.427 4.75387 2.69573 0
M  V30 6306 H 574.521 0.701186 0.438483 0
M  V30 6307 H 577.067 1.68768 0.177599 0
M  V30 6308 H 575.839 3.8427 0.738416 0
M  V30 6309 H 575.462 3.21775 2.33552 0
M  V30 6310 N 576.459 -0.456382 1.50847 0
M  V30 6311 C 577.369 -1.57805 1.73594 0
M  V30 6312 C 578.385 -1.62599 0.619476 0
M  V30 6313 O 579.561 -1.80195 0.899532 0
M  V30 6314 C 576.626 -2.93926 1.8387 0
M  V30 6315 C 575.687 -2.99402 3.07663 0
M  V30 6316 C 574.92 -4.29031 3.1744 0
M  V30 6317 O 575.143 -5.20358 2.33631 0
M  V30 6318 O 574.077 -4.40401 4.10281 0
M  V30 6319 H 577.903 -1.41531 2.68705 0
M  V30 6320 H 575.488 -0.637422 1.3512 0
M  V30 6321 H 577.37 -3.74747 1.92725 0
M  V30 6322 H 576.045 -3.10368 0.91944 0
M  V30 6323 H 574.952 -2.17606 3.043 0
M  V30 6324 H 576.285 -2.87901 3.99216 0
M  V30 6325 N 577.937 -1.40673 -0.710563 0
M  V30 6326 C 578.867 -1.44095 -1.83736 0
M  V30 6327 C 579.848 -0.301286 -1.67411 0
M  V30 6328 O 581.033 -0.510618 -1.87367 0
M  V30 6329 C 578.163 -1.30773 -3.21738 0
M  V30 6330 C 577.117 -2.42395 -3.52745 0
M  V30 6331 C 576.443 -2.14147 -4.89944 0
M  V30 6332 C 577.743 -3.84738 -3.53234 0
M  V30 6333 H 579.437 -2.38396 -1.81129 0
M  V30 6334 H 576.983 -1.14746 -0.870017 0
M  V30 6335 H 578.936 -1.31783 -4.00264 0
M  V30 6336 H 577.66 -0.329507 -3.24934 0
M  V30 6337 H 576.319 -2.40643 -2.76562 0
M  V30 6338 H 575.967 -1.14703 -4.89747 0
M  V30 6339 H 575.667 -2.88934 -5.11655 0
M  V30 6340 H 577.191 -2.16848 -5.70797 0
M  V30 6341 H 578.605 -3.88286 -4.2179 0
M  V30 6342 H 577.002 -4.59085 -3.86473 0
M  V30 6343 H 578.072 -4.13962 -2.52514 0
M  V30 6344 N 579.415 0.9433 -1.26252 0
M  V30 6345 C 580.363 2.06302 -1.07434 0
M  V30 6346 C 581.357 1.694 -0.00189471 0
M  V30 6347 O 582.563 1.79302 -0.158408 0
M  V30 6348 H 578.938 0.675453 -0.330556 0
M  V30 6349 H 580.909 2.19326 -2.02333 0
M  V30 6350 C 579.658 3.40125 -0.721817 0
M  V30 6351 H 578.981 3.68996 -1.5389 0
M  V30 6352 H 580.421 4.19295 -0.629922 0
M  V30 6353 C 578.88 3.31993 0.572902 0
M  V30 6354 O 579.41 3.67945 1.61182 0
M  V30 6355 N 577.616 2.85099 0.562748 0
M  V30 6356 H 577.163 2.5604 -0.283092 0
M  V30 6357 H 577.121 2.80041 1.42915 0
M  V30 6358 N 580.893 1.08022 1.14757 0
M  V30 6359 C 582.304 0.829144 1.67279 0
M  V30 6360 C 582.655 -0.644721 1.85305 0
M  V30 6361 O 581.78 -1.49838 1.56133 0
M  V30 6362 C 582.375 1.49855 3.03857 0
M  V30 6363 C 580.934 1.29482 3.53428 0
M  V30 6364 C 580.081 1.56386 2.28995 0
M  V30 6365 H 583.032 1.24134 0.988762 0
M  V30 6366 H 583.053 0.923572 3.69121 0
M  V30 6367 H 582.565 2.57123 2.90705 0
M  V30 6368 H 580.666 0.242669 3.71809 0
M  V30 6369 H 580.779 2.01974 4.34446 0
M  V30 6370 H 579.143 0.985217 2.34874 0
M  V30 6371 H 579.926 2.64851 2.18423 0
M  V30 6372 N 582.371 -1.3172 0.865308 0
M  V30 6373 C 583.303 -2.27545 0.274906 0
M  V30 6374 C 584.316 -1.52887 -0.559413 0
M  V30 6375 O 585.505 -1.74361 -0.382166 0
M  V30 6376 C 582.605 -3.33006 -0.629286 0
M  V30 6377 C 581.778 -4.37063 0.171553 0
M  V30 6378 C 580.837 -5.22044 -0.660052 0
M  V30 6379 O 579.863 -5.69129 -0.0897527 0
M  V30 6380 N 581.065 -5.45946 -1.97289 0
M  V30 6381 H 583.83 -2.78848 1.09836 0
M  V30 6382 H 581.391 -1.44693 0.726331 0
M  V30 6383 H 583.383 -3.86772 -1.19121 0
M  V30 6384 H 581.953 -2.81782 -1.35342 0
M  V30 6385 H 581.173 -3.83436 0.914919 0
M  V30 6386 H 582.461 -5.03662 0.721235 0
M  V30 6387 H 581.859 -5.0944 -2.45942 0
M  V30 6388 H 580.416 -6.02665 -2.4827 0
M  V30 6389 N 583.85 -0.624285 -1.44708 0
M  V30 6390 C 584.797 0.0847135 -2.30644 0
M  V30 6391 C 585.767 0.843575 -1.43084 0
M  V30 6392 O 586.952 0.825982 -1.71995 0
M  V30 6393 C 584.091 1.06495 -3.28257 0
M  V30 6394 C 583.205 0.305224 -4.3092 0
M  V30 6395 C 582.34 1.27667 -5.1563 0
M  V30 6396 C 581.379 0.505706 -6.10007 0
M  V30 6397 N 580.516 1.42727 -6.8744 0
M  V30 6398 H 585.356 -0.654068 -2.90733 0
M  V30 6399 H 582.893 -0.334334 -1.4325 0
M  V30 6400 H 584.851 1.64658 -3.83332 0
M  V30 6401 H 583.481 1.77094 -2.69884 0
M  V30 6402 H 582.533 -0.392207 -3.78373 0
M  V30 6403 H 583.845 -0.295553 -4.97924 0
M  V30 6404 H 582.999 1.92984 -5.75189 0
M  V30 6405 H 581.738 1.91137 -4.48685 0
M  V30 6406 H 580.743 -0.160999 -5.49564 0
M  V30 6407 H 581.968 -0.124183 -6.78986 0
M  V30 6408 H 579.913 2.04931 -6.23169 0
M  V30 6409 H 579.831 0.880345 -7.50857 0
M  V30 6410 H 581.099 2.0695 -7.51526 0
M  V30 6411 N 585.328 1.53329 -0.364422 0
M  V30 6412 C 586.553 2.06132 0.229033 0
M  V30 6413 C 586.978 1.23625 1.41769 0
M  V30 6414 O 586.336 0.255038 1.79497 0
M  V30 6415 C 586.384 3.55544 0.60174 0
M  V30 6416 O 585.488 3.75771 1.69912 0
M  V30 6417 H 584.829 0.663148 0.0336213 0
M  V30 6418 H 587.359 1.97758 -0.524689 0
M  V30 6419 H 587.369 3.98549 0.873073 0
M  V30 6420 H 586.044 4.15039 -0.267421 0
M  V30 6421 H 584.621 3.44663 1.42343 0
M  V30 6422 N 586.806 0.0935595 1.57322 0
M  V30 6423 C 587.753 -0.865935 2.1394 0
M  V30 6424 C 588.723 -1.28083 1.05754 0
M  V30 6425 O 589.908 -1.36285 1.33533 0
M  V30 6426 C 587.048 -2.12023 2.72287 0
M  V30 6427 C 586.161 -1.756 3.94701 0
M  V30 6428 C 585.296 -2.95804 4.41218 0
M  V30 6429 C 584.335 -2.555 5.56225 0
M  V30 6430 N 583.472 -3.68534 5.97601 0
M  V30 6431 H 588.312 -0.376261 2.95615 0
M  V30 6432 H 585.849 -0.174052 1.46067 0
M  V30 6433 H 587.807 -2.85477 3.04235 0
M  V30 6434 H 586.437 -2.58492 1.93343 0
M  V30 6435 H 585.489 -0.921208 3.69077 0
M  V30 6436 H 586.801 -1.41964 4.78171 0
M  V30 6437 H 585.955 -3.77513 4.74941 0
M  V30 6438 H 584.694 -3.32649 3.56645 0
M  V30 6439 H 583.699 -1.72218 5.22131 0
M  V30 6440 H 584.924 -2.19801 6.42545 0
M  V30 6441 H 582.87 -4.051 5.15974 0
M  V30 6442 H 582.787 -3.38737 6.75865 0
M  V30 6443 H 584.055 -4.50757 6.35955 0
M  V30 6444 N 588.284 -1.56567 -0.180126 0
M  V30 6445 C 589.234 -1.92132 -1.22756 0
M  V30 6446 C 590.218 -0.788639 -1.40247 0
M  V30 6447 O 591.41 -1.05171 -1.42366 0
M  V30 6448 C 588.539 -2.27719 -2.56902 0
M  V30 6449 C 587.625 -3.47481 -2.43142 0
M  V30 6450 N 588.016 -4.64973 -1.99082 0
M  V30 6451 C 586.314 -3.51914 -2.73994 0
M  V30 6452 C 587.015 -5.47119 -1.97574 0
M  V30 6453 N 585.991 -4.87925 -2.39645 0
M  V30 6454 H 589.793 -2.80464 -0.878478 0
M  V30 6455 H 587.307 -1.57686 -0.388463 0
M  V30 6456 H 589.304 -2.51389 -3.32579 0
M  V30 6457 H 587.964 -1.40722 -2.92621 0
M  V30 6458 H 588.975 -4.89358 -1.69557 0
M  V30 6459 H 585.652 -2.75372 -3.13809 0
M  V30 6460 H 587.042 -6.51254 -1.65282 0
M  V30 6461 N 589.762 0.448376 -1.51087 0
M  V30 6462 C 590.694 1.56146 -1.67783 0
M  V30 6463 C 591.707 1.52913 -0.55871 0
M  V30 6464 O 592.896 1.57889 -0.83267 0
M  V30 6465 C 589.996 2.95057 -1.66716 0
M  V30 6466 C 589.169 3.22915 -2.95033 0
M  V30 6467 C 588.228 4.41495 -2.86302 0
M  V30 6468 O 587.254 4.40688 -3.60254 0
M  V30 6469 N 588.456 5.44443 -2.014 0
M  V30 6470 H 591.221 1.42232 -2.638 0
M  V30 6471 H 588.782 0.637153 -1.48835 0
M  V30 6472 H 590.774 3.72388 -1.58458 0
M  V30 6473 H 589.344 3.02624 -0.783403 0
M  V30 6474 H 588.564 2.33985 -3.17245 0
M  V30 6475 H 589.852 3.38349 -3.79996 0
M  V30 6476 H 589.25 5.4793 -1.40674 0
M  V30 6477 H 587.807 6.2067 -1.99029 0
M  V30 6478 N 591.24 1.41047 0.703093 0
M  V30 6479 C 592.488 1.39723 1.4602 0
M  V30 6480 C 592.809 0.00461257 1.94999 0
M  V30 6481 O 592.079 -0.952292 1.71196 0
M  V30 6482 H 590.659 0.514281 0.541779 0
M  V30 6483 H 593.321 1.76217 0.832678 0
M  V30 6484 H 592.417 2.07982 2.32701 0
M  V30 6485 N 592.718 -0.936591 1.26751 0
M  V30 6486 C 593.964 -1.6858 1.12733 0
M  V30 6487 C 594.297 -1.91414 -0.327745 0
M  V30 6488 O 593.572 -1.49812 -1.24043 0
M  V30 6489 C 593.855 -3.05779 1.90187 0
M  V30 6490 C 593.708 -2.90242 3.43627 0
M  V30 6491 C 595.027 -4.0597 1.69931 0
M  V30 6492 H 592.146 -0.61182 0.410908 0
M  V30 6493 H 594.788 -1.08747 1.55801 0
M  V30 6494 H 592.938 -3.56853 1.53584 0
M  V30 6495 H 594.61 -2.46354 3.9001 0
M  V30 6496 H 592.853 -2.2577 3.70419 0
M  V30 6497 H 593.524 -3.87572 3.93055 0
M  V30 6498 H 596 -3.63874 2.0183 0
M  V30 6499 H 594.876 -4.99974 2.26534 0
M  V30 6500 H 595.137 -4.37369 0.64502 0
M  V30 6501 N 594.196 -1.08629 -1.14182 0
M  V30 6502 C 595.612 -0.814363 -1.3726 0
M  V30 6503 C 595.812 0.575271 -1.93114 0
M  V30 6504 O 594.868 1.33165 -2.1453 0
M  V30 6505 C 596.181 -1.8989 -2.33157 0
M  V30 6506 C 597.729 -1.92518 -2.46791 0
M  V30 6507 C 598.204 -3.00092 -3.45989 0
M  V30 6508 N 599.695 -2.99279 -3.53534 0
M  V30 6509 C 600.43 -3.79158 -4.30147 0
M  V30 6510 N 599.926 -4.68923 -5.09983 0
M  V30 6511 N 601.719 -3.67451 -4.25366 0
M  V30 6512 H 593.87 -1.98232 -0.762758 0
M  V30 6513 H 596.133 -0.860383 -0.398051 0
M  V30 6514 H 595.839 -2.89809 -1.99257 0
M  V30 6515 H 595.713 -1.77013 -3.33086 0
M  V30 6516 H 598.1 -0.932425 -2.79982 0
M  V30 6517 H 598.181 -2.09473 -1.46816 0
M  V30 6518 H 597.825 -3.99575 -3.13532 0
M  V30 6519 H 597.755 -2.80382 -4.45751 0
M  V30 6520 H 600.246 -2.3422 -2.96563 0
M  V30 6521 H 600.559 -5.26475 -5.65724 0
M  V30 6522 H 598.904 -4.72964 -5.09244 0
M  V30 6523 H 602.095 -2.9669 -3.62067 0
M  V30 6524 H 602.268 -4.29944 -4.84822 0
M  V30 6525 N 595.674 1.31259 -0.872281 0
M  V30 6526 C 596.621 2.28459 -0.327857 0
M  V30 6527 C 597.591 1.55831 0.574957 0
M  V30 6528 O 598.776 1.83965 0.506101 0
M  V30 6529 C 595.916 3.41985 0.462644 0
M  V30 6530 C 595.029 4.29458 -0.467949 0
M  V30 6531 C 594.164 5.30131 0.336903 0
M  V30 6532 C 593.203 6.0925 -0.58997 0
M  V30 6533 N 592.34 7.01872 0.178775 0
M  V30 6534 H 597.18 2.74414 -1.16193 0
M  V30 6535 H 594.717 1.34994 -0.584376 0
M  V30 6536 H 596.675 4.06547 0.936759 0
M  V30 6537 H 595.305 2.97134 1.2614 0
M  V30 6538 H 594.357 3.65318 -1.06052 0
M  V30 6539 H 595.669 4.84677 -1.17856 0
M  V30 6540 H 594.823 6.0038 0.873427 0
M  V30 6541 H 593.562 4.75573 1.08079 0
M  V30 6542 H 592.567 5.37889 -1.13823 0
M  V30 6543 H 593.792 6.65894 -1.33275 0
M  V30 6544 H 591.738 6.49721 0.905435 0
M  V30 6545 H 591.655 7.54522 -0.472452 0
M  V30 6546 H 592.923 7.76382 0.696454 0
M  V30 6547 N 597.152 0.631951 1.44375 0
M  V30 6548 C 598.115 -0.0628142 2.29114 0
M  V30 6549 C 599.115 -0.771494 1.41084 0
M  V30 6550 O 600.305 -0.615959 1.62947 0
M  V30 6551 C 597.437 -1.09953 3.22681 0
M  V30 6552 H 598.63 0.682509 2.92031 0
M  V30 6553 H 596.183 0.392128 1.51301 0
M  V30 6554 H 596.918 -1.87481 2.64616 0
M  V30 6555 H 596.703 -0.595286 3.87555 0
M  V30 6556 H 598.193 -1.58538 3.86336 0
M  V30 6557 N 598.631 -1.53133 0.372548 0
M  V30 6558 C 599.578 -2.25951 -0.470631 0
M  V30 6559 C 600.548 -1.26895 -1.07176 0
M  V30 6560 O 601.733 -1.55691 -1.10294 0
M  V30 6561 C 598.873 -3.05726 -1.6008 0
M  V30 6562 C 597.986 -4.19684 -1.02416 0
M  V30 6563 C 597.121 -4.86888 -2.124 0
M  V30 6564 C 596.16 -5.92866 -1.52238 0
M  V30 6565 N 595.297 -6.53732 -2.56084 0
M  V30 6566 H 600.137 -2.97587 0.156816 0
M  V30 6567 H 597.674 -1.4683 0.0891571 0
M  V30 6568 H 599.632 -3.50258 -2.26661 0
M  V30 6569 H 598.262 -2.36331 -2.1988 0
M  V30 6570 H 597.314 -3.79588 -0.248426 0
M  V30 6571 H 598.626 -4.95821 -0.544366 0
M  V30 6572 H 597.78 -5.34638 -2.86787 0
M  V30 6573 H 596.519 -4.10239 -2.63734 0
M  V30 6574 H 595.524 -5.4447 -0.763685 0
M  V30 6575 H 596.749 -6.71439 -1.0172 0
M  V30 6576 H 594.695 -5.79932 -3.06618 0
M  V30 6577 H 594.612 -7.25429 -2.12811 0
M  V30 6578 H 595.88 -7.0613 -3.30152 0
M  V30 6579 N 600.109 -0.101901 -1.5727 0
M  V30 6580 C 601.355 0.554864 -1.95686 0
M  V30 6581 C 601.71 1.65368 -0.983415 0
M  V30 6582 O 601.003 1.91597 -0.0105374 0
M  V30 6583 C 601.197 1.14898 -3.38427 0
M  V30 6584 C 601.026 0.109251 -4.49567 0
M  V30 6585 C 599.796 -0.316633 -5.04307 0
M  V30 6586 C 601.994 -0.665196 -5.0998 0
M  V30 6587 N 599.976 -1.34393 -5.99009 0
M  V30 6588 C 601.347 -1.54413 -6.00464 0
M  V30 6589 C 603.402 -0.717966 -4.92696 0
M  V30 6590 C 602.105 -2.47122 -6.75517 0
M  V30 6591 C 604.131 -1.63268 -5.68417 0
M  V30 6592 C 603.493 -2.49923 -6.58572 0
M  V30 6593 H 599.592 0.17317 -0.762585 0
M  V30 6594 H 602.176 -0.18605 -1.93809 0
M  V30 6595 H 600.347 1.85969 -3.40984 0
M  V30 6596 H 602.079 1.76867 -3.64006 0
M  V30 6597 H 598.834 0.0724419 -4.73545 0
M  V30 6598 H 599.258 -1.85598 -6.51062 0
M  V30 6599 H 603.9 -0.0621637 -4.22754 0
M  V30 6600 H 601.618 -3.13724 -7.44717 0
M  V30 6601 H 605.204 -1.67874 -5.57054 0
M  V30 6602 H 604.084 -3.19553 -7.16139 0
M  V30 6603 N 601.587 1.56661 0.17182 0
M  V30 6604 C 602.537 1.92781 1.21736 0
M  V30 6605 C 603.521 0.796065 1.39827 0
M  V30 6606 O 604.713 1.05924 1.41806 0
M  V30 6607 C 601.842 2.29079 2.55691 0
M  V30 6608 C 600.928 3.48765 2.41296 0
M  V30 6609 N 601.319 4.66022 1.96614 0
M  V30 6610 C 599.617 3.53362 2.72124 0
M  V30 6611 C 600.318 5.48159 1.94669 0
M  V30 6612 N 599.294 4.89189 2.37054 0
M  V30 6613 H 603.096 2.80926 0.863592 0
M  V30 6614 H 600.61 1.57889 0.380096 0
M  V30 6615 H 602.607 2.5315 3.31241 0
M  V30 6616 H 601.267 1.42272 2.91871 0
M  V30 6617 H 602.278 4.9025 1.66959 0
M  V30 6618 H 598.955 2.77033 3.12345 0
M  V30 6619 H 600.345 6.52121 1.61826 0
M  V30 6620 N 603.065 -0.440357 1.51323 0
M  V30 6621 C 603.995 -1.54174 1.75364 0
M  V30 6622 C 604.976 -1.59039 0.603375 0
M  V30 6623 O 606.161 -1.74815 0.845774 0
M  V30 6624 C 603.291 -2.92277 1.87593 0
M  V30 6625 C 602.245 -3.02274 3.03009 0
M  V30 6626 C 601.571 -4.42327 3.00418 0
M  V30 6627 C 602.871 -2.76634 4.43024 0
M  V30 6628 H 604.565 -1.34307 2.67585 0
M  V30 6629 H 602.111 -0.644678 1.28763 0
M  V30 6630 H 604.064 -3.69284 2.02995 0
M  V30 6631 H 602.788 -3.13369 0.920179 0
M  V30 6632 H 601.447 -2.27706 2.87307 0
M  V30 6633 H 601.095 -4.60382 2.02626 0
M  V30 6634 H 600.795 -4.49946 3.77918 0
M  V30 6635 H 602.319 -5.21312 3.17909 0
M  V30 6636 H 603.733 -3.43376 4.59093 0
M  V30 6637 H 602.13 -2.95666 5.22208 0
M  V30 6638 H 603.2 -1.72262 4.5327 0
M  V30 6639 N 604.543 -1.41418 -0.695603 0
M  V30 6640 C 605.791 -1.40496 -1.45277 0
M  V30 6641 C 606.112 -0.0149538 -1.94994 0
M  V30 6642 O 605.382 0.9432 -1.71699 0
M  V30 6643 H 603.962 -0.517147 -0.539044 0
M  V30 6644 H 606.624 -1.76656 -0.823321 0
M  V30 6645 H 605.72 -2.09214 -2.31595 0
M  V30 6646 N 606.021 0.929856 -1.27246 0
M  V30 6647 C 607.27 1.67182 -1.12842 0
M  V30 6648 C 607.583 1.9287 0.325666 0
M  V30 6649 O 608.789 2.64999 0.590572 0
M  V30 6650 C 607.245 3.01097 -1.97151 0
M  V30 6651 C 606.853 2.83115 -3.47203 0
M  V30 6652 C 608.597 3.78907 -1.91389 0
M  V30 6653 C 606.504 4.12573 -4.23719 0
M  V30 6654 H 605.434 0.627064 -0.418697 0
M  V30 6655 H 608.085 1.0332 -1.51649 0
M  V30 6656 H 606.467 3.66004 -1.51186 0
M  V30 6657 H 607.641 2.26989 -4.01015 0
M  V30 6658 H 605.956 2.18736 -3.54321 0
M  V30 6659 H 608.553 4.74837 -2.45834 0
M  V30 6660 H 608.896 4.0674 -0.887047 0
M  V30 6661 H 609.429 3.20794 -2.35237 0
M  V30 6662 H 606.168 3.8992 -5.26918 0
M  V30 6663 H 605.688 4.68371 -3.74685 0
M  V30 6664 H 607.367 4.8095 -4.32777 0
M  V30 6665 N 607.499 1.09233 1.13605 0
M  V30 6666 C 608.915 0.82163 1.36826 0
M  V30 6667 C 609.115 -0.565021 1.93416 0
M  V30 6668 O 608.171 -1.32026 2.15234 0
M  V30 6669 C 609.484 1.91124 2.32147 0
M  V30 6670 C 611.032 1.93824 2.45767 0
M  V30 6671 C 611.507 3.01923 3.44393 0
M  V30 6672 N 612.998 3.01149 3.51942 0
M  V30 6673 C 613.733 3.81434 4.2813 0
M  V30 6674 N 613.229 4.71621 5.07489 0
M  V30 6675 N 615.022 3.69702 4.23411 0
M  V30 6676 H 607.173 1.98633 0.752234 0
M  V30 6677 H 609.436 0.862482 0.393482 0
M  V30 6678 H 609.142 2.90862 1.97717 0
M  V30 6679 H 609.016 1.78777 3.32142 0
M  V30 6680 H 611.403 0.94726 2.79483 0
M  V30 6681 H 611.484 2.10248 1.45703 0
M  V30 6682 H 611.128 4.01232 3.11408 0
M  V30 6683 H 611.058 2.82742 4.44257 0
M  V30 6684 H 613.549 2.35789 2.95317 0
M  V30 6685 H 613.862 5.29468 5.62924 0
M  V30 6686 H 612.207 4.75658 5.06729 0
M  V30 6687 H 615.398 2.98606 3.60489 0
M  V30 6688 H 615.571 4.32509 4.82535 0
M  V30 6689 N 608.977 -1.30795 0.87923 0
M  V30 6690 C 610.202 -2.01063 0.508769 0
M  V30 6691 C 610.627 -1.65508 -0.893803 0
M  V30 6692 O 609.985 -0.868616 -1.59138 0
M  V30 6693 C 610.033 -3.54054 0.683991 0
M  V30 6694 O 609.137 -4.11498 -0.272654 0
M  V30 6695 H 608.478 -0.632786 0.201191 0
M  V30 6696 H 611.008 -1.66776 1.18519 0
M  V30 6697 H 611.018 -4.03845 0.580798 0
M  V30 6698 H 609.693 -3.79271 1.70665 0
M  V30 6699 H 608.27 -3.72695 -0.12364 0
M  V30 6700 N 610.455 -0.639598 -1.44038 0
M  V30 6701 C 611.387 0.0987684 -2.28987 0
M  V30 6702 C 612.4 0.80058 -1.41755 0
M  V30 6703 O 613.589 0.660611 -1.65826 0
M  V30 6704 C 610.689 1.16242 -3.18341 0
M  V30 6705 C 609.862 0.541447 -4.34036 0
M  V30 6706 C 608.921 1.50017 -5.04362 0
M  V30 6707 O 607.947 1.01403 -5.60095 0
M  V30 6708 N 609.149 2.83441 -5.06598 0
M  V30 6709 H 611.914 -0.630305 -2.92997 0
M  V30 6710 H 609.475 -0.481376 -1.54578 0
M  V30 6711 H 611.467 1.80429 -3.62253 0
M  V30 6712 H 610.037 1.79362 -2.56024 0
M  V30 6713 H 609.257 -0.27923 -3.9321 0
M  V30 6714 H 610.545 0.107379 -5.08687 0
M  V30 6715 H 609.943 3.2551 -4.62666 0
M  V30 6716 H 608.5 3.42966 -5.54272 0
M  V30 6717 N 611.933 1.52934 -0.380664 0
M  V30 6718 C 613.158 2.06363 0.207157 0
M  V30 6719 C 613.583 1.25122 1.4045 0
M  V30 6720 O 612.941 0.274062 1.79217 0
M  V30 6721 C 612.989 3.56162 0.563996 0
M  V30 6722 O 612.093 3.77552 1.65917 0
M  V30 6723 H 611.434 0.663468 0.0265859 0
M  V30 6724 H 613.964 1.9719 -0.545635 0
M  V30 6725 H 613.974 3.99453 0.830752 0
M  V30 6726 H 612.649 4.14732 -0.311427 0
M  V30 6727 H 611.226 3.46154 1.3868 0
M  V30 6728 N 613.412 0.11024 1.57214 0
M  V30 6729 C 614.828 -0.24638 1.57687 0
M  V30 6730 C 615.028 -1.67344 1.12241 0
M  V30 6731 O 614.084 -2.39298 0.805783 0
M  V30 6732 C 615.397 -0.0210288 3.00693 0
M  V30 6733 C 616.945 -0.0876077 3.12877 0
M  V30 6734 C 617.42 0.10994 4.57868 0
M  V30 6735 N 618.911 0.0556135 4.63167 0
M  V30 6736 C 619.646 0.183495 5.73106 0
M  V30 6737 N 619.142 0.367058 6.91827 0
M  V30 6738 N 620.935 0.123689 5.61964 0
M  V30 6739 H 613.086 1.04246 1.85058 0
M  V30 6740 H 615.349 0.40979 0.854854 0
M  V30 6741 H 615.055 0.965203 3.38196 0
M  V30 6742 H 614.929 -0.756748 3.69531 0
M  V30 6743 H 617.316 -1.06436 2.75237 0
M  V30 6744 H 617.397 0.67985 2.466 0
M  V30 6745 H 617.041 1.08362 4.96206 0
M  V30 6746 H 616.971 -0.677397 5.22225 0
M  V30 6747 H 619.462 -0.0831062 3.77809 0
M  V30 6748 H 619.775 0.455739 7.71455 0
M  V30 6749 H 618.12 0.40292 6.93831 0
M  V30 6750 H 621.311 -0.0186928 4.68096 0
M  V30 6751 H 621.484 0.226797 6.47603 0
M  V30 6752 N 614.89 -1.56749 -0.16351 0
M  V30 6753 C 616.301 -1.72039 -0.725216 0
M  V30 6754 C 616.652 -0.72202 -1.82432 0
M  V30 6755 O 615.777 0.114942 -2.16095 0
M  V30 6756 C 616.372 -3.11932 -1.32227 0
M  V30 6757 C 614.931 -3.28879 -1.83072 0
M  V30 6758 C 614.078 -2.67984 -0.712716 0
M  V30 6759 H 617.029 -1.58579 0.0619772 0
M  V30 6760 H 617.05 -3.11015 -2.19202 0
M  V30 6761 H 616.562 -3.84572 -0.522103 0
M  V30 6762 H 614.663 -2.61209 -2.65708 0
M  V30 6763 H 614.776 -4.36688 -1.97079 0
M  V30 6764 H 613.14 -2.28005 -1.13515 0
M  V30 6765 H 613.923 -3.43216 0.0757361 0
M  V30 6766 N 616.368 0.432326 -1.51554 0
M  V30 6767 C 617.316 1.54572 -1.73811 0
M  V30 6768 C 618.31 1.58246 -0.604539 0
M  V30 6769 O 619.516 1.6193 -0.786041 0
M  V30 6770 H 615.891 0.513626 -0.549265 0
M  V30 6771 H 617.862 1.32977 -2.67132 0
M  V30 6772 C 616.611 2.92181 -1.88483 0
M  V30 6773 H 615.934 2.90088 -2.75116 0
M  V30 6774 H 617.374 3.69439 -2.08065 0
M  V30 6775 C 615.833 3.3065 -0.645909 0
M  V30 6776 O 616.363 4.01216 0.197093 0
M  V30 6777 N 614.569 2.86464 -0.488538 0
M  V30 6778 H 614.116 2.29209 -1.17562 0
M  V30 6779 H 614.074 3.12565 0.339156 0
M  V30 6780 N 617.846 1.41785 0.688094 0
M  V30 6781 C 619.123 1.32031 1.44316 0
M  V30 6782 C 619.503 -0.0486079 2.11044 0
M  V30 6783 O 618.851 -1.06332 2.02252 0
M  V30 6784 C 619.061 2.47906 2.45649 0
M  V30 6785 C 620.409 2.89415 3.10683 0
M  V30 6786 O 621.433 2.477 2.55975 0
M  V30 6787 O 620.292 3.61573 4.09789 0
M  V30 6788 H 617.386 0.519994 0.643067 0
M  V30 6789 H 619.932 1.53765 0.71794 0
M  V30 6790 H 618.704 3.39222 1.95048 0
M  V30 6791 H 618.327 2.28089 3.25671 0
M  V30 6792 N 619.324 -0.923095 1.27737 0
M  V30 6793 C 620.573 -1.66581 1.13727 0
M  V30 6794 C 620.886 -1.9304 -0.315433 0
M  V30 6795 O 622.092 -2.65309 -0.57651 0
M  V30 6796 C 620.548 -3.00047 1.98745 0
M  V30 6797 C 620.156 -2.8127 3.48699 0
M  V30 6798 C 621.9 -3.77887 1.93395 0
M  V30 6799 C 619.807 -4.1032 4.25901 0
M  V30 6800 H 618.737 -0.624834 0.422017 0
M  V30 6801 H 621.388 -1.02514 1.52194 0
M  V30 6802 H 619.77 -3.65197 1.53125 0
M  V30 6803 H 620.944 -2.24859 4.02213 0
M  V30 6804 H 619.259 -2.16854 3.55476 0
M  V30 6805 H 621.856 -4.73526 2.48348 0
M  V30 6806 H 622.199 -4.06264 0.908605 0
M  V30 6807 H 622.732 -3.19541 2.36935 0
M  V30 6808 H 619.471 -3.8712 5.28978 0
M  V30 6809 H 618.991 -4.66377 3.77163 0
M  V30 6810 H 620.67 -4.78648 4.35321 0
M  V30 6811 N 620.802 -1.09834 -1.13024 0
M  V30 6812 C 621.735 -0.685453 -2.17662 0
M  V30 6813 C 622.713 0.310142 -1.59615 0
M  V30 6814 O 623.897 0.21052 -1.87321 0
M  V30 6815 C 621.024 -0.0104476 -3.38698 0
M  V30 6816 C 620.07 -0.968522 -4.15358 0
M  V30 6817 S 620.903 -2.48272 -4.74469 0
M  V30 6818 C 622.059 -1.82025 -5.98847 0
M  V30 6819 H 622.292 -1.57187 -2.52348 0
M  V30 6820 H 619.825 -0.914728 -1.24387 0
M  V30 6821 H 621.783 0.372694 -4.08805 0
M  V30 6822 H 620.444 0.852673 -3.02305 0
M  V30 6823 H 619.637 -0.443373 -5.02046 0
M  V30 6824 H 619.239 -1.29327 -3.50928 0
M  V30 6825 H 621.531 -1.14678 -6.67724 0
M  V30 6826 H 622.474 -2.66645 -6.55977 0
M  V30 6827 H 622.882 -1.2874 -5.49624 0
M  V30 6828 N 622.28 1.30327 -0.886154 0
M  V30 6829 C 623.243 2.26376 -0.358687 0
M  V30 6830 C 624.243 1.52845 0.499498 0
M  V30 6831 O 625.433 1.71483 0.306485 0
M  V30 6832 C 622.565 3.37379 0.488726 0
M  V30 6833 H 623.758 2.74547 -1.20681 0
M  V30 6834 H 621.311 1.41536 -0.663113 0
M  V30 6835 H 622.046 2.94526 1.35739 0
M  V30 6836 H 621.831 3.91897 -0.126003 0
M  V30 6837 H 623.321 4.08868 0.84952 0
M  V30 6838 N 623.758 0.647228 1.43697 0
M  V30 6839 C 624.668 -0.0487997 2.34549 0
M  V30 6840 C 625.684 -0.818586 1.53542 0
M  V30 6841 O 626.86 -0.767195 1.86215 0
M  V30 6842 C 623.925 -1.00734 3.31743 0
M  V30 6843 C 622.986 -0.23515 4.28655 0
M  V30 6844 C 622.219 -1.14803 5.21206 0
M  V30 6845 O 622.442 -2.38717 5.18045 0
M  V30 6846 O 621.376 -0.623667 5.9866 0
M  V30 6847 H 625.202 0.698863 2.9555 0
M  V30 6848 H 622.787 0.407412 1.43738 0
M  V30 6849 H 624.669 -1.55837 3.91526 0
M  V30 6850 H 623.344 -1.73534 2.73254 0
M  V30 6851 H 622.251 0.359319 3.7237 0
M  V30 6852 H 623.584 0.453152 4.9011 0
M  V30 6853 N 625.236 -1.5273 0.388769 0
M  V30 6854 C 626.482 -2.01871 -0.193877 0
M  V30 6855 C 626.815 -1.27475 -1.46505 0
M  V30 6856 O 626.09 -0.375063 -1.90849 0
M  V30 6857 C 626.373 -3.5712 -0.462336 0
M  V30 6858 C 626.226 -4.42186 0.824091 0
M  V30 6859 C 627.545 -4.21881 -1.25319 0
M  V30 6860 H 624.664 -0.733764 -0.0689899 0
M  V30 6861 H 627.306 -1.82796 0.518231 0
M  V30 6862 H 625.456 -3.73504 -1.06896 0
M  V30 6863 H 627.128 -4.37554 1.46096 0
M  V30 6864 H 625.371 -4.09219 1.43952 0
M  V30 6865 H 626.042 -5.48828 0.590905 0
M  V30 6866 H 628.518 -4.0947 -0.73981 0
M  V30 6867 H 627.394 -5.30487 -1.40977 0
M  V30 6868 H 627.655 -3.79478 -2.26824 0
M  V30 6869 N 626.714 -0.118576 -1.57153 0
M  V30 6870 C 627.954 0.542618 -1.97066 0
M  V30 6871 C 628.318 1.63874 -1.00046 0
M  V30 6872 O 629.519 2.3588 -1.28895 0
M  V30 6873 C 627.79 1.06196 -3.41258 0
M  V30 6874 S 629.349 1.73174 -4.03183 0
M  V30 6875 H 626.167 0.17638 -0.688775 0
M  V30 6876 H 628.769 -0.203556 -1.94437 0
M  V30 6877 H 627.473 0.253016 -4.09619 0
M  V30 6878 H 627.004 1.84342 -3.47536 0
M  V30 6879 H 629.019 3.01749 -3.93906 0
M  V30 6880 N 628.193 1.56834 0.155195 0
M  V30 6881 C 629.609 1.51315 0.50755 0
M  V30 6882 C 629.809 0.825614 1.83809 0
M  V30 6883 O 628.865 0.39271 2.49427 0
M  V30 6884 C 630.178 2.96074 0.52542 0
M  V30 6885 C 631.726 3.06968 0.611505 0
M  V30 6886 C 632.201 4.53218 0.660115 0
M  V30 6887 N 633.692 4.5753 0.722564 0
M  V30 6888 C 634.427 5.68056 0.781023 0
M  V30 6889 N 633.923 6.88173 0.799327 0
M  V30 6890 N 635.716 5.56068 0.821278 0
M  V30 6891 H 627.867 1.9993 -0.717063 0
M  V30 6892 H 630.13 0.911507 -0.260496 0
M  V30 6893 H 629.836 3.49599 -0.383875 0
M  V30 6894 H 629.71 3.51587 1.36624 0
M  V30 6895 H 632.097 2.53468 1.51122 0
M  V30 6896 H 632.178 2.54513 -0.256306 0
M  V30 6897 H 631.822 5.07354 -0.23541 0
M  V30 6898 H 631.752 5.03447 1.5443 0
M  V30 6899 H 634.243 3.71054 0.716049 0
M  V30 6900 H 634.556 7.6816 0.845553 0
M  V30 6901 H 632.901 6.90751 0.767337 0
M  V30 6902 H 636.092 4.61142 0.804091 0
M  V30 6903 H 636.265 6.42223 0.863372 0
M  V30 6904 N 629.671 -0.424282 1.51781 0
M  V30 6905 C 630.634 -1.49848 1.73431 0
M  V30 6906 C 631.634 -1.49016 0.604225 0
M  V30 6907 O 632.824 -1.50808 0.871935 0
M  V30 6908 C 629.956 -2.89332 1.80277 0
M  V30 6909 H 631.149 -1.3195 2.69312 0
M  V30 6910 H 628.702 -0.653809 1.41968 0
M  V30 6911 H 629.437 -3.12618 0.862568 0
M  V30 6912 H 629.222 -2.9134 2.62419 0
M  V30 6913 H 630.712 -3.67233 1.98821 0
M  V30 6914 N 631.149 -1.42148 -0.680565 0
M  V30 6915 C 632.398 -1.41604 -1.43636 0
M  V30 6916 C 632.711 -0.0337887 -1.95571 0
M  V30 6917 O 633.917 0.0942588 -2.71336 0
M  V30 6918 C 632.373 -2.49056 -2.59806 0
M  V30 6919 C 631.981 -3.9326 -2.14594 0
M  V30 6920 C 633.725 -2.5767 -3.37352 0
M  V30 6921 C 631.632 -4.92232 -3.27813 0
M  V30 6922 H 630.562 -0.526656 -0.539583 0
M  V30 6923 H 633.213 -1.68033 -0.737369 0
M  V30 6924 H 631.595 -2.15782 -3.32045 0
M  V30 6925 H 632.769 -4.35858 -1.49546 0
M  V30 6926 H 631.084 -3.88443 -1.50002 0
M  V30 6927 H 633.681 -3.28794 -4.21662 0
M  V30 6928 H 634.024 -1.61837 -3.83555 0
M  V30 6929 H 634.557 -2.90109 -2.72179 0
M  V30 6930 H 631.296 -5.89522 -2.86607 0
M  V30 6931 H 630.816 -4.5427 -3.91661 0
M  V30 6932 H 632.495 -5.13684 -3.93367 0
M  V30 6933 N 632.627 0.916307 -1.28225 0
M  V30 6934 C 633.574 2.01841 -1.11932 0
M  V30 6935 C 634.544 1.66091 -0.0171604 0
M  V30 6936 O 635.729 1.89934 -0.181617 0
M  V30 6937 C 632.869 3.36065 -0.784504 0
M  V30 6938 C 631.982 3.847 -1.96544 0
M  V30 6939 C 631.117 5.07423 -1.57149 0
M  V30 6940 C 630.156 5.48384 -2.71922 0
M  V30 6941 N 629.293 6.62298 -2.33037 0
M  V30 6942 H 634.133 2.1511 -2.06232 0
M  V30 6943 H 631.67 1.05366 -1.02647 0
M  V30 6944 H 633.628 4.13272 -0.571148 0
M  V30 6945 H 632.258 3.22571 0.121565 0
M  V30 6946 H 631.31 3.03673 -2.291 0
M  V30 6947 H 632.622 4.1102 -2.82603 0
M  V30 6948 H 631.776 5.92165 -1.32004 0
M  V30 6949 H 630.515 4.82906 -0.682153 0
M  V30 6950 H 629.52 4.62184 -2.97768 0
M  V30 6951 H 630.745 5.7489 -3.61494 0
M  V30 6952 H 628.691 6.39416 -1.4657 0
M  V30 6953 H 628.608 6.8833 -3.12631 0
M  V30 6954 H 629.876 7.50352 -2.11169 0
M  V30 6955 N 634.105 1.10431 1.1244 0
M  V30 6956 C 635.037 0.710945 2.17895 0
M  V30 6957 C 636.05 -0.252315 1.60833 0
M  V30 6958 O 637.239 -0.03679 1.78462 0
M  V30 6959 C 634.339 0.0284262 3.38888 0
M  V30 6960 C 633.512 1.01585 4.2544 0
M  V30 6961 C 632.571 0.364826 5.24934 0
M  V30 6962 O 631.597 1.01561 5.60066 0
M  V30 6963 N 632.799 -0.87674 5.73841 0
M  V30 6964 H 635.564 1.61826 2.52255 0
M  V30 6965 H 633.125 0.993132 1.27861 0
M  V30 6966 H 635.117 -0.418568 4.0253 0
M  V30 6967 H 633.687 -0.781294 3.02679 0
M  V30 6968 H 632.907 1.64111 3.58415 0
M  V30 6969 H 634.195 1.68425 4.80115 0
M  V30 6970 H 633.593 -1.42483 5.47462 0
M  V30 6971 H 632.15 -1.26688 6.39369 0
M  V30 6972 N 635.583 -1.29855 0.893053 0
M  V30 6973 C 636.513 -2.3035 0.382249 0
M  V30 6974 C 637.494 -1.61328 -0.539203 0
M  V30 6975 O 638.679 -1.88882 -0.451342 0
M  V30 6976 C 635.809 -3.45024 -0.396983 0
M  V30 6977 C 634.763 -4.258 0.433437 0
M  V30 6978 C 634.089 -5.32605 -0.472889 0
M  V30 6979 C 635.389 -4.94549 1.67984 0
M  V30 6980 H 637.083 -2.73325 1.22205 0
M  V30 6981 H 634.629 -1.314 0.589073 0
M  V30 6982 H 636.582 -4.14398 -0.765024 0
M  V30 6983 H 635.306 -3.00875 -1.2705 0
M  V30 6984 H 633.965 -3.58125 0.783723 0
M  V30 6985 H 633.613 -4.84702 -1.34435 0
M  V30 6986 H 633.313 -5.87547 0.0789958 0
M  V30 6987 H 634.837 -6.04832 -0.837269 0
M  V30 6988 H 636.251 -5.56395 1.38192 0
M  V30 6989 H 634.648 -5.59393 2.17254 0
M  V30 6990 H 635.718 -4.20215 2.41965 0
M  V30 6991 N 637.061 -0.65484 -1.43351 0
M  V30 6992 C 638.338 -0.0987371 -1.95351 0
M  V30 6993 C 638.718 1.38161 -1.59608 0
M  V30 6994 O 638.066 2.10791 -0.882021 0
M  V30 6995 C 638.276 -0.346684 -3.47274 0
M  V30 6996 C 639.624 -0.25249 -4.23849 0
M  V30 6997 O 640.648 -0.279332 -3.55103 0
M  V30 6998 O 639.507 -0.177584 -5.46211 0
M  V30 6999 H 636.601 0.0086829 -0.826954 0
M  V30 7000 H 639.147 -0.728189 -1.53282 0
M  V30 7001 H 637.919 -1.37296 -3.66423 0
M  V30 7002 H 637.542 0.315757 -3.96344 0
M  V30 7003 N 638.539 1.52521 -0.396863 0
M  V30 7004 C 639.769 2.05792 0.182485 0
M  V30 7005 C 640.177 1.26784 1.40436 0
M  V30 7006 O 639.52 0.309617 1.81072 0
M  V30 7007 C 639.582 3.54291 0.609781 0
M  V30 7008 C 639.246 4.5426 -0.499674 0
M  V30 7009 C 640.243 5.01812 -1.35944 0
M  V30 7010 C 637.928 4.97827 -0.668864 0
M  V30 7011 C 639.922 5.91562 -2.37346 0
M  V30 7012 C 637.609 5.87376 -1.68621 0
M  V30 7013 C 638.607 6.34137 -2.53692 0
M  V30 7014 O 638.295 7.21915 -3.53686 0
M  V30 7015 H 638.027 0.675362 0.0293583 0
M  V30 7016 H 640.581 1.97539 -0.56281 0
M  V30 7017 H 638.811 3.60188 1.40717 0
M  V30 7018 H 640.5 3.90267 1.11565 0
M  V30 7019 H 641.266 4.68879 -1.24008 0
M  V30 7020 H 637.145 4.60997 -0.0163971 0
M  V30 7021 H 640.689 6.27983 -3.03782 0
M  V30 7022 H 636.586 6.19723 -1.80593 0
M  V30 7023 H 637.354 7.39996 -3.49784 0
M  V30 7024 N 640.017 0.126909 1.57088 0
M  V30 7025 C 640.927 -0.833867 2.1928 0
M  V30 7026 C 641.943 -1.2868 1.17122 0
M  V30 7027 O 643.119 -1.34815 1.49622 0
M  V30 7028 C 640.184 -2.0632 2.78627 0
M  V30 7029 C 639.245 -1.66143 3.95847 0
M  V30 7030 C 638.478 -2.83217 4.52354 0
M  V30 7031 O 638.701 -3.98868 4.0775 0
M  V30 7032 O 637.635 -2.59846 5.42922 0
M  V30 7033 H 641.461 -0.334564 3.01852 0
M  V30 7034 H 639.046 -0.0991091 1.49071 0
M  V30 7035 H 640.928 -2.78304 3.16425 0
M  V30 7036 H 639.603 -2.55242 1.99082 0
M  V30 7037 H 638.51 -0.912435 3.62802 0
M  V30 7038 H 639.843 -1.21957 4.76852 0
M  V30 7039 N 641.495 -1.56914 -0.146875 0
M  V30 7040 C 642.741 -1.84515 -0.855914 0
M  V30 7041 C 643.096 -0.710909 -1.78784 0
M  V30 7042 O 642.389 0.291123 -1.89375 0
M  V30 7043 C 642.583 -3.16128 -1.66727 0
M  V30 7044 C 642.412 -4.42246 -0.815405 0
M  V30 7045 C 641.182 -5.03006 -0.480976 0
M  V30 7046 C 643.38 -5.14094 -0.145684 0
M  V30 7047 N 641.362 -6.12695 0.384476 0
M  V30 7048 C 642.733 -6.17282 0.579902 0
M  V30 7049 C 644.788 -4.97856 -0.0663705 0
M  V30 7050 C 643.491 -7.0599 1.37731 0
M  V30 7051 C 645.517 -5.87028 0.71778 0
M  V30 7052 C 644.879 -6.89698 1.43165 0
M  V30 7053 H 640.978 -0.725829 -0.291026 0
M  V30 7054 H 643.562 -1.94322 -0.121279 0
M  V30 7055 H 641.733 -3.07468 -2.37315 0
M  V30 7056 H 643.465 -3.31635 -2.31949 0
M  V30 7057 H 640.22 -4.66504 -0.816789 0
M  V30 7058 H 640.644 -6.72158 0.80823 0
M  V30 7059 H 645.286 -4.18465 -0.603929 0
M  V30 7060 H 643.004 -7.84809 1.92613 0
M  V30 7061 H 646.59 -5.76532 0.781141 0
M  V30 7062 H 645.47 -7.57505 2.02868 0
M  V30 7063 N 642.974 0.416227 -1.52004 0
M  V30 7064 C 643.921 1.50666 -1.74838 0
M  V30 7065 C 644.891 1.55245 -0.590599 0
M  V30 7066 O 646.076 1.71928 -0.827374 0
M  V30 7067 C 643.216 2.88185 -1.89851 0
M  V30 7068 C 642.329 2.92971 -3.17478 0
M  V30 7069 C 641.464 4.21745 -3.22962 0
M  V30 7070 C 640.503 4.20478 -4.4482 0
M  V30 7071 N 639.64 5.40811 -4.47736 0
M  V30 7072 H 644.48 1.30498 -2.67907 0
M  V30 7073 H 642.017 0.633568 -1.32757 0
M  V30 7074 H 643.975 3.68007 -1.96537 0
M  V30 7075 H 642.605 3.06865 -1.00169 0
M  V30 7076 H 641.657 2.05684 -3.19997 0
M  V30 7077 H 642.969 2.87899 -4.07328 0
M  V30 7078 H 642.123 5.09954 -3.28682 0
M  V30 7079 H 640.862 4.29503 -2.31038 0
M  V30 7080 H 639.867 3.30659 -4.39254 0
M  V30 7081 H 641.092 4.14366 -5.38031 0
M  V30 7082 H 639.038 5.4925 -3.58692 0
M  V30 7083 H 638.955 5.37705 -5.31422 0
M  V30 7084 H 640.223 6.30993 -4.57676 0
M  V30 7085 N 644.452 1.42507 0.673017 0
M  V30 7086 C 645.698 1.43284 1.43519 0
M  V30 7087 C 646.031 0.049668 1.94136 0
M  V30 7088 O 645.306 -0.926369 1.71022 0
M  V30 7089 C 645.589 2.45874 2.63093 0
M  V30 7090 C 645.442 3.93388 2.18096 0
M  V30 7091 C 646.761 2.45431 3.6531 0
M  V30 7092 H 643.88 0.521752 0.520522 0
M  V30 7093 H 646.522 1.73932 0.764701 0
M  V30 7094 H 644.672 2.19869 3.20296 0
M  V30 7095 H 646.344 4.30379 1.66046 0
M  V30 7096 H 644.587 4.07169 1.49652 0
M  V30 7097 H 645.258 4.60752 3.03993 0
M  V30 7098 H 647.734 2.68561 3.17827 0
M  V30 7099 H 646.61 3.19189 4.46553 0
M  V30 7100 H 646.871 1.48092 4.16559 0
M  V30 7101 N 645.93 -0.909495 1.28709 0
M  V30 7102 C 647.176 -1.66151 1.16283 0
M  V30 7103 C 647.509 -1.92067 -0.287069 0
M  V30 7104 O 646.784 -1.52409 -1.20837 0
M  V30 7105 C 647.067 -3.01676 1.9663 0
M  V30 7106 C 646.92 -2.82888 3.49707 0
M  V30 7107 C 648.239 -4.02274 1.78504 0
M  V30 7108 H 645.358 -0.602966 0.423793 0
M  V30 7109 H 648 -1.05418 1.58073 0
M  V30 7110 H 646.15 -3.53515 1.61119 0
M  V30 7111 H 647.822 -2.38026 3.95147 0
M  V30 7112 H 646.065 -2.17862 3.75125 0
M  V30 7113 H 646.736 -3.79147 4.01187 0
M  V30 7114 H 649.212 -3.59511 2.09503 0
M  V30 7115 H 648.088 -4.95056 2.37088 0
M  V30 7116 H 648.349 -4.35903 0.737647 0
M  V30 7117 N 647.408 -1.11026 -1.11852 0
M  V30 7118 C 648.356 -0.759643 -2.19846 0
M  V30 7119 C 649.35 0.246964 -1.6759 0
M  V30 7120 O 650.556 0.106693 -1.79684 0
M  V30 7121 H 646.931 -0.22775 -0.716683 0
M  V30 7122 H 648.902 -1.6792 -2.46669 0
M  V30 7123 C 647.651 -0.214364 -3.47039 0
M  V30 7124 H 646.974 -0.980175 -3.87599 0
M  V30 7125 H 648.414 -0.00717047 -4.23999 0
M  V30 7126 C 646.873 1.05436 -3.19976 0
M  V30 7127 O 647.403 2.13483 -3.40276 0
M  V30 7128 N 645.609 0.975436 -2.7374 0
M  V30 7129 H 645.156 0.0960853 -2.57421 0
M  V30 7130 H 645.114 1.82501 -2.5601 0
M  V30 7131 N 648.886 1.2938 -0.899927 0
M  V30 7132 C 650.297 1.77644 -0.574427 0
M  V30 7133 C 650.648 1.73824 0.909928 0
M  V30 7134 O 649.773 1.32429 1.71147 0
M  V30 7135 C 650.368 3.22573 -1.03595 0
M  V30 7136 C 648.927 3.68614 -0.76161 0
M  V30 7137 C 648.074 2.49483 -1.21052 0
M  V30 7138 H 651.025 1.16038 -1.08263 0
M  V30 7139 H 651.046 3.78684 -0.371337 0
M  V30 7140 H 650.558 3.25321 -2.11631 0
M  V30 7141 H 648.659 3.7134 0.306127 0
M  V30 7142 H 648.772 4.59402 -1.35965 0
M  V30 7143 H 647.136 2.46798 -0.629515 0
M  V30 7144 H 647.919 2.54959 -2.29893 0
M  V30 7145 N 650.364 0.662433 1.43002 0
M  V30 7146 C 651.594 0.187343 2.05749 0
M  V30 7147 C 652.002 -1.15582 1.49791 0
M  V30 7148 O 651.345 -1.72651 0.627487 0
M  V30 7149 C 651.407 0.0316493 3.59486 0
M  V30 7150 C 651.071 1.30156 4.38073 0
M  V30 7151 C 652.068 2.23234 4.69535 0
M  V30 7152 C 649.753 1.54572 4.77926 0
M  V30 7153 C 651.747 3.39012 5.39768 0
M  V30 7154 C 649.434 2.70641 5.47902 0
M  V30 7155 C 650.432 3.62687 5.78746 0
M  V30 7156 O 650.12 4.76728 6.47291 0
M  V30 7157 H 649.852 0.0915214 0.669776 0
M  V30 7158 H 652.406 0.905982 1.8434 0
M  V30 7159 H 650.636 -0.742451 3.79506 0
M  V30 7160 H 652.325 -0.401977 4.03905 0
M  V30 7161 H 653.091 2.05616 4.39257 0
M  V30 7162 H 648.97 0.83804 4.53319 0
M  V30 7163 H 652.514 4.10877 5.63761 0
M  V30 7164 H 648.411 2.88189 5.77596 0
M  V30 7165 H 649.179 4.76113 6.65777 0
M  V30 7166 N 651.842 -1.52309 0.404946 0
M  V30 7167 C 653.072 -2.05886 -0.171569 0
M  V30 7168 C 653.48 -1.27527 -1.39762 0
M  V30 7169 O 652.823 -0.319215 -1.80905 0
M  V30 7170 C 652.885 -3.54609 -0.590983 0
M  V30 7171 C 652.549 -4.53989 0.523757 0
M  V30 7172 C 653.546 -5.01084 1.38604 0
M  V30 7173 C 651.231 -4.97465 0.695255 0
M  V30 7174 C 653.225 -5.90295 2.4048 0
M  V30 7175 C 650.912 -5.86473 1.71733 0
M  V30 7176 C 651.91 -6.32782 2.57051 0
M  V30 7177 O 651.598 -7.20029 3.57509 0
M  V30 7178 H 651.33 -0.675508 -0.0257763 0
M  V30 7179 H 653.884 -1.97238 0.573278 0
M  V30 7180 H 652.114 -3.60929 -1.38805 0
M  V30 7181 H 653.803 -3.90853 -1.09494 0
M  V30 7182 H 654.569 -4.68214 1.26492 0
M  V30 7183 H 650.448 -4.60982 0.0408447 0
M  V30 7184 H 653.992 -6.26363 3.07108 0
M  V30 7185 H 649.889 -6.18756 1.83877 0
M  V30 7186 H 650.657 -7.3813 3.53703 0
M  V30 7187 N 653.32 -0.135238 -1.57019 0
M  V30 7188 C 654.25 0.805235 -2.19176 0
M  V30 7189 C 655.231 1.2656 -1.13651 0
M  V30 7190 O 656.416 1.32528 -1.4195 0
M  V30 7191 C 653.546 2.04914 -2.80406 0
M  V30 7192 C 652.5 1.72598 -3.91655 0
M  V30 7193 C 651.826 3.04154 -4.39766 0
M  V30 7194 C 653.126 0.981709 -5.12991 0
M  V30 7195 H 654.82 0.287232 -2.98019 0
M  V30 7196 H 652.366 0.136714 -1.4335 0
M  V30 7197 H 654.319 2.71178 -3.22553 0
M  V30 7198 H 653.043 2.59067 -1.98877 0
M  V30 7199 H 651.702 1.08717 -3.50109 0
M  V30 7200 H 651.35 3.56274 -3.55075 0
M  V30 7201 H 651.05 2.83299 -5.14796 0
M  V30 7202 H 652.574 3.71509 -4.84576 0
M  V30 7203 H 653.988 1.5462 -5.52056 0
M  V30 7204 H 652.385 0.873533 -5.93708 0
M  V30 7205 H 653.455 -0.0286887 -4.84892 0
M  V30 7206 N 654.798 1.5699 0.138552 0
M  V30 7207 C 656.214 1.51844 0.491472 0
M  V30 7208 C 656.414 0.845063 1.82923 0
M  V30 7209 O 655.47 0.419143 2.48997 0
M  V30 7210 C 656.783 2.96615 0.493987 0
M  V30 7211 C 658.331 3.076 0.578913 0
M  V30 7212 C 658.806 4.53893 0.612009 0
M  V30 7213 N 660.297 4.5827 0.673997 0
M  V30 7214 C 661.032 5.68852 0.720729 0
M  V30 7215 N 660.528 6.88982 0.726292 0
M  V30 7216 N 662.321 5.56908 0.762253 0
M  V30 7217 H 654.472 1.99158 -0.738228 0
M  V30 7218 H 656.735 0.908693 -0.270149 0
M  V30 7219 H 656.441 3.49172 -0.420933 0
M  V30 7220 H 656.315 3.53017 1.32887 0
M  V30 7221 H 658.702 2.55057 1.48425 0
M  V30 7222 H 658.783 2.54227 -0.283286 0
M  V30 7223 H 658.427 5.07076 -0.289208 0
M  V30 7224 H 658.357 5.05057 1.49082 0
M  V30 7225 H 660.848 3.71793 0.676654 0
M  V30 7226 H 661.161 7.69014 0.764032 0
M  V30 7227 H 659.506 6.91526 0.69403 0
M  V30 7228 H 662.697 4.61969 0.755135 0
M  V30 7229 H 662.87 6.43102 0.795207 0
M  V30 7230 N 656.276 -0.40816 1.52223 0
M  V30 7231 C 657.522 -1.15673 1.66576 0
M  V30 7232 C 657.855 -1.90141 0.394996 0
M  V30 7233 O 657.13 -1.84798 -0.606613 0
M  V30 7234 C 657.413 -2.15042 2.88841 0
M  V30 7235 C 657.266 -1.44465 4.25969 0
M  V30 7236 C 658.585 -3.15699 3.0663 0
M  V30 7237 H 655.704 -0.41916 0.606196 0
M  V30 7238 H 658.346 -0.442348 1.84779 0
M  V30 7239 H 656.496 -2.75964 2.73452 0
M  V30 7240 H 658.168 -0.866544 4.53088 0
M  V30 7241 H 656.411 -0.746612 4.27327 0
M  V30 7242 H 657.082 -2.16976 5.07568 0
M  V30 7243 H 659.558 -2.64854 3.20923 0
M  V30 7244 H 658.434 -3.82491 3.9369 0
M  V30 7245 H 658.695 -3.83481 2.19987 0
M  V30 7246 N 657.755 -1.42862 -0.66545 0
M  V30 7247 C 659.171 -1.25993 -0.979687 0
M  V30 7248 C 659.371 -0.170831 -2.00775 0
M  V30 7249 O 658.427 0.454827 -2.4837 0
M  V30 7250 C 659.74 -2.62005 -1.47559 0
M  V30 7251 C 661.288 -2.69437 -1.59288 0
M  V30 7252 C 661.763 -4.05838 -2.12272 0
M  V30 7253 N 663.254 -4.0784 -2.19592 0
M  V30 7254 C 663.989 -5.10205 -2.61684 0
M  V30 7255 N 663.485 -6.22949 -3.03161 0
M  V30 7256 N 665.278 -4.9756 -2.61516 0
M  V30 7257 H 657.429 -2.12395 0.0150493 0
M  V30 7258 H 659.692 -0.946355 -0.0558187 0
M  V30 7259 H 659.398 -3.42605 -0.794654 0
M  V30 7260 H 659.272 -2.86566 -2.45275 0
M  V30 7261 H 661.659 -1.89178 -2.26486 0
M  V30 7262 H 661.74 -2.48655 -0.600374 0
M  V30 7263 H 661.384 -4.86559 -1.4568 0
M  V30 7264 H 661.314 -4.23977 -3.12331 0
M  V30 7265 H 663.805 -3.26452 -1.90361 0
M  V30 7266 H 664.118 -6.96899 -3.33993 0
M  V30 7267 H 662.463 -6.2644 -3.00995 0
M  V30 7268 H 665.654 -4.08551 -2.28481 0
M  V30 7269 H 665.827 -5.77468 -2.93999 0
M  V30 7270 N 659.233 0.902656 -1.29189 0
M  V30 7271 C 660.649 1.18296 -1.07137 0
M  V30 7272 C 660.849 2.00701 0.179223 0
M  V30 7273 O 659.905 2.3675 0.877812 0
M  V30 7274 C 661.218 1.90677 -2.32514 0
M  V30 7275 C 662.766 2.03515 -2.37804 0
M  V30 7276 C 663.241 2.79307 -3.62976 0
M  V30 7277 N 664.732 2.86862 -3.63681 0
M  V30 7278 C 665.467 3.46035 -4.57217 0
M  V30 7279 N 664.963 4.06399 -5.61081 0
M  V30 7280 N 666.756 3.43681 -4.44792 0
M  V30 7281 H 658.907 0.352765 -2.0945 0
M  V30 7282 H 661.17 0.21876 -0.922414 0
M  V30 7283 H 660.876 1.3756 -3.23682 0
M  V30 7284 H 660.75 2.91169 -2.39793 0
M  V30 7285 H 663.137 2.55809 -1.47125 0
M  V30 7286 H 663.218 1.02166 -2.34512 0
M  V30 7287 H 662.862 2.2769 -4.54004 0
M  V30 7288 H 662.792 3.80995 -3.63525 0
M  V30 7289 H 665.283 2.43987 -2.88581 0
M  V30 7290 H 665.596 4.49564 -6.2858 0
M  V30 7291 H 663.941 4.0487 -5.64894 0
M  V30 7292 H 667.132 2.9574 -3.62843 0
M  V30 7293 H 667.305 3.89503 -5.17872 0
M  V30 7294 N 660.711 1.11618 1.11262 0
M  V30 7295 C 661.658 0.7762 2.17356 0
M  V30 7296 C 662.628 -0.253152 1.6416 0
M  V30 7297 O 663.813 -0.129655 1.90359 0
M  V30 7298 C 660.953 0.227581 3.44349 0
M  V30 7299 C 660.066 1.31372 4.1154 0
M  V30 7300 C 659.201 0.72544 5.26223 0
M  V30 7301 C 658.24 1.7913 5.85302 0
M  V30 7302 N 657.377 1.22237 6.91377 0
M  V30 7303 H 662.217 1.68508 2.45783 0
M  V30 7304 H 659.754 0.841475 1.20655 0
M  V30 7305 H 661.712 -0.108483 4.17059 0
M  V30 7306 H 660.342 -0.644486 3.16301 0
M  V30 7307 H 659.394 1.7667 3.36885 0
M  V30 7308 H 660.706 2.12005 4.51504 0
M  V30 7309 H 659.86 0.339541 6.05749 0
M  V30 7310 H 658.599 -0.112188 4.87571 0
M  V30 7311 H 657.604 2.18648 5.04453 0
M  V30 7312 H 658.829 2.63199 6.26022 0
M  V30 7313 H 656.775 0.406423 6.5474 0
M  V30 7314 H 656.692 1.9654 7.30006 0
M  V30 7315 H 657.96 0.863426 7.74703 0
M  V30 7316 N 662.189 -1.289 0.906776 0
M  V30 7317 C 663.137 -2.29477 0.379873 0
M  V30 7318 C 664.131 -1.61068 -0.524747 0
M  V30 7319 O 665.337 -1.75344 -0.406765 0
M  V30 7320 H 661.712 -0.744742 0.10423 0
M  V30 7321 H 663.683 -2.71353 1.24137 0
M  V30 7322 C 662.432 -3.45713 -0.371154 0
M  V30 7323 H 661.755 -3.98551 0.315716 0
M  V30 7324 H 663.195 -4.18105 -0.704581 0
M  V30 7325 C 661.654 -2.9774 -1.57646 0
M  V30 7326 O 662.184 -2.99618 -2.67567 0
M  V30 7327 N 660.39 -2.53485 -1.42105 0
M  V30 7328 H 659.937 -2.52156 -0.526783 0
M  V30 7329 H 659.895 -2.21747 -2.22881 0
M  V30 7330 N 663.667 -0.670007 -1.42649 0
M  V30 7331 C 665.078 -0.268118 -1.84765 0
M  V30 7332 C 665.429 1.18877 -1.56086 0
M  V30 7333 O 664.554 1.90947 -1.01825 0
M  V30 7334 C 665.149 -0.47984 -3.35385 0
M  V30 7335 C 663.708 -0.132116 -3.76168 0
M  V30 7336 C 662.855 -0.774611 -2.66261 0
M  V30 7337 H 665.806 -0.872509 -1.32563 0
M  V30 7338 H 665.827 0.269522 -3.79544 0
M  V30 7339 H 665.339 -1.54026 -3.56227 0
M  V30 7340 H 663.44 0.92505 -3.60934 0
M  V30 7341 H 663.553 -0.569294 -4.75706 0
M  V30 7342 H 661.917 -0.206353 -2.53863 0
M  V30 7343 H 662.7 -1.83839 -2.89928 0
M  V30 7344 N 665.145 1.52092 -0.413018 0
M  V30 7345 C 666.391 2.02154 0.161737 0
M  V30 7346 C 666.724 1.29789 1.44459 0
M  V30 7347 O 665.999 0.405378 1.90229 0
M  V30 7348 C 666.282 3.5781 0.405463 0
M  V30 7349 C 666.135 4.40819 -0.894335 0
M  V30 7350 C 667.454 4.23821 1.18591 0
M  V30 7351 H 664.573 0.734769 0.0573077 0
M  V30 7352 H 667.215 1.81948 -0.547247 0
M  V30 7353 H 665.365 3.75158 1.0094 0
M  V30 7354 H 667.037 4.35175 -1.53039 0
M  V30 7355 H 665.28 4.06877 -1.50444 0
M  V30 7356 H 665.951 5.47819 -0.678144 0
M  V30 7357 H 668.427 4.10596 0.674573 0
M  V30 7358 H 667.303 5.32663 1.3252 0
M  V30 7359 H 667.564 3.83038 2.20758 0
M  V30 7360 N 666.623 0.143563 1.56945 0
M  V30 7361 C 667.851 -0.515447 2.00377 0
M  V30 7362 C 668.266 -1.58643 1.02361 0
M  V30 7363 O 667.623 -1.82489 0.0201039 0
M  V30 7364 C 667.674 -1.11923 3.43737 0
M  V30 7365 O 667.395 -0.0910318 4.38005 0
M  V30 7366 C 668.896 -1.85918 4.02429 0
M  V30 7367 H 666.116 -0.134478 0.657386 0
M  V30 7368 H 668.66 0.237135 2.0312 0
M  V30 7369 H 666.815 -1.82245 3.41856 0
M  V30 7370 H 667.229 -0.532916 5.21786 0
M  V30 7371 H 668.703 -2.2346 5.04747 0
M  V30 7372 H 669.18 -2.7438 3.42947 0
M  V30 7373 H 669.786 -1.20303 4.07931 0
M  V30 7374 N 668.101 -1.57061 -0.130224 0
M  V30 7375 C 669.326 -1.88802 -0.858409 0
M  V30 7376 C 669.751 -0.734353 -1.73173 0
M  V30 7377 O 669.109 0.315529 -1.78533 0
M  V30 7378 C 669.157 -3.19228 -1.67708 0
M  V30 7379 O 668.261 -3.04343 -2.78297 0
M  V30 7380 H 667.602 -0.619849 -0.238083 0
M  V30 7381 H 670.132 -2.04271 -0.115995 0
M  V30 7382 H 670.142 -3.51669 -2.06864 0
M  V30 7383 H 668.817 -4.02793 -1.0359 0
M  V30 7384 H 667.394 -2.83346 -2.42425 0
M  V30 7385 N 669.579 0.400081 -1.52437 0
M  V30 7386 C 670.807 1.16768 -1.70801 0
M  V30 7387 C 671.222 1.84036 -0.421462 0
M  V30 7388 O 670.579 1.72242 0.603228 0
M  V30 7389 C 670.63 2.22403 -2.8499 0
M  V30 7390 O 670.351 1.57879 -4.08663 0
M  V30 7391 C 671.852 3.11974 -3.1494 0
M  V30 7392 H 669.072 0.350533 -0.57216 0
M  V30 7393 H 671.616 0.469534 -1.99037 0
M  V30 7394 H 669.771 2.87871 -2.59247 0
M  V30 7395 H 670.185 2.27982 -4.7236 0
M  V30 7396 H 671.659 3.82148 -3.9833 0
M  V30 7397 H 672.136 3.74858 -2.28863 0
M  V30 7398 H 672.742 2.52165 -3.42481 0
M  V30 7399 N 671.057 1.43213 0.657864 0
M  V30 7400 C 672.287 1.478 1.44356 0
M  V30 7401 C 672.695 0.0930206 1.88971 0
M  V30 7402 O 672.038 -0.906089 1.59799 0
M  V30 7403 C 672.1 2.35745 2.71412 0
M  V30 7404 C 671.764 3.83359 2.48767 0
M  V30 7405 C 672.761 4.74585 2.12285 0
M  V30 7406 C 670.446 4.27799 2.63235 0
M  V30 7407 C 672.44 6.08247 1.90562 0
M  V30 7408 C 670.127 5.61516 2.41128 0
M  V30 7409 C 671.125 6.51557 2.04847 0
M  V30 7410 O 670.813 7.82802 1.82967 0
M  V30 7411 H 670.545 0.504363 0.450104 0
M  V30 7412 H 673.099 1.88572 0.814241 0
M  V30 7413 H 671.329 1.89852 3.36887 0
M  V30 7414 H 673.018 2.31589 3.33348 0
M  V30 7415 H 673.784 4.41531 2.00687 0
M  V30 7416 H 669.663 3.57993 2.90451 0
M  V30 7417 H 673.207 6.78489 1.62168 0
M  V30 7418 H 669.104 5.94139 2.52327 0
M  V30 7419 H 669.872 7.94332 1.97429 0
M  V30 7420 N 672.536 -0.895792 1.29666 0
M  V30 7421 C 673.761 -1.68528 1.20885 0
M  V30 7422 C 674.186 -1.8673 -0.226595 0
M  V30 7423 O 673.544 -1.39044 -1.16347 0
M  V30 7424 C 673.592 -3.04512 1.93144 0
M  V30 7425 O 672.696 -3.92963 1.25115 0
M  V30 7426 H 672.037 -0.515371 0.418675 0
M  V30 7427 H 674.567 -1.11878 1.71302 0
M  V30 7428 H 674.577 -3.54628 2.0175 0
M  V30 7429 H 673.252 -2.90582 2.97548 0
M  V30 7430 H 671.829 -3.51399 1.24794 0
M  V30 7431 N 674.014 -1.12206 -1.10668 0
M  V30 7432 C 674.961 -0.787716 -2.16942 0
M  V30 7433 C 675.931 0.244442 -1.64291 0
M  V30 7434 O 677.116 0.119558 -1.90425 0
M  V30 7435 C 674.256 -0.24584 -3.44223 0
M  V30 7436 C 673.369 -1.33552 -4.10838 0
M  V30 7437 C 672.504 -0.753337 -5.25831 0
M  V30 7438 C 671.543 -1.82231 -5.84344 0
M  V30 7439 N 670.68 -1.25902 -6.90719 0
M  V30 7440 H 675.52 -1.69809 -2.44885 0
M  V30 7441 H 673.057 -0.847862 -1.20207 0
M  V30 7442 H 675.015 0.0863639 -4.17111 0
M  V30 7443 H 673.645 0.627702 -3.16638 0
M  V30 7444 H 672.697 -1.78454 -3.35944 0
M  V30 7445 H 674.009 -2.14396 -4.50373 0
M  V30 7446 H 673.163 -0.37166 -6.05561 0
M  V30 7447 H 671.902 0.0863297 -4.87624 0
M  V30 7448 H 670.907 -2.2132 -5.03287 0
M  V30 7449 H 672.132 -2.66515 -6.24617 0
M  V30 7450 H 670.078 -0.44114 -6.54515 0
M  V30 7451 H 669.995 -2.00408 -7.28953 0
M  V30 7452 H 671.263 -0.904498 -7.74235 0
M  V30 7453 N 675.492 1.28418 -0.913599 0
M  V30 7454 C 676.425 2.25557 -0.346328 0
M  V30 7455 C 677.403 1.53038 0.549366 0
M  V30 7456 O 678.587 1.81937 0.493055 0
M  V30 7457 C 675.714 3.34915 0.504961 0
M  V30 7458 C 674.76 4.25257 -0.325334 0
M  V30 7459 S 675.593 5.06718 -1.73198 0
M  V30 7460 C 676.749 6.19569 -0.887988 0
M  V30 7461 H 676.982 2.73325 -1.16965 0
M  V30 7462 H 674.515 1.36855 -0.714841 0
M  V30 7463 H 676.473 3.98376 0.990301 0
M  V30 7464 H 675.134 2.85814 1.30267 0
M  V30 7465 H 674.327 5.02947 0.325589 0
M  V30 7466 H 673.929 3.66519 -0.744321 0
M  V30 7467 H 676.221 6.77398 -0.117568 0
M  V30 7468 H 677.164 6.88908 -1.63742 0
M  V30 7469 H 677.572 5.62812 -0.436228 0
M  V30 7470 N 676.97 0.677563 1.42291 0
M  V30 7471 C 678.195 0.207901 2.06355 0
M  V30 7472 C 678.62 -1.12723 1.50583 0
M  V30 7473 O 677.978 -1.70171 0.62543 0
M  V30 7474 C 678.026 0.156489 3.6026 0
M  V30 7475 O 677.13 -0.874162 4.03029 0
M  V30 7476 H 676.471 0.106056 0.655475 0
M  V30 7477 H 679.001 0.927354 1.82377 0
M  V30 7478 H 679.011 -0.0187258 4.07996 0
M  V30 7479 H 677.686 1.13101 4.00226 0
M  V30 7480 H 676.263 -0.669764 3.66836 0
M  V30 7481 N 678.448 -1.51871 0.421078 0
M  V30 7482 C 679.378 -2.30231 -0.389363 0
M  V30 7483 C 680.359 -1.34946 -1.03555 0
M  V30 7484 O 681.544 -1.63859 -1.04229 0
M  V30 7485 C 678.674 -3.13247 -1.49979 0
M  V30 7486 C 677.628 -4.16677 -0.977966 0
M  V30 7487 C 676.954 -4.88112 -2.1829 0
M  V30 7488 C 678.254 -5.22295 -0.0236775 0
M  V30 7489 H 679.948 -2.98229 0.264524 0
M  V30 7490 H 677.494 -1.43424 0.12866 0
M  V30 7491 H 679.447 -3.66838 -2.07383 0
M  V30 7492 H 678.171 -2.4304 -2.18173 0
M  V30 7493 H 676.83 -3.64114 -0.426245 0
M  V30 7494 H 676.478 -4.14423 -2.85066 0
M  V30 7495 H 676.178 -5.58041 -1.84021 0
M  V30 7496 H 677.702 -5.44521 -2.76278 0
M  V30 7497 H 679.116 -5.71055 -0.506899 0
M  V30 7498 H 677.513 -5.99656 0.230782 0
M  V30 7499 H 678.583 -4.76131 0.917999 0
M  V30 7500 N 679.926 -0.151884 -1.56866 0
M  V30 7501 C 680.858 0.817008 -2.14144 0
M  V30 7502 C 681.871 1.20735 -1.0921 0
M  V30 7503 O 683.06 1.15058 -1.36469 0
M  V30 7504 C 680.16 2.10844 -2.65326 0
M  V30 7505 C 679.333 1.88471 -3.94712 0
M  V30 7506 C 678.392 3.01649 -4.31155 0
M  V30 7507 O 677.418 2.73127 -4.9939 0
M  V30 7508 N 678.62 4.28947 -3.91132 0
M  V30 7509 H 681.385 0.327448 -2.97906 0
M  V30 7510 H 678.946 0.0315313 -1.61869 0
M  V30 7511 H 680.938 2.85616 -2.86715 0
M  V30 7512 H 679.508 2.51049 -1.86262 0
M  V30 7513 H 678.728 0.977088 -3.81899 0
M  V30 7514 H 680.016 1.70866 -4.79252 0
M  V30 7515 H 679.414 4.54986 -3.36161 0
M  V30 7516 H 677.971 5.00484 -4.17563 0
M  V30 7517 N 681.404 1.57128 0.121893 0
M  V30 7518 C 682.334 2.03165 1.15092 0
M  V30 7519 C 683.315 0.915587 1.43356 0
M  V30 7520 O 684.5 1.1851 1.53847 0
M  V30 7521 C 681.63 2.43352 2.47784 0
M  V30 7522 C 680.584 3.58376 2.33989 0
M  V30 7523 C 679.91 3.84454 3.71617 0
M  V30 7524 C 681.21 4.90199 1.80283 0
M  V30 7525 H 682.904 2.89382 0.768023 0
M  V30 7526 H 680.45 1.39218 0.367998 0
M  V30 7527 H 682.403 2.74163 3.20019 0
M  V30 7528 H 681.127 1.54103 2.87958 0
M  V30 7529 H 679.786 3.2777 1.64202 0
M  V30 7530 H 679.434 2.92414 4.09271 0
M  V30 7531 H 679.134 4.61877 3.6324 0
M  V30 7532 H 680.658 4.17714 4.45362 0
M  V30 7533 H 682.072 5.19565 2.42333 0
M  V30 7534 H 680.469 5.71601 1.82735 0
M  V30 7535 H 681.539 4.78904 0.760184 0
M  V30 7536 N 682.882 -0.391992 1.52647 0
M  V30 7537 C 684.112 -1.15692 1.71169 0
M  V30 7538 C 684.52 -1.84285 0.428444 0
M  V30 7539 O 683.863 -1.73393 -0.606669 0
M  V30 7540 C 683.925 -2.25033 2.80357 0
M  V30 7541 C 683.589 -1.76433 4.21569 0
M  V30 7542 C 684.586 -1.2427 5.0483 0
M  V30 7543 C 682.271 -1.82746 4.67877 0
M  V30 7544 C 684.265 -0.790657 6.32477 0
M  V30 7545 C 681.952 -1.37153 5.9551 0
M  V30 7546 C 682.95 -0.853997 6.7764 0
M  V30 7547 O 682.638 -0.404708 8.02881 0
M  V30 7548 H 682.37 -0.35297 0.576531 0
M  V30 7549 H 684.924 -0.464994 2.00067 0
M  V30 7550 H 683.154 -2.97641 2.46874 0
M  V30 7551 H 684.843 -2.86718 2.87311 0
M  V30 7552 H 685.609 -1.18752 4.70237 0
M  V30 7553 H 681.488 -2.21971 4.04042 0
M  V30 7554 H 685.032 -0.386024 6.96531 0
M  V30 7555 H 680.929 -1.42356 6.29607 0
M  V30 7556 H 681.697 -0.526459 8.16805 0
M  V30 7557 N 684.36 -1.4356 -0.65026 0
M  V30 7558 C 685.292 -1.44918 -1.77571 0
M  V30 7559 C 686.305 -0.344925 -1.59104 0
M  V30 7560 O 687.494 -0.609537 -1.6777 0
M  V30 7561 C 684.594 -1.24914 -3.15039 0
M  V30 7562 C 683.767 -2.48232 -3.60138 0
M  V30 7563 C 682.826 -2.23409 -4.76419 0
M  V30 7564 O 681.852 -2.9678 -4.85706 0
M  V30 7565 N 683.054 -1.25259 -5.66825 0
M  V30 7566 H 685.819 -2.41935 -1.76883 0
M  V30 7567 H 683.38 -1.38754 -0.834202 0
M  V30 7568 H 685.372 -1.06185 -3.90521 0
M  V30 7569 H 683.942 -0.363319 -3.10481 0
M  V30 7570 H 683.162 -2.82366 -2.75069 0
M  V30 7571 H 684.45 -3.30296 -3.87017 0
M  V30 7572 H 683.848 -0.646246 -5.61997 0
M  V30 7573 H 682.405 -1.12513 -6.42016 0
M  V30 7574 N 685.838 0.888903 -1.30139 0
M  V30 7575 C 687.084 1.6428 -1.18912 0
M  V30 7576 C 687.417 1.92499 0.256477 0
M  V30 7577 O 686.692 1.54312 1.18397 0
M  V30 7578 C 686.975 2.9851 -2.01405 0
M  V30 7579 C 686.828 2.77288 -3.54163 0
M  V30 7580 C 688.147 3.99383 -1.84882 0
M  V30 7581 H 685.266 0.596148 -0.433333 0
M  V30 7582 H 687.908 1.0289 -1.5973 0
M  V30 7583 H 686.058 3.50907 -1.66722 0
M  V30 7584 H 687.73 2.31709 -3.98884 0
M  V30 7585 H 685.973 2.11867 -3.78543 0
M  V30 7586 H 686.644 3.72717 -4.07168 0
M  V30 7587 H 689.12 3.56132 -2.15196 0
M  V30 7588 H 687.996 4.91222 -2.44934 0
M  V30 7589 H 688.257 4.34674 -0.806902 0
M  V30 7590 N 687.317 1.12792 1.10072 0
M  V30 7591 C 688.594 0.796867 1.78632 0
M  V30 7592 C 688.974 -0.712739 1.98704 0
M  V30 7593 O 688.322 -1.64773 1.5831 0
M  V30 7594 C 688.532 1.57622 3.11378 0
M  V30 7595 C 689.88 1.76463 3.86194 0
M  V30 7596 O 690.904 1.54165 3.2111 0
M  V30 7597 O 689.763 2.13623 5.03018 0
M  V30 7598 H 686.857 0.290248 0.774394 0
M  V30 7599 H 689.403 1.23215 1.16688 0
M  V30 7600 H 688.175 2.60246 2.92212 0
M  V30 7601 H 687.798 1.13543 3.81043 0
M  V30 7602 N 688.795 -1.27931 0.920396 0
M  V30 7603 C 690.02 -1.99343 0.572478 0
M  V30 7604 C 690.445 -1.68267 -0.840696 0
M  V30 7605 O 689.803 -0.918805 -1.56294 0
M  V30 7606 C 689.851 -3.51698 0.796284 0
M  V30 7607 O 688.955 -4.12157 -0.141602 0
M  V30 7608 H 688.296 -0.626065 0.221221 0
M  V30 7609 H 690.826 -1.62921 1.23765 0
M  V30 7610 H 690.836 -4.01793 0.708984 0
M  V30 7611 H 689.511 -3.73649 1.82644 0
M  V30 7612 H 688.088 -3.729 -0.005007 0
M  V30 7613 N 690.273 -0.685099 -1.4193 0
M  V30 7614 C 691.689 -0.355632 -1.55587 0
M  V30 7615 C 691.889 1.13823 -1.66273 0
M  V30 7616 O 690.945 1.92387 -1.63534 0
M  V30 7617 C 692.258 -1.09498 -2.80055 0
M  V30 7618 C 693.806 -1.07831 -2.93839 0
M  V30 7619 C 694.281 -1.79919 -4.21181 0
M  V30 7620 N 695.772 -1.76837 -4.28115 0
M  V30 7621 C 696.507 -2.29463 -5.25485 0
M  V30 7622 N 696.003 -2.90516 -6.28945 0
M  V30 7623 N 697.796 -2.19779 -5.17353 0
M  V30 7624 H 689.947 -1.65412 -1.33239 0
M  V30 7625 H 692.21 -0.697453 -0.642078 0
M  V30 7626 H 691.916 -2.14997 -2.78333 0
M  V30 7627 H 691.79 -0.666813 -3.71259 0
M  V30 7628 H 694.177 -0.0316152 -2.95083 0
M  V30 7629 H 694.258 -1.54545 -2.03837 0
M  V30 7630 H 693.902 -2.84562 -4.20698 0
M  V30 7631 H 693.832 -1.30647 -5.10136 0
M  V30 7632 H 696.323 -1.32315 -3.53979 0
M  V30 7633 H 696.636 -3.28266 -6.99615 0
M  V30 7634 H 694.981 -2.94589 -6.29478 0
M  V30 7635 H 698.172 -1.71763 -4.35448 0
M  V30 7636 H 698.345 -2.61097 -5.9307 0
M  V30 7637 N 691.751 1.51645 -0.429126 0
M  V30 7638 C 692.979 2.06433 0.138994 0
M  V30 7639 C 693.394 1.29735 1.37165 0
M  V30 7640 O 692.751 0.354638 1.79021 0
M  V30 7641 C 692.802 3.58439 0.469452 0
M  V30 7642 O 692.523 4.32238 -0.714273 0
M  V30 7643 C 694.024 4.29712 1.08914 0
M  V30 7644 H 691.244 0.6709 0.0115608 0
M  V30 7645 H 693.788 1.9532 -0.605843 0
M  V30 7646 H 691.943 3.69494 1.16419 0
M  V30 7647 H 692.357 5.22704 -0.433633 0
M  V30 7648 H 693.831 5.37182 1.27042 0
M  V30 7649 H 694.308 3.87473 2.06788 0
M  V30 7650 H 694.914 4.2308 0.434028 0
M  V30 7651 N 693.229 0.160201 1.56784 0
M  V30 7652 C 694.459 -0.493449 2.00621 0
M  V30 7653 C 694.867 -1.5809 1.03943 0
M  V30 7654 O 694.21 -1.83675 0.0305343 0
M  V30 7655 C 694.272 -1.14169 3.4089 0
M  V30 7656 C 693.936 -0.197243 4.56574 0
M  V30 7657 C 694.933 0.580174 5.16653 0
M  V30 7658 C 692.618 -0.0963038 5.02208 0
M  V30 7659 C 694.612 1.44584 6.20785 0
M  V30 7660 C 692.299 0.772959 6.06192 0
M  V30 7661 C 693.297 1.54263 6.65351 0
M  V30 7662 O 692.985 2.39738 7.67321 0
M  V30 7663 H 692.717 -0.131764 0.663034 0
M  V30 7664 H 695.271 0.255728 2.03802 0
M  V30 7665 H 693.501 -1.93877 3.34587 0
M  V30 7666 H 695.19 -1.69641 3.6875 0
M  V30 7667 H 695.956 0.5123 4.82287 0
M  V30 7668 H 691.835 -0.685143 4.5588 0
M  V30 7669 H 695.379 2.04706 6.66889 0
M  V30 7670 H 691.276 0.842077 6.39984 0
M  V30 7671 H 692.044 2.33131 7.84597 0
M  V30 7672 N 694.707 -1.5719 -0.113559 0
M  V30 7673 C 695.637 -2.03772 -1.14013 0
M  V30 7674 C 696.618 -0.923176 -1.42869 0
M  V30 7675 O 697.803 -1.19325 -1.53216 0
M  V30 7676 C 694.933 -2.44663 -2.4649 0
M  V30 7677 C 693.887 -3.59612 -2.32085 0
M  V30 7678 C 693.213 -3.8642 -3.69573 0
M  V30 7679 C 694.513 -4.91149 -1.7768 0
M  V30 7680 H 696.207 -2.89785 -0.752665 0
M  V30 7681 H 693.753 -1.39412 -0.360609 0
M  V30 7682 H 695.706 -2.75857 -3.18561 0
M  V30 7683 H 694.43 -1.55628 -2.87137 0
M  V30 7684 H 693.089 -3.28636 -1.62461 0
M  V30 7685 H 692.737 -2.94581 -4.07715 0
M  V30 7686 H 692.437 -4.63797 -3.60786 0
M  V30 7687 H 693.961 -4.2007 -4.4314 0
M  V30 7688 H 695.375 -5.20843 -2.39574 0
M  V30 7689 H 693.772 -5.72562 -1.79701 0
M  V30 7690 H 694.842 -4.79301 -0.734776 0
M  V30 7691 N 696.185 0.383891 -1.52853 0
M  V30 7692 C 697.115 1.47559 -1.80965 0
M  V30 7693 C 698.096 1.5669 -0.661986 0
M  V30 7694 O 699.281 1.71556 -0.910072 0
M  V30 7695 C 696.411 2.85114 -1.98312 0
M  V30 7696 C 695.365 2.9082 -3.14019 0
M  V30 7697 C 694.691 4.30873 -3.16627 0
M  V30 7698 C 695.991 2.60001 -4.52986 0
M  V30 7699 H 697.685 1.24283 -2.72386 0
M  V30 7700 H 695.231 0.596445 -1.31067 0
M  V30 7701 H 697.184 3.61496 -2.16561 0
M  V30 7702 H 695.908 3.09738 -1.03585 0
M  V30 7703 H 694.567 2.16886 -2.9556 0
M  V30 7704 H 694.215 4.52545 -2.19573 0
M  V30 7705 H 693.915 4.3561 -3.94357 0
M  V30 7706 H 695.439 5.09154 -3.37038 0
M  V30 7707 H 696.853 3.261 -4.71521 0
M  V30 7708 H 695.25 2.76081 -5.32822 0
M  V30 7709 H 696.32 1.5532 -4.59351 0
M  V30 7710 N 697.663 1.43903 0.642637 0
M  V30 7711 C 698.94 1.36556 1.40043 0
M  V30 7712 C 699.32 0.0185588 2.11092 0
M  V30 7713 O 698.668 -0.998438 2.05532 0
M  V30 7714 C 698.878 2.55596 2.37638 0
M  V30 7715 C 700.226 2.99153 3.01318 0
M  V30 7716 O 701.25 2.55719 2.47965 0
M  V30 7717 O 700.109 3.74427 3.98078 0
M  V30 7718 H 697.203 0.540189 0.626198 0
M  V30 7719 H 699.749 1.55971 0.668657 0
M  V30 7720 H 698.521 3.45256 1.84158 0
M  V30 7721 H 698.144 2.38334 3.18249 0
M  V30 7722 N 699.141 -0.881989 1.30609 0
M  V30 7723 C 700.388 -1.63405 1.19604 0
M  V30 7724 C 700.716 -1.92905 -0.248574 0
M  V30 7725 O 699.971 -1.55062 -1.19391 0
M  V30 7726 C 700.27 -2.97999 1.97311 0
M  V30 7727 C 699.936 -2.88039 3.46907 0
M  V30 7728 C 698.598 -2.85029 3.877 0
M  V30 7729 C 700.95 -2.75948 4.42156 0
M  V30 7730 C 698.278 -2.67772 5.2203 0
M  V30 7731 C 700.63 -2.60228 5.76597 0
M  V30 7732 C 699.294 -2.55595 6.16626 0
M  V30 7733 H 698.564 -0.597941 0.437662 0
M  V30 7734 H 701.211 -1.02524 1.61744 0
M  V30 7735 H 699.516 -3.62847 1.47815 0
M  V30 7736 H 701.213 -3.55156 1.86186 0
M  V30 7737 H 697.803 -2.91192 3.14492 0
M  V30 7738 H 701.987 -2.77337 4.1158 0
M  V30 7739 H 697.243 -2.62601 5.52133 0
M  V30 7740 H 701.417 -2.49847 6.50038 0
M  V30 7741 H 699.044 -2.41981 7.20659 0
M  V30 7742 N 700.619 -1.13374 -1.09472 0
M  V30 7743 C 702.035 -0.871846 -1.33682 0
M  V30 7744 C 702.235 0.492847 -1.9538 0
M  V30 7745 O 701.291 1.23946 -2.19985 0
M  V30 7746 C 702.604 -1.99608 -2.24893 0
M  V30 7747 C 704.152 -2.02812 -2.38404 0
M  V30 7748 C 704.627 -3.14497 -3.3295 0
M  V30 7749 N 706.118 -3.14004 -3.40523 0
M  V30 7750 C 706.853 -3.97061 -4.13679 0
M  V30 7751 N 706.349 -4.90131 -4.89636 0
M  V30 7752 N 708.142 -3.85162 -4.09398 0
M  V30 7753 H 700.293 -2.01288 -0.677995 0
M  V30 7754 H 702.556 -0.876492 -0.361201 0
M  V30 7755 H 702.262 -2.98 -1.86786 0
M  V30 7756 H 702.136 -1.90981 -3.25278 0
M  V30 7757 H 704.523 -1.05034 -2.75775 0
M  V30 7758 H 704.604 -2.15511 -1.37799 0
M  V30 7759 H 704.248 -4.12514 -2.96302 0
M  V30 7760 H 704.178 -2.99035 -4.33458 0
M  V30 7761 H 706.669 -2.46587 -2.86362 0
M  V30 7762 H 706.982 -5.49996 -5.42885 0
M  V30 7763 H 705.327 -4.94138 -4.88726 0
M  V30 7764 H 708.518 -3.11779 -3.49158 0
M  V30 7765 H 708.691 -4.5012 -4.6615 0
M  V30 7766 N 702.098 1.27442 -0.927168 0
M  V30 7767 C 703.323 1.99036 -0.583042 0
M  V30 7768 C 703.748 1.68711 0.83176 0
M  V30 7769 O 703.106 0.927081 1.55804 0
M  V30 7770 C 703.154 3.51271 -0.814925 0
M  V30 7771 O 702.258 4.12226 0.119742 0
M  V30 7772 H 701.599 0.624883 -0.224538 0
M  V30 7773 H 704.129 1.62263 -1.24628 0
M  V30 7774 H 704.139 4.01411 -0.730282 0
M  V30 7775 H 702.814 3.72676 -1.84623 0
M  V30 7776 H 701.391 3.72897 -0.0147688 0
M  V30 7777 N 703.576 0.692616 1.41565 0
M  V30 7778 C 704.825 0.219452 2.00503 0
M  V30 7779 C 705.138 -1.18683 1.55479 0
M  V30 7780 O 706.344 -1.75731 2.06956 0
M  V30 7781 C 704.8 0.341451 3.58277 0
M  V30 7782 C 704.408 1.75291 4.12283 0
M  V30 7783 C 706.152 -0.0720899 4.24439 0
M  V30 7784 C 704.059 1.82673 5.62481 0
M  V30 7785 H 702.989 0.0782874 0.749925 0
M  V30 7786 H 705.64 0.860386 1.62079 0
M  V30 7787 H 704.022 -0.367683 3.94289 0
M  V30 7788 H 705.196 2.49057 3.87695 0
M  V30 7789 H 703.511 2.11587 3.58636 0
M  V30 7790 H 706.108 -0.0373385 5.34687 0
M  V30 7791 H 706.451 -1.11034 4.0122 0
M  V30 7792 H 706.984 0.586663 3.9345 0
M  V30 7793 H 703.723 2.84539 5.90523 0
M  V30 7794 H 703.243 1.13288 5.89004 0
M  V30 7795 H 704.922 1.58827 6.27203 0
M  V30 7796 N 705.054 -1.51416 0.437162 0
M  V30 7797 C 706.331 -1.94682 -0.189292 0
M  V30 7798 C 706.711 -1.37581 -1.60108 0
M  V30 7799 O 706.059 -0.562815 -2.2146 0
M  V30 7800 C 706.269 -3.48599 -0.167201 0
M  V30 7801 C 707.617 -4.2296 -0.372856 0
M  V30 7802 O 708.641 -3.55354 -0.245323 0
M  V30 7803 O 707.5 -5.42895 -0.626693 0
M  V30 7804 H 704.594 -0.816708 -0.130063 0
M  V30 7805 H 707.14 -1.62316 0.495128 0
M  V30 7806 H 705.912 -3.82616 0.81981 0
M  V30 7807 H 705.535 -3.87406 -0.894537 0
M  V30 7808 N 706.532 -0.168513 -1.56696 0
M  V30 7809 C 707.809 0.523367 -1.88468 0
M  V30 7810 C 708.189 1.81503 -1.07796 0
M  V30 7811 O 707.537 2.27859 -0.171045 0
M  V30 7812 C 707.747 0.767991 -3.40445 0
M  V30 7813 C 709.095 1.09924 -4.10124 0
M  V30 7814 O 710.119 0.856625 -3.45746 0
M  V30 7815 O 708.978 1.55681 -5.23856 0
M  V30 7816 H 706.072 0.269447 -0.781874 0
M  V30 7817 H 708.618 -0.206739 -1.68436 0
M  V30 7818 H 707.39 -0.145254 -3.9103 0
M  V30 7819 H 707.013 1.55151 -3.66079 0
M  V30 7820 N 708.01 1.57248 0.105221 0
M  V30 7821 C 708.92 2.04653 1.14693 0
M  V30 7822 C 709.936 0.969488 1.44489 0
M  V30 7823 O 711.112 1.28196 1.55331 0
M  V30 7824 C 708.177 2.45297 2.45011 0
M  V30 7825 C 707.238 3.67148 2.22489 0
M  V30 7826 C 706.471 4.05844 3.46592 0
M  V30 7827 O 706.694 3.44736 4.54437 0
M  V30 7828 O 705.628 4.98862 3.36779 0
M  V30 7829 H 709.454 2.93663 0.774336 0
M  V30 7830 H 707.039 1.45998 0.31701 0
M  V30 7831 H 708.921 2.72112 3.21766 0
M  V30 7832 H 707.596 1.59429 2.81717 0
M  V30 7833 H 706.503 3.45463 1.43547 0
M  V30 7834 H 707.836 4.53764 1.9068 0
M  V30 7835 N 709.488 -0.375779 1.53054 0
M  V30 7836 C 710.737 -1.11674 1.67964 0
M  V30 7837 C 711.05 -1.90755 0.432655 0
M  V30 7838 O 712.256 -2.67538 0.462109 0
M  V30 7839 C 710.712 -2.0344 2.96884 0
M  V30 7840 C 710.32 -1.29719 4.28809 0
M  V30 7841 C 712.064 -2.7759 3.2116 0
M  V30 7842 C 709.971 -2.20327 5.48826 0
M  V30 7843 H 708.901 -0.420597 0.625791 0
M  V30 7844 H 711.552 -0.378499 1.79554 0
M  V30 7845 H 709.934 -2.80953 2.79072 0
M  V30 7846 H 711.108 -0.573394 4.57219 0
M  V30 7847 H 709.423 -0.674735 4.10897 0
M  V30 7848 H 712.02 -3.4559 4.0801 0
M  V30 7849 H 712.363 -3.42399 2.36789 0
M  V30 7850 H 712.896 -2.07164 3.396 0
M  V30 7851 H 709.635 -1.60113 6.35645 0
M  V30 7852 H 709.155 -2.90585 5.2471 0
M  V30 7853 H 710.834 -2.80116 5.83219 0
M  V30 7854 N 710.966 -1.44241 -0.634997 0
M  V30 7855 C 712.194 -1.50296 -1.42193 0
M  V30 7856 C 712.609 -0.12658 -1.88375 0
M  V30 7857 O 711.966 0.86678 -1.60603 0
M  V30 7858 C 712.017 -2.46437 -2.64482 0
M  V30 7859 O 711.738 -3.78724 -2.20226 0
M  V30 7860 C 713.239 -2.61918 -3.57651 0
M  V30 7861 H 710.459 -0.509865 -0.43621 0
M  V30 7862 H 713.003 -1.89167 -0.776921 0
M  V30 7863 H 711.158 -2.10712 -3.25083 0
M  V30 7864 H 711.572 -4.30595 -2.9948 0
M  V30 7865 H 713.046 -3.33225 -4.40074 0
M  V30 7866 H 713.523 -1.67017 -4.06204 0
M  V30 7867 H 714.129 -2.98528 -3.02921 0
M  V30 7868 N 712.444 0.87505 -1.31075 0
M  V30 7869 C 713.354 2.01441 -1.20244 0
M  V30 7870 C 714.37 1.73584 -0.120227 0
M  V30 7871 O 715.546 1.98559 -0.337063 0
M  V30 7872 C 712.611 3.34675 -0.905199 0
M  V30 7873 C 711.672 3.75889 -2.0738 0
M  V30 7874 C 710.905 5.02764 -1.79064 0
M  V30 7875 O 711.128 5.65795 -0.723318 0
M  V30 7876 O 710.062 5.40623 -2.64594 0
M  V30 7877 H 713.888 2.13509 -2.1598 0
M  V30 7878 H 711.473 1.00257 -1.10765 0
M  V30 7879 H 713.355 4.1458 -0.755057 0
M  V30 7880 H 712.03 3.23692 0.0221695 0
M  V30 7881 H 710.937 2.96645 -2.27931 0
M  V30 7882 H 712.27 3.91489 -2.98324 0
M  V30 7883 N 713.922 1.13953 1.08869 0
M  V30 7884 C 714.885 0.824991 2.13838 0
M  V30 7885 C 715.885 -0.168198 1.59918 0
M  V30 7886 O 717.075 0.0595778 1.74098 0
M  V30 7887 C 714.207 0.228938 3.4013 0
M  V30 7888 H 715.4 1.75521 2.43171 0
M  V30 7889 H 712.953 0.94492 1.24503 0
M  V30 7890 H 713.688 -0.710227 3.16427 0
M  V30 7891 H 713.473 0.944243 3.80561 0
M  V30 7892 H 714.963 0.0259223 4.17592 0
M  V30 7893 N 715.4 -1.26948 0.933913 0
M  V30 7894 C 716.347 -2.26635 0.436484 0
M  V30 7895 C 717.317 -1.58397 -0.499953 0
M  V30 7896 O 718.502 -1.86171 -0.417753 0
M  V30 7897 C 715.642 -3.43803 -0.298951 0
M  V30 7898 C 714.755 -4.26736 0.672316 0
M  V30 7899 C 713.89 -5.31134 -0.0835872 0
M  V30 7900 C 712.929 -6.05742 0.879979 0
M  V30 7901 N 712.066 -7.01926 0.156301 0
M  V30 7902 H 716.906 -2.68558 1.29154 0
M  V30 7903 H 714.443 -1.32052 0.648118 0
M  V30 7904 H 716.401 -4.10554 -0.741723 0
M  V30 7905 H 715.031 -3.02814 -1.1182 0
M  V30 7906 H 714.083 -3.59842 1.23361 0
M  V30 7907 H 715.395 -4.78502 1.40846 0
M  V30 7908 H 714.549 -6.03863 -0.585984 0
M  V30 7909 H 713.288 -4.80188 -0.852661 0
M  V30 7910 H 712.293 -5.31846 1.39357 0
M  V30 7911 H 713.518 -6.58777 1.64894 0
M  V30 7912 H 711.464 -6.53301 -0.594413 0
M  V30 7913 H 711.381 -7.51409 0.831906 0
M  V30 7914 H 712.649 -7.78821 -0.325239 0
M  V30 7915 N 716.879 -0.700114 -1.41195 0
M  V30 7916 C 718.104 -0.240704 -2.05998 0
M  V30 7917 C 718.529 1.10313 -1.52357 0
M  V30 7918 O 717.887 1.69154 -0.652424 0
M  V30 7919 C 717.935 -0.213783 -3.59966 0
M  V30 7920 O 717.039 0.809933 -4.04368 0
M  V30 7921 H 716.38 -0.116471 -0.653705 0
M  V30 7922 H 718.91 -0.956251 -1.80878 0
M  V30 7923 H 718.92 -0.0461852 -4.07974 0
M  V30 7924 H 717.595 -1.19454 -3.98376 0
M  V30 7925 H 716.172 0.611319 -3.67855 0
M  V30 7926 N 718.357 1.51182 -0.445186 0
M  V30 7927 C 719.605 2.01753 0.11841 0
M  V30 7928 C 719.926 1.33087 1.42523 0
M  V30 7929 O 719.196 0.467891 1.9023 0
M  V30 7930 H 717.776 0.745536 0.0467492 0
M  V30 7931 H 720.438 1.85765 -0.589688 0
M  V30 7932 H 719.534 3.10762 0.288665 0
M  V30 7933 N 719.835 0.176821 1.56605 0
M  V30 7934 C 721.063 -0.472828 2.01425 0
M  V30 7935 C 721.478 -1.56436 1.05703 0
M  V30 7936 O 720.835 -1.82405 0.058808 0
M  V30 7937 C 720.886 -1.04607 3.46034 0
M  V30 7938 O 720.607 0.00189608 4.381 0
M  V30 7939 C 722.108 -1.7734 4.06282 0
M  V30 7940 H 719.328 -0.120503 0.660091 0
M  V30 7941 H 721.872 0.280166 2.02572 0
M  V30 7942 H 720.027 -1.74953 3.45645 0
M  V30 7943 H 720.441 -0.422118 5.22799 0
M  V30 7944 H 721.915 -2.12703 5.09374 0
M  V30 7945 H 722.392 -2.67043 3.4869 0
M  V30 7946 H 722.998 -1.11623 4.10391 0
M  V30 7947 N 721.313 -1.57302 -0.09688 0
M  V30 7948 C 722.276 -2.00976 -1.10188 0
M  V30 7949 C 723.276 -0.903009 -1.3305 0
M  V30 7950 O 724.466 -1.16853 -1.29194 0
M  V30 7951 C 721.598 -2.36893 -2.45142 0
M  V30 7952 H 722.791 -2.9098 -0.726003 0
M  V30 7953 H 720.344 -1.52515 -0.341872 0
M  V30 7954 H 721.079 -1.49837 -2.8761 0
M  V30 7955 H 720.864 -3.17632 -2.29897 0
M  V30 7956 H 722.354 -2.71345 -3.1743 0
M  V30 7957 N 722.791 0.367657 -1.53252 0
M  V30 7958 C 724.019 1.13119 -1.73239 0
M  V30 7959 C 724.434 1.831 -0.460404 0
M  V30 7960 O 723.791 1.73483 0.566557 0
M  V30 7961 C 723.842 2.16308 -2.89643 0
M  V30 7962 O 723.563 1.49175 -4.1192 0
M  V30 7963 C 725.064 3.05224 -3.21486 0
M  V30 7964 H 722.284 0.338318 -0.579467 0
M  V30 7965 H 724.828 0.42721 -1.99988 0
M  V30 7966 H 722.983 2.82307 -2.65295 0
M  V30 7967 H 723.397 2.17912 -4.7709 0
M  V30 7968 H 724.871 3.73613 -4.06346 0
M  V30 7969 H 725.348 3.69919 -2.36763 0
M  V30 7970 H 725.954 2.44843 -3.47753 0
M  V30 7971 N 724.269 1.44576 0.627338 0
M  V30 7972 C 725.68 1.42266 1.20902 0
M  V30 7973 C 726.031 0.139964 1.957 0
M  V30 7974 O 725.156 -0.759489 2.02634 0
M  V30 7975 C 725.751 2.57727 2.19914 0
M  V30 7976 C 724.31 2.58599 2.73502 0
M  V30 7977 C 723.457 2.34145 1.48564 0
M  V30 7978 H 726.408 1.53102 0.417791 0
M  V30 7979 H 726.429 2.30697 3.02588 0
M  V30 7980 H 725.941 3.51068 1.65447 0
M  V30 7981 H 724.042 1.6921 3.31962 0
M  V30 7982 H 724.155 3.57205 3.19282 0
M  V30 7983 H 722.519 1.83313 1.76829 0
M  V30 7984 H 723.302 3.29606 0.959935 0
M  V30 7985 N 725.747 -0.868086 1.31537 0
M  V30 7986 C 726.679 -1.98165 1.15166 0
M  V30 7987 C 727.692 -1.6255 0.0902335 0
M  V30 7988 O 728.881 -1.75272 0.33791 0
M  V30 7989 C 725.981 -3.30772 0.737776 0
M  V30 7990 C 725.154 -3.94716 1.88462 0
M  V30 7991 C 724.213 -5.05641 1.45648 0
M  V30 7992 O 723.239 -5.2636 2.16642 0
M  V30 7993 N 724.441 -5.79474 0.34493 0
M  V30 7994 H 727.206 -2.12754 2.11083 0
M  V30 7995 H 724.767 -1.04217 1.23897 0
M  V30 7996 H 726.759 -4.02366 0.434032 0
M  V30 7997 H 725.329 -3.1233 -0.129834 0
M  V30 7998 H 724.549 -3.16079 2.35558 0
M  V30 7999 H 725.837 -4.34175 2.65273 0
M  V30 8000 H 725.235 -5.65164 -0.246259 0
M  V30 8001 H 723.792 -6.51722 0.100728 0
M  V30 8002 N 727.225 -1.14528 -1.08264 0
M  V30 8003 C 728.641 -0.885976 -1.3275 0
M  V30 8004 C 728.841 0.472096 -1.95892 0
M  V30 8005 O 727.897 1.21606 -2.21288 0
M  V30 8006 C 729.21 -2.01982 -2.22764 0
M  V30 8007 C 730.758 -2.05329 -2.36239 0
M  V30 8008 C 731.233 -3.1801 -3.29596 0
M  V30 8009 N 732.724 -3.17598 -3.37173 0
M  V30 8010 C 733.459 -4.01426 -4.09444 0
M  V30 8011 N 732.955 -4.95297 -4.8441 0
M  V30 8012 N 734.748 -3.89482 -4.0529 0
M  V30 8013 H 726.899 -2.01996 -0.656607 0
M  V30 8014 H 729.162 -0.880274 -0.351884 0
M  V30 8015 H 728.868 -2.99964 -1.83615 0
M  V30 8016 H 728.742 -1.94421 -3.23234 0
M  V30 8017 H 731.129 -1.07953 -2.74646 0
M  V30 8018 H 731.21 -2.1696 -1.35506 0
M  V30 8019 H 730.854 -4.15633 -2.9191 0
M  V30 8020 H 730.784 -3.03616 -4.30261 0
M  V30 8021 H 733.275 -2.4961 -2.83731 0
M  V30 8022 H 733.588 -5.55723 -5.37021 0
M  V30 8023 H 731.933 -4.99293 -4.83457 0
M  V30 8024 H 735.124 -3.15465 -3.45832 0
M  V30 8025 H 735.297 -4.55039 -4.6135 0
M  V30 8026 N 728.703 1.26451 -0.940633 0
M  V30 8027 C 729.928 1.98407 -0.60412 0
M  V30 8028 C 730.353 1.69584 0.81382 0
M  V30 8029 O 729.711 0.943553 1.54812 0
M  V30 8030 C 729.759 3.50387 -0.852136 0
M  V30 8031 O 728.863 4.1233 0.076013 0
M  V30 8032 H 728.204 0.622466 -0.231153 0
M  V30 8033 H 730.734 1.60932 -1.26342 0
M  V30 8034 H 730.744 4.00614 -0.772816 0
M  V30 8035 H 729.419 3.70696 -1.88566 0
M  V30 8036 H 727.996 3.7286 -0.0543187 0
M  V30 8037 N 730.181 0.707592 1.40822 0
M  V30 8038 C 731.429 0.243189 2.00632 0
M  V30 8039 C 731.75 -1.16512 1.56365 0
M  V30 8040 O 731.02 -1.78841 0.799553 0
M  V30 8041 H 729.6 0.0869203 0.741926 0
M  V30 8042 H 732.262 0.911438 1.72275 0
M  V30 8043 H 731.358 0.270014 3.1093 0
M  V30 8044 N 731.66 -1.50943 0.453197 0
M  V30 8045 C 732.885 -2.07116 -0.108463 0
M  V30 8046 C 733.31 -1.31681 -1.3432 0
M  V30 8047 O 732.668 -0.359256 -1.77705 0
M  V30 8048 C 732.716 -3.58447 -0.393424 0
M  V30 8049 O 731.82 -3.85038 -1.47714 0
M  V30 8050 H 731.161 -0.66398 0.0050993 0
M  V30 8051 H 733.691 -1.94362 0.639095 0
M  V30 8052 H 733.701 -4.02961 -0.639222 0
M  V30 8053 H 732.376 -4.12774 0.508946 0
M  V30 8054 H 730.953 -3.52376 -1.22006 0
M  V30 8055 N 733.138 -0.185124 -1.56509 0
M  V30 8056 C 734.384 0.456934 -1.97585 0
M  V30 8057 C 734.717 1.61957 -1.07161 0
M  V30 8058 O 733.992 1.9412 -0.121546 0
M  V30 8059 C 734.275 0.926666 -3.47973 0
M  V30 8060 C 734.128 -0.237097 -4.49175 0
M  V30 8061 C 735.447 1.79561 -4.01803 0
M  V30 8062 H 732.566 0.164619 -0.71838 0
M  V30 8063 H 735.208 -0.274039 -1.88013 0
M  V30 8064 H 733.358 1.54954 -3.56261 0
M  V30 8065 H 735.03 -0.87454 -4.52934 0
M  V30 8066 H 733.273 -0.890446 -4.24563 0
M  V30 8067 H 733.944 0.133924 -5.51838 0
M  V30 8068 H 736.42 1.27039 -3.96232 0
M  V30 8069 H 735.296 2.09327 -5.07418 0
M  V30 8070 H 735.557 2.74629 -3.46455 0
M  V30 8071 N 734.616 1.57351 0.0885366 0
M  V30 8072 C 735.841 1.91011 0.80805 0
M  V30 8073 C 736.266 0.780009 1.71165 0
M  V30 8074 O 735.624 -0.268083 1.79307 0
M  V30 8075 C 735.672 3.23562 1.59185 0
M  V30 8076 O 734.776 3.11615 2.7013 0
M  V30 8077 H 734.117 0.625943 0.221565 0
M  V30 8078 H 736.647 2.04507 0.0617954 0
M  V30 8079 H 736.657 3.5703 1.97468 0
M  V30 8080 H 735.332 4.05398 0.928741 0
M  V30 8081 H 733.909 2.89673 2.34827 0
M  V30 8082 N 736.094 -0.359525 1.53444 0
M  V30 8083 C 737.042 -1.46104 1.80987 0
M  V30 8084 C 738.036 -1.55181 0.679351 0
M  V30 8085 O 739.242 -1.57995 0.862405 0
M  V30 8086 H 735.617 -0.486835 0.573145 0
M  V30 8087 H 737.588 -1.2008 2.73173 0
M  V30 8088 C 736.337 -2.82855 2.02208 0
M  V30 8089 H 735.66 -2.76631 2.88644 0
M  V30 8090 H 737.1 -3.59091 2.25455 0
M  V30 8091 C 735.559 -3.27192 0.802931 0
M  V30 8092 O 736.089 -4.017 -0.00544286 0
M  V30 8093 N 734.295 -2.83807 0.624657 0
M  V30 8094 H 733.842 -2.23339 1.28364 0
M  V30 8095 H 733.8 -3.13828 -0.189641 0
M  V30 8096 N 737.572 -1.44907 -0.619662 0
M  V30 8097 C 738.802 -1.51575 -1.40387 0
M  V30 8098 C 739.21 -0.14309 -1.88658 0
M  V30 8099 O 738.553 0.863403 -1.62145 0
M  V30 8100 C 738.615 -2.42858 -2.65067 0
M  V30 8101 C 738.279 -3.8982 -2.38515 0
M  V30 8102 C 739.276 -4.80047 -1.99627 0
M  V30 8103 C 736.961 -4.34628 -2.51801 0
M  V30 8104 C 738.955 -6.13086 -1.74369 0
M  V30 8105 C 736.642 -5.67712 -2.26156 0
M  V30 8106 C 737.64 -6.56759 -1.875 0
M  V30 8107 O 737.328 -7.87377 -1.62148 0
M  V30 8108 H 737.06 -0.51612 -0.436573 0
M  V30 8109 H 739.614 -1.90664 -0.763959 0
M  V30 8110 H 737.844 -1.98717 -3.31735 0
M  V30 8111 H 739.533 -2.40346 -3.27091 0
M  V30 8112 H 740.299 -4.46697 -1.8891 0
M  V30 8113 H 736.178 -3.65568 -2.80857 0
M  V30 8114 H 739.722 -6.8255 -1.44122 0
M  V30 8115 H 735.619 -6.0062 -2.36486 0
M  V30 8116 H 736.387 -7.99288 -1.763 0
M  V30 8117 N 739.05 0.861098 -1.31996 0
M  V30 8118 C 740.466 1.14827 -1.10846 0
M  V30 8119 C 740.666 2.0117 0.11528 0
M  V30 8120 O 739.722 2.39423 0.802048 0
M  V30 8121 C 741.035 1.83183 -2.38462 0
M  V30 8122 C 742.583 1.95847 -2.44158 0
M  V30 8123 C 743.058 2.67617 -3.71679 0
M  V30 8124 N 744.549 2.75147 -3.72624 0
M  V30 8125 C 745.284 3.31314 -4.67994 0
M  V30 8126 N 744.78 3.88343 -5.73726 0
M  V30 8127 N 746.573 3.29356 -4.55501 0
M  V30 8128 H 738.724 0.285951 -2.10466 0
M  V30 8129 H 740.987 0.189303 -0.928907 0
M  V30 8130 H 740.693 1.27193 -3.27895 0
M  V30 8131 H 740.567 2.83393 -2.48935 0
M  V30 8132 H 742.954 2.50999 -1.55189 0
M  V30 8133 H 743.035 0.94653 -2.37644 0
M  V30 8134 H 742.679 2.13131 -4.61018 0
M  V30 8135 H 742.609 3.69237 -3.75462 0
M  V30 8136 H 745.1 2.34682 -2.96197 0
M  V30 8137 H 745.413 4.29338 -6.42564 0
M  V30 8138 H 743.758 3.86693 -5.77489 0
M  V30 8139 H 746.949 2.84047 -3.72069 0
M  V30 8140 H 747.122 3.7283 -5.30001 0
M  V30 8141 N 740.528 1.15101 1.07655 0
M  V30 8142 C 741.753 0.948177 1.84457 0
M  V30 8143 C 742.178 -0.498432 1.81376 0
M  V30 8144 O 741.536 -1.35509 1.20445 0
M  V30 8145 C 741.584 1.46318 3.29581 0
M  V30 8146 O 740.688 0.660342 4.07079 0
M  V30 8147 H 740.029 0.338428 0.571281 0
M  V30 8148 H 742.559 1.5301 1.35828 0
M  V30 8149 H 742.569 1.47468 3.80417 0
M  V30 8150 H 741.244 2.51635 3.31138 0
M  V30 8151 H 739.821 0.718216 3.65918 0
M  V30 8152 N 742.006 -1.2595 0.947325 0
M  V30 8153 C 743.246 -1.95218 0.605743 0
M  V30 8154 C 743.61 -1.72624 -0.84054 0
M  V30 8155 O 744.811 -2.35748 -1.29136 0
M  V30 8156 C 743.082 -3.44654 0.94596 0
M  V30 8157 S 744.641 -4.32922 0.715849 0
M  V30 8158 H 741.459 -0.675159 0.222894 0
M  V30 8159 H 744.061 -1.52766 1.21995 0
M  V30 8160 H 742.765 -3.586 1.99585 0
M  V30 8161 H 742.296 -3.92082 0.321718 0
M  V30 8162 H 744.311 -4.94445 -0.416959 0
M  V30 8163 N 743.484 -0.715051 -1.40445 0
M  V30 8164 C 744.416 -0.0227516 -2.29189 0
M  V30 8165 C 745.429 0.724313 -1.458 0
M  V30 8166 O 746.618 0.571781 -1.69094 0
M  V30 8167 C 743.718 0.992038 -3.24055 0
M  V30 8168 C 742.891 0.310613 -4.36296 0
M  V30 8169 C 741.95 1.23071 -5.11605 0
M  V30 8170 O 740.976 0.71571 -5.64682 0
M  V30 8171 N 742.178 2.56188 -5.2091 0
M  V30 8172 H 744.943 -0.78473 -2.89244 0
M  V30 8173 H 742.504 -0.562637 -1.51809 0
M  V30 8174 H 744.496 1.60973 -3.71308 0
M  V30 8175 H 743.066 1.65538 -2.65171 0
M  V30 8176 H 742.286 -0.487269 -3.91177 0
M  V30 8177 H 743.574 -0.162415 -5.08541 0
M  V30 8178 H 742.972 3.00527 -4.7927 0
M  V30 8179 H 741.529 3.13103 -5.71673 0
M  V30 8180 N 744.962 1.50701 -0.461195 0
M  V30 8181 C 746.378 1.59187 -0.114786 0
M  V30 8182 C 746.578 1.4702 1.37794 0
M  V30 8183 O 745.634 1.32361 2.15027 0
M  V30 8184 C 746.947 2.93453 -0.656167 0
M  V30 8185 C 748.495 3.06824 -0.618715 0
M  V30 8186 C 748.97 4.4365 -1.13747 0
M  V30 8187 N 750.461 4.50035 -1.09646 0
M  V30 8188 C 751.196 5.54278 -1.46846 0
M  V30 8189 N 750.692 6.65822 -1.91448 0
M  V30 8190 N 752.485 5.44767 -1.38512 0
M  V30 8191 H 744.636 1.56853 -1.43216 0
M  V30 8192 H 746.899 0.740712 -0.59165 0
M  V30 8193 H 746.605 3.07802 -1.7015 0
M  V30 8194 H 746.479 3.77082 -0.0942261 0
M  V30 8195 H 748.866 2.92129 0.417685 0
M  V30 8196 H 748.947 2.24976 -1.21734 0
M  V30 8197 H 748.591 4.59093 -2.17245 0
M  V30 8198 H 748.521 5.24074 -0.515153 0
M  V30 8199 H 751.012 3.69988 -0.769217 0
M  V30 8200 H 751.325 7.41413 -2.18007 0
M  V30 8201 H 749.67 6.66968 -1.95393 0
M  V30 8202 H 752.861 4.56511 -1.03516 0
M  V30 8203 H 753.034 6.25889 -1.6783 0
M  V30 8204 N 746.441 0.193421 1.56409 0
M  V30 8205 C 747.666 -0.454552 2.02358 0
M  V30 8206 C 748.091 -1.54516 1.07268 0
M  V30 8207 O 747.449 -1.81214 0.0558962 0
M  V30 8208 C 747.497 -0.989469 3.46759 0
M  V30 8209 O 746.601 -2.10244 3.54783 0
M  V30 8210 H 745.942 -0.106417 0.655417 0
M  V30 8211 H 748.472 0.303807 2.02332 0
M  V30 8212 H 748.482 -1.30649 3.86516 0
M  V30 8213 H 747.157 -0.191083 4.15461 0
M  V30 8214 H 745.734 -1.79419 3.26899 0
M  V30 8215 N 747.919 -1.57396 -0.0801906 0
M  V30 8216 C 749.196 -1.77883 -0.813451 0
M  V30 8217 C 749.576 -0.778879 -1.96206 0
M  V30 8218 O 748.924 0.189683 -2.27711 0
M  V30 8219 C 749.134 -3.24116 -1.2942 0
M  V30 8220 C 750.482 -3.87714 -1.73098 0
M  V30 8221 O 751.506 -3.27956 -1.39007 0
M  V30 8222 O 750.365 -4.92828 -2.36184 0
M  V30 8223 H 747.459 -0.729727 -0.389138 0
M  V30 8224 H 750.005 -1.69591 -0.0609166 0
M  V30 8225 H 748.777 -3.88443 -0.471947 0
M  V30 8226 H 748.4 -3.371 -2.1083 0
M  V30 8227 N 749.397 0.351382 -1.53633 0
M  V30 8228 C 750.622 1.11718 -1.74739 0
M  V30 8229 C 751.047 1.81829 -0.481657 0
M  V30 8230 O 750.405 1.72264 0.565233 0
M  V30 8231 C 750.453 2.11234 -2.92254 0
M  V30 8232 O 749.557 3.186 -2.61855 0
M  V30 8233 H 748.898 0.323482 -0.579875 0
M  V30 8234 H 751.428 0.404167 -2.00568 0
M  V30 8235 H 751.438 2.54591 -3.18822 0
M  V30 8236 H 750.113 1.59599 -3.84058 0
M  V30 8237 H 748.69 2.80115 -2.4615 0
M  V30 8238 N 750.875 1.45233 0.611969 0
M  V30 8239 C 752.152 1.39495 1.37115 0
M  V30 8240 C 752.532 0.0633303 2.11005 0
M  V30 8241 O 751.88 -0.954617 2.07604 0
M  V30 8242 C 752.09 2.60579 2.32163 0
M  V30 8243 C 753.438 3.05477 2.94905 0
M  V30 8244 O 754.462 2.60921 2.42485 0
M  V30 8245 O 753.321 3.82787 3.90047 0
M  V30 8246 H 750.415 0.55335 0.614599 0
M  V30 8247 H 752.961 1.57355 0.635423 0
M  V30 8248 H 751.733 3.49085 1.76793 0
M  V30 8249 H 751.356 2.45031 3.13122 0
M  V30 8250 N 752.353 -0.854086 1.3245 0
M  V30 8251 C 753.316 -1.94427 1.21371 0
M  V30 8252 C 754.316 -1.60219 0.136613 0
M  V30 8253 O 755.506 -1.69846 0.387057 0
M  V30 8254 C 752.638 -3.29698 0.866701 0
M  V30 8255 H 753.831 -2.05679 2.18257 0
M  V30 8256 H 751.384 -1.04434 1.1629 0
M  V30 8257 H 752.119 -3.24145 -0.100319 0
M  V30 8258 H 751.904 -3.55903 1.64545 0
M  V30 8259 H 753.394 -4.09599 0.813515 0
M  V30 8260 N 753.831 -1.1567 -1.07043 0
M  V30 8261 C 754.741 -0.870435 -2.17855 0
M  V30 8262 C 755.757 0.154452 -1.73313 0
M  V30 8263 O 756.933 -0.0203759 -2.0139 0
M  V30 8264 C 753.998 -0.367219 -3.4475 0
M  V30 8265 C 753.059 -1.45639 -4.03841 0
M  V30 8266 C 752.292 -0.977092 -5.2468 0
M  V30 8267 O 752.515 0.176127 -5.70128 0
M  V30 8268 O 751.449 -1.76215 -5.75527 0
M  V30 8269 H 755.275 -1.79687 -2.44839 0
M  V30 8270 H 752.86 -0.936064 -1.1644 0
M  V30 8271 H 754.742 -0.0931947 -4.21297 0
M  V30 8272 H 753.417 0.53131 -3.1931 0
M  V30 8273 H 752.324 -1.78406 -3.28819 0
M  V30 8274 H 753.657 -2.32995 -4.3356 0
M  V30 8275 N 755.309 1.25446 -0.953992 0
M  V30 8276 C 756.272 2.24156 -0.478179 0
M  V30 8277 C 757.272 1.55278 0.417776 0
M  V30 8278 O 758.462 1.72866 0.215155 0
M  V30 8279 C 755.594 3.39495 0.309202 0
M  V30 8280 H 756.787 2.67764 -1.35064 0
M  V30 8281 H 754.34 1.37822 -0.737206 0
M  V30 8282 H 755.075 3.01307 1.19936 0
M  V30 8283 H 754.86 3.90679 -0.333562 0
M  V30 8284 H 756.35 4.12796 0.631594 0
M  V30 8285 N 756.787 0.722489 1.40064 0
M  V30 8286 C 757.719 0.0349057 2.29173 0
M  V30 8287 C 758.732 -0.716571 1.46182 0
M  V30 8288 O 759.921 -0.562806 1.69395 0
M  V30 8289 C 757.021 -0.974839 3.24577 0
M  V30 8290 C 756.194 -0.287471 4.36454 0
M  V30 8291 C 755.253 -1.20356 5.12251 0
M  V30 8292 O 754.279 -0.685753 5.65054 0
M  V30 8293 N 755.481 -2.53422 5.22262 0
M  V30 8294 H 758.246 0.800058 2.88824 0
M  V30 8295 H 755.807 0.57068 1.51509 0
M  V30 8296 H 757.799 -1.59002 3.72157 0
M  V30 8297 H 756.369 -1.6413 2.66046 0
M  V30 8298 H 755.589 0.508008 3.90913 0
M  V30 8299 H 756.877 0.189382 5.08447 0
M  V30 8300 H 756.275 -2.97981 4.80857 0
M  V30 8301 H 754.832 -3.10067 5.73325 0
M  V30 8302 N 758.265 -1.50454 0.469181 0
M  V30 8303 C 759.513 -2.01916 -0.0862982 0
M  V30 8304 C 759.834 -1.35337 -1.40388 0
M  V30 8305 O 759.104 -0.498096 -1.89462 0
M  V30 8306 H 757.684 -0.746185 -0.0348825 0
M  V30 8307 H 760.346 -1.84804 0.619167 0
M  V30 8308 H 759.442 -3.11182 -0.239189 0
M  V30 8309 N 759.743 -0.201713 -1.56304 0
M  V30 8310 C 760.69 0.716499 -2.19397 0
M  V30 8311 C 761.66 1.20494 -1.14326 0
M  V30 8312 O 762.845 1.26763 -1.42604 0
M  V30 8313 C 759.985 1.92762 -2.86246 0
M  V30 8314 C 759.098 1.47993 -4.0586 0
M  V30 8315 C 758.233 2.64706 -4.60547 0
M  V30 8316 C 757.272 2.16576 -5.72504 0
M  V30 8317 N 756.409 3.26491 -6.21569 0
M  V30 8318 H 761.249 0.171724 -2.97505 0
M  V30 8319 H 758.786 0.073016 -1.46919 0
M  V30 8320 H 760.744 2.6384 -3.23178 0
M  V30 8321 H 759.374 2.44559 -2.10691 0
M  V30 8322 H 758.426 0.66477 -3.74546 0
M  V30 8323 H 759.738 1.08686 -4.86815 0
M  V30 8324 H 758.892 3.43898 -4.99819 0
M  V30 8325 H 757.631 3.0729 -3.78713 0
M  V30 8326 H 756.636 1.3584 -5.32755 0
M  V30 8327 H 757.861 1.75015 -6.56161 0
M  V30 8328 H 755.807 3.68594 -5.42655 0
M  V30 8329 H 755.724 2.91374 -6.97594 0
M  V30 8330 H 756.992 4.05877 -6.65495 0
M  V30 8331 N 761.222 1.57436 0.0718424 0
M  V30 8332 C 762.447 1.91858 0.787745 0
M  V30 8333 C 762.872 0.798119 1.70328 0
M  V30 8334 O 762.23 -0.24905 1.79581 0
M  V30 8335 C 762.278 3.25232 1.55744 0
M  V30 8336 O 761.382 3.14462 2.6681 0
M  V30 8337 H 760.723 0.628258 0.214914 0
M  V30 8338 H 763.253 2.04561 0.0401012 0
M  V30 8339 H 763.263 3.59105 1.9367 0
M  V30 8340 H 761.938 4.0636 0.885691 0
M  V30 8341 H 760.515 2.92148 2.31741 0
M  V30 8342 N 762.7 -0.34323 1.53817 0
M  V30 8343 C 763.925 -1.1079 1.75329 0
M  V30 8344 C 764.35 -1.81571 0.491293 0
M  V30 8345 O 763.708 -1.72561 -0.556089 0
M  V30 8346 C 763.756 -2.09681 2.9337 0
M  V30 8347 O 762.86 -3.17207 2.63541 0
M  V30 8348 H 762.201 -0.320402 0.581583 0
M  V30 8349 H 764.731 -0.393525 2.0078 0
M  V30 8350 H 764.741 -2.52897 3.20168 0
M  V30 8351 H 763.416 -1.5756 3.84899 0
M  V30 8352 H 761.993 -2.78806 2.47632 0
M  V30 8353 N 764.178 -1.45556 -0.604258 0
M  V30 8354 C 765.088 -1.57025 -1.74299 0
M  V30 8355 C 766.104 -0.45456 -1.67958 0
M  V30 8356 O 767.28 -0.715711 -1.88254 0
M  V30 8357 C 764.345 -1.53702 -3.10768 0
M  V30 8358 C 763.406 -2.76335 -3.28538 0
M  V30 8359 C 762.639 -2.73161 -4.58496 0
M  V30 8360 O 762.862 -1.80678 -5.41028 0
M  V30 8361 O 761.796 -3.64409 -4.79051 0
M  V30 8362 H 765.622 -2.53284 -1.67573 0
M  V30 8363 H 763.207 -1.28104 -0.768745 0
M  V30 8364 H 765.089 -1.54468 -3.92068 0
M  V30 8365 H 763.764 -0.605957 -3.17978 0
M  V30 8366 H 762.671 -2.8113 -2.46813 0
M  V30 8367 H 764.004 -3.68578 -3.26207 0
M  V30 8368 N 765.656 0.84705 -1.32902 0
M  V30 8369 C 766.902 1.60414 -1.24078 0
M  V30 8370 C 767.235 1.93217 0.195105 0
M  V30 8371 O 766.51 1.58001 1.13428 0
M  V30 8372 C 766.793 2.91951 -2.108 0
M  V30 8373 C 766.646 2.6588 -3.62805 0
M  V30 8374 C 767.965 3.93299 -1.97494 0
M  V30 8375 H 765.084 0.58206 -0.452079 0
M  V30 8376 H 767.726 0.977562 -1.62922 0
M  V30 8377 H 765.876 3.45425 -1.77802 0
M  V30 8378 H 767.548 2.18902 -4.06054 0
M  V30 8379 H 765.791 1.99716 -3.85092 0
M  V30 8380 H 766.462 3.59574 -4.1882 0
M  V30 8381 H 768.938 3.49105 -2.26417 0
M  V30 8382 H 767.814 4.8318 -2.60438 0
M  V30 8383 H 768.075 4.31887 -0.944782 0
M  V30 8384 N 767.134 1.16236 1.06428 0
M  V30 8385 C 768.359 0.967688 1.83441 0
M  V30 8386 C 768.784 -0.479167 1.81894 0
M  V30 8387 O 768.142 -1.34224 1.21875 0
M  V30 8388 C 768.19 1.49806 3.2801 0
M  V30 8389 O 767.294 0.703481 4.06356 0
M  V30 8390 H 766.635 0.344468 0.56766 0
M  V30 8391 H 769.165 1.54442 1.34197 0
M  V30 8392 H 769.175 1.51495 3.78831 0
M  V30 8393 H 767.85 2.55133 3.2845 0
M  V30 8394 H 766.427 0.756986 3.65136 0
M  V30 8395 N 768.612 -1.24939 0.960631 0
M  V30 8396 C 769.542 -2.28 0.503815 0
M  V30 8397 C 770.523 -1.63959 -0.452928 0
M  V30 8398 O 771.708 -1.91009 -0.350585 0
M  V30 8399 C 768.838 -3.46643 -0.213535 0
M  V30 8400 C 767.792 -4.22903 0.658535 0
M  V30 8401 C 767.118 -5.34363 -0.189902 0
M  V30 8402 C 768.418 -4.84949 1.93963 0
M  V30 8403 H 770.112 -2.66462 1.36521 0
M  V30 8404 H 767.658 -1.28093 0.657897 0
M  V30 8405 H 769.611 -4.1787 -0.544286 0
M  V30 8406 H 768.335 -3.07187 -1.10923 0
M  V30 8407 H 766.994 -3.53467 0.972455 0
M  V30 8408 H 766.642 -4.91147 -1.08553 0
M  V30 8409 H 766.342 -5.86302 0.390331 0
M  V30 8410 H 767.866 -6.0842 -0.515484 0
M  V30 8411 H 769.28 -5.48288 1.67491 0
M  V30 8412 H 767.677 -5.47091 2.46601 0
M  V30 8413 H 768.747 -4.06799 2.639 0
M  V30 8414 N 770.09 -0.729906 -1.39679 0
M  V30 8415 C 771.318 -0.285709 -2.04918 0
M  V30 8416 C 771.733 1.07765 -1.55023 0
M  V30 8417 O 771.09 1.67999 -0.712923 0
M  V30 8418 C 771.141 -0.272793 -3.60469 0
M  V30 8419 O 770.862 -1.58233 -4.08527 0
M  V30 8420 C 772.363 0.188199 -4.429 0
M  V30 8421 H 769.583 -0.125758 -0.65911 0
M  V30 8422 H 772.127 -0.992129 -1.78821 0
M  V30 8423 H 770.282 0.384699 -3.85485 0
M  V30 8424 H 770.696 -1.49245 -5.02818 0
M  V30 8425 H 772.17 0.14608 -5.51807 0
M  V30 8426 H 772.647 1.2326 -4.21549 0
M  V30 8427 H 773.253 -0.439541 -4.23023 0
M  V30 8428 N 771.568 1.50203 -0.477153 0
M  V30 8429 C 772.793 2.07263 0.0754986 0
M  V30 8430 C 773.218 1.33801 1.32208 0
M  V30 8431 O 772.576 0.387482 1.77111 0
M  V30 8432 C 772.624 3.59028 0.336348 0
M  V30 8433 O 771.728 3.87339 1.4157 0
M  V30 8434 H 771.069 0.663815 -0.015662 0
M  V30 8435 H 773.599 1.93321 -0.669936 0
M  V30 8436 H 773.609 4.03927 0.575034 0
M  V30 8437 H 772.284 4.11912 -0.574551 0
M  V30 8438 H 770.861 3.54272 1.16385 0
M  V30 8439 N 773.046 0.209999 1.56195 0
M  V30 8440 C 774.271 -0.433064 2.02828 0
M  V30 8441 C 774.696 -1.5337 1.08901 0
M  V30 8442 O 774.054 -1.81144 0.0751132 0
M  V30 8443 C 774.102 -0.952635 3.47789 0
M  V30 8444 O 773.206 -2.0647 3.56993 0
M  V30 8445 H 772.547 -0.0994594 0.656509 0
M  V30 8446 H 775.077 0.32525 2.01998 0
M  V30 8447 H 775.087 -1.26542 3.8788 0
M  V30 8448 H 773.762 -0.147007 4.1564 0
M  V30 8449 H 772.339 -1.75942 3.28784 0
M  V30 8450 N 774.524 -1.57472 -0.0634922 0
M  V30 8451 C 775.77 -1.87932 -0.762194 0
M  V30 8452 C 776.103 -0.803377 -1.76804 0
M  V30 8453 O 775.378 0.185468 -1.93614 0
M  V30 8454 C 775.661 -3.29053 -1.46275 0
M  V30 8455 C 775.514 -4.47309 -0.472755 0
M  V30 8456 C 776.833 -3.68537 -2.40558 0
M  V30 8457 H 773.952 -0.683521 -0.275624 0
M  V30 8458 H 776.594 -1.89983 -0.0252651 0
M  V30 8459 H 774.744 -3.27435 -2.0909 0
M  V30 8460 H 776.416 -4.61053 0.150828 0
M  V30 8461 H 774.659 -4.33286 0.211187 0
M  V30 8462 H 775.33 -5.42853 -1.00072 0
M  V30 8463 H 777.806 -3.71302 -1.87814 0
M  V30 8464 H 776.682 -4.68152 -2.86574 0
M  V30 8465 H 776.943 -2.98917 -3.25731 0
M  V30 8466 N 776.003 0.335068 -1.53997 0
M  V30 8467 C 777.231 1.09418 -1.756 0
M  V30 8468 C 777.646 1.82083 -0.499138 0
M  V30 8469 O 777.003 1.74646 0.529631 0
M  V30 8470 C 777.054 2.10115 -2.94166 0
M  V30 8471 O 776.775 1.40404 -4.14992 0
M  V30 8472 C 778.276 2.98336 -3.27888 0
M  V30 8473 H 775.496 0.32595 -0.586513 0
M  V30 8474 H 778.04 0.384693 -2.00849 0
M  V30 8475 H 776.195 2.76616 -2.71224 0
M  V30 8476 H 776.609 2.07743 -4.81605 0
M  V30 8477 H 778.083 3.6491 -4.1418 0
M  V30 8478 H 778.56 3.64814 -2.44556 0
M  V30 8479 H 779.166 2.37412 -3.52868 0
M  V30 8480 N 777.481 1.45874 0.596531 0
M  V30 8481 C 778.706 1.54247 1.38646 0
M  V30 8482 C 779.131 0.179571 1.87241 0
M  V30 8483 O 778.489 -0.837831 1.6078 0
M  V30 8484 C 778.537 2.54015 2.55946 0
M  V30 8485 O 777.641 2.06561 3.5694 0
M  V30 8486 H 776.982 0.519555 0.413471 0
M  V30 8487 H 779.512 1.91327 0.724936 0
M  V30 8488 H 779.522 2.73179 3.03047 0
M  V30 8489 H 778.197 3.52994 2.19928 0
M  V30 8490 H 776.774 1.97324 3.16414 0
M  V30 8491 N 778.959 -0.83999 1.33349 0
M  V30 8492 C 779.889 -1.965 1.26135 0
M  V30 8493 C 780.87 -1.69505 0.142152 0
M  V30 8494 O 782.055 -1.91346 0.331743 0
M  V30 8495 C 779.185 -3.32632 0.99866 0
M  V30 8496 C 778.139 -3.74021 2.08068 0
M  V30 8497 C 777.465 -5.07947 1.67014 0
M  V30 8498 C 778.765 -3.87925 3.49731 0
M  V30 8499 H 780.459 -2.02793 2.20262 0
M  V30 8500 H 778.005 -0.974297 1.06035 0
M  V30 8501 H 779.958 -4.10903 0.934696 0
M  V30 8502 H 778.682 -3.26593 0.0217759 0
M  V30 8503 H 777.341 -2.98012 2.13505 0
M  V30 8504 H 776.989 -4.98378 0.680316 0
M  V30 8505 H 776.689 -5.36611 2.39422 0
M  V30 8506 H 778.213 -5.88695 1.62082 0
M  V30 8507 H 779.627 -4.5651 3.46802 0
M  V30 8508 H 778.024 -4.28023 4.20614 0
M  V30 8509 H 779.094 -2.90407 3.88319 0
M  V30 8510 N 780.437 -1.16799 -1.0581 0
M  V30 8511 C 781.714 -0.862616 -1.75551 0
M  V30 8512 C 782.094 0.6385 -2.01212 0
M  V30 8513 O 781.442 1.58784 -1.64317 0
M  V30 8514 C 781.652 -1.6907 -3.05314 0
M  V30 8515 C 783 -1.90675 -3.79379 0
M  V30 8516 O 784.024 -1.65976 -3.15167 0
M  V30 8517 O 782.883 -2.32145 -4.94743 0
M  V30 8518 H 779.977 -0.318789 -0.763088 0
M  V30 8519 H 782.523 -1.27461 -1.12034 0
M  V30 8520 H 781.295 -2.70912 -2.82352 0
M  V30 8521 H 780.918 -1.27606 -3.76567 0
M  V30 8522 N 781.915 1.24427 -0.967243 0
M  V30 8523 C 783.14 1.9708 -0.646069 0
M  V30 8524 C 783.565 1.71272 0.777665 0
M  V30 8525 O 782.923 0.976179 1.52776 0
M  V30 8526 C 782.971 3.48501 -0.926266 0
M  V30 8527 O 782.075 4.12398 -0.0114653 0
M  V30 8528 H 781.416 0.617423 -0.244304 0
M  V30 8529 H 783.946 1.58215 -1.29727 0
M  V30 8530 H 783.956 3.98885 -0.857619 0
M  V30 8531 H 782.631 3.66613 -1.96386 0
M  V30 8532 H 781.208 3.72661 -0.133396 0
M  V30 8533 N 783.393 0.737304 1.3929 0
M  V30 8534 C 784.618 0.295237 2.05288 0
M  V30 8535 C 785.043 -1.06235 1.55228 0
M  V30 8536 O 784.401 -1.67365 0.697043 0
M  V30 8537 C 784.449 0.309146 3.59272 0
M  V30 8538 O 783.553 -0.702437 4.06374 0
M  V30 8539 H 782.894 0.133762 0.650387 0
M  V30 8540 H 785.424 1.00387 1.78279 0
M  V30 8541 H 785.434 0.154336 4.07708 0
M  V30 8542 H 784.109 1.29974 3.95069 0
M  V30 8543 H 782.686 -0.513574 3.69346 0
M  V30 8544 N 784.871 -1.49948 0.485112 0
M  V30 8545 C 786.282 -1.8667 0.0334041 0
M  V30 8546 C 786.633 -1.3988 -1.37579 0
M  V30 8547 O 785.758 -0.769788 -2.02245 0
M  V30 8548 C 786.353 -3.38757 0.0538426 0
M  V30 8549 C 784.912 -3.74839 -0.342453 0
M  V30 8550 C 784.059 -2.73894 0.433281 0
M  V30 8551 H 787.01 -1.42492 0.698699 0
M  V30 8552 H 787.031 -3.73132 -0.745146 0
M  V30 8553 H 786.543 -3.72782 1.07959 0
M  V30 8554 H 784.644 -3.46419 -1.37203 0
M  V30 8555 H 784.757 -4.79088 -0.0340503 0
M  V30 8556 H 783.121 -2.54441 -0.114849 0
M  V30 8557 H 783.904 -3.10763 1.45881 0
M  V30 8558 N 786.349 -0.21828 -1.56081 0
M  V30 8559 C 787.595 0.414921 -1.9851 0
M  V30 8560 C 787.928 1.59648 -1.10573 0
M  V30 8561 O 787.203 1.93818 -0.162695 0
M  V30 8562 C 787.486 0.852647 -3.4986 0
M  V30 8563 C 787.339 -0.33232 -4.48571 0
M  V30 8564 C 788.658 1.70998 -4.05521 0
M  V30 8565 H 785.777 0.149344 -0.72171 0
M  V30 8566 H 788.419 -0.313858 -1.8739 0
M  V30 8567 H 786.569 1.47362 -3.59467 0
M  V30 8568 H 788.241 -0.970418 -4.50977 0
M  V30 8569 H 786.484 -0.980302 -4.22578 0
M  V30 8570 H 787.155 0.0168407 -5.51997 0
M  V30 8571 H 789.631 1.18606 -3.98838 0
M  V30 8572 H 788.507 1.98517 -5.11744 0
M  V30 8573 H 788.768 2.67219 -3.52202 0
M  V30 8574 N 787.827 1.57504 0.0551401 0
M  V30 8575 C 789.104 1.79155 0.785048 0
M  V30 8576 C 789.484 0.809995 1.94942 0
M  V30 8577 O 788.832 -0.153432 2.27984 0
M  V30 8578 C 789.042 3.26134 1.24247 0
M  V30 8579 C 790.39 3.90419 1.66908 0
M  V30 8580 O 791.414 3.30126 1.33772 0
M  V30 8581 O 790.273 4.96523 2.28314 0
M  V30 8582 H 787.367 0.735825 0.377479 0
M  V30 8583 H 789.913 1.69666 0.0339285 0
M  V30 8584 H 788.685 3.89145 0.410089 0
M  V30 8585 H 788.308 3.40411 2.05441 0
M  V30 8586 N 789.305 -0.326896 1.54172 0
M  V30 8587 C 790.235 -1.40741 1.86317 0
M  V30 8588 C 791.216 -1.54125 0.719684 0
M  V30 8589 O 792.401 -1.6806 0.973117 0
M  V30 8590 C 789.531 -2.77557 2.08757 0
M  V30 8591 C 788.485 -2.78965 3.24596 0
M  V30 8592 C 787.811 -4.18824 3.32401 0
M  V30 8593 C 789.111 -2.4301 4.62324 0
M  V30 8594 H 790.805 -1.14088 2.76811 0
M  V30 8595 H 788.351 -0.547389 1.3319 0
M  V30 8596 H 790.304 -3.53209 2.29829 0
M  V30 8597 H 789.028 -3.0568 1.15009 0
M  V30 8598 H 787.687 -2.05767 3.03406 0
M  V30 8599 H 787.335 -4.44083 2.36218 0
M  V30 8600 H 787.035 -4.20673 4.10253 0
M  V30 8601 H 788.559 -4.96294 3.55703 0
M  V30 8602 H 789.973 -3.08375 4.83299 0
M  V30 8603 H 788.37 -2.56116 5.42701 0
M  V30 8604 H 789.44 -1.38165 4.64799 0
M  V30 8605 N 790.784 -1.46188 -0.588786 0
M  V30 8606 C 792.012 -1.54743 -1.37339 0
M  V30 8607 C 792.427 -0.186446 -1.87877 0
M  V30 8608 O 791.784 0.815247 -1.63279 0
M  V30 8609 C 791.835 -2.54727 -2.56508 0
M  V30 8610 O 791.556 -3.85539 -2.08066 0
M  V30 8611 C 793.057 -2.73163 -3.49137 0
M  V30 8612 H 790.277 -0.523484 -0.419768 0
M  V30 8613 H 792.821 -1.91543 -0.716345 0
M  V30 8614 H 790.976 -2.20948 -3.18215 0
M  V30 8615 H 791.39 -4.39905 -2.85629 0
M  V30 8616 H 792.864 -3.47057 -4.2925 0
M  V30 8617 H 793.341 -1.79856 -4.00685 0
M  V30 8618 H 793.947 -3.08014 -2.9327 0
M  V30 8619 N 792.262 0.832906 -1.33792 0
M  V30 8620 C 793.673 1.40489 -1.22963 0
M  V30 8621 C 794.024 1.95633 0.149026 0
M  V30 8622 O 793.149 1.8928 1.04891 0
M  V30 8623 C 793.744 2.55387 -2.22627 0
M  V30 8624 C 792.303 3.08522 -2.15618 0
M  V30 8625 C 791.45 1.81347 -2.09782 0
M  V30 8626 H 794.401 0.638156 -1.45304 0
M  V30 8627 H 794.422 3.33193 -1.83746 0
M  V30 8628 H 793.934 2.15222 -3.22957 0
M  V30 8629 H 792.035 3.53217 -1.18611 0
M  V30 8630 H 792.148 3.6829 -3.0643 0
M  V30 8631 H 790.512 2.01839 -1.55349 0
M  V30 8632 H 791.295 1.43369 -3.1193 0
M  V30 8633 N 793.74 1.17359 1.05189 0
M  V30 8634 C 795.156 0.920861 1.30355 0
M  V30 8635 C 795.356 -0.419993 1.97074 0
M  V30 8636 O 794.412 -1.15696 2.24434 0
M  V30 8637 C 795.725 2.07818 2.1733 0
M  V30 8638 C 797.273 2.1152 2.30712 0
M  V30 8639 C 797.748 3.26637 3.21048 0
M  V30 8640 N 799.239 3.26426 3.28634 0
M  V30 8641 C 799.974 4.12141 3.98657 0
M  V30 8642 N 799.47 5.07966 4.71107 0
M  V30 8643 N 801.263 4.00091 3.94821 0
M  V30 8644 H 793.414 2.03666 0.602821 0
M  V30 8645 H 795.677 0.889294 0.328421 0
M  V30 8646 H 795.383 3.04727 1.75597 0
M  V30 8647 H 795.257 2.02922 3.17966 0
M  V30 8648 H 797.644 1.15196 2.71687 0
M  V30 8649 H 797.725 2.20477 1.29706 0
M  V30 8650 H 797.369 4.23227 2.80788 0
M  V30 8651 H 797.299 3.14917 4.2206 0
M  V30 8652 H 799.79 2.57045 2.77013 0
M  V30 8653 H 800.103 5.69766 5.22099 0
M  V30 8654 H 798.448 5.11936 4.7005 0
M  V30 8655 H 801.639 3.24523 3.37346 0
M  V30 8656 H 801.812 4.6711 4.49123 0
M  V30 8657 N 795.218 -1.23913 0.973828 0
M  V30 8658 C 796.629 -1.73992 0.677021 0
M  V30 8659 C 796.98 -1.78833 -0.807036 0
M  V30 8660 O 796.105 -1.42183 -1.63135 0
M  V30 8661 C 796.7 -3.15985 1.22226 0
M  V30 8662 C 795.259 -3.63547 0.975228 0
M  V30 8663 C 794.406 -2.42001 1.35392 0
M  V30 8664 H 797.357 -1.09529 1.14844 0
M  V30 8665 H 797.378 -3.75875 0.591489 0
M  V30 8666 H 796.89 -3.12429 2.30238 0
M  V30 8667 H 794.991 -3.72493 -0.0891047 0
M  V30 8668 H 795.104 -4.50693 1.62518 0
M  V30 8669 H 793.468 -2.42708 0.772334 0
M  V30 8670 H 794.251 -2.41122 2.44367 0
M  V30 8671 N 796.696 -0.74468 -1.38897 0
M  V30 8672 C 797.944 -0.296298 -1.99916 0
M  V30 8673 C 798.265 1.12325 -1.59399 0
M  V30 8674 O 797.535 1.76658 -0.846689 0
M  V30 8675 H 796.115 -0.106561 -0.73936 0
M  V30 8676 H 798.777 -0.956793 -1.69798 0
M  V30 8677 H 797.873 -0.352356 -3.10105 0
M  V30 8678 N 798.174 1.49689 -0.493057 0
M  V30 8679 C 799.399 2.07331 0.0535114 0
M  V30 8680 C 799.824 1.35196 1.30781 0
M  V30 8681 O 799.182 0.406246 1.7669 0
M  V30 8682 C 799.23 3.59364 0.29825 0
M  V30 8683 O 798.334 3.88819 1.37454 0
M  V30 8684 H 797.675 0.663612 -0.0227018 0
M  V30 8685 H 800.205 1.926 -0.690402 0
M  V30 8686 H 800.215 4.04515 0.532159 0
M  V30 8687 H 798.89 4.1128 -0.618207 0
M  V30 8688 H 797.467 3.55487 1.12621 0
M  V30 8689 N 799.652 0.226554 1.55963 0
M  V30 8690 C 800.602 -0.694986 2.1715 0
M  V30 8691 C 801.586 -1.15394 1.12129 0
M  V30 8692 O 802.778 -1.1071 1.38102 0
M  V30 8693 C 799.907 -1.9007 2.85882 0
M  V30 8694 C 798.993 -1.46119 3.98133 0
M  V30 8695 N 799.384 -0.734584 5.00437 0
M  V30 8696 C 797.682 -1.74809 4.10314 0
M  V30 8697 C 798.383 -0.509773 5.79462 0
M  V30 8698 N 797.359 -1.06796 5.33006 0
M  V30 8699 H 801.161 -0.131469 2.93606 0
M  V30 8700 H 798.675 0.0280165 1.62376 0
M  V30 8701 H 800.672 -2.57169 3.28131 0
M  V30 8702 H 799.332 -2.46864 2.10923 0
M  V30 8703 H 800.343 -0.386757 5.16454 0
M  V30 8704 H 797.02 -2.32887 3.46511 0
M  V30 8705 H 798.41 0.0688847 6.71865 0
M  V30 8706 N 801.13 -1.57531 -0.0467866 0
M  V30 8707 C 802.358 -1.92696 -0.753371 0
M  V30 8708 C 802.773 -0.824792 -1.69831 0
M  V30 8709 O 802.13 0.200155 -1.81399 0
M  V30 8710 C 802.181 -3.27728 -1.52566 0
M  V30 8711 O 801.902 -4.3371 -0.618674 0
M  V30 8712 C 803.403 -3.77066 -2.33101 0
M  V30 8713 H 800.623 -0.636367 -0.212788 0
M  V30 8714 H 803.167 -2.04498 -0.00959361 0
M  V30 8715 H 801.322 -3.17378 -2.22148 0
M  V30 8716 H 801.736 -5.11548 -1.15839 0
M  V30 8717 H 803.21 -4.74109 -2.82709 0
M  V30 8718 H 803.687 -3.07348 -3.13741 0
M  V30 8719 H 804.293 -3.90442 -1.68628 0
M  V30 8720 N 802.608 0.318715 -1.54344 0
M  V30 8721 C 803.857 1.05363 -1.71993 0
M  V30 8722 C 804.17 1.89018 -0.503155 0
M  V30 8723 O 805.376 2.65639 -0.561085 0
M  V30 8724 C 803.832 1.92281 -3.0423 0
M  V30 8725 C 803.44 1.13715 -4.33328 0
M  V30 8726 C 805.184 2.65479 -3.31242 0
M  V30 8727 C 803.091 1.99806 -5.56625 0
M  V30 8728 H 802.021 0.397081 -0.64097 0
M  V30 8729 H 804.672 0.311598 -1.80835 0
M  V30 8730 H 803.054 2.70402 -2.89307 0
M  V30 8731 H 804.228 0.403305 -4.59032 0
M  V30 8732 H 802.543 0.521769 -4.13118 0
M  V30 8733 H 805.14 3.30209 -4.20555 0
M  V30 8734 H 805.483 3.33374 -2.49334 0
M  V30 8735 H 806.016 1.94417 -3.47054 0
M  V30 8736 H 802.755 1.36411 -6.41149 0
M  V30 8737 H 802.275 2.70911 -5.35133 0
M  V30 8738 H 803.954 2.58277 -5.93213 0
M  V30 8739 N 804.086 1.46499 0.581025 0
M  V30 8740 C 804.996 1.59778 1.71779 0
M  V30 8741 C 806.012 0.481223 1.67213 0
M  V30 8742 O 807.188 0.74557 1.87091 0
M  V30 8743 C 804.253 1.58626 3.08283 0
M  V30 8744 C 803.314 2.81527 3.241 0
M  V30 8745 C 802.547 2.80421 4.54092 0
M  V30 8746 O 802.77 1.89262 5.38085 0
M  V30 8747 O 801.704 3.71984 4.73193 0
M  V30 8748 H 805.53 2.55918 1.63523 0
M  V30 8749 H 803.115 1.29311 0.748267 0
M  V30 8750 H 804.997 1.60686 3.89561 0
M  V30 8751 H 803.672 0.656467 3.16973 0
M  V30 8752 H 802.579 2.85021 2.42309 0
M  V30 8753 H 803.912 3.73721 3.20302 0
M  V30 8754 N 805.565 -0.825799 1.34232 0
M  V30 8755 C 806.812 -1.58185 1.26427 0
M  V30 8756 C 807.14 -1.93786 -0.166533 0
M  V30 8757 O 806.395 -1.59986 -1.12707 0
M  V30 8758 C 806.694 -2.89362 2.09772 0
M  V30 8759 C 806.36 -2.73066 3.58812 0
M  V30 8760 C 805.022 -2.68329 3.99441 0
M  V30 8761 C 807.374 -2.56946 4.53462 0
M  V30 8762 C 804.702 -2.4539 5.32917 0
M  V30 8763 C 807.054 -2.35538 5.87115 0
M  V30 8764 C 805.718 -2.29212 6.26912 0
M  V30 8765 H 804.988 -0.57884 0.462629 0
M  V30 8766 H 807.635 -0.955714 1.65947 0
M  V30 8767 H 805.94 -3.56251 1.63071 0
M  V30 8768 H 807.637 -3.4694 2.01081 0
M  V30 8769 H 804.227 -2.77591 3.26559 0
M  V30 8770 H 808.411 -2.59631 4.22972 0
M  V30 8771 H 803.667 -2.38947 5.62774 0
M  V30 8772 H 807.841 -2.22051 6.6005 0
M  V30 8773 H 805.468 -2.11197 7.30274 0
M  V30 8774 N 807.043 -1.17915 -1.04565 0
M  V30 8775 C 808.29 -0.971424 -1.77678 0
M  V30 8776 C 808.618 0.499401 -1.87979 0
M  V30 8777 O 807.873 1.38695 -1.38066 0
M  V30 8778 C 808.172 -1.56528 -3.213 0
M  V30 8779 C 807.838 -3.06138 -3.31044 0
M  V30 8780 C 806.5 -3.46974 -3.33411 0
M  V30 8781 C 808.852 -4.02151 -3.31548 0
M  V30 8782 C 806.18 -4.82406 -3.33918 0
M  V30 8783 C 808.532 -5.37492 -3.33595 0
M  V30 8784 C 807.196 -5.77782 -3.34251 0
M  V30 8785 H 806.466 -0.355469 -0.650171 0
M  V30 8786 H 809.113 -1.46902 -1.22849 0
M  V30 8787 H 807.418 -0.98955 -3.79098 0
M  V30 8788 H 809.115 -1.38003 -3.76505 0
M  V30 8789 H 805.705 -2.73589 -3.29919 0
M  V30 8790 H 809.889 -3.71656 -3.28916 0
M  V30 8791 H 805.145 -5.12927 -3.3274 0
M  V30 8792 H 809.319 -6.1166 -3.32934 0
M  V30 8793 H 806.946 -6.82702 -3.34397 0
M  V30 8794 N 808.521 1.23394 -0.980386 0
M  V30 8795 C 809.431 2.28561 -0.528864 0
M  V30 8796 C 810.447 1.68946 0.416329 0
M  V30 8797 O 811.623 1.99355 0.286251 0
M  V30 8798 C 808.688 3.46323 0.16155 0
M  V30 8799 C 807.749 4.21297 -0.825044 0
M  V30 8800 C 806.982 5.33437 -0.167483 0
M  V30 8801 O 807.205 5.60812 1.04146 0
M  V30 8802 O 806.139 5.95637 -0.866047 0
M  V30 8803 H 809.965 2.69326 -1.40346 0
M  V30 8804 H 807.55 1.29325 -0.748019 0
M  V30 8805 H 809.432 4.17811 0.548841 0
M  V30 8806 H 808.107 3.0751 1.01092 0
M  V30 8807 H 807.014 3.52134 -1.26303 0
M  V30 8808 H 808.347 4.6396 -1.64322 0
M  V30 8809 N 809.999 0.752036 1.385 0
M  V30 8810 C 810.932 0.0717411 2.28087 0
M  V30 8811 C 811.91 -0.729945 1.45295 0
M  V30 8812 O 813.094 -0.708902 1.74662 0
M  V30 8813 C 810.221 -0.905237 3.26379 0
M  V30 8814 C 809.267 -0.189973 4.26077 0
M  V30 8815 S 810.1 1.10815 5.23909 0
M  V30 8816 C 811.256 0.134202 6.25756 0
M  V30 8817 H 811.489 0.831438 2.85437 0
M  V30 8818 H 809.022 0.544552 1.44478 0
M  V30 8819 H 810.98 -1.46358 3.83523 0
M  V30 8820 H 809.641 -1.63789 2.68015 0
M  V30 8821 H 808.834 -0.92985 4.95348 0
M  V30 8822 H 808.436 0.296804 3.7282 0
M  V30 8823 H 810.728 -0.700345 6.7387 0
M  V30 8824 H 811.671 0.794532 7.03628 0
M  V30 8825 H 812.079 -0.245801 5.63965 0
M  V30 8826 N 811.477 -1.49425 0.500989 0
M  V30 8827 C 812.717 -2.04357 -0.0419004 0
M  V30 8828 C 813.081 -1.37236 -1.34277 0
M  V30 8829 O 814.282 -1.82889 -1.9699 0
M  V30 8830 C 812.553 -3.56889 -0.19112 0
M  V30 8831 S 814.112 -4.33369 -0.688259 0
M  V30 8832 H 810.93 -0.710998 -0.00177796 0
M  V30 8833 H 813.532 -1.83479 0.674953 0
M  V30 8834 H 812.236 -4.03283 0.760964 0
M  V30 8835 H 811.767 -3.82171 -0.933214 0
M  V30 8836 H 813.782 -4.55961 -1.9574 0
M  V30 8837 N 812.955 -0.234822 -1.55841 0
M  V30 8838 C 813.918 0.656378 -2.196 0
M  V30 8839 C 814.918 1.11179 -1.16171 0
M  V30 8840 O 816.108 1.01845 -1.41326 0
M  V30 8841 C 813.24 1.90072 -2.82993 0
M  V30 8842 H 814.433 0.100281 -2.99732 0
M  V30 8843 H 811.986 0.0147613 -1.56293 0
M  V30 8844 H 812.721 2.49836 -2.06767 0
M  V30 8845 H 812.506 1.5825 -3.58747 0
M  V30 8846 H 813.996 2.53538 -3.31826 0
M  V30 8847 N 814.433 1.57553 0.0384317 0
M  V30 8848 C 815.381 2.07021 1.06043 0
M  V30 8849 C 816.375 0.982078 1.38028 0
M  V30 8850 O 817.581 1.16702 1.37042 0
M  V30 8851 H 813.956 0.660522 0.359464 0
M  V30 8852 H 815.927 2.91944 0.617339 0
M  V30 8853 C 814.676 2.55734 2.35574 0
M  V30 8854 H 813.999 3.39074 2.11822 0
M  V30 8855 H 815.439 2.94066 3.05452 0
M  V30 8856 C 813.898 1.45449 3.03885 0
M  V30 8857 O 814.428 0.815402 3.93337 0
M  V30 8858 N 812.634 1.19134 2.65058 0
M  V30 8859 H 812.181 1.71288 1.92401 0
M  V30 8860 H 812.139 0.455554 3.11082 0
M  V30 8861 N 815.911 -0.310526 1.54511 0
M  V30 8862 C 816.841 -1.38757 1.878 0
M  V30 8863 C 817.822 -1.53353 0.735991 0
M  V30 8864 O 819.007 -1.67018 0.990887 0
M  V30 8865 C 816.137 -2.75327 2.11689 0
M  V30 8866 C 815.091 -2.75506 3.27537 0
M  V30 8867 C 814.417 -4.15275 3.36824 0
M  V30 8868 C 815.717 -2.38093 4.64875 0
M  V30 8869 H 817.411 -1.11146 2.78005 0
M  V30 8870 H 814.957 -0.533232 1.33763 0
M  V30 8871 H 816.91 -3.50752 2.33562 0
M  V30 8872 H 815.634 -3.04443 1.18245 0
M  V30 8873 H 814.293 -2.02538 3.05572 0
M  V30 8874 H 813.941 -4.41553 2.40915 0
M  V30 8875 H 813.641 -4.16299 4.14692 0
M  V30 8876 H 815.165 -4.92493 3.60947 0
M  V30 8877 H 816.579 -3.03232 4.86542 0
M  V30 8878 H 814.976 -2.50345 5.45387 0
M  V30 8879 H 816.046 -1.33227 4.66239 0
M  V30 8880 N 817.389 -1.46805 -0.573248 0
M  V30 8881 C 818.638 -1.51868 -1.32736 0
M  V30 8882 C 818.951 -0.178765 -1.94781 0
M  V30 8883 O 820.157 -0.107272 -2.71288 0
M  V30 8884 C 818.613 -2.67641 -2.40616 0
M  V30 8885 C 818.221 -4.08094 -1.84832 0
M  V30 8886 C 819.965 -2.81984 -3.17309 0
M  V30 8887 C 817.872 -5.15193 -2.90397 0
M  V30 8888 H 816.802 -0.56523 -0.49903 0
M  V30 8889 H 819.453 -1.7304 -0.610695 0
M  V30 8890 H 817.835 -2.39818 -3.15124 0
M  V30 8891 H 819.009 -4.45751 -1.16803 0
M  V30 8892 H 817.324 -3.985 -1.20775 0
M  V30 8893 H 819.921 -3.59166 -3.96111 0
M  V30 8894 H 820.264 -1.89842 -3.70494 0
M  V30 8895 H 820.797 -3.095 -2.4991 0
M  V30 8896 H 817.536 -6.09158 -2.42088 0
M  V30 8897 H 817.056 -4.82071 -3.56886 0
M  V30 8898 H 818.735 -5.41448 -3.54179 0
M  V30 8899 N 818.867 0.818669 -1.34668 0
M  V30 8900 C 819.814 1.92983 -1.26595 0
M  V30 8901 C 820.784 1.65506 -0.140315 0
M  V30 8902 O 821.969 1.88063 -0.322005 0
M  V30 8903 C 819.109 3.2932 -1.03163 0
M  V30 8904 C 818.222 3.69061 -2.24539 0
M  V30 8905 C 817.357 4.94368 -1.94355 0
M  V30 8906 C 816.396 5.26702 -3.11851 0
M  V30 8907 N 815.533 6.43187 -2.81522 0
M  V30 8908 H 820.373 1.99219 -2.2162 0
M  V30 8909 H 817.91 0.974612 -1.1018 0
M  V30 8910 H 819.868 4.07897 -0.87613 0
M  V30 8911 H 818.498 3.22584 -0.118045 0
M  V30 8912 H 817.55 2.85842 -2.50995 0
M  V30 8913 H 818.862 3.88924 -3.12313 0
M  V30 8914 H 818.016 5.80742 -1.75566 0
M  V30 8915 H 816.755 4.76515 -1.03848 0
M  V30 8916 H 815.76 4.38823 -3.31231 0
M  V30 8917 H 816.985 5.46492 -4.03142 0
M  V30 8918 H 814.931 6.26783 -1.93596 0
M  V30 8919 H 814.848 6.63243 -3.62829 0
M  V30 8920 H 816.116 7.32621 -2.66247 0
M  V30 8921 N 820.346 1.18468 1.03938 0
M  V30 8922 C 821.595 0.975193 1.76558 0
M  V30 8923 C 821.908 -0.495978 1.89207 0
M  V30 8924 O 823.114 -0.824009 2.58694 0
M  V30 8925 C 821.57 1.69579 3.17444 0
M  V30 8926 C 821.178 3.20636 3.12884 0
M  V30 8927 C 822.922 1.56917 3.94433 0
M  V30 8928 C 820.829 3.8533 4.48636 0
M  V30 8929 H 819.759 0.361244 0.66183 0
M  V30 8930 H 822.41 1.41854 1.16403 0
M  V30 8931 H 820.792 1.18022 3.78004 0
M  V30 8932 H 821.966 3.79228 2.61768 0
M  V30 8933 H 820.281 3.33454 2.49394 0
M  V30 8934 H 822.878 2.02611 4.94826 0
M  V30 8935 H 823.221 0.521638 4.13019 0
M  V30 8936 H 823.754 2.05762 3.40451 0
M  V30 8937 H 820.493 4.90136 4.35255 0
M  V30 8938 H 820.013 3.31526 4.99851 0
M  V30 8939 H 821.692 3.88269 5.17549 0
M  V30 8940 N 821.824 -1.22873 0.986916 0
M  V30 8941 C 822.754 -2.2688 0.552064 0
M  V30 8942 C 823.735 -1.64883 -0.418048 0
M  V30 8943 O 824.92 -1.9171 -0.30999 0
M  V30 8944 C 822.05 -3.47018 -0.139959 0
M  V30 8945 C 821.004 -4.21411 0.748091 0
M  V30 8946 C 820.33 -5.34645 -0.0765132 0
M  V30 8947 C 821.63 -4.80726 2.04206 0
M  V30 8948 H 823.324 -2.63507 1.42143 0
M  V30 8949 H 820.87 -1.26668 0.68492 0
M  V30 8950 H 822.823 -4.18931 -0.455527 0
M  V30 8951 H 821.547 -3.0947 -1.04382 0
M  V30 8952 H 820.206 -3.51325 1.04721 0
M  V30 8953 H 819.854 -4.93339 -0.981109 0
M  V30 8954 H 819.554 -5.85342 0.514606 0
M  V30 8955 H 821.078 -6.09377 -0.386313 0
M  V30 8956 H 822.492 -5.44612 1.79083 0
M  V30 8957 H 820.889 -5.41737 2.5815 0
M  V30 8958 H 821.959 -4.01109 2.72469 0
M  V30 8959 N 823.302 -0.75937 -1.38099 0
M  V30 8960 C 824.265 -0.14372 -2.28749 0
M  V30 8961 C 825.265 0.641338 -1.47457 0
M  V30 8962 O 826.455 0.466751 -1.67831 0
M  V30 8963 C 823.587 0.804545 -3.3127 0
M  V30 8964 H 824.78 -0.942663 -2.847 0
M  V30 8965 H 822.333 -0.526757 -1.47156 0
M  V30 8966 H 823.068 1.62895 -2.80421 0
M  V30 8967 H 822.853 0.243939 -3.9134 0
M  V30 8968 H 824.343 1.23111 -3.99041 0
M  V30 8969 N 824.78 1.49157 -0.508906 0
M  V30 8970 C 825.712 2.272 0.302115 0
M  V30 8971 C 826.725 1.3407 0.923529 0
M  V30 8972 O 827.914 1.5929 0.805532 0
M  V30 8973 C 825.014 3.06736 1.44105 0
M  V30 8974 C 824.187 4.27497 0.925477 0
M  V30 8975 C 823.246 4.89014 1.94297 0
M  V30 8976 O 822.272 5.48851 1.50834 0
M  V30 8977 N 823.474 4.7937 3.2739 0
M  V30 8978 H 826.239 2.97443 -0.367115 0
M  V30 8979 H 823.8 1.58248 -0.341933 0
M  V30 8980 H 825.792 3.44763 2.11944 0
M  V30 8981 H 824.362 2.3905 2.0143 0
M  V30 8982 H 823.582 3.94135 0.0717301 0
M  V30 8983 H 824.87 5.05714 0.55955 0
M  V30 8984 H 824.268 4.31869 3.65384 0
M  V30 8985 H 822.825 5.21559 3.90922 0
M  V30 8986 O 826.297 0.384829 1.56848 0
M  V30 8987 H 826.988 -0.161361 1.93027 0
M  V30 END ATOM
M  V30 BEGIN BOND
M  V30 END BOND
M  V30 END CTAB
M  END
$$$$
