drugbank_target|Q9F663 Carbapenem-hydrolyzing beta-lactamase KPC (DB09060; DB12107)
 OpenBabel12092121043D

  0  0  0     0  0            999 V3000
M  V30 BEGIN CTAB
M  V30 COUNTS 4382 4427 0 0 0
M  V30 BEGIN ATOM
M  V30 1 H -0.908 1.98254 -0.117106 0
M  V30 2 N 0 1.576 0 0
M  V30 3 C 0.933 2.03868 1.02534 0
M  V30 4 C 1.911 0.928543 1.3348 0
M  V30 5 O 3.095 1.19667 1.45644 0
M  V30 6 C 0.222 2.43627 2.35294 0
M  V30 7 C -0.732 3.65373 2.2001 0
M  V30 8 S 0.101 5.13292 1.52614 0
M  V30 9 C 1.257 5.56322 2.86805 0
M  V30 10 H 1.49 2.90518 0.631377 0
M  V30 11 H -0.977 1.52953 0.210867 0
M  V30 12 H 0.981 2.67203 3.11629 0
M  V30 13 H -0.358 1.57376 2.7183 0
M  V30 14 H -1.165 3.90944 3.18086 0
M  V30 15 H -1.563 3.418 1.51819 0
M  V30 16 H 0.729 5.58782 3.83104 0
M  V30 17 H 1.672 6.56266 2.65933 0
M  V30 18 H 2.08 4.83886 2.90714 0
M  V30 19 N 1.4781 -0.272755 1.55222 0
M  V30 20 C 2.7031 -1.02683 1.80197 0
M  V30 21 C 3.1281 -1.79142 0.573551 0
M  V30 22 O 2.4861 -1.74917 -0.476849 0
M  V30 23 C 2.5341 -1.9609 3.02624 0
M  V30 24 O 1.6381 -3.04863 2.77727 0
M  V30 25 H 0.9791 -0.293557 0.595584 0
M  V30 26 H 3.5091 -0.30159 2.02365 0
M  V30 27 H 3.5191 -2.38039 3.31363 0
M  V30 28 H 2.1941 -1.39851 3.91682 0
M  V30 29 H 0.7711 -2.67228 2.60084 0
M  V30 30 N 2.9562 -1.48159 -0.537278 0
M  V30 31 C 3.8862 -1.65029 -1.6519 0
M  V30 32 C 4.8672 -0.499281 -1.62607 0
M  V30 33 O 6.0522 -0.730972 -1.79918 0
M  V30 34 C 3.1822 -1.68303 -3.03795 0
M  V30 35 C 2.1362 -2.8283 -3.21234 0
M  V30 36 C 1.4622 -2.71189 -4.60826 0
M  V30 37 C 2.7622 -4.24211 -3.04701 0
M  V30 38 H 4.4562 -2.58341 -1.51328 0
M  V30 39 H 2.0022 -1.24325 -0.726585 0
M  V30 40 H 3.9552 -1.78693 -3.81637 0
M  V30 41 H 2.6792 -0.715635 -3.18663 0
M  V30 42 H 1.3382 -2.71983 -2.45807 0
M  V30 43 H 0.9862 -1.72435 -4.7252 0
M  V30 44 H 0.6862 -3.48035 -4.7344 0
M  V30 45 H 2.2102 -2.83537 -5.40777 0
M  V30 46 H 3.6242 -4.3593 -3.72341 0
M  V30 47 H 2.0212 -5.01998 -3.28813 0
M  V30 48 H 3.0912 -4.41184 -2.01209 0
M  V30 49 N 4.4343 0.785586 -1.36625 0
M  V30 50 C 5.6643 1.5722 -1.34036 0
M  V30 51 C 6.0723 1.89033 0.0795062 0
M  V30 52 O 5.4153 1.50881 1.04789 0
M  V30 53 C 5.4773 2.91759 -2.10041 0
M  V30 54 C 5.1413 2.82654 -3.59104 0
M  V30 55 C 6.1383 2.54634 -4.53274 0
M  V30 56 C 3.8233 3.01111 -4.02042 0
M  V30 57 C 5.8173 2.45177 -5.88359 0
M  V30 58 C 3.5043 2.91276 -5.37216 0
M  V30 59 C 4.5023 2.63348 -6.30188 0
M  V30 60 O 4.1903 2.53514 -7.6288 0
M  V30 61 H 3.9223 0.494177 -0.461265 0
M  V30 62 H 6.4763 0.982632 -1.8037 0
M  V30 63 H 4.7063 3.52781 -1.58375 0
M  V30 64 H 6.3953 3.53059 -2.00261 0
M  V30 65 H 7.1613 2.40073 -4.21414 0
M  V30 66 H 3.0403 3.21854 -3.30047 0
M  V30 67 H 6.5843 2.23299 -6.60896 0
M  V30 68 H 2.4813 3.054 -5.68684 0
M  V30 69 H 3.2493 2.68967 -7.73045 0
M  V30 70 N 5.9124 1.20967 1.01018 0
M  V30 71 C 7.3284 0.965905 1.27053 0
M  V30 72 C 7.5284 -0.350785 1.98423 0
M  V30 73 O 6.5844 -1.07773 2.28344 0
M  V30 74 C 7.8974 2.15294 2.09926 0
M  V30 75 C 9.4454 2.19463 2.23171 0
M  V30 76 C 9.9204 3.3767 3.09424 0
M  V30 77 N 11.4114 3.37724 3.17012 0
M  V30 78 C 12.1464 4.25837 3.83993 0
M  V30 79 N 11.6424 5.24138 4.53047 0
M  V30 80 N 13.4354 4.1366 3.80581 0
M  V30 81 H 5.5864 2.0565 0.531194 0
M  V30 82 H 7.8494 0.90024 0.297106 0
M  V30 83 H 7.5554 3.10684 1.64828 0
M  V30 84 H 7.4294 2.13923 3.10672 0
M  V30 85 H 9.8164 1.24632 2.6749 0
M  V30 86 H 9.8974 2.2488 1.21912 0
M  V30 87 H 9.5414 4.32791 2.65808 0
M  V30 88 H 9.4714 3.29491 4.10784 0
M  V30 89 H 11.9624 2.6658 2.6785 0
M  V30 90 H 12.2754 5.87684 5.01844 0
M  V30 91 H 10.6204 5.28068 4.5185 0
M  V30 92 H 13.8114 3.36127 3.25785 0
M  V30 93 H 13.9844 4.82538 4.32505 0
M  V30 94 N 7.3905 -1.2043 1.01659 0
M  V30 95 C 8.8065 -1.41852 0.731442 0
M  V30 96 C 9.0065 -1.89358 -0.688898 0
M  V30 97 O 8.0625 -2.06247 -1.45666 0
M  V30 98 C 9.3755 -2.44019 1.75714 0
M  V30 99 C 10.9235 -2.57785 1.77527 0
M  V30 100 C 11.3985 -3.63194 2.79023 0
M  V30 101 N 12.8895 -3.70678 2.77763 0
M  V30 102 C 13.6245 -4.51897 3.52954 0
M  V30 103 N 13.1205 -5.36921 4.37821 0
M  V30 104 N 14.9135 -4.4643 3.41551 0
M  V30 105 H 7.0645 -0.879093 1.93354 0
M  V30 106 H 9.3275 -0.448425 0.835236 0
M  V30 107 H 9.0335 -2.1611 2.77469 0
M  V30 108 H 8.9075 -3.43007 1.56927 0
M  V30 109 H 11.2945 -2.85023 0.764569 0
M  V30 110 H 11.3755 -1.58992 2.00387 0
M  V30 111 H 11.0195 -3.36699 3.80258 0
M  V30 112 H 10.9495 -4.61609 2.53425 0
M  V30 113 H 13.4405 -3.09944 2.16201 0
M  V30 114 H 13.7535 -5.95981 4.91962 0
M  V30 115 H 12.0985 -5.36424 4.41899 0
M  V30 116 H 15.2895 -3.79042 2.74672 0
M  V30 117 H 15.4625 -5.09491 4.00404 0
M  V30 118 N 8.8686 -0.792821 -1.36206 0
M  V30 119 C 9.7986 -0.207853 -2.32573 0
M  V30 120 C 10.7796 0.659055 -1.56813 0
M  V30 121 O 11.9646 0.592176 -1.84951 0
M  V30 122 C 9.0946 0.655449 -3.41059 0
M  V30 123 C 8.0486 -0.111842 -4.27854 0
M  V30 124 C 7.3746 0.872274 -5.27537 0
M  V30 125 C 8.6746 -1.30299 -5.05786 0
M  V30 126 H 10.3686 -1.01294 -2.81744 0
M  V30 127 H 7.9146 -0.48854 -1.3546 0
M  V30 128 H 9.8676 1.07464 -4.07467 0
M  V30 129 H 8.5916 1.49328 -2.90463 0
M  V30 130 H 7.2506 -0.512053 -3.63006 0
M  V30 131 H 6.8986 1.70523 -4.73214 0
M  V30 132 H 6.5986 0.363291 -5.86476 0
M  V30 133 H 8.1226 1.28996 -5.96818 0
M  V30 134 H 9.5366 -0.959379 -5.65216 0
M  V30 135 H 7.9336 -1.7455 -5.74154 0
M  V30 136 H 9.0036 -2.09663 -4.37229 0
M  V30 137 N 10.3467 1.47872 -0.545128 0
M  V30 138 C 11.5927 2.02793 -0.0166104 0
M  V30 139 C 11.9257 1.41987 1.32489 0
M  V30 140 O 11.2007 0.571045 1.85928 0
M  V30 141 C 11.4837 3.59989 0.0893294 0
M  V30 142 C 11.3367 4.3125 -1.27841 0
M  V30 143 C 12.6557 4.32606 0.808724 0
M  V30 144 H 9.7747 0.736962 -0.00751035 0
M  V30 145 H 12.4167 1.76433 -0.705085 0
M  V30 146 H 10.5667 3.82579 0.675681 0
M  V30 147 H 12.2387 4.20035 -1.90704 0
M  V30 148 H 10.4817 3.92076 -1.85632 0
M  V30 149 H 11.1527 5.39736 -1.15713 0
M  V30 150 H 13.6287 4.14936 0.310992 0
M  V30 151 H 12.5047 5.42251 0.851782 0
M  V30 152 H 12.7657 4.00963 1.86229 0
M  V30 153 N 11.8248 0.280983 1.55075 0
M  V30 154 C 12.7548 -0.597469 2.25727 0
M  V30 155 C 13.7358 -1.15417 1.24952 0
M  V30 156 O 14.9208 -1.18722 1.53684 0
M  V30 157 C 12.0508 -1.7789 2.98283 0
M  V30 158 C 11.0048 -1.35347 4.06036 0
M  V30 159 C 10.3308 -2.61846 4.66198 0
M  V30 160 C 11.6308 -0.499354 5.19907 0
M  V30 161 H 13.3248 -0.00824265 2.99399 0
M  V30 162 H 10.8708 -0.0025244 1.44 0
M  V30 163 H 12.8238 -2.39937 3.46422 0
M  V30 164 H 11.5478 -2.39405 2.22155 0
M  V30 165 H 10.2068 -0.756156 3.58717 0
M  V30 166 H 9.8548 -3.21632 3.86732 0
M  V30 167 H 9.5548 -2.3409 5.38958 0
M  V30 168 H 11.0788 -3.24732 5.1709 0
M  V30 169 H 12.4928 -1.02498 5.64063 0
M  V30 170 H 10.8898 -0.316424 5.99265 0
M  V30 171 H 11.9598 0.480459 4.82514 0
M  V30 172 N 13.3029 -1.57598 0.00835791 0
M  V30 173 C 14.2329 -2.1198 -0.979113 0
M  V30 174 C 15.2139 -1.03091 -1.35301 0
M  V30 175 O 16.3989 -1.30818 -1.43528 0
M  V30 176 C 13.5289 -2.62995 -2.26828 0
M  V30 177 C 12.4829 -3.76485 -2.03576 0
M  V30 178 C 11.8089 -4.13846 -3.38579 0
M  V30 179 C 13.1089 -5.0342 -1.39161 0
M  V30 180 H 14.8029 -2.94738 -0.526281 0
M  V30 181 H 12.3489 -1.41783 -0.251704 0
M  V30 182 H 14.3019 -2.99669 -2.96271 0
M  V30 183 H 13.0259 -1.7737 -2.7424 0
M  V30 184 H 11.6849 -3.40217 -1.36557 0
M  V30 185 H 11.3329 -3.25232 -3.83709 0
M  V30 186 H 11.0329 -4.90312 -3.23834 0
M  V30 187 H 12.5569 -4.53086 -4.09323 0
M  V30 188 H 13.9709 -5.37812 -1.98573 0
M  V30 189 H 12.3679 -5.84746 -1.34878 0
M  V30 190 H 13.4379 -4.83548 -0.361868 0
M  V30 191 N 14.781 0.264519 -1.55364 0
M  V30 192 C 16.006 1.01726 -1.80739 0
M  V30 193 C 16.431 1.78836 -0.583044 0
M  V30 194 O 15.789 1.75167 0.467566 0
M  V30 195 C 15.837 1.94482 -3.03659 0
M  V30 196 O 14.941 3.03386 -2.7934 0
M  V30 197 H 14.282 0.290395 -0.597132 0
M  V30 198 H 16.812 0.290854 -2.02522 0
M  V30 199 H 16.822 2.36278 -3.32621 0
M  V30 200 H 15.497 1.37772 -3.92418 0
M  V30 201 H 14.074 2.65844 -2.61498 0
M  V30 202 N 16.2591 1.48442 0.529413 0
M  V30 203 C 17.4991 1.58086 1.29569 0
M  V30 204 C 17.8631 0.249302 1.90375 0
M  V30 205 O 19.0641 0.220738 2.67892 0
M  V30 206 C 17.3351 2.68793 2.35552 0
M  V30 207 S 18.8941 2.98207 3.21898 0
M  V30 208 H 15.7121 0.557922 0.440732 0
M  V30 209 H 18.3141 1.85966 0.603059 0
M  V30 210 H 17.0181 3.64102 1.89363 0
M  V30 211 H 16.5491 2.42817 3.09522 0
M  V30 212 H 18.5641 2.37548 4.35644 0
M  V30 213 N 17.7372 -0.778329 1.37039 0
M  V30 214 C 18.6672 -1.90546 1.34962 0
M  V30 215 C 19.6482 -1.68681 0.219274 0
M  V30 216 O 20.8332 -1.89634 0.418624 0
M  V30 217 C 17.9632 -3.27734 1.14925 0
M  V30 218 C 16.9172 -3.64147 2.24902 0
M  V30 219 C 16.2432 -4.99806 1.89996 0
M  V30 220 C 17.5432 -3.71579 3.67051 0
M  V30 221 H 19.2372 -1.92541 2.29277 0
M  V30 222 H 16.7832 -0.924948 1.10366 0
M  V30 223 H 18.7362 -4.06215 1.12104 0
M  V30 224 H 17.4602 -3.26154 0.170631 0
M  V30 225 H 16.1192 -2.8797 2.26868 0
M  V30 226 H 15.7672 -4.94759 0.906796 0
M  V30 227 H 15.4672 -5.25139 2.63634 0
M  V30 228 H 16.9912 -5.80694 1.88749 0
M  V30 229 H 18.4052 -4.40227 3.67251 0
M  V30 230 H 16.8022 -4.08405 4.39688 0
M  V30 231 H 17.8722 -2.72404 4.01154 0
M  V30 232 N 19.2153 -1.21501 -1.00376 0
M  V30 233 C 20.4403 -1.05977 -1.78279 0
M  V30 234 C 20.8653 0.385994 -1.84097 0
M  V30 235 O 20.2233 1.27849 -1.28547 0
M  V30 236 C 20.2713 -1.66302 -3.19963 0
M  V30 237 O 19.3753 -0.909333 -4.0225 0
M  V30 238 H 18.7163 -0.372906 -0.549397 0
M  V30 239 H 21.2463 -1.6107 -1.26165 0
M  V30 240 H 21.2563 -1.70574 -3.70632 0
M  V30 241 H 19.9313 -2.71515 -3.15043 0
M  V30 242 H 18.5083 -0.941795 -3.60811 0
M  V30 243 N 20.6934 1.19889 -1.02296 0
M  V30 244 C 21.9394 1.89973 -0.726759 0
M  V30 245 C 22.2944 1.7776 0.73614 0
M  V30 246 O 21.5874 1.15523 1.52856 0
M  V30 247 C 21.7814 3.39883 -1.10518 0
M  V30 248 C 21.6104 3.66684 -2.60332 0
M  V30 249 C 20.3804 3.85045 -3.27213 0
M  V30 250 C 22.5784 3.68727 -3.58532 0
M  V30 251 N 20.5604 3.99422 -4.66192 0
M  V30 252 C 21.9314 3.88604 -4.83101 0
M  V30 253 C 23.9864 3.51722 -3.52414 0
M  V30 254 C 22.6894 3.9324 -6.02292 0
M  V30 255 C 24.7154 3.57632 -4.71013 0
M  V30 256 C 24.0774 3.77988 -5.94394 0
M  V30 257 H 20.1764 0.714551 -0.317712 0
M  V30 258 H 22.7604 1.44123 -1.30907 0
M  V30 259 H 20.9314 3.8447 -0.551142 0
M  V30 260 H 22.6634 3.97464 -0.761853 0
M  V30 261 H 19.4184 3.83689 -2.77632 0
M  V30 262 H 19.8424 4.10473 -5.38368 0
M  V30 263 H 24.4844 3.34945 -2.58015 0
M  V30 264 H 22.2024 4.08811 -6.97065 0
M  V30 265 H 25.7884 3.45773 -4.67902 0
M  V30 266 H 24.6684 3.82428 -6.8463 0
M  V30 267 N 22.1715 0.800033 1.35784 0
M  V30 268 C 23.5825 0.439142 1.81462 0
M  V30 269 C 23.9335 -1.03813 1.66485 0
M  V30 270 O 23.0585 -1.80626 1.19177 0
M  V30 271 C 23.6535 0.790314 3.29453 0
M  V30 272 C 22.2125 0.482111 3.733 0
M  V30 273 C 21.3595 1.01938 2.57883 0
M  V30 274 H 24.3105 0.992254 1.23855 0
M  V30 275 H 24.3315 0.0853677 3.80404 0
M  V30 276 H 23.8435 1.86554 3.40322 0
M  V30 277 H 21.9445 -0.584652 3.67984 0
M  V30 278 H 22.0575 1.01015 4.6833 0
M  V30 279 H 20.4215 0.442043 2.50835 0
M  V30 280 H 21.2045 2.10059 2.71533 0
M  V30 281 N 23.6496 -1.47581 0.552962 0
M  V30 282 C 24.5796 -2.32762 -0.185451 0
M  V30 283 C 25.5606 -1.43527 -0.912905 0
M  V30 284 O 26.7456 -1.72388 -0.894201 0
M  V30 285 C 23.8756 -3.25219 -1.21859 0
M  V30 286 C 22.8296 -4.23661 -0.607864 0
M  V30 287 C 22.1556 -5.05413 -1.74533 0
M  V30 288 C 23.4556 -5.20481 0.435582 0
M  V30 289 H 25.1496 -2.94749 0.525684 0
M  V30 290 H 22.6956 -1.41738 0.254251 0
M  V30 291 H 24.6486 -3.8365 -1.7433 0
M  V30 292 H 23.3726 -2.61279 -1.95961 0
M  V30 293 H 22.0316 -3.66451 -0.104489 0
M  V30 294 H 21.6796 -4.3788 -2.47529 0
M  V30 295 H 21.3796 -5.72059 -1.34249 0
M  V30 296 H 22.9036 -5.66701 -2.27338 0
M  V30 297 H 24.3176 -5.733 -0.00290157 0
M  V30 298 H 22.7146 -5.95305 0.757067 0
M  V30 299 H 23.7846 -4.66217 1.33303 0
M  V30 300 N 25.1277 -0.289203 -1.54924 0
M  V30 301 C 26.0907 0.579144 -2.21762 0
M  V30 302 C 27.0907 1.07047 -1.1999 0
M  V30 303 O 28.2807 0.968384 -1.44803 0
M  V30 304 C 25.4127 1.80055 -2.8947 0
M  V30 305 H 26.6057 -0.00464908 -2.999 0
M  V30 306 H 24.1587 -0.0399306 -1.56249 0
M  V30 307 H 24.8937 2.42449 -2.15381 0
M  V30 308 H 24.6787 1.45602 -3.64064 0
M  V30 309 H 26.1687 2.41773 -3.40493 0
M  V30 310 N 26.6058 1.57591 -0.0167156 0
M  V30 311 C 27.8538 1.90906 0.663285 0
M  V30 312 C 28.1748 0.892509 1.73376 0
M  V30 313 O 27.4448 -0.0677623 1.95783 0
M  V30 314 H 26.0248 0.704637 0.247983 0
M  V30 315 H 28.6868 1.94803 -0.0615909 0
M  V30 316 H 27.7828 2.9116 1.12393 0
M  V30 317 N 28.0839 -0.256276 1.55502 0
M  V30 318 C 29.3309 -0.985619 1.76895 0
M  V30 319 C 29.6589 -1.85671 0.579355 0
M  V30 320 O 28.9139 -1.90744 -0.437651 0
M  V30 321 C 29.2129 -1.88432 3.03691 0
M  V30 322 C 28.8789 -1.16936 4.35473 0
M  V30 323 C 27.5409 -0.97173 4.71286 0
M  V30 324 C 29.8929 -0.661889 5.1698 0
M  V30 325 C 27.2209 -0.254179 5.86149 0
M  V30 326 C 29.5729 0.042149 6.32586 0
M  V30 327 C 28.2369 0.25134 6.67027 0
M  V30 328 H 27.5069 -0.360663 0.647304 0
M  V30 329 H 30.1539 -0.256483 1.89775 0
M  V30 330 H 28.4589 -2.68021 2.85783 0
M  V30 331 H 30.1559 -2.45015 3.1744 0
M  V30 332 H 26.7459 -1.33332 4.07333 0
M  V30 333 H 30.9299 -0.802145 4.89775 0
M  V30 334 H 26.1859 -0.0815408 6.11346 0
M  V30 335 H 30.3599 0.443049 6.94989 0
M  V30 336 H 27.9869 0.809314 7.5588 0
M  V30 337 N 29.562 -1.4872 -0.521534 0
M  V30 338 C 30.787 -1.61101 -1.30618 0
M  V30 339 C 31.212 -0.274611 -1.86085 0
M  V30 340 O 30.57 0.754937 -1.64834 0
M  V30 341 C 30.618 -2.66709 -2.4269 0
M  V30 342 O 29.722 -2.24456 -3.45967 0
M  V30 343 H 29.063 -0.539921 -0.386499 0
M  V30 344 H 31.593 -1.94767 -0.626645 0
M  V30 345 H 31.603 -2.88245 -2.88754 0
M  V30 346 H 30.278 -3.63727 -2.01682 0
M  V30 347 H 28.855 -2.13168 -3.05964 0
M  V30 348 N 31.0401 0.771051 -1.3745 0
M  V30 349 C 32.0031 1.86598 -1.33093 0
M  V30 350 C 33.0031 1.59076 -0.234845 0
M  V30 351 O 34.1931 1.67145 -0.490732 0
M  V30 352 C 31.3251 3.23747 -1.06773 0
M  V30 353 H 32.5181 1.91873 -2.30488 0
M  V30 354 H 30.0711 0.970876 -1.2249 0
M  V30 355 H 30.8061 3.24148 -0.099129 0
M  V30 356 H 30.5911 3.45115 -1.86112 0
M  V30 357 H 32.0811 4.03824 -1.06377 0
M  V30 358 N 32.5182 1.22032 0.997298 0
M  V30 359 C 33.7462 1.06841 1.7718 0
M  V30 360 C 34.1612 -0.381325 1.84909 0
M  V30 361 O 33.5182 -1.26437 1.31605 0
M  V30 362 C 33.5692 1.66814 3.20711 0
M  V30 363 O 33.2902 3.06116 3.13408 0
M  V30 364 C 34.7912 1.56838 4.14628 0
M  V30 365 H 32.0112 0.374782 0.556578 0
M  V30 366 H 34.5552 1.61532 1.2541 0
M  V30 367 H 32.7102 1.16196 3.69564 0
M  V30 368 H 33.1242 3.34926 4.0364 0
M  V30 369 H 34.5982 2.03532 5.13107 0
M  V30 370 H 35.0752 0.524155 4.36061 0
M  V30 371 H 35.6812 2.06741 3.7167 0
M  V30 372 N 33.9963 -1.19345 1.0293 0
M  V30 373 C 34.9593 -2.20793 0.615069 0
M  V30 374 C 35.9593 -1.57553 -0.321533 0
M  V30 375 O 37.1493 -1.73862 -0.108483 0
M  V30 376 C 34.2813 -3.40754 -0.0999222 0
M  V30 377 H 35.4743 -2.58955 1.51269 0
M  V30 378 H 33.0273 -1.3303 0.820534 0
M  V30 379 H 33.7623 -3.0811 -1.01187 0
M  V30 380 H 33.5473 -3.87889 0.57309 0
M  V30 381 H 35.0373 -4.15898 -0.376645 0
M  V30 382 N 35.4744 -0.807222 -1.35358 0
M  V30 383 C 36.4044 -0.232509 -2.3234 0
M  V30 384 C 37.3854 0.642386 -1.57504 0
M  V30 385 O 38.5704 0.572526 -1.85569 0
M  V30 386 C 35.7004 0.619238 -3.41735 0
M  V30 387 C 34.6544 -0.157215 -4.27711 0
M  V30 388 C 33.9804 0.816273 -5.28433 0
M  V30 389 C 35.2804 -1.35656 -5.04376 0
M  V30 390 H 36.9744 -1.04276 -2.80654 0
M  V30 391 H 34.5204 -0.50288 -1.34934 0
M  V30 392 H 36.4734 1.03137 -4.08584 0
M  V30 393 H 35.1974 1.46239 -2.92031 0
M  V30 394 H 33.8564 -0.550525 -3.62443 0
M  V30 395 H 33.5044 1.65494 -4.74996 0
M  V30 396 H 33.2044 0.301067 -5.86828 0
M  V30 397 H 34.7284 1.22659 -5.98153 0
M  V30 398 H 36.1424 -1.01927 -5.64166 0
M  V30 399 H 34.5394 -1.8063 -5.7227 0
M  V30 400 H 35.6094 -2.14288 -4.34981 0
M  V30 401 N 36.9525 1.47285 -0.560781 0
M  V30 402 C 38.1805 2.06855 -0.0430262 0
M  V30 403 C 38.5955 1.41291 1.25229 0
M  V30 404 O 37.9525 0.510648 1.7521 0
M  V30 405 C 38.0035 3.61178 0.152518 0
M  V30 406 O 37.7245 4.24285 -1.0915 0
M  V30 407 C 39.2255 4.37624 0.707145 0
M  V30 408 H 36.4455 0.669319 -0.0474652 0
M  V30 409 H 38.9895 1.89237 -0.77521 0
M  V30 410 H 37.1445 3.78298 0.834843 0
M  V30 411 H 37.5585 5.16868 -0.891482 0
M  V30 412 H 39.0325 5.46271 0.793244 0
M  V30 413 H 39.5095 4.04152 1.71923 0
M  V30 414 H 40.1155 4.25257 0.0604027 0
M  V30 415 N 38.4306 0.297415 1.54768 0
M  V30 416 C 39.3786 -0.596051 2.24833 0
M  V30 417 C 40.3726 -1.13992 1.25308 0
M  V30 418 O 41.5786 -1.09098 1.4317 0
M  V30 419 H 37.9536 -0.210814 0.721846 0
M  V30 420 H 39.9246 0.0174667 2.98395 0
M  V30 421 C 38.6736 -1.75818 2.99972 0
M  V30 422 H 37.9966 -1.3489 3.76357 0
M  V30 423 H 39.4366 -2.35949 3.52284 0
M  V30 424 C 37.8956 -2.66014 2.06732 0
M  V30 425 O 38.4256 -3.67009 1.63302 0
M  V30 426 N 36.6316 -2.33669 1.72763 0
M  V30 427 H 36.1786 -1.51586 2.08277 0
M  V30 428 H 36.1366 -2.94285 1.10652 0
M  V30 429 N 39.9087 -1.5758 0.0250728 0
M  V30 430 C 40.8387 -2.13007 -0.956575 0
M  V30 431 C 41.8197 -1.0452 -1.342 0
M  V30 432 O 43.0047 -1.32332 -1.42133 0
M  V30 433 C 40.1347 -2.65386 -2.24026 0
M  V30 434 C 39.0887 -3.78623 -1.99571 0
M  V30 435 C 38.4147 -4.17414 -3.3417 0
M  V30 436 C 39.7147 -5.04867 -1.33814 0
M  V30 437 H 41.4087 -2.9528 -0.494991 0
M  V30 438 H 38.9547 -1.42042 -0.236651 0
M  V30 439 H 40.9077 -3.02794 -2.93076 0
M  V30 440 H 39.6317 -1.80268 -2.72343 0
M  V30 441 H 38.2907 -3.41646 -1.32941 0
M  V30 442 H 37.9387 -3.29284 -3.80238 0
M  V30 443 H 37.6387 -4.93719 -3.18615 0
M  V30 444 H 39.1627 -4.57402 -4.04495 0
M  V30 445 H 40.5767 -5.39888 -1.92857 0
M  V30 446 H 38.9737 -5.86144 -1.28669 0
M  V30 447 H 40.0437 -4.83904 -0.310561 0
M  V30 448 N 41.3868 0.248026 -1.55636 0
M  V30 449 C 42.6328 0.97767 -1.77678 0
M  V30 450 C 42.9658 1.85016 -0.590135 0
M  V30 451 O 42.2408 1.90095 0.411611 0
M  V30 452 C 42.5238 1.83914 -3.09593 0
M  V30 453 C 42.3768 0.99491 -4.38659 0
M  V30 454 C 43.6958 2.82183 -3.37729 0
M  V30 455 H 40.8148 0.354005 -0.646413 0
M  V30 456 H 43.4568 0.248253 -1.88371 0
M  V30 457 H 41.6068 2.46104 -3.00608 0
M  V30 458 H 43.2788 0.391789 -4.59633 0
M  V30 459 H 41.5218 0.299231 -4.32767 0
M  V30 460 H 42.1928 1.63145 -5.2734 0
M  V30 461 H 44.6688 2.30129 -3.4667 0
M  V30 462 H 43.5448 3.39582 -4.31249 0
M  V30 463 H 43.8058 3.58588 -2.58586 0
M  V30 464 N 42.8649 1.48995 0.513639 0
M  V30 465 C 43.8279 1.64229 1.59879 0
M  V30 466 C 44.8279 0.514696 1.5234 0
M  V30 467 O 46.0179 0.78087 1.55718 0
M  V30 468 C 43.1499 1.62783 2.99524 0
M  V30 469 H 44.3429 2.61004 1.47705 0
M  V30 470 H 41.8959 1.37837 0.736936 0
M  V30 471 H 42.6309 0.675461 3.17188 0
M  V30 472 H 42.4159 2.4466 3.06404 0
M  V30 473 H 43.9059 1.76669 3.78388 0
M  V30 474 N 44.343 -0.763751 1.37857 0
M  V30 475 C 45.253 -1.90817 1.36478 0
M  V30 476 C 46.269 -1.71997 0.263248 0
M  V30 477 O 47.445 -1.95095 0.499979 0
M  V30 478 C 44.51 -3.2605 1.17864 0
M  V30 479 C 43.571 -3.57467 2.3773 0
M  V30 480 C 42.804 -4.86249 2.19995 0
M  V30 481 O 43.027 -5.57884 1.18836 0
M  V30 482 O 41.961 -5.16911 3.08361 0
M  V30 483 H 45.787 -1.94933 2.32884 0
M  V30 484 H 43.372 -0.907619 1.1867 0
M  V30 485 H 45.254 -4.06924 1.09504 0
M  V30 486 H 43.929 -3.22769 0.245372 0
M  V30 487 H 42.836 -2.76796 2.51664 0
M  V30 488 H 44.169 -3.655 3.29652 0
M  V30 489 N 45.8211 -1.22559 -0.990812 0
M  V30 490 C 47.2321 -1.04791 -1.54518 0
M  V30 491 C 47.5831 0.387998 -1.92325 0
M  V30 492 O 46.7081 1.27328 -1.74976 0
M  V30 493 C 47.3031 -1.896 -2.80779 0
M  V30 494 C 45.8621 -1.76124 -3.32652 0
M  V30 495 C 45.0091 -1.8594 -2.05722 0
M  V30 496 H 47.9601 -1.36374 -0.811662 0
M  V30 497 H 47.9811 -1.41464 -3.53225 0
M  V30 498 H 47.4931 -2.94101 -2.53231 0
M  V30 499 H 45.5941 -0.743643 -3.65104 0
M  V30 500 H 45.7071 -2.58913 -4.03114 0
M  V30 501 H 44.0711 -1.29403 -2.19379 0
M  V30 502 H 44.8541 -2.91976 -1.80568 0
M  V30 503 N 47.2992 1.18797 -1.03562 0
M  V30 504 C 48.5462 1.8865 -0.736023 0
M  V30 505 C 48.8742 1.80041 0.735889 0
M  V30 506 O 48.1292 1.19179 1.55225 0
M  V30 507 C 48.4282 3.38692 -1.14117 0
M  V30 508 C 48.0942 3.67504 -2.6125 0
M  V30 509 C 46.7562 3.75078 -3.01447 0
M  V30 510 C 49.1082 3.80293 -3.56408 0
M  V30 511 C 46.4362 3.92915 -4.35701 0
M  V30 512 C 48.7882 3.99645 -4.90374 0
M  V30 513 C 47.4522 4.05453 -5.30249 0
M  V30 514 H 46.7222 0.690321 -0.26933 0
M  V30 515 H 49.3692 1.40641 -1.29971 0
M  V30 516 H 47.6742 3.88645 -0.496202 0
M  V30 517 H 49.3712 3.91072 -0.886789 0
M  V30 518 H 45.9612 3.62223 -2.29113 0
M  V30 519 H 50.1452 3.73779 -3.26501 0
M  V30 520 H 45.4012 3.95653 -4.66121 0
M  V30 521 H 49.5752 4.08482 -5.64017 0
M  V30 522 H 47.2022 4.19027 -6.34288 0
M  V30 523 N 48.7773 0.814389 1.34928 0
M  V30 524 C 49.7403 0.235759 2.27984 0
M  V30 525 C 50.7403 -0.581412 1.49921 0
M  V30 526 O 51.9303 -0.398758 1.69575 0
M  V30 527 C 49.0623 -0.670433 3.34242 0
M  V30 528 H 50.2553 1.05659 2.80671 0
M  V30 529 H 47.8083 0.585614 1.44915 0
M  V30 530 H 48.5433 -1.51466 2.86755 0
M  V30 531 H 48.3283 -0.0860822 3.92005 0
M  V30 532 H 49.8183 -1.06935 4.03676 0
M  V30 533 N 50.2554 -1.46986 0.568584 0
M  V30 534 C 51.2024 -2.30153 -0.172707 0
M  V30 535 C 52.1724 -1.39759 -0.897586 0
M  V30 536 O 53.3574 -1.68716 -0.891044 0
M  V30 537 C 50.4974 -3.23952 -1.1895 0
M  V30 538 C 49.6104 -4.29441 -0.469517 0
M  V30 539 C 48.7454 -5.1038 -1.47259 0
M  V30 540 C 47.7844 -6.07632 -0.738225 0
M  V30 541 N 46.9214 -6.8149 -1.68868 0
M  V30 542 H 51.7614 -2.93019 0.542596 0
M  V30 543 H 49.2984 -1.44422 0.279401 0
M  V30 544 H 51.2564 -3.76767 -1.79173 0
M  V30 545 H 49.8864 -2.62926 -1.87269 0
M  V30 546 H 48.9384 -3.79594 0.247467 0
M  V30 547 H 50.2504 -4.98689 0.105241 0
M  V30 548 H 49.4044 -5.67402 -2.14803 0
M  V30 549 H 48.1434 -4.4106 -2.08128 0
M  V30 550 H 47.1484 -5.49778 -0.0489293 0
M  V30 551 H 48.3734 -6.78966 -0.135129 0
M  V30 552 H 46.3194 -6.14891 -2.28573 0
M  V30 553 H 46.2364 -7.46948 -1.16636 0
M  V30 554 H 47.5044 -7.43078 -2.3549 0
M  V30 555 N 51.7335 -0.305618 -1.54608 0
M  V30 556 C 52.6635 0.561482 -2.26649 0
M  V30 557 C 53.6445 1.13415 -1.26772 0
M  V30 558 O 54.8295 1.16262 -1.55553 0
M  V30 559 C 51.9595 1.73122 -3.01075 0
M  V30 560 C 50.9135 1.2887 -4.08138 0
M  V30 561 C 50.2395 2.54396 -4.70305 0
M  V30 562 C 51.5395 0.416578 -5.20636 0
M  V30 563 H 53.2335 -0.0393902 -2.99374 0
M  V30 564 H 50.7795 -0.020385 -1.43986 0
M  V30 565 H 52.7325 2.34396 -3.50195 0
M  V30 566 H 51.4565 2.3584 -2.25936 0
M  V30 567 H 50.1155 0.698991 -3.59875 0
M  V30 568 H 49.7635 3.15439 -3.918 0
M  V30 569 H 49.4635 2.25486 -5.42614 0
M  V30 570 H 50.9875 3.16464 -5.2219 0
M  V30 571 H 52.4015 0.935116 -5.65622 0
M  V30 572 H 50.7985 0.221046 -5.99693 0
M  V30 573 H 51.8685 -0.557162 -4.81688 0
M  V30 574 N 53.2116 1.57565 -0.0334293 0
M  V30 575 C 54.1216 2.13943 0.962572 0
M  V30 576 C 55.1376 1.09276 1.35406 0
M  V30 577 O 56.3136 1.41355 1.4346 0
M  V30 578 C 53.3786 2.65887 2.22497 0
M  V30 579 C 52.4396 3.85286 1.8935 0
M  V30 580 C 51.6726 4.34743 3.09571 0
M  V30 581 O 51.8956 3.83352 4.22371 0
M  V30 582 O 50.8296 5.26538 2.91618 0
M  V30 583 H 54.6556 2.99333 0.513169 0
M  V30 584 H 52.2406 1.4822 0.18743 0
M  V30 585 H 54.1226 2.99346 2.96598 0
M  V30 586 H 52.7976 1.83578 2.6661 0
M  V30 587 H 51.7046 3.56746 1.1262 0
M  V30 588 H 53.0376 4.68771 1.5005 0
M  V30 589 N 54.6897 -0.239769 1.55765 0
M  V30 590 C 55.6217 -1.32001 1.87372 0
M  V30 591 C 56.6347 -1.43944 0.760522 0
M  V30 592 O 57.8237 -1.45167 1.0387 0
M  V30 593 C 54.9237 -2.69779 2.05115 0
M  V30 594 C 54.0967 -2.80014 3.36022 0
M  V30 595 C 53.1557 -3.98684 3.4342 0
M  V30 596 O 52.1817 -3.87877 4.16582 0
M  V30 597 N 53.3837 -5.12176 2.73232 0
M  V30 598 H 56.1487 -1.0522 2.80622 0
M  V30 599 H 53.7097 -0.429857 1.56089 0
M  V30 600 H 55.7017 -3.47517 2.07399 0
M  V30 601 H 54.2717 -2.89237 1.18577 0
M  V30 602 H 53.4917 -1.88896 3.45994 0
M  V30 603 H 54.7797 -2.83808 4.22292 0
M  V30 604 H 54.1777 -5.2385 2.13536 0
M  V30 605 H 52.7347 -5.88022 2.81199 0
M  V30 606 N 56.1678 -1.49265 -0.50573 0
M  V30 607 C 57.4448 -1.49012 -1.26707 0
M  V30 608 C 57.8248 -0.215205 -2.1 0
M  V30 609 O 57.1728 0.802547 -2.13943 0
M  V30 610 C 57.3828 -2.7663 -2.12783 0
M  V30 611 C 58.7308 -3.25932 -2.72127 0
M  V30 612 O 59.7548 -2.77715 -2.23054 0
M  V30 613 O 58.6138 -4.09897 -3.61451 0
M  V30 614 H 55.7078 -0.596197 -0.57313 0
M  V30 615 H 58.2538 -1.61524 -0.52039 0
M  V30 616 H 57.0258 -3.60916 -1.5118 0
M  V30 617 H 56.6488 -2.66956 -2.94653 0
M  V30 618 N 57.6459 0.756429 -1.3826 0
M  V30 619 C 58.8929 1.51547 -1.34312 0
M  V30 620 C 59.2209 1.94382 0.0677144 0
M  V30 621 O 58.4759 1.65514 1.04421 0
M  V30 622 C 58.7749 2.78313 -2.24224 0
M  V30 623 C 58.4409 2.54455 -3.72241 0
M  V30 624 C 57.1029 2.47657 -4.12576 0
M  V30 625 C 59.4549 2.3354 -4.65949 0
M  V30 626 C 56.7829 2.17956 -5.44713 0
M  V30 627 C 59.1349 2.05359 -5.9834 0
M  V30 628 C 57.7989 1.97016 -6.37762 0
M  V30 629 H 57.0689 0.55455 -0.491482 0
M  V30 630 H 59.7159 0.870039 -1.70595 0
M  V30 631 H 58.0209 3.47492 -1.80987 0
M  V30 632 H 59.7179 3.36259 -2.18474 0
M  V30 633 H 56.3079 2.60616 -3.40261 0
M  V30 634 H 60.4919 2.37772 -4.35635 0
M  V30 635 H 55.7479 2.10003 -5.74203 0
M  V30 636 H 59.9219 1.88179 -6.70494 0
M  V30 637 H 57.5489 1.73766 -7.40074 0
M  V30 638 N 59.124 1.23083 0.984299 0
M  V30 639 C 60.372 1.05848 1.72165 0
M  V30 640 C 60.693 -0.406049 1.90726 0
M  V30 641 O 59.963 -1.29139 1.47309 0
M  V30 642 H 58.543 0.388685 0.637913 0
M  V30 643 H 61.205 1.54736 1.18503 0
M  V30 644 H 60.301 1.54327 2.71274 0
M  V30 645 N 60.6021 -1.18246 1.0419 0
M  V30 646 C 61.8501 -1.87886 0.744543 0
M  V30 647 C 62.1711 -1.8082 -0.730006 0
M  V30 648 O 61.4411 -1.22736 -1.52685 0
M  V30 649 H 60.0211 -0.695556 0.272417 0
M  V30 650 H 62.6831 -1.43494 1.31892 0
M  V30 651 H 61.7791 -2.9389 1.05049 0
M  V30 652 N 62.0802 -0.821533 -1.34494 0
M  V30 653 C 63.3052 -0.420873 -2.03085 0
M  V30 654 C 63.7302 0.964915 -1.61465 0
M  V30 655 O 63.0882 1.62763 -0.798607 0
M  V30 656 C 63.1362 -0.529414 -3.56693 0
M  V30 657 O 62.2402 0.451302 -4.09923 0
M  V30 658 H 61.5812 -0.173489 -0.640935 0
M  V30 659 H 64.1112 -1.11157 -1.71771 0
M  V30 660 H 64.1212 -0.404671 -4.05988 0
M  V30 661 H 62.7962 -1.54014 -3.86332 0
M  V30 662 H 61.3732 0.285558 -3.71805 0
M  V30 663 N 63.5583 1.46682 -0.576371 0
M  V30 664 C 64.8073 2.01619 -0.0572825 0
M  V30 665 C 65.1203 1.45417 1.30818 0
M  V30 666 O 66.3263 1.92133 1.91825 0
M  V30 667 C 64.7823 3.59863 -0.0518371 0
M  V30 668 C 64.3903 4.25059 -1.41523 0
M  V30 669 C 66.1343 4.2248 0.413639 0
M  V30 670 C 64.0413 5.75364 -1.36785 0
M  V30 671 H 62.9713 0.753794 -0.0176448 0
M  V30 672 H 65.6223 1.68481 -0.727076 0
M  V30 673 H 64.0043 3.90048 0.683994 0
M  V30 674 H 65.1783 4.06491 -2.17029 0
M  V30 675 H 63.4933 3.7451 -1.8202 0
M  V30 676 H 66.0903 5.3265 0.467779 0
M  V30 677 H 66.4333 3.90976 1.42982 0
M  V30 678 H 66.9663 3.96897 -0.267929 0
M  V30 679 H 63.7053 6.11518 -2.36063 0
M  V30 680 H 63.2253 5.96214 -0.654895 0
M  V30 681 H 64.9043 6.37955 -1.07805 0
M  V30 682 N 65.0364 0.313813 1.54444 0
M  V30 683 C 66.2844 -0.291099 1.99993 0
M  V30 684 C 66.6054 -1.53418 1.20366 0
M  V30 685 O 65.8754 -1.93544 0.302927 0
M  V30 686 H 64.4554 -0.110552 0.738774 0
M  V30 687 H 67.1174 0.428106 1.9014 0
M  V30 688 H 66.2134 -0.554268 3.07139 0
M  V30 689 N 66.5145 -1.57545 0.0417849 0
M  V30 690 C 67.7605 -1.92601 -0.635021 0
M  V30 691 C 68.0935 -0.919627 -1.71045 0
M  V30 692 O 67.3685 0.0557892 -1.9442 0
M  V30 693 C 67.6515 -3.38085 -1.23979 0
M  V30 694 C 67.5045 -4.49467 -0.173057 0
M  V30 695 C 68.8235 -3.83776 -2.15416 0
M  V30 696 H 65.9425 -0.700397 -0.229374 0
M  V30 697 H 68.5845 -1.89728 0.101633 0
M  V30 698 H 66.7345 -3.40664 -1.86762 0
M  V30 699 H 68.4065 -4.59018 0.458312 0
M  V30 700 H 66.6495 -4.30909 0.499996 0
M  V30 701 H 67.3205 -5.48323 -0.636054 0
M  V30 702 H 69.7965 -3.83013 -1.62605 0
M  V30 703 H 68.6725 -4.8624 -2.54679 0
M  V30 704 H 68.9335 -3.19998 -3.05047 0
M  V30 705 N 67.9926 0.231505 -1.5589 0
M  V30 706 C 69.2226 0.973092 -1.82248 0
M  V30 707 C 69.6306 1.78845 -0.617328 0
M  V30 708 O 68.9736 1.78752 0.423499 0
M  V30 709 C 69.0356 1.94732 -3.02192 0
M  V30 710 C 68.6996 1.31743 -4.37599 0
M  V30 711 C 69.6966 0.712238 -5.14998 0
M  V30 712 C 67.3816 1.33218 -4.84312 0
M  V30 713 C 69.3756 0.130195 -6.37267 0
M  V30 714 C 67.0626 0.746286 -6.06526 0
M  V30 715 C 68.0606 0.146337 -6.82843 0
M  V30 716 O 67.7486 -0.430465 -8.02747 0
M  V30 717 H 67.4806 0.29125 -0.61004 0
M  V30 718 H 70.0346 0.254915 -2.03812 0
M  V30 719 H 68.2646 2.70422 -2.76422 0
M  V30 720 H 69.9536 2.55362 -3.15508 0
M  V30 721 H 70.7196 0.69324 -4.8002 0
M  V30 722 H 66.5986 1.78854 -4.24891 0
M  V30 723 H 70.1426 -0.33871 -6.96777 0
M  V30 724 H 66.0396 0.762663 -6.40979 0
M  V30 725 H 66.8076 -0.323818 -8.17859 0
M  V30 726 N 69.4707 1.49531 0.497807 0
M  V30 727 C 70.4337 1.65916 1.58128 0
M  V30 728 C 71.4337 0.530825 1.51786 0
M  V30 729 O 72.6237 0.797342 1.54881 0
M  V30 730 C 69.7557 1.65951 2.9778 0
M  V30 731 H 70.9487 2.62556 1.44929 0
M  V30 732 H 68.5017 1.38611 0.722275 0
M  V30 733 H 69.2367 0.709065 3.16453 0
M  V30 734 H 69.0217 2.47897 3.03792 0
M  V30 735 H 70.5117 1.80673 3.76493 0
M  V30 736 N 70.9488 -0.749086 1.3866 0
M  V30 737 C 71.8818 -1.87111 1.30631 0
M  V30 738 C 72.8598 -1.61572 0.18251 0
M  V30 739 O 74.0438 -1.85019 0.360592 0
M  V30 740 C 71.1708 -3.22815 1.02511 0
M  V30 741 C 70.2168 -3.67234 2.1689 0
M  V30 742 S 71.0498 -3.78245 3.79066 0
M  V30 743 C 72.2058 -5.16761 3.53142 0
M  V30 744 H 72.4388 -1.93636 2.25594 0
M  V30 745 H 69.9718 -0.912525 1.24549 0
M  V30 746 H 71.9298 -4.01181 0.869701 0
M  V30 747 H 70.5908 -3.13964 0.0925884 0
M  V30 748 H 69.7838 -4.65677 1.92771 0
M  V30 749 H 69.3858 -2.96034 2.28561 0
M  V30 750 H 71.6778 -6.02656 3.09534 0
M  V30 751 H 72.6208 -5.45902 4.50995 0
M  V30 752 H 73.0288 -4.85771 2.87554 0
M  V30 753 N 72.4269 -1.23603 -0.977757 0
M  V30 754 C 73.7039 -0.977897 -1.69401 0
M  V30 755 C 74.0839 0.502738 -2.05026 0
M  V30 756 O 73.4319 1.47459 -1.74551 0
M  V30 757 C 73.6419 -1.89077 -2.93345 0
M  V30 758 C 74.9899 -2.15579 -3.65802 0
M  V30 759 O 76.0139 -1.86648 -3.03383 0
M  V30 760 O 74.8729 -2.64658 -4.78141 0
M  V30 761 H 71.9669 -0.369025 -0.740101 0
M  V30 762 H 74.5129 -1.34657 -1.03274 0
M  V30 763 H 73.2849 -2.89158 -2.63634 0
M  V30 764 H 72.9079 -1.52463 -3.67207 0
M  V30 765 N 73.905 1.17692 -1.04816 0
M  V30 766 C 75.133 1.91786 -0.776254 0
M  V30 767 C 75.548 1.76604 0.667577 0
M  V30 768 O 74.905 1.10067 1.45573 0
M  V30 769 C 74.956 3.42967 -1.14263 0
M  V30 770 O 74.677 3.57678 -2.52978 0
M  V30 771 C 76.178 4.34144 -0.896311 0
M  V30 772 H 73.398 0.608624 -0.282519 0
M  V30 773 H 75.942 1.49268 -1.39783 0
M  V30 774 H 74.097 3.83245 -0.565874 0
M  V30 775 H 74.511 4.51319 -2.67229 0
M  V30 776 H 75.985 5.38744 -1.20244 0
M  V30 777 H 76.462 4.38876 0.168636 0
M  V30 778 H 77.068 3.99574 -1.45672 0
M  V30 779 N 75.3831 0.828654 1.34056 0
M  V30 780 C 76.6311 0.41863 1.97717 0
M  V30 781 C 76.9521 -1.02314 1.66002 0
M  V30 782 O 76.2221 -1.71119 0.953683 0
M  V30 783 H 74.8021 0.151809 0.731412 0
M  V30 784 H 77.4641 1.05936 1.63596 0
M  V30 785 H 76.5601 0.542318 3.07352 0
M  V30 786 N 76.8612 -1.46375 0.584142 0
M  V30 787 C 78.0862 -2.07268 0.0740405 0
M  V30 788 C 78.5112 -1.42979 -1.22223 0
M  V30 789 O 77.8692 -0.514092 -1.73859 0
M  V30 790 C 77.9172 -3.60518 -0.0767769 0
M  V30 791 O 77.0212 -3.96533 -1.13292 0
M  V30 792 H 76.3622 -0.660961 0.0634524 0
M  V30 793 H 78.8922 -1.87991 0.807492 0
M  V30 794 H 78.9022 -4.07021 -0.282489 0
M  V30 795 H 77.5772 -4.06702 0.86986 0
M  V30 796 H 76.1542 -3.61738 -0.905553 0
M  V30 797 N 78.3393 -0.321999 -1.54275 0
M  V30 798 C 79.5873 0.280489 -2.00144 0
M  V30 799 C 79.9083 1.52777 -1.21178 0
M  V30 800 O 79.1783 1.9338 -0.313187 0
M  V30 801 H 77.7583 0.106632 -0.73935 0
M  V30 802 H 80.4203 -0.438184 -1.8991 0
M  V30 803 H 79.5163 0.537972 -3.07428 0
M  V30 804 N 79.8174 1.5752 -0.0501392 0
M  V30 805 C 80.7804 2.1037 0.909786 0
M  V30 806 C 81.7804 1.02308 1.24056 0
M  V30 807 O 82.9704 1.28385 1.17741 0
M  V30 808 C 80.1024 2.58708 2.21998 0
M  V30 809 H 81.2954 2.96479 0.451665 0
M  V30 810 H 78.8484 1.55038 0.198248 0
M  V30 811 H 79.5834 1.75989 2.72394 0
M  V30 812 H 79.3684 3.37675 1.99295 0
M  V30 813 H 80.8584 2.99747 2.9076 0
M  V30 814 N 81.2955 -0.223234 1.56011 0
M  V30 815 C 82.5235 -0.964812 1.83027 0
M  V30 816 C 82.9385 -1.78013 0.62904 0
M  V30 817 O 82.2955 -1.78008 -0.402414 0
M  V30 818 C 82.3465 -1.88373 3.08542 0
M  V30 819 O 82.0675 -1.10137 4.2403 0
M  V30 820 C 83.5685 -2.73934 3.48533 0
M  V30 821 H 80.7885 -0.282842 0.608475 0
M  V30 822 H 83.3325 -0.238971 2.03099 0
M  V30 823 H 81.4875 -2.56354 2.9045 0
M  V30 824 H 81.9015 -1.72501 4.95322 0
M  V30 825 H 83.3755 -3.34117 4.39397 0
M  V30 826 H 83.8525 -3.46244 2.70207 0
M  V30 827 H 84.4585 -2.11369 3.69057 0
M  V30 828 N 82.7736 -1.49793 -0.48987 0
M  V30 829 C 84.0196 -1.60078 -1.24511 0
M  V30 830 C 84.3526 -0.291608 -1.91998 0
M  V30 831 O 83.6276 0.705647 -1.81248 0
M  V30 832 C 83.9106 -2.76791 -2.30345 0
M  V30 833 C 83.7636 -4.17535 -1.67286 0
M  V30 834 C 85.0826 -2.89111 -3.31817 0
M  V30 835 H 82.2016 -0.582645 -0.451324 0
M  V30 836 H 84.8436 -1.82117 -0.541612 0
M  V30 837 H 82.9936 -2.5813 -2.90346 0
M  V30 838 H 84.6656 -4.4774 -1.11026 0
M  V30 839 H 82.9086 -4.22665 -0.976577 0
M  V30 840 H 83.5796 -4.95094 -2.44103 0
M  V30 841 H 86.0556 -3.06133 -2.81819 0
M  V30 842 H 84.9316 -3.72433 -4.03219 0
M  V30 843 H 85.1926 -1.9893 -3.94815 0
M  V30 844 N 84.2517 0.741722 -1.39055 0
M  V30 845 C 85.4767 1.53607 -1.39354 0
M  V30 846 C 85.9017 1.88096 0.0116905 0
M  V30 847 O 85.2597 1.5143 0.996924 0
M  V30 848 C 85.3077 2.80441 -2.26682 0
M  V30 849 O 84.4117 3.76088 -1.69208 0
M  V30 850 H 83.7527 0.464142 -0.474835 0
M  V30 851 H 86.2827 0.915665 -1.82967 0
M  V30 852 H 86.2927 3.29246 -2.40959 0
M  V30 853 H 84.9677 2.5467 -3.2881 0
M  V30 854 H 83.5447 3.34833 -1.64138 0
M  V30 855 N 85.7298 1.2412 0.971189 0
M  V30 856 C 86.9598 1.10415 1.7462 0
M  V30 857 C 87.3678 -0.346462 1.86001 0
M  V30 858 O 86.7108 -1.25104 1.34517 0
M  V30 859 C 86.7728 1.66596 3.18568 0
M  V30 860 C 86.4368 3.15446 3.3067 0
M  V30 861 C 87.4338 4.12636 3.16271 0
M  V30 862 C 85.1188 3.55337 3.55022 0
M  V30 863 C 87.1128 5.47699 3.26044 0
M  V30 864 C 84.7998 4.90542 3.64434 0
M  V30 865 C 85.7978 5.86532 3.49956 0
M  V30 866 O 85.4858 7.19279 3.59017 0
M  V30 867 H 85.2178 0.386616 0.55453 0
M  V30 868 H 87.7718 1.64633 1.22821 0
M  V30 869 H 86.0018 1.06808 3.71657 0
M  V30 870 H 87.6908 1.48232 3.77865 0
M  V30 871 H 88.4568 3.8316 2.97344 0
M  V30 872 H 84.3358 2.8113 3.65359 0
M  V30 873 H 87.8798 6.22603 3.14661 0
M  V30 874 H 83.7768 5.19691 3.82873 0
M  V30 875 H 84.5448 7.27153 3.75754 0
M  V30 876 N 87.2079 -1.17134 1.05439 0
M  V30 877 C 88.6239 -1.39454 0.776201 0
M  V30 878 C 88.8239 -1.91454 -0.628307 0
M  V30 879 O 87.8799 -2.10777 -1.39031 0
M  V30 880 C 89.1929 -2.38305 1.83388 0
M  V30 881 C 90.7409 -2.52006 1.85639 0
M  V30 882 C 91.2159 -3.54133 2.90437 0
M  V30 883 N 92.7069 -3.61653 2.89415 0
M  V30 884 C 93.4419 -4.4044 3.67152 0
M  V30 885 N 92.9379 -5.22721 4.54681 0
M  V30 886 N 94.7309 -4.35337 3.55581 0
M  V30 887 H 86.8819 -0.817134 1.96053 0
M  V30 888 H 89.1449 -0.421626 0.849079 0
M  V30 889 H 88.8509 -2.07173 2.84204 0
M  V30 890 H 88.7249 -3.37841 1.67761 0
M  V30 891 H 91.1119 -2.82447 0.85486 0
M  V30 892 H 91.1929 -1.52537 2.05344 0
M  V30 893 H 90.8369 -3.24431 3.90777 0
M  V30 894 H 90.7669 -4.53313 2.67983 0
M  V30 895 H 93.2579 -3.02909 2.25952 0
M  V30 896 H 93.5709 -5.80027 5.10674 0
M  V30 897 H 91.9159 -5.22093 4.58741 0
M  V30 898 H 95.1069 -3.70112 2.86592 0
M  V30 899 H 95.2799 -4.96494 4.1641 0
M  V30 900 N 88.686 -0.835752 -1.33615 0
M  V30 901 C 89.649 -0.272 -2.2758 0
M  V30 902 C 90.649 0.557487 -1.50827 0
M  V30 903 O 91.839 0.37173 -1.70188 0
M  V30 904 C 88.971 0.617173 -3.35267 0
M  V30 905 H 90.164 -1.10111 -2.78954 0
M  V30 906 H 87.717 -0.608594 -1.43965 0
M  V30 907 H 88.452 1.46884 -2.89129 0
M  V30 908 H 88.237 0.0237066 -3.92093 0
M  V30 909 H 89.727 1.005 -4.05326 0
M  V30 910 N 90.1641 1.46063 -0.591896 0
M  V30 911 C 91.0741 2.34192 0.13831 0
M  V30 912 C 92.0901 1.50305 0.876608 0
M  V30 913 O 93.2661 1.8315 0.837728 0
M  V30 914 C 90.3311 3.27656 1.13326 0
M  V30 915 C 89.3921 4.27445 0.39863 0
M  V30 916 C 88.6251 5.16443 1.34618 0
M  V30 917 O 88.8481 5.08553 2.58321 0
M  V30 918 O 87.7821 5.95843 0.851768 0
M  V30 919 H 91.6081 2.98002 -0.58552 0
M  V30 920 H 89.1931 1.45188 -0.352239 0
M  V30 921 H 91.0751 3.85291 1.70671 0
M  V30 922 H 89.7501 2.6643 1.83839 0
M  V30 923 H 88.6571 3.73471 -0.216895 0
M  V30 924 H 89.9901 4.91482 -0.265709 0
M  V30 925 N 91.6422 0.330177 1.54103 0
M  V30 926 C 92.5522 -0.541534 2.28264 0
M  V30 927 C 93.5682 -1.12351 1.32866 0
M  V30 928 O 94.7442 -1.14206 1.65888 0
M  V30 929 C 91.8092 -1.68322 3.03098 0
M  V30 930 C 90.8702 -1.13238 4.14096 0
M  V30 931 C 90.1032 -2.21966 4.85352 0
M  V30 932 O 90.3262 -3.42437 4.56172 0
M  V30 933 O 89.2602 -1.87013 5.7211 0
M  V30 934 H 93.0862 0.060938 3.03639 0
M  V30 935 H 90.6712 0.09565 1.49093 0
M  V30 936 H 92.5532 -2.34777 3.49939 0
M  V30 937 H 91.2282 -2.27176 2.30593 0
M  V30 938 H 90.1352 -0.432736 3.71589 0
M  V30 939 H 91.4682 -0.588898 4.88664 0
M  V30 940 N 93.1203 -1.57491 0.0584922 0
M  V30 941 C 94.5363 -1.56792 -0.298091 0
M  V30 942 C 94.7363 -1.06679 -1.70944 0
M  V30 943 O 93.7923 -0.726672 -2.41818 0
M  V30 944 C 95.1053 -3.00461 -0.119879 0
M  V30 945 C 96.6533 -3.1242 -0.190428 0
M  V30 946 C 97.1283 -4.57982 -0.0406567 0
M  V30 947 N 98.6193 -4.63099 -0.0966958 0
M  V30 948 C 99.3543 -5.734 -0.00502943 0
M  V30 949 N 98.8503 -6.9266 0.139402 0
M  V30 950 N 100.643 -5.62067 -0.0611391 0
M  V30 951 H 92.7943 -1.88386 0.98105 0
M  V30 952 H 95.0573 -0.867865 0.381463 0
M  V30 953 H 94.7633 -3.41187 0.85349 0
M  V30 954 H 94.6373 -3.66843 -0.877833 0
M  V30 955 H 97.0243 -2.71589 -1.15427 0
M  V30 956 H 97.1053 -2.48702 0.598405 0
M  V30 957 H 96.7493 -4.995 0.919897 0
M  V30 958 H 96.6793 -5.19715 -0.848727 0
M  V30 959 H 99.1703 -3.77331 -0.207277 0
M  V30 960 H 99.4833 -7.72536 0.201855 0
M  V30 961 H 97.8283 -6.94781 0.174586 0
M  V30 962 H 101.019 -4.67782 -0.172583 0
M  V30 963 H 101.192 -6.47999 0.0137562 0
M  V30 964 N 94.5984 0.214957 -1.56127 0
M  V30 965 C 95.8454 0.938372 -1.79446 0
M  V30 966 C 96.1734 1.8407 -0.628378 0
M  V30 967 O 95.4284 1.91837 0.386925 0
M  V30 968 C 95.7274 1.80314 -3.0858 0
M  V30 969 C 95.3934 1.05349 -4.3842 0
M  V30 970 C 94.0554 0.846435 -4.73697 0
M  V30 971 C 96.4074 0.524588 -5.18553 0
M  V30 972 C 93.7354 0.098683 -5.86617 0
M  V30 973 C 96.0874 -0.209853 -6.32252 0
M  V30 974 C 94.7514 -0.428102 -6.66126 0
M  V30 975 H 94.0214 0.343375 -0.656639 0
M  V30 976 H 96.6684 0.206077 -1.90388 0
M  V30 977 H 94.9734 2.6035 -2.92789 0
M  V30 978 H 96.6704 2.36513 -3.23825 0
M  V30 979 H 93.2604 1.22486 -4.10725 0
M  V30 980 H 97.4444 0.672008 -4.91729 0
M  V30 981 H 92.7004 -0.0805753 -6.11347 0
M  V30 982 H 96.8744 -0.627157 -6.9357 0
M  V30 983 H 94.5014 -1.00944 -7.53468 0
M  V30 984 N 96.0765 1.50051 0.48192 0
M  V30 985 C 97.4875 1.5348 1.06305 0
M  V30 986 C 97.8385 0.331997 1.93371 0
M  V30 987 O 96.9635 -0.556256 2.09129 0
M  V30 988 C 97.5585 2.7813 1.93466 0
M  V30 989 C 96.1175 2.84275 2.46707 0
M  V30 990 C 95.2645 2.47637 1.24785 0
M  V30 991 H 98.2155 1.56472 0.264995 0
M  V30 992 H 98.2365 2.59372 2.78399 0
M  V30 993 H 97.7485 3.65654 1.30072 0
M  V30 994 H 95.8495 2.01077 3.13686 0
M  V30 995 H 95.9625 3.8691 2.82555 0
M  V30 996 H 94.3265 1.99835 1.57918 0
M  V30 997 H 95.1095 3.37457 0.630694 0
M  V30 998 N 97.5546 -0.734337 1.39446 0
M  V30 999 C 98.4846 -1.86155 1.40955 0
M  V30 1000 C 99.4656 -1.67898 0.272827 0
M  V30 1001 O 100.651 -1.88207 0.478743 0
M  V30 1002 C 97.7806 -3.23912 1.25294 0
M  V30 1003 C 96.7346 -3.56808 2.36373 0
M  V30 1004 C 96.0606 -4.93508 2.058 0
M  V30 1005 C 97.3606 -3.59713 3.78687 0
M  V30 1006 H 99.0546 -1.8515 2.35287 0
M  V30 1007 H 96.6006 -0.889367 1.13253 0
M  V30 1008 H 98.5536 -4.02443 1.2497 0
M  V30 1009 H 97.2776 -3.25446 0.274308 0
M  V30 1010 H 95.9366 -2.80606 2.35914 0
M  V30 1011 H 95.5846 -4.91623 1.06374 0
M  V30 1012 H 95.2846 -5.16486 2.80208 0
M  V30 1013 H 96.8086 -5.74396 2.07128 0
M  V30 1014 H 98.2226 -4.2832 3.81071 0
M  V30 1015 H 96.6196 -3.94209 4.52459 0
M  V30 1016 H 97.6896 -2.59504 4.09617 0
M  V30 1017 N 99.0327 -1.24633 -0.964593 0
M  V30 1018 C 100.273 -1.09981 -1.72289 0
M  V30 1019 C 100.637 0.354792 -1.88693 0
M  V30 1020 O 101.838 0.62289 -2.61483 0
M  V30 1021 C 100.109 -1.82262 -3.07434 0
M  V30 1022 S 101.668 -1.83379 -3.98645 0
M  V30 1023 H 98.4857 -0.393292 -0.59232 0
M  V30 1024 H 101.088 -1.58009 -1.15123 0
M  V30 1025 H 99.7917 -2.87206 -2.93157 0
M  V30 1026 H 99.3227 -1.3458 -3.69664 0
M  V30 1027 H 101.338 -0.903691 -4.87901 0
M  V30 1028 N 100.511 1.16574 -1.06058 0
M  V30 1029 C 101.736 1.91493 -0.796562 0
M  V30 1030 C 102.161 1.76773 0.642868 0
M  V30 1031 O 101.519 1.09142 1.44768 0
M  V30 1032 C 101.567 3.40293 -1.19303 0
M  V30 1033 O 100.671 4.11074 -0.330394 0
M  V30 1034 H 100.012 0.596678 -0.291326 0
M  V30 1035 H 102.542 1.47708 -1.41575 0
M  V30 1036 H 102.552 3.91057 -1.16356 0
M  V30 1037 H 101.227 3.50326 -2.24153 0
M  V30 1038 H 99.8038 3.70513 -0.421225 0
M  V30 1039 N 101.989 0.842826 1.3317 0
M  V30 1040 C 103.214 0.453129 2.02389 0
M  V30 1041 C 103.639 -0.939105 1.6298 0
M  V30 1042 O 102.997 -1.61472 0.8244 0
M  V30 1043 C 103.045 0.586094 3.55805 0
M  V30 1044 O 102.149 -0.386029 4.10589 0
M  V30 1045 H 101.49 0.183664 0.638094 0
M  V30 1046 H 104.02 1.13875 1.69981 0
M  V30 1047 H 104.03 0.469209 4.05293 0
M  V30 1048 H 102.705 1.6014 3.83833 0
M  V30 1049 H 101.282 -0.226371 3.72212 0
M  V30 1050 N 103.467 -1.45747 0.599634 0
M  V30 1051 C 104.714 -2.02292 0.0917284 0
M  V30 1052 C 105.042 -1.46906 -1.27472 0
M  V30 1053 O 104.297 -0.630652 -1.8526 0
M  V30 1054 C 104.596 -3.57399 -0.00602758 0
M  V30 1055 C 104.262 -4.31902 1.29503 0
M  V30 1056 C 102.924 -4.51974 1.65144 0
M  V30 1057 C 105.276 -4.74551 2.15525 0
M  V30 1058 C 102.604 -5.11949 2.86574 0
M  V30 1059 C 104.956 -5.35868 3.36196 0
M  V30 1060 C 103.62 -5.54165 3.72099 0
M  V30 1061 H 102.89 -0.740239 0.0335658 0
M  V30 1062 H 105.537 -1.7491 0.779661 0
M  V30 1063 H 103.842 -3.84014 -0.777183 0
M  V30 1064 H 105.539 -3.98846 -0.415038 0
M  V30 1065 H 102.129 -4.16588 1.00761 0
M  V30 1066 H 106.313 -4.58784 1.8929 0
M  V30 1067 H 101.569 -5.24305 3.14507 0
M  V30 1068 H 105.743 -5.6787 4.03109 0
M  V30 1069 H 103.37 -6.00406 4.6628 0
M  V30 1070 N 104.945 -0.338344 -1.53925 0
M  V30 1071 C 105.892 0.520845 -2.24846 0
M  V30 1072 C 106.862 1.09976 -1.24477 0
M  V30 1073 O 108.047 1.13735 -1.53196 0
M  V30 1074 C 105.187 1.6685 -3.02084 0
M  V30 1075 C 104.3 1.11739 -4.17299 0
M  V30 1076 C 103.435 2.23193 -4.82036 0
M  V30 1077 C 102.474 1.65407 -5.89328 0
M  V30 1078 N 101.611 2.70582 -6.47866 0
M  V30 1079 H 106.451 -0.0904881 -2.97863 0
M  V30 1080 H 103.988 -0.0564282 -1.46992 0
M  V30 1081 H 105.946 2.34407 -3.45122 0
M  V30 1082 H 104.576 2.2509 -2.31375 0
M  V30 1083 H 103.628 0.332919 -3.7894 0
M  V30 1084 H 104.94 0.654677 -4.94485 0
M  V30 1085 H 104.094 2.98626 -5.28117 0
M  V30 1086 H 102.833 2.72807 -4.04262 0
M  V30 1087 H 101.838 0.884779 -5.42634 0
M  V30 1088 H 103.063 1.16652 -6.69006 0
M  V30 1089 H 101.009 3.1946 -5.72959 0
M  V30 1090 H 100.926 2.28917 -7.20509 0
M  V30 1091 H 102.194 3.45799 -6.98601 0
M  V30 1092 N 106.423 1.57458 -0.0668435 0
M  V30 1093 C 107.671 1.92919 0.602214 0
M  V30 1094 C 107.992 0.947215 1.70449 0
M  V30 1095 O 107.262 -0.00544117 1.95899 0
M  V30 1096 H 105.842 0.71217 0.22544 0
M  V30 1097 H 108.504 1.94508 -0.123535 0
M  V30 1098 H 107.6 2.94589 1.03073 0
M  V30 1099 N 107.901 -0.206675 1.56239 0
M  V30 1100 C 109.148 -0.928842 1.79941 0
M  V30 1101 C 109.476 -1.83734 0.638131 0
M  V30 1102 O 108.731 -1.92039 -0.376746 0
M  V30 1103 C 109.03 -1.78675 3.09532 0
M  V30 1104 C 108.696 -1.03022 4.38973 0
M  V30 1105 C 107.358 -0.821302 4.74139 0
M  V30 1106 C 109.71 -0.497081 5.18824 0
M  V30 1107 C 107.038 -0.0675719 5.86661 0
M  V30 1108 C 109.39 0.24338 6.32132 0
M  V30 1109 C 108.054 0.463422 6.65889 0
M  V30 1110 H 107.324 -0.339887 0.658451 0
M  V30 1111 H 109.971 -0.195977 1.90495 0
M  V30 1112 H 108.276 -2.58794 2.94165 0
M  V30 1113 H 109.973 -2.34792 3.25075 0
M  V30 1114 H 106.563 -1.20306 4.11369 0
M  V30 1115 H 110.747 -0.645921 4.92079 0
M  V30 1116 H 106.003 0.112995 6.11296 0
M  V30 1117 H 110.177 0.66393 6.93228 0
M  V30 1118 H 107.804 1.04938 7.52922 0
M  V30 1119 N 109.379 -1.50304 -0.473955 0
M  V30 1120 C 110.309 -1.71886 -1.58042 0
M  V30 1121 C 111.29 -0.567799 -1.60344 0
M  V30 1122 O 112.475 -0.806623 -1.76656 0
M  V30 1123 C 109.605 -1.81036 -2.96384 0
M  V30 1124 C 108.559 -2.962 -3.08949 0
M  V30 1125 C 107.885 -2.9049 -4.48909 0
M  V30 1126 C 109.185 -4.36752 -2.86434 0
M  V30 1127 H 110.879 -2.64527 -1.40234 0
M  V30 1128 H 108.425 -1.27295 -0.673201 0
M  V30 1129 H 110.378 -1.94719 -3.73714 0
M  V30 1130 H 109.102 -0.850147 -3.15341 0
M  V30 1131 H 107.761 -2.82164 -2.3405 0
M  V30 1132 H 107.409 -1.92321 -4.64781 0
M  V30 1133 H 107.109 -3.67802 -4.58253 0
M  V30 1134 H 108.633 -3.06218 -5.28264 0
M  V30 1135 H 110.047 -4.5133 -3.53517 0
M  V30 1136 H 108.444 -5.15493 -3.07225 0
M  V30 1137 H 109.514 -4.49321 -1.82316 0
M  V30 1138 N 110.857 0.726932 -1.39834 0
M  V30 1139 C 111.82 1.82269 -1.38962 0
M  V30 1140 C 112.82 1.58248 -0.285334 0
M  V30 1141 O 114.01 1.65499 -0.54366 0
M  V30 1142 C 111.142 3.20186 -1.17019 0
M  V30 1143 H 112.335 1.84443 -2.36476 0
M  V30 1144 H 109.888 0.931416 -1.25516 0
M  V30 1145 H 110.623 3.23669 -0.202204 0
M  V30 1146 H 110.408 3.3902 -1.96998 0
M  V30 1147 H 111.898 4.00235 -1.1917 0
M  V30 1148 N 112.336 1.25143 0.95797 0
M  V30 1149 C 113.299 1.05321 2.03569 0
M  V30 1150 C 114.299 0.007152 1.60798 0
M  V30 1151 O 115.489 0.24903 1.72411 0
M  V30 1152 C 112.621 0.598394 3.35607 0
M  V30 1153 H 113.814 2.00986 2.22586 0
M  V30 1154 H 111.367 1.07502 1.13459 0
M  V30 1155 H 112.102 -0.361014 3.22284 0
M  V30 1156 H 111.887 1.35351 3.67998 0
M  V30 1157 H 113.377 0.48104 4.1482 0
M  V30 1158 N 113.814 -1.1601 1.06675 0
M  V30 1159 C 114.777 -2.18724 0.685001 0
M  V30 1160 C 115.777 -1.58496 -0.271246 0
M  V30 1161 O 116.967 -1.74119 -0.0531156 0
M  V30 1162 C 114.099 -3.40899 0.00853648 0
M  V30 1163 H 115.292 -2.54011 1.59431 0
M  V30 1164 H 112.845 -1.30352 0.862441 0
M  V30 1165 H 113.58 -3.11173 -0.913337 0
M  V30 1166 H 113.365 -3.8587 0.696204 0
M  V30 1167 H 114.855 -4.16886 -0.24414 0
M  V30 1168 N 115.292 -0.849877 -1.32721 0
M  V30 1169 C 116.538 -0.451591 -1.97708 0
M  V30 1170 C 116.871 0.989175 -1.6712 0
M  V30 1171 O 116.146 1.69334 -0.956891 0
M  V30 1172 C 116.429 -0.685598 -3.53513 0
M  V30 1173 C 116.282 -2.17444 -3.93749 0
M  V30 1174 C 117.601 -0.138874 -4.39881 0
M  V30 1175 H 114.72 -0.16555 -0.718166 0
M  V30 1176 H 117.362 -1.06742 -1.57182 0
M  V30 1177 H 115.512 -0.161416 -3.88165 0
M  V30 1178 H 117.184 -2.76433 -3.693 0
M  V30 1179 H 115.427 -2.65476 -3.43081 0
M  V30 1180 H 116.098 -2.28888 -5.02309 0
M  V30 1181 H 118.574 -0.587068 -4.11938 0
M  V30 1182 H 117.45 -0.332213 -5.47894 0
M  V30 1183 H 117.711 0.95806 -4.31594 0
M  V30 1184 N 116.77 1.45427 -0.607355 0
M  V30 1185 C 117.7 2.3329 0.0989352 0
M  V30 1186 C 118.681 1.46816 0.859007 0
M  V30 1187 O 119.866 1.75588 0.829604 0
M  V30 1188 C 116.996 3.29518 1.09705 0
M  V30 1189 C 115.95 4.25626 0.450206 0
M  V30 1190 C 115.276 5.11542 1.55655 0
M  V30 1191 C 116.576 5.18505 -0.628455 0
M  V30 1192 H 118.27 2.92595 -0.634716 0
M  V30 1193 H 115.816 1.40696 -0.306681 0
M  V30 1194 H 117.769 3.89855 1.59971 0
M  V30 1195 H 116.493 2.68372 1.86129 0
M  V30 1196 H 115.152 3.66586 -0.0315886 0
M  V30 1197 H 114.8 4.46765 2.31107 0
M  V30 1198 H 114.5 5.76647 1.12925 0
M  V30 1199 H 116.024 5.74748 2.06148 0
M  V30 1200 H 117.438 5.72916 -0.209877 0
M  V30 1201 H 115.835 5.92085 -0.977489 0
M  V30 1202 H 116.905 4.60948 -1.50514 0
M  V30 1203 N 118.248 0.346503 1.53744 0
M  V30 1204 C 119.211 -0.496439 2.23759 0
M  V30 1205 C 120.211 -1.0252 1.2388 0
M  V30 1206 O 121.401 -0.913974 1.48297 0
M  V30 1207 C 118.533 -1.69187 2.95954 0
M  V30 1208 H 119.726 0.115952 2.99676 0
M  V30 1209 H 117.279 0.0978939 1.55993 0
M  V30 1210 H 118.014 -2.34288 2.24231 0
M  V30 1211 H 117.799 -1.31989 3.69217 0
M  V30 1212 H 119.289 -2.28969 3.49232 0
M  V30 1213 N 119.726 -1.57421 0.075193 0
M  V30 1214 C 121.142 -1.57099 -0.281444 0
M  V30 1215 C 121.342 -1.08486 -1.69803 0
M  V30 1216 O 120.398 -0.752279 -2.41033 0
M  V30 1217 C 121.711 -3.00571 -0.0880041 0
M  V30 1218 C 123.259 -3.12605 -0.157281 0
M  V30 1219 C 123.734 -4.57999 0.0079207 0
M  V30 1220 N 125.225 -4.63176 -0.0475725 0
M  V30 1221 C 125.96 -5.73373 0.0557876 0
M  V30 1222 N 125.456 -6.92473 0.21286 0
M  V30 1223 N 127.249 -5.621 -0.00152098 0
M  V30 1224 H 119.4 -1.87335 1.00098 0
M  V30 1225 H 121.663 -0.86377 0.390646 0
M  V30 1226 H 121.369 -3.40262 0.889629 0
M  V30 1227 H 121.243 -3.67754 -0.838875 0
M  V30 1228 H 123.63 -2.72798 -1.1254 0
M  V30 1229 H 123.711 -2.48053 0.62475 0
M  V30 1230 H 123.355 -4.98496 0.972824 0
M  V30 1231 H 123.285 -5.20586 -0.793556 0
M  V30 1232 H 125.776 -3.7753 -0.167244 0
M  V30 1233 H 126.089 -7.72279 0.283781 0
M  V30 1234 H 124.434 -6.94556 0.248267 0
M  V30 1235 H 127.625 -4.67938 -0.122958 0
M  V30 1236 H 127.798 -6.47948 0.0824844 0
M  V30 1237 N 121.204 0.198386 -1.56346 0
M  V30 1238 C 122.429 0.939682 -1.84891 0
M  V30 1239 C 122.854 1.76202 -0.658369 0
M  V30 1240 O 122.212 1.76993 0.392851 0
M  V30 1241 C 122.26 1.81428 -3.11635 0
M  V30 1242 O 121.364 2.91265 -2.91956 0
M  V30 1243 H 120.705 0.264807 -0.608912 0
M  V30 1244 H 123.235 0.204695 -2.03573 0
M  V30 1245 H 123.245 2.21958 -3.42343 0
M  V30 1246 H 121.92 1.21004 -3.97908 0
M  V30 1247 H 120.497 2.54514 -2.72538 0
M  V30 1248 N 122.682 1.50554 0.465978 0
M  V30 1249 C 123.614 1.65949 1.58093 0
M  V30 1250 C 124.627 0.540827 1.53554 0
M  V30 1251 O 125.816 0.814187 1.5885 0
M  V30 1252 C 122.916 1.63261 2.96983 0
M  V30 1253 C 122.089 2.91245 3.26336 0
M  V30 1254 C 121.148 2.8113 4.44806 0
M  V30 1255 O 120.174 3.55086 4.44862 0
M  V30 1256 N 121.376 1.95032 5.46756 0
M  V30 1257 H 124.141 2.62122 1.45301 0
M  V30 1258 H 121.702 1.48082 0.65448 0
M  V30 1259 H 123.694 1.54101 3.74212 0
M  V30 1260 H 122.264 0.748032 3.03518 0
M  V30 1261 H 121.484 3.14493 2.37672 0
M  V30 1262 H 122.772 3.76022 3.42761 0
M  V30 1263 H 122.17 1.3427 5.49534 0
M  V30 1264 H 120.727 1.91772 6.2295 0
M  V30 1265 N 124.16 -0.719506 1.40217 0
M  V30 1266 C 125.092 -1.84428 1.36084 0
M  V30 1267 C 126.105 -1.60597 0.266913 0
M  V30 1268 O 127.294 -1.70544 0.526983 0
M  V30 1269 C 124.394 -3.20757 1.094 0
M  V30 1270 C 123.567 -3.71817 2.30372 0
M  V30 1271 C 122.626 -4.86748 1.99907 0
M  V30 1272 O 121.652 -4.99603 2.72737 0
M  V30 1273 N 122.854 -5.7226 0.974635 0
M  V30 1274 H 125.619 -1.88473 2.33019 0
M  V30 1275 H 123.18 -0.900885 1.3452 0
M  V30 1276 H 125.172 -3.95235 0.870116 0
M  V30 1277 H 123.742 -3.11884 0.211452 0
M  V30 1278 H 122.962 -2.88514 2.68614 0
M  V30 1279 H 124.25 -4.02666 3.11026 0
M  V30 1280 H 123.648 -5.6448 0.371368 0
M  V30 1281 H 122.205 -6.46739 0.810656 0
M  V30 1282 N 125.638 -1.25649 -0.95132 0
M  V30 1283 C 126.57 -1.02112 -2.05197 0
M  V30 1284 C 127.583 0.0150571 -1.62793 0
M  V30 1285 O 128.772 -0.223874 -1.77091 0
M  V30 1286 C 125.872 -0.522361 -3.3485 0
M  V30 1287 C 125.045 -1.62546 -4.06076 0
M  V30 1288 C 124.104 -1.12649 -5.14001 0
M  V30 1289 O 123.13 -1.82156 -5.39266 0
M  V30 1290 N 124.332 0.03047 -5.80492 0
M  V30 1291 H 127.097 -1.96885 -2.25957 0
M  V30 1292 H 124.658 -1.16899 -1.1201 0
M  V30 1293 H 126.65 -0.172961 -4.0433 0
M  V30 1294 H 125.22 0.33151 -3.10837 0
M  V30 1295 H 124.44 -2.14628 -3.30649 0
M  V30 1296 H 125.728 -2.36644 -4.50419 0
M  V30 1297 H 125.126 0.611169 -5.62389 0
M  V30 1298 H 123.683 0.320875 -6.5101 0
M  V30 1299 N 127.117 1.15442 -1.07289 0
M  V30 1300 C 128.08 2.18358 -0.696591 0
M  V30 1301 C 129.08 1.58637 0.262837 0
M  V30 1302 O 130.27 1.74145 0.0438809 0
M  V30 1303 C 127.402 3.4089 -0.0266151 0
M  V30 1304 H 128.595 2.53162 -1.60776 0
M  V30 1305 H 126.148 1.29893 -0.869342 0
M  V30 1306 H 126.883 3.11653 0.896822 0
M  V30 1307 H 126.668 3.85495 -0.716657 0
M  V30 1308 H 128.158 4.17009 0.222028 0
M  V30 1309 N 128.595 0.856903 1.32268 0
M  V30 1310 C 129.843 0.460474 1.96784 0
M  V30 1311 C 130.164 -0.987701 1.68135 0
M  V30 1312 O 129.434 -1.69058 0.989765 0
M  V30 1313 H 128.014 0.167289 0.728027 0
M  V30 1314 H 130.676 1.09383 1.61312 0
M  V30 1315 H 129.772 0.60739 3.06133 0
M  V30 1316 N 130.073 -1.45103 0.615059 0
M  V30 1317 C 131.003 -2.33339 -0.0865619 0
M  V30 1318 C 131.984 -1.4727 -0.851209 0
M  V30 1319 O 133.169 -1.76026 -0.820281 0
M  V30 1320 C 130.299 -3.30095 -1.07956 0
M  V30 1321 C 129.253 -4.25858 -0.427628 0
M  V30 1322 C 128.579 -5.12361 -1.5294 0
M  V30 1323 C 129.879 -5.18165 0.655944 0
M  V30 1324 H 131.573 -2.92254 0.650224 0
M  V30 1325 H 129.119 -1.40532 0.314138 0
M  V30 1326 H 131.072 -3.90698 -1.57901 0
M  V30 1327 H 129.796 -2.69355 -1.84703 0
M  V30 1328 H 128.455 -3.66564 0.0510292 0
M  V30 1329 H 128.103 -4.47984 -2.28734 0
M  V30 1330 H 127.803 -5.77238 -1.09865 0
M  V30 1331 H 129.327 -5.75833 -2.03098 0
M  V30 1332 H 130.741 -5.72796 0.240257 0
M  V30 1333 H 129.138 -5.91559 1.00888 0
M  V30 1334 H 130.208 -4.60144 1.52957 0
M  V30 1335 N 131.551 -0.354651 -1.53558 0
M  V30 1336 C 132.481 0.489091 -2.2832 0
M  V30 1337 C 133.462 1.09324 -1.30316 0
M  V30 1338 O 134.647 1.11255 -1.59173 0
M  V30 1339 C 131.777 1.63456 -3.0643 0
M  V30 1340 C 130.731 1.1582 -4.12031 0
M  V30 1341 C 130.057 2.39305 -4.7816 0
M  V30 1342 C 131.357 0.250731 -5.21698 0
M  V30 1343 H 133.051 -0.134614 -2.99097 0
M  V30 1344 H 130.597 -0.0661826 -1.43848 0
M  V30 1345 H 132.55 2.23136 -3.57475 0
M  V30 1346 H 131.274 2.28533 -2.33325 0
M  V30 1347 H 129.933 0.584146 -3.61916 0
M  V30 1348 H 129.581 3.02814 -4.01637 0
M  V30 1349 H 129.281 2.08109 -5.49513 0
M  V30 1350 H 130.805 2.99691 -5.31994 0
M  V30 1351 H 132.219 0.754695 -5.68311 0
M  V30 1352 H 130.616 0.0301468 -6.00092 0
M  V30 1353 H 131.686 -0.710125 -4.79672 0
M  V30 1354 N 133.029 1.57378 -0.0835403 0
M  V30 1355 C 134.306 1.85363 0.624507 0
M  V30 1356 C 134.686 0.978239 1.87066 0
M  V30 1357 O 134.034 0.0475908 2.2845 0
M  V30 1358 C 134.244 3.35795 0.950947 0
M  V30 1359 C 135.592 4.03581 1.31939 0
M  V30 1360 O 136.616 3.40609 1.04232 0
M  V30 1361 O 135.475 5.14672 1.83779 0
M  V30 1362 H 132.569 0.766162 0.311329 0
M  V30 1363 H 135.115 1.69307 -0.115362 0
M  V30 1364 H 133.887 3.91244 0.0663899 0
M  V30 1365 H 133.51 3.57154 1.74719 0
M  V30 1366 N 134.507 -0.190092 1.56449 0
M  V30 1367 C 135.735 -0.925772 1.85033 0
M  V30 1368 C 136.15 -1.76638 0.666658 0
M  V30 1369 O 135.507 -1.78822 -0.364565 0
M  V30 1370 C 135.558 -1.81786 3.12468 0
M  V30 1371 O 135.279 -1.01118 4.26271 0
M  V30 1372 C 136.78 -2.6648 3.54265 0
M  V30 1373 H 134 -0.269872 0.614337 0
M  V30 1374 H 136.544 -0.195837 2.0356 0
M  V30 1375 H 134.699 -2.50136 2.95822 0
M  V30 1376 H 135.113 -1.61956 4.98869 0
M  V30 1377 H 136.587 -3.24722 4.46385 0
M  V30 1378 H 137.064 -3.40434 2.77491 0
M  V30 1379 H 137.67 -2.03493 3.73458 0
M  V30 1380 N 135.985 -1.50799 -0.457987 0
M  V30 1381 C 137.396 -1.55152 -1.0385 0
M  V30 1382 C 137.747 -0.362719 -1.92818 0
M  V30 1383 O 136.872 0.522915 -2.09987 0
M  V30 1384 C 137.467 -2.81173 -1.89017 0
M  V30 1385 C 136.026 -2.88164 -2.42154 0
M  V30 1386 C 135.173 -2.49591 -1.20829 0
M  V30 1387 H 138.124 -1.56874 -0.240068 0
M  V30 1388 H 138.145 -2.63769 -2.74238 0
M  V30 1389 H 137.657 -3.67677 -1.24238 0
M  V30 1390 H 135.758 -2.06042 -3.10447 0
M  V30 1391 H 135.871 -3.91356 -2.76364 0
M  V30 1392 H 134.235 -2.02322 -1.54719 0
M  V30 1393 H 135.018 -3.38418 -0.576927 0
M  V30 1394 N 137.463 0.71206 -1.40597 0
M  V30 1395 C 138.712 1.46754 -1.38369 0
M  V30 1396 C 139.025 1.95598 0.0097839 0
M  V30 1397 O 140.231 2.71059 0.154677 0
M  V30 1398 C 138.687 2.65289 -2.43207 0
M  V30 1399 C 138.295 2.23301 -3.88382 0
M  V30 1400 C 140.039 3.43008 -2.50091 0
M  V30 1401 C 137.946 3.38696 -4.84808 0
M  V30 1402 H 136.876 0.55118 -0.514506 0
M  V30 1403 H 139.527 0.774616 -1.66349 0
M  V30 1404 H 137.909 3.36769 -2.08332 0
M  V30 1405 H 139.083 1.59218 -4.32419 0
M  V30 1406 H 137.398 1.58618 -3.85006 0
M  V30 1407 H 139.995 4.28881 -3.1932 0
M  V30 1408 H 140.338 3.87065 -1.53253 0
M  V30 1409 H 140.871 2.78574 -2.83974 0
M  V30 1410 H 137.61 2.99668 -5.82992 0
M  V30 1411 H 137.13 4.01683 -4.45433 0
M  V30 1412 H 138.809 4.04712 -5.04794 0
M  V30 1413 N 138.941 1.26152 0.944643 0
M  V30 1414 C 140.357 1.03189 1.21754 0
M  V30 1415 C 140.557 -0.245112 2.00004 0
M  V30 1416 O 139.613 -0.955176 2.33736 0
M  V30 1417 C 140.926 2.26119 1.98219 0
M  V30 1418 C 142.474 2.30984 2.11224 0
M  V30 1419 C 142.949 3.53597 2.91089 0
M  V30 1420 N 144.44 3.54053 2.98664 0
M  V30 1421 C 145.175 4.45593 3.60881 0
M  V30 1422 N 144.671 5.47416 4.24626 0
M  V30 1423 N 146.464 4.33252 3.58119 0
M  V30 1424 H 138.615 2.08177 0.421437 0
M  V30 1425 H 140.878 0.914723 0.248969 0
M  V30 1426 H 140.584 3.18984 1.48128 0
M  V30 1427 H 140.458 2.3009 2.98895 0
M  V30 1428 H 142.845 1.38635 2.60508 0
M  V30 1429 H 142.926 2.31026 1.09821 0
M  V30 1430 H 142.57 4.46273 2.42493 0
M  V30 1431 H 142.5 3.50802 3.92741 0
M  V30 1432 H 144.991 2.80403 2.53343 0
M  V30 1433 H 145.304 6.13459 4.69987 0
M  V30 1434 H 143.649 5.51278 4.23223 0
M  V30 1435 H 146.84 3.52924 3.0751 0
M  V30 1436 H 147.013 5.04786 4.06319 0
M  V30 1437 N 140.419 -1.14872 1.07899 0
M  V30 1438 C 141.649 -1.89386 0.825631 0
M  V30 1439 C 142.057 -1.78565 -0.625406 0
M  V30 1440 O 141.4 -1.13918 -1.44113 0
M  V30 1441 C 141.462 -3.40206 1.16191 0
M  V30 1442 C 141.126 -3.74812 2.61467 0
M  V30 1443 C 142.123 -3.75367 3.59716 0
M  V30 1444 C 139.808 -4.0495 2.97189 0
M  V30 1445 C 141.802 -4.05574 4.9172 0
M  V30 1446 C 139.489 -4.34821 4.29388 0
M  V30 1447 C 140.487 -4.35116 5.26463 0
M  V30 1448 O 140.175 -4.64267 6.56286 0
M  V30 1449 H 139.907 -0.606894 0.297751 0
M  V30 1450 H 142.461 -1.46438 1.44031 0
M  V30 1451 H 140.691 -3.8358 0.490214 0
M  V30 1452 H 142.38 -3.96018 0.890193 0
M  V30 1453 H 143.146 -3.52176 3.33462 0
M  V30 1454 H 139.025 -4.03876 2.22273 0
M  V30 1455 H 142.569 -4.05719 5.67484 0
M  V30 1456 H 138.466 -4.5748 4.55392 0
M  V30 1457 H 139.234 -4.82007 6.61522 0
M  V30 1458 N 141.898 -0.863906 -1.31812 0
M  V30 1459 C 143.146 -0.470904 -1.96537 0
M  V30 1460 C 143.467 0.978771 -1.68657 0
M  V30 1461 O 142.737 1.6853 -0.998717 0
M  V30 1462 H 141.317 -0.171148 -0.72713 0
M  V30 1463 H 143.979 -1.10236 -1.60729 0
M  V30 1464 H 143.075 -0.623616 -3.05806 0
M  V30 1465 N 143.376 1.44774 -0.622745 0
M  V30 1466 C 144.323 2.30635 0.0871679 0
M  V30 1467 C 145.293 1.42994 0.845097 0
M  V30 1468 O 146.478 1.71907 0.827812 0
M  V30 1469 C 143.618 3.28144 1.06844 0
M  V30 1470 C 142.731 4.30888 0.309809 0
M  V30 1471 C 141.866 5.15494 1.28215 0
M  V30 1472 C 140.905 6.09953 0.512198 0
M  V30 1473 N 140.042 6.87287 1.43458 0
M  V30 1474 H 144.882 2.90803 -0.650974 0
M  V30 1475 H 142.419 1.43286 -0.33281 0
M  V30 1476 H 144.377 3.83157 1.65066 0
M  V30 1477 H 143.007 2.69695 1.77382 0
M  V30 1478 H 142.059 3.78414 -0.388181 0
M  V30 1479 H 143.371 4.97955 -0.290254 0
M  V30 1480 H 142.525 5.74983 1.93596 0
M  V30 1481 H 141.264 4.48481 1.91614 0
M  V30 1482 H 140.269 5.49581 -0.155151 0
M  V30 1483 H 141.494 6.78999 -0.116958 0
M  V30 1484 H 139.44 6.2295 2.05594 0
M  V30 1485 H 139.357 7.50763 0.888335 0
M  V30 1486 H 140.625 7.51306 2.07749 0
M  V30 1487 N 144.854 0.36279 1.53368 0
M  V30 1488 C 145.802 -0.500155 2.27159 0
M  V30 1489 C 146.796 -1.08575 1.3003 0
M  V30 1490 O 148.002 -1.02927 1.47668 0
M  V30 1491 H 144.377 -0.180009 0.730138 0
M  V30 1492 H 146.348 0.14401 2.98052 0
M  V30 1493 C 145.097 -1.62937 3.07159 0
M  V30 1494 H 144.42 -1.18806 3.8174 0
M  V30 1495 H 145.86 -2.20795 3.61975 0
M  V30 1496 C 144.319 -2.57007 2.17829 0
M  V30 1497 O 144.849 -3.59752 1.78721 0
M  V30 1498 N 143.055 -2.26131 1.82518 0
M  V30 1499 H 142.602 -1.42616 2.14519 0
M  V30 1500 H 142.56 -2.89327 1.23034 0
M  V30 1501 N 146.332 -1.57332 0.0918853 0
M  V30 1502 C 147.295 -2.12708 -0.85369 0
M  V30 1503 C 148.295 -1.05561 -1.213 0
M  V30 1504 O 149.485 -1.31461 -1.14296 0
M  V30 1505 C 146.617 -2.64503 -2.15061 0
M  V30 1506 H 147.81 -2.97573 -0.3729 0
M  V30 1507 H 145.363 -1.55509 -0.157072 0
M  V30 1508 H 146.098 -1.83149 -2.67632 0
M  V30 1509 H 145.883 -3.4284 -1.90272 0
M  V30 1510 H 147.373 -3.07351 -2.82711 0
M  V30 1511 N 147.81 0.181792 -1.56548 0
M  V30 1512 C 148.74 1.22765 -1.98623 0
M  V30 1513 C 149.721 1.46747 -0.860189 0
M  V30 1514 O 150.906 1.58259 -1.12551 0
M  V30 1515 C 148.036 2.56894 -2.33715 0
M  V30 1516 C 146.99 2.475 -3.49182 0
M  V30 1517 C 146.316 3.86023 -3.69986 0
M  V30 1518 C 147.616 1.98866 -4.82959 0
M  V30 1519 H 149.31 0.877942 -2.86239 0
M  V30 1520 H 146.856 0.42088 -1.37712 0
M  V30 1521 H 148.809 3.30253 -2.61746 0
M  V30 1522 H 147.533 2.93632 -1.42997 0
M  V30 1523 H 146.192 1.76596 -3.21262 0
M  V30 1524 H 145.84 4.20136 -2.76576 0
M  V30 1525 H 145.54 3.80609 -4.47672 0
M  V30 1526 H 147.064 4.60984 -4.00407 0
M  V30 1527 H 148.478 2.61992 -5.09934 0
M  V30 1528 H 146.875 2.04424 -5.64208 0
M  V30 1529 H 147.945 0.942465 -4.75653 0
M  V30 1530 N 149.288 1.51039 0.449983 0
M  V30 1531 C 150.534 1.63322 1.20223 0
M  V30 1532 C 150.867 0.34241 1.91158 0
M  V30 1533 O 150.142 -0.657344 1.83055 0
M  V30 1534 C 150.425 2.82801 2.22925 0
M  V30 1535 C 150.278 4.21823 1.56157 0
M  V30 1536 C 151.597 2.97807 3.24035 0
M  V30 1537 H 148.716 0.594407 0.435718 0
M  V30 1538 H 151.358 1.83489 0.493136 0
M  V30 1539 H 149.508 2.65738 2.834 0
M  V30 1540 H 151.18 4.50526 0.991162 0
M  V30 1541 H 149.423 4.25105 0.864172 0
M  V30 1542 H 150.094 5.01391 2.30891 0
M  V30 1543 H 152.57 3.13497 2.73603 0
M  V30 1544 H 151.446 3.82992 3.93202 0
M  V30 1545 H 151.707 2.09328 3.89402 0
M  V30 1546 N 150.766 -0.704594 1.40972 0
M  V30 1547 C 152.177 -1.28418 1.3552 0
M  V30 1548 C 152.528 -1.96171 0.0339434 0
M  V30 1549 O 151.653 -1.98231 -0.867944 0
M  V30 1550 C 152.248 -2.33528 2.45459 0
M  V30 1551 C 150.807 -2.87085 2.43433 0
M  V30 1552 C 149.954 -1.61007 2.2577 0
M  V30 1553 H 152.905 -0.499963 1.50619 0
M  V30 1554 H 152.926 -3.14619 2.13998 0
M  V30 1555 H 152.438 -1.84187 3.41609 0
M  V30 1556 H 150.539 -3.40626 1.51013 0
M  V30 1557 H 150.652 -3.3813 3.39419 0
M  V30 1558 H 149.016 -1.86482 1.73483 0
M  V30 1559 H 149.799 -1.13675 3.23933 0
M  V30 1560 N 152.244 -1.26651 -0.937939 0
M  V30 1561 C 153.49 -1.13562 -1.68746 0
M  V30 1562 C 153.845 0.317241 -1.89767 0
M  V30 1563 O 153.138 1.22939 -1.46957 0
M  V30 1564 C 153.332 -1.84168 -3.06295 0
M  V30 1565 C 153.161 -3.36171 -2.98696 0
M  V30 1566 C 151.931 -4.05468 -3.01535 0
M  V30 1567 C 154.129 -4.32312 -2.78588 0
M  V30 1568 N 152.111 -5.44118 -2.84269 0
M  V30 1569 C 153.482 -5.58159 -2.69924 0
M  V30 1570 C 155.537 -4.22524 -2.63396 0
M  V30 1571 C 154.24 -6.75335 -2.47618 0
M  V30 1572 C 156.266 -5.39411 -2.42466 0
M  V30 1573 C 155.628 -6.64208 -2.34536 0
M  V30 1574 H 151.727 -0.470361 -0.624728 0
M  V30 1575 H 154.311 -1.59982 -1.10968 0
M  V30 1576 H 152.482 -1.40219 -3.62206 0
M  V30 1577 H 154.214 -1.63674 -3.70126 0
M  V30 1578 H 150.969 -3.56854 -3.11372 0
M  V30 1579 H 151.393 -6.1693 -2.78795 0
M  V30 1580 H 156.035 -3.26771 -2.68292 0
M  V30 1581 H 153.753 -7.71182 -2.41463 0
M  V30 1582 H 157.339 -5.33711 -2.31611 0
M  V30 1583 H 156.219 -7.53129 -2.18555 0
M  V30 1584 N 153.722 1.14298 -1.08507 0
M  V30 1585 C 154.947 1.8976 -0.837001 0
M  V30 1586 C 155.372 1.78097 0.605228 0
M  V30 1587 O 154.73 1.12188 1.4242 0
M  V30 1588 C 154.778 3.37685 -1.26495 0
M  V30 1589 O 153.882 4.10281 -0.417514 0
M  V30 1590 H 153.223 0.590365 -0.303917 0
M  V30 1591 H 155.753 1.44672 -1.44676 0
M  V30 1592 H 155.763 3.88501 -1.24625 0
M  V30 1593 H 154.438 3.45492 -2.31534 0
M  V30 1594 H 153.015 3.69536 -0.499722 0
M  V30 1595 N 155.201 0.870884 1.31352 0
M  V30 1596 C 156.612 0.534714 1.78879 0
M  V30 1597 C 156.963 -0.948423 1.71754 0
M  V30 1598 O 156.088 -1.74055 1.28584 0
M  V30 1599 C 156.683 0.963839 3.24801 0
M  V30 1600 C 155.242 0.679311 3.70219 0
M  V30 1601 C 154.389 1.15465 2.52117 0
M  V30 1602 H 157.34 1.05651 1.18421 0
M  V30 1603 H 157.361 0.286892 3.79417 0
M  V30 1604 H 156.873 2.04332 3.29955 0
M  V30 1605 H 154.974 -0.388769 3.70566 0
M  V30 1606 H 155.087 1.25698 4.62317 0
M  V30 1607 H 153.451 0.574383 2.48139 0
M  V30 1608 H 154.234 2.24157 2.60016 0
M  V30 1609 N 156.679 -1.44442 0.630414 0
M  V30 1610 C 157.928 -2.01267 0.132073 0
M  V30 1611 C 158.241 -1.50172 -1.25331 0
M  V30 1612 O 159.447 -1.9912 -1.84562 0
M  V30 1613 C 157.903 -3.59422 0.185362 0
M  V30 1614 C 157.511 -4.19514 1.57201 0
M  V30 1615 C 159.255 -4.23724 -0.256553 0
M  V30 1616 C 157.162 -5.69891 1.58045 0
M  V30 1617 H 156.092 -0.752619 0.0456092 0
M  V30 1618 H 158.743 -1.65666 0.789106 0
M  V30 1619 H 157.125 -3.92318 -0.538759 0
M  V30 1620 H 158.299 -3.98156 2.31966 0
M  V30 1621 H 156.614 -3.67496 1.95795 0
M  V30 1622 H 159.211 -5.34019 -0.269767 0
M  V30 1623 H 159.554 -3.96013 -1.28372 0
M  V30 1624 H 160.087 -3.95629 0.41505 0
M  V30 1625 H 156.826 -6.02336 2.58597 0
M  V30 1626 H 156.346 -5.93373 0.875725 0
M  V30 1627 H 158.025 -6.33515 1.31408 0
M  V30 1628 N 158.157 -0.370918 -1.53173 0
M  V30 1629 C 159.382 0.220293 -2.06227 0
M  V30 1630 C 159.807 1.41243 -1.24225 0
M  V30 1631 O 159.165 1.79387 -0.262645 0
M  V30 1632 C 159.213 0.586663 -3.55796 0
M  V30 1633 O 158.317 1.68317 -3.76488 0
M  V30 1634 H 157.658 0.0308099 -0.663285 0
M  V30 1635 H 160.188 -0.533068 -1.97534 0
M  V30 1636 H 160.198 0.85617 -3.98916 0
M  V30 1637 H 158.873 -0.285013 -4.14922 0
M  V30 1638 H 157.45 1.40881 -3.45264 0
M  V30 1639 N 159.635 1.57281 -0.100228 0
M  V30 1640 C 160.545 2.17833 0.870965 0
M  V30 1641 C 161.561 1.14921 1.30649 0
M  V30 1642 O 162.737 1.47313 1.37335 0
M  V30 1643 C 159.802 2.75085 2.1102 0
M  V30 1644 C 158.863 3.9297 1.72838 0
M  V30 1645 C 158.096 4.47482 2.90854 0
M  V30 1646 O 158.319 4.00922 4.05731 0
M  V30 1647 O 157.253 5.38433 2.69023 0
M  V30 1648 H 161.079 3.0124 0.38575 0
M  V30 1649 H 158.664 1.48881 0.124397 0
M  V30 1650 H 160.546 3.11656 2.83634 0
M  V30 1651 H 159.221 1.94721 2.58584 0
M  V30 1652 H 158.128 3.61201 0.973883 0
M  V30 1653 H 159.461 4.74713 1.30033 0
M  V30 1654 N 161.113 -0.173488 1.56642 0
M  V30 1655 C 162.06 -1.21482 1.96242 0
M  V30 1656 C 163.03 -1.44104 0.826027 0
M  V30 1657 O 164.215 -1.5688 1.08597 0
M  V30 1658 C 161.355 -2.54964 2.32567 0
M  V30 1659 C 160.468 -2.39739 3.59373 0
M  V30 1660 C 159.603 -3.66072 3.84921 0
M  V30 1661 C 158.642 -3.45771 5.05083 0
M  V30 1662 N 157.779 -4.64169 5.26775 0
M  V30 1663 H 162.619 -0.870123 2.85014 0
M  V30 1664 H 160.156 -0.418245 1.41029 0
M  V30 1665 H 162.114 -3.32758 2.5165 0
M  V30 1666 H 160.744 -2.87433 1.46908 0
M  V30 1667 H 159.796 -1.53131 3.48217 0
M  V30 1668 H 161.108 -2.20683 4.47326 0
M  V30 1669 H 160.262 -4.52303 4.0436 0
M  V30 1670 H 159.001 -3.88105 2.9534 0
M  V30 1671 H 158.006 -2.57927 4.85545 0
M  V30 1672 H 159.231 -3.25163 5.96193 0
M  V30 1673 H 157.177 -4.86425 4.40144 0
M  V30 1674 H 157.094 -4.48019 6.08946 0
M  V30 1675 H 158.362 -5.51689 5.5069 0
M  V30 1676 N 162.591 -1.51276 -0.441967 0
M  V30 1677 C 163.821 -1.67273 -1.21257 0
M  V30 1678 C 164.229 -0.367624 -1.85594 0
M  V30 1679 O 163.572 0.663349 -1.71305 0
M  V30 1680 C 163.634 -2.72807 -2.34129 0
M  V30 1681 C 163.298 -4.1554 -1.90198 0
M  V30 1682 C 164.295 -5.00471 -1.40801 0
M  V30 1683 C 161.98 -4.61616 -1.9803 0
M  V30 1684 C 163.974 -6.29536 -0.998174 0
M  V30 1685 C 161.661 -5.90679 -1.56658 0
M  V30 1686 C 162.659 -6.74466 -1.07633 0
M  V30 1687 O 162.347 -8.01116 -0.668459 0
M  V30 1688 H 162.079 -0.564614 -0.371734 0
M  V30 1689 H 164.633 -1.9843 -0.530521 0
M  V30 1690 H 162.863 -2.36954 -3.05597 0
M  V30 1691 H 164.552 -2.77729 -2.96009 0
M  V30 1692 H 165.318 -4.66079 -1.34148 0
M  V30 1693 H 161.197 -3.96526 -2.35135 0
M  V30 1694 H 164.741 -6.94885 -0.61482 0
M  V30 1695 H 160.638 -6.24586 -1.62979 0
M  V30 1696 H 161.406 -8.14633 -0.794722 0
M  V30 1697 N 164.069 0.697108 -1.41344 0
M  V30 1698 C 164.999 1.82353 -1.45841 0
M  V30 1699 C 165.98 1.67115 -0.317247 0
M  V30 1700 O 167.165 1.86871 -0.528474 0
M  V30 1701 C 164.295 3.20476 -1.33838 0
M  V30 1702 C 163.249 3.50415 -2.4575 0
M  V30 1703 C 162.575 4.87878 -2.18813 0
M  V30 1704 C 163.875 3.49546 -3.88091 0
M  V30 1705 H 165.569 1.78846 -2.40113 0
M  V30 1706 H 163.115 0.859028 -1.15571 0
M  V30 1707 H 165.068 3.98988 -1.35596 0
M  V30 1708 H 163.792 3.24604 -0.360498 0
M  V30 1709 H 162.451 2.74253 -2.43271 0
M  V30 1710 H 162.099 4.8863 -1.19371 0
M  V30 1711 H 161.799 5.08875 -2.93803 0
M  V30 1712 H 163.323 5.68702 -2.22284 0
M  V30 1713 H 164.737 4.18066 -3.92293 0
M  V30 1714 H 163.134 3.82075 -4.62751 0
M  V30 1715 H 164.204 2.48552 -4.16353 0
M  V30 1716 N 165.547 1.27147 0.931209 0
M  V30 1717 C 166.775 1.16082 1.71267 0
M  V30 1718 C 167.19 -0.282772 1.8667 0
M  V30 1719 O 166.547 -1.19283 1.38122 0
M  V30 1720 C 166.598 1.8358 3.11417 0
M  V30 1721 O 166.319 3.22299 2.96741 0
M  V30 1722 C 167.82 1.78597 4.05732 0
M  V30 1723 H 165.04 0.403758 0.535929 0
M  V30 1724 H 167.584 1.67953 1.16671 0
M  V30 1725 H 165.739 1.35623 3.62885 0
M  V30 1726 H 166.153 3.55851 3.85319 0
M  V30 1727 H 167.627 2.30444 5.01597 0
M  V30 1728 H 168.104 0.754564 4.3267 0
M  V30 1729 H 168.71 2.26152 3.60188 0
M  V30 1730 N 167.025 -1.13721 1.09112 0
M  V30 1731 C 168.253 -1.88773 0.846899 0
M  V30 1732 C 168.668 -1.7896 -0.601572 0
M  V30 1733 O 168.025 -1.15394 -1.41388 0
M  V30 1734 C 168.076 -3.3849 1.26913 0
M  V30 1735 O 167.797 -3.48043 2.66079 0
M  V30 1736 C 169.298 -4.30518 1.05682 0
M  V30 1737 H 166.518 -0.59772 0.304914 0
M  V30 1738 H 169.062 -1.43977 1.45227 0
M  V30 1739 H 167.217 -3.80881 0.707723 0
M  V30 1740 H 167.631 -4.4109 2.83795 0
M  V30 1741 H 169.105 -5.3391 1.40156 0
M  V30 1742 H 169.582 -4.392 -0.00563416 0
M  V30 1743 H 170.188 -3.93893 1.60402 0
M  V30 1744 N 168.503 -0.877838 -1.30888 0
M  V30 1745 C 169.751 -0.491723 -1.96027 0
M  V30 1746 C 170.072 0.960827 -1.69685 0
M  V30 1747 O 169.342 1.67462 -1.01654 0
M  V30 1748 H 167.922 -0.17885 -0.725273 0
M  V30 1749 H 170.584 -1.11935 -1.59551 0
M  V30 1750 H 169.68 -0.656016 -3.05128 0
M  V30 1751 N 169.982 1.44106 -0.638065 0
M  V30 1752 C 170.915 2.27924 0.112161 0
M  V30 1753 C 171.893 1.38945 0.844574 0
M  V30 1754 O 173.077 1.68386 0.847248 0
M  V30 1755 C 170.204 3.18029 1.16512 0
M  V30 1756 C 169.25 4.23163 0.532458 0
M  V30 1757 S 170.083 5.31131 -0.682666 0
M  V30 1758 C 171.239 6.24805 0.37013 0
M  V30 1759 H 171.472 2.91205 -0.598887 0
M  V30 1760 H 169.005 1.48394 -0.426441 0
M  V30 1761 H 170.963 3.70492 1.76766 0
M  V30 1762 H 169.624 2.53955 1.8484 0
M  V30 1763 H 168.817 4.86252 1.32571 0
M  V30 1764 H 168.419 3.74 0.00437644 0
M  V30 1765 H 170.711 6.66042 1.24071 0
M  V30 1766 H 171.654 7.07741 -0.225349 0
M  V30 1767 H 172.062 5.60154 0.699141 0
M  V30 1768 N 171.46 0.379036 1.52974 0
M  V30 1769 C 172.688 -0.20679 2.05864 0
M  V30 1770 C 173.103 -1.41356 1.25155 0
M  V30 1771 O 172.46 -1.8009 0.295588 0
M  V30 1772 C 172.511 -0.587045 3.56702 0
M  V30 1773 O 172.232 0.571776 4.34353 0
M  V30 1774 C 173.733 -1.22983 4.25899 0
M  V30 1775 H 170.953 -0.0336123 0.670158 0
M  V30 1776 H 173.497 0.541298 1.97206 0
M  V30 1777 H 171.652 -1.28504 3.65466 0
M  V30 1778 H 172.066 0.261544 5.23847 0
M  V30 1779 H 173.54 -1.44635 5.32715 0
M  V30 1780 H 174.017 -2.19416 3.80465 0
M  V30 1781 H 174.623 -0.572892 4.21424 0
M  V30 1782 N 172.938 -1.57226 0.108567 0
M  V30 1783 C 174.184 -1.95121 -0.552761 0
M  V30 1784 C 174.517 -0.991345 -1.66991 0
M  V30 1785 O 173.792 -0.0267211 -1.94482 0
M  V30 1786 C 174.075 -3.43039 -1.09528 0
M  V30 1787 C 173.928 -4.49797 0.0177332 0
M  V30 1788 C 175.247 -3.92567 -1.98945 0
M  V30 1789 H 172.366 -0.709496 -0.199461 0
M  V30 1790 H 175.008 -1.89126 0.182011 0
M  V30 1791 H 173.158 -3.48279 -1.72146 0
M  V30 1792 H 174.83 -4.56661 0.652584 0
M  V30 1793 H 173.073 -4.284 0.682309 0
M  V30 1794 H 173.744 -5.50528 -0.402919 0
M  V30 1795 H 176.22 -3.89565 -1.46214 0
M  V30 1796 H 175.096 -4.96605 -2.33827 0
M  V30 1797 H 175.357 -3.32648 -2.91201 0
M  V30 1798 N 174.416 0.165178 -1.56732 0
M  V30 1799 C 175.379 1.18822 -1.95995 0
M  V30 1800 C 176.379 1.3685 -0.84431 0
M  V30 1801 O 177.569 1.34152 -1.11126 0
M  V30 1802 C 174.701 2.5521 -2.26011 0
M  V30 1803 H 175.894 0.851825 -2.87548 0
M  V30 1804 H 173.447 0.407857 -1.50885 0
M  V30 1805 H 174.182 2.93852 -1.37191 0
M  V30 1806 H 173.967 2.43489 -3.07336 0
M  V30 1807 H 175.457 3.28927 -2.57288 0
M  V30 1808 N 175.894 1.51508 0.433938 0
M  V30 1809 C 176.804 1.75917 1.5521 0
M  V30 1810 C 177.82 0.643545 1.61662 0
M  V30 1811 O 178.996 0.926183 1.7884 0
M  V30 1812 C 176.061 1.88213 2.91164 0
M  V30 1813 C 175.122 3.12074 2.94802 0
M  V30 1814 C 174.355 3.23774 4.24271 0
M  V30 1815 O 174.578 2.4133 5.16833 0
M  V30 1816 O 173.512 4.16774 4.34262 0
M  V30 1817 H 177.338 2.70777 1.37527 0
M  V30 1818 H 174.923 1.36051 0.617293 0
M  V30 1819 H 176.805 1.98267 3.71845 0
M  V30 1820 H 175.48 0.965413 3.08968 0
M  V30 1821 H 174.387 3.07497 2.13065 0
M  V30 1822 H 175.72 4.03446 2.81943 0
M  V30 1823 N 177.372 -0.689602 1.41712 0
M  V30 1824 C 178.302 -1.81577 1.46806 0
M  V30 1825 C 179.283 -1.66945 0.326105 0
M  V30 1826 O 180.468 -1.86588 0.538377 0
M  V30 1827 C 177.598 -3.19762 1.35535 0
M  V30 1828 C 176.552 -3.49107 2.47605 0
M  V30 1829 C 175.878 -4.86711 2.21397 0
M  V30 1830 C 177.178 -3.47483 3.89939 0
M  V30 1831 H 178.872 -1.7757 2.41058 0
M  V30 1832 H 176.418 -0.852887 1.16025 0
M  V30 1833 H 178.371 -3.98263 1.3771 0
M  V30 1834 H 177.095 -3.24409 0.377708 0
M  V30 1835 H 175.754 -2.72959 2.44722 0
M  V30 1836 H 175.402 -4.8799 1.21961 0
M  V30 1837 H 175.102 -5.0731 2.96497 0
M  V30 1838 H 176.626 -5.67515 2.25297 0
M  V30 1839 H 178.04 -4.1598 3.94505 0
M  V30 1840 H 176.437 -3.79615 4.64771 0
M  V30 1841 H 177.507 -2.46341 4.17665 0
M  V30 1842 N 178.85 -1.27639 -0.924453 0
M  V30 1843 C 180.075 -1.17101 -1.71179 0
M  V30 1844 C 180.5 0.268134 -1.86179 0
M  V30 1845 O 179.858 1.19415 -1.36418 0
M  V30 1846 C 179.906 -1.86313 -3.08739 0
M  V30 1847 O 179.01 -1.16331 -3.95652 0
M  V30 1848 H 178.351 -0.407091 -0.524569 0
M  V30 1849 H 180.881 -1.68767 -1.15666 0
M  V30 1850 H 180.891 -1.938 -3.59034 0
M  V30 1851 H 179.566 -2.91001 -2.97138 0
M  V30 1852 H 178.143 -1.16935 -3.54091 0
M  V30 1853 N 180.328 1.1314 -1.09713 0
M  V30 1854 C 181.291 2.16831 -0.742751 0
M  V30 1855 C 182.291 1.59159 0.229129 0
M  V30 1856 O 183.481 1.74199 0.00693237 0
M  V30 1857 C 180.613 3.40756 -0.0989168 0
M  V30 1858 H 181.806 2.49695 -1.66109 0
M  V30 1859 H 179.359 1.2802 -0.896699 0
M  V30 1860 H 180.094 3.13485 0.830514 0
M  V30 1861 H 179.879 3.83888 -0.798265 0
M  V30 1862 H 181.369 4.17386 0.133524 0
M  V30 1863 N 181.806 0.884767 1.30421 0
M  V30 1864 C 182.769 0.356277 2.26414 0
M  V30 1865 C 183.769 -0.501124 1.52792 0
M  V30 1866 O 184.959 -0.30831 1.7145 0
M  V30 1867 C 182.091 -0.492316 3.37326 0
M  V30 1868 H 183.284 1.20389 2.74675 0
M  V30 1869 H 180.837 0.661607 1.41607 0
M  V30 1870 H 181.572 -1.36052 2.94381 0
M  V30 1871 H 181.357 0.121832 3.91911 0
M  V30 1872 H 182.847 -0.853871 4.08777 0
M  V30 1873 N 183.284 -1.43765 0.645699 0
M  V30 1874 C 184.247 -2.29163 -0.0409488 0
M  V30 1875 C 185.247 -1.41813 -0.757996 0
M  V30 1876 O 186.437 -1.63527 -0.600382 0
M  V30 1877 C 183.569 -3.23716 -1.06869 0
M  V30 1878 H 184.762 -2.91366 0.710345 0
M  V30 1879 H 182.315 -1.5092 0.406547 0
M  V30 1880 H 183.05 -2.66393 -1.84947 0
M  V30 1881 H 182.835 -3.88105 -0.558277 0
M  V30 1882 H 184.325 -3.87831 -1.54845 0
M  V30 1883 N 184.763 -0.387143 -1.52771 0
M  V30 1884 C 186.009 0.196025 -2.0185 0
M  V30 1885 C 186.342 1.46641 -1.27319 0
M  V30 1886 O 185.617 1.90889 -0.373032 0
M  V30 1887 C 185.9 0.466136 -3.5707 0
M  V30 1888 C 185.753 -0.819385 -4.42274 0
M  V30 1889 C 187.072 1.25768 -4.21747 0
M  V30 1890 H 184.191 0.0697708 -0.73369 0
M  V30 1891 H 186.833 -0.516286 -1.82851 0
M  V30 1892 H 184.983 1.07293 -3.7339 0
M  V30 1893 H 186.655 -1.4563 -4.37709 0
M  V30 1894 H 184.898 -1.43517 -4.09372 0
M  V30 1895 H 185.569 -0.585065 -5.48891 0
M  V30 1896 H 188.045 0.744167 -4.09391 0
M  V30 1897 H 186.921 1.41541 -5.30337 0
M  V30 1898 H 187.182 2.27228 -3.79236 0
M  V30 1899 N 186.241 1.57166 -0.116904 0
M  V30 1900 C 187.173 2.12271 0.864507 0
M  V30 1901 C 188.186 1.06494 1.23138 0
M  V30 1902 O 189.375 1.33873 1.18069 0
M  V30 1903 C 186.475 2.60564 2.16702 0
M  V30 1904 C 185.648 3.90416 1.97216 0
M  V30 1905 C 184.707 4.24329 3.11178 0
M  V30 1906 O 183.733 4.93182 2.84184 0
M  V30 1907 N 184.935 3.8148 4.37554 0
M  V30 1908 H 187.7 2.97102 0.393726 0
M  V30 1909 H 185.261 1.61759 0.0675805 0
M  V30 1910 H 187.253 2.80282 2.91932 0
M  V30 1911 H 185.823 1.80623 2.55135 0
M  V30 1912 H 185.043 3.79627 1.06192 0
M  V30 1913 H 186.331 4.75327 1.81499 0
M  V30 1914 H 185.729 3.25943 4.62361 0
M  V30 1915 H 184.286 4.06311 5.09661 0
M  V30 1916 N 187.719 -0.156864 1.56817 0
M  V30 1917 C 188.949 -0.885031 1.86684 0
M  V30 1918 C 189.357 -1.75696 0.701954 0
M  V30 1919 O 188.7 -1.80569 -0.337732 0
M  V30 1920 C 188.762 -1.80092 3.11138 0
M  V30 1921 C 188.426 -1.10714 4.43386 0
M  V30 1922 C 189.423 -0.465714 5.1781 0
M  V30 1923 C 187.108 -1.09959 4.90117 0
M  V30 1924 C 189.102 0.174002 6.37162 0
M  V30 1925 C 186.789 -0.456055 6.09396 0
M  V30 1926 C 187.787 0.179622 6.82764 0
M  V30 1927 O 187.475 0.812975 7.99779 0
M  V30 1928 H 187.207 -0.261813 0.623242 0
M  V30 1929 H 189.761 -0.157383 2.04796 0
M  V30 1930 H 187.991 -2.56926 2.89009 0
M  V30 1931 H 189.68 -2.40018 3.27332 0
M  V30 1932 H 190.446 -0.463427 4.82781 0
M  V30 1933 H 186.325 -1.58378 4.3294 0
M  V30 1934 H 189.869 0.670765 6.94368 0
M  V30 1935 H 185.766 -0.455975 6.43888 0
M  V30 1936 H 186.534 0.71366 8.15383 0
M  V30 1937 N 189.197 -1.51736 -0.425897 0
M  V30 1938 C 190.422 -1.69082 -1.20108 0
M  V30 1939 C 190.847 -0.392398 -1.83962 0
M  V30 1940 O 190.205 0.64858 -1.69302 0
M  V30 1941 C 190.253 -2.81604 -2.25237 0
M  V30 1942 O 189.357 -2.46004 -3.30992 0
M  V30 1943 H 188.698 -0.563408 -0.35138 0
M  V30 1944 H 191.228 -1.98358 -0.501512 0
M  V30 1945 H 191.238 -3.06025 -2.69838 0
M  V30 1946 H 189.913 -3.75817 -1.78142 0
M  V30 1947 H 188.49 -2.32195 -2.91787 0
M  V30 1948 N 190.675 0.682077 -1.42076 0
M  V30 1949 C 191.952 1.43755 -1.32642 0
M  V30 1950 C 192.332 2.11063 0.0396611 0
M  V30 1951 O 191.68 2.02701 1.05474 0
M  V30 1952 C 191.89 2.44596 -2.48946 0
M  V30 1953 C 193.238 3.09454 -2.9073 0
M  V30 1954 O 194.262 2.54922 -2.48783 0
M  V30 1955 O 193.121 4.08253 -3.63307 0
M  V30 1956 H 190.215 0.640857 -0.522715 0
M  V30 1957 H 192.761 0.711415 -1.54068 0
M  V30 1958 H 191.533 1.93609 -3.40046 0
M  V30 1959 H 191.156 3.24701 -2.29467 0
M  V30 1960 N 192.153 1.28127 0.917671 0
M  V30 1961 C 193.101 1.11569 2.04096 0
M  V30 1962 C 194.095 0.0360242 1.69362 0
M  V30 1963 O 195.301 0.194501 1.78946 0
M  V30 1964 H 191.676 0.344097 0.668656 0
M  V30 1965 H 193.647 2.06711 2.15205 0
M  V30 1966 C 192.396 0.790197 3.38602 0
M  V30 1967 H 191.719 1.61293 3.6582 0
M  V30 1968 H 193.159 0.714271 4.1794 0
M  V30 1969 C 191.618 -0.505897 3.3308 0
M  V30 1970 O 192.148 -1.53736 3.71117 0
M  V30 1971 N 190.354 -0.505193 2.86175 0
M  V30 1972 H 189.901 0.334621 2.55417 0
M  V30 1973 H 189.859 -1.37243 2.82863 0
M  V30 1974 N 193.631 -1.12557 1.10312 0
M  V30 1975 C 194.594 -2.16434 0.75424 0
M  V30 1976 C 195.594 -1.59278 -0.220685 0
M  V30 1977 O 196.784 -1.742 0.00230591 0
M  V30 1978 C 193.916 -3.40699 0.116987 0
M  V30 1979 H 195.109 -2.48811 1.67431 0
M  V30 1980 H 192.662 -1.27542 0.903475 0
M  V30 1981 H 193.397 -3.13921 -0.813877 0
M  V30 1982 H 193.182 -3.83459 0.818613 0
M  V30 1983 H 194.672 -4.17451 -0.111387 0
M  V30 1984 N 195.109 -0.891671 -1.2995 0
M  V30 1985 C 196.072 -0.36828 -2.26222 0
M  V30 1986 C 197.072 0.493014 -1.53056 0
M  V30 1987 O 198.262 0.299213 -1.71611 0
M  V30 1988 C 195.394 0.47442 -3.37583 0
M  V30 1989 H 196.587 -1.21844 -2.74033 0
M  V30 1990 H 194.14 -0.669107 -1.41254 0
M  V30 1991 H 194.875 1.34489 -2.95099 0
M  V30 1992 H 194.66 -0.142615 -3.91841 0
M  V30 1993 H 196.15 0.83218 -4.09224 0
M  V30 1994 N 196.587 1.43421 -0.653314 0
M  V30 1995 C 197.55 2.29182 0.0287951 0
M  V30 1996 C 198.55 1.42213 0.750465 0
M  V30 1997 O 199.74 1.63843 0.591701 0
M  V30 1998 C 196.872 3.24278 1.05151 0
M  V30 1999 H 198.065 2.90985 -0.725786 0
M  V30 2000 H 195.618 1.50702 -0.414545 0
M  V30 2001 H 196.353 2.6737 1.83532 0
M  V30 2002 H 196.138 3.88396 0.537687 0
M  V30 2003 H 197.628 3.88647 1.52786 0
M  V30 2004 N 198.065 0.39524 1.52563 0
M  V30 2005 C 199.013 -0.451859 2.28169 0
M  V30 2006 C 200.007 -1.05792 1.32304 0
M  V30 2007 O 201.213 -0.997718 1.49818 0
M  V30 2008 H 197.588 -0.164481 0.733792 0
M  V30 2009 H 199.559 0.207199 2.9768 0
M  V30 2010 C 198.308 -1.56385 3.10546 0
M  V30 2011 H 197.631 -1.10682 3.84174 0
M  V30 2012 H 199.071 -2.13067 3.66577 0
M  V30 2013 C 197.53 -2.52328 2.23231 0
M  V30 2014 O 198.06 -3.5588 1.86312 0
M  V30 2015 N 196.266 -2.22209 1.87274 0
M  V30 2016 H 195.813 -1.38033 2.17496 0
M  V30 2017 H 195.771 -2.86652 1.29143 0
M  V30 2018 N 199.544 -1.57102 0.125237 0
M  V30 2019 C 200.474 -2.18659 -0.819174 0
M  V30 2020 C 201.455 -1.12843 -1.27281 0
M  V30 2021 O 202.64 -1.41104 -1.33429 0
M  V30 2022 C 199.77 -2.79096 -2.06695 0
M  V30 2023 C 198.724 -3.90548 -1.75088 0
M  V30 2024 C 198.05 -4.37821 -3.06948 0
M  V30 2025 C 199.35 -5.12356 -1.01435 0
M  V30 2026 H 201.044 -2.9783 -0.306202 0
M  V30 2027 H 198.59 -1.4326 -0.145839 0
M  V30 2028 H 200.543 -3.2082 -2.73226 0
M  V30 2029 H 199.267 -1.97223 -2.60328 0
M  V30 2030 H 197.926 -3.49409 -1.10944 0
M  V30 2031 H 197.574 -3.52799 -3.58527 0
M  V30 2032 H 197.274 -5.12982 -2.86571 0
M  V30 2033 H 198.798 -4.822 -3.74587 0
M  V30 2034 H 200.212 -5.5106 -1.58132 0
M  V30 2035 H 198.609 -5.9314 -0.911319 0
M  V30 2036 H 199.679 -4.849 -0.00218681 0
M  V30 2037 N 201.022 0.148545 -1.56898 0
M  V30 2038 C 201.952 1.18524 -2.01182 0
M  V30 2039 C 202.933 1.4489 -0.891123 0
M  V30 2040 O 204.118 1.55836 -1.15882 0
M  V30 2041 C 201.248 2.51879 -2.39112 0
M  V30 2042 C 200.202 2.40038 -3.54353 0
M  V30 2043 C 199.528 3.78089 -3.78091 0
M  V30 2044 C 200.828 1.88577 -4.87069 0
M  V30 2045 H 202.522 0.817029 -2.88036 0
M  V30 2046 H 200.068 0.391575 -1.38574 0
M  V30 2047 H 202.021 3.24627 -2.68692 0
M  V30 2048 H 200.745 2.90532 -1.49193 0
M  V30 2049 H 199.404 1.69742 -3.24936 0
M  V30 2050 H 199.052 4.14175 -2.85426 0
M  V30 2051 H 198.752 3.71028 -4.55645 0
M  V30 2052 H 200.276 4.52387 -4.10095 0
M  V30 2053 H 201.69 2.51117 -5.15377 0
M  V30 2054 H 200.087 1.9241 -5.68417 0
M  V30 2055 H 201.157 0.84136 -4.77545 0
M  V30 2056 N 202.5 1.5196 0.417844 0
M  V30 2057 C 203.43 1.77634 1.51554 0
M  V30 2058 C 204.411 0.626918 1.58126 0
M  V30 2059 O 205.596 0.871632 1.7354 0
M  V30 2060 C 202.726 1.91911 2.8946 0
M  V30 2061 C 201.68 3.07463 2.97743 0
M  V30 2062 C 201.006 3.06951 4.37819 0
M  V30 2063 C 202.306 4.47082 2.70027 0
M  V30 2064 H 204 2.6955 1.3032 0
M  V30 2065 H 201.546 1.29706 0.625492 0
M  V30 2066 H 203.499 2.08455 3.6623 0
M  V30 2067 H 202.223 0.966598 3.11969 0
M  V30 2068 H 200.882 2.90656 2.23416 0
M  V30 2069 H 200.53 2.09438 4.57323 0
M  V30 2070 H 200.23 3.84556 4.44286 0
M  V30 2071 H 201.754 3.25613 5.16535 0
M  V30 2072 H 203.168 4.6414 3.36522 0
M  V30 2073 H 201.565 5.2654 2.87881 0
M  V30 2074 H 202.635 4.55777 1.65514 0
M  V30 2075 N 203.978 -0.674533 1.42435 0
M  V30 2076 C 204.925 -1.78807 1.45934 0
M  V30 2077 C 205.895 -1.63157 0.311271 0
M  V30 2078 O 207.08 -1.83707 0.515383 0
M  V30 2079 C 204.22 -3.16839 1.36773 0
M  V30 2080 C 203.333 -3.43774 2.61617 0
M  V30 2081 C 202.468 -4.71536 2.44597 0
M  V30 2082 C 201.507 -4.91505 3.64814 0
M  V30 2083 N 200.644 -6.10508 3.46734 0
M  V30 2084 H 205.484 -1.75151 2.41093 0
M  V30 2085 H 203.021 -0.85504 1.19697 0
M  V30 2086 H 204.979 -3.96606 1.29459 0
M  V30 2087 H 203.609 -3.19619 0.452089 0
M  V30 2088 H 202.661 -2.58259 2.79297 0
M  V30 2089 H 203.973 -3.54423 3.50978 0
M  V30 2090 H 203.127 -5.59393 2.3487 0
M  V30 2091 H 201.866 -4.6317 1.52726 0
M  V30 2092 H 200.871 -4.0209 3.74972 0
M  V30 2093 H 202.096 -5.01716 4.57665 0
M  V30 2094 H 200.042 -6.03315 2.5758 0
M  V30 2095 H 199.959 -6.2202 4.29682 0
M  V30 2096 H 201.227 -7.01044 3.40819 0
M  V30 2097 N 205.456 -1.28612 -0.910864 0
M  V30 2098 C 206.366 -1.14643 -2.0468 0
M  V30 2099 C 207.382 -0.0723121 -1.7385 0
M  V30 2100 O 208.558 -0.282178 -1.99413 0
M  V30 2101 C 205.623 -0.812561 -3.37044 0
M  V30 2102 C 204.684 -1.96935 -3.81465 0
M  V30 2103 C 203.917 -1.65131 -5.07511 0
M  V30 2104 O 204.14 -0.567013 -5.67575 0
M  V30 2105 O 203.074 -2.49585 -5.47714 0
M  V30 2106 H 206.9 -2.1001 -2.19384 0
M  V30 2107 H 204.485 -1.07958 -1.03274 0
M  V30 2108 H 206.367 -0.640441 -4.16505 0
M  V30 2109 H 205.042 0.111426 -3.23508 0
M  V30 2110 H 203.949 -2.19664 -3.02818 0
M  V30 2111 H 205.282 -2.87414 -3.99567 0
M  V30 2112 N 206.934 1.1197 -1.10907 0
M  V30 2113 C 207.864 2.19928 -0.784473 0
M  V30 2114 C 208.845 1.6833 0.244726 0
M  V30 2115 O 210.03 1.93892 0.109418 0
M  V30 2116 C 207.16 3.46597 -0.220827 0
M  V30 2117 C 206.114 4.11376 -1.18127 0
M  V30 2118 C 205.44 5.32554 -0.478594 0
M  V30 2119 C 206.74 4.56945 -2.52979 0
M  V30 2120 H 208.434 2.47337 -1.68715 0
M  V30 2121 H 205.98 1.18879 -0.812642 0
M  V30 2122 H 207.933 4.21396 0.0184278 0
M  V30 2123 H 206.657 3.1863 0.717113 0
M  V30 2124 H 205.316 3.38564 -1.40606 0
M  V30 2125 H 204.964 5.00856 0.463976 0
M  V30 2126 H 204.664 5.76844 -1.11912 0
M  V30 2127 H 206.188 6.10096 -0.248 0
M  V30 2128 H 207.602 5.23093 -2.3462 0
M  V30 2129 H 205.999 5.1203 -3.12962 0
M  V30 2130 H 207.069 3.70676 -3.12614 0
M  V30 2131 N 208.412 0.89855 1.29475 0
M  V30 2132 C 209.66 0.522847 1.9522 0
M  V30 2133 C 209.981 -0.93371 1.71192 0
M  V30 2134 O 209.251 -1.65823 1.04305 0
M  V30 2135 H 207.831 0.190366 0.722336 0
M  V30 2136 H 210.493 1.14459 1.5775 0
M  V30 2137 H 209.589 0.704476 3.04045 0
M  V30 2138 N 209.89 -1.43072 0.660911 0
M  V30 2139 C 211.138 -2.01323 0.177094 0
M  V30 2140 C 211.459 -1.5245 -1.2159 0
M  V30 2141 O 210.729 -0.740322 -1.81373 0
M  V30 2142 H 209.309 -0.744382 0.0624804 0
M  V30 2143 H 211.971 -1.75179 0.854305 0
M  V30 2144 H 211.067 -3.11649 0.167641 0
M  V30 2145 N 211.368 -0.403325 -1.52352 0
M  V30 2146 C 212.779 0.0675782 -1.86578 0
M  V30 2147 C 213.13 1.44941 -1.32236 0
M  V30 2148 O 212.255 2.06112 -0.659307 0
M  V30 2149 C 212.85 0.129404 -3.38553 0
M  V30 2150 C 211.409 0.544629 -3.72439 0
M  V30 2151 C 210.556 -0.284551 -2.75836 0
M  V30 2152 H 213.507 -0.620631 -1.46061 0
M  V30 2153 H 213.528 0.94581 -3.68558 0
M  V30 2154 H 213.04 -0.87645 -3.78074 0
M  V30 2155 H 211.141 1.55734 -3.38493 0
M  V30 2156 H 211.254 0.293046 -4.78203 0
M  V30 2157 H 209.618 0.252258 -2.53448 0
M  V30 2158 H 210.401 -1.28865 -3.18196 0
M  V30 2159 N 212.846 1.57033 -0.133567 0
M  V30 2160 C 213.809 2.14897 0.796995 0
M  V30 2161 C 214.809 1.0874 1.18458 0
M  V30 2162 O 215.999 1.34446 1.1077 0
M  V30 2163 C 213.131 2.70112 2.07973 0
M  V30 2164 H 214.324 2.98457 0.293873 0
M  V30 2165 H 211.877 1.55871 0.115787 0
M  V30 2166 H 212.612 1.9018 2.62682 0
M  V30 2167 H 212.397 3.47764 1.81115 0
M  V30 2168 H 213.887 3.14738 2.74462 0
M  V30 2169 N 214.325 -0.140222 1.56975 0
M  V30 2170 C 215.573 -0.850005 1.83356 0
M  V30 2171 C 215.894 -1.81399 0.71551 0
M  V30 2172 O 215.164 -1.94136 -0.262294 0
M  V30 2173 H 213.744 -0.316886 0.676456 0
M  V30 2174 H 216.406 -0.132608 1.94448 0
M  V30 2175 H 215.502 -1.40814 2.78528 0
M  V30 2176 N 215.803 -1.52179 -0.40978 0
M  V30 2177 C 216.733 -1.78435 -1.5061 0
M  V30 2178 C 217.714 -0.635295 -1.57791 0
M  V30 2179 O 218.899 -0.880823 -1.73076 0
M  V30 2180 C 216.029 -1.93444 -2.88439 0
M  V30 2181 C 214.983 -3.09038 -2.96108 0
M  V30 2182 C 214.309 -3.09268 -4.36185 0
M  V30 2183 C 215.609 -4.48508 -2.67652 0
M  V30 2184 H 217.303 -2.70237 -1.28889 0
M  V30 2185 H 214.849 -1.30036 -0.618605 0
M  V30 2186 H 216.802 -2.10394 -3.65119 0
M  V30 2187 H 215.526 -0.983129 -3.11452 0
M  V30 2188 H 214.185 -2.91837 -2.21872 0
M  V30 2189 H 213.833 -2.11861 -4.56206 0
M  V30 2190 H 213.533 -3.86907 -4.42241 0
M  V30 2191 H 215.057 -3.28348 -5.14801 0
M  V30 2192 H 216.471 -4.65918 -3.34056 0
M  V30 2193 H 214.868 -5.28059 -2.85085 0
M  V30 2194 H 215.938 -4.56649 -1.63095 0
M  V30 2195 N 217.281 0.66697 -1.42791 0
M  V30 2196 C 218.509 1.45505 -1.47091 0
M  V30 2197 C 218.924 1.8861 -0.0845873 0
M  V30 2198 O 218.281 1.58632 0.90234 0
M  V30 2199 C 218.332 2.69906 -2.40485 0
M  V30 2200 O 218.053 2.28608 -3.73725 0
M  V30 2201 C 219.554 3.63396 -2.53886 0
M  V30 2202 H 216.774 0.447459 -0.500022 0
M  V30 2203 H 219.318 0.818866 -1.8739 0
M  V30 2204 H 217.473 3.29696 -2.03419 0
M  V30 2205 H 217.887 3.08997 -4.23817 0
M  V30 2206 H 219.361 4.47387 -3.2334 0
M  V30 2207 H 219.838 4.09824 -1.57927 0
M  V30 2208 H 220.444 3.09495 -2.91706 0
M  V30 2209 N 218.759 1.29093 0.90403 0
M  V30 2210 C 219.722 1.1386 1.98919 0
M  V30 2211 C 220.722 0.0753457 1.60623 0
M  V30 2212 O 221.912 0.321931 1.71199 0
M  V30 2213 C 219.044 0.740198 3.32767 0
M  V30 2214 H 220.237 2.10246 2.13861 0
M  V30 2215 H 217.79 1.12218 1.08797 0
M  V30 2216 H 218.525 -0.223997 3.23525 0
M  V30 2217 H 218.31 1.50838 3.61926 0
M  V30 2218 H 219.8 0.656546 4.12407 0
M  V30 2219 N 220.237 -1.11381 1.11499 0
M  V30 2220 C 221.484 -1.83132 0.864231 0
M  V30 2221 C 221.812 -1.84683 -0.610114 0
M  V30 2222 O 221.067 -1.29589 -1.46646 0
M  V30 2223 C 221.366 -3.30026 1.37177 0
M  V30 2224 C 221.032 -3.48634 2.85946 0
M  V30 2225 C 219.694 -3.53421 3.26569 0
M  V30 2226 C 222.046 -3.54837 3.81759 0
M  V30 2227 C 219.374 -3.61967 4.61733 0
M  V30 2228 C 221.726 -3.64915 5.1674 0
M  V30 2229 C 220.39 -3.67962 5.5692 0
M  V30 2230 H 219.66 -0.670127 0.316245 0
M  V30 2231 H 222.307 -1.31354 1.3935 0
M  V30 2232 H 220.612 -3.84304 0.762753 0
M  V30 2233 H 222.309 -3.84034 1.15408 0
M  V30 2234 H 218.899 -3.45579 2.53521 0
M  V30 2235 H 223.083 -3.50399 3.51474 0
M  V30 2236 H 218.339 -3.62603 4.92269 0
M  V30 2237 H 222.513 -3.68658 5.90816 0
M  V30 2238 H 220.14 -3.74336 6.61647 0
M  V30 2239 N 221.715 -0.905404 -1.28997 0
M  V30 2240 C 222.648 -0.331959 -2.25773 0
M  V30 2241 C 223.626 0.559099 -1.52685 0
M  V30 2242 O 224.81 0.50463 -1.8162 0
M  V30 2243 C 221.937 0.526276 -3.34586 0
M  V30 2244 C 220.983 -0.298249 -4.25456 0
M  V30 2245 S 221.816 -1.69968 -5.0781 0
M  V30 2246 C 222.972 -0.848519 -6.20122 0
M  V30 2247 H 223.205 -1.15222 -2.74064 0
M  V30 2248 H 220.738 -0.706112 -1.37308 0
M  V30 2249 H 222.696 1.01565 -3.97737 0
M  V30 2250 H 221.357 1.32084 -2.84978 0
M  V30 2251 H 220.55 0.357607 -5.0273 0
M  V30 2252 H 220.152 -0.720968 -3.66985 0
M  V30 2253 H 222.444 -0.0744325 -6.77459 0
M  V30 2254 H 223.387 -1.59353 -6.89937 0
M  V30 2255 H 223.795 -0.400383 -5.63078 0
M  V30 2256 N 223.193 1.4272 -0.668489 0
M  V30 2257 C 224.609 1.55992 -0.33745 0
M  V30 2258 C 224.809 1.64933 1.15756 0
M  V30 2259 O 223.865 1.61278 1.94282 0
M  V30 2260 C 225.178 2.81314 -1.06222 0
M  V30 2261 C 226.726 2.95078 -1.04394 0
M  V30 2262 C 227.201 4.23252 -1.74991 0
M  V30 2263 N 228.692 4.3015 -1.71829 0
M  V30 2264 C 229.427 5.28127 -2.23315 0
M  V30 2265 N 228.923 6.32293 -2.83156 0
M  V30 2266 N 230.716 5.19882 -2.13726 0
M  V30 2267 H 222.867 1.3516 -1.63846 0
M  V30 2268 H 225.13 0.650174 -0.689912 0
M  V30 2269 H 224.836 2.80823 -2.11734 0
M  V30 2270 H 224.71 3.72012 -0.62344 0
M  V30 2271 H 227.097 2.951 0.0028244 0
M  V30 2272 H 227.178 2.05627 -1.52155 0
M  V30 2273 H 226.822 4.2399 -2.79633 0
M  V30 2274 H 226.752 5.11626 -1.24685 0
M  V30 2275 H 229.243 3.55499 -1.28175 0
M  V30 2276 H 229.556 7.03398 -3.20079 0
M  V30 2277 H 227.901 6.32873 -2.87223 0
M  V30 2278 H 231.092 4.37423 -1.66669 0
M  V30 2279 H 231.265 5.96077 -2.54158 0
M  V30 2280 N 224.671 0.411399 1.52136 0
M  V30 2281 C 225.896 -0.165538 2.06738 0
M  V30 2282 C 226.321 -1.379 1.27926 0
M  V30 2283 O 225.679 -1.78628 0.310114 0
M  V30 2284 C 225.727 -0.492124 3.57226 0
M  V30 2285 O 224.831 -1.58276 3.80818 0
M  V30 2286 H 224.172 -0.0132132 0.663869 0
M  V30 2287 H 226.702 0.585253 1.96051 0
M  V30 2288 H 226.712 -0.750104 4.01045 0
M  V30 2289 H 225.387 0.394922 4.14021 0
M  V30 2290 H 223.964 -1.31677 3.48877 0
M  V30 2291 N 226.149 -1.5696 0.141893 0
M  V30 2292 C 227.398 -1.95135 -0.510427 0
M  V30 2293 C 227.711 -1.02896 -1.66348 0
M  V30 2294 O 228.917 -1.30629 -2.38009 0
M  V30 2295 C 227.373 -3.46876 -0.959427 0
M  V30 2296 C 226.981 -4.47691 0.166419 0
M  V30 2297 C 228.725 -3.93927 -1.58183 0
M  V30 2298 C 226.632 -5.90636 -0.300565 0
M  V30 2299 H 225.562 -0.728494 -0.194454 0
M  V30 2300 H 228.213 -1.8211 0.22542 0
M  V30 2301 H 226.595 -3.55215 -1.75038 0
M  V30 2302 H 227.769 -4.51043 0.94325 0
M  V30 2303 H 226.084 -4.10527 0.696905 0
M  V30 2304 H 228.681 -4.98158 -1.94275 0
M  V30 2305 H 229.024 -3.3519 -2.46888 0
M  V30 2306 H 229.557 -3.88484 -0.855863 0
M  V30 2307 H 226.296 -6.5318 0.550989 0
M  V30 2308 H 225.816 -5.90655 -1.04338 0
M  V30 2309 H 227.495 -6.42588 -0.754265 0
M  V30 2310 N 227.627 0.131896 -1.57047 0
M  V30 2311 C 228.875 0.840269 -1.83804 0
M  V30 2312 C 229.196 1.81017 -0.72512 0
M  V30 2313 O 228.466 1.94272 0.251995 0
M  V30 2314 H 227.046 0.313294 -0.678127 0
M  V30 2315 H 229.708 0.122294 -1.94516 0
M  V30 2316 H 228.804 1.39335 -2.79271 0
M  V30 2317 N 229.106 1.52395 0.401703 0
M  V30 2318 C 230.383 1.57387 1.16141 0
M  V30 2319 C 230.763 0.359359 2.08019 0
M  V30 2320 O 230.111 -0.65326 2.18963 0
M  V30 2321 C 230.321 2.90631 1.93221 0
M  V30 2322 C 231.669 3.43904 2.49028 0
M  V30 2323 O 232.693 2.92421 2.03393 0
M  V30 2324 O 231.552 4.33823 3.32356 0
M  V30 2325 H 228.646 0.634262 0.530698 0
M  V30 2326 H 231.192 1.64725 0.407883 0
M  V30 2327 H 229.964 3.70473 1.25958 0
M  V30 2328 H 229.587 2.8662 2.75563 0
M  V30 2329 N 230.584 -0.659388 1.43143 0
M  V30 2330 C 231.812 -1.44723 1.47861 0
M  V30 2331 C 232.227 -1.88563 0.0945886 0
M  V30 2332 O 231.584 -1.59108 -0.893915 0
M  V30 2333 C 231.635 -2.68627 2.41913 0
M  V30 2334 O 231.356 -2.26623 3.74932 0
M  V30 2335 C 232.857 -3.62045 2.55809 0
M  V30 2336 H 230.077 -0.444801 0.502387 0
M  V30 2337 H 232.621 -0.808916 1.87821 0
M  V30 2338 H 230.776 -3.28613 2.05164 0
M  V30 2339 H 231.19 -3.06745 4.2545 0
M  V30 2340 H 232.664 -4.45666 3.25708 0
M  V30 2341 H 233.141 -4.08981 1.60099 0
M  V30 2342 H 233.747 -3.07944 2.93344 0
M  V30 2343 N 232.062 -1.29571 -0.897171 0
M  V30 2344 C 233.29 -1.20583 -1.68129 0
M  V30 2345 C 233.705 0.233181 -1.87354 0
M  V30 2346 O 233.062 1.15579 -1.41236 0
M  V30 2347 C 233.113 -1.91772 -3.06441 0
M  V30 2348 O 232.834 -3.30053 -2.88091 0
M  V30 2349 C 234.335 -1.89291 -4.00854 0
M  V30 2350 H 231.555 -0.417826 -0.525036 0
M  V30 2351 H 234.099 -1.70987 -1.12177 0
M  V30 2352 H 232.254 -1.45196 -3.59161 0
M  V30 2353 H 232.668 -3.65942 -3.75748 0
M  V30 2354 H 234.142 -2.43662 -4.95311 0
M  V30 2355 H 234.619 -0.869014 -4.30517 0
M  V30 2356 H 235.225 -2.35622 -3.54066 0
M  V30 2357 N 233.54 1.10788 -1.12088 0
M  V30 2358 C 234.787 1.82671 -0.873931 0
M  V30 2359 C 235.115 1.85004 0.600311 0
M  V30 2360 O 234.37 1.30365 1.45957 0
M  V30 2361 C 234.669 3.29294 -1.38926 0
M  V30 2362 C 234.335 3.47113 -2.87791 0
M  V30 2363 C 232.997 3.51684 -3.28439 0
M  V30 2364 C 235.349 3.52808 -3.83635 0
M  V30 2365 C 232.677 3.59513 -4.63646 0
M  V30 2366 C 235.029 3.62169 -5.18668 0
M  V30 2367 C 233.693 3.65003 -5.58864 0
M  V30 2368 H 232.963 0.668441 -0.319794 0
M  V30 2369 H 235.61 1.30613 -1.40045 0
M  V30 2370 H 233.915 3.83894 -0.783122 0
M  V30 2371 H 235.612 3.83416 -1.17443 0
M  V30 2372 H 232.202 3.4423 -2.5535 0
M  V30 2373 H 236.386 3.4853 -3.53328 0
M  V30 2374 H 231.642 3.59987 -4.94185 0
M  V30 2375 H 235.816 3.6552 -5.92763 0
M  V30 2376 H 233.443 3.70822 -6.63623 0
M  V30 2377 N 235.018 0.912232 1.28515 0
M  V30 2378 C 236.434 0.610159 1.47476 0
M  V30 2379 C 236.634 -0.844955 1.82928 0
M  V30 2380 O 235.69 -1.62416 1.93332 0
M  V30 2381 C 237.003 1.54675 2.57868 0
M  V30 2382 C 238.551 1.55331 2.71738 0
M  V30 2383 C 239.026 2.47649 3.85272 0
M  V30 2384 N 240.517 2.45767 3.92623 0
M  V30 2385 C 241.252 3.13896 4.79851 0
M  V30 2386 N 240.748 3.9135 5.71679 0
M  V30 2387 N 242.541 3.02991 4.73448 0
M  V30 2388 H 234.692 1.85318 1.03783 0
M  V30 2389 H 236.955 0.794777 0.516753 0
M  V30 2390 H 236.661 2.5841 2.38574 0
M  V30 2391 H 236.535 1.27671 3.54937 0
M  V30 2392 H 238.922 0.52335 2.90422 0
M  V30 2393 H 239.003 1.86378 1.75205 0
M  V30 2394 H 238.647 3.50745 3.67342 0
M  V30 2395 H 238.577 2.13904 4.81199 0
M  V30 2396 H 241.068 1.89503 3.26951 0
M  V30 2397 H 241.381 4.40359 6.35062 0
M  V30 2398 H 239.726 3.95455 5.71524 0
M  V30 2399 H 242.917 2.41987 4.007 0
M  V30 2400 H 243.09 3.5636 5.41213 0
M  V30 2401 N 236.496 -1.42363 0.676048 0
M  V30 2402 C 237.426 -2.33497 0.0124832 0
M  V30 2403 C 238.407 -1.50748 -0.787981 0
M  V30 2404 O 239.592 -1.79346 -0.744884 0
M  V30 2405 C 236.722 -3.34377 -0.938582 0
M  V30 2406 C 235.676 -4.27289 -0.246622 0
M  V30 2407 C 235.002 -5.18386 -1.31071 0
M  V30 2408 C 236.302 -5.14916 0.875125 0
M  V30 2409 H 237.996 -2.89233 0.773593 0
M  V30 2410 H 235.542 -1.39073 0.37346 0
M  V30 2411 H 237.495 -3.97044 -1.41188 0
M  V30 2412 H 236.219 -2.76947 -1.73113 0
M  V30 2413 H 234.878 -3.66018 0.206456 0
M  V30 2414 H 234.526 -4.57282 -2.09528 0
M  V30 2415 H 234.226 -5.81378 -0.852839 0
M  V30 2416 H 235.75 -5.83929 -1.78492 0
M  V30 2417 H 237.164 -5.71262 0.482983 0
M  V30 2418 H 235.561 -5.86747 1.25887 0
M  V30 2419 H 236.631 -4.53242 1.72335 0
M  V30 2420 N 237.974 -0.419461 -1.51915 0
M  V30 2421 C 239.251 0.211999 -1.94448 0
M  V30 2422 C 239.631 1.61703 -1.35703 0
M  V30 2423 O 238.979 2.22102 -0.536931 0
M  V30 2424 C 239.189 0.207872 -3.4838 0
M  V30 2425 C 240.537 0.422192 -4.22496 0
M  V30 2426 O 241.561 0.286778 -3.55044 0
M  V30 2427 O 240.42 0.690009 -5.42126 0
M  V30 2428 H 237.514 0.139586 -0.815135 0
M  V30 2429 H 240.06 -0.476151 -1.62883 0
M  V30 2430 H 238.832 -0.775102 -3.83546 0
M  V30 2431 H 238.455 0.939688 -3.86336 0
M  V30 2432 N 239.452 1.56882 -0.150215 0
M  V30 2433 C 240.868 1.58263 0.20617 0
M  V30 2434 C 241.068 1.16464 1.64434 0
M  V30 2435 O 240.124 0.866422 2.3717 0
M  V30 2436 C 241.437 3.00649 -0.0555025 0
M  V30 2437 C 242.985 3.12999 0.00795388 0
M  V30 2438 C 243.46 4.5744 -0.226429 0
M  V30 2439 N 244.951 4.62875 -0.173469 0
M  V30 2440 C 245.686 5.72454 -0.329288 0
M  V30 2441 N 245.182 6.90669 -0.543005 0
M  V30 2442 N 246.975 5.61467 -0.266666 0
M  V30 2443 H 239.126 1.82345 -1.08922 0
M  V30 2444 H 241.389 0.844149 -0.431413 0
M  V30 2445 H 241.095 3.3563 -1.05096 0
M  V30 2446 H 240.969 3.71337 0.66246 0
M  V30 2447 H 243.356 2.77857 0.993966 0
M  V30 2448 H 243.437 2.4479 -0.742388 0
M  V30 2449 H 243.081 4.93287 -1.20956 0
M  V30 2450 H 243.011 5.2378 0.544274 0
M  V30 2451 H 245.502 3.77898 -0.0130709 0
M  V30 2452 H 245.815 7.70045 -0.651922 0
M  V30 2453 H 244.16 6.92581 -0.579366 0
M  V30 2454 H 247.351 4.67992 -0.100441 0
M  V30 2455 H 247.524 6.46816 -0.391535 0
M  V30 2456 N 240.93 -0.123565 1.57115 0
M  V30 2457 C 242.176 -0.828428 1.85765 0
M  V30 2458 C 242.531 -1.77709 0.737371 0
M  V30 2459 O 241.824 -1.89787 -0.262978 0
M  V30 2460 C 242.018 -1.62016 3.18568 0
M  V30 2461 C 241.847 -0.749663 4.43407 0
M  V30 2462 C 240.617 -0.406251 5.03664 0
M  V30 2463 C 242.815 -0.0693505 5.14253 0
M  V30 2464 N 240.797 0.475389 6.12057 0
M  V30 2465 C 242.168 0.671474 6.16353 0
M  V30 2466 C 244.223 0.00754393 4.97899 0
M  V30 2467 C 242.926 1.48197 7.03868 0
M  V30 2468 C 244.952 0.804845 5.85898 0
M  V30 2469 C 244.314 1.53388 6.87497 0
M  V30 2470 H 240.413 -0.280219 0.73007 0
M  V30 2471 H 242.997 -0.0924183 1.94481 0
M  V30 2472 H 241.168 -2.32724 3.10957 0
M  V30 2473 H 242.9 -2.27 3.35042 0
M  V30 2474 H 239.655 -0.747446 4.67665 0
M  V30 2475 H 240.079 0.907924 6.70884 0
M  V30 2476 H 244.721 -0.541741 4.19315 0
M  V30 2477 H 242.439 2.04242 7.81864 0
M  V30 2478 H 246.025 0.866642 5.75309 0
M  V30 2479 H 244.905 2.1409 7.5441 0
M  V30 2480 N 242.408 -1.52605 -0.393616 0
M  V30 2481 C 243.318 -1.79971 -1.50492 0
M  V30 2482 C 244.334 -0.686181 -1.59899 0
M  V30 2483 O 245.51 -0.973274 -1.76322 0
M  V30 2484 C 242.575 -1.95867 -2.86072 0
M  V30 2485 C 241.636 -3.19781 -2.86424 0
M  V30 2486 C 240.869 -3.34909 -4.15538 0
M  V30 2487 O 241.092 -2.54948 -5.10253 0
M  V30 2488 O 240.026 -4.28141 -4.23059 0
M  V30 2489 H 243.852 -2.74328 -1.30299 0
M  V30 2490 H 241.437 -1.3764 -0.581005 0
M  V30 2491 H 243.319 -2.08056 -3.66457 0
M  V30 2492 H 241.994 -1.04699 -3.063 0
M  V30 2493 H 240.901 -3.13038 -2.04837 0
M  V30 2494 H 242.234 -4.1078 -2.71147 0
M  V30 2495 N 243.887 0.651787 -1.4349 0
M  V30 2496 C 244.817 1.77621 -1.51569 0
M  V30 2497 C 245.798 1.66022 -0.370253 0
M  V30 2498 O 246.983 1.85095 -0.587658 0
M  V30 2499 C 244.113 3.16056 -1.43966 0
M  V30 2500 C 243.067 3.4242 -2.56774 0
M  V30 2501 C 242.393 4.8067 -2.34223 0
M  V30 2502 C 243.693 3.37023 -3.99015 0
M  V30 2503 H 245.387 1.71117 -2.45681 0
M  V30 2504 H 242.933 0.821825 -1.18246 0
M  V30 2505 H 244.886 3.94472 -1.48221 0
M  V30 2506 H 243.61 3.23293 -0.463586 0
M  V30 2507 H 242.269 2.66375 -2.51873 0
M  V30 2508 H 241.917 4.84585 -1.34856 0
M  V30 2509 H 241.617 4.9927 -3.09844 0
M  V30 2510 H 243.141 5.61342 -2.40265 0
M  V30 2511 H 244.555 4.05374 -4.05395 0
M  V30 2512 H 242.952 3.67159 -4.74673 0
M  V30 2513 H 244.022 2.3518 -4.2405 0
M  V30 2514 N 245.365 1.30045 0.890287 0
M  V30 2515 C 246.275 1.17885 2.02831 0
M  V30 2516 C 247.291 0.0999609 1.73713 0
M  V30 2517 O 248.467 0.313867 1.98939 0
M  V30 2518 C 245.532 0.866079 3.35708 0
M  V30 2519 C 244.593 2.02979 3.78283 0
M  V30 2520 C 243.826 1.73184 5.0482 0
M  V30 2521 O 244.049 0.657237 5.66601 0
M  V30 2522 O 242.983 2.58267 5.43674 0
M  V30 2523 H 246.809 2.13474 2.16015 0
M  V30 2524 H 244.394 1.09587 1.01543 0
M  V30 2525 H 246.276 0.706623 4.15433 0
M  V30 2526 H 244.951 -0.0599443 3.23644 0
M  V30 2527 H 243.858 2.24454 2.99285 0
M  V30 2528 H 245.191 2.93734 3.94944 0
M  V30 2529 N 246.843 -1.10192 1.12674 0
M  V30 2530 C 247.773 -2.18652 0.819362 0
M  V30 2531 C 248.754 -1.68698 -0.217915 0
M  V30 2532 O 249.939 -1.94041 -0.0785581 0
M  V30 2533 C 247.069 -3.46202 0.27594 0
M  V30 2534 C 246.023 -4.09444 1.24656 0
M  V30 2535 C 245.349 -5.31725 0.563258 0
M  V30 2536 C 246.649 -4.52863 2.60217 0
M  V30 2537 H 248.343 -2.44622 1.72628 0
M  V30 2538 H 245.889 -1.17571 0.831451 0
M  V30 2539 H 247.842 -4.21372 0.0486149 0
M  V30 2540 H 246.566 -3.1973 -0.666331 0
M  V30 2541 H 245.225 -3.36284 1.45974 0
M  V30 2542 H 244.873 -5.0153 -0.384235 0
M  V30 2543 H 244.573 -5.74991 1.21075 0
M  V30 2544 H 246.097 -6.09624 0.34503 0
M  V30 2545 H 247.511 -5.19294 2.42913 0
M  V30 2546 H 245.908 -5.06986 3.21068 0
M  V30 2547 H 246.978 -3.65656 3.18471 0
M  V30 2548 N 248.321 -0.919034 -1.28029 0
M  V30 2549 C 249.269 -0.401753 -2.29104 0
M  V30 2550 C 250.263 0.509354 -1.61561 0
M  V30 2551 O 251.469 0.390014 -1.75724 0
M  V30 2552 H 247.844 -0.111331 -0.743713 0
M  V30 2553 H 249.815 -1.2672 -2.70156 0
M  V30 2554 C 248.564 0.338148 -3.46052 0
M  V30 2555 H 247.887 -0.353732 -3.98232 0
M  V30 2556 H 249.327 0.664653 -4.18758 0
M  V30 2557 C 247.786 1.54798 -2.99231 0
M  V30 2558 O 248.316 2.64696 -3.02157 0
M  V30 2559 N 246.522 1.3968 -2.54829 0
M  V30 2560 H 246.069 0.502698 -2.52647 0
M  V30 2561 H 246.027 2.20755 -2.23863 0
M  V30 2562 N 249.799 1.42003 -0.683588 0
M  V30 2563 C 251.024 2.06265 -0.216647 0
M  V30 2564 C 251.449 1.51059 1.12083 0
M  V30 2565 O 250.807 0.632638 1.69904 0
M  V30 2566 C 250.855 3.60191 -0.171759 0
M  V30 2567 O 249.959 4.03396 0.857069 0
M  V30 2568 H 249.3 0.65502 -0.108834 0
M  V30 2569 H 251.83 1.81982 -0.935077 0
M  V30 2570 H 251.84 4.08 0.0014303 0
M  V30 2571 H 250.515 3.99743 -1.14796 0
M  V30 2572 H 249.092 3.67117 0.654208 0
M  V30 2573 N 251.277 0.427512 1.51691 0
M  V30 2574 C 252.24 -0.377132 2.26076 0
M  V30 2575 C 253.24 -0.958089 1.29141 0
M  V30 2576 O 254.43 -0.83408 1.52934 0
M  V30 2577 C 251.562 -1.53262 3.04506 0
M  V30 2578 H 252.755 0.27464 2.9864 0
M  V30 2579 H 250.308 0.180445 1.55255 0
M  V30 2580 H 251.043 -2.22072 2.36335 0
M  V30 2581 H 250.828 -1.12232 3.75694 0
M  V30 2582 H 252.318 -2.10135 3.60878 0
M  V30 2583 N 252.755 -1.56801 0.158532 0
M  V30 2584 C 254.004 -1.95665 -0.489702 0
M  V30 2585 C 254.317 -1.04654 -1.65248 0
M  V30 2586 O 255.523 -1.33146 -2.3661 0
M  V30 2587 C 253.979 -3.47874 -0.922582 0
M  V30 2588 C 253.587 -4.47489 0.213893 0
M  V30 2589 C 255.331 -3.95583 -1.53996 0
M  V30 2590 C 253.238 -5.90921 -0.237903 0
M  V30 2591 H 252.168 -0.730516 -0.186716 0
M  V30 2592 H 254.819 -1.81861 0.244722 0
M  V30 2593 H 253.201 -3.57051 -1.71261 0
M  V30 2594 H 254.375 -4.50017 0.991036 0
M  V30 2595 H 252.69 -4.09764 0.740407 0
M  V30 2596 H 255.287 -5.0019 -1.8898 0
M  V30 2597 H 255.63 -3.37789 -2.43319 0
M  V30 2598 H 256.163 -3.8937 -0.814611 0
M  V30 2599 H 252.902 -6.52559 0.620236 0
M  V30 2600 H 252.422 -5.91729 -0.980676 0
M  V30 2601 H 254.101 -6.43352 -0.686067 0
M  V30 2602 N 254.233 0.115231 -1.57178 0
M  V30 2603 C 255.644 0.67197 -1.74188 0
M  V30 2604 C 255.995 1.80125 -0.777777 0
M  V30 2605 O 255.12 2.16346 0.0484376 0
M  V30 2606 C 255.715 1.22573 -3.1585 0
M  V30 2607 C 254.274 1.72872 -3.34353 0
M  V30 2608 C 253.421 0.629972 -2.70049 0
M  V30 2609 H 256.372 -0.110712 -1.58313 0
M  V30 2610 H 256.393 2.09535 -3.17609 0
M  V30 2611 H 255.905 0.403598 -3.85996 0
M  V30 2612 H 254.006 2.5755 -2.69256 0
M  V30 2613 H 254.119 1.83557 -4.42542 0
M  V30 2614 H 252.483 1.0645 -2.31388 0
M  V30 2615 H 253.266 -0.181241 -3.42821 0
M  V30 2616 N 255.711 1.52812 0.385517 0
M  V30 2617 C 256.959 1.67694 1.12797 0
M  V30 2618 C 257.28 0.421115 1.90399 0
M  V30 2619 O 256.55 -0.564551 1.87589 0
M  V30 2620 H 255.13 0.618155 0.419396 0
M  V30 2621 H 257.792 1.89938 0.436972 0
M  V30 2622 H 256.888 2.52896 1.82894 0
M  V30 2623 N 257.189 -0.644168 1.43834 0
M  V30 2624 C 258.466 -1.40188 1.36406 0
M  V30 2625 C 258.846 -2.11094 0.0163124 0
M  V30 2626 O 258.194 -2.05426 -1.00062 0
M  V30 2627 C 258.404 -2.3791 2.55343 0
M  V30 2628 C 259.752 -3.01637 2.98832 0
M  V30 2629 O 260.776 -2.48237 2.55455 0
M  V30 2630 O 259.635 -3.98477 3.74003 0
M  V30 2631 H 256.729 -0.626773 0.539523 0
M  V30 2632 H 259.275 -0.670317 1.559 0
M  V30 2633 H 258.047 -1.84525 3.4506 0
M  V30 2634 H 257.67 -3.18503 2.37995 0
M  V30 2635 N 258.668 -1.30515 -0.883378 0
M  V30 2636 C 259.631 -1.1701 -1.97082 0
M  V30 2637 C 260.631 -0.10089 -1.60483 0
M  V30 2638 O 261.821 -0.349127 -1.70666 0
M  V30 2639 C 258.953 -0.793045 -3.31547 0
M  V30 2640 H 260.146 -2.13622 -2.10489 0
M  V30 2641 H 257.699 -1.13935 -1.06998 0
M  V30 2642 H 258.434 0.172499 -3.23841 0
M  V30 2643 H 258.219 -1.56576 -3.5948 0
M  V30 2644 H 259.709 -0.722073 -4.1131 0
M  V30 2645 N 260.146 1.09593 -1.13257 0
M  V30 2646 C 261.562 1.33775 -0.870423 0
M  V30 2647 C 261.762 1.95327 0.494926 0
M  V30 2648 O 260.818 2.19853 1.2418 0
M  V30 2649 C 262.131 2.25106 -1.99369 0
M  V30 2650 C 263.679 2.3862 -2.02558 0
M  V30 2651 C 264.154 3.33285 -3.14142 0
M  V30 2652 N 265.645 3.40857 -3.13641 0
M  V30 2653 C 266.38 4.14101 -3.96621 0
M  V30 2654 N 265.876 4.90157 -4.8961 0
M  V30 2655 N 267.669 4.09808 -3.84726 0
M  V30 2656 H 259.82 0.680136 -2.01216 0
M  V30 2657 H 262.083 0.362133 -0.876107 0
M  V30 2658 H 261.789 1.87103 -2.97801 0
M  V30 2659 H 261.663 3.25481 -1.90635 0
M  V30 2660 H 264.05 2.75887 -1.0474 0
M  V30 2661 H 264.131 1.38028 -2.15364 0
M  V30 2662 H 263.775 2.96741 -4.12198 0
M  V30 2663 H 263.705 4.33776 -2.98574 0
M  V30 2664 H 266.196 2.86624 -2.46282 0
M  V30 2665 H 266.509 5.4347 -5.49418 0
M  V30 2666 H 264.854 4.89251 -4.93617 0
M  V30 2667 H 268.045 3.4949 -3.11408 0
M  V30 2668 H 268.218 4.66629 -4.49623 0
M  V30 2669 N 261.624 0.925811 1.2754 0
M  V30 2670 C 262.901 0.483726 1.89524 0
M  V30 2671 C 263.281 -1.03809 1.83812 0
M  V30 2672 O 262.629 -1.89143 1.28207 0
M  V30 2673 C 262.839 1.02769 3.33526 0
M  V30 2674 C 264.187 1.08703 4.10449 0
M  V30 2675 O 265.211 0.977175 3.42534 0
M  V30 2676 O 264.07 1.25599 5.31871 0
M  V30 2677 H 261.164 0.15529 0.812289 0
M  V30 2678 H 263.71 1.01738 1.35822 0
M  V30 2679 H 262.482 2.07155 3.31967 0
M  V30 2680 H 262.105 0.475567 3.94746 0
M  V30 2681 N 263.102 -1.41638 0.69111 0
M  V30 2682 C 264.33 -2.05628 0.22909 0
M  V30 2683 C 264.745 -1.51992 -1.11999 0
M  V30 2684 O 264.102 -0.666322 -1.69901 0
M  V30 2685 C 264.153 -3.61084 0.173283 0
M  V30 2686 O 263.874 -4.12735 1.46907 0
M  V30 2687 C 265.375 -4.42213 -0.310266 0
M  V30 2688 H 262.595 -0.662327 0.107534 0
M  V30 2689 H 265.139 -1.81489 0.942438 0
M  V30 2690 H 263.294 -3.84278 -0.490858 0
M  V30 2691 H 263.708 -5.06743 1.35322 0
M  V30 2692 H 265.182 -5.51194 -0.298196 0
M  V30 2693 H 265.659 -4.1799 -1.34838 0
M  V30 2694 H 266.265 -4.24074 0.322716 0
M  V30 2695 N 264.58 -0.43555 -1.51462 0
M  V30 2696 C 265.805 0.132627 -2.06976 0
M  V30 2697 C 266.23 1.35848 -1.30104 0
M  V30 2698 O 265.588 1.78112 -0.338493 0
M  V30 2699 C 265.636 0.43523 -3.57964 0
M  V30 2700 O 264.74 1.52198 -3.83288 0
M  V30 2701 H 264.081 0.00265 -0.663995 0
M  V30 2702 H 266.611 -0.616369 -1.95095 0
M  V30 2703 H 266.621 0.686206 -4.02188 0
M  V30 2704 H 265.296 -0.460739 -4.1334 0
M  V30 2705 H 263.873 1.2611 -3.50928 0
M  V30 2706 N 266.058 1.56714 -0.166846 0
M  V30 2707 C 267.283 2.01557 0.488833 0
M  V30 2708 C 267.708 1.0463 1.56314 0
M  V30 2709 O 267.066 0.0251304 1.81283 0
M  V30 2710 C 267.114 3.4503 1.04818 0
M  V30 2711 O 266.218 3.51163 2.16236 0
M  V30 2712 H 265.559 0.653516 0.117526 0
M  V30 2713 H 268.089 2.02818 -0.269421 0
M  V30 2714 H 268.099 3.84243 1.37191 0
M  V30 2715 H 266.774 4.15077 0.261572 0
M  V30 2716 H 265.351 3.23807 1.84942 0
M  V30 2717 N 267.536 -0.106894 1.57237 0
M  V30 2718 C 268.947 -0.662723 1.74542 0
M  V30 2719 C 269.298 -1.7971 0.787319 0
M  V30 2720 O 268.423 -2.16368 -0.0369636 0
M  V30 2721 C 269.018 -1.20896 3.16496 0
M  V30 2722 C 267.577 -1.71096 3.35266 0
M  V30 2723 C 266.724 -0.615642 2.7038 0
M  V30 2724 H 269.675 0.119106 1.58252 0
M  V30 2725 H 269.696 -2.07847 3.18716 0
M  V30 2726 H 269.208 -0.383122 3.86204 0
M  V30 2727 H 267.309 -2.56119 2.70618 0
M  V30 2728 H 267.422 -1.81208 4.43509 0
M  V30 2729 H 265.786 -1.05222 2.31949 0
M  V30 2730 H 266.569 0.199419 3.4272 0
M  V30 2731 N 269.014 -1.53014 -0.377408 0
M  V30 2732 C 270.43 -1.42523 -0.718281 0
M  V30 2733 C 270.63 -0.55487 -1.9371 0
M  V30 2734 O 269.686 -0.0327593 -2.52479 0
M  V30 2735 C 270.999 -2.85546 -0.942539 0
M  V30 2736 C 272.547 -2.95101 -1.04329 0
M  V30 2737 C 273.022 -4.3916 -1.3001 0
M  V30 2738 N 274.513 -4.42536 -1.36806 0
M  V30 2739 C 275.248 -5.51097 -1.58364 0
M  V30 2740 N 274.744 -6.69724 -1.77317 0
M  V30 2741 N 276.537 -5.38657 -1.60638 0
M  V30 2742 H 268.688 -2.08116 0.424426 0
M  V30 2743 H 270.951 -0.939352 0.127759 0
M  V30 2744 H 270.657 -3.51499 -0.118929 0
M  V30 2745 H 270.531 -3.28493 -1.85397 0
M  V30 2746 H 272.918 -2.29309 -1.85745 0
M  V30 2747 H 272.999 -2.55566 -0.109505 0
M  V30 2748 H 272.643 -5.05521 -0.490991 0
M  V30 2749 H 272.573 -4.76258 -2.24691 0
M  V30 2750 H 275.064 -3.57039 -1.23821 0
M  V30 2751 H 275.377 -7.48233 -1.93306 0
M  V30 2752 H 273.722 -6.72732 -1.74518 0
M  V30 2753 H 276.913 -4.44948 -1.45391 0
M  V30 2754 H 277.086 -6.2333 -1.77098 0
M  V30 2755 N 270.492 0.636531 -1.44174 0
M  V30 2756 C 271.455 1.73063 -1.50273 0
M  V30 2757 C 272.455 1.56113 -0.385397 0
M  V30 2758 O 273.645 1.61707 -0.64781 0
M  V30 2759 C 270.777 3.12096 -1.37145 0
M  V30 2760 H 271.97 1.69031 -2.47727 0
M  V30 2761 H 269.523 0.849706 -1.31186 0
M  V30 2762 H 270.258 3.21728 -0.407636 0
M  V30 2763 H 270.043 3.25805 -2.18159 0
M  V30 2764 H 271.533 3.91846 -1.44382 0
M  V30 2765 N 271.97 1.30982 0.876444 0
M  V30 2766 C 273.216 1.20474 1.63138 0
M  V30 2767 C 273.549 -0.238096 1.92735 0
M  V30 2768 O 272.824 -1.1692 1.55435 0
M  V30 2769 C 273.107 2.04244 2.96574 0
M  V30 2770 C 272.96 3.56793 2.73896 0
M  V30 2771 C 274.279 1.88684 3.97601 0
M  V30 2772 H 271.398 0.439001 0.591985 0
M  V30 2773 H 274.04 1.60704 1.01361 0
M  V30 2774 H 272.19 1.70063 3.493 0
M  V30 2775 H 273.862 4.01077 2.27892 0
M  V30 2776 H 272.105 3.80548 2.08245 0
M  V30 2777 H 272.776 4.10706 3.68815 0
M  V30 2778 H 275.252 2.18584 3.54062 0
M  V30 2779 H 274.128 2.4961 4.88862 0
M  V30 2780 H 274.389 0.848343 4.33884 0
M  V30 2781 N 273.449 -1.08991 1.13837 0
M  V30 2782 C 274.677 -1.85011 0.926202 0
M  V30 2783 C 275.092 -1.8135 -0.525127 0
M  V30 2784 O 274.449 -1.21287 -1.36366 0
M  V30 2785 C 274.5 -3.32802 1.41155 0
M  V30 2786 O 274.221 -3.36444 2.80601 0
M  V30 2787 C 275.722 -4.25649 1.23847 0
M  V30 2788 H 272.942 -0.584249 0.32999 0
M  V30 2789 H 275.486 -1.37688 1.51202 0
M  V30 2790 H 273.641 -3.77536 0.868631 0
M  V30 2791 H 274.055 -4.28657 3.02248 0
M  V30 2792 H 275.529 -5.27485 1.62675 0
M  V30 2793 H 276.006 -4.38828 0.18065 0
M  V30 2794 H 276.612 -3.86735 1.76964 0
M  V30 2795 N 274.927 -0.932562 -1.27047 0
M  V30 2796 C 275.837 -0.441219 -2.30414 0
M  V30 2797 C 276.853 0.480525 -1.67233 0
M  V30 2798 O 278.029 0.362151 -1.98117 0
M  V30 2799 C 275.094 0.293651 -3.45454 0
M  V30 2800 C 274.155 -0.663601 -4.2414 0
M  V30 2801 C 273.388 0.0362932 -5.33688 0
M  V30 2802 O 273.611 1.2548 -5.56427 0
M  V30 2803 O 272.545 -0.638015 -5.98509 0
M  V30 2804 H 276.371 -1.29962 -2.74488 0
M  V30 2805 H 273.956 -0.6981 -1.32087 0
M  V30 2806 H 275.838 0.707951 -4.15411 0
M  V30 2807 H 274.513 1.12758 -3.03426 0
M  V30 2808 H 273.42 -1.12768 -3.56699 0
M  V30 2809 H 274.753 -1.46489 -4.69896 0
M  V30 2810 N 276.405 1.4127 -0.698611 0
M  V30 2811 C 277.63 2.06024 -0.238512 0
M  V30 2812 C 278.055 1.5224 1.10475 0
M  V30 2813 O 277.413 0.650623 1.69223 0
M  V30 2814 C 277.461 3.59988 -0.209952 0
M  V30 2815 O 276.565 4.04282 0.814235 0
M  V30 2816 H 275.906 0.653829 -0.115775 0
M  V30 2817 H 278.436 1.8098 -0.954326 0
M  V30 2818 H 278.446 4.07979 -0.0418436 0
M  V30 2819 H 277.121 3.98503 -1.1903 0
M  V30 2820 H 275.698 3.6779 0.615234 0
M  V30 2821 N 277.883 0.443576 1.51229 0
M  V30 2822 C 278.813 -0.355142 2.30783 0
M  V30 2823 C 279.794 -1.0154 1.36468 0
M  V30 2824 O 280.979 -1.01785 1.65389 0
M  V30 2825 C 278.109 -1.45312 3.15439 0
M  V30 2826 C 277.063 -0.916002 4.18083 0
M  V30 2827 C 276.389 -2.1102 4.91299 0
M  V30 2828 C 277.689 0.0538602 5.22272 0
M  V30 2829 H 279.383 0.308767 2.97804 0
M  V30 2830 H 276.929 0.149937 1.43217 0
M  V30 2831 H 278.882 -2.01914 3.69876 0
M  V30 2832 H 277.606 -2.14541 2.46252 0
M  V30 2833 H 276.265 -0.372145 3.64706 0
M  V30 2834 H 275.913 -2.78882 4.18609 0
M  V30 2835 H 275.613 -1.75717 5.60712 0
M  V30 2836 H 277.137 -2.68164 5.48562 0
M  V30 2837 H 278.551 -0.422069 5.71744 0
M  V30 2838 H 276.948 0.319776 5.99247 0
M  V30 2839 H 278.018 0.98858 4.74716 0
M  V30 2840 N 279.361 -1.56624 0.175154 0
M  V30 2841 C 280.293 -2.15333 -0.785128 0
M  V30 2842 C 281.306 -1.1099 -1.19101 0
M  V30 2843 O 282.495 -1.38162 -1.13019 0
M  V30 2844 C 279.595 -2.68427 -2.06882 0
M  V30 2845 C 278.768 -3.97466 -1.8259 0
M  V30 2846 C 277.827 -4.35585 -2.95215 0
M  V30 2847 O 276.853 -5.03389 -2.65684 0
M  V30 2848 N 278.055 -3.97457 -4.23094 0
M  V30 2849 H 280.82 -2.98359 -0.283187 0
M  V30 2850 H 278.381 -1.61898 -0.00749817 0
M  V30 2851 H 280.373 -2.90924 -2.81328 0
M  V30 2852 H 278.943 -1.89968 -2.48256 0
M  V30 2853 H 278.163 -3.83307 -0.920287 0
M  V30 2854 H 279.451 -4.81736 -1.63733 0
M  V30 2855 H 278.849 -3.42878 -4.49945 0
M  V30 2856 H 277.406 -4.24947 -4.9423 0
M  V30 2857 N 280.839 0.0985539 -1.57292 0
M  V30 2858 C 281.786 1.11981 -2.01814 0
M  V30 2859 C 282.756 1.39999 -0.89384 0
M  V30 2860 O 283.941 1.5152 -1.15958 0
M  V30 2861 C 281.081 2.43577 -2.44467 0
M  V30 2862 C 280.194 2.2232 -3.70402 0
M  V30 2863 C 279.329 3.4729 -4.01949 0
M  V30 2864 C 278.368 3.2128 -5.21005 0
M  V30 2865 N 277.505 4.38507 -5.48321 0
M  V30 2866 H 282.345 0.733149 -2.88841 0
M  V30 2867 H 279.882 0.350482 -1.42864 0
M  V30 2868 H 281.84 3.20373 -2.6724 0
M  V30 2869 H 280.47 2.80097 -1.60455 0
M  V30 2870 H 279.522 1.36343 -3.55126 0
M  V30 2871 H 280.834 1.99089 -4.57345 0
M  V30 2872 H 279.988 4.32495 -4.25479 0
M  V30 2873 H 278.727 3.73572 -3.13521 0
M  V30 2874 H 277.732 2.34468 -4.97298 0
M  V30 2875 H 278.957 2.96348 -6.11028 0
M  V30 2876 H 276.903 4.64871 -4.62851 0
M  V30 2877 H 276.82 4.18455 -6.29628 0
M  V30 2878 H 278.088 5.24787 -5.76385 0
M  V30 2879 N 282.317 1.53212 0.369288 0
M  V30 2880 C 283.247 1.82365 1.45826 0
M  V30 2881 C 284.228 0.676907 1.56051 0
M  V30 2882 O 285.413 0.926401 1.70679 0
M  V30 2883 C 282.543 2.01023 2.83208 0
M  V30 2884 C 281.497 3.1678 2.8781 0
M  V30 2885 C 280.823 3.20724 4.27832 0
M  V30 2886 C 282.123 4.55447 2.55667 0
M  V30 2887 H 283.817 2.73559 1.21678 0
M  V30 2888 H 281.363 1.3163 0.583911 0
M  V30 2889 H 283.316 2.20001 3.59413 0
M  V30 2890 H 282.04 1.06536 3.08736 0
M  V30 2891 H 280.699 2.97616 2.14056 0
M  V30 2892 H 280.347 2.23882 4.50429 0
M  V30 2893 H 280.047 3.98496 4.31827 0
M  V30 2894 H 281.571 3.41881 5.05915 0
M  V30 2895 H 282.985 4.74611 3.21586 0
M  V30 2896 H 281.382 5.35432 2.70984 0
M  V30 2897 H 282.452 4.60812 1.5093 0
M  V30 2898 N 283.795 -0.628877 1.44509 0
M  V30 2899 C 285.023 -1.41554 1.50897 0
M  V30 2900 C 285.438 -1.8832 0.134564 0
M  V30 2901 O 284.795 -1.60969 -0.859965 0
M  V30 2902 C 284.846 -2.63435 2.47556 0
M  V30 2903 O 284.567 -2.18619 3.79654 0
M  V30 2904 C 286.068 -3.56537 2.63431 0
M  V30 2905 H 283.288 -0.434044 0.511709 0
M  V30 2906 H 285.832 -0.768895 1.89495 0
M  V30 2907 H 283.987 -3.24187 2.12089 0
M  V30 2908 H 284.401 -2.97652 4.31861 0
M  V30 2909 H 285.875 -4.38657 3.35088 0
M  V30 2910 H 286.352 -4.05493 1.68738 0
M  V30 2911 H 286.958 -3.01653 2.9981 0
M  V30 2912 N 285.273 -1.31445 -0.869486 0
M  V30 2913 C 286.203 -1.21727 -1.99261 0
M  V30 2914 C 287.184 -0.104359 -1.6978 0
M  V30 2915 O 288.369 -0.289038 -1.92037 0
M  V30 2916 C 285.499 -0.924317 -3.34774 0
M  V30 2917 C 284.453 -1.99685 -3.78563 0
M  V30 2918 C 283.779 -1.55658 -5.11541 0
M  V30 2919 C 285.079 -3.41003 -3.95619 0
M  V30 2920 H 286.773 -2.1569 -2.07649 0
M  V30 2921 H 284.319 -1.03839 -0.997675 0
M  V30 2922 H 286.272 -0.842934 -4.12883 0
M  V30 2923 H 284.996 0.0509793 -3.2656 0
M  V30 2924 H 283.655 -2.06813 -3.02694 0
M  V30 2925 H 283.303 -0.569132 -4.9977 0
M  V30 2926 H 283.003 -2.27409 -5.41811 0
M  V30 2927 H 284.527 -1.48928 -5.92159 0
M  V30 2928 H 285.941 -3.36547 -4.64122 0
M  V30 2929 H 284.338 -4.10975 -4.37286 0
M  V30 2930 H 285.408 -3.81754 -2.98985 0
M  V30 2931 N 286.751 1.08385 -1.14413 0
M  V30 2932 C 287.999 1.80419 -0.910679 0
M  V30 2933 C 288.32 1.86658 0.564243 0
M  V30 2934 O 287.59 1.35985 1.41014 0
M  V30 2935 H 286.17 0.668204 -0.333934 0
M  V30 2936 H 288.832 1.31037 -1.44275 0
M  V30 2937 H 287.928 2.83238 -1.31082 0
M  V30 2938 N 288.23 0.939286 1.26551 0
M  V30 2939 C 289.455 0.602008 1.98471 0
M  V30 2940 C 289.88 -0.815624 1.69497 0
M  V30 2941 O 289.238 -1.54912 0.941905 0
M  V30 2942 C 289.286 0.848407 3.50477 0
M  V30 2943 O 288.39 -0.0804009 4.12322 0
M  V30 2944 H 287.731 0.23049 0.622712 0
M  V30 2945 H 290.261 1.2617 1.61066 0
M  V30 2946 H 290.271 0.768553 4.00696 0
M  V30 2947 H 288.946 1.88171 3.70897 0
M  V30 2948 H 287.523 0.0503508 3.72866 0
M  V30 2949 N 289.708 -1.40897 0.706093 0
M  V30 2950 C 290.671 -2.29131 0.0562841 0
M  V30 2951 C 291.671 -1.44901 -0.697166 0
M  V30 2952 O 292.861 -1.65926 -0.530484 0
M  V30 2953 C 289.993 -3.27957 -0.93043 0
M  V30 2954 H 291.186 -2.88091 0.833284 0
M  V30 2955 H 288.739 -1.4906 0.470192 0
M  V30 2956 H 289.474 -2.73997 -1.73482 0
M  V30 2957 H 289.259 -3.90124 -0.393166 0
M  V30 2958 H 290.749 -3.94049 -1.38256 0
M  V30 2959 N 291.186 -0.45159 -1.50991 0
M  V30 2960 C 292.116 0.342898 -2.30969 0
M  V30 2961 C 293.097 1.00815 -1.37005 0
M  V30 2962 O 294.282 1.00907 -1.65926 0
M  V30 2963 C 291.412 1.43637 -3.16205 0
M  V30 2964 C 290.366 0.893818 -4.18563 0
M  V30 2965 C 289.692 2.08411 -4.92411 0
M  V30 2966 C 290.992 -0.0815568 -5.22236 0
M  V30 2967 H 292.686 -0.324556 -2.97636 0
M  V30 2968 H 290.232 -0.157531 -1.43136 0
M  V30 2969 H 292.185 1.9995 -3.70942 0
M  V30 2970 H 290.909 2.13232 -2.47386 0
M  V30 2971 H 289.568 0.352798 -3.64898 0
M  V30 2972 H 289.216 2.76658 -4.20082 0
M  V30 2973 H 288.916 1.72741 -5.61636 0
M  V30 2974 H 290.44 2.65251 -5.49976 0
M  V30 2975 H 291.854 0.391742 -5.7196 0
M  V30 2976 H 290.251 -0.351551 -5.99069 0
M  V30 2977 H 291.321 -1.01374 -4.74185 0
M  V30 2978 N 292.664 1.56529 -0.183458 0
M  V30 2979 C 293.627 2.17324 0.728223 0
M  V30 2980 C 294.627 1.12453 1.14939 0
M  V30 2981 O 295.817 1.37902 1.06437 0
M  V30 2982 C 292.949 2.76591 1.99274 0
M  V30 2983 H 294.142 2.99241 0.198772 0
M  V30 2984 H 291.695 1.5616 0.0661391 0
M  V30 2985 H 292.43 1.98441 2.56499 0
M  V30 2986 H 292.215 3.5335 1.69959 0
M  V30 2987 H 293.705 3.23311 2.6431 0
M  V30 2988 N 294.142 -0.090211 1.57342 0
M  V30 2989 C 295.105 -1.09335 2.01441 0
M  V30 2990 C 296.105 -1.32666 0.908641 0
M  V30 2991 O 297.295 -1.28697 1.174 0
M  V30 2992 C 294.427 -2.44136 2.3793 0
M  V30 2993 H 295.62 -0.713662 2.91285 0
M  V30 2994 H 293.173 -0.335404 1.52659 0
M  V30 2995 H 293.908 -2.86972 1.51055 0
M  V30 2996 H 293.693 -2.28548 3.18603 0
M  V30 2997 H 295.183 -3.16277 2.72688 0
M  V30 2998 N 295.62 -1.53406 -0.361157 0
M  V30 2999 C 297.031 -1.61442 -0.937728 0
M  V30 3000 C 297.382 -0.48461 -1.90121 0
M  V30 3001 O 296.507 0.388312 -2.12888 0
M  V30 3002 C 297.102 -2.92624 -1.70753 0
M  V30 3003 C 295.661 -3.02981 -2.23337 0
M  V30 3004 C 294.808 -2.5677 -1.04712 0
M  V30 3005 H 297.759 -1.58083 -0.139816 0
M  V30 3006 H 297.78 -2.80675 -2.56908 0
M  V30 3007 H 297.292 -3.74834 -1.00604 0
M  V30 3008 H 295.393 -2.25368 -2.96715 0
M  V30 3009 H 295.506 -4.0814 -2.50916 0
M  V30 3010 H 293.87 -2.11752 -1.41539 0
M  V30 3011 H 294.653 -3.41402 -0.360539 0
M  V30 3012 N 297.098 0.621204 -1.44841 0
M  V30 3013 C 298.03 1.74615 -1.48466 0
M  V30 3014 C 299.043 1.58377 -0.37691 0
M  V30 3015 O 300.232 1.66508 -0.643215 0
M  V30 3016 C 297.332 3.12459 -1.31236 0
M  V30 3017 C 296.505 3.55064 -2.55438 0
M  V30 3018 C 295.564 4.71821 -2.32963 0
M  V30 3019 O 294.59 4.79628 -3.06505 0
M  V30 3020 N 295.792 5.64186 -1.36654 0
M  V30 3021 H 298.557 1.71973 -2.45449 0
M  V30 3022 H 296.118 0.806077 -1.40407 0
M  V30 3023 H 298.11 3.88302 -1.14032 0
M  V30 3024 H 296.68 3.09686 -0.4258 0
M  V30 3025 H 295.9 2.69324 -2.87851 0
M  V30 3026 H 297.188 3.80284 -3.38026 0
M  V30 3027 H 296.586 5.6058 -0.759344 0
M  V30 3028 H 295.143 6.39618 -1.25425 0
M  V30 3029 N 298.576 1.31904 0.862503 0
M  V30 3030 C 299.992 1.10724 1.14945 0
M  V30 3031 C 300.192 -0.117421 2.01158 0
M  V30 3032 O 299.248 -0.804595 2.39338 0
M  V30 3033 C 300.561 2.38267 1.83437 0
M  V30 3034 C 302.109 2.43949 1.96106 0
M  V30 3035 C 302.584 3.71394 2.68013 0
M  V30 3036 N 304.075 3.72331 2.75543 0
M  V30 3037 C 304.81 4.67641 3.31812 0
M  V30 3038 N 304.306 5.73313 3.88953 0
M  V30 3039 N 306.099 4.5515 3.29841 0
M  V30 3040 H 298.25 2.10436 0.288191 0
M  V30 3041 H 300.513 0.928705 0.190292 0
M  V30 3042 H 300.219 3.27759 1.27542 0
M  V30 3043 H 300.093 2.48633 2.83657 0
M  V30 3044 H 302.48 1.54922 2.51164 0
M  V30 3045 H 302.561 2.37543 0.949059 0
M  V30 3046 H 302.205 4.60791 2.13621 0
M  V30 3047 H 302.135 3.75069 3.69636 0
M  V30 3048 H 304.626 2.95947 2.34997 0
M  V30 3049 H 304.939 6.42107 4.30022 0
M  V30 3050 H 303.284 5.77077 3.87308 0
M  V30 3051 H 306.475 3.71766 2.84443 0
M  V30 3052 H 306.648 5.29604 3.73394 0
M  V30 3053 N 300.054 -1.07777 1.14986 0
M  V30 3054 C 300.986 -2.14769 0.800436 0
M  V30 3055 C 301.999 -1.61739 -0.185595 0
M  V30 3056 O 303.188 -1.78462 0.0370358 0
M  V30 3057 C 300.288 -3.38481 0.168533 0
M  V30 3058 C 299.461 -4.20876 1.1909 0
M  V30 3059 C 298.52 -5.22976 0.581575 0
M  V30 3060 O 297.546 -5.55388 1.24633 0
M  V30 3061 N 298.748 -5.76976 -0.638706 0
M  V30 3062 H 301.513 -2.45348 1.72118 0
M  V30 3063 H 299.074 -1.23645 1.04515 0
M  V30 3064 H 301.066 -4.03916 -0.251764 0
M  V30 3065 H 299.636 -3.05651 -0.655467 0
M  V30 3066 H 298.856 -3.51322 1.78791 0
M  V30 3067 H 300.144 -4.7274 1.88133 0
M  V30 3068 H 299.542 -5.52886 -1.19723 0
M  V30 3069 H 298.099 -6.44061 -1.00142 0
M  V30 3070 N 301.532 -0.945985 -1.26051 0
M  V30 3071 C 302.464 -0.416662 -2.25381 0
M  V30 3072 C 303.477 0.462712 -1.56086 0
M  V30 3073 O 304.666 0.272383 -1.7641 0
M  V30 3074 C 301.766 0.419812 -3.3629 0
M  V30 3075 C 300.939 -0.444531 -4.35135 0
M  V30 3076 C 299.998 0.332305 -5.2515 0
M  V30 3077 O 299.024 -0.266324 -5.68577 0
M  V30 3078 N 300.226 1.62763 -5.57215 0
M  V30 3079 H 302.991 -1.27059 -2.71433 0
M  V30 3080 H 300.552 -0.815392 -1.39868 0
M  V30 3081 H 302.544 0.947013 -3.93464 0
M  V30 3082 H 301.114 1.17456 -2.89694 0
M  V30 3083 H 300.334 -1.15291 -3.76964 0
M  V30 3084 H 301.622 -1.03478 -4.98166 0
M  V30 3085 H 301.02 2.13603 -5.23823 0
M  V30 3086 H 299.577 2.10097 -6.17011 0
M  V30 3087 N 303.011 1.40521 -0.713556 0
M  V30 3088 C 304.258 2.00923 -0.25219 0
M  V30 3089 C 304.586 1.56571 1.15395 0
M  V30 3090 O 303.841 0.775874 1.79663 0
M  V30 3091 C 304.14 3.56317 -0.278 0
M  V30 3092 C 303.806 4.20246 -1.63415 0
M  V30 3093 C 302.468 4.37422 -2.00538 0
M  V30 3094 C 304.82 4.55923 -2.52554 0
M  V30 3095 C 302.148 4.87558 -3.2635 0
M  V30 3096 C 304.5 5.07458 -3.77716 0
M  V30 3097 C 303.164 5.22843 -4.14959 0
M  V30 3098 H 302.434 0.735231 -0.0922829 0
M  V30 3099 H 305.081 1.68161 -0.916188 0
M  V30 3100 H 303.386 3.88976 0.469567 0
M  V30 3101 H 305.083 4.00883 0.0967819 0
M  V30 3102 H 301.673 4.07263 -1.33546 0
M  V30 3103 H 305.857 4.42291 -2.25149 0
M  V30 3104 H 301.113 4.97654 -3.55176 0
M  V30 3105 H 305.287 5.34041 -4.4696 0
M  V30 3106 H 302.914 5.61454 -5.12516 0
M  V30 3107 N 304.489 0.459591 1.5075 0
M  V30 3108 C 305.735 -0.0994966 2.02556 0
M  V30 3109 C 306.068 -1.40399 1.3417 0
M  V30 3110 O 305.343 -1.88892 0.463683 0
M  V30 3111 C 305.626 -0.295242 3.58888 0
M  V30 3112 C 305.479 1.02947 4.37861 0
M  V30 3113 C 306.798 -1.05502 4.27267 0
M  V30 3114 H 303.917 -0.034686 0.736183 0
M  V30 3115 H 306.559 0.602938 1.8018 0
M  V30 3116 H 304.709 -0.893563 3.78084 0
M  V30 3117 H 306.381 1.66348 4.30263 0
M  V30 3118 H 304.624 1.62885 4.02058 0
M  V30 3119 H 305.295 0.846281 5.45474 0
M  V30 3120 H 307.771 -0.547993 4.12476 0
M  V30 3121 H 306.647 -1.16077 5.36486 0
M  V30 3122 H 306.908 -2.08875 3.89645 0
M  V30 3123 N 305.967 -1.56429 0.191757 0
M  V30 3124 C 307.244 -1.89224 -0.495332 0
M  V30 3125 C 307.624 -1.10478 -1.79883 0
M  V30 3126 O 306.972 -0.204852 -2.2758 0
M  V30 3127 C 307.182 -3.41548 -0.717367 0
M  V30 3128 C 308.53 -4.11711 -1.03823 0
M  V30 3129 O 309.554 -3.4698 -0.805204 0
M  V30 3130 O 308.413 -5.2611 -1.47887 0
M  V30 3131 H 305.507 -0.785788 -0.25781 0
M  V30 3132 H 308.053 -1.68111 0.231721 0
M  V30 3133 H 306.825 -3.90772 0.203287 0
M  V30 3134 H 306.448 -3.68342 -1.497 0
M  V30 3135 N 307.445 0.0818655 -1.57387 0
M  V30 3136 C 308.691 0.778884 -1.87896 0
M  V30 3137 C 309.046 1.75692 -0.784229 0
M  V30 3138 O 308.339 1.90417 0.212567 0
M  V30 3139 C 308.533 1.53513 -3.22752 0
M  V30 3140 C 308.362 0.631838 -4.45239 0
M  V30 3141 C 307.132 0.272571 -5.04564 0
M  V30 3142 C 309.33 -0.0670191 -5.14256 0
M  V30 3143 N 307.312 -0.637498 -6.10581 0
M  V30 3144 C 308.683 -0.834653 -6.14356 0
M  V30 3145 C 310.738 -0.139551 -4.97704 0
M  V30 3146 C 309.441 -1.66806 -6.99691 0
M  V30 3147 C 311.467 -0.959903 -5.83558 0
M  V30 3148 C 310.829 -1.71561 -6.83188 0
M  V30 3149 H 306.928 0.260764 -0.737242 0
M  V30 3150 H 309.512 0.0408227 -1.94657 0
M  V30 3151 H 307.683 2.24398 -3.17018 0
M  V30 3152 H 309.415 2.18038 -3.40942 0
M  V30 3153 H 306.17 0.62319 -4.69482 0
M  V30 3154 H 306.594 -1.08548 -6.68241 0
M  V30 3155 H 311.236 0.430376 -4.20604 0
M  V30 3156 H 308.954 -2.249 -7.76174 0
M  V30 3157 H 312.54 -1.01887 -5.72809 0
M  V30 3158 H 311.42 -2.34017 -7.48469 0
M  V30 3159 N 308.923 1.53595 0.353017 0
M  V30 3160 C 309.853 1.83902 1.43883 0
M  V30 3161 C 310.834 0.693421 1.55324 0
M  V30 3162 O 312.019 0.944452 1.69687 0
M  V30 3163 C 309.149 2.04016 2.8106 0
M  V30 3164 C 308.103 3.19814 2.84434 0
M  V30 3165 C 307.429 3.25244 4.24406 0
M  V30 3166 C 308.729 4.58133 2.50822 0
M  V30 3167 H 310.423 2.74835 1.1877 0
M  V30 3168 H 307.969 1.32242 0.569917 0
M  V30 3169 H 309.922 2.238 3.57059 0
M  V30 3170 H 308.646 1.09804 3.07588 0
M  V30 3171 H 307.305 2.9987 2.10887 0
M  V30 3172 H 306.953 2.28646 4.48029 0
M  V30 3173 H 306.653 4.03054 4.27576 0
M  V30 3174 H 308.177 3.47228 5.0226 0
M  V30 3175 H 309.591 4.77995 3.16534 0
M  V30 3176 H 307.988 5.38276 2.6529 0
M  V30 3177 H 309.058 4.62387 1.46034 0
M  V30 3178 N 310.401 -0.613514 1.45168 0
M  V30 3179 C 311.348 -1.72456 1.53387 0
M  V30 3180 C 312.318 -1.6169 0.380191 0
M  V30 3181 O 313.503 -1.81356 0.592836 0
M  V30 3182 C 310.643 -3.10753 1.50088 0
M  V30 3183 C 309.756 -3.32368 2.75963 0
M  V30 3184 C 308.891 -4.60737 2.64376 0
M  V30 3185 C 307.93 -4.7559 3.85332 0
M  V30 3186 N 307.067 -5.95253 3.72315 0
M  V30 3187 H 311.907 -1.64768 2.48305 0
M  V30 3188 H 309.444 -0.803503 1.23216 0
M  V30 3189 H 311.402 -3.90758 1.46164 0
M  V30 3190 H 310.032 -3.17413 0.587243 0
M  V30 3191 H 309.084 -2.4618 2.89999 0
M  V30 3192 H 310.396 -3.39218 3.65695 0
M  V30 3193 H 309.55 -5.48928 2.58385 0
M  V30 3194 H 308.289 -4.56275 1.72233 0
M  V30 3195 H 307.294 -3.85824 3.91688 0
M  V30 3196 H 308.519 -4.81854 4.78533 0
M  V30 3197 H 306.465 -5.91847 2.82937 0
M  V30 3198 H 306.382 -6.03236 4.55677 0
M  V30 3199 H 307.65 -6.85958 3.70246 0
M  V30 3200 N 311.879 -1.3236 -0.855495 0
M  V30 3201 C 313.127 -1.22629 -1.60644 0
M  V30 3202 C 313.448 0.212136 -1.93843 0
M  V30 3203 O 312.718 1.13666 -1.59552 0
M  V30 3204 H 311.298 -0.450882 -0.595579 0
M  V30 3205 H 313.96 -1.65871 -1.02337 0
M  V30 3206 H 313.056 -1.80832 -2.54374 0
M  V30 3207 N 313.357 1.07166 -1.15556 0
M  V30 3208 C 314.305 2.16517 -0.8499 0
M  V30 3209 C 315.299 1.68468 0.177454 0
M  V30 3210 O 316.505 1.79971 0.0323026 0
M  V30 3211 H 312.88 0.706652 -0.25719 0
M  V30 3212 H 314.851 2.39514 -1.77976 0
M  V30 3213 C 313.6 3.45855 -0.357682 0
M  V30 3214 H 312.923 3.83214 -1.13961 0
M  V30 3215 H 314.363 4.23607 -0.182489 0
M  V30 3216 C 312.822 3.24062 0.921152 0
M  V30 3217 O 313.352 3.48813 1.9923 0
M  V30 3218 N 311.558 2.77539 0.86141 0
M  V30 3219 H 311.105 2.57598 -0.0104408 0
M  V30 3220 H 311.063 2.63337 1.71758 0
M  V30 3221 N 314.835 0.952656 1.25548 0
M  V30 3222 C 316.063 0.623496 1.97282 0
M  V30 3223 C 316.478 -0.803987 1.70826 0
M  V30 3224 O 315.835 -1.53755 0.983147 0
M  V30 3225 C 315.886 0.870209 3.5087 0
M  V30 3226 O 315.607 2.24156 3.76412 0
M  V30 3227 C 317.108 0.553164 4.39835 0
M  V30 3228 H 314.328 0.233931 0.628902 0
M  V30 3229 H 316.872 1.27649 1.59768 0
M  V30 3230 H 315.027 0.263652 3.86502 0
M  V30 3231 H 315.441 2.31021 4.70882 0
M  V30 3232 H 316.915 0.776342 5.46513 0
M  V30 3233 H 317.392 -0.512215 4.36203 0
M  V30 3234 H 317.998 1.13896 4.09766 0
M  V30 3235 N 316.313 -1.40141 0.720998 0
M  V30 3236 C 317.541 -2.05096 0.272656 0
M  V30 3237 C 317.956 -1.54334 -1.0875 0
M  V30 3238 O 317.313 -0.702211 -1.6845 0
M  V30 3239 C 317.364 -3.60636 0.249835 0
M  V30 3240 O 317.085 -4.09526 1.55629 0
M  V30 3241 C 318.586 -4.42772 -0.216396 0
M  V30 3242 H 315.806 -0.659897 0.121558 0
M  V30 3243 H 318.35 -1.79449 0.980723 0
M  V30 3244 H 316.505 -3.85232 -0.409237 0
M  V30 3245 H 316.919 -5.03758 1.4604 0
M  V30 3246 H 318.393 -5.51702 -0.181212 0
M  V30 3247 H 318.87 -4.20756 -1.25941 0
M  V30 3248 H 319.476 -4.23294 0.412596 0
M  V30 3249 N 317.792 -0.46758 -1.50504 0
M  V30 3250 C 319.04 0.0884469 -2.01906 0
M  V30 3251 C 319.361 1.40532 -1.35188 0
M  V30 3252 O 318.631 1.89515 -0.496079 0
M  V30 3253 H 317.211 0.0356765 -0.746148 0
M  V30 3254 H 319.873 -0.6172 -1.84869 0
M  V30 3255 H 318.969 0.2425 -3.11156 0
M  V30 3256 N 319.27 1.56325 -0.20005 0
M  V30 3257 C 320.218 2.20666 0.735482 0
M  V30 3258 C 321.212 1.17934 1.21605 0
M  V30 3259 O 322.418 1.36068 1.17837 0
M  V30 3260 H 318.793 0.70725 0.255542 0
M  V30 3261 H 320.764 2.9792 0.169166 0
M  V30 3262 C 319.513 2.88391 1.94232 0
M  V30 3263 H 318.836 3.67185 1.58161 0
M  V30 3264 H 320.276 3.3684 2.57517 0
M  V30 3265 C 318.735 1.89692 2.78421 0
M  V30 3266 O 319.265 1.40032 3.76502 0
M  V30 3267 N 317.471 1.57813 2.44015 0
M  V30 3268 H 317.018 1.9839 1.64314 0
M  V30 3269 H 316.976 0.920325 3.00628 0
M  V30 3270 N 320.748 -0.0735177 1.57428 0
M  V30 3271 C 321.698 -1.09442 2.00016 0
M  V30 3272 C 322.682 -1.34575 0.881947 0
M  V30 3273 O 323.874 -1.34905 1.14585 0
M  V30 3274 C 321.003 -2.40865 2.4462 0
M  V30 3275 C 320.089 -2.19014 3.63172 0
M  V30 3276 N 320.48 -1.67087 4.77405 0
M  V30 3277 C 318.778 -2.49494 3.69688 0
M  V30 3278 C 319.479 -1.6001 5.5926 0
M  V30 3279 N 318.455 -2.05999 5.03056 0
M  V30 3280 H 322.257 -0.686227 2.85776 0
M  V30 3281 H 319.771 -0.280617 1.59957 0
M  V30 3282 H 321.768 -3.14763 2.73368 0
M  V30 3283 H 320.428 -2.82403 1.60246 0
M  V30 3284 H 321.439 -1.35975 4.99731 0
M  V30 3285 H 318.116 -2.94409 2.96023 0
M  V30 3286 H 319.506 -1.2073 6.60964 0
M  V30 3287 N 322.226 -1.5378 -0.344866 0
M  V30 3288 C 323.642 -1.44015 -0.687888 0
M  V30 3289 C 323.842 -0.595834 -1.92489 0
M  V30 3290 O 322.898 -0.0863064 -2.52352 0
M  V30 3291 C 324.211 -2.87481 -0.881758 0
M  V30 3292 C 325.759 -2.97247 -0.980459 0
M  V30 3293 C 326.234 -4.41819 -1.20665 0
M  V30 3294 N 327.725 -4.45339 -1.27389 0
M  V30 3295 C 328.46 -5.54333 -1.46639 0
M  V30 3296 N 327.956 -6.73335 -1.63071 0
M  V30 3297 N 329.749 -5.41944 -1.49176 0
M  V30 3298 H 321.9 -2.07169 0.468475 0
M  V30 3299 H 324.163 -0.93643 0.147655 0
M  V30 3300 H 323.869 -3.51672 -0.0443444 0
M  V30 3301 H 323.743 -3.32352 -1.78388 0
M  V30 3302 H 326.13 -2.33197 -1.8084 0
M  V30 3303 H 326.211 -2.5574 -0.0552713 0
M  V30 3304 H 325.855 -5.06449 -0.383652 0
M  V30 3305 H 325.785 -4.80917 -2.14539 0
M  V30 3306 H 328.276 -3.59585 -1.1622 0
M  V30 3307 H 328.589 -7.52165 -1.77391 0
M  V30 3308 H 326.934 -6.76282 -1.60209 0
M  V30 3309 H 330.125 -4.47932 -1.3592 0
M  V30 3310 H 330.298 -6.26946 -1.63837 0
M  V30 3311 N 323.704 0.605807 -1.45491 0
M  V30 3312 C 324.953 1.36086 -1.48874 0
M  V30 3313 C 325.266 1.95131 -0.135333 0
M  V30 3314 O 326.472 2.7146 -0.0468144 0
M  V30 3315 C 324.928 2.46518 -2.62215 0
M  V30 3316 C 324.536 1.93877 -4.03876 0
M  V30 3317 C 326.28 3.23512 -2.74846 0
M  V30 3318 C 324.187 3.01801 -5.08596 0
M  V30 3319 H 323.117 0.511497 -0.553974 0
M  V30 3320 H 325.768 0.649089 -1.71636 0
M  V30 3321 H 324.15 3.20388 -2.32739 0
M  V30 3322 H 325.324 1.26704 -4.43038 0
M  V30 3323 H 323.639 1.29622 -3.95711 0
M  V30 3324 H 326.236 4.04013 -3.50253 0
M  V30 3325 H 326.579 3.74631 -1.81542 0
M  V30 3326 H 327.112 2.56742 -3.03856 0
M  V30 3327 H 323.851 2.55597 -6.03614 0
M  V30 3328 H 323.371 3.67535 -4.74002 0
M  V30 3329 H 325.05 3.66152 -5.33424 0
M  V30 3330 N 325.182 1.32811 0.848464 0
M  V30 3331 C 326.598 1.11937 1.13764 0
M  V30 3332 C 326.798 -0.0960789 2.01271 0
M  V30 3333 O 325.854 -0.779165 2.40178 0
M  V30 3334 C 327.167 2.402 1.809 0
M  V30 3335 C 328.715 2.46016 1.93508 0
M  V30 3336 C 329.19 3.74215 2.64059 0
M  V30 3337 N 330.681 3.75232 2.71579 0
M  V30 3338 C 331.416 4.71134 3.26833 0
M  V30 3339 N 330.912 5.77406 3.8285 0
M  V30 3340 N 332.705 4.58623 3.24995 0
M  V30 3341 H 324.856 2.1073 0.265855 0
M  V30 3342 H 327.119 0.930671 0.180431 0
M  V30 3343 H 326.825 3.29093 1.24058 0
M  V30 3344 H 326.699 2.51628 2.81004 0
M  V30 3345 H 329.086 1.57577 2.49506 0
M  V30 3346 H 329.167 2.38536 0.923811 0
M  V30 3347 H 328.811 4.63031 2.08722 0
M  V30 3348 H 328.741 3.78968 3.65637 0
M  V30 3349 H 331.232 2.98423 2.31845 0
M  V30 3350 H 331.545 6.46632 4.23187 0
M  V30 3351 H 329.89 5.81152 3.81165 0
M  V30 3352 H 333.081 3.74762 2.80484 0
M  V30 3353 H 333.254 5.33535 3.67756 0
M  V30 3354 N 326.66 -1.06551 1.16123 0
M  V30 3355 C 327.623 -2.12132 0.867906 0
M  V30 3356 C 328.623 -1.60224 -0.135944 0
M  V30 3357 O 329.813 -1.73943 0.0946422 0
M  V30 3358 C 326.945 -3.396 0.297419 0
M  V30 3359 H 328.138 -2.39586 1.80385 0
M  V30 3360 H 325.691 -1.22574 0.969812 0
M  V30 3361 H 326.426 -3.17794 -0.64633 0
M  V30 3362 H 326.211 -3.78581 1.02073 0
M  V30 3363 H 327.701 -4.17455 0.110052 0
M  V30 3364 N 328.138 -0.959301 -1.25041 0
M  V30 3365 C 329.101 -0.487677 -2.23952 0
M  V30 3366 C 330.101 0.41119 -1.55454 0
M  V30 3367 O 331.291 0.207825 -1.72956 0
M  V30 3368 C 328.423 0.294807 -3.39623 0
M  V30 3369 H 329.616 -1.36198 -2.67189 0
M  V30 3370 H 327.169 -0.743042 -1.37508 0
M  V30 3371 H 327.904 1.18658 -3.01813 0
M  V30 3372 H 327.689 -0.35012 -3.90534 0
M  V30 3373 H 329.179 0.614089 -4.1306 0
M  V30 3374 N 329.616 1.39756 -0.72842 0
M  V30 3375 C 330.862 2.00942 -0.273892 0
M  V30 3376 C 331.195 1.57656 1.13394 0
M  V30 3377 O 330.47 0.802434 1.77176 0
M  V30 3378 C 330.753 3.58211 -0.368346 0
M  V30 3379 C 330.606 4.11534 -1.81548 0
M  V30 3380 C 331.925 4.39372 0.253054 0
M  V30 3381 H 329.044 0.730047 -0.100996 0
M  V30 3382 H 331.686 1.66056 -0.923337 0
M  V30 3383 H 329.836 3.88061 0.184588 0
M  V30 3384 H 331.508 3.92431 -2.42478 0
M  V30 3385 H 329.751 3.65341 -2.33898 0
M  V30 3386 H 330.422 5.20682 -1.83288 0
M  V30 3387 H 332.898 4.15527 -0.218224 0
M  V30 3388 H 331.774 5.48677 0.156585 0
M  V30 3389 H 332.035 4.21358 1.33826 0
M  V30 3390 N 331.094 0.475555 1.50254 0
M  V30 3391 C 332.505 0.0215174 1.86688 0
M  V30 3392 C 332.856 -1.38467 1.39001 0
M  V30 3393 O 331.981 -2.02732 0.756894 0
M  V30 3394 C 332.576 0.0322715 3.38785 0
M  V30 3395 C 331.135 -0.366314 3.74613 0
M  V30 3396 C 330.282 0.415832 2.74164 0
M  V30 3397 H 333.233 0.689612 1.42934 0
M  V30 3398 H 333.254 -0.76889 3.7265 0
M  V30 3399 H 332.766 1.05584 3.73462 0
M  V30 3400 H 330.867 -1.39406 3.45538 0
M  V30 3401 H 330.98 -0.064555 4.79057 0
M  V30 3402 H 329.344 -0.131048 2.54363 0
M  V30 3403 H 330.127 1.43899 3.11686 0
M  V30 3404 N 332.573 -1.56217 0.208337 0
M  V30 3405 C 333.536 -2.18455 -0.693557 0
M  V30 3406 C 334.536 -1.14268 -1.13135 0
M  V30 3407 O 335.726 -1.39577 -1.0423 0
M  V30 3408 C 332.858 -2.79727 -1.94848 0
M  V30 3409 H 334.051 -2.99519 -0.15114 0
M  V30 3410 H 331.604 -1.56245 -0.041287 0
M  V30 3411 H 332.339 -2.02497 -2.53309 0
M  V30 3412 H 332.124 -3.56009 -1.64316 0
M  V30 3413 H 333.614 -3.27475 -2.59133 0
M  V30 3414 N 334.051 0.0651679 -1.57465 0
M  V30 3415 C 335.328 0.79644 -1.78651 0
M  V30 3416 C 335.708 1.95454 -0.797566 0
M  V30 3417 O 335.056 2.27882 0.167946 0
M  V30 3418 C 335.266 1.26322 -3.25337 0
M  V30 3419 C 336.614 1.6939 -3.89348 0
M  V30 3420 O 337.638 1.35872 -3.29268 0
M  V30 3421 O 336.497 2.31471 -4.95059 0
M  V30 3422 H 333.591 0.382157 -0.733407 0
M  V30 3423 H 336.137 0.0447311 -1.69641 0
M  V30 3424 H 334.909 0.434859 -3.88876 0
M  V30 3425 H 334.532 2.07604 -3.39096 0
M  V30 3426 N 335.529 1.53961 0.336706 0
M  V30 3427 C 336.775 1.7273 1.07406 0
M  V30 3428 C 337.13 0.488095 1.86106 0
M  V30 3429 O 336.423 -0.519379 1.84426 0
M  V30 3430 C 336.617 2.93493 2.03953 0
M  V30 3431 C 336.446 4.29039 1.34744 0
M  V30 3432 C 335.216 4.93416 1.08942 0
M  V30 3433 C 337.414 5.08501 0.770115 0
M  V30 3434 N 335.396 6.12821 0.363864 0
M  V30 3435 C 336.767 6.19752 0.175472 0
M  V30 3436 C 338.822 4.93349 0.671633 0
M  V30 3437 C 337.525 7.17503 -0.508081 0
M  V30 3438 C 339.551 5.914 0.0018076 0
M  V30 3439 C 338.913 7.01993 -0.581835 0
M  V30 3440 H 335.012 0.685026 0.377177 0
M  V30 3441 H 337.596 1.91403 0.356815 0
M  V30 3442 H 335.767 2.76308 2.72962 0
M  V30 3443 H 337.499 3.00949 2.70577 0
M  V30 3444 H 334.254 4.53099 1.37833 0
M  V30 3445 H 334.678 6.76998 0.0156092 0
M  V30 3446 H 339.32 4.08007 1.1086 0
M  V30 3447 H 337.038 8.02414 -0.956918 0
M  V30 3448 H 340.624 5.81753 -0.0738538 0
M  V30 3449 H 339.504 7.76561 -1.09192 0
M  V30 3450 N 337.007 -0.598083 1.45811 0
M  V30 3451 C 337.97 -1.69018 1.54808 0
M  V30 3452 C 338.97 -1.55037 0.426652 0
M  V30 3453 O 340.16 -1.59932 0.690456 0
M  V30 3454 C 337.292 -3.0835 1.45371 0
M  V30 3455 H 338.485 -1.62403 2.52121 0
M  V30 3456 H 336.038 -0.814626 1.33392 0
M  V30 3457 H 336.773 -3.20534 0.492793 0
M  V30 3458 H 336.558 -3.19907 2.26721 0
M  V30 3459 H 338.048 -3.8788 1.54721 0
M  V30 3460 N 338.485 -1.33259 -0.841409 0
M  V30 3461 C 339.731 -1.24757 -1.59886 0
M  V30 3462 C 340.064 0.186913 -1.93298 0
M  V30 3463 O 339.339 1.12757 -1.5848 0
M  V30 3464 C 339.622 -2.12036 -2.91055 0
M  V30 3465 C 339.475 -3.63929 -2.6434 0
M  V30 3466 C 340.794 -1.9916 -3.92458 0
M  V30 3467 H 337.913 -0.454542 -0.580138 0
M  V30 3468 H 340.555 -1.63335 -0.970647 0
M  V30 3469 H 338.705 -1.79265 -3.44669 0
M  V30 3470 H 340.377 -4.06978 -2.17178 0
M  V30 3471 H 338.62 -3.85935 -1.98082 0
M  V30 3472 H 339.291 -4.20341 -3.57796 0
M  V30 3473 H 341.767 -2.27895 -3.48143 0
M  V30 3474 H 340.643 -2.62484 -4.82072 0
M  V30 3475 H 340.904 -0.963082 -4.31482 0
M  V30 3476 N 339.963 1.05934 -1.16686 0
M  V30 3477 C 341.211 1.78447 -0.948744 0
M  V30 3478 C 341.532 1.87813 0.524523 0
M  V30 3479 O 340.802 1.38945 1.38098 0
M  V30 3480 H 339.382 0.660971 -0.348033 0
M  V30 3481 H 342.044 1.27947 -1.47022 0
M  V30 3482 H 341.14 2.80394 -1.37061 0
M  V30 3483 N 341.441 0.965919 1.2453 0
M  V30 3484 C 342.718 0.543777 1.87889 0
M  V30 3485 C 343.098 -0.97909 1.87021 0
M  V30 3486 O 342.446 -1.84969 1.3416 0
M  V30 3487 C 342.656 1.13327 3.30088 0
M  V30 3488 C 344.004 1.21707 4.06783 0
M  V30 3489 O 345.028 1.08566 3.39252 0
M  V30 3490 O 343.887 1.42456 5.27606 0
M  V30 3491 H 340.981 0.181054 0.806938 0
M  V30 3492 H 343.527 1.06007 1.32516 0
M  V30 3493 H 342.299 2.17612 3.25209 0
M  V30 3494 H 341.922 0.600911 3.93033 0
M  V30 3495 N 342.919 -1.39368 0.735821 0
M  V30 3496 C 343.866 -2.30599 0.0963825 0
M  V30 3497 C 344.836 -1.49257 -0.728794 0
M  V30 3498 O 346.021 -1.77941 -0.688588 0
M  V30 3499 C 343.161 -3.35596 -0.804305 0
M  V30 3500 C 342.274 -4.31987 0.0335761 0
M  V30 3501 C 341.409 -5.24053 -0.868461 0
M  V30 3502 C 340.448 -6.12095 -0.0258776 0
M  V30 3503 N 339.585 -6.96514 -0.883893 0
M  V30 3504 H 344.425 -2.8471 0.880002 0
M  V30 3505 H 341.962 -1.40188 0.445619 0
M  V30 3506 H 343.92 -3.95062 -1.34096 0
M  V30 3507 H 342.55 -2.82938 -1.55389 0
M  V30 3508 H 341.602 -3.74133 0.68766 0
M  V30 3509 H 342.914 -4.94074 0.685036 0
M  V30 3510 H 342.068 -5.88549 -1.47293 0
M  V30 3511 H 340.807 -4.62289 -1.5537 0
M  V30 3512 H 339.812 -5.4661 0.591386 0
M  V30 3513 H 341.037 -6.75923 0.656156 0
M  V30 3514 H 338.983 -6.37318 -1.55441 0
M  V30 3515 H 338.9 -7.55448 -0.288931 0
M  V30 3516 H 340.168 -7.65439 -1.4739 0
M  V30 3517 N 344.397 -0.483516 -1.5 0
M  V30 3518 C 345.625 0.0644831 -2.06799 0
M  V30 3519 C 346.04 1.32399 -1.34596 0
M  V30 3520 O 345.397 1.77626 -0.418946 0
M  V30 3521 C 345.448 0.339927 -3.59898 0
M  V30 3522 O 345.169 -0.869635 -4.29382 0
M  V30 3523 C 346.67 0.933515 -4.33359 0
M  V30 3524 H 343.89 -0.0126333 -0.670881 0
M  V30 3525 H 346.434 -0.675864 -1.93009 0
M  V30 3526 H 344.589 1.03022 -3.7345 0
M  V30 3527 H 345.003 -0.62179 -5.20801 0
M  V30 3528 H 346.477 1.07593 -5.41413 0
M  V30 3529 H 346.954 1.92685 -3.94676 0
M  V30 3530 H 347.56 0.281221 -4.24369 0
M  V30 3531 N 345.875 1.56104 -0.216619 0
M  V30 3532 C 347.123 1.97781 0.415593 0
M  V30 3533 C 347.444 1.10536 1.60645 0
M  V30 3534 O 346.714 0.181303 1.95059 0
M  V30 3535 H 345.294 0.730415 0.156534 0
M  V30 3536 H 347.956 1.92445 -0.308366 0
M  V30 3537 H 347.052 3.03072 0.74525 0
M  V30 3538 N 347.353 -0.0568162 1.57498 0
M  V30 3539 C 348.581 -0.765626 1.92213 0
M  V30 3540 C 348.996 -1.70353 0.813961 0
M  V30 3541 O 348.353 -1.81268 -0.211701 0
M  V30 3542 C 348.404 -1.5465 3.2675 0
M  V30 3543 O 348.125 -0.646278 4.33307 0
M  V30 3544 C 349.626 -2.35497 3.75574 0
M  V30 3545 H 346.846 -0.216835 0.634999 0
M  V30 3546 H 349.39 -0.0226146 2.04487 0
M  V30 3547 H 347.545 -2.24165 3.15957 0
M  V30 3548 H 347.959 -1.19093 5.108 0
M  V30 3549 H 349.433 -2.85722 4.72299 0
M  V30 3550 H 349.91 -3.15692 3.05344 0
M  V30 3551 H 350.516 -1.7111 3.8936 0
M  V30 3552 N 348.832 -1.54138 -0.328536 0
M  V30 3553 C 350.072 -1.73827 -1.07534 0
M  V30 3554 C 350.436 -0.498777 -1.85408 0
M  V30 3555 O 351.637 -0.572937 -2.62623 0
M  V30 3556 C 349.908 -2.97573 -1.97952 0
M  V30 3557 S 351.467 -3.38143 -2.79652 0
M  V30 3558 H 348.285 -0.611287 -0.36311 0
M  V30 3559 H 350.887 -1.92306 -0.351931 0
M  V30 3560 H 349.591 -3.85939 -1.39569 0
M  V30 3561 H 349.122 -2.81603 -2.74706 0
M  V30 3562 H 351.137 -2.93052 -4.00418 0
M  V30 3563 N 350.31 0.590341 -1.46126 0
M  V30 3564 C 351.558 1.34616 -1.50742 0
M  V30 3565 C 351.879 1.94363 -0.157486 0
M  V30 3566 O 351.149 1.78136 0.815136 0
M  V30 3567 H 349.729 0.499789 -0.555175 0
M  V30 3568 H 352.391 0.691953 -1.82203 0
M  V30 3569 H 351.487 2.15678 -2.25587 0
M  V30 3570 N 351.788 1.33704 0.83433 0
M  V30 3571 C 353.034 1.25603 1.59222 0
M  V30 3572 C 353.367 -0.176659 1.93395 0
M  V30 3573 O 352.642 -1.11915 1.59076 0
M  V30 3574 C 352.925 2.13576 2.89926 0
M  V30 3575 C 352.778 3.65326 2.62406 0
M  V30 3576 C 354.097 2.01238 3.91397 0
M  V30 3577 H 351.216 0.457613 0.577719 0
M  V30 3578 H 353.858 1.63848 0.961972 0
M  V30 3579 H 352.008 1.8109 3.43713 0
M  V30 3580 H 353.68 4.08124 2.15017 0
M  V30 3581 H 351.923 3.8698 1.96033 0
M  V30 3582 H 352.594 4.22232 3.55562 0
M  V30 3583 H 355.07 2.29738 3.46929 0
M  V30 3584 H 353.946 2.65036 4.80673 0
M  V30 3585 H 354.207 0.985951 4.30966 0
M  V30 3586 N 353.266 -1.05314 1.17247 0
M  V30 3587 C 354.496 -1.81707 0.983166 0
M  V30 3588 C 354.904 -1.83222 -0.471822 0
M  V30 3589 O 354.247 -1.25721 -1.3394 0
M  V30 3590 C 354.309 -3.29134 1.44606 0
M  V30 3591 C 353.973 -3.51304 2.92292 0
M  V30 3592 C 354.97 -3.4353 3.90235 0
M  V30 3593 C 352.655 -3.78306 3.30439 0
M  V30 3594 C 354.649 -3.62442 5.24323 0
M  V30 3595 C 352.336 -3.96866 4.64694 0
M  V30 3596 C 353.334 -3.88933 5.61445 0
M  V30 3597 O 353.022 -4.06976 6.93272 0
M  V30 3598 H 352.754 -0.579476 0.348114 0
M  V30 3599 H 355.308 -1.33705 1.55924 0
M  V30 3600 H 353.538 -3.78046 0.813537 0
M  V30 3601 H 355.227 -3.87049 1.22262 0
M  V30 3602 H 355.993 -3.22648 3.62109 0
M  V30 3603 H 351.872 -3.83585 2.55702 0
M  V30 3604 H 355.416 -3.56165 5.99827 0
M  V30 3605 H 351.313 -4.1724 4.92525 0
M  V30 3606 H 352.081 -4.24209 6.99992 0
M  V30 3607 N 354.744 -0.972509 -1.24016 0
M  V30 3608 C 355.992 -0.635776 -1.91839 0
M  V30 3609 C 356.313 0.832312 -1.76345 0
M  V30 3610 O 355.583 1.5946 -1.13795 0
M  V30 3611 H 354.163 -0.232157 -0.710009 0
M  V30 3612 H 356.825 -1.23462 -1.50809 0
M  V30 3613 H 355.921 -0.880545 -2.99421 0
M  V30 3614 N 356.222 1.38976 -0.743202 0
M  V30 3615 C 357.45 2.04636 -0.30525 0
M  V30 3616 C 357.865 1.56044 1.06281 0
M  V30 3617 O 357.222 0.728921 1.67311 0
M  V30 3618 C 357.273 3.60193 -0.307177 0
M  V30 3619 O 356.994 4.06998 -1.62124 0
M  V30 3620 C 358.495 4.4306 0.145928 0
M  V30 3621 H 355.715 0.65788 -0.132041 0
M  V30 3622 H 358.259 1.77866 -1.00915 0
M  V30 3623 H 356.414 3.85835 0.347898 0
M  V30 3624 H 356.828 5.01371 -1.54036 0
M  V30 3625 H 358.302 5.51921 0.0934183 0
M  V30 3626 H 358.779 4.22706 1.19231 0
M  V30 3627 H 359.385 4.22584 -0.479886 0
M  V30 3628 N 357.7 0.491464 1.49741 0
M  V30 3629 C 358.663 -0.280906 2.27472 0
M  V30 3630 C 359.663 -0.902454 1.33088 0
M  V30 3631 O 360.853 -0.768465 1.56334 0
M  V30 3632 C 357.985 -1.40209 3.10732 0
M  V30 3633 H 359.178 0.401056 2.97206 0
M  V30 3634 H 356.731 0.246131 1.5435 0
M  V30 3635 H 357.466 -2.11849 2.45541 0
M  V30 3636 H 357.251 -0.961969 3.80117 0
M  V30 3637 H 358.741 -1.9464 3.69466 0
M  V30 3638 N 359.178 -1.55987 0.224894 0
M  V30 3639 C 360.126 -2.21808 -0.700283 0
M  V30 3640 C 361.12 -1.19854 -1.19714 0
M  V30 3641 O 362.326 -1.37925 -1.15658 0
M  V30 3642 H 358.701 -0.711226 -0.244258 0
M  V30 3643 H 360.672 -2.98152 -0.121749 0
M  V30 3644 C 359.421 -2.91444 -1.8962 0
M  V30 3645 H 358.744 -3.69655 -1.52299 0
M  V30 3646 H 360.184 -3.40894 -2.52125 0
M  V30 3647 C 358.643 -1.94098 -2.75368 0
M  V30 3648 O 359.173 -1.46004 -3.74227 0
M  V30 3649 N 357.379 -1.61675 -2.41474 0
M  V30 3650 H 356.926 -2.00979 -1.61137 0
M  V30 3651 H 356.884 -0.968036 -2.99126 0
M  V30 3652 N 360.656 0.0484629 -1.57525 0
M  V30 3653 C 361.933 0.777447 -1.79486 0
M  V30 3654 C 362.313 1.94597 -0.818251 0
M  V30 3655 O 361.661 2.28047 0.143767 0
M  V30 3656 C 361.871 1.22864 -3.26658 0
M  V30 3657 C 363.219 1.65251 -3.91123 0
M  V30 3658 O 364.243 1.32372 -3.3069 0
M  V30 3659 O 363.102 2.26207 -4.97486 0
M  V30 3660 H 360.196 0.374357 -0.737419 0
M  V30 3661 H 362.742 0.0267359 -1.69679 0
M  V30 3662 H 361.514 0.393589 -3.89316 0
M  V30 3663 H 361.137 2.03996 -3.41279 0
M  V30 3664 N 362.134 1.5431 0.320358 0
M  V30 3665 C 363.364 1.7638 1.07582 0
M  V30 3666 C 363.772 0.513944 1.82086 0
M  V30 3667 O 363.115 -0.525123 1.76035 0
M  V30 3668 C 363.177 2.9055 2.1171 0
M  V30 3669 C 362.841 4.2934 1.56575 0
M  V30 3670 C 363.838 5.10077 1.00586 0
M  V30 3671 C 361.523 4.75893 1.60722 0
M  V30 3672 C 363.517 6.35477 0.494756 0
M  V30 3673 C 361.204 6.0126 1.09224 0
M  V30 3674 C 362.202 6.80886 0.53696 0
M  V30 3675 O 361.89 8.03894 0.0297371 0
M  V30 3676 H 361.622 0.592369 0.325692 0
M  V30 3677 H 364.176 2.02019 0.37116 0
M  V30 3678 H 362.406 2.60489 2.85801 0
M  V30 3679 H 364.095 3.00373 2.73003 0
M  V30 3680 H 364.861 4.75265 0.966869 0
M  V30 3681 H 360.74 4.13957 2.02882 0
M  V30 3682 H 364.284 6.97574 0.0606842 0
M  V30 3683 H 360.181 6.35562 1.12831 0
M  V30 3684 H 360.949 8.18372 0.14486 0
M  V30 3685 N 363.613 -0.582584 1.46437 0
M  V30 3686 C 364.576 -1.67366 1.56592 0
M  V30 3687 C 365.576 -1.54575 0.443072 0
M  V30 3688 O 366.766 -1.59191 0.707381 0
M  V30 3689 C 363.898 -3.06791 1.48634 0
M  V30 3690 H 365.091 -1.5972 2.5383 0
M  V30 3691 H 362.644 -0.800432 1.34249 0
M  V30 3692 H 363.379 -3.19993 0.526763 0
M  V30 3693 H 363.164 -3.17484 2.30101 0
M  V30 3694 H 364.654 -3.86218 1.58826 0
M  V30 3695 N 365.091 -1.34144 -0.827227 0
M  V30 3696 C 366.337 -1.26446 -1.58554 0
M  V30 3697 C 366.67 0.1664 -1.93486 0
M  V30 3698 O 365.945 1.1107 -1.59667 0
M  V30 3699 C 366.228 -2.15111 -2.8879 0
M  V30 3700 C 366.081 -3.66712 -2.60465 0
M  V30 3701 C 367.4 -2.03311 -3.90324 0
M  V30 3702 H 364.519 -0.46067 -0.575284 0
M  V30 3703 H 367.161 -1.64356 -0.953269 0
M  V30 3704 H 365.311 -1.8291 -3.42748 0
M  V30 3705 H 366.983 -4.09259 -2.1285 0
M  V30 3706 H 365.226 -3.88014 -1.93978 0
M  V30 3707 H 365.897 -4.24112 -3.53317 0
M  V30 3708 H 368.373 -2.31574 -3.45706 0
M  V30 3709 H 367.249 -2.67582 -4.79261 0
M  V30 3710 H 367.51 -1.00879 -4.30437 0
M  V30 3711 N 366.569 1.04691 -1.17803 0
M  V30 3712 C 367.815 1.78045 -0.970969 0
M  V30 3713 C 368.148 1.87686 0.498751 0
M  V30 3714 O 367.423 1.38035 1.37027 0
M  V30 3715 C 367.706 3.2166 -1.61884 0
M  V30 3716 C 367.559 3.20001 -3.161 0
M  V30 3717 C 368.878 4.1962 -1.3269 0
M  V30 3718 H 365.997 0.64633 -0.354155 0
M  V30 3719 H 368.639 1.22333 -1.45378 0
M  V30 3720 H 366.789 3.69232 -1.20831 0
M  V30 3721 H 368.461 2.80467 -3.66246 0
M  V30 3722 H 366.704 2.58203 -3.48588 0
M  V30 3723 H 367.375 4.21386 -3.56564 0
M  V30 3724 H 369.851 3.80567 -1.68249 0
M  V30 3725 H 368.727 5.18339 -1.80599 0
M  V30 3726 H 368.988 4.414 -0.248622 0
M  V30 3727 N 368.047 0.979072 1.23499 0
M  V30 3728 C 369.293 0.6578 1.9247 0
M  V30 3729 C 369.648 -0.799746 1.74991 0
M  V30 3730 O 368.941 -1.56922 1.09937 0
M  V30 3731 C 369.135 0.981932 3.43646 0
M  V30 3732 C 368.964 2.46944 3.75831 0
M  V30 3733 C 367.734 3.13119 3.96591 0
M  V30 3734 C 369.932 3.45006 3.81412 0
M  V30 3735 N 367.914 4.51489 4.15969 0
M  V30 3736 C 369.285 4.68778 4.05768 0
M  V30 3737 C 371.34 3.39505 3.64198 0
M  V30 3738 C 370.043 5.87723 4.14697 0
M  V30 3739 C 372.069 4.57814 3.7438 0
M  V30 3740 C 371.431 5.80381 3.99171 0
M  V30 3741 H 367.53 0.291746 0.72554 0
M  V30 3742 H 370.114 1.25626 1.48749 0
M  V30 3743 H 368.285 0.412179 3.86207 0
M  V30 3744 H 370.017 0.618068 3.99953 0
M  V30 3745 H 366.772 2.63619 3.93449 0
M  V30 3746 H 367.196 5.23221 4.29615 0
M  V30 3747 H 371.838 2.45773 3.44029 0
M  V30 3748 H 369.556 6.81874 4.33675 0
M  V30 3749 H 373.142 4.55132 3.62417 0
M  V30 3750 H 372.022 6.70398 4.06861 0
M  V30 3751 N 369.525 -1.3858 0.750561 0
M  V30 3752 C 370.936 -1.82927 0.373438 0
M  V30 3753 C 371.287 -1.62634 -1.09748 0
M  V30 3754 O 370.412 -1.12588 -1.84805 0
M  V30 3755 C 371.007 -3.32088 0.671029 0
M  V30 3756 C 369.566 -3.74795 0.34722 0
M  V30 3757 C 368.713 -2.61391 0.92575 0
M  V30 3758 H 371.664 -1.27351 0.946958 0
M  V30 3759 H 371.685 -3.80465 -0.0518269 0
M  V30 3760 H 371.197 -3.46826 1.74164 0
M  V30 3761 H 369.298 -3.65638 -0.716933 0
M  V30 3762 H 369.411 -4.71667 0.840656 0
M  V30 3763 H 367.775 -2.52265 0.351327 0
M  V30 3764 H 368.558 -2.78929 2.00133 0
M  V30 3765 N 371.003 -0.499398 -1.49478 0
M  V30 3766 C 372.231 0.0425456 -2.06856 0
M  V30 3767 C 372.646 1.30964 -1.35992 0
M  V30 3768 O 372.003 1.77172 -0.437762 0
M  V30 3769 C 372.054 0.301735 -3.60239 0
M  V30 3770 O 371.775 -0.915127 -4.28436 0
M  V30 3771 C 373.276 0.887499 -4.34325 0
M  V30 3772 H 370.496 -0.0197482 -0.670709 0
M  V30 3773 H 373.04 -0.696297 -1.92281 0
M  V30 3774 H 371.195 0.990556 -3.74522 0
M  V30 3775 H 371.609 -0.676993 -5.20113 0
M  V30 3776 H 373.083 1.01845 -5.42523 0
M  V30 3777 H 373.56 1.88488 -3.96698 0
M  V30 3778 H 374.166 0.236196 -4.24644 0
M  V30 3779 N 372.481 1.55866 -0.233164 0
M  V30 3780 C 373.729 1.9821 0.394593 0
M  V30 3781 C 374.05 1.12234 1.59463 0
M  V30 3782 O 373.32 0.201981 1.94856 0
M  V30 3783 H 371.9 0.732034 0.148778 0
M  V30 3784 H 374.562 1.92107 -0.32876 0
M  V30 3785 H 373.658 3.03845 0.713063 0
M  V30 3786 N 373.959 -0.0401083 1.57549 0
M  V30 3787 C 375.375 -0.395556 1.54621 0
M  V30 3788 C 375.575 -1.77281 0.957799 0
M  V30 3789 O 374.631 -2.45888 0.574031 0
M  V30 3790 C 375.944 -0.307535 2.99123 0
M  V30 3791 C 377.492 -0.385425 3.10618 0
M  V30 3792 C 377.967 -0.326973 4.56831 0
M  V30 3793 N 379.458 -0.386102 4.61588 0
M  V30 3794 C 380.193 -0.363591 5.72246 0
M  V30 3795 N 379.689 -0.29402 6.92176 0
M  V30 3796 N 381.482 -0.412503 5.60584 0
M  V30 3797 H 373.633 0.861325 1.94152 0
M  V30 3798 H 375.896 0.326445 0.890021 0
M  V30 3799 H 375.602 0.638461 3.45856 0
M  V30 3800 H 375.476 -1.10552 3.60636 0
M  V30 3801 H 377.863 -1.32185 2.63839 0
M  V30 3802 H 377.944 0.44171 2.51957 0
M  V30 3803 H 377.588 0.605738 5.04275 0
M  V30 3804 H 377.518 -1.17207 5.13391 0
M  V30 3805 H 380.009 -0.442832 3.75296 0
M  V30 3806 H 380.322 -0.28164 7.72287 0
M  V30 3807 H 378.667 -0.260232 6.94513 0
M  V30 3808 H 381.858 -0.464769 4.65787 0
M  V30 3809 H 382.031 -0.391492 6.46816 0
M  V30 3810 N 375.437 -1.54477 -0.31217 0
M  V30 3811 C 376.4 -1.83923 -1.36766 0
M  V30 3812 C 377.4 -0.711563 -1.44199 0
M  V30 3813 O 378.59 -0.979866 -1.44029 0
M  V30 3814 C 375.722 -2.0095 -2.75376 0
M  V30 3815 H 376.915 -2.78239 -1.11906 0
M  V30 3816 H 374.468 -1.46369 -0.548257 0
M  V30 3817 H 375.203 -1.08883 -3.05475 0
M  V30 3818 H 374.988 -2.83018 -2.71373 0
M  V30 3819 H 376.478 -2.2514 -3.51713 0
M  V30 3820 N 376.915 0.57481 -1.46744 0
M  V30 3821 C 378.326 1.15695 -1.46532 0
M  V30 3822 C 378.677 1.95068 -0.210425 0
M  V30 3823 O 377.802 2.05241 0.685944 0
M  V30 3824 C 378.397 2.1048 -2.65487 0
M  V30 3825 C 376.956 2.64002 -2.68291 0
M  V30 3826 C 376.103 1.40026 -2.39349 0
M  V30 3827 H 379.054 0.362325 -1.54509 0
M  V30 3828 H 379.075 2.94074 -2.41455 0
M  V30 3829 H 378.587 1.52683 -3.56805 0
M  V30 3830 H 376.688 3.25646 -1.81067 0
M  V30 3831 H 376.801 3.06197 -3.68483 0
M  V30 3832 H 375.165 1.70106 -1.89568 0
M  V30 3833 H 375.948 0.840485 -3.32852 0
M  V30 3834 N 378.394 1.34581 0.820102 0
M  V30 3835 C 379.643 1.26437 1.57151 0
M  V30 3836 C 379.956 -0.163111 1.94919 0
M  V30 3837 O 381.162 -0.366722 2.69012 0
M  V30 3838 C 379.618 2.21658 2.83541 0
M  V30 3839 C 379.226 3.69679 2.53065 0
M  V30 3840 C 380.97 2.22428 3.61561 0
M  V30 3841 C 378.877 4.56761 3.75664 0
M  V30 3842 H 377.807 0.469707 0.589823 0
M  V30 3843 H 380.458 1.59763 0.902656 0
M  V30 3844 H 378.84 1.81287 3.52067 0
M  V30 3845 H 380.014 4.18605 1.92631 0
M  V30 3846 H 378.329 3.71384 1.88316 0
M  V30 3847 H 380.926 2.8471 4.52597 0
M  V30 3848 H 381.269 1.22434 3.97889 0
M  V30 3849 H 381.802 2.61259 2.99981 0
M  V30 3850 H 378.541 5.57702 3.44454 0
M  V30 3851 H 378.061 4.12568 4.35371 0
M  V30 3852 H 379.74 4.71509 4.43044 0
M  V30 3853 N 379.872 -1.04064 1.18357 0
M  V30 3854 C 381.118 -1.77528 0.980397 0
M  V30 3855 C 381.451 -1.87948 -0.48879 0
M  V30 3856 O 380.726 -1.3876 -1.36293 0
M  V30 3857 C 381.009 -3.20797 1.63588 0
M  V30 3858 C 380.862 -3.1832 3.17793 0
M  V30 3859 C 382.181 -4.18911 1.34914 0
M  V30 3860 H 379.3 -0.644443 0.357578 0
M  V30 3861 H 381.942 -1.2156 1.46024 0
M  V30 3862 H 380.092 -3.68586 1.22788 0
M  V30 3863 H 381.764 -2.78521 3.67728 0
M  V30 3864 H 380.007 -2.56351 3.49952 0
M  V30 3865 H 380.678 -4.19489 3.58794 0
M  V30 3866 H 383.154 -3.7967 1.70265 0
M  V30 3867 H 382.03 -5.17374 1.83346 0
M  V30 3868 H 382.291 -4.41262 0.272027 0
M  V30 3869 N 381.35 -0.985608 -1.22978 0
M  V30 3870 C 382.28 -0.549649 -2.26939 0
M  V30 3871 C 383.261 0.419803 -1.64838 0
M  V30 3872 O 384.446 0.31203 -1.91677 0
M  V30 3873 C 381.576 0.143652 -3.47003 0
M  V30 3874 C 380.53 -0.743606 -4.21491 0
M  V30 3875 C 379.856 0.0822027 -5.34637 0
M  V30 3876 C 381.156 -2.03694 -4.80943 0
M  V30 3877 H 382.85 -1.41862 -2.63658 0
M  V30 3878 H 380.396 -0.683571 -1.26741 0
M  V30 3879 H 382.349 0.459985 -4.18882 0
M  V30 3880 H 381.073 1.04711 -3.09359 0
M  V30 3881 H 379.732 -1.04347 -3.51436 0
M  V30 3882 H 379.38 0.986359 -4.93234 0
M  V30 3883 H 379.08 -0.508377 -5.85397 0
M  V30 3884 H 380.604 0.392797 -6.09335 0
M  V30 3885 H 382.018 -1.78504 -5.44802 0
M  V30 3886 H 380.415 -2.57573 -5.42011 0
M  V30 3887 H 381.485 -2.72042 -4.01399 0
M  V30 3888 N 382.828 1.3818 -0.7579 0
M  V30 3889 C 383.791 2.28764 -0.141286 0
M  V30 3890 C 384.791 1.47388 0.642907 0
M  V30 3891 O 385.981 1.67781 0.468536 0
M  V30 3892 C 383.113 3.31184 0.808069 0
M  V30 3893 H 384.306 2.848 -0.939633 0
M  V30 3894 H 381.859 1.47212 -0.525191 0
M  V30 3895 H 382.594 2.80247 1.63193 0
M  V30 3896 H 382.379 3.91314 0.248104 0
M  V30 3897 H 383.869 3.98909 1.23536 0
M  V30 3898 N 384.306 0.507319 1.49211 0
M  V30 3899 C 385.552 -0.0350047 2.0277 0
M  V30 3900 C 385.885 -1.3606 1.38569 0
M  V30 3901 O 385.16 -1.87321 0.523542 0
M  V30 3902 C 385.443 -0.180916 3.59645 0
M  V30 3903 C 385.296 1.16825 4.34364 0
M  V30 3904 C 386.615 -0.918558 4.30407 0
M  V30 3905 H 383.734 -0.0112473 0.736914 0
M  V30 3906 H 386.376 0.659956 1.7817 0
M  V30 3907 H 384.526 -0.772826 3.80736 0
M  V30 3908 H 386.198 1.79952 4.24753 0
M  V30 3909 H 384.441 1.75594 3.96673 0
M  V30 3910 H 385.112 1.01939 5.42506 0
M  V30 3911 H 387.588 -0.41649 4.1401 0
M  V30 3912 H 386.464 -0.989505 5.39907 0
M  V30 3913 H 386.725 -1.96373 3.96093 0
M  V30 3914 N 385.784 -1.5574 0.241426 0
M  V30 3915 C 387.014 -2.02913 -0.38857 0
M  V30 3916 C 387.422 -1.12014 -1.52478 0
M  V30 3917 O 386.765 -0.125903 -1.83268 0
M  V30 3918 C 386.827 -3.4636 -0.963075 0
M  V30 3919 C 386.491 -4.56982 0.0401916 0
M  V30 3920 C 387.488 -5.12941 0.847766 0
M  V30 3921 C 385.173 -5.0203 0.164699 0
M  V30 3922 C 387.167 -6.12437 1.76636 0
M  V30 3923 C 384.854 -6.01358 1.0868 0
M  V30 3924 C 385.852 -6.5644 1.88616 0
M  V30 3925 O 385.54 -7.53831 2.79273 0
M  V30 3926 H 385.272 -0.668983 -0.0971452 0
M  V30 3927 H 387.826 -2.02198 0.361248 0
M  V30 3928 H 386.056 -3.44206 -1.76235 0
M  V30 3929 H 387.745 -3.77065 -1.50257 0
M  V30 3930 H 388.511 -4.78974 0.762133 0
M  V30 3931 H 384.39 -4.58824 -0.447411 0
M  V30 3932 H 387.934 -6.55355 2.39071 0
M  V30 3933 H 383.831 -6.34746 1.17338 0
M  V30 3934 H 384.599 -7.71428 2.73572 0
M  V30 3935 N 387.262 0.0317525 -1.57568 0
M  V30 3936 C 388.49 0.734949 -1.93407 0
M  V30 3937 C 388.905 1.69036 -0.84096 0
M  V30 3938 O 388.262 1.81582 0.182836 0
M  V30 3939 C 388.313 1.49432 -3.29169 0
M  V30 3940 O 388.034 0.577261 -4.3428 0
M  V30 3941 C 389.535 2.29492 -3.79273 0
M  V30 3942 H 386.755 0.206706 -0.638368 0
M  V30 3943 H 389.299 -0.00992046 -2.04498 0
M  V30 3944 H 387.454 2.1911 -3.19483 0
M  V30 3945 H 387.868 1.10952 -5.1263 0
M  V30 3946 H 389.342 2.78172 -4.76785 0
M  V30 3947 H 389.819 3.10794 -3.10328 0
M  V30 3948 H 390.425 1.64894 -3.92033 0
M  V30 3949 N 388.74 1.54641 0.303973 0
M  V30 3950 C 390.156 1.45788 0.649463 0
M  V30 3951 C 390.356 0.64666 1.90842 0
M  V30 3952 O 389.412 0.153183 2.52035 0
M  V30 3953 C 390.725 2.89718 0.805227 0
M  V30 3954 C 392.273 2.99742 0.901305 0
M  V30 3955 C 392.748 4.44863 1.08909 0
M  V30 3956 N 394.239 4.48559 1.15536 0
M  V30 3957 C 394.974 5.58026 1.3189 0
M  V30 3958 N 394.47 6.77422 1.45161 0
M  V30 3959 N 396.263 5.45708 1.34755 0
M  V30 3960 H 388.414 2.05854 -0.523237 0
M  V30 3961 H 390.677 0.932186 -0.172431 0
M  V30 3962 H 390.383 3.51666 -0.0489108 0
M  V30 3963 H 390.257 3.36964 1.69513 0
M  V30 3964 H 392.644 2.3791 1.74593 0
M  V30 3965 H 392.725 2.55797 -0.0125531 0
M  V30 3966 H 392.369 5.07288 0.249241 0
M  V30 3967 H 392.299 4.86436 2.01713 0
M  V30 3968 H 394.79 3.6254 1.06646 0
M  V30 3969 H 395.103 7.56604 1.57387 0
M  V30 3970 H 393.448 6.80292 1.42223 0
M  V30 3971 H 396.639 4.51378 1.23996 0
M  V30 3972 H 396.812 6.3107 1.47157 0
M  V30 3973 N 390.218 -0.567019 1.47046 0
M  V30 3974 C 391.181 -1.65696 1.58359 0
M  V30 3975 C 392.181 -1.54097 0.459441 0
M  V30 3976 O 393.371 -1.58432 0.724225 0
M  V30 3977 C 390.503 -3.05197 1.51879 0
M  V30 3978 H 391.696 -1.57019 2.5551 0
M  V30 3979 H 389.249 -0.786148 1.3509 0
M  V30 3980 H 389.984 -3.19417 0.560673 0
M  V30 3981 H 389.769 -3.15025 2.33455 0
M  V30 3982 H 391.259 -3.84511 1.62913 0
M  V30 3983 N 391.696 -1.35014 -0.812953 0
M  V30 3984 C 393.107 -1.25035 -1.38648 0
M  V30 3985 C 393.458 0.119967 -1.95833 0
M  V30 3986 O 392.583 1.02069 -1.90816 0
M  V30 3987 C 393.178 -2.26394 -2.52054 0
M  V30 3988 C 391.737 -2.20175 -3.05287 0
M  V30 3989 C 390.884 -2.12451 -1.78213 0
M  V30 3990 H 393.835 -1.46235 -0.616516 0
M  V30 3991 H 393.856 -1.88672 -3.30429 0
M  V30 3992 H 393.368 -3.26116 -2.10404 0
M  V30 3993 H 391.469 -1.23841 -3.51417 0
M  V30 3994 H 391.582 -3.11863 -3.63701 0
M  V30 3995 H 389.946 -1.58328 -1.9951 0
M  V30 3996 H 390.729 -3.14024 -1.38723 0
M  V30 3997 N 393.175 1.03435 -1.18907 0
M  V30 3998 C 394.123 2.13703 -0.918353 0
M  V30 3999 C 395.117 1.68947 0.123767 0
M  V30 4000 O 396.323 1.79983 -0.0249701 0
M  V30 4001 H 392.698 0.698112 -0.279542 0
M  V30 4002 H 394.669 2.33731 -1.85506 0
M  V30 4003 C 393.418 3.44542 -0.467532 0
M  V30 4004 H 392.741 3.79394 -1.26095 0
M  V30 4005 H 394.181 4.22812 -0.317164 0
M  V30 4006 C 392.64 3.26829 0.817588 0
M  V30 4007 O 393.17 3.54975 1.88031 0
M  V30 4008 N 391.376 2.80139 0.772677 0
M  V30 4009 H 390.923 2.57434 -0.0923883 0
M  V30 4010 H 390.881 2.68668 1.63294 0
M  V30 4011 N 394.653 0.992116 1.22453 0
M  V30 4012 C 395.6 0.541731 2.24352 0
M  V30 4013 C 396.57 -0.425519 1.60557 0
M  V30 4014 O 397.755 -0.330453 1.87917 0
M  V30 4015 C 394.895 -0.138248 3.44823 0
M  V30 4016 C 394.008 0.870649 4.23136 0
M  V30 4017 C 393.143 0.164269 5.30946 0
M  V30 4018 C 392.182 1.16159 6.00977 0
M  V30 4019 N 391.319 0.483568 7.00433 0
M  V30 4020 H 396.159 1.41541 2.62241 0
M  V30 4021 H 393.696 0.709013 1.28885 0
M  V30 4022 H 395.654 -0.5494 4.13567 0
M  V30 4023 H 394.284 -0.975721 3.077 0
M  V30 4024 H 393.336 1.40013 3.53696 0
M  V30 4025 H 394.648 1.63014 4.7141 0
M  V30 4026 H 393.802 -0.303653 6.0594 0
M  V30 4027 H 392.541 -0.627733 4.83643 0
M  V30 4028 H 391.546 1.64015 5.24766 0
M  V30 4029 H 392.771 1.95445 6.50368 0
M  V30 4030 H 390.717 -0.289012 6.55363 0
M  V30 4031 H 390.634 1.18152 7.4671 0
M  V30 4032 H 391.902 0.0384219 7.79491 0
M  V30 4033 N 396.131 -1.37776 0.765217 0
M  V30 4034 C 397.408 -1.93975 0.251596 0
M  V30 4035 C 397.788 -1.69949 -1.25222 0
M  V30 4036 O 397.136 -1.04457 -2.03226 0
M  V30 4037 C 397.346 -3.43487 0.617895 0
M  V30 4038 C 398.694 -4.20564 0.584029 0
M  V30 4039 O 399.718 -3.5182 0.556888 0
M  V30 4040 O 398.577 -5.43138 0.605291 0
M  V30 4041 H 395.671 -0.82509 0.0561806 0
M  V30 4042 H 398.217 -1.47101 0.846128 0
M  V30 4043 H 396.989 -3.5453 1.65602 0
M  V30 4044 H 396.612 -3.976 -0.00403411 0
M  V30 4045 N 397.609 -0.515225 -1.4894 0
M  V30 4046 C 398.886 0.0879088 -1.95402 0
M  V30 4047 C 399.266 1.52745 -1.45712 0
M  V30 4048 O 398.614 2.18238 -0.677093 0
M  V30 4049 C 398.824 -0.0141055 -3.48997 0
M  V30 4050 C 400.172 0.152646 -4.24326 0
M  V30 4051 O 401.196 0.0604025 -3.56149 0
M  V30 4052 O 400.055 0.34384 -5.45417 0
M  V30 4053 H 397.149 0.0874636 -0.822362 0
M  V30 4054 H 399.695 -0.578775 -1.59525 0
M  V30 4055 H 398.467 -1.01745 -3.77841 0
M  V30 4056 H 398.09 0.692091 -3.9153 0
M  V30 4057 N 399.087 1.5561 -0.249682 0
M  V30 4058 C 400.034 2.21496 0.648694 0
M  V30 4059 C 401.004 1.17977 1.16921 0
M  V30 4060 O 402.189 1.46434 1.22318 0
M  V30 4061 C 399.329 2.92039 1.83868 0
M  V30 4062 C 398.442 4.10219 1.35442 0
M  V30 4063 C 397.577 4.6847 2.50419 0
M  V30 4064 C 396.616 5.78893 1.98869 0
M  V30 4065 N 395.753 6.31315 3.07223 0
M  V30 4066 H 400.593 2.97892 0.0801582 0
M  V30 4067 H 398.13 1.47074 0.0278031 0
M  V30 4068 H 400.088 3.31138 2.53778 0
M  V30 4069 H 398.718 2.18111 2.37965 0
M  V30 4070 H 397.77 3.76413 0.54928 0
M  V30 4071 H 399.082 4.89927 0.936649 0
M  V30 4072 H 398.236 5.10158 3.28366 0
M  V30 4073 H 396.975 3.87984 2.95499 0
M  V30 4074 H 395.98 5.3668 1.19393 0
M  V30 4075 H 397.205 6.61232 1.54755 0
M  V30 4076 H 395.151 5.53733 3.51732 0
M  V30 4077 H 395.068 7.06224 2.69784 0
M  V30 4078 H 396.336 6.77662 3.8522 0
M  V30 4079 N 400.565 -0.0233959 1.57583 0
M  V30 4080 C 401.515 -1.03023 2.03397 0
M  V30 4081 C 402.499 -1.31701 0.924315 0
M  V30 4082 O 403.691 -1.31191 1.18819 0
M  V30 4083 C 400.82 -2.32961 2.52159 0
M  V30 4084 C 399.906 -2.07349 3.69956 0
M  V30 4085 N 400.297 -1.51814 4.82479 0
M  V30 4086 C 398.595 -2.37606 3.77438 0
M  V30 4087 C 399.296 -1.42136 5.64068 0
M  V30 4088 N 398.272 -1.89891 5.09355 0
M  V30 4089 H 402.074 -0.594962 2.87815 0
M  V30 4090 H 399.588 -0.229586 1.60769 0
M  V30 4091 H 401.585 -3.05906 2.83244 0
M  V30 4092 H 400.245 -2.77162 1.69149 0
M  V30 4093 H 401.256 -1.20008 5.03804 0
M  V30 4094 H 397.933 -2.84842 3.05239 0
M  V30 4095 H 399.323 -0.996405 6.64471 0
M  V30 4096 N 402.043 -1.548 -0.295768 0
M  V30 4097 C 403.268 -1.78653 -1.05346 0
M  V30 4098 C 403.693 -0.546894 -1.79974 0
M  V30 4099 O 403.051 0.502763 -1.7419 0
M  V30 4100 C 403.099 -2.99679 -2.00561 0
M  V30 4101 O 402.203 -2.7317 -3.08953 0
M  V30 4102 H 401.544 -0.59116 -0.302367 0
M  V30 4103 H 404.074 -2.01895 -0.331598 0
M  V30 4104 H 404.084 -3.27793 -2.42932 0
M  V30 4105 H 402.759 -3.89562 -1.4565 0
M  V30 4106 H 401.336 -2.56089 -2.71059 0
M  V30 4107 N 403.521 0.559213 -1.47345 0
M  V30 4108 C 404.431 1.69388 -1.62311 0
M  V30 4109 C 405.447 1.6648 -0.505993 0
M  V30 4110 O 406.623 1.85964 -0.773262 0
M  V30 4111 C 403.688 3.05894 -1.63185 0
M  V30 4112 C 402.749 3.19885 -2.86307 0
M  V30 4113 C 401.982 4.49879 -2.87131 0
M  V30 4114 O 402.205 5.35217 -1.97229 0
M  V30 4115 O 401.139 4.67618 -3.78968 0
M  V30 4116 H 404.965 1.59706 -2.58317 0
M  V30 4117 H 402.55 0.728989 -1.30407 0
M  V30 4118 H 404.432 3.87133 -1.66451 0
M  V30 4119 H 403.107 3.15964 -0.70345 0
M  V30 4120 H 402.014 2.38052 -2.88587 0
M  V30 4121 H 403.347 3.14718 -3.78435 0
M  V30 4122 N 404.999 1.35443 0.805782 0
M  V30 4123 C 405.962 1.28301 1.89925 0
M  V30 4124 C 406.962 0.194285 1.59622 0
M  V30 4125 O 408.152 0.448036 1.6834 0
M  V30 4126 C 405.284 0.984997 3.2636 0
M  V30 4127 H 406.477 2.2553 1.97677 0
M  V30 4128 H 404.03 1.19979 1.00173 0
M  V30 4129 H 404.765 0.016603 3.24296 0
M  V30 4130 H 404.55 1.77269 3.4974 0
M  V30 4131 H 406.04 0.960651 4.064 0
M  V30 4132 N 406.477 -1.02803 1.19454 0
M  V30 4133 C 407.723 -1.76478 0.999171 0
M  V30 4134 C 408.056 -1.88456 -0.468828 0
M  V30 4135 O 407.331 -1.40198 -1.34814 0
M  V30 4136 C 407.614 -3.19044 1.66981 0
M  V30 4137 C 407.467 -3.14932 3.21151 0
M  V30 4138 C 408.786 -4.17456 1.39349 0
M  V30 4139 H 405.905 -0.640614 0.364393 0
M  V30 4140 H 408.547 -1.20005 1.47305 0
M  V30 4141 H 406.697 -3.67263 1.2669 0
M  V30 4142 H 408.369 -2.74605 3.70661 0
M  V30 4143 H 406.612 -2.52625 3.52652 0
M  V30 4144 H 407.283 -4.1566 3.63223 0
M  V30 4145 H 409.759 -3.77842 1.74283 0
M  V30 4146 H 408.635 -5.154 1.88823 0
M  V30 4147 H 408.896 -4.40949 0.318813 0
M  V30 4148 N 407.956 -0.998596 -1.21925 0
M  V30 4149 C 409.205 -0.673085 -1.90138 0
M  V30 4150 C 409.518 0.79895 -1.78539 0
M  V30 4151 O 410.724 1.23628 -2.4172 0
M  V30 4152 C 409.18 -1.15339 -3.40918 0
M  V30 4153 C 408.788 -2.65106 -3.61141 0
M  V30 4154 C 410.532 -0.902476 -4.14796 0
M  V30 4155 C 408.439 -3.0671 -5.05651 0
M  V30 4156 H 407.369 -0.248057 -0.712028 0
M  V30 4157 H 410.02 -1.20891 -1.38049 0
M  V30 4158 H 408.402 -0.545658 -3.92223 0
M  V30 4159 H 409.576 -3.31274 -3.20304 0
M  V30 4160 H 407.891 -2.88142 -3.00605 0
M  V30 4161 H 410.488 -1.18895 -5.21314 0
M  V30 4162 H 410.831 0.161349 -4.15987 0
M  V30 4163 H 411.364 -1.47269 -3.69536 0
M  V30 4164 H 408.103 -4.12292 -5.09603 0
M  V30 4165 H 407.623 -2.45249 -5.47369 0
M  V30 4166 H 409.302 -2.9833 -5.74115 0
M  V30 4167 N 409.434 1.37368 -0.772513 0
M  V30 4168 C 410.397 2.28601 -0.165541 0
M  V30 4169 C 411.397 1.48062 0.627238 0
M  V30 4170 O 412.587 1.68268 0.450715 0
M  V30 4171 C 409.719 3.32023 0.772897 0
M  V30 4172 H 410.912 2.83787 -0.969787 0
M  V30 4173 H 408.465 1.46647 -0.540775 0
M  V30 4174 H 409.2 2.81962 1.60212 0
M  V30 4175 H 408.985 3.91555 0.206585 0
M  V30 4176 H 410.475 4.00197 1.19298 0
M  V30 4177 N 410.912 0.523116 1.48665 0
M  V30 4178 C 411.875 -0.232592 2.28017 0
M  V30 4179 C 412.875 -0.874021 1.34972 0
M  V30 4180 O 414.065 -0.735132 1.57929 0
M  V30 4181 C 411.197 -1.33586 3.13636 0
M  V30 4182 H 412.39 0.464008 2.96289 0
M  V30 4183 H 409.943 0.278816 1.53793 0
M  V30 4184 H 410.678 -2.06593 2.4998 0
M  V30 4185 H 410.463 -0.881125 3.82071 0
M  V30 4186 H 411.953 -1.86759 3.73511 0
M  V30 4187 N 412.39 -1.55475 0.257931 0
M  V30 4188 C 413.353 -2.20551 -0.623706 0
M  V30 4189 C 414.353 -1.17809 -1.09443 0
M  V30 4190 O 415.543 -1.42823 -0.997362 0
M  V30 4191 C 412.675 -2.85784 -1.8585 0
M  V30 4192 H 413.868 -2.99848 -0.0557743 0
M  V30 4193 H 411.421 -1.56298 0.0084422 0
M  V30 4194 H 412.156 -2.10453 -2.46739 0
M  V30 4195 H 411.941 -3.61057 -1.52907 0
M  V30 4196 H 413.431 -3.35553 -2.48584 0
M  V30 4197 N 413.868 0.0150385 -1.57593 0
M  V30 4198 C 414.831 0.995996 -2.06428 0
M  V30 4199 C 415.831 1.2818 -0.970903 0
M  V30 4200 O 417.021 1.22949 -1.23406 0
M  V30 4201 C 414.153 2.32506 -2.49307 0
M  V30 4202 H 415.346 0.573873 -2.94358 0
M  V30 4203 H 412.899 0.262186 -1.54085 0
M  V30 4204 H 413.634 2.79438 -1.64575 0
M  V30 4205 H 413.419 2.13087 -3.29145 0
M  V30 4206 H 414.909 3.02906 -2.87468 0
M  V30 4207 N 415.346 1.54954 0.287554 0
M  V30 4208 C 416.762 1.46469 0.633964 0
M  V30 4209 C 416.962 0.666865 1.90145 0
M  V30 4210 O 416.018 0.179906 2.51858 0
M  V30 4211 C 417.331 2.90556 0.774454 0
M  V30 4212 C 418.879 3.00681 0.869462 0
M  V30 4213 C 419.354 4.45993 1.04184 0
M  V30 4214 N 420.845 4.4976 1.10772 0
M  V30 4215 C 421.58 5.59393 1.25964 0
M  V30 4216 N 421.076 6.78923 1.37968 0
M  V30 4217 N 422.869 5.47107 1.28959 0
M  V30 4218 H 415.02 2.05288 -0.545041 0
M  V30 4219 H 417.283 0.930305 -0.182308 0
M  V30 4220 H 416.989 3.51594 -0.086207 0
M  V30 4221 H 416.863 3.38743 1.6593 0
M  V30 4222 H 419.25 2.39749 1.7206 0
M  V30 4223 H 419.331 2.55769 -0.0396831 0
M  V30 4224 H 418.975 5.07524 0.195422 0
M  V30 4225 H 418.905 4.88548 1.96542 0
M  V30 4226 H 421.396 3.63651 1.02794 0
M  V30 4227 H 421.709 7.58231 1.49353 0
M  V30 4228 H 420.054 6.81763 1.34999 0
M  V30 4229 H 423.245 4.52668 1.19202 0
M  V30 4230 H 423.418 6.32595 1.40455 0
M  V30 4231 N 416.824 -0.551391 1.4764 0
M  V30 4232 C 417.754 -1.66757 1.63445 0
M  V30 4233 C 418.735 -1.63077 0.483742 0
M  V30 4234 O 419.92 -1.80607 0.71377 0
M  V30 4235 C 417.05 -3.05387 1.65396 0
M  V30 4236 C 416.004 -3.23918 2.79752 0
M  V30 4237 C 415.33 -4.63393 2.66779 0
M  V30 4238 C 416.63 -3.08735 4.21284 0
M  V30 4239 H 418.324 -1.53786 2.56886 0
M  V30 4240 H 415.87 -0.738415 1.23626 0
M  V30 4241 H 417.823 -3.83325 1.75043 0
M  V30 4242 H 416.547 -3.19332 0.685195 0
M  V30 4243 H 415.206 -2.48391 2.69625 0
M  V30 4244 H 414.854 -4.74144 1.67918 0
M  V30 4245 H 414.554 -4.7674 3.43501 0
M  V30 4246 H 416.078 -5.43458 2.78364 0
M  V30 4247 H 417.492 -3.76484 4.32357 0
M  V30 4248 H 415.889 -3.33588 4.98838 0
M  V30 4249 H 416.959 -2.0541 4.39243 0
M  V30 4250 N 418.302 -1.35869 -0.798587 0
M  V30 4251 C 419.265 -1.29307 -1.89242 0
M  V30 4252 C 420.265 -0.202747 -1.59517 0
M  V30 4253 O 421.455 -0.456957 -1.681 0
M  V30 4254 C 418.587 -1.00229 -3.25833 0
M  V30 4255 H 419.78 -2.26576 -1.96478 0
M  V30 4256 H 417.333 -1.20509 -0.995358 0
M  V30 4257 H 418.068 -0.033801 -3.24282 0
M  V30 4258 H 417.853 -1.79121 -3.48795 0
M  V30 4259 H 419.343 -0.98219 -4.05885 0
M  V30 4260 N 419.78 1.02168 -1.19998 0
M  V30 4261 C 420.71 2.12488 -0.96804 0
M  V30 4262 C 421.691 1.69799 0.101185 0
M  V30 4263 O 422.876 1.94121 -0.0552993 0
M  V30 4264 C 420.006 3.43479 -0.513776 0
M  V30 4265 C 418.96 3.99884 -1.52566 0
M  V30 4266 C 418.286 5.26582 -0.928214 0
M  V30 4267 C 419.586 4.33861 -2.90795 0
M  V30 4268 H 421.28 2.32149 -1.89069 0
M  V30 4269 H 418.826 1.11564 -0.910468 0
M  V30 4270 H 420.779 4.20036 -0.338774 0
M  V30 4271 H 419.503 3.23561 0.444493 0
M  V30 4272 H 418.162 3.25429 -1.68794 0
M  V30 4273 H 417.81 5.02986 0.0378289 0
M  V30 4274 H 417.51 5.65284 -1.60397 0
M  V30 4275 H 419.034 6.05799 -0.764167 0
M  V30 4276 H 420.448 5.01327 -2.78109 0
M  V30 4277 H 418.845 4.83664 -3.55231 0
M  V30 4278 H 419.915 3.42848 -3.42904 0
M  V30 4279 N 421.258 1.00505 1.21394 0
M  V30 4280 C 422.168 0.574806 2.27449 0
M  V30 4281 C 423.184 -0.382206 1.6975 0
M  V30 4282 O 424.36 -0.246027 1.99892 0
M  V30 4283 C 421.425 -0.0917414 3.46579 0
M  V30 4284 C 420.486 0.909758 4.1955 0
M  V30 4285 C 419.719 0.274924 5.32991 0
M  V30 4286 O 419.942 -0.928254 5.62796 0
M  V30 4287 O 418.876 0.985877 5.93771 0
M  V30 4288 H 422.702 1.45744 2.66444 0
M  V30 4289 H 420.287 0.773923 1.27792 0
M  V30 4290 H 422.169 -0.464551 4.18832 0
M  V30 4291 H 420.844 -0.948755 3.09484 0
M  V30 4292 H 419.751 1.33372 3.49518 0
M  V30 4293 H 421.084 1.73636 4.60555 0
M  V30 4294 N 422.737 -1.36956 0.779787 0
M  V30 4295 C 423.985 -1.99097 0.347079 0
M  V30 4296 C 424.306 -1.62206 -1.08232 0
M  V30 4297 O 423.576 -0.891373 -1.74446 0
M  V30 4298 H 422.156 -0.736409 0.125342 0
M  V30 4299 H 424.818 -1.67308 0.999696 0
M  V30 4300 H 423.914 -3.09107 0.431162 0
M  V30 4301 N 424.215 -0.530993 -1.48385 0
M  V30 4302 C 425.145 0.219985 -2.32461 0
M  V30 4303 C 426.126 0.934111 -1.42156 0
M  V30 4304 O 427.311 0.919694 -1.71042 0
M  V30 4305 C 424.441 1.26674 -3.23375 0
M  V30 4306 C 423.395 0.67069 -4.22712 0
M  V30 4307 C 422.721 1.82017 -5.02766 0
M  V30 4308 C 424.021 -0.358268 -5.2107 0
M  V30 4309 H 425.715 -0.48187 -2.95497 0
M  V30 4310 H 423.261 -0.233182 -1.42099 0
M  V30 4311 H 425.214 1.80006 -3.81019 0
M  V30 4312 H 423.938 1.99818 -2.58341 0
M  V30 4313 H 422.597 0.158878 -3.66256 0
M  V30 4314 H 422.245 2.54002 -4.34157 0
M  V30 4315 H 421.945 1.42727 -5.70003 0
M  V30 4316 H 423.469 2.35725 -5.63264 0
M  V30 4317 H 424.883 0.0880081 -5.73232 0
M  V30 4318 H 423.28 -0.66861 -5.96364 0
M  V30 4319 H 424.35 -1.26367 -4.68145 0
M  V30 4320 N 425.693 1.55336 -0.266172 0
M  V30 4321 C 426.941 1.99003 0.35246 0
M  V30 4322 C 427.262 1.15591 1.57047 0
M  V30 4323 O 426.532 0.243268 1.94384 0
M  V30 4324 H 425.112 0.735025 0.133217 0
M  V30 4325 H 427.774 1.91367 -0.369434 0
M  V30 4326 H 426.87 3.05289 0.648453 0
M  V30 4327 N 427.171 -0.0066808 1.57599 0
M  V30 4328 C 428.417 -0.693947 1.90558 0
M  V30 4329 C 428.75 -1.73792 0.866594 0
M  V30 4330 O 428.025 -1.94156 -0.115548 0
M  V30 4331 C 428.308 -1.34317 3.34112 0
M  V30 4332 C 428.161 -0.311189 4.48722 0
M  V30 4333 C 429.48 -2.27116 3.7697 0
M  V30 4334 H 426.599 -0.250803 0.693013 0
M  V30 4335 H 429.241 0.043242 1.89951 0
M  V30 4336 H 427.391 -1.9715 3.3476 0
M  V30 4337 H 429.063 0.316944 4.6021 0
M  V30 4338 H 427.306 0.367253 4.32243 0
M  V30 4339 H 427.977 -0.804366 5.46108 0
M  V30 4340 H 430.453 -1.74306 3.77831 0
M  V30 4341 H 429.329 -2.69511 4.78179 0
M  V30 4342 H 429.59 -3.14743 3.10466 0
M  V30 4343 N 428.649 -1.55105 -0.279332 0
M  V30 4344 C 429.597 -1.88333 -1.36505 0
M  V30 4345 C 430.591 -0.759043 -1.51443 0
M  V30 4346 O 431.797 -0.943312 -1.53302 0
M  V30 4347 H 428.172 -0.59766 -0.456406 0
M  V30 4348 H 430.143 -2.79041 -1.05728 0
M  V30 4349 C 428.892 -2.16628 -2.7197 0
M  V30 4350 H 428.215 -3.02624 -2.61264 0
M  V30 4351 H 429.655 -2.43803 -3.46895 0
M  V30 4352 C 428.114 -0.971807 -3.22579 0
M  V30 4353 O 428.644 -0.203228 -4.01186 0
M  V30 4354 N 426.85 -0.771238 -2.80179 0
M  V30 4355 H 426.397 -1.39792 -2.1637 0
M  V30 4356 H 426.355 0.0263667 -3.14389 0
M  V30 4357 N 430.127 0.543554 -1.4793 0
M  V30 4358 C 431.375 1.29752 -1.54948 0
M  V30 4359 C 431.696 1.93764 -0.219242 0
M  V30 4360 O 430.966 1.80639 0.75805 0
M  V30 4361 H 429.546 0.481874 -0.570795 0
M  V30 4362 H 432.208 0.633636 -1.84312 0
M  V30 4363 H 431.304 2.08392 -2.32334 0
M  V30 4364 N 431.605 1.3629 0.791371 0
M  V30 4365 C 432.537 1.26321 1.91248 0
M  V30 4366 C 433.55 0.18313 1.61767 0
M  V30 4367 O 434.739 0.437682 1.73051 0
M  V30 4368 C 431.839 0.925901 3.26007 0
M  V30 4369 C 431.012 2.10746 3.83281 0
M  V30 4370 C 430.071 1.74352 4.96475 0
M  V30 4371 O 429.097 2.46416 5.13096 0
M  V30 4372 N 430.299 0.676058 5.7655 0
M  V30 4373 H 433.064 2.22915 2.00323 0
M  V30 4374 H 430.625 1.29659 0.969546 0
M  V30 4375 H 432.617 0.663636 3.99222 0
M  V30 4376 H 431.187 0.0491581 3.12561 0
M  V30 4377 H 430.407 2.53264 3.02077 0
M  V30 4378 H 431.695 2.8969 4.18279 0
M  V30 4379 H 431.093 0.0776467 5.65647 0
M  V30 4380 H 429.65 0.473612 6.50077 0
M  V30 4381 O 433.122 -0.93083 1.31977 0
M  V30 4382 H 433.813 -1.56227 1.14512 0
M  V30 END ATOM
M  V30 BEGIN BOND
M  V30 END BOND
M  V30 END CTAB
M  END
$$$$
