drugbank_target|P12823 Genome polyprotein (DB00811; DB01752)
 OpenBabel12092119513D

  0  0  0     0  0            999 V3000
M  V30 BEGIN CTAB
M  V30 COUNTS 53489 54052 0 0 0
M  V30 BEGIN ATOM
M  V30 1 H -0.908 1.98254 -0.117106 0
M  V30 2 N 0 1.576 0 0
M  V30 3 C 0.933 2.03868 1.02534 0
M  V30 4 C 1.911 0.928543 1.3348 0
M  V30 5 O 3.095 1.19667 1.45644 0
M  V30 6 C 0.222 2.43627 2.35294 0
M  V30 7 C -0.732 3.65373 2.2001 0
M  V30 8 S 0.101 5.13292 1.52614 0
M  V30 9 C 1.257 5.56322 2.86805 0
M  V30 10 H 1.49 2.90518 0.631377 0
M  V30 11 H -0.977 1.52953 0.210867 0
M  V30 12 H 0.981 2.67203 3.11629 0
M  V30 13 H -0.358 1.57376 2.7183 0
M  V30 14 H -1.165 3.90944 3.18086 0
M  V30 15 H -1.563 3.418 1.51819 0
M  V30 16 H 0.729 5.58782 3.83104 0
M  V30 17 H 1.672 6.56266 2.65933 0
M  V30 18 H 2.08 4.83886 2.90714 0
M  V30 19 N 1.4781 -0.272755 1.55222 0
M  V30 20 C 2.4261 -1.35705 1.88909 0
M  V30 21 C 3.4201 -1.5112 0.765456 0
M  V30 22 O 4.6261 -1.52901 0.949802 0
M  V30 23 H 1.0011 -0.453868 0.59959 0
M  V30 24 H 2.9721 -1.04544 2.79487 0
M  V30 25 C 1.7211 -2.71049 2.17779 0
M  V30 26 H 1.0441 -2.59979 3.03728 0
M  V30 27 H 2.4841 -3.45858 2.45272 0
M  V30 28 C 0.9431 -3.22165 0.985473 0
M  V30 29 O 1.4731 -4.01096 0.220233 0
M  V30 30 N -0.3209 -2.7985 0.783108 0
M  V30 31 H -0.7739 -2.15775 1.40708 0
M  V30 32 H -0.8159 -3.14397 -0.0130392 0
M  V30 33 N 2.9562 -1.48159 -0.537278 0
M  V30 34 C 4.2332 -1.46291 -1.29839 0
M  V30 35 C 4.6132 -0.170613 -2.10409 0
M  V30 36 O 3.9612 0.847746 -2.12192 0
M  V30 37 C 4.1712 -2.72055 -2.18603 0
M  V30 38 C 5.5192 -3.20087 -2.7898 0
M  V30 39 O 6.5432 -2.72921 -2.28894 0
M  V30 40 O 5.4022 -4.02138 -3.70064 0
M  V30 41 H 2.4962 -0.583906 -0.585647 0
M  V30 42 H 5.0422 -1.60384 -0.554534 0
M  V30 43 H 3.8142 -3.57628 -1.58801 0
M  V30 44 H 3.4372 -2.60646 -3.00249 0
M  V30 45 N 4.4343 0.785586 -1.36625 0
M  V30 46 C 5.3663 1.90711 -1.2713 0
M  V30 47 C 6.3793 1.61688 -0.189986 0
M  V30 48 O 7.5683 1.72864 -0.445014 0
M  V30 49 C 4.6683 3.25611 -0.939713 0
M  V30 50 C 3.8413 3.82385 -2.12369 0
M  V30 51 C 2.9003 4.95732 -1.76456 0
M  V30 52 O 1.9263 5.12047 -2.48589 0
M  V30 53 N 3.1283 5.76258 -0.700492 0
M  V30 54 H 5.8933 1.99376 -2.23762 0
M  V30 55 H 3.4543 0.964041 -1.30069 0
M  V30 56 H 5.4463 3.98937 -0.680554 0
M  V30 57 H 4.0163 3.12538 -0.0624074 0
M  V30 58 H 3.2363 3.01001 -2.54543 0
M  V30 59 H 4.5243 4.17047 -2.9146 0
M  V30 60 H 3.9223 5.65609 -0.101624 0
M  V30 61 H 2.4793 6.4987 -0.501165 0
M  V30 62 N 5.9124 1.20967 1.01018 0
M  V30 63 C 7.3284 0.965905 1.27053 0
M  V30 64 C 7.5284 -0.350785 1.98423 0
M  V30 65 O 6.5844 -1.07773 2.28344 0
M  V30 66 C 7.8974 2.15294 2.09926 0
M  V30 67 C 9.4454 2.19463 2.23171 0
M  V30 68 C 9.9204 3.3767 3.09424 0
M  V30 69 N 11.4114 3.37724 3.17012 0
M  V30 70 C 12.1464 4.25837 3.83993 0
M  V30 71 N 11.6424 5.24138 4.53047 0
M  V30 72 N 13.4354 4.1366 3.80581 0
M  V30 73 H 5.5864 2.0565 0.531194 0
M  V30 74 H 7.8494 0.90024 0.297106 0
M  V30 75 H 7.5554 3.10684 1.64828 0
M  V30 76 H 7.4294 2.13923 3.10672 0
M  V30 77 H 9.8164 1.24632 2.6749 0
M  V30 78 H 9.8974 2.2488 1.21912 0
M  V30 79 H 9.5414 4.32791 2.65808 0
M  V30 80 H 9.4714 3.29491 4.10784 0
M  V30 81 H 11.9624 2.6658 2.6785 0
M  V30 82 H 12.2754 5.87684 5.01844 0
M  V30 83 H 10.6204 5.28068 4.5185 0
M  V30 84 H 13.8114 3.36127 3.25785 0
M  V30 85 H 13.9844 4.82538 4.32505 0
M  V30 86 N 7.3905 -1.2043 1.01659 0
M  V30 87 C 8.3375 -2.23215 0.586822 0
M  V30 88 C 9.3075 -1.61382 -0.393085 0
M  V30 89 O 10.4925 -1.88544 -0.292525 0
M  V30 90 C 7.6325 -3.45032 -0.0687464 0
M  V30 91 C 6.7455 -4.21296 0.955724 0
M  V30 92 C 5.8805 -5.30507 0.271208 0
M  V30 93 C 4.9195 -5.98515 1.28244 0
M  V30 94 N 4.0565 -6.99316 0.62459 0
M  V30 95 H 8.8965 -2.59336 1.46796 0
M  V30 96 H 6.4335 -1.27431 0.734836 0
M  V30 97 H 8.3915 -4.1459 -0.465965 0
M  V30 98 H 7.0215 -3.09604 -0.913529 0
M  V30 99 H 6.0735 -3.50803 1.4711 0
M  V30 100 H 7.3855 -4.6803 1.72479 0
M  V30 101 H 6.5395 -6.06428 -0.18151 0
M  V30 102 H 5.2785 -4.8481 -0.530163 0
M  V30 103 H 4.2835 -5.21355 1.74554 0
M  V30 104 H 5.5085 -6.46298 2.08509 0
M  V30 105 H 3.4545 -6.55812 -0.156914 0
M  V30 106 H 3.3715 -7.44178 1.33172 0
M  V30 107 H 4.6395 -7.79255 0.195462 0
M  V30 108 N 8.8686 -0.792821 -1.36206 0
M  V30 109 C 9.8156 -0.191653 -2.30003 0
M  V30 110 C 10.7856 0.666453 -1.52143 0
M  V30 111 O 11.9706 0.61442 -1.80636 0
M  V30 112 C 9.1106 0.664848 -3.38635 0
M  V30 113 C 8.2236 -0.212175 -4.31479 0
M  V30 114 C 7.3586 0.651022 -5.27196 0
M  V30 115 C 6.3976 -0.227247 -6.11678 0
M  V30 116 N 5.5346 0.595127 -6.99573 0
M  V30 117 H 10.3746 -0.996978 -2.80828 0
M  V30 118 H 7.9116 -0.503206 -1.38225 0
M  V30 119 H 9.8696 1.17645 -4.00269 0
M  V30 120 H 8.4996 1.43557 -2.89122 0
M  V30 121 H 7.5516 -0.841777 -3.70969 0
M  V30 122 H 8.8636 -0.888751 -4.90818 0
M  V30 123 H 8.0176 1.2283 -5.94136 0
M  V30 124 H 6.7566 1.36121 -4.68319 0
M  V30 125 H 5.7616 -0.816904 -5.43697 0
M  V30 126 H 6.9866 -0.93509 -6.72631 0
M  V30 127 H 4.9326 1.28955 -6.432 0
M  V30 128 H 4.8496 -0.0236952 -7.55996 0
M  V30 129 H 6.1176 1.15613 -7.70879 0
M  V30 130 N 10.3467 1.47872 -0.545128 0
M  V30 131 C 11.3097 2.28337 0.198717 0
M  V30 132 C 12.3097 1.36255 0.853888 0
M  V30 133 O 13.4997 1.59003 0.711606 0
M  V30 134 C 10.6317 3.15585 1.28915 0
M  V30 135 H 11.8247 2.95567 -0.507941 0
M  V30 136 H 9.3777 1.53362 -0.301616 0
M  V30 137 H 10.1127 2.53019 2.02859 0
M  V30 138 H 9.8977 3.83337 0.824309 0
M  V30 139 H 11.3877 3.76243 1.81194 0
M  V30 140 N 11.8248 0.280983 1.55075 0
M  V30 141 C 13.2408 -0.0729964 1.59433 0
M  V30 142 C 13.4408 -1.5411 1.29817 0
M  V30 143 O 12.4968 -2.29086 1.06187 0
M  V30 144 C 13.8098 0.306921 2.9913 0
M  V30 145 C 15.3578 0.254023 3.11968 0
M  V30 146 C 15.8328 0.608467 4.5394 0
M  V30 147 N 17.3238 0.560241 4.59799 0
M  V30 148 C 18.0588 0.80722 5.6769 0
M  V30 149 N 17.5548 1.11912 6.83701 0
M  V30 150 N 19.3478 0.735623 5.57266 0
M  V30 151 H 11.4988 1.238 1.7259 0
M  V30 152 H 13.7618 0.500547 0.805082 0
M  V30 153 H 13.4678 1.32816 3.25657 0
M  V30 154 H 13.3418 -0.349363 3.75579 0
M  V30 155 H 15.7288 -0.75794 2.852 0
M  V30 156 H 15.8098 0.944649 2.37718 0
M  V30 157 H 15.4538 1.61814 4.81434 0
M  V30 158 H 15.3838 -0.104013 5.26497 0
M  V30 159 H 17.8748 0.329288 3.76463 0
M  V30 160 H 18.1878 1.29409 7.61888 0
M  V30 161 H 16.5328 1.15695 6.85303 0
M  V30 162 H 19.7238 0.491752 4.6551 0
M  V30 163 H 19.8968 0.931482 6.4127 0
M  V30 164 N 13.3029 -1.57598 0.00835791 0
M  V30 165 C 14.2509 -2.10078 -0.998508 0
M  V30 166 C 15.2449 -1.02262 -1.35051 0
M  V30 167 O 16.4509 -1.20719 -1.33518 0
M  V30 168 H 12.8259 -0.670903 -0.339696 0
M  V30 169 H 14.7969 -2.93648 -0.530398 0
M  V30 170 C 13.5459 -2.62615 -2.27879 0
M  V30 171 H 12.8689 -3.45213 -2.01662 0
M  V30 172 H 14.3089 -3.03004 -2.96588 0
M  V30 173 C 12.7679 -1.54407 -2.99433 0
M  V30 174 O 13.2979 -0.931812 -3.90743 0
M  V30 175 N 11.5039 -1.2695 -2.61404 0
M  V30 176 H 11.0509 -1.76924 -1.87232 0
M  V30 177 H 11.0089 -0.547704 -3.09593 0
M  V30 178 N 14.781 0.264519 -1.55364 0
M  V30 179 C 16.009 1.013 -1.80405 0
M  V30 180 C 16.424 1.79618 -0.581622 0
M  V30 181 O 15.781 1.76879 0.449468 0
M  V30 182 C 15.832 1.96487 -3.03439 0
M  V30 183 O 15.553 1.21341 -4.20961 0
M  V30 184 C 17.054 2.83079 -3.41147 0
M  V30 185 H 14.274 0.298875 -0.600762 0
M  V30 186 H 16.818 0.292736 -2.02394 0
M  V30 187 H 14.973 2.63965 -2.83551 0
M  V30 188 H 15.387 1.85573 -4.90574 0
M  V30 189 H 16.861 3.4565 -4.30384 0
M  V30 190 H 17.338 3.53286 -2.60932 0
M  V30 191 H 17.944 2.2108 -3.63323 0
M  V30 192 N 16.2591 1.48442 0.529413 0
M  V30 193 C 17.6701 1.5002 1.11134 0
M  V30 194 C 18.0211 0.27031 1.94329 0
M  V30 195 O 17.1461 -0.622507 2.07253 0
M  V30 196 C 17.7411 2.71834 2.02217 0
M  V30 197 C 16.3001 2.76283 2.55627 0
M  V30 198 C 15.4471 2.43542 1.326 0
M  V30 199 H 18.3981 1.5555 0.314641 0
M  V30 200 H 18.4191 2.50384 2.8651 0
M  V30 201 H 17.9311 3.61331 1.41639 0
M  V30 202 H 16.0321 1.90995 3.19924 0
M  V30 203 H 16.1451 3.77725 2.94721 0
M  V30 204 H 14.5091 1.94709 1.64196 0
M  V30 205 H 15.2921 3.3528 0.737734 0
M  V30 206 N 17.7372 -0.778329 1.37039 0
M  V30 207 C 18.9842 -1.53665 1.31884 0
M  V30 208 C 19.3122 -1.9425 -0.0986303 0
M  V30 209 O 18.5672 -1.63832 -1.07041 0
M  V30 210 C 18.8662 -2.81845 2.19768 0
M  V30 211 C 18.5322 -2.60345 3.68146 0
M  V30 212 C 17.1942 -2.5419 4.08584 0
M  V30 213 C 19.5462 -2.40923 4.62175 0
M  V30 214 C 16.8742 -2.26594 5.41177 0
M  V30 215 C 19.2262 -2.14852 5.94997 0
M  V30 216 C 17.8902 -2.07137 6.34547 0
M  V30 217 H 17.1602 -0.562299 0.482598 0
M  V30 218 H 19.8072 -0.897069 1.69189 0
M  V30 219 H 18.1122 -3.50328 1.75436 0
M  V30 220 H 19.8092 -3.39692 2.13097 0
M  V30 221 H 16.3992 -2.65996 3.36072 0
M  V30 222 H 20.5832 -2.44673 4.31797 0
M  V30 223 H 15.8392 -2.19111 5.70789 0
M  V30 224 H 20.0132 -1.98822 6.67415 0
M  V30 225 H 17.6402 -1.85518 7.37216 0
M  V30 226 N 19.2153 -1.21501 -1.00376 0
M  V30 227 C 20.1633 -0.972442 -2.11297 0
M  V30 228 C 21.1573 0.080731 -1.69208 0
M  V30 229 O 22.3633 -0.0707666 -1.79861 0
M  V30 230 H 18.7383 -0.297218 -0.690772 0
M  V30 231 H 20.7093 -1.91394 -2.28934 0
M  V30 232 C 19.4583 -0.555065 -3.43241 0
M  V30 233 H 18.7813 -1.35709 -3.76062 0
M  V30 234 H 20.2213 -0.424664 -4.21868 0
M  V30 235 C 18.6803 0.734147 -3.28804 0
M  V30 236 O 19.2103 1.78937 -3.59645 0
M  V30 237 N 17.4163 0.701133 -2.82015 0
M  V30 238 H 16.9633 -0.157874 -2.57116 0
M  V30 239 H 16.9213 1.56403 -2.72737 0
M  V30 240 N 20.6934 1.19889 -1.02296 0
M  V30 241 C 21.6264 2.21639 -0.543282 0
M  V30 242 C 22.6044 1.57275 0.412698 0
M  V30 243 O 23.7884 1.85568 0.331198 0
M  V30 244 C 20.9154 3.38057 0.208571 0
M  V30 245 C 19.9614 4.20751 -0.697933 0
M  V30 246 S 20.7944 4.89529 -2.17075 0
M  V30 247 C 21.9504 6.09363 -1.42923 0
M  V30 248 H 22.1834 2.61984 -1.40541 0
M  V30 249 H 19.7164 1.30041 -0.832387 0
M  V30 250 H 21.6744 4.05539 0.63624 0
M  V30 251 H 20.3354 2.96159 1.04635 0
M  V30 252 H 19.5284 5.03862 -0.117831 0
M  V30 253 H 19.1304 3.58556 -1.06366 0
M  V30 254 H 21.4224 6.73742 -0.712637 0
M  V30 255 H 22.3654 6.71845 -2.23673 0
M  V30 256 H 22.7734 5.56798 -0.929327 0
M  V30 257 N 22.1715 0.800033 1.35784 0
M  V30 258 C 23.1015 0.220184 2.3246 0
M  V30 259 C 24.0825 -0.65073 1.57161 0
M  V30 260 O 25.2675 -0.582359 1.85263 0
M  V30 261 C 22.3975 -0.637353 3.41402 0
M  V30 262 C 21.3515 0.134531 4.27789 0
M  V30 263 C 20.6775 -0.844285 5.27992 0
M  V30 264 C 21.9775 1.32979 5.05088 0
M  V30 265 H 23.6715 1.02787 2.81203 0
M  V30 266 H 21.2175 0.495717 1.35199 0
M  V30 267 H 23.1705 -1.05302 4.08031 0
M  V30 268 H 21.8945 -1.47785 2.91251 0
M  V30 269 H 20.5535 0.531296 3.6273 0
M  V30 270 H 20.2015 -1.68011 4.74111 0
M  V30 271 H 19.9015 -0.332184 5.8666 0
M  V30 272 H 21.4255 -1.2583 5.97494 0
M  V30 273 H 22.8395 0.98934 5.64699 0
M  V30 274 H 21.2365 1.77593 5.7322 0
M  V30 275 H 22.3065 2.11978 4.36111 0
M  V30 276 N 23.6496 -1.47581 0.552962 0
M  V30 277 C 24.5966 -2.29957 -0.197108 0
M  V30 278 C 25.5666 -1.38799 -0.912359 0
M  V30 279 O 26.7516 -1.67761 -0.908888 0
M  V30 280 C 23.8916 -3.22672 -1.22379 0
M  V30 281 C 23.0046 -4.28919 -0.515038 0
M  V30 282 C 22.1396 -5.0879 -1.52664 0
M  V30 283 C 21.1786 -6.06815 -0.802631 0
M  V30 284 N 20.3156 -6.7966 -1.76086 0
M  V30 285 H 25.1556 -2.93578 0.511486 0
M  V30 286 H 22.6926 -1.4471 0.264067 0
M  V30 287 H 24.6506 -3.74845 -1.83159 0
M  V30 288 H 23.2806 -2.60925 -1.90047 0
M  V30 289 H 22.3326 -3.79835 0.207192 0
M  V30 290 H 23.6446 -4.98773 0.0523425 0
M  V30 291 H 22.7986 -5.65091 -2.20809 0
M  V30 292 H 21.5376 -4.38828 -2.12794 0
M  V30 293 H 20.5426 -5.49695 -0.107238 0
M  V30 294 H 21.7676 -6.78784 -0.207135 0
M  V30 295 H 19.7136 -6.12432 -2.35081 0
M  V30 296 H 19.6306 -7.45669 -1.24552 0
M  V30 297 H 20.8986 -7.40538 -2.43359 0
M  V30 298 N 25.1277 -0.289203 -1.54924 0
M  V30 299 C 26.5437 0.0645403 -1.59469 0
M  V30 300 C 26.7437 1.53419 -1.30632 0
M  V30 301 O 25.7997 2.2852 -1.074 0
M  V30 302 C 27.1127 -0.32278 -2.98963 0
M  V30 303 C 28.6607 -0.270564 -3.11828 0
M  V30 304 C 29.1357 -0.632532 -4.53611 0
M  V30 305 N 30.6267 -0.584617 -4.59496 0
M  V30 306 C 31.3617 -0.837314 -5.67254 0
M  V30 307 N 30.8577 -1.15536 -6.83098 0
M  V30 308 N 32.6507 -0.765166 -5.56868 0
M  V30 309 H 24.8017 -1.24714 -1.71931 0
M  V30 310 H 27.0647 -0.504809 -0.802416 0
M  V30 311 H 26.7707 -1.34541 -3.24948 0
M  V30 312 H 26.6447 0.32944 -3.75759 0
M  V30 313 H 29.0317 0.742805 -2.85598 0
M  V30 314 H 29.1127 -0.957242 -2.37214 0
M  V30 315 H 28.7567 -1.64365 -4.80569 0
M  V30 316 H 28.6867 0.07609 -5.26545 0
M  V30 317 H 31.1777 -0.349248 -3.76283 0
M  V30 318 H 31.4907 -1.33447 -7.61191 0
M  V30 319 H 29.8357 -1.19328 -6.84679 0
M  V30 320 H 33.0267 -0.516432 -4.65243 0
M  V30 321 H 33.1997 -0.965477 -6.40767 0
M  V30 322 N 26.6058 1.57591 -0.0167156 0
M  V30 323 C 27.5158 2.1291 0.98521 0
M  V30 324 C 28.5318 1.07834 1.36557 0
M  V30 325 O 29.7078 1.39826 1.44951 0
M  V30 326 C 26.7728 2.63512 2.25305 0
M  V30 327 C 25.8338 3.83256 1.93426 0
M  V30 328 C 25.0668 4.31435 3.14165 0
M  V30 329 O 25.2898 3.78851 4.26413 0
M  V30 330 O 24.2238 5.23416 2.97186 0
M  V30 331 H 28.0498 2.98772 0.544888 0
M  V30 332 H 25.6348 1.48012 0.203141 0
M  V30 333 H 27.5168 2.96183 2.99756 0
M  V30 334 H 26.1918 1.8074 2.68542 0
M  V30 335 H 25.0988 3.55531 1.16398 0
M  V30 336 H 26.4318 4.67153 1.55013 0
M  V30 337 N 28.0839 -0.256276 1.55502 0
M  V30 338 C 29.4999 -0.604325 1.47716 0
M  V30 339 C 29.6999 -1.88763 0.705039 0
M  V30 340 O 28.7559 -2.51445 0.230613 0
M  V30 341 C 30.0689 -0.715756 2.92057 0
M  V30 342 C 31.6169 -0.808706 3.02372 0
M  V30 343 C 32.0919 -0.951777 4.48001 0
M  V30 344 N 33.5829 -1.01688 4.519 0
M  V30 345 C 34.3179 -1.14668 5.61817 0
M  V30 346 N 33.8139 -1.24261 6.81565 0
M  V30 347 N 35.6069 -1.1791 5.49594 0
M  V30 348 H 27.7579 0.586291 2.04148 0
M  V30 349 H 30.0209 0.201015 0.926443 0
M  V30 350 H 29.7269 0.157027 3.51349 0
M  V30 351 H 29.6009 -1.59071 3.42018 0
M  V30 352 H 31.9879 -1.67195 2.43166 0
M  V30 353 H 32.0689 0.0912063 2.55637 0
M  V30 354 H 31.7129 -0.0931291 5.07815 0
M  V30 355 H 31.6429 -1.86659 4.92408 0
M  V30 356 H 34.1339 -0.954468 3.65648 0
M  V30 357 H 34.4469 -1.34046 7.61086 0
M  V30 358 H 32.7919 -1.21236 6.84344 0
M  V30 359 H 35.9829 -1.10057 4.54978 0
M  V30 360 H 36.1559 -1.27681 6.35296 0
M  V30 361 N 29.562 -1.4872 -0.521534 0
M  V30 362 C 30.51 -1.64328 -1.64618 0
M  V30 363 C 31.504 -0.50953 -1.61555 0
M  V30 364 O 32.71 -0.688525 -1.66311 0
M  V30 365 H 29.085 -0.517805 -0.545328 0
M  V30 366 H 31.056 -2.58767 -1.48601 0
M  V30 367 C 29.805 -1.70805 -3.02855 0
M  V30 368 H 29.128 -2.5741 -3.05909 0
M  V30 369 H 30.568 -1.85766 -3.81139 0
M  V30 370 C 29.027 -0.448479 -3.33902 0
M  V30 371 O 29.557 0.434928 -3.99339 0
M  V30 372 N 27.763 -0.317616 -2.88859 0
M  V30 373 H 27.31 -1.03748 -2.35784 0
M  V30 374 H 27.268 0.524113 -3.10001 0
M  V30 375 N 31.0401 0.771051 -1.3745 0
M  V30 376 C 32.4561 1.07171 -1.18265 0
M  V30 377 C 32.6561 2.01491 -0.019287 0
M  V30 378 O 31.7121 2.44244 0.640408 0
M  V30 379 C 33.0251 1.66854 -2.50161 0
M  V30 380 C 34.5731 1.79109 -2.56689 0
M  V30 381 C 35.0481 2.42205 -3.88717 0
M  V30 382 N 36.5391 2.49655 -3.90162 0
M  V30 383 C 37.2741 2.9933 -4.8907 0
M  V30 384 N 36.7701 3.49172 -5.98374 0
M  V30 385 N 38.5631 2.9821 -4.76474 0
M  V30 386 H 30.7141 0.144796 -2.11906 0
M  V30 387 H 32.9771 0.126863 -0.939473 0
M  V30 388 H 32.6831 1.05017 -3.35655 0
M  V30 389 H 32.5571 2.6614 -2.673 0
M  V30 390 H 34.9441 2.40077 -1.71601 0
M  V30 391 H 35.0251 0.785757 -2.43433 0
M  V30 392 H 34.6691 1.81875 -4.74219 0
M  V30 393 H 34.5991 3.43345 -3.99276 0
M  V30 394 H 37.0901 2.14383 -3.11205 0
M  V30 395 H 37.4031 3.8548 -6.69795 0
M  V30 396 H 35.7481 3.47275 -6.02018 0
M  V30 397 H 38.9391 2.58572 -3.90203 0
M  V30 398 H 39.1121 3.36613 -5.53711 0
M  V30 399 N 32.5182 1.22032 0.997298 0
M  V30 400 C 33.7642 1.04376 1.73878 0
M  V30 401 C 34.0972 -0.420716 1.89588 0
M  V30 402 O 33.3722 -1.31202 1.43583 0
M  V30 403 C 33.6552 1.75047 3.14691 0
M  V30 404 C 33.5082 3.29062 3.06656 0
M  V30 405 C 34.8272 1.49928 4.13775 0
M  V30 406 H 31.9462 0.380578 0.631133 0
M  V30 407 H 34.5882 1.50312 1.16217 0
M  V30 408 H 32.7382 1.35996 3.63919 0
M  V30 409 H 34.4102 3.7753 2.65083 0
M  V30 410 H 32.6532 3.58967 2.43568 0
M  V30 411 H 33.3242 3.73683 4.06282 0
M  V30 412 H 35.8002 1.83842 3.73285 0
M  V30 413 H 34.6762 2.01878 5.10428 0
M  V30 414 H 34.9372 0.430929 4.39995 0
M  V30 415 N 33.9963 -1.19345 1.0293 0
M  V30 416 C 35.2213 -1.93538 0.745511 0
M  V30 417 C 35.6463 -1.75007 -0.689511 0
M  V30 418 O 35.0043 -1.05265 -1.47611 0
M  V30 419 C 35.0523 -3.43336 1.10239 0
M  V30 420 O 34.1563 -4.11806 0.221289 0
M  V30 421 H 33.4973 -0.604193 0.275404 0
M  V30 422 H 36.0273 -1.5141 1.37609 0
M  V30 423 H 36.0373 -3.94004 1.05947 0
M  V30 424 H 34.7123 -3.56146 2.14786 0
M  V30 425 H 33.2893 -3.715 0.322842 0
M  V30 426 N 35.4744 -0.807222 -1.35358 0
M  V30 427 C 36.7024 -0.400377 -2.02989 0
M  V30 428 C 37.1174 0.988859 -1.60832 0
M  V30 429 O 36.4744 1.63729 -0.806175 0
M  V30 430 C 36.5254 -0.474867 -3.58368 0
M  V30 431 O 36.2464 -1.80933 -3.98992 0
M  V30 432 C 37.7474 -0.0609112 -4.43258 0
M  V30 433 H 34.9674 -0.162587 -0.651004 0
M  V30 434 H 37.5114 -1.09102 -1.72965 0
M  V30 435 H 35.6664 0.167534 -3.87038 0
M  V30 436 H 36.0804 -1.77256 -4.9364 0
M  V30 437 H 37.5544 -0.164145 -5.51756 0
M  V30 438 H 38.0314 0.993831 -4.27808 0
M  V30 439 H 38.6374 -0.676492 -4.19885 0
M  V30 440 N 36.9525 1.47285 -0.560781 0
M  V30 441 C 38.1985 2.02764 -0.0381184 0
M  V30 442 C 38.5315 1.43384 1.30976 0
M  V30 443 O 37.8065 0.590733 1.85312 0
M  V30 444 C 38.0895 3.60064 0.0511427 0
M  V30 445 C 37.9425 4.2987 -1.32408 0
M  V30 446 C 39.2615 4.33439 0.762795 0
M  V30 447 H 36.3805 0.736841 -0.0153264 0
M  V30 448 H 39.0225 1.75675 -0.723759 0
M  V30 449 H 37.1725 3.83274 0.635065 0
M  V30 450 H 38.8445 4.17989 -1.95148 0
M  V30 451 H 37.0875 3.90085 -1.8978 0
M  V30 452 H 37.7585 5.38478 -1.21431 0
M  V30 453 H 40.2345 4.15243 0.266965 0
M  V30 454 H 39.1105 5.43124 0.794221 0
M  V30 455 H 39.3715 4.02915 1.81966 0
M  V30 456 N 38.4306 0.297415 1.54768 0
M  V30 457 C 39.3626 -0.613881 2.20826 0
M  V30 458 C 40.3756 -1.10032 1.19987 0
M  V30 459 O 41.5646 -1.01839 1.46598 0
M  V30 460 C 38.6646 -1.852 2.83821 0
M  V30 461 C 37.8376 -1.50865 4.10559 0
M  V30 462 C 36.8966 -2.60154 4.57391 0
M  V30 463 O 35.9226 -2.25398 5.2267 0
M  V30 464 N 37.1246 -3.90629 4.29406 0
M  V30 465 H 39.8896 -0.048389 2.99661 0
M  V30 466 H 37.4506 0.11946 1.61459 0
M  V30 467 H 39.4426 -2.57652 3.12086 0
M  V30 468 H 38.0126 -2.32597 2.08847 0
M  V30 469 H 37.2326 -0.616925 3.89343 0
M  V30 470 H 38.5206 -1.25458 4.9309 0
M  V30 471 H 37.9186 -4.21677 3.77101 0
M  V30 472 H 36.4756 -4.59391 4.62388 0
M  V30 473 N 39.9087 -1.5758 0.0250728 0
M  V30 474 C 40.8407 -2.06869 -0.986796 0
M  V30 475 C 41.8537 -0.991332 -1.29137 0
M  V30 476 O 43.0427 -1.26761 -1.25674 0
M  V30 477 C 40.1427 -2.47486 -2.31525 0
M  V30 478 C 39.3157 -3.78253 -2.19643 0
M  V30 479 C 38.3747 -4.05464 -3.35388 0
M  V30 480 O 37.4007 -4.75774 -3.12454 0
M  V30 481 N 38.6027 -3.55321 -4.59051 0
M  V30 482 H 41.3677 -2.94302 -0.566276 0
M  V30 483 H 38.9287 -1.6109 -0.161776 0
M  V30 484 H 40.9207 -2.62785 -3.07776 0
M  V30 485 H 39.4907 -1.65441 -2.65232 0
M  V30 486 H 38.7107 -3.7279 -1.28144 0
M  V30 487 H 39.9987 -4.63936 -2.08903 0
M  V30 488 H 39.3967 -2.98431 -4.80578 0
M  V30 489 H 37.9537 -3.75905 -5.32483 0
M  V30 490 N 41.3868 0.248026 -1.55636 0
M  V30 491 C 42.3168 1.31079 -1.93237 0
M  V30 492 C 43.2978 1.50264 -0.797174 0
M  V30 493 O 44.4828 1.62891 -1.05737 0
M  V30 494 C 41.6128 2.66575 -2.22609 0
M  V30 495 C 40.5668 2.62087 -3.3837 0
M  V30 496 C 39.8928 4.01369 -3.53281 0
M  V30 497 C 41.1928 2.19171 -4.7409 0
M  V30 498 H 42.8868 0.998556 -2.82257 0
M  V30 499 H 40.4328 0.47891 -1.35803 0
M  V30 500 H 42.3858 3.41057 -2.47503 0
M  V30 501 H 41.1098 2.99432 -1.30414 0
M  V30 502 H 39.7688 1.90063 -3.13483 0
M  V30 503 H 39.4168 4.31489 -2.58508 0
M  V30 504 H 39.1168 3.99254 -4.31127 0
M  V30 505 H 40.6408 4.77552 -3.80495 0
M  V30 506 H 42.0548 2.83384 -4.98363 0
M  V30 507 H 40.4518 2.2817 -5.5503 0
M  V30 508 H 41.5218 1.14336 -4.71227 0
M  V30 509 N 42.8649 1.48995 0.513639 0
M  V30 510 C 44.0929 1.61531 1.29288 0
M  V30 511 C 44.5079 0.281801 1.86685 0
M  V30 512 O 43.8649 -0.731111 1.67215 0
M  V30 513 C 43.9159 2.67449 2.43215 0
M  V30 514 O 43.6369 3.95626 1.88179 0
M  V30 515 C 45.1379 2.90575 3.34785 0
M  V30 516 H 42.3579 0.544165 0.392588 0
M  V30 517 H 44.9019 1.9494 0.617956 0
M  V30 518 H 43.0569 2.36853 3.0656 0
M  V30 519 H 43.4709 4.53868 2.62876 0
M  V30 520 H 44.9449 3.68449 4.11035 0
M  V30 521 H 45.4219 2.00011 3.91015 0
M  V30 522 H 46.0279 3.22538 2.77218 0
M  V30 523 N 44.343 -0.763751 1.37857 0
M  V30 524 C 45.29 -1.87726 1.34267 0
M  V30 525 C 46.26 -1.64807 0.206879 0
M  V30 526 O 47.445 -1.86613 0.397508 0
M  V30 527 C 44.585 -3.24896 1.16346 0
M  V30 528 C 43.698 -3.59716 2.39225 0
M  V30 529 C 42.833 -4.86137 2.14114 0
M  V30 530 C 41.872 -5.13711 3.32817 0
M  V30 531 N 41.009 -6.31323 3.07206 0
M  V30 532 H 45.849 -1.90129 2.29466 0
M  V30 533 H 43.386 -0.929433 1.14017 0
M  V30 534 H 45.344 -4.04036 1.03975 0
M  V30 535 H 43.974 -3.21847 0.247909 0
M  V30 536 H 43.026 -2.75498 2.62307 0
M  V30 537 H 44.338 -3.76027 3.27728 0
M  V30 538 H 43.492 -5.73198 1.9882 0
M  V30 539 H 42.231 -4.71945 1.22961 0
M  V30 540 H 41.236 -4.25123 3.48641 0
M  V30 541 H 42.461 -5.29807 4.24832 0
M  V30 542 H 40.407 -6.18474 2.1869 0
M  V30 543 H 40.324 -6.48087 3.89254 0
M  V30 544 H 41.592 -7.213 2.95546 0
M  V30 545 N 45.8211 -1.22559 -0.990812 0
M  V30 546 C 47.2371 -0.985996 -1.255 0
M  V30 547 C 47.4371 0.319173 -1.98956 0
M  V30 548 O 46.4931 1.04127 -2.3003 0
M  V30 549 C 47.8061 -2.18607 -2.06474 0
M  V30 550 C 49.3541 -2.22985 -2.19651 0
M  V30 551 C 49.8291 -3.4255 -3.04012 0
M  V30 552 N 51.3201 -3.42725 -3.11599 0
M  V30 553 C 52.0551 -4.31892 -3.7717 0
M  V30 554 N 51.5511 -5.31279 -4.44651 0
M  V30 555 N 53.3441 -4.19662 -3.73952 0
M  V30 556 H 45.4951 -2.06469 -0.49841 0
M  V30 557 H 47.7581 -0.904853 -0.282747 0
M  V30 558 H 47.4641 -3.13267 -1.59865 0
M  V30 559 H 47.3381 -2.18838 -3.07229 0
M  V30 560 H 49.7251 -1.28871 -2.65474 0
M  V30 561 H 49.8061 -2.26791 -1.18319 0
M  V30 562 H 49.4501 -4.36965 -2.58889 0
M  V30 563 H 49.3801 -3.35984 -4.0549 0
M  V30 564 H 51.8711 -2.70807 -2.63575 0
M  V30 565 H 52.1841 -5.95593 -4.92431 0
M  V30 566 H 50.5291 -5.3519 -4.43392 0
M  V30 567 H 53.7201 -3.41268 -3.20396 0
M  V30 568 H 53.8931 -4.89358 -4.24774 0
M  V30 569 N 47.2992 1.18797 -1.03562 0
M  V30 570 C 48.5462 1.8865 -0.736023 0
M  V30 571 C 48.8742 1.80041 0.735889 0
M  V30 572 O 48.1292 1.19179 1.55225 0
M  V30 573 C 48.4282 3.38692 -1.14117 0
M  V30 574 C 48.0942 3.67504 -2.6125 0
M  V30 575 C 46.7562 3.75078 -3.01447 0
M  V30 576 C 49.1082 3.80293 -3.56408 0
M  V30 577 C 46.4362 3.92915 -4.35701 0
M  V30 578 C 48.7882 3.99645 -4.90374 0
M  V30 579 C 47.4522 4.05453 -5.30249 0
M  V30 580 H 46.7222 0.690321 -0.26933 0
M  V30 581 H 49.3692 1.40641 -1.29971 0
M  V30 582 H 47.6742 3.88645 -0.496202 0
M  V30 583 H 49.3712 3.91072 -0.886789 0
M  V30 584 H 45.9612 3.62223 -2.29113 0
M  V30 585 H 50.1452 3.73779 -3.26501 0
M  V30 586 H 45.4012 3.95653 -4.66121 0
M  V30 587 H 49.5752 4.08482 -5.64017 0
M  V30 588 H 47.2022 4.19027 -6.34288 0
M  V30 589 N 48.7773 0.814389 1.34928 0
M  V30 590 C 50.0023 0.410097 2.03305 0
M  V30 591 C 50.4273 -0.973464 1.60951 0
M  V30 592 O 49.7853 -1.63185 0.789964 0
M  V30 593 C 49.8333 0.51049 3.56968 0
M  V30 594 O 48.9373 -0.473035 4.09678 0
M  V30 595 H 48.2783 0.170088 0.641846 0
M  V30 596 H 50.8083 1.10244 1.72358 0
M  V30 597 H 50.8183 0.383135 4.06197 0
M  V30 598 H 49.4933 1.51963 3.87144 0
M  V30 599 H 48.0703 -0.305272 3.71648 0
M  V30 600 N 50.2554 -1.46986 0.568584 0
M  V30 601 C 51.1854 -2.32946 -0.160753 0
M  V30 602 C 52.1664 -1.44487 -0.897631 0
M  V30 603 O 53.3514 -1.73327 -0.875867 0
M  V30 604 C 50.4814 -3.26494 -1.18403 0
M  V30 605 C 49.4354 -4.24282 -0.562895 0
M  V30 606 C 48.7614 -5.07236 -1.69163 0
M  V30 607 C 50.0614 -5.19989 0.490761 0
M  V30 608 H 51.7554 -2.94175 0.556916 0
M  V30 609 H 49.3014 -1.4146 0.26927 0
M  V30 610 H 51.2544 -3.85477 -1.70251 0
M  V30 611 H 49.9784 -2.63343 -1.93179 0
M  V30 612 H 48.6374 -3.66541 -0.0656164 0
M  V30 613 H 48.2854 -4.4048 -2.42871 0
M  V30 614 H 47.9854 -5.7345 -1.28174 0
M  V30 615 H 49.5094 -5.6908 -2.21314 0
M  V30 616 H 50.9234 -5.73271 0.0579047 0
M  V30 617 H 49.3204 -5.94469 0.820165 0
M  V30 618 H 50.3904 -4.64777 1.3824 0
M  V30 619 N 51.7335 -0.305618 -1.54608 0
M  V30 620 C 52.9815 0.301701 -1.99835 0
M  V30 621 C 53.3025 1.54054 -1.19551 0
M  V30 622 O 52.5725 1.93702 -0.292658 0
M  V30 623 H 51.1525 0.114468 -0.738178 0
M  V30 624 H 53.8145 -0.418016 -1.90364 0
M  V30 625 H 52.9105 0.570548 -3.06841 0
M  V30 626 N 53.2116 1.57565 -0.0334293 0
M  V30 627 C 54.1446 2.05997 0.981866 0
M  V30 628 C 55.1226 0.956647 1.3148 0
M  V30 629 O 56.3066 1.22729 1.43073 0
M  V30 630 C 53.4336 2.48564 2.30074 0
M  V30 631 C 52.4796 3.69958 2.12211 0
M  V30 632 S 53.3126 5.16414 1.41692 0
M  V30 633 C 54.4686 5.6228 2.7494 0
M  V30 634 H 54.7016 2.91792 0.569612 0
M  V30 635 H 52.2346 1.53366 0.178376 0
M  V30 636 H 54.1926 2.73753 3.05892 0
M  V30 637 H 52.8536 1.63106 2.68431 0
M  V30 638 H 52.0466 3.97603 3.09722 0
M  V30 639 H 51.6486 3.44943 1.44535 0
M  V30 640 H 53.9406 5.66783 3.71165 0
M  V30 641 H 54.8836 6.61759 2.51953 0
M  V30 642 H 55.2916 4.89944 2.80384 0
M  V30 643 N 54.6897 -0.239769 1.55765 0
M  V30 644 C 55.6197 -1.30052 1.9393 0
M  V30 645 C 56.6007 -1.49839 0.805132 0
M  V30 646 O 57.7857 -1.62328 1.06599 0
M  V30 647 C 54.9157 -2.65391 2.2402 0
M  V30 648 C 53.8697 -2.60289 3.39755 0
M  V30 649 C 53.1957 -3.99489 3.55405 0
M  V30 650 C 54.4957 -2.16654 4.75246 0
M  V30 651 H 56.1897 -0.983573 2.82783 0
M  V30 652 H 53.7357 -0.471701 1.36055 0
M  V30 653 H 55.6887 -3.3974 2.49308 0
M  V30 654 H 54.4127 -2.98736 1.32 0
M  V30 655 H 53.0717 -1.88398 3.14487 0
M  V30 656 H 52.7197 -4.30112 2.60793 0
M  V30 657 H 52.4197 -3.96962 4.33238 0
M  V30 658 H 53.9437 -4.75528 3.83022 0
M  V30 659 H 55.3577 -2.80737 4.99859 0
M  V30 660 H 53.7547 -2.25223 5.56232 0
M  V30 661 H 54.8247 -1.11835 4.71827 0
M  V30 662 N 56.1678 -1.49265 -0.50573 0
M  V30 663 C 57.0998 -1.617 -1.62437 0
M  V30 664 C 58.1128 -0.499924 -1.54934 0
M  V30 665 O 59.3018 -0.771785 -1.60953 0
M  V30 666 C 56.4018 -1.5533 -3.01207 0
M  V30 667 C 55.5748 -2.8249 -3.33943 0
M  V30 668 C 54.6338 -2.69238 -4.52103 0
M  V30 669 O 53.6598 -3.43167 -4.5412 0
M  V30 670 N 54.8618 -1.80468 -5.51735 0
M  V30 671 H 57.6268 -2.58177 -1.52199 0
M  V30 672 H 55.1878 -1.46294 -0.693511 0
M  V30 673 H 57.1798 -1.44125 -3.78167 0
M  V30 674 H 55.7498 -0.667297 -3.05395 0
M  V30 675 H 54.9698 -3.08081 -2.45926 0
M  V30 676 H 56.2578 -3.66802 -3.5261 0
M  V30 677 H 55.6558 -1.19653 -5.52901 0
M  V30 678 H 54.2128 -1.75188 -6.27816 0
M  V30 679 N 57.6459 0.756429 -1.3826 0
M  V30 680 C 58.8939 1.51248 -1.34047 0
M  V30 681 C 59.2149 1.94875 0.0698372 0
M  V30 682 O 58.4849 1.67436 1.01696 0
M  V30 683 H 57.0649 0.561018 -0.493222 0
M  V30 684 H 59.7269 0.899347 -1.7291 0
M  V30 685 H 58.8229 2.40472 -1.98947 0
M  V30 686 N 59.124 1.23083 0.984299 0
M  V30 687 C 60.54 0.992637 1.24975 0
M  V30 688 C 60.74 -0.308618 1.99123 0
M  V30 689 O 59.796 -1.02905 2.30579 0
M  V30 690 C 61.109 2.19698 2.05312 0
M  V30 691 C 62.657 2.24147 2.18465 0
M  V30 692 C 63.132 3.44157 3.02192 0
M  V30 693 N 64.623 3.44372 3.09777 0
M  V30 694 C 65.358 4.33886 3.74874 0
M  V30 695 N 64.854 5.3363 4.41827 0
M  V30 696 N 66.647 4.21639 3.71721 0
M  V30 697 H 58.798 2.06731 0.487453 0
M  V30 698 H 61.061 0.906339 0.277944 0
M  V30 699 H 60.767 3.1411 1.58201 0
M  V30 700 H 60.641 2.20465 3.06064 0
M  V30 701 H 63.028 1.30277 2.64786 0
M  V30 702 H 63.109 2.27415 1.17115 0
M  V30 703 H 62.753 4.38332 2.56568 0
M  V30 704 H 62.683 3.3813 4.03702 0
M  V30 705 H 65.174 2.72201 2.62135 0
M  V30 706 H 65.487 5.98196 4.89266 0
M  V30 707 H 63.832 5.37534 4.40548 0
M  V30 708 H 67.023 3.42962 3.18582 0
M  V30 709 H 67.196 4.91604 4.22173 0
M  V30 710 N 60.6021 -1.18246 1.0419 0
M  V30 711 C 61.8501 -1.87886 0.744543 0
M  V30 712 C 62.1711 -1.8082 -0.730006 0
M  V30 713 O 61.4411 -1.22736 -1.52685 0
M  V30 714 H 60.0211 -0.695556 0.272417 0
M  V30 715 H 62.6831 -1.43494 1.31892 0
M  V30 716 H 61.7791 -2.9389 1.05049 0
M  V30 717 N 62.0802 -0.821533 -1.34494 0
M  V30 718 C 63.4912 -0.467956 -1.8074 0
M  V30 719 C 63.8422 1.01151 -1.68116 0
M  V30 720 O 62.9672 1.78707 -1.22036 0
M  V30 721 C 63.5622 -0.842627 -3.28154 0
M  V30 722 C 62.1212 -0.541439 -3.72485 0
M  V30 723 C 61.2682 -1.06028 -2.56229 0
M  V30 724 H 64.2192 -1.01183 -1.22261 0
M  V30 725 H 64.2402 -0.145876 -3.8022 0
M  V30 726 H 63.7522 -1.91945 -3.37311 0
M  V30 727 H 61.8532 0.526034 -3.68868 0
M  V30 728 H 61.9662 -1.08453 -4.66663 0
M  V30 729 H 60.3302 -0.481892 -2.501 0
M  V30 730 H 61.1132 -2.14352 -2.68157 0
M  V30 731 N 63.5583 1.46682 -0.576371 0
M  V30 732 C 64.4883 2.33028 0.148397 0
M  V30 733 C 65.4693 1.44961 0.889956 0
M  V30 734 O 66.6543 1.73789 0.866662 0
M  V30 735 C 63.7843 3.27117 1.1667 0
M  V30 736 C 62.7383 4.24575 0.540386 0
M  V30 737 C 62.0643 5.08126 1.6647 0
M  V30 738 C 63.3643 5.19722 -0.518331 0
M  V30 739 H 65.0583 2.93875 -0.572509 0
M  V30 740 H 62.6043 1.41315 -0.276768 0
M  V30 741 H 64.5573 3.86374 1.68204 0
M  V30 742 H 63.2813 2.64364 1.9178 0
M  V30 743 H 61.9403 3.66571 0.0461769 0
M  V30 744 H 61.5883 4.41762 2.40531 0
M  V30 745 H 61.2883 5.74122 1.25131 0
M  V30 746 H 62.8123 5.70246 2.18293 0
M  V30 747 H 64.2263 5.73232 -0.0883058 0
M  V30 748 H 62.6233 5.94026 -0.851679 0
M  V30 749 H 63.6933 4.64037 -1.40703 0
M  V30 750 N 65.0364 0.313813 1.54444 0
M  V30 751 C 65.9834 -0.55655 2.23989 0
M  V30 752 C 66.9534 -1.11943 1.22711 0
M  V30 753 O 68.1384 -1.16158 1.51367 0
M  V30 754 C 65.2784 -1.71635 2.99392 0
M  V30 755 C 64.3914 -1.18364 4.15468 0
M  V30 756 C 63.5264 -2.30834 4.78424 0
M  V30 757 C 62.5654 -1.74762 5.86622 0
M  V30 758 N 61.7024 -2.80855 6.43479 0
M  V30 759 H 66.5424 0.0430893 2.97969 0
M  V30 760 H 64.0794 0.0330359 1.47063 0
M  V30 761 H 66.0374 -2.39868 3.41349 0
M  V30 762 H 64.6674 -2.28742 2.27765 0
M  V30 763 H 63.7194 -0.393163 3.78363 0
M  V30 764 H 65.0314 -0.733262 4.93381 0
M  V30 765 H 64.1854 -3.0699 5.23299 0
M  V30 766 H 62.9244 -2.79204 3.99871 0
M  V30 767 H 61.9294 -0.970995 5.41158 0
M  V30 768 H 63.1544 -1.2728 6.67066 0
M  V30 769 H 61.1004 -3.28535 5.67804 0
M  V30 770 H 61.0174 -2.40351 7.16776 0
M  V30 771 H 62.2854 -3.5687 6.93011 0
M  V30 772 N 66.5145 -1.57545 0.0417849 0
M  V30 773 C 67.4445 -2.14009 -0.933929 0
M  V30 774 C 68.4255 -1.05938 -1.33083 0
M  V30 775 O 69.6105 -1.33833 -1.40721 0
M  V30 776 C 66.7405 -2.67747 -2.21199 0
M  V30 777 C 65.6945 -3.80718 -1.95544 0
M  V30 778 C 65.0205 -4.20935 -3.29724 0
M  V30 779 C 66.3205 -5.06258 -1.28452 0
M  V30 780 H 68.0145 -2.95788 -0.463645 0
M  V30 781 H 65.5605 -1.42285 -0.221573 0
M  V30 782 H 67.5135 -3.05886 -2.89848 0
M  V30 783 H 66.2375 -1.83147 -2.70416 0
M  V30 784 H 64.8965 -3.43037 -1.2931 0
M  V30 785 H 64.5445 -3.33298 -3.76724 0
M  V30 786 H 64.2445 -4.9707 -3.13361 0
M  V30 787 H 65.7685 -4.61666 -3.9962 0
M  V30 788 H 67.1825 -5.41903 -1.8712 0
M  V30 789 H 65.5795 -5.87475 -1.22445 0
M  V30 790 H 66.6495 -4.84207 -0.259219 0
M  V30 791 N 67.9926 0.231505 -1.5589 0
M  V30 792 C 69.2396 0.957352 -1.78441 0
M  V30 793 C 69.5676 1.84726 -0.60882 0
M  V30 794 O 68.8226 1.91416 0.40725 0
M  V30 795 C 69.1216 1.83577 -3.0665 0
M  V30 796 C 68.7876 1.09993 -4.37278 0
M  V30 797 C 67.4496 0.896629 -4.72773 0
M  V30 798 C 69.8016 0.579558 -5.17968 0
M  V30 799 C 67.1296 0.160896 -5.86479 0
M  V30 800 C 69.4816 -0.142783 -6.32439 0
M  V30 801 C 68.1456 -0.357427 -6.66542 0
M  V30 802 H 67.4156 0.35032 -0.65296 0
M  V30 803 H 70.0626 0.226259 -1.90159 0
M  V30 804 H 68.3676 2.63441 -2.90011 0
M  V30 805 H 70.0646 2.39934 -3.21298 0
M  V30 806 H 66.6546 1.26835 -4.09403 0
M  V30 807 H 70.8386 0.724125 -4.90989 0
M  V30 808 H 66.0946 -0.0157293 -6.11398 0
M  V30 809 H 70.2686 -0.553559 -6.94196 0
M  V30 810 H 67.8956 -0.929466 -7.54497 0
M  V30 811 N 69.4707 1.49531 0.497807 0
M  V30 812 C 70.4037 1.61043 1.6168 0
M  V30 813 C 71.3817 0.459386 1.55976 0
M  V30 814 O 72.5657 0.675358 1.75986 0
M  V30 815 C 69.6927 1.56833 3.00202 0
M  V30 816 C 68.7387 2.77173 3.24156 0
M  V30 817 S 69.5717 4.38808 3.06933 0
M  V30 818 C 70.7277 4.37248 4.47845 0
M  V30 819 H 70.9607 2.55702 1.51671 0
M  V30 820 H 68.4937 1.38462 0.683201 0
M  V30 821 H 70.4517 1.55089 3.80076 0
M  V30 822 H 69.1127 0.634561 3.07623 0
M  V30 823 H 68.3057 2.70456 4.25288 0
M  V30 824 H 67.9077 2.76346 2.5201 0
M  V30 825 H 70.1997 4.09164 5.39992 0
M  V30 826 H 71.1427 5.38668 4.59612 0
M  V30 827 H 71.5507 3.67286 4.28674 0
M  V30 828 N 70.9488 -0.749086 1.3866 0
M  V30 829 C 71.9118 -1.84457 1.36045 0
M  V30 830 C 72.9118 -1.58682 0.260122 0
M  V30 831 O 74.1018 -1.66343 0.517261 0
M  V30 832 C 71.2338 -3.22008 1.11911 0
M  V30 833 H 72.4268 -1.88182 2.33512 0
M  V30 834 H 69.9798 -0.951266 1.24019 0
M  V30 835 H 70.7148 -3.2395 0.150686 0
M  V30 836 H 70.4998 -3.42111 1.91579 0
M  V30 837 H 71.9898 -4.0208 1.12788 0
M  V30 838 N 72.4269 -1.23603 -0.977757 0
M  V30 839 C 73.3569 -1.04401 -2.0886 0
M  V30 840 C 74.3379 0.0399052 -1.70053 0
M  V30 841 O 75.5229 -0.125246 -1.93796 0
M  V30 842 C 72.6529 -0.637269 -3.41403 0
M  V30 843 C 71.6069 -1.66883 -3.94124 0
M  V30 844 C 70.9329 -1.11745 -5.22893 0
M  V30 845 C 72.2329 -3.06247 -4.23096 0
M  V30 846 H 73.9269 -1.97316 -2.25182 0
M  V30 847 H 71.4729 -0.950096 -1.08209 0
M  V30 848 H 73.4259 -0.48998 -4.18542 0
M  V30 849 H 72.1499 0.327557 -3.24953 0
M  V30 850 H 70.8089 -1.80416 -3.19133 0
M  V30 851 H 70.4569 -0.143527 -5.02795 0
M  V30 852 H 70.1569 -1.80672 -5.59134 0
M  V30 853 H 71.6809 -0.982067 -6.02651 0
M  V30 854 H 73.0949 -2.96001 -4.90975 0
M  V30 855 H 71.4919 -3.72436 -4.70544 0
M  V30 856 H 72.5619 -3.55041 -3.30263 0
M  V30 857 N 73.905 1.17692 -1.04816 0
M  V30 858 C 75.151 1.88137 -0.75711 0
M  V30 859 C 75.484 1.80604 0.713841 0
M  V30 860 O 74.759 1.21146 1.52164 0
M  V30 861 C 75.042 3.38318 -1.2334 0
M  V30 862 C 74.895 3.54622 -2.76701 0
M  V30 863 C 76.214 4.32214 -0.829415 0
M  V30 864 H 73.333 0.683163 -0.27651 0
M  V30 865 H 75.975 1.38424 -1.30149 0
M  V30 866 H 74.125 3.80787 -0.770286 0
M  V30 867 H 75.797 3.21194 -3.31107 0
M  V30 868 H 74.04 2.97026 -3.16161 0
M  V30 869 H 74.711 4.60028 -3.05088 0
M  V30 870 H 77.187 3.97565 -1.22805 0
M  V30 871 H 76.063 5.35838 -1.19033 0
M  V30 872 H 76.324 4.41294 0.266891 0
M  V30 873 N 75.3831 0.828654 1.34056 0
M  V30 874 C 76.3461 0.259927 2.27721 0
M  V30 875 C 77.3461 -0.565478 1.50529 0
M  V30 876 O 78.5361 -0.38075 1.69988 0
M  V30 877 C 75.6681 -0.634944 3.34935 0
M  V30 878 H 76.8611 1.0863 2.79534 0
M  V30 879 H 74.4141 0.600951 1.44285 0
M  V30 880 H 75.1491 -1.48416 2.88346 0
M  V30 881 H 74.9341 -0.0444999 3.92075 0
M  V30 882 H 76.4241 -1.02648 4.04788 0
M  V30 883 N 76.8612 -1.46375 0.584142 0
M  V30 884 C 78.1082 -2.02378 0.0702675 0
M  V30 885 C 78.4362 -1.45545 -1.29023 0
M  V30 886 O 77.6912 -0.610967 -1.85918 0
M  V30 887 C 77.9902 -3.57373 -0.0439342 0
M  V30 888 C 77.6562 -4.33252 1.24915 0
M  V30 889 C 76.3182 -4.53701 1.60341 0
M  V30 890 C 78.6702 -4.7681 2.1048 0
M  V30 891 C 75.9982 -5.1496 2.81128 0
M  V30 892 C 78.3502 -5.39404 3.30494 0
M  V30 893 C 77.0142 -5.5808 3.66201 0
M  V30 894 H 76.2842 -0.740554 0.0257127 0
M  V30 895 H 78.9312 -1.75727 0.761065 0
M  V30 896 H 77.2362 -3.83169 -0.817869 0
M  V30 897 H 78.9332 -3.98384 -0.457318 0
M  V30 898 H 75.5232 -4.17633 0.963364 0
M  V30 899 H 79.7072 -4.60766 1.84414 0
M  V30 900 H 74.9632 -5.27611 3.08928 0
M  V30 901 H 79.1372 -5.72114 3.97063 0
M  V30 902 H 76.7642 -6.05318 4.59885 0
M  V30 903 N 78.3393 -0.321999 -1.54275 0
M  V30 904 C 79.2693 0.537411 -2.27231 0
M  V30 905 C 80.2503 1.12064 -1.27968 0
M  V30 906 O 81.4353 1.14606 -1.56777 0
M  V30 907 C 78.5653 1.69919 -3.02894 0
M  V30 908 C 77.5193 1.24534 -4.09482 0
M  V30 909 C 76.8453 2.49394 -4.72977 0
M  V30 910 C 78.1453 0.361335 -5.21049 0
M  V30 911 H 79.8393 -0.0711406 -2.99315 0
M  V30 912 H 77.3853 -0.0356555 -1.43956 0
M  V30 913 H 79.3383 2.30668 -3.52662 0
M  V30 914 H 78.0623 2.33431 -2.28424 0
M  V30 915 H 76.7213 0.660782 -3.60596 0
M  V30 916 H 76.3693 3.11265 -3.95124 0
M  V30 917 H 76.0693 2.19718 -5.44975 0
M  V30 918 H 77.5933 3.10908 -5.25517 0
M  V30 919 H 79.0073 0.875072 -5.66582 0
M  V30 920 H 77.4043 0.157428 -5.99893 0
M  V30 921 H 78.4743 -0.60822 -4.8107 0
M  V30 922 N 79.8174 1.5752 -0.0501392 0
M  V30 923 C 81.2334 1.56631 0.306402 0
M  V30 924 C 81.4334 1.0577 1.71508 0
M  V30 925 O 80.4894 0.713837 2.422 0
M  V30 926 C 81.8024 3.00393 0.135811 0
M  V30 927 C 83.3504 3.12315 0.206993 0
M  V30 928 C 83.8254 4.57954 0.064944 0
M  V30 929 N 85.3164 4.63041 0.121254 0
M  V30 930 C 86.0514 5.73389 0.0354381 0
M  V30 931 N 85.5474 6.92724 -0.102666 0
M  V30 932 N 87.3404 5.62026 0.090946 0
M  V30 933 H 79.4914 1.88903 -0.971046 0
M  V30 934 H 81.7544 0.869876 -0.376855 0
M  V30 935 H 81.4604 3.41635 -0.835384 0
M  V30 936 H 81.3344 3.66373 0.897275 0
M  V30 937 H 83.7214 2.70973 1.16866 0
M  V30 938 H 83.8024 2.49016 -0.585208 0
M  V30 939 H 83.4464 4.99981 -0.893394 0
M  V30 940 H 83.3764 5.19258 0.876277 0
M  V30 941 H 85.8674 3.77216 0.227284 0
M  V30 942 H 86.1804 7.72633 -0.160882 0
M  V30 943 H 84.5254 6.94864 -0.137737 0
M  V30 944 H 87.7164 4.67684 0.197388 0
M  V30 945 H 87.8894 6.47997 0.0206089 0
M  V30 946 N 81.2955 -0.223234 1.56011 0
M  V30 947 C 82.5425 -0.947875 1.78946 0
M  V30 948 C 82.8705 -1.844 0.618608 0
M  V30 949 O 82.1255 -1.91629 -0.397093 0
M  V30 950 C 82.4245 -1.81948 3.0762 0
M  V30 951 C 82.0905 -1.07672 4.37856 0
M  V30 952 C 80.7525 -0.871544 4.73242 0
M  V30 953 C 83.1045 -0.552081 5.18268 0
M  V30 954 C 80.4325 -0.129791 5.86556 0
M  V30 955 C 82.7845 0.17632 6.32354 0
M  V30 956 C 81.4485 0.39277 6.66343 0
M  V30 957 H 80.7185 -0.346852 0.654809 0
M  V30 958 H 83.3655 -0.216171 1.90276 0
M  V30 959 H 81.6705 -2.61899 2.91404 0
M  V30 960 H 83.3675 -2.38227 3.22566 0
M  V30 961 H 79.9575 -1.24662 4.1007 0
M  V30 962 H 84.1415 -0.698076 4.91366 0
M  V30 963 H 79.3975 0.048153 6.11381 0
M  V30 964 H 83.5715 0.590367 6.93893 0
M  V30 965 H 81.1985 0.969466 7.53993 0
M  V30 966 N 82.7736 -1.49793 -0.48987 0
M  V30 967 C 83.7036 -1.70201 -1.59856 0
M  V30 968 C 84.6846 -0.55076 -1.60937 0
M  V30 969 O 85.8696 -0.787841 -1.77501 0
M  V30 970 C 82.9996 -1.77882 -2.98287 0
M  V30 971 C 81.9536 -2.92907 -3.12073 0
M  V30 972 C 81.2796 -2.85712 -4.51965 0
M  V30 973 C 82.5796 -4.3369 -2.91051 0
M  V30 974 H 84.2736 -2.63025 -1.43032 0
M  V30 975 H 81.8196 -1.26574 -0.686664 0
M  V30 976 H 83.7726 -1.90744 -3.75759 0
M  V30 977 H 82.4966 -0.816653 -3.16225 0
M  V30 978 H 81.1556 -2.79665 -2.37029 0
M  V30 979 H 80.8036 -1.8738 -4.66795 0
M  V30 980 H 80.5036 -3.62921 -4.62128 0
M  V30 981 H 82.0276 -3.00598 -5.31482 0
M  V30 982 H 83.4416 -4.47555 -3.58284 0
M  V30 983 H 81.8386 -5.12205 -3.12675 0
M  V30 984 H 82.9086 -4.47362 -1.87071 0
M  V30 985 N 84.2517 0.741722 -1.39055 0
M  V30 986 C 85.4797 1.53098 -1.39171 0
M  V30 987 C 85.8947 1.88794 0.0155099 0
M  V30 988 O 85.2517 1.53626 0.985159 0
M  V30 989 C 85.3027 2.82274 -2.2584 0
M  V30 990 O 85.0237 2.48097 -3.61081 0
M  V30 991 C 86.5247 3.76343 -2.34266 0
M  V30 992 H 83.7447 0.473335 -0.4756 0
M  V30 993 H 86.2887 0.917045 -1.82785 0
M  V30 994 H 84.4437 3.40015 -1.85656 0
M  V30 995 H 84.8577 3.31029 -4.06842 0
M  V30 996 H 86.3317 4.63898 -2.9917 0
M  V30 997 H 86.8087 4.17619 -1.35982 0
M  V30 998 H 87.4147 3.24523 -2.74891 0
M  V30 999 N 85.7298 1.2412 0.971189 0
M  V30 1000 C 86.9788 1.07284 1.70801 0
M  V30 1001 C 87.2918 -0.388902 1.91695 0
M  V30 1002 O 88.4978 -0.677379 2.62914 0
M  V30 1003 C 86.9538 1.87145 3.07416 0
M  V30 1004 C 86.5618 3.37707 2.94377 0
M  V30 1005 C 88.3058 1.78828 3.84995 0
M  V30 1006 C 86.2128 4.09925 4.26281 0
M  V30 1007 H 85.1428 0.397854 0.64049 0
M  V30 1008 H 87.7938 1.4817 1.0825 0
M  V30 1009 H 86.1758 1.39071 3.70777 0
M  V30 1010 H 87.3498 3.93335 2.4005 0
M  V30 1011 H 85.6648 3.46938 2.30267 0
M  V30 1012 H 88.2618 2.30089 4.82662 0
M  V30 1013 H 88.6048 0.75284 4.09436 0
M  V30 1014 H 89.1378 2.24563 3.28354 0
M  V30 1015 H 85.8768 5.13813 4.07033 0
M  V30 1016 H 85.3968 3.59083 4.80437 0
M  V30 1017 H 87.0758 4.1673 4.94919 0
M  V30 1018 N 87.2079 -1.17134 1.05439 0
M  V30 1019 C 88.6189 -1.69084 0.791676 0
M  V30 1020 C 88.9699 -1.83822 -0.685839 0
M  V30 1021 O 88.0949 -1.52757 -1.53278 0
M  V30 1022 C 88.6899 -3.07119 1.4305 0
M  V30 1023 C 87.2489 -3.56225 1.21577 0
M  V30 1024 C 86.3959 -2.32421 1.51247 0
M  V30 1025 H 89.3469 -1.01617 1.219 0
M  V30 1026 H 89.3679 -3.71087 0.84112 0
M  V30 1027 H 88.8799 -2.9636 2.50584 0
M  V30 1028 H 86.9809 -3.72257 0.159787 0
M  V30 1029 H 87.0939 -4.38837 1.92246 0
M  V30 1030 H 85.4579 -2.3701 0.932653 0
M  V30 1031 H 86.2409 -2.24268 2.5992 0
M  V30 1032 N 88.686 -0.835752 -1.33615 0
M  V30 1033 C 90.097 -0.487099 -1.80234 0
M  V30 1034 C 90.448 0.993627 -1.69179 0
M  V30 1035 O 89.573 1.77403 -1.23924 0
M  V30 1036 C 90.168 -0.877385 -3.27242 0
M  V30 1037 C 88.727 -0.580915 -3.7189 0
M  V30 1038 C 87.874 -1.0874 -2.5509 0
M  V30 1039 H 90.825 -1.02474 -1.2118 0
M  V30 1040 H 90.846 -0.186195 -3.80044 0
M  V30 1041 H 90.358 -1.95512 -3.35256 0
M  V30 1042 H 88.459 0.486881 -3.69405 0
M  V30 1043 H 88.572 -1.13396 -4.65487 0
M  V30 1044 H 86.936 -0.508392 -2.49575 0
M  V30 1045 H 87.719 -2.17184 -2.65868 0
M  V30 1046 N 90.1641 1.46063 -0.591896 0
M  V30 1047 C 91.3921 2.06717 -0.0868936 0
M  V30 1048 C 91.8071 1.43916 1.22203 0
M  V30 1049 O 91.1641 0.547698 1.74088 0
M  V30 1050 C 91.2151 3.6142 0.0758725 0
M  V30 1051 O 90.9361 4.21874 -1.18126 0
M  V30 1052 C 92.4371 4.39025 0.61416 0
M  V30 1053 H 89.6571 0.668162 -0.0616518 0
M  V30 1054 H 92.2011 1.8755 -0.815175 0
M  V30 1055 H 90.3561 3.79983 0.754413 0
M  V30 1056 H 90.7701 5.14861 -1.00092 0
M  V30 1057 H 92.2441 5.4783 0.677193 0
M  V30 1058 H 92.7211 4.07708 1.63312 0
M  V30 1059 H 93.3271 4.2529 -0.0298142 0
M  V30 1060 N 91.6422 0.330177 1.54103 0
M  V30 1061 C 92.6052 -0.520144 2.2322 0
M  V30 1062 C 93.6052 -1.03828 1.22786 0
M  V30 1063 O 94.7952 -0.929652 1.4732 0
M  V30 1064 C 91.9272 -1.72317 2.94142 0
M  V30 1065 H 93.1202 0.0841605 2.99782 0
M  V30 1066 H 90.6732 0.0813433 1.56088 0
M  V30 1067 H 91.4082 -2.36653 2.21734 0
M  V30 1068 H 91.1932 -1.35898 3.67796 0
M  V30 1069 H 92.6832 -2.3266 3.46784 0
M  V30 1070 N 93.1203 -1.57491 0.0584922 0
M  V30 1071 C 94.3683 -1.92597 -0.612436 0
M  V30 1072 C 94.6893 -0.938162 -1.70949 0
M  V30 1073 O 93.9593 0.0158301 -1.95894 0
M  V30 1074 H 92.5393 -0.710964 -0.229214 0
M  V30 1075 H 95.2013 -1.94571 0.113218 0
M  V30 1076 H 94.2973 -2.94038 -1.04633 0
M  V30 1077 N 94.5984 0.214957 -1.56127 0
M  V30 1078 C 95.8474 0.936451 -1.78643 0
M  V30 1079 C 96.1604 1.85237 -0.628229 0
M  V30 1080 O 97.3664 2.613 -0.737186 0
M  V30 1081 C 95.8224 1.7154 -3.16389 0
M  V30 1082 C 95.4304 0.845299 -4.39953 0
M  V30 1083 C 97.1744 2.42772 -3.48227 0
M  V30 1084 C 95.0814 1.62198 -5.68723 0
M  V30 1085 H 94.0114 0.353401 -0.666051 0
M  V30 1086 H 96.6624 0.190169 -1.82512 0
M  V30 1087 H 95.0444 2.50484 -3.06715 0
M  V30 1088 H 96.2184 0.0959353 -4.607 0
M  V30 1089 H 94.5334 0.244789 -4.1568 0
M  V30 1090 H 97.1304 3.01394 -4.41663 0
M  V30 1091 H 97.4734 3.15984 -2.71035 0
M  V30 1092 H 98.0064 1.70813 -3.5926 0
M  V30 1093 H 94.7454 0.933011 -6.48826 0
M  V30 1094 H 94.2654 2.34579 -5.52026 0
M  V30 1095 H 95.9444 2.18095 -6.09133 0
M  V30 1096 N 96.0765 1.50051 0.48192 0
M  V30 1097 C 97.0065 1.71046 1.58951 0
M  V30 1098 C 97.9875 0.559288 1.60642 0
M  V30 1099 O 99.1725 0.797243 1.77081 0
M  V30 1100 C 96.3025 1.79462 2.97339 0
M  V30 1101 C 95.2565 2.94558 3.10515 0
M  V30 1102 C 94.5825 2.88105 4.50444 0
M  V30 1103 C 95.8825 4.35227 2.88747 0
M  V30 1104 H 97.5765 2.6378 1.41635 0
M  V30 1105 H 95.1225 1.26936 0.679942 0
M  V30 1106 H 97.0755 1.92734 3.74742 0
M  V30 1107 H 95.7995 0.833412 3.15788 0
M  V30 1108 H 94.4585 2.80918 2.35543 0
M  V30 1109 H 94.1065 1.89853 4.65795 0
M  V30 1110 H 93.8065 3.65366 4.60197 0
M  V30 1111 H 95.3305 3.03412 5.29881 0
M  V30 1112 H 96.7445 4.49449 3.55905 0
M  V30 1113 H 95.1415 5.13856 3.09955 0
M  V30 1114 H 96.2115 4.48347 1.84696 0
M  V30 1115 N 97.5546 -0.734337 1.39446 0
M  V30 1116 C 98.5016 -1.84835 1.38219 0
M  V30 1117 C 99.4716 -1.64331 0.24179 0
M  V30 1118 O 100.657 -1.85728 0.437002 0
M  V30 1119 C 97.7966 -3.22355 1.23212 0
M  V30 1120 C 96.9096 -3.5456 2.46801 0
M  V30 1121 C 96.0446 -4.81485 2.24377 0
M  V30 1122 C 95.0836 -5.06536 3.43639 0
M  V30 1123 N 94.2206 -6.24665 3.20528 0
M  V30 1124 H 99.0606 -1.85219 2.33448 0
M  V30 1125 H 96.5976 -0.905039 1.15963 0
M  V30 1126 H 98.5556 -4.0174 1.12522 0
M  V30 1127 H 97.1856 -3.21248 0.316121 0
M  V30 1128 H 96.2376 -2.69872 2.68092 0
M  V30 1129 H 97.5496 -3.6899 3.3563 0
M  V30 1130 H 96.7036 -5.68852 2.10933 0
M  V30 1131 H 95.4426 -4.6923 1.32944 0
M  V30 1132 H 94.4476 -4.17632 3.5758 0
M  V30 1133 H 95.6726 -5.20676 4.35974 0
M  V30 1134 H 93.6186 -6.13696 2.3176 0
M  V30 1135 H 93.5356 -6.39685 4.02913 0
M  V30 1136 H 94.8036 -7.14868 3.10779 0
M  V30 1137 N 99.0327 -1.24633 -0.964593 0
M  V30 1138 C 100.449 -1.01239 -1.2338 0
M  V30 1139 C 100.649 0.2769 -1.99588 0
M  V30 1140 O 99.7047 0.992241 -2.32187 0
M  V30 1141 C 101.018 -2.22937 -2.01791 0
M  V30 1142 C 102.566 -2.27594 -2.14872 0
M  V30 1143 C 103.041 -3.48921 -2.96678 0
M  V30 1144 N 104.532 -3.49257 -3.04259 0
M  V30 1145 C 105.267 -4.39795 -3.67924 0
M  V30 1146 N 104.763 -5.40591 -4.33281 0
M  V30 1147 N 106.556 -4.275 -3.64966 0
M  V30 1148 H 98.7067 -2.0748 -0.454502 0
M  V30 1149 H 100.97 -0.910647 -0.26349 0
M  V30 1150 H 100.676 -3.16587 -1.53184 0
M  V30 1151 H 100.55 -2.25306 -3.02518 0
M  V30 1152 H 102.937 -1.34473 -2.6268 0
M  V30 1153 H 103.018 -2.2925 -1.13482 0
M  V30 1154 H 102.662 -4.42359 -2.49562 0
M  V30 1155 H 102.592 -3.4451 -3.98272 0
M  V30 1156 H 105.083 -2.76337 -2.57771 0
M  V30 1157 H 105.396 -6.05904 -4.79687 0
M  V30 1158 H 103.741 -5.44475 -4.3194 0
M  V30 1159 H 106.932 -3.47987 -3.13086 0
M  V30 1160 H 107.105 -4.98258 -4.14298 0
M  V30 1161 N 100.511 1.16574 -1.06058 0
M  V30 1162 C 101.757 1.87565 -0.78683 0
M  V30 1163 C 102.112 1.80012 0.679214 0
M  V30 1164 O 101.405 1.20327 1.49104 0
M  V30 1165 C 101.599 3.36195 -1.21275 0
M  V30 1166 C 101.428 3.58216 -2.71866 0
M  V30 1167 C 100.198 3.7444 -3.39298 0
M  V30 1168 C 102.396 3.57134 -3.70081 0
M  V30 1169 N 100.378 3.84389 -4.78663 0
M  V30 1170 C 101.749 3.73038 -4.9522 0
M  V30 1171 C 103.804 3.40332 -3.63426 0
M  V30 1172 C 102.507 3.73879 -6.14497 0
M  V30 1173 C 104.533 3.42466 -4.82153 0
M  V30 1174 C 103.895 3.58887 -6.06118 0
M  V30 1175 H 99.9938 0.704081 -0.340284 0
M  V30 1176 H 102.578 1.39885 -1.35426 0
M  V30 1177 H 100.749 3.82522 -0.673179 0
M  V30 1178 H 102.481 3.94839 -0.887917 0
M  V30 1179 H 99.2358 3.74662 -2.89699 0
M  V30 1180 H 99.6598 3.93138 -5.51155 0
M  V30 1181 H 104.302 3.26566 -2.68541 0
M  V30 1182 H 102.02 3.86427 -7.09718 0
M  V30 1183 H 105.606 3.30712 -4.78666 0
M  V30 1184 H 104.486 3.60454 -6.9645 0
M  V30 1185 N 101.989 0.842826 1.3317 0
M  V30 1186 C 103.237 0.439577 1.97262 0
M  V30 1187 C 103.558 -1.00548 1.67078 0
M  V30 1188 O 102.828 -1.70098 0.971779 0
M  V30 1189 H 101.408 0.159558 0.72976 0
M  V30 1190 H 104.07 1.07665 1.62463 0
M  V30 1191 H 103.166 0.574886 3.0676 0
M  V30 1192 N 103.467 -1.45747 0.599634 0
M  V30 1193 C 104.695 -2.06668 0.0978551 0
M  V30 1194 C 105.11 -1.44562 -1.21439 0
M  V30 1195 O 104.467 -0.556923 -1.73795 0
M  V30 1196 C 104.518 -3.61456 -0.0567044 0
M  V30 1197 O 104.239 -4.21242 1.20361 0
M  V30 1198 C 105.74 -4.39345 -0.590869 0
M  V30 1199 H 102.96 -0.667825 0.0651943 0
M  V30 1200 H 105.504 -1.87115 0.82511 0
M  V30 1201 H 103.659 -3.80378 -0.734251 0
M  V30 1202 H 104.073 -5.14323 1.02821 0
M  V30 1203 H 105.547 -5.48182 -0.648131 0
M  V30 1204 H 106.024 -4.08568 -1.61147 0
M  V30 1205 H 106.63 -4.25268 0.0523679 0
M  V30 1206 N 104.945 -0.338344 -1.53925 0
M  V30 1207 C 106.194 0.260732 -2.00008 0
M  V30 1208 C 106.507 1.52073 -1.23017 0
M  V30 1209 O 107.713 2.19672 -1.5955 0
M  V30 1210 C 106.169 0.51515 -3.56194 0
M  V30 1211 C 105.777 -0.728645 -4.42035 0
M  V30 1212 C 107.521 1.07337 -4.10706 0
M  V30 1213 C 105.428 -0.445315 -5.89721 0
M  V30 1214 H 104.358 0.101205 -0.747177 0
M  V30 1215 H 107.009 -0.452866 -1.77824 0
M  V30 1216 H 105.391 1.28932 -3.74423 0
M  V30 1217 H 106.565 -1.50352 -4.35581 0
M  V30 1218 H 104.88 -1.20813 -3.98489 0
M  V30 1219 H 107.477 1.30022 -5.18651 0
M  V30 1220 H 107.82 2.0273 -3.63602 0
M  V30 1221 H 108.353 0.360034 -3.96167 0
M  V30 1222 H 105.092 -1.36883 -6.41049 0
M  V30 1223 H 104.612 0.291569 -5.99091 0
M  V30 1224 H 106.291 -0.0606218 -6.46972 0
M  V30 1225 N 106.423 1.57458 -0.0668435 0
M  V30 1226 C 107.37 2.12439 0.902122 0
M  V30 1227 C 108.34 1.03565 1.2986 0
M  V30 1228 O 109.525 1.312 1.38532 0
M  V30 1229 C 106.665 2.6865 2.16614 0
M  V30 1230 C 105.778 3.91663 1.82274 0
M  V30 1231 C 104.913 4.36134 3.0325 0
M  V30 1232 C 103.952 5.51808 2.64904 0
M  V30 1233 N 103.089 5.9126 3.78624 0
M  V30 1234 H 107.929 2.94934 0.426382 0
M  V30 1235 H 105.466 1.4575 0.198819 0
M  V30 1236 H 107.424 2.99346 2.90599 0
M  V30 1237 H 106.054 1.88928 2.61737 0
M  V30 1238 H 105.106 3.6746 0.983719 0
M  V30 1239 H 106.418 4.75693 1.50059 0
M  V30 1240 H 105.572 4.68465 3.85519 0
M  V30 1241 H 104.311 3.50948 3.38655 0
M  V30 1242 H 103.316 5.19133 1.81055 0
M  V30 1243 H 104.541 6.38722 2.30675 0
M  V30 1244 H 102.487 5.09024 4.138 0
M  V30 1245 H 102.404 6.70018 3.5016 0
M  V30 1246 H 103.672 6.28212 4.61486 0
M  V30 1247 N 107.901 -0.206675 1.56239 0
M  V30 1248 C 108.848 -1.25617 1.93621 0
M  V30 1249 C 109.818 -1.45824 0.795274 0
M  V30 1250 O 111.003 -1.59148 1.05245 0
M  V30 1251 C 108.143 -2.59839 2.27107 0
M  V30 1252 C 107.256 -2.47308 3.54207 0
M  V30 1253 C 106.391 -3.74155 3.7707 0
M  V30 1254 C 105.43 -3.56407 4.97635 0
M  V30 1255 N 104.567 -4.75238 5.1681 0
M  V30 1256 H 109.407 -0.930383 2.83104 0
M  V30 1257 H 106.944 -0.448065 1.4011 0
M  V30 1258 H 108.902 -3.38021 2.44535 0
M  V30 1259 H 107.532 -2.90485 1.40778 0
M  V30 1260 H 106.584 -1.60483 3.4489 0
M  V30 1261 H 107.896 -2.30122 4.42544 0
M  V30 1262 H 107.05 -4.60778 3.94675 0
M  V30 1263 H 105.789 -3.94282 2.87042 0
M  V30 1264 H 104.794 -2.68168 4.79964 0
M  V30 1265 H 106.019 -3.37736 5.89161 0
M  V30 1266 H 103.965 -4.95651 4.29728 0
M  V30 1267 H 103.882 -4.60835 5.99306 0
M  V30 1268 H 105.15 -5.63246 5.38864 0
M  V30 1269 N 109.379 -1.50304 -0.473955 0
M  V30 1270 C 110.604 -1.65175 -1.25427 0
M  V30 1271 C 111.029 -0.333673 -1.85117 0
M  V30 1272 O 110.387 0.702114 -1.67153 0
M  V30 1273 C 110.435 -2.74295 -2.34082 0
M  V30 1274 O 109.539 -2.35349 -3.38651 0
M  V30 1275 H 108.88 -0.551944 -0.369126 0
M  V30 1276 H 111.41 -1.96662 -0.564364 0
M  V30 1277 H 111.42 -2.97285 -2.79438 0
M  V30 1278 H 110.095 -3.69959 -1.90008 0
M  V30 1279 H 108.672 -2.22794 -2.99027 0
M  V30 1280 N 110.857 0.726932 -1.39834 0
M  V30 1281 C 111.804 1.841 -1.39197 0
M  V30 1282 C 112.774 1.642 -0.250502 0
M  V30 1283 O 113.959 1.85494 -0.446846 0
M  V30 1284 C 111.099 3.21697 -1.24919 0
M  V30 1285 C 110.212 3.53247 -2.48678 0
M  V30 1286 C 109.347 4.80289 -2.26928 0
M  V30 1287 C 108.386 5.04707 -3.4632 0
M  V30 1288 N 107.523 6.22956 -3.23836 0
M  V30 1289 H 112.363 1.83979 -2.34427 0
M  V30 1290 H 109.9 0.898876 -1.16442 0
M  V30 1291 H 111.858 4.01137 -1.1465 0
M  V30 1292 H 110.488 3.21076 -0.333153 0
M  V30 1293 H 109.54 2.68447 -2.69519 0
M  V30 1294 H 110.852 3.67205 -3.37582 0
M  V30 1295 H 110.006 5.67725 -2.13947 0
M  V30 1296 H 108.745 4.68519 -1.35431 0
M  V30 1297 H 107.75 4.1573 -3.5979 0
M  V30 1298 H 108.975 5.18357 -4.38729 0
M  V30 1299 H 106.921 6.12459 -2.35011 0
M  V30 1300 H 106.838 6.37539 -4.063 0
M  V30 1301 H 108.106 7.1321 -3.14566 0
M  V30 1302 N 112.336 1.25143 0.95797 0
M  V30 1303 C 113.299 1.05321 2.03569 0
M  V30 1304 C 114.299 0.007152 1.60798 0
M  V30 1305 O 115.489 0.24903 1.72411 0
M  V30 1306 C 112.621 0.598394 3.35607 0
M  V30 1307 H 113.814 2.00986 2.22586 0
M  V30 1308 H 111.367 1.07502 1.13459 0
M  V30 1309 H 112.102 -0.361014 3.22284 0
M  V30 1310 H 111.887 1.35351 3.67998 0
M  V30 1311 H 113.377 0.48104 4.1482 0
M  V30 1312 N 113.814 -1.1601 1.06675 0
M  V30 1313 C 115.063 -1.85973 0.780818 0
M  V30 1314 C 115.376 -1.82819 -0.695444 0
M  V30 1315 O 116.582 -2.484 -1.09589 0
M  V30 1316 C 115.038 -3.33757 1.34665 0
M  V30 1317 C 114.646 -3.45374 2.85343 0
M  V30 1318 C 116.39 -4.0895 1.13843 0
M  V30 1319 C 114.297 -4.87266 3.35151 0
M  V30 1320 H 113.227 -0.696661 0.288407 0
M  V30 1321 H 115.878 -1.30903 1.28595 0
M  V30 1322 H 114.26 -3.88456 0.769274 0
M  V30 1323 H 115.434 -3.00816 3.49065 0
M  V30 1324 H 113.749 -2.83619 3.04876 0
M  V30 1325 H 116.346 -5.13654 1.4854 0
M  V30 1326 H 116.689 -4.16229 0.0770282 0
M  V30 1327 H 117.222 -3.605 1.68179 0
M  V30 1328 H 113.961 -4.85168 4.40786 0
M  V30 1329 H 113.481 -5.32433 2.76179 0
M  V30 1330 H 115.16 -5.56097 3.30704 0
M  V30 1331 N 115.292 -0.849877 -1.32721 0
M  V30 1332 C 116.24 -0.279745 -2.30912 0
M  V30 1333 C 117.234 0.594278 -1.58634 0
M  V30 1334 O 118.44 0.482613 -1.73409 0
M  V30 1335 H 114.815 -0.0717521 -0.748569 0
M  V30 1336 H 116.786 -1.12222 -2.76494 0
M  V30 1337 C 115.535 0.521108 -3.43773 0
M  V30 1338 H 114.858 -0.142141 -3.99547 0
M  V30 1339 H 116.298 0.885693 -4.14646 0
M  V30 1340 C 114.757 1.70442 -2.90605 0
M  V30 1341 O 115.287 2.8034 -2.87702 0
M  V30 1342 N 113.493 1.52991 -2.47067 0
M  V30 1343 H 113.04 0.635914 -2.49628 0
M  V30 1344 H 112.998 2.32311 -2.11847 0
M  V30 1345 N 116.77 1.45427 -0.607355 0
M  V30 1346 C 118.016 2.0254 -0.102607 0
M  V30 1347 C 118.349 1.47478 1.26348 0
M  V30 1348 O 117.624 0.64939 1.83339 0
M  V30 1349 C 117.907 3.60044 -0.0634347 0
M  V30 1350 C 117.76 4.2544 -1.46017 0
M  V30 1351 C 119.079 4.35646 0.624514 0
M  V30 1352 H 116.198 0.73598 -0.0387607 0
M  V30 1353 H 118.84 1.73284 -0.779282 0
M  V30 1354 H 116.99 3.85101 0.512808 0
M  V30 1355 H 118.662 4.11569 -2.08347 0
M  V30 1356 H 116.905 3.83849 -2.02094 0
M  V30 1357 H 117.576 5.34342 -1.385 0
M  V30 1358 H 120.052 4.15882 0.134723 0
M  V30 1359 H 118.928 5.45376 0.621028 0
M  V30 1360 H 119.189 4.08501 1.69055 0
M  V30 1361 N 118.248 0.346503 1.53744 0
M  V30 1362 C 119.178 -0.501193 2.28058 0
M  V30 1363 C 120.159 -1.10014 1.29734 0
M  V30 1364 O 121.344 -1.12097 1.58581 0
M  V30 1365 C 118.474 -1.65078 3.05559 0
M  V30 1366 C 117.428 -1.18003 4.11411 0
M  V30 1367 C 116.754 -2.41837 4.76884 0
M  V30 1368 C 118.054 -0.278394 5.21558 0
M  V30 1369 H 119.748 0.11875 2.99164 0
M  V30 1370 H 117.294 0.0585531 1.43881 0
M  V30 1371 H 119.247 -2.25028 3.56287 0
M  V30 1372 H 117.971 -2.29767 2.32109 0
M  V30 1373 H 116.63 -0.603331 3.61601 0
M  V30 1374 H 116.278 -3.0494 4.00026 0
M  V30 1375 H 115.978 -2.1102 5.48402 0
M  V30 1376 H 117.502 -3.02508 5.30397 0
M  V30 1377 H 118.916 -0.784823 5.67903 0
M  V30 1378 H 117.313 -0.0619707 6.00068 0
M  V30 1379 H 118.383 0.684677 4.80042 0
M  V30 1380 N 119.726 -1.57421 0.075193 0
M  V30 1381 C 121.142 -1.57099 -0.281444 0
M  V30 1382 C 121.342 -1.08486 -1.69803 0
M  V30 1383 O 120.398 -0.752279 -2.41033 0
M  V30 1384 C 121.711 -3.00571 -0.0880041 0
M  V30 1385 C 123.259 -3.12605 -0.157281 0
M  V30 1386 C 123.734 -4.57999 0.0079207 0
M  V30 1387 N 125.225 -4.63176 -0.0475725 0
M  V30 1388 C 125.96 -5.73373 0.0557876 0
M  V30 1389 N 125.456 -6.92473 0.21286 0
M  V30 1390 N 127.249 -5.621 -0.00152098 0
M  V30 1391 H 119.4 -1.87335 1.00098 0
M  V30 1392 H 121.663 -0.86377 0.390646 0
M  V30 1393 H 121.369 -3.40262 0.889629 0
M  V30 1394 H 121.243 -3.67754 -0.838875 0
M  V30 1395 H 123.63 -2.72798 -1.1254 0
M  V30 1396 H 123.711 -2.48053 0.62475 0
M  V30 1397 H 123.355 -4.98496 0.972824 0
M  V30 1398 H 123.285 -5.20586 -0.793556 0
M  V30 1399 H 125.776 -3.7753 -0.167244 0
M  V30 1400 H 126.089 -7.72279 0.283781 0
M  V30 1401 H 124.434 -6.94556 0.248267 0
M  V30 1402 H 127.625 -4.67938 -0.122958 0
M  V30 1403 H 127.798 -6.47948 0.0824844 0
M  V30 1404 N 121.204 0.198386 -1.56346 0
M  V30 1405 C 122.452 0.91747 -1.80075 0
M  V30 1406 C 122.773 1.83929 -0.647692 0
M  V30 1407 O 122.043 1.93029 0.334166 0
M  V30 1408 H 120.623 0.341774 -0.664228 0
M  V30 1409 H 123.285 0.204684 -1.93822 0
M  V30 1410 H 122.381 1.51055 -2.7311 0
M  V30 1411 N 122.682 1.50554 0.465978 0
M  V30 1412 C 123.929 1.61798 1.21768 0
M  V30 1413 C 124.257 0.320696 1.91838 0
M  V30 1414 O 123.512 -0.693724 1.82992 0
M  V30 1415 C 123.811 2.75152 2.28093 0
M  V30 1416 C 123.477 4.15454 1.75239 0
M  V30 1417 C 122.139 4.53628 1.60546 0
M  V30 1418 C 124.491 5.03121 1.36083 0
M  V30 1419 C 121.819 5.77204 1.05128 0
M  V30 1420 C 124.171 6.27249 0.821056 0
M  V30 1421 C 122.835 6.64221 0.660795 0
M  V30 1422 H 122.105 0.592063 0.445582 0
M  V30 1423 H 124.752 1.84503 0.512927 0
M  V30 1424 H 123.057 2.46556 3.04496 0
M  V30 1425 H 124.754 2.81055 2.86023 0
M  V30 1426 H 121.344 3.85341 1.87644 0
M  V30 1427 H 125.528 4.74257 1.46267 0
M  V30 1428 H 120.784 6.0452 0.91462 0
M  V30 1429 H 124.958 6.94537 0.509018 0
M  V30 1430 H 122.585 7.59854 0.229226 0
M  V30 1431 N 124.16 -0.719506 1.40217 0
M  V30 1432 C 125.576 -1.02707 1.22161 0
M  V30 1433 C 125.776 -2.0128 0.0940557 0
M  V30 1434 O 124.832 -2.46452 -0.549318 0
M  V30 1435 C 126.145 -1.57454 2.56181 0
M  V30 1436 C 127.693 -1.69458 2.63159 0
M  V30 1437 C 128.168 -2.27611 3.97438 0
M  V30 1438 N 129.659 -2.35002 3.99159 0
M  V30 1439 C 130.394 -2.80972 4.99842 0
M  V30 1440 N 129.89 -3.26723 6.10921 0
M  V30 1441 N 131.683 -2.80321 4.87213 0
M  V30 1442 H 123.834 -0.0660492 2.12297 0
M  V30 1443 H 126.097 -0.0919077 0.943534 0
M  V30 1444 H 125.803 -0.924873 3.39321 0
M  V30 1445 H 125.677 -2.56036 2.76993 0
M  V30 1446 H 128.064 -2.33543 1.80393 0
M  V30 1447 H 128.145 -0.694867 2.46181 0
M  V30 1448 H 127.789 -1.6415 4.80643 0
M  V30 1449 H 127.719 -3.2829 4.11744 0
M  V30 1450 H 130.21 -2.02685 3.18947 0
M  V30 1451 H 130.523 -3.60355 6.8364 0
M  V30 1452 H 128.868 -3.24692 6.14492 0
M  V30 1453 H 132.059 -2.43912 3.9953 0
M  V30 1454 H 132.232 -3.15831 5.65822 0
M  V30 1455 N 125.638 -1.25649 -0.95132 0
M  V30 1456 C 126.585 -1.06323 -2.04851 0
M  V30 1457 C 127.555 0.0286491 -1.66075 0
M  V30 1458 O 128.74 -0.12917 -1.90362 0
M  V30 1459 C 125.88 -0.691529 -3.381 0
M  V30 1460 C 124.993 -1.85861 -3.89974 0
M  V30 1461 C 124.128 -1.43096 -5.11563 0
M  V30 1462 C 123.167 -2.56696 -5.55674 0
M  V30 1463 N 122.304 -2.14684 -6.68472 0
M  V30 1464 H 127.144 -2.00222 -2.20715 0
M  V30 1465 H 124.681 -0.997027 -1.08156 0
M  V30 1466 H 126.639 -0.456963 -4.1469 0
M  V30 1467 H 125.269 0.210474 -3.22113 0
M  V30 1468 H 124.321 -2.20639 -3.09875 0
M  V30 1469 H 125.633 -2.71161 -4.18657 0
M  V30 1470 H 124.787 -1.15624 -5.9558 0
M  V30 1471 H 123.526 -0.548722 -4.84603 0
M  V30 1472 H 122.531 -2.84909 -4.7022 0
M  V30 1473 H 123.756 -3.45503 -5.8464 0
M  V30 1474 H 121.702 -1.28881 -6.43215 0
M  V30 1475 H 121.619 -2.9353 -6.96689 0
M  V30 1476 H 122.887 -1.90397 -7.5589 0
M  V30 1477 N 127.117 1.15442 -1.07289 0
M  V30 1478 C 128.027 2.23786 -0.704057 0
M  V30 1479 C 129.043 1.7166 0.284413 0
M  V30 1480 O 130.219 2.00972 0.131205 0
M  V30 1481 C 127.284 3.46535 -0.106792 0
M  V30 1482 C 126.345 4.13654 -1.14842 0
M  V30 1483 C 125.578 5.30544 -0.57956 0
M  V30 1484 O 125.801 5.67187 0.604585 0
M  V30 1485 O 124.735 5.87154 -1.32414 0
M  V30 1486 H 128.561 2.57664 -1.60757 0
M  V30 1487 H 126.146 1.23152 -0.845803 0
M  V30 1488 H 128.028 4.20804 0.224048 0
M  V30 1489 H 126.703 3.14407 0.770049 0
M  V30 1490 H 125.61 3.4131 -1.5316 0
M  V30 1491 H 126.943 4.49861 -1.99714 0
M  V30 1492 N 128.595 0.856903 1.32268 0
M  V30 1493 C 129.844 0.457599 1.96441 0
M  V30 1494 C 130.157 -0.992426 1.68553 0
M  V30 1495 O 131.363 -1.49727 2.26482 0
M  V30 1496 C 129.819 0.767358 3.51624 0
M  V30 1497 C 129.427 2.23326 3.88367 0
M  V30 1498 C 131.171 0.435887 4.22256 0
M  V30 1499 C 129.078 2.48613 5.36606 0
M  V30 1500 H 128.008 0.167387 0.735185 0
M  V30 1501 H 130.659 1.048 1.5063 0
M  V30 1502 H 129.041 0.106367 3.95857 0
M  V30 1503 H 130.215 2.93623 3.55137 0
M  V30 1504 H 128.53 2.52948 3.30766 0
M  V30 1505 H 131.127 0.602202 5.31298 0
M  V30 1506 H 131.47 -0.622672 4.11617 0
M  V30 1507 H 132.003 1.05286 3.83614 0
M  V30 1508 H 128.742 3.53101 5.52268 0
M  V30 1509 H 128.262 1.82896 5.71235 0
M  V30 1510 H 129.941 2.32676 6.03714 0
M  V30 1511 N 130.073 -1.45103 0.615059 0
M  V30 1512 C 131.321 -2.01784 0.112955 0
M  V30 1513 C 131.642 -1.48504 -1.26378 0
M  V30 1514 O 130.912 -0.682245 -1.83636 0
M  V30 1515 H 129.492 -0.745993 0.0387668 0
M  V30 1516 H 132.154 -1.77808 0.798141 0
M  V30 1517 H 131.25 -3.12025 0.0684069 0
M  V30 1518 N 131.551 -0.354651 -1.53558 0
M  V30 1519 C 132.967 -0.00315426 -1.596 0
M  V30 1520 C 133.167 1.47741 -1.37021 0
M  V30 1521 O 132.223 2.23759 -1.16996 0
M  V30 1522 C 133.536 -0.44929 -2.97325 0
M  V30 1523 C 135.084 -0.402578 -3.104 0
M  V30 1524 C 135.559 -0.824355 -4.5052 0
M  V30 1525 N 137.05 -0.778979 -4.56603 0
M  V30 1526 C 137.785 -1.07715 -5.63192 0
M  V30 1527 N 137.281 -1.44405 -6.77583 0
M  V30 1528 N 139.074 -1.00066 -5.53121 0
M  V30 1529 H 131.225 -1.31893 -1.66487 0
M  V30 1530 H 133.488 -0.538388 -0.780284 0
M  V30 1531 H 133.194 -1.48202 -3.1895 0
M  V30 1532 H 133.068 0.169772 -3.76818 0
M  V30 1533 H 135.455 0.621004 -2.88492 0
M  V30 1534 H 135.536 -1.05699 -2.32941 0
M  V30 1535 H 135.18 -1.846 -4.73165 0
M  V30 1536 H 135.11 -0.147304 -5.26394 0
M  V30 1537 H 137.601 -0.508528 -3.74463 0
M  V30 1538 H 137.914 -1.65612 -7.54846 0
M  V30 1539 H 136.259 -1.4826 -6.79002 0
M  V30 1540 H 139.45 -0.713293 -4.62633 0
M  V30 1541 H 139.623 -1.23638 -6.36096 0
M  V30 1542 N 133.029 1.57378 -0.0835403 0
M  V30 1543 C 133.962 2.09016 0.915833 0
M  V30 1544 C 134.94 0.997993 1.2837 0
M  V30 1545 O 136.124 1.27219 1.39096 0
M  V30 1546 C 133.251 2.55757 2.22049 0
M  V30 1547 C 132.297 3.76522 2.00333 0
M  V30 1548 S 133.13 5.20661 1.25191 0
M  V30 1549 C 134.286 5.70743 2.56912 0
M  V30 1550 H 134.519 2.93457 0.476492 0
M  V30 1551 H 132.052 1.53856 0.129493 0
M  V30 1552 H 134.01 2.83346 2.97027 0
M  V30 1553 H 132.671 1.71564 2.63106 0
M  V30 1554 H 131.864 4.07256 2.96916 0
M  V30 1555 H 131.466 3.49367 1.33488 0
M  V30 1556 H 133.758 5.78304 3.52946 0
M  V30 1557 H 134.701 6.6944 2.30772 0
M  V30 1558 H 135.109 4.98616 2.64655 0
M  V30 1559 N 134.507 -0.190092 1.56449 0
M  V30 1560 C 135.437 -1.23816 1.97969 0
M  V30 1561 C 136.418 -1.47201 0.852395 0
M  V30 1562 O 137.603 -1.58854 1.1171 0
M  V30 1563 C 134.733 -2.5813 2.3235 0
M  V30 1564 C 133.687 -2.49348 3.47864 0
M  V30 1565 C 133.013 -3.8798 3.67934 0
M  V30 1566 C 134.313 -2.01424 4.81898 0
M  V30 1567 H 136.007 -0.89311 2.85769 0
M  V30 1568 H 133.553 -0.428177 1.37487 0
M  V30 1569 H 135.506 -3.31637 2.59991 0
M  V30 1570 H 134.23 -2.94386 1.41438 0
M  V30 1571 H 132.889 -1.78297 3.20321 0
M  V30 1572 H 132.537 -4.21597 2.74344 0
M  V30 1573 H 132.237 -3.82978 4.45648 0
M  V30 1574 H 133.761 -4.63101 3.97957 0
M  V30 1575 H 135.175 -2.64693 5.08538 0
M  V30 1576 H 133.572 -2.07413 5.63116 0
M  V30 1577 H 134.642 -0.967677 4.75146 0
M  V30 1578 N 135.985 -1.50799 -0.457987 0
M  V30 1579 C 136.933 -1.71162 -1.575 0
M  V30 1580 C 137.927 -0.577592 -1.59249 0
M  V30 1581 O 139.133 -0.758443 -1.63241 0
M  V30 1582 H 135.508 -0.540468 -0.522875 0
M  V30 1583 H 137.479 -2.64837 -1.37492 0
M  V30 1584 C 136.228 -1.83496 -2.95338 0
M  V30 1585 H 135.551 -2.70153 -2.94716 0
M  V30 1586 H 136.991 -2.01765 -3.72917 0
M  V30 1587 C 135.45 -0.589694 -3.31699 0
M  V30 1588 O 135.98 0.265163 -4.00824 0
M  V30 1589 N 134.186 -0.439845 -2.87252 0
M  V30 1590 H 133.733 -1.13655 -2.31172 0
M  V30 1591 H 133.691 0.392159 -3.11945 0
M  V30 1592 N 137.463 0.71206 -1.40597 0
M  V30 1593 C 138.712 1.46754 -1.38369 0
M  V30 1594 C 139.025 1.95598 0.0097839 0
M  V30 1595 O 140.231 2.71059 0.154677 0
M  V30 1596 C 138.687 2.65289 -2.43207 0
M  V30 1597 C 138.295 2.23301 -3.88382 0
M  V30 1598 C 140.039 3.43008 -2.50091 0
M  V30 1599 C 137.946 3.38696 -4.84808 0
M  V30 1600 H 136.876 0.55118 -0.514506 0
M  V30 1601 H 139.527 0.774616 -1.66349 0
M  V30 1602 H 137.909 3.36769 -2.08332 0
M  V30 1603 H 139.083 1.59218 -4.32419 0
M  V30 1604 H 137.398 1.58618 -3.85006 0
M  V30 1605 H 139.995 4.28881 -3.1932 0
M  V30 1606 H 140.338 3.87065 -1.53253 0
M  V30 1607 H 140.871 2.78574 -2.83974 0
M  V30 1608 H 137.61 2.99668 -5.82992 0
M  V30 1609 H 137.13 4.01683 -4.45433 0
M  V30 1610 H 138.809 4.04712 -5.04794 0
M  V30 1611 N 138.941 1.26152 0.944643 0
M  V30 1612 C 139.871 1.09902 2.06019 0
M  V30 1613 C 140.852 0.00519538 1.70099 0
M  V30 1614 O 142.037 0.176583 1.93396 0
M  V30 1615 C 139.167 0.727562 3.39594 0
M  V30 1616 C 138.121 1.77274 3.89561 0
M  V30 1617 C 137.447 1.25569 5.19747 0
M  V30 1618 C 138.747 3.17357 4.14827 0
M  V30 1619 H 140.441 2.03217 2.19871 0
M  V30 1620 H 137.987 0.978452 1.05652 0
M  V30 1621 H 139.94 0.600777 4.17095 0
M  V30 1622 H 138.664 -0.241287 3.25707 0
M  V30 1623 H 137.323 1.88814 3.14237 0
M  V30 1624 H 136.971 0.276783 5.02238 0
M  V30 1625 H 136.671 1.95433 5.54148 0
M  V30 1626 H 138.195 1.1415 5.99835 0
M  V30 1627 H 139.609 3.08914 4.82954 0
M  V30 1628 H 138.006 3.84781 4.60504 0
M  V30 1629 H 139.076 3.63673 3.20734 0
M  V30 1630 N 140.419 -1.14872 1.07899 0
M  V30 1631 C 141.367 -2.21857 0.698727 0
M  V30 1632 C 142.361 -1.66845 -0.293086 0
M  V30 1633 O 143.567 -1.79321 -0.156204 0
M  V30 1634 H 139.942 -0.722691 0.207899 0
M  V30 1635 H 141.913 -2.51205 1.61054 0
M  V30 1636 C 140.662 -3.47498 0.11858 0
M  V30 1637 H 139.985 -3.90154 0.872914 0
M  V30 1638 H 141.425 -4.23858 -0.109759 0
M  V30 1639 C 139.884 -3.16947 -1.1422 0
M  V30 1640 O 140.414 -3.3426 -2.22785 0
M  V30 1641 N 138.62 -2.70946 -1.05055 0
M  V30 1642 H 138.167 -2.57058 -0.167038 0
M  V30 1643 H 138.125 -2.50879 -1.89491 0
M  V30 1644 N 141.898 -0.863906 -1.31812 0
M  V30 1645 C 143.314 -0.555004 -1.49639 0
M  V30 1646 C 143.514 0.912266 -1.79666 0
M  V30 1647 O 142.57 1.69479 -1.87171 0
M  V30 1648 C 143.883 -1.44998 -2.63431 0
M  V30 1649 C 145.431 -1.45138 -2.77316 0
M  V30 1650 C 145.906 -2.33179 -3.94197 0
M  V30 1651 N 147.397 -2.31025 -4.01474 0
M  V30 1652 C 148.132 -2.95871 -4.9117 0
M  V30 1653 N 147.628 -3.69863 -5.8581 0
M  V30 1654 N 149.421 -2.85211 -4.84367 0
M  V30 1655 H 141.572 -1.81339 -1.10589 0
M  V30 1656 H 143.835 -0.77505 -0.545895 0
M  V30 1657 H 143.541 -2.49377 -2.48 0
M  V30 1658 H 143.415 -1.14409 -3.59431 0
M  V30 1659 H 145.802 -0.415201 -2.92164 0
M  V30 1660 H 145.883 -1.79747 -1.82001 0
M  V30 1661 H 145.527 -3.3687 -3.80107 0
M  V30 1662 H 145.457 -1.95897 -4.88807 0
M  V30 1663 H 147.948 -1.77238 -3.33759 0
M  V30 1664 H 148.261 -4.16486 -6.50968 0
M  V30 1665 H 146.606 -3.73971 -5.85808 0
M  V30 1666 H 149.797 -2.26948 -4.09405 0
M  V30 1667 H 149.97 -3.36027 -5.54066 0
M  V30 1668 N 143.376 1.44774 -0.622745 0
M  V30 1669 C 144.792 1.56986 -0.287652 0
M  V30 1670 C 144.992 1.61167 1.20944 0
M  V30 1671 O 144.048 1.55015 1.99315 0
M  V30 1672 C 145.361 2.84551 -0.972188 0
M  V30 1673 C 146.909 2.9825 -0.949536 0
M  V30 1674 C 147.384 4.28605 -1.61437 0
M  V30 1675 N 148.875 4.35399 -1.58057 0
M  V30 1676 C 149.61 5.34964 -2.064 0
M  V30 1677 N 149.106 6.40981 -2.62897 0
M  V30 1678 N 150.899 5.26419 -1.97078 0
M  V30 1679 H 143.05 1.40304 -1.59463 0
M  V30 1680 H 145.313 0.671794 -0.668878 0
M  V30 1681 H 145.019 2.87417 -2.02693 0
M  V30 1682 H 144.893 3.73807 -0.504771 0
M  V30 1683 H 147.28 2.94941 0.0967067 0
M  V30 1684 H 147.361 2.10364 -1.45536 0
M  V30 1685 H 147.005 4.32672 -2.66002 0
M  V30 1686 H 146.935 5.15334 -1.08344 0
M  V30 1687 H 149.426 3.59397 -1.16801 0
M  V30 1688 H 149.739 7.13225 -2.97539 0
M  V30 1689 H 148.084 6.4169 -2.66943 0
M  V30 1690 H 151.275 4.42504 -1.52669 0
M  V30 1691 H 151.448 6.03861 -2.35066 0
M  V30 1692 N 144.854 0.36279 1.53368 0
M  V30 1693 C 146.27 0.0116182 1.59596 0
M  V30 1694 C 146.47 -1.47012 1.37803 0
M  V30 1695 O 145.526 -2.23136 1.18181 0
M  V30 1696 C 146.839 0.465052 2.97082 0
M  V30 1697 C 148.387 0.419033 3.10182 0
M  V30 1698 C 148.862 0.848235 4.50077 0
M  V30 1699 N 150.353 0.803183 4.56183 0
M  V30 1700 C 151.088 1.107 5.62613 0
M  V30 1701 N 150.584 1.47996 6.76808 0
M  V30 1702 N 152.377 1.02998 5.52583 0
M  V30 1703 H 144.528 1.32775 1.65785 0
M  V30 1704 H 146.791 0.542518 0.777417 0
M  V30 1705 H 146.497 1.49892 3.18159 0
M  V30 1706 H 146.371 -0.149786 3.76902 0
M  V30 1707 H 148.758 -0.605696 2.88817 0
M  V30 1708 H 148.839 1.06933 2.32377 0
M  V30 1709 H 148.483 1.87107 4.7218 0
M  V30 1710 H 148.413 0.175218 5.26308 0
M  V30 1711 H 150.904 0.52838 3.74188 0
M  V30 1712 H 151.217 1.69613 7.53957 0
M  V30 1713 H 149.562 1.51859 6.78206 0
M  V30 1714 H 152.753 0.737817 4.62249 0
M  V30 1715 H 152.926 1.2701 6.35431 0
M  V30 1716 N 146.332 -1.57332 0.0918853 0
M  V30 1717 C 147.748 -1.57389 -0.264766 0
M  V30 1718 C 147.948 -1.10281 -1.68643 0
M  V30 1719 O 147.004 -0.777801 -2.40222 0
M  V30 1720 C 148.317 -3.00648 -0.0561195 0
M  V30 1721 C 149.865 -3.12754 -0.124116 0
M  V30 1722 C 150.34 -4.57965 0.0564972 0
M  V30 1723 N 151.831 -4.632 0.00155611 0
M  V30 1724 C 152.566 -5.73281 0.116598 0
M  V30 1725 N 152.062 -6.92208 0.286294 0
M  V30 1726 N 153.855 -5.6207 0.0580973 0
M  V30 1727 H 146.006 -1.86262 1.02079 0
M  V30 1728 H 148.269 -0.859579 0.399786 0
M  V30 1729 H 147.975 -3.393 0.925669 0
M  V30 1730 H 147.849 -3.68623 -0.799823 0
M  V30 1731 H 150.236 -2.73976 -1.09641 0
M  V30 1732 H 150.317 -2.47377 0.651024 0
M  V30 1733 H 149.961 -4.97436 1.02564 0
M  V30 1734 H 149.891 -5.21399 -0.738297 0
M  V30 1735 H 152.382 -3.77686 -0.127192 0
M  V30 1736 H 152.695 -7.71934 0.365676 0
M  V30 1737 H 151.04 -6.94254 0.32192 0
M  V30 1738 H 154.231 -4.68043 -0.0733204 0
M  V30 1739 H 154.404 -6.47824 0.151203 0
M  V30 1740 N 147.81 0.181792 -1.56548 0
M  V30 1741 C 149.038 0.915947 -1.85521 0
M  V30 1742 C 149.453 1.76282 -0.676016 0
M  V30 1743 O 148.81 1.79012 0.355077 0
M  V30 1744 C 148.861 1.80126 -3.13427 0
M  V30 1745 O 148.582 0.988562 -4.26801 0
M  V30 1746 C 150.083 2.64597 -3.55673 0
M  V30 1747 H 147.303 0.26661 -0.61576 0
M  V30 1748 H 149.847 0.185039 -2.03661 0
M  V30 1749 H 148.002 2.48563 -2.97145 0
M  V30 1750 H 148.416 1.59308 -4.99721 0
M  V30 1751 H 149.89 3.2235 -4.48101 0
M  V30 1752 H 150.367 3.38958 -2.79292 0
M  V30 1753 H 150.973 2.0151 -3.74532 0
M  V30 1754 N 149.288 1.51039 0.449983 0
M  V30 1755 C 150.251 1.70863 1.5277 0
M  V30 1756 C 151.251 0.578846 1.5002 0
M  V30 1757 O 152.441 0.846213 1.52266 0
M  V30 1758 C 149.573 1.75341 2.9235 0
M  V30 1759 H 150.766 2.67034 1.36502 0
M  V30 1760 H 148.319 1.40838 0.677812 0
M  V30 1761 H 149.054 0.809383 3.14037 0
M  V30 1762 H 148.839 2.57436 2.95752 0
M  V30 1763 H 150.329 1.92559 3.70555 0
M  V30 1764 N 150.766 -0.704594 1.40972 0
M  V30 1765 C 152.014 -1.46169 1.39568 0
M  V30 1766 C 152.335 -1.95 0.00253745 0
M  V30 1767 O 151.605 -1.71095 -0.954114 0
M  V30 1768 H 150.185 -0.542326 0.513704 0
M  V30 1769 H 152.847 -0.834553 1.76128 0
M  V30 1770 H 151.943 -2.32922 2.07735 0
M  V30 1771 N 152.244 -1.26651 -0.937939 0
M  V30 1772 C 153.177 -1.02811 -2.03728 0
M  V30 1773 C 154.155 0.0481915 -1.62529 0
M  V30 1774 O 155.339 -0.0948839 -1.88261 0
M  V30 1775 C 152.466 -0.557517 -3.3408 0
M  V30 1776 C 151.512 -1.62686 -3.94253 0
M  V30 1777 S 152.345 -3.21667 -4.28125 0
M  V30 1778 C 153.501 -2.76384 -5.61572 0
M  V30 1779 H 153.734 -1.95891 -2.23638 0
M  V30 1780 H 151.267 -1.10367 -1.07974 0
M  V30 1781 H 153.225 -0.292674 -4.09455 0
M  V30 1782 H 151.886 0.353062 -3.12109 0
M  V30 1783 H 151.079 -1.24866 -4.88287 0
M  V30 1784 H 150.681 -1.84324 -3.25424 0
M  V30 1785 H 152.973 -2.2105 -6.40424 0
M  V30 1786 H 153.916 -3.69123 -6.0428 0
M  V30 1787 H 154.324 -2.15847 -5.21604 0
M  V30 1788 N 153.722 1.14298 -1.08507 0
M  V30 1789 C 154.971 1.84708 -0.810305 0
M  V30 1790 C 155.284 1.83903 0.666271 0
M  V30 1791 O 156.49 2.50112 1.05624 0
M  V30 1792 C 154.946 3.31572 -1.39957 0
M  V30 1793 C 154.554 3.40791 -2.90801 0
M  V30 1794 C 156.298 4.07087 -1.20334 0
M  V30 1795 C 154.205 4.81872 -3.4286 0
M  V30 1796 H 153.135 0.691985 -0.299454 0
M  V30 1797 H 155.786 1.28841 -1.30661 0
M  V30 1798 H 154.168 3.87183 -0.830976 0
M  V30 1799 H 155.342 2.95225 -3.53806 0
M  V30 1800 H 153.657 2.78732 -3.0935 0
M  V30 1801 H 156.254 5.11225 -1.56693 0
M  V30 1802 H 156.597 4.16054 -0.143237 0
M  V30 1803 H 157.13 3.57779 -1.73893 0
M  V30 1804 H 153.869 4.78094 -4.48449 0
M  V30 1805 H 153.389 5.27972 -2.84615 0
M  V30 1806 H 155.068 5.50765 -3.39509 0
M  V30 1807 N 155.201 0.870884 1.31352 0
M  V30 1808 C 156.45 0.478408 1.95944 0
M  V30 1809 C 156.763 -0.974493 1.69597 0
M  V30 1810 O 157.969 -1.47316 2.28058 0
M  V30 1811 C 156.425 0.804609 3.50791 0
M  V30 1812 C 156.033 2.27433 3.85977 0
M  V30 1813 C 157.777 0.480648 4.2177 0
M  V30 1814 C 155.684 2.5429 5.33939 0
M  V30 1815 H 154.614 0.175175 0.733369 0
M  V30 1816 H 157.265 1.06391 1.4951 0
M  V30 1817 H 155.647 0.148347 3.95722 0
M  V30 1818 H 156.821 2.97373 3.52002 0
M  V30 1819 H 155.136 2.56442 3.28065 0
M  V30 1820 H 157.733 0.658519 5.30629 0
M  V30 1821 H 158.076 -0.578979 4.12254 0
M  V30 1822 H 158.609 1.09349 3.82476 0
M  V30 1823 H 155.348 3.58939 5.48491 0
M  V30 1824 H 154.868 1.88945 5.69263 0
M  V30 1825 H 156.547 2.39066 6.01212 0
M  V30 1826 N 156.679 -1.44442 0.630414 0
M  V30 1827 C 157.612 -2.27862 -0.124247 0
M  V30 1828 C 158.59 -1.38495 -0.851931 0
M  V30 1829 O 159.774 -1.67935 -0.856166 0
M  V30 1830 C 156.901 -3.17407 -1.18197 0
M  V30 1831 C 155.947 -4.22875 -0.554892 0
M  V30 1832 S 156.78 -5.31485 0.654489 0
M  V30 1833 C 157.936 -6.246 -0.40326 0
M  V30 1834 H 158.169 -2.91519 0.583435 0
M  V30 1835 H 155.702 -1.48618 0.418565 0
M  V30 1836 H 157.66 -3.69549 -1.78728 0
M  V30 1837 H 156.321 -2.52971 -1.86184 0
M  V30 1838 H 155.514 -4.85542 -1.35148 0
M  V30 1839 H 155.116 -3.73992 -0.0242105 0
M  V30 1840 H 157.408 -6.65375 -1.27602 0
M  V30 1841 H 158.351 -7.07851 0.187813 0
M  V30 1842 H 158.759 -5.59775 -0.728837 0
M  V30 1843 N 158.157 -0.370918 -1.53173 0
M  V30 1844 C 159.087 0.464847 -2.28826 0
M  V30 1845 C 160.068 1.07936 -1.31468 0
M  V30 1846 O 161.253 1.0956 -1.60344 0
M  V30 1847 C 158.383 1.60196 -3.08147 0
M  V30 1848 C 157.337 1.11443 -4.13237 0
M  V30 1849 C 156.663 2.3422 -4.80672 0
M  V30 1850 C 157.963 0.195384 -5.21934 0
M  V30 1851 H 159.657 -0.166329 -2.98938 0
M  V30 1852 H 157.203 -0.0814359 -1.4377 0
M  V30 1853 H 159.156 2.19332 -3.59822 0
M  V30 1854 H 157.88 2.26045 -2.35735 0
M  V30 1855 H 156.539 0.545727 -3.62515 0
M  V30 1856 H 156.187 2.98537 -4.04827 0
M  V30 1857 H 155.887 2.02269 -5.51689 0
M  V30 1858 H 157.411 2.94032 -5.35143 0
M  V30 1859 H 158.825 0.694375 -5.69079 0
M  V30 1860 H 157.222 -0.0335027 -6.00091 0
M  V30 1861 H 158.292 -0.760961 -4.78892 0
M  V30 1862 N 159.635 1.57281 -0.100228 0
M  V30 1863 C 160.884 1.93713 0.561984 0
M  V30 1864 C 161.197 0.984492 1.69018 0
M  V30 1865 O 162.403 1.24273 2.41389 0
M  V30 1866 C 160.859 3.4421 1.05106 0
M  V30 1867 C 160.467 4.47975 -0.0476628 0
M  V30 1868 C 162.211 3.89595 1.68571 0
M  V30 1869 C 160.118 5.89631 0.457055 0
M  V30 1870 H 159.048 0.723082 0.2137 0
M  V30 1871 H 161.699 1.82644 -0.177057 0
M  V30 1872 H 160.081 3.50449 1.84395 0
M  V30 1873 H 161.255 4.53385 -0.823333 0
M  V30 1874 H 159.57 4.1223 -0.587816 0
M  V30 1875 H 162.167 4.92832 2.07414 0
M  V30 1876 H 162.51 3.28526 2.55688 0
M  V30 1877 H 163.043 3.86078 0.958562 0
M  V30 1878 H 159.782 6.54411 -0.377616 0
M  V30 1879 H 159.302 5.87681 1.19962 0
M  V30 1880 H 160.981 6.40363 0.92437 0
M  V30 1881 N 161.113 -0.173488 1.56642 0
M  V30 1882 C 162.524 -0.736155 1.71574 0
M  V30 1883 C 162.875 -1.82888 0.710389 0
M  V30 1884 O 162 -2.16017 -0.1287 0
M  V30 1885 C 162.595 -1.34211 3.11083 0
M  V30 1886 C 161.154 -1.85162 3.27707 0
M  V30 1887 C 160.301 -0.729765 2.67525 0
M  V30 1888 H 163.252 0.0518786 1.58615 0
M  V30 1889 H 163.273 -2.21178 3.09613 0
M  V30 1890 H 162.785 -0.546579 3.84232 0
M  V30 1891 H 160.886 -2.67366 2.59512 0
M  V30 1892 H 160.999 -1.99855 4.35425 0
M  V30 1893 H 159.363 -1.14965 2.27278 0
M  V30 1894 H 160.146 0.0538806 3.43258 0
M  V30 1895 N 162.591 -1.51276 -0.441967 0
M  V30 1896 C 163.819 -1.67516 -1.21434 0
M  V30 1897 C 164.234 -0.37055 -1.85128 0
M  V30 1898 O 163.591 0.650498 -1.70513 0
M  V30 1899 C 163.642 -2.78748 -2.30177 0
M  V30 1900 O 163.363 -4.04154 -1.69089 0
M  V30 1901 C 164.864 -3.06217 -3.20541 0
M  V30 1902 H 162.084 -0.562276 -0.366178 0
M  V30 1903 H 164.628 -1.97666 -0.524244 0
M  V30 1904 H 162.783 -2.5121 -2.94911 0
M  V30 1905 H 163.197 -4.65894 -2.40922 0
M  V30 1906 H 164.671 -3.8764 -3.92987 0
M  V30 1907 H 165.148 -2.18439 -3.81026 0
M  V30 1908 H 165.754 -3.35397 -2.61513 0
M  V30 1909 N 164.069 0.697108 -1.41344 0
M  V30 1910 C 165.315 1.4593 -1.40827 0
M  V30 1911 C 165.648 1.94193 -0.0167098 0
M  V30 1912 O 164.923 1.69425 0.955263 0
M  V30 1913 C 165.206 2.67229 -2.41373 0
M  V30 1914 C 165.059 2.24741 -3.8963 0
M  V30 1915 C 166.378 3.69423 -2.39196 0
M  V30 1916 H 163.497 0.529303 -0.512842 0
M  V30 1917 H 166.139 0.794112 -1.72609 0
M  V30 1918 H 164.289 3.23982 -2.14401 0
M  V30 1919 H 165.961 1.73327 -4.27499 0
M  V30 1920 H 164.204 1.56542 -4.0457 0
M  V30 1921 H 164.875 3.1177 -4.55525 0
M  V30 1922 H 167.351 3.2234 -2.63128 0
M  V30 1923 H 166.227 4.51907 -3.11563 0
M  V30 1924 H 166.488 4.19012 -1.41001 0
M  V30 1925 N 165.547 1.27147 0.931209 0
M  V30 1926 C 166.48 1.0389 2.0318 0
M  V30 1927 C 167.458 -0.0395716 1.62552 0
M  V30 1928 O 168.642 0.104867 1.88208 0
M  V30 1929 C 165.769 0.575227 3.3378 0
M  V30 1930 C 164.815 1.64774 3.93385 0
M  V30 1931 S 165.648 3.23933 4.26413 0
M  V30 1932 C 166.804 2.79358 5.60098 0
M  V30 1933 H 167.037 1.97075 2.22596 0
M  V30 1934 H 164.57 1.10938 1.07387 0
M  V30 1935 H 166.528 0.314385 4.09294 0
M  V30 1936 H 165.189 -0.336505 3.12292 0
M  V30 1937 H 164.382 1.27454 4.87618 0
M  V30 1938 H 163.984 1.86048 3.24441 0
M  V30 1939 H 166.276 2.24443 6.39243 0
M  V30 1940 H 167.219 3.72322 6.02314 0
M  V30 1941 H 167.627 2.1861 5.20452 0
M  V30 1942 N 167.025 -1.13721 1.09112 0
M  V30 1943 C 167.988 -2.17222 0.731241 0
M  V30 1944 C 168.988 -1.59035 -0.237566 0
M  V30 1945 O 170.178 -1.74192 -0.0161704 0
M  V30 1946 C 167.31 -3.40804 0.0808443 0
M  V30 1947 H 168.503 -2.50573 1.64783 0
M  V30 1948 H 166.056 -1.28493 0.889897 0
M  V30 1949 H 166.791 -3.1304 -0.847127 0
M  V30 1950 H 166.576 -3.84306 0.777896 0
M  V30 1951 H 168.066 -4.1731 -0.155657 0
M  V30 1952 N 168.503 -0.877838 -1.30888 0
M  V30 1953 C 169.75 -0.492696 -1.96415 0
M  V30 1954 C 170.078 0.956671 -1.69346 0
M  V30 1955 O 169.333 1.68993 -0.986913 0
M  V30 1956 C 169.632 -0.705748 -3.50363 0
M  V30 1957 C 169.298 -2.1291 -3.97467 0
M  V30 1958 C 167.96 -2.51834 -4.1004 0
M  V30 1959 C 170.312 -3.05702 -4.22132 0
M  V30 1960 C 167.64 -3.82775 -4.44635 0
M  V30 1961 C 169.992 -4.36166 -4.58194 0
M  V30 1962 C 168.656 -4.74993 -4.68975 0
M  V30 1963 H 167.926 -0.18029 -0.718733 0
M  V30 1964 H 170.573 -1.11233 -1.55883 0
M  V30 1965 H 168.878 -0.00303058 -3.918 0
M  V30 1966 H 170.575 -0.387456 -3.99124 0
M  V30 1967 H 167.165 -1.81694 -3.88182 0
M  V30 1968 H 171.349 -2.76853 -4.11906 0
M  V30 1969 H 166.605 -4.12609 -4.51181 0
M  V30 1970 H 170.779 -5.08111 -4.76231 0
M  V30 1971 H 168.406 -5.76495 -4.95537 0
M  V30 1972 N 169.982 1.44106 -0.638065 0
M  V30 1973 C 170.932 2.27843 0.0847285 0
M  V30 1974 C 171.916 1.39055 0.809471 0
M  V30 1975 O 173.108 1.62808 0.694435 0
M  V30 1976 C 170.237 3.26497 1.06089 0
M  V30 1977 C 169.323 4.22772 0.33541 0
M  V30 1978 N 169.714 5.01737 -0.639787 0
M  V30 1979 C 168.012 4.42227 0.578921 0
M  V30 1980 C 168.713 5.71792 -1.06904 0
M  V30 1981 N 167.689 5.42079 -0.406395 0
M  V30 1982 H 171.491 2.86305 -0.663814 0
M  V30 1983 H 169.005 1.55627 -0.464122 0
M  V30 1984 H 171.002 3.8525 1.59337 0
M  V30 1985 H 169.662 2.69595 1.80966 0
M  V30 1986 H 170.673 5.07799 -1.01789 0
M  V30 1987 H 167.35 3.96415 1.31003 0
M  V30 1988 H 168.74 6.45205 -1.8751 0
M  V30 1989 N 171.46 0.379036 1.52974 0
M  V30 1990 C 172.39 -0.452706 2.29069 0
M  V30 1991 C 173.371 -1.07237 1.32039 0
M  V30 1992 O 174.556 -1.08708 1.60923 0
M  V30 1993 C 171.686 -1.5856 3.08992 0
M  V30 1994 C 170.64 -1.0925 4.13822 0
M  V30 1995 C 169.966 -2.31668 4.81907 0
M  V30 1996 C 171.266 -0.167702 5.22031 0
M  V30 1997 H 172.96 0.182181 2.98845 0
M  V30 1998 H 170.506 0.0890592 1.43724 0
M  V30 1999 H 172.459 -2.1742 3.6098 0
M  V30 2000 H 171.183 -2.24792 2.36931 0
M  V30 2001 H 169.842 -0.526494 3.628 0
M  V30 2002 H 169.49 -2.96386 4.06404 0
M  V30 2003 H 169.19 -1.9934 5.52754 0
M  V30 2004 H 170.714 -2.91189 5.36695 0
M  V30 2005 H 172.128 -0.664186 5.6944 0
M  V30 2006 H 170.525 0.0653265 6.00064 0
M  V30 2007 H 171.595 0.786347 4.78482 0
M  V30 2008 N 172.938 -1.57226 0.108567 0
M  V30 2009 C 174.166 -1.99179 -0.559954 0
M  V30 2010 C 174.581 -0.988022 -1.60884 0
M  V30 2011 O 173.938 0.0205512 -1.82488 0
M  V30 2012 C 173.989 -3.41159 -1.19552 0
M  V30 2013 O 173.71 -4.37694 -0.188577 0
M  V30 2014 C 175.211 -3.98188 -1.94837 0
M  V30 2015 H 172.431 -0.654228 -0.149088 0
M  V30 2016 H 174.975 -2.03598 0.19183 0
M  V30 2017 H 173.13 -3.37711 -1.89815 0
M  V30 2018 H 173.544 -5.20469 -0.649014 0
M  V30 2019 H 175.018 -4.99644 -2.34648 0
M  V30 2020 H 175.495 -3.3675 -2.81951 0
M  V30 2021 H 176.101 -4.0515 -1.2936 0
M  V30 2022 N 174.416 0.165178 -1.56732 0
M  V30 2023 C 175.644 0.896218 -1.86482 0
M  V30 2024 C 176.059 1.75555 -0.694675 0
M  V30 2025 O 175.416 1.79379 0.33607 0
M  V30 2026 C 175.467 1.76792 -3.1532 0
M  V30 2027 O 175.188 0.943239 -4.27825 0
M  V30 2028 C 176.689 2.6081 -3.58459 0
M  V30 2029 H 173.909 0.260064 -0.618553 0
M  V30 2030 H 176.453 0.163428 -2.03846 0
M  V30 2031 H 174.608 2.45398 -2.99764 0
M  V30 2032 H 175.022 1.53998 -5.01383 0
M  V30 2033 H 176.496 3.17579 -4.51495 0
M  V30 2034 H 176.973 3.35977 -2.82872 0
M  V30 2035 H 177.579 1.97526 -3.76648 0
M  V30 2036 N 175.894 1.51508 0.433938 0
M  V30 2037 C 177.31 1.39759 0.770682 0
M  V30 2038 C 177.51 0.482594 1.95636 0
M  V30 2039 O 176.566 -0.0609691 2.52426 0
M  V30 2040 C 177.879 2.81851 1.04787 0
M  V30 2041 C 179.427 2.91025 1.1521 0
M  V30 2042 C 179.902 4.34032 1.46219 0
M  V30 2043 N 181.393 4.37154 1.53136 0
M  V30 2044 C 182.128 5.4484 1.78709 0
M  V30 2045 N 181.624 6.62682 2.02051 0
M  V30 2046 N 183.417 5.32324 1.80519 0
M  V30 2047 H 175.568 2.09548 -0.346892 0
M  V30 2048 H 177.831 0.943446 -0.0928074 0
M  V30 2049 H 177.537 3.50815 0.249304 0
M  V30 2050 H 177.411 3.21386 1.97461 0
M  V30 2051 H 179.798 2.22257 1.94128 0
M  V30 2052 H 179.879 2.54983 0.204281 0
M  V30 2053 H 179.523 5.03351 0.678274 0
M  V30 2054 H 179.453 4.6759 2.42212 0
M  V30 2055 H 181.944 3.52197 1.36987 0
M  V30 2056 H 182.257 7.40543 2.20943 0
M  V30 2057 H 180.602 6.65791 1.99366 0
M  V30 2058 H 183.793 4.39246 1.61805 0
M  V30 2059 H 183.966 6.16328 2.00111 0
M  V30 2060 N 177.372 -0.689602 1.41712 0
M  V30 2061 C 178.32 -1.82475 1.44242 0
M  V30 2062 C 179.314 -1.66354 0.319774 0
M  V30 2063 O 180.52 -1.73143 0.492089 0
M  V30 2064 H 176.895 -0.601416 0.451445 0
M  V30 2065 H 178.866 -1.77458 2.39899 0
M  V30 2066 C 177.615 -3.20535 1.3473 0
M  V30 2067 H 176.938 -3.33559 2.20405 0
M  V30 2068 H 178.378 -4.00023 1.40562 0
M  V30 2069 C 176.837 -3.36846 0.0603281 0
M  V30 2070 O 177.367 -3.91656 -0.892663 0
M  V30 2071 N 175.573 -2.90595 -0.0177039 0
M  V30 2072 H 175.12 -2.46178 0.758572 0
M  V30 2073 H 175.078 -3.01886 -0.878201 0
M  V30 2074 N 178.85 -1.27639 -0.924453 0
M  V30 2075 C 180.098 -1.13941 -1.66918 0
M  V30 2076 C 180.419 0.314589 -1.92446 0
M  V30 2077 O 179.689 1.21964 -1.53303 0
M  V30 2078 H 178.269 -0.418678 -0.618642 0
M  V30 2079 H 180.931 -1.60213 -1.10985 0
M  V30 2080 H 180.027 -1.67094 -2.63602 0
M  V30 2081 N 180.328 1.1314 -1.09713 0
M  V30 2082 C 181.238 2.22242 -0.751367 0
M  V30 2083 C 182.254 1.72224 0.247938 0
M  V30 2084 O 183.43 2.01205 0.0885463 0
M  V30 2085 C 180.495 3.46231 -0.180274 0
M  V30 2086 C 179.556 4.11125 -1.2359 0
M  V30 2087 C 178.789 5.29195 -0.691966 0
M  V30 2088 O 179.012 5.68342 0.48414 0
M  V30 2089 O 177.946 5.84214 -1.44838 0
M  V30 2090 H 181.772 2.54197 -1.66186 0
M  V30 2091 H 179.357 1.21331 -0.871735 0
M  V30 2092 H 181.239 4.21185 0.134739 0
M  V30 2093 H 179.914 3.1597 0.703185 0
M  V30 2094 H 178.821 3.37985 -1.60366 0
M  V30 2095 H 180.154 4.45524 -2.09211 0
M  V30 2096 N 181.806 0.884767 1.30421 0
M  V30 2097 C 183.217 0.553656 1.78302 0
M  V30 2098 C 183.568 -0.930153 1.7275 0
M  V30 2099 O 182.693 -1.72681 1.30423 0
M  V30 2100 C 183.288 0.998234 3.2376 0
M  V30 2101 C 181.847 0.71854 3.69478 0
M  V30 2102 C 180.994 1.18132 2.50879 0
M  V30 2103 H 183.945 1.06901 1.17294 0
M  V30 2104 H 183.966 0.327118 3.79091 0
M  V30 2105 H 183.478 2.0782 3.27769 0
M  V30 2106 H 181.579 -0.349444 3.70958 0
M  V30 2107 H 181.692 1.30595 4.60958 0
M  V30 2108 H 180.056 0.600669 2.47516 0
M  V30 2109 H 180.839 2.26902 2.57624 0
M  V30 2110 N 183.284 -1.43765 0.645699 0
M  V30 2111 C 184.234 -2.27884 -0.0726442 0
M  V30 2112 C 185.218 -1.39483 -0.802086 0
M  V30 2113 O 186.41 -1.63174 -0.685791 0
M  V30 2114 C 183.539 -3.27055 -1.04356 0
M  V30 2115 C 182.625 -4.22944 -0.312985 0
M  V30 2116 N 183.016 -5.01391 0.666386 0
M  V30 2117 C 181.314 -4.42528 -0.55546 0
M  V30 2118 C 182.015 -5.71217 1.09935 0
M  V30 2119 N 180.991 -5.41856 0.435137 0
M  V30 2120 H 184.793 -2.85949 0.678988 0
M  V30 2121 H 182.307 -1.55378 0.472368 0
M  V30 2122 H 184.304 -3.86089 -1.57292 0
M  V30 2123 H 182.964 -2.70551 -1.79534 0
M  V30 2124 H 183.975 -5.07252 1.04481 0
M  V30 2125 H 180.652 -3.97104 -1.28899 0
M  V30 2126 H 182.042 -6.44202 1.90929 0
M  V30 2127 N 184.763 -0.387143 -1.52771 0
M  V30 2128 C 185.696 0.493123 -2.22808 0
M  V30 2129 C 186.674 1.0658 -1.22798 0
M  V30 2130 O 187.858 1.11785 -1.51777 0
M  V30 2131 C 184.985 1.68238 -2.93962 0
M  V30 2132 C 184.031 1.23515 -4.08223 0
M  V30 2133 S 184.864 0.21848 -5.35054 0
M  V30 2134 C 186.02 1.41357 -6.09729 0
M  V30 2135 H 186.253 -0.101625 -2.97126 0
M  V30 2136 H 183.786 -0.171323 -1.53447 0
M  V30 2137 H 185.744 2.36443 -3.35567 0
M  V30 2138 H 184.405 2.24842 -2.19328 0
M  V30 2139 H 183.598 2.12304 -4.57103 0
M  V30 2140 H 183.2 0.632044 -3.68621 0
M  V30 2141 H 185.492 2.34101 -6.3577 0
M  V30 2142 H 186.435 0.965736 -7.01484 0
M  V30 2143 H 186.843 1.6294 -5.40473 0
M  V30 2144 N 186.241 1.57166 -0.116904 0
M  V30 2145 C 187.49 1.94298 0.541407 0
M  V30 2146 C 187.803 1.00236 1.67964 0
M  V30 2147 O 189.009 1.26826 2.40057 0
M  V30 2148 C 187.465 3.45306 1.01449 0
M  V30 2149 C 187.073 4.47899 -0.0951738 0
M  V30 2150 C 188.817 3.91361 1.6443 0
M  V30 2151 C 186.724 5.90083 0.394491 0
M  V30 2152 H 185.654 0.725308 0.206019 0
M  V30 2153 H 188.305 1.82446 -0.196419 0
M  V30 2154 H 186.687 3.52385 1.80667 0
M  V30 2155 H 187.861 4.52486 -0.871374 0
M  V30 2156 H 186.176 4.11583 -0.631505 0
M  V30 2157 H 188.773 4.95004 2.02176 0
M  V30 2158 H 189.116 3.3122 2.52189 0
M  V30 2159 H 189.649 3.87073 0.917559 0
M  V30 2160 H 186.388 6.53974 -0.447004 0
M  V30 2161 H 185.908 5.88921 1.13722 0
M  V30 2162 H 187.587 6.41307 0.856399 0
M  V30 2163 N 187.719 -0.156864 1.56817 0
M  V30 2164 C 188.965 -0.872416 1.83076 0
M  V30 2165 C 189.298 -1.81261 0.697001 0
M  V30 2166 O 188.573 -1.92171 -0.30008 0
M  V30 2167 C 188.856 -1.65551 3.19789 0
M  V30 2168 C 188.709 -0.737467 4.43713 0
M  V30 2169 C 190.028 -2.62012 3.53606 0
M  V30 2170 H 187.147 -0.315715 0.665953 0
M  V30 2171 H 189.789 -0.138004 1.89498 0
M  V30 2172 H 187.939 -2.28159 3.14445 0
M  V30 2173 H 189.611 -0.123143 4.61136 0
M  V30 2174 H 187.854 -0.0464067 4.33775 0
M  V30 2175 H 188.525 -1.32122 5.35955 0
M  V30 2176 H 191.001 -2.09525 3.59497 0
M  V30 2177 H 189.877 -3.13861 4.50314 0
M  V30 2178 H 190.138 -3.42902 2.79053 0
M  V30 2179 N 189.197 -1.51736 -0.425897 0
M  V30 2180 C 190.422 -1.69082 -1.20108 0
M  V30 2181 C 190.847 -0.392398 -1.83962 0
M  V30 2182 O 190.205 0.64858 -1.69302 0
M  V30 2183 C 190.253 -2.81604 -2.25237 0
M  V30 2184 O 189.357 -2.46004 -3.30992 0
M  V30 2185 H 188.698 -0.563408 -0.35138 0
M  V30 2186 H 191.228 -1.98358 -0.501512 0
M  V30 2187 H 191.238 -3.06025 -2.69838 0
M  V30 2188 H 189.913 -3.75817 -1.78142 0
M  V30 2189 H 188.49 -2.32195 -2.91787 0
M  V30 2190 N 190.675 0.682077 -1.42076 0
M  V30 2191 C 192.091 0.994324 -1.24841 0
M  V30 2192 C 192.291 2.0096 -0.147389 0
M  V30 2193 O 191.347 2.47822 0.483782 0
M  V30 2194 C 192.66 1.50607 -2.60265 0
M  V30 2195 C 194.208 1.62421 -2.6756 0
M  V30 2196 C 194.683 2.16994 -4.03333 0
M  V30 2197 N 196.174 2.24337 -4.0525 0
M  V30 2198 C 196.909 2.67621 -5.07116 0
M  V30 2199 N 196.405 3.1041 -6.19368 0
M  V30 2200 N 198.198 2.67305 -4.94474 0
M  V30 2201 H 190.349 0.00973908 -2.12398 0
M  V30 2202 H 192.612 0.0668593 -0.945639 0
M  V30 2203 H 192.318 0.834583 -3.41654 0
M  V30 2204 H 192.192 2.48602 -2.83684 0
M  V30 2205 H 194.579 2.28678 -1.86521 0
M  V30 2206 H 194.66 0.629352 -2.47937 0
M  V30 2207 H 194.304 1.51349 -4.84826 0
M  V30 2208 H 194.234 3.17258 -4.20304 0
M  V30 2209 H 196.725 1.94158 -3.24209 0
M  V30 2210 H 197.038 3.42103 -6.92954 0
M  V30 2211 H 195.383 3.08286 -6.22884 0
M  V30 2212 H 198.574 2.33233 -4.05857 0
M  V30 2213 H 198.747 3.00718 -5.73997 0
M  V30 2214 N 192.153 1.28127 0.917671 0
M  V30 2215 C 193.085 1.07517 2.02417 0
M  V30 2216 C 194.098 0.0281099 1.62776 0
M  V30 2217 O 195.287 0.270748 1.76435 0
M  V30 2218 C 192.387 0.610957 3.33347 0
M  V30 2219 C 191.56 1.73255 4.01624 0
M  V30 2220 C 190.619 1.26238 5.10833 0
M  V30 2221 O 189.645 1.96389 5.34247 0
M  V30 2222 N 190.847 0.123448 5.80369 0
M  V30 2223 H 193.612 2.02806 2.20658 0
M  V30 2224 H 191.173 1.19827 1.08871 0
M  V30 2225 H 193.165 0.280101 4.0373 0
M  V30 2226 H 191.735 -0.24898 3.11607 0
M  V30 2227 H 190.955 2.23319 3.24842 0
M  V30 2228 H 192.243 2.48503 4.43986 0
M  V30 2229 H 191.641 -0.461847 5.63812 0
M  V30 2230 H 190.198 -0.148158 6.51632 0
M  V30 2231 N 193.631 -1.12557 1.10312 0
M  V30 2232 C 194.541 -2.21841 0.763142 0
M  V30 2233 C 195.557 -1.72354 -0.238801 0
M  V30 2234 O 196.733 -2.01249 -0.0778746 0
M  V30 2235 C 193.798 -3.46131 0.198632 0
M  V30 2236 C 192.859 -4.10464 1.25769 0
M  V30 2237 C 192.092 -5.28821 0.72002 0
M  V30 2238 O 192.315 -5.6859 -0.453993 0
M  V30 2239 O 191.249 -5.83437 1.47935 0
M  V30 2240 H 195.075 -2.53312 1.67532 0
M  V30 2241 H 192.66 -1.20867 0.878157 0
M  V30 2242 H 194.542 -4.2125 -0.112401 0
M  V30 2243 H 193.217 -3.16338 -0.686419 0
M  V30 2244 H 192.124 -3.3713 1.62156 0
M  V30 2245 H 193.457 -4.44408 2.11571 0
M  V30 2246 N 195.109 -0.891671 -1.2995 0
M  V30 2247 C 196.056 -0.361736 -2.27948 0
M  V30 2248 C 197.026 0.551761 -1.56668 0
M  V30 2249 O 198.211 0.478736 -1.84696 0
M  V30 2250 C 195.351 0.411825 -3.42634 0
M  V30 2251 C 194.464 -0.531651 -4.28716 0
M  V30 2252 C 193.599 0.258167 -5.30572 0
M  V30 2253 C 192.638 -0.680349 -6.08307 0
M  V30 2254 N 191.775 0.0745613 -7.0206 0
M  V30 2255 H 196.615 -1.20254 -2.72659 0
M  V30 2256 H 194.152 -0.604352 -1.34112 0
M  V30 2257 H 196.11 0.876304 -4.07893 0
M  V30 2258 H 194.74 1.21715 -2.98974 0
M  V30 2259 H 193.792 -1.11463 -3.63703 0
M  V30 2260 H 195.104 -1.25038 -4.82874 0
M  V30 2261 H 194.258 0.784204 -6.0161 0
M  V30 2262 H 192.997 1.01008 -4.77126 0
M  V30 2263 H 192.002 -1.21796 -5.3614 0
M  V30 2264 H 193.227 -1.43145 -6.63842 0
M  V30 2265 H 191.173 0.808883 -6.50994 0
M  V30 2266 H 191.09 -0.584409 -7.53738 0
M  V30 2267 H 192.358 0.581123 -7.77331 0
M  V30 2268 N 196.587 1.43421 -0.653314 0
M  V30 2269 C 197.835 2.01414 -0.166415 0
M  V30 2270 C 198.156 1.51803 1.22397 0
M  V30 2271 O 197.426 0.730693 1.81763 0
M  V30 2272 H 196.006 0.744703 -0.0585319 0
M  V30 2273 H 198.668 1.75629 -0.845003 0
M  V30 2274 H 197.764 3.11734 -0.151111 0
M  V30 2275 N 198.065 0.39524 1.52563 0
M  V30 2276 C 199.012 -0.437036 2.26624 0
M  V30 2277 C 199.982 -1.05281 1.28472 0
M  V30 2278 O 201.167 -1.07971 1.57311 0
M  V30 2279 C 198.307 -1.55524 3.08069 0
M  V30 2280 C 197.42 -0.961745 4.21158 0
M  V30 2281 C 196.555 -2.05149 4.89987 0
M  V30 2282 C 195.594 -1.4342 5.95061 0
M  V30 2283 N 194.731 -2.46351 6.57462 0
M  V30 2284 H 199.571 0.200976 2.97322 0
M  V30 2285 H 197.108 0.110944 1.46681 0
M  V30 2286 H 199.066 -2.21437 3.53584 0
M  V30 2287 H 197.696 -2.16348 2.3957 0
M  V30 2288 H 196.748 -0.192048 3.79915 0
M  V30 2289 H 198.06 -0.470701 4.96574 0
M  V30 2290 H 197.214 -2.78819 5.38837 0
M  V30 2291 H 195.953 -2.57615 4.14109 0
M  V30 2292 H 194.958 -0.682774 5.45544 0
M  V30 2293 H 196.183 -0.917416 6.72875 0
M  V30 2294 H 194.129 -2.97975 5.8442 0
M  V30 2295 H 194.046 -2.02019 7.28508 0
M  V30 2296 H 195.314 -3.19633 7.10954 0
M  V30 2297 N 199.544 -1.57102 0.125237 0
M  V30 2298 C 200.769 -2.0019 -0.542101 0
M  V30 2299 C 201.194 -1.00449 -1.59034 0
M  V30 2300 O 200.552 0.0229423 -1.81285 0
M  V30 2301 C 200.6 -3.42129 -1.13929 0
M  V30 2302 O 199.704 -3.45307 -2.2547 0
M  V30 2303 H 199.045 -0.650171 -0.134812 0
M  V30 2304 H 201.575 -2.03461 0.215553 0
M  V30 2305 H 201.585 -3.80471 -1.4733 0
M  V30 2306 H 200.26 -4.14237 -0.371531 0
M  V30 2307 H 198.837 -3.1879 -1.93462 0
M  V30 2308 N 201.022 0.148545 -1.56898 0
M  V30 2309 C 201.952 1.18524 -2.01182 0
M  V30 2310 C 202.933 1.4489 -0.891123 0
M  V30 2311 O 204.118 1.55836 -1.15882 0
M  V30 2312 C 201.248 2.51879 -2.39112 0
M  V30 2313 C 200.202 2.40038 -3.54353 0
M  V30 2314 C 199.528 3.78089 -3.78091 0
M  V30 2315 C 200.828 1.88577 -4.87069 0
M  V30 2316 H 202.522 0.817029 -2.88036 0
M  V30 2317 H 200.068 0.391575 -1.38574 0
M  V30 2318 H 202.021 3.24627 -2.68692 0
M  V30 2319 H 200.745 2.90532 -1.49193 0
M  V30 2320 H 199.404 1.69742 -3.24936 0
M  V30 2321 H 199.052 4.14175 -2.85426 0
M  V30 2322 H 198.752 3.71028 -4.55645 0
M  V30 2323 H 200.276 4.52387 -4.10095 0
M  V30 2324 H 201.69 2.51117 -5.15377 0
M  V30 2325 H 200.087 1.9241 -5.68417 0
M  V30 2326 H 201.157 0.84136 -4.77545 0
M  V30 2327 N 202.5 1.5196 0.417844 0
M  V30 2328 C 203.43 1.77634 1.51554 0
M  V30 2329 C 204.411 0.626918 1.58126 0
M  V30 2330 O 205.596 0.871632 1.7354 0
M  V30 2331 C 202.726 1.91911 2.8946 0
M  V30 2332 C 201.68 3.07463 2.97743 0
M  V30 2333 C 201.006 3.06951 4.37819 0
M  V30 2334 C 202.306 4.47082 2.70027 0
M  V30 2335 H 204 2.6955 1.3032 0
M  V30 2336 H 201.546 1.29706 0.625492 0
M  V30 2337 H 203.499 2.08455 3.6623 0
M  V30 2338 H 202.223 0.966598 3.11969 0
M  V30 2339 H 200.882 2.90656 2.23416 0
M  V30 2340 H 200.53 2.09438 4.57323 0
M  V30 2341 H 200.23 3.84556 4.44286 0
M  V30 2342 H 201.754 3.25613 5.16535 0
M  V30 2343 H 203.168 4.6414 3.36522 0
M  V30 2344 H 201.565 5.2654 2.87881 0
M  V30 2345 H 202.635 4.55777 1.65514 0
M  V30 2346 N 203.978 -0.674533 1.42435 0
M  V30 2347 C 205.225 -1.43459 1.42919 0
M  V30 2348 C 205.553 -1.94446 0.0457312 0
M  V30 2349 O 204.808 -1.7132 -0.94593 0
M  V30 2350 C 205.107 -2.64767 2.40069 0
M  V30 2351 C 204.773 -2.3232 3.86443 0
M  V30 2352 C 203.435 -2.23182 4.26314 0
M  V30 2353 C 205.787 -2.05977 4.78773 0
M  V30 2354 C 203.115 -1.85827 5.56494 0
M  V30 2355 C 205.467 -1.70125 6.09295 0
M  V30 2356 C 204.131 -1.59498 6.48164 0
M  V30 2357 H 203.401 -0.524952 0.522978 0
M  V30 2358 H 206.048 -0.769097 1.75377 0
M  V30 2359 H 204.353 -3.36349 2.00939 0
M  V30 2360 H 206.05 -3.22949 2.37707 0
M  V30 2361 H 202.64 -2.40334 3.54877 0
M  V30 2362 H 206.824 -2.11969 4.48757 0
M  V30 2363 H 202.08 -1.76168 5.8547 0
M  V30 2364 H 206.254 -1.48767 6.80324 0
M  V30 2365 H 203.881 -1.30322 7.48946 0
M  V30 2366 N 205.456 -1.28612 -0.910864 0
M  V30 2367 C 206.403 -1.12786 -2.01365 0
M  V30 2368 C 207.373 -0.024201 -1.66082 0
M  V30 2369 O 208.558 -0.189667 -1.89855 0
M  V30 2370 C 205.698 -0.798743 -3.35729 0
M  V30 2371 C 204.811 -1.98173 -3.83864 0
M  V30 2372 C 203.946 -1.59298 -5.06752 0
M  V30 2373 C 202.985 -2.74245 -5.47226 0
M  V30 2374 N 202.122 -2.35842 -6.61304 0
M  V30 2375 H 206.962 -2.07142 -2.14234 0
M  V30 2376 H 204.499 -1.03093 -1.0493 0
M  V30 2377 H 206.457 -0.588662 -4.13026 0
M  V30 2378 H 205.087 0.10789 -3.2262 0
M  V30 2379 H 204.139 -2.30386 -3.02699 0
M  V30 2380 H 205.451 -2.84343 -4.09818 0
M  V30 2381 H 204.605 -1.34513 -5.916 0
M  V30 2382 H 203.344 -0.702618 -4.82612 0
M  V30 2383 H 202.349 -2.99725 -4.60918 0
M  V30 2384 H 203.574 -3.63928 -5.73353 0
M  V30 2385 H 201.52 -1.49279 -6.38789 0
M  V30 2386 H 201.437 -3.15546 -6.86998 0
M  V30 2387 H 202.705 -2.14348 -7.4945 0
M  V30 2388 N 206.934 1.1197 -1.10907 0
M  V30 2389 C 208.162 1.87402 -0.876824 0
M  V30 2390 C 208.577 1.79894 0.573025 0
M  V30 2391 O 207.934 1.17629 1.39534 0
M  V30 2392 C 207.985 3.36428 -1.32282 0
M  V30 2393 O 207.706 3.43765 -2.71582 0
M  V30 2394 C 209.207 4.28783 -1.12518 0
M  V30 2395 H 206.427 0.592793 -0.314384 0
M  V30 2396 H 208.971 1.41649 -1.47499 0
M  V30 2397 H 207.126 3.79706 -0.768229 0
M  V30 2398 H 207.54 4.3652 -2.90776 0
M  V30 2399 H 209.014 5.31613 -1.48633 0
M  V30 2400 H 209.491 4.39153 -0.0642394 0
M  V30 2401 H 210.097 3.91291 -1.66648 0
M  V30 2402 N 208.412 0.89855 1.29475 0
M  V30 2403 C 209.359 0.373819 2.27753 0
M  V30 2404 C 210.329 -0.543444 1.56958 0
M  V30 2405 O 211.514 -0.468934 1.84948 0
M  V30 2406 C 208.654 -0.393648 3.42848 0
M  V30 2407 C 207.767 0.554379 4.28428 0
M  V30 2408 C 206.902 -0.230026 5.30702 0
M  V30 2409 C 205.941 0.712599 6.07938 0
M  V30 2410 N 205.078 -0.0373283 7.0209 0
M  V30 2411 H 209.918 1.21699 2.72017 0
M  V30 2412 H 207.455 0.611456 1.33789 0
M  V30 2413 H 209.413 -0.85466 4.08352 0
M  V30 2414 H 208.043 -1.20128 2.99615 0
M  V30 2415 H 207.095 1.13391 3.63107 0
M  V30 2416 H 208.407 1.27597 4.82204 0
M  V30 2417 H 207.561 -0.752288 6.02018 0
M  V30 2418 H 206.3 -0.984758 4.77654 0
M  V30 2419 H 205.305 1.24637 5.35486 0
M  V30 2420 H 206.53 1.46664 6.63074 0
M  V30 2421 H 204.476 -0.774348 6.51414 0
M  V30 2422 H 204.393 0.624374 7.53417 0
M  V30 2423 H 205.661 -0.539891 7.77628 0
M  V30 2424 N 209.89 -1.43072 0.660911 0
M  V30 2425 C 211.167 -1.95307 0.107017 0
M  V30 2426 C 211.547 -1.60192 -1.37484 0
M  V30 2427 O 210.895 -0.890949 -2.10415 0
M  V30 2428 C 211.105 -3.47124 0.361402 0
M  V30 2429 C 212.453 -4.23738 0.270455 0
M  V30 2430 O 213.477 -3.54981 0.294382 0
M  V30 2431 O 212.336 -5.46131 0.200737 0
M  V30 2432 H 209.43 -0.826984 -0.00517729 0
M  V30 2433 H 211.976 -1.52972 0.734681 0
M  V30 2434 H 210.748 -3.65837 1.38848 0
M  V30 2435 H 210.371 -3.96475 -0.298953 0
M  V30 2436 N 211.368 -0.403325 -1.52352 0
M  V30 2437 C 212.616 0.174003 -2.0135 0
M  V30 2438 C 212.937 1.46139 -1.29106 0
M  V30 2439 O 212.207 1.91448 -0.415253 0
M  V30 2440 H 210.787 0.0672911 -0.743963 0
M  V30 2441 H 213.449 -0.538235 -1.87321 0
M  V30 2442 H 212.545 0.374254 -3.09848 0
M  V30 2443 N 212.846 1.57033 -0.133567 0
M  V30 2444 C 214.074 2.00044 0.528195 0
M  V30 2445 C 214.489 1.01349 1.59291 0
M  V30 2446 O 213.846 0.00848369 1.82498 0
M  V30 2447 C 213.897 3.43018 1.1411 0
M  V30 2448 O 213.618 4.37939 0.11892 0
M  V30 2449 C 215.119 4.01237 1.88477 0
M  V30 2450 H 212.339 0.656517 0.138661 0
M  V30 2451 H 214.883 2.03267 -0.224196 0
M  V30 2452 H 213.038 3.40688 1.84418 0
M  V30 2453 H 213.452 5.21436 0.56613 0
M  V30 2454 H 214.926 5.03314 2.26669 0
M  V30 2455 H 215.403 3.41193 2.76558 0
M  V30 2456 H 216.009 4.07156 1.22898 0
M  V30 2457 N 214.325 -0.140222 1.56975 0
M  V30 2458 C 215.273 -1.19207 1.99731 0
M  V30 2459 C 216.267 -1.44089 0.890777 0
M  V30 2460 O 217.473 -1.44301 1.07597 0
M  V30 2461 H 213.848 -0.40142 0.635898 0
M  V30 2462 H 215.819 -0.804813 2.87342 0
M  V30 2463 C 214.568 -2.51617 2.39967 0
M  V30 2464 H 213.891 -2.33303 3.24669 0
M  V30 2465 H 215.331 -3.23827 2.73701 0
M  V30 2466 C 213.79 -3.12654 1.25496 0
M  V30 2467 O 214.32 -3.97786 0.559371 0
M  V30 2468 N 212.526 -2.72206 1.01746 0
M  V30 2469 H 212.073 -2.03074 1.58489 0
M  V30 2470 H 212.031 -3.13377 0.253461 0
M  V30 2471 N 215.803 -1.52179 -0.40978 0
M  V30 2472 C 216.736 -1.70196 -1.52015 0
M  V30 2473 C 217.714 -0.549542 -1.53032 0
M  V30 2474 O 218.898 -0.776815 -1.71749 0
M  V30 2475 C 216.025 -1.74069 -2.90547 0
M  V30 2476 C 215.071 -2.95601 -3.07445 0
M  V30 2477 S 215.904 -4.55956 -2.80827 0
M  V30 2478 C 217.06 -4.62614 -4.21591 0
M  V30 2479 H 217.293 -2.64109 -1.36504 0
M  V30 2480 H 214.826 -1.4221 -0.601312 0
M  V30 2481 H 216.784 -1.76985 -3.70387 0
M  V30 2482 H 215.445 -0.812835 -3.034 0
M  V30 2483 H 214.638 -2.94791 -4.08796 0
M  V30 2484 H 214.24 -2.90569 -2.35469 0
M  V30 2485 H 216.532 -4.39951 -5.15218 0
M  V30 2486 H 217.475 -5.64548 -4.27424 0
M  V30 2487 H 217.883 -3.91654 -4.06531 0
M  V30 2488 N 217.281 0.66697 -1.42791 0
M  V30 2489 C 218.521 1.43892 -1.4517 0
M  V30 2490 C 218.885 1.91877 -0.0687551 0
M  V30 2491 O 220.086 2.6878 0.0327455 0
M  V30 2492 C 218.357 2.59839 -2.45395 0
M  V30 2493 S 219.916 3.48572 -2.66539 0
M  V30 2494 H 216.734 0.491356 -0.513897 0
M  V30 2495 H 219.336 0.775656 -1.79454 0
M  V30 2496 H 218.04 2.22838 -3.44632 0
M  V30 2497 H 217.571 3.3103 -2.12562 0
M  V30 2498 H 219.586 4.56094 -1.95429 0
M  V30 2499 N 218.759 1.29093 0.90403 0
M  V30 2500 C 219.987 1.19689 1.68766 0
M  V30 2501 C 220.402 -0.243113 1.87228 0
M  V30 2502 O 219.759 -1.16326 1.40621 0
M  V30 2503 C 219.81 1.90144 3.07453 0
M  V30 2504 O 219.531 3.2852 2.89838 0
M  V30 2505 C 221.032 1.87162 4.01852 0
M  V30 2506 H 218.252 0.415035 0.527244 0
M  V30 2507 H 220.796 1.7039 1.13082 0
M  V30 2508 H 218.951 1.43289 3.59926 0
M  V30 2509 H 219.365 3.63944 3.77684 0
M  V30 2510 H 220.839 2.41032 4.96596 0
M  V30 2511 H 221.316 0.84617 4.30972 0
M  V30 2512 H 221.922 2.33741 3.5531 0
M  V30 2513 N 220.237 -1.11381 1.11499 0
M  V30 2514 C 221.167 -2.19509 0.796125 0
M  V30 2515 C 222.148 -1.68458 -0.235796 0
M  V30 2516 O 223.333 -1.93947 -0.0991344 0
M  V30 2517 C 220.463 -3.46475 0.239205 0
M  V30 2518 C 219.417 -4.10744 1.20307 0
M  V30 2519 C 218.743 -5.32293 0.50683 0
M  V30 2520 C 220.043 -4.55597 2.55399 0
M  V30 2521 H 221.737 -2.46439 1.70024 0
M  V30 2522 H 219.283 -1.18446 0.818935 0
M  V30 2523 H 221.236 -4.214 0.00392006 0
M  V30 2524 H 219.96 -3.19006 -0.700206 0
M  V30 2525 H 218.619 -3.37813 1.42399 0
M  V30 2526 H 218.267 -5.01095 -0.437408 0
M  V30 2527 H 217.967 -5.76243 1.1497 0
M  V30 2528 H 219.491 -6.09956 0.280351 0
M  V30 2529 H 220.905 -5.21841 2.37391 0
M  V30 2530 H 219.302 -5.10363 3.15673 0
M  V30 2531 H 220.372 -3.69013 3.14575 0
M  V30 2532 N 221.715 -0.905404 -1.28997 0
M  V30 2533 C 222.648 -0.331959 -2.25773 0
M  V30 2534 C 223.626 0.559099 -1.52685 0
M  V30 2535 O 224.81 0.50463 -1.8162 0
M  V30 2536 C 221.937 0.526276 -3.34586 0
M  V30 2537 C 220.983 -0.298249 -4.25456 0
M  V30 2538 S 221.816 -1.69968 -5.0781 0
M  V30 2539 C 222.972 -0.848519 -6.20122 0
M  V30 2540 H 223.205 -1.15222 -2.74064 0
M  V30 2541 H 220.738 -0.706112 -1.37308 0
M  V30 2542 H 222.696 1.01565 -3.97737 0
M  V30 2543 H 221.357 1.32084 -2.84978 0
M  V30 2544 H 220.55 0.357607 -5.0273 0
M  V30 2545 H 220.152 -0.720968 -3.66985 0
M  V30 2546 H 222.444 -0.0744325 -6.77459 0
M  V30 2547 H 223.387 -1.59353 -6.89937 0
M  V30 2548 H 223.795 -0.400383 -5.63078 0
M  V30 2549 N 223.193 1.4272 -0.668489 0
M  V30 2550 C 224.156 2.292 0.00448567 0
M  V30 2551 C 225.156 1.43001 0.735339 0
M  V30 2552 O 226.346 1.64461 0.57429 0
M  V30 2553 C 223.478 3.25375 1.01705 0
M  V30 2554 H 224.671 2.90199 -0.756608 0
M  V30 2555 H 222.224 1.50254 -0.430506 0
M  V30 2556 H 222.959 2.69301 1.80686 0
M  V30 2557 H 222.744 3.88944 0.496463 0
M  V30 2558 H 224.234 3.90245 1.48655 0
M  V30 2559 N 224.671 0.411399 1.52136 0
M  V30 2560 C 225.604 -0.457614 2.23565 0
M  V30 2561 C 226.582 -1.04613 1.24478 0
M  V30 2562 O 227.766 -1.09356 1.53536 0
M  V30 2563 C 224.893 -1.6354 2.96602 0
M  V30 2564 C 223.939 -1.17005 4.10137 0
M  V30 2565 S 224.772 -0.13333 5.35334 0
M  V30 2566 C 225.928 -1.31638 6.119 0
M  V30 2567 H 226.161 0.148883 2.96927 0
M  V30 2568 H 223.694 0.195713 1.53155 0
M  V30 2569 H 225.652 -2.31074 3.39286 0
M  V30 2570 H 224.313 -2.21324 2.22878 0
M  V30 2571 H 223.506 -2.05005 4.60422 0
M  V30 2572 H 223.108 -0.573319 3.6958 0
M  V30 2573 H 225.4 -2.23957 6.39413 0
M  V30 2574 H 226.343 -0.854014 7.02931 0
M  V30 2575 H 226.751 -1.54321 5.42997 0
M  V30 2576 N 226.149 -1.5696 0.141893 0
M  V30 2577 C 227.426 -1.87553 -0.555281 0
M  V30 2578 C 227.806 -1.04699 -1.83306 0
M  V30 2579 O 227.154 -0.132346 -2.28116 0
M  V30 2580 C 227.364 -3.39093 -0.825664 0
M  V30 2581 C 228.712 -4.08199 -1.16869 0
M  V30 2582 O 229.736 -3.44242 -0.915185 0
M  V30 2583 O 228.595 -5.21139 -1.6455 0
M  V30 2584 H 225.689 -0.777188 -0.282679 0
M  V30 2585 H 228.235 -1.68763 0.17812 0
M  V30 2586 H 227.007 -3.91221 0.0788633 0
M  V30 2587 H 226.63 -3.63393 -1.61343 0
M  V30 2588 N 227.627 0.131896 -1.57047 0
M  V30 2589 C 228.557 1.16384 -2.02428 0
M  V30 2590 C 229.538 1.43936 -0.90644 0
M  V30 2591 O 230.723 1.54599 -1.17528 0
M  V30 2592 C 227.853 2.49328 -2.4177 0
M  V30 2593 C 226.807 2.36266 -3.56879 0
M  V30 2594 C 226.133 3.74057 -3.8208 0
M  V30 2595 C 227.433 1.834 -4.89042 0
M  V30 2596 H 229.127 0.786433 -2.88887 0
M  V30 2597 H 226.673 0.376855 -1.38981 0
M  V30 2598 H 228.626 3.21759 -2.7212 0
M  V30 2599 H 227.35 2.88934 -1.52266 0
M  V30 2600 H 226.009 1.66286 -3.26718 0
M  V30 2601 H 225.657 4.11125 -2.89803 0
M  V30 2602 H 225.357 3.66174 -4.59554 0
M  V30 2603 H 226.881 4.48012 -4.1487 0
M  V30 2604 H 228.295 2.45636 -5.18011 0
M  V30 2605 H 226.692 1.8637 -5.70426 0
M  V30 2606 H 227.762 0.790662 -4.7841 0
M  V30 2607 N 229.106 1.52395 0.401703 0
M  V30 2608 C 230.354 1.66488 1.14569 0
M  V30 2609 C 230.675 0.400897 1.90835 0
M  V30 2610 O 229.945 -0.584415 1.8698 0
M  V30 2611 H 228.525 0.613672 0.425929 0
M  V30 2612 H 231.187 1.89464 0.457093 0
M  V30 2613 H 230.283 2.50942 1.85566 0
M  V30 2614 N 230.584 -0.659388 1.43143 0
M  V30 2615 C 231.494 -1.80167 1.50256 0
M  V30 2616 C 232.51 -1.69571 0.390106 0
M  V30 2617 O 233.686 -1.90849 0.643319 0
M  V30 2618 C 230.751 -3.16409 1.41725 0
M  V30 2619 C 229.812 -3.38848 2.63591 0
M  V30 2620 C 229.045 -4.68591 2.55458 0
M  V30 2621 O 229.268 -5.47532 1.59891 0
M  V30 2622 O 228.202 -4.92614 3.45854 0
M  V30 2623 H 232.028 -1.77121 2.46702 0
M  V30 2624 H 229.613 -0.817092 1.25076 0
M  V30 2625 H 231.495 -3.9768 1.39387 0
M  V30 2626 H 230.17 -3.20059 0.484118 0
M  V30 2627 H 229.077 -2.57366 2.71502 0
M  V30 2628 H 230.41 -3.4004 3.55856 0
M  V30 2629 N 232.062 -1.29571 -0.897171 0
M  V30 2630 C 232.992 -1.17473 -2.01798 0
M  V30 2631 C 233.973 -0.068323 -1.69963 0
M  V30 2632 O 235.158 -0.248239 -1.92607 0
M  V30 2633 C 232.288 -0.853099 -3.36659 0
M  V30 2634 C 231.242 -1.9161 -3.82713 0
M  V30 2635 C 230.568 -1.44773 -5.14728 0
M  V30 2636 C 231.868 -3.32535 -4.02763 0
M  V30 2637 H 233.562 -2.11237 -2.12177 0
M  V30 2638 H 231.108 -1.01699 -1.01948 0
M  V30 2639 H 233.061 -0.755165 -4.14578 0
M  V30 2640 H 231.785 0.120236 -3.26379 0
M  V30 2641 H 230.444 -2.00346 -3.07013 0
M  V30 2642 H 230.092 -0.462995 -5.00865 0
M  V30 2643 H 229.792 -2.15865 -5.46513 0
M  V30 2644 H 231.316 -1.36334 -5.95185 0
M  V30 2645 H 232.73 -3.26626 -4.71156 0
M  V30 2646 H 231.127 -4.01607 -4.45905 0
M  V30 2647 H 232.197 -3.75326 -3.07016 0
M  V30 2648 N 233.54 1.10788 -1.12088 0
M  V30 2649 C 234.78 1.84297 -0.883974 0
M  V30 2650 C 235.144 1.83036 0.579797 0
M  V30 2651 O 236.345 2.52061 0.933734 0
M  V30 2652 C 234.616 3.27173 -1.43849 0
M  V30 2653 S 236.175 4.17853 -1.33957 0
M  V30 2654 H 232.993 0.635433 -0.318977 0
M  V30 2655 H 235.595 1.33341 -1.4297 0
M  V30 2656 H 234.299 3.25658 -2.49749 0
M  V30 2657 H 233.83 3.83198 -0.890096 0
M  V30 2658 H 235.845 4.95239 -0.308603 0
M  V30 2659 N 235.018 0.912232 1.28515 0
M  V30 2660 C 235.928 0.404506 2.31086 0
M  V30 2661 C 236.944 -0.50707 1.66448 0
M  V30 2662 O 238.12 -0.393624 1.97516 0
M  V30 2663 C 235.185 -0.348572 3.44943 0
M  V30 2664 C 234.246 0.59604 4.25142 0
M  V30 2665 C 233.479 -0.121194 5.33562 0
M  V30 2666 O 233.702 -1.34317 5.5436 0
M  V30 2667 O 232.636 0.542716 5.99448 0
M  V30 2668 H 236.462 1.25579 2.76521 0
M  V30 2669 H 234.047 0.676998 1.33181 0
M  V30 2670 H 235.929 -0.77395 4.14232 0
M  V30 2671 H 234.604 -1.17571 3.01594 0
M  V30 2672 H 233.511 1.07079 3.58448 0
M  V30 2673 H 234.844 1.38995 4.72167 0
M  V30 2674 N 236.496 -1.42363 0.676048 0
M  V30 2675 C 237.773 -1.95183 0.127726 0
M  V30 2676 C 238.153 -1.61641 -1.35777 0
M  V30 2677 O 237.501 -0.913216 -2.09458 0
M  V30 2678 C 237.711 -3.46721 0.398199 0
M  V30 2679 C 239.059 -4.23427 0.315383 0
M  V30 2680 O 240.083 -3.54649 0.332016 0
M  V30 2681 O 238.942 -5.45888 0.25865 0
M  V30 2682 H 236.036 -0.826992 0.00359427 0
M  V30 2683 H 238.582 -1.52184 0.750864 0
M  V30 2684 H 237.354 -3.64344 1.4272 0
M  V30 2685 H 236.977 -3.96769 -0.256885 0
M  V30 2686 N 237.974 -0.419461 -1.51915 0
M  V30 2687 C 239.202 0.152136 -2.0634 0
M  V30 2688 C 239.617 1.37988 -1.28859 0
M  V30 2689 O 238.974 1.79243 -0.343232 0
M  V30 2690 C 239.025 0.492266 -3.58133 0
M  V30 2691 O 238.746 -0.686736 -4.32684 0
M  V30 2692 C 240.247 1.11648 -4.2901 0
M  V30 2693 H 237.467 0.0158325 -0.670813 0
M  V30 2694 H 240.011 -0.593394 -1.95702 0
M  V30 2695 H 238.166 1.18769 -3.68745 0
M  V30 2696 H 238.58 -0.400341 -5.2297 0
M  V30 2697 H 240.054 1.3046 -5.36362 0
M  V30 2698 H 240.531 2.09251 -3.86148 0
M  V30 2699 H 241.137 0.460958 -4.22795 0
M  V30 2700 N 239.452 1.56882 -0.150215 0
M  V30 2701 C 240.701 1.95403 0.500071 0
M  V30 2702 C 241.014 1.03777 1.658 0
M  V30 2703 O 242.22 1.31889 2.37313 0
M  V30 2704 C 240.676 3.4738 0.941018 0
M  V30 2705 C 240.284 4.47596 -0.190158 0
M  V30 2706 C 242.028 3.9476 1.56091 0
M  V30 2707 C 239.935 5.90787 0.269237 0
M  V30 2708 H 238.865 0.729515 0.190588 0
M  V30 2709 H 241.516 1.81988 -0.235074 0
M  V30 2710 H 239.898 3.56138 1.73152 0
M  V30 2711 H 241.072 4.50536 -0.967157 0
M  V30 2712 H 239.387 4.10151 -0.718666 0
M  V30 2713 H 241.984 4.99181 1.9163 0
M  V30 2714 H 242.327 3.36494 2.45107 0
M  V30 2715 H 242.86 3.88932 0.835249 0
M  V30 2716 H 239.599 6.52879 -0.585621 0
M  V30 2717 H 239.119 5.912 1.01204 0
M  V30 2718 H 240.798 6.42979 0.720176 0
M  V30 2719 N 240.93 -0.123565 1.57115 0
M  V30 2720 C 242.158 -0.846461 1.88793 0
M  V30 2721 C 242.573 -1.73652 0.740976 0
M  V30 2722 O 241.93 -1.80207 -0.288393 0
M  V30 2723 C 241.981 -1.6837 3.19897 0
M  V30 2724 O 241.702 -0.829477 4.30176 0
M  V30 2725 C 243.203 -2.51214 3.65248 0
M  V30 2726 H 240.423 -0.243573 0.625231 0
M  V30 2727 H 242.967 -0.109324 2.04208 0
M  V30 2728 H 241.122 -2.37364 3.06165 0
M  V30 2729 H 241.536 -1.40651 5.0529 0
M  V30 2730 H 243.01 -3.05497 4.59756 0
M  V30 2731 H 243.487 -3.28359 2.9168 0
M  V30 2732 H 244.093 -1.8747 3.81752 0
M  V30 2733 N 242.408 -1.52605 -0.393616 0
M  V30 2734 C 243.638 -1.71046 -1.15874 0
M  V30 2735 C 244.046 -0.426483 -1.84331 0
M  V30 2736 O 243.389 0.608513 -1.73329 0
M  V30 2737 C 243.451 -2.80118 -2.25332 0
M  V30 2738 C 243.115 -4.21381 -1.76881 0
M  V30 2739 C 244.112 -5.04697 -1.24808 0
M  V30 2740 C 241.797 -4.67683 -1.83244 0
M  V30 2741 C 243.791 -6.32393 -0.797387 0
M  V30 2742 C 241.478 -5.95364 -1.37787 0
M  V30 2743 C 242.476 -6.77549 -0.861208 0
M  V30 2744 O 242.164 -8.02837 -0.413252 0
M  V30 2745 H 241.896 -0.576155 -0.353583 0
M  V30 2746 H 244.45 -2.00018 -0.467123 0
M  V30 2747 H 242.68 -2.46557 -2.97904 0
M  V30 2748 H 244.369 -2.87006 -2.87023 0
M  V30 2749 H 245.135 -4.70111 -1.19252 0
M  V30 2750 H 241.014 -4.03805 -2.22401 0
M  V30 2751 H 244.558 -6.9649 -0.393437 0
M  V30 2752 H 240.455 -6.29455 -1.43026 0
M  V30 2753 H 241.223 -8.16749 -0.53515 0
M  V30 2754 N 243.887 0.651787 -1.4349 0
M  V30 2755 C 244.834 1.76462 -1.4876 0
M  V30 2756 C 245.804 1.62641 -0.337189 0
M  V30 2757 O 246.989 1.82864 -0.544544 0
M  V30 2758 C 244.129 3.14623 -1.41796 0
M  V30 2759 C 243.242 3.39568 -2.67053 0
M  V30 2760 C 242.377 4.67585 -2.52068 0
M  V30 2761 C 241.416 4.85639 -3.72587 0
M  V30 2762 N 240.553 6.04915 -3.56402 0
M  V30 2763 H 245.393 1.71293 -2.43849 0
M  V30 2764 H 242.93 0.835889 -1.21043 0
M  V30 2765 H 244.888 3.94496 -1.35753 0
M  V30 2766 H 243.518 3.18859 -0.50288 0
M  V30 2767 H 242.57 2.53783 -2.8337 0
M  V30 2768 H 243.882 3.48795 -3.56572 0
M  V30 2769 H 243.036 5.55586 -2.4374 0
M  V30 2770 H 241.775 4.60681 -1.60075 0
M  V30 2771 H 240.78 3.96073 -3.81321 0
M  V30 2772 H 242.005 4.94372 -4.65589 0
M  V30 2773 H 239.951 5.9914 -2.67146 0
M  V30 2774 H 239.868 6.15106 -4.39524 0
M  V30 2775 H 241.136 6.95533 -3.51929 0
M  V30 2776 N 245.365 1.30045 0.890287 0
M  V30 2777 C 246.605 1.19839 1.65584 0
M  V30 2778 C 246.969 -0.244175 1.90441 0
M  V30 2779 O 248.17 -0.469378 2.6467 0
M  V30 2780 C 246.441 1.99876 2.96284 0
M  V30 2781 S 248 2.06309 3.87275 0
M  V30 2782 H 244.818 0.427157 0.568382 0
M  V30 2783 H 247.42 1.64453 1.05715 0
M  V30 2784 H 246.124 3.03809 2.75913 0
M  V30 2785 H 245.655 1.55903 3.61189 0
M  V30 2786 H 247.67 1.18661 4.81803 0
M  V30 2787 N 246.843 -1.10192 1.12674 0
M  V30 2788 C 248.254 -1.63707 0.897604 0
M  V30 2789 C 248.605 -1.87812 -0.567546 0
M  V30 2790 O 247.73 -1.62196 -1.43253 0
M  V30 2791 C 248.325 -2.974 1.62292 0
M  V30 2792 C 246.884 -3.47772 1.43986 0
M  V30 2793 C 246.031 -2.22332 1.65722 0
M  V30 2794 H 248.982 -0.936587 1.28116 0
M  V30 2795 H 249.003 -3.64986 1.07541 0
M  V30 2796 H 248.515 -2.79824 2.68924 0
M  V30 2797 H 246.616 -3.70487 0.396206 0
M  V30 2798 H 246.729 -4.25723 2.19765 0
M  V30 2799 H 245.093 -2.30599 1.08149 0
M  V30 2800 H 245.876 -2.07285 2.73657 0
M  V30 2801 N 248.321 -0.919034 -1.28029 0
M  V30 2802 C 249.568 -0.554934 -1.94748 0
M  V30 2803 C 249.896 0.90231 -1.72304 0
M  V30 2804 O 249.151 1.65767 -1.04018 0
M  V30 2805 C 249.45 -0.816855 -3.4794 0
M  V30 2806 C 249.116 -2.25448 -3.90492 0
M  V30 2807 C 247.778 -2.64752 -4.01821 0
M  V30 2808 C 250.13 -3.18977 -4.12193 0
M  V30 2809 C 247.458 -3.96727 -4.32232 0
M  V30 2810 C 249.81 -4.50523 -4.44086 0
M  V30 2811 C 248.474 -4.89673 -4.53626 0
M  V30 2812 H 247.744 -0.203065 -0.712633 0
M  V30 2813 H 250.391 -1.16136 -1.52265 0
M  V30 2814 H 248.696 -0.127677 -3.91592 0
M  V30 2815 H 250.393 -0.514238 -3.97689 0
M  V30 2816 H 246.983 -1.93952 -3.82205 0
M  V30 2817 H 251.167 -2.89817 -4.02889 0
M  V30 2818 H 246.423 -4.26754 -4.37825 0
M  V30 2819 H 250.597 -5.23005 -4.59825 0
M  V30 2820 H 248.224 -5.91969 -4.76946 0
M  V30 2821 N 249.799 1.42003 -0.683588 0
M  V30 2822 C 250.729 2.33487 -0.024866 0
M  V30 2823 C 251.71 1.51163 0.779975 0
M  V30 2824 O 252.895 1.79739 0.735362 0
M  V30 2825 C 250.025 3.3487 0.920836 0
M  V30 2826 C 248.979 4.27414 0.223958 0
M  V30 2827 C 248.305 5.19074 1.2832 0
M  V30 2828 C 249.605 5.14445 -0.90242 0
M  V30 2829 H 251.299 2.88819 -0.788921 0
M  V30 2830 H 248.845 1.38873 -0.38083 0
M  V30 2831 H 250.798 3.97787 1.39081 0
M  V30 2832 H 249.522 2.77861 1.71642 0
M  V30 2833 H 248.181 3.65904 -0.225864 0
M  V30 2834 H 247.829 4.58387 2.071 0
M  V30 2835 H 247.529 5.81822 0.821995 0
M  V30 2836 H 249.053 5.84867 1.75392 0
M  V30 2837 H 250.467 5.70998 -0.513272 0
M  V30 2838 H 248.864 5.86072 -1.28997 0
M  V30 2839 H 249.934 4.52322 -1.74737 0
M  V30 2840 N 251.277 0.427512 1.51691 0
M  V30 2841 C 252.224 -0.388867 2.275 0
M  V30 2842 C 253.194 -1.02532 1.30677 0
M  V30 2843 O 254.379 -1.0461 1.59566 0
M  V30 2844 C 251.519 -1.48954 3.11298 0
M  V30 2845 C 250.632 -0.872194 4.23104 0
M  V30 2846 C 249.767 -1.94709 4.94228 0
M  V30 2847 C 248.806 -1.30766 5.97969 0
M  V30 2848 N 247.943 -2.32349 6.62539 0
M  V30 2849 H 252.783 0.263997 2.96828 0
M  V30 2850 H 250.32 0.142033 1.46413 0
M  V30 2851 H 252.278 -2.13887 3.58201 0
M  V30 2852 H 250.908 -2.11217 2.44105 0
M  V30 2853 H 249.96 -0.111419 3.80237 0
M  V30 2854 H 251.272 -0.365264 4.97461 0
M  V30 2855 H 250.426 -2.67327 5.44629 0
M  V30 2856 H 249.165 -2.48773 4.1948 0
M  V30 2857 H 248.17 -0.566902 5.4687 0
M  V30 2858 H 249.395 -0.774483 6.74669 0
M  V30 2859 H 247.341 -2.85511 5.90609 0
M  V30 2860 H 247.258 -1.8652 7.3263 0
M  V30 2861 H 248.526 -3.04481 7.17574 0
M  V30 2862 N 252.755 -1.56801 0.158532 0
M  V30 2863 C 253.687 -2.14488 -0.807923 0
M  V30 2864 C 254.7 -1.09721 -1.20271 0
M  V30 2865 O 255.889 -1.36956 -1.14478 0
M  V30 2866 C 252.989 -2.66217 -2.09718 0
M  V30 2867 C 252.162 -3.95507 -1.86796 0
M  V30 2868 C 251.221 -4.3243 -2.99818 0
M  V30 2869 O 250.247 -5.00543 -2.71008 0
M  V30 2870 N 251.449 -3.92947 -4.27285 0
M  V30 2871 H 254.214 -2.98042 -0.314816 0
M  V30 2872 H 251.775 -1.61881 -0.0246692 0
M  V30 2873 H 253.767 -2.87924 -2.84398 0
M  V30 2874 H 252.337 -1.87324 -2.50257 0
M  V30 2875 H 251.557 -3.82309 -0.96089 0
M  V30 2876 H 252.845 -4.79972 -1.68833 0
M  V30 2877 H 252.243 -3.38087 -4.53557 0
M  V30 2878 H 250.8 -4.19681 -4.9871 0
M  V30 2879 N 254.233 0.115231 -1.57178 0
M  V30 2880 C 255.181 1.16014 -2.01602 0
M  V30 2881 C 256.175 1.42653 -0.913587 0
M  V30 2882 O 257.381 1.42571 -1.09879 0
M  V30 2883 H 253.756 0.391252 -0.642204 0
M  V30 2884 H 255.727 0.758998 -2.88586 0
M  V30 2885 C 254.476 2.47767 -2.4394 0
M  V30 2886 H 253.799 2.28108 -3.28339 0
M  V30 2887 H 255.239 3.19432 -2.78818 0
M  V30 2888 C 253.698 3.10617 -1.30455 0
M  V30 2889 O 254.228 3.96846 -0.622585 0
M  V30 2890 N 252.434 2.70553 -1.06064 0
M  V30 2891 H 251.981 2.00527 -1.61699 0
M  V30 2892 H 251.939 3.12934 -0.303284 0
M  V30 2893 N 255.711 1.52812 0.385517 0
M  V30 2894 C 256.621 1.80766 1.49535 0
M  V30 2895 C 257.637 0.694651 1.59532 0
M  V30 2896 O 258.813 0.982611 1.75803 0
M  V30 2897 C 255.878 1.97381 2.85029 0
M  V30 2898 C 254.939 3.21295 2.84724 0
M  V30 2899 C 254.172 3.37108 4.13756 0
M  V30 2900 O 254.395 2.5765 5.08893 0
M  V30 2901 O 253.329 4.30378 4.20783 0
M  V30 2902 H 257.155 2.75015 1.28842 0
M  V30 2903 H 254.74 1.37946 0.573697 0
M  V30 2904 H 256.622 2.09996 3.65349 0
M  V30 2905 H 255.297 1.06322 3.05741 0
M  V30 2906 H 254.204 3.1412 2.03174 0
M  V30 2907 H 255.537 4.12212 2.68965 0
M  V30 2908 N 257.189 -0.644168 1.43834 0
M  V30 2909 C 258.6 -1.22554 1.40845 0
M  V30 2910 C 258.951 -1.9585 0.117115 0
M  V30 2911 O 258.076 -2.01734 -0.783086 0
M  V30 2912 C 258.671 -2.22907 2.55143 0
M  V30 2913 C 257.23 -2.76501 2.5539 0
M  V30 2914 C 256.377 -1.51287 2.32396 0
M  V30 2915 H 259.328 -0.43563 1.52604 0
M  V30 2916 H 259.349 -3.05259 2.2715 0
M  V30 2917 H 258.861 -1.69533 3.49114 0
M  V30 2918 H 256.962 -3.33914 1.65324 0
M  V30 2919 H 257.075 -3.23429 3.53455 0
M  V30 2920 H 255.439 -1.78957 1.81236 0
M  V30 2921 H 256.222 -0.998336 3.28463 0
M  V30 2922 N 258.668 -1.30515 -0.883378 0
M  V30 2923 C 259.578 -1.18959 -2.02203 0
M  V30 2924 C 260.594 -0.109172 -1.73657 0
M  V30 2925 O 261.77 -0.324413 -1.9877 0
M  V30 2926 C 258.835 -0.883871 -3.35244 0
M  V30 2927 C 257.896 -2.04982 -3.77201 0
M  V30 2928 C 257.129 -1.75859 -5.03894 0
M  V30 2929 O 257.352 -0.687276 -5.66244 0
M  V30 2930 O 256.286 -2.61146 -5.42297 0
M  V30 2931 H 260.112 -2.14616 -2.1488 0
M  V30 2932 H 257.697 -1.10124 -1.0096 0
M  V30 2933 H 259.579 -0.728644 -4.15053 0
M  V30 2934 H 258.254 0.0427798 -3.23672 0
M  V30 2935 H 257.161 -2.26038 -2.9809 0
M  V30 2936 H 258.494 -2.95825 -3.93381 0
M  V30 2937 N 260.146 1.09593 -1.13257 0
M  V30 2938 C 261.423 1.78293 -0.804432 0
M  V30 2939 C 261.803 1.99004 0.70431 0
M  V30 2940 O 261.151 1.59007 1.641 0
M  V30 2941 C 261.361 3.10707 -1.5894 0
M  V30 2942 C 262.709 3.85443 -1.78099 0
M  V30 2943 O 263.733 3.20454 -1.55525 0
M  V30 2944 O 262.592 5.02108 -2.15753 0
M  V30 2945 H 259.686 0.773156 -0.293528 0
M  V30 2946 H 262.232 1.16164 -1.23709 0
M  V30 2947 H 261.004 2.91106 -2.61482 0
M  V30 2948 H 260.627 3.80558 -1.15157 0
M  V30 2949 N 261.624 0.925811 1.2754 0
M  V30 2950 C 262.873 0.561084 1.93739 0
M  V30 2951 C 263.186 -0.901685 1.73577 0
M  V30 2952 O 264.392 -1.37511 2.34101 0
M  V30 2953 C 262.848 0.952668 3.47062 0
M  V30 2954 C 262.456 2.43599 3.75983 0
M  V30 2955 C 264.2 0.659103 4.19352 0
M  V30 2956 C 262.107 2.76707 5.22673 0
M  V30 2957 H 261.037 0.206122 0.725279 0
M  V30 2958 H 263.688 1.12637 1.44863 0
M  V30 2959 H 262.07 0.316053 3.94737 0
M  V30 2960 H 263.244 3.12035 3.39073 0
M  V30 2961 H 261.559 2.70125 3.16893 0
M  V30 2962 H 264.156 0.882985 5.27359 0
M  V30 2963 H 264.499 -0.403607 4.14339 0
M  V30 2964 H 265.032 1.25473 3.77494 0
M  V30 2965 H 261.771 3.8188 5.32774 0
M  V30 2966 H 261.291 2.12919 5.60737 0
M  V30 2967 H 262.97 2.6435 5.90532 0
M  V30 2968 N 263.102 -1.41638 0.69111 0
M  V30 2969 C 264.379 -1.95036 0.148421 0
M  V30 2970 C 264.759 -1.63072 -1.34055 0
M  V30 2971 O 264.107 -0.93538 -2.08478 0
M  V30 2972 C 264.317 -3.46279 0.434951 0
M  V30 2973 C 265.665 -4.23069 0.360275 0
M  V30 2974 O 266.689 -3.54277 0.369613 0
M  V30 2975 O 265.548 -5.45583 0.316534 0
M  V30 2976 H 262.642 -0.826908 0.0123654 0
M  V30 2977 H 265.188 -1.5138 0.766963 0
M  V30 2978 H 263.96 -3.6281 1.46576 0
M  V30 2979 H 263.583 -3.97019 -0.214787 0
M  V30 2980 N 264.58 -0.43555 -1.51462 0
M  V30 2981 C 265.82 0.130708 -2.03982 0
M  V30 2982 C 266.184 1.40117 -1.31268 0
M  V30 2983 O 267.385 2.04755 -1.74152 0
M  V30 2984 C 265.656 0.346102 -3.5572 0
M  V30 2985 S 267.215 0.876022 -4.29967 0
M  V30 2986 H 264.033 0.0326881 -0.710248 0
M  V30 2987 H 266.635 -0.594544 -1.8624 0
M  V30 2988 H 265.339 -0.584911 -4.0621 0
M  V30 2989 H 264.87 1.09849 -3.77752 0
M  V30 2990 H 266.885 2.15379 -4.47019 0
M  V30 2991 N 266.058 1.56714 -0.166846 0
M  V30 2992 C 267.304 1.97813 0.473473 0
M  V30 2993 C 267.659 1.05095 1.61161 0
M  V30 2994 O 266.952 0.0897541 1.9139 0
M  V30 2995 C 267.146 3.42889 1.00806 0
M  V30 2996 C 266.975 4.49635 -0.0767392 0
M  V30 2997 C 265.745 5.02566 -0.524894 0
M  V30 2998 C 267.943 5.06793 -0.875504 0
M  V30 2999 N 265.925 5.9294 -1.59047 0
M  V30 3000 C 267.296 5.93565 -1.79111 0
M  V30 3001 C 269.351 4.89306 -0.921083 0
M  V30 3002 C 268.054 6.64721 -2.74843 0
M  V30 3003 C 270.08 5.61179 -1.86633 0
M  V30 3004 C 269.442 6.47675 -2.76942 0
M  V30 3005 H 265.541 0.769093 0.141489 0
M  V30 3006 H 268.125 1.92874 -0.266031 0
M  V30 3007 H 266.296 3.48382 1.7171 0
M  V30 3008 H 268.028 3.71008 1.61664 0
M  V30 3009 H 264.783 4.73439 -0.123432 0
M  V30 3010 H 265.207 6.42831 -2.12361 0
M  V30 3011 H 269.849 4.22136 -0.23692 0
M  V30 3012 H 267.567 7.31107 -3.44249 0
M  V30 3013 H 271.153 5.49636 -1.90764 0
M  V30 3014 H 270.033 7.02313 -3.48893 0
M  V30 3015 N 267.536 -0.106894 1.57237 0
M  V30 3016 C 268.776 -0.818277 1.87306 0
M  V30 3017 C 269.14 -1.76474 0.756371 0
M  V30 3018 O 270.341 -2.5186 0.939155 0
M  V30 3019 C 268.612 -1.53806 3.22612 0
M  V30 3020 S 270.171 -2.28935 3.74345 0
M  V30 3021 H 266.989 -0.272862 0.656557 0
M  V30 3022 H 269.591 -0.075988 1.95352 0
M  V30 3023 H 268.295 -0.834951 4.01817 0
M  V30 3024 H 267.826 -2.32049 3.17674 0
M  V30 3025 H 269.841 -3.54871 3.46815 0
M  V30 3026 N 269.014 -1.53014 -0.377408 0
M  V30 3027 C 269.962 -1.7927 -1.48206 0
M  V30 3028 C 270.956 -0.661195 -1.55963 0
M  V30 3029 O 272.162 -0.843908 -1.58991 0
M  V30 3030 H 268.537 -0.567425 -0.493491 0
M  V30 3031 H 270.508 -2.71753 -1.2326 0
M  V30 3032 C 269.257 -1.98894 -2.85196 0
M  V30 3033 H 268.58 -2.85395 -2.79981 0
M  V30 3034 H 270.02 -2.21249 -3.61698 0
M  V30 3035 C 268.479 -0.764691 -3.28107 0
M  V30 3036 O 269.009 0.0523226 -4.01666 0
M  V30 3037 N 267.215 -0.591493 -2.84517 0
M  V30 3038 H 266.762 -1.25749 -2.24822 0
M  V30 3039 H 266.72 0.226253 -3.13585 0
M  V30 3040 N 270.492 0.636531 -1.44174 0
M  V30 3041 C 271.717 1.42847 -1.50364 0
M  V30 3042 C 272.142 1.87665 -0.127867 0
M  V30 3043 O 271.5 1.58408 0.88185 0
M  V30 3044 C 271.548 2.62854 -2.4686 0
M  V30 3045 O 270.652 3.62501 -1.9664 0
M  V30 3046 H 269.993 0.427642 -0.507955 0
M  V30 3047 H 272.523 0.777422 -1.89255 0
M  V30 3048 H 272.533 3.10465 -2.64718 0
M  V30 3049 H 271.208 2.29578 -3.46795 0
M  V30 3050 H 269.785 3.21735 -1.88523 0
M  V30 3051 N 271.97 1.30982 0.876444 0
M  V30 3052 C 273.198 1.23242 1.6619 0
M  V30 3053 C 273.613 -0.203345 1.87702 0
M  V30 3054 O 272.97 -1.13317 1.43057 0
M  V30 3055 C 273.021 1.96623 3.03351 0
M  V30 3056 O 272.742 3.34594 2.82804 0
M  V30 3057 C 274.243 1.95644 3.97792 0
M  V30 3058 H 271.463 0.426126 0.518322 0
M  V30 3059 H 274.007 1.7275 1.09442 0
M  V30 3060 H 272.162 1.50892 3.56806 0
M  V30 3061 H 272.576 3.71873 3.69879 0
M  V30 3062 H 274.05 2.51511 4.91372 0
M  V30 3063 H 274.527 0.937395 4.2908 0
M  V30 3064 H 275.133 2.41225 3.50272 0
M  V30 3065 N 273.449 -1.08991 1.13837 0
M  V30 3066 C 274.674 -1.85551 0.926585 0
M  V30 3067 C 275.099 -1.80782 -0.519566 0
M  V30 3068 O 274.457 -1.18855 -1.36906 0
M  V30 3069 C 274.505 -3.31266 1.42462 0
M  V30 3070 O 273.609 -4.07822 0.612789 0
M  V30 3071 H 272.95 -0.575192 0.331738 0
M  V30 3072 H 275.48 -1.37604 1.51414 0
M  V30 3073 H 275.49 -3.82112 1.43019 0
M  V30 3074 H 274.165 -3.34052 2.47754 0
M  V30 3075 H 272.742 -3.66731 0.675463 0
M  V30 3076 N 274.927 -0.932562 -1.27047 0
M  V30 3077 C 276.155 -0.592031 -1.98249 0
M  V30 3078 C 276.57 0.831062 -1.69525 0
M  V30 3079 O 275.927 1.55299 -0.958561 0
M  V30 3080 C 275.978 -0.814279 -3.5221 0
M  V30 3081 O 275.699 -2.18139 -3.7993 0
M  V30 3082 C 277.2 -0.483121 -4.4066 0
M  V30 3083 H 274.42 -0.223896 -0.632544 0
M  V30 3084 H 276.964 -1.25091 -1.61779 0
M  V30 3085 H 275.119 -0.20213 -3.86872 0
M  V30 3086 H 275.533 -2.235 -4.74498 0
M  V30 3087 H 277.007 -0.689298 -5.47679 0
M  V30 3088 H 277.484 0.581546 -4.35333 0
M  V30 3089 H 278.09 -1.07362 -4.11526 0
M  V30 3090 N 276.405 1.4127 -0.698611 0
M  V30 3091 C 277.651 2.01979 -0.239972 0
M  V30 3092 C 278.006 1.54353 1.14861 0
M  V30 3093 O 277.299 0.746218 1.76471 0
M  V30 3094 C 277.493 3.56592 -0.240192 0
M  V30 3095 C 277.322 4.19226 -1.62726 0
M  V30 3096 C 276.092 4.53389 -2.23084 0
M  V30 3097 C 278.29 4.45228 -2.57443 0
M  V30 3098 N 276.272 5.01327 -3.54323 0
M  V30 3099 C 277.643 4.94973 -3.73365 0
M  V30 3100 C 279.698 4.27243 -2.55671 0
M  V30 3101 C 278.401 5.28624 -4.878 0
M  V30 3102 C 280.427 4.61985 -3.69221 0
M  V30 3103 C 279.789 5.11904 -4.83873 0
M  V30 3104 H 275.888 0.770561 -0.133269 0
M  V30 3105 H 278.472 1.71767 -0.916748 0
M  V30 3106 H 276.643 3.86271 0.406082 0
M  V30 3107 H 278.375 4.04025 0.23356 0
M  V30 3108 H 275.13 4.39946 -1.75341 0
M  V30 3109 H 275.554 5.29697 -4.21604 0
M  V30 3110 H 280.196 3.87884 -1.68243 0
M  V30 3111 H 277.914 5.66905 -5.75885 0
M  V30 3112 H 281.5 4.49725 -3.69105 0
M  V30 3113 H 280.38 5.38282 -5.70282 0
M  V30 3114 N 277.883 0.443576 1.51229 0
M  V30 3115 C 279.129 -0.120975 2.02439 0
M  V30 3116 C 279.462 -1.41815 1.32674 0
M  V30 3117 O 278.737 -1.89373 0.443622 0
M  V30 3118 C 279.02 -0.333291 3.58554 0
M  V30 3119 C 278.873 0.982968 4.38928 0
M  V30 3120 C 280.192 -1.10028 4.26124 0
M  V30 3121 H 277.311 -0.0424923 0.735774 0
M  V30 3122 H 279.953 0.583794 1.80809 0
M  V30 3123 H 278.103 -0.933614 3.77115 0
M  V30 3124 H 279.775 1.61775 4.32003 0
M  V30 3125 H 278.018 1.58611 4.03763 0
M  V30 3126 H 278.689 0.788379 5.46341 0
M  V30 3127 H 281.165 -0.591711 4.11871 0
M  V30 3128 H 280.041 -1.21761 5.35225 0
M  V30 3129 H 280.302 -2.12996 3.87408 0
M  V30 3130 N 279.361 -1.56624 0.175154 0
M  V30 3131 C 280.589 -2.01374 -0.474971 0
M  V30 3132 C 281.004 -1.05537 -1.56548 0
M  V30 3133 O 280.361 -0.0568668 -1.82411 0
M  V30 3134 C 280.412 -3.45923 -1.04975 0
M  V30 3135 O 280.133 -4.381 -0.00276605 0
M  V30 3136 C 281.634 -4.06093 -1.77773 0
M  V30 3137 H 278.854 -0.659962 -0.121206 0
M  V30 3138 H 281.398 -2.02601 0.27801 0
M  V30 3139 H 279.553 -3.45458 -1.75321 0
M  V30 3140 H 279.967 -5.22753 -0.427681 0
M  V30 3141 H 281.441 -5.09147 -2.13245 0
M  V30 3142 H 281.918 -3.48405 -2.67414 0
M  V30 3143 H 282.524 -4.10272 -1.12059 0
M  V30 3144 N 280.839 0.0985539 -1.57292 0
M  V30 3145 C 282.069 0.815135 -1.8984 0
M  V30 3146 C 282.477 1.7297 -0.766679 0
M  V30 3147 O 281.82 1.81698 0.270483 0
M  V30 3148 C 281.882 1.6842 -3.17608 0
M  V30 3149 C 281.546 0.94182 -4.4719 0
M  V30 3150 C 282.543 0.273212 -5.19182 0
M  V30 3151 C 280.228 0.916927 -4.9386 0
M  V30 3152 C 282.222 -0.410361 -6.36078 0
M  V30 3153 C 279.909 0.229567 -6.10669 0
M  V30 3154 C 280.907 -0.432902 -6.81627 0
M  V30 3155 O 280.595 -1.10925 -7.9621 0
M  V30 3156 H 280.327 0.238501 -0.632529 0
M  V30 3157 H 282.881 0.0812659 -2.05239 0
M  V30 3158 H 281.111 2.46022 -2.98345 0
M  V30 3159 H 282.8 2.27704 -3.36015 0
M  V30 3160 H 283.566 0.283927 -4.84168 0
M  V30 3161 H 279.445 1.42201 -4.3852 0
M  V30 3162 H 282.989 -0.928013 -6.914 0
M  V30 3163 H 278.886 0.216686 -6.45136 0
M  V30 3164 H 279.654 -1.01579 -8.12172 0
M  V30 3165 N 282.317 1.53212 0.369288 0
M  V30 3166 C 283.565 1.68881 1.11012 0
M  V30 3167 C 283.886 0.441285 1.89941 0
M  V30 3168 O 283.156 -0.544623 1.88177 0
M  V30 3169 H 281.736 0.622569 0.412816 0
M  V30 3170 H 284.398 1.90391 0.416802 0
M  V30 3171 H 283.494 2.54822 1.80201 0
M  V30 3172 N 283.795 -0.628877 1.44509 0
M  V30 3173 C 285.023 -1.41554 1.50897 0
M  V30 3174 C 285.438 -1.8832 0.134564 0
M  V30 3175 O 284.795 -1.60969 -0.859965 0
M  V30 3176 C 284.846 -2.63435 2.47556 0
M  V30 3177 O 284.567 -2.18619 3.79654 0
M  V30 3178 C 286.068 -3.56537 2.63431 0
M  V30 3179 H 283.288 -0.434044 0.511709 0
M  V30 3180 H 285.832 -0.768895 1.89495 0
M  V30 3181 H 283.987 -3.24187 2.12089 0
M  V30 3182 H 284.401 -2.97652 4.31861 0
M  V30 3183 H 285.875 -4.38657 3.35088 0
M  V30 3184 H 286.352 -4.05493 1.68738 0
M  V30 3185 H 286.958 -3.01653 2.9981 0
M  V30 3186 N 285.273 -1.31445 -0.869486 0
M  V30 3187 C 286.513 -1.22458 -1.63656 0
M  V30 3188 C 286.877 0.213846 -1.90805 0
M  V30 3189 O 288.078 0.427212 -2.65383 0
M  V30 3190 C 286.349 -2.04564 -2.93067 0
M  V30 3191 S 287.908 -2.12445 -3.83944 0
M  V30 3192 H 284.726 -0.436145 -0.561514 0
M  V30 3193 H 287.328 -1.66114 -1.03085 0
M  V30 3194 H 286.032 -3.0816 -2.71045 0
M  V30 3195 H 285.563 -1.6163 -3.58663 0
M  V30 3196 H 287.578 -1.26312 -4.79854 0
M  V30 3197 N 286.751 1.08385 -1.14413 0
M  V30 3198 C 287.979 1.84517 -0.936001 0
M  V30 3199 C 288.394 1.81626 0.515503 0
M  V30 3200 O 287.751 1.22008 1.35721 0
M  V30 3201 C 287.802 3.32049 -1.42918 0
M  V30 3202 O 287.523 3.34951 -2.82381 0
M  V30 3203 C 289.024 4.24986 -1.26103 0
M  V30 3204 H 286.244 0.582491 -0.333084 0
M  V30 3205 H 288.788 1.36885 -1.5193 0
M  V30 3206 H 286.943 3.7707 -0.888641 0
M  V30 3207 H 287.357 4.27048 -3.04517 0
M  V30 3208 H 288.831 5.26615 -1.6547 0
M  V30 3209 H 289.308 4.38726 -0.20392 0
M  V30 3210 H 289.914 3.85791 -1.79012 0
M  V30 3211 N 288.23 0.939286 1.26551 0
M  V30 3212 C 289.458 0.602536 1.97932 0
M  V30 3213 C 289.873 -0.82206 1.69964 0
M  V30 3214 O 289.23 -1.54789 0.966784 0
M  V30 3215 C 289.281 0.832946 3.51773 0
M  V30 3216 O 289.002 2.20151 3.78768 0
M  V30 3217 C 290.503 0.506483 4.40397 0
M  V30 3218 H 287.723 0.227248 0.631347 0
M  V30 3219 H 290.267 1.25948 1.61113 0
M  V30 3220 H 288.422 0.222644 3.8676 0
M  V30 3221 H 288.836 2.26013 4.73306 0
M  V30 3222 H 290.31 0.718333 5.47306 0
M  V30 3223 H 290.787 -0.558451 4.35635 0
M  V30 3224 H 291.393 1.09543 4.10951 0
M  V30 3225 N 289.708 -1.40897 0.706093 0
M  V30 3226 C 290.936 -2.05373 0.250887 0
M  V30 3227 C 291.351 -1.53172 -1.10381 0
M  V30 3228 O 290.708 -0.684305 -1.69185 0
M  V30 3229 C 290.759 -3.6088 0.211571 0
M  V30 3230 O 290.48 -4.11153 1.51276 0
M  V30 3231 C 291.981 -4.42517 -0.263346 0
M  V30 3232 H 289.201 -0.66115 0.114552 0
M  V30 3233 H 291.745 -1.80479 0.961635 0
M  V30 3234 H 289.9 -3.84777 -0.450073 0
M  V30 3235 H 290.314 -5.05279 1.40689 0
M  V30 3236 H 291.788 -5.51479 -0.239718 0
M  V30 3237 H 292.265 -4.19396 -1.30397 0
M  V30 3238 H 292.871 -4.23708 0.367677 0
M  V30 3239 N 291.186 -0.45159 -1.50991 0
M  V30 3240 C 292.434 0.109857 -2.01801 0
M  V30 3241 C 292.755 1.41958 -1.3369 0
M  V30 3242 O 292.025 1.9003 -0.475951 0
M  V30 3243 H 290.605 0.0435884 -0.745727 0
M  V30 3244 H 293.267 -0.597557 -1.85514 0
M  V30 3245 H 292.363 0.275489 -3.10882 0
M  V30 3246 N 292.664 1.56529 -0.183458 0
M  V30 3247 C 293.574 2.22144 0.754272 0
M  V30 3248 C 294.59 1.21684 1.24374 0
M  V30 3249 O 295.766 1.54385 1.29333 0
M  V30 3250 C 292.831 2.85884 1.96141 0
M  V30 3251 C 291.892 4.01579 1.51765 0
M  V30 3252 C 291.125 4.6227 2.66725 0
M  V30 3253 O 291.348 4.21865 3.83909 0
M  V30 3254 O 290.282 5.51936 2.40104 0
M  V30 3255 H 294.108 3.02861 0.225527 0
M  V30 3256 H 291.693 1.49331 0.0453032 0
M  V30 3257 H 293.575 3.26253 2.66715 0
M  V30 3258 H 292.25 2.08154 2.47899 0
M  V30 3259 H 291.157 3.65856 0.781049 0
M  V30 3260 H 292.49 4.80938 1.04686 0
M  V30 3261 N 294.142 -0.090211 1.57342 0
M  V30 3262 C 295.092 -1.11557 1.98844 0
M  V30 3263 C 296.076 -1.35503 0.867624 0
M  V30 3264 O 297.268 -1.36113 1.13148 0
M  V30 3265 C 294.397 -2.43446 2.42051 0
M  V30 3266 C 293.483 -2.22853 3.60828 0
M  V30 3267 N 293.874 -1.72141 4.75606 0
M  V30 3268 C 292.172 -2.53401 3.67021 0
M  V30 3269 C 292.873 -1.65932 5.57531 0
M  V30 3270 N 291.849 -2.11323 5.00843 0
M  V30 3271 H 295.651 -0.716499 2.85032 0
M  V30 3272 H 293.165 -0.297567 1.59651 0
M  V30 3273 H 295.162 -3.17644 2.70014 0
M  V30 3274 H 293.822 -2.84087 1.57241 0
M  V30 3275 H 294.833 -1.41268 4.98261 0
M  V30 3276 H 291.51 -2.97532 2.92884 0
M  V30 3277 H 292.9 -1.27733 6.59647 0
M  V30 3278 N 295.62 -1.53406 -0.361157 0
M  V30 3279 C 297.036 -1.43277 -0.703124 0
M  V30 3280 C 297.236 -0.575384 -1.9311 0
M  V30 3281 O 296.292 -0.0595362 -2.5243 0
M  V30 3282 C 297.605 -2.8653 -0.9122 0
M  V30 3283 C 299.153 -2.96191 -1.01193 0
M  V30 3284 C 299.628 -4.40514 -1.25345 0
M  V30 3285 N 301.119 -4.43962 -1.32105 0
M  V30 3286 C 301.854 -5.52746 -1.5251 0
M  V30 3287 N 301.35 -6.71567 -1.70203 0
M  V30 3288 N 303.143 -5.40331 -1.54916 0
M  V30 3289 H 295.294 -2.07654 0.446475 0
M  V30 3290 H 297.557 -0.937944 0.137715 0
M  V30 3291 H 297.263 -3.51605 -0.0816414 0
M  V30 3292 H 297.137 -3.30441 -1.81903 0
M  V30 3293 H 299.524 -2.31266 -1.83303 0
M  V30 3294 H 299.605 -2.55667 -0.0823929 0
M  V30 3295 H 299.249 -5.06014 -0.437346 0
M  V30 3296 H 299.179 -4.78614 -2.19627 0
M  V30 3297 H 301.67 -3.58332 -1.20028 0
M  V30 3298 H 301.983 -7.50241 -1.85359 0
M  V30 3299 H 300.328 -6.74545 -1.67373 0
M  V30 3300 H 303.519 -4.46465 -1.40663 0
M  V30 3301 H 303.692 -6.25173 -1.70477 0
M  V30 3302 N 297.098 0.621204 -1.44841 0
M  V30 3303 C 298.514 0.94048 -1.28946 0
M  V30 3304 C 298.714 2.00154 -0.23249 0
M  V30 3305 O 297.77 2.49651 0.378237 0
M  V30 3306 C 299.083 1.39433 -2.66419 0
M  V30 3307 C 300.631 1.50927 -2.74208 0
M  V30 3308 C 301.106 1.99692 -4.12174 0
M  V30 3309 N 302.597 2.06947 -4.144 0
M  V30 3310 C 303.332 2.45871 -5.1801 0
M  V30 3311 N 302.828 2.83862 -6.31977 0
M  V30 3312 N 304.621 2.46092 -5.05366 0
M  V30 3313 H 296.772 -0.0803548 -2.12248 0
M  V30 3314 H 299.035 0.0266913 -0.947624 0
M  V30 3315 H 298.741 0.688925 -3.44887 0
M  V30 3316 H 298.615 2.36347 -2.93973 0
M  V30 3317 H 301.002 2.20561 -1.96053 0
M  V30 3318 H 301.083 0.523627 -2.50383 0
M  V30 3319 H 300.727 1.30649 -4.90809 0
M  V30 3320 H 300.657 2.99146 -4.33381 0
M  V30 3321 H 303.148 1.80232 -3.32152 0
M  V30 3322 H 303.461 3.12405 -7.0684 0
M  V30 3323 H 301.806 2.8159 -6.35399 0
M  V30 3324 H 304.997 2.1581 -4.15384 0
M  V30 3325 H 305.17 2.76102 -5.86235 0
M  V30 3326 N 298.576 1.31904 0.862503 0
M  V30 3327 C 299.486 1.22161 2.00285 0
M  V30 3328 C 300.502 0.136785 1.73462 0
M  V30 3329 O 301.678 0.355994 1.98229 0
M  V30 3330 C 298.743 0.937093 3.33796 0
M  V30 3331 C 297.804 2.10957 3.73893 0
M  V30 3332 C 297.037 1.83853 5.01033 0
M  V30 3333 O 297.26 0.777274 5.65079 0
M  V30 3334 O 296.194 2.69741 5.38074 0
M  V30 3335 H 300.02 2.18008 2.11439 0
M  V30 3336 H 297.605 1.11716 0.991957 0
M  V30 3337 H 299.487 0.794583 4.13841 0
M  V30 3338 H 298.162 0.00871894 3.23699 0
M  V30 3339 H 297.069 2.30752 2.94456 0
M  V30 3340 H 298.402 3.02046 3.88625 0
M  V30 3341 N 300.054 -1.07777 1.14986 0
M  V30 3342 C 301.001 -2.14867 0.842672 0
M  V30 3343 C 301.971 -1.6486 -0.202552 0
M  V30 3344 O 303.156 -1.90668 -0.0710568 0
M  V30 3345 C 300.296 -3.43486 0.333363 0
M  V30 3346 C 299.409 -4.07306 1.43965 0
M  V30 3347 C 298.544 -5.23744 0.886914 0
M  V30 3348 C 297.583 -5.79517 1.97043 0
M  V30 3349 N 296.72 -6.87291 1.4344 0
M  V30 3350 H 301.56 -2.40485 1.75986 0
M  V30 3351 H 299.097 -1.1801 0.878179 0
M  V30 3352 H 301.055 -4.17195 0.0198163 0
M  V30 3353 H 299.685 -3.18133 -0.546916 0
M  V30 3354 H 298.737 -3.31293 1.86946 0
M  V30 3355 H 300.049 -4.44771 2.25788 0
M  V30 3356 H 299.203 -6.04419 0.525651 0
M  V30 3357 H 297.942 -4.87685 0.0377957 0
M  V30 3358 H 296.947 -4.97491 2.34057 0
M  V30 3359 H 298.172 -6.17632 2.82325 0
M  V30 3360 H 296.118 -6.5318 0.607567 0
M  V30 3361 H 296.035 -7.23617 2.18895 0
M  V30 3362 H 297.303 -7.71682 1.10124 0
M  V30 3363 N 301.532 -0.945985 -1.26051 0
M  V30 3364 C 302.948 -0.649045 -1.45807 0
M  V30 3365 C 303.148 0.796158 -1.85104 0
M  V30 3366 O 302.204 1.57233 -1.97571 0
M  V30 3367 C 303.517 -1.61458 -2.53677 0
M  V30 3368 C 305.065 -1.62481 -2.67524 0
M  V30 3369 C 305.54 -2.57776 -3.7857 0
M  V30 3370 N 307.031 -2.5609 -3.85969 0
M  V30 3371 C 307.766 -3.26508 -4.7136 0
M  V30 3372 N 307.262 -4.0637 -5.61102 0
M  V30 3373 N 309.055 -3.15437 -4.65248 0
M  V30 3374 H 301.206 -1.88005 -0.988328 0
M  V30 3375 H 303.469 -0.808198 -0.4955 0
M  V30 3376 H 303.175 -2.64644 -2.31638 0
M  V30 3377 H 303.049 -1.37036 -3.51427 0
M  V30 3378 H 305.436 -0.600167 -2.88933 0
M  V30 3379 H 305.517 -1.90958 -1.70202 0
M  V30 3380 H 305.161 -3.60361 -3.57913 0
M  V30 3381 H 305.091 -2.26587 -4.75359 0
M  V30 3382 H 307.582 -1.98105 -3.21812 0
M  V30 3383 H 307.895 -4.57042 -6.23164 0
M  V30 3384 H 306.24 -4.10469 -5.60839 0
M  V30 3385 H 309.431 -2.52525 -3.94143 0
M  V30 3386 H 309.604 -3.70584 -5.31575 0
M  V30 3387 N 303.011 1.40521 -0.713556 0
M  V30 3388 C 304.236 2.05759 -0.26035 0
M  V30 3389 C 304.661 1.53403 1.08854 0
M  V30 3390 O 304.019 0.668535 1.68524 0
M  V30 3391 C 304.067 3.59745 -0.248122 0
M  V30 3392 O 303.171 4.05123 0.77131 0
M  V30 3393 H 302.512 0.652564 -0.122703 0
M  V30 3394 H 305.042 1.79958 -0.973467 0
M  V30 3395 H 305.052 4.07911 -0.0851129 0
M  V30 3396 H 303.727 3.97218 -1.2325 0
M  V30 3397 H 302.304 3.68422 0.57619 0
M  V30 3398 N 304.489 0.459591 1.5075 0
M  V30 3399 C 305.735 -0.0994966 2.02556 0
M  V30 3400 C 306.068 -1.40399 1.3417 0
M  V30 3401 O 305.343 -1.88892 0.463683 0
M  V30 3402 C 305.626 -0.295242 3.58888 0
M  V30 3403 C 305.479 1.02947 4.37861 0
M  V30 3404 C 306.798 -1.05502 4.27267 0
M  V30 3405 H 303.917 -0.034686 0.736183 0
M  V30 3406 H 306.559 0.602938 1.8018 0
M  V30 3407 H 304.709 -0.893563 3.78084 0
M  V30 3408 H 306.381 1.66348 4.30263 0
M  V30 3409 H 304.624 1.62885 4.02058 0
M  V30 3410 H 305.295 0.846281 5.45474 0
M  V30 3411 H 307.771 -0.547993 4.12476 0
M  V30 3412 H 306.647 -1.16077 5.36486 0
M  V30 3413 H 306.908 -2.08875 3.89645 0
M  V30 3414 N 305.967 -1.56429 0.191757 0
M  V30 3415 C 306.93 -2.17707 -0.716688 0
M  V30 3416 C 307.93 -1.13061 -1.14341 0
M  V30 3417 O 309.12 -1.38464 -1.05704 0
M  V30 3418 C 306.252 -2.77644 -1.97804 0
M  V30 3419 H 307.445 -2.99342 -0.1829 0
M  V30 3420 H 304.998 -1.56193 -0.0578566 0
M  V30 3421 H 305.733 -1.99799 -2.55443 0
M  V30 3422 H 305.518 -3.54246 -1.68083 0
M  V30 3423 H 307.008 -3.24708 -2.62592 0
M  V30 3424 N 307.445 0.0818655 -1.57387 0
M  V30 3425 C 308.375 1.09885 -2.06028 0
M  V30 3426 C 309.356 1.4098 -0.951774 0
M  V30 3427 O 310.541 1.50781 -1.22387 0
M  V30 3428 C 307.671 2.4151 -2.4958 0
M  V30 3429 C 306.625 2.24792 -3.64215 0
M  V30 3430 C 305.951 3.61712 -3.93787 0
M  V30 3431 C 307.251 1.67749 -4.94629 0
M  V30 3432 H 308.945 0.694128 -2.91243 0
M  V30 3433 H 306.491 0.332448 -1.4011 0
M  V30 3434 H 308.444 3.12939 -2.82219 0
M  V30 3435 H 307.168 2.83943 -1.61381 0
M  V30 3436 H 305.827 1.55807 -3.31843 0
M  V30 3437 H 305.475 4.01697 -3.02735 0
M  V30 3438 H 305.175 3.51368 -4.70971 0
M  V30 3439 H 306.699 4.34587 -4.28913 0
M  V30 3440 H 308.113 2.29032 -5.25564 0
M  V30 3441 H 306.51 1.68128 -5.76067 0
M  V30 3442 H 307.58 0.638059 -4.80684 0
M  V30 3443 N 308.923 1.53595 0.353017 0
M  V30 3444 C 310.169 1.70638 1.09593 0
M  V30 3445 C 310.502 0.463286 1.88593 0
M  V30 3446 O 309.777 -0.539597 1.86865 0
M  V30 3447 C 310.06 2.96406 2.04489 0
M  V30 3448 C 309.913 4.30901 1.29014 0
M  V30 3449 C 311.232 3.17812 3.0444 0
M  V30 3450 H 308.351 0.620913 0.397034 0
M  V30 3451 H 310.993 1.86254 0.375446 0
M  V30 3452 H 309.143 2.83223 2.65927 0
M  V30 3453 H 310.815 4.55917 0.702638 0
M  V30 3454 H 309.058 4.29741 0.592071 0
M  V30 3455 H 309.729 5.1506 1.98537 0
M  V30 3456 H 312.205 3.30263 2.53112 0
M  V30 3457 H 311.081 4.07223 3.6805 0
M  V30 3458 H 311.342 2.33669 3.75301 0
M  V30 3459 N 310.401 -0.613514 1.45168 0
M  V30 3460 C 311.812 -1.19539 1.43413 0
M  V30 3461 C 312.163 -1.95558 0.158632 0
M  V30 3462 O 311.288 -2.0335 -0.740119 0
M  V30 3463 C 311.883 -2.17445 2.59813 0
M  V30 3464 C 310.442 -2.71022 2.61197 0
M  V30 3465 C 309.589 -1.46323 2.35552 0
M  V30 3466 H 312.54 -0.403163 1.53494 0
M  V30 3467 H 312.561 -3.00373 2.33574 0
M  V30 3468 H 312.073 -1.62089 3.52631 0
M  V30 3469 H 310.174 -3.30332 1.7237 0
M  V30 3470 H 310.287 -3.15859 3.60236 0
M  V30 3471 H 308.651 -1.75072 1.84992 0
M  V30 3472 H 309.434 -0.92844 3.30507 0
M  V30 3473 N 311.879 -1.3236 -0.855495 0
M  V30 3474 C 312.829 -1.17809 -1.95205 0
M  V30 3475 C 313.813 -0.0852319 -1.60674 0
M  V30 3476 O 315.005 -0.311651 -1.74235 0
M  V30 3477 C 312.134 -0.902437 -3.31226 0
M  V30 3478 C 311.22 -2.03695 -3.7198 0
M  V30 3479 N 311.611 -3.28544 -3.84568 0
M  V30 3480 C 309.909 -1.93993 -4.016 0
M  V30 3481 C 310.61 -4.02847 -4.19629 0
M  V30 3482 N 309.586 -3.31138 -4.31102 0
M  V30 3483 H 313.388 -2.12462 -2.0307 0
M  V30 3484 H 310.902 -1.24127 -1.0472 0
M  V30 3485 H 312.899 -0.77915 -4.09554 0
M  V30 3486 H 311.559 0.0357267 -3.2468 0
M  V30 3487 H 312.57 -3.6349 -3.68911 0
M  V30 3488 H 309.247 -1.07733 -4.03361 0
M  V30 3489 H 310.637 -5.10506 -4.36845 0
M  V30 3490 N 313.357 1.07166 -1.15556 0
M  V30 3491 C 314.603 1.80065 -0.932984 0
M  V30 3492 C 314.936 1.86586 0.53845 0
M  V30 3493 O 314.211 1.35098 1.39924 0
M  V30 3494 C 314.494 3.25022 -1.55025 0
M  V30 3495 C 314.347 3.26634 -3.09242 0
M  V30 3496 C 315.666 4.22341 -1.2376 0
M  V30 3497 H 312.785 0.653697 -0.340366 0
M  V30 3498 H 315.427 1.25389 -1.4275 0
M  V30 3499 H 313.577 3.71712 -1.12972 0
M  V30 3500 H 315.249 2.88173 -3.60214 0
M  V30 3501 H 313.492 2.65539 -3.43033 0
M  V30 3502 H 314.163 4.28854 -3.47546 0
M  V30 3503 H 316.639 3.8405 -1.60139 0
M  V30 3504 H 315.515 5.22053 -1.69564 0
M  V30 3505 H 315.776 4.41828 -0.154938 0
M  V30 3506 N 314.835 0.952656 1.25548 0
M  V30 3507 C 316.083 0.605176 1.92826 0
M  V30 3508 C 316.404 -0.860261 1.74999 0
M  V30 3509 O 315.674 -1.6125 1.11244 0
M  V30 3510 H 314.254 0.220832 0.713612 0
M  V30 3511 H 316.916 1.21047 1.52754 0
M  V30 3512 H 316.012 0.832798 3.00784 0
M  V30 3513 N 316.313 -1.40141 0.720998 0
M  V30 3514 C 317.246 -2.2819 0.020916 0
M  V30 3515 C 318.224 -1.43633 -0.762129 0
M  V30 3516 O 319.408 -1.7304 -0.747633 0
M  V30 3517 C 316.535 -3.24281 -0.977715 0
M  V30 3518 C 315.581 -4.25548 -0.284836 0
M  V30 3519 S 316.414 -5.26247 0.991169 0
M  V30 3520 C 317.57 -6.259 -0.0052214 0
M  V30 3521 H 317.803 -2.87218 0.767649 0
M  V30 3522 H 315.336 -1.45656 0.512233 0
M  V30 3523 H 317.294 -3.80167 -1.54865 0
M  V30 3524 H 315.955 -2.643 -1.69719 0
M  V30 3525 H 315.148 -4.93154 -1.03996 0
M  V30 3526 H 314.75 -3.73389 0.213684 0
M  V30 3527 H 317.042 -6.72143 -0.850279 0
M  V30 3528 H 317.985 -7.05224 0.637599 0
M  V30 3529 H 318.393 -5.63277 -0.371366 0
M  V30 3530 N 317.792 -0.46758 -1.50504 0
M  V30 3531 C 319.04 0.0884469 -2.01906 0
M  V30 3532 C 319.361 1.40532 -1.35188 0
M  V30 3533 O 318.631 1.89515 -0.496079 0
M  V30 3534 H 317.211 0.0356765 -0.746148 0
M  V30 3535 H 319.873 -0.6172 -1.84869 0
M  V30 3536 H 318.969 0.2425 -3.11156 0
M  V30 3537 N 319.27 1.56325 -0.20005 0
M  V30 3538 C 320.2 2.22318 0.713916 0
M  V30 3539 C 321.181 1.18788 1.21752 0
M  V30 3540 O 322.366 1.47309 1.26545 0
M  V30 3541 C 319.496 2.88639 1.93144 0
M  V30 3542 C 318.45 3.98457 1.56255 0
M  V30 3543 C 317.776 4.51967 2.85709 0
M  V30 3544 C 319.076 5.16612 0.768747 0
M  V30 3545 H 320.77 2.98952 0.163755 0
M  V30 3546 H 318.316 1.43792 0.0773219 0
M  V30 3547 H 320.269 3.33491 2.57608 0
M  V30 3548 H 318.993 2.09419 2.50621 0
M  V30 3549 H 317.652 3.54305 0.941471 0
M  V30 3550 H 317.3 3.69503 3.41287 0
M  V30 3551 H 317 5.26071 2.6177 0
M  V30 3552 H 318.524 4.99523 3.51154 0
M  V30 3553 H 319.938 5.57977 1.3166 0
M  V30 3554 H 318.335 5.96812 0.627286 0
M  V30 3555 H 319.405 4.84358 -0.229168 0
M  V30 3556 N 320.748 -0.0735177 1.57428 0
M  V30 3557 C 321.658 -1.10547 2.06922 0
M  V30 3558 C 322.674 -1.42506 0.998402 0
M  V30 3559 O 323.85 -1.52717 1.31299 0
M  V30 3560 C 320.915 -2.40019 2.50184 0
M  V30 3561 C 319.976 -2.15046 3.71556 0
M  V30 3562 C 319.209 -3.38345 4.12745 0
M  V30 3563 O 319.432 -4.47399 3.53822 0
M  V30 3564 O 318.366 -3.2666 5.05546 0
M  V30 3565 H 322.192 -0.715013 2.95163 0
M  V30 3566 H 319.777 -0.287531 1.46607 0
M  V30 3567 H 321.659 -3.16218 2.78539 0
M  V30 3568 H 320.334 -2.78447 1.65072 0
M  V30 3569 H 319.241 -1.36558 3.48285 0
M  V30 3570 H 320.574 -1.81499 4.57514 0
M  V30 3571 N 322.226 -1.5378 -0.344866 0
M  V30 3572 C 323.454 -1.74899 -1.10534 0
M  V30 3573 C 323.869 -0.487534 -1.82397 0
M  V30 3574 O 323.226 0.540741 -1.74305 0
M  V30 3575 C 323.277 -2.92822 -2.11984 0
M  V30 3576 O 322.998 -4.14089 -1.43044 0
M  V30 3577 C 324.499 -3.25982 -3.00417 0
M  V30 3578 H 321.719 -0.584426 -0.329678 0
M  V30 3579 H 324.263 -2.006 -0.397474 0
M  V30 3580 H 322.418 -2.69457 -2.78338 0
M  V30 3581 H 322.832 -4.80272 -2.10805 0
M  V30 3582 H 324.306 -4.11848 -3.67539 0
M  V30 3583 H 324.783 -2.42228 -3.66363 0
M  V30 3584 H 325.389 -3.51349 -2.39654 0
M  V30 3585 N 323.704 0.605807 -1.45491 0
M  V30 3586 C 325.12 0.926751 -1.29936 0
M  V30 3587 C 325.32 1.99896 -0.253706 0
M  V30 3588 O 324.376 2.50038 0.351737 0
M  V30 3589 C 325.689 1.36599 -2.67883 0
M  V30 3590 C 327.237 1.4801 -2.75793 0
M  V30 3591 C 327.712 1.95309 -4.14268 0
M  V30 3592 N 329.203 2.0254 -4.16571 0
M  V30 3593 C 329.938 2.40363 -5.20589 0
M  V30 3594 N 329.434 2.77143 -6.34952 0
M  V30 3595 N 331.227 2.40718 -5.07948 0
M  V30 3596 H 323.378 -0.102862 -2.12151 0
M  V30 3597 H 325.641 0.016639 -0.947854 0
M  V30 3598 H 325.347 0.652306 -3.45598 0
M  V30 3599 H 325.221 2.33215 -2.96463 0
M  V30 3600 H 327.608 2.1847 -1.98381 0
M  V30 3601 H 327.689 0.497041 -2.50925 0
M  V30 3602 H 327.333 1.25436 -4.92167 0
M  V30 3603 H 327.263 2.94532 -4.3653 0
M  V30 3604 H 329.754 1.76699 -3.34045 0
M  V30 3605 H 330.067 3.0489 -7.10114 0
M  V30 3606 H 328.412 2.74834 -6.3835 0
M  V30 3607 H 331.603 2.11392 -4.1765 0
M  V30 3608 H 331.776 2.69869 -5.89131 0
M  V30 3609 N 325.182 1.32811 0.848464 0
M  V30 3610 C 326.41 1.26739 1.63538 0
M  V30 3611 C 326.825 -0.163484 1.88091 0
M  V30 3612 O 326.182 -1.10258 1.45429 0
M  V30 3613 C 326.233 2.03013 2.99112 0
M  V30 3614 O 325.954 3.40518 2.75643 0
M  V30 3615 C 327.455 2.04038 3.93552 0
M  V30 3616 H 324.675 0.437024 0.509167 0
M  V30 3617 H 327.219 1.75033 1.05753 0
M  V30 3618 H 325.374 1.58426 3.53525 0
M  V30 3619 H 325.788 3.79635 3.61908 0
M  V30 3620 H 327.262 2.61877 4.85926 0
M  V30 3621 H 327.739 1.0282 4.26995 0
M  V30 3622 H 328.345 2.486 3.45077 0
M  V30 3623 N 326.66 -1.06551 1.16123 0
M  V30 3624 C 327.57 -2.17484 0.879662 0
M  V30 3625 C 328.586 -1.73377 -0.147104 0
M  V30 3626 O 329.762 -2.01379 0.0289128 0
M  V30 3627 C 326.827 -3.44591 0.381829 0
M  V30 3628 C 325.888 -4.0322 1.4735 0
M  V30 3629 C 325.121 -5.24261 0.999324 0
M  V30 3630 O 325.344 -5.70198 -0.151957 0
M  V30 3631 O 324.278 -5.74775 1.78653 0
M  V30 3632 H 328.104 -2.44075 1.80724 0
M  V30 3633 H 325.689 -1.16042 0.940992 0
M  V30 3634 H 327.571 -4.21254 0.111053 0
M  V30 3635 H 326.246 -3.19532 -0.51777 0
M  V30 3636 H 325.153 -3.2806 1.79798 0
M  V30 3637 H 326.486 -4.32568 2.34831 0
M  V30 3638 N 328.138 -0.959301 -1.25041 0
M  V30 3639 C 329.366 -0.633949 -1.96948 0
M  V30 3640 C 329.781 0.794916 -1.7125 0
M  V30 3641 O 329.138 1.53231 -0.991287 0
M  V30 3642 C 329.189 -0.888805 -3.50403 0
M  V30 3643 O 328.91 -2.26149 -3.75218 0
M  V30 3644 C 330.411 -0.576482 -4.39536 0
M  V30 3645 H 327.631 -0.237263 -0.627652 0
M  V30 3646 H 330.175 -1.28495 -1.59089 0
M  V30 3647 H 328.33 -0.284145 -3.86357 0
M  V30 3648 H 328.744 -2.33514 -4.6965 0
M  V30 3649 H 330.218 -0.805314 -5.46094 0
M  V30 3650 H 330.695 0.489075 -4.36468 0
M  V30 3651 H 331.301 -1.16067 -4.09156 0
M  V30 3652 N 329.616 1.39756 -0.72842 0
M  V30 3653 C 330.862 2.01425 -0.282761 0
M  V30 3654 C 331.217 1.56754 1.11561 0
M  V30 3655 O 330.51 0.783482 1.74849 0
M  V30 3656 C 330.704 3.56002 -0.315776 0
M  V30 3657 C 330.533 4.1568 -1.71582 0
M  V30 3658 C 329.303 4.48555 -2.32651 0
M  V30 3659 C 331.501 4.39667 -2.66829 0
M  V30 3660 N 329.483 4.93698 -3.64877 0
M  V30 3661 C 330.854 4.86942 -3.8378 0
M  V30 3662 C 332.909 4.21724 -2.64675 0
M  V30 3663 C 331.612 5.18158 -4.98904 0
M  V30 3664 C 333.638 4.54049 -3.78937 0
M  V30 3665 C 333 5.01525 -4.94623 0
M  V30 3666 H 329.099 0.76756 -0.149583 0
M  V30 3667 H 331.683 1.69784 -0.952976 0
M  V30 3668 H 329.854 3.87046 0.324057 0
M  V30 3669 H 331.586 4.0443 0.147808 0
M  V30 3670 H 328.341 4.36128 -1.84633 0
M  V30 3671 H 328.765 5.20635 -4.32744 0
M  V30 3672 H 333.407 3.84228 -1.76433 0
M  V30 3673 H 331.125 5.54562 -5.87781 0
M  V30 3674 H 334.711 4.41795 -3.78561 0
M  V30 3675 H 333.591 5.26065 -5.81572 0
M  V30 3676 N 331.094 0.475555 1.50254 0
M  V30 3677 C 332.027 -0.362381 2.25304 0
M  V30 3678 C 333.005 -0.992393 1.28803 0
M  V30 3679 O 334.189 -1.02746 1.58036 0
M  V30 3680 C 331.316 -1.50813 3.03271 0
M  V30 3681 C 330.362 -0.995044 4.1473 0
M  V30 3682 S 331.195 0.0938436 5.35418 0
M  V30 3683 C 332.351 -1.05567 6.16933 0
M  V30 3684 H 332.584 0.274686 2.96028 0
M  V30 3685 H 330.117 0.260495 1.52187 0
M  V30 3686 H 332.075 -2.16476 3.48781 0
M  V30 3687 H 330.736 -2.11672 2.32064 0
M  V30 3688 H 329.929 -1.85293 4.68703 0
M  V30 3689 H 329.531 -0.416052 3.71679 0
M  V30 3690 H 331.823 -1.96636 6.48337 0
M  V30 3691 H 332.766 -0.555109 7.05921 0
M  V30 3692 H 333.174 -1.31151 5.49053 0
M  V30 3693 N 332.573 -1.56217 0.208337 0
M  V30 3694 C 333.798 -2.02782 -0.435222 0
M  V30 3695 C 334.223 -1.08738 -1.53485 0
M  V30 3696 O 333.581 -0.0731855 -1.81152 0
M  V30 3697 C 333.629 -3.47687 -0.956335 0
M  V30 3698 O 332.733 -3.56773 -2.06849 0
M  V30 3699 H 332.074 -0.656403 -0.100158 0
M  V30 3700 H 334.604 -2.02033 0.3231 0
M  V30 3701 H 334.614 -3.87745 -1.26955 0
M  V30 3702 H 333.289 -4.15624 -0.15143 0
M  V30 3703 H 331.866 -3.28597 -1.76292 0
M  V30 3704 N 334.051 0.0651679 -1.57465 0
M  V30 3705 C 335.276 0.779605 -1.9219 0
M  V30 3706 C 335.701 1.69988 -0.805333 0
M  V30 3707 O 335.059 1.79685 0.241435 0
M  V30 3708 C 335.107 1.54364 -3.2589 0
M  V30 3709 O 334.211 2.65474 -3.1559 0
M  V30 3710 H 333.552 0.212249 -0.629163 0
M  V30 3711 H 336.082 0.0314294 -2.04576 0
M  V30 3712 H 336.092 1.92146 -3.59922 0
M  V30 3713 H 334.767 0.868457 -4.06732 0
M  V30 3714 H 333.344 2.30501 -2.93128 0
M  V30 3715 N 335.529 1.53961 0.336706 0
M  V30 3716 C 336.439 1.85432 1.43708 0
M  V30 3717 C 337.455 0.745053 1.57242 0
M  V30 3718 O 338.631 1.03804 1.72588 0
M  V30 3719 C 335.696 2.06349 2.78605 0
M  V30 3720 C 334.757 3.30191 2.74358 0
M  V30 3721 C 333.99 3.50101 4.02822 0
M  V30 3722 O 334.213 2.7371 5.00439 0
M  V30 3723 O 333.147 4.43547 4.06878 0
M  V30 3724 H 336.973 2.78975 1.20028 0
M  V30 3725 H 334.558 1.39701 0.52952 0
M  V30 3726 H 336.44 2.21513 3.58483 0
M  V30 3727 H 335.115 1.15995 3.02203 0
M  V30 3728 H 334.022 3.20425 1.93078 0
M  V30 3729 H 335.355 4.2056 2.55715 0
M  V30 3730 N 337.007 -0.598083 1.45811 0
M  V30 3731 C 338.255 -1.35413 1.50026 0
M  V30 3732 C 338.576 -1.94444 0.147177 0
M  V30 3733 O 337.846 -1.77701 -0.824571 0
M  V30 3734 H 336.426 -0.502727 0.552517 0
M  V30 3735 H 339.088 -0.701606 1.81834 0
M  V30 3736 H 338.184 -2.16871 2.2444 0
M  V30 3737 N 338.485 -1.33259 -0.841409 0
M  V30 3738 C 339.448 -1.23221 -1.9326 0
M  V30 3739 C 340.448 -0.151895 -1.60081 0
M  V30 3740 O 341.638 -0.403246 -1.69468 0
M  V30 3741 C 338.77 -0.898123 -3.28856 0
M  V30 3742 H 339.963 -2.2021 -2.03587 0
M  V30 3743 H 337.516 -1.17281 -1.03319 0
M  V30 3744 H 338.251 0.0693841 -3.24226 0
M  V30 3745 H 338.036 -1.67934 -3.54317 0
M  V30 3746 H 339.526 -0.852563 -4.08805 0
M  V30 3747 N 339.963 1.05934 -1.16686 0
M  V30 3748 C 341.209 1.79211 -0.962023 0
M  V30 3749 C 341.564 1.85667 0.504545 0
M  V30 3750 O 340.857 1.33991 1.36956 0
M  V30 3751 C 341.051 3.23105 -1.52767 0
M  V30 3752 C 340.88 3.30673 -3.04771 0
M  V30 3753 C 339.65 3.40395 -3.73442 0
M  V30 3754 C 341.848 3.20234 -4.02436 0
M  V30 3755 N 339.83 3.37015 -5.13122 0
M  V30 3756 C 341.201 3.24138 -5.28521 0
M  V30 3757 C 343.256 3.04143 -3.9421 0
M  V30 3758 C 341.959 3.13607 -6.47336 0
M  V30 3759 C 343.985 2.94951 -5.12599 0
M  V30 3760 C 343.347 2.99481 -6.37566 0
M  V30 3761 H 339.446 0.668442 -0.405844 0
M  V30 3762 H 342.03 1.26341 -1.48142 0
M  V30 3763 H 340.201 3.74364 -1.03471 0
M  V30 3764 H 341.933 3.84579 -1.26021 0
M  V30 3765 H 338.688 3.45344 -3.2409 0
M  V30 3766 H 339.112 3.38815 -5.86117 0
M  V30 3767 H 343.754 2.99484 -2.98445 0
M  V30 3768 H 341.472 3.17022 -7.43319 0
M  V30 3769 H 345.058 2.83583 -5.08008 0
M  V30 3770 H 343.938 2.92431 -7.27636 0
M  V30 3771 N 341.441 0.965919 1.2453 0
M  V30 3772 C 342.388 0.49402 2.25451 0
M  V30 3773 C 343.358 -0.45948 1.59618 0
M  V30 3774 O 344.543 -0.370238 1.87173 0
M  V30 3775 C 341.683 -0.211359 3.44452 0
M  V30 3776 C 340.796 0.7807 4.24887 0
M  V30 3777 C 339.931 0.0516105 5.31175 0
M  V30 3778 C 338.97 1.03385 6.03306 0
M  V30 3779 N 338.107 0.334887 7.01301 0
M  V30 3780 H 342.947 1.35946 2.65184 0
M  V30 3781 H 340.484 0.681515 1.3036 0
M  V30 3782 H 342.442 -0.637 4.12308 0
M  V30 3783 H 341.072 -1.04077 3.05562 0
M  V30 3784 H 340.124 1.32479 3.56586 0
M  V30 3785 H 341.436 1.52978 4.74762 0
M  V30 3786 H 340.59 -0.432114 6.05159 0
M  V30 3787 H 339.329 -0.730179 4.82203 0
M  V30 3788 H 338.334 1.52847 5.28127 0
M  V30 3789 H 339.559 1.81606 6.54367 0
M  V30 3790 H 337.505 -0.427959 6.54603 0
M  V30 3791 H 337.422 1.02287 7.49048 0
M  V30 3792 H 338.69 -0.126928 7.79397 0
M  V30 3793 N 342.919 -1.39368 0.735821 0
M  V30 3794 C 343.869 -2.27885 0.0724287 0
M  V30 3795 C 344.853 -1.44301 -0.711756 0
M  V30 3796 O 346.045 -1.67206 -0.58063 0
M  V30 3797 C 343.174 -3.33029 -0.833454 0
M  V30 3798 C 342.26 -4.24078 -0.0433749 0
M  V30 3799 N 342.651 -4.96138 0.983903 0
M  V30 3800 C 340.949 -4.45164 -0.272905 0
M  V30 3801 C 341.65 -5.63069 1.4604 0
M  V30 3802 N 340.626 -5.37991 0.778857 0
M  V30 3803 H 344.428 -2.81052 0.859467 0
M  V30 3804 H 341.942 -1.5206 0.570227 0
M  V30 3805 H 343.939 -3.95311 -1.32419 0
M  V30 3806 H 342.599 -2.81421 -1.61964 0
M  V30 3807 H 343.61 -4.9958 1.36528 0
M  V30 3808 H 340.287 -4.04497 -1.03383 0
M  V30 3809 H 341.677 -6.30755 2.31511 0
M  V30 3810 N 344.397 -0.483516 -1.5 0
M  V30 3811 C 345.36 0.292965 -2.2732 0
M  V30 3812 C 346.36 0.909499 -1.32608 0
M  V30 3813 O 347.55 0.776745 -1.55924 0
M  V30 3814 C 344.682 1.41854 -3.09984 0
M  V30 3815 H 345.875 -0.385289 -2.97415 0
M  V30 3816 H 343.428 -0.237942 -1.54478 0
M  V30 3817 H 344.163 2.13148 -2.44414 0
M  V30 3818 H 343.948 0.982114 -3.79601 0
M  V30 3819 H 345.438 1.96597 -3.68429 0
M  V30 3820 N 345.875 1.56104 -0.216619 0
M  V30 3821 C 346.807 2.17339 0.72776 0
M  V30 3822 C 347.82 1.14109 1.16116 0
M  V30 3823 O 349.009 1.4111 1.09317 0
M  V30 3824 C 346.109 2.73818 1.99693 0
M  V30 3825 C 345.282 4.02168 1.71988 0
M  V30 3826 C 344.341 4.43259 2.83562 0
M  V30 3827 O 343.367 5.10257 2.52244 0
M  V30 3828 N 344.569 4.08535 4.12407 0
M  V30 3829 H 347.334 2.99005 0.203983 0
M  V30 3830 H 344.895 1.61861 -0.0354289 0
M  V30 3831 H 346.887 2.9828 2.73516 0
M  V30 3832 H 345.457 1.96483 2.43132 0
M  V30 3833 H 344.677 3.85612 0.818337 0
M  V30 3834 H 345.965 4.85907 1.50903 0
M  V30 3835 H 345.363 3.54687 4.40696 0
M  V30 3836 H 343.92 4.37901 4.8279 0
M  V30 3837 N 347.353 -0.0568162 1.57498 0
M  V30 3838 C 348.769 -0.411933 1.54192 0
M  V30 3839 C 348.969 -1.78287 0.938942 0
M  V30 3840 O 348.025 -2.46483 0.547919 0
M  V30 3841 C 349.338 -0.339244 2.9878 0
M  V30 3842 C 350.886 -0.418348 3.10192 0
M  V30 3843 C 351.361 -0.375407 4.56459 0
M  V30 3844 N 352.852 -0.435038 4.61153 0
M  V30 3845 C 353.587 -0.424265 5.71828 0
M  V30 3846 N 353.083 -0.367418 6.91825 0
M  V30 3847 N 354.876 -0.471938 5.60115 0
M  V30 3848 H 347.027 0.840684 1.95055 0
M  V30 3849 H 349.29 0.316987 0.893433 0
M  V30 3850 H 348.996 0.601742 3.46514 0
M  V30 3851 H 348.87 -1.14371 3.59443 0
M  V30 3852 H 351.257 -1.34976 2.62422 0
M  V30 3853 H 351.338 0.414962 2.52412 0
M  V30 3854 H 350.982 0.552219 5.04889 0
M  V30 3855 H 350.912 -1.22645 5.12119 0
M  V30 3856 H 353.403 -0.482612 3.74806 0
M  V30 3857 H 353.716 -0.363535 7.71944 0
M  V30 3858 H 352.061 -0.333879 6.94198 0
M  V30 3859 H 355.252 -0.514145 4.65268 0
M  V30 3860 H 355.425 -0.460073 6.46365 0
M  V30 3861 N 348.832 -1.54138 -0.328536 0
M  V30 3862 C 350.081 -1.71318 -1.06456 0
M  V30 3863 C 350.394 -0.491109 -1.89334 0
M  V30 3864 O 351.6 -0.54416 -2.65991 0
M  V30 3865 C 350.056 -3.03 -1.94214 0
M  V30 3866 C 349.664 -4.32595 -1.16471 0
M  V30 3867 C 351.408 -3.29544 -2.67583 0
M  V30 3868 C 349.315 -5.55341 -2.03347 0
M  V30 3869 H 348.245 -0.638429 -0.401155 0
M  V30 3870 H 350.896 -1.80633 -0.323106 0
M  V30 3871 H 349.278 -2.87579 -2.72239 0
M  V30 3872 H 350.452 -4.58766 -0.432525 0
M  V30 3873 H 348.767 -4.12777 -0.548063 0
M  V30 3874 H 351.364 -4.18444 -3.3288 0
M  V30 3875 H 351.707 -2.47206 -3.34955 0
M  V30 3876 H 352.24 -3.45809 -1.96623 0
M  V30 3877 H 348.979 -6.40268 -1.40491 0
M  V30 3878 H 348.499 -5.33397 -2.74313 0
M  V30 3879 H 350.178 -5.91557 -2.62049 0
M  V30 3880 N 350.31 0.590341 -1.46126 0
M  V30 3881 C 351.22 1.72793 -1.58681 0
M  V30 3882 C 352.236 1.67516 -0.470566 0
M  V30 3883 O 353.412 1.87562 -0.733642 0
M  V30 3884 C 350.477 3.09287 -1.5666 0
M  V30 3885 C 349.538 3.25886 -2.79458 0
M  V30 3886 C 348.771 4.55869 -2.77524 0
M  V30 3887 O 348.994 5.3928 -1.85832 0
M  V30 3888 O 347.928 4.75552 -3.68964 0
M  V30 3889 H 351.754 1.65149 -2.54872 0
M  V30 3890 H 349.339 0.756486 -1.28832 0
M  V30 3891 H 351.221 3.90577 -1.58202 0
M  V30 3892 H 349.896 3.17385 -0.636271 0
M  V30 3893 H 348.803 2.44119 -2.83472 0
M  V30 3894 H 350.136 3.22675 -3.71674 0
M  V30 3895 N 351.788 1.33704 0.83433 0
M  V30 3896 C 353.016 1.28467 1.62185 0
M  V30 3897 C 353.431 -0.143526 1.88254 0
M  V30 3898 O 352.788 -1.08709 1.4659 0
M  V30 3899 C 352.839 2.06174 2.96942 0
M  V30 3900 O 352.56 3.43422 2.72016 0
M  V30 3901 C 354.061 2.08201 3.91366 0
M  V30 3902 H 351.281 0.4424 0.504503 0
M  V30 3903 H 353.825 1.76145 1.03891 0
M  V30 3904 H 351.98 1.62167 3.51825 0
M  V30 3905 H 352.394 3.83453 3.57861 0
M  V30 3906 H 353.868 2.67017 4.83121 0
M  V30 3907 H 354.345 1.07343 4.2588 0
M  V30 3908 H 354.951 2.52246 3.42421 0
M  V30 3909 N 353.266 -1.05314 1.17247 0
M  V30 3910 C 354.512 -1.78699 0.971513 0
M  V30 3911 C 354.867 -1.85932 -0.494692 0
M  V30 3912 O 354.16 -1.34716 -1.36243 0
M  V30 3913 C 354.354 -3.2229 1.54479 0
M  V30 3914 C 354.183 -3.29052 3.06521 0
M  V30 3915 C 352.953 -3.3841 3.75242 0
M  V30 3916 C 355.151 -3.18095 4.04129 0
M  V30 3917 N 353.133 -3.34289 5.14902 0
M  V30 3918 C 354.504 -3.21331 5.30232 0
M  V30 3919 C 356.559 -3.02049 3.95817 0
M  V30 3920 C 355.262 -3.10169 6.4899 0
M  V30 3921 C 357.288 -2.92228 5.14156 0
M  V30 3922 C 356.65 -2.96096 6.39145 0
M  V30 3923 H 352.749 -0.66628 0.409383 0
M  V30 3924 H 355.333 -1.25553 1.4881 0
M  V30 3925 H 353.504 -3.7381 1.05455 0
M  V30 3926 H 355.236 -3.83905 1.28059 0
M  V30 3927 H 351.991 -3.43621 3.25917 0
M  V30 3928 H 352.415 -3.35702 5.87906 0
M  V30 3929 H 357.057 -2.97897 3.00029 0
M  V30 3930 H 354.775 -3.13076 7.44989 0
M  V30 3931 H 358.361 -2.80885 5.09505 0
M  V30 3932 H 357.241 -2.88568 7.29176 0
M  V30 3933 N 354.744 -0.972509 -1.24016 0
M  V30 3934 C 355.993 -0.632603 -1.91523 0
M  V30 3935 C 356.306 0.836641 -1.76804 0
M  V30 3936 O 357.512 1.28728 -2.39043 0
M  V30 3937 C 355.968 -1.08082 -3.43287 0
M  V30 3938 C 355.576 -2.57386 -3.66683 0
M  V30 3939 C 357.32 -0.814288 -4.16617 0
M  V30 3940 C 355.227 -2.95915 -5.12043 0
M  V30 3941 H 354.157 -0.232898 -0.717129 0
M  V30 3942 H 356.808 -1.17936 -1.40582 0
M  V30 3943 H 355.19 -0.462339 -3.93292 0
M  V30 3944 H 356.364 -3.24405 -3.27258 0
M  V30 3945 H 354.679 -2.81701 -3.06649 0
M  V30 3946 H 357.276 -1.0781 -5.23718 0
M  V30 3947 H 357.619 0.24955 -4.15551 0
M  V30 3948 H 358.152 -1.39397 -3.72577 0
M  V30 3949 H 354.891 -4.0139 -5.18234 0
M  V30 3950 H 354.411 -2.33584 -5.52448 0
M  V30 3951 H 356.09 -2.86086 -5.80314 0
M  V30 3952 N 356.222 1.38976 -0.743202 0
M  V30 3953 C 357.152 2.33171 -0.123873 0
M  V30 3954 C 358.133 1.54336 0.71516 0
M  V30 3955 O 359.318 1.82696 0.658467 0
M  V30 3956 C 356.448 3.38474 0.777978 0
M  V30 3957 C 355.402 4.27979 0.0424758 0
M  V30 3958 C 354.728 5.2405 1.06189 0
M  V30 3959 C 356.028 5.10155 -1.1198 0
M  V30 3960 H 357.722 2.85213 -0.910709 0
M  V30 3961 H 355.268 1.37133 -0.439388 0
M  V30 3962 H 357.221 4.03328 1.22084 0
M  V30 3963 H 355.945 2.84891 1.59702 0
M  V30 3964 H 354.604 3.64616 -0.380853 0
M  V30 3965 H 354.252 4.66758 1.87472 0
M  V30 3966 H 353.952 5.84785 0.574485 0
M  V30 3967 H 355.476 5.9178 1.50428 0
M  V30 3968 H 356.89 5.68307 -0.75499 0
M  V30 3969 H 355.287 5.80073 -1.53738 0
M  V30 3970 H 356.357 4.44504 -1.93764 0
M  V30 3971 N 357.7 0.491464 1.49741 0
M  V30 3972 C 359.116 0.146835 1.58923 0
M  V30 3973 C 359.316 -1.34804 1.49767 0
M  V30 3974 O 358.372 -2.12317 1.36667 0
M  V30 3975 C 359.685 0.715157 2.92072 0
M  V30 3976 C 361.233 0.680407 3.05515 0
M  V30 3977 C 361.708 1.22663 4.41269 0
M  V30 3978 N 363.199 1.18691 4.47735 0
M  V30 3979 C 363.934 1.57984 5.51207 0
M  V30 3980 N 363.43 2.04824 6.6183 0
M  V30 3981 N 365.223 1.49459 5.41866 0
M  V30 3982 H 357.374 1.46347 1.53936 0
M  V30 3983 H 359.637 0.606453 0.728642 0
M  V30 3984 H 359.343 1.76317 3.04311 0
M  V30 3985 H 359.217 0.17018 3.76816 0
M  V30 3986 H 361.604 -0.358743 2.92911 0
M  V30 3987 H 361.685 1.26242 2.22478 0
M  V30 3988 H 361.329 2.26451 4.54623 0
M  V30 3989 H 361.259 0.620637 5.2293 0
M  V30 3990 H 363.75 0.843605 3.68364 0
M  V30 3991 H 364.063 2.32901 7.3687 0
M  V30 3992 H 362.408 2.08791 6.62896 0
M  V30 3993 H 365.599 1.12692 4.54333 0
M  V30 3994 H 365.772 1.80406 6.22381 0
M  V30 3995 N 359.178 -1.55987 0.224894 0
M  V30 3996 C 360.128 -2.17076 -0.697296 0
M  V30 3997 C 361.112 -1.12006 -1.15514 0
M  V30 3998 O 362.304 -1.37985 -1.10857 0
M  V30 3999 C 359.433 -2.85679 -1.90374 0
M  V30 4000 C 358.519 -3.97977 -1.46543 0
M  V30 4001 N 358.91 -5.00359 -0.739909 0
M  V30 4002 C 357.208 -4.10128 -1.75245 0
M  V30 4003 C 357.909 -5.79407 -0.515939 0
M  V30 4004 N 356.885 -5.32892 -1.07364 0
M  V30 4005 H 360.687 -2.93592 -0.134594 0
M  V30 4006 H 358.201 -1.62379 0.0262885 0
M  V30 4007 H 360.198 -3.27857 -2.57518 0
M  V30 4008 H 358.858 -2.1066 -2.47088 0
M  V30 4009 H 359.869 -5.16412 -0.392253 0
M  V30 4010 H 356.546 -3.46263 -2.33255 0
M  V30 4011 H 357.936 -6.71872 0.0617349 0
M  V30 4012 N 360.656 0.0484629 -1.57525 0
M  V30 4013 C 362.067 0.597486 -1.76881 0
M  V30 4014 C 362.418 1.76664 -0.853475 0
M  V30 4015 O 361.543 2.16357 -0.0433656 0
M  V30 4016 C 362.138 1.09066 -3.20765 0
M  V30 4017 C 360.697 1.58535 -3.41385 0
M  V30 4018 C 359.844 0.514868 -2.72478 0
M  V30 4019 H 362.795 -0.177758 -1.57701 0
M  V30 4020 H 362.816 1.95875 -3.2621 0
M  V30 4021 H 362.328 0.239521 -3.8736 0
M  V30 4022 H 360.429 2.45898 -2.79937 0
M  V30 4023 H 360.542 1.64622 -4.49929 0
M  V30 4024 H 358.906 0.965407 -2.35695 0
M  V30 4025 H 359.689 -0.32648 -3.41744 0
M  V30 4026 N 362.134 1.5431 0.320358 0
M  V30 4027 C 363.382 1.72327 1.05583 0
M  V30 4028 C 363.703 0.50149 1.88441 0
M  V30 4029 O 362.973 -0.48448 1.89815 0
M  V30 4030 H 361.553 0.635387 0.3928 0
M  V30 4031 H 364.215 1.91621 0.356019 0
M  V30 4032 H 363.311 2.60426 1.72003 0
M  V30 4033 N 363.613 -0.582584 1.46437 0
M  V30 4034 C 364.86 -1.34079 1.51753 0
M  V30 4035 C 365.188 -1.93762 0.169299 0
M  V30 4036 O 364.443 -1.76989 -0.835062 0
M  V30 4037 C 364.742 -2.48964 2.56421 0
M  V30 4038 C 364.408 -2.07273 4.00436 0
M  V30 4039 C 363.07 -1.95618 4.39644 0
M  V30 4040 C 365.422 -1.75111 4.90903 0
M  V30 4041 C 362.75 -1.5006 5.67185 0
M  V30 4042 C 365.102 -1.31032 6.18881 0
M  V30 4043 C 363.766 -1.17954 6.56996 0
M  V30 4044 H 363.036 -0.49063 0.555304 0
M  V30 4045 H 365.683 -0.656007 1.79913 0
M  V30 4046 H 363.988 -3.22889 2.21923 0
M  V30 4047 H 365.685 -3.07178 2.57765 0
M  V30 4048 H 362.275 -2.17279 3.69443 0
M  V30 4049 H 366.459 -1.83001 4.61329 0
M  V30 4050 H 361.715 -1.38577 5.95488 0
M  V30 4051 H 365.889 -1.052 6.88408 0
M  V30 4052 H 363.516 -0.824279 7.55718 0
M  V30 4053 N 365.091 -1.34144 -0.827227 0
M  V30 4054 C 366.319 -1.29325 -1.61501 0
M  V30 4055 C 366.734 0.13354 -1.88327 0
M  V30 4056 O 366.091 1.0793 -1.47164 0
M  V30 4057 C 366.142 -2.07746 -2.95844 0
M  V30 4058 O 365.863 -3.4486 -2.70191 0
M  V30 4059 C 367.364 -2.10273 -3.90256 0
M  V30 4060 H 364.584 -0.445069 -0.50215 0
M  V30 4061 H 367.128 -1.76693 -1.02955 0
M  V30 4062 H 365.283 -1.6403 -3.5096 0
M  V30 4063 H 365.697 -3.85345 -3.55822 0
M  V30 4064 H 367.171 -2.69575 -4.81698 0
M  V30 4065 H 367.648 -1.096 -4.25305 0
M  V30 4066 H 368.254 -2.54059 -3.41078 0
M  V30 4067 N 366.569 1.04691 -1.17803 0
M  V30 4068 C 367.818 1.77176 -0.963931 0
M  V30 4069 C 368.131 1.88888 0.508015 0
M  V30 4070 O 369.337 2.58164 0.840465 0
M  V30 4071 C 367.793 3.18518 -1.67555 0
M  V30 4072 C 367.401 3.14919 -3.18637 0
M  V30 4073 C 369.145 3.95424 -1.54402 0
M  V30 4074 C 367.052 4.51081 -3.82466 0
M  V30 4075 H 365.982 0.664116 -0.357023 0
M  V30 4076 H 368.633 1.17303 -1.4111 0
M  V30 4077 H 367.015 3.78748 -1.15613 0
M  V30 4078 H 368.189 2.64178 -3.77554 0
M  V30 4079 H 366.504 2.51512 -3.31859 0
M  V30 4080 H 369.101 4.96106 -1.99456 0
M  V30 4081 H 369.444 4.13343 -0.495329 0
M  V30 4082 H 369.977 3.41754 -2.0359 0
M  V30 4083 H 366.716 4.38368 -4.87354 0
M  V30 4084 H 366.236 5.01951 -3.28337 0
M  V30 4085 H 367.915 5.2001 -3.84965 0
M  V30 4086 N 368.047 0.979072 1.23499 0
M  V30 4087 C 368.98 0.463027 2.23453 0
M  V30 4088 C 369.958 -0.469128 1.55685 0
M  V30 4089 O 371.142 -0.397882 1.84253 0
M  V30 4090 C 368.269 -0.330308 3.37086 0
M  V30 4091 C 367.315 0.545795 4.22993 0
M  V30 4092 S 368.148 1.99285 4.97037 0
M  V30 4093 C 369.304 1.20862 6.1412 0
M  V30 4094 H 369.537 1.31005 2.6688 0
M  V30 4095 H 367.07 0.784965 1.32957 0
M  V30 4096 H 369.028 -0.782027 4.02982 0
M  V30 4097 H 367.689 -1.15244 2.92194 0
M  V30 4098 H 366.882 -0.0638928 5.03959 0
M  V30 4099 H 366.484 0.933705 3.62157 0
M  V30 4100 H 368.776 0.469284 6.75873 0
M  V30 4101 H 369.719 1.99307 6.79472 0
M  V30 4102 H 370.127 0.727992 5.59786 0
M  V30 4103 N 369.525 -1.3858 0.750561 0
M  V30 4104 C 370.488 -2.28836 0.129152 0
M  V30 4105 C 371.488 -1.47045 -0.650714 0
M  V30 4106 O 372.678 -1.6753 -0.477428 0
M  V30 4107 C 369.81 -3.30751 -0.825622 0
M  V30 4108 H 371.003 -2.85294 0.924516 0
M  V30 4109 H 368.556 -1.47489 0.517376 0
M  V30 4110 H 369.291 -2.79378 -1.64677 0
M  V30 4111 H 369.076 -3.91177 -0.268852 0
M  V30 4112 H 370.566 -3.98249 -1.2565 0
M  V30 4113 N 371.003 -0.499398 -1.49478 0
M  V30 4114 C 371.966 0.268838 -2.27618 0
M  V30 4115 C 372.966 0.895383 -1.33565 0
M  V30 4116 O 374.156 0.760164 -1.56739 0
M  V30 4117 C 371.288 1.38559 -3.11471 0
M  V30 4118 H 372.481 -0.416812 -2.96989 0
M  V30 4119 H 370.034 -0.254313 -1.54217 0
M  V30 4120 H 370.769 2.10544 -2.46661 0
M  V30 4121 H 370.554 0.941797 -3.80621 0
M  V30 4122 H 372.044 1.92678 -3.70493 0
M  V30 4123 N 372.481 1.55866 -0.233164 0
M  V30 4124 C 373.73 1.97779 0.39579 0
M  V30 4125 C 374.043 1.12419 1.60066 0
M  V30 4126 O 375.249 1.44283 2.29988 0
M  V30 4127 C 373.705 3.5188 0.755556 0
M  V30 4128 C 373.313 4.45959 -0.427152 0
M  V30 4129 C 375.057 4.02479 1.34946 0
M  V30 4130 C 372.964 5.91383 -0.0443043 0
M  V30 4131 H 371.894 0.738592 0.15165 0
M  V30 4132 H 374.545 1.80486 -0.331212 0
M  V30 4133 H 372.927 3.64816 1.5403 0
M  V30 4134 H 374.101 4.44776 -1.20462 0
M  V30 4135 H 372.416 4.05765 -0.935068 0
M  V30 4136 H 375.013 5.08637 1.649 0
M  V30 4137 H 375.356 3.49014 2.26925 0
M  V30 4138 H 375.889 3.92813 0.62791 0
M  V30 4139 H 372.628 6.48857 -0.930874 0
M  V30 4140 H 372.148 5.95734 0.697238 0
M  V30 4141 H 373.827 6.45893 0.378334 0
M  V30 4142 N 373.959 -0.0401083 1.57549 0
M  V30 4143 C 374.889 -1.04384 2.08869 0
M  V30 4144 C 375.87 -1.38407 0.988817 0
M  V30 4145 O 377.055 -1.47483 1.26342 0
M  V30 4146 C 374.185 -2.34808 2.55895 0
M  V30 4147 C 373.139 -2.15057 3.70047 0
M  V30 4148 C 372.465 -3.51145 4.03239 0
M  V30 4149 C 373.765 -1.54576 4.98902 0
M  V30 4150 H 375.459 -0.616666 2.92981 0
M  V30 4151 H 373.005 -0.295184 1.40942 0
M  V30 4152 H 374.958 -3.05346 2.90417 0
M  V30 4153 H 373.682 -2.79565 1.68853 0
M  V30 4154 H 372.341 -1.46954 3.35857 0
M  V30 4155 H 371.989 -3.93529 3.13279 0
M  V30 4156 H 371.689 -3.38758 4.80122 0
M  V30 4157 H 373.213 -4.23062 4.40285 0
M  V30 4158 H 374.627 -2.15017 5.31451 0
M  V30 4159 H 373.024 -1.52796 5.80322 0
M  V30 4160 H 374.094 -0.51039 4.82206 0
M  V30 4161 N 375.437 -1.54477 -0.31217 0
M  V30 4162 C 376.4 -1.83923 -1.36766 0
M  V30 4163 C 377.4 -0.711563 -1.44199 0
M  V30 4164 O 378.59 -0.979866 -1.44029 0
M  V30 4165 C 375.722 -2.0095 -2.75376 0
M  V30 4166 H 376.915 -2.78239 -1.11906 0
M  V30 4167 H 374.468 -1.46369 -0.548257 0
M  V30 4168 H 375.203 -1.08883 -3.05475 0
M  V30 4169 H 374.988 -2.83018 -2.71373 0
M  V30 4170 H 376.478 -2.2514 -3.51713 0
M  V30 4171 N 376.915 0.57481 -1.46744 0
M  V30 4172 C 378.145 1.35659 -1.55821 0
M  V30 4173 C 378.553 1.88129 -0.201036 0
M  V30 4174 O 377.896 1.64723 0.813134 0
M  V30 4175 C 377.958 2.57473 -2.50894 0
M  V30 4176 C 377.622 2.26415 -3.9697 0
M  V30 4177 C 378.619 1.84771 -4.85958 0
M  V30 4178 C 376.304 2.38316 -4.42166 0
M  V30 4179 C 378.298 1.55434 -6.18158 0
M  V30 4180 C 375.985 2.08591 -5.74398 0
M  V30 4181 C 376.983 1.67216 -6.62214 0
M  V30 4182 O 376.671 1.37859 -7.91991 0
M  V30 4183 H 376.403 0.420496 -0.529301 0
M  V30 4184 H 378.957 0.704967 -1.92923 0
M  V30 4185 H 377.187 3.25468 -2.08824 0
M  V30 4186 H 378.876 3.19546 -2.50291 0
M  V30 4187 H 379.642 1.75085 -4.52295 0
M  V30 4188 H 375.521 2.69483 -3.74032 0
M  V30 4189 H 379.065 1.23065 -6.86659 0
M  V30 4190 H 374.962 2.17905 -6.07608 0
M  V30 4191 H 375.73 1.51638 -8.04331 0
M  V30 4192 N 378.394 1.34581 0.820102 0
M  V30 4193 C 379.622 1.3018 1.60813 0
M  V30 4194 C 380.037 -0.123551 1.88395 0
M  V30 4195 O 379.394 -1.07148 1.47735 0
M  V30 4196 C 379.445 2.09312 2.94739 0
M  V30 4197 O 379.166 3.46288 2.68358 0
M  V30 4198 C 380.667 2.1234 3.89136 0
M  V30 4199 H 377.887 0.447726 0.499782 0
M  V30 4200 H 380.431 1.77237 1.02017 0
M  V30 4201 H 378.586 1.65889 3.50085 0
M  V30 4202 H 379 3.87227 3.53774 0
M  V30 4203 H 380.474 2.72126 4.80262 0
M  V30 4204 H 380.951 1.11854 4.24718 0
M  V30 4205 H 381.557 2.55864 3.39726 0
M  V30 4206 N 379.872 -1.04064 1.18357 0
M  V30 4207 C 381.121 -1.76662 0.973313 0
M  V30 4208 C 381.434 -1.89154 -0.497991 0
M  V30 4209 O 382.64 -2.58606 -0.826762 0
M  V30 4210 C 381.096 -3.17624 1.69242 0
M  V30 4211 C 380.704 -3.13225 3.20303 0
M  V30 4212 C 382.448 -3.946 1.56497 0
M  V30 4213 C 380.355 -4.49046 3.84853 0
M  V30 4214 H 379.285 -0.662214 0.36054 0
M  V30 4215 H 381.936 -1.16553 1.41731 0
M  V30 4216 H 380.318 -3.78129 1.1762 0
M  V30 4217 H 381.492 -2.62172 3.78949 0
M  V30 4218 H 379.807 -2.49749 3.33189 0
M  V30 4219 H 382.404 -4.95042 2.02084 0
M  V30 4220 H 382.747 -4.13074 0.517243 0
M  V30 4221 H 383.28 -3.4067 2.05399 0
M  V30 4222 H 380.019 -4.35777 4.89672 0
M  V30 4223 H 379.539 -5.00203 3.30994 0
M  V30 4224 H 381.218 -5.17961 3.87718 0
M  V30 4225 N 381.35 -0.985608 -1.22978 0
M  V30 4226 C 382.598 -0.656087 -1.91154 0
M  V30 4227 C 382.919 0.813561 -1.77218 0
M  V30 4228 O 382.189 1.58244 -1.1548 0
M  V30 4229 H 380.769 -0.239674 -0.707506 0
M  V30 4230 H 383.431 -1.25054 -1.49491 0
M  V30 4231 H 382.527 -0.912253 -2.9847 0
M  V30 4232 N 382.828 1.3818 -0.7579 0
M  V30 4233 C 384.056 2.04301 -0.326937 0
M  V30 4234 C 384.471 1.57163 1.0462 0
M  V30 4235 O 383.828 0.746626 1.66529 0
M  V30 4236 C 383.879 3.59846 -0.345363 0
M  V30 4237 O 383.6 4.05256 -1.66432 0
M  V30 4238 C 385.101 4.4319 0.098927 0
M  V30 4239 H 382.321 0.656443 -0.139012 0
M  V30 4240 H 384.865 1.76786 -1.02796 0
M  V30 4241 H 383.02 3.86182 0.306955 0
M  V30 4242 H 383.434 4.99709 -1.59345 0
M  V30 4243 H 384.908 5.51989 0.0348745 0
M  V30 4244 H 385.385 4.23947 1.14741 0
M  V30 4245 H 385.991 4.22051 -0.52468 0
M  V30 4246 N 384.306 0.507319 1.49211 0
M  V30 4247 C 385.534 -0.0315749 2.06876 0
M  V30 4248 C 385.949 -1.30241 1.36685 0
M  V30 4249 O 385.306 -1.76937 0.447152 0
M  V30 4250 C 385.357 -0.282627 3.60393 0
M  V30 4251 O 385.078 0.937835 4.27944 0
M  V30 4252 C 386.579 -0.864453 4.3479 0
M  V30 4253 H 383.799 0.0233048 0.670595 0
M  V30 4254 H 386.343 0.706484 1.91909 0
M  V30 4255 H 384.498 -0.97068 3.75042 0
M  V30 4256 H 384.912 0.704567 5.19746 0
M  V30 4257 H 386.386 -0.989664 5.43056 0
M  V30 4258 H 386.863 -1.86382 3.97692 0
M  V30 4259 H 387.469 -0.213672 4.24763 0
M  V30 4260 N 385.784 -1.5574 0.241426 0
M  V30 4261 C 386.734 -2.17803 -0.674233 0
M  V30 4262 C 387.718 -1.13225 -1.14319 0
M  V30 4263 O 388.91 -1.39153 -1.09387 0
M  V30 4264 C 386.039 -2.87682 -1.87333 0
M  V30 4265 C 385.125 -3.99509 -1.42313 0
M  V30 4266 N 385.516 -5.01115 -0.686798 0
M  V30 4267 C 383.814 -4.11964 -1.70885 0
M  V30 4268 C 384.515 -5.79922 -0.454456 0
M  V30 4269 N 383.491 -5.34001 -1.01705 0
M  V30 4270 H 387.293 -2.93718 -0.103447 0
M  V30 4271 H 384.807 -1.62342 0.0435095 0
M  V30 4272 H 386.804 -3.3057 -2.54026 0
M  V30 4273 H 385.464 -2.13269 -2.4484 0
M  V30 4274 H 386.475 -5.16799 -0.337459 0
M  V30 4275 H 383.152 -3.48718 -2.2957 0
M  V30 4276 H 384.542 -6.71768 0.132992 0
M  V30 4277 N 387.262 0.0317525 -1.57568 0
M  V30 4278 C 388.509 0.723104 -1.89149 0
M  V30 4279 C 388.837 1.75504 -0.838377 0
M  V30 4280 O 388.092 1.95037 0.160982 0
M  V30 4281 C 388.391 1.43167 -3.27472 0
M  V30 4282 C 388.057 0.535972 -4.47703 0
M  V30 4283 C 386.719 0.289262 -4.8033 0
M  V30 4284 C 389.071 -0.0826125 -5.21135 0
M  V30 4285 C 386.399 -0.584853 -5.83778 0
M  V30 4286 C 388.751 -0.944414 -6.25511 0
M  V30 4287 C 387.415 -1.20061 -6.56614 0
M  V30 4288 H 386.685 0.264602 -0.692146 0
M  V30 4289 H 389.332 -0.0169496 -1.91492 0
M  V30 4290 H 387.637 2.24497 -3.21105 0
M  V30 4291 H 389.334 1.97209 -3.49155 0
M  V30 4292 H 385.924 0.738414 -4.22191 0
M  V30 4293 H 390.108 0.0950302 -4.96209 0
M  V30 4294 H 385.364 -0.79168 -6.06253 0
M  V30 4295 H 389.538 -1.43026 -6.81554 0
M  V30 4296 H 387.165 -1.87967 -7.36595 0
M  V30 4297 N 388.74 1.54641 0.303973 0
M  V30 4298 C 389.672 1.81754 1.39636 0
M  V30 4299 C 390.685 0.70035 1.46966 0
M  V30 4300 O 391.874 0.97778 1.49338 0
M  V30 4301 C 388.974 1.93785 2.7803 0
M  V30 4302 C 388.147 3.24156 2.93669 0
M  V30 4303 C 387.206 3.26641 4.12544 0
M  V30 4304 O 386.232 4.00187 4.04771 0
M  V30 4305 N 387.434 2.5182 5.23036 0
M  V30 4306 H 390.199 2.76031 1.16734 0
M  V30 4307 H 387.76 1.54178 0.494033 0
M  V30 4308 H 389.752 1.92852 3.55795 0
M  V30 4309 H 388.322 1.06515 2.93893 0
M  V30 4310 H 387.542 3.37887 2.03042 0
M  V30 4311 H 388.83 4.10195 3.01027 0
M  V30 4312 H 388.228 1.91692 5.32232 0
M  V30 4313 H 386.785 2.56644 5.99147 0
M  V30 4314 N 390.218 -0.567019 1.47046 0
M  V30 4315 C 391.634 -0.891975 1.32348 0
M  V30 4316 C 391.834 -1.99154 0.306616 0
M  V30 4317 O 390.89 -2.50883 -0.28532 0
M  V30 4318 C 392.203 -1.29449 2.7141 0
M  V30 4319 C 393.751 -1.40646 2.79621 0
M  V30 4320 C 394.226 -1.84257 4.19301 0
M  V30 4321 N 395.717 -1.91424 4.21795 0
M  V30 4322 C 396.452 -2.26476 5.26779 0
M  V30 4323 N 395.948 -2.60211 6.42077 0
M  V30 4324 N 397.741 -2.27166 5.14152 0
M  V30 4325 H 389.892 0.159074 2.11803 0
M  V30 4326 H 392.155 0.00849752 0.947962 0
M  V30 4327 H 391.861 -0.560448 3.47206 0
M  V30 4328 H 391.735 -2.25273 3.02542 0
M  V30 4329 H 394.122 -2.13133 2.04104 0
M  V30 4330 H 394.203 -0.430339 2.52154 0
M  V30 4331 H 393.847 -1.12343 4.95319 0
M  V30 4332 H 393.777 -2.82855 4.44185 0
M  V30 4333 H 396.268 -1.6778 3.38612 0
M  V30 4334 H 396.581 -2.85956 7.17948 0
M  V30 4335 H 394.926 -2.57813 6.45413 0
M  V30 4336 H 398.117 -2.00244 4.23107 0
M  V30 4337 H 398.29 -2.54154 5.96079 0
M  V30 4338 N 391.696 -1.35014 -0.812953 0
M  V30 4339 C 392.942 -1.2812 -1.57204 0
M  V30 4340 C 393.275 0.145869 -1.93651 0
M  V30 4341 O 392.55 1.0937 -1.60836 0
M  V30 4342 C 392.833 -2.18162 -2.86492 0
M  V30 4343 C 392.686 -3.69454 -2.56561 0
M  V30 4344 C 394.005 -2.07439 -3.88145 0
M  V30 4345 H 391.124 -0.466746 -0.570366 0
M  V30 4346 H 393.766 -1.65357 -0.935783 0
M  V30 4347 H 391.916 -1.86535 -3.40789 0
M  V30 4348 H 393.588 -4.11493 -2.08497 0
M  V30 4349 H 391.831 -3.9005 -1.89851 0
M  V30 4350 H 392.502 -4.27835 -3.48799 0
M  V30 4351 H 394.978 -2.35228 -3.4323 0
M  V30 4352 H 393.854 -2.7265 -4.76396 0
M  V30 4353 H 394.115 -1.05439 -4.29343 0
M  V30 4354 N 393.175 1.03435 -1.18907 0
M  V30 4355 C 394.105 2.13503 -0.945448 0
M  V30 4356 C 395.086 1.69682 0.119189 0
M  V30 4357 O 396.271 1.94169 -0.034707 0
M  V30 4358 C 393.401 3.44004 -0.477316 0
M  V30 4359 C 392.355 4.0148 -1.48316 0
M  V30 4360 C 391.681 5.27537 -0.872311 0
M  V30 4361 C 392.981 4.36921 -2.86177 0
M  V30 4362 H 394.675 2.34141 -1.86597 0
M  V30 4363 H 392.221 1.12523 -0.898584 0
M  V30 4364 H 394.174 4.20372 -0.294204 0
M  V30 4365 H 392.898 3.23072 0.478786 0
M  V30 4366 H 391.557 3.27201 -1.65332 0
M  V30 4367 H 391.205 5.02917 0.0911752 0
M  V30 4368 H 390.905 5.66954 -1.54393 0
M  V30 4369 H 392.429 6.06576 -0.699871 0
M  V30 4370 H 393.843 5.04248 -2.72776 0
M  V30 4371 H 392.24 4.87405 -3.50081 0
M  V30 4372 H 393.31 3.46466 -3.39248 0
M  V30 4373 N 394.653 0.992116 1.22453 0
M  V30 4374 C 395.902 0.662992 1.90492 0
M  V30 4375 C 396.215 -0.808407 1.78113 0
M  V30 4376 O 397.421 -1.24908 2.41061 0
M  V30 4377 C 395.877 1.1353 3.41524 0
M  V30 4378 C 395.485 2.63187 3.62542 0
M  V30 4379 C 397.229 0.880465 4.15269 0
M  V30 4380 C 395.136 3.04024 5.0727 0
M  V30 4381 H 394.066 0.244278 0.713333 0
M  V30 4382 H 396.717 1.20157 1.38688 0
M  V30 4383 H 395.099 0.52485 3.92506 0
M  V30 4384 H 396.273 3.2957 3.22056 0
M  V30 4385 H 394.588 2.86543 3.02129 0
M  V30 4386 H 397.185 1.16128 5.21937 0
M  V30 4387 H 397.528 -0.183408 4.15896 0
M  V30 4388 H 398.061 1.45307 3.70312 0
M  V30 4389 H 394.8 4.09584 5.11782 0
M  V30 4390 H 394.32 2.42343 5.48662 0
M  V30 4391 H 395.999 2.95282 5.75689 0
M  V30 4392 N 396.131 -1.37776 0.765217 0
M  V30 4393 C 397.378 -1.99849 0.326588 0
M  V30 4394 C 397.706 -1.60746 -1.09504 0
M  V30 4395 O 396.961 -0.84202 -1.76659 0
M  V30 4396 C 397.26 -3.5504 0.410053 0
M  V30 4397 C 396.926 -4.13891 1.78899 0
M  V30 4398 C 395.588 -4.29678 2.16635 0
M  V30 4399 C 397.94 -4.46236 2.69301 0
M  V30 4400 C 395.268 -4.7511 3.44221 0
M  V30 4401 C 397.62 -4.93089 3.9629 0
M  V30 4402 C 396.284 -5.07082 4.34078 0
M  V30 4403 H 395.554 -0.7313 0.119507 0
M  V30 4404 H 398.201 -1.64645 0.977968 0
M  V30 4405 H 396.506 -3.90451 -0.324878 0
M  V30 4406 H 398.203 -4.00966 0.0520699 0
M  V30 4407 H 394.793 -4.02026 1.48569 0
M  V30 4408 H 398.977 -4.3363 2.41409 0
M  V30 4409 H 394.233 -4.84129 3.73402 0
M  V30 4410 H 398.407 -5.17084 4.66472 0
M  V30 4411 H 396.034 -5.42046 5.33001 0
M  V30 4412 N 397.609 -0.515225 -1.4894 0
M  V30 4413 C 398.858 0.0261361 -2.01683 0
M  V30 4414 C 399.171 1.36719 -1.39883 0
M  V30 4415 O 400.377 1.99606 -1.84037 0
M  V30 4416 C 398.833 0.0970111 -3.59769 0
M  V30 4417 C 398.441 -1.23825 -4.30548 0
M  V30 4418 C 400.185 0.587981 -4.20408 0
M  V30 4419 C 398.092 -1.12877 -5.80528 0
M  V30 4420 H 397.022 0.0135398 -0.753878 0
M  V30 4421 H 399.673 -0.656787 -1.71343 0
M  V30 4422 H 398.055 0.844694 -3.86886 0
M  V30 4423 H 399.229 -2.00034 -4.15118 0
M  V30 4424 H 397.544 -1.66379 -3.81716 0
M  V30 4425 H 400.141 0.68763 -5.3026 0
M  V30 4426 H 400.484 1.59026 -3.84729 0
M  V30 4427 H 401.017 -0.103582 -3.97665 0
M  V30 4428 H 397.756 -2.10575 -6.20756 0
M  V30 4429 H 397.276 -0.407799 -5.98412 0
M  V30 4430 H 398.955 -0.813332 -6.41868 0
M  V30 4431 N 399.087 1.5561 -0.249682 0
M  V30 4432 C 400.017 2.24477 0.642826 0
M  V30 4433 C 400.998 1.22601 1.17911 0
M  V30 4434 O 402.183 1.5126 1.21795 0
M  V30 4435 C 399.313 2.94638 1.83863 0
M  V30 4436 C 398.267 4.03227 1.435 0
M  V30 4437 C 397.593 4.60828 2.71186 0
M  V30 4438 C 398.893 5.18796 0.604002 0
M  V30 4439 H 400.587 2.99321 0.0685625 0
M  V30 4440 H 398.133 1.43965 0.0315363 0
M  V30 4441 H 400.086 3.41517 2.46868 0
M  V30 4442 H 398.81 2.17287 2.43832 0
M  V30 4443 H 397.469 3.57121 0.828275 0
M  V30 4444 H 397.117 3.80174 3.29358 0
M  V30 4445 H 396.817 5.34132 2.44901 0
M  V30 4446 H 398.341 5.10442 3.35084 0
M  V30 4447 H 399.755 5.61883 1.13842 0
M  V30 4448 H 398.152 5.98506 0.437097 0
M  V30 4449 H 399.222 4.83384 -0.383147 0
M  V30 4450 N 400.565 -0.0233959 1.57583 0
M  V30 4451 C 401.495 -1.02162 2.09965 0
M  V30 4452 C 402.476 -1.3735 1.00344 0
M  V30 4453 O 403.661 -1.46135 1.27899 0
M  V30 4454 C 400.791 -2.32081 2.58371 0
M  V30 4455 C 399.745 -2.1112 3.72307 0
M  V30 4456 C 399.071 -3.46848 4.06941 0
M  V30 4457 C 400.371 -1.49276 5.00514 0
M  V30 4458 H 402.065 -0.585557 2.93618 0
M  V30 4459 H 399.611 -0.280218 1.41247 0
M  V30 4460 H 401.564 -3.02249 2.93639 0
M  V30 4461 H 400.288 -2.77758 1.71808 0
M  V30 4462 H 398.947 -1.43384 3.37397 0
M  V30 4463 H 398.595 -3.90184 3.17436 0
M  V30 4464 H 398.295 -3.33646 4.83688 0
M  V30 4465 H 399.819 -4.18369 4.44747 0
M  V30 4466 H 401.233 -2.09368 5.33702 0
M  V30 4467 H 399.63 -1.46632 5.8191 0
M  V30 4468 H 400.7 -0.459217 4.82721 0
M  V30 4469 N 402.043 -1.548 -0.295768 0
M  V30 4470 C 403.271 -1.78327 -1.04914 0
M  V30 4471 C 403.686 -0.545316 -1.80753 0
M  V30 4472 O 403.043 0.485013 -1.75937 0
M  V30 4473 C 403.094 -2.99418 -2.02561 0
M  V30 4474 O 402.815 -4.18431 -1.29798 0
M  V30 4475 C 404.316 -3.35375 -2.89895 0
M  V30 4476 H 401.536 -0.594618 -0.310918 0
M  V30 4477 H 404.08 -2.01763 -0.333454 0
M  V30 4478 H 402.235 -2.78175 -2.69624 0
M  V30 4479 H 402.649 -4.86736 -1.95419 0
M  V30 4480 H 404.123 -4.23332 -3.54251 0
M  V30 4481 H 404.6 -2.53761 -3.58472 0
M  V30 4482 H 405.206 -3.58796 -2.28355 0
M  V30 4483 N 403.521 0.559213 -1.47345 0
M  V30 4484 C 404.484 1.64854 -1.59235 0
M  V30 4485 C 405.484 1.53851 -0.467607 0
M  V30 4486 O 406.674 1.58045 -0.732617 0
M  V30 4487 C 403.806 3.04388 -1.53496 0
M  V30 4488 H 404.999 1.55662 -2.56339 0
M  V30 4489 H 402.552 0.778973 -1.35505 0
M  V30 4490 H 403.287 3.19115 -0.577604 0
M  V30 4491 H 403.072 3.13783 -2.35123 0
M  V30 4492 H 404.562 3.83642 -1.6495 0
M  V30 4493 N 404.999 1.35443 0.805782 0
M  V30 4494 C 406.248 1.28097 1.55801 0
M  V30 4495 C 406.561 -0.142428 1.95081 0
M  V30 4496 O 407.767 -0.33817 2.69386 0
M  V30 4497 C 406.223 2.24653 2.81174 0
M  V30 4498 C 405.831 3.72342 2.49129 0
M  V30 4499 C 407.575 2.2625 3.59181 0
M  V30 4500 C 405.482 4.60719 3.70799 0
M  V30 4501 H 404.412 0.475937 0.584808 0
M  V30 4502 H 407.063 1.60712 0.885661 0
M  V30 4503 H 405.445 1.85011 3.50124 0
M  V30 4504 H 406.619 4.20624 1.88181 0
M  V30 4505 H 404.934 3.73361 1.84366 0
M  V30 4506 H 407.531 2.89495 4.49552 0
M  V30 4507 H 407.874 1.26647 3.96568 0
M  V30 4508 H 408.407 2.64426 2.97193 0
M  V30 4509 H 405.146 5.61324 3.3852 0
M  V30 4510 H 404.666 4.17163 4.3097 0
M  V30 4511 H 406.345 4.76182 4.38018 0
M  V30 4512 N 406.477 -1.02803 1.19454 0
M  V30 4513 C 407.44 -2.09264 0.934955 0
M  V30 4514 C 408.44 -1.60576 -0.0849015 0
M  V30 4515 O 409.63 -1.73554 0.149933 0
M  V30 4516 C 406.762 -3.38482 0.40531 0
M  V30 4517 H 407.955 -2.33726 1.87916 0
M  V30 4518 H 405.508 -1.19426 1.00832 0
M  V30 4519 H 406.243 -3.19689 -0.544899 0
M  V30 4520 H 406.028 -3.75142 1.14065 0
M  V30 4521 H 407.518 -4.16894 0.242806 0
M  V30 4522 N 407.956 -0.998596 -1.21925 0
M  V30 4523 C 409.367 -0.711939 -1.72593 0
M  V30 4524 C 409.718 0.770842 -1.80423 0
M  V30 4525 O 408.843 1.60237 -1.4544 0
M  V30 4526 C 409.438 -1.28567 -3.13458 0
M  V30 4527 C 407.997 -1.04828 -3.61508 0
M  V30 4528 C 407.144 -1.4024 -2.39224 0
M  V30 4529 H 410.095 -1.17027 -1.07193 0
M  V30 4530 H 410.116 -0.667098 -3.74607 0
M  V30 4531 H 409.628 -2.36486 -3.07727 0
M  V30 4532 H 407.729 0.0140383 -3.72597 0
M  V30 4533 H 407.842 -1.71566 -4.47328 0
M  V30 4534 H 406.206 -0.821077 -2.41103 0
M  V30 4535 H 406.989 -2.49176 -2.36149 0
M  V30 4536 N 409.434 1.37368 -0.772513 0
M  V30 4537 C 410.659 2.0447 -0.347386 0
M  V30 4538 C 411.084 1.57882 1.0225 0
M  V30 4539 O 410.442 0.73941 1.65537 0
M  V30 4540 C 410.49 3.58369 -0.400479 0
M  V30 4541 O 409.594 4.0803 0.598789 0
M  V30 4542 H 408.935 0.646773 -0.15027 0
M  V30 4543 H 411.465 1.75667 -1.04892 0
M  V30 4544 H 411.475 4.07183 -0.258045 0
M  V30 4545 H 410.15 3.91633 -1.39986 0
M  V30 4546 H 408.727 3.70534 0.419411 0
M  V30 4547 N 410.912 0.523116 1.48665 0
M  V30 4548 C 411.845 -0.290518 2.26343 0
M  V30 4549 C 412.823 -0.950913 1.31895 0
M  V30 4550 O 414.007 -0.976662 1.61225 0
M  V30 4551 C 411.134 -1.41088 3.07915 0
M  V30 4552 C 410.18 -0.862597 4.17686 0
M  V30 4553 S 411.013 0.264135 5.34848 0
M  V30 4554 C 412.169 -0.858864 6.19979 0
M  V30 4555 H 412.402 0.368726 2.95005 0
M  V30 4556 H 409.935 0.30878 1.51281 0
M  V30 4557 H 411.893 -2.0527 3.55492 0
M  V30 4558 H 410.554 -2.04182 2.38681 0
M  V30 4559 H 409.747 -1.70287 4.74361 0
M  V30 4560 H 409.349 -0.297595 3.72814 0
M  V30 4561 H 411.641 -1.7591 6.54264 0
M  V30 4562 H 412.584 -0.330244 7.07329 0
M  V30 4563 H 412.992 -1.13617 5.52948 0
M  V30 4564 N 412.39 -1.55475 0.257931 0
M  V30 4565 C 413.618 -2.03609 -0.367559 0
M  V30 4566 C 414.033 -1.13687 -1.50734 0
M  V30 4567 O 413.39 -0.153479 -1.81853 0
M  V30 4568 C 413.441 -3.51001 -0.864908 0
M  V30 4569 O 413.162 -4.37499 0.229465 0
M  V30 4570 C 414.663 -4.14946 -1.55997 0
M  V30 4571 H 411.883 -0.665459 -0.0860521 0
M  V30 4572 H 414.427 -2.00843 0.385014 0
M  V30 4573 H 412.582 -3.54266 -1.56762 0
M  V30 4574 H 412.996 -5.24286 -0.14998 0
M  V30 4575 H 414.47 -5.19735 -1.85956 0
M  V30 4576 H 414.947 -3.6209 -2.4857 0
M  V30 4577 H 415.553 -4.15635 -0.901543 0
M  V30 4578 N 413.868 0.0150385 -1.57593 0
M  V30 4579 C 414.801 1.04475 -2.0288 0
M  V30 4580 C 415.779 1.3436 -0.915764 0
M  V30 4581 O 416.963 1.46779 -1.18271 0
M  V30 4582 C 414.09 2.37608 -2.41371 0
M  V30 4583 C 413.136 2.23487 -3.63257 0
M  V30 4584 S 413.969 1.57505 -5.11813 0
M  V30 4585 C 415.125 2.921 -5.5356 0
M  V30 4586 H 415.358 0.65907 -2.89903 0
M  V30 4587 H 412.891 0.225452 -1.52745 0
M  V30 4588 H 414.849 3.14165 -2.64217 0
M  V30 4589 H 413.51 2.7332 -1.54775 0
M  V30 4590 H 412.703 3.21802 -3.87891 0
M  V30 4591 H 412.305 1.55074 -3.40335 0
M  V30 4592 H 414.597 3.88419 -5.55101 0
M  V30 4593 H 415.54 2.72184 -6.53698 0
M  V30 4594 H 415.948 2.95318 -4.8109 0
M  V30 4595 N 415.346 1.54954 0.287554 0
M  V30 4596 C 416.762 1.46469 0.633964 0
M  V30 4597 C 416.962 0.666865 1.90145 0
M  V30 4598 O 416.018 0.179906 2.51858 0
M  V30 4599 C 417.331 2.90556 0.774454 0
M  V30 4600 C 418.879 3.00681 0.869462 0
M  V30 4601 C 419.354 4.45993 1.04184 0
M  V30 4602 N 420.845 4.4976 1.10772 0
M  V30 4603 C 421.58 5.59393 1.25964 0
M  V30 4604 N 421.076 6.78923 1.37968 0
M  V30 4605 N 422.869 5.47107 1.28959 0
M  V30 4606 H 415.02 2.05288 -0.545041 0
M  V30 4607 H 417.283 0.930305 -0.182308 0
M  V30 4608 H 416.989 3.51594 -0.086207 0
M  V30 4609 H 416.863 3.38743 1.6593 0
M  V30 4610 H 419.25 2.39749 1.7206 0
M  V30 4611 H 419.331 2.55769 -0.0396831 0
M  V30 4612 H 418.975 5.07524 0.195422 0
M  V30 4613 H 418.905 4.88548 1.96542 0
M  V30 4614 H 421.396 3.63651 1.02794 0
M  V30 4615 H 421.709 7.58231 1.49353 0
M  V30 4616 H 420.054 6.81763 1.34999 0
M  V30 4617 H 423.245 4.52668 1.19202 0
M  V30 4618 H 423.418 6.32595 1.40455 0
M  V30 4619 N 416.824 -0.551391 1.4764 0
M  V30 4620 C 418.064 -1.31901 1.56145 0
M  V30 4621 C 418.428 -1.90724 0.221013 0
M  V30 4622 O 419.629 -2.6819 0.180945 0
M  V30 4623 C 417.9 -2.39517 2.65267 0
M  V30 4624 S 419.459 -3.26289 2.93395 0
M  V30 4625 H 416.277 -0.448965 0.551318 0
M  V30 4626 H 418.879 -0.630599 1.85051 0
M  V30 4627 H 417.583 -1.94747 3.6125 0
M  V30 4628 H 417.114 -3.13092 2.38195 0
M  V30 4629 H 419.129 -4.39122 2.31055 0
M  V30 4630 N 418.302 -1.35869 -0.798587 0
M  V30 4631 C 419.551 -1.28921 -1.5512 0
M  V30 4632 C 419.864 0.13208 -1.95154 0
M  V30 4633 O 421.07 0.323879 -2.69561 0
M  V30 4634 C 419.526 -2.26141 -2.79979 0
M  V30 4635 C 419.134 -3.73658 -2.47151 0
M  V30 4636 C 420.878 -2.28152 -3.57976 0
M  V30 4637 C 418.785 -4.62679 -3.6835 0
M  V30 4638 H 417.715 -0.479031 -0.582276 0
M  V30 4639 H 420.366 -1.61179 -0.877125 0
M  V30 4640 H 418.748 -1.86865 -3.49138 0
M  V30 4641 H 419.922 -4.21616 -1.85947 0
M  V30 4642 H 418.237 -3.74333 -1.82383 0
M  V30 4643 H 420.834 -2.91875 -4.4801 0
M  V30 4644 H 421.177 -1.28748 -3.95891 0
M  V30 4645 H 421.71 -2.65998 -2.95787 0
M  V30 4646 H 418.449 -5.63111 -3.35538 0
M  V30 4647 H 417.969 -4.19442 -4.28752 0
M  V30 4648 H 419.648 -4.78498 -4.35487 0
M  V30 4649 N 419.78 1.02168 -1.19998 0
M  V30 4650 C 421.028 1.75338 -1.00504 0
M  V30 4651 C 421.349 1.89387 0.464506 0
M  V30 4652 O 420.619 1.43268 1.33608 0
M  V30 4653 H 419.199 0.649564 -0.368885 0
M  V30 4654 H 421.861 1.23205 -1.51018 0
M  V30 4655 H 420.957 2.75892 -1.45912 0
M  V30 4656 N 421.258 1.00505 1.21394 0
M  V30 4657 C 422.507 0.683159 1.89778 0
M  V30 4658 C 422.82 -0.789471 1.7896 0
M  V30 4659 O 424.026 -1.22344 2.42372 0
M  V30 4660 C 422.482 1.17146 3.40301 0
M  V30 4661 C 422.09 2.67017 3.5973 0
M  V30 4662 C 423.834 0.924461 4.14311 0
M  V30 4663 C 421.741 3.09387 5.04017 0
M  V30 4664 H 420.671 0.25183 0.710702 0
M  V30 4665 H 423.322 1.21622 1.37406 0
M  V30 4666 H 421.704 0.566451 3.91928 0
M  V30 4667 H 422.878 3.32968 3.18542 0
M  V30 4668 H 421.193 2.89732 2.99073 0
M  V30 4669 H 423.79 1.21658 5.20676 0
M  V30 4670 H 424.133 -0.139286 4.16067 0
M  V30 4671 H 424.666 1.49226 3.6875 0
M  V30 4672 H 421.405 4.14989 5.07409 0
M  V30 4673 H 420.925 2.48149 5.46061 0
M  V30 4674 H 422.604 3.01371 5.72525 0
M  V30 4675 N 422.737 -1.36956 0.779787 0
M  V30 4676 C 423.962 -2.04283 0.358224 0
M  V30 4677 C 424.387 -1.58422 -1.01411 0
M  V30 4678 O 423.745 -0.748179 -1.65142 0
M  V30 4679 C 423.793 -3.58152 0.419479 0
M  V30 4680 O 422.897 -4.08342 -0.577142 0
M  V30 4681 H 422.238 -0.645967 0.153698 0
M  V30 4682 H 424.768 -1.75108 1.05822 0
M  V30 4683 H 424.778 -4.07041 0.279636 0
M  V30 4684 H 423.453 -3.90886 1.42061 0
M  V30 4685 H 422.03 -3.70751 -0.399755 0
M  V30 4686 N 424.215 -0.530993 -1.48385 0
M  V30 4687 C 425.163 0.244595 -2.3131 0
M  V30 4688 C 426.157 0.93451 -1.41291 0
M  V30 4689 O 427.363 0.85878 -1.58193 0
M  V30 4690 H 423.738 0.0977472 -0.74562 0
M  V30 4691 H 425.709 -0.474369 -2.94605 0
M  V30 4692 C 424.458 1.2779 -3.23365 0
M  V30 4693 H 423.781 0.756439 -3.92579 0
M  V30 4694 H 425.221 1.79198 -3.84271 0
M  V30 4695 C 423.68 2.31205 -2.45042 0
M  V30 4696 O 424.21 3.37661 -2.17596 0
M  V30 4697 N 422.416 2.04446 -2.0652 0
M  V30 4698 H 421.963 1.17891 -2.2904 0
M  V30 4699 H 421.921 2.73861 -1.54427 0
M  V30 4700 N 425.693 1.55336 -0.266172 0
M  V30 4701 C 427.109 1.59356 0.0882065 0
M  V30 4702 C 427.309 1.2834 1.55342 0
M  V30 4703 O 426.365 1.03996 2.30089 0
M  V30 4704 C 427.678 2.99409 -0.278364 0
M  V30 4705 C 429.226 3.12196 -0.224243 0
M  V30 4706 C 429.701 4.545 -0.565123 0
M  V30 4707 N 431.192 4.60313 -0.51634 0
M  V30 4708 C 431.927 5.68434 -0.753013 0
M  V30 4709 N 431.423 6.84738 -1.05383 0
M  V30 4710 N 433.216 5.57942 -0.682414 0
M  V30 4711 H 425.367 1.73764 -1.22147 0
M  V30 4712 H 427.63 0.809822 -0.492841 0
M  V30 4713 H 427.336 3.2691 -1.29703 0
M  V30 4714 H 427.21 3.75228 0.385186 0
M  V30 4715 H 429.597 2.84464 0.78512 0
M  V30 4716 H 429.678 2.38609 -0.921922 0
M  V30 4717 H 429.322 4.82956 -1.57213 0
M  V30 4718 H 429.252 5.26374 0.154248 0
M  V30 4719 H 431.743 3.7676 -0.29335 0
M  V30 4720 H 432.056 7.63088 -1.22133 0
M  V30 4721 H 430.401 6.86375 -1.09151 0
M  V30 4722 H 433.592 4.65958 -0.44731 0
M  V30 4723 H 433.765 6.4213 -0.870248 0
M  V30 4724 N 427.171 -0.0066808 1.57599 0
M  V30 4725 C 428.448 -0.729586 1.81484 0
M  V30 4726 C 428.828 -1.92359 0.869558 0
M  V30 4727 O 428.176 -2.28348 -0.0832533 0
M  V30 4728 C 428.386 -1.1416 3.29801 0
M  V30 4729 C 429.734 -1.54823 3.95367 0
M  V30 4730 O 430.758 -1.23558 3.34084 0
M  V30 4731 O 429.617 -2.12937 5.03309 0
M  V30 4732 H 426.711 -0.354674 0.747085 0
M  V30 4733 H 429.257 0.0182609 1.6969 0
M  V30 4734 H 428.029 -0.290231 3.90222 0
M  V30 4735 H 427.652 -1.94876 3.46568 0
M  V30 4736 N 428.649 -1.55105 -0.279332 0
M  V30 4737 C 429.896 -1.75412 -1.01177 0
M  V30 4738 C 430.224 -0.551728 -1.86511 0
M  V30 4739 O 429.479 0.465919 -1.90073 0
M  V30 4740 C 429.778 -3.0086 -1.92919 0
M  V30 4741 C 429.444 -4.33689 -1.23387 0
M  V30 4742 C 428.106 -4.69792 -1.04159 0
M  V30 4743 C 430.458 -5.15941 -0.738562 0
M  V30 4744 C 427.786 -5.85707 -0.341166 0
M  V30 4745 C 430.138 -6.32579 -0.0517636 0
M  V30 4746 C 428.802 -6.67326 0.152292 0
M  V30 4747 H 428.072 -0.641879 -0.370233 0
M  V30 4748 H 430.719 -1.89373 -0.284627 0
M  V30 4749 H 429.024 -2.81773 -2.72234 0
M  V30 4750 H 430.721 -3.13768 -2.49701 0
M  V30 4751 H 427.311 -4.05309 -1.39364 0
M  V30 4752 H 431.495 -4.8853 -0.874764 0
M  V30 4753 H 426.751 -6.11157 -0.172287 0
M  V30 4754 H 430.925 -6.9557 0.339828 0
M  V30 4755 H 428.552 -7.56998 0.697014 0
M  V30 4756 N 430.127 0.543554 -1.4793 0
M  V30 4757 C 431.373 1.30201 -1.55485 0
M  V30 4758 C 431.706 1.92925 -0.222201 0
M  V30 4759 O 430.981 1.78586 0.77053 0
M  V30 4760 C 431.264 2.40174 -2.68307 0
M  V30 4761 C 431.117 1.8223 -4.11233 0
M  V30 4762 C 432.436 3.42024 -2.76961 0
M  V30 4763 H 429.555 0.472036 -0.565996 0
M  V30 4764 H 432.197 0.606914 -1.80046 0
M  V30 4765 H 430.347 2.99463 -2.47495 0
M  V30 4766 H 432.019 1.27096 -4.43446 0
M  V30 4767 H 430.262 1.12832 -4.18869 0
M  V30 4768 H 430.933 2.61793 -4.85972 0
M  V30 4769 H 433.409 2.92672 -2.95774 0
M  V30 4770 H 432.285 4.16383 -3.57654 0
M  V30 4771 H 432.546 4.0173 -1.84568 0
M  V30 4772 N 431.605 1.3629 0.791371 0
M  V30 4773 C 432.515 1.32606 1.93527 0
M  V30 4774 C 433.531 0.228541 1.72493 0
M  V30 4775 O 434.707 0.460571 1.96063 0
M  V30 4776 C 431.772 1.11271 3.28359 0
M  V30 4777 C 430.833 2.3048 3.62185 0
M  V30 4778 C 430.066 2.10154 4.90583 0
M  V30 4779 O 430.289 1.07572 5.60165 0
M  V30 4780 O 429.223 2.97884 5.23019 0
M  V30 4781 H 433.049 2.28909 1.99585 0
M  V30 4782 H 430.634 1.16818 0.931344 0
M  V30 4783 H 432.516 1.01283 4.09047 0
M  V30 4784 H 431.191 0.180292 3.23198 0
M  V30 4785 H 430.098 2.46036 2.81811 0
M  V30 4786 H 431.431 3.22221 3.72068 0
M  V30 4787 N 433.083 -1.0153 1.20538 0
M  V30 4788 C 434.331 -1.74803 1.01432 0
M  V30 4789 C 434.652 -1.8963 -0.454456 0
M  V30 4790 O 433.922 -1.43975 -1.32846 0
M  V30 4791 H 432.502 -0.647598 0.372324 0
M  V30 4792 H 435.164 -1.22402 1.5167 0
M  V30 4793 H 434.26 -2.75114 1.47373 0
M  V30 4794 N 434.561 -1.01147 -1.20859 0
M  V30 4795 C 435.807 -0.698899 -1.90377 0
M  V30 4796 C 436.14 0.76904 -1.78324 0
M  V30 4797 O 435.415 1.55817 -1.16409 0
M  V30 4798 C 435.698 -1.12878 -3.41951 0
M  V30 4799 C 435.551 -2.65665 -3.62963 0
M  V30 4800 C 436.87 -0.696114 -4.3456 0
M  V30 4801 H 433.989 -0.255372 -0.691342 0
M  V30 4802 H 436.631 -1.25831 -1.42361 0
M  V30 4803 H 434.781 -0.652827 -3.82976 0
M  V30 4804 H 436.453 -3.21074 -3.31224 0
M  V30 4805 H 434.696 -3.06878 -3.06608 0
M  V30 4806 H 435.367 -2.90797 -4.69192 0
M  V30 4807 H 437.843 -1.10521 -4.01154 0
M  V30 4808 H 436.719 -1.025 -5.39245 0
M  V30 4809 H 436.98 0.402465 -4.40264 0
M  V30 4810 N 436.039 1.36541 -0.78704 0
M  V30 4811 C 437.264 2.0409 -0.369053 0
M  V30 4812 C 437.689 1.58957 1.00569 0
M  V30 4813 O 437.047 0.756926 1.64743 0
M  V30 4814 C 437.095 3.57924 -0.438466 0
M  V30 4815 O 436.199 4.08642 0.555479 0
M  V30 4816 H 435.54 0.645142 -0.157122 0
M  V30 4817 H 438.07 1.74545 -1.06749 0
M  V30 4818 H 438.08 4.06887 -0.301218 0
M  V30 4819 H 436.755 3.90127 -1.44132 0
M  V30 4820 H 435.332 3.70958 0.380088 0
M  V30 4821 N 437.518 0.538854 1.48102 0
M  V30 4822 C 438.766 0.00798599 2.02098 0
M  V30 4823 C 439.087 -1.33922 1.41739 0
M  V30 4824 O 438.357 -1.86932 0.585934 0
M  V30 4825 H 436.937 -3.62179e-05 0.747 0
M  V30 4826 H 439.599 0.7047 1.81714 0
M  V30 4827 H 438.695 -0.0937672 3.11959 0
M  V30 4828 N 438.996 -1.55193 0.274407 0
M  V30 4829 C 440.244 -1.99187 -0.341902 0
M  V30 4830 C 440.565 -1.16422 -1.56431 0
M  V30 4831 O 439.835 -0.253573 -1.94252 0
M  V30 4832 H 438.415 -0.735721 -0.129317 0
M  V30 4833 H 441.077 -1.91168 0.379578 0
M  V30 4834 H 440.173 -3.05629 -0.632253 0
M  V30 4835 N 440.474 -0.00167713 -1.576 0
M  V30 4836 C 441.699 0.69739 -1.95323 0
M  V30 4837 C 442.124 1.6642 -0.876706 0
M  V30 4838 O 441.482 1.80548 0.165007 0
M  V30 4839 C 441.53 1.40403 -3.32144 0
M  V30 4840 O 440.634 2.5185 -3.26566 0
M  V30 4841 H 439.975 0.185373 -0.637599 0
M  V30 4842 H 442.505 -0.0553665 -2.04525 0
M  V30 4843 H 442.515 1.76707 -3.67748 0
M  V30 4844 H 441.19 0.695167 -4.10049 0
M  V30 4845 H 439.767 2.17861 -3.0264 0
M  V30 4846 N 441.952 1.55251 0.271103 0
M  V30 4847 C 443.198 1.7713 0.999832 0
M  V30 4848 C 443.553 0.56659 1.83868 0
M  V30 4849 O 442.846 -0.44069 1.86463 0
M  V30 4850 C 443.04 3.01879 1.91321 0
M  V30 4851 C 442.869 4.34368 1.16426 0
M  V30 4852 C 441.639 4.97593 0.879169 0
M  V30 4853 C 443.837 5.1131 0.553749 0
M  V30 4854 N 441.819 6.13813 0.103618 0
M  V30 4855 C 443.19 6.19938 -0.0875442 0
M  V30 4856 C 445.245 4.95754 0.461782 0
M  V30 4857 C 443.948 7.14703 -0.811942 0
M  V30 4858 C 445.974 5.90875 -0.249027 0
M  V30 4859 C 445.336 6.98893 -0.879051 0
M  V30 4860 H 441.435 0.700407 0.347784 0
M  V30 4861 H 444.019 1.92744 0.275314 0
M  V30 4862 H 442.19 2.87637 2.60997 0
M  V30 4863 H 443.922 3.12154 2.57569 0
M  V30 4864 H 440.677 4.58538 1.18491 0
M  V30 4865 H 441.101 6.76455 -0.271543 0
M  V30 4866 H 445.743 4.12342 0.934552 0
M  V30 4867 H 443.461 7.97634 -1.29639 0
M  V30 4868 H 447.047 5.80916 -0.320529 0
M  V30 4869 H 445.927 7.71231 -1.42031 0
M  V30 4870 N 443.43 -0.535701 1.48216 0
M  V30 4871 C 444.676 -1.29375 1.56173 0
M  V30 4872 C 445.009 -1.92804 0.232429 0
M  V30 4873 O 444.284 -1.78992 -0.761048 0
M  V30 4874 C 444.567 -2.38747 2.69577 0
M  V30 4875 C 444.42 -1.80046 4.12193 0
M  V30 4876 C 445.739 -3.40551 2.78771 0
M  V30 4877 H 442.858 -0.469027 0.568491 0
M  V30 4878 H 445.5 -0.597358 1.80365 0
M  V30 4879 H 443.65 -2.98147 2.4908 0
M  V30 4880 H 445.322 -1.24742 4.44114 0
M  V30 4881 H 443.565 -1.10609 4.19462 0
M  V30 4882 H 444.236 -2.59212 4.87353 0
M  V30 4883 H 446.712 -2.91099 2.97322 0
M  V30 4884 H 445.588 -4.1448 3.59857 0
M  V30 4885 H 445.849 -4.00746 1.86696 0
M  V30 4886 N 444.908 -1.36708 -0.784132 0
M  V30 4887 C 446.185 -1.21776 -1.53069 0
M  V30 4888 C 446.565 0.193876 -2.10208 0
M  V30 4889 O 445.913 1.20012 -1.94446 0
M  V30 4890 C 446.123 -2.30395 -2.62143 0
M  V30 4891 C 447.471 -2.67325 -3.29882 0
M  V30 4892 O 448.495 -2.29478 -2.7243 0
M  V30 4893 O 447.354 -3.32485 -4.33724 0
M  V30 4894 H 444.448 -0.474459 -0.677361 0
M  V30 4895 H 446.994 -1.48454 -0.82216 0
M  V30 4896 H 445.766 -3.2498 -2.17953 0
M  V30 4897 H 445.389 -2.05112 -3.40609 0
M  V30 4898 N 446.386 1.0089 -1.21074 0
M  V30 4899 C 447.635 1.74019 -1.01981 0
M  V30 4900 C 447.948 1.90408 0.447665 0
M  V30 4901 O 449.154 2.60707 0.757906 0
M  V30 4902 C 447.61 3.13026 -1.77603 0
M  V30 4903 C 447.218 3.04623 -3.28495 0
M  V30 4904 C 448.962 3.90312 -1.66904 0
M  V30 4905 C 446.869 4.38685 -3.96623 0
M  V30 4906 H 445.799 0.652422 -0.377971 0
M  V30 4907 H 448.45 1.12755 -1.44771 0
M  V30 4908 H 446.832 3.74878 -1.27604 0
M  V30 4909 H 448.006 2.52032 -3.85767 0
M  V30 4910 H 446.321 2.40827 -3.39693 0
M  V30 4911 H 448.918 4.8951 -2.15138 0
M  V30 4912 H 449.261 4.11558 -0.62658 0
M  V30 4913 H 449.794 3.35104 -2.14359 0
M  V30 4914 H 446.533 4.22641 -5.01054 0
M  V30 4915 H 446.053 4.91252 -3.4414 0
M  V30 4916 H 447.732 5.075 -4.01314 0
M  V30 4917 N 447.864 1.01787 1.20321 0
M  V30 4918 C 449.11 0.708985 1.90003 0
M  V30 4919 C 449.443 -0.759572 1.78729 0
M  V30 4920 O 448.718 -1.55198 1.17234 0
M  V30 4921 C 449.001 1.1469 3.41348 0
M  V30 4922 C 448.854 2.67586 3.61549 0
M  V30 4923 C 450.173 0.71915 4.34185 0
M  V30 4924 H 447.292 0.259034 0.689978 0
M  V30 4925 H 449.934 1.26584 1.41692 0
M  V30 4926 H 448.084 0.673128 3.82624 0
M  V30 4927 H 449.756 3.22826 3.29517 0
M  V30 4928 H 447.999 3.085 3.04976 0
M  V30 4929 H 448.67 2.93281 4.67643 0
M  V30 4930 H 451.146 1.12647 4.00562 0
M  V30 4931 H 450.022 1.05358 5.38694 0
M  V30 4932 H 450.283 -0.379111 4.40472 0
M  V30 4933 N 449.342 -1.36122 0.79427 0
M  V30 4934 C 450.272 -2.32551 0.210328 0
M  V30 4935 C 451.253 -1.56884 -0.657386 0
M  V30 4936 O 452.438 -1.85014 -0.590207 0
M  V30 4937 C 449.568 -3.41128 -0.651819 0
M  V30 4938 C 448.522 -4.27842 0.116395 0
M  V30 4939 C 447.848 -5.2763 -0.86666 0
M  V30 4940 C 449.148 -5.05647 1.30837 0
M  V30 4941 H 450.842 -2.81636 1.01594 0
M  V30 4942 H 448.388 -1.35407 0.489981 0
M  V30 4943 H 450.341 -4.07581 -1.07031 0
M  V30 4944 H 449.065 -2.90622 -1.49019 0
M  V30 4945 H 447.724 -3.62952 0.515915 0
M  V30 4946 H 447.372 -4.73395 -1.70019 0
M  V30 4947 H 447.072 -5.86514 -0.35705 0
M  V30 4948 H 448.596 -5.96955 -1.28361 0
M  V30 4949 H 450.01 -5.65113 0.965393 0
M  V30 4950 H 448.407 -5.73967 1.75161 0
M  V30 4951 H 449.477 -4.37006 2.10128 0
M  V30 4952 N 450.82 -0.546701 -1.47814 0
M  V30 4953 C 451.73 0.21026 -2.33656 0
M  V30 4954 C 452.746 0.922413 -1.47538 0
M  V30 4955 O 453.922 0.893652 -1.80488 0
M  V30 4956 C 450.987 1.23348 -3.24016 0
M  V30 4957 C 450.048 0.529883 -4.26017 0
M  V30 4958 C 449.281 1.50435 -5.12059 0
M  V30 4959 O 449.504 2.73837 -5.00369 0
M  V30 4960 O 448.438 1.03459 -5.92942 0
M  V30 4961 H 452.264 -0.493605 -2.99662 0
M  V30 4962 H 449.849 -0.307427 -1.46203 0
M  V30 4963 H 451.731 1.82438 -3.79861 0
M  V30 4964 H 450.406 1.91945 -2.60651 0
M  V30 4965 H 449.313 -0.101948 -3.73961 0
M  V30 4966 H 450.646 -0.11445 -4.92067 0
M  V30 4967 N 452.299 1.55045 -0.282633 0
M  V30 4968 C 453.249 2.19514 0.616249 0
M  V30 4969 C 454.233 1.16216 1.11277 0
M  V30 4970 O 455.425 1.42004 1.05659 0
M  V30 4971 C 452.554 2.92548 1.7964 0
M  V30 4972 C 451.64 4.03142 1.31671 0
M  V30 4973 N 452.031 5.0276 0.553695 0
M  V30 4974 C 450.329 4.1635 1.59903 0
M  V30 4975 C 451.03 5.80923 0.30054 0
M  V30 4976 N 450.006 5.3651 0.875116 0
M  V30 4977 H 453.808 2.93889 0.0255363 0
M  V30 4978 H 451.322 1.62169 -0.0865362 0
M  V30 4979 H 453.319 3.37188 2.45173 0
M  V30 4980 H 451.979 2.19685 2.39099 0
M  V30 4981 H 452.99 5.17512 0.20032 0
M  V30 4982 H 449.667 3.54682 2.20243 0
M  V30 4983 H 451.057 6.7118 -0.311053 0
M  V30 4984 N 453.777 0.010035 1.57597 0
M  V30 4985 C 455.025 -0.671371 1.90623 0
M  V30 4986 C 455.346 -1.73753 0.885151 0
M  V30 4987 O 454.616 -1.95752 -0.0760611 0
M  V30 4988 H 453.196 -0.250968 0.703579 0
M  V30 4989 H 455.858 0.0533325 1.94827 0
M  V30 4990 H 454.954 -1.13626 2.90681 0
M  V30 4991 N 455.255 -1.55392 -0.262866 0
M  V30 4992 C 456.48 -1.80847 -1.01533 0
M  V30 4993 C 456.905 -0.584946 -1.78774 0
M  V30 4994 O 456.263 0.465701 -1.75217 0
M  V30 4995 C 456.311 -3.03866 -1.94159 0
M  V30 4996 O 455.415 -2.79662 -3.03089 0
M  V30 4997 H 454.756 -0.597441 -0.289759 0
M  V30 4998 H 457.286 -2.02553 -0.288698 0
M  V30 4999 H 457.296 -3.32872 -2.35924 0
M  V30 5000 H 455.971 -3.92564 -1.37354 0
M  V30 5001 H 454.548 -2.61781 -2.65566 0
M  V30 5002 N 456.733 0.527833 -1.48498 0
M  V30 5003 C 457.973 1.29401 -1.58224 0
M  V30 5004 C 458.337 1.90348 -0.251327 0
M  V30 5005 O 459.538 2.67868 -0.223588 0
M  V30 5006 C 457.809 2.35266 -2.69044 0
M  V30 5007 S 459.368 3.2158 -2.98549 0
M  V30 5008 H 456.186 0.440138 -0.558391 0
M  V30 5009 H 458.788 0.601079 -1.8603 0
M  V30 5010 H 457.492 1.88975 -3.64303 0
M  V30 5011 H 457.023 3.09263 -2.43146 0
M  V30 5012 H 459.038 4.35391 -2.38011 0
M  V30 5013 N 458.211 1.37122 0.776871 0
M  V30 5014 C 459.457 1.32243 1.53752 0
M  V30 5015 C 459.79 -0.0944745 1.9397 0
M  V30 5016 O 459.065 -1.05068 1.6368 0
M  V30 5017 C 459.348 2.25681 2.80607 0
M  V30 5018 C 459.201 3.76127 2.46676 0
M  V30 5019 C 460.52 2.17657 3.82509 0
M  V30 5020 H 457.639 0.481704 0.557791 0
M  V30 5021 H 460.281 1.6778 0.891612 0
M  V30 5022 H 458.431 1.95505 3.35723 0
M  V30 5023 H 460.103 4.16877 1.97513 0
M  V30 5024 H 458.346 3.94946 1.79443 0
M  V30 5025 H 459.017 4.36933 3.37333 0
M  V30 5026 H 461.493 2.44245 3.36873 0
M  V30 5027 H 460.369 2.85185 4.69 0
M  V30 5028 H 460.63 1.16785 4.26396 0
M  V30 5029 N 459.689 -1.00246 1.21608 0
M  V30 5030 C 460.917 -1.77631 1.06089 0
M  V30 5031 C 461.332 -1.84746 -0.38916 0
M  V30 5032 O 460.689 -1.31068 -1.26994 0
M  V30 5033 C 460.74 -3.21415 1.65453 0
M  V30 5034 O 460.461 -3.14703 3.04785 0
M  V30 5035 C 461.962 -4.15289 1.55079 0
M  V30 5036 H 459.182 -0.558162 0.37242 0
M  V30 5037 H 461.726 -1.26093 1.60999 0
M  V30 5038 H 459.881 -3.70053 1.14629 0
M  V30 5039 H 460.295 -4.05056 3.33212 0
M  V30 5040 H 461.769 -5.13965 2.01355 0
M  V30 5041 H 462.246 -4.36279 0.505665 0
M  V30 5042 H 462.852 -3.72543 2.05163 0
M  V30 5043 N 461.167 -1.02423 -1.1978 0
M  V30 5044 C 462.395 -0.737456 -1.93311 0
M  V30 5045 C 462.81 0.703023 -1.75223 0
M  V30 5046 O 462.167 1.47761 -1.07112 0
M  V30 5047 C 462.218 -1.0733 -3.45199 0
M  V30 5048 O 461.939 -2.4572 -3.62702 0
M  V30 5049 C 463.44 -0.80866 -4.35862 0
M  V30 5050 H 460.66 -0.2702 -0.614193 0
M  V30 5051 H 463.204 -1.36747 -1.52054 0
M  V30 5052 H 461.359 -0.488545 -3.84307 0
M  V30 5053 H 461.773 -2.58081 -4.56612 0
M  V30 5054 H 463.247 -1.09365 -5.41057 0
M  V30 5055 H 463.724 0.257025 -4.38447 0
M  V30 5056 H 464.33 -1.37592 -4.02428 0
M  V30 5057 N 462.645 1.35699 -0.801477 0
M  V30 5058 C 463.578 2.2768 -0.153922 0
M  V30 5059 C 464.556 1.47832 0.67709 0
M  V30 5060 O 465.74 1.77104 0.645474 0
M  V30 5061 C 462.867 3.2943 0.786986 0
M  V30 5062 C 461.913 4.26485 0.0362447 0
M  V30 5063 S 462.746 5.19573 -1.2963 0
M  V30 5064 C 463.902 6.24866 -0.359705 0
M  V30 5065 H 464.135 2.82254 -0.9338 0
M  V30 5066 H 461.668 1.42421 -0.596283 0
M  V30 5067 H 463.626 3.8855 1.32436 0
M  V30 5068 H 462.287 2.73745 1.54021 0
M  V30 5069 H 461.48 4.98378 0.750668 0
M  V30 5070 H 461.082 3.71508 -0.431017 0
M  V30 5071 H 463.374 6.75957 0.456954 0
M  V30 5072 H 464.317 7.00307 -1.04768 0
M  V30 5073 H 464.725 5.64484 0.0423274 0
M  V30 5074 N 464.123 0.554532 1.47522 0
M  V30 5075 C 465.086 -0.184174 2.28459 0
M  V30 5076 C 466.086 -0.845195 1.36796 0
M  V30 5077 O 467.276 -0.701467 1.59452 0
M  V30 5078 C 464.408 -1.26903 3.16399 0
M  V30 5079 H 465.601 0.526751 2.95238 0
M  V30 5080 H 463.154 0.311375 1.53167 0
M  V30 5081 H 463.889 -2.01244 2.54306 0
M  V30 5082 H 463.674 -0.799883 3.83854 0
M  V30 5083 H 465.164 -1.78794 3.77389 0
M  V30 5084 N 465.601 -1.54893 0.290851 0
M  V30 5085 C 466.548 -2.23138 -0.58974 0
M  V30 5086 C 467.518 -1.21036 -1.13752 0
M  V30 5087 O 468.703 -1.49626 -1.18392 0
M  V30 5088 C 465.843 -2.96811 -1.76061 0
M  V30 5089 C 464.956 -4.13665 -1.24519 0
M  V30 5090 C 464.091 -4.74944 -2.3791 0
M  V30 5091 C 463.13 -5.83963 -1.83451 0
M  V30 5092 N 462.267 -6.39239 -2.90376 0
M  V30 5093 H 467.107 -2.98 -0.00114915 0
M  V30 5094 H 464.644 -1.47096 0.0112006 0
M  V30 5095 H 466.602 -3.37751 -2.44909 0
M  V30 5096 H 465.232 -2.24344 -2.32098 0
M  V30 5097 H 464.284 -3.77737 -0.449288 0
M  V30 5098 H 465.596 -4.92238 -0.806424 0
M  V30 5099 H 464.75 -5.18684 -3.14724 0
M  V30 5100 H 463.489 -3.95682 -2.85109 0
M  V30 5101 H 462.494 -5.39657 -1.05122 0
M  V30 5102 H 463.719 -6.65103 -1.37169 0
M  V30 5103 H 461.665 -5.62864 -3.36927 0
M  V30 5104 H 461.582 -7.13129 -2.50965 0
M  V30 5105 H 462.85 -6.87637 -3.67118 0
M  V30 5106 N 467.08 -0.0183926 -1.57589 0
M  V30 5107 C 468.028 0.985111 -2.10709 0
M  V30 5108 C 469.022 1.34397 -1.0312 0
M  V30 5109 O 470.228 1.32746 -1.21567 0
M  V30 5110 H 466.603 0.335418 -0.673052 0
M  V30 5111 H 468.574 0.511689 -2.9398 0
M  V30 5112 C 467.323 2.26202 -2.64061 0
M  V30 5113 H 466.646 1.9946 -3.4649 0
M  V30 5114 H 468.086 2.94652 -3.04887 0
M  V30 5115 C 466.545 2.98444 -1.5631 0
M  V30 5116 O 467.075 3.90142 -0.956674 0
M  V30 5117 N 465.281 2.6059 -1.28612 0
M  V30 5118 H 464.828 1.86101 -1.78112 0
M  V30 5119 H 464.786 3.09238 -0.567406 0
M  V30 5120 N 468.558 1.5553 0.254621 0
M  V30 5121 C 469.505 1.89666 1.31512 0
M  V30 5122 C 470.475 0.750057 1.482 0
M  V30 5123 O 471.66 1.00301 1.62309 0
M  V30 5124 C 468.8 2.19009 2.667 0
M  V30 5125 C 467.913 3.46435 2.58083 0
M  V30 5126 C 467.048 3.65386 3.85573 0
M  V30 5127 C 466.087 4.8644 3.71541 0
M  V30 5128 N 465.224 5.01952 4.90906 0
M  V30 5129 H 470.064 2.80109 1.017 0
M  V30 5130 H 467.601 1.38666 0.490938 0
M  V30 5131 H 469.559 2.34025 3.45381 0
M  V30 5132 H 468.189 1.31779 2.94676 0
M  V30 5133 H 467.241 3.39792 1.71013 0
M  V30 5134 H 468.553 4.35258 2.43622 0
M  V30 5135 H 467.707 3.80319 4.72697 0
M  V30 5136 H 466.446 2.74781 4.02922 0
M  V30 5137 H 465.451 4.71491 2.82801 0
M  V30 5138 H 466.676 5.78497 3.55694 0
M  V30 5139 H 464.622 4.14283 5.08631 0
M  V30 5140 H 464.539 5.84851 4.79046 0
M  V30 5141 H 465.807 5.21289 5.7955 0
M  V30 5142 N 470.036 -0.519951 1.48776 0
M  V30 5143 C 471.447 -1.10177 1.50725 0
M  V30 5144 C 471.798 -1.94153 0.282678 0
M  V30 5145 O 470.923 -2.07645 -0.609298 0
M  V30 5146 C 471.518 -2.00482 2.73116 0
M  V30 5147 C 470.077 -2.53862 2.77905 0
M  V30 5148 C 469.224 -1.31047 2.44381 0
M  V30 5149 H 472.175 -0.30473 1.55747 0
M  V30 5150 H 472.196 -2.8491 2.52203 0
M  V30 5151 H 471.708 -1.39335 3.62225 0
M  V30 5152 H 469.809 -3.18702 1.93029 0
M  V30 5153 H 469.922 -2.9231 3.79594 0
M  V30 5154 H 468.286 -1.62953 1.95751 0
M  V30 5155 H 469.069 -0.71637 3.35743 0
M  V30 5156 N 471.514 -1.37532 -0.769588 0
M  V30 5157 C 472.742 -1.36059 -1.55871 0
M  V30 5158 C 473.157 0.053544 -1.88724 0
M  V30 5159 O 472.514 1.01591 -1.5161 0
M  V30 5160 C 472.565 -2.20107 -2.86767 0
M  V30 5161 O 472.286 -3.56009 -2.55321 0
M  V30 5162 C 473.787 -2.26636 -3.80987 0
M  V30 5163 H 471.007 -0.465967 -0.482821 0
M  V30 5164 H 473.551 -1.80901 -0.953686 0
M  V30 5165 H 471.706 -1.78768 -3.43687 0
M  V30 5166 H 472.12 -4.0009 -3.39158 0
M  V30 5167 H 473.594 -2.89763 -4.69831 0
M  V30 5168 H 474.071 -1.2754 -4.20274 0
M  V30 5169 H 474.677 -2.68296 -3.29996 0
M  V30 5170 N 472.992 0.995999 -1.22138 0
M  V30 5171 C 473.922 2.10387 -1.01289 0
M  V30 5172 C 474.903 1.69975 0.0651454 0
M  V30 5173 O 476.088 1.9396 -0.0964628 0
M  V30 5174 C 473.218 3.42312 -0.586517 0
M  V30 5175 C 472.172 3.96558 -1.61014 0
M  V30 5176 C 471.498 5.24494 -1.0397 0
M  V30 5177 C 472.798 4.27595 -2.99933 0
M  V30 5178 H 474.492 2.28086 -1.93951 0
M  V30 5179 H 472.038 1.09607 -0.933928 0
M  V30 5180 H 473.991 4.19223 -0.427793 0
M  V30 5181 H 472.715 3.24431 0.375761 0
M  V30 5182 H 471.374 3.21776 -1.75658 0
M  V30 5183 H 471.022 5.02953 -0.0688703 0
M  V30 5184 H 470.722 5.61755 -1.72352 0
M  V30 5185 H 472.246 6.04042 -0.892494 0
M  V30 5186 H 473.66 4.95315 -2.8868 0
M  V30 5187 H 472.057 4.76021 -3.6541 0
M  V30 5188 H 473.127 3.35498 -3.50099 0
M  V30 5189 N 474.47 1.03057 1.19235 0
M  V30 5190 C 475.747 0.642608 1.84743 0
M  V30 5191 C 476.127 -0.878577 1.91948 0
M  V30 5192 O 475.475 -1.77597 1.43776 0
M  V30 5193 C 475.685 1.30665 3.23616 0
M  V30 5194 C 477.033 1.43098 3.9976 0
M  V30 5195 O 478.057 1.26396 3.3302 0
M  V30 5196 O 476.916 1.70223 5.19313 0
M  V30 5197 H 474.01 0.223573 0.796206 0
M  V30 5198 H 476.556 1.12883 1.26711 0
M  V30 5199 H 475.328 2.34544 3.13217 0
M  V30 5200 H 474.951 0.808405 3.89295 0
M  V30 5201 N 475.948 -1.35272 0.808662 0
M  V30 5202 C 477.195 -1.98709 0.390003 0
M  V30 5203 C 477.523 -1.64148 -1.04335 0
M  V30 5204 O 476.778 -0.897797 -1.73891 0
M  V30 5205 C 477.077 -3.53556 0.522798 0
M  V30 5206 C 476.743 -4.0799 1.91977 0
M  V30 5207 C 475.405 -4.22568 2.30195 0
M  V30 5208 C 477.757 -4.37442 2.83361 0
M  V30 5209 C 475.085 -4.63918 3.59162 0
M  V30 5210 C 477.437 -4.80232 4.11776 0
M  V30 5211 C 476.101 -4.93016 4.49991 0
M  V30 5212 H 475.371 -0.727127 0.142712 0
M  V30 5213 H 478.018 -1.6145 1.02985 0
M  V30 5214 H 476.323 -3.91287 -0.200494 0
M  V30 5215 H 478.02 -4.00598 0.179608 0
M  V30 5216 H 474.61 -3.97096 1.61284 0
M  V30 5217 H 478.794 -4.25731 2.55083 0
M  V30 5218 H 474.05 -4.72005 3.88615 0
M  V30 5219 H 478.224 -5.01982 4.82687 0
M  V30 5220 H 475.851 -5.24814 5.49976 0
M  V30 5221 N 477.426 -0.562348 -1.47226 0
M  V30 5222 C 478.336 0.185466 -2.33866 0
M  V30 5223 C 479.352 0.906713 -1.48508 0
M  V30 5224 O 480.528 0.874458 -1.81425 0
M  V30 5225 C 477.593 1.19904 -3.25306 0
M  V30 5226 C 476.654 0.484669 -4.26555 0
M  V30 5227 C 475.887 1.44996 -5.13626 0
M  V30 5228 O 476.11 2.68515 -5.03245 0
M  V30 5229 O 475.044 0.971642 -5.94006 0
M  V30 5230 H 478.87 -0.525361 -2.99121 0
M  V30 5231 H 476.455 -0.322916 -1.45868 0
M  V30 5232 H 478.337 1.78399 -3.81774 0
M  V30 5233 H 477.012 1.8917 -2.62672 0
M  V30 5234 H 475.919 -0.141605 -3.73832 0
M  V30 5235 H 477.252 -0.166634 -4.91918 0
M  V30 5236 N 478.904 1.54736 -0.299062 0
M  V30 5237 C 479.834 2.26409 0.571085 0
M  V30 5238 C 480.815 1.2629 1.13951 0
M  V30 5239 O 482 1.55059 1.16921 0
M  V30 5240 C 479.13 3.00338 1.74396 0
M  V30 5241 C 478.084 4.07588 1.30599 0
M  V30 5242 C 477.41 4.69222 2.56387 0
M  V30 5243 C 478.71 5.20455 0.438645 0
M  V30 5244 H 480.404 2.99388 -0.0266991 0
M  V30 5245 H 477.95 1.43993 -0.0142812 0
M  V30 5246 H 479.903 3.49198 2.35878 0
M  V30 5247 H 478.627 2.24934 2.36796 0
M  V30 5248 H 477.286 3.59575 0.71424 0
M  V30 5249 H 476.934 3.9046 3.17097 0
M  V30 5250 H 476.634 5.41653 2.27784 0
M  V30 5251 H 478.158 5.20844 3.18675 0
M  V30 5252 H 479.572 5.65221 0.959085 0
M  V30 5253 H 477.969 5.99594 0.246466 0
M  V30 5254 H 479.039 4.8192 -0.536738 0
M  V30 5255 N 480.382 0.0267497 1.57577 0
M  V30 5256 C 481.631 -0.651736 1.9088 0
M  V30 5257 C 481.944 -1.73427 0.904576 0
M  V30 5258 O 483.15 -2.46923 1.12877 0
M  V30 5259 C 481.606 -1.21048 3.38933 0
M  V30 5260 C 481.214 -0.161362 4.47709 0
M  V30 5261 C 482.958 -1.86562 3.81307 0
M  V30 5262 C 480.865 -0.731611 5.86857 0
M  V30 5263 H 479.795 -0.247198 0.712326 0
M  V30 5264 H 482.446 0.0916641 1.83271 0
M  V30 5265 H 480.828 -2.00542 3.41466 0
M  V30 5266 H 482.002 0.61094 4.56732 0
M  V30 5267 H 480.317 0.394877 4.14523 0
M  V30 5268 H 482.914 -2.30178 4.8262 0
M  V30 5269 H 483.257 -2.70735 3.16241 0
M  V30 5270 H 483.79 -1.13762 3.81186 0
M  V30 5271 H 480.529 0.0719329 6.55461 0
M  V30 5272 H 480.049 -1.47245 5.81445 0
M  V30 5273 H 481.728 -1.22208 6.35354 0
M  V30 5274 N 481.861 -1.55662 -0.24637 0
M  V30 5275 C 482.808 -1.90361 -1.30504 0
M  V30 5276 C 483.778 -0.757905 -1.47801 0
M  V30 5277 O 484.963 -1.01161 -1.61775 0
M  V30 5278 C 482.103 -2.2042 -2.65535 0
M  V30 5279 C 481.216 -3.47799 -2.56242 0
M  V30 5280 C 480.351 -3.67426 -3.8363 0
M  V30 5281 C 479.39 -4.88403 -3.68956 0
M  V30 5282 N 478.527 -5.04548 -4.88237 0
M  V30 5283 H 483.367 -2.80645 -1.00213 0
M  V30 5284 H 480.904 -1.38924 -0.483577 0
M  V30 5285 H 482.862 -2.35853 -3.44135 0
M  V30 5286 H 481.492 -1.3334 -2.93973 0
M  V30 5287 H 480.544 -3.40694 -1.69208 0
M  V30 5288 H 481.856 -4.36544 -2.4131 0
M  V30 5289 H 481.01 -3.82821 -4.70673 0
M  V30 5290 H 479.749 -2.76914 -4.01459 0
M  V30 5291 H 478.754 -4.72984 -2.80296 0
M  V30 5292 H 479.979 -5.80375 -3.52621 0
M  V30 5293 H 477.925 -4.16974 -5.06427 0
M  V30 5294 H 477.842 -5.87384 -4.75937 0
M  V30 5295 H 479.11 -5.24355 -5.76777 0
M  V30 5296 N 483.339 0.512053 -1.4905 0
M  V30 5297 C 484.567 1.29116 -1.61669 0
M  V30 5298 C 484.982 1.86655 -0.283787 0
M  V30 5299 O 484.339 1.67293 0.729331 0
M  V30 5300 C 484.39 2.4293 -2.67707 0
M  V30 5301 O 484.111 1.87758 -3.95826 0
M  V30 5302 C 485.612 3.34476 -2.90931 0
M  V30 5303 H 482.832 0.392009 -0.544583 0
M  V30 5304 H 485.376 0.615881 -1.95006 0
M  V30 5305 H 483.531 3.06308 -2.37179 0
M  V30 5306 H 483.945 2.62393 -4.54148 0
M  V30 5307 H 485.419 4.10642 -3.68886 0
M  V30 5308 H 485.896 3.90801 -2.00427 0
M  V30 5309 H 486.502 2.76874 -3.22832 0
M  V30 5310 N 484.817 1.37938 0.762283 0
M  V30 5311 C 485.727 1.36681 1.90671 0
M  V30 5312 C 486.743 0.265078 1.71969 0
M  V30 5313 O 487.919 0.502055 1.95042 0
M  V30 5314 C 484.984 1.18211 3.25925 0
M  V30 5315 C 484.045 2.3811 3.57214 0
M  V30 5316 C 483.278 2.20512 4.86014 0
M  V30 5317 O 483.501 1.19429 5.57757 0
M  V30 5318 O 482.435 3.08911 5.16583 0
M  V30 5319 H 486.261 2.33091 1.94685 0
M  V30 5320 H 483.846 1.18767 0.906356 0
M  V30 5321 H 485.728 1.09937 4.06807 0
M  V30 5322 H 484.403 0.248807 3.22742 0
M  V30 5323 H 483.31 2.51958 2.76529 0
M  V30 5324 H 484.643 3.30041 3.65149 0
M  V30 5325 N 486.295 -0.989507 1.22664 0
M  V30 5326 C 487.258 -2.06183 1.00106 0
M  V30 5327 C 488.258 -1.60765 -0.0337726 0
M  V30 5328 O 489.448 -1.72989 0.205072 0
M  V30 5329 C 486.58 -3.37021 0.51279 0
M  V30 5330 H 487.773 -2.27629 1.95256 0
M  V30 5331 H 485.326 -1.16158 1.0458 0
M  V30 5332 H 486.061 -3.21261 -0.442917 0
M  V30 5333 H 485.846 -3.71323 1.25942 0
M  V30 5334 H 487.336 -4.1591 0.375315 0
M  V30 5335 N 487.773 -1.03688 -1.18687 0
M  V30 5336 C 488.72 -0.624624 -2.22187 0
M  V30 5337 C 489.69 0.365636 -1.62026 0
M  V30 5338 O 490.875 0.260481 -1.89014 0
M  V30 5339 C 488.015 0.0101738 -3.45099 0
M  V30 5340 C 487.128 -1.02709 -4.19613 0
M  V30 5341 C 486.263 -0.361213 -5.2997 0
M  V30 5342 C 485.302 -1.38384 -5.96252 0
M  V30 5343 N 484.439 -0.743196 -6.98155 0
M  V30 5344 H 489.279 -1.51176 -2.56807 0
M  V30 5345 H 486.816 -0.75636 -1.26165 0
M  V30 5346 H 488.774 0.395528 -4.15321 0
M  V30 5347 H 487.404 0.860848 -3.1111 0
M  V30 5348 H 486.456 -1.53043 -3.48256 0
M  V30 5349 H 487.768 -1.80398 -4.65036 0
M  V30 5350 H 486.922 0.0785537 -6.06649 0
M  V30 5351 H 485.661 0.447799 -4.8564 0
M  V30 5352 H 484.666 -1.83378 -5.18317 0
M  V30 5353 H 485.891 -2.19448 -6.42666 0
M  V30 5354 H 483.837 0.0455789 -6.55984 0
M  V30 5355 H 483.754 -1.45784 -7.41811 0
M  V30 5356 H 485.022 -0.327698 -7.78811 0
M  V30 5357 N 489.251 1.34841 -0.815825 0
M  V30 5358 C 490.183 2.28409 -0.190265 0
M  V30 5359 C 491.196 1.50705 0.615771 0
M  V30 5360 O 492.385 1.72822 0.446616 0
M  V30 5361 C 489.485 3.30441 0.752446 0
M  V30 5362 C 488.658 4.37399 -0.00922152 0
M  V30 5363 C 487.717 5.19234 0.853351 0
M  V30 5364 O 486.743 5.68404 0.300919 0
M  V30 5365 N 487.945 5.38248 2.17416 0
M  V30 5366 H 490.71 2.82732 -0.994114 0
M  V30 5367 H 488.271 1.47289 -0.672129 0
M  V30 5368 H 490.263 3.82084 1.33394 0
M  V30 5369 H 488.833 2.76565 1.45707 0
M  V30 5370 H 488.053 3.86567 -0.771979 0
M  V30 5371 H 489.341 5.05992 -0.533807 0
M  V30 5372 H 488.739 4.99961 2.6468 0
M  V30 5373 H 487.296 5.93035 2.70467 0
M  V30 5374 N 490.729 0.570148 1.46925 0
M  V30 5375 C 492.14 0.1402 1.86173 0
M  V30 5376 C 492.491 -1.29347 1.47526 0
M  V30 5377 O 491.616 -1.97508 0.884292 0
M  V30 5378 C 492.211 0.247661 3.37894 0
M  V30 5379 C 490.77 -0.127332 3.76185 0
M  V30 5380 C 489.917 0.589349 2.70965 0
M  V30 5381 H 492.868 0.779117 1.38259 0
M  V30 5382 H 492.889 -0.530341 3.76786 0
M  V30 5383 H 492.401 1.29121 3.65991 0
M  V30 5384 H 490.502 -1.17149 3.53704 0
M  V30 5385 H 490.615 0.240238 4.78497 0
M  V30 5386 H 488.979 0.0309824 2.54681 0
M  V30 5387 H 489.762 1.6343 3.01903 0
M  V30 5388 N 492.207 -1.54576 0.307264 0
M  V30 5389 C 493.17 -2.22423 -0.553224 0
M  V30 5390 C 494.17 -1.21231 -1.05639 0
M  V30 5391 O 495.36 -1.45923 -0.951419 0
M  V30 5392 C 492.492 -2.91552 -1.76664 0
M  V30 5393 H 493.685 -2.99874 0.0396484 0
M  V30 5394 H 491.238 -1.56192 0.0581629 0
M  V30 5395 H 491.973 -2.18196 -2.39918 0
M  V30 5396 H 491.758 -3.65738 -1.41343 0
M  V30 5397 H 493.248 -3.43292 -2.37783 0
M  V30 5398 N 493.685 -0.035106 -1.57561 0
M  V30 5399 C 494.913 0.652258 -1.9635 0
M  V30 5400 C 495.328 1.65317 -0.911897 0
M  V30 5401 O 494.685 1.82194 0.105657 0
M  V30 5402 C 494.736 1.35337 -3.35211 0
M  V30 5403 O 494.457 0.392548 -4.36338 0
M  V30 5404 C 495.958 2.13199 -3.88666 0
M  V30 5405 H 493.178 0.179444 -0.646561 0
M  V30 5406 H 495.722 -0.0966459 -2.04271 0
M  V30 5407 H 493.877 2.05362 -3.28489 0
M  V30 5408 H 494.291 0.891097 -5.16875 0
M  V30 5409 H 495.765 2.577 -4.88154 0
M  V30 5410 H 496.242 2.97353 -3.23231 0
M  V30 5411 H 496.848 1.48118 -3.98674 0
M  V30 5412 N 495.163 1.55791 0.238111 0
M  V30 5413 C 496.093 1.94068 1.29846 0
M  V30 5414 C 497.074 0.806726 1.49753 0
M  V30 5415 O 498.259 1.06772 1.62214 0
M  V30 5416 C 495.389 2.24302 2.65153 0
M  V30 5417 C 494.343 3.40032 2.59927 0
M  V30 5418 C 493.669 3.55829 3.99111 0
M  V30 5419 C 494.969 4.75476 2.16148 0
M  V30 5420 H 496.663 2.82887 0.980563 0
M  V30 5421 H 494.209 1.36105 0.470253 0
M  V30 5422 H 496.162 2.4967 3.39475 0
M  V30 5423 H 494.886 1.32318 2.98596 0
M  V30 5424 H 493.545 3.14687 1.88063 0
M  V30 5425 H 493.193 2.6125 4.29834 0
M  V30 5426 H 492.893 4.3366 3.96501 0
M  V30 5427 H 494.417 3.83528 4.7512 0
M  V30 5428 H 495.831 5.00158 2.80205 0
M  V30 5429 H 494.228 5.56472 2.24631 0
M  V30 5430 H 495.298 4.71946 1.11333 0
M  V30 5431 N 496.642 -0.504142 1.49319 0
M  V30 5432 C 498.058 -0.835039 1.36012 0
M  V30 5433 C 498.258 -1.97674 0.390808 0
M  V30 5434 O 497.314 -2.51867 -0.178655 0
M  V30 5435 C 498.627 -1.17821 2.76656 0
M  V30 5436 C 500.175 -1.2866 2.85334 0
M  V30 5437 C 500.65 -1.66307 4.26739 0
M  V30 5438 N 502.141 -1.73362 4.29534 0
M  V30 5439 C 502.876 -2.0393 5.35911 0
M  V30 5440 N 502.372 -2.32744 6.52535 0
M  V30 5441 N 504.165 -2.05155 5.23324 0
M  V30 5442 H 496.316 0.248764 2.10938 0
M  V30 5443 H 498.579 0.0486962 0.946748 0
M  V30 5444 H 498.285 -0.412682 3.4927 0
M  V30 5445 H 498.159 -2.12239 3.11825 0
M  V30 5446 H 500.546 -2.04285 2.1296 0
M  V30 5447 H 500.627 -0.323004 2.53752 0
M  V30 5448 H 500.271 -0.91234 4.99639 0
M  V30 5449 H 500.201 -2.63761 4.55782 0
M  V30 5450 H 502.692 -1.53268 3.45424 0
M  V30 5451 H 503.005 -2.55248 7.2943 0
M  V30 5452 H 501.35 -2.30207 6.55767 0
M  V30 5453 H 504.541 -1.82119 4.3122 0
M  V30 5454 H 504.714 -2.28644 6.06322 0
M  V30 5455 N 498.12 -1.38341 -0.754957 0
M  V30 5456 C 499.067 -1.3546 -1.86867 0
M  V30 5457 C 500.037 -0.217369 -1.64672 0
M  V30 5458 O 501.222 -0.409383 -1.86356 0
M  V30 5459 C 498.362 -1.18413 -3.24149 0
M  V30 5460 C 497.475 -2.41511 -3.58185 0
M  V30 5461 C 496.61 -2.17205 -4.84763 0
M  V30 5462 C 495.649 -3.36081 -5.11582 0
M  V30 5463 N 494.786 -3.11219 -6.29354 0
M  V30 5464 H 499.626 -2.30672 -1.88664 0
M  V30 5465 H 497.163 -1.14607 -0.922154 0
M  V30 5466 H 499.121 -1.06545 -4.03366 0
M  V30 5467 H 497.751 -0.268397 -3.21682 0
M  V30 5468 H 496.803 -2.64056 -2.73822 0
M  V30 5469 H 498.115 -3.30115 -3.73932 0
M  V30 5470 H 497.269 -2.02465 -5.7192 0
M  V30 5471 H 496.008 -1.25964 -4.71152 0
M  V30 5472 H 495.013 -3.51341 -4.22894 0
M  V30 5473 H 496.238 -4.28196 -5.27091 0
M  V30 5474 H 494.184 -2.22624 -6.17069 0
M  V30 5475 H 494.101 -3.93373 -6.45596 0
M  V30 5476 H 495.369 -3.00132 -7.19403 0
M  V30 5477 N 499.598 0.982988 -1.23187 0
M  V30 5478 C 500.828 1.75666 -1.08743 0
M  V30 5479 C 501.236 1.85662 0.364195 0
M  V30 5480 O 500.579 1.33317 1.26382 0
M  V30 5481 C 500.641 3.20144 -1.63549 0
M  V30 5482 C 500.305 3.33665 -3.12277 0
M  V30 5483 C 501.302 3.20194 -4.096 0
M  V30 5484 C 498.987 3.58397 -3.51933 0
M  V30 5485 C 500.981 3.31256 -5.44563 0
M  V30 5486 C 498.668 3.69098 -4.87042 0
M  V30 5487 C 499.666 3.55537 -5.83166 0
M  V30 5488 O 499.354 3.65864 -7.1582 0
M  V30 5489 H 499.086 0.558194 -0.381307 0
M  V30 5490 H 501.64 1.24387 -1.63454 0
M  V30 5491 H 499.87 3.72659 -1.03256 0
M  V30 5492 H 501.559 3.79262 -1.4462 0
M  V30 5493 H 502.325 3.00987 -3.80305 0
M  V30 5494 H 498.204 3.68025 -2.77631 0
M  V30 5495 H 501.748 3.20588 -6.19572 0
M  V30 5496 H 497.645 3.87814 -5.16014 0
M  V30 5497 H 498.413 3.82675 -7.23534 0
M  V30 5498 N 501.076 1.04316 1.18135 0
M  V30 5499 C 502.316 0.756937 1.89868 0
M  V30 5500 C 502.68 -0.702609 1.78682 0
M  V30 5501 O 503.881 -1.10255 2.45148 0
M  V30 5502 C 502.152 1.21327 3.36176 0
M  V30 5503 S 503.711 1.05307 4.25976 0
M  V30 5504 H 500.529 0.275143 0.655604 0
M  V30 5505 H 503.131 1.33597 1.42731 0
M  V30 5506 H 501.835 2.27086 3.41848 0
M  V30 5507 H 501.366 0.628137 3.88353 0
M  V30 5508 H 503.381 -0.0280093 4.96192 0
M  V30 5509 N 502.554 -1.34406 0.822964 0
M  V30 5510 C 503.803 -1.97542 0.407458 0
M  V30 5511 C 504.116 -1.65973 -1.035 0
M  V30 5512 O 505.322 -2.22598 -1.55442 0
M  V30 5513 C 503.778 -3.53463 0.677623 0
M  V30 5514 C 503.386 -3.93925 2.1337 0
M  V30 5515 C 505.13 -4.23229 0.328284 0
M  V30 5516 C 503.037 -5.42759 2.34876 0
M  V30 5517 H 501.967 -0.739207 0.148623 0
M  V30 5518 H 504.618 -1.53248 1.00932 0
M  V30 5519 H 503 -3.96 0.00558965 0
M  V30 5520 H 504.174 -3.62494 2.8449 0
M  V30 5521 H 502.489 -3.37097 2.44448 0
M  V30 5522 H 505.086 -5.32659 0.466794 0
M  V30 5523 H 505.429 -4.09899 -0.727224 0
M  V30 5524 H 505.962 -3.86169 0.954896 0
M  V30 5525 H 502.701 -5.61075 3.38932 0
M  V30 5526 H 502.221 -5.75704 1.68299 0
M  V30 5527 H 503.9 -6.0944 2.17236 0
M  V30 5528 N 504.032 -0.577932 -1.46621 0
M  V30 5529 C 504.942 0.160651 -2.34049 0
M  V30 5530 C 505.958 0.890911 -1.49462 0
M  V30 5531 O 507.134 0.855166 -1.82343 0
M  V30 5532 C 504.199 1.16447 -3.26559 0
M  V30 5533 C 503.26 0.4394 -4.27045 0
M  V30 5534 C 502.493 1.3954 -5.15135 0
M  V30 5535 O 502.716 2.63162 -5.06065 0
M  V30 5536 O 501.65 0.908585 -5.95003 0
M  V30 5537 H 505.476 -0.557057 -2.98547 0
M  V30 5538 H 503.061 -0.338369 -1.45518 0
M  V30 5539 H 504.943 1.7434 -3.83645 0
M  V30 5540 H 503.618 1.86373 -2.64663 0
M  V30 5541 H 502.525 -0.181247 -3.73661 0
M  V30 5542 H 503.858 -0.218799 -4.91713 0
M  V30 5543 N 505.51 1.54411 -0.315457 0
M  V30 5544 C 506.473 2.22713 0.54142 0
M  V30 5545 C 507.473 1.2179 1.04995 0
M  V30 5546 O 508.663 1.46426 0.943667 0
M  V30 5547 C 505.795 2.92485 1.75116 0
M  V30 5548 H 506.988 2.99849 -0.0555508 0
M  V30 5549 H 504.541 1.56159 -0.0664453 0
M  V30 5550 H 505.276 2.19466 2.38758 0
M  V30 5551 H 505.061 3.66483 1.39401 0
M  V30 5552 H 506.551 3.44548 2.35959 0
M  V30 5553 N 506.988 0.0434614 1.5754 0
M  V30 5554 C 507.935 -0.93356 2.11077 0
M  V30 5555 C 508.905 -1.31383 1.01626 0
M  V30 5556 O 510.09 -1.40465 1.29129 0
M  V30 5557 C 507.23 -2.20578 2.65404 0
M  V30 5558 C 506.343 -1.88068 3.88914 0
M  V30 5559 C 505.478 -3.09691 4.31584 0
M  V30 5560 C 504.517 -2.73067 5.47815 0
M  V30 5561 N 503.654 -3.87359 5.85574 0
M  V30 5562 H 508.494 -0.470118 2.94268 0
M  V30 5563 H 506.031 -0.220434 1.45439 0
M  V30 5564 H 507.989 -2.95011 2.94999 0
M  V30 5565 H 506.619 -2.64513 1.85021 0
M  V30 5566 H 505.671 -1.03816 3.6596 0
M  V30 5567 H 506.983 -1.57104 4.73413 0
M  V30 5568 H 506.137 -3.92431 4.62691 0
M  V30 5569 H 504.876 -3.43827 3.45882 0
M  V30 5570 H 503.881 -1.88742 5.16388 0
M  V30 5571 H 505.106 -2.40131 6.35227 0
M  V30 5572 H 503.052 -4.21311 5.02825 0
M  V30 5573 H 502.969 -3.60068 6.64746 0
M  V30 5574 H 504.237 -4.70761 6.21292 0
M  V30 5575 N 508.466 -1.55915 -0.229846 0
M  V30 5576 C 509.396 -1.94754 -1.28815 0
M  V30 5577 C 510.377 -0.814657 -1.49323 0
M  V30 5578 O 511.562 -1.07631 -1.61645 0
M  V30 5579 C 508.692 -2.25705 -2.63959 0
M  V30 5580 C 507.646 -3.41406 -2.5812 0
M  V30 5581 C 506.972 -3.57941 -3.97218 0
M  V30 5582 C 508.272 -4.76616 -2.13623 0
M  V30 5583 H 509.966 -2.83404 -0.965547 0
M  V30 5584 H 507.512 -1.36353 -0.463028 0
M  V30 5585 H 509.465 -2.51467 -3.38146 0
M  V30 5586 H 508.189 -1.339 -2.9789 0
M  V30 5587 H 506.848 -3.1568 -1.86391 0
M  V30 5588 H 506.496 -2.63526 -4.28443 0
M  V30 5589 H 506.196 -4.35757 -3.94195 0
M  V30 5590 H 507.72 -3.86042 -4.73079 0
M  V30 5591 H 509.134 -5.01637 -2.77549 0
M  V30 5592 H 507.531 -5.57655 -2.21677 0
M  V30 5593 H 508.601 -4.7253 -1.08829 0
M  V30 5594 N 509.944 0.496216 -1.49584 0
M  V30 5595 C 511.172 1.27394 -1.63029 0
M  V30 5596 C 511.587 1.86344 -0.303569 0
M  V30 5597 O 510.944 1.68057 0.711547 0
M  V30 5598 C 510.995 2.40077 -2.70269 0
M  V30 5599 O 510.716 1.83549 -3.97796 0
M  V30 5600 C 512.217 3.31372 -2.94462 0
M  V30 5601 H 509.437 0.386211 -0.54871 0
M  V30 5602 H 511.981 0.595163 -1.95648 0
M  V30 5603 H 510.136 3.03775 -2.40415 0
M  V30 5604 H 510.55 2.57561 -4.56905 0
M  V30 5605 H 512.024 4.06707 -3.73221 0
M  V30 5606 H 512.501 3.88654 -2.0456 0
M  V30 5607 H 513.107 2.73435 -3.25751 0
M  V30 5608 N 511.423 1.38739 0.74761 0
M  V30 5609 C 512.371 1.36573 1.88283 0
M  V30 5610 C 513.365 0.250712 1.67534 0
M  V30 5611 O 514.571 0.420073 1.7503 0
M  V30 5612 H 510.946 0.42619 0.619569 0
M  V30 5613 H 512.917 2.32356 1.87226 0
M  V30 5614 C 511.666 1.21361 3.25832 0
M  V30 5615 H 510.989 2.06424 3.42388 0
M  V30 5616 H 512.429 1.23901 4.05493 0
M  V30 5617 C 510.888 -0.0790099 3.36807 0
M  V30 5618 O 511.418 -1.05385 3.8763 0
M  V30 5619 N 509.624 -0.13785 2.90273 0
M  V30 5620 H 509.171 0.656128 2.49104 0
M  V30 5621 H 509.129 -1.00228 2.97996 0
M  V30 5622 N 512.901 -0.976442 1.23707 0
M  V30 5623 C 514.129 -1.75341 1.09833 0
M  V30 5624 C 514.544 -1.8553 -0.349885 0
M  V30 5625 O 513.901 -1.33732 -1.24185 0
M  V30 5626 C 513.952 -3.17833 1.72233 0
M  V30 5627 O 513.673 -3.08167 3.11391 0
M  V30 5628 C 515.174 -4.11906 1.63853 0
M  V30 5629 H 512.394 -0.550137 0.384175 0
M  V30 5630 H 514.938 -1.2265 1.63638 0
M  V30 5631 H 513.093 -3.67538 1.22452 0
M  V30 5632 H 513.507 -3.97897 3.41729 0
M  V30 5633 H 514.981 -5.09579 2.12211 0
M  V30 5634 H 515.458 -4.35109 0.598092 0
M  V30 5635 H 516.064 -3.68107 2.13019 0
M  V30 5636 N 514.379 -1.04941 -1.1758 0
M  V30 5637 C 515.607 -0.778294 -1.91703 0
M  V30 5638 C 516.022 0.665697 -1.76675 0
M  V30 5639 O 515.379 1.45456 -1.10222 0
M  V30 5640 C 515.43 -1.14628 -3.42845 0
M  V30 5641 O 515.151 -2.53359 -3.57409 0
M  V30 5642 C 516.652 -0.900931 -4.34049 0
M  V30 5643 H 513.872 -0.283167 -0.608323 0
M  V30 5644 H 516.416 -1.39942 -1.49119 0
M  V30 5645 H 514.571 -0.569953 -3.83184 0
M  V30 5646 H 514.985 -2.67709 -4.51035 0
M  V30 5647 H 516.459 -1.20817 -5.38616 0
M  V30 5648 H 516.936 0.163966 -4.38894 0
M  V30 5649 H 517.542 -1.46097 -3.99419 0
M  V30 5650 N 515.857 1.33968 -0.830081 0
M  V30 5651 C 517.085 2.0228 -0.434773 0
M  V30 5652 C 517.5 1.62487 0.961419 0
M  V30 5653 O 516.857 0.833849 1.62337 0
M  V30 5654 C 516.908 3.5751 -0.535625 0
M  V30 5655 O 516.629 3.95864 -1.87679 0
M  V30 5656 C 518.13 4.43091 -0.136137 0
M  V30 5657 H 515.35 0.648151 -0.173613 0
M  V30 5658 H 517.894 1.71089 -1.12022 0
M  V30 5659 H 516.049 3.87266 0.101817 0
M  V30 5660 H 516.463 4.9056 -1.85609 0
M  V30 5661 H 517.937 5.51398 -0.257772 0
M  V30 5662 H 518.414 4.29433 0.921076 0
M  V30 5663 H 519.02 4.18677 -0.747662 0
M  V30 5664 N 517.335 0.585699 1.46312 0
M  V30 5665 C 518.612 0.00542031 1.95599 0
M  V30 5666 C 518.992 -1.45619 1.52834 0
M  V30 5667 O 518.34 -2.14759 0.780446 0
M  V30 5668 C 518.55 0.180601 3.48532 0
M  V30 5669 C 519.898 0.049979 4.24571 0
M  V30 5670 O 520.922 0.109589 3.56031 0
M  V30 5671 O 519.781 -0.0832226 5.46437 0
M  V30 5672 H 516.875 -0.0481281 0.825598 0
M  V30 5673 H 519.421 0.654227 1.56582 0
M  V30 5674 H 518.193 1.19657 3.72556 0
M  V30 5675 H 517.816 -0.504498 3.94386 0
M  V30 5676 N 518.813 -1.54241 0.323641 0
M  V30 5677 C 520.038 -2.05452 -0.283605 0
M  V30 5678 C 520.463 -1.19823 -1.44997 0
M  V30 5679 O 519.821 -0.207358 -1.8011 0
M  V30 5680 C 519.869 -3.53823 -0.695795 0
M  V30 5681 O 518.973 -3.71134 -1.79815 0
M  V30 5682 H 518.314 -0.662024 -0.0511917 0
M  V30 5683 H 520.844 -1.99079 0.472073 0
M  V30 5684 H 520.854 -3.96094 -0.978434 0
M  V30 5685 H 519.529 -4.15602 0.157287 0
M  V30 5686 H 518.106 -3.40768 -1.51431 0
M  V30 5687 N 520.291 -0.0518155 -1.57515 0
M  V30 5688 C 521.707 0.304735 -1.56664 0
M  V30 5689 C 521.907 1.71395 -1.05953 0
M  V30 5690 O 520.963 2.42123 -0.716414 0
M  V30 5691 C 522.276 0.132614 -3.00407 0
M  V30 5692 C 523.824 0.20367 -3.12337 0
M  V30 5693 C 524.299 0.0600706 -4.57961 0
M  V30 5694 N 525.79 0.116326 -4.63054 0
M  V30 5695 C 526.525 0.0293363 -5.73392 0
M  V30 5696 N 526.021 -0.110038 -6.92713 0
M  V30 5697 N 527.814 0.0849651 -5.62036 0
M  V30 5698 H 519.965 -0.973056 -1.888 0
M  V30 5699 H 522.228 -0.377781 -0.869474 0
M  V30 5700 H 521.934 -0.839019 -3.41546 0
M  V30 5701 H 521.808 0.893376 -3.66468 0
M  V30 5702 H 524.195 1.16578 -2.71097 0
M  V30 5703 H 524.276 -0.587857 -2.48954 0
M  V30 5704 H 523.92 -0.898715 -4.99886 0
M  V30 5705 H 523.85 0.87075 -5.19351 0
M  V30 5706 H 526.341 0.22327 -3.7724 0
M  V30 5707 H 526.654 -0.169104 -7.72615 0
M  V30 5708 H 524.999 -0.145132 -6.94848 0
M  V30 5709 H 528.19 0.192411 -4.67704 0
M  V30 5710 H 528.363 0.0137131 -6.47999 0
M  V30 5711 N 521.769 1.56035 0.221574 0
M  V30 5712 C 523.009 1.80822 0.953038 0
M  V30 5713 C 523.373 0.625316 1.81532 0
M  V30 5714 O 524.574 0.752491 2.58052 0
M  V30 5715 C 522.845 3.10503 1.76983 0
M  V30 5716 S 524.404 3.56604 2.55693 0
M  V30 5717 H 521.222 0.634849 0.320137 0
M  V30 5718 H 523.824 1.94274 0.218619 0
M  V30 5719 H 522.528 3.94636 1.12651 0
M  V30 5720 H 522.059 2.99858 2.54655 0
M  V30 5721 H 524.074 3.1994 3.79279 0
M  V30 5722 N 523.247 -0.488276 1.49845 0
M  V30 5723 C 524.658 -1.06955 1.53028 0
M  V30 5724 C 525.009 -1.9351 0.323797 0
M  V30 5725 O 524.134 -2.08891 -0.565116 0
M  V30 5726 C 524.729 -1.94643 2.77307 0
M  V30 5727 C 523.288 -2.4791 2.83227 0
M  V30 5728 C 522.435 -1.25833 2.47106 0
M  V30 5729 H 525.386 -0.271626 1.56358 0
M  V30 5730 H 525.407 -2.79496 2.5819 0
M  V30 5731 H 524.919 -1.31621 3.65099 0
M  V30 5732 H 523.02 -3.14535 1.99745 0
M  V30 5733 H 523.133 -2.84193 3.85709 0
M  V30 5734 H 521.497 -1.58764 1.99163 0
M  V30 5735 H 522.28 -0.644993 3.37186 0
M  V30 5736 N 524.725 -1.39134 -0.740242 0
M  V30 5737 C 525.953 -1.39334 -1.5295 0
M  V30 5738 C 526.368 0.0135008 -1.88795 0
M  V30 5739 O 525.725 0.983524 -1.5373 0
M  V30 5740 C 525.776 -2.2614 -2.82034 0
M  V30 5741 O 525.497 -3.61345 -2.47712 0
M  V30 5742 C 526.998 -2.34666 -3.76094 0
M  V30 5743 H 524.218 -0.476103 -0.472828 0
M  V30 5744 H 526.762 -1.82883 -0.9151 0
M  V30 5745 H 524.917 -1.86018 -3.39818 0
M  V30 5746 H 525.331 -4.07194 -3.30595 0
M  V30 5747 H 526.805 -2.99663 -4.63579 0
M  V30 5748 H 527.282 -1.36426 -4.17474 0
M  V30 5749 H 527.888 -2.75236 -3.2423 0
M  V30 5750 N 526.204 0.969867 -1.24223 0
M  V30 5751 C 527.136 2.0669 -0.99055 0
M  V30 5752 C 528.149 1.62753 0.0392222 0
M  V30 5753 O 529.338 1.77403 -0.197561 0
M  V30 5754 C 526.438 3.35589 -0.472594 0
M  V30 5755 C 525.611 4.08444 -1.56499 0
M  V30 5756 C 524.67 5.15616 -1.05007 0
M  V30 5757 O 523.696 5.41911 -1.7413 0
M  V30 5758 N 524.898 5.80383 0.116641 0
M  V30 5759 H 527.663 2.28855 -1.93508 0
M  V30 5760 H 525.224 1.13733 -1.15223 0
M  V30 5761 H 527.216 4.04542 -0.112919 0
M  V30 5762 H 525.786 3.10311 0.377617 0
M  V30 5763 H 525.006 3.33798 -2.09696 0
M  V30 5764 H 526.294 4.53882 -2.29932 0
M  V30 5765 H 525.692 5.6142 0.694589 0
M  V30 5766 H 524.249 6.50462 0.417483 0
M  V30 5767 N 527.682 1.05563 1.17022 0
M  V30 5768 C 528.93 0.76642 1.87004 0
M  V30 5769 C 529.251 -0.708854 1.8166 0
M  V30 5770 O 528.521 -1.51242 1.2451 0
M  V30 5771 H 527.101 0.280516 0.692329 0
M  V30 5772 H 529.763 1.33557 1.41945 0
M  V30 5773 H 528.859 1.08472 2.92644 0
M  V30 5774 N 529.16 -1.33526 0.837174 0
M  V30 5775 C 530.07 -2.33023 0.271568 0
M  V30 5776 C 531.086 -1.63272 -0.601514 0
M  V30 5777 O 532.262 -1.94939 -0.506038 0
M  V30 5778 C 529.327 -3.42382 -0.545448 0
M  V30 5779 C 528.388 -4.27857 0.351709 0
M  V30 5780 C 527.621 -5.31994 -0.426409 0
M  V30 5781 O 527.844 -5.45763 -1.65828 0
M  V30 5782 O 526.778 -6.01572 0.1987 0
M  V30 5783 H 530.604 -2.83256 1.09545 0
M  V30 5784 H 528.189 -1.36837 0.599655 0
M  V30 5785 H 530.071 -4.09122 -1.00979 0
M  V30 5786 H 528.746 -2.94369 -1.34641 0
M  V30 5787 H 527.653 -3.6399 0.863853 0
M  V30 5788 H 528.986 -4.79349 1.1174 0
M  V30 5789 N 530.638 -0.59345 -1.46 0
M  V30 5790 C 532.049 -0.169801 -1.85926 0
M  V30 5791 C 532.4 1.26984 -1.49565 0
M  V30 5792 O 531.525 1.96076 -0.915602 0
M  V30 5793 C 532.12 -0.301385 -3.37457 0
M  V30 5794 C 530.679 0.0674684 -3.7634 0
M  V30 5795 C 529.826 -0.632383 -2.69993 0
M  V30 5796 H 532.777 -0.801014 -1.37002 0
M  V30 5797 H 532.798 0.470331 -3.77582 0
M  V30 5798 H 532.31 -1.34927 -3.63891 0
M  V30 5799 H 530.411 1.11507 -3.55523 0
M  V30 5800 H 530.524 -0.316332 -4.78055 0
M  V30 5801 H 528.888 -0.0714961 -2.546 0
M  V30 5802 H 529.671 -1.68212 -2.99265 0
M  V30 5803 N 532.116 1.54067 -0.331816 0
M  V30 5804 C 533.344 2.05131 0.269996 0
M  V30 5805 C 533.759 1.20749 1.45138 0
M  V30 5806 O 533.116 0.240069 1.80914 0
M  V30 5807 C 533.167 3.54728 0.696456 0
M  V30 5808 O 532.888 4.35906 -0.43794 0
M  V30 5809 C 534.389 4.21916 1.36021 0
M  V30 5810 H 531.609 0.668807 0.0542042 0
M  V30 5811 H 534.153 1.98777 -0.4804 0
M  V30 5812 H 532.308 3.61342 1.39681 0
M  V30 5813 H 532.722 5.24404 -0.100334 0
M  V30 5814 H 534.196 5.28015 1.60947 0
M  V30 5815 H 534.673 3.73538 2.31011 0
M  V30 5816 H 535.279 4.19463 0.702212 0
M  V30 5817 N 533.594 0.0601682 1.57485 0
M  V30 5818 C 534.524 -0.90889 2.15085 0
M  V30 5819 C 535.505 -1.31838 1.07484 0
M  V30 5820 O 536.69 -1.3915 1.35466 0
M  V30 5821 C 533.82 -2.18059 2.7031 0
M  V30 5822 C 532.774 -1.91088 3.82974 0
M  V30 5823 C 532.1 -3.24789 4.24754 0
M  V30 5824 C 533.4 -1.22535 5.07723 0
M  V30 5825 H 535.094 -0.429093 2.96309 0
M  V30 5826 H 532.64 -0.204952 1.42534 0
M  V30 5827 H 534.593 -2.86258 3.09248 0
M  V30 5828 H 533.317 -2.6826 1.8629 0
M  V30 5829 H 531.976 -1.25297 3.44523 0
M  V30 5830 H 531.624 -3.72809 3.37672 0
M  V30 5831 H 531.324 -3.07538 5.00694 0
M  V30 5832 H 532.848 -3.94205 4.66299 0
M  V30 5833 H 534.262 -1.80783 5.4405 0
M  V30 5834 H 532.659 -1.1558 5.88864 0
M  V30 5835 H 533.729 -0.202692 4.84476 0
M  V30 5836 N 535.072 -1.5615 -0.213296 0
M  V30 5837 C 536.02 -1.93953 -1.28394 0
M  V30 5838 C 537.014 -0.822592 -1.48087 0
M  V30 5839 O 538.22 -1.00748 -1.49164 0
M  V30 5840 H 534.595 -0.61648 -0.430646 0
M  V30 5841 H 536.566 -2.83275 -0.937977 0
M  V30 5842 C 535.315 -2.27969 -2.62537 0
M  V30 5843 H 534.638 -3.13432 -2.48194 0
M  V30 5844 H 536.078 -2.58297 -3.36242 0
M  V30 5845 C 534.537 -1.10775 -3.18167 0
M  V30 5846 O 535.067 -0.373201 -3.99963 0
M  V30 5847 N 533.273 -0.889377 -2.76656 0
M  V30 5848 H 532.82 -1.48843 -2.10246 0
M  V30 5849 H 532.778 -0.107 -3.14218 0
M  V30 5850 N 536.55 0.480323 -1.50102 0
M  V30 5851 C 537.46 1.60547 -1.71061 0
M  V30 5852 C 538.476 1.63564 -0.593529 0
M  V30 5853 O 539.652 1.81604 -0.870751 0
M  V30 5854 C 536.717 2.96814 -1.79171 0
M  V30 5855 C 535.778 3.04259 -3.02861 0
M  V30 5856 C 535.011 4.34027 -3.10574 0
M  V30 5857 O 535.234 5.24009 -2.25323 0
M  V30 5858 O 534.168 4.46873 -4.03223 0
M  V30 5859 H 537.994 1.45788 -2.6642 0
M  V30 5860 H 535.579 0.658838 -1.34088 0
M  V30 5861 H 537.461 3.77765 -1.86738 0
M  V30 5862 H 536.136 3.11791 -0.869947 0
M  V30 5863 H 535.043 2.22419 -3.008 0
M  V30 5864 H 536.376 2.94216 -3.94586 0
M  V30 5865 N 538.028 1.39524 0.732853 0
M  V30 5866 C 538.938 1.40695 1.87729 0
M  V30 5867 C 539.954 0.301496 1.71368 0
M  V30 5868 O 541.13 0.543313 1.93933 0
M  V30 5869 C 538.195 1.25098 3.23344 0
M  V30 5870 C 537.256 2.45634 3.52083 0
M  V30 5871 C 536.489 2.30772 4.81228 0
M  V30 5872 O 536.712 1.31233 5.55098 0
M  V30 5873 O 535.646 3.19799 5.09914 0
M  V30 5874 H 539.472 2.37168 1.89697 0
M  V30 5875 H 537.057 1.20663 0.880959 0
M  V30 5876 H 538.939 1.18541 4.04383 0
M  V30 5877 H 537.614 0.317209 3.22142 0
M  V30 5878 H 536.521 2.57767 2.71122 0
M  V30 5879 H 537.854 3.37712 3.58066 0
M  V30 5880 N 539.506 -0.963266 1.24736 0
M  V30 5881 C 540.438 -2.06162 1.0015 0
M  V30 5882 C 541.451 -1.62771 -0.0305905 0
M  V30 5883 O 542.64 -1.77296 0.206966 0
M  V30 5884 C 539.74 -3.35333 0.490385 0
M  V30 5885 C 538.913 -4.07609 1.58663 0
M  V30 5886 C 537.972 -5.15052 1.0774 0
M  V30 5887 O 536.998 -5.4098 1.77002 0
M  V30 5888 N 538.2 -5.80436 -0.0858605 0
M  V30 5889 H 540.965 -2.27825 1.94719 0
M  V30 5890 H 538.526 -1.13121 1.15825 0
M  V30 5891 H 540.518 -4.04477 0.134371 0
M  V30 5892 H 539.088 -3.10507 -0.361155 0
M  V30 5893 H 538.308 -3.32681 2.11463 0
M  V30 5894 H 539.596 -4.52656 2.32336 0
M  V30 5895 H 538.994 -5.6178 -0.664806 0
M  V30 5896 H 537.551 -6.50674 -0.382981 0
M  V30 5897 N 540.985 -1.06182 -1.16461 0
M  V30 5898 C 542.262 -0.691364 -1.82974 0
M  V30 5899 C 542.642 0.827377 -1.9421 0
M  V30 5900 O 541.99 1.73723 -1.48434 0
M  V30 5901 C 542.2 -1.39199 -3.20038 0
M  V30 5902 C 543.548 -1.53647 -3.95825 0
M  V30 5903 O 544.572 -1.35181 -3.29552 0
M  V30 5904 O 543.431 -1.83932 -5.14618 0
M  V30 5905 H 540.525 -0.244605 -0.789998 0
M  V30 5906 H 543.071 -1.16203 -1.23673 0
M  V30 5907 H 541.843 -2.42766 -3.06888 0
M  V30 5908 H 541.466 -0.911335 -3.87015 0
M  V30 5909 N 542.463 1.3308 -0.844243 0
M  V30 5910 C 543.41 2.29104 -0.279323 0
M  V30 5911 C 544.38 1.54577 0.607882 0
M  V30 5912 O 545.565 1.8285 0.545009 0
M  V30 5913 C 542.705 3.40927 0.53508 0
M  V30 5914 C 541.818 4.30354 -0.376749 0
M  V30 5915 C 540.953 5.29297 0.449276 0
M  V30 5916 C 539.992 6.10365 -0.460606 0
M  V30 5917 N 539.129 7.01335 0.327612 0
M  V30 5918 H 543.969 2.76817 -1.10346 0
M  V30 5919 H 541.506 1.36203 -0.555611 0
M  V30 5920 H 543.464 4.04469 1.02278 0
M  V30 5921 H 542.094 2.94391 1.32414 0
M  V30 5922 H 541.146 3.67485 -0.982791 0
M  V30 5923 H 542.458 4.87067 -1.07549 0
M  V30 5924 H 541.612 5.98392 1.00058 0
M  V30 5925 H 540.351 4.73174 1.18143 0
M  V30 5926 H 539.356 5.40182 -1.02388 0
M  V30 5927 H 540.581 6.68571 -1.1912 0
M  V30 5928 H 538.527 6.47655 1.04305 0
M  V30 5929 H 538.444 7.55355 -0.3123 0
M  V30 5930 H 539.712 7.74731 0.86098 0
M  V30 5931 N 543.941 0.601185 1.45683 0
M  V30 5932 C 545.357 0.264315 1.57396 0
M  V30 5933 C 545.557 -1.23324 1.59353 0
M  V30 5934 O 544.613 -2.01594 1.52039 0
M  V30 5935 C 545.926 0.929839 2.85962 0
M  V30 5936 C 547.474 0.905156 2.99626 0
M  V30 5937 C 547.949 1.55057 4.30954 0
M  V30 5938 N 549.44 1.51576 4.37697 0
M  V30 5939 C 550.175 1.98436 5.37969 0
M  V30 5940 N 549.671 2.53352 6.44813 0
M  V30 5941 N 551.464 1.89242 5.29286 0
M  V30 5942 H 543.615 1.57363 1.42656 0
M  V30 5943 H 545.878 0.658831 0.681649 0
M  V30 5944 H 545.584 1.98404 2.90394 0
M  V30 5945 H 545.458 0.449224 3.74515 0
M  V30 5946 H 547.845 -0.14048 2.94765 0
M  V30 5947 H 547.926 1.42397 2.12501 0
M  V30 5948 H 547.57 2.5955 4.36573 0
M  V30 5949 H 547.5 1.00682 5.16886 0
M  V30 5950 H 549.991 1.11452 3.61091 0
M  V30 5951 H 550.304 2.86918 7.17564 0
M  V30 5952 H 548.649 2.57388 6.45582 0
M  V30 5953 H 551.84 1.46083 4.44722 0
M  V30 5954 H 552.013 2.26075 6.07284 0
M  V30 5955 N 545.419 -1.53889 0.339982 0
M  V30 5956 C 546.666 -2.00855 -0.257621 0
M  V30 5957 C 546.994 -1.22788 -1.50842 0
M  V30 5958 O 546.249 -0.302567 -1.93347 0
M  V30 5959 C 546.548 -3.51968 -0.620735 0
M  V30 5960 C 546.214 -4.47741 0.532771 0
M  V30 5961 C 544.876 -4.73645 0.849339 0
M  V30 5962 C 547.228 -5.04551 1.3068 0
M  V30 5963 C 544.556 -5.53614 1.94237 0
M  V30 5964 C 546.908 -5.85713 2.39005 0
M  V30 5965 C 545.572 -6.09912 2.71225 0
M  V30 5966 H 544.842 -0.734979 -0.0942703 0
M  V30 5967 H 547.489 -1.85714 0.467159 0
M  V30 5968 H 545.794 -3.64921 -1.42618 0
M  V30 5969 H 547.491 -3.85762 -1.09495 0
M  V30 5970 H 544.081 -4.27711 0.275973 0
M  V30 5971 H 548.265 -4.84507 1.07549 0
M  V30 5972 H 543.521 -5.7059 2.19628 0
M  V30 5973 H 547.695 -6.28748 2.99415 0
M  V30 5974 H 545.322 -6.71665 3.56047 0
M  V30 5975 N 546.897 -0.0685191 -1.57451 0
M  V30 5976 C 548.143 0.602239 -1.93652 0
M  V30 5977 C 548.476 1.6946 -0.948526 0
M  V30 5978 O 547.751 1.94487 0.022782 0
M  V30 5979 C 548.034 1.18223 -3.4014 0
M  V30 5980 C 547.887 0.0967431 -4.49696 0
M  V30 5981 C 549.206 2.08872 -3.87377 0
M  V30 5982 H 546.325 0.217453 -0.70419 0
M  V30 5983 H 548.967 -0.133821 -1.89528 0
M  V30 5984 H 547.117 1.80953 -3.43785 0
M  V30 5985 H 548.789 -0.536155 -4.58174 0
M  V30 5986 H 547.032 -0.573063 -4.29998 0
M  V30 5987 H 547.703 0.542894 -5.49324 0
M  V30 5988 H 550.179 1.56081 -3.85717 0
M  V30 5989 H 549.055 2.46389 -4.90493 0
M  V30 5990 H 549.316 2.99572 -3.25129 0
M  V30 5991 N 548.375 1.56261 0.205012 0
M  V30 5992 C 549.615 1.81823 0.933806 0
M  V30 5993 C 549.979 0.644534 1.80858 0
M  V30 5994 O 551.18 0.779819 2.5724 0
M  V30 5995 C 549.451 3.12362 1.7368 0
M  V30 5996 S 551.01 3.59296 2.51897 0
M  V30 5997 H 547.828 0.638209 0.313386 0
M  V30 5998 H 550.43 1.94495 0.198001 0
M  V30 5999 H 549.134 3.95809 1.08459 0
M  V30 6000 H 548.665 3.02542 2.5146 0
M  V30 6001 H 550.68 3.23945 3.75864 0
M  V30 6002 N 549.853 -0.472356 1.50355 0
M  V30 6003 C 550.8 -1.57051 1.69126 0
M  V30 6004 C 551.77 -1.5733 0.532574 0
M  V30 6005 O 552.955 -1.7488 0.762994 0
M  V30 6006 C 550.095 -2.95033 1.79024 0
M  V30 6007 C 549.208 -3.04552 3.06386 0
M  V30 6008 C 548.343 -4.33441 3.07087 0
M  V30 6009 C 547.382 -4.36697 4.28908 0
M  V30 6010 N 546.519 -5.57056 4.27356 0
M  V30 6011 H 551.359 -1.40351 2.62879 0
M  V30 6012 H 548.896 -0.682403 1.30314 0
M  V30 6013 H 550.854 -3.75048 1.82744 0
M  V30 6014 H 549.484 -3.10371 0.887109 0
M  V30 6015 H 548.536 -2.17419 3.12143 0
M  V30 6016 H 549.848 -3.02818 3.96362 0
M  V30 6017 H 549.002 -5.21801 3.09529 0
M  V30 6018 H 547.741 -4.37782 2.14939 0
M  V30 6019 H 546.746 -3.46734 4.2668 0
M  V30 6020 H 547.971 -4.34049 5.22282 0
M  V30 6021 H 545.917 -5.62184 3.3806 0
M  V30 6022 H 545.834 -5.57058 5.111 0
M  V30 6023 H 547.102 -6.47545 4.33942 0
M  V30 6024 N 551.331 -1.39911 -0.725443 0
M  V30 6025 C 552.281 -1.35878 -1.83088 0
M  V30 6026 C 553.265 -0.237989 -1.5913 0
M  V30 6027 O 554.457 -0.476302 -1.70471 0
M  V30 6028 C 551.586 -1.21403 -3.21117 0
M  V30 6029 C 550.672 -2.38223 -3.50871 0
M  V30 6030 N 551.063 -3.63703 -3.51502 0
M  V30 6031 C 549.361 -2.31388 -3.81281 0
M  V30 6032 C 550.062 -4.4101 -3.79322 0
M  V30 6033 N 549.038 -3.7072 -3.97577 0
M  V30 6034 H 552.84 -2.3085 -1.81895 0
M  V30 6035 H 550.354 -1.33543 -0.924125 0
M  V30 6036 H 552.351 -1.16597 -4.00263 0
M  V30 6037 H 551.011 -0.273902 -3.23543 0
M  V30 6038 H 552.022 -3.96998 -3.32586 0
M  V30 6039 H 548.699 -1.45689 -3.91256 0
M  V30 6040 H 550.089 -5.49819 -3.86198 0
M  V30 6041 N 552.809 0.956637 -1.25245 0
M  V30 6042 C 554.034 1.74104 -1.12706 0
M  V30 6043 C 554.459 1.85436 0.315429 0
M  V30 6044 O 553.817 1.33334 1.22848 0
M  V30 6045 C 553.865 3.1338 -1.78396 0
M  V30 6046 O 552.969 3.98485 -1.06224 0
M  V30 6047 H 552.31 0.53476 -0.393609 0
M  V30 6048 H 554.84 1.19924 -1.65769 0
M  V30 6049 H 554.85 3.6385 -1.846 0
M  V30 6050 H 553.525 3.04448 -2.83345 0
M  V30 6051 H 552.102 3.56952 -1.07886 0
M  V30 6052 N 554.287 1.06798 1.15896 0
M  V30 6053 C 555.22 0.627503 2.19403 0
M  V30 6054 C 556.198 -0.352352 1.58736 0
M  V30 6055 O 557.382 -0.260111 1.86697 0
M  V30 6056 C 554.509 -0.079356 3.38607 0
M  V30 6057 C 553.555 0.858057 4.17779 0
M  V30 6058 S 554.388 2.35605 4.80885 0
M  V30 6059 C 555.544 1.66083 6.03463 0
M  V30 6060 H 555.777 1.50441 2.56427 0
M  V30 6061 H 553.31 0.881427 1.26768 0
M  V30 6062 H 555.268 -0.48095 4.07673 0
M  V30 6063 H 553.929 -0.932524 2.99938 0
M  V30 6064 H 553.122 0.310108 5.03045 0
M  V30 6065 H 552.724 1.19977 3.54234 0
M  V30 6066 H 555.016 0.969337 6.7053 0
M  V30 6067 H 555.959 2.49159 6.62816 0
M  V30 6068 H 556.367 1.14122 5.52844 0
M  V30 6069 N 555.766 -1.3263 0.851289 0
M  V30 6070 C 557.012 -1.9766 0.453694 0
M  V30 6071 C 557.345 -1.67225 -0.987396 0
M  V30 6072 O 556.62 -0.958693 -1.69232 0
M  V30 6073 C 556.903 -3.5344 0.68936 0
M  V30 6074 C 556.756 -3.93517 2.17862 0
M  V30 6075 C 558.075 -4.39866 0.143555 0
M  V30 6076 H 555.194 -0.717989 0.166314 0
M  V30 6077 H 557.836 -1.57068 1.06909 0
M  V30 6078 H 555.986 -3.88147 0.165546 0
M  V30 6079 H 557.658 -3.69006 2.76826 0
M  V30 6080 H 555.901 -3.42798 2.65841 0
M  V30 6081 H 556.572 -5.02065 2.29422 0
M  V30 6082 H 559.048 -4.11875 0.591451 0
M  V30 6083 H 557.924 -5.47858 0.338043 0
M  V30 6084 H 558.185 -4.31696 -0.953466 0
M  V30 6085 N 557.244 -0.608902 -1.45362 0
M  V30 6086 C 558.521 -0.0365378 -1.95566 0
M  V30 6087 C 558.901 1.43169 -1.55131 0
M  V30 6088 O 558.249 2.1349 -0.814513 0
M  V30 6089 C 558.459 -0.236026 -3.48201 0
M  V30 6090 C 559.807 -0.117518 -4.24437 0
M  V30 6091 O 560.831 -0.166217 -3.55812 0
M  V30 6092 O 559.69 -0.00372127 -5.465 0
M  V30 6093 H 556.784 0.0349874 -0.82626 0
M  V30 6094 H 559.33 -0.679055 -1.55521 0
M  V30 6095 H 558.102 -1.25569 -3.70605 0
M  V30 6096 H 557.725 0.441691 -3.95139 0
M  V30 6097 N 558.722 1.53707 -0.348139 0
M  V30 6098 C 560.138 1.596 0.00361134 0
M  V30 6099 C 560.338 1.36394 1.4832 0
M  V30 6100 O 559.394 1.16046 2.24253 0
M  V30 6101 C 560.707 2.97512 -0.436682 0
M  V30 6102 C 562.255 3.10568 -0.389416 0
M  V30 6103 C 562.73 4.50866 -0.805249 0
M  V30 6104 N 564.221 4.56929 -0.759616 0
M  V30 6105 C 564.956 5.63643 -1.05327 0
M  V30 6106 N 564.452 6.78189 -1.41531 0
M  V30 6107 N 566.245 5.5354 -0.977207 0
M  V30 6108 H 558.396 1.67044 -1.31187 0
M  V30 6109 H 560.659 0.782559 -0.535075 0
M  V30 6110 H 560.365 3.19575 -1.46849 0
M  V30 6111 H 560.239 3.76742 0.185744 0
M  V30 6112 H 562.626 2.88226 0.633228 0
M  V30 6113 H 562.707 2.33387 -1.04711 0
M  V30 6114 H 562.351 4.73943 -1.82593 0
M  V30 6115 H 562.281 5.26452 -0.124989 0
M  V30 6116 H 564.772 3.74675 -0.49265 0
M  V30 6117 H 565.085 7.55541 -1.62411 0
M  V30 6118 H 563.43 6.79624 -1.45381 0
M  V30 6119 H 566.621 4.62932 -0.693675 0
M  V30 6120 H 566.794 6.36614 -1.2094 0
M  V30 6121 N 560.2 0.0768682 1.57412 0
M  V30 6122 C 561.448 -0.589918 1.93299 0
M  V30 6123 C 561.769 -1.69842 0.958049 0
M  V30 6124 O 561.039 -1.95899 0.00703261 0
M  V30 6125 H 559.619 -0.220901 0.713591 0
M  V30 6126 H 562.281 0.135917 1.94425 0
M  V30 6127 H 561.377 -1.01195 2.95239 0
M  V30 6128 N 561.678 -1.56367 -0.196722 0
M  V30 6129 C 562.924 -1.81698 -0.914182 0
M  V30 6130 C 563.279 -0.65367 -1.80956 0
M  V30 6131 O 562.572 0.351224 -1.88353 0
M  V30 6132 C 562.766 -3.10663 -1.767 0
M  V30 6133 C 562.595 -4.39428 -0.955689 0
M  V30 6134 C 561.365 -5.01221 -0.64076 0
M  V30 6135 C 563.563 -5.1337 -0.309165 0
M  V30 6136 N 561.545 -6.13608 0.189358 0
M  V30 6137 C 562.916 -6.18815 0.383225 0
M  V30 6138 C 564.971 -4.97393 -0.224726 0
M  V30 6139 C 563.674 -7.10015 1.15201 0
M  V30 6140 C 565.7 -5.89014 0.530658 0
M  V30 6141 C 565.062 -6.93903 1.2115 0
M  V30 6142 H 561.161 -0.716203 -0.31397 0
M  V30 6143 H 563.745 -1.93838 -0.18304 0
M  V30 6144 H 561.916 -2.99762 -2.46976 0
M  V30 6145 H 563.648 -3.24088 -2.42382 0
M  V30 6146 H 560.403 -4.63669 -0.96479 0
M  V30 6147 H 560.827 -6.74389 0.593979 0
M  V30 6148 H 565.469 -4.16331 -0.736754 0
M  V30 6149 H 563.187 -7.9054 1.67547 0
M  V30 6150 H 566.773 -5.78726 0.597326 0
M  V30 6151 H 565.653 -7.63576 1.78665 0
M  V30 6152 N 563.156 0.464375 -1.50603 0
M  V30 6153 C 564.404 1.21356 -1.61608 0
M  V30 6154 C 564.725 1.92329 -0.321643 0
M  V30 6155 O 563.995 1.84403 0.661232 0
M  V30 6156 H 562.575 0.45094 -0.595535 0
M  V30 6157 H 565.237 0.535046 -1.87412 0
M  V30 6158 H 564.333 1.95783 -2.43054 0
M  V30 6159 N 564.634 1.40294 0.718013 0
M  V30 6160 C 565.582 1.40536 1.85344 0
M  V30 6161 C 566.576 0.286192 1.66965 0
M  V30 6162 O 567.782 0.457105 1.74099 0
M  V30 6163 H 564.157 0.439236 0.61039 0
M  V30 6164 H 566.128 2.36275 1.82255 0
M  V30 6165 C 564.877 1.28245 3.23185 0
M  V30 6166 H 564.2 2.1364 3.37932 0
M  V30 6167 H 565.64 1.32474 4.02774 0
M  V30 6168 C 564.099 -0.0075503 3.36899 0
M  V30 6169 O 564.629 -0.971391 3.89778 0
M  V30 6170 N 562.835 -0.0762479 2.905 0
M  V30 6171 H 562.382 0.708819 2.47656 0
M  V30 6172 H 562.34 -0.938846 3.00055 0
M  V30 6173 N 566.112 -0.949982 1.2575 0
M  V30 6174 C 567.36 -1.6918 1.10555 0
M  V30 6175 C 567.681 -1.91773 -0.353298 0
M  V30 6176 O 566.951 -1.50814 -1.25027 0
M  V30 6177 H 565.531 -0.626952 0.406129 0
M  V30 6178 H 568.193 -1.1419 1.57945 0
M  V30 6179 H 567.289 -2.66915 1.61749 0
M  V30 6180 N 567.59 -1.07411 -1.15328 0
M  V30 6181 C 568.83 -0.807011 -1.87794 0
M  V30 6182 C 569.194 0.654987 -1.80482 0
M  V30 6183 O 570.395 1.03716 -2.47985 0
M  V30 6184 C 568.666 -1.30198 -3.32841 0
M  V30 6185 S 570.225 -1.16564 -4.23034 0
M  V30 6186 H 567.043 -0.292429 -0.648079 0
M  V30 6187 H 569.645 -1.37334 -1.39139 0
M  V30 6188 H 568.349 -2.3607 -3.35707 0
M  V30 6189 H 567.88 -0.730881 -3.86551 0
M  V30 6190 H 569.895 -0.103557 -4.96092 0
M  V30 6191 N 569.068 1.32177 -0.85831 0
M  V30 6192 C 570.316 1.96735 -0.462568 0
M  V30 6193 C 570.637 1.6824 0.985911 0
M  V30 6194 O 569.907 0.991564 1.68952 0
M  V30 6195 H 568.487 0.727849 -0.168064 0
M  V30 6196 H 571.149 1.61195 -1.09554 0
M  V30 6197 H 570.245 3.06068 -0.610647 0
M  V30 6198 N 570.547 0.616602 1.45037 0
M  V30 6199 C 571.477 -0.0840787 2.33349 0
M  V30 6200 C 572.458 -0.849641 1.4736 0
M  V30 6201 O 573.643 -0.818407 1.76113 0
M  V30 6202 C 570.773 -1.07604 3.3021 0
M  V30 6203 C 569.727 -0.423096 4.25904 0
M  V30 6204 C 569.053 -1.52394 5.12523 0
M  V30 6205 C 570.353 0.661457 5.18095 0
M  V30 6206 H 572.047 0.653333 2.92185 0
M  V30 6207 H 569.593 0.315634 1.40498 0
M  V30 6208 H 571.546 -1.57485 3.90866 0
M  V30 6209 H 570.27 -1.84416 2.69552 0
M  V30 6210 H 568.929 0.05493 3.66559 0
M  V30 6211 H 568.577 -2.28257 4.48227 0
M  V30 6212 H 568.277 -1.09251 5.77354 0
M  V30 6213 H 569.801 -2.02485 5.76049 0
M  V30 6214 H 571.215 0.246353 5.7277 0
M  V30 6215 H 569.612 1.01517 5.91451 0
M  V30 6216 H 570.682 1.53446 4.59981 0
M  V30 6217 N 572.025 -1.5352 0.356285 0
M  V30 6218 C 573.272 -2.01117 -0.236303 0
M  V30 6219 C 573.6 -1.24381 -1.49531 0
M  V30 6220 O 572.855 -0.323057 -1.93015 0
M  V30 6221 C 573.154 -3.52607 -0.583369 0
M  V30 6222 C 572.82 -4.47151 0.58023 0
M  V30 6223 C 571.482 -4.72718 0.899528 0
M  V30 6224 C 573.834 -5.03137 1.36024 0
M  V30 6225 C 571.162 -5.51523 2.00098 0
M  V30 6226 C 573.514 -5.83145 2.45204 0
M  V30 6227 C 572.178 -6.07001 2.77679 0
M  V30 6228 H 571.448 -0.735938 -0.0864695 0
M  V30 6229 H 574.095 -1.85209 0.48683 0
M  V30 6230 H 572.4 -3.66413 -1.38739 0
M  V30 6231 H 574.097 -3.86901 -1.05397 0
M  V30 6232 H 570.687 -4.27394 0.321322 0
M  V30 6233 H 574.871 -4.83339 1.12682 0
M  V30 6234 H 570.127 -5.68229 2.25668 0
M  V30 6235 H 574.301 -6.25537 3.06067 0
M  V30 6236 H 571.928 -6.67851 3.63151 0
M  V30 6237 N 573.503 -0.0852151 -1.57369 0
M  V30 6238 C 574.751 0.579658 -1.93609 0
M  V30 6239 C 575.072 1.69332 -0.967043 0
M  V30 6240 O 574.342 1.95892 -0.0174215 0
M  V30 6241 H 572.922 0.217113 -0.714752 0
M  V30 6242 H 575.584 -0.146226 -1.94351 0
M  V30 6243 H 574.68 0.996276 -2.95771 0
M  V30 6244 N 574.981 1.5647 0.188427 0
M  V30 6245 C 575.928 1.95073 1.23349 0
M  V30 6246 C 576.898 0.812238 1.44886 0
M  V30 6247 O 578.083 1.07095 1.57909 0
M  V30 6248 C 575.223 2.30124 2.57171 0
M  V30 6249 C 574.336 3.57069 2.43157 0
M  V30 6250 C 573.471 3.81411 3.69729 0
M  V30 6251 C 572.51 5.0176 3.50575 0
M  V30 6252 N 571.647 5.22321 4.69175 0
M  V30 6253 H 576.487 2.84171 0.89728 0
M  V30 6254 H 574.024 1.40623 0.431683 0
M  V30 6255 H 575.982 2.48463 3.35145 0
M  V30 6256 H 574.612 1.44159 2.88822 0
M  V30 6257 H 573.664 3.4674 1.56447 0
M  V30 6258 H 574.976 4.452 2.24942 0
M  V30 6259 H 574.13 4.00026 4.56141 0
M  V30 6260 H 572.869 2.91624 3.90905 0
M  V30 6261 H 571.874 4.83061 2.62549 0
M  V30 6262 H 573.099 5.93063 3.30837 0
M  V30 6263 H 571.045 4.35483 4.90602 0
M  V30 6264 H 570.962 6.04643 4.53809 0
M  V30 6265 H 572.23 5.45401 5.56919 0
M  V30 6266 N 576.459 -0.456382 1.50847 0
M  V30 6267 C 577.707 -1.20497 1.62249 0
M  V30 6268 C 578.028 -1.92156 0.331839 0
M  V30 6269 O 577.298 -1.84751 -0.651443 0
M  V30 6270 H 575.878 -0.447775 0.597918 0
M  V30 6271 H 578.54 -0.525099 1.87693 0
M  V30 6272 H 577.636 -1.94492 2.44089 0
M  V30 6273 N 577.937 -1.40673 -0.710563 0
M  V30 6274 C 579.185 -1.38947 -1.46759 0
M  V30 6275 C 579.506 0.00572879 -1.94999 0
M  V30 6276 O 578.776 0.961358 -1.70689 0
M  V30 6277 H 577.356 -0.5114 -0.544499 0
M  V30 6278 H 580.018 -1.75773 -0.842012 0
M  V30 6279 H 579.114 -2.06745 -2.33801 0
M  V30 6280 N 579.415 0.9433 -1.26252 0
M  V30 6281 C 580.664 1.68369 -1.11062 0
M  V30 6282 C 580.977 1.92514 0.346104 0
M  V30 6283 O 582.183 2.64358 0.618646 0
M  V30 6284 C 580.639 3.03171 -1.93946 0
M  V30 6285 C 580.247 2.86782 -3.4418 0
M  V30 6286 C 581.991 3.80916 -1.87359 0
M  V30 6287 C 579.898 4.17044 -4.19319 0
M  V30 6288 H 578.828 0.631469 -0.412023 0
M  V30 6289 H 581.479 1.04922 -1.50544 0
M  V30 6290 H 579.861 3.67587 -1.47296 0
M  V30 6291 H 581.035 2.31229 -3.98585 0
M  V30 6292 H 579.35 2.22482 -3.51981 0
M  V30 6293 H 581.947 4.77417 -2.40784 0
M  V30 6294 H 582.29 4.07658 -0.843857 0
M  V30 6295 H 582.823 3.2327 -2.31821 0
M  V30 6296 H 579.562 3.95487 -5.22753 0
M  V30 6297 H 579.082 4.72319 -3.69696 0
M  V30 6298 H 580.761 4.85513 -4.27651 0
M  V30 6299 N 580.893 1.08022 1.14757 0
M  V30 6300 C 582.139 0.808705 1.85978 0
M  V30 6301 C 582.472 -0.663764 1.82504 0
M  V30 6302 O 581.747 -1.48765 1.25296 0
M  V30 6303 C 582.03 1.32623 3.34788 0
M  V30 6304 C 581.883 2.86375 3.46856 0
M  V30 6305 C 583.202 0.948291 4.29762 0
M  V30 6306 H 580.321 0.295244 0.675278 0
M  V30 6307 H 582.963 1.33917 1.34783 0
M  V30 6308 H 581.113 0.875002 3.78518 0
M  V30 6309 H 582.785 3.39839 3.11941 0
M  V30 6310 H 581.028 3.24232 2.88194 0
M  V30 6311 H 581.699 3.17658 4.51439 0
M  V30 6312 H 584.175 1.33722 3.94028 0
M  V30 6313 H 583.051 1.33765 5.32352 0
M  V30 6314 H 583.312 -0.145094 4.41862 0
M  V30 6315 N 582.371 -1.3172 0.865308 0
M  V30 6316 C 583.599 -2.01057 0.488251 0
M  V30 6317 C 584.014 -1.64979 -0.918 0
M  V30 6318 O 583.371 -0.876597 -1.60069 0
M  V30 6319 C 583.422 -3.55964 0.630224 0
M  V30 6320 O 583.143 -3.90749 1.98109 0
M  V30 6321 C 584.644 -4.42574 0.253567 0
M  V30 6322 H 581.864 -0.64332 0.190736 0
M  V30 6323 H 584.408 -1.68058 1.16519 0
M  V30 6324 H 582.563 -3.874 0.000895422 0
M  V30 6325 H 582.977 -4.85467 1.9855 0
M  V30 6326 H 584.451 -5.50521 0.403875 0
M  V30 6327 H 584.928 -4.31724 -0.806895 0
M  V30 6328 H 585.534 -4.16547 0.858404 0
M  V30 6329 N 583.85 -0.624285 -1.44708 0
M  V30 6330 C 585.09 -0.129273 -2.03991 0
M  V30 6331 C 585.454 1.22321 -1.47992 0
M  V30 6332 O 586.654 1.80993 -1.98734 0
M  V30 6333 C 584.926 -0.108231 -3.57236 0
M  V30 6334 S 586.485 0.323158 -4.37608 0
M  V30 6335 H 583.303 -0.0577318 -0.708652 0
M  V30 6336 H 585.904 -0.826139 -1.77187 0
M  V30 6337 H 584.609 -1.0958 -3.955 0
M  V30 6338 H 584.139 0.610101 -3.8864 0
M  V30 6339 H 586.154 1.56894 -4.70743 0
M  V30 6340 N 585.328 1.53329 -0.364422 0
M  V30 6341 C 586.291 2.24323 0.470292 0
M  V30 6342 C 587.291 1.25068 1.01067 0
M  V30 6343 O 588.481 1.49354 0.896605 0
M  V30 6344 C 585.613 2.97908 1.65722 0
M  V30 6345 H 586.806 2.9952 -0.150917 0
M  V30 6346 H 584.359 1.55868 -0.116092 0
M  V30 6347 H 585.094 2.2695 2.31655 0
M  V30 6348 H 584.879 3.70732 1.27671 0
M  V30 6349 H 586.369 3.5188 2.24878 0
M  V30 6350 N 586.806 0.0935595 1.57322 0
M  V30 6351 C 587.739 -0.902505 2.09595 0
M  V30 6352 C 588.717 -1.27732 1.00615 0
M  V30 6353 O 589.901 -1.38283 1.28102 0
M  V30 6354 C 587.028 -2.20416 2.57166 0
M  V30 6355 C 586.074 -1.97932 3.7779 0
M  V30 6356 S 586.907 -1.21873 5.21447 0
M  V30 6357 C 588.063 -2.53273 5.72367 0
M  V30 6358 H 588.296 -0.457797 2.93754 0
M  V30 6359 H 585.829 -0.119694 1.53935 0
M  V30 6360 H 587.787 -2.95217 2.85232 0
M  V30 6361 H 586.448 -2.62008 1.73235 0
M  V30 6362 H 585.641 -2.94316 4.09138 0
M  V30 6363 H 585.243 -1.3126 3.5021 0
M  V30 6364 H 587.535 -3.49256 5.8054 0
M  V30 6365 H 588.478 -2.26505 6.70896 0
M  V30 6366 H 588.886 -2.61475 5.00291 0
M  V30 6367 N 588.284 -1.56567 -0.180126 0
M  V30 6368 C 589.531 -1.81492 -0.898167 0
M  V30 6369 C 589.859 -0.669225 -1.82624 0
M  V30 6370 O 589.114 0.344096 -1.92651 0
M  V30 6371 C 589.413 -3.1252 -1.73395 0
M  V30 6372 C 589.079 -4.40658 -0.955567 0
M  V30 6373 C 587.741 -4.75465 -0.740707 0
M  V30 6374 C 590.093 -5.19593 -0.408948 0
M  V30 6375 C 587.421 -5.86691 0.0320128 0
M  V30 6376 C 589.773 -6.31627 0.350638 0
M  V30 6377 C 588.437 -6.65007 0.576378 0
M  V30 6378 H 587.707 -0.664125 -0.328662 0
M  V30 6379 H 590.354 -1.908 -0.163616 0
M  V30 6380 H 588.659 -2.98515 -2.53763 0
M  V30 6381 H 590.356 -3.29013 -2.29241 0
M  V30 6382 H 586.946 -4.13352 -1.13306 0
M  V30 6383 H 591.13 -4.93104 -0.562307 0
M  V30 6384 H 586.386 -6.11016 0.216735 0
M  V30 6385 H 590.56 -6.92001 0.781497 0
M  V30 6386 H 588.187 -7.51033 1.17703 0
M  V30 6387 N 589.762 0.448376 -1.51087 0
M  V30 6388 C 590.99 1.22143 -1.66999 0
M  V30 6389 C 591.405 1.85283 -0.362699 0
M  V30 6390 O 590.762 1.70236 0.65772 0
M  V30 6391 C 590.813 2.31357 -2.7777 0
M  V30 6392 O 590.534 1.70801 -4.03434 0
M  V30 6393 C 592.035 3.21836 -3.04855 0
M  V30 6394 H 589.255 0.368558 -0.560719 0
M  V30 6395 H 591.799 0.532618 -1.97442 0
M  V30 6396 H 589.954 2.95973 -2.49958 0
M  V30 6397 H 590.368 2.42895 -4.64868 0
M  V30 6398 H 591.842 3.94627 -3.85971 0
M  V30 6399 H 592.319 3.81949 -2.16821 0
M  V30 6400 H 592.925 2.62933 -3.34285 0
M  V30 6401 N 591.24 1.41047 0.703093 0
M  V30 6402 C 592.48 1.41461 1.4754 0
M  V30 6403 C 592.844 0.0199013 1.9199 0
M  V30 6404 O 594.045 -0.101138 2.6861 0
M  V30 6405 C 592.316 2.38703 2.66 0
M  V30 6406 S 593.875 2.57582 3.55242 0
M  V30 6407 H 590.693 0.501226 0.504275 0
M  V30 6408 H 593.295 1.77422 0.821074 0
M  V30 6409 H 591.999 3.3885 2.31536 0
M  V30 6410 H 591.53 2.04069 3.36333 0
M  V30 6411 H 593.545 1.83758 4.6092 0
M  V30 6412 N 592.718 -0.936591 1.26751 0
M  V30 6413 C 593.665 -2.03597 1.08706 0
M  V30 6414 C 594.635 -1.66097 -0.00926542 0
M  V30 6415 O 595.82 -1.90199 0.151377 0
M  V30 6416 C 592.96 -3.3727 0.73094 0
M  V30 6417 C 592.073 -3.87778 1.90399 0
M  V30 6418 C 591.208 -5.09859 1.49056 0
M  V30 6419 C 590.247 -5.5264 2.63164 0
M  V30 6420 N 589.384 -6.65921 2.22471 0
M  V30 6421 H 594.224 -2.18364 2.02784 0
M  V30 6422 H 591.761 -1.06985 1.00958 0
M  V30 6423 H 593.719 -4.14128 0.505328 0
M  V30 6424 H 592.349 -3.22337 -0.172868 0
M  V30 6425 H 591.401 -3.07279 2.2424 0
M  V30 6426 H 592.713 -4.15464 2.76028 0
M  V30 6427 H 591.867 -5.9419 1.22567 0
M  V30 6428 H 590.606 -4.8393 0.60524 0
M  V30 6429 H 589.611 -4.66863 2.90377 0
M  V30 6430 H 590.836 -5.80568 3.52303 0
M  V30 6431 H 588.782 -6.41667 1.36379 0
M  V30 6432 H 588.699 -6.93216 3.01641 0
M  V30 6433 H 589.967 -7.53616 1.99205 0
M  V30 6434 N 594.196 -1.08629 -1.14182 0
M  V30 6435 C 595.143 -0.718299 -2.19338 0
M  V30 6436 C 596.113 0.296587 -1.63431 0
M  V30 6437 O 597.298 0.180079 -1.89948 0
M  V30 6438 C 594.438 -0.136203 -3.44831 0
M  V30 6439 C 593.551 -1.20414 -4.14879 0
M  V30 6440 C 592.686 -0.585666 -5.27962 0
M  V30 6441 C 591.725 -1.63548 -5.89846 0
M  V30 6442 N 590.862 -1.03864 -6.94375 0
M  V30 6443 H 595.702 -1.61932 -2.50164 0
M  V30 6444 H 593.239 -0.80919 -1.22844 0
M  V30 6445 H 595.197 0.219021 -4.16625 0
M  V30 6446 H 593.827 0.728121 -3.14481 0
M  V30 6447 H 592.879 -1.67676 -3.41451 0
M  V30 6448 H 594.191 -1.99959 -4.56966 0
M  V30 6449 H 593.345 -0.178818 -6.06436 0
M  V30 6450 H 592.084 0.24142 -4.87102 0
M  V30 6451 H 591.089 -2.05197 -5.10073 0
M  V30 6452 H 592.314 -2.46509 -6.3278 0
M  V30 6453 H 590.26 -0.232687 -6.55587 0
M  V30 6454 H 590.177 -1.77116 -7.3496 0
M  V30 6455 H 591.445 -0.657724 -7.7672 0
M  V30 6456 N 595.674 1.31259 -0.872281 0
M  V30 6457 C 596.622 2.30404 -0.318897 0
M  V30 6458 C 597.616 1.5962 0.567267 0
M  V30 6459 O 598.822 1.74204 0.453111 0
M  V30 6460 H 595.197 0.747243 -0.0844474 0
M  V30 6461 H 597.168 2.74549 -1.16899 0
M  V30 6462 C 595.917 3.44608 0.462683 0
M  V30 6463 H 595.24 3.99248 -0.209936 0
M  V30 6464 H 596.68 4.1609 0.815187 0
M  V30 6465 C 595.139 2.93456 1.65485 0
M  V30 6466 O 595.669 2.92418 2.75417 0
M  V30 6467 N 593.875 2.49628 1.48776 0
M  V30 6468 H 593.422 2.50671 0.593452 0
M  V30 6469 H 593.38 2.15759 2.28682 0
M  V30 6470 N 597.152 0.631951 1.44375 0
M  V30 6471 C 598.085 -0.121822 2.27875 0
M  V30 6472 C 599.063 -0.850457 1.38586 0
M  V30 6473 O 600.247 -0.854378 1.68026 0
M  V30 6474 C 597.374 -1.17859 3.17533 0
M  V30 6475 C 596.42 -0.550391 4.22934 0
M  V30 6476 S 597.253 0.660145 5.31415 0
M  V30 6477 C 598.409 -0.396613 6.24642 0
M  V30 6478 H 598.642 0.586537 2.91457 0
M  V30 6479 H 596.175 0.420146 1.48574 0
M  V30 6480 H 598.133 -1.78335 3.69739 0
M  V30 6481 H 596.794 -1.85915 2.53169 0
M  V30 6482 H 595.987 -1.34631 4.85685 0
M  V30 6483 H 595.589 -0.0202306 3.73995 0
M  V30 6484 H 597.881 -1.26893 6.65511 0
M  V30 6485 H 598.824 0.195345 7.0783 0
M  V30 6486 H 599.232 -0.72288 5.59852 0
M  V30 6487 N 598.631 -1.53133 0.372548 0
M  V30 6488 C 599.541 -2.29671 -0.478379 0
M  V30 6489 C 600.557 -1.35913 -1.08644 0
M  V30 6490 O 601.733 -1.68975 -1.09588 0
M  V30 6491 C 598.798 -3.07625 -1.599 0
M  V30 6492 C 597.859 -4.17061 -1.01776 0
M  V30 6493 C 597.092 -4.91289 -2.08497 0
M  V30 6494 O 597.315 -4.65442 -3.29727 0
M  V30 6495 O 596.249 -5.7705 -1.71164 0
M  V30 6496 H 600.075 -3.03355 0.144649 0
M  V30 6497 H 597.66 -1.48773 0.136729 0
M  V30 6498 H 599.542 -3.56281 -2.25038 0
M  V30 6499 H 598.217 -2.3677 -2.2073 0
M  V30 6500 H 597.124 -3.72641 -0.330098 0
M  V30 6501 H 598.457 -4.90102 -0.453915 0
M  V30 6502 N 600.109 -0.101901 -1.5727 0
M  V30 6503 C 601.357 0.559091 -1.94213 0
M  V30 6504 C 601.678 1.68297 -0.984948 0
M  V30 6505 O 600.948 1.95863 -0.0381975 0
M  V30 6506 H 599.528 0.20952 -0.717015 0
M  V30 6507 H 602.19 -0.166831 -1.94185 0
M  V30 6508 H 601.286 0.96485 -2.96811 0
M  V30 6509 N 601.587 1.56661 0.17182 0
M  V30 6510 C 602.534 1.96371 1.21273 0
M  V30 6511 C 603.504 0.82756 1.44016 0
M  V30 6512 O 604.689 1.08764 1.56764 0
M  V30 6513 C 601.829 2.32838 2.54716 0
M  V30 6514 C 600.942 3.59628 2.39356 0
M  V30 6515 C 600.077 3.85311 3.65662 0
M  V30 6516 C 599.116 5.0545 3.45234 0
M  V30 6517 N 598.253 5.27268 4.63608 0
M  V30 6518 H 603.093 2.85106 0.86709 0
M  V30 6519 H 600.63 1.41073 0.416744 0
M  V30 6520 H 602.588 2.52004 3.3249 0
M  V30 6521 H 601.218 1.47214 2.87277 0
M  V30 6522 H 600.27 3.4838 1.52761 0
M  V30 6523 H 601.582 4.4756 2.20207 0
M  V30 6524 H 600.736 4.04841 4.51872 0
M  V30 6525 H 599.475 2.95753 3.8779 0
M  V30 6526 H 598.48 4.85819 2.5741 0
M  V30 6527 H 599.705 5.96538 3.24529 0
M  V30 6528 H 597.651 4.40662 4.85956 0
M  V30 6529 H 597.568 6.09422 4.4737 0
M  V30 6530 H 598.836 5.51277 5.51103 0
M  V30 6531 N 603.065 -0.440357 1.51323 0
M  V30 6532 C 604.314 -1.18697 1.63076 0
M  V30 6533 C 604.627 -1.92418 0.35136 0
M  V30 6534 O 605.833 -2.69258 0.348221 0
M  V30 6535 C 604.289 -2.15849 2.87988 0
M  V30 6536 C 603.897 -1.47789 4.22921 0
M  V30 6537 C 605.641 -2.90962 3.09098 0
M  V30 6538 C 603.548 -2.43407 5.38987 0
M  V30 6539 H 602.478 -0.44676 0.607389 0
M  V30 6540 H 605.129 -0.454313 1.77787 0
M  V30 6541 H 603.511 -2.92537 2.66905 0
M  V30 6542 H 604.685 -0.7668 4.54375 0
M  V30 6543 H 603 -0.848404 4.07665 0
M  V30 6544 H 605.597 -3.62584 3.92985 0
M  V30 6545 H 605.94 -3.52133 2.22053 0
M  V30 6546 H 606.473 -2.21381 3.30507 0
M  V30 6547 H 603.212 -1.86929 6.28282 0
M  V30 6548 H 602.732 -3.12579 5.11913 0
M  V30 6549 H 604.411 -3.046 5.70813 0
M  V30 6550 N 604.543 -1.41418 -0.695603 0
M  V30 6551 C 605.789 -1.40982 -1.4578 0
M  V30 6552 C 606.122 -0.0187763 -1.94191 0
M  V30 6553 O 605.397 0.95346 -1.69527 0
M  V30 6554 C 605.68 -2.41657 -2.66972 0
M  V30 6555 C 605.533 -3.89869 -2.24327 0
M  V30 6556 C 606.852 -2.39589 -3.69168 0
M  V30 6557 H 603.971 -0.513405 -0.528757 0
M  V30 6558 H 606.613 -1.72693 -0.792275 0
M  V30 6559 H 604.763 -2.14746 -3.23754 0
M  V30 6560 H 606.435 -4.27683 -1.72872 0
M  V30 6561 H 604.678 -4.04737 -1.56111 0
M  V30 6562 H 605.349 -4.55857 -3.11285 0
M  V30 6563 H 607.825 -2.63471 -3.2206 0
M  V30 6564 H 606.701 -3.12044 -4.51575 0
M  V30 6565 H 606.962 -1.41447 -4.18862 0
M  V30 6566 N 606.021 0.929856 -1.27246 0
M  V30 6567 C 606.953 2.03434 -1.0558 0
M  V30 6568 C 607.966 1.62795 -0.0125762 0
M  V30 6569 O 609.155 1.76685 -0.2539 0
M  V30 6570 C 606.255 3.33915 -0.57912 0
M  V30 6571 C 605.428 4.03259 -1.69415 0
M  V30 6572 C 604.487 5.12014 -1.21357 0
M  V30 6573 O 603.513 5.36097 -1.91282 0
M  V30 6574 N 604.715 5.8046 -0.0680622 0
M  V30 6575 H 607.48 2.22583 -2.00691 0
M  V30 6576 H 605.041 1.1001 -1.18783 0
M  V30 6577 H 607.033 4.03978 -0.241563 0
M  V30 6578 H 605.603 3.11355 0.278703 0
M  V30 6579 H 604.823 3.26958 -2.20209 0
M  V30 6580 H 606.111 4.46337 -2.44255 0
M  V30 6581 H 605.509 5.63345 0.515626 0
M  V30 6582 H 604.066 6.51461 0.210332 0
M  V30 6583 N 607.499 1.09233 1.13605 0
M  V30 6584 C 608.91 0.846839 1.6639 0
M  V30 6585 C 609.261 -0.625031 1.85978 0
M  V30 6586 O 608.386 -1.48173 1.57714 0
M  V30 6587 C 608.981 1.5307 3.0225 0
M  V30 6588 C 607.54 1.33223 3.52035 0
M  V30 6589 C 606.687 1.58806 2.27323 0
M  V30 6590 H 609.638 1.25175 0.975541 0
M  V30 6591 H 609.659 0.96267 3.68121 0
M  V30 6592 H 609.171 2.60192 2.87961 0
M  V30 6593 H 607.272 0.282091 3.71531 0
M  V30 6594 H 607.385 2.0657 4.32279 0
M  V30 6595 H 605.749 1.01007 2.33815 0
M  V30 6596 H 606.532 2.67153 2.15602 0
M  V30 6597 N 608.977 -1.30795 0.87923 0
M  V30 6598 C 609.887 -2.32041 0.345565 0
M  V30 6599 C 610.903 -1.65103 -0.549265 0
M  V30 6600 O 612.079 -1.9645 -0.443763 0
M  V30 6601 C 609.144 -3.43944 -0.436245 0
M  V30 6602 C 608.205 -4.26521 0.48765 0
M  V30 6603 C 607.438 -5.33081 -0.256943 0
M  V30 6604 O 607.661 -5.50762 -1.48381 0
M  V30 6605 O 606.595 -6.00635 0.389985 0
M  V30 6606 H 610.421 -2.79627 1.18501 0
M  V30 6607 H 608.006 -1.3486 0.642885 0
M  V30 6608 H 609.888 -4.12128 -0.879119 0
M  V30 6609 H 608.563 -2.98504 -1.25208 0
M  V30 6610 H 607.47 -3.61057 0.979216 0
M  V30 6611 H 608.803 -4.75551 1.26933 0
M  V30 6612 N 610.455 -0.639598 -1.44038 0
M  V30 6613 C 611.403 0.0723409 -2.32487 0
M  V30 6614 C 612.397 0.827129 -1.47834 0
M  V30 6615 O 613.603 0.73907 -1.64127 0
M  V30 6616 H 609.978 0.0421696 -0.750817 0
M  V30 6617 H 611.949 -0.691593 -2.90275 0
M  V30 6618 C 610.698 1.03452 -3.31953 0
M  V30 6619 H 610.021 0.46315 -3.97108 0
M  V30 6620 H 611.461 1.502 -3.96505 0
M  V30 6621 C 609.92 2.12392 -2.61518 0
M  V30 6622 O 610.45 3.2059 -2.42044 0
M  V30 6623 N 608.656 1.88563 -2.21116 0
M  V30 6624 H 608.203 1.00577 -2.37154 0
M  V30 6625 H 608.161 2.61651 -1.74316 0
M  V30 6626 N 611.933 1.52934 -0.380664 0
M  V30 6627 C 612.863 2.29118 0.450268 0
M  V30 6628 C 613.844 1.32153 1.07096 0
M  V30 6629 O 615.029 1.61038 1.08537 0
M  V30 6630 C 612.159 3.09161 1.58231 0
M  V30 6631 C 611.113 4.13938 1.0881 0
M  V30 6632 C 610.439 4.82153 2.31155 0
M  V30 6633 C 611.739 5.22048 0.162146 0
M  V30 6634 H 613.433 2.98826 -0.185361 0
M  V30 6635 H 610.979 1.43715 -0.0905886 0
M  V30 6636 H 612.932 3.61211 2.17036 0
M  V30 6637 H 611.656 2.3717 2.2454 0
M  V30 6638 H 610.315 3.62855 0.522633 0
M  V30 6639 H 609.963 4.06719 2.95953 0
M  V30 6640 H 609.663 5.52966 1.98752 0
M  V30 6641 H 611.187 5.37004 2.90618 0
M  V30 6642 H 612.601 5.6951 0.658126 0
M  V30 6643 H 610.998 6.00057 -0.0717122 0
M  V30 6644 H 612.068 4.78398 -0.791438 0
M  V30 6645 N 613.412 0.11024 1.57214 0
M  V30 6646 C 614.322 -0.857077 2.18383 0
M  V30 6647 C 615.338 -1.29915 1.1575 0
M  V30 6648 O 616.514 -1.36394 1.48184 0
M  V30 6649 C 613.579 -2.09264 2.76423 0
M  V30 6650 C 612.64 -1.70333 3.94063 0
M  V30 6651 C 611.873 -2.87999 4.49324 0
M  V30 6652 O 612.096 -4.0317 4.03497 0
M  V30 6653 O 611.03 -2.6559 5.40135 0
M  V30 6654 H 614.856 -0.366561 3.0148 0
M  V30 6655 H 612.441 -0.114914 1.48957 0
M  V30 6656 H 614.323 -2.81644 3.13456 0
M  V30 6657 H 612.998 -2.57339 1.96363 0
M  V30 6658 H 611.905 -0.950864 3.61814 0
M  V30 6659 H 613.238 -1.27007 4.75531 0
M  V30 6660 N 614.89 -1.56749 -0.16351 0
M  V30 6661 C 616.12 -1.86307 -0.892936 0
M  V30 6662 C 616.528 -0.6945 -1.75992 0
M  V30 6663 O 615.871 0.345384 -1.80424 0
M  V30 6664 C 615.933 -3.10372 -1.81409 0
M  V30 6665 C 615.597 -4.42913 -1.12593 0
M  V30 6666 C 616.594 -5.17608 -0.487661 0
M  V30 6667 C 614.279 -4.89646 -1.12035 0
M  V30 6668 C 616.273 -6.3723 0.14699 0
M  V30 6669 C 613.96 -6.09197 -0.481883 0
M  V30 6670 C 614.958 -6.82834 0.150678 0
M  V30 6671 O 614.646 -8.00116 0.779065 0
M  V30 6672 H 614.378 -0.622126 -0.264452 0
M  V30 6673 H 616.932 -2.04728 -0.166063 0
M  V30 6674 H 615.162 -2.87917 -2.58148 0
M  V30 6675 H 616.851 -3.26312 -2.41403 0
M  V30 6676 H 617.617 -4.8258 -0.483888 0
M  V30 6677 H 613.496 -4.32265 -1.60212 0
M  V30 6678 H 617.04 -6.94646 0.641325 0
M  V30 6679 H 612.937 -6.43688 -0.483266 0
M  V30 6680 H 613.705 -8.15678 0.679089 0
M  V30 6681 N 616.368 0.432326 -1.51554 0
M  V30 6682 C 617.596 1.20364 -1.68286 0
M  V30 6683 C 618.011 1.84888 -0.38233 0
M  V30 6684 O 617.368 1.70924 0.639627 0
M  V30 6685 C 617.419 2.28398 -2.80208 0
M  V30 6686 O 617.14 1.66512 -4.05223 0
M  V30 6687 C 618.641 3.18584 -3.08251 0
M  V30 6688 H 615.861 0.36259 -0.564596 0
M  V30 6689 H 618.405 0.511647 -1.97996 0
M  V30 6690 H 616.56 2.93305 -2.53083 0
M  V30 6691 H 616.974 2.37951 -4.67418 0
M  V30 6692 H 618.448 3.90511 -3.90135 0
M  V30 6693 H 618.925 3.79628 -2.2086 0
M  V30 6694 H 619.531 2.59372 -3.37055 0
M  V30 6695 N 617.846 1.41785 0.688094 0
M  V30 6696 C 619.092 1.41753 1.4503 0
M  V30 6697 C 619.425 0.0290745 1.94178 0
M  V30 6698 O 618.7 -0.944456 1.7003 0
M  V30 6699 C 618.983 2.43069 2.65686 0
M  V30 6700 C 618.836 3.91053 2.22256 0
M  V30 6701 C 620.155 2.41543 3.67893 0
M  V30 6702 H 617.274 0.516202 0.526027 0
M  V30 6703 H 619.916 1.73111 0.783105 0
M  V30 6704 H 618.066 2.1646 3.2261 0
M  V30 6705 H 619.738 4.28594 1.70602 0
M  V30 6706 H 617.981 4.05559 1.53963 0
M  V30 6707 H 618.652 4.57501 3.08863 0
M  V30 6708 H 621.128 2.65175 3.20658 0
M  V30 6709 H 620.004 3.14434 4.49914 0
M  V30 6710 H 620.265 1.43666 4.18106 0
M  V30 6711 N 619.324 -0.923095 1.27737 0
M  V30 6712 C 620.57 -1.67375 1.14514 0
M  V30 6713 C 620.903 -1.91751 -0.307424 0
M  V30 6714 O 620.178 -1.51119 -1.22447 0
M  V30 6715 C 620.461 -3.03745 1.9342 0
M  V30 6716 C 620.314 -2.86581 3.46686 0
M  V30 6717 C 621.633 -4.04144 1.74228 0
M  V30 6718 H 618.752 -0.607427 0.417374 0
M  V30 6719 H 621.394 -1.07089 1.56946 0
M  V30 6720 H 619.544 -3.55204 1.5736 0
M  V30 6721 H 621.216 -2.42203 3.92601 0
M  V30 6722 H 619.459 -2.21829 3.72793 0
M  V30 6723 H 620.13 -3.83381 3.97143 0
M  V30 6724 H 622.606 -3.61712 2.05678 0
M  V30 6725 H 621.482 -4.97543 2.31824 0
M  V30 6726 H 621.743 -4.36661 0.691373 0
M  V30 6727 N 620.802 -1.09834 -1.13024 0
M  V30 6728 C 622.051 -0.831806 -1.83749 0
M  V30 6729 C 622.364 0.644763 -1.84668 0
M  V30 6730 O 623.57 1.02697 -2.51327 0
M  V30 6731 C 622.026 -1.43817 -3.29916 0
M  V30 6732 C 621.634 -2.94759 -3.37374 0
M  V30 6733 C 623.378 -1.25077 -4.05655 0
M  V30 6734 C 621.285 -3.48461 -4.77838 0
M  V30 6735 H 620.215 -0.30751 -0.688443 0
M  V30 6736 H 622.866 -1.32156 -1.27307 0
M  V30 6737 H 621.248 -0.876106 -3.86187 0
M  V30 6738 H 622.422 -3.57228 -2.91076 0
M  V30 6739 H 620.737 -3.12581 -2.75103 0
M  V30 6740 H 623.334 -1.62649 -5.09362 0
M  V30 6741 H 623.677 -0.191782 -4.15858 0
M  V30 6742 H 624.21 -1.78057 -3.55725 0
M  V30 6743 H 620.949 -4.53998 -4.72828 0
M  V30 6744 H 620.469 -2.90757 -5.24615 0
M  V30 6745 H 622.148 -3.45914 -5.46766 0
M  V30 6746 N 622.28 1.30327 -0.886154 0
M  V30 6747 C 623.508 2.00254 -0.520176 0
M  V30 6748 C 623.923 1.66419 0.891637 0
M  V30 6749 O 623.28 0.901951 1.58654 0
M  V30 6750 C 623.331 3.54916 -0.686775 0
M  V30 6751 O 623.052 3.87547 -2.04301 0
M  V30 6752 C 624.553 4.42115 -0.323945 0
M  V30 6753 H 621.773 0.640204 -0.200947 0
M  V30 6754 H 624.317 1.66183 -1.19178 0
M  V30 6755 H 622.472 3.8735 -0.0625273 0
M  V30 6756 H 622.886 4.82247 -2.06249 0
M  V30 6757 H 624.36 5.49808 -0.491407 0
M  V30 6758 H 624.837 4.32953 0.73811 0
M  V30 6759 H 625.443 4.15129 -0.924565 0
M  V30 6760 N 623.758 0.647228 1.43697 0
M  V30 6761 C 625.169 0.238689 1.85168 0
M  V30 6762 C 625.52 -1.21345 1.54175 0
M  V30 6763 O 624.645 -1.92542 0.987743 0
M  V30 6764 C 625.24 0.426422 3.36106 0
M  V30 6765 C 623.799 0.0722541 3.76331 0
M  V30 6766 C 622.946 0.732153 2.6746 0
M  V30 6767 H 625.897 0.851309 1.33934 0
M  V30 6768 H 625.918 -0.32987 3.79067 0
M  V30 6769 H 625.43 1.48339 3.58632 0
M  V30 6770 H 623.531 -0.982355 3.59417 0
M  V30 6771 H 623.644 0.493541 4.76551 0
M  V30 6772 H 622.008 0.16594 2.54159 0
M  V30 6773 H 622.791 1.79204 2.92816 0
M  V30 6774 N 625.236 -1.5273 0.388769 0
M  V30 6775 C 626.186 -2.23238 -0.463567 0
M  V30 6776 C 627.17 -1.23606 -1.03007 0
M  V30 6777 O 628.362 -1.48945 -0.956261 0
M  V30 6778 C 625.491 -3.04228 -1.5906 0
M  V30 6779 C 624.577 -4.11255 -1.03587 0
M  V30 6780 N 624.968 -5.0538 -0.206038 0
M  V30 6781 C 623.266 -4.26376 -1.30841 0
M  V30 6782 C 623.967 -5.81613 0.100359 0
M  V30 6783 N 622.943 -5.41264 -0.503447 0
M  V30 6784 H 626.745 -2.93367 0.176978 0
M  V30 6785 H 624.259 -1.61188 0.198046 0
M  V30 6786 H 626.256 -3.53277 -2.21362 0
M  V30 6787 H 624.916 -2.35634 -2.23398 0
M  V30 6788 H 625.927 -5.17663 0.156659 0
M  V30 6789 H 622.604 -3.69011 -1.95287 0
M  V30 6790 H 623.994 -6.67442 0.772676 0
M  V30 6791 N 626.714 -0.118576 -1.57153 0
M  V30 6792 C 627.939 0.550582 -1.99958 0
M  V30 6793 C 628.364 1.59458 -0.997736 0
M  V30 6794 O 627.722 1.81274 0.0306269 0
M  V30 6795 C 627.77 1.15379 -3.41643 0
M  V30 6796 O 626.874 2.26932 -3.44348 0
M  V30 6797 H 626.215 0.137567 -0.649593 0
M  V30 6798 H 628.745 -0.206926 -2.03551 0
M  V30 6799 H 628.755 1.48942 -3.79843 0
M  V30 6800 H 627.43 0.389087 -4.14076 0
M  V30 6801 H 626.007 1.94812 -3.17967 0
M  V30 6802 N 628.193 1.56834 0.155195 0
M  V30 6803 C 629.441 1.82536 0.867462 0
M  V30 6804 C 629.762 0.698168 1.82073 0
M  V30 6805 O 629.032 -0.280807 1.93877 0
M  V30 6806 H 627.612 0.673401 0.323327 0
M  V30 6807 H 630.274 1.94313 0.151156 0
M  V30 6808 H 629.37 2.77171 1.43466 0
M  V30 6809 N 629.671 -0.424282 1.51781 0
M  V30 6810 C 630.581 -1.54087 1.76902 0
M  V30 6811 C 631.597 -1.61249 0.653826 0
M  V30 6812 O 632.773 -1.78247 0.937552 0
M  V30 6813 C 629.838 -2.8996 1.90063 0
M  V30 6814 C 628.899 -2.92809 3.13945 0
M  V30 6815 C 628.132 -4.22201 3.26469 0
M  V30 6816 O 628.355 -5.15286 2.44616 0
M  V30 6817 O 627.289 -4.31599 4.1953 0
M  V30 6818 H 631.115 -1.358 2.71647 0
M  V30 6819 H 628.7 -0.608618 1.36441 0
M  V30 6820 H 630.582 -3.70575 2.0063 0
M  V30 6821 H 629.257 -3.08347 0.985067 0
M  V30 6822 H 628.164 -2.11102 3.08847 0
M  V30 6823 H 629.497 -2.79369 4.05233 0
M  V30 6824 N 631.149 -1.42148 -0.680565 0
M  V30 6825 C 632.059 -1.47565 -1.82378 0
M  V30 6826 C 633.075 -0.36489 -1.70131 0
M  V30 6827 O 634.251 -0.614916 -1.91783 0
M  V30 6828 C 631.316 -1.37013 -3.18478 0
M  V30 6829 C 630.377 -2.58532 -3.42724 0
M  V30 6830 C 629.61 -2.48473 -4.72331 0
M  V30 6831 O 629.833 -1.51745 -5.49845 0
M  V30 6832 O 628.767 -3.38503 -4.97694 0
M  V30 6833 H 632.593 -2.44045 -1.80764 0
M  V30 6834 H 630.178 -1.23849 -0.835569 0
M  V30 6835 H 632.06 -1.33468 -3.99705 0
M  V30 6836 H 630.735 -0.436552 -3.20743 0
M  V30 6837 H 629.642 -2.67652 -2.61368 0
M  V30 6838 H 630.975 -3.50769 -3.45286 0
M  V30 6839 N 632.627 0.916307 -1.28225 0
M  V30 6840 C 633.577 2.00488 -1.08574 0
M  V30 6841 C 634.561 1.60897 -0.0101874 0
M  V30 6842 O 635.753 1.75499 -0.230034 0
M  V30 6843 C 632.882 3.35076 -0.746943 0
M  V30 6844 C 631.968 3.81077 -1.86121 0
M  V30 6845 N 632.359 3.99475 -3.10247 0
M  V30 6846 C 630.657 4.10212 -1.75048 0
M  V30 6847 C 631.358 4.37965 -3.82834 0
M  V30 6848 N 630.334 4.4608 -3.10667 0
M  V30 6849 H 634.136 2.1276 -2.02757 0
M  V30 6850 H 631.65 1.10397 -1.19107 0
M  V30 6851 H 633.647 4.12743 -0.587252 0
M  V30 6852 H 632.307 3.2416 0.187146 0
M  V30 6853 H 633.318 3.85466 -3.45885 0
M  V30 6854 H 629.995 4.07947 -0.887999 0
M  V30 6855 H 631.385 4.60183 -4.89572 0
M  V30 6856 N 634.105 1.10431 1.1244 0
M  V30 6857 C 635.068 0.756542 2.16354 0
M  V30 6858 C 636.068 -0.21899 1.59302 0
M  V30 6859 O 637.258 0.00415969 1.742 0
M  V30 6860 C 634.39 0.120612 3.40687 0
M  V30 6861 H 635.583 1.67696 2.48632 0
M  V30 6862 H 633.136 0.904832 1.27446 0
M  V30 6863 H 633.871 -0.810536 3.14008 0
M  V30 6864 H 633.656 0.822693 3.83372 0
M  V30 6865 H 635.146 -0.106945 4.17463 0
M  V30 6866 N 635.583 -1.29855 0.893053 0
M  V30 6867 C 636.829 -1.96116 0.516349 0
M  V30 6868 C 637.162 -1.70281 -0.933695 0
M  V30 6869 O 636.437 -1.01205 -1.66096 0
M  V30 6870 C 636.72 -3.51068 0.801455 0
M  V30 6871 C 636.573 -3.86387 2.30272 0
M  V30 6872 C 637.892 -4.39186 0.283423 0
M  V30 6873 H 635.011 -0.712335 0.189072 0
M  V30 6874 H 637.653 -1.53587 1.11852 0
M  V30 6875 H 635.803 -3.87424 0.288949 0
M  V30 6876 H 637.475 -3.60012 2.88425 0
M  V30 6877 H 635.718 -3.34167 2.76613 0
M  V30 6878 H 636.389 -4.94512 2.45279 0
M  V30 6879 H 638.865 -4.09785 0.722187 0
M  V30 6880 H 637.741 -5.46505 0.512169 0
M  V30 6881 H 638.002 -4.34511 -0.815643 0
M  V30 6882 N 637.061 -0.65484 -1.43351 0
M  V30 6883 C 638.309 -0.168559 -2.01396 0
M  V30 6884 C 638.63 1.22235 -1.51933 0
M  V30 6885 O 637.9 1.81685 -0.732627 0
M  V30 6886 H 636.48 -0.0593244 -0.744641 0
M  V30 6887 H 639.142 -0.846871 -1.75539 0
M  V30 6888 H 638.238 -0.154428 -3.11718 0
M  V30 6889 N 638.539 1.52521 -0.396863 0
M  V30 6890 C 639.487 2.28217 0.44943 0
M  V30 6891 C 640.481 1.32416 1.05652 0
M  V30 6892 O 641.687 1.49925 0.996124 0
M  V30 6893 H 638.062 0.733966 0.1637 0
M  V30 6894 H 640.033 2.97658 -0.210367 0
M  V30 6895 C 638.782 3.10713 1.56054 0
M  V30 6896 H 638.105 3.84291 1.10273 0
M  V30 6897 H 639.545 3.66803 2.12677 0
M  V30 6898 C 638.004 2.23499 2.52091 0
M  V30 6899 O 638.534 1.8669 3.55682 0
M  V30 6900 N 636.74 1.8751 2.2201 0
M  V30 6901 H 636.287 2.17643 1.37802 0
M  V30 6902 H 636.245 1.29448 2.86514 0
M  V30 6903 N 640.017 0.126909 1.57088 0
M  V30 6904 C 641.294 -0.573152 1.87014 0
M  V30 6905 C 641.674 -1.84297 1.02945 0
M  V30 6906 O 641.022 -2.28232 0.110573 0
M  V30 6907 C 641.232 -0.857984 3.38289 0
M  V30 6908 C 642.58 -1.20759 4.07066 0
M  V30 6909 O 643.604 -0.947992 3.43353 0
M  V30 6910 O 642.463 -1.69516 5.19545 0
M  V30 6911 H 639.557 -0.290082 0.774456 0
M  V30 6912 H 642.103 0.162008 1.68925 0
M  V30 6913 H 640.875 0.0415286 3.91278 0
M  V30 6914 H 640.498 -1.64803 3.61837 0
M  V30 6915 N 641.495 -1.56914 -0.146875 0
M  V30 6916 C 642.723 -1.87515 -0.874394 0
M  V30 6917 C 643.138 -0.715116 -1.74733 0
M  V30 6918 O 642.495 0.315113 -1.79759 0
M  V30 6919 C 642.546 -3.17362 -1.731 0
M  V30 6920 O 642.267 -4.28897 -0.893245 0
M  V30 6921 C 643.768 -3.61479 -2.56609 0
M  V30 6922 H 640.988 -0.621546 -0.252827 0
M  V30 6923 H 643.532 -2.04023 -0.139627 0
M  V30 6924 H 641.687 -3.02608 -2.41883 0
M  V30 6925 H 642.101 -5.03146 -1.48137 0
M  V30 6926 H 643.575 -4.5517 -3.12289 0
M  V30 6927 H 644.052 -2.86773 -3.32653 0
M  V30 6928 H 644.658 -3.78927 -1.93117 0
M  V30 6929 N 642.974 0.416227 -1.52004 0
M  V30 6930 C 644.222 1.16153 -1.65387 0
M  V30 6931 C 644.543 1.91208 -0.382669 0
M  V30 6932 O 643.813 1.86413 0.602231 0
M  V30 6933 H 642.393 0.431765 -0.60958 0
M  V30 6934 H 645.055 0.475151 -1.89019 0
M  V30 6935 H 644.151 1.87952 -2.4916 0
M  V30 6936 N 644.452 1.42507 0.673017 0
M  V30 6937 C 645.399 1.46124 1.78651 0
M  V30 6938 C 646.369 0.313007 1.63124 0
M  V30 6939 O 647.554 0.517337 1.83653 0
M  V30 6940 C 644.694 1.3711 3.16694 0
M  V30 6941 C 643.807 2.61983 3.43495 0
M  V30 6942 C 642.942 2.45098 4.71275 0
M  V30 6943 C 641.981 3.65336 4.91117 0
M  V30 6944 N 641.118 3.47383 6.10139 0
M  V30 6945 H 645.958 2.4128 1.74895 0
M  V30 6946 H 643.495 1.19788 0.853766 0
M  V30 6947 H 645.453 1.29881 3.96468 0
M  V30 6948 H 644.083 0.45549 3.1957 0
M  V30 6949 H 643.135 2.79571 2.57961 0
M  V30 6950 H 644.447 3.51355 3.5405 0
M  V30 6951 H 643.601 2.35466 5.59143 0
M  V30 6952 H 642.34 1.53219 4.63007 0
M  V30 6953 H 641.345 3.754 4.0169 0
M  V30 6954 H 642.57 4.58199 5.01229 0
M  V30 6955 H 640.516 2.58222 6.0304 0
M  V30 6956 H 640.433 4.30344 6.21563 0
M  V30 6957 H 641.701 3.41565 7.00681 0
M  V30 6958 N 645.93 -0.909495 1.28709 0
M  V30 6959 C 646.88 -1.9991 1.09636 0
M  V30 6960 C 647.864 -1.60889 0.01872 0
M  V30 6961 O 649.056 -1.75374 0.239338 0
M  V30 6962 C 646.185 -3.34675 0.764702 0
M  V30 6963 C 645.271 -3.80085 1.8814 0
M  V30 6964 N 645.662 -3.97824 3.12361 0
M  V30 6965 C 643.96 -4.09278 1.77221 0
M  V30 6966 C 644.661 -4.35928 3.85151 0
M  V30 6967 N 643.637 -4.44426 3.13028 0
M  V30 6968 H 647.439 -2.11681 2.03883 0
M  V30 6969 H 644.953 -1.09763 1.1969 0
M  V30 6970 H 646.95 -4.12426 0.609132 0
M  V30 6971 H 645.61 -3.24255 -0.169952 0
M  V30 6972 H 646.621 -3.83626 3.47925 0
M  V30 6973 H 643.298 -4.0747 0.909621 0
M  V30 6974 H 644.688 -4.57581 4.92006 0
M  V30 6975 N 647.408 -1.11026 -1.11852 0
M  V30 6976 C 648.656 -0.854769 -1.83134 0
M  V30 6977 C 648.977 0.621375 -1.84835 0
M  V30 6978 O 648.247 1.45129 -1.31584 0
M  V30 6979 H 646.827 -0.313229 -0.678157 0
M  V30 6980 H 649.489 -1.40178 -1.35411 0
M  V30 6981 H 648.585 -1.22311 -2.87135 0
M  V30 6982 N 648.886 1.2938 -0.899927 0
M  V30 6983 C 649.833 2.27713 -0.376243 0
M  V30 6984 C 650.803 1.57016 0.541774 0
M  V30 6985 O 651.988 1.84997 0.466966 0
M  V30 6986 C 649.128 3.42889 0.39 0
M  V30 6987 C 648.241 4.28369 -0.558938 0
M  V30 6988 C 647.376 5.30726 0.224379 0
M  V30 6989 C 646.415 6.07862 -0.719068 0
M  V30 6990 N 645.552 7.02094 0.0298569 0
M  V30 6991 H 650.392 2.71888 -1.21988 0
M  V30 6992 H 647.929 1.33724 -0.612879 0
M  V30 6993 H 649.887 4.08443 0.850314 0
M  V30 6994 H 648.517 2.99743 1.19809 0
M  V30 6995 H 647.569 3.62986 -1.13777 0
M  V30 6996 H 648.881 4.82068 -1.2811 0
M  V30 6997 H 648.035 6.02098 0.745881 0
M  V30 6998 H 646.774 4.77759 0.979674 0
M  V30 6999 H 645.779 5.35353 -1.25207 0
M  V30 7000 H 647.004 6.62917 -1.4737 0
M  V30 7001 H 644.95 6.51496 0.767415 0
M  V30 7002 H 644.867 7.5335 -0.632391 0
M  V30 7003 H 646.135 7.77685 0.531615 0
M  V30 7004 N 650.364 0.662433 1.43002 0
M  V30 7005 C 651.274 -0.0239199 2.34588 0
M  V30 7006 C 652.29 -0.802255 1.54402 0
M  V30 7007 O 653.466 -0.747401 1.87018 0
M  V30 7008 C 650.531 -0.972098 3.32793 0
M  V30 7009 C 649.592 -0.189673 4.28881 0
M  V30 7010 C 648.825 -1.09269 5.22395 0
M  V30 7011 O 649.048 -2.33209 5.20547 0
M  V30 7012 O 647.982 -0.560136 5.99288 0
M  V30 7013 H 651.808 0.730171 2.94792 0
M  V30 7014 H 649.393 0.422635 1.43297 0
M  V30 7015 H 651.275 -1.51676 3.93157 0
M  V30 7016 H 649.95 -1.70626 2.75079 0
M  V30 7017 H 648.857 0.398794 3.71968 0
M  V30 7018 H 650.19 0.50511 4.89601 0
M  V30 7019 N 651.842 -1.52309 0.404946 0
M  V30 7020 C 653.088 -2.02065 -0.172455 0
M  V30 7021 C 653.421 -1.29022 -1.45145 0
M  V30 7022 O 652.696 -0.395284 -1.90441 0
M  V30 7023 C 652.979 -3.5759 -0.424433 0
M  V30 7024 C 652.832 -4.41287 0.870945 0
M  V30 7025 C 654.151 -4.23186 -1.20837 0
M  V30 7026 H 651.27 -0.734454 -0.0612035 0
M  V30 7027 H 653.912 -1.82236 0.53759 0
M  V30 7028 H 652.062 -3.74617 -1.02929 0
M  V30 7029 H 653.734 -4.3598 1.50729 0
M  V30 7030 H 651.977 -4.07669 1.48284 0
M  V30 7031 H 652.648 -5.48171 0.649083 0
M  V30 7032 H 655.124 -4.10232 -0.696338 0
M  V30 7033 H 654 -5.31953 -1.35343 0
M  V30 7034 H 654.261 -3.81862 -2.22786 0
M  V30 7035 N 653.32 -0.135238 -1.57019 0
M  V30 7036 C 654.267 0.808908 -2.1616 0
M  V30 7037 C 655.237 1.25234 -1.09113 0
M  V30 7038 O 656.422 1.32697 -1.37099 0
M  V30 7039 C 653.562 2.04729 -2.77813 0
M  V30 7040 C 652.675 1.65074 -3.99218 0
M  V30 7041 C 651.81 2.84002 -4.48906 0
M  V30 7042 C 650.849 2.40663 -5.62803 0
M  V30 7043 N 649.986 3.5256 -6.07162 0
M  V30 7044 H 654.826 0.297751 -2.96509 0
M  V30 7045 H 652.363 0.135264 -1.46477 0
M  V30 7046 H 654.321 2.7731 -3.11697 0
M  V30 7047 H 652.951 2.53275 -2.00128 0
M  V30 7048 H 652.003 0.823029 -3.7139 0
M  V30 7049 H 653.315 1.29236 -4.81767 0
M  V30 7050 H 652.469 3.64788 -4.84783 0
M  V30 7051 H 651.208 3.23076 -3.65339 0
M  V30 7052 H 650.213 1.58314 -5.26514 0
M  V30 7053 H 651.438 2.02687 -6.48147 0
M  V30 7054 H 649.384 3.91278 -5.26534 0
M  V30 7055 H 649.301 3.20699 -6.84608 0
M  V30 7056 H 650.569 4.33738 -6.47682 0
M  V30 7057 N 654.798 1.5699 0.138552 0
M  V30 7058 C 656.047 1.82998 0.848205 0
M  V30 7059 C 656.36 0.717829 1.81952 0
M  V30 7060 O 657.566 0.863756 2.57394 0
M  V30 7061 C 656.022 3.24379 1.55904 0
M  V30 7062 C 655.63 4.43552 0.62971 0
M  V30 7063 C 657.374 3.59654 2.25498 0
M  V30 7064 C 655.281 5.75957 1.34266 0
M  V30 7065 H 654.211 0.682495 0.320495 0
M  V30 7066 H 656.862 1.83222 0.100924 0
M  V30 7067 H 655.244 3.18567 2.35226 0
M  V30 7068 H 656.418 4.6062 -0.128882 0
M  V30 7069 H 654.733 4.16379 0.0417526 0
M  V30 7070 H 657.33 4.55837 2.79493 0
M  V30 7071 H 657.673 2.86124 3.02388 0
M  V30 7072 H 658.206 3.67164 1.53087 0
M  V30 7073 H 654.945 6.52604 0.615441 0
M  V30 7074 H 654.465 5.62811 2.07375 0
M  V30 7075 H 656.144 6.19046 1.88126 0
M  V30 7076 N 656.276 -0.40816 1.52223 0
M  V30 7077 C 657.504 -1.17672 1.70179 0
M  V30 7078 C 657.919 -1.84257 0.411696 0
M  V30 7079 O 657.276 -1.7192 -0.612354 0
M  V30 7080 C 657.327 -2.23911 2.83806 0
M  V30 7081 O 657.048 -1.60044 4.0782 0
M  V30 7082 C 658.549 -3.1364 3.13281 0
M  V30 7083 H 655.769 -0.353562 0.570293 0
M  V30 7084 H 658.313 -0.480083 1.98785 0
M  V30 7085 H 656.468 -2.89242 2.57717 0
M  V30 7086 H 656.882 -2.30484 4.71145 0
M  V30 7087 H 658.356 -3.84255 3.96298 0
M  V30 7088 H 658.833 -3.76066 2.26872 0
M  V30 7089 H 659.439 -2.53977 3.41139 0
M  V30 7090 N 657.755 -1.42862 -0.66545 0
M  V30 7091 C 659.166 -1.3901 -1.24632 0
M  V30 7092 C 659.517 -0.0880285 -1.96002 0
M  V30 7093 O 658.642 0.812947 -2.0055 0
M  V30 7094 C 659.237 -2.51806 -2.2667 0
M  V30 7095 C 657.796 -2.51257 -2.80262 0
M  V30 7096 C 656.943 -2.30124 -1.5472 0
M  V30 7097 H 659.894 -1.5194 -0.458237 0
M  V30 7098 H 659.915 -2.22593 -3.08598 0
M  V30 7099 H 659.427 -3.46558 -1.74697 0
M  V30 7100 H 657.528 -1.60349 -3.36332 0
M  V30 7101 H 657.641 -3.48614 -3.28641 0
M  V30 7102 H 656.005 -1.7856 -1.81627 0
M  V30 7103 H 656.788 -3.26945 -1.04699 0
M  V30 7104 N 659.233 0.902656 -1.29189 0
M  V30 7105 C 660.165 2.01149 -1.09872 0
M  V30 7106 C 661.178 1.62732 -0.0471046 0
M  V30 7107 O 662.367 1.76107 -0.29132 0
M  V30 7108 C 659.467 3.32612 -0.649818 0
M  V30 7109 C 658.64 3.99574 -1.7793 0
M  V30 7110 C 657.699 5.09325 -1.32191 0
M  V30 7111 O 656.725 5.31919 -2.02611 0
M  V30 7112 N 657.927 5.80185 -0.191171 0
M  V30 7113 H 660.692 2.18276 -2.05368 0
M  V30 7114 H 658.253 1.07466 -1.2109 0
M  V30 7115 H 660.245 4.03375 -0.327199 0
M  V30 7116 H 658.815 3.11876 0.212597 0
M  V30 7117 H 658.035 3.22213 -2.27095 0
M  V30 7118 H 659.323 4.41056 -2.53668 0
M  V30 7119 H 658.721 5.64312 0.396016 0
M  V30 7120 H 657.278 6.5176 0.0721001 0
M  V30 7121 N 660.711 1.11618 1.11262 0
M  V30 7122 C 661.936 0.889013 1.8738 0
M  V30 7123 C 662.361 -0.555884 1.79698 0
M  V30 7124 O 661.719 -1.39272 1.16073 0
M  V30 7125 C 661.767 1.35759 3.34069 0
M  V30 7126 O 660.871 0.530499 4.08974 0
M  V30 7127 H 660.212 0.320082 0.581759 0
M  V30 7128 H 662.742 1.48611 1.40627 0
M  V30 7129 H 662.752 1.35291 3.84916 0
M  V30 7130 H 661.427 2.40973 3.38976 0
M  V30 7131 H 660.004 0.601439 3.68018 0
M  V30 7132 N 662.189 -1.289 0.906776 0
M  V30 7133 C 663.414 -1.99939 0.551303 0
M  V30 7134 C 663.839 -1.67366 -0.858496 0
M  V30 7135 O 663.197 -0.902176 -1.57259 0
M  V30 7136 C 663.245 -3.52523 0.758937 0
M  V30 7137 O 662.349 -4.11983 -0.185308 0
M  V30 7138 H 661.69 -0.628376 0.214568 0
M  V30 7139 H 664.22 -1.64225 1.2203 0
M  V30 7140 H 664.23 -4.02522 0.666329 0
M  V30 7141 H 662.905 -3.75566 1.78671 0
M  V30 7142 H 661.482 -3.72873 -0.0445577 0
M  V30 7143 N 663.667 -0.670007 -1.42649 0
M  V30 7144 C 664.916 -0.187526 -2.00826 0
M  V30 7145 C 665.229 1.21142 -1.53571 0
M  V30 7146 O 666.435 1.79001 -2.04134 0
M  V30 7147 C 664.891 -0.284409 -3.58774 0
M  V30 7148 C 664.499 -1.6871 -4.15019 0
M  V30 7149 C 666.243 0.139605 -4.2427 0
M  V30 7150 C 664.15 -1.73701 -5.65316 0
M  V30 7151 H 663.08 -0.0663468 -0.751075 0
M  V30 7152 H 665.731 -0.834492 -1.63427 0
M  V30 7153 H 664.113 0.430364 -3.93655 0
M  V30 7154 H 665.287 -2.42857 -3.91608 0
M  V30 7155 H 663.602 -2.05855 -3.61957 0
M  V30 7156 H 666.199 0.122398 -5.3456 0
M  V30 7157 H 666.542 1.17403 -3.99402 0
M  V30 7158 H 667.075 -0.523995 -3.94334 0
M  V30 7159 H 663.814 -2.75109 -5.94975 0
M  V30 7160 H 663.334 -1.03903 -5.90732 0
M  V30 7161 H 665.013 -1.48829 -6.2965 0
M  V30 7162 N 665.145 1.52092 -0.413018 0
M  V30 7163 C 666.373 2.06274 0.160881 0
M  V30 7164 C 666.788 1.28273 1.38533 0
M  V30 7165 O 666.145 0.33563 1.79387 0
M  V30 7166 C 666.196 3.57921 0.507443 0
M  V30 7167 O 665.917 4.32971 -0.668388 0
M  V30 7168 C 667.418 4.28533 1.13465 0
M  V30 7169 H 664.638 0.67074 0.0186759 0
M  V30 7170 H 667.182 1.95951 -0.585092 0
M  V30 7171 H 665.337 3.68238 1.20331 0
M  V30 7172 H 665.751 5.23135 -0.378169 0
M  V30 7173 H 667.225 5.35804 1.32732 0
M  V30 7174 H 667.702 3.85258 2.10886 0
M  V30 7175 H 668.308 4.22595 0.478876 0
M  V30 7176 N 666.623 0.143563 1.56945 0
M  V30 7177 C 667.533 -0.810562 2.20152 0
M  V30 7178 C 668.549 -1.27431 1.1848 0
M  V30 7179 O 669.725 -1.33221 1.51044 0
M  V30 7180 C 666.79 -2.03353 2.80799 0
M  V30 7181 C 665.851 -1.61936 3.97587 0
M  V30 7182 C 665.084 -2.78403 4.55332 0
M  V30 7183 O 665.307 -3.94521 4.11958 0
M  V30 7184 O 664.241 -2.54073 5.45647 0
M  V30 7185 H 668.067 -0.30253 3.02189 0
M  V30 7186 H 665.652 -0.0832925 1.49168 0
M  V30 7187 H 667.534 -2.74932 3.19359 0
M  V30 7188 H 666.209 -2.53116 2.01777 0
M  V30 7189 H 665.116 -0.873904 3.6375 0
M  V30 7190 H 666.449 -1.16892 4.78118 0
M  V30 7191 N 668.101 -1.57061 -0.130224 0
M  V30 7192 C 669.064 -1.98593 -1.14426 0
M  V30 7193 C 670.064 -0.874584 -1.34936 0
M  V30 7194 O 671.254 -1.14086 -1.31643 0
M  V30 7195 C 668.386 -2.31639 -2.50112 0
M  V30 7196 H 669.579 -2.89374 -0.787561 0
M  V30 7197 H 667.132 -1.51756 -0.374146 0
M  V30 7198 H 667.867 -1.43703 -2.90723 0
M  V30 7199 H 667.652 -3.12684 -2.36583 0
M  V30 7200 H 669.142 -2.64551 -3.23114 0
M  V30 7201 N 669.579 0.400081 -1.52437 0
M  V30 7202 C 670.489 1.51253 -1.79331 0
M  V30 7203 C 671.505 1.60188 -0.679396 0
M  V30 7204 O 672.681 1.76733 -0.965791 0
M  V30 7205 C 669.746 2.869 -1.94652 0
M  V30 7206 C 668.807 2.87777 -3.18564 0
M  V30 7207 C 668.04 4.16954 -3.33145 0
M  V30 7208 O 668.263 5.11329 -2.52783 0
M  V30 7209 O 667.197 4.2487 -4.26343 0
M  V30 7210 H 671.023 1.31461 -2.73773 0
M  V30 7211 H 668.608 0.586834 -1.37392 0
M  V30 7212 H 670.49 3.67336 -2.065 0
M  V30 7213 H 669.165 3.06741 -1.034 0
M  V30 7214 H 668.072 2.06162 -3.12167 0
M  V30 7215 H 669.405 2.72886 -4.09627 0
M  V30 7216 N 671.057 1.43213 0.657864 0
M  V30 7217 C 671.987 1.50815 1.78262 0
M  V30 7218 C 672.968 0.363211 1.66177 0
M  V30 7219 O 674.153 0.579806 1.85343 0
M  V30 7220 C 671.283 1.42625 3.16663 0
M  V30 7221 C 670.237 2.5532 3.43505 0
M  V30 7222 C 669.563 2.32184 4.81658 0
M  V30 7223 C 670.863 3.97583 3.38711 0
M  V30 7224 H 672.557 2.44954 1.72157 0
M  V30 7225 H 670.103 1.17896 0.82683 0
M  V30 7226 H 672.056 1.46548 3.95097 0
M  V30 7227 H 670.78 0.449877 3.23487 0
M  V30 7228 H 669.439 2.50742 2.6744 0
M  V30 7229 H 669.087 1.32801 4.85153 0
M  V30 7230 H 668.787 3.07724 5.00579 0
M  V30 7231 H 670.311 2.37883 5.62356 0
M  V30 7232 H 671.725 4.03673 4.07089 0
M  V30 7233 H 670.122 4.73112 3.69168 0
M  V30 7234 H 671.192 4.23049 2.36976 0
M  V30 7235 N 672.536 -0.895792 1.29666 0
M  V30 7236 C 673.764 -1.68001 1.20761 0
M  V30 7237 C 674.179 -1.87379 -0.231187 0
M  V30 7238 O 673.536 -1.41359 -1.15429 0
M  V30 7239 C 673.587 -3.06236 1.92098 0
M  V30 7240 O 673.308 -2.8774 3.30359 0
M  V30 7241 C 674.809 -4.00652 1.89717 0
M  V30 7242 H 672.029 -0.524591 0.418384 0
M  V30 7243 H 674.573 -1.11995 1.71106 0
M  V30 7244 H 672.728 -3.59007 1.45578 0
M  V30 7245 H 673.142 -3.75359 3.66342 0
M  V30 7246 H 674.616 -4.95051 2.44189 0
M  V30 7247 H 675.093 -4.30424 0.873595 0
M  V30 7248 H 675.699 -3.53815 2.35998 0
M  V30 7249 N 674.014 -1.12206 -1.10668 0
M  V30 7250 C 675.262 -0.874144 -1.82217 0
M  V30 7251 C 675.583 0.601736 -1.85484 0
M  V30 7252 O 674.853 1.43725 -1.33116 0
M  V30 7253 H 673.433 -0.320404 -0.674797 0
M  V30 7254 H 676.095 -1.41606 -1.33917 0
M  V30 7255 H 675.191 -1.25349 -2.85822 0
M  V30 7256 N 675.492 1.28418 -0.913599 0
M  V30 7257 C 676.722 1.98817 -0.56172 0
M  V30 7258 C 677.13 1.68457 0.861321 0
M  V30 7259 O 676.473 0.933653 1.58204 0
M  V30 7260 C 676.535 3.52801 -0.690785 0
M  V30 7261 C 676.199 4.0675 -2.08334 0
M  V30 7262 C 677.196 4.20597 -3.05604 0
M  V30 7263 C 674.881 4.41445 -2.39648 0
M  V30 7264 C 676.875 4.68392 -4.32305 0
M  V30 7265 C 674.562 4.88934 -3.66588 0
M  V30 7266 C 675.56 5.02364 -4.6273 0
M  V30 7267 O 675.248 5.48817 -5.87414 0
M  V30 7268 H 674.98 0.641608 -0.212874 0
M  V30 7269 H 677.534 1.64584 -1.22887 0
M  V30 7270 H 675.764 3.86686 0.0334336 0
M  V30 7271 H 677.453 4.04422 -0.346031 0
M  V30 7272 H 678.219 3.94067 -2.8273 0
M  V30 7273 H 674.098 4.30242 -1.65567 0
M  V30 7274 H 677.642 4.7879 -5.07352 0
M  V30 7275 H 673.539 5.14904 -3.89287 0
M  V30 7276 H 674.307 5.67103 -5.90201 0
M  V30 7277 N 676.97 0.677563 1.42291 0
M  V30 7278 C 678.218 0.200578 2.01102 0
M  V30 7279 C 678.539 -1.19803 1.53858 0
M  V30 7280 O 677.809 -1.80496 0.761439 0
M  V30 7281 H 676.389 0.0711634 0.743603 0
M  V30 7282 H 679.051 0.874691 1.7417 0
M  V30 7283 H 678.147 0.204 3.11433 0
M  V30 7284 N 678.448 -1.51871 0.421078 0
M  V30 7285 C 679.676 -2.06356 -0.14994 0
M  V30 7286 C 680.091 -1.29006 -1.37851 0
M  V30 7287 O 679.448 -0.345139 -1.79207 0
M  V30 7288 C 679.499 -3.58185 -0.488454 0
M  V30 7289 O 679.22 -4.32611 0.691341 0
M  V30 7290 C 680.721 -4.29129 -1.11191 0
M  V30 7291 H 677.941 -0.67083 -0.0151186 0
M  V30 7292 H 680.485 -1.95638 0.595476 0
M  V30 7293 H 678.64 -3.68871 -1.18376 0
M  V30 7294 H 679.054 -5.22927 0.405906 0
M  V30 7295 H 680.528 -5.36501 -1.29889 0
M  V30 7296 H 681.005 -3.86371 -2.0884 0
M  V30 7297 H 681.611 -4.22843 -0.456458 0
M  V30 7298 N 679.926 -0.151884 -1.56866 0
M  V30 7299 C 681.172 0.498742 -1.96572 0
M  V30 7300 C 681.505 1.64194 -1.03702 0
M  V30 7301 O 680.78 1.94334 -0.0803432 0
M  V30 7302 C 681.063 1.00027 -3.45929 0
M  V30 7303 C 680.916 -0.141767 -4.49577 0
M  V30 7304 C 682.235 1.88044 -3.97904 0
M  V30 7305 H 679.354 0.17982 -0.714726 0
M  V30 7306 H 681.996 -0.234097 -1.88552 0
M  V30 7307 H 680.146 1.62476 -3.52894 0
M  V30 7308 H 681.818 -0.778269 -4.54687 0
M  V30 7309 H 680.061 -0.80019 -4.26356 0
M  V30 7310 H 680.732 0.250947 -5.51429 0
M  V30 7311 H 683.208 1.35416 -3.93449 0
M  V30 7312 H 682.084 2.20043 -5.02864 0
M  V30 7313 H 682.345 2.81916 -3.40552 0
M  V30 7314 N 681.404 1.57128 0.121893 0
M  V30 7315 C 682.632 1.88883 0.844451 0
M  V30 7316 C 683.047 0.742824 1.73573 0
M  V30 7317 O 682.404 -0.286475 1.80238 0
M  V30 7318 C 682.455 3.20076 1.68029 0
M  V30 7319 O 682.176 4.30264 0.824898 0
M  V30 7320 C 683.677 3.65515 2.50826 0
M  V30 7321 H 680.897 0.62549 0.242907 0
M  V30 7322 H 683.441 2.04219 0.107151 0
M  V30 7323 H 681.596 3.06418 2.37038 0
M  V30 7324 H 682.01 5.05439 1.40113 0
M  V30 7325 H 683.484 4.60081 3.05008 0
M  V30 7326 H 683.961 2.92029 3.28048 0
M  V30 7327 H 684.567 3.81952 1.87064 0
M  V30 7328 N 682.882 -0.391992 1.52647 0
M  V30 7329 C 683.815 -1.50019 1.71958 0
M  V30 7330 C 684.793 -1.5238 0.567365 0
M  V30 7331 O 685.977 -1.70831 0.796806 0
M  V30 7332 C 683.104 -2.88496 1.77447 0
M  V30 7333 C 682.15 -3.03974 2.99169 0
M  V30 7334 S 682.983 -2.75487 4.59203 0
M  V30 7335 C 684.139 -4.16163 4.67503 0
M  V30 7336 H 684.372 -1.33413 2.65685 0
M  V30 7337 H 681.905 -0.584674 1.42902 0
M  V30 7338 H 683.863 -3.68296 1.81296 0
M  V30 7339 H 682.524 -3.02431 0.848188 0
M  V30 7340 H 681.717 -4.05328 2.99542 0
M  V30 7341 H 681.319 -2.32062 2.93297 0
M  V30 7342 H 683.611 -5.10048 4.45934 0
M  V30 7343 H 684.554 -4.20806 5.69498 0
M  V30 7344 H 684.962 -4.01933 3.96371 0
M  V30 7345 N 684.36 -1.4356 -0.65026 0
M  V30 7346 C 685.27 -1.514 -1.79207 0
M  V30 7347 C 686.286 -0.400895 -1.69319 0
M  V30 7348 O 687.462 -0.655458 -1.90436 0
M  V30 7349 C 684.527 -1.43737 -3.155 0
M  V30 7350 C 683.588 -2.65743 -3.37163 0
M  V30 7351 C 682.821 -2.58436 -4.66954 0
M  V30 7352 O 683.044 -1.63374 -5.46503 0
M  V30 7353 O 681.978 -3.48984 -4.90402 0
M  V30 7354 H 685.804 -2.47825 -1.75547 0
M  V30 7355 H 683.389 -1.25594 -0.809111 0
M  V30 7356 H 685.271 -1.41916 -3.96784 0
M  V30 7357 H 683.946 -0.504488 -3.19745 0
M  V30 7358 H 682.853 -2.73136 -2.55632 0
M  V30 7359 H 684.186 -3.58014 -3.37768 0
M  V30 7360 N 685.838 0.888903 -1.30139 0
M  V30 7361 C 687.078 1.65456 -1.20015 0
M  V30 7362 C 687.442 1.90467 0.242148 0
M  V30 7363 O 688.643 2.6472 0.466561 0
M  V30 7364 C 686.914 2.96071 -2.00191 0
M  V30 7365 S 688.473 3.87055 -2.06721 0
M  V30 7366 H 685.291 0.567927 -0.427761 0
M  V30 7367 H 687.893 1.05539 -1.64565 0
M  V30 7368 H 686.597 2.7559 -3.04103 0
M  V30 7369 H 686.128 3.61023 -1.56288 0
M  V30 7370 H 688.143 4.81676 -1.19174 0
M  V30 7371 N 687.317 1.12792 1.10072 0
M  V30 7372 C 688.542 0.908838 1.86427 0
M  V30 7373 C 688.967 -0.536793 1.80278 0
M  V30 7374 O 688.325 -1.38033 1.17543 0
M  V30 7375 C 688.373 1.39295 3.3261 0
M  V30 7376 O 687.477 0.573846 4.08388 0
M  V30 7377 H 686.818 0.326234 0.578331 0
M  V30 7378 H 689.348 1.50094 1.39043 0
M  V30 7379 H 689.358 1.39366 3.83459 0
M  V30 7380 H 688.033 2.44555 3.36401 0
M  V30 7381 H 686.61 0.640438 3.67359 0
M  V30 7382 N 688.795 -1.27931 0.920396 0
M  V30 7383 C 690.206 -1.76707 0.602616 0
M  V30 7384 C 690.557 -1.75249 -0.882159 0
M  V30 7385 O 689.682 -1.35135 -1.69019 0
M  V30 7386 C 690.277 -3.20884 1.08714 0
M  V30 7387 C 688.836 -3.67356 0.820157 0
M  V30 7388 C 687.983 -2.47525 1.25006 0
M  V30 7389 H 690.934 -1.14301 1.10095 0
M  V30 7390 H 690.955 -3.78045 0.431535 0
M  V30 7391 H 690.467 -3.21913 2.1678 0
M  V30 7392 H 688.568 -3.7178 -0.247012 0
M  V30 7393 H 688.681 -4.57181 1.43257 0
M  V30 7394 H 687.045 -2.45765 0.668698 0
M  V30 7395 H 687.828 -2.51269 2.3392 0
M  V30 7396 N 690.273 -0.685099 -1.4193 0
M  V30 7397 C 691.689 -0.355632 -1.55587 0
M  V30 7398 C 691.889 1.13823 -1.66273 0
M  V30 7399 O 690.945 1.92387 -1.63534 0
M  V30 7400 C 692.258 -1.09498 -2.80055 0
M  V30 7401 C 693.806 -1.07831 -2.93839 0
M  V30 7402 C 694.281 -1.79919 -4.21181 0
M  V30 7403 N 695.772 -1.76837 -4.28115 0
M  V30 7404 C 696.507 -2.29463 -5.25485 0
M  V30 7405 N 696.003 -2.90516 -6.28945 0
M  V30 7406 N 697.796 -2.19779 -5.17353 0
M  V30 7407 H 689.947 -1.65412 -1.33239 0
M  V30 7408 H 692.21 -0.697453 -0.642078 0
M  V30 7409 H 691.916 -2.14997 -2.78333 0
M  V30 7410 H 691.79 -0.666813 -3.71259 0
M  V30 7411 H 694.177 -0.0316152 -2.95083 0
M  V30 7412 H 694.258 -1.54545 -2.03837 0
M  V30 7413 H 693.902 -2.84562 -4.20698 0
M  V30 7414 H 693.832 -1.30647 -5.10136 0
M  V30 7415 H 696.323 -1.32315 -3.53979 0
M  V30 7416 H 696.636 -3.28266 -6.99615 0
M  V30 7417 H 694.981 -2.94589 -6.29478 0
M  V30 7418 H 698.172 -1.71763 -4.35448 0
M  V30 7419 H 698.345 -2.61097 -5.9307 0
M  V30 7420 N 691.751 1.51645 -0.429126 0
M  V30 7421 C 692.979 2.06433 0.138994 0
M  V30 7422 C 693.394 1.29735 1.37165 0
M  V30 7423 O 692.751 0.354638 1.79021 0
M  V30 7424 C 692.802 3.58439 0.469452 0
M  V30 7425 O 692.523 4.32238 -0.714273 0
M  V30 7426 C 694.024 4.29712 1.08914 0
M  V30 7427 H 691.244 0.6709 0.0115608 0
M  V30 7428 H 693.788 1.9532 -0.605843 0
M  V30 7429 H 691.943 3.69494 1.16419 0
M  V30 7430 H 692.357 5.22704 -0.433633 0
M  V30 7431 H 693.831 5.37182 1.27042 0
M  V30 7432 H 694.308 3.87473 2.06788 0
M  V30 7433 H 694.914 4.2308 0.434028 0
M  V30 7434 N 693.229 0.160201 1.56784 0
M  V30 7435 C 694.477 -0.486625 1.96154 0
M  V30 7436 C 694.798 -1.64525 1.04673 0
M  V30 7437 O 694.068 -1.95586 0.110864 0
M  V30 7438 H 692.648 -0.182764 0.724297 0
M  V30 7439 H 695.31 0.238787 1.93432 0
M  V30 7440 H 694.406 -0.854025 3.00188 0
M  V30 7441 N 694.707 -1.5719 -0.113559 0
M  V30 7442 C 695.637 -2.03772 -1.14013 0
M  V30 7443 C 696.618 -0.923176 -1.42869 0
M  V30 7444 O 697.803 -1.19325 -1.53216 0
M  V30 7445 C 694.933 -2.44663 -2.4649 0
M  V30 7446 C 693.887 -3.59612 -2.32085 0
M  V30 7447 C 693.213 -3.8642 -3.69573 0
M  V30 7448 C 694.513 -4.91149 -1.7768 0
M  V30 7449 H 696.207 -2.89785 -0.752665 0
M  V30 7450 H 693.753 -1.39412 -0.360609 0
M  V30 7451 H 695.706 -2.75857 -3.18561 0
M  V30 7452 H 694.43 -1.55628 -2.87137 0
M  V30 7453 H 693.089 -3.28636 -1.62461 0
M  V30 7454 H 692.737 -2.94581 -4.07715 0
M  V30 7455 H 692.437 -4.63797 -3.60786 0
M  V30 7456 H 693.961 -4.2007 -4.4314 0
M  V30 7457 H 695.375 -5.20843 -2.39574 0
M  V30 7458 H 693.772 -5.72562 -1.79701 0
M  V30 7459 H 694.842 -4.79301 -0.734776 0
M  V30 7460 N 696.185 0.383891 -1.52853 0
M  V30 7461 C 697.462 1.14296 -1.58732 0
M  V30 7462 C 697.842 2.07585 -0.383611 0
M  V30 7463 O 697.19 2.1971 0.627661 0
M  V30 7464 C 697.4 1.89816 -2.92867 0
M  V30 7465 C 698.748 2.44998 -3.46787 0
M  V30 7466 O 699.772 1.99966 -2.94774 0
M  V30 7467 O 698.631 3.2727 -4.37672 0
M  V30 7468 H 695.725 0.52326 -0.640413 0
M  V30 7469 H 698.271 0.388631 -1.6519 0
M  V30 7470 H 697.043 1.21626 -3.71918 0
M  V30 7471 H 696.666 2.72199 -2.89816 0
M  V30 7472 N 697.663 1.43903 0.642637 0
M  V30 7473 C 698.91 1.46079 1.40239 0
M  V30 7474 C 699.238 0.0890335 1.94296 0
M  V30 7475 O 698.493 -0.907533 1.73385 0
M  V30 7476 C 698.792 2.45907 2.59354 0
M  V30 7477 C 698.458 3.91522 2.23654 0
M  V30 7478 C 697.12 4.31179 2.1363 0
M  V30 7479 C 699.472 4.83242 1.95261 0
M  V30 7480 C 696.8 5.60495 1.73384 0
M  V30 7481 C 699.152 6.12933 1.56511 0
M  V30 7482 C 697.816 6.51556 1.4502 0
M  V30 7483 H 697.086 0.534542 0.513172 0
M  V30 7484 H 699.733 1.77047 0.72984 0
M  V30 7485 H 698.038 2.08381 3.3179 0
M  V30 7486 H 699.735 2.44842 3.17574 0
M  V30 7487 H 696.325 3.60142 2.32369 0
M  V30 7488 H 700.509 4.53367 2.0192 0
M  V30 7489 H 695.765 5.89249 1.63082 0
M  V30 7490 H 699.939 6.83469 1.33576 0
M  V30 7491 H 697.566 7.51663 1.13606 0
M  V30 7492 N 699.141 -0.881989 1.30609 0
M  V30 7493 C 700.089 -2.00942 1.17155 0
M  V30 7494 C 701.083 -1.69198 0.0827154 0
M  V30 7495 O 702.289 -1.78342 0.243775 0
M  V30 7496 H 698.664 -0.658913 0.362406 0
M  V30 7497 H 700.635 -2.09423 2.12567 0
M  V30 7498 C 699.384 -3.36294 0.883273 0
M  V30 7499 H 698.707 -3.61233 1.7132 0
M  V30 7500 H 700.147 -4.15812 0.829255 0
M  V30 7501 C 698.606 -3.34348 -0.413851 0
M  V30 7502 O 699.136 -3.75216 -1.43444 0
M  V30 7503 N 697.342 -2.87459 -0.426082 0
M  V30 7504 H 696.889 -2.54397 0.40493 0
M  V30 7505 H 696.847 -2.8654 -1.29391 0
M  V30 7506 N 700.619 -1.13374 -1.09472 0
M  V30 7507 C 701.529 -0.824029 -2.19652 0
M  V30 7508 C 702.545 0.19118 -1.72947 0
M  V30 7509 O 703.721 0.0223464 -2.01388 0
M  V30 7510 C 700.786 -0.294009 -3.45451 0
M  V30 7511 C 699.847 -1.3704 -4.0684 0
M  V30 7512 C 699.08 -0.86558 -5.26634 0
M  V30 7513 O 699.303 0.29702 -5.69626 0
M  V30 7514 O 698.237 -1.63968 -5.79136 0
M  V30 7515 H 702.063 -1.74454 -2.48595 0
M  V30 7516 H 699.648 -0.911155 -1.18399 0
M  V30 7517 H 701.53 -0.00381039 -4.214 0
M  V30 7518 H 700.205 0.598921 -3.18111 0
M  V30 7519 H 699.112 -1.71391 -3.3253 0
M  V30 7520 H 700.445 -2.23746 -4.38405 0
M  V30 7521 N 702.098 1.27442 -0.927168 0
M  V30 7522 C 703.031 2.25177 -0.370232 0
M  V30 7523 C 704.009 1.53612 0.533103 0
M  V30 7524 O 705.193 1.8245 0.47373 0
M  V30 7525 C 702.32 3.35431 0.469411 0
M  V30 7526 C 701.366 4.24888 -0.370419 0
M  V30 7527 S 702.199 5.04852 -1.78562 0
M  V30 7528 C 703.355 6.18592 -0.953651 0
M  V30 7529 H 703.588 2.72069 -1.19858 0
M  V30 7530 H 701.121 1.36089 -0.729316 0
M  V30 7531 H 703.079 3.99404 0.947992 0
M  V30 7532 H 701.74 2.87179 1.27228 0
M  V30 7533 H 700.933 5.03264 0.272226 0
M  V30 7534 H 700.535 3.65709 -0.783153 0
M  V30 7535 H 702.827 6.77235 -0.189408 0
M  V30 7536 H 703.77 6.87132 -1.7104 0
M  V30 7537 H 704.178 5.62318 -0.495897 0
M  V30 7538 N 703.576 0.692616 1.41565 0
M  V30 7539 C 704.822 0.222664 2.01574 0
M  V30 7540 C 705.155 -1.1737 1.54719 0
M  V30 7541 O 704.43 -1.79161 0.757084 0
M  V30 7542 C 704.713 0.277064 3.59033 0
M  V30 7543 C 704.566 1.71016 4.16021 0
M  V30 7544 C 705.885 -0.36479 4.38586 0
M  V30 7545 H 703.004 0.0823839 0.732381 0
M  V30 7546 H 705.646 0.880778 1.68352 0
M  V30 7547 H 703.796 -0.283288 3.87466 0
M  V30 7548 H 705.468 2.32413 3.98475 0
M  V30 7549 H 703.711 2.24525 3.71175 0
M  V30 7550 H 704.382 1.69978 5.25178 0
M  V30 7551 H 706.858 0.112404 4.15948 0
M  V30 7552 H 705.734 -0.296169 5.481 0
M  V30 7553 H 705.995 -1.44506 4.17816 0
M  V30 7554 N 705.054 -1.51416 0.437162 0
M  V30 7555 C 705.984 -2.30631 -0.364922 0
M  V30 7556 C 706.965 -1.36037 -1.02118 0
M  V30 7557 O 708.15 -1.64956 -1.02485 0
M  V30 7558 C 705.28 -3.1482 -1.46648 0
M  V30 7559 C 704.234 -4.17691 -0.933717 0
M  V30 7560 C 703.56 -4.904 -2.13101 0
M  V30 7561 C 704.86 -5.2229 0.0317201 0
M  V30 7562 H 706.554 -2.97932 0.29614 0
M  V30 7563 H 704.1 -1.4328 0.143865 0
M  V30 7564 H 706.053 -3.69017 -2.03481 0
M  V30 7565 H 704.777 -2.4534 -2.15583 0
M  V30 7566 H 703.436 -3.64545 -0.387602 0
M  V30 7567 H 703.084 -4.17423 -2.80654 0
M  V30 7568 H 702.784 -5.59962 -1.78092 0
M  V30 7569 H 704.308 -5.4742 -2.70487 0
M  V30 7570 H 705.722 -5.7156 -0.446302 0
M  V30 7571 H 704.119 -5.99378 0.29437 0
M  V30 7572 H 705.189 -4.75131 0.968447 0
M  V30 7573 N 706.532 -0.168513 -1.56696 0
M  V30 7574 C 707.462 0.758563 -2.20835 0
M  V30 7575 C 708.443 1.24121 -1.1631 0
M  V30 7576 O 709.628 1.29487 -1.4473 0
M  V30 7577 C 706.758 1.9892 -2.8469 0
M  V30 7578 C 705.712 1.64252 -3.95228 0
M  V30 7579 C 705.038 2.94757 -4.46119 0
M  V30 7580 C 706.338 0.872675 -5.14958 0
M  V30 7581 H 708.032 0.223953 -2.98561 0
M  V30 7582 H 705.578 0.106277 -1.43607 0
M  V30 7583 H 707.531 2.64275 -3.28233 0
M  V30 7584 H 706.255 2.5479 -2.04327 0
M  V30 7585 H 704.914 1.01266 -3.52336 0
M  V30 7586 H 704.562 3.48662 -3.62552 0
M  V30 7587 H 704.262 2.72316 -5.2069 0
M  V30 7588 H 705.786 3.61147 -4.92347 0
M  V30 7589 H 707.2 1.42875 -5.55211 0
M  V30 7590 H 705.597 0.747402 -5.95428 0
M  V30 7591 H 706.667 -0.131535 -4.84722 0
M  V30 7592 N 708.01 1.57248 0.105221 0
M  V30 7593 C 708.942 1.98008 1.15436 0
M  V30 7594 C 709.955 0.881236 1.36887 0
M  V30 7595 O 711.144 1.15943 1.35718 0
M  V30 7596 C 708.244 2.27509 2.51183 0
M  V30 7597 C 707.417 3.58811 2.50147 0
M  V30 7598 C 706.476 3.76365 3.67745 0
M  V30 7599 O 705.502 4.48329 3.50699 0
M  V30 7600 N 706.704 3.16174 4.86841 0
M  V30 7601 H 709.469 2.88616 0.807519 0
M  V30 7602 H 707.03 1.59202 0.29433 0
M  V30 7603 H 709.022 2.36455 3.28438 0
M  V30 7604 H 707.592 1.42959 2.77995 0
M  V30 7605 H 706.812 3.60927 1.5851 0
M  V30 7606 H 708.1 4.45088 2.46524 0
M  V30 7607 H 707.498 2.57701 5.03594 0
M  V30 7608 H 706.055 3.30621 5.61723 0
M  V30 7609 N 709.488 -0.375779 1.53054 0
M  V30 7610 C 710.421 -1.48187 1.7354 0
M  V30 7611 C 711.399 -1.5177 0.583495 0
M  V30 7612 O 712.583 -1.69976 0.81488 0
M  V30 7613 C 709.71 -2.86598 1.80497 0
M  V30 7614 C 708.756 -3.00784 3.02376 0
M  V30 7615 S 709.589 -2.70601 4.62099 0
M  V30 7616 C 710.745 -4.11181 4.71891 0
M  V30 7617 H 710.978 -1.30587 2.67085 0
M  V30 7618 H 708.511 -0.569485 1.43514 0
M  V30 7619 H 710.469 -3.66353 1.85192 0
M  V30 7620 H 709.13 -3.01514 0.880217 0
M  V30 7621 H 708.323 -4.02128 3.03824 0
M  V30 7622 H 707.925 -2.28939 2.95742 0
M  V30 7623 H 710.217 -5.0529 4.51319 0
M  V30 7624 H 711.16 -4.14742 5.73929 0
M  V30 7625 H 711.568 -3.97706 4.00612 0
M  V30 7626 N 710.966 -1.44241 -0.634997 0
M  V30 7627 C 711.913 -1.5081 -1.74714 0
M  V30 7628 C 712.883 -0.356147 -1.62237 0
M  V30 7629 O 714.068 -0.565848 -1.82216 0
M  V30 7630 C 711.208 -1.45458 -3.12947 0
M  V30 7631 C 710.321 -2.70998 -3.36428 0
M  V30 7632 C 709.456 -2.57507 -4.64611 0
M  V30 7633 C 708.495 -3.78229 -4.81258 0
M  V30 7634 N 707.632 -3.63438 -6.00714 0
M  V30 7635 H 712.472 -2.45832 -1.68436 0
M  V30 7636 H 710.009 -1.2201 -0.821706 0
M  V30 7637 H 711.967 -1.40347 -3.92885 0
M  V30 7638 H 710.597 -0.540058 -3.1825 0
M  V30 7639 H 709.649 -2.86312 -2.50458 0
M  V30 7640 H 710.961 -3.60619 -3.44609 0
M  V30 7641 H 710.115 -2.50207 -5.52703 0
M  V30 7642 H 708.854 -1.65441 -4.58782 0
M  V30 7643 H 707.859 -3.85918 -3.91596 0
M  V30 7644 H 709.084 -4.71327 -4.88904 0
M  V30 7645 H 707.03 -2.7412 -5.95982 0
M  V30 7646 H 706.947 -4.46672 -6.09934 0
M  V30 7647 H 708.215 -3.60022 -6.91378 0
M  V30 7648 N 712.444 0.87505 -1.31075 0
M  V30 7649 C 713.721 1.60976 -1.11113 0
M  V30 7650 C 714.101 2.08409 0.336006 0
M  V30 7651 O 713.449 1.85858 1.32924 0
M  V30 7652 C 713.659 2.77166 -2.12085 0
M  V30 7653 C 715.007 3.47254 -2.44335 0
M  V30 7654 O 716.031 2.87367 -2.10472 0
M  V30 7655 O 714.89 4.55276 -3.02301 0
M  V30 7656 H 711.984 0.707982 -0.427424 0
M  V30 7657 H 714.53 0.920957 -1.42536 0
M  V30 7658 H 713.302 2.39494 -3.09449 0
M  V30 7659 H 712.925 3.53737 -1.81538 0
M  V30 7660 N 713.922 1.13953 1.08869 0
M  V30 7661 C 714.869 0.82213 2.15661 0
M  V30 7662 C 715.839 -0.218274 1.6466 0
M  V30 7663 O 717.024 -0.0892475 1.90591 0
M  V30 7664 C 714.164 0.300572 3.43789 0
M  V30 7665 C 713.277 1.40071 4.08661 0
M  V30 7666 C 712.412 0.836897 5.24566 0
M  V30 7667 C 711.451 1.91504 5.81371 0
M  V30 7668 N 710.588 1.36875 6.88629 0
M  V30 7669 H 715.428 1.73683 2.42153 0
M  V30 7670 H 712.965 0.866879 1.18843 0
M  V30 7671 H 714.923 -0.0199943 4.17195 0
M  V30 7672 H 713.553 -0.577248 3.17597 0
M  V30 7673 H 712.605 1.83776 3.33062 0
M  V30 7674 H 713.917 2.21534 4.46905 0
M  V30 7675 H 713.071 0.467953 6.04893 0
M  V30 7676 H 711.81 -0.00874207 4.87699 0
M  V30 7677 H 710.815 2.29299 4.99702 0
M  V30 7678 H 712.04 2.76419 6.20298 0
M  V30 7679 H 709.986 0.545211 6.5373 0
M  V30 7680 H 709.903 2.1198 7.25672 0
M  V30 7681 H 711.171 1.02756 7.72698 0
M  V30 7682 N 715.4 -1.26948 0.933913 0
M  V30 7683 C 716.363 -2.24889 0.442457 0
M  V30 7684 C 717.363 -1.54594 -0.442426 0
M  V30 7685 O 718.553 -1.72502 -0.242629 0
M  V30 7686 C 715.685 -3.3896 -0.363173 0
M  V30 7687 H 716.878 -2.69879 1.30787 0
M  V30 7688 H 714.431 -1.38978 0.715187 0
M  V30 7689 H 715.166 -2.99361 -1.24714 0
M  V30 7690 H 714.951 -3.9116 0.271366 0
M  V30 7691 H 716.441 -4.11739 -0.697186 0
M  V30 7692 N 716.879 -0.700114 -1.41195 0
M  V30 7693 C 718.125 -0.242122 -2.01954 0
M  V30 7694 C 718.48 1.14697 -1.54475 0
M  V30 7695 O 717.773 1.76392 -0.748095 0
M  V30 7696 C 717.967 -0.243986 -3.56566 0
M  V30 7697 C 717.796 -1.63172 -4.19053 0
M  V30 7698 C 716.566 -2.23566 -4.53152 0
M  V30 7699 C 718.764 -2.57916 -4.44954 0
M  V30 7700 N 716.746 -3.54856 -5.00949 0
M  V30 7701 C 718.117 -3.73892 -4.94576 0
M  V30 7702 C 720.172 -2.56125 -4.26971 0
M  V30 7703 C 718.875 -4.88363 -5.28104 0
M  V30 7704 C 720.901 -3.69712 -4.61592 0
M  V30 7705 C 720.263 -4.84418 -5.11389 0
M  V30 7706 H 716.362 -0.134088 -0.770418 0
M  V30 7707 H 718.946 -0.918576 -1.71669 0
M  V30 7708 H 717.117 0.401971 -3.86314 0
M  V30 7709 H 718.849 0.229261 -4.0405 0
M  V30 7710 H 715.604 -1.75809 -4.39759 0
M  V30 7711 H 716.028 -4.22167 -5.29249 0
M  V30 7712 H 720.67 -1.68656 -3.87705 0
M  V30 7713 H 718.388 -5.76488 -5.66292 0
M  V30 7714 H 721.974 -3.69583 -4.49332 0
M  V30 7715 H 720.854 -5.70855 -5.37675 0
M  V30 7716 N 718.357 1.51182 -0.445186 0
M  V30 7717 C 719.287 2.30821 0.352686 0
M  V30 7718 C 720.268 1.36576 1.01395 0
M  V30 7719 O 721.453 1.65497 1.01609 0
M  V30 7720 C 718.583 3.15593 1.44976 0
M  V30 7721 C 717.537 4.1818 0.911553 0
M  V30 7722 C 716.863 4.91523 2.10497 0
M  V30 7723 C 718.163 5.22266 -0.059418 0
M  V30 7724 H 719.857 2.97771 -0.311936 0
M  V30 7725 H 717.403 1.43201 -0.151461 0
M  V30 7726 H 719.356 3.70091 2.01521 0
M  V30 7727 H 718.08 2.4648 2.14278 0
M  V30 7728 H 716.739 3.64746 0.368264 0
M  V30 7729 H 716.387 4.18906 2.78437 0
M  V30 7730 H 716.087 5.60898 1.7512 0
M  V30 7731 H 717.611 5.48847 2.6758 0
M  V30 7732 H 719.025 5.71789 0.415985 0
M  V30 7733 H 717.422 5.99213 -0.326152 0
M  V30 7734 H 718.492 4.7461 -0.993631 0
M  V30 7735 N 719.835 0.176821 1.56605 0
M  V30 7736 C 721.081 -0.467406 1.9734 0
M  V30 7737 C 721.414 -1.62523 1.06301 0
M  V30 7738 O 720.689 -1.94182 0.11125 0
M  V30 7739 C 720.972 -0.945106 3.47476 0
M  V30 7740 C 720.825 0.213273 4.49294 0
M  V30 7741 C 722.144 -1.8169 4.00845 0
M  V30 7742 H 719.263 -0.168426 0.717497 0
M  V30 7743 H 721.905 0.264065 1.88156 0
M  V30 7744 H 720.055 -1.56841 3.55434 0
M  V30 7745 H 721.727 0.850508 4.53392 0
M  V30 7746 H 719.97 0.867918 4.25029 0
M  V30 7747 H 720.641 -0.163187 5.51759 0
M  V30 7748 H 723.117 -1.29139 3.95553 0
M  V30 7749 H 721.993 -2.12015 5.06301 0
M  V30 7750 H 722.254 -2.76463 3.44994 0
M  V30 7751 N 721.313 -1.57302 -0.09688 0
M  V30 7752 C 722.263 -1.98369 -1.12399 0
M  V30 7753 C 723.247 -0.861872 -1.3587 0
M  V30 7754 O 724.439 -1.1257 -1.36591 0
M  V30 7755 C 721.568 -2.41017 -2.4447 0
M  V30 7756 C 720.654 -3.59881 -2.24381 0
M  V30 7757 N 721.045 -4.74872 -1.74155 0
M  V30 7758 C 719.343 -3.65943 -2.54954 0
M  V30 7759 C 720.044 -5.56823 -1.68294 0
M  V30 7760 N 719.02 -4.99942 -2.13444 0
M  V30 7761 H 722.822 -2.84726 -0.728575 0
M  V30 7762 H 720.336 -1.59523 -0.304332 0
M  V30 7763 H 722.333 -2.68665 -3.18786 0
M  V30 7764 H 720.993 -1.56036 -2.84751 0
M  V30 7765 H 722.004 -4.97657 -1.43379 0
M  V30 7766 H 718.681 -2.9162 -2.98771 0
M  V30 7767 H 720.071 -6.59099 -1.30528 0
M  V30 7768 N 722.791 0.367657 -1.53252 0
M  V30 7769 C 724.207 0.709191 -1.42978 0
M  V30 7770 C 724.407 1.93352 -0.567193 0
M  V30 7771 O 723.463 2.52453 -0.0488349 0
M  V30 7772 C 724.776 0.924338 -2.86141 0
M  V30 7773 C 726.324 1.02448 -2.95759 0
M  V30 7774 C 726.799 1.27211 -4.39979 0
M  V30 7775 N 728.29 1.33986 -4.43398 0
M  V30 7776 C 729.025 1.54852 -5.52095 0
M  V30 7777 N 728.521 1.73049 -6.7084 0
M  V30 7778 N 730.314 1.57205 -5.39669 0
M  V30 7779 H 722.465 -0.437669 -2.07842 0
M  V30 7780 H 724.728 -0.133737 -0.938519 0
M  V30 7781 H 724.434 0.0965455 -3.51567 0
M  V30 7782 H 724.308 1.83302 -3.29667 0
M  V30 7783 H 726.695 1.84282 -2.30487 0
M  V30 7784 H 726.776 0.0932301 -2.5563 0
M  V30 7785 H 726.42 0.458792 -5.05824 0
M  V30 7786 H 726.35 2.21654 -4.77679 0
M  V30 7787 H 728.841 1.21545 -3.5782 0
M  V30 7788 H 729.154 1.88538 -7.49449 0
M  V30 7789 H 727.499 1.70231 -6.7383 0
M  V30 7790 H 730.69 1.42555 -4.45865 0
M  V30 7791 H 730.863 1.73126 -6.24445 0
M  V30 7792 N 724.269 1.44576 0.627338 0
M  V30 7793 C 725.201 1.47724 1.75243 0
M  V30 7794 C 726.214 0.370193 1.58535 0
M  V30 7795 O 727.403 0.636151 1.66779 0
M  V30 7796 C 724.503 1.2991 3.13012 0
M  V30 7797 C 723.676 2.5393 3.56143 0
M  V30 7798 C 722.735 2.30961 4.72804 0
M  V30 7799 O 721.761 3.04469 4.80923 0
M  V30 7800 N 722.963 1.34261 5.6476 0
M  V30 7801 H 725.728 2.44718 1.73012 0
M  V30 7802 H 723.289 1.40064 0.812022 0
M  V30 7803 H 725.281 1.12385 3.88782 0
M  V30 7804 H 723.851 0.412668 3.09864 0
M  V30 7805 H 723.071 2.86707 2.70542 0
M  V30 7806 H 724.359 3.36411 3.81713 0
M  V30 7807 H 723.757 0.735573 5.60897 0
M  V30 7808 H 722.314 1.22713 6.40144 0
M  V30 7809 N 725.747 -0.868086 1.31537 0
M  V30 7810 C 726.993 -1.62359 1.2252 0
M  V30 7811 C 727.348 -1.91204 -0.214169 0
M  V30 7812 O 726.641 -1.5339 -1.14813 0
M  V30 7813 C 726.835 -2.95889 2.0046 0
M  V30 7814 C 726.664 -2.80082 3.5183 0
M  V30 7815 C 725.434 -2.7917 4.21179 0
M  V30 7816 C 727.632 -2.54805 4.46743 0
M  V30 7817 N 725.614 -2.54433 5.58692 0
M  V30 7818 C 726.985 -2.39349 5.71937 0
M  V30 7819 C 729.04 -2.40165 4.36148 0
M  V30 7820 C 727.743 -2.1074 6.87736 0
M  V30 7821 C 729.769 -2.12945 5.51732 0
M  V30 7822 C 729.131 -1.98278 6.75918 0
M  V30 7823 H 725.23 -0.598381 0.503452 0
M  V30 7824 H 727.814 -1.02156 1.65748 0
M  V30 7825 H 725.985 -3.54095 1.59598 0
M  V30 7826 H 727.717 -3.60734 1.83447 0
M  V30 7827 H 724.472 -2.91621 3.73168 0
M  V30 7828 H 724.896 -2.45029 6.31102 0
M  V30 7829 H 729.538 -2.50231 3.408 0
M  V30 7830 H 727.256 -1.99412 7.8311 0
M  V30 7831 H 730.842 -2.02415 5.45454 0
M  V30 7832 H 729.722 -1.77514 7.63845 0
M  V30 7833 N 727.225 -1.14528 -1.08264 0
M  V30 7834 C 728.472 -0.914405 -1.80679 0
M  V30 7835 C 728.8 0.558952 -1.86295 0
M  V30 7836 O 728.055 1.43017 -1.33584 0
M  V30 7837 C 728.354 -1.46226 -3.26117 0
M  V30 7838 C 728.02 -2.95451 -3.40616 0
M  V30 7839 C 726.682 -3.36191 -3.4428 0
M  V30 7840 C 729.034 -3.91399 -3.44175 0
M  V30 7841 C 726.362 -4.71539 -3.49096 0
M  V30 7842 C 728.714 -5.26606 -3.50526 0
M  V30 7843 C 727.378 -5.66856 -3.52464 0
M  V30 7844 H 726.648 -0.334604 -0.661151 0
M  V30 7845 H 729.295 -1.4292 -1.27461 0
M  V30 7846 H 727.6 -0.868442 -3.82054 0
M  V30 7847 H 729.297 -1.25955 -3.80705 0
M  V30 7848 H 725.887 -2.62955 -3.38456 0
M  V30 7849 H 730.071 -3.61004 -3.40573 0
M  V30 7850 H 725.327 -5.02082 -3.4889 0
M  V30 7851 H 729.501 -6.00758 -3.52225 0
M  V30 7852 H 727.128 -6.71718 -3.55948 0
M  V30 7853 N 728.703 1.26451 -0.940633 0
M  V30 7854 C 729.633 2.28773 -0.467479 0
M  V30 7855 C 730.614 1.63218 0.478955 0
M  V30 7856 O 731.799 1.90427 0.380929 0
M  V30 7857 C 728.929 3.46259 0.268656 0
M  V30 7858 C 727.883 4.23898 -0.591171 0
M  V30 7859 C 727.209 5.33993 0.274891 0
M  V30 7860 C 728.509 4.87974 -1.86223 0
M  V30 7861 H 730.203 2.68601 -1.32265 0
M  V30 7862 H 727.749 1.29123 -0.637436 0
M  V30 7863 H 729.702 4.16951 0.610696 0
M  V30 7864 H 728.426 3.05383 1.15796 0
M  V30 7865 H 727.085 3.54969 -0.916098 0
M  V30 7866 H 726.733 4.89358 1.16353 0
M  V30 7867 H 726.433 5.86849 -0.297006 0
M  V30 7868 H 727.957 6.07523 0.612213 0
M  V30 7869 H 729.371 5.50883 -1.58747 0
M  V30 7870 H 727.768 5.50945 -2.37866 0
M  V30 7871 H 728.838 4.10945 -2.57394 0
M  V30 7872 N 730.181 0.707592 1.40822 0
M  V30 7873 C 731.458 0.171172 1.9485 0
M  V30 7874 C 731.838 -1.32143 1.64625 0
M  V30 7875 O 731.186 -2.07372 0.959647 0
M  V30 7876 C 731.396 0.475334 3.45748 0
M  V30 7877 C 732.744 0.409625 4.22619 0
M  V30 7878 O 733.768 0.410934 3.53822 0
M  V30 7879 O 732.627 0.380185 5.45176 0
M  V30 7880 H 729.721 0.022015 0.826707 0
M  V30 7881 H 732.267 0.784577 1.50474 0
M  V30 7882 H 731.039 1.50801 3.61075 0
M  V30 7883 H 730.662 -0.168439 3.97243 0
M  V30 7884 N 731.66 -1.50943 0.453197 0
M  V30 7885 C 732.59 -2.31005 -0.34044 0
M  V30 7886 C 733.571 -1.37112 -1.00669 0
M  V30 7887 O 734.756 -1.66033 -1.0073 0
M  V30 7888 C 731.886 -3.16358 -1.433 0
M  V30 7889 C 730.84 -4.18658 -0.889363 0
M  V30 7890 C 730.166 -4.92633 -2.07887 0
M  V30 7891 C 731.466 -5.22227 0.0871142 0
M  V30 7892 H 733.16 -2.97601 0.327723 0
M  V30 7893 H 730.706 -1.43119 0.159054 0
M  V30 7894 H 732.659 -3.71155 -1.99555 0
M  V30 7895 H 731.383 -2.47613 -2.12968 0
M  V30 7896 H 730.042 -3.64936 -0.348915 0
M  V30 7897 H 729.69 -4.20376 -2.76211 0
M  V30 7898 H 729.39 -5.61819 -1.72143 0
M  V30 7899 H 730.914 -5.50258 -2.64666 0
M  V30 7900 H 732.328 -5.72001 -0.385656 0
M  V30 7901 H 730.725 -5.99032 0.357926 0
M  V30 7902 H 731.795 -4.74077 1.01879 0
M  V30 7903 N 733.138 -0.185124 -1.56509 0
M  V30 7904 C 734.549 0.329221 -1.83774 0
M  V30 7905 C 734.9 1.62093 -1.10545 0
M  V30 7906 O 734.025 2.13334 -0.36298 0
M  V30 7907 C 734.62 0.604099 -3.33371 0
M  V30 7908 C 733.179 1.06284 -3.61083 0
M  V30 7909 C 732.326 0.10608 -2.77097 0
M  V30 7910 H 735.277 -0.409116 -1.53336 0
M  V30 7911 H 735.298 1.45458 -3.51599 0
M  V30 7912 H 734.81 -0.336201 -3.86641 0
M  V30 7913 H 732.911 2.01777 -3.13236 0
M  V30 7914 H 733.024 0.962453 -4.69333 0
M  V30 7915 H 731.388 0.606082 -2.47384 0
M  V30 7916 H 732.171 -0.828486 -3.33153 0
M  V30 7917 N 734.616 1.57351 0.0885366 0
M  V30 7918 C 735.546 2.05561 1.10757 0
M  V30 7919 C 736.527 0.945789 1.41382 0
M  V30 7920 O 737.712 1.21747 1.51299 0
M  V30 7921 C 734.842 2.48554 2.42566 0
M  V30 7922 C 733.796 3.63259 2.26334 0
M  V30 7923 C 733.122 3.9225 3.63378 0
M  V30 7924 C 734.422 4.93913 1.69844 0
M  V30 7925 H 736.116 2.90946 0.706468 0
M  V30 7926 H 733.662 1.39968 0.338385 0
M  V30 7927 H 735.615 2.8089 3.14132 0
M  V30 7928 H 734.339 1.60176 2.84625 0
M  V30 7929 H 732.998 3.31179 1.57213 0
M  V30 7930 H 732.646 3.0103 4.02976 0
M  V30 7931 H 732.346 4.69478 3.53362 0
M  V30 7932 H 733.87 4.27067 4.36401 0
M  V30 7933 H 735.284 5.24588 2.31258 0
M  V30 7934 H 733.681 5.75349 1.70569 0
M  V30 7935 H 734.751 4.80409 0.65843 0
M  V30 7936 N 736.094 -0.359525 1.53444 0
M  V30 7937 C 737.505 -0.936009 1.61542 0
M  V30 7938 C 737.856 -1.90069 0.486633 0
M  V30 7939 O 736.981 -2.12929 -0.386047 0
M  V30 7940 C 737.576 -1.70441 2.92806 0
M  V30 7941 C 736.135 -2.23015 3.03218 0
M  V30 7942 C 735.282 -1.04438 2.56881 0
M  V30 7943 H 738.233 -0.138134 1.58098 0
M  V30 7944 H 738.254 -2.56609 2.80948 0
M  V30 7945 H 737.766 -1.00205 3.74941 0
M  V30 7946 H 735.867 -2.96475 2.25684 0
M  V30 7947 H 735.98 -2.50481 4.08407 0
M  V30 7948 H 734.344 -1.41314 2.11902 0
M  V30 7949 H 735.127 -0.356905 3.4144 0
M  V30 7950 N 737.572 -1.44907 -0.619662 0
M  V30 7951 C 738.818 -1.49504 -1.37914 0
M  V30 7952 C 739.173 -0.130158 -1.91959 0
M  V30 7953 O 738.466 0.856263 -1.71402 0
M  V30 7954 C 738.66 -2.50002 -2.55409 0
M  V30 7955 C 738.489 -3.96128 -2.12867 0
M  V30 7956 C 737.259 -4.64204 -1.99606 0
M  V30 7957 C 739.457 -4.85014 -1.71074 0
M  V30 7958 N 737.439 -5.95104 -1.50748 0
M  V30 7959 C 738.81 -6.05447 -1.33544 0
M  V30 7960 C 740.865 -4.71979 -1.58557 0
M  V30 7961 C 739.568 -7.1429 -0.847484 0
M  V30 7962 C 741.594 -5.80858 -1.11165 0
M  V30 7963 C 740.956 -7.00439 -0.745932 0
M  V30 7964 H 737.055 -0.60207 -0.499034 0
M  V30 7965 H 739.639 -1.81305 -0.70968 0
M  V30 7966 H 737.81 -2.20172 -3.19967 0
M  V30 7967 H 739.542 -2.44823 -3.22248 0
M  V30 7968 H 736.297 -4.19182 -2.20417 0
M  V30 7969 H 736.721 -6.64676 -1.28585 0
M  V30 7970 H 741.363 -3.79953 -1.85461 0
M  V30 7971 H 739.081 -8.06116 -0.565974 0
M  V30 7972 H 742.667 -5.72803 -1.01923 0
M  V30 7973 H 741.547 -7.83255 -0.384848 0
M  V30 7974 N 739.05 0.861098 -1.31996 0
M  V30 7975 C 739.98 1.98482 -1.22993 0
M  V30 7976 C 740.961 1.6971 -0.115168 0
M  V30 7977 O 742.146 1.91849 -0.30126 0
M  V30 7978 C 739.276 3.34179 -0.945615 0
M  V30 7979 C 738.23 3.77284 -2.02091 0
M  V30 7980 C 737.556 5.1054 -1.58912 0
M  V30 7981 C 738.856 3.93439 -3.43515 0
M  V30 7982 H 740.55 2.06271 -2.17008 0
M  V30 7983 H 738.096 0.991043 -1.04472 0
M  V30 7984 H 740.049 4.12338 -0.869206 0
M  V30 7985 H 738.773 3.26586 0.0301849 0
M  V30 7986 H 737.432 3.01371 -2.08737 0
M  V30 7987 H 737.08 4.99397 -0.600942 0
M  V30 7988 H 736.78 5.40352 -2.30854 0
M  V30 7989 H 738.304 5.91199 -1.52696 0
M  V30 7990 H 739.718 4.6197 -3.39495 0
M  V30 7991 H 738.115 4.34661 -4.13751 0
M  V30 7992 H 739.185 2.96548 -3.8365 0
M  V30 7993 N 740.528 1.15101 1.07655 0
M  V30 7994 C 741.939 0.933848 1.61667 0
M  V30 7995 C 742.29 -0.525569 1.8903 0
M  V30 7996 O 741.415 -1.39605 1.65346 0
M  V30 7997 C 742.01 1.68876 2.93711 0
M  V30 7998 C 740.569 1.51697 3.44478 0
M  V30 7999 C 739.716 1.70633 2.18586 0
M  V30 8000 H 742.667 1.30171 0.907816 0
M  V30 8001 H 742.688 1.15645 3.625 0
M  V30 8002 H 742.2 2.7509 2.73764 0
M  V30 8003 H 740.301 0.478635 3.69513 0
M  V30 8004 H 740.414 2.29194 4.20722 0
M  V30 8005 H 738.778 1.13259 2.28132 0
M  V30 8006 H 739.561 2.78206 2.01137 0
M  V30 8007 N 742.006 -1.2595 0.947325 0
M  V30 8008 C 743.254 -1.93081 0.596996 0
M  V30 8009 C 743.575 -1.74632 -0.867672 0
M  V30 8010 O 742.845 -1.1056 -1.6172 0
M  V30 8011 H 741.425 -0.714542 0.217805 0
M  V30 8012 H 744.087 -1.53265 1.20398 0
M  V30 8013 H 743.183 -3.01134 0.82004 0
M  V30 8014 N 743.484 -0.715051 -1.40445 0
M  V30 8015 C 744.447 -0.0708726 -2.2909 0
M  V30 8016 C 745.447 0.687926 -1.45342 0
M  V30 8017 O 746.637 0.519908 -1.66261 0
M  V30 8018 C 743.769 0.909528 -3.28543 0
M  V30 8019 H 744.962 -0.851611 -2.87555 0
M  V30 8020 H 742.515 -0.479674 -1.48758 0
M  V30 8021 H 743.25 1.71734 -2.75096 0
M  V30 8022 H 743.035 0.368318 -3.90366 0
M  V30 8023 H 744.525 1.35744 -3.94922 0
M  V30 8024 N 744.962 1.50701 -0.461195 0
M  V30 8025 C 746.239 1.94958 0.158296 0
M  V30 8026 C 746.619 1.40111 1.57899 0
M  V30 8027 O 745.967 0.597976 2.20537 0
M  V30 8028 C 746.177 3.48821 0.11172 0
M  V30 8029 C 747.525 4.23499 0.30552 0
M  V30 8030 O 748.549 3.557 0.188758 0
M  V30 8031 O 747.408 5.43823 0.540244 0
M  V30 8032 H 744.502 0.818674 0.117054 0
M  V30 8033 H 747.048 1.61508 -0.520888 0
M  V30 8034 H 745.82 3.81263 -0.880577 0
M  V30 8035 H 745.443 3.88781 0.832791 0
M  V30 8036 N 746.441 0.193421 1.56409 0
M  V30 8037 C 747.669 -0.451438 2.01915 0
M  V30 8038 C 748.084 -1.55306 1.07357 0
M  V30 8039 O 747.441 -1.82333 0.0781512 0
M  V30 8040 C 747.492 -1.00931 3.47124 0
M  V30 8041 O 747.213 0.0483623 4.38073 0
M  V30 8042 C 748.714 -1.73021 4.0814 0
M  V30 8043 H 745.934 -0.113495 0.661332 0
M  V30 8044 H 748.478 0.301636 2.02263 0
M  V30 8045 H 746.633 -1.71277 3.47481 0
M  V30 8046 H 747.047 -0.366644 5.23217 0
M  V30 8047 H 748.521 -2.07289 5.11601 0
M  V30 8048 H 748.998 -2.6333 3.51502 0
M  V30 8049 H 749.604 -1.07264 4.11551 0
M  V30 8050 N 747.919 -1.57396 -0.0801906 0
M  V30 8051 C 748.851 -1.9982 -1.12271 0
M  V30 8052 C 749.864 -0.902902 -1.35468 0
M  V30 8053 O 751.053 -1.18088 -1.33856 0
M  V30 8054 C 748.153 -2.31476 -2.47532 0
M  V30 8055 C 747.326 -3.62745 -2.44407 0
M  V30 8056 C 746.385 -3.82168 -3.6171 0
M  V30 8057 O 745.411 -4.53852 -3.43522 0
M  V30 8058 N 746.613 -3.2388 -4.81749 0
M  V30 8059 H 749.378 -2.89864 -0.761501 0
M  V30 8060 H 746.939 -1.5965 -0.268965 0
M  V30 8061 H 748.931 -2.4165 -3.24634 0
M  V30 8062 H 747.501 -1.47364 -2.75686 0
M  V30 8063 H 746.721 -3.63403 -1.52747 0
M  V30 8064 H 748.009 -4.48954 -2.39412 0
M  V30 8065 H 747.407 -2.6568 -4.9943 0
M  V30 8066 H 745.964 -3.39515 -5.56392 0
M  V30 8067 N 749.397 0.351382 -1.53633 0
M  V30 8068 C 750.645 1.09034 -1.70165 0
M  V30 8069 C 750.966 1.89413 -0.463422 0
M  V30 8070 O 750.236 1.888 0.522624 0
M  V30 8071 H 748.816 0.405522 -0.627344 0
M  V30 8072 H 751.478 0.394554 -1.90865 0
M  V30 8073 H 750.574 1.77215 -2.56907 0
M  V30 8074 N 750.875 1.45233 0.611969 0
M  V30 8075 C 752.1 1.52767 1.40274 0
M  V30 8076 C 752.525 0.159701 1.87421 0
M  V30 8077 O 751.883 -0.854837 1.59882 0
M  V30 8078 C 751.931 2.51286 2.58626 0
M  V30 8079 O 751.035 2.02764 3.59111 0
M  V30 8080 H 750.376 0.515141 0.418958 0
M  V30 8081 H 752.906 1.90547 0.745188 0
M  V30 8082 H 752.916 2.69949 3.05927 0
M  V30 8083 H 751.591 3.50641 2.23659 0
M  V30 8084 H 750.168 1.93957 3.18489 0
M  V30 8085 N 752.353 -0.854086 1.3245 0
M  V30 8086 C 753.301 -1.98411 1.21391 0
M  V30 8087 C 754.295 -1.68984 0.118586 0
M  V30 8088 O 755.501 -1.77784 0.281549 0
M  V30 8089 H 751.876 -0.651077 0.376301 0
M  V30 8090 H 753.847 -2.04867 2.16961 0
M  V30 8091 C 752.596 -3.34345 0.954407 0
M  V30 8092 H 751.919 -3.57518 1.78944 0
M  V30 8093 H 753.359 -4.13959 0.917269 0
M  V30 8094 C 751.818 -3.35151 -0.342838 0
M  V30 8095 O 752.348 -3.78174 -1.35452 0
M  V30 8096 N 750.554 -2.88298 -0.365012 0
M  V30 8097 H 750.101 -2.53481 0.4588 0
M  V30 8098 H 750.059 -2.8922 -1.23284 0
M  V30 8099 N 753.831 -1.1567 -1.07043 0
M  V30 8100 C 755.077 -0.944878 -1.80121 0
M  V30 8101 C 755.432 0.522239 -1.85177 0
M  V30 8102 O 754.725 1.38228 -1.32678 0
M  V30 8103 C 754.919 -1.49677 -3.24548 0
M  V30 8104 C 754.748 -3.01602 -3.33566 0
M  V30 8105 C 753.518 -3.70177 -3.43943 0
M  V30 8106 C 755.716 -3.99362 -3.24059 0
M  V30 8107 N 753.698 -5.09882 -3.41896 0
M  V30 8108 C 755.069 -5.25404 -3.29167 0
M  V30 8109 C 757.124 -3.91289 -3.07891 0
M  V30 8110 C 755.827 -6.44314 -3.19769 0
M  V30 8111 C 757.853 -5.09761 -2.99829 0
M  V30 8112 C 757.215 -6.34679 -3.05552 0
M  V30 8113 H 753.314 -0.399447 -0.672284 0
M  V30 8114 H 755.898 -1.4693 -1.27749 0
M  V30 8115 H 754.069 -0.998941 -3.75334 0
M  V30 8116 H 755.801 -1.22346 -3.85764 0
M  V30 8117 H 752.556 -3.2078 -3.48421 0
M  V30 8118 H 752.98 -5.82857 -3.44393 0
M  V30 8119 H 757.622 -2.95573 -3.02318 0
M  V30 8120 H 755.34 -7.4026 -3.24101 0
M  V30 8121 H 758.926 -5.05279 -2.88418 0
M  V30 8122 H 757.806 -7.24812 -2.99361 0
M  V30 8123 N 755.309 1.25446 -0.953992 0
M  V30 8124 C 756.558 1.92441 -0.604101 0
M  V30 8125 C 756.871 1.75543 0.862796 0
M  V30 8126 O 758.077 2.37106 1.32262 0
M  V30 8127 C 756.533 3.44854 -1.02974 0
M  V30 8128 C 756.141 3.70464 -2.51914 0
M  V30 8129 C 757.885 4.1778 -0.752352 0
M  V30 8130 C 755.792 5.1638 -2.88281 0
M  V30 8131 H 754.722 0.720508 -0.222227 0
M  V30 8132 H 757.373 1.42318 -1.15836 0
M  V30 8133 H 755.755 3.93935 -0.403904 0
M  V30 8134 H 756.929 3.32038 -3.19511 0
M  V30 8135 H 755.244 3.10797 -2.77117 0
M  V30 8136 H 757.841 5.25261 -1.00024 0
M  V30 8137 H 758.184 4.15135 0.311212 0
M  V30 8138 H 758.717 3.74605 -1.33851 0
M  V30 8139 H 755.456 5.24135 -3.93653 0
M  V30 8140 H 754.976 5.55855 -2.25357 0
M  V30 8141 H 756.655 5.84497 -2.77439 0
M  V30 8142 N 756.787 0.722489 1.40064 0
M  V30 8143 C 757.719 0.0349057 2.29173 0
M  V30 8144 C 758.732 -0.716571 1.46182 0
M  V30 8145 O 759.921 -0.562806 1.69395 0
M  V30 8146 C 757.021 -0.974839 3.24577 0
M  V30 8147 C 756.194 -0.287471 4.36454 0
M  V30 8148 C 755.253 -1.20356 5.12251 0
M  V30 8149 O 754.279 -0.685753 5.65054 0
M  V30 8150 N 755.481 -2.53422 5.22262 0
M  V30 8151 H 758.246 0.800058 2.88824 0
M  V30 8152 H 755.807 0.57068 1.51509 0
M  V30 8153 H 757.799 -1.59002 3.72157 0
M  V30 8154 H 756.369 -1.6413 2.66046 0
M  V30 8155 H 755.589 0.508008 3.90913 0
M  V30 8156 H 756.877 0.189382 5.08447 0
M  V30 8157 H 756.275 -2.97981 4.80857 0
M  V30 8158 H 754.832 -3.10067 5.73325 0
M  V30 8159 N 758.265 -1.50454 0.469181 0
M  V30 8160 C 759.212 -2.28486 -0.325982 0
M  V30 8161 C 760.182 -1.33455 -0.988893 0
M  V30 8162 O 761.367 -1.6239 -1.0017 0
M  V30 8163 C 758.507 -3.15288 -1.40313 0
M  V30 8164 C 757.62 -4.25348 -0.755183 0
M  V30 8165 C 756.755 -4.9941 -1.81006 0
M  V30 8166 C 755.794 -6.01348 -1.14226 0
M  V30 8167 N 754.931 -6.68695 -2.1399 0
M  V30 8168 H 759.771 -2.95987 0.345753 0
M  V30 8169 H 757.308 -1.45965 0.182355 0
M  V30 8170 H 759.266 -3.63964 -2.03927 0
M  V30 8171 H 757.896 -2.49837 -2.04405 0
M  V30 8172 H 756.948 -3.80399 -0.00651901 0
M  V30 8173 H 758.26 -4.98279 -0.227941 0
M  V30 8174 H 757.414 -5.51794 -2.52206 0
M  V30 8175 H 756.153 -4.26181 -2.3711 0
M  V30 8176 H 755.158 -5.48225 -0.415876 0
M  V30 8177 H 756.383 -6.76548 -0.588135 0
M  V30 8178 H 754.329 -5.98258 -2.69115 0
M  V30 8179 H 754.246 -7.37495 -1.66246 0
M  V30 8180 H 755.514 -7.25697 -2.84576 0
M  V30 8181 N 759.743 -0.201713 -1.56304 0
M  V30 8182 C 760.653 0.728296 -2.23009 0
M  V30 8183 C 761.669 1.22945 -1.23128 0
M  V30 8184 O 762.845 1.27523 -1.55884 0
M  V30 8185 C 759.91 1.92792 -2.88153 0
M  V30 8186 C 758.971 1.47068 -4.03323 0
M  V30 8187 C 758.204 2.61312 -4.65351 0
M  V30 8188 O 758.427 3.7896 -4.26317 0
M  V30 8189 O 757.361 2.33646 -5.54701 0
M  V30 8190 H 761.187 0.190166 -3.03104 0
M  V30 8191 H 758.772 0.0278725 -1.49374 0
M  V30 8192 H 760.654 2.6289 -3.29343 0
M  V30 8193 H 759.329 2.45452 -2.11033 0
M  V30 8194 H 758.236 0.738299 -3.66742 0
M  V30 8195 H 759.569 0.990666 -4.82127 0
M  V30 8196 N 761.222 1.57436 0.0718424 0
M  V30 8197 C 762.45 1.91474 0.783932 0
M  V30 8198 C 762.865 0.797669 1.71122 0
M  V30 8199 O 762.222 -0.228989 1.81058 0
M  V30 8200 C 762.273 3.25259 1.57761 0
M  V30 8201 O 761.994 4.3267 0.687596 0
M  V30 8202 C 763.495 3.7331 2.3907 0
M  V30 8203 H 760.715 0.632901 0.222885 0
M  V30 8204 H 763.259 2.04457 0.0421262 0
M  V30 8205 H 761.414 3.13804 2.27169 0
M  V30 8206 H 761.828 5.09641 1.23962 0
M  V30 8207 H 763.302 4.69551 2.90216 0
M  V30 8208 H 763.779 3.02318 3.18591 0
M  V30 8209 H 764.385 3.8771 1.74818 0
M  V30 8210 N 762.7 -0.34323 1.53817 0
M  V30 8211 C 763.63 -1.42709 1.84814 0
M  V30 8212 C 764.611 -1.5488 0.703297 0
M  V30 8213 O 765.796 -1.69082 0.955237 0
M  V30 8214 C 762.926 -2.79756 2.05801 0
M  V30 8215 C 761.88 -2.82392 3.21619 0
M  V30 8216 C 761.206 -4.22326 3.2794 0
M  V30 8217 C 762.506 -2.479 4.59721 0
M  V30 8218 H 764.2 -1.17018 2.75585 0
M  V30 8219 H 761.746 -0.561485 1.32602 0
M  V30 8220 H 763.699 -3.55627 2.26069 0
M  V30 8221 H 762.423 -3.06883 1.11761 0
M  V30 8222 H 761.082 -2.08974 3.01207 0
M  V30 8223 H 760.73 -4.46564 2.31494 0
M  V30 8224 H 760.43 -4.25001 4.05768 0
M  V30 8225 H 761.954 -5.00039 3.50419 0
M  V30 8226 H 763.368 -3.13484 4.80001 0
M  V30 8227 H 761.765 -2.61857 5.39954 0
M  V30 8228 H 762.835 -1.43087 4.63308 0
M  V30 8229 N 764.178 -1.45556 -0.604258 0
M  V30 8230 C 765.424 -1.49968 -1.36519 0
M  V30 8231 C 765.757 -0.142236 -1.93678 0
M  V30 8232 O 765.032 0.843717 -1.75247 0
M  V30 8233 C 765.315 -2.58146 -2.51063 0
M  V30 8234 C 765.168 -4.03346 -1.99078 0
M  V30 8235 C 766.487 -2.62581 -3.53184 0
M  V30 8236 H 763.606 -0.545993 -0.495036 0
M  V30 8237 H 766.248 -1.77382 -0.680845 0
M  V30 8238 H 764.398 -2.34901 -3.09441 0
M  V30 8239 H 766.07 -4.37811 -1.45323 0
M  V30 8240 H 764.313 -4.13845 -1.30055 0
M  V30 8241 H 764.984 -4.74731 -2.81664 0
M  V30 8242 H 767.46 -2.83419 -3.04652 0
M  V30 8243 H 766.336 -3.40131 -4.30816 0
M  V30 8244 H 766.597 -1.67798 -4.09019 0
M  V30 8245 N 765.656 0.84705 -1.32902 0
M  V30 8246 C 766.884 1.63403 -1.26913 0
M  V30 8247 C 767.299 1.88108 0.161483 0
M  V30 8248 O 766.656 1.45546 1.10103 0
M  V30 8249 C 766.707 2.98896 -2.03331 0
M  V30 8250 O 766.428 2.75281 -3.40811 0
M  V30 8251 C 767.929 3.93335 -2.04457 0
M  V30 8252 H 765.149 0.508701 -0.437566 0
M  V30 8253 H 767.693 1.05567 -1.75145 0
M  V30 8254 H 765.848 3.53356 -1.58802 0
M  V30 8255 H 766.262 3.61504 -3.8002 0
M  V30 8256 H 767.736 4.85647 -2.62394 0
M  V30 8257 H 768.213 4.26885 -1.03274 0
M  V30 8258 H 768.819 3.44812 -2.48967 0
M  V30 8259 N 767.134 1.16236 1.06428 0
M  V30 8260 C 768.381 0.943034 1.79201 0
M  V30 8261 C 768.709 -0.529243 1.87161 0
M  V30 8262 O 767.964 -1.40874 1.35842 0
M  V30 8263 C 768.263 1.51396 3.2375 0
M  V30 8264 C 767.929 3.00833 3.35873 0
M  V30 8265 C 766.591 3.41626 3.38888 0
M  V30 8266 C 768.943 3.96825 3.37904 0
M  V30 8267 C 766.271 4.77033 3.4155 0
M  V30 8268 C 768.623 5.32116 3.42104 0
M  V30 8269 C 767.287 5.72392 3.43401 0
M  V30 8270 H 766.557 0.34508 0.655744 0
M  V30 8271 H 769.204 1.44929 1.25171 0
M  V30 8272 H 767.509 0.929114 3.80624 0
M  V30 8273 H 769.206 1.31996 3.78653 0
M  V30 8274 H 765.796 2.68306 3.3423 0
M  V30 8275 H 769.98 3.66376 3.34787 0
M  V30 8276 H 765.236 5.07569 3.40858 0
M  V30 8277 H 769.41 6.06286 3.42623 0
M  V30 8278 H 767.037 6.77296 3.45216 0
M  V30 8279 N 768.612 -1.24939 0.960631 0
M  V30 8280 C 769.559 -2.25658 0.484459 0
M  V30 8281 C 770.529 -1.59422 -0.466242 0
M  V30 8282 O 771.714 -1.87015 -0.378169 0
M  V30 8283 C 768.854 -3.44359 -0.225958 0
M  V30 8284 C 767.967 -4.25214 0.762682 0
M  V30 8285 C 767.102 -5.31192 0.0290931 0
M  V30 8286 C 766.141 -6.03739 1.00827 0
M  V30 8287 N 765.278 -7.01437 0.305155 0
M  V30 8288 H 770.118 -2.65758 1.34821 0
M  V30 8289 H 767.655 -1.30648 0.675983 0
M  V30 8290 H 769.613 -4.12035 -0.654472 0
M  V30 8291 H 768.243 -3.05118 -1.05371 0
M  V30 8292 H 767.295 -3.57144 1.30966 0
M  V30 8293 H 768.607 -4.75406 1.50964 0
M  V30 8294 H 767.761 -6.04971 -0.457763 0
M  V30 8295 H 766.5 -4.81889 -0.750614 0
M  V30 8296 H 765.505 -5.2877 1.50607 0
M  V30 8297 H 766.73 -6.55131 1.7883 0
M  V30 8298 H 764.676 -6.54415 -0.455704 0
M  V30 8299 H 764.593 -7.49475 0.991104 0
M  V30 8300 H 765.861 -7.79336 -0.159966 0
M  V30 8301 N 770.09 -0.729906 -1.39679 0
M  V30 8302 C 771.038 -0.0756589 -2.32477 0
M  V30 8303 C 772.032 0.731438 -1.52795 0
M  V30 8304 O 773.238 0.633195 -1.68495 0
M  V30 8305 H 769.613 -0.00566492 -0.751979 0
M  V30 8306 H 771.584 -0.874797 -2.85289 0
M  V30 8307 C 770.333 0.821313 -3.37861 0
M  V30 8308 H 769.656 0.209666 -3.9925 0
M  V30 8309 H 771.096 1.24679 -4.05254 0
M  V30 8310 C 769.555 1.9533 -2.74495 0
M  V30 8311 O 770.085 3.04548 -2.61942 0
M  V30 8312 N 768.291 1.74119 -2.3266 0
M  V30 8313 H 767.838 0.852908 -2.4307 0
M  V30 8314 H 767.796 2.50036 -1.90603 0
M  V30 8315 N 771.568 1.50203 -0.477153 0
M  V30 8316 C 772.979 1.86685 -0.0235041 0
M  V30 8317 C 773.33 1.39148 1.38319 0
M  V30 8318 O 772.455 0.759051 2.02651 0
M  V30 8319 C 773.05 3.38781 -0.0358767 0
M  V30 8320 C 771.609 3.74652 0.362327 0
M  V30 8321 C 770.756 2.7412 -0.41875 0
M  V30 8322 H 773.707 1.4286 -0.691133 0
M  V30 8323 H 773.728 3.72732 0.764924 0
M  V30 8324 H 773.24 3.73349 -1.05981 0
M  V30 8325 H 771.341 3.45686 1.39039 0
M  V30 8326 H 771.454 4.79063 0.059457 0
M  V30 8327 H 769.818 2.54376 0.128341 0
M  V30 8328 H 770.601 3.11532 -1.44231 0
M  V30 8329 N 773.046 0.209999 1.56195 0
M  V30 8330 C 773.996 -0.717978 2.164 0
M  V30 8331 C 774.98 -1.16577 1.10899 0
M  V30 8332 O 776.172 -1.12169 1.3692 0
M  V30 8333 C 773.301 -1.93091 2.8385 0
M  V30 8334 C 772.387 -1.50333 3.96561 0
M  V30 8335 N 772.778 -0.787621 4.9963 0
M  V30 8336 C 771.076 -1.79151 4.08437 0
M  V30 8337 C 771.777 -0.571204 5.78889 0
M  V30 8338 N 770.753 -1.12444 5.31843 0
M  V30 8339 H 774.555 -0.162603 2.9345 0
M  V30 8340 H 772.069 0.0107928 1.62396 0
M  V30 8341 H 774.066 -2.60635 3.25384 0
M  V30 8342 H 772.726 -2.49087 2.08293 0
M  V30 8343 H 773.737 -0.441513 5.16015 0
M  V30 8344 H 770.414 -2.36549 3.44022 0
M  V30 8345 H 771.804 -0.00237941 6.719 0
M  V30 8346 N 774.524 -1.57472 -0.0634922 0
M  V30 8347 C 775.487 -2.03268 -1.059 0
M  V30 8348 C 776.487 -0.931028 -1.31105 0
M  V30 8349 O 777.677 -1.19567 -1.26686 0
M  V30 8350 C 774.809 -2.42039 -2.40062 0
M  V30 8351 H 776.002 -2.92454 -0.664119 0
M  V30 8352 H 773.555 -1.53206 -0.309444 0
M  V30 8353 H 774.29 -1.55904 -2.84367 0
M  V30 8354 H 774.075 -3.22437 -2.23108 0
M  V30 8355 H 775.565 -2.78017 -3.11603 0
M  V30 8356 N 776.003 0.335068 -1.53997 0
M  V30 8357 C 776.95 1.41187 -1.82579 0
M  V30 8358 C 777.92 1.51897 -0.672061 0
M  V30 8359 O 779.105 1.673 -0.917346 0
M  V30 8360 C 776.245 2.77717 -2.0486 0
M  V30 8361 C 775.358 2.7573 -3.32561 0
M  V30 8362 C 774.493 4.04032 -3.44864 0
M  V30 8363 C 773.532 3.96308 -4.66483 0
M  V30 8364 N 772.669 5.16317 -4.75774 0
M  V30 8365 H 777.509 1.16113 -2.74448 0
M  V30 8366 H 775.046 0.562305 -1.35928 0
M  V30 8367 H 777.004 3.57071 -2.15768 0
M  V30 8368 H 775.634 3.01124 -1.16294 0
M  V30 8369 H 774.686 1.88432 -3.3045 0
M  V30 8370 H 775.998 2.65902 -4.22016 0
M  V30 8371 H 775.152 4.91814 -3.55251 0
M  V30 8372 H 773.891 4.16652 -2.53481 0
M  V30 8373 H 772.896 3.06911 -4.56164 0
M  V30 8374 H 774.121 3.85263 -5.5924 0
M  V30 8375 H 772.067 5.29464 -3.87303 0
M  V30 8376 H 771.984 5.08779 -5.59178 0
M  V30 8377 H 773.252 6.05846 -4.9048 0
M  V30 8378 N 777.481 1.45874 0.596531 0
M  V30 8379 C 778.428 1.55389 1.70655 0
M  V30 8380 C 779.398 0.399036 1.61236 0
M  V30 8381 O 780.583 0.61396 1.80652 0
M  V30 8382 C 777.723 1.53705 3.0898 0
M  V30 8383 C 776.836 2.79823 3.29125 0
M  V30 8384 C 775.971 2.69735 4.5762 0
M  V30 8385 C 775.01 3.90856 4.71061 0
M  V30 8386 N 774.147 3.79237 5.90867 0
M  V30 8387 H 778.987 2.50211 1.61859 0
M  V30 8388 H 776.524 1.24146 0.789069 0
M  V30 8389 H 778.482 1.50715 3.89026 0
M  V30 8390 H 777.112 0.624247 3.16706 0
M  V30 8391 H 776.164 2.92852 2.42779 0
M  V30 8392 H 777.476 3.69628 3.34927 0
M  V30 8393 H 776.63 2.64773 5.45875 0
M  V30 8394 H 775.369 1.77547 4.54234 0
M  V30 8395 H 774.374 3.96164 3.81227 0
M  V30 8396 H 775.599 4.84124 4.76236 0
M  V30 8397 H 773.545 2.89825 5.88504 0
M  V30 8398 H 773.462 4.62686 5.97877 0
M  V30 8399 H 774.73 3.78227 6.8159 0
M  V30 8400 N 778.959 -0.83999 1.33349 0
M  V30 8401 C 779.891 -1.95678 1.19344 0
M  V30 8402 C 780.904 -1.62322 0.124692 0
M  V30 8403 O 782.093 -1.74516 0.375012 0
M  V30 8404 C 779.193 -3.29133 0.807771 0
M  V30 8405 C 778.366 -3.9063 1.96792 0
M  V30 8406 C 777.425 -5.02438 1.56341 0
M  V30 8407 O 776.451 -5.21646 2.27759 0
M  V30 8408 N 777.653 -5.78612 0.467767 0
M  V30 8409 H 780.418 -2.08229 2.15548 0
M  V30 8410 H 777.979 -1.01566 1.26079 0
M  V30 8411 H 779.971 -4.01355 0.519282 0
M  V30 8412 H 778.541 -3.12535 -0.063555 0
M  V30 8413 H 777.761 -3.11011 2.4221 0
M  V30 8414 H 779.049 -4.2845 2.74422 0
M  V30 8415 H 778.447 -5.65559 -0.126324 0
M  V30 8416 H 777.004 -6.51362 0.238945 0
M  V30 8417 N 780.437 -1.16799 -1.0581 0
M  V30 8418 C 781.714 -0.862616 -1.75551 0
M  V30 8419 C 782.094 0.6385 -2.01212 0
M  V30 8420 O 781.442 1.58784 -1.64317 0
M  V30 8421 C 781.652 -1.6907 -3.05314 0
M  V30 8422 C 783 -1.90675 -3.79379 0
M  V30 8423 O 784.024 -1.65976 -3.15167 0
M  V30 8424 O 782.883 -2.32145 -4.94743 0
M  V30 8425 H 779.977 -0.318789 -0.763088 0
M  V30 8426 H 782.523 -1.27461 -1.12034 0
M  V30 8427 H 781.295 -2.70912 -2.82352 0
M  V30 8428 H 780.918 -1.27606 -3.76567 0
M  V30 8429 N 781.915 1.24427 -0.967243 0
M  V30 8430 C 783.161 1.92772 -0.629812 0
M  V30 8431 C 783.494 1.75436 0.832827 0
M  V30 8432 O 782.769 1.10716 1.59913 0
M  V30 8433 C 783.052 3.45798 -1.00477 0
M  V30 8434 C 782.905 3.72304 -2.52407 0
M  V30 8435 C 784.224 4.36787 -0.538999 0
M  V30 8436 H 781.343 0.700099 -0.230282 0
M  V30 8437 H 783.985 1.46805 -1.20616 0
M  V30 8438 H 782.135 3.8508 -0.514336 0
M  V30 8439 H 783.807 3.42584 -3.08924 0
M  V30 8440 H 782.05 3.17472 -2.95625 0
M  V30 8441 H 782.721 4.7937 -2.73693 0
M  V30 8442 H 785.197 4.04877 -0.959874 0
M  V30 8443 H 784.073 5.4259 -0.829926 0
M  V30 8444 H 784.334 4.38527 0.560923 0
M  V30 8445 N 783.393 0.737304 1.3929 0
M  V30 8446 C 784.639 0.286681 2.00763 0
M  V30 8447 C 784.972 -1.12388 1.58375 0
M  V30 8448 O 784.247 -1.76661 0.813699 0
M  V30 8449 C 784.53 0.391147 3.57969 0
M  V30 8450 C 784.383 1.84165 4.1037 0
M  V30 8451 C 785.702 -0.225072 4.39524 0
M  V30 8452 H 782.821 0.105642 0.729389 0
M  V30 8453 H 785.463 0.933892 1.65464 0
M  V30 8454 H 783.613 -0.159875 3.88171 0
M  V30 8455 H 785.285 2.44972 3.90879 0
M  V30 8456 H 783.528 2.3622 3.63844 0
M  V30 8457 H 784.199 1.866 5.19504 0
M  V30 8458 H 786.675 0.244677 4.1538 0
M  V30 8459 H 785.551 -0.121646 5.48765 0
M  V30 8460 H 785.812 -1.31141 4.22202 0
M  V30 8461 N 784.871 -1.49948 0.485112 0
M  V30 8462 C 786.117 -2.02695 -0.0651022 0
M  V30 8463 C 786.45 -1.36534 -1.38102 0
M  V30 8464 O 785.725 -0.495677 -1.88078 0
M  V30 8465 C 786.008 -3.59337 -0.234285 0
M  V30 8466 C 785.861 -4.3605 1.10364 0
M  V30 8467 C 787.18 -4.28996 -0.982351 0
M  V30 8468 H 784.299 -0.736666 -0.0221856 0
M  V30 8469 H 786.941 -1.7913 0.633433 0
M  V30 8470 H 785.091 -3.79546 -0.829262 0
M  V30 8471 H 786.763 -4.27377 1.73627 0
M  V30 8472 H 785.006 -3.99236 1.69686 0
M  V30 8473 H 785.677 -5.43959 0.938743 0
M  V30 8474 H 788.153 -4.13346 -0.477904 0
M  V30 8475 H 787.029 -5.38379 -1.06955 0
M  V30 8476 H 787.29 -3.93135 -2.02231 0
M  V30 8477 N 786.349 -0.21828 -1.56081 0
M  V30 8478 C 787.279 0.687922 -2.23136 0
M  V30 8479 C 788.26 1.20357 -1.202 0
M  V30 8480 O 789.445 1.24817 -1.48776 0
M  V30 8481 C 786.575 1.89762 -2.90874 0
M  V30 8482 C 785.529 1.51595 -4.00254 0
M  V30 8483 C 784.855 2.80415 -4.55271 0
M  V30 8484 C 786.155 0.708404 -5.17474 0
M  V30 8485 H 787.849 0.128854 -2.99123 0
M  V30 8486 H 785.395 0.0605354 -1.43873 0
M  V30 8487 H 787.348 2.53699 -3.36474 0
M  V30 8488 H 786.072 2.4816 -2.1233 0
M  V30 8489 H 784.731 0.900058 -3.55379 0
M  V30 8490 H 784.379 3.36951 -3.73461 0
M  V30 8491 H 784.079 2.55613 -5.2909 0
M  V30 8492 H 785.603 3.453 -5.03587 0
M  V30 8493 H 787.017 1.2514 -5.59476 0
M  V30 8494 H 785.414 0.557593 -5.97504 0
M  V30 8495 H 786.484 -0.285679 -4.84058 0
M  V30 8496 N 787.827 1.57504 0.0551401 0
M  V30 8497 C 789.075 1.87684 0.74962 0
M  V30 8498 C 789.396 0.812547 1.77264 0
M  V30 8499 O 788.666 -0.15694 1.9527 0
M  V30 8500 H 787.246 0.6926 0.279846 0
M  V30 8501 H 789.908 1.94881 0.0272745 0
M  V30 8502 H 789.004 2.85734 1.25548 0
M  V30 8503 N 789.305 -0.326896 1.54172 0
M  V30 8504 C 790.53 -1.08924 1.76494 0
M  V30 8505 C 790.955 -1.81039 0.510523 0
M  V30 8506 O 790.313 -1.73141 -0.537756 0
M  V30 8507 C 790.361 -2.06558 2.95578 0
M  V30 8508 O 789.465 -3.14394 2.6689 0
M  V30 8509 H 788.806 -0.314216 0.584948 0
M  V30 8510 H 791.336 -0.372207 2.01186 0
M  V30 8511 H 791.346 -2.49487 3.22832 0
M  V30 8512 H 790.021 -1.53469 3.86549 0
M  V30 8513 H 788.598 -2.76164 2.50576 0
M  V30 8514 N 790.784 -1.46188 -0.588786 0
M  V30 8515 C 791.716 -1.52319 -1.71265 0
M  V30 8516 C 792.729 -0.412096 -1.57498 0
M  V30 8517 O 793.918 -0.680146 -1.65034 0
M  V30 8518 C 791.018 -1.38164 -3.09458 0
M  V30 8519 C 790.191 -2.63284 -3.49286 0
M  V30 8520 C 789.25 -2.43415 -4.66514 0
M  V30 8521 O 788.276 -3.17113 -4.72682 0
M  V30 8522 N 789.478 -1.49187 -5.61002 0
M  V30 8523 H 792.243 -2.49219 -1.66463 0
M  V30 8524 H 789.804 -1.42167 -0.774601 0
M  V30 8525 H 791.796 -1.22653 -3.85666 0
M  V30 8526 H 790.366 -0.494678 -3.08661 0
M  V30 8527 H 789.586 -2.93779 -2.62845 0
M  V30 8528 H 790.874 -3.46413 -3.7266 0
M  V30 8529 H 790.272 -0.884027 -5.5875 0
M  V30 8530 H 788.829 -1.39642 -6.36666 0
M  V30 8531 N 792.262 0.832906 -1.33792 0
M  V30 8532 C 793.172 1.97514 -1.26592 0
M  V30 8533 C 794.188 1.73114 -0.175391 0
M  V30 8534 O 795.364 1.97387 -0.400062 0
M  V30 8535 C 792.429 3.31625 -1.01121 0
M  V30 8536 C 791.49 3.69101 -2.19233 0
M  V30 8537 C 790.723 4.96813 -1.94968 0
M  V30 8538 O 790.946 5.63208 -0.902955 0
M  V30 8539 O 789.88 5.31932 -2.8166 0
M  V30 8540 H 793.706 2.0653 -2.22664 0
M  V30 8541 H 791.291 0.966826 -1.13898 0
M  V30 8542 H 793.173 4.11968 -0.886571 0
M  V30 8543 H 791.848 3.23599 -0.080822 0
M  V30 8544 H 790.755 2.89243 -2.37253 0
M  V30 8545 H 792.088 3.818 -3.10628 0
M  V30 8546 N 793.74 1.17359 1.05189 0
M  V30 8547 C 794.988 0.960087 1.77839 0
M  V30 8548 C 795.309 -0.512554 1.88143 0
M  V30 8549 O 794.579 -1.3721 1.39822 0
M  V30 8550 H 793.159 0.352234 0.658741 0
M  V30 8551 H 795.821 1.47834 1.27008 0
M  V30 8552 H 794.917 1.38843 2.79516 0
M  V30 8553 N 795.218 -1.23913 0.973828 0
M  V30 8554 C 796.181 -2.23367 0.51378 0
M  V30 8555 C 797.181 -1.55923 -0.39302 0
M  V30 8556 O 798.371 -1.73187 -0.187626 0
M  V30 8557 C 795.503 -3.39944 -0.255152 0
M  V30 8558 H 796.696 -2.65581 1.39307 0
M  V30 8559 H 794.249 -1.36632 0.759039 0
M  V30 8560 H 794.984 -3.03177 -1.15127 0
M  V30 8561 H 794.769 -3.90098 0.395673 0
M  V30 8562 H 796.259 -4.13749 -0.565842 0
M  V30 8563 N 796.696 -0.74468 -1.38897 0
M  V30 8564 C 797.629 -0.0596441 -2.28122 0
M  V30 8565 C 798.607 0.73764 -1.44906 0
M  V30 8566 O 799.791 0.718155 -1.74284 0
M  V30 8567 C 796.918 0.922533 -3.25894 0
M  V30 8568 C 795.964 0.212566 -4.2597 0
M  V30 8569 S 796.797 -1.08035 -5.24489 0
M  V30 8570 C 797.953 -0.101014 -6.25818 0
M  V30 8571 H 798.186 -0.816289 -2.85874 0
M  V30 8572 H 795.719 -0.536882 -1.44765 0
M  V30 8573 H 797.677 1.4839 -3.82741 0
M  V30 8574 H 796.338 1.65209 -2.67142 0
M  V30 8575 H 795.531 0.956106 -4.94848 0
M  V30 8576 H 795.133 -0.277029 -3.72973 0
M  V30 8577 H 797.425 0.736072 -6.7349 0
M  V30 8578 H 798.368 -0.757206 -7.0404 0
M  V30 8579 H 798.776 0.275706 -5.63826 0
M  V30 8580 N 798.174 1.49689 -0.493057 0
M  V30 8581 C 799.124 2.25901 0.308682 0
M  V30 8582 C 800.108 1.30408 0.94247 0
M  V30 8583 O 801.3 1.55179 0.851384 0
M  V30 8584 C 798.429 3.14463 1.37725 0
M  V30 8585 C 797.515 4.17414 0.7501 0
M  V30 8586 N 797.906 5.05599 -0.142597 0
M  V30 8587 C 796.204 4.34377 1.01159 0
M  V30 8588 C 796.905 5.7954 -0.500782 0
M  V30 8589 N 795.881 5.43446 0.129386 0
M  V30 8590 H 799.683 2.91451 -0.378652 0
M  V30 8591 H 797.197 1.59441 -0.308614 0
M  V30 8592 H 799.194 3.67687 1.965 0
M  V30 8593 H 797.854 2.50464 2.06635 0
M  V30 8594 H 798.865 5.15354 -0.512894 0
M  V30 8595 H 795.542 3.81588 1.69402 0
M  V30 8596 H 796.932 6.60534 -1.23063 0
M  V30 8597 N 799.652 0.226554 1.55963 0
M  V30 8598 C 800.88 -0.408507 2.02827 0
M  V30 8599 C 801.295 -1.52994 1.10627 0
M  V30 8600 O 800.652 -1.82126 0.116809 0
M  V30 8601 C 800.703 -0.93545 3.49187 0
M  V30 8602 O 800.424 0.141273 4.37872 0
M  V30 8603 C 801.925 -1.64325 4.11719 0
M  V30 8604 H 799.145 -0.099442 0.66359 0
M  V30 8605 H 801.689 0.344471 2.01578 0
M  V30 8606 H 799.844 -1.63868 3.51036 0
M  V30 8607 H 800.258 -0.25558 5.23877 0
M  V30 8608 H 801.732 -1.9639 5.15883 0
M  V30 8609 H 802.209 -2.55815 3.57009 0
M  V30 8610 H 802.815 -0.9851 4.13734 0
M  V30 8611 N 801.13 -1.57531 -0.0467866 0
M  V30 8612 C 802.093 -2.04379 -1.03738 0
M  V30 8613 C 803.093 -0.944881 -1.3011 0
M  V30 8614 O 804.283 -1.20904 -1.25411 0
M  V30 8615 C 801.415 -2.44572 -2.37482 0
M  V30 8616 H 802.608 -2.93142 -0.633063 0
M  V30 8617 H 800.161 -1.53526 -0.293177 0
M  V30 8618 H 800.896 -1.58911 -2.82697 0
M  V30 8619 H 800.681 -3.24785 -2.19675 0
M  V30 8620 H 802.171 -2.81307 -3.08636 0
M  V30 8621 N 802.608 0.318715 -1.54344 0
M  V30 8622 C 803.538 1.39751 -1.87061 0
M  V30 8623 C 804.519 1.53741 -0.727848 0
M  V30 8624 O 805.704 1.67541 -0.982016 0
M  V30 8625 C 802.834 2.76446 -2.10226 0
M  V30 8626 C 801.788 2.77239 -3.26071 0
M  V30 8627 C 801.114 4.17056 -3.34617 0
M  V30 8628 C 802.414 2.40555 -4.63606 0
M  V30 8629 H 804.108 1.12619 -2.77412 0
M  V30 8630 H 801.654 0.540318 -1.33479 0
M  V30 8631 H 803.607 3.51985 -2.31699 0
M  V30 8632 H 802.331 3.05066 -1.16629 0
M  V30 8633 H 800.99 2.04155 -3.04493 0
M  V30 8634 H 800.638 4.42824 -2.3857 0
M  V30 8635 H 800.338 4.18492 -4.12478 0
M  V30 8636 H 801.862 4.94401 -3.5833 0
M  V30 8637 H 803.276 3.05808 -4.84927 0
M  V30 8638 H 801.673 2.53234 -5.44052 0
M  V30 8639 H 802.743 1.35698 -4.65526 0
M  V30 8640 N 804.086 1.46499 0.581025 0
M  V30 8641 C 805.314 1.5547 1.36517 0
M  V30 8642 C 805.729 0.196407 1.87776 0
M  V30 8643 O 805.086 -0.806577 1.63709 0
M  V30 8644 C 805.137 2.56084 2.55154 0
M  V30 8645 O 804.858 3.86637 2.06018 0
M  V30 8646 C 806.359 2.75011 3.47683 0
M  V30 8647 H 803.579 0.525703 0.416986 0
M  V30 8648 H 806.123 1.9192 0.706177 0
M  V30 8649 H 804.278 2.22633 3.17039 0
M  V30 8650 H 804.692 4.41413 2.83292 0
M  V30 8651 H 806.166 3.49329 4.27403 0
M  V30 8652 H 806.643 1.81978 3.99726 0
M  V30 8653 H 807.249 3.09565 2.91632 0
M  V30 8654 N 805.565 -0.825799 1.34232 0
M  V30 8655 C 806.813 -1.57873 1.26177 0
M  V30 8656 C 807.134 -1.94267 -0.168904 0
M  V30 8657 O 806.404 -1.62045 -1.10084 0
M  V30 8658 H 804.984 -0.585388 0.464037 0
M  V30 8659 H 807.646 -0.986163 1.6811 0
M  V30 8660 H 806.742 -2.50283 1.86453 0
M  V30 8661 N 807.043 -1.17915 -1.04565 0
M  V30 8662 C 808.006 -0.903787 -2.10628 0
M  V30 8663 C 809.006 0.10873 -1.60432 0
M  V30 8664 O 810.196 -0.124152 -1.73757 0
M  V30 8665 C 807.328 -0.355017 -3.39046 0
M  V30 8666 H 808.521 -1.84425 -2.3649 0
M  V30 8667 H 806.074 -0.990477 -1.2091 0
M  V30 8668 H 806.809 0.592297 -3.18845 0
M  V30 8669 H 806.594 -1.08484 -3.76794 0
M  V30 8670 H 808.084 -0.180891 -4.17208 0
M  V30 8671 N 808.521 1.23394 -0.980386 0
M  V30 8672 C 809.749 1.95844 -0.667286 0
M  V30 8673 C 810.164 1.72574 0.765735 0
M  V30 8674 O 809.521 1.01715 1.51526 0
M  V30 8675 C 809.572 3.48844 -0.948151 0
M  V30 8676 O 809.293 3.71325 -2.32485 0
M  V30 8677 C 810.794 4.38494 -0.651002 0
M  V30 8678 H 808.014 0.623535 -0.247882 0
M  V30 8679 H 810.558 1.56885 -1.31176 0
M  V30 8680 H 808.713 3.85819 -0.349681 0
M  V30 8681 H 809.127 4.65619 -2.41452 0
M  V30 8682 H 810.601 5.44648 -0.897887 0
M  V30 8683 H 811.078 4.37236 0.414922 0
M  V30 8684 H 811.684 4.07127 -1.22995 0
M  V30 8685 N 809.999 0.752036 1.385 0
M  V30 8686 C 810.909 0.125318 2.34265 0
M  V30 8687 C 811.925 -0.702437 1.59191 0
M  V30 8688 O 813.101 -0.626951 1.91393 0
M  V30 8689 C 810.166 -0.758486 3.38301 0
M  V30 8690 C 809.227 0.0834636 4.29219 0
M  V30 8691 C 808.46 -0.758252 5.28286 0
M  V30 8692 O 808.683 -1.99632 5.34325 0
M  V30 8693 O 807.617 -0.177878 6.01637 0
M  V30 8694 H 811.443 0.91617 2.89551 0
M  V30 8695 H 809.028 0.512911 1.4032 0
M  V30 8696 H 810.91 -1.26365 4.02007 0
M  V30 8697 H 809.585 -1.52786 2.85374 0
M  V30 8698 H 808.492 0.634545 3.68679 0
M  V30 8699 H 809.825 0.815455 4.85398 0
M  V30 8700 N 811.477 -1.49425 0.500989 0
M  V30 8701 C 812.726 -2.01649 -0.04538 0
M  V30 8702 C 813.039 -1.38572 -1.38047 0
M  V30 8703 O 814.245 -1.82124 -2.01353 0
M  V30 8704 C 812.701 -3.5966 -0.131337 0
M  V30 8705 C 812.309 -4.3171 1.19711 0
M  V30 8706 C 814.053 -4.19828 -0.628071 0
M  V30 8707 C 811.96 -5.81579 1.07332 0
M  V30 8708 H 810.89 -0.753715 -0.0207329 0
M  V30 8709 H 813.541 -1.71962 0.640407 0
M  V30 8710 H 811.923 -3.86063 -0.881574 0
M  V30 8711 H 813.097 -4.17008 1.96064 0
M  V30 8712 H 811.412 -3.83286 1.62729 0
M  V30 8713 H 814.009 -5.2958 -0.738198 0
M  V30 8714 H 814.352 -3.83194 -1.6269 0
M  V30 8715 H 814.885 -3.97746 0.0656314 0
M  V30 8716 H 811.624 -6.22738 2.04642 0
M  V30 8717 H 811.144 -5.98774 0.350679 0
M  V30 8718 H 812.823 -6.42614 0.752047 0
M  V30 8719 N 812.955 -0.234822 -1.55841 0
M  V30 8720 C 813.887 0.702346 -2.18174 0
M  V30 8721 C 814.9 1.14776 -1.15457 0
M  V30 8722 O 816.089 1.07662 -1.42377 0
M  V30 8723 C 813.189 1.96483 -2.76129 0
M  V30 8724 C 812.362 1.67283 -4.04148 0
M  V30 8725 C 811.421 2.7837 -4.46539 0
M  V30 8726 O 810.447 2.46272 -5.13166 0
M  V30 8727 N 811.649 4.07611 -4.1332 0
M  V30 8728 H 814.414 0.169074 -2.99223 0
M  V30 8729 H 811.975 -0.0543164 -1.61809 0
M  V30 8730 H 813.967 2.70016 -3.01452 0
M  V30 8731 H 812.537 2.40822 -1.99307 0
M  V30 8732 H 811.757 0.773278 -3.86541 0
M  V30 8733 H 813.045 1.45222 -4.87635 0
M  V30 8734 H 812.443 4.36527 -3.59806 0
M  V30 8735 H 811 4.77646 -4.43506 0
M  V30 8736 N 814.433 1.57553 0.0384317 0
M  V30 8737 C 815.366 2.01307 1.07475 0
M  V30 8738 C 816.344 0.895717 1.35704 0
M  V30 8739 O 817.528 1.16079 1.48519 0
M  V30 8740 C 814.655 2.37817 2.41165 0
M  V30 8741 C 813.701 3.599 2.28855 0
M  V30 8742 S 814.534 5.09418 1.65086 0
M  V30 8743 C 815.69 5.49162 3.00286 0
M  V30 8744 H 815.923 2.88892 0.702034 0
M  V30 8745 H 813.456 1.52394 0.248103 0
M  V30 8746 H 815.414 2.59524 3.18053 0
M  V30 8747 H 814.075 1.507 2.75587 0
M  V30 8748 H 813.268 3.83071 3.27525 0
M  V30 8749 H 812.87 3.37996 1.60109 0
M  V30 8750 H 815.162 5.49274 3.96617 0
M  V30 8751 H 816.105 6.49586 2.81858 0
M  V30 8752 H 816.513 4.76653 3.02427 0
M  V30 8753 N 815.911 -0.310526 1.54511 0
M  V30 8754 C 817.136 -1.07046 1.7764 0
M  V30 8755 C 817.561 -1.80488 0.529696 0
M  V30 8756 O 816.919 -1.73702 -0.519361 0
M  V30 8757 C 816.967 -2.03411 2.97752 0
M  V30 8758 O 816.071 -3.11545 2.7021 0
M  V30 8759 H 815.412 -0.307994 0.588248 0
M  V30 8760 H 817.942 -0.350848 2.01569 0
M  V30 8761 H 817.952 -2.46048 3.2546 0
M  V30 8762 H 816.627 -1.49361 3.88155 0
M  V30 8763 H 815.204 -2.7349 2.53491 0
M  V30 8764 N 817.389 -1.46805 -0.573248 0
M  V30 8765 C 818.614 -1.56433 -1.36175 0
M  V30 8766 C 819.039 -0.209336 -1.86932 0
M  V30 8767 O 818.397 0.812146 -1.62092 0
M  V30 8768 C 818.445 -2.58055 -2.51873 0
M  V30 8769 O 817.549 -2.12214 -3.53609 0
M  V30 8770 H 816.89 -0.526068 -0.405153 0
M  V30 8771 H 819.42 -1.92456 -0.694405 0
M  V30 8772 H 819.43 -2.77966 -2.98662 0
M  V30 8773 H 818.105 -3.56448 -2.14284 0
M  V30 8774 H 816.682 -2.02333 -3.13234 0
M  V30 8775 N 818.867 0.818669 -1.34668 0
M  V30 8776 C 820.115 1.57201 -1.27013 0
M  V30 8777 C 820.436 1.94354 0.158599 0
M  V30 8778 O 819.706 1.62626 1.09223 0
M  V30 8779 H 818.286 0.582919 -0.467135 0
M  V30 8780 H 820.948 0.977234 -1.6863 0
M  V30 8781 H 820.044 2.49291 -1.87778 0
M  V30 8782 N 820.346 1.18468 1.03938 0
M  V30 8783 C 821.294 0.909286 2.14091 0
M  V30 8784 C 822.288 -0.130928 1.68893 0
M  V30 8785 O 823.494 0.0173403 1.79992 0
M  V30 8786 H 819.869 0.27658 0.699291 0
M  V30 8787 H 821.84 1.84514 2.34515 0
M  V30 8788 C 820.589 0.452922 3.44737 0
M  V30 8789 H 819.912 1.24485 3.79926 0
M  V30 8790 H 821.352 0.299238 4.22943 0
M  V30 8791 C 819.811 -0.831435 3.26479 0
M  V30 8792 O 820.341 -1.89535 3.54174 0
M  V30 8793 N 818.547 -0.784545 2.79809 0
M  V30 8794 H 818.094 0.0814746 2.57471 0
M  V30 8795 H 818.052 -1.64431 2.67973 0
M  V30 8796 N 821.824 -1.22873 0.986916 0
M  V30 8797 C 822.754 -2.2688 0.552064 0
M  V30 8798 C 823.735 -1.64883 -0.418048 0
M  V30 8799 O 824.92 -1.9171 -0.30999 0
M  V30 8800 C 822.05 -3.47018 -0.139959 0
M  V30 8801 C 821.004 -4.21411 0.748091 0
M  V30 8802 C 820.33 -5.34645 -0.0765132 0
M  V30 8803 C 821.63 -4.80726 2.04206 0
M  V30 8804 H 823.324 -2.63507 1.42143 0
M  V30 8805 H 820.87 -1.26668 0.68492 0
M  V30 8806 H 822.823 -4.18931 -0.455527 0
M  V30 8807 H 821.547 -3.0947 -1.04382 0
M  V30 8808 H 820.206 -3.51325 1.04721 0
M  V30 8809 H 819.854 -4.93339 -0.981109 0
M  V30 8810 H 819.554 -5.85342 0.514606 0
M  V30 8811 H 821.078 -6.09377 -0.386313 0
M  V30 8812 H 822.492 -5.44612 1.79083 0
M  V30 8813 H 820.889 -5.41737 2.5815 0
M  V30 8814 H 821.959 -4.01109 2.72469 0
M  V30 8815 N 823.302 -0.75937 -1.38099 0
M  V30 8816 C 824.232 -0.151077 -2.33011 0
M  V30 8817 C 825.213 0.697099 -1.5516 0
M  V30 8818 O 826.398 0.637101 -1.83452 0
M  V30 8819 C 823.528 0.738423 -3.39359 0
M  V30 8820 C 822.482 -0.0074741 -4.27999 0
M  V30 8821 C 821.808 1.00066 -5.25253 0
M  V30 8822 C 823.108 -1.17926 -5.08813 0
M  V30 8823 H 824.802 -0.943933 -2.84131 0
M  V30 8824 H 822.348 -0.455362 -1.36611 0
M  V30 8825 H 824.301 1.17369 -4.04725 0
M  V30 8826 H 823.025 1.56366 -2.86735 0
M  V30 8827 H 821.684 -0.423379 -3.64147 0
M  V30 8828 H 821.332 1.82012 -4.68914 0
M  V30 8829 H 821.032 0.506199 -5.85416 0
M  V30 8830 H 822.556 1.43512 -5.93495 0
M  V30 8831 H 823.97 -0.821262 -5.67387 0
M  V30 8832 H 822.367 -1.60497 -5.78239 0
M  V30 8833 H 823.437 -1.98938 -4.42212 0
M  V30 8834 N 824.78 1.49157 -0.508906 0
M  V30 8835 C 826.027 2.02473 0.0327983 0
M  V30 8836 C 826.355 1.38792 1.36261 0
M  V30 8837 O 825.61 0.515576 1.88786 0
M  V30 8838 C 825.909 3.56687 0.225717 0
M  V30 8839 C 825.575 4.39046 -1.02708 0
M  V30 8840 C 824.237 4.61271 -1.37048 0
M  V30 8841 C 826.589 4.86902 -1.85946 0
M  V30 8842 C 823.917 5.28598 -2.54562 0
M  V30 8843 C 826.269 5.55521 -3.0262 0
M  V30 8844 C 824.933 5.7599 -3.3733 0
M  V30 8845 H 824.203 0.740903 0.0120017 0
M  V30 8846 H 826.85 1.79372 -0.670665 0
M  V30 8847 H 825.155 3.78511 1.01177 0
M  V30 8848 H 826.852 3.95541 0.659433 0
M  V30 8849 H 823.442 4.21994 -0.749615 0
M  V30 8850 H 827.626 4.69553 -1.6073 0
M  V30 8851 H 822.882 5.42646 -2.81682 0
M  V30 8852 H 827.056 5.91576 -3.67438 0
M  V30 8853 H 824.683 6.27934 -4.2849 0
M  V30 8854 N 826.258 0.243083 1.55714 0
M  V30 8855 C 827.486 -0.386971 2.03249 0
M  V30 8856 C 827.901 -1.51812 1.12243 0
M  V30 8857 O 827.258 -1.81992 0.136119 0
M  V30 8858 C 827.309 -0.898361 3.5016 0
M  V30 8859 O 827.03 0.187708 4.37698 0
M  V30 8860 C 828.531 -1.59949 4.13438 0
M  V30 8861 H 825.751 -0.0923981 0.664608 0
M  V30 8862 H 828.295 0.365832 2.01201 0
M  V30 8863 H 826.45 -1.60136 3.52754 0
M  V30 8864 H 826.864 -0.200001 5.24119 0
M  V30 8865 H 828.338 -1.90907 5.17937 0
M  V30 8866 H 828.815 -2.52014 3.59702 0
M  V30 8867 H 829.421 -0.941163 4.14756 0
M  V30 8868 N 827.736 -1.57571 -0.0300757 0
M  V30 8869 C 828.984 -1.88852 -0.719666 0
M  V30 8870 C 829.305 -0.840645 -1.75949 0
M  V30 8871 O 828.575 0.125854 -1.95495 0
M  V30 8872 H 827.155 -0.696965 -0.268792 0
M  V30 8873 H 829.817 -1.949 0.00373285 0
M  V30 8874 H 828.913 -2.87695 -1.20987 0
M  V30 8875 N 829.214 0.302327 -1.54673 0
M  V30 8876 C 830.164 1.37443 -1.81916 0
M  V30 8877 C 831.148 1.45999 -0.676251 0
M  V30 8878 O 832.34 1.50174 -0.93685 0
M  V30 8879 C 829.469 2.73966 -2.06876 0
M  V30 8880 C 828.555 2.69637 -3.27348 0
M  V30 8881 N 828.946 2.34926 -4.47933 0
M  V30 8882 C 827.244 3.00742 -3.29348 0
M  V30 8883 C 827.945 2.39862 -5.29944 0
M  V30 8884 N 826.921 2.77163 -4.67634 0
M  V30 8885 H 830.723 1.09567 -2.72713 0
M  V30 8886 H 828.237 0.5109 -1.54154 0
M  V30 8887 H 830.234 3.51265 -2.2454 0
M  V30 8888 H 828.894 3.02754 -1.17346 0
M  V30 8889 H 829.905 2.07403 -4.74557 0
M  V30 8890 H 826.582 3.34434 -2.49921 0
M  V30 8891 H 827.972 2.15835 -6.3629 0
M  V30 8892 N 830.692 1.47107 0.565454 0
M  V30 8893 C 831.622 1.61846 1.68309 0
M  V30 8894 C 832.603 0.468159 1.63531 0
M  V30 8895 O 833.788 0.696504 1.8128 0
M  V30 8896 C 830.918 1.62474 3.06952 0
M  V30 8897 C 829.872 2.76649 3.26572 0
M  V30 8898 C 829.198 2.62345 4.65917 0
M  V30 8899 C 830.498 4.18319 3.12741 0
M  V30 8900 H 832.192 2.55407 1.5623 0
M  V30 8901 H 829.738 1.22916 0.750179 0
M  V30 8902 H 831.691 1.71378 3.84977 0
M  V30 8903 H 830.415 0.654692 3.19971 0
M  V30 8904 H 829.074 2.67242 2.50952 0
M  V30 8905 H 828.722 1.63386 4.75725 0
M  V30 8906 H 828.422 3.38936 4.79996 0
M  V30 8907 H 829.946 2.73165 5.46089 0
M  V30 8908 H 831.36 4.28745 3.80593 0
M  V30 8909 H 829.757 4.95632 3.38333 0
M  V30 8910 H 830.827 4.37263 2.09592 0
M  V30 8911 N 832.17 -0.811516 1.35101 0
M  V30 8912 C 833.117 -1.92308 1.27617 0
M  V30 8913 C 834.087 -1.6543 0.149091 0
M  V30 8914 O 835.272 -1.8789 0.331974 0
M  V30 8915 C 832.412 -3.28768 1.04908 0
M  V30 8916 C 831.525 -3.67865 2.26493 0
M  V30 8917 C 830.66 -4.9333 1.96974 0
M  V30 8918 C 829.699 -5.25041 3.1464 0
M  V30 8919 N 828.836 -6.41685 2.84929 0
M  V30 8920 H 833.676 -1.98041 2.22674 0
M  V30 8921 H 831.213 -0.968755 1.10696 0
M  V30 8922 H 833.171 -4.07426 0.897749 0
M  V30 8923 H 831.801 -3.22517 0.135151 0
M  V30 8924 H 830.853 -2.84507 2.52507 0
M  V30 8925 H 832.165 -3.87263 3.14371 0
M  V30 8926 H 831.319 -5.79803 1.78643 0
M  V30 8927 H 830.058 -4.75958 1.06374 0
M  V30 8928 H 829.063 -4.3706 3.33554 0
M  V30 8929 H 830.288 -5.44346 4.06035 0
M  V30 8930 H 828.234 -6.25747 1.96918 0
M  V30 8931 H 828.151 -6.6131 3.66341 0
M  V30 8932 H 829.419 -7.31198 2.70128 0
M  V30 8933 N 833.648 -1.19017 -1.03309 0
M  V30 8934 C 834.888 -1.00129 -1.78195 0
M  V30 8935 C 835.252 0.460236 -1.86402 0
M  V30 8936 O 836.453 0.768802 -2.57571 0
M  V30 8937 C 834.724 -1.64703 -3.17187 0
M  V30 8938 S 836.283 -1.60695 -4.08317 0
M  V30 8939 H 833.101 -0.359395 -0.613479 0
M  V30 8940 H 835.703 -1.51293 -1.23818 0
M  V30 8941 H 834.407 -2.70283 -3.08829 0
M  V30 8942 H 833.938 -1.136 -3.76641 0
M  V30 8943 H 835.953 -0.628171 -4.92208 0
M  V30 8944 N 835.127 1.22348 -0.993418 0
M  V30 8945 C 836.543 1.43222 -0.704238 0
M  V30 8946 C 836.743 1.88009 0.724909 0
M  V30 8947 O 835.799 2.03429 1.49575 0
M  V30 8948 C 837.112 2.47328 -1.71025 0
M  V30 8949 C 838.66 2.61126 -1.72576 0
M  V30 8950 C 839.135 3.68453 -2.72041 0
M  V30 8951 N 840.626 3.75911 -2.70639 0
M  V30 8952 C 841.361 4.58551 -3.44266 0
M  V30 8953 N 840.857 5.45179 -4.27495 0
M  V30 8954 N 842.65 4.52866 -3.32969 0
M  V30 8955 H 834.801 0.915832 -1.91641 0
M  V30 8956 H 837.064 0.464283 -0.826526 0
M  V30 8957 H 836.77 2.21366 -2.73295 0
M  V30 8958 H 836.644 3.45939 -1.50353 0
M  V30 8959 H 839.031 2.86431 -0.710037 0
M  V30 8960 H 839.112 1.62787 -1.97317 0
M  V30 8961 H 838.756 3.43895 -3.73763 0
M  V30 8962 H 838.686 4.66362 -2.4457 0
M  V30 8963 H 841.177 3.14014 -2.10247 0
M  V30 8964 H 841.49 6.0526 -4.80499 0
M  V30 8965 H 839.835 5.44759 -4.31582 0
M  V30 8966 H 843.026 3.84215 -2.67389 0
M  V30 8967 H 843.199 5.17039 -3.90608 0
M  V30 8968 N 836.605 0.766683 1.37694 0
M  V30 8969 C 837.535 0.163432 2.32927 0
M  V30 8970 C 838.516 -0.688861 1.55527 0
M  V30 8971 O 839.701 -0.627363 1.83787 0
M  V30 8972 C 836.831 -0.720416 3.39746 0
M  V30 8973 C 835.785 0.0301718 4.27989 0
M  V30 8974 C 835.111 -0.972788 5.25776 0
M  V30 8975 C 836.411 1.20623 5.0818 0
M  V30 8976 H 838.105 0.958988 2.83626 0
M  V30 8977 H 835.651 0.462601 1.36367 0
M  V30 8978 H 837.604 -1.15221 4.05342 0
M  V30 8979 H 836.328 -1.54844 2.8756 0
M  V30 8980 H 834.987 0.442685 3.63917 0
M  V30 8981 H 834.635 -1.79522 4.69873 0
M  V30 8982 H 834.335 -0.475145 5.85676 0
M  V30 8983 H 835.859 -1.40362 5.94248 0
M  V30 8984 H 837.273 0.851341 5.66944 0
M  V30 8985 H 835.67 1.63561 5.7738 0
M  V30 8986 H 836.74 2.01281 4.41151 0
M  V30 8987 N 838.083 -1.48885 0.516809 0
M  V30 8988 C 839.499 -1.58651 0.173788 0
M  V30 8989 C 839.699 -1.52033 -1.32243 0
M  V30 8990 O 838.755 -1.40251 -2.09967 0
M  V30 8991 C 840.068 -2.90816 0.764628 0
M  V30 8992 C 841.616 -3.04316 0.732164 0
M  V30 8993 C 842.091 -4.39123 1.30135 0
M  V30 8994 N 843.582 -4.45656 1.26273 0
M  V30 8995 C 844.317 -5.48446 1.67317 0
M  V30 8996 N 843.813 -6.58258 2.16028 0
M  V30 8997 N 845.606 -5.39251 1.58635 0
M  V30 8998 H 837.757 -1.5143 1.48939 0
M  V30 8999 H 840.02 -0.718243 0.618733 0
M  V30 9000 H 839.726 -3.01275 1.81456 0
M  V30 9001 H 839.6 -3.76473 0.234113 0
M  V30 9002 H 841.987 -2.93478 -0.308975 0
M  V30 9003 H 842.068 -2.20303 1.3 0
M  V30 9004 H 841.712 -4.50714 2.34135 0
M  V30 9005 H 841.642 -5.21801 0.709305 0
M  V30 9006 H 844.133 -3.66879 0.906006 0
M  V30 9007 H 844.446 -7.32811 2.45374 0
M  V30 9008 H 842.791 -6.59257 2.20013 0
M  V30 9009 H 845.982 -4.52354 1.20387 0
M  V30 9010 H 846.155 -6.19229 1.90944 0
M  V30 9011 N 839.561 -0.251338 -1.55583 0
M  V30 9012 C 840.494 0.687092 -2.1761 0
M  V30 9013 C 841.472 1.16963 -1.12953 0
M  V30 9014 O 842.656 1.24696 -1.41362 0
M  V30 9015 C 839.783 1.93429 -2.78034 0
M  V30 9016 C 838.829 1.58925 -3.95784 0
M  V30 9017 S 839.662 0.688019 -5.31062 0
M  V30 9018 C 840.818 1.94413 -5.94941 0
M  V30 9019 H 841.051 0.159982 -2.96869 0
M  V30 9020 H 838.584 -0.0357593 -1.54359 0
M  V30 9021 H 840.542 2.65028 -3.13481 0
M  V30 9022 H 839.203 2.43253 -1.98713 0
M  V30 9023 H 838.396 2.51668 -4.36668 0
M  V30 9024 H 837.998 0.953664 -3.61637 0
M  V30 9025 H 840.29 2.89087 -6.12727 0
M  V30 9026 H 841.233 1.5787 -6.90277 0
M  V30 9027 H 841.641 2.09824 -5.24056 0
M  V30 9028 N 841.039 1.57585 0.0217189 0
M  V30 9029 C 842.316 1.80779 0.74687 0
M  V30 9030 C 842.696 0.851163 1.9318 0
M  V30 9031 O 842.044 -0.105039 2.28258 0
M  V30 9032 C 842.254 3.28696 1.17302 0
M  V30 9033 C 843.602 3.93871 1.58589 0
M  V30 9034 O 844.626 3.3289 1.2674 0
M  V30 9035 O 843.485 5.01254 2.1773 0
M  V30 9036 H 840.579 0.743666 0.361786 0
M  V30 9037 H 843.125 1.697 -0.00206785 0
M  V30 9038 H 841.897 3.89927 0.327453 0
M  V30 9039 H 841.52 3.44692 1.98174 0
M  V30 9040 N 842.517 -0.29412 1.54831 0
M  V30 9041 C 843.464 -1.36296 1.86258 0
M  V30 9042 C 844.434 -1.50061 0.712097 0
M  V30 9043 O 845.619 -1.64809 0.961381 0
M  V30 9044 C 842.759 -2.72187 2.12151 0
M  V30 9045 C 841.872 -2.66816 3.39755 0
M  V30 9046 C 841.007 -3.94747 3.55455 0
M  V30 9047 C 840.046 -3.838 4.76827 0
M  V30 9048 N 839.183 -5.03521 4.89296 0
M  V30 9049 H 844.023 -1.08796 2.7743 0
M  V30 9050 H 841.56 -0.526069 1.37371 0
M  V30 9051 H 843.518 -3.51225 2.25159 0
M  V30 9052 H 842.148 -2.97934 1.24237 0
M  V30 9053 H 841.2 -1.79605 3.3533 0
M  V30 9054 H 842.512 -2.5462 4.28917 0
M  V30 9055 H 841.666 -4.82223 3.68166 0
M  V30 9056 H 840.405 -4.09785 2.64438 0
M  V30 9057 H 839.41 -2.94708 4.64141 0
M  V30 9058 H 840.635 -3.70301 5.69258 0
M  V30 9059 H 838.581 -5.1901 4.01204 0
M  V30 9060 H 838.498 -4.93775 5.72471 0
M  V30 9061 H 839.766 -5.92629 5.06371 0
M  V30 9062 N 843.995 -1.47404 -0.557645 0
M  V30 9063 C 844.925 -1.62736 -1.67449 0
M  V30 9064 C 845.906 -0.476824 -1.6328 0
M  V30 9065 O 847.091 -0.706108 -1.80908 0
M  V30 9066 C 844.221 -1.641 -3.06086 0
M  V30 9067 C 843.175 -2.78377 -3.25101 0
M  V30 9068 C 842.501 -2.64812 -4.6452 0
M  V30 9069 C 843.801 -4.19971 -3.10518 0
M  V30 9070 H 845.495 -2.56232 -1.54873 0
M  V30 9071 H 843.041 -1.23312 -0.743649 0
M  V30 9072 H 844.994 -1.73417 -3.84063 0
M  V30 9073 H 843.718 -0.671652 -3.19619 0
M  V30 9074 H 842.377 -2.6857 -2.49531 0
M  V30 9075 H 842.025 -1.65906 -4.74852 0
M  V30 9076 H 841.725 -3.41477 -4.78191 0
M  V30 9077 H 843.249 -2.76057 -5.44633 0
M  V30 9078 H 844.663 -4.30757 -3.78313 0
M  V30 9079 H 843.06 -4.97419 -3.35699 0
M  V30 9080 H 844.13 -4.38369 -2.0727 0
M  V30 9081 N 845.473 0.80434 -1.35529 0
M  V30 9082 C 846.405 1.92445 -1.2449 0
M  V30 9083 C 847.418 1.61934 -0.167685 0
M  V30 9084 O 848.607 1.73461 -0.42115 0
M  V30 9085 C 845.707 3.26875 -0.894751 0
M  V30 9086 C 844.88 3.85275 -2.07079 0
M  V30 9087 C 843.939 4.98116 -1.69607 0
M  V30 9088 O 842.965 5.15424 -2.41509 0
M  V30 9089 N 844.167 5.77169 -0.621012 0
M  V30 9090 H 846.932 2.02441 -2.20993 0
M  V30 9091 H 844.493 0.981874 -1.28728 0
M  V30 9092 H 846.485 3.99837 -0.625511 0
M  V30 9093 H 845.055 3.12594 -0.0193306 0
M  V30 9094 H 844.275 3.0448 -2.5037 0
M  V30 9095 H 845.563 4.21024 -2.85685 0
M  V30 9096 H 844.961 5.65695 -0.0236679 0
M  V30 9097 H 843.518 6.50499 -0.411558 0
M  V30 9098 N 846.951 1.19563 1.02676 0
M  V30 9099 C 847.881 0.959024 2.12897 0
M  V30 9100 C 848.862 -0.108382 1.69754 0
M  V30 9101 O 850.047 0.0470698 1.94143 0
M  V30 9102 C 847.177 0.499211 3.43693 0
M  V30 9103 C 846.131 1.5087 4.00528 0
M  V30 9104 C 845.457 0.905884 5.2697 0
M  V30 9105 C 846.757 2.88954 4.3509 0
M  V30 9106 H 848.451 1.88084 2.32948 0
M  V30 9107 H 845.997 0.905731 1.11949 0
M  V30 9108 H 847.95 0.320965 4.20176 0
M  V30 9109 H 846.674 -0.458205 3.2337 0
M  V30 9110 H 845.333 1.67413 3.26142 0
M  V30 9111 H 844.981 -0.0591506 5.02965 0
M  V30 9112 H 844.681 1.58 5.65959 0
M  V30 9113 H 846.205 0.73848 6.06118 0
M  V30 9114 H 847.619 2.75981 5.02501 0
M  V30 9115 H 846.016 3.53177 4.85166 0
M  V30 9116 H 847.086 3.41447 3.44299 0
M  V30 9117 N 848.429 -1.21819 0.999893 0
M  V30 9118 C 849.376 -2.24003 0.556005 0
M  V30 9119 C 850.346 -1.60825 -0.415287 0
M  V30 9120 O 851.531 -1.88123 -0.318481 0
M  V30 9121 C 848.671 -3.44904 -0.116289 0
M  V30 9122 C 847.784 -4.22573 0.897574 0
M  V30 9123 C 846.919 -5.30831 0.198073 0
M  V30 9124 C 845.958 -6.00225 1.19983 0
M  V30 9125 N 845.095 -7.00111 0.528157 0
M  V30 9126 H 849.935 -2.61334 1.43208 0
M  V30 9127 H 847.472 -1.28431 0.717205 0
M  V30 9128 H 849.43 -4.13908 -0.523055 0
M  V30 9129 H 848.06 -3.08315 -0.956108 0
M  V30 9130 H 847.112 -3.52797 1.42262 0
M  V30 9131 H 848.424 -4.70363 1.66013 0
M  V30 9132 H 847.578 -6.06121 -0.265065 0
M  V30 9133 H 846.317 -4.84033 -0.596924 0
M  V30 9134 H 845.322 -5.23711 1.67353 0
M  V30 9135 H 846.547 -6.4911 1.99582 0
M  V30 9136 H 844.493 -6.55534 -0.247276 0
M  V30 9137 H 844.41 -7.45943 1.22904 0
M  V30 9138 H 845.678 -7.7945 0.0880543 0
M  V30 9139 N 849.908 -0.773975 -1.37286 0
M  V30 9140 C 851.156 -0.338636 -1.99243 0
M  V30 9141 C 851.477 1.08919 -1.61746 0
M  V30 9142 O 850.747 1.74822 -0.88397 0
M  V30 9143 H 849.327 -0.12222 -0.736934 0
M  V30 9144 H 851.989 -0.992595 -1.67731 0
M  V30 9145 H 851.085 -0.418055 -3.09287 0
M  V30 9146 N 851.386 1.48609 -0.524698 0
M  V30 9147 C 852.319 2.26374 0.288109 0
M  V30 9148 C 853.297 1.31997 0.949509 0
M  V30 9149 O 854.481 1.61329 0.974946 0
M  V30 9150 C 851.608 3.08065 1.4076 0
M  V30 9151 C 850.654 4.17777 0.858152 0
M  V30 9152 S 851.487 5.3482 -0.269827 0
M  V30 9153 C 852.643 6.2007 0.852266 0
M  V30 9154 H 852.876 2.94965 -0.371865 0
M  V30 9155 H 850.409 1.51248 -0.31039 0
M  V30 9156 H 852.367 3.5571 2.04892 0
M  V30 9157 H 851.028 2.38898 2.03928 0
M  V30 9158 H 850.221 4.74542 1.69783 0
M  V30 9159 H 849.823 3.72846 0.293627 0
M  V30 9160 H 852.115 6.54451 1.75213 0
M  V30 9161 H 853.058 7.07364 0.322717 0
M  V30 9162 H 853.466 5.53068 1.13029 0
M  V30 9163 N 852.864 0.259585 1.55447 0
M  V30 9164 C 854.089 -0.368317 2.04103 0
M  V30 9165 C 854.514 -1.49827 1.13725 0
M  V30 9166 O 853.872 -1.80814 0.132705 0
M  V30 9167 C 853.92 -0.841506 3.50644 0
M  V30 9168 O 853.024 -1.95008 3.63381 0
M  V30 9169 H 852.365 -0.0785227 0.659341 0
M  V30 9170 H 854.895 0.389349 2.00861 0
M  V30 9171 H 854.905 -1.14138 3.9171 0
M  V30 9172 H 853.58 -0.0147001 4.15897 0
M  V30 9173 H 852.157 -1.65393 3.34215 0
M  V30 9174 N 854.342 -1.57594 -0.0133615 0
M  V30 9175 C 855.572 -1.93969 -0.711295 0
M  V30 9176 C 855.98 -0.859084 -1.68572 0
M  V30 9177 O 855.323 0.171842 -1.82894 0
M  V30 9178 C 855.385 -3.2625 -1.51001 0
M  V30 9179 C 855.049 -4.51628 -0.698645 0
M  V30 9180 C 856.046 -5.19899 0.00791185 0
M  V30 9181 C 853.731 -4.98095 -0.648553 0
M  V30 9182 C 855.725 -6.32928 0.753691 0
M  V30 9183 C 853.412 -6.11017 0.10096 0
M  V30 9184 C 854.41 -6.78289 0.800828 0
M  V30 9185 O 854.098 -7.89048 1.53814 0
M  V30 9186 H 853.83 -0.6445 -0.203951 0
M  V30 9187 H 856.384 -2.05378 0.0298267 0
M  V30 9188 H 854.614 -3.11211 -2.29531 0
M  V30 9189 H 856.303 -3.47835 -2.09202 0
M  V30 9190 H 857.069 -4.84995 -0.0217192 0
M  V30 9191 H 852.948 -4.45568 -1.18282 0
M  V30 9192 H 856.492 -6.85371 1.3005 0
M  V30 9193 H 852.389 -6.45364 0.132459 0
M  V30 9194 H 853.157 -8.05492 1.45345 0
M  V30 9195 N 855.82 0.285905 -1.54985 0
M  V30 9196 C 857.045 1.04207 -1.7932 0
M  V30 9197 C 857.47 1.79622 -0.558343 0
M  V30 9198 O 856.828 1.74506 0.491661 0
M  V30 9199 C 856.876 1.98648 -3.0095 0
M  V30 9200 O 855.98 3.07207 -2.75132 0
M  V30 9201 H 855.321 0.298596 -0.593074 0
M  V30 9202 H 857.851 0.318736 -2.02102 0
M  V30 9203 H 857.861 2.4084 -3.29333 0
M  V30 9204 H 856.536 1.43167 -3.90482 0
M  V30 9205 H 855.113 2.69423 -2.57809 0
M  V30 9206 N 857.298 1.47698 0.54982 0
M  V30 9207 C 858.231 1.55288 1.67215 0
M  V30 9208 C 859.209 0.404533 1.57487 0
M  V30 9209 O 860.393 0.613372 1.78241 0
M  V30 9210 C 857.52 1.46233 3.05505 0
M  V30 9211 C 856.566 2.65662 3.33655 0
M  V30 9212 S 857.399 4.278 3.22098 0
M  V30 9213 C 858.555 4.21311 4.62869 0
M  V30 9214 H 858.788 2.50238 1.60524 0
M  V30 9215 H 856.321 1.35987 0.731227 0
M  V30 9216 H 858.279 1.41696 3.85269 0
M  V30 9217 H 856.94 0.526543 3.09655 0
M  V30 9218 H 856.133 2.55411 4.3449 0
M  V30 9219 H 855.735 2.67359 2.61524 0
M  V30 9220 H 858.027 3.90021 5.53977 0
M  V30 9221 H 858.97 5.22257 4.78177 0
M  V30 9222 H 859.378 3.52063 4.41262 0
M  V30 9223 N 858.776 -0.797141 1.35954 0
M  V30 9224 C 860.016 -1.56795 1.31128 0
M  V30 9225 C 860.38 -1.91683 -0.110364 0
M  V30 9226 O 861.581 -2.67305 -0.283093 0
M  V30 9227 C 859.852 -2.81577 2.20111 0
M  V30 9228 S 861.411 -3.71895 2.32894 0
M  V30 9229 H 858.229 -0.53711 0.465869 0
M  V30 9230 H 860.831 -0.939522 1.71445 0
M  V30 9231 H 859.535 -2.53986 3.22365 0
M  V30 9232 H 859.066 -3.49399 1.80786 0
M  V30 9233 H 861.081 -4.72322 1.52073 0
M  V30 9234 N 860.254 -1.20106 -1.0204 0
M  V30 9235 C 861.482 -1.0344 -1.79186 0
M  V30 9236 C 861.897 0.416542 -1.84148 0
M  V30 9237 O 861.254 1.28925 -1.29168 0
M  V30 9238 C 861.305 -1.60663 -3.23836 0
M  V30 9239 O 861.026 -3.00079 -3.19193 0
M  V30 9240 C 862.527 -1.48897 -4.17546 0
M  V30 9241 H 859.747 -0.364093 -0.563629 0
M  V30 9242 H 862.291 -1.5911 -1.28469 0
M  V30 9243 H 860.446 -1.09122 -3.71714 0
M  V30 9244 H 860.86 -3.27162 -4.09958 0
M  V30 9245 H 862.334 -1.93703 -5.16898 0
M  V30 9246 H 862.811 -0.440843 -4.36982 0
M  V30 9247 H 863.417 -1.9961 -3.75547 0
M  V30 9248 N 861.732 1.21287 -1.00634 0
M  V30 9249 C 862.98 1.90013 -0.688438 0
M  V30 9250 C 863.301 1.78573 0.783365 0
M  V30 9251 O 862.571 1.1815 1.56261 0
M  V30 9252 H 861.151 0.703336 -0.251648 0
M  V30 9253 H 863.813 1.47346 -1.27574 0
M  V30 9254 H 862.909 2.96879 -0.962781 0
M  V30 9255 N 863.21 0.781244 1.36873 0
M  V30 9256 C 864.157 0.172146 2.30157 0
M  V30 9257 C 865.127 -0.679328 1.51573 0
M  V30 9258 O 866.312 -0.629713 1.80109 0
M  V30 9259 C 863.452 -0.693534 3.38059 0
M  V30 9260 C 862.565 0.175586 4.31643 0
M  V30 9261 C 861.7 -0.695695 5.26625 0
M  V30 9262 C 860.739 0.17538 6.11849 0
M  V30 9263 N 859.876 -0.654416 6.99043 0
M  V30 9264 H 864.716 0.973133 2.81663 0
M  V30 9265 H 862.253 0.491469 1.38647 0
M  V30 9266 H 864.211 -1.21035 3.99257 0
M  V30 9267 H 862.841 -1.46003 2.87894 0
M  V30 9268 H 861.893 0.810295 3.7167 0
M  V30 9269 H 863.205 0.847107 4.91554 0
M  V30 9270 H 862.359 -1.27863 5.93073 0
M  V30 9271 H 861.098 -1.40087 4.67148 0
M  V30 9272 H 860.103 0.77078 5.4437 0
M  V30 9273 H 861.328 0.87803 6.734 0
M  V30 9274 H 859.274 -1.34403 6.42084 0
M  V30 9275 H 859.191 -0.0403998 7.55989 0
M  V30 9276 H 860.459 -1.22144 7.69871 0
M  V30 9277 N 864.689 -1.48329 0.532571 0
M  V30 9278 C 865.936 -2.025 -0.000582356 0
M  V30 9279 C 866.264 -1.40942 -1.34036 0
M  V30 9280 O 865.519 -0.545545 -1.87942 0
M  V30 9281 C 865.818 -3.57 -0.168943 0
M  V30 9282 C 865.484 -4.37357 1.0968 0
M  V30 9283 C 864.146 -4.59033 1.44369 0
M  V30 9284 C 866.498 -4.83882 1.93669 0
M  V30 9285 C 863.826 -5.24481 2.62939 0
M  V30 9286 C 866.178 -5.50637 3.11419 0
M  V30 9287 C 864.842 -5.70551 3.46451 0
M  V30 9288 H 864.112 -0.741 -0.000213099 0
M  V30 9289 H 866.759 -1.78282 0.699117 0
M  V30 9290 H 865.064 -3.80072 -0.951429 0
M  V30 9291 H 866.761 -3.9654 -0.596422 0
M  V30 9292 H 863.351 -4.20748 0.816655 0
M  V30 9293 H 867.535 -4.66936 1.6818 0
M  V30 9294 H 862.791 -5.38096 2.9028 0
M  V30 9295 H 866.965 -5.85655 3.76803 0
M  V30 9296 H 864.592 -6.21037 4.38425 0
M  V30 9297 N 866.167 -0.267825 -1.55308 0
M  V30 9298 C 867.114 0.6228 -2.22238 0
M  V30 9299 C 868.084 1.15536 -1.19334 0
M  V30 9300 O 869.269 1.206 -1.47852 0
M  V30 9301 C 866.409 1.80447 -2.94164 0
M  V30 9302 C 865.522 1.30646 -4.11771 0
M  V30 9303 C 864.657 2.44935 -4.7136 0
M  V30 9304 C 863.696 1.92099 -5.81175 0
M  V30 9305 N 862.833 2.99834 -6.34857 0
M  V30 9306 H 867.673 0.0453874 -2.97965 0
M  V30 9307 H 865.21 0.0106371 -1.47096 0
M  V30 9308 H 867.168 2.49896 -3.34078 0
M  V30 9309 H 865.798 2.35403 -2.20874 0
M  V30 9310 H 864.85 0.505314 -3.77029 0
M  V30 9311 H 866.162 0.879409 -4.90987 0
M  V30 9312 H 865.316 3.2239 -5.13955 0
M  V30 9313 H 864.055 2.90951 -3.91406 0
M  V30 9314 H 863.06 1.13122 -5.38037 0
M  V30 9315 H 864.285 1.47027 -6.62993 0
M  V30 9316 H 862.231 3.45246 -5.578 0
M  V30 9317 H 862.148 2.61524 -7.09324 0
M  V30 9318 H 863.416 3.77286 -6.82111 0
M  V30 9319 N 867.645 1.57599 0.00500368 0
M  V30 9320 C 868.891 1.90631 0.691919 0
M  V30 9321 C 869.224 0.868443 1.737 0
M  V30 9322 O 868.499 -0.113482 1.94169 0
M  V30 9323 C 868.782 3.34255 1.33961 0
M  V30 9324 C 868.635 4.48755 0.306413 0
M  V30 9325 C 869.954 3.77211 2.26715 0
M  V30 9326 H 867.073 0.693279 0.250066 0
M  V30 9327 H 869.715 1.89946 -0.0452634 0
M  V30 9328 H 867.865 3.3497 1.96793 0
M  V30 9329 H 869.537 4.60176 -0.321841 0
M  V30 9330 H 867.78 4.32203 -0.371852 0
M  V30 9331 H 868.451 5.46193 0.798554 0
M  V30 9332 H 870.927 3.78017 1.73904 0
M  V30 9333 H 869.803 4.78466 2.69002 0
M  V30 9334 H 870.064 3.10801 3.14413 0
M  V30 9335 N 869.123 -0.277682 1.55134 0
M  V30 9336 C 870.369 -1.0114 1.7578 0
M  V30 9337 C 870.702 -1.86109 0.554719 0
M  V30 9338 O 869.977 -1.89275 -0.447813 0
M  V30 9339 C 870.26 -1.89789 3.06027 0
M  V30 9340 C 870.113 -1.07844 4.3668 0
M  V30 9341 C 871.432 -2.88577 3.32282 0
M  V30 9342 H 868.551 -0.366277 0.639539 0
M  V30 9343 H 871.193 -0.284155 1.87863 0
M  V30 9344 H 869.343 -2.51796 2.95856 0
M  V30 9345 H 871.015 -0.479432 4.58802 0
M  V30 9346 H 869.258 -0.381764 4.32117 0
M  V30 9347 H 869.929 -1.73179 5.24131 0
M  V30 9348 H 872.405 -2.36702 3.42215 0
M  V30 9349 H 871.281 -3.47749 4.2469 0
M  V30 9350 H 871.542 -3.63458 2.51696 0
M  V30 9351 N 870.601 -1.47988 -0.541979 0
M  V30 9352 C 871.548 -1.61615 -1.6477 0
M  V30 9353 C 872.518 -0.458602 -1.59644 0
M  V30 9354 O 873.703 -0.680585 -1.78249 0
M  V30 9355 C 870.843 -1.65066 -3.03063 0
M  V30 9356 C 869.956 -2.91845 -3.18513 0
M  V30 9357 C 869.091 -2.86534 -4.47294 0
M  V30 9358 C 868.13 -4.0807 -4.5623 0
M  V30 9359 N 867.267 -4.00905 -5.76385 0
M  V30 9360 H 872.107 -2.56046 -1.52461 0
M  V30 9361 H 869.644 -1.26989 -0.742449 0
M  V30 9362 H 871.602 -1.65049 -3.83164 0
M  V30 9363 H 870.232 -0.74136 -3.14171 0
M  V30 9364 H 869.284 -3.01661 -2.31743 0
M  V30 9365 H 870.596 -3.81804 -3.20978 0
M  V30 9366 H 869.75 -2.84851 -5.35672 0
M  V30 9367 H 868.489 -1.94283 -4.47332 0
M  V30 9368 H 867.494 -4.10041 -3.66261 0
M  V30 9369 H 868.719 -5.01465 -4.5794 0
M  V30 9370 H 866.665 -3.11467 -5.77342 0
M  V30 9371 H 866.582 -4.84557 -5.80293 0
M  V30 9372 H 867.85 -4.03263 -6.67083 0
M  V30 9373 N 872.079 0.78992 -1.36375 0
M  V30 9374 C 872.989 1.93386 -1.32812 0
M  V30 9375 C 874.005 1.72468 -0.230377 0
M  V30 9376 O 875.181 1.96014 -0.462657 0
M  V30 9377 C 872.246 3.2824 -1.11621 0
M  V30 9378 C 871.307 3.61939 -2.30865 0
M  V30 9379 C 870.54 4.90359 -2.10675 0
M  V30 9380 O 870.763 5.6005 -1.08168 0
M  V30 9381 O 869.697 5.22702 -2.9844 0
M  V30 9382 H 873.523 1.99342 -2.29121 0
M  V30 9383 H 871.108 0.9301 -1.16917 0
M  V30 9384 H 872.99 4.08939 -1.01719 0
M  V30 9385 H 871.665 3.23178 -0.183732 0
M  V30 9386 H 870.572 2.81549 -2.46335 0
M  V30 9387 H 871.905 3.71725 -3.22617 0
M  V30 9388 N 873.557 1.20646 1.01402 0
M  V30 9389 C 874.806 1.01242 1.7445 0
M  V30 9390 C 875.119 -0.455732 1.90217 0
M  V30 9391 O 876.325 -0.768951 2.60383 0
M  V30 9392 C 874.781 1.76275 3.13776 0
M  V30 9393 C 874.389 3.27201 3.06013 0
M  V30 9394 C 876.133 1.65248 3.91016 0
M  V30 9395 C 874.04 3.9476 4.40362 0
M  V30 9396 H 872.97 0.375202 0.654018 0
M  V30 9397 H 875.621 1.44292 1.13367 0
M  V30 9398 H 874.003 1.26013 3.75415 0
M  V30 9399 H 875.177 3.84695 2.53665 0
M  V30 9400 H 873.492 3.38669 2.42265 0
M  V30 9401 H 876.089 2.13061 4.90417 0
M  V30 9402 H 876.432 0.609128 4.1182 0
M  V30 9403 H 876.965 2.12937 3.3601 0
M  V30 9404 H 873.704 4.99258 4.24761 0
M  V30 9405 H 873.224 3.42054 4.92706 0
M  V30 9406 H 874.903 3.99159 5.09196 0
M  V30 9407 N 875.035 -1.20752 1.01276 0
M  V30 9408 C 875.998 -2.2162 0.584583 0
M  V30 9409 C 876.998 -1.57094 -0.343215 0
M  V30 9410 O 878.188 -1.73696 -0.132433 0
M  V30 9411 C 875.32 -3.40583 -0.146872 0
M  V30 9412 H 876.513 -2.61015 1.47686 0
M  V30 9413 H 874.066 -1.34148 0.802123 0
M  V30 9414 H 874.801 -3.06686 -1.05424 0
M  V30 9415 H 874.586 -3.88642 0.51958 0
M  V30 9416 H 876.076 -4.15339 -0.433924 0
M  V30 9417 N 876.513 -0.788492 -1.36457 0
M  V30 9418 C 877.423 -0.187385 -2.3385 0
M  V30 9419 C 878.439 0.659984 -1.60998 0
M  V30 9420 O 879.615 0.575986 -1.92988 0
M  V30 9421 C 876.68 0.668525 -3.40194 0
M  V30 9422 C 875.741 -0.197234 -4.28847 0
M  V30 9423 C 874.974 0.61792 -5.30111 0
M  V30 9424 O 875.197 1.85396 -5.3943 0
M  V30 9425 O 874.131 0.0183016 -6.01897 0
M  V30 9426 H 877.957 -0.992617 -2.87021 0
M  V30 9427 H 875.542 -0.549934 -1.3891 0
M  V30 9428 H 877.424 1.15663 -4.05216 0
M  V30 9429 H 876.099 1.45166 -2.89324 0
M  V30 9430 H 875.006 -0.73207 -3.66867 0
M  V30 9431 H 876.339 -0.943863 -4.83065 0
M  V30 9432 N 877.991 1.48044 -0.54043 0
M  V30 9433 C 879.219 2.06895 -0.0145153 0
M  V30 9434 C 879.634 1.39552 1.27164 0
M  V30 9435 O 878.991 0.486454 1.75897 0
M  V30 9436 C 879.042 3.60934 0.202278 0
M  V30 9437 O 878.763 4.25749 -1.03293 0
M  V30 9438 C 880.264 4.36607 0.767387 0
M  V30 9439 H 877.484 0.66991 -0.0382368 0
M  V30 9440 H 880.028 1.90288 -0.749057 0
M  V30 9441 H 878.183 3.77111 0.886897 0
M  V30 9442 H 878.597 5.18048 -0.820167 0
M  V30 9443 H 880.071 5.45126 0.86845 0
M  V30 9444 H 880.548 4.01745 1.77477 0
M  V30 9445 H 881.154 4.25133 0.119002 0
M  V30 9446 N 879.47 0.276058 1.55163 0
M  V30 9447 C 880.402 -0.644254 2.19959 0
M  V30 9448 C 881.415 -1.11675 1.18459 0
M  V30 9449 O 882.604 -1.0385 1.45181 0
M  V30 9450 C 879.704 -1.89093 2.81242 0
M  V30 9451 C 878.877 -1.56509 4.08441 0
M  V30 9452 C 877.936 -2.66433 4.53762 0
M  V30 9453 O 876.962 -2.32579 5.19515 0
M  V30 9454 N 878.164 -3.96509 4.23982 0
M  V30 9455 H 880.929 -0.0896808 2.99566 0
M  V30 9456 H 878.49 0.0971981 1.61608 0
M  V30 9457 H 880.482 -2.61929 3.08505 0
M  V30 9458 H 879.052 -2.35453 2.05622 0
M  V30 9459 H 878.272 -0.670522 3.88455 0
M  V30 9460 H 879.56 -1.32242 4.91314 0
M  V30 9461 H 878.958 -4.26834 3.71254 0
M  V30 9462 H 877.515 -4.6572 4.56014 0
M  V30 9463 N 880.948 -1.576 0.00335426 0
M  V30 9464 C 881.898 -2.05116 -0.995562 0
M  V30 9465 C 882.882 -0.946535 -1.30113 0
M  V30 9466 O 884.074 -1.21028 -1.29156 0
M  V30 9467 C 881.203 -2.56077 -2.28648 0
M  V30 9468 C 880.289 -3.73422 -2.0104 0
M  V30 9469 N 880.68 -4.84986 -1.43603 0
M  V30 9470 C 878.978 -3.81416 -2.31166 0
M  V30 9471 C 879.679 -5.66399 -1.32542 0
M  V30 9472 N 878.655 -5.12505 -1.81218 0
M  V30 9473 H 882.457 -2.88783 -0.546025 0
M  V30 9474 H 879.971 -1.61135 -0.202265 0
M  V30 9475 H 881.968 -2.88395 -3.01055 0
M  V30 9476 H 880.628 -1.73829 -2.74251 0
M  V30 9477 H 881.639 -5.05768 -1.11439 0
M  V30 9478 H 878.316 -3.1003 -2.7962 0
M  V30 9479 H 879.706 -6.66066 -0.88348 0
M  V30 9480 N 882.426 0.269451 -1.5528 0
M  V30 9481 C 883.674 0.998604 -1.75705 0
M  V30 9482 C 883.995 1.86691 -0.563175 0
M  V30 9483 O 883.265 1.91305 0.421811 0
M  V30 9484 H 881.845 0.371698 -0.647958 0
M  V30 9485 H 884.507 0.292826 -1.92688 0
M  V30 9486 H 883.603 1.63348 -2.6594 0
M  V30 9487 N 883.904 1.48273 0.534124 0
M  V30 9488 C 885.132 1.59734 1.31501 0
M  V30 9489 C 885.547 0.256047 1.87056 0
M  V30 9490 O 884.904 -0.754086 1.66192 0
M  V30 9491 C 884.955 2.64072 2.46877 0
M  V30 9492 O 884.676 3.92995 1.93613 0
M  V30 9493 C 886.177 2.85933 3.38758 0
M  V30 9494 H 883.397 0.538703 0.40005 0
M  V30 9495 H 885.941 1.9407 0.644762 0
M  V30 9496 H 884.096 2.32606 3.09795 0
M  V30 9497 H 884.51 4.50203 2.69106 0
M  V30 9498 H 885.984 3.62749 4.16073 0
M  V30 9499 H 886.461 1.94603 3.93734 0
M  V30 9500 H 887.067 3.18687 2.81636 0
M  V30 9501 N 885.382 -0.782676 1.36792 0
M  V30 9502 C 886.631 -1.53605 1.30723 0
M  V30 9503 C 886.944 -1.95294 -0.109296 0
M  V30 9504 O 888.15 -2.69921 -0.292398 0
M  V30 9505 C 886.606 -2.77321 2.29393 0
M  V30 9506 C 886.214 -2.42774 3.76517 0
M  V30 9507 C 887.958 -3.55289 2.32314 0
M  V30 9508 C 885.865 -3.62926 4.66947 0
M  V30 9509 H 884.795 -0.576646 0.485794 0
M  V30 9510 H 887.446 -0.858255 1.62192 0
M  V30 9511 H 885.828 -3.46934 1.90927 0
M  V30 9512 H 887.002 -1.81014 4.23758 0
M  V30 9513 H 885.317 -1.78002 3.76436 0
M  V30 9514 H 887.914 -4.44573 2.97083 0
M  V30 9515 H 888.257 -3.94361 1.3336 0
M  V30 9516 H 888.79 -2.92662 2.69432 0
M  V30 9517 H 885.529 -3.28944 5.66989 0
M  V30 9518 H 885.049 -4.23828 4.24418 0
M  V30 9519 H 886.728 -4.29873 4.83548 0
M  V30 9520 N 886.86 -1.21182 -1.00761 0
M  V30 9521 C 888.106 -1.02898 -1.74756 0
M  V30 9522 C 888.439 0.436774 -1.89225 0
M  V30 9523 O 887.714 1.32415 -1.42466 0
M  V30 9524 C 887.997 -1.72372 -3.16164 0
M  V30 9525 C 887.85 -3.2645 -3.09435 0
M  V30 9526 C 889.169 -1.46415 -4.15031 0
M  V30 9527 H 886.288 -0.375214 -0.634337 0
M  V30 9528 H 888.93 -1.49321 -1.17487 0
M  V30 9529 H 887.08 -1.32906 -3.65059 0
M  V30 9530 H 888.752 -3.75269 -2.68274 0
M  V30 9531 H 886.995 -3.56889 -2.46603 0
M  V30 9532 H 887.666 -3.70226 -4.09435 0
M  V30 9533 H 890.142 -1.80671 -3.7483 0
M  V30 9534 H 889.018 -1.97544 -5.12121 0
M  V30 9535 H 889.279 -0.39361 -4.40344 0
M  V30 9536 N 888.338 1.20213 -1.01915 0
M  V30 9537 C 889.587 1.88968 -0.705261 0
M  V30 9538 C 889.9 1.79869 0.768531 0
M  V30 9539 O 891.106 2.43783 1.19508 0
M  V30 9540 C 889.562 3.38911 -1.21109 0
M  V30 9541 C 889.17 3.5659 -2.71197 0
M  V30 9542 C 890.914 4.13204 -0.97275 0
M  V30 9543 C 888.821 5.00372 -3.15248 0
M  V30 9544 H 887.751 0.707715 -0.260107 0
M  V30 9545 H 890.402 1.35977 -1.23217 0
M  V30 9546 H 888.784 3.9124 -0.612152 0
M  V30 9547 H 889.958 3.14635 -3.36662 0
M  V30 9548 H 888.273 2.95671 -2.93202 0
M  V30 9549 H 890.87 5.19221 -1.27726 0
M  V30 9550 H 891.213 4.16201 0.09072 0
M  V30 9551 H 891.746 3.66983 -1.5352 0
M  V30 9552 H 888.485 5.02532 -4.20882 0
M  V30 9553 H 888.005 5.43127 -2.54505 0
M  V30 9554 H 889.684 5.68969 -3.08032 0
M  V30 9555 N 889.816 0.795718 1.36037 0
M  V30 9556 C 891.232 0.478145 1.52269 0
M  V30 9557 C 891.432 -1.0025 1.74792 0
M  V30 9558 O 890.488 -1.78783 1.78305 0
M  V30 9559 C 891.801 1.31406 2.70468 0
M  V30 9560 C 893.349 1.3084 2.84341 0
M  V30 9561 C 893.824 2.12819 4.05551 0
M  V30 9562 N 895.315 2.10298 4.12709 0
M  V30 9563 C 896.05 2.70495 5.05589 0
M  V30 9564 N 895.546 3.39576 6.03871 0
M  V30 9565 N 897.339 2.60195 4.98252 0
M  V30 9566 H 889.49 1.75477 1.19673 0
M  V30 9567 H 891.753 0.74627 0.584624 0
M  V30 9568 H 891.459 2.36435 2.60368 0
M  V30 9569 H 891.333 0.959726 3.64786 0
M  V30 9570 H 893.72 0.266003 2.93899 0
M  V30 9571 H 893.801 1.70254 1.90912 0
M  V30 9572 H 893.445 3.17093 3.96755 0
M  V30 9573 H 893.375 1.70772 4.98141 0
M  V30 9574 H 895.866 1.60026 3.42345 0
M  V30 9575 H 896.179 3.82823 6.71317 0
M  V30 9576 H 894.524 3.43679 6.04077 0
M  V30 9577 H 897.715 2.05823 4.20422 0
M  V30 9578 H 897.888 3.074 5.70447 0
M  V30 9579 N 891.294 -1.47756 0.548274 0
M  V30 9580 C 892.54 -2.02789 0.0209265 0
M  V30 9581 C 892.873 -1.42268 -1.32187 0
M  V30 9582 O 892.148 -0.575001 -1.85806 0
M  V30 9583 C 892.431 -3.60007 -0.0816674 0
M  V30 9584 C 892.284 -4.30977 1.28759 0
M  V30 9585 C 893.603 -4.32777 -0.799515 0
M  V30 9586 H 890.722 -0.736944 0.00907884 0
M  V30 9587 H 893.364 -1.76282 0.708839 0
M  V30 9588 H 891.514 -3.82722 -0.667537 0
M  V30 9589 H 893.186 -4.19629 1.91597 0
M  V30 9590 H 891.429 -3.9168 1.86466 0
M  V30 9591 H 892.1 -5.39488 1.16861 0
M  V30 9592 H 894.576 -4.15001 -0.30216 0
M  V30 9593 H 893.452 -5.42431 -0.840239 0
M  V30 9594 H 893.713 -4.01358 -1.85375 0
M  V30 9595 N 892.772 -0.284283 -1.55015 0
M  V30 9596 C 893.704 0.63258 -2.20298 0
M  V30 9597 C 894.717 1.11045 -1.1905 0
M  V30 9598 O 895.906 1.03078 -1.4573 0
M  V30 9599 C 893.006 1.87599 -2.82241 0
M  V30 9600 C 892.179 1.5434 -4.09265 0
M  V30 9601 C 891.238 2.64023 -4.55169 0
M  V30 9602 O 890.264 2.29821 -5.20741 0
M  V30 9603 N 891.466 3.94255 -4.26079 0
M  V30 9604 H 894.231 0.0737928 -2.99609 0
M  V30 9605 H 891.792 -0.105767 -1.61554 0
M  V30 9606 H 893.784 2.60289 -3.0989 0
M  V30 9607 H 892.354 2.3436 -2.06868 0
M  V30 9608 H 891.574 0.649912 -3.88806 0
M  V30 9609 H 892.862 1.29634 -4.92009 0
M  V30 9610 H 892.26 4.24859 -3.73512 0
M  V30 9611 H 890.817 4.63295 -4.58477 0
M  V30 9612 N 894.251 1.57596 -0.0117121 0
M  V30 9613 C 895.481 1.95077 0.680346 0
M  V30 9614 C 895.889 0.885793 1.67184 0
M  V30 9615 O 895.232 -0.142723 1.83145 0
M  V30 9616 C 895.294 3.28611 1.45791 0
M  V30 9617 C 894.958 4.52682 0.626706 0
M  V30 9618 C 895.955 5.19821 -0.0906223 0
M  V30 9619 C 893.64 4.99064 0.569229 0
M  V30 9620 C 895.634 6.31649 -0.854289 0
M  V30 9621 C 893.321 6.10779 -0.198155 0
M  V30 9622 C 894.319 6.76929 -0.908636 0
M  V30 9623 O 894.007 7.86501 -1.66348 0
M  V30 9624 H 893.739 0.647663 0.193672 0
M  V30 9625 H 896.293 2.05305 -0.0624969 0
M  V30 9626 H 894.523 3.14824 2.2455 0
M  V30 9627 H 896.212 3.51119 2.03642 0
M  V30 9628 H 896.978 4.84968 -0.0554421 0
M  V30 9629 H 892.857 4.47393 1.11178 0
M  V30 9630 H 896.401 6.83215 -1.40937 0
M  V30 9631 H 892.298 6.45072 -0.235114 0
M  V30 9632 H 893.066 8.03078 -1.58141 0
M  V30 9633 N 895.729 -0.261212 1.5542 0
M  V30 9634 C 896.639 -1.34493 1.92221 0
M  V30 9635 C 897.655 -1.53421 0.82086 0
M  V30 9636 O 898.831 -1.6732 1.12099 0
M  V30 9637 C 895.896 -2.68209 2.19692 0
M  V30 9638 C 894.957 -2.57927 3.43179 0
M  V30 9639 C 894.19 -3.85266 3.69331 0
M  V30 9640 O 894.413 -4.86493 2.97793 0
M  V30 9641 O 893.347 -3.8476 4.62865 0
M  V30 9642 H 897.173 -1.06278 2.84497 0
M  V30 9643 H 894.758 -0.460752 1.42118 0
M  V30 9644 H 896.64 -3.47252 2.38734 0
M  V30 9645 H 895.315 -2.96186 1.30597 0
M  V30 9646 H 894.222 -1.77219 3.2946 0
M  V30 9647 H 895.555 -2.34898 4.32532 0
M  V30 9648 N 897.207 -1.48554 -0.526253 0
M  V30 9649 C 898.455 -1.56452 -1.27935 0
M  V30 9650 C 898.776 -0.24184 -1.93495 0
M  V30 9651 O 898.046 0.736917 -1.81511 0
M  V30 9652 H 896.626 -0.576379 -0.47518 0
M  V30 9653 H 899.288 -1.85039 -0.612083 0
M  V30 9654 H 898.384 -2.34751 -2.05666 0
M  V30 9655 N 898.685 0.775411 -1.37205 0
M  V30 9656 C 899.962 1.5229 -1.22748 0
M  V30 9657 C 900.342 2.10327 0.180487 0
M  V30 9658 O 899.69 1.95206 1.18772 0
M  V30 9659 C 899.9 2.60671 -2.3206 0
M  V30 9660 C 901.248 3.28173 -2.6942 0
M  V30 9661 O 902.272 2.70963 -2.31208 0
M  V30 9662 O 901.131 4.31598 -3.3524 0
M  V30 9663 H 898.225 0.674326 -0.478762 0
M  V30 9664 H 900.771 0.812691 -1.48975 0
M  V30 9665 H 899.543 2.1588 -3.26361 0
M  V30 9666 H 899.166 3.39296 -2.07277 0
M  V30 9667 N 900.163 1.21714 1.00117 0
M  V30 9668 C 901.411 1.03465 1.73607 0
M  V30 9669 C 901.732 -0.432295 1.90148 0
M  V30 9670 O 901.002 -1.31157 1.45515 0
M  V30 9671 H 899.582 0.379857 0.643209 0
M  V30 9672 H 902.244 1.53088 1.20624 0
M  V30 9673 H 901.34 1.50574 2.73375 0
M  V30 9674 N 901.641 -1.19671 1.02551 0
M  V30 9675 C 902.866 -1.93774 0.739363 0
M  V30 9676 C 903.291 -1.74787 -0.695064 0
M  V30 9677 O 902.649 -1.04796 -1.47944 0
M  V30 9678 C 902.697 -3.43684 1.09149 0
M  V30 9679 O 901.801 -4.11874 0.208213 0
M  V30 9680 H 901.142 -0.605064 0.273484 0
M  V30 9681 H 903.672 -1.51846 1.37128 0
M  V30 9682 H 903.682 -3.94339 1.04695 0
M  V30 9683 H 902.357 -3.56826 2.13654 0
M  V30 9684 H 900.934 -3.716 0.311045 0
M  V30 9685 N 903.119 -0.802921 -1.35613 0
M  V30 9686 C 904.53 -0.443004 -1.81368 0
M  V30 9687 C 904.881 1.03459 -1.66706 0
M  V30 9688 O 904.006 1.80372 -1.19561 0
M  V30 9689 C 904.601 -0.797324 -3.29284 0
M  V30 9690 C 903.16 -0.490055 -3.73196 0
M  V30 9691 C 902.307 -1.02487 -2.57666 0
M  V30 9692 H 905.258 -0.994888 -1.23643 0
M  V30 9693 H 905.279 -0.0934638 -3.80385 0
M  V30 9694 H 904.791 -1.87278 -3.39924 0
M  V30 9695 H 902.892 0.576818 -3.68108 0
M  V30 9696 H 903.005 -1.02012 -4.68114 0
M  V30 9697 H 901.369 -0.44738 -2.5074 0
M  V30 9698 H 902.152 -2.10636 -2.71085 0
M  V30 9699 N 904.597 1.47463 -0.556102 0
M  V30 9700 C 905.837 2.04372 -0.0339743 0
M  V30 9701 C 906.201 1.42125 1.29091 0
M  V30 9702 O 907.402 1.90074 1.90066 0
M  V30 9703 C 905.673 3.57352 0.0585316 0
M  V30 9704 S 907.232 4.35625 0.526943 0
M  V30 9705 H 904.05 0.710574 -0.0246115 0
M  V30 9706 H 906.652 1.80848 -0.742585 0
M  V30 9707 H 905.356 4.00181 -0.910116 0
M  V30 9708 H 904.887 3.85371 0.790731 0
M  V30 9709 H 906.902 4.62911 1.78683 0
M  V30 9710 N 906.075 0.2925 1.54862 0
M  V30 9711 C 907.022 -0.587365 2.23201 0
M  V30 9712 C 907.992 -1.13623 1.21157 0
M  V30 9713 O 909.177 -1.18233 1.49752 0
M  V30 9714 C 906.317 -1.75745 2.96998 0
M  V30 9715 C 905.43 -1.24078 4.13798 0
M  V30 9716 C 904.565 -2.37405 4.75197 0
M  V30 9717 C 903.604 -1.82829 5.84157 0
M  V30 9718 N 902.741 -2.89696 6.39547 0
M  V30 9719 H 907.581 0.00202207 2.98 0
M  V30 9720 H 905.118 0.012766 1.47094 0
M  V30 9721 H 907.076 -2.44549 3.38011 0
M  V30 9722 H 905.706 -2.3186 2.24591 0
M  V30 9723 H 904.758 -0.445268 3.77785 0
M  V30 9724 H 906.07 -0.801186 4.92324 0
M  V30 9725 H 905.224 -3.14172 5.19019 0
M  V30 9726 H 903.963 -2.84688 3.95985 0
M  V30 9727 H 902.968 -1.04548 5.39768 0
M  V30 9728 H 904.193 -1.36461 6.65248 0
M  V30 9729 H 902.139 -3.36328 5.63222 0
M  V30 9730 H 902.056 -2.50206 7.13395 0
M  V30 9731 H 903.324 -3.66386 6.88027 0
M  V30 9732 N 907.553 -1.57587 0.0200696 0
M  V30 9733 C 908.781 -1.95718 -0.670964 0
M  V30 9734 C 909.196 -0.896081 -1.6618 0
M  V30 9735 O 908.553 0.123037 -1.82085 0
M  V30 9736 C 908.604 -3.33904 -1.38529 0
M  V30 9737 O 908.325 -4.35943 -0.434167 0
M  V30 9738 C 909.826 -3.86614 -2.16898 0
M  V30 9739 H 907.046 -0.644819 -0.185606 0
M  V30 9740 H 909.59 -2.04354 0.0771495 0
M  V30 9741 H 907.745 -3.26515 -2.08487 0
M  V30 9742 H 908.159 -5.16001 -0.940378 0
M  V30 9743 H 909.633 -4.85673 -2.62346 0
M  V30 9744 H 910.11 -3.20379 -3.00423 0
M  V30 9745 H 910.716 -3.97243 -1.51916 0
M  V30 9746 N 909.032 0.252966 -1.55557 0
M  V30 9747 C 910.443 0.822503 -1.67606 0
M  V30 9748 C 910.794 1.86265 -0.616411 0
M  V30 9749 O 909.919 2.15082 0.238447 0
M  V30 9750 C 910.514 1.49866 -3.03852 0
M  V30 9751 C 909.073 2.01597 -3.17861 0
M  V30 9752 C 908.22 0.864943 -2.63465 0
M  V30 9753 H 911.171 0.0288958 -1.58674 0
M  V30 9754 H 911.192 2.36646 -2.97958 0
M  V30 9755 H 910.704 0.741378 -3.80953 0
M  V30 9756 H 908.805 2.80224 -2.45571 0
M  V30 9757 H 908.918 2.21752 -4.24692 0
M  V30 9758 H 907.282 1.2638 -2.21134 0
M  V30 9759 H 908.065 0.120847 -3.43087 0
M  V30 9760 N 910.51 1.48831 0.518367 0
M  V30 9761 C 911.757 1.57439 1.27355 0
M  V30 9762 C 912.085 0.25338 1.92843 0
M  V30 9763 O 911.34 -0.757323 1.80452 0
M  V30 9764 C 911.639 2.67003 2.3758 0
M  V30 9765 C 911.305 4.09069 1.89667 0
M  V30 9766 C 909.967 4.47733 1.76319 0
M  V30 9767 C 912.319 4.98052 1.53603 0
M  V30 9768 C 909.647 5.73173 1.25258 0
M  V30 9769 C 911.999 6.23992 1.04001 0
M  V30 9770 C 910.663 6.61503 0.892784 0
M  V30 9771 H 909.933 0.57611 0.466023 0
M  V30 9772 H 912.58 1.82595 0.577166 0
M  V30 9773 H 910.885 2.35751 3.12936 0
M  V30 9774 H 912.582 2.70876 2.95681 0
M  V30 9775 H 909.172 3.7854 2.01011 0
M  V30 9776 H 913.356 4.68849 1.62771 0
M  V30 9777 H 908.612 6.0095 1.12557 0
M  V30 9778 H 912.786 6.92331 0.751706 0
M  V30 9779 H 910.413 7.58587 0.494939 0
M  V30 9780 N 911.988 -0.768124 1.37614 0
M  V30 9781 C 912.898 -1.91249 1.35871 0
M  V30 9782 C 913.914 -1.7208 0.257786 0
M  V30 9783 O 915.09 -1.95253 0.493782 0
M  V30 9784 C 912.155 -3.26423 1.16829 0
M  V30 9785 C 911.216 -3.5822 2.36594 0
M  V30 9786 C 910.449 -4.86945 2.1845 0
M  V30 9787 O 910.672 -5.58258 1.17064 0
M  V30 9788 O 909.606 -5.17888 3.06718 0
M  V30 9789 H 913.432 -1.95671 2.32264 0
M  V30 9790 H 911.017 -0.911382 1.18382 0
M  V30 9791 H 912.899 -4.07269 1.08212 0
M  V30 9792 H 911.574 -3.22845 0.235123 0
M  V30 9793 H 910.481 -2.77594 2.50783 0
M  V30 9794 H 911.814 -3.66545 3.2849 0
M  V30 9795 N 913.466 -1.22244 -0.994698 0
M  V30 9796 C 914.715 -1.04005 -1.72817 0
M  V30 9797 C 915.028 0.425413 -1.90918 0
M  V30 9798 O 916.234 0.727429 -2.61574 0
M  V30 9799 C 914.69 -1.81244 -3.10932 0
M  V30 9800 C 914.298 -3.32028 -3.00768 0
M  V30 9801 C 916.042 -1.71448 -3.88337 0
M  V30 9802 C 913.949 -4.01716 -4.34026 0
M  V30 9803 H 912.879 -0.385559 -0.647966 0
M  V30 9804 H 915.53 -1.46077 -1.11058 0
M  V30 9805 H 913.912 -1.3197 -3.73363 0
M  V30 9806 H 915.086 -3.88682 -2.47513 0
M  V30 9807 H 913.401 -3.4248 -2.36846 0
M  V30 9808 H 915.998 -2.20836 -4.86965 0
M  V30 9809 H 916.341 -0.674568 -4.10798 0
M  V30 9810 H 916.874 -2.18256 -3.3258 0
M  V30 9811 H 913.613 -5.05952 -4.16765 0
M  V30 9812 H 913.133 -3.49849 -4.87202 0
M  V30 9813 H 914.812 -4.0721 -5.02782 0
M  V30 9814 N 914.944 1.19125 -1.03184 0
M  V30 9815 C 915.877 2.21229 -0.559739 0
M  V30 9816 C 916.855 1.57578 0.400998 0
M  V30 9817 O 918.039 1.85809 0.317399 0
M  V30 9818 C 915.166 3.38203 0.183442 0
M  V30 9819 C 914.212 4.2022 -0.729182 0
M  V30 9820 S 915.045 4.87903 -2.20706 0
M  V30 9821 C 916.201 6.08284 -1.47448 0
M  V30 9822 H 916.434 2.60932 -1.42484 0
M  V30 9823 H 913.967 1.29419 -0.842028 0
M  V30 9824 H 915.925 4.06001 0.606084 0
M  V30 9825 H 914.586 2.96929 1.02432 0
M  V30 9826 H 913.779 5.03761 -0.155272 0
M  V30 9827 H 913.381 3.57755 -1.09028 0
M  V30 9828 H 915.673 6.73193 -0.762687 0
M  V30 9829 H 916.616 6.70165 -2.28659 0
M  V30 9830 H 917.024 5.56092 -0.97068 0
M  V30 9831 N 916.422 0.810101 1.35185 0
M  V30 9832 C 917.699 0.315235 1.93043 0
M  V30 9833 C 918.079 -1.19567 1.73974 0
M  V30 9834 O 917.427 -1.99682 1.11083 0
M  V30 9835 C 917.637 0.730492 3.41269 0
M  V30 9836 C 918.985 0.721985 4.18417 0
M  V30 9837 O 920.009 0.672258 3.49799 0
M  V30 9838 O 918.868 0.783535 5.40854 0
M  V30 9839 H 915.962 0.0832774 0.822796 0
M  V30 9840 H 918.508 0.894034 1.4424 0
M  V30 9841 H 917.28 1.77169 3.48894 0
M  V30 9842 H 916.903 0.12669 3.97398 0
M  V30 9843 N 917.9 -1.47166 0.563914 0
M  V30 9844 C 918.83 -2.32894 -0.168148 0
M  V30 9845 C 919.811 -1.44202 -0.902214 0
M  V30 9846 O 920.996 -1.73048 -0.881365 0
M  V30 9847 C 918.126 -3.26116 -1.19439 0
M  V30 9848 C 917.08 -4.24101 -0.576363 0
M  V30 9849 C 916.406 -5.06696 -1.70772 0
M  V30 9850 C 917.706 -5.20142 0.47425 0
M  V30 9851 H 919.4 -2.9435 0.547573 0
M  V30 9852 H 916.946 -1.41545 0.264778 0
M  V30 9853 H 918.899 -3.84935 -1.71474 0
M  V30 9854 H 917.623 -2.62728 -1.94014 0
M  V30 9855 H 916.282 -3.66519 -0.0772534 0
M  V30 9856 H 915.93 -4.39707 -2.44268 0
M  V30 9857 H 915.63 -5.7304 -1.29994 0
M  V30 9858 H 917.154 -5.68375 -2.2312 0
M  V30 9859 H 918.568 -5.73286 0.0397035 0
M  V30 9860 H 916.965 -5.94726 0.801287 0
M  V30 9861 H 918.035 -4.65214 1.36764 0
M  V30 9862 N 919.378 -0.300708 -1.54705 0
M  V30 9863 C 920.288 0.584996 -2.27189 0
M  V30 9864 C 921.304 1.14866 -1.30697 0
M  V30 9865 O 922.48 1.17351 -1.63679 0
M  V30 9866 C 919.545 1.74076 -2.99831 0
M  V30 9867 C 918.606 1.2112 -4.1186 0
M  V30 9868 C 917.839 2.31188 -4.81028 0
M  V30 9869 O 918.062 3.5108 -4.49554 0
M  V30 9870 O 916.996 1.97897 -5.68437 0
M  V30 9871 H 920.822 -0.00298177 -3.037 0
M  V30 9872 H 918.407 -0.0671802 -1.49249 0
M  V30 9873 H 920.289 2.41413 -3.45395 0
M  V30 9874 H 918.964 2.31535 -2.26215 0
M  V30 9875 H 917.871 0.50357 -3.70695 0
M  V30 9876 H 919.204 0.682046 -4.87452 0
M  V30 9877 N 920.856 1.57574 -0.0284266 0
M  V30 9878 C 921.803 2.10176 0.953658 0
M  V30 9879 C 922.773 1.00367 1.32347 0
M  V30 9880 O 923.958 1.27783 1.4169 0
M  V30 9881 C 921.098 2.63287 2.231 0
M  V30 9882 C 920.211 3.87102 1.91771 0
M  V30 9883 C 919.346 4.28609 3.13795 0
M  V30 9884 C 918.385 5.45184 2.78282 0
M  V30 9885 N 917.522 5.81851 3.92929 0
M  V30 9886 H 922.362 2.93806 0.498176 0
M  V30 9887 H 919.899 1.45222 0.234302 0
M  V30 9888 H 921.857 2.9217 2.97813 0
M  V30 9889 H 920.487 1.82489 2.66266 0
M  V30 9890 H 919.539 3.64952 1.07303 0
M  V30 9891 H 920.851 4.71892 1.61615 0
M  V30 9892 H 920.005 4.58925 3.96829 0
M  V30 9893 H 918.744 3.42585 3.47112 0
M  V30 9894 H 917.749 5.14563 1.93661 0
M  V30 9895 H 918.974 6.32907 2.46182 0
M  V30 9896 H 916.92 4.98782 4.2609 0
M  V30 9897 H 916.837 6.6128 3.66395 0
M  V30 9898 H 918.105 6.16772 4.76669 0
M  V30 9899 N 922.334 -0.244713 1.55689 0
M  V30 9900 C 923.75 -0.593331 1.48161 0
M  V30 9901 C 923.95 -1.88234 0.719047 0
M  V30 9902 O 923.006 -2.51266 0.249292 0
M  V30 9903 C 924.319 -0.694032 2.92581 0
M  V30 9904 C 925.867 -0.786213 3.02965 0
M  V30 9905 C 926.342 -0.918457 4.48696 0
M  V30 9906 N 927.833 -0.983272 4.52643 0
M  V30 9907 C 928.568 -1.1049 5.62654 0
M  V30 9908 N 928.064 -1.19193 6.8247 0
M  V30 9909 N 929.857 -1.13823 5.50455 0
M  V30 9910 H 922.008 0.601446 2.03707 0
M  V30 9911 H 924.271 0.207894 0.924924 0
M  V30 9912 H 923.977 0.183133 3.51223 0
M  V30 9913 H 923.851 -1.56525 3.4319 0
M  V30 9914 H 926.238 -1.65383 2.44402 0
M  V30 9915 H 926.319 0.110202 2.55563 0
M  V30 9916 H 925.963 -0.0553881 5.0787 0
M  V30 9917 H 925.893 -1.82994 4.93782 0
M  V30 9918 H 928.384 -0.927269 3.66347 0
M  V30 9919 H 928.697 -1.28387 7.62061 0
M  V30 9920 H 927.042 -1.16147 6.85226 0
M  V30 9921 H 930.233 -1.06673 4.55783 0
M  V30 9922 H 930.406 -1.22957 6.36228 0
M  V30 9923 N 923.813 -1.49104 -0.510467 0
M  V30 9924 C 924.763 -1.6147 -1.6097 0
M  V30 9925 C 925.747 -0.470797 -1.53858 0
M  V30 9926 O 926.939 -0.723266 -1.61548 0
M  V30 9927 C 924.068 -1.67575 -2.99622 0
M  V30 9928 C 923.154 -2.87511 -3.11766 0
M  V30 9929 N 923.545 -4.11704 -2.93826 0
M  V30 9930 C 921.843 -2.85251 -3.42852 0
M  V30 9931 C 922.544 -4.92276 -3.09902 0
M  V30 9932 N 921.52 -4.2546 -3.38355 0
M  V30 9933 H 925.322 -2.5522 -1.45739 0
M  V30 9934 H 922.836 -1.45745 -0.716383 0
M  V30 9935 H 924.833 -1.74531 -3.78609 0
M  V30 9936 H 923.493 -0.749557 -3.1593 0
M  V30 9937 H 924.504 -4.41834 -2.70191 0
M  V30 9938 H 921.181 -2.0197 -3.65396 0
M  V30 9939 H 922.571 -6.00905 -3.00604 0
M  V30 9940 N 925.291 0.760815 -1.38019 0
M  V30 9941 C 926.537 1.52198 -1.34028 0
M  V30 9942 C 926.87 1.94067 0.0718309 0
M  V30 9943 O 926.145 1.64895 1.0315 0
M  V30 9944 C 926.428 2.77954 -2.2894 0
M  V30 9945 C 926.281 2.42269 -3.7898 0
M  V30 9946 C 927.6 3.79943 -2.22107 0
M  V30 9947 H 924.719 0.552131 -0.488181 0
M  V30 9948 H 927.361 0.871971 -1.6881 0
M  V30 9949 H 925.511 3.33419 -1.9941 0
M  V30 9950 H 927.183 1.92635 -4.19153 0
M  V30 9951 H 925.426 1.74822 -3.97014 0
M  V30 9952 H 926.097 3.32211 -4.4084 0
M  V30 9953 H 928.573 3.34 -2.4816 0
M  V30 9954 H 927.449 4.6564 -2.90639 0
M  V30 9955 H 927.71 4.25004 -1.21753 0
M  V30 9956 N 926.769 1.22769 0.988202 0
M  V30 9957 C 927.699 1.02627 2.09738 0
M  V30 9958 C 928.68 -0.0543211 1.70013 0
M  V30 9959 O 929.865 0.108811 1.93895 0
M  V30 9960 C 926.995 0.608302 3.41931 0
M  V30 9961 C 925.949 1.63536 3.95525 0
M  V30 9962 C 925.275 1.07308 5.23822 0
M  V30 9963 C 926.575 3.02649 4.25677 0
M  V30 9964 H 928.269 1.954 2.26847 0
M  V30 9965 H 925.815 0.940888 1.09011 0
M  V30 9966 H 927.768 0.454478 4.18942 0
M  V30 9967 H 926.492 -0.355095 3.24664 0
M  V30 9968 H 925.151 1.77704 3.20651 0
M  V30 9969 H 924.799 0.100894 5.02899 0
M  V30 9970 H 924.499 1.75925 5.60646 0
M  V30 9971 H 926.023 0.930938 6.03462 0
M  V30 9972 H 927.437 2.91828 4.93467 0
M  V30 9973 H 925.834 3.68434 4.73684 0
M  V30 9974 H 926.904 3.52228 3.33262 0
M  V30 9975 N 928.247 -1.18576 1.03814 0
M  V30 9976 C 929.495 -1.88121 0.738574 0
M  V30 9977 C 929.816 -1.80587 -0.735744 0
M  V30 9978 O 929.086 -1.22251 -1.53074 0
M  V30 9979 H 927.666 -0.696417 0.270208 0
M  V30 9980 H 930.328 -1.43912 1.31435 0
M  V30 9981 H 929.424 -2.94222 1.04115 0
M  V30 9982 N 929.725 -0.817259 -1.34754 0
M  V30 9983 C 931.141 -0.502309 -1.51489 0
M  V30 9984 C 931.341 0.974568 -1.76364 0
M  V30 9985 O 930.397 1.75924 -1.81127 0
M  V30 9986 C 931.71 -1.35693 -2.68343 0
M  V30 9987 C 933.258 -1.35347 -2.82224 0
M  V30 9988 C 933.733 -2.19244 -4.02114 0
M  V30 9989 N 935.224 -2.16837 -4.09311 0
M  V30 9990 C 935.959 -2.78505 -5.01221 0
M  V30 9991 N 935.455 -3.4914 -5.98392 0
M  V30 9992 N 937.248 -2.68089 -4.94049 0
M  V30 9993 H 929.399 -1.77359 -1.16866 0
M  V30 9994 H 931.662 -0.755476 -0.572678 0
M  V30 9995 H 931.368 -2.40548 -2.56573 0
M  V30 9996 H 931.242 -1.01764 -3.63213 0
M  V30 9997 H 933.629 -0.312727 -2.93438 0
M  V30 9998 H 933.71 -1.7327 -1.88179 0
M  V30 9999 H 933.354 -3.23365 -3.9166 0
M  V30 10000 H 933.284 -1.78675 -4.95361 0
M  V30 10001 H 935.775 -1.65452 -3.39756 0
M  V30 10002 H 936.088 -3.93455 -6.65141 0
M  V30 10003 H 934.433 -3.53246 -5.98533 0
M  V30 10004 H 937.624 -2.12485 -4.17094 0
M  V30 10005 H 937.797 -3.16436 -5.65484 0
M  V30 10006 N 931.203 1.46865 -0.571711 0
M  V30 10007 C 932.133 2.3298 0.155795 0
M  V30 10008 C 933.114 1.44678 0.894553 0
M  V30 10009 O 934.299 1.73513 0.872176 0
M  V30 10010 C 931.429 3.26745 1.17708 0
M  V30 10011 C 930.383 4.24401 0.553863 0
M  V30 10012 C 929.709 5.07595 1.68083 0
M  V30 10013 C 931.009 5.19884 -0.501827 0
M  V30 10014 H 932.703 2.94056 -0.563176 0
M  V30 10015 H 930.249 1.41402 -0.27228 0
M  V30 10016 H 932.202 3.85838 1.6943 0
M  V30 10017 H 930.926 2.63753 1.92618 0
M  V30 10018 H 929.585 3.66554 0.057815 0
M  V30 10019 H 929.233 4.40996 2.41933 0
M  V30 10020 H 928.933 5.73722 1.26953 0
M  V30 10021 H 930.457 5.6955 2.20103 0
M  V30 10022 H 931.871 5.73257 -0.0701057 0
M  V30 10023 H 930.268 5.94293 -0.832815 0
M  V30 10024 H 931.338 4.64482 -1.39229 0
M  V30 10025 N 932.681 0.308908 1.54543 0
M  V30 10026 C 933.909 -0.300418 2.04707 0
M  V30 10027 C 934.324 -1.46915 1.18581 0
M  V30 10028 O 933.681 -1.81251 0.213186 0
M  V30 10029 C 933.732 -0.749038 3.53655 0
M  V30 10030 O 933.453 0.373181 4.36508 0
M  V30 10031 C 934.954 -1.4227 4.1985 0
M  V30 10032 H 932.174 -0.0641267 0.667929 0
M  V30 10033 H 934.718 0.450839 1.99469 0
M  V30 10034 H 932.873 -1.4503 3.59228 0
M  V30 10035 H 933.287 0.0224752 5.24495 0
M  V30 10036 H 934.761 -1.68768 5.25568 0
M  V30 10037 H 935.238 -2.36531 3.70067 0
M  V30 10038 H 935.844 -0.764404 4.18374 0
M  V30 10039 N 934.159 -1.57557 0.0367827 0
M  V30 10040 C 935.387 -1.96419 -0.650168 0
M  V30 10041 C 935.802 -0.913656 -1.6522 0
M  V30 10042 O 935.159 0.103718 -1.82205 0
M  V30 10043 C 935.21 -3.35355 -1.3498 0
M  V30 10044 O 934.931 -4.36379 -0.387905 0
M  V30 10045 C 936.432 -3.88892 -2.12786 0
M  V30 10046 H 933.652 -0.646751 -0.178756 0
M  V30 10047 H 936.196 -2.04261 0.0988197 0
M  V30 10048 H 934.351 -3.28708 -2.05012 0
M  V30 10049 H 934.765 -5.16969 -0.885596 0
M  V30 10050 H 936.239 -4.88428 -2.5718 0
M  V30 10051 H 936.716 -3.23547 -2.97008 0
M  V30 10052 H 937.322 -3.98831 -1.47694 0
M  V30 10053 N 935.637 0.236453 -1.55816 0
M  V30 10054 C 936.883 0.964439 -1.784 0
M  V30 10055 C 937.216 1.84573 -0.603868 0
M  V30 10056 O 936.491 1.90395 0.397473 0
M  V30 10057 C 936.774 1.81608 -3.10951 0
M  V30 10058 C 936.627 0.962283 -4.39386 0
M  V30 10059 C 937.946 2.79665 -3.39817 0
M  V30 10060 H 935.065 0.349192 -0.649026 0
M  V30 10061 H 937.707 0.234247 -1.8855 0
M  V30 10062 H 935.857 2.43864 -3.02428 0
M  V30 10063 H 937.529 0.35762 -4.59912 0
M  V30 10064 H 935.772 0.267062 -4.32977 0
M  V30 10065 H 936.443 1.59222 -5.28538 0
M  V30 10066 H 938.919 2.27546 -3.4837 0
M  V30 10067 H 937.795 3.36367 -4.33761 0
M  V30 10068 H 938.056 3.56657 -2.61244 0
M  V30 10069 N 937.115 1.49373 0.502552 0
M  V30 10070 C 938.063 1.66411 1.62512 0
M  V30 10071 C 939.057 0.530062 1.60893 0
M  V30 10072 O 940.263 0.709648 1.65421 0
M  V30 10073 H 936.638 0.524707 0.538689 0
M  V30 10074 H 938.609 2.60639 1.45293 0
M  V30 10075 C 937.358 1.74648 3.00655 0
M  V30 10076 H 936.681 2.61285 3.02606 0
M  V30 10077 H 938.121 1.90605 3.78742 0
M  V30 10078 C 936.58 0.490963 3.33303 0
M  V30 10079 O 937.11 -0.384039 3.9986 0
M  V30 10080 N 935.316 0.354375 2.88431 0
M  V30 10081 H 934.863 1.06742 2.34444 0
M  V30 10082 H 934.821 -0.484593 3.10643 0
M  V30 10083 N 938.594 -0.753485 1.38421 0
M  V30 10084 C 940.005 -1.33081 1.30944 0
M  V30 10085 C 940.356 -1.96169 -0.0347124 0
M  V30 10086 O 939.481 -1.95073 -0.936768 0
M  V30 10087 C 940.076 -2.41973 2.37138 0
M  V30 10088 C 938.635 -2.95426 2.33239 0
M  V30 10089 C 937.782 -1.68808 2.19998 0
M  V30 10090 H 940.733 -0.552354 1.48777 0
M  V30 10091 H 940.754 -3.21913 2.02859 0
M  V30 10092 H 940.266 -1.96027 3.34956 0
M  V30 10093 H 938.367 -3.45701 1.39003 0
M  V30 10094 H 938.48 -3.49798 3.27381 0
M  V30 10095 H 936.844 -1.92438 1.66852 0
M  V30 10096 H 937.627 -1.24939 3.19758 0
M  V30 10097 N 940.072 -1.23292 -0.981677 0
M  V30 10098 C 941.321 -1.05832 -1.71705 0
M  V30 10099 C 941.634 0.40514 -1.91358 0
M  V30 10100 O 942.84 0.699645 -2.6233 0
M  V30 10101 C 941.296 -1.84532 -3.08992 0
M  V30 10102 C 940.904 -3.35199 -2.9723 0
M  V30 10103 C 942.648 -1.75557 -3.86497 0
M  V30 10104 C 940.555 -4.06296 -4.29741 0
M  V30 10105 H 939.485 -0.39241 -0.64384 0
M  V30 10106 H 942.136 -1.47247 -1.09502 0
M  V30 10107 H 940.518 -1.35923 -3.71942 0
M  V30 10108 H 941.692 -3.91286 -2.43377 0
M  V30 10109 H 940.007 -3.44973 -2.332 0
M  V30 10110 H 942.604 -2.25989 -4.84596 0
M  V30 10111 H 942.947 -0.718101 -4.1006 0
M  V30 10112 H 943.48 -2.21771 -3.30246 0
M  V30 10113 H 940.219 -5.10344 -4.11375 0
M  V30 10114 H 939.739 -3.54997 -4.83464 0
M  V30 10115 H 941.418 -4.12519 -4.98434 0
M  V30 10116 N 941.55 1.18024 -1.04442 0
M  V30 10117 C 942.796 1.88377 -0.751133 0
M  V30 10118 C 943.129 1.80377 0.719571 0
M  V30 10119 O 942.404 1.20662 1.52548 0
M  V30 10120 C 942.687 3.38708 -1.22265 0
M  V30 10121 C 942.54 3.55499 -2.75574 0
M  V30 10122 C 943.859 4.32475 -0.815688 0
M  V30 10123 H 940.978 0.684037 -0.27434 0
M  V30 10124 H 943.62 1.38837 -1.29709 0
M  V30 10125 H 941.77 3.8103 -0.758192 0
M  V30 10126 H 943.442 3.22244 -3.30086 0
M  V30 10127 H 941.685 2.98028 -3.15217 0
M  V30 10128 H 942.356 4.60994 -3.03625 0
M  V30 10129 H 944.832 3.97953 -1.21542 0
M  V30 10130 H 943.708 5.36213 -1.17331 0
M  V30 10131 H 943.969 4.41207 0.280901 0
M  V30 10132 N 943.028 0.824394 1.34319 0
M  V30 10133 C 944.256 0.426194 2.02463 0
M  V30 10134 C 944.671 -0.968298 1.62078 0
M  V30 10135 O 944.028 -1.62689 0.82696 0
M  V30 10136 C 944.079 0.520465 3.57734 0
M  V30 10137 O 943.8 1.86 3.96656 0
M  V30 10138 C 945.301 0.117353 4.43145 0
M  V30 10139 H 942.521 0.170864 0.648881 0
M  V30 10140 H 945.065 1.11296 1.71562 0
M  V30 10141 H 943.22 -0.118233 3.8722 0
M  V30 10142 H 943.634 1.83528 4.91343 0
M  V30 10143 H 945.108 0.234395 5.51502 0
M  V30 10144 H 945.585 -0.939271 4.29039 0
M  V30 10145 H 946.191 0.729908 4.1899 0
M  V30 10146 N 944.506 -1.46559 0.579492 0
M  V30 10147 C 945.416 -2.34066 -0.15816 0
M  V30 10148 C 946.432 -1.49556 -0.88932 0
M  V30 10149 O 947.608 -1.82434 -0.853226 0
M  V30 10150 C 944.673 -3.26683 -1.161 0
M  V30 10151 C 943.734 -4.27092 -0.434855 0
M  V30 10152 C 942.967 -5.15283 -1.38992 0
M  V30 10153 O 943.19 -5.06345 -2.62623 0
M  V30 10154 O 942.124 -5.95099 -0.902253 0
M  V30 10155 H 945.95 -2.98488 0.560234 0
M  V30 10156 H 943.535 -1.45482 0.339918 0
M  V30 10157 H 945.417 -3.8383 -1.73932 0
M  V30 10158 H 944.092 -2.64862 -1.86091 0
M  V30 10159 H 942.999 -3.73641 0.185224 0
M  V30 10160 H 944.332 -4.9169 0.224031 0
M  V30 10161 N 945.984 -0.3171 -1.54377 0
M  V30 10162 C 946.931 0.551782 -2.24107 0
M  V30 10163 C 947.901 1.11681 -1.22949 0
M  V30 10164 O 949.086 1.15836 -1.51614 0
M  V30 10165 C 946.226 1.70997 -2.99756 0
M  V30 10166 C 945.339 1.17479 -4.15719 0
M  V30 10167 C 944.474 2.29815 -4.78914 0
M  V30 10168 C 943.513 1.73513 -5.86992 0
M  V30 10169 N 942.65 2.79485 -6.44075 0
M  V30 10170 H 947.49 -0.049431 -2.97959 0
M  V30 10171 H 945.027 -0.0361658 -1.47056 0
M  V30 10172 H 946.985 2.39141 -3.41859 0
M  V30 10173 H 945.615 2.28257 -2.28251 0
M  V30 10174 H 944.667 0.385109 -3.78446 0
M  V30 10175 H 945.979 0.72276 -4.93536 0
M  V30 10176 H 945.133 3.05875 -5.23952 0
M  V30 10177 H 943.872 2.78352 -4.00464 0
M  V30 10178 H 942.877 0.959475 -5.41363 0
M  V30 10179 H 944.102 1.2586 -6.67335 0
M  V30 10180 H 942.048 3.27325 -5.68502 0
M  V30 10181 H 941.965 2.38825 -7.17286 0
M  V30 10182 H 943.233 3.55394 -6.93769 0
M  V30 10183 N 947.462 1.57535 -0.0451378 0
M  V30 10184 C 948.739 1.83785 0.669523 0
M  V30 10185 C 949.119 0.932331 1.89396 0
M  V30 10186 O 948.467 -0.00813229 2.28499 0
M  V30 10187 C 948.677 3.33376 1.03255 0
M  V30 10188 C 950.025 4.00243 1.41741 0
M  V30 10189 O 951.049 3.37965 1.12507 0
M  V30 10190 O 949.908 5.10038 1.96275 0
M  V30 10191 H 947.002 0.758342 0.329919 0
M  V30 10192 H 949.548 1.69538 -0.0740415 0
M  V30 10193 H 948.32 3.90965 0.161777 0
M  V30 10194 H 947.943 3.52787 1.83376 0
M  V30 10195 N 948.94 -0.228186 1.55939 0
M  V30 10196 C 950.165 -0.974795 1.83064 0
M  V30 10197 C 950.59 -1.77426 0.624624 0
M  V30 10198 O 949.948 -1.76211 -0.426556 0
M  V30 10199 C 949.996 -1.87342 3.08116 0
M  V30 10200 O 949.1 -2.96784 2.86344 0
M  V30 10201 H 948.441 -0.276379 0.603747 0
M  V30 10202 H 950.971 -0.243507 2.03146 0
M  V30 10203 H 950.981 -2.28451 3.38045 0
M  V30 10204 H 949.656 -1.28575 3.95526 0
M  V30 10205 H 948.233 -2.59669 2.67631 0
M  V30 10206 N 950.418 -1.49637 -0.494624 0
M  V30 10207 C 951.829 -1.52573 -1.07603 0
M  V30 10208 C 952.18 -0.315591 -1.93645 0
M  V30 10209 O 951.305 0.573966 -2.08649 0
M  V30 10210 C 951.9 -2.7648 -1.95817 0
M  V30 10211 C 950.459 -2.82173 -2.49109 0
M  V30 10212 C 949.606 -2.4657 -1.2688 0
M  V30 10213 H 952.557 -1.56242 -0.278251 0
M  V30 10214 H 952.578 -2.57003 -2.80588 0
M  V30 10215 H 952.09 -3.64538 -1.33167 0
M  V30 10216 H 950.191 -1.9841 -3.15379 0
M  V30 10217 H 950.304 -3.84501 -2.85825 0
M  V30 10218 H 948.668 -1.98489 -1.59607 0
M  V30 10219 H 949.451 -3.3691 -0.659281 0
M  V30 10220 N 951.896 0.746133 -1.38819 0
M  V30 10221 C 953.142 1.50768 -1.35635 0
M  V30 10222 C 953.475 1.94132 0.0512435 0
M  V30 10223 O 952.75 1.65979 1.01396 0
M  V30 10224 C 953.033 2.7551 -2.31875 0
M  V30 10225 C 952.886 2.38236 -3.81528 0
M  V30 10226 C 954.205 3.77566 -2.26124 0
M  V30 10227 H 951.324 0.546922 -0.494009 0
M  V30 10228 H 953.966 0.854017 -1.69725 0
M  V30 10229 H 952.116 3.31285 -2.02935 0
M  V30 10230 H 953.788 1.88178 -4.21173 0
M  V30 10231 H 952.031 1.70601 -3.98846 0
M  V30 10232 H 952.702 3.27517 -4.44339 0
M  V30 10233 H 955.178 3.31349 -2.51689 0
M  V30 10234 H 954.054 4.62531 -2.95561 0
M  V30 10235 H 954.315 4.23689 -1.26254 0
M  V30 10236 N 953.375 1.23811 0.975125 0
M  V30 10237 C 954.323 1.02149 2.0897 0
M  V30 10238 C 955.317 -0.0412172 1.6935 0
M  V30 10239 O 956.523 0.112726 1.79647 0
M  V30 10240 H 952.898 0.313259 0.683647 0
M  V30 10241 H 954.869 1.96686 2.24404 0
M  V30 10242 C 953.618 0.635023 3.41852 0
M  V30 10243 H 952.941 1.44449 3.72793 0
M  V30 10244 H 954.381 0.52301 4.20762 0
M  V30 10245 C 952.84 -0.657207 3.30428 0
M  V30 10246 O 953.37 -1.70494 3.63723 0
M  V30 10247 N 951.576 -0.635122 2.83575 0
M  V30 10248 H 951.123 0.21784 2.56677 0
M  V30 10249 H 951.081 -1.49995 2.76313 0
M  V30 10250 N 954.853 -1.17469 1.05066 0
M  V30 10251 C 956.102 -1.87032 0.755114 0
M  V30 10252 C 956.415 -1.81844 -0.720572 0
M  V30 10253 O 957.621 -2.46866 -1.13002 0
M  V30 10254 C 956.077 -3.35581 1.30052 0
M  V30 10255 C 955.685 -3.49274 2.80556 0
M  V30 10256 C 957.429 -4.1048 1.08196 0
M  V30 10257 C 955.336 -4.91838 3.28404 0
M  V30 10258 H 954.266 -0.70057 0.278779 0
M  V30 10259 H 956.917 -1.32663 1.26779 0
M  V30 10260 H 955.299 -3.89479 0.715667 0
M  V30 10261 H 956.473 -3.05598 3.44886 0
M  V30 10262 H 954.788 -2.87793 3.00939 0
M  V30 10263 H 957.385 -5.15652 1.41447 0
M  V30 10264 H 957.728 -4.16295 0.0196603 0
M  V30 10265 H 958.261 -3.62784 1.63195 0
M  V30 10266 H 955 -4.91196 4.34058 0
M  V30 10267 H 954.52 -5.36189 2.68815 0
M  V30 10268 H 956.199 -5.60602 3.23009 0
M  V30 10269 N 956.331 -0.831506 -1.3388 0
M  V30 10270 C 957.241 -0.261688 -2.33136 0
M  V30 10271 C 958.257 0.608429 -1.63016 0
M  V30 10272 O 959.433 0.514297 -1.94723 0
M  V30 10273 C 956.498 0.559957 -3.42148 0
M  V30 10274 C 955.559 -0.333569 -4.28002 0
M  V30 10275 C 954.792 0.448956 -5.31808 0
M  V30 10276 O 955.015 1.6814 -5.45055 0
M  V30 10277 O 953.949 -0.173197 -6.01651 0
M  V30 10278 H 957.775 -1.08343 -2.83717 0
M  V30 10279 H 955.36 -0.593849 -1.3709 0
M  V30 10280 H 957.242 1.02712 -4.08691 0
M  V30 10281 H 955.917 1.35888 -2.93796 0
M  V30 10282 H 954.824 -0.848416 -3.64352 0
M  V30 10283 H 956.157 -1.09707 -4.79818 0
M  V30 10284 N 957.809 1.4625 -0.587256 0
M  V30 10285 C 958.772 2.28812 0.133238 0
M  V30 10286 C 959.772 1.38645 0.814513 0
M  V30 10287 O 960.962 1.60975 0.665774 0
M  V30 10288 C 958.094 3.19147 1.19824 0
M  V30 10289 H 959.287 2.93991 -0.592386 0
M  V30 10290 H 956.84 1.52435 -0.345416 0
M  V30 10291 H 957.575 2.58725 1.95529 0
M  V30 10292 H 957.36 3.85541 0.71418 0
M  V30 10293 H 958.85 3.81278 1.70344 0
M  V30 10294 N 959.287 0.325282 1.54207 0
M  V30 10295 C 960.197 -0.548778 2.28091 0
M  V30 10296 C 961.213 -1.12772 1.32508 0
M  V30 10297 O 962.389 -1.14732 1.65525 0
M  V30 10298 C 959.454 -1.69284 3.02562 0
M  V30 10299 C 958.515 -1.14553 4.13734 0
M  V30 10300 C 957.748 -2.23506 4.84645 0
M  V30 10301 O 957.971 -3.43884 4.55082 0
M  V30 10302 O 956.905 -1.88828 5.71513 0
M  V30 10303 H 960.731 0.0512974 3.03657 0
M  V30 10304 H 958.316 0.0909159 1.49123 0
M  V30 10305 H 960.198 -2.35887 3.49192 0
M  V30 10306 H 958.873 -2.27906 2.2987 0
M  V30 10307 H 957.78 -0.444532 3.71449 0
M  V30 10308 H 959.113 -0.60441 4.88475 0
M  V30 10309 N 960.765 -1.57509 0.0534917 0
M  V30 10310 C 962.176 -1.80374 -0.481867 0
M  V30 10311 C 962.527 -0.965917 -1.70776 0
M  V30 10312 O 961.652 -0.183167 -2.15623 0
M  V30 10313 C 962.247 -3.27146 -0.880978 0
M  V30 10314 C 960.806 -3.50921 -1.3613 0
M  V30 10315 C 959.953 -2.75237 -0.337611 0
M  V30 10316 H 962.904 -1.56222 0.279353 0
M  V30 10317 H 962.925 -3.38193 -1.74373 0
M  V30 10318 H 962.437 -3.88098 0.011441 0
M  V30 10319 H 960.538 -2.95251 -2.27283 0
M  V30 10320 H 960.651 -4.59632 -1.35186 0
M  V30 10321 H 959.015 -2.41444 -0.810991 0
M  V30 10322 H 959.798 -3.38918 0.546763 0
M  V30 10323 N 962.243 0.219913 -1.56058 0
M  V30 10324 C 963.654 0.786766 -1.69313 0
M  V30 10325 C 964.005 1.84916 -0.655782 0
M  V30 10326 O 963.13 2.1554 0.192772 0
M  V30 10327 C 963.725 1.43387 -3.06962 0
M  V30 10328 C 962.284 1.94809 -3.22066 0
M  V30 10329 C 961.431 0.808863 -2.65241 0
M  V30 10330 H 964.382 -0.00476777 -1.58699 0
M  V30 10331 H 964.403 2.30272 -3.02911 0
M  V30 10332 H 963.915 0.660405 -3.8244 0
M  V30 10333 H 962.016 2.74952 -2.5146 0
M  V30 10334 H 962.129 2.12694 -4.293 0
M  V30 10335 H 960.493 1.21661 -2.23765 0
M  V30 10336 H 961.276 0.0480458 -3.43266 0
M  V30 10337 N 963.721 1.49897 0.486681 0
M  V30 10338 C 964.968 1.60105 1.23986 0
M  V30 10339 C 965.296 0.294228 1.92262 0
M  V30 10340 O 964.551 -0.718876 1.82018 0
M  V30 10341 C 964.85 2.71982 2.31863 0
M  V30 10342 C 964.516 4.13 1.80948 0
M  V30 10343 C 963.178 4.51373 1.66782 0
M  V30 10344 C 965.53 5.01198 1.43004 0
M  V30 10345 C 962.858 5.75701 1.13072 0
M  V30 10346 C 965.21 6.26058 0.90742 0
M  V30 10347 C 963.874 6.63247 0.752269 0
M  V30 10348 H 963.144 0.585866 0.453698 0
M  V30 10349 H 965.791 1.83778 0.538305 0
M  V30 10350 H 964.096 2.42336 3.07865 0
M  V30 10351 H 965.793 2.77087 2.89869 0
M  V30 10352 H 962.383 3.82718 1.92937 0
M  V30 10353 H 966.567 4.72196 1.52789 0
M  V30 10354 H 961.823 6.03202 0.997842 0
M  V30 10355 H 965.997 6.9377 0.604684 0
M  V30 10356 H 963.624 7.59466 0.33392 0
M  V30 10357 N 965.199 -0.738761 1.39212 0
M  V30 10358 C 966.447 -1.49529 1.35962 0
M  V30 10359 C 966.768 -1.94948 -0.0450152 0
M  V30 10360 O 966.038 -1.68717 -0.995552 0
M  V30 10361 H 964.618 -0.554692 0.500326 0
M  V30 10362 H 967.28 -0.877255 1.74041 0
M  V30 10363 H 966.376 -2.37919 2.01993 0
M  V30 10364 N 966.677 -1.24326 -0.968545 0
M  V30 10365 C 967.954 -0.990459 -1.68669 0
M  V30 10366 C 968.334 0.487487 -2.05394 0
M  V30 10367 O 967.682 1.46158 -1.75642 0
M  V30 10368 C 967.892 -1.91251 -2.91931 0
M  V30 10369 C 969.24 -2.18291 -3.6419 0
M  V30 10370 O 970.264 -1.88897 -3.01987 0
M  V30 10371 O 969.123 -2.68204 -4.76161 0
M  V30 10372 H 966.217 -0.374515 -0.737338 0
M  V30 10373 H 968.763 -1.35421 -1.02271 0
M  V30 10374 H 967.535 -2.9111 -2.61478 0
M  V30 10375 H 967.158 -1.55188 -3.66064 0
M  V30 10376 N 968.156 1.1691 -1.05688 0
M  V30 10377 C 969.381 1.91745 -0.790478 0
M  V30 10378 C 969.806 1.76568 0.648478 0
M  V30 10379 O 969.164 1.08682 1.45114 0
M  V30 10380 C 969.212 3.4067 -1.18222 0
M  V30 10381 O 968.316 4.11177 -0.317341 0
M  V30 10382 H 967.657 0.5976 -0.28943 0
M  V30 10383 H 970.187 1.48157 -1.41105 0
M  V30 10384 H 970.197 3.91424 -1.15114 0
M  V30 10385 H 968.872 3.51036 -2.2304 0
M  V30 10386 H 967.449 3.70645 -0.409459 0
M  V30 10387 N 969.634 0.838594 1.33437 0
M  V30 10388 C 970.864 0.446995 2.01707 0
M  V30 10389 C 971.272 -0.956335 1.63251 0
M  V30 10390 O 970.615 -1.63289 0.841566 0
M  V30 10391 C 970.677 0.487707 3.56176 0
M  V30 10392 C 970.341 1.8471 4.18009 0
M  V30 10393 C 971.338 2.81028 4.374 0
M  V30 10394 C 969.023 2.13987 4.54439 0
M  V30 10395 C 971.017 4.04785 4.92369 0
M  V30 10396 C 968.704 3.38 5.09116 0
M  V30 10397 C 969.702 4.33216 5.28027 0
M  V30 10398 O 969.39 5.55036 5.81541 0
M  V30 10399 H 969.122 0.175799 0.652741 0
M  V30 10400 H 971.676 1.13265 1.71348 0
M  V30 10401 H 969.906 -0.254719 3.8586 0
M  V30 10402 H 971.595 0.113971 4.0574 0
M  V30 10403 H 972.361 2.5971 4.09604 0
M  V30 10404 H 968.24 1.40668 4.39014 0
M  V30 10405 H 971.784 4.79114 5.07046 0
M  V30 10406 H 967.681 3.59175 5.36343 0
M  V30 10407 H 968.449 5.56772 5.99956 0
M  V30 10408 N 971.112 -1.45937 0.595003 0
M  V30 10409 C 972.361 -2.01529 0.0829531 0
M  V30 10410 C 972.674 -1.47071 -1.28955 0
M  V30 10411 O 973.88 -1.94561 -1.89363 0
M  V30 10412 C 972.336 -3.59767 0.0976597 0
M  V30 10413 C 971.944 -4.23223 1.46924 0
M  V30 10414 C 973.688 -4.22972 -0.359805 0
M  V30 10415 C 971.595 -5.73576 1.44101 0
M  V30 10416 H 970.525 -0.753508 0.0272425 0
M  V30 10417 H 973.176 -1.67541 0.748473 0
M  V30 10418 H 971.558 -3.90888 -0.634268 0
M  V30 10419 H 972.732 -4.03695 2.22187 0
M  V30 10420 H 971.047 -3.72161 1.86775 0
M  V30 10421 H 973.644 -5.33202 -0.39991 0
M  V30 10422 H 973.987 -3.92765 -1.37991 0
M  V30 10423 H 974.52 -3.96523 0.31845 0
M  V30 10424 H 971.259 -6.08462 2.43831 0
M  V30 10425 H 970.779 -5.95332 0.730767 0
M  V30 10426 H 972.458 -6.36531 1.1592 0
M  V30 10427 N 972.59 -0.333456 -1.54032 0
M  V30 10428 C 973.839 0.267081 -1.99924 0
M  V30 10429 C 974.152 1.52463 -1.22534 0
M  V30 10430 O 975.358 2.20178 -1.58852 0
M  V30 10431 C 973.814 0.526456 -3.56029 0
M  V30 10432 C 973.422 -0.714607 -4.42264 0
M  V30 10433 C 975.166 1.0864 -4.10363 0
M  V30 10434 C 973.073 -0.42659 -5.89859 0
M  V30 10435 H 972.003 0.103577 -0.746852 0
M  V30 10436 H 974.654 -0.447218 -1.77967 0
M  V30 10437 H 973.036 1.3012 -3.74012 0
M  V30 10438 H 974.21 -1.48968 -4.36056 0
M  V30 10439 H 972.525 -1.19547 -3.9887 0
M  V30 10440 H 975.122 1.31668 -5.18235 0
M  V30 10441 H 975.465 2.03884 -3.62956 0
M  V30 10442 H 975.998 0.37261 -3.96051 0
M  V30 10443 H 972.737 -1.34847 -6.4148 0
M  V30 10444 H 972.257 0.310588 -5.98995 0
M  V30 10445 H 973.936 -0.0400807 -6.46988 0
M  V30 10446 N 974.068 1.57479 -0.061844 0
M  V30 10447 C 975.317 1.92285 0.609055 0
M  V30 10448 C 975.63 0.942983 1.71369 0
M  V30 10449 O 976.836 1.18349 2.44348 0
M  V30 10450 C 975.292 3.41545 1.13468 0
M  V30 10451 C 974.9 4.47958 0.0615926 0
M  V30 10452 C 976.644 3.85368 1.78022 0
M  V30 10453 C 974.551 5.88341 0.600705 0
M  V30 10454 H 973.481 0.717656 0.23127 0
M  V30 10455 H 976.132 1.83021 -0.132466 0
M  V30 10456 H 974.514 3.45848 1.92886 0
M  V30 10457 H 975.688 4.55258 -0.712527 0
M  V30 10458 H 974.003 4.13541 -0.487116 0
M  V30 10459 H 976.6 4.87627 2.19371 0
M  V30 10460 H 976.943 3.22193 2.63623 0
M  V30 10461 H 977.476 3.83626 1.05242 0
M  V30 10462 H 974.215 6.55138 -0.217922 0
M  V30 10463 H 973.735 5.84581 1.34257 0
M  V30 10464 H 975.414 6.37918 1.08025 0
M  V30 10465 N 975.546 -0.211634 1.56173 0
M  V30 10466 C 976.794 -0.932704 1.7929 0
M  V30 10467 C 977.115 -1.84472 0.632076 0
M  V30 10468 O 976.385 -1.92739 -0.350519 0
M  V30 10469 H 974.965 -0.347393 0.661307 0
M  V30 10470 H 977.627 -0.22111 1.93642 0
M  V30 10471 H 976.723 -1.53365 2.71819 0
M  V30 10472 N 977.024 -1.50153 -0.478725 0
M  V30 10473 C 978.27 -1.60998 -1.23318 0
M  V30 10474 C 978.603 -0.305868 -1.91776 0
M  V30 10475 O 977.878 0.692158 -1.81767 0
M  V30 10476 C 978.161 -2.78495 -2.28282 0
M  V30 10477 C 978.014 -4.18767 -1.64178 0
M  V30 10478 C 979.333 -2.91569 -3.2966 0
M  V30 10479 H 976.452 -0.585983 -0.446982 0
M  V30 10480 H 979.094 -1.82514 -0.528063 0
M  V30 10481 H 977.244 -2.60281 -2.8842 0
M  V30 10482 H 978.916 -4.48552 -1.07696 0
M  V30 10483 H 977.159 -4.23379 -0.94514 0
M  V30 10484 H 977.83 -4.96894 -2.40417 0
M  V30 10485 H 980.306 -3.08219 -2.79536 0
M  V30 10486 H 979.182 -3.75419 -4.0044 0
M  V30 10487 H 979.443 -2.01859 -3.93326 0
M  V30 10488 N 978.502 0.731368 -1.39602 0
M  V30 10489 C 979.412 1.87579 -1.40894 0
M  V30 10490 C 980.428 1.71336 -0.303319 0
M  V30 10491 O 981.604 1.93875 -0.545377 0
M  V30 10492 C 978.669 3.23211 -1.25442 0
M  V30 10493 C 977.73 3.51822 -2.46008 0
M  V30 10494 C 976.963 4.80982 -2.31284 0
M  V30 10495 O 977.186 5.54958 -1.31824 0
M  V30 10496 O 976.12 5.09574 -3.20341 0
M  V30 10497 H 979.946 1.89444 -2.3737 0
M  V30 10498 H 977.531 0.879675 -1.20756 0
M  V30 10499 H 979.413 4.04257 -1.18972 0
M  V30 10500 H 978.088 3.22108 -0.320637 0
M  V30 10501 H 976.995 2.70847 -2.58055 0
M  V30 10502 H 978.328 3.57707 -3.38093 0
M  V30 10503 N 979.98 1.24838 0.961938 0
M  V30 10504 C 981.391 1.08369 1.5203 0
M  V30 10505 C 981.742 -0.343005 1.93178 0
M  V30 10506 O 980.867 -1.2321 1.779 0
M  V30 10507 C 981.462 1.96102 2.76278 0
M  V30 10508 C 980.021 1.8384 3.28451 0
M  V30 10509 C 979.168 1.9069 2.01327 0
M  V30 10510 H 982.119 1.38231 0.779613 0
M  V30 10511 H 982.14 1.4967 3.49827 0
M  V30 10512 H 981.652 2.99931 2.46298 0
M  V30 10513 H 979.753 0.828653 3.63269 0
M  V30 10514 H 979.866 2.68251 3.96961 0
M  V30 10515 H 978.23 1.34488 2.16299 0
M  V30 10516 H 979.013 2.96111 1.73705 0
M  V30 10517 N 981.458 -1.16348 1.06306 0
M  V30 10518 C 982.706 -1.86512 0.778311 0
M  V30 10519 C 983.027 -1.82107 -0.697273 0
M  V30 10520 O 982.297 -1.2547 -1.50446 0
M  V30 10521 H 980.877 -0.690529 0.284919 0
M  V30 10522 H 983.539 -1.41092 1.34458 0
M  V30 10523 H 982.635 -2.91947 1.10333 0
M  V30 10524 N 982.937 -0.845659 -1.3299 0
M  V30 10525 C 983.869 -0.241097 -2.27928 0
M  V30 10526 C 984.882 0.582048 -1.5204 0
M  V30 10527 O 986.071 0.408008 -1.73774 0
M  V30 10528 C 983.171 0.678652 -3.32035 0
M  V30 10529 C 982.344 -0.106652 -4.3727 0
M  V30 10530 C 981.403 0.737478 -5.21006 0
M  V30 10531 O 980.429 0.174231 -5.68933 0
M  V30 10532 N 981.631 2.05372 -5.42957 0
M  V30 10533 H 984.396 -1.05685 -2.80448 0
M  V30 10534 H 981.957 -0.704771 -1.45755 0
M  V30 10535 H 983.949 1.24849 -3.84961 0
M  V30 10536 H 982.519 1.3951 -2.79742 0
M  V30 10537 H 981.739 -0.857897 -3.84752 0
M  V30 10538 H 983.027 -0.646386 -5.04677 0
M  V30 10539 H 982.425 2.53478 -5.05733 0
M  V30 10540 H 980.982 2.5719 -5.98913 0
M  V30 10541 N 984.415 1.45619 -0.602734 0
M  V30 10542 C 985.345 2.33258 0.106342 0
M  V30 10543 C 986.326 1.46543 0.863664 0
M  V30 10544 O 987.511 1.75324 0.835175 0
M  V30 10545 C 984.641 3.29168 1.10751 0
M  V30 10546 C 983.595 4.25481 0.463717 0
M  V30 10547 C 982.921 5.11046 1.57278 0
M  V30 10548 C 984.221 5.18702 -0.61199 0
M  V30 10549 H 985.915 2.92795 -0.625423 0
M  V30 10550 H 983.461 1.40793 -0.302213 0
M  V30 10551 H 985.414 3.89346 1.61208 0
M  V30 10552 H 984.138 2.6778 1.8698 0
M  V30 10553 H 982.797 3.66595 -0.0199496 0
M  V30 10554 H 982.445 4.46029 2.32524 0
M  V30 10555 H 982.145 5.76286 1.14755 0
M  V30 10556 H 983.669 5.74091 2.07972 0
M  V30 10557 H 985.083 5.72979 -0.191686 0
M  V30 10558 H 983.48 5.92393 -0.958686 0
M  V30 10559 H 984.55 4.61424 -1.4905 0
M  V30 10560 N 985.893 0.34162 1.53853 0
M  V30 10561 C 986.84 -0.516058 2.24957 0
M  V30 10562 C 987.81 -1.09711 1.2471 0
M  V30 10563 O 988.995 -1.13409 1.53438 0
M  V30 10564 C 986.135 -1.66207 3.02439 0
M  V30 10565 C 985.248 -1.10851 4.17536 0
M  V30 10566 C 984.383 -2.22167 4.82509 0
M  V30 10567 C 983.422 -1.64152 5.89678 0
M  V30 10568 N 982.559 -2.69203 6.4844 0
M  V30 10569 H 987.399 0.0968275 2.97843 0
M  V30 10570 H 984.936 0.0595565 1.46979 0
M  V30 10571 H 986.894 -2.33672 3.4562 0
M  V30 10572 H 985.524 -2.24597 2.31853 0
M  V30 10573 H 984.576 -0.324853 3.7901 0
M  V30 10574 H 985.888 -0.644151 4.94623 0
M  V30 10575 H 985.042 -2.97501 5.28751 0
M  V30 10576 H 983.781 -2.71946 4.04842 0
M  V30 10577 H 982.786 -0.873228 5.42821 0
M  V30 10578 H 984.011 -1.15228 6.69253 0
M  V30 10579 H 981.957 -3.1824 5.73637 0
M  V30 10580 H 981.874 -2.27383 7.20994 0
M  V30 10581 H 983.142 -3.44312 6.99335 0
M  V30 10582 N 987.371 -1.57444 0.0701946 0
M  V30 10583 C 988.301 -2.15659 -0.895176 0
M  V30 10584 C 989.282 -1.08321 -1.31151 0
M  V30 10585 O 990.467 -1.36349 -1.38284 0
M  V30 10586 C 987.597 -2.71693 -2.16334 0
M  V30 10587 C 986.551 -3.84183 -1.88645 0
M  V30 10588 C 985.877 -4.26814 -3.22078 0
M  V30 10589 C 987.177 -5.08493 -1.19299 0
M  V30 10590 H 988.871 -2.96576 -0.410217 0
M  V30 10591 H 986.417 -1.42662 -0.195872 0
M  V30 10592 H 988.37 -3.11064 -2.84284 0
M  V30 10593 H 987.094 -1.87994 -2.67069 0
M  V30 10594 H 985.753 -3.45314 -1.23101 0
M  V30 10595 H 985.401 -3.40039 -3.70651 0
M  V30 10596 H 985.101 -5.02642 -3.04344 0
M  V30 10597 H 986.625 -4.68799 -3.91228 0
M  V30 10598 H 988.039 -5.4519 -1.77316 0
M  V30 10599 H 986.436 -5.89588 -1.11828 0
M  V30 10600 H 987.506 -4.84595 -0.171839 0
M  V30 10601 N 988.849 0.203349 -1.56283 0
M  V30 10602 C 990.126 0.950415 -1.70958 0
M  V30 10603 C 990.506 2.01708 -0.622647 0
M  V30 10604 O 989.854 2.25523 0.367635 0
M  V30 10605 C 990.064 1.54434 -3.12971 0
M  V30 10606 C 991.412 2.02964 -3.72949 0
M  V30 10607 O 992.436 1.64293 -3.16048 0
M  V30 10608 O 991.295 2.74097 -4.72793 0
M  V30 10609 H 988.389 0.445154 -0.69697 0
M  V30 10610 H 990.935 0.193695 -1.68591 0
M  V30 10611 H 989.707 0.77505 -3.83547 0
M  V30 10612 H 989.33 2.36611 -3.19532 0
M  V30 10613 N 990.327 1.50405 0.470755 0
M  V30 10614 C 991.573 1.62618 1.22175 0
M  V30 10615 C 991.928 0.322593 1.89676 0
M  V30 10616 O 991.221 -0.679504 1.79146 0
M  V30 10617 C 991.415 2.74426 2.28965 0
M  V30 10618 C 991.244 4.15532 1.71941 0
M  V30 10619 C 990.014 4.81928 1.51899 0
M  V30 10620 C 992.212 4.99762 1.21417 0
M  V30 10621 N 990.194 6.07249 0.901208 0
M  V30 10622 C 991.565 6.15809 0.719638 0
M  V30 10623 C 993.62 4.85535 1.10275 0
M  V30 10624 C 992.323 7.19192 0.124669 0
M  V30 10625 C 994.349 5.89094 0.521721 0
M  V30 10626 C 993.711 7.0439 0.0375645 0
M  V30 10627 H 989.81 0.649215 0.43594 0
M  V30 10628 H 992.394 1.87525 0.523702 0
M  V30 10629 H 990.565 2.51242 2.96196 0
M  V30 10630 H 992.297 2.75996 2.95987 0
M  V30 10631 H 989.052 4.39228 1.77133 0
M  V30 10632 H 989.476 6.7424 0.610722 0
M  V30 10633 H 994.118 3.96681 1.463 0
M  V30 10634 H 991.836 8.0772 -0.247782 0
M  V30 10635 H 995.422 5.8015 0.437872 0
M  V30 10636 H 994.302 7.83154 -0.404993 0
M  V30 10637 N 991.805 -0.723954 1.39988 0
M  V30 10638 C 993.052 -1.48371 1.37812 0
M  V30 10639 C 993.38 -1.94487 -0.0223285 0
M  V30 10640 O 992.635 -1.67906 -1.00529 0
M  V30 10641 C 992.934 -2.73004 2.30659 0
M  V30 10642 C 992.6 -2.45698 3.78078 0
M  V30 10643 C 991.262 -2.37961 4.18244 0
M  V30 10644 C 993.614 -2.22601 4.71273 0
M  V30 10645 C 990.942 -2.05183 5.49652 0
M  V30 10646 C 993.294 -1.91339 6.0297 0
M  V30 10647 C 991.958 -1.82078 6.42187 0
M  V30 10648 H 991.228 -0.542929 0.504291 0
M  V30 10649 H 993.875 -0.829986 1.72579 0
M  V30 10650 H 992.18 -3.43174 1.89048 0
M  V30 10651 H 993.877 -3.31068 2.26263 0
M  V30 10652 H 990.467 -2.52603 3.46251 0
M  V30 10653 H 994.651 -2.2754 4.41066 0
M  V30 10654 H 989.907 -1.96544 5.78948 0
M  V30 10655 H 994.081 -1.72479 6.74703 0
M  V30 10656 H 991.708 -1.56446 7.43928 0
M  V30 10657 N 993.283 -1.25346 -0.955304 0
M  V30 10658 C 994.23 -1.05672 -2.05188 0
M  V30 10659 C 995.2 0.0339217 -1.66065 0
M  V30 10660 O 996.385 -0.123126 -1.90402 0
M  V30 10661 C 993.525 -0.680791 -3.38318 0
M  V30 10662 C 992.638 -1.84622 -3.90562 0
M  V30 10663 C 991.773 -1.41471 -5.12015 0
M  V30 10664 C 990.812 -2.54931 -5.56486 0
M  V30 10665 N 989.949 -2.1256 -6.69151 0
M  V30 10666 H 994.789 -1.9952 -2.2135 0
M  V30 10667 H 992.326 -0.993588 -1.08472 0
M  V30 10668 H 994.284 -0.443794 -4.14833 0
M  V30 10669 H 992.914 0.2207 -3.22045 0
M  V30 10670 H 991.966 -2.19654 -3.10574 0
M  V30 10671 H 993.278 -2.6983 -4.19515 0
M  V30 10672 H 992.432 -1.13732 -5.95945 0
M  V30 10673 H 991.171 -0.533334 -4.84775 0
M  V30 10674 H 990.176 -2.83415 -4.71122 0
M  V30 10675 H 991.401 -3.43645 -5.85734 0
M  V30 10676 H 989.347 -1.26838 -6.43621 0
M  V30 10677 H 989.264 -2.91317 -6.97618 0
M  V30 10678 H 990.532 -1.87996 -7.5649 0
M  V30 10679 N 994.761 1.15782 -1.06922 0
M  V30 10680 C 995.708 2.2038 -0.685659 0
M  V30 10681 C 996.678 1.62972 0.320816 0
M  V30 10682 O 997.863 1.8966 0.208258 0
M  V30 10683 C 995.003 3.44995 -0.084998 0
M  V30 10684 C 994.116 4.16621 -1.14242 0
M  V30 10685 C 993.251 5.28773 -0.507226 0
M  V30 10686 C 992.29 5.92209 -1.54774 0
M  V30 10687 N 991.427 6.9584 -0.935443 0
M  V30 10688 H 996.267 2.5254 -1.58201 0
M  V30 10689 H 993.804 1.24031 -0.790864 0
M  V30 10690 H 995.762 4.16254 0.280845 0
M  V30 10691 H 994.392 3.13365 0.774725 0
M  V30 10692 H 993.444 3.43903 -1.62589 0
M  V30 10693 H 994.756 4.59884 -1.93154 0
M  V30 10694 H 993.91 6.06635 -0.0887719 0
M  V30 10695 H 992.649 4.8669 0.313704 0
M  V30 10696 H 991.654 5.13063 -1.97602 0
M  V30 10697 H 992.879 6.3637 -2.37088 0
M  V30 10698 H 990.825 6.5586 -0.135339 0
M  V30 10699 H 990.742 7.37508 -1.66186 0
M  V30 10700 H 992.01 7.77611 -0.542346 0
M  V30 10701 N 996.239 0.8527 1.3254 0
M  V30 10702 C 997.487 0.454224 1.96929 0
M  V30 10703 C 997.808 -0.993034 1.67821 0
M  V30 10704 O 997.078 -1.69371 0.984393 0
M  V30 10705 H 995.658 0.164977 0.728554 0
M  V30 10706 H 998.32 1.0887 1.61658 0
M  V30 10707 H 997.416 0.597667 3.06324 0
M  V30 10708 N 997.718 -1.45297 0.610449 0
M  V30 10709 C 998.943 -2.07101 0.111414 0
M  V30 10710 C 999.368 -1.45161 -1.19625 0
M  V30 10711 O 998.726 -0.545368 -1.72903 0
M  V30 10712 C 998.774 -3.60598 -0.0117372 0
M  V30 10713 O 997.878 -3.98512 -1.06122 0
M  V30 10714 H 997.219 -0.659709 0.075364 0
M  V30 10715 H 999.749 -1.86504 0.841269 0
M  V30 10716 H 999.759 -4.07464 -0.209028 0
M  V30 10717 H 998.434 -4.05067 0.943076 0
M  V30 10718 H 997.011 -3.63312 -0.840158 0
M  V30 10719 N 999.196 -0.349774 -1.5367 0
M  V30 10720 C 1000.42 0.248692 -2.05904 0
M  V30 10721 C 1000.85 1.42942 -1.22267 0
M  V30 10722 O 1000.2 1.79732 -0.237899 0
M  V30 10723 C 1000.25 0.635639 -3.54953 0
M  V30 10724 O 999.356 1.7349 -3.74132 0
M  V30 10725 H 998.697 0.0399477 -0.662797 0
M  V30 10726 H 1001.23 -0.505795 -1.9825 0
M  V30 10727 H 1001.24 0.911064 -3.97698 0
M  V30 10728 H 999.912 -0.227805 -4.15276 0
M  V30 10729 H 998.489 1.45626 -3.43289 0
M  V30 10730 N 1000.67 1.57404 -0.0785433 0
M  V30 10731 C 1001.92 1.9292 0.588626 0
M  V30 10732 C 1002.24 0.961106 1.70359 0
M  V30 10733 O 1003.44 1.20934 2.43079 0
M  V30 10734 C 1001.9 3.42729 1.09839 0
M  V30 10735 C 1001.51 4.47998 0.0140773 0
M  V30 10736 C 1003.25 3.87235 1.73924 0
M  V30 10737 C 1001.16 5.88945 0.538269 0
M  V30 10738 H 1000.09 0.720069 0.223645 0
M  V30 10739 H 1002.74 1.8287 -0.15187 0
M  V30 10740 H 1001.12 3.47875 1.89207 0
M  V30 10741 H 1002.29 4.54476 -0.760773 0
M  V30 10742 H 1000.61 4.13001 -0.53095 0
M  V30 10743 H 1003.21 4.89927 2.14186 0
M  V30 10744 H 1003.55 3.24971 2.60191 0
M  V30 10745 H 1004.08 3.84721 1.01168 0
M  V30 10746 H 1000.82 6.5487 -0.287395 0
M  V30 10747 H 1000.34 5.85972 1.28049 0
M  V30 10748 H 1002.02 6.39028 1.01253 0
M  V30 10749 N 1002.15 -0.195058 1.56388 0
M  V30 10750 C 1003.4 -0.913636 1.8027 0
M  V30 10751 C 1003.72 -1.83791 0.651606 0
M  V30 10752 O 1002.99 -1.931 -0.330057 0
M  V30 10753 H 1001.57 -0.34036 0.664954 0
M  V30 10754 H 1004.23 -0.200559 1.93865 0
M  V30 10755 H 1003.33 -1.50473 2.7343 0
M  V30 10756 N 1003.63 -1.50653 -0.462772 0
M  V30 10757 C 1004.56 -1.66286 -1.5774 0
M  V30 10758 C 1005.57 -0.544094 -1.53439 0
M  V30 10759 O 1006.76 -0.817566 -1.58676 0
M  V30 10760 C 1003.86 -1.63893 -2.96635 0
M  V30 10761 C 1003.04 -2.91939 -3.25716 0
M  V30 10762 C 1002.1 -2.82076 -4.44206 0
M  V30 10763 O 1001.12 -3.56032 -4.44106 0
M  V30 10764 N 1002.32 -1.96196 -5.4634 0
M  V30 10765 H 1005.09 -2.6243 -1.44742 0
M  V30 10766 H 1002.65 -1.48221 -0.651326 0
M  V30 10767 H 1004.64 -1.54897 -3.73884 0
M  V30 10768 H 1003.21 -0.75449 -3.03358 0
M  V30 10769 H 1002.43 -3.14998 -2.37002 0
M  V30 10770 H 1003.72 -3.7675 -3.4196 0
M  V30 10771 H 1003.12 -1.35439 -5.49247 0
M  V30 10772 H 1001.67 -1.93097 -6.2254 0
M  V30 10773 N 1005.11 0.71652 -1.4037 0
M  V30 10774 C 1006.04 1.84012 -1.34963 0
M  V30 10775 C 1007.02 1.61102 -0.22017 0
M  V30 10776 O 1008.2 1.84127 -0.403676 0
M  V30 10777 C 1005.33 3.20334 -1.10017 0
M  V30 10778 C 1004.38 3.62072 -2.25402 0
M  V30 10779 S 1005.21 3.69295 -3.8779 0
M  V30 10780 C 1006.37 5.08378 -3.65107 0
M  V30 10781 H 1006.6 1.88318 -2.30052 0
M  V30 10782 H 1004.13 0.883208 -1.26644 0
M  V30 10783 H 1006.09 3.99042 -0.963097 0
M  V30 10784 H 1004.75 3.13662 -0.16584 0
M  V30 10785 H 1003.94 4.61051 -2.03587 0
M  V30 10786 H 1003.55 2.90619 -2.35408 0
M  V30 10787 H 1005.84 5.95268 -3.23516 0
M  V30 10788 H 1006.78 5.35228 -4.63613 0
M  V30 10789 H 1007.19 4.78927 -2.98813 0
M  V30 10790 N 1006.59 1.25851 0.948643 0
M  V30 10791 C 1007.83 1.10954 1.69397 0
M  V30 10792 C 1008.16 -0.348443 1.91353 0
M  V30 10793 O 1007.42 -1.27285 1.48651 0
M  V30 10794 C 1007.72 1.81565 3.07846 0
M  V30 10795 C 1007.38 3.31477 3.0567 0
M  V30 10796 C 1006.04 3.72371 3.04784 0
M  V30 10797 C 1008.4 4.27225 2.98543 0
M  V30 10798 C 1005.72 5.07416 2.94527 0
M  V30 10799 C 1008.08 5.62301 2.89828 0
M  V30 10800 C 1006.74 6.02516 2.87281 0
M  V30 10801 H 1006.01 0.406011 0.619868 0
M  V30 10802 H 1008.66 1.562 1.10787 0
M  V30 10803 H 1006.96 1.28767 3.70035 0
M  V30 10804 H 1008.66 1.67486 3.64348 0
M  V30 10805 H 1005.25 2.98941 3.07135 0
M  V30 10806 H 1009.43 3.96618 2.98342 0
M  V30 10807 H 1004.69 5.37746 2.90928 0
M  V30 10808 H 1008.86 6.36182 2.83276 0
M  V30 10809 H 1006.49 7.07116 2.79089 0
M  V30 10810 N 1008.06 -1.15214 1.07534 0
M  V30 10811 C 1008.97 -2.23636 0.708818 0
M  V30 10812 C 1009.99 -1.7172 -0.280759 0
M  V30 10813 O 1011.17 -2.01 -0.126927 0
M  V30 10814 C 1008.23 -3.46512 0.114167 0
M  V30 10815 C 1007.29 -4.13409 1.15722 0
M  V30 10816 C 1006.53 -5.30419 0.59085 0
M  V30 10817 O 1006.75 -5.67314 -0.592512 0
M  V30 10818 O 1005.68 -5.86871 1.33663 0
M  V30 10819 H 1009.51 -2.57322 1.61305 0
M  V30 10820 H 1007.09 -1.22972 0.848422 0
M  V30 10821 H 1008.98 -4.20851 -0.215091 0
M  V30 10822 H 1007.65 -3.1457 -0.763356 0
M  V30 10823 H 1006.56 -3.40984 1.53886 0
M  V30 10824 H 1007.89 -4.49435 2.00671 0
M  V30 10825 N 1009.54 -0.859717 -1.32086 0
M  V30 10826 C 1010.77 -0.479724 -2.01262 0
M  V30 10827 C 1011.19 0.924985 -1.64589 0
M  V30 10828 O 1010.54 1.60439 -0.869803 0
M  V30 10829 C 1010.59 -0.615128 -3.56228 0
M  V30 10830 O 1010.31 -1.96451 -3.91585 0
M  V30 10831 C 1011.82 -0.234804 -4.42678 0
M  V30 10832 H 1009.04 -0.188007 -0.644123 0
M  V30 10833 H 1011.58 -1.15805 -1.68551 0
M  V30 10834 H 1009.73 0.0155268 -3.87397 0
M  V30 10835 H 1010.15 -1.96491 -4.86304 0
M  V30 10836 H 1011.62 -0.380534 -5.50687 0
M  V30 10837 H 1012.1 0.825189 -4.31378 0
M  V30 10838 H 1012.71 -0.840739 -4.16907 0
M  V30 10839 N 1011.02 1.44971 -0.618145 0
M  V30 10840 C 1012.25 2.06527 -0.124165 0
M  V30 10841 C 1012.66 1.46097 1.19588 0
M  V30 10842 O 1012.02 0.57901 1.73071 0
M  V30 10843 C 1012.07 3.61498 0.0106701 0
M  V30 10844 O 1011.79 4.19675 -1.25716 0
M  V30 10845 C 1013.29 4.40061 0.534872 0
M  V30 10846 H 1010.51 0.666941 -0.0736935 0
M  V30 10847 H 1013.06 1.8605 -0.848871 0
M  V30 10848 H 1011.21 3.81282 0.685752 0
M  V30 10849 H 1011.63 5.12972 -1.09362 0
M  V30 10850 H 1013.1 5.48963 0.57827 0
M  V30 10851 H 1013.58 4.10587 1.55931 0
M  V30 10852 H 1014.18 4.25167 -0.10652 0
M  V30 10853 N 1012.5 0.357919 1.53482 0
M  V30 10854 C 1013.43 -0.535553 2.21827 0
M  V30 10855 C 1014.41 -1.08904 1.20742 0
M  V30 10856 O 1015.59 -1.14661 1.49616 0
M  V30 10857 C 1012.72 -1.73817 2.90698 0
M  V30 10858 C 1011.77 -1.31283 4.05792 0
M  V30 10859 S 1012.6 -0.320548 5.3454 0
M  V30 10860 C 1013.76 -1.52967 6.0692 0
M  V30 10861 H 1013.99 0.0449045 2.97266 0
M  V30 10862 H 1011.52 0.142009 1.53746 0
M  V30 10863 H 1013.48 -2.42803 3.30994 0
M  V30 10864 H 1012.14 -2.28987 2.14998 0
M  V30 10865 H 1011.33 -2.20989 4.52968 0
M  V30 10866 H 1010.94 -0.702275 3.67347 0
M  V30 10867 H 1013.23 -2.46191 6.31186 0
M  V30 10868 H 1014.17 -1.09943 6.99513 0
M  V30 10869 H 1014.58 -1.73224 5.37265 0
M  V30 10870 N 1013.98 -1.5736 0.0868897 0
M  V30 10871 C 1015.39 -1.57304 -0.269762 0
M  V30 10872 C 1015.59 -1.09745 -1.68992 0
M  V30 10873 O 1014.65 -0.77017 -2.40468 0
M  V30 10874 C 1015.96 -3.00628 -0.0656646 0
M  V30 10875 C 1017.51 -3.12713 -0.134045 0
M  V30 10876 C 1017.98 -4.57981 0.0419569 0
M  V30 10877 N 1019.48 -4.63198 -0.0131501 0
M  V30 10878 C 1020.21 -5.73316 0.0983964 0
M  V30 10879 N 1019.71 -6.92296 0.264315 0
M  V30 10880 N 1021.5 -5.62086 0.0402517 0
M  V30 10881 H 1013.65 -1.86585 1.01487 0
M  V30 10882 H 1015.91 -0.860843 0.397055 0
M  V30 10883 H 1015.62 -3.39592 0.914891 0
M  V30 10884 H 1015.49 -3.68367 -0.811522 0
M  V30 10885 H 1017.88 -2.73627 -1.1051 0
M  V30 10886 H 1017.96 -2.47582 0.643167 0
M  V30 10887 H 1017.61 -4.9776 1.00984 0
M  V30 10888 H 1017.54 -5.21162 -0.754847 0
M  V30 10889 H 1020.03 -3.77644 -0.139183 0
M  V30 10890 H 1020.34 -7.72047 0.341165 0
M  V30 10891 H 1018.68 -6.94353 0.299876 0
M  V30 10892 H 1021.88 -4.68017 -0.0881801 0
M  V30 10893 H 1022.05 -6.47868 0.130635 0
M  V30 10894 N 1015.45 0.186762 -1.56489 0
M  V30 10895 C 1016.7 0.904063 -1.80752 0
M  V30 10896 C 1017.02 1.83443 -0.661343 0
M  V30 10897 O 1016.29 1.93272 0.319811 0
M  V30 10898 H 1014.87 0.336828 -0.66675 0
M  V30 10899 H 1017.54 0.190275 -1.93969 0
M  V30 10900 H 1016.63 1.49021 -2.74225 0
M  V30 10901 N 1016.93 1.50896 0.454776 0
M  V30 10902 C 1017.9 1.70377 1.53312 0
M  V30 10903 C 1018.9 0.57408 1.50203 0
M  V30 10904 O 1020.09 0.841374 1.52534 0
M  V30 10905 C 1017.22 1.74411 2.92905 0
M  V30 10906 H 1018.41 2.66599 1.37349 0
M  V30 10907 H 1015.96 1.40622 0.68228 0
M  V30 10908 H 1016.7 0.799408 3.14293 0
M  V30 10909 H 1016.48 2.56496 2.96568 0
M  V30 10910 H 1017.97 1.91382 3.71164 0
M  V30 10911 N 1018.41 -0.709066 1.40748 0
M  V30 10912 C 1019.36 -1.82312 1.4153 0
M  V30 10913 C 1020.33 -1.63868 0.271392 0
M  V30 10914 O 1021.51 -1.8491 0.470431 0
M  V30 10915 C 1018.65 -3.2008 1.29006 0
M  V30 10916 C 1017.77 -3.50051 2.53156 0
M  V30 10917 C 1016.9 -4.7736 2.33025 0
M  V30 10918 C 1015.94 -5.00255 3.52719 0
M  V30 10919 N 1015.08 -6.18782 3.31743 0
M  V30 10920 H 1019.92 -1.80978 2.36751 0
M  V30 10921 H 1017.45 -0.883975 1.17577 0
M  V30 10922 H 1019.41 -3.99645 1.19749 0
M  V30 10923 H 1018.04 -3.20626 0.374014 0
M  V30 10924 H 1017.09 -2.64993 2.72916 0
M  V30 10925 H 1018.41 -3.62877 3.42231 0
M  V30 10926 H 1017.56 -5.64954 2.21159 0
M  V30 10927 H 1016.3 -4.66756 1.41386 0
M  V30 10928 H 1015.3 -4.11114 3.65055 0
M  V30 10929 H 1016.53 -5.12728 4.45295 0
M  V30 10930 H 1014.47 -6.09416 2.42791 0
M  V30 10931 H 1014.39 -6.32313 4.14386 0
M  V30 10932 H 1015.66 -7.09146 3.23623 0
M  V30 10933 N 1019.89 -1.26353 -0.941956 0
M  V30 10934 C 1021.31 -1.03448 -1.21534 0
M  V30 10935 C 1021.51 0.240855 -2.00055 0
M  V30 10936 O 1020.56 0.950199 -2.33939 0
M  V30 10937 C 1021.87 -2.2654 -1.97737 0
M  V30 10938 C 1023.42 -2.31433 -2.10731 0
M  V30 10939 C 1023.9 -3.54216 -2.90336 0
M  V30 10940 N 1025.39 -3.54688 -2.9791 0
M  V30 10941 C 1026.12 -4.4636 -3.59931 0
M  V30 10942 N 1025.62 -5.48319 -4.2346 0
M  V30 10943 N 1027.41 -4.34013 -3.57196 0
M  V30 10944 H 1019.56 -2.08266 -0.417005 0
M  V30 10945 H 1021.83 -0.915251 -0.247021 0
M  V30 10946 H 1021.53 -3.19299 -1.47449 0
M  V30 10947 H 1021.41 -2.30726 -2.98405 0
M  V30 10948 H 1023.79 -1.3919 -2.60212 0
M  V30 10949 H 1023.87 -2.31259 -1.09329 0
M  V30 10950 H 1023.52 -4.46788 -2.41543 0
M  V30 10951 H 1023.45 -3.51637 -3.91993 0
M  V30 10952 H 1025.94 -2.80942 -2.52745 0
M  V30 10953 H 1026.25 -6.14458 -4.6868 0
M  V30 10954 H 1024.6 -5.52177 -4.22049 0
M  V30 10955 H 1027.79 -3.53578 -3.06758 0
M  V30 10956 H 1027.96 -5.0565 -4.05244 0
M  V30 10957 N 1021.37 1.14642 -1.08144 0
M  V30 10958 C 1022.3 2.18656 -0.653066 0
M  V30 10959 C 1023.28 1.59137 0.333803 0
M  V30 10960 O 1024.46 1.86988 0.238305 0
M  V30 10961 C 1021.59 3.38677 0.0398337 0
M  V30 10962 C 1020.64 4.1675 -0.906755 0
M  V30 10963 S 1021.47 4.78103 -2.41201 0
M  V30 10964 C 1022.62 6.01483 -1.73115 0
M  V30 10965 H 1022.86 2.54654 -1.53423 0
M  V30 10966 H 1020.39 1.25731 -0.896162 0
M  V30 10967 H 1022.35 4.08206 0.43334 0
M  V30 10968 H 1021.01 3.01006 0.897457 0
M  V30 10969 H 1020.2 5.02649 -0.368795 0
M  V30 10970 H 1019.8 3.52809 -1.24103 0
M  V30 10971 H 1022.1 6.69353 -1.04752 0
M  V30 10972 H 1023.04 6.59863 -2.56878 0
M  V30 10973 H 1023.45 5.51474 -1.20566 0
M  V30 10974 N 1022.85 0.866709 1.31628 0
M  V30 10975 C 1023.81 0.325041 2.26883 0
M  V30 10976 C 1024.81 -0.522133 1.52087 0
M  V30 10977 O 1026 -0.331908 1.71009 0
M  V30 10978 C 1023.13 -0.538756 3.36616 0
M  V30 10979 H 1024.32 1.16592 2.76308 0
M  V30 10980 H 1021.88 0.642029 1.42505 0
M  V30 10981 H 1022.61 -1.40096 2.92478 0
M  V30 10982 H 1022.4 0.0678115 3.92041 0
M  V30 10983 H 1023.89 -0.910123 4.07562 0
M  V30 10984 N 1024.32 -1.44642 0.625825 0
M  V30 10985 C 1025.57 -2.01308 0.125682 0
M  V30 10986 C 1025.89 -1.49773 -1.25807 0
M  V30 10987 O 1027.09 -1.98533 -1.85194 0
M  V30 10988 C 1025.55 -3.59479 0.17395 0
M  V30 10989 C 1025.16 -4.20011 1.55868 0
M  V30 10990 C 1026.9 -4.2364 -0.270005 0
M  V30 10991 C 1024.81 -5.7039 1.56235 0
M  V30 10992 H 1023.74 -0.75276 0.0432194 0
M  V30 10993 H 1026.39 -1.65916 0.783842 0
M  V30 10994 H 1024.77 -3.92145 -0.551212 0
M  V30 10995 H 1025.94 -3.98891 2.307 0
M  V30 10996 H 1024.26 -3.68116 1.94627 0
M  V30 10997 H 1026.86 -5.33931 -0.28672 0
M  V30 10998 H 1027.2 -3.95603 -1.29629 0
M  V30 10999 H 1027.73 -3.95759 0.402487 0
M  V30 11000 H 1024.47 -6.03154 2.56683 0
M  V30 11001 H 1023.99 -5.93648 0.856881 0
M  V30 11002 H 1025.67 -6.33929 1.29396 0
M  V30 11003 N 1025.8 -0.366053 -1.5329 0
M  V30 11004 C 1026.73 0.47211 -2.28677 0
M  V30 11005 C 1027.71 1.08353 -1.31125 0
M  V30 11006 O 1028.9 1.10069 -1.59995 0
M  V30 11007 C 1026.03 1.61174 -3.07637 0
M  V30 11008 C 1024.98 1.12755 -4.12881 0
M  V30 11009 C 1024.31 2.35745 -4.79925 0
M  V30 11010 C 1025.61 0.211954 -5.2187 0
M  V30 11011 H 1027.3 -0.156838 -2.98989 0
M  V30 11012 H 1024.85 -0.0768709 -1.43795 0
M  V30 11013 H 1026.8 2.20473 -3.59123 0
M  V30 11014 H 1025.52 2.26793 -2.35016 0
M  V30 11015 H 1024.18 0.557234 -3.6234 0
M  V30 11016 H 1023.83 2.99821 -4.03877 0
M  V30 11017 H 1023.53 2.04019 -5.51044 0
M  V30 11018 H 1025.06 2.95729 -5.34207 0
M  V30 11019 H 1026.47 0.71244 -5.68856 0
M  V30 11020 H 1024.87 -0.0144501 -6.00098 0
M  V30 11021 H 1025.94 -0.745753 -4.79131 0
M  V30 11022 N 1027.28 1.57312 -0.0952337 0
M  V30 11023 C 1028.53 1.93974 0.567319 0
M  V30 11024 C 1028.85 0.977805 1.68713 0
M  V30 11025 O 1028.12 0.0298944 1.95877 0
M  V30 11026 H 1026.7 0.71612 0.212558 0
M  V30 11027 H 1029.36 1.94254 -0.158598 0
M  V30 11028 H 1028.46 2.964 0.977423 0
M  V30 11029 N 1028.76 -0.17846 1.56586 0
M  V30 11030 C 1030.03 -0.923096 1.72448 0
M  V30 11031 C 1030.41 -2.00692 0.654659 0
M  V30 11032 O 1029.76 -2.26079 -0.33171 0
M  V30 11033 C 1029.97 -1.49435 3.15389 0
M  V30 11034 C 1031.32 -1.97005 3.76131 0
M  V30 11035 O 1032.34 -1.59244 3.18622 0
M  V30 11036 O 1031.2 -2.66541 4.77094 0
M  V30 11037 H 1028.3 -0.434009 0.703964 0
M  V30 11038 H 1030.84 -0.16685 1.68878 0
M  V30 11039 H 1029.62 -0.713933 3.84732 0
M  V30 11040 H 1029.24 -2.31498 3.23256 0
M  V30 11041 N 1030.24 -1.51135 -0.446768 0
M  V30 11042 C 1031.46 -1.67129 -1.21965 0
M  V30 11043 C 1031.88 -0.36467 -1.85245 0
M  V30 11044 O 1031.24 0.655908 -1.70306 0
M  V30 11045 C 1031.29 -2.78016 -2.31061 0
M  V30 11046 O 1031.01 -4.03615 -1.70371 0
M  V30 11047 C 1032.51 -3.05197 -3.21511 0
M  V30 11048 H 1029.73 -0.561111 -0.367961 0
M  V30 11049 H 1032.27 -1.97499 -0.530517 0
M  V30 11050 H 1030.43 -2.50272 -2.95707 0
M  V30 11051 H 1030.84 -4.65126 -2.424 0
M  V30 11052 H 1032.32 -3.8639 -3.94216 0
M  V30 11053 H 1032.79 -2.17228 -3.81718 0
M  V30 11054 H 1033.4 -3.34565 -2.62577 0
M  V30 11055 N 1031.71 0.701592 -1.41122 0
M  V30 11056 C 1032.68 1.79733 -1.42227 0
M  V30 11057 C 1033.68 1.57708 -0.313831 0
M  V30 11058 O 1034.87 1.64492 -0.573423 0
M  V30 11059 C 1032 3.18024 -1.22775 0
M  V30 11060 H 1033.19 1.80148 -2.39764 0
M  V30 11061 H 1030.74 0.908624 -1.27176 0
M  V30 11062 H 1031.48 3.23252 -0.260552 0
M  V30 11063 H 1031.26 3.35411 -2.0308 0
M  V30 11064 H 1032.75 3.98021 -1.2637 0
M  V30 11065 N 1033.19 1.2685 0.935242 0
M  V30 11066 C 1034.44 1.13921 1.68504 0
M  V30 11067 C 1034.79 -0.313201 1.89834 0
M  V30 11068 O 1034.09 -1.22626 1.47219 0
M  V30 11069 C 1034.28 1.8482 3.05903 0
M  V30 11070 C 1034.11 3.36806 2.9798 0
M  V30 11071 C 1032.88 4.06109 3.00672 0
M  V30 11072 C 1035.08 4.32904 2.77667 0
M  V30 11073 N 1033.06 5.44722 2.83111 0
M  V30 11074 C 1034.43 5.58732 2.68735 0
M  V30 11075 C 1036.48 4.23084 2.62496 0
M  V30 11076 C 1035.19 6.75861 2.4618 0
M  V30 11077 C 1037.21 5.39926 2.41317 0
M  V30 11078 C 1036.58 6.64706 2.33121 0
M  V30 11079 H 1032.67 0.471689 0.623725 0
M  V30 11080 H 1035.26 1.60217 1.10628 0
M  V30 11081 H 1033.43 1.40989 3.61907 0
M  V30 11082 H 1035.16 1.64461 3.69777 0
M  V30 11083 H 1031.92 3.57516 3.10611 0
M  V30 11084 H 1032.34 6.17522 2.77481 0
M  V30 11085 H 1036.98 3.27341 2.67596 0
M  V30 11086 H 1034.7 7.71694 2.39821 0
M  V30 11087 H 1038.29 5.34203 2.30475 0
M  V30 11088 H 1037.17 7.53592 2.16952 0
M  V30 11089 N 1034.67 -1.14067 1.0875 0
M  V30 11090 C 1035.95 -1.81389 0.73195 0
M  V30 11091 C 1036.33 -1.96005 -0.78391 0
M  V30 11092 O 1035.68 -1.52267 -1.70373 0
M  V30 11093 C 1035.89 -3.16858 1.46294 0
M  V30 11094 C 1037.23 -3.92305 1.62426 0
M  V30 11095 O 1038.26 -3.26459 1.42488 0
M  V30 11096 O 1037.12 -5.10393 1.9535 0
M  V30 11097 H 1034.21 -0.784354 0.262141 0
M  V30 11098 H 1036.76 -1.21054 1.18929 0
M  V30 11099 H 1035.53 -3.01404 2.49542 0
M  V30 11100 H 1035.15 -3.84889 0.997318 0
M  V30 11101 N 1036.15 -0.873678 -1.31166 0
M  V30 11102 C 1037.4 -0.486457 -1.9657 0
M  V30 11103 C 1037.72 0.962042 -1.69041 0
M  V30 11104 O 1036.98 1.69305 -0.981543 0
M  V30 11105 C 1037.28 -0.69462 -3.50585 0
M  V30 11106 C 1036.94 -2.11647 -3.98141 0
M  V30 11107 C 1035.61 -2.50531 -4.10838 0
M  V30 11108 C 1037.96 -3.0436 -4.23101 0
M  V30 11109 C 1035.29 -3.81361 -4.45848 0
M  V30 11110 C 1037.64 -4.34709 -4.59577 0
M  V30 11111 C 1036.3 -4.73502 -4.70481 0
M  V30 11112 H 1035.57 -0.178007 -0.719301 0
M  V30 11113 H 1038.22 -1.10737 -1.56235 0
M  V30 11114 H 1036.52 0.00940878 -3.91799 0
M  V30 11115 H 1038.22 -0.374782 -3.99245 0
M  V30 11116 H 1034.81 -1.8046 -3.88757 0
M  V30 11117 H 1038.99 -2.75544 -4.12782 0
M  V30 11118 H 1034.25 -4.11174 -4.52488 0
M  V30 11119 H 1038.42 -5.06596 -4.77842 0
M  V30 11120 H 1036.05 -5.74919 -4.97365 0
M  V30 11121 N 1037.63 1.44308 -0.633487 0
M  V30 11122 C 1038.87 2.01624 -0.138643 0
M  V30 11123 C 1039.2 1.50101 1.24477 0
M  V30 11124 O 1038.47 0.705575 1.82752 0
M  V30 11125 H 1037.05 0.745439 -0.0482636 0
M  V30 11126 H 1039.71 1.76777 -0.820719 0
M  V30 11127 H 1038.8 3.11913 -0.108136 0
M  V30 11128 N 1039.1 0.374177 1.53094 0
M  V30 11129 C 1040.33 -0.215903 2.06273 0
M  V30 11130 C 1040.75 -1.40979 1.24526 0
M  V30 11131 O 1040.11 -1.79331 0.266462 0
M  V30 11132 C 1040.16 -0.579089 3.5592 0
M  V30 11133 O 1039.26 -1.67516 3.76845 0
M  V30 11134 H 1038.61 -0.0293981 0.663349 0
M  V30 11135 H 1041.14 0.537271 1.9742 0
M  V30 11136 H 1041.15 -0.847678 3.99097 0
M  V30 11137 H 1039.82 0.293843 4.14861 0
M  V30 11138 H 1038.4 -1.40146 3.45563 0
M  V30 11139 N 1040.58 -1.57259 0.103575 0
M  V30 11140 C 1041.51 -2.17509 -0.84923 0
M  V30 11141 C 1042.49 -1.11079 -1.28824 0
M  V30 11142 O 1043.68 -1.39252 -1.35361 0
M  V30 11143 C 1040.81 -2.76221 -2.10522 0
M  V30 11144 C 1039.76 -3.88098 -1.80454 0
M  V30 11145 C 1039.09 -4.33549 -3.12952 0
M  V30 11146 C 1040.39 -5.10909 -1.08486 0
M  V30 11147 H 1042.08 -2.9738 -0.347217 0
M  V30 11148 H 1039.63 -1.43045 -0.165568 0
M  V30 11149 H 1041.58 -3.17024 -2.77621 0
M  V30 11150 H 1040.31 -1.93617 -2.63021 0
M  V30 11151 H 1038.96 -3.47847 -1.15749 0
M  V30 11152 H 1038.61 -3.47825 -3.63355 0
M  V30 11153 H 1038.31 -5.08984 -2.93614 0
M  V30 11154 H 1039.84 -4.76992 -3.81196 0
M  V30 11155 H 1041.25 -5.48828 -1.65711 0
M  V30 11156 H 1039.65 -5.91828 -0.992973 0
M  V30 11157 H 1040.72 -4.84851 -0.0690108 0
M  V30 11158 N 1042.06 0.170153 -1.56679 0
M  V30 11159 C 1043.31 0.884841 -1.817 0
M  V30 11160 C 1043.63 1.82731 -0.680763 0
M  V30 11161 O 1042.9 1.936 0.299294 0
M  V30 11162 H 1041.48 0.329738 -0.670285 0
M  V30 11163 H 1044.14 0.169691 -1.9416 0
M  V30 11164 H 1043.24 1.46104 -2.7579 0
M  V30 11165 N 1043.54 1.5137 0.438746 0
M  V30 11166 C 1044.79 1.63645 1.18595 0
M  V30 11167 C 1045.11 0.354241 1.91755 0
M  V30 11168 O 1044.38 -0.629838 1.85499 0
M  V30 11169 H 1042.96 0.603103 0.440767 0
M  V30 11170 H 1045.62 1.88293 0.503159 0
M  V30 11171 H 1044.72 2.46342 1.9163 0
M  V30 11172 N 1045.02 -0.694098 1.41492 0
M  V30 11173 C 1046.26 -1.4563 1.41137 0
M  V30 11174 C 1046.6 -1.94189 0.0208428 0
M  V30 11175 O 1045.87 -1.69628 -0.951655 0
M  V30 11176 C 1046.15 -2.66714 2.41941 0
M  V30 11177 C 1046.01 -2.23912 3.90107 0
M  V30 11178 C 1047.33 -3.68913 2.39981 0
M  V30 11179 H 1044.44 -0.52821 0.513968 0
M  V30 11180 H 1047.09 -0.790437 1.72778 0
M  V30 11181 H 1045.24 -3.23525 2.1509 0
M  V30 11182 H 1046.91 -1.72417 4.27867 0
M  V30 11183 H 1045.15 -1.5568 4.04903 0
M  V30 11184 H 1045.82 -3.108 4.56188 0
M  V30 11185 H 1048.3 -3.21779 2.63813 0
M  V30 11186 H 1047.17 -4.51242 3.12524 0
M  V30 11187 H 1047.44 -4.18711 1.41892 0
M  V30 11188 N 1046.49 -1.27344 -0.928501 0
M  V30 11189 C 1047.74 -1.13635 -1.6761 0
M  V30 11190 C 1048.07 0.317957 -1.91884 0
M  V30 11191 O 1047.32 1.24904 -1.50657 0
M  V30 11192 C 1047.62 -1.86439 -3.04918 0
M  V30 11193 C 1047.29 -3.36298 -3.00358 0
M  V30 11194 C 1045.95 -3.77173 -2.98821 0
M  V30 11195 C 1048.3 -4.31921 -2.91708 0
M  V30 11196 C 1045.63 -5.12037 -2.86417 0
M  V30 11197 C 1047.98 -5.66841 -2.80846 0
M  V30 11198 C 1046.65 -6.07011 -2.77659 0
M  V30 11199 H 1045.92 -0.415821 -0.61333 0
M  V30 11200 H 1048.56 -1.57943 -1.08288 0
M  V30 11201 H 1046.87 -1.34638 -3.6794 0
M  V30 11202 H 1048.57 -1.73261 -3.61637 0
M  V30 11203 H 1045.16 -3.0379 -3.0234 0
M  V30 11204 H 1049.34 -4.01314 -2.91994 0
M  V30 11205 H 1044.6 -5.42307 -2.82336 0
M  V30 11206 H 1048.77 -6.40608 -2.73119 0
M  V30 11207 H 1046.4 -7.11467 -2.67804 0
M  V30 11208 N 1047.97 1.13488 -1.09353 0
M  V30 11209 C 1049.2 1.88592 -0.850915 0
M  V30 11210 C 1049.62 1.79087 0.597761 0
M  V30 11211 O 1048.97 1.15695 1.41142 0
M  V30 11212 C 1049.02 3.38219 -1.27633 0
M  V30 11213 O 1048.74 3.47476 -2.66819 0
M  V30 11214 C 1050.25 4.30293 -1.06598 0
M  V30 11215 H 1047.47 0.597069 -0.306185 0
M  V30 11216 H 1050.01 1.43668 -1.45533 0
M  V30 11217 H 1048.16 3.80729 -0.715828 0
M  V30 11218 H 1048.58 4.40485 -2.84733 0
M  V30 11219 H 1050.05 5.33611 -1.41293 0
M  V30 11220 H 1050.53 4.392 -0.0037135 0
M  V30 11221 H 1051.14 3.9355 -1.6124 0
M  V30 11222 N 1049.45 0.880621 1.30701 0
M  V30 11223 C 1050.68 0.510909 2.01009 0
M  V30 11224 C 1051.1 -0.892041 1.65603 0
M  V30 11225 O 1050.46 -1.59045 0.870309 0
M  V30 11226 C 1050.51 0.687759 3.53981 0
M  V30 11227 O 1049.61 -0.268275 4.11526 0
M  V30 11228 H 1048.95 0.201864 0.632572 0
M  V30 11229 H 1051.48 1.18697 1.6665 0
M  V30 11230 H 1051.49 0.585095 4.03783 0
M  V30 11231 H 1050.17 1.71068 3.79089 0
M  V30 11232 H 1048.74 -0.119673 3.72708 0
M  V30 11233 N 1050.93 -1.4397 0.641131 0
M  V30 11234 C 1052.18 -2.01163 0.147026 0
M  V30 11235 C 1052.49 -1.51099 -1.24211 0
M  V30 11236 O 1053.7 -2.00487 -1.83078 0
M  V30 11237 C 1052.15 -3.59275 0.212068 0
M  V30 11238 C 1051.76 -4.18334 1.60314 0
M  V30 11239 C 1053.51 -4.23903 -0.225057 0
M  V30 11240 C 1051.41 -5.68701 1.62276 0
M  V30 11241 H 1050.34 -0.75226 0.051201 0
M  V30 11242 H 1052.99 -1.65075 0.801396 0
M  V30 11243 H 1051.38 -3.92708 -0.509589 0
M  V30 11244 H 1052.55 -3.96422 2.34918 0
M  V30 11245 H 1050.86 -3.66031 1.9852 0
M  V30 11246 H 1053.46 -5.34205 -0.230074 0
M  V30 11247 H 1053.8 -3.96956 -1.25426 0
M  V30 11248 H 1054.34 -3.95309 0.44444 0
M  V30 11249 H 1051.08 -6.00397 2.63066 0
M  V30 11250 H 1050.6 -5.92705 0.919797 0
M  V30 11251 H 1052.28 -6.32521 1.36112 0
M  V30 11252 N 1052.41 -0.382291 -1.52893 0
M  V30 11253 C 1053.66 0.201734 -2.01091 0
M  V30 11254 C 1053.98 1.47905 -1.2708 0
M  V30 11255 O 1053.25 1.92002 -0.38883 0
M  V30 11256 H 1051.83 0.0775373 -0.742965 0
M  V30 11257 H 1054.49 -0.512369 -1.88045 0
M  V30 11258 H 1053.58 0.416919 -3.09303 0
M  V30 11259 N 1053.89 1.57202 -0.111913 0
M  V30 11260 C 1054.83 2.14936 0.840908 0
M  V30 11261 C 1055.8 1.07242 1.2684 0
M  V30 11262 O 1056.99 1.35114 1.34718 0
M  V30 11263 C 1054.13 2.74743 2.0883 0
M  V30 11264 C 1053.24 3.96723 1.70982 0
M  V30 11265 C 1052.38 4.4464 2.90634 0
M  V30 11266 C 1051.41 5.59169 2.48992 0
M  V30 11267 N 1050.55 6.01862 3.61534 0
M  V30 11268 H 1055.39 2.96034 0.341735 0
M  V30 11269 H 1052.93 1.4626 0.156993 0
M  V30 11270 H 1054.89 3.07546 2.81907 0
M  V30 11271 H 1053.52 1.96346 2.56218 0
M  V30 11272 H 1052.57 3.70127 0.878072 0
M  V30 11273 H 1053.88 4.79795 1.36373 0
M  V30 11274 H 1053.03 4.79315 3.71944 0
M  V30 11275 H 1051.77 3.60503 3.28464 0
M  V30 11276 H 1050.78 5.24106 1.66113 0
M  V30 11277 H 1052 6.45067 2.12287 0
M  V30 11278 H 1049.95 5.20667 3.99051 0
M  V30 11279 H 1049.87 6.79772 3.30827 0
M  V30 11280 H 1051.13 6.41172 4.43305 0
M  V30 11281 N 1055.36 -0.161842 1.56767 0
M  V30 11282 C 1056.33 -1.18404 1.96247 0
M  V30 11283 C 1057.33 -1.3667 0.84722 0
M  V30 11284 O 1058.52 -1.33915 1.11411 0
M  V30 11285 C 1055.65 -2.54728 2.26553 0
M  V30 11286 H 1056.84 -0.845703 2.87729 0
M  V30 11287 H 1054.39 -0.404645 1.50971 0
M  V30 11288 H 1055.13 -2.93559 1.37816 0
M  V30 11289 H 1054.91 -2.42834 3.07854 0
M  V30 11290 H 1056.4 -3.28378 2.57987 0
M  V30 11291 N 1056.84 -1.516 -0.430713 0
M  V30 11292 C 1057.77 -1.76342 -1.53054 0
M  V30 11293 C 1058.75 -0.61349 -1.58652 0
M  V30 11294 O 1059.94 -0.856888 -1.74273 0
M  V30 11295 C 1057.07 -1.8945 -2.91077 0
M  V30 11296 C 1056.02 -3.04928 -3.00339 0
M  V30 11297 C 1055.35 -3.03228 -4.40405 0
M  V30 11298 C 1056.65 -4.44777 -2.73808 0
M  V30 11299 H 1058.34 -2.68435 -1.326 0
M  V30 11300 H 1055.89 -1.29171 -0.636466 0
M  V30 11301 H 1057.84 -2.05343 -3.67984 0
M  V30 11302 H 1056.56 -0.940114 -3.12777 0
M  V30 11303 H 1055.22 -2.88751 -2.25872 0
M  V30 11304 H 1054.87 -2.05553 -4.59083 0
M  V30 11305 H 1054.57 -3.80776 -4.47531 0
M  V30 11306 H 1056.1 -3.21222 -5.19277 0
M  V30 11307 H 1057.51 -4.6127 -3.40445 0
M  V30 11308 H 1055.91 -5.2408 -2.92335 0
M  V30 11309 H 1056.98 -4.54358 -1.69372 0
M  V30 11310 N 1058.32 0.686584 -1.41858 0
M  V30 11311 C 1059.27 1.79271 -1.40875 0
M  V30 11312 C 1060.25 1.58413 -0.281782 0
M  V30 11313 O 1061.45 1.69093 -0.523132 0
M  V30 11314 C 1058.57 3.17647 -1.30213 0
M  V30 11315 C 1057.66 3.44168 -2.47808 0
M  V30 11316 N 1058.05 3.41339 -3.73258 0
M  V30 11317 C 1056.35 3.74755 -2.41815 0
M  V30 11318 C 1057.05 3.67016 -4.51303 0
M  V30 11319 N 1056.03 3.87203 -3.81543 0
M  V30 11320 H 1059.83 1.75459 -2.35778 0
M  V30 11321 H 1057.34 0.886946 -1.36041 0
M  V30 11322 H 1059.34 3.96896 -1.2759 0
M  V30 11323 H 1058 3.22664 -0.363021 0
M  V30 11324 H 1059.01 3.21511 -4.06018 0
M  V30 11325 H 1055.69 3.87089 -1.56423 0
M  V30 11326 H 1057.08 3.70888 -5.6026 0
M  V30 11327 N 1059.8 1.27835 0.921735 0
M  V30 11328 C 1060.73 1.06874 2.02758 0
M  V30 11329 C 1061.74 0.0229418 1.62784 0
M  V30 11330 O 1062.93 0.265145 1.7652 0
M  V30 11331 C 1060.03 0.60037 3.3354 0
M  V30 11332 C 1059.2 1.71979 4.02172 0
M  V30 11333 C 1058.26 1.24615 5.11231 0
M  V30 11334 O 1057.29 1.94692 5.34868 0
M  V30 11335 N 1058.49 0.105021 5.80405 0
M  V30 11336 H 1061.26 2.02105 2.213 0
M  V30 11337 H 1058.82 1.19481 1.09251 0
M  V30 11338 H 1060.81 0.267281 4.03816 0
M  V30 11339 H 1059.38 -0.258872 3.11526 0
M  V30 11340 H 1058.6 2.22287 3.25549 0
M  V30 11341 H 1059.89 2.47092 4.44773 0
M  V30 11342 H 1059.29 -0.479745 5.63662 0
M  V30 11343 H 1057.84 -0.168846 6.51581 0
M  V30 11344 N 1061.28 -1.12907 1.09954 0
M  V30 11345 C 1062.52 -1.84579 0.840155 0
M  V30 11346 C 1062.85 -1.83605 -0.632692 0
M  V30 11347 O 1062.13 -1.27803 -1.46617 0
M  V30 11348 C 1062.41 -3.32489 1.38286 0
M  V30 11349 C 1062.27 -3.41946 2.92221 0
M  V30 11350 C 1063.58 -4.28091 1.0211 0
M  V30 11351 H 1060.7 -0.670169 0.306663 0
M  V30 11352 H 1063.35 -1.3249 1.36185 0
M  V30 11353 H 1061.5 -3.76978 0.939123 0
M  V30 11354 H 1063.17 -3.06128 3.45085 0
M  V30 11355 H 1061.41 -2.8265 3.29077 0
M  V30 11356 H 1062.08 -4.45983 3.25274 0
M  V30 11357 H 1064.56 -3.91701 1.4039 0
M  V30 11358 H 1063.43 -5.30005 1.42781 0
M  V30 11359 H 1063.69 -4.42044 -0.0700753 0
M  V30 11360 N 1062.75 -0.88754 -1.30232 0
M  V30 11361 C 1064 -0.507279 -1.96043 0
M  V30 11362 C 1064.33 0.944059 -1.70052 0
M  V30 11363 O 1063.58 1.68255 -0.999444 0
M  V30 11364 C 1063.88 -0.731765 -3.49828 0
M  V30 11365 C 1063.55 -2.15858 -3.95874 0
M  V30 11366 C 1062.21 -2.54875 -4.08157 0
M  V30 11367 C 1064.56 -3.0883 -4.19849 0
M  V30 11368 C 1061.89 -3.86069 -4.41778 0
M  V30 11369 C 1064.24 -4.39559 -4.5494 0
M  V30 11370 C 1062.91 -4.78465 -4.65432 0
M  V30 11371 H 1062.18 -0.185627 -0.717373 0
M  V30 11372 H 1064.82 -1.12388 -1.55052 0
M  V30 11373 H 1063.13 -0.0321473 -3.91787 0
M  V30 11374 H 1064.83 -0.417107 -3.98825 0
M  V30 11375 H 1061.42 -1.84574 -3.86821 0
M  V30 11376 H 1065.6 -2.79906 -4.09837 0
M  V30 11377 H 1060.86 -4.1595 -4.48102 0
M  V30 11378 H 1065.03 -5.11636 -4.72442 0
M  V30 11379 H 1062.66 -5.80162 -4.91239 0
M  V30 11380 N 1064.23 1.43628 -0.648757 0
M  V30 11381 C 1065.48 2.01465 -0.16002 0
M  V30 11382 C 1065.8 1.51413 1.22878 0
M  V30 11383 O 1065.07 0.724919 1.81994 0
M  V30 11384 H 1063.65 0.744885 -0.0561672 0
M  V30 11385 H 1066.31 1.75897 -0.839422 0
M  V30 11386 H 1065.41 3.1178 -0.141213 0
M  V30 11387 N 1065.71 0.390394 1.52688 0
M  V30 11388 C 1066.67 -0.432149 2.25089 0
M  V30 11389 C 1067.67 -0.989296 1.26766 0
M  V30 11390 O 1068.86 -0.871126 1.50854 0
M  V30 11391 C 1066 -1.60642 3.00678 0
M  V30 11392 H 1067.19 0.201734 2.99221 0
M  V30 11393 H 1064.74 0.142531 1.55649 0
M  V30 11394 H 1065.48 -2.2777 2.3085 0
M  V30 11395 H 1065.26 -1.21361 3.72846 0
M  V30 11396 H 1066.75 -2.18873 3.55647 0
M  V30 11397 N 1067.19 -1.57141 0.120249 0
M  V30 11398 C 1068.44 -1.94413 -0.53727 0
M  V30 11399 C 1068.75 -1.00594 -1.67751 0
M  V30 11400 O 1069.96 -1.27336 -2.39787 0
M  V30 11401 C 1068.41 -3.45521 -1.00714 0
M  V30 11402 C 1068.02 -4.47878 0.104706 0
M  V30 11403 C 1069.76 -3.9171 -1.63596 0
M  V30 11404 C 1067.67 -5.90165 -0.381932 0
M  V30 11405 H 1066.6 -0.725745 -0.204475 0
M  V30 11406 H 1069.25 -1.82404 0.200302 0
M  V30 11407 H 1067.63 -3.52769 -1.79917 0
M  V30 11408 H 1068.81 -4.523 0.881002 0
M  V30 11409 H 1067.12 -4.11448 0.640264 0
M  V30 11410 H 1069.72 -4.95433 -2.01122 0
M  V30 11411 H 1070.06 -3.31756 -2.51483 0
M  V30 11412 H 1070.6 -3.87268 -0.909319 0
M  V30 11413 H 1067.34 -6.53877 0.460921 0
M  V30 11414 H 1066.86 -5.89161 -1.12468 0
M  V30 11415 H 1068.53 -6.41488 -0.842748 0
M  V30 11416 N 1068.67 0.153526 -1.5685 0
M  V30 11417 C 1069.9 0.881055 -1.86872 0
M  V30 11418 C 1070.3 1.75547 -0.705692 0
M  V30 11419 O 1069.65 1.8064 0.333888 0
M  V30 11420 C 1069.71 1.79429 -3.11521 0
M  V30 11421 C 1069.37 1.0977 -4.43621 0
M  V30 11422 C 1070.37 0.454693 -5.17908 0
M  V30 11423 C 1068.06 1.08915 -4.9035 0
M  V30 11424 C 1070.05 -0.187562 -6.37124 0
M  V30 11425 C 1067.74 0.443084 -6.09492 0
M  V30 11426 C 1068.73 -0.194154 -6.82724 0
M  V30 11427 O 1068.42 -0.829995 -7.99604 0
M  V30 11428 H 1068.15 0.260486 -0.623797 0
M  V30 11429 H 1070.71 0.153024 -2.04829 0
M  V30 11430 H 1068.94 2.5631 -2.89555 0
M  V30 11431 H 1070.63 2.39321 -3.27842 0
M  V30 11432 H 1071.39 0.453151 -4.82878 0
M  V30 11433 H 1067.27 1.57456 -4.33276 0
M  V30 11434 H 1070.82 -0.685542 -6.94223 0
M  V30 11435 H 1066.71 0.44227 -6.43983 0
M  V30 11436 H 1067.48 -0.731013 -8.15229 0
M  V30 11437 N 1070.14 1.51827 0.422667 0
M  V30 11438 C 1071.39 1.64893 1.16853 0
M  V30 11439 C 1071.71 0.37456 1.91369 0
M  V30 11440 O 1070.98 -0.610128 1.86157 0
M  V30 11441 H 1069.56 0.607744 0.434345 0
M  V30 11442 H 1072.23 1.88816 0.483159 0
M  V30 11443 H 1071.32 2.48361 1.89006 0
M  V30 11444 N 1071.62 -0.679052 1.4222 0
M  V30 11445 C 1072.59 -1.77448 1.45069 0
M  V30 11446 C 1073.59 -1.57189 0.338882 0
M  V30 11447 O 1074.78 -1.63559 0.599519 0
M  V30 11448 C 1071.91 -3.1603 1.27819 0
M  V30 11449 H 1073.1 -1.7631 2.426 0
M  V30 11450 H 1070.65 -0.888277 1.28605 0
M  V30 11451 H 1071.39 -3.22796 0.311946 0
M  V30 11452 H 1071.17 -3.32138 2.08391 0
M  V30 11453 H 1072.66 -3.9596 1.32686 0
M  V30 11454 N 1073.1 -1.28322 -0.914942 0
M  V30 11455 C 1074.06 -1.12169 -1.99877 0
M  V30 11456 C 1075.06 -0.0617252 -1.60681 0
M  V30 11457 O 1076.25 -0.307405 -1.71466 0
M  V30 11458 C 1073.39 -0.711959 -3.33383 0
M  V30 11459 H 1074.58 -2.08425 -2.15636 0
M  V30 11460 H 1072.13 -1.11291 -1.09745 0
M  V30 11461 H 1072.87 0.251418 -3.23324 0
M  V30 11462 H 1072.65 -1.47764 -3.63192 0
M  V30 11463 H 1074.14 -0.621558 -4.12948 0
M  V30 11464 N 1074.58 1.12322 -1.10551 0
M  V30 11465 C 1075.83 1.83858 -0.848674 0
M  V30 11466 C 1076.15 1.84159 0.62575 0
M  V30 11467 O 1075.41 1.28341 1.4774 0
M  V30 11468 C 1075.71 3.31177 -1.34375 0
M  V30 11469 C 1075.37 3.51046 -2.8298 0
M  V30 11470 C 1074.04 3.56177 -3.23561 0
M  V30 11471 C 1076.39 3.58061 -3.78737 0
M  V30 11472 C 1073.72 3.65868 -4.58647 0
M  V30 11473 C 1076.07 3.69283 -5.13627 0
M  V30 11474 C 1074.73 3.7267 -5.53781 0
M  V30 11475 H 1074 0.672784 -0.310552 0
M  V30 11476 H 1076.65 1.3253 -1.38232 0
M  V30 11477 H 1074.95 3.84937 -0.730144 0
M  V30 11478 H 1076.65 3.84998 -1.12148 0
M  V30 11479 H 1073.24 3.47716 -2.50582 0
M  V30 11480 H 1077.42 3.53366 -3.48491 0
M  V30 11481 H 1072.68 3.66763 -4.89178 0
M  V30 11482 H 1076.85 3.73654 -5.8767 0
M  V30 11483 H 1074.48 3.79932 -6.58449 0
M  V30 11484 N 1076.06 0.894434 1.2976 0
M  V30 11485 C 1077.28 0.5322 2.00455 0
M  V30 11486 C 1077.71 -0.874427 1.66539 0
M  V30 11487 O 1077.06 -1.58113 0.887129 0
M  V30 11488 C 1077.11 0.725264 3.53231 0
M  V30 11489 O 1076.22 -0.224612 4.11788 0
M  V30 11490 H 1075.56 0.208562 0.630395 0
M  V30 11491 H 1078.09 1.20458 1.65382 0
M  V30 11492 H 1078.1 0.627889 4.0314 0
M  V30 11493 H 1076.77 1.75079 3.77253 0
M  V30 11494 H 1075.35 -0.0801361 3.72814 0
M  V30 11495 N 1077.53 -1.43282 0.656365 0
M  V30 11496 C 1078.78 -2.01378 0.170702 0
M  V30 11497 C 1079.1 -1.52063 -1.22073 0
M  V30 11498 O 1078.37 -0.73456 -1.81607 0
M  V30 11499 H 1076.95 -0.744577 0.0601168 0
M  V30 11500 H 1079.62 -1.75449 0.848739 0
M  V30 11501 H 1078.71 -3.11701 0.157745 0
M  V30 11502 N 1079.01 -0.398486 -1.52479 0
M  V30 11503 C 1080.26 0.181019 -2.0199 0
M  V30 11504 C 1080.59 1.45691 -1.28405 0
M  V30 11505 O 1079.87 1.90607 -0.387207 0
M  V30 11506 C 1080.15 0.439587 -3.57407 0
M  V30 11507 C 1080 -0.85223 -4.41653 0
M  V30 11508 C 1081.32 1.2263 -4.2267 0
M  V30 11509 H 1078.44 0.0643164 -0.734188 0
M  V30 11510 H 1081.08 -0.52986 -1.82462 0
M  V30 11511 H 1079.23 1.04516 -3.74177 0
M  V30 11512 H 1080.91 -1.48879 -4.36615 0
M  V30 11513 H 1079.15 -1.46555 -4.08294 0
M  V30 11514 H 1079.82 -0.625839 -5.48441 0
M  V30 11515 H 1082.3 0.713722 -4.09933 0
M  V30 11516 H 1081.17 1.37596 -5.31374 0
M  V30 11517 H 1081.43 2.24403 -3.80914 0
M  V30 11518 N 1080.49 1.57075 -0.12858 0
M  V30 11519 C 1081.72 2.00305 0.537839 0
M  V30 11520 C 1082.14 1.00787 1.58819 0
M  V30 11521 O 1081.5 -0.0190839 1.8129 0
M  V30 11522 C 1081.55 3.42371 1.13201 0
M  V30 11523 O 1080.65 3.45786 2.24735 0
M  V30 11524 H 1079.99 0.650456 0.133428 0
M  V30 11525 H 1082.52 2.03415 -0.219882 0
M  V30 11526 H 1082.53 3.80783 1.4652 0
M  V30 11527 H 1081.21 4.14315 0.362713 0
M  V30 11528 H 1079.78 3.19201 1.92783 0
M  V30 11529 N 1081.97 -0.145205 1.5693 0
M  V30 11530 C 1083.22 -0.85395 1.84606 0
M  V30 11531 C 1083.57 -1.78709 0.712811 0
M  V30 11532 O 1082.86 -1.89406 -0.289108 0
M  V30 11533 C 1083.06 -1.66391 3.16305 0
M  V30 11534 C 1082.89 -0.810698 4.42332 0
M  V30 11535 C 1081.66 -0.475623 5.03057 0
M  V30 11536 C 1083.85 -0.140213 5.14109 0
M  V30 11537 N 1081.84 0.390996 6.12654 0
M  V30 11538 C 1083.21 0.586471 6.1722 0
M  V30 11539 C 1085.26 -0.0610725 4.97863 0
M  V30 11540 C 1083.97 1.38483 7.05844 0
M  V30 11541 C 1085.99 0.724026 5.86951 0
M  V30 11542 C 1085.35 1.43899 6.89545 0
M  V30 11543 H 1081.45 -0.290253 0.726138 0
M  V30 11544 H 1084.04 -0.119211 1.94335 0
M  V30 11545 H 1082.21 -2.36987 3.0772 0
M  V30 11546 H 1083.94 -2.31596 3.31882 0
M  V30 11547 H 1080.69 -0.811824 4.6659 0
M  V30 11548 H 1081.12 0.815383 6.72072 0
M  V30 11549 H 1085.76 -0.599475 4.18529 0
M  V30 11550 H 1083.48 1.93448 7.84604 0
M  V30 11551 H 1087.06 0.787276 5.76449 0
M  V30 11552 H 1085.94 2.03674 7.57289 0
M  V30 11553 N 1083.45 -1.52049 -0.414609 0
M  V30 11554 C 1084.68 -1.69679 -1.18392 0
M  V30 11555 C 1085.09 -0.403881 -1.84429 0
M  V30 11556 O 1084.45 0.619636 -1.71659 0
M  V30 11557 C 1084.5 -2.82855 -2.25112 0
M  V30 11558 O 1084.22 -4.07138 -1.61772 0
M  V30 11559 C 1085.72 -3.11948 -3.14965 0
M  V30 11560 H 1082.94 -0.56879 -0.355977 0
M  V30 11561 H 1085.48 -1.9858 -0.488505 0
M  V30 11562 H 1083.64 -2.56488 -2.90332 0
M  V30 11563 H 1084.05 -4.70163 -2.32479 0
M  V30 11564 H 1085.53 -3.94665 -3.85932 0
M  V30 11565 H 1086 -2.25276 -3.77024 0
M  V30 11566 H 1086.61 -3.40059 -2.55421 0
M  V30 11567 N 1084.93 0.6715 -1.42579 0
M  V30 11568 C 1085.86 1.79625 -1.40749 0
M  V30 11569 C 1086.84 1.6032 -0.271312 0
M  V30 11570 O 1088.02 1.82749 -0.46205 0
M  V30 11571 C 1085.15 3.16672 -1.20153 0
M  V30 11572 C 1084.19 3.54718 -2.36807 0
M  V30 11573 S 1085.03 3.56771 -3.99343 0
M  V30 11574 C 1086.18 4.96505 -3.81095 0
M  V30 11575 H 1086.42 1.80903 -2.35926 0
M  V30 11576 H 1083.95 0.842469 -1.2939 0
M  V30 11577 H 1085.91 3.95776 -1.08956 0
M  V30 11578 H 1084.57 3.12976 -0.265545 0
M  V30 11579 H 1083.76 4.54341 -2.18152 0
M  V30 11580 H 1083.36 2.82982 -2.44535 0
M  V30 11581 H 1085.65 5.84674 -3.4229 0
M  V30 11582 H 1086.6 5.20207 -4.80406 0
M  V30 11583 H 1087.01 4.69178 -3.13898 0
M  V30 11584 N 1086.4 1.28806 0.908124 0
M  V30 11585 C 1087.35 1.13215 2.01125 0
M  V30 11586 C 1088.32 0.0277357 1.66077 0
M  V30 11587 O 1089.51 0.193707 1.89814 0
M  V30 11588 C 1086.65 0.805887 3.35558 0
M  V30 11589 C 1085.76 1.9899 3.83441 0
M  V30 11590 C 1084.89 1.60376 5.06412 0
M  V30 11591 C 1083.93 2.75409 5.46641 0
M  V30 11592 N 1083.07 2.37249 6.60801 0
M  V30 11593 H 1087.91 2.07598 2.13792 0
M  V30 11594 H 1085.45 1.03316 1.0471 0
M  V30 11595 H 1087.4 0.597451 4.129 0
M  V30 11596 H 1086.03 -0.101023 3.22642 0
M  V30 11597 H 1085.09 2.31029 3.02208 0
M  V30 11598 H 1086.4 2.85214 4.09212 0
M  V30 11599 H 1085.55 1.35772 5.91313 0
M  V30 11600 H 1084.29 0.712888 4.82462 0
M  V30 11601 H 1083.3 3.00705 4.60279 0
M  V30 11602 H 1084.52 3.65148 5.72577 0
M  V30 11603 H 1082.47 1.50638 6.3847 0
M  V30 11604 H 1082.38 3.17008 6.86325 0
M  V30 11605 H 1083.65 2.15943 7.48992 0
M  V30 11606 N 1087.88 -1.11734 1.11145 0
M  V30 11607 C 1089.13 -1.82766 0.853194 0
M  V30 11608 C 1089.44 -1.85408 -0.623168 0
M  V30 11609 O 1090.65 -2.52509 -0.997574 0
M  V30 11610 C 1089.11 -3.28215 1.47658 0
M  V30 11611 C 1088.71 -3.33911 2.98676 0
M  V30 11612 C 1090.46 -4.04168 1.29803 0
M  V30 11613 C 1088.36 -4.73739 3.54013 0
M  V30 11614 H 1087.29 -0.684807 0.315523 0
M  V30 11615 H 1089.95 -1.25756 1.33633 0
M  V30 11616 H 1088.33 -3.85138 0.921116 0
M  V30 11617 H 1089.5 -2.86887 3.606 0
M  V30 11618 H 1087.82 -2.71437 3.15771 0
M  V30 11619 H 1090.41 -5.07429 1.68582 0
M  V30 11620 H 1090.76 -4.15606 0.240302 0
M  V30 11621 H 1091.29 -3.53623 1.82196 0
M  V30 11622 H 1088.03 -4.67497 4.59485 0
M  V30 11623 H 1087.55 -5.21186 2.9686 0
M  V30 11624 H 1089.23 -5.42691 3.52271 0
M  V30 11625 N 1089.36 -0.901303 -1.29284 0
M  V30 11626 C 1090.29 -0.396909 -2.30102 0
M  V30 11627 C 1091.27 0.528919 -1.61668 0
M  V30 11628 O 1092.46 0.439306 -1.89166 0
M  V30 11629 C 1089.59 0.375006 -3.45269 0
M  V30 11630 C 1088.54 -0.46054 -4.25515 0
M  V30 11631 C 1087.87 0.438967 -5.32895 0
M  V30 11632 C 1089.17 -1.7113 -4.93469 0
M  V30 11633 H 1090.86 -1.23943 -2.72541 0
M  V30 11634 H 1088.41 -0.597428 -1.31022 0
M  V30 11635 H 1090.36 0.738622 -4.14876 0
M  V30 11636 H 1089.08 1.25132 -3.01678 0
M  V30 11637 H 1087.74 -0.80651 -3.57618 0
M  V30 11638 H 1087.39 1.31346 -4.85548 0
M  V30 11639 H 1087.09 -0.116406 -5.87485 0
M  V30 11640 H 1088.61 0.79874 -6.05353 0
M  V30 11641 H 1090.03 -1.41732 -5.55504 0
M  V30 11642 H 1088.42 -2.20811 -5.57999 0
M  V30 11643 H 1089.49 -2.44636 -4.18666 0
M  V30 11644 N 1090.84 1.42931 -0.663954 0
M  V30 11645 C 1092.09 2.00904 -0.179011 0
M  V30 11646 C 1092.4 1.53056 1.21791 0
M  V30 11647 O 1093.61 2.03374 1.79865 0
M  V30 11648 C 1092.06 3.58892 -0.269198 0
M  V30 11649 C 1091.67 4.15731 -1.66949 0
M  V30 11650 C 1093.41 4.24207 0.157589 0
M  V30 11651 C 1091.32 5.66047 -1.71303 0
M  V30 11652 H 1090.25 0.75135 -0.0631623 0
M  V30 11653 H 1092.9 1.6378 -0.827556 0
M  V30 11654 H 1091.28 3.93469 0.447048 0
M  V30 11655 H 1092.46 3.92634 -2.41195 0
M  V30 11656 H 1090.77 3.62826 -2.04318 0
M  V30 11657 H 1093.37 5.34503 0.145057 0
M  V30 11658 H 1093.71 3.98901 1.19095 0
M  V30 11659 H 1094.25 3.94552 -0.507274 0
M  V30 11660 H 1090.98 5.96136 -2.72584 0
M  V30 11661 H 1090.5 5.91167 -1.01398 0
M  V30 11662 H 1092.18 6.30275 -1.46158 0
M  V30 11663 N 1092.32 0.406567 1.52266 0
M  V30 11664 C 1093.56 -0.169717 2.01386 0
M  V30 11665 C 1093.88 -1.45864 1.29417 0
M  V30 11666 O 1093.15 -1.9136 0.419327 0
M  V30 11667 H 1091.73 -0.0657075 0.744105 0
M  V30 11668 H 1094.4 0.542221 1.87206 0
M  V30 11669 H 1093.49 -0.367659 3.09927 0
M  V30 11670 N 1093.79 -1.57004 0.136909 0
M  V30 11671 C 1095.04 -1.96087 -0.517477 0
M  V30 11672 C 1095.37 -1.0213 -1.65176 0
M  V30 11673 O 1094.65 -0.0617958 -1.94402 0
M  V30 11674 C 1094.93 -3.44958 -1.03323 0
M  V30 11675 C 1094.78 -4.49691 0.0988609 0
M  V30 11676 C 1096.1 -3.96091 -1.91832 0
M  V30 11677 H 1093.22 -0.712978 -0.186632 0
M  V30 11678 H 1095.86 -1.88767 0.216095 0
M  V30 11679 H 1094.01 -3.51327 -1.65836 0
M  V30 11680 H 1095.69 -4.55409 0.734847 0
M  V30 11681 H 1093.93 -4.271 0.75947 0
M  V30 11682 H 1094.6 -5.51165 -0.303554 0
M  V30 11683 H 1097.08 -3.92139 -1.39164 0
M  V30 11684 H 1095.95 -5.00742 -2.24831 0
M  V30 11685 H 1096.21 -3.37846 -2.85153 0
M  V30 11686 N 1095.27 0.136881 -1.57004 0
M  V30 11687 C 1096.52 0.846257 -1.83088 0
M  V30 11688 C 1096.83 1.81876 -0.719765 0
M  V30 11689 O 1098.04 2.57302 -0.866494 0
M  V30 11690 C 1096.5 1.55559 -3.24545 0
M  V30 11691 C 1096.1 0.624989 -4.43619 0
M  V30 11692 C 1097.85 2.25115 -3.59893 0
M  V30 11693 C 1095.76 1.33653 -5.761 0
M  V30 11694 H 1094.69 0.319768 -0.682836 0
M  V30 11695 H 1097.34 0.0989741 -1.83233 0
M  V30 11696 H 1095.72 2.34887 -3.18817 0
M  V30 11697 H 1096.89 -0.133783 -4.60606 0
M  V30 11698 H 1095.21 0.0373216 -4.16383 0
M  V30 11699 H 1097.8 2.79008 -4.56134 0
M  V30 11700 H 1098.15 3.02084 -2.86446 0
M  V30 11701 H 1098.68 1.52696 -3.67327 0
M  V30 11702 H 1095.42 0.608495 -6.5267 0
M  V30 11703 H 1094.94 2.06776 -5.63031 0
M  V30 11704 H 1096.62 1.87467 -6.19246 0
M  V30 11705 N 1096.75 1.52266 0.40654 0
M  V30 11706 C 1098 1.6568 1.15035 0
M  V30 11707 C 1098.31 0.394135 1.91588 0
M  V30 11708 O 1099.52 0.408113 2.68415 0
M  V30 11709 C 1097.97 2.92725 2.0938 0
M  V30 11710 C 1097.58 4.26108 1.38332 0
M  V30 11711 C 1099.33 3.15502 2.84004 0
M  V30 11712 C 1097.23 5.44275 2.3134 0
M  V30 11713 H 1096.16 0.61719 0.43312 0
M  V30 11714 H 1098.81 1.78755 0.414598 0
M  V30 11715 H 1097.2 2.73355 2.86519 0
M  V30 11716 H 1098.37 4.55971 0.665396 0
M  V30 11717 H 1096.69 4.09454 0.757384 0
M  V30 11718 H 1099.28 4.00964 3.5374 0
M  V30 11719 H 1099.63 2.29842 3.471 0
M  V30 11720 H 1100.16 3.35357 2.13964 0
M  V30 11721 H 1096.9 6.3229 1.72887 0
M  V30 11722 H 1096.42 5.18749 3.01098 0
M  V30 11723 H 1098.1 5.77457 2.91809 0
M  V30 11724 N 1098.23 -0.663929 1.42933 0
M  V30 11725 C 1099.46 -1.45192 1.474 0
M  V30 11726 C 1099.87 -1.88592 0.0886014 0
M  V30 11727 O 1099.23 -1.58824 -0.898962 0
M  V30 11728 C 1099.28 -2.69394 2.41059 0
M  V30 11729 O 1099 -2.27812 3.7421 0
M  V30 11730 C 1100.5 -3.62855 2.54659 0
M  V30 11731 H 1097.72 -0.446394 0.500973 0
M  V30 11732 H 1100.27 -0.814875 1.87563 0
M  V30 11733 H 1098.42 -3.29262 2.0412 0
M  V30 11734 H 1098.83 -3.08095 4.24474 0
M  V30 11735 H 1100.31 -4.46698 3.24291 0
M  V30 11736 H 1100.79 -4.09487 1.58799 0
M  V30 11737 H 1101.39 -3.08874 2.92364 0
M  V30 11738 N 1099.71 -1.29285 -0.901281 0
M  V30 11739 C 1100.95 -1.18348 -1.65424 0
M  V30 11740 C 1101.31 0.26276 -1.90597 0
M  V30 11741 O 1100.6 1.1868 -1.50418 0
M  V30 11742 C 1100.79 -1.92865 -3.00895 0
M  V30 11743 C 1100.62 -3.44588 -2.88945 0
M  V30 11744 C 1099.39 -4.13938 -2.89799 0
M  V30 11745 C 1101.59 -4.40113 -2.66092 0
M  V30 11746 N 1099.57 -5.52036 -2.68569 0
M  V30 11747 C 1100.94 -5.65661 -2.53827 0
M  V30 11748 C 1103 -4.29895 -2.51187 0
M  V30 11749 C 1101.7 -6.8215 -2.28175 0
M  V30 11750 C 1103.73 -5.46134 -2.26917 0
M  V30 11751 C 1103.09 -6.70653 -2.15416 0
M  V30 11752 H 1099.19 -0.48806 -0.611 0
M  V30 11753 H 1101.77 -1.63094 -1.06341 0
M  V30 11754 H 1099.94 -1.50535 -3.58042 0
M  V30 11755 H 1101.68 -1.74207 -3.65286 0
M  V30 11756 H 1098.43 -3.65625 -3.01023 0
M  V30 11757 H 1098.86 -6.24662 -2.61011 0
M  V30 11758 H 1103.5 -3.34321 -2.58823 0
M  V30 11759 H 1101.22 -7.77781 -2.19277 0
M  V30 11760 H 1104.8 -5.40126 -2.1623 0
M  V30 11761 H 1103.68 -7.5908 -1.96896 0
M  V30 11762 N 1101.18 1.11143 -1.11736 0
M  V30 11763 C 1102.43 1.82311 -0.862875 0
M  V30 11764 C 1102.75 1.85735 0.613326 0
M  V30 11765 O 1103.95 2.53034 0.984168 0
M  V30 11766 C 1102.41 3.27427 -1.49396 0
M  V30 11767 C 1102.02 3.32323 -3.00443 0
M  V30 11768 C 1103.76 4.03474 -1.31944 0
M  V30 11769 C 1101.67 4.71855 -3.56521 0
M  V30 11770 H 1100.6 0.683124 -0.31915 0
M  V30 11771 H 1103.25 1.25045 -1.34298 0
M  V30 11772 H 1101.63 3.84644 -0.941528 0
M  V30 11773 H 1102.8 2.84971 -3.62117 0
M  V30 11774 H 1101.12 2.69758 -3.17206 0
M  V30 11775 H 1103.72 5.06528 -1.71271 0
M  V30 11776 H 1104.06 4.15473 -0.262339 0
M  V30 11777 H 1104.59 3.52652 -1.84069 0
M  V30 11778 H 1101.33 4.65054 -4.61958 0
M  V30 11779 H 1100.85 5.19604 -2.99619 0
M  V30 11780 H 1102.53 5.40816 -3.55144 0
M  V30 11781 N 1102.66 0.908147 1.28804 0
M  V30 11782 C 1103.91 0.53734 1.94826 0
M  V30 11783 C 1104.23 -0.920962 1.71882 0
M  V30 11784 O 1103.5 -1.65043 1.05534 0
M  V30 11785 H 1102.08 0.195729 0.720902 0
M  V30 11786 H 1104.74 1.15628 1.56895 0
M  V30 11787 H 1103.84 0.727052 3.03513 0
M  V30 11788 N 1104.14 -1.42577 0.671525 0
M  V30 11789 C 1105.07 -2.28124 -0.0589347 0
M  V30 11790 C 1106.05 -1.40878 -0.811915 0
M  V30 11791 O 1107.24 -1.70318 -0.807717 0
M  V30 11792 C 1104.36 -3.20662 -1.09057 0
M  V30 11793 C 1103.41 -4.24291 -0.43355 0
M  V30 11794 S 1104.24 -5.29393 0.806442 0
M  V30 11795 C 1105.4 -6.25498 -0.224204 0
M  V30 11796 H 1105.63 -2.89728 0.666689 0
M  V30 11797 H 1103.16 -1.47359 0.460959 0
M  V30 11798 H 1105.12 -3.74516 -1.68071 0
M  V30 11799 H 1103.78 -2.582 -1.78862 0
M  V30 11800 H 1102.98 -4.89213 -1.21186 0
M  V30 11801 H 1102.58 -3.73908 0.0829136 0
M  V30 11802 H 1104.87 -6.68757 -1.08492 0
M  V30 11803 H 1105.81 -7.07023 0.390469 0
M  V30 11804 H 1106.22 -5.61633 -0.568214 0
M  V30 11805 N 1105.62 -0.414636 -1.52048 0
M  V30 11806 C 1106.57 0.422766 -2.28726 0
M  V30 11807 C 1107.56 1.04099 -1.3364 0
M  V30 11808 O 1108.77 0.978559 -1.51077 0
M  V30 11809 H 1105.14 0.155123 -0.735827 0
M  V30 11810 H 1107.11 -0.245091 -2.97392 0
M  V30 11811 C 1105.86 1.52418 -3.12513 0
M  V30 11812 H 1105.18 1.05781 -3.85552 0
M  V30 11813 H 1106.62 2.08382 -3.6926 0
M  V30 11814 C 1105.08 2.49465 -2.26426 0
M  V30 11815 O 1105.61 3.53479 -1.90829 0
M  V30 11816 N 1103.82 2.19806 -1.90088 0
M  V30 11817 H 1103.37 1.35253 -2.19236 0
M  V30 11818 H 1103.32 2.84984 -1.32783 0
M  V30 11819 N 1107.1 1.56929 -0.145233 0
M  V30 11820 C 1108.32 2.00864 0.516564 0
M  V30 11821 C 1108.75 1.02466 1.57741 0
M  V30 11822 O 1108.1 0.000145439 1.813 0
M  V30 11823 C 1108.15 3.43552 1.09563 0
M  V30 11824 O 1107.26 3.4815 2.21055 0
M  V30 11825 H 1106.6 0.651835 0.126521 0
M  V30 11826 H 1109.13 2.0317 -0.241445 0
M  V30 11827 H 1109.14 3.82316 1.42473 0
M  V30 11828 H 1107.81 4.14677 0.318749 0
M  V30 11829 H 1106.39 3.21228 1.89387 0
M  V30 11830 N 1108.58 -0.128553 1.57075 0
M  V30 11831 C 1109.99 -0.481794 1.52154 0
M  V30 11832 C 1110.19 -1.82381 0.856694 0
M  V30 11833 O 1109.25 -2.48725 0.434989 0
M  V30 11834 C 1110.56 -0.475091 2.96923 0
M  V30 11835 C 1112.11 -0.559315 3.07962 0
M  V30 11836 C 1112.58 -0.583095 4.54273 0
M  V30 11837 N 1114.07 -0.644803 4.5869 0
M  V30 11838 C 1114.81 -0.684493 5.693 0
M  V30 11839 N 1114.31 -0.682407 6.89431 0
M  V30 11840 N 1116.1 -0.726777 5.57382 0
M  V30 11841 H 1108.25 0.750894 1.98684 0
M  V30 11842 H 1110.51 0.27593 0.906955 0
M  V30 11843 H 1110.22 0.443157 3.48897 0
M  V30 11844 H 1110.09 -1.30637 3.53856 0
M  V30 11845 H 1112.48 -1.46798 2.55997 0
M  V30 11846 H 1112.56 0.299468 2.54041 0
M  V30 11847 H 1112.2 0.32149 5.06881 0
M  V30 11848 H 1112.13 -1.45863 5.05996 0
M  V30 11849 H 1114.63 -0.652967 3.72216 0
M  V30 11850 H 1114.94 -0.715051 7.69485 0
M  V30 11851 H 1113.28 -0.649984 6.91954 0
M  V30 11852 H 1116.47 -0.725704 4.6244 0
M  V30 11853 H 1116.65 -0.754242 6.43596 0
M  V30 11854 N 1110.05 -1.5248 -0.398459 0
M  V30 11855 C 1111.28 -1.71221 -1.17039 0
M  V30 11856 C 1111.7 -0.425515 -1.83224 0
M  V30 11857 O 1111.06 0.617938 -1.70444 0
M  V30 11858 C 1111.11 -2.8562 -2.20121 0
M  V30 11859 O 1110.21 -2.51934 -3.26501 0
M  V30 11860 H 1109.55 -0.569654 -0.34116 0
M  V30 11861 H 1112.08 -1.99231 -0.465652 0
M  V30 11862 H 1112.09 -3.10842 -2.64275 0
M  V30 11863 H 1110.77 -3.78969 -1.71334 0
M  V30 11864 H 1109.35 -2.3742 -2.87552 0
M  V30 11865 N 1111.53 0.65634 -1.43283 0
M  V30 11866 C 1112.76 1.44408 -1.48168 0
M  V30 11867 C 1113.17 1.88542 -0.0986016 0
M  V30 11868 O 1112.53 1.59298 0.890527 0
M  V30 11869 C 1112.58 2.68111 -2.42484 0
M  V30 11870 O 1112.3 2.25824 -3.75413 0
M  V30 11871 C 1113.8 3.61499 -2.56579 0
M  V30 11872 H 1111.02 0.443731 -0.503333 0
M  V30 11873 H 1113.57 0.804917 -1.87993 0
M  V30 11874 H 1111.72 3.28175 -2.05863 0
M  V30 11875 H 1112.14 3.05839 -4.26102 0
M  V30 11876 H 1113.61 4.44972 -3.26655 0
M  V30 11877 H 1114.09 4.08639 -1.60969 0
M  V30 11878 H 1114.69 3.07319 -2.93998 0
M  V30 11879 N 1113.01 1.29761 0.894412 0
M  V30 11880 C 1114.23 1.21064 1.68399 0
M  V30 11881 C 1114.66 -0.224608 1.86754 0
M  V30 11882 O 1114.02 -1.16199 1.39167 0
M  V30 11883 C 1114.07 1.93468 3.04306 0
M  V30 11884 O 1113.17 1.25533 3.9283 0
M  V30 11885 H 1112.51 0.419223 0.514925 0
M  V30 11886 H 1115.04 1.71421 1.11696 0
M  V30 11887 H 1115.05 2.02127 3.54413 0
M  V30 11888 H 1113.73 2.97857 2.90265 0
M  V30 11889 H 1112.3 1.25168 3.51266 0
M  V30 11890 N 1114.49 -1.10549 1.12324 0
M  V30 11891 C 1115.42 -2.18911 0.812416 0
M  V30 11892 C 1116.4 -1.68628 -0.22327 0
M  V30 11893 O 1117.58 -1.94015 -0.0847184 0
M  V30 11894 C 1114.71 -3.46288 0.264947 0
M  V30 11895 C 1113.67 -4.09838 1.23356 0
M  V30 11896 C 1112.99 -5.31901 0.546374 0
M  V30 11897 C 1114.29 -4.53686 2.58778 0
M  V30 11898 H 1115.99 -2.45169 1.71851 0
M  V30 11899 H 1113.53 -1.17834 0.827715 0
M  V30 11900 H 1115.49 -4.21385 0.0352364 0
M  V30 11901 H 1114.21 -3.19517 -0.676479 0
M  V30 11902 H 1112.87 -3.36746 1.44906 0
M  V30 11903 H 1112.52 -5.01406 -0.400157 0
M  V30 11904 H 1112.22 -5.75372 1.19249 0
M  V30 11905 H 1113.74 -6.09731 0.325673 0
M  V30 11906 H 1115.16 -5.20063 2.41263 0
M  V30 11907 H 1113.55 -5.08003 3.19457 0
M  V30 11908 H 1114.62 -3.66665 3.17309 0
M  V30 11909 N 1115.97 -0.914965 -1.28321 0
M  V30 11910 C 1117.19 -0.564023 -1.99583 0
M  V30 11911 C 1117.62 0.847821 -1.6791 0
M  V30 11912 O 1116.97 1.56682 -0.912171 0
M  V30 11913 C 1117.02 -0.781368 -3.52033 0
M  V30 11914 O 1116.13 0.159072 -4.12093 0
M  V30 11915 H 1115.47 -0.218565 -0.626997 0
M  V30 11916 H 1118 -1.23074 -1.63444 0
M  V30 11917 H 1118.01 -0.691946 -4.0209 0
M  V30 11918 H 1116.68 -1.81059 -3.7442 0
M  V30 11919 H 1115.26 0.0208145 -3.72894 0
M  V30 11920 N 1117.44 1.42219 -0.679077 0
M  V30 11921 C 1118.69 2.01777 -0.20342 0
M  V30 11922 C 1119.02 1.53592 1.18841 0
M  V30 11923 O 1118.3 0.739954 1.79875 0
M  V30 11924 C 1118.58 3.59281 -0.242791 0
M  V30 11925 C 1118.43 4.17634 -1.67038 0
M  V30 11926 C 1119.75 4.38218 0.406624 0
M  V30 11927 H 1116.87 0.733134 -0.0753916 0
M  V30 11928 H 1119.51 1.69185 -0.864673 0
M  V30 11929 H 1117.66 3.87178 0.320248 0
M  V30 11930 H 1119.34 4.00674 -2.286 0
M  V30 11931 H 1117.58 3.73301 -2.20973 0
M  V30 11932 H 1118.25 5.26776 -1.64958 0
M  V30 11933 H 1120.73 4.16036 -0.0727077 0
M  V30 11934 H 1119.6 5.47793 0.348457 0
M  V30 11935 H 1119.86 4.16418 1.48487 0
M  V30 11936 N 1118.92 0.422693 1.51826 0
M  V30 11937 C 1120.15 -0.15017 2.06856 0
M  V30 11938 C 1120.57 -1.36946 1.28948 0
M  V30 11939 O 1119.93 -1.78393 0.32338 0
M  V30 11940 C 1119.98 -0.465563 3.57582 0
M  V30 11941 O 1119.08 -1.55442 3.81984 0
M  V30 11942 H 1118.42 -0.00827931 0.663948 0
M  V30 11943 H 1120.95 0.599806 1.95611 0
M  V30 11944 H 1120.96 -0.720279 4.01592 0
M  V30 11945 H 1119.64 0.425679 4.13716 0
M  V30 11946 H 1118.21 -1.29081 3.49846 0
M  V30 11947 N 1120.4 -1.5685 0.153553 0
M  V30 11948 C 1121.33 -2.20101 -0.779601 0
M  V30 11949 C 1122.31 -1.15121 -1.25225 0
M  V30 11950 O 1123.5 -1.43487 -1.30862 0
M  V30 11951 C 1120.63 -2.82778 -2.01628 0
M  V30 11952 C 1119.58 -3.93643 -1.68015 0
M  V30 11953 C 1118.91 -4.43286 -2.99001 0
M  V30 11954 C 1120.21 -5.14102 -0.921774 0
M  V30 11955 H 1121.9 -2.98334 -0.252432 0
M  V30 11956 H 1119.45 -1.43499 -0.119975 0
M  V30 11957 H 1121.4 -3.25696 -2.67395 0
M  V30 11958 H 1120.12 -2.01887 -2.56728 0
M  V30 11959 H 1118.78 -3.51354 -1.04624 0
M  V30 11960 H 1118.43 -3.59208 -3.52106 0
M  V30 11961 H 1118.13 -5.18068 -2.77272 0
M  V30 11962 H 1119.65 -4.88878 -3.65828 0
M  V30 11963 H 1121.07 -5.53823 -1.48167 0
M  V30 11964 H 1119.46 -5.94687 -0.804185 0
M  V30 11965 H 1120.53 -4.84825 0.0852757 0
M  V30 11966 N 1121.88 0.120221 -1.57141 0
M  V30 11967 C 1123.12 0.829449 -1.85062 0
M  V30 11968 C 1123.46 1.79585 -0.739116 0
M  V30 11969 O 1122.73 1.92819 0.255147 0
M  V30 11970 C 1123.01 1.58042 -3.23566 0
M  V30 11971 C 1122.87 0.633706 -4.45314 0
M  V30 11972 C 1124.19 2.53688 -3.59625 0
M  V30 11973 H 1121.31 0.300086 -0.67314 0
M  V30 11974 H 1123.95 0.0937393 -1.89769 0
M  V30 11975 H 1122.1 2.20758 -3.19684 0
M  V30 11976 H 1123.77 0.0154836 -4.61297 0
M  V30 11977 H 1122.01 -0.054846 -4.33765 0
M  V30 11978 H 1122.68 1.19577 -5.38893 0
M  V30 11979 H 1125.16 2.01078 -3.6429 0
M  V30 11980 H 1124.04 3.03265 -4.57516 0
M  V30 11981 H 1124.3 3.36296 -2.8698 0
M  V30 11982 N 1123.36 1.52689 0.390367 0
M  V30 11983 C 1124.29 1.80338 1.48325 0
M  V30 11984 C 1125.27 0.655338 1.56969 0
M  V30 11985 O 1126.45 0.902792 1.7194 0
M  V30 11986 C 1123.58 1.97101 2.85952 0
M  V30 11987 C 1122.54 3.12783 2.92148 0
M  V30 11988 C 1121.86 3.14798 4.32211 0
M  V30 11989 C 1123.16 4.5188 2.61919 0
M  V30 11990 H 1124.86 2.71857 1.25437 0
M  V30 11991 H 1122.4 1.30813 0.601995 0
M  V30 11992 H 1124.36 2.15027 3.62411 0
M  V30 11993 H 1123.08 1.02271 3.10174 0
M  V30 11994 H 1121.74 2.94638 2.18137 0
M  V30 11995 H 1121.39 2.17653 4.53471 0
M  V30 11996 H 1121.09 3.92507 4.37278 0
M  V30 11997 H 1122.61 3.34877 5.10578 0
M  V30 11998 H 1124.02 4.70134 3.28096 0
M  V30 11999 H 1122.42 5.31647 2.78337 0
M  V30 12000 H 1123.49 4.58689 1.57266 0
M  V30 12001 N 1124.83 -0.648732 1.43629 0
M  V30 12002 C 1126.08 -1.41066 1.45699 0
M  V30 12003 C 1126.41 -1.94024 0.082612 0
M  V30 12004 O 1125.69 -1.7257 -0.897207 0
M  V30 12005 C 1125.97 -2.58882 2.50304 0
M  V30 12006 C 1125.82 -2.11387 3.97033 0
M  V30 12007 C 1127.14 -3.61092 2.51597 0
M  V30 12008 H 1124.26 -0.511591 0.530512 0
M  V30 12009 H 1126.9 -0.735069 1.75205 0
M  V30 12010 H 1125.05 -3.16518 2.25274 0
M  V30 12011 H 1126.73 -1.58718 4.33136 0
M  V30 12012 H 1124.97 -1.4272 4.0965 0
M  V30 12013 H 1125.64 -2.96129 4.65845 0
M  V30 12014 H 1128.12 -3.13223 2.73917 0
M  V30 12015 H 1126.99 -4.41071 3.26722 0
M  V30 12016 H 1127.25 -4.13985 1.55141 0
M  V30 12017 N 1126.31 -1.30234 -0.887518 0
M  V30 12018 C 1127.56 -1.18675 -1.63587 0
M  V30 12019 C 1127.88 0.259342 -1.93268 0
M  V30 12020 O 1127.15 1.17523 -1.56733 0
M  V30 12021 H 1125.73 -0.436224 -0.606397 0
M  V30 12022 H 1128.39 -1.63326 -1.06351 0
M  V30 12023 H 1127.49 -1.74575 -2.58708 0
M  V30 12024 N 1127.79 1.09952 -1.12909 0
M  V30 12025 C 1129.04 1.81386 -0.882163 0
M  V30 12026 C 1129.35 1.86376 0.593592 0
M  V30 12027 O 1130.56 2.54064 0.957275 0
M  V30 12028 C 1129.01 3.25824 -1.52861 0
M  V30 12029 C 1128.62 3.29117 -3.0395 0
M  V30 12030 C 1130.37 4.02051 -1.36216 0
M  V30 12031 C 1128.27 4.68047 -3.61505 0
M  V30 12032 H 1127.2 0.679701 -0.326378 0
M  V30 12033 H 1129.85 1.23614 -1.35616 0
M  V30 12034 H 1128.24 3.83624 -0.982271 0
M  V30 12035 H 1129.41 2.81114 -3.65119 0
M  V30 12036 H 1127.73 2.66379 -3.20049 0
M  V30 12037 H 1130.32 5.04683 -1.76633 0
M  V30 12038 H 1130.67 4.15171 -0.306391 0
M  V30 12039 H 1131.2 3.5068 -1.87799 0
M  V30 12040 H 1127.94 4.60128 -4.66865 0
M  V30 12041 H 1127.46 5.16397 -3.05114 0
M  V30 12042 H 1129.14 5.37018 -3.6086 0
M  V30 12043 N 1129.27 0.921757 1.27833 0
M  V30 12044 C 1130.51 0.559906 1.94918 0
M  V30 12045 C 1130.85 -0.895532 1.72319 0
M  V30 12046 O 1130.12 -1.638 1.04879 0
M  V30 12047 C 1130.41 0.879458 3.49196 0
M  V30 12048 C 1130.26 2.38821 3.81162 0
M  V30 12049 C 1131.58 0.381183 4.38446 0
M  V30 12050 H 1128.7 0.204893 0.707946 0
M  V30 12051 H 1131.34 1.15246 1.51058 0
M  V30 12052 H 1129.49 0.375177 3.86684 0
M  V30 12053 H 1131.16 2.96373 3.53498 0
M  V30 12054 H 1129.4 2.83988 3.27923 0
M  V30 12055 H 1130.07 2.56234 4.88926 0
M  V30 12056 H 1132.55 0.813289 4.08075 0
M  V30 12057 H 1131.43 0.633778 5.45229 0
M  V30 12058 H 1131.69 -0.718651 4.3622 0
M  V30 12059 N 1130.75 -1.41857 0.686609 0
M  V30 12060 C 1131.97 -2.05699 0.222561 0
M  V30 12061 C 1132.39 -1.51636 -1.12481 0
M  V30 12062 O 1131.75 -0.660925 -1.70112 0
M  V30 12063 C 1131.8 -3.61138 0.161818 0
M  V30 12064 O 1131.52 -4.13199 1.45596 0
M  V30 12065 C 1133.02 -4.42112 -0.324304 0
M  V30 12066 H 1130.24 -0.662665 0.10543 0
M  V30 12067 H 1132.78 -1.81788 0.936671 0
M  V30 12068 H 1130.94 -3.8412 -0.503056 0
M  V30 12069 H 1131.35 -5.0717 1.33712 0
M  V30 12070 H 1132.83 -5.51097 -0.315694 0
M  V30 12071 H 1133.3 -4.1756 -1.36164 0
M  V30 12072 H 1133.91 -4.24174 0.309251 0
M  V30 12073 N 1132.22 -0.430739 -1.51599 0
M  V30 12074 C 1133.15 0.374695 -2.30474 0
M  V30 12075 C 1134.14 1.02694 -1.35602 0
M  V30 12076 O 1135.32 1.03184 -1.6452 0
M  V30 12077 C 1132.45 1.47981 -3.14196 0
M  V30 12078 C 1131.4 0.951415 -4.17291 0
M  V30 12079 C 1130.73 2.15177 -4.89492 0
M  V30 12080 C 1132.03 -0.00957951 -5.22299 0
M  V30 12081 H 1133.72 -0.283508 -2.98055 0
M  V30 12082 H 1131.27 -0.13779 -1.43339 0
M  V30 12083 H 1133.22 2.05043 -3.68151 0
M  V30 12084 H 1131.95 2.16621 -2.44424 0
M  V30 12085 H 1130.61 0.403052 -3.64378 0
M  V30 12086 H 1130.25 2.82421 -4.1623 0
M  V30 12087 H 1129.95 1.80464 -5.59202 0
M  V30 12088 H 1131.48 2.72806 -5.46269 0
M  V30 12089 H 1132.89 0.470527 -5.71366 0
M  V30 12090 H 1131.29 -0.268959 -5.99497 0
M  V30 12091 H 1132.36 -0.948297 -4.75537 0
M  V30 12092 N 1133.7 1.56767 -0.161869 0
M  V30 12093 C 1134.93 2.00673 0.491314 0
M  V30 12094 C 1135.34 1.04111 1.5798 0
M  V30 12095 O 1134.68 0.0324889 1.83671 0
M  V30 12096 C 1134.75 3.41011 1.13806 0
M  V30 12097 C 1134.41 4.56595 0.192384 0
M  V30 12098 C 1135.41 5.16591 -0.585671 0
M  V30 12099 C 1133.09 5.02218 0.0909594 0
M  V30 12100 C 1135.09 6.20631 -1.45245 0
M  V30 12101 C 1132.77 6.06109 -0.77941 0
M  V30 12102 C 1133.77 6.65187 -1.54971 0
M  V30 12103 O 1133.46 7.67065 -2.40555 0
M  V30 12104 H 1133.19 0.663174 0.131059 0
M  V30 12105 H 1135.74 2.03775 -0.257896 0
M  V30 12106 H 1133.97 3.34793 1.93521 0
M  V30 12107 H 1135.66 3.68931 1.69248 0
M  V30 12108 H 1136.43 4.82232 -0.517432 0
M  V30 12109 H 1132.31 4.55953 0.680292 0
M  V30 12110 H 1135.85 6.66671 -2.05415 0
M  V30 12111 H 1131.75 6.39894 -0.848887 0
M  V30 12112 H 1132.52 7.84348 -2.33966 0
M  V30 12113 N 1135.18 -0.111886 1.57202 0
M  V30 12114 C 1136.11 -1.13796 2.03894 0
M  V30 12115 C 1137.09 -1.4277 0.924696 0
M  V30 12116 O 1138.28 -1.53089 1.19488 0
M  V30 12117 C 1135.41 -2.46229 2.44925 0
M  V30 12118 C 1134.36 -2.31702 3.59859 0
M  V30 12119 C 1133.69 -3.69161 3.86813 0
M  V30 12120 C 1134.99 -1.77158 4.91337 0
M  V30 12121 H 1136.68 -0.749581 2.89865 0
M  V30 12122 H 1134.23 -0.359126 1.3945 0
M  V30 12123 H 1136.18 -3.18267 2.76195 0
M  V30 12124 H 1134.9 -2.86971 1.55933 0
M  V30 12125 H 1133.56 -1.62112 3.28809 0
M  V30 12126 H 1133.21 -4.07401 2.95015 0
M  V30 12127 H 1132.91 -3.60292 4.6418 0
M  V30 12128 H 1134.43 -4.42693 4.20542 0
M  V30 12129 H 1135.85 -2.3902 5.21097 0
M  V30 12130 H 1134.25 -1.79091 5.72753 0
M  V30 12131 H 1135.32 -0.729675 4.79379 0
M  V30 12132 N 1136.66 -1.52894 -0.382264 0
M  V30 12133 C 1137.91 -1.67933 -1.1244 0
M  V30 12134 C 1138.23 -0.425166 -1.90309 0
M  V30 12135 O 1137.5 0.560557 -1.87709 0
M  V30 12136 H 1136.08 -0.619047 -0.418079 0
M  V30 12137 H 1138.74 -1.90031 -0.432928 0
M  V30 12138 H 1137.84 -2.53285 -1.82355 0
M  V30 12139 N 1138.14 0.641106 -1.43971 0
M  V30 12140 C 1139.38 1.40291 -1.46445 0
M  V30 12141 C 1139.72 1.93978 -0.0929004 0
M  V30 12142 O 1138.99 1.73043 0.888043 0
M  V30 12143 C 1139.27 2.57551 -2.51673 0
M  V30 12144 C 1139.13 2.09279 -3.98149 0
M  V30 12145 C 1140.45 3.59752 -2.53508 0
M  V30 12146 H 1137.57 0.508771 -0.533218 0
M  V30 12147 H 1140.21 0.725767 -1.75592 0
M  V30 12148 H 1138.36 3.15319 -2.2695 0
M  V30 12149 H 1140.03 1.56418 -4.33971 0
M  V30 12150 H 1138.27 1.40545 -4.10402 0
M  V30 12151 H 1138.94 2.93655 -4.67409 0
M  V30 12152 H 1141.42 3.11766 -2.75574 0
M  V30 12153 H 1140.3 4.39332 -3.29057 0
M  V30 12154 H 1140.56 4.13156 -1.57335 0
M  V30 12155 N 1139.62 1.30703 0.880598 0
M  V30 12156 C 1140.55 1.11783 1.98947 0
M  V30 12157 C 1141.53 0.0242461 1.62582 0
M  V30 12158 O 1142.71 0.178641 1.87652 0
M  V30 12159 C 1139.84 0.705762 3.31265 0
M  V30 12160 C 1138.88 1.80084 3.86616 0
M  V30 12161 S 1139.72 3.40416 4.13373 0
M  V30 12162 C 1140.87 3.01122 5.48704 0
M  V30 12163 H 1141.11 2.05658 2.14691 0
M  V30 12164 H 1138.64 1.15067 1.02951 0
M  V30 12165 H 1140.6 0.474754 4.07745 0
M  V30 12166 H 1139.26 -0.213699 3.13372 0
M  V30 12167 H 1138.45 1.4649 4.82241 0
M  V30 12168 H 1138.05 1.98636 3.16891 0
M  V30 12169 H 1140.34 2.49355 6.29943 0
M  V30 12170 H 1141.29 3.95671 5.87239 0
M  V30 12171 H 1141.7 2.38865 5.11472 0
M  V30 12172 N 1141.09 -1.09351 1.1349 0
M  V30 12173 C 1142.34 -1.81812 0.898452 0
M  V30 12174 C 1142.67 -1.85525 -0.573959 0
M  V30 12175 O 1141.95 -1.32403 -1.42477 0
M  V30 12176 C 1142.23 -3.27921 1.48794 0
M  V30 12177 C 1142.08 -3.32476 3.02952 0
M  V30 12178 C 1143.4 -4.24625 1.15678 0
M  V30 12179 H 1140.52 -0.660074 0.327829 0
M  V30 12180 H 1143.16 -1.28091 1.40331 0
M  V30 12181 H 1141.31 -3.738 1.05858 0
M  V30 12182 H 1142.99 -2.94994 3.54649 0
M  V30 12183 H 1141.23 -2.72037 3.37903 0
M  V30 12184 H 1141.9 -4.35409 3.39298 0
M  V30 12185 H 1144.38 -3.87036 1.52781 0
M  V30 12186 H 1143.25 -5.25194 1.59571 0
M  V30 12187 H 1143.51 -4.42044 0.0705933 0
M  V30 12188 N 1142.57 -0.928524 -1.27343 0
M  V30 12189 C 1143.5 -0.385563 -2.25934 0
M  V30 12190 C 1144.52 0.484178 -1.55433 0
M  V30 12191 O 1145.71 0.296668 -1.76017 0
M  V30 12192 C 1142.81 0.466116 -3.35679 0
M  V30 12193 C 1141.98 -0.384523 -4.35707 0
M  V30 12194 C 1141.04 0.404644 -5.24642 0
M  V30 12195 O 1140.06 -0.187943 -5.6889 0
M  V30 12196 N 1141.27 1.70426 -5.54919 0
M  V30 12197 H 1144.03 -1.23306 -2.73159 0
M  V30 12198 H 1141.59 -0.796039 -1.40978 0
M  V30 12199 H 1143.58 1.00115 -3.92121 0
M  V30 12200 H 1142.15 1.21437 -2.88048 0
M  V30 12201 H 1141.37 -1.10085 -3.78517 0
M  V30 12202 H 1142.66 -0.966033 -4.99545 0
M  V30 12203 H 1142.06 2.20802 -5.20829 0
M  V30 12204 H 1140.62 2.1858 -6.14057 0
M  V30 12205 N 1144.05 1.41491 -0.694123 0
M  V30 12206 C 1145.01 2.2917 -0.0368562 0
M  V30 12207 C 1146.01 1.44305 0.709426 0
M  V30 12208 O 1147.2 1.6547 0.544533 0
M  V30 12209 C 1144.33 3.27156 0.958201 0
M  V30 12210 H 1145.53 2.88787 -0.808829 0
M  V30 12211 H 1143.08 1.49453 -0.457538 0
M  V30 12212 H 1143.82 2.72516 1.75799 0
M  V30 12213 H 1143.6 3.89776 0.426227 0
M  V30 12214 H 1145.09 3.92863 1.41592 0
M  V30 12215 N 1145.53 0.438773 1.51369 0
M  V30 12216 C 1146.8 -0.18722 1.94702 0
M  V30 12217 C 1147.18 -1.59962 1.37752 0
M  V30 12218 O 1146.53 -2.214 0.565171 0
M  V30 12219 C 1146.74 -0.163491 3.48617 0
M  V30 12220 C 1148.09 -0.368355 4.22999 0
M  V30 12221 O 1149.11 -0.241541 3.5538 0
M  V30 12222 O 1147.97 -0.620916 5.42961 0
M  V30 12223 H 1145.07 -0.129194 0.816846 0
M  V30 12224 H 1147.61 0.496855 1.62263 0
M  V30 12225 H 1146.39 0.823882 3.82528 0
M  V30 12226 H 1146.01 -0.890414 3.87501 0
M  V30 12227 N 1147.01 -1.56678 0.170181 0
M  V30 12228 C 1148.23 -2.0166 -0.484543 0
M  V30 12229 C 1148.66 -1.04962 -1.56091 0
M  V30 12230 O 1148.01 -0.0289887 -1.81277 0
M  V30 12231 C 1148.06 -3.45252 -1.04084 0
M  V30 12232 O 1147.17 -3.51623 -2.15488 0
M  V30 12233 H 1146.51 -0.653765 -0.116135 0
M  V30 12234 H 1149.04 -2.02761 0.273737 0
M  V30 12235 H 1149.05 -3.84534 -1.36373 0
M  V30 12236 H 1147.72 -4.15131 -0.252738 0
M  V30 12237 H 1146.3 -3.242 -1.84252 0
M  V30 12238 N 1148.48 0.103547 -1.57259 0
M  V30 12239 C 1149.73 0.806979 -1.8529 0
M  V30 12240 C 1150.05 1.79679 -0.757653 0
M  V30 12241 O 1149.32 1.94695 0.216913 0
M  V30 12242 H 1147.9 0.301012 -0.683667 0
M  V30 12243 H 1150.56 0.0871886 -1.94705 0
M  V30 12244 H 1149.66 1.34275 -2.81738 0
M  V30 12245 N 1149.96 1.53094 0.37415 0
M  V30 12246 C 1151.2 1.70558 1.12647 0
M  V30 12247 C 1151.57 0.443515 1.86807 0
M  V30 12248 O 1152.77 0.49472 2.64208 0
M  V30 12249 C 1151.04 2.91565 2.06699 0
M  V30 12250 S 1152.6 3.29692 2.89567 0
M  V30 12251 H 1149.41 0.600238 0.381097 0
M  V30 12252 H 1152.02 1.91177 0.408865 0
M  V30 12253 H 1150.72 3.81625 1.50965 0
M  V30 12254 H 1150.25 2.73323 2.82945 0
M  V30 12255 H 1152.27 2.81036 4.08942 0
M  V30 12256 N 1151.44 -0.633461 1.44309 0
M  V30 12257 C 1152.69 -1.39513 1.47187 0
M  V30 12258 C 1153.02 -1.93926 0.103186 0
M  V30 12259 O 1152.29 -1.73512 -0.878853 0
M  V30 12260 C 1152.58 -2.56213 2.53036 0
M  V30 12261 C 1152.43 -2.07164 3.99253 0
M  V30 12262 C 1153.75 -3.58403 2.55412 0
M  V30 12263 H 1150.87 -0.505936 0.535908 0
M  V30 12264 H 1153.51 -0.716445 1.75975 0
M  V30 12265 H 1151.66 -3.14111 2.28619 0
M  V30 12266 H 1153.33 -1.54115 4.34795 0
M  V30 12267 H 1151.57 -1.38367 4.11141 0
M  V30 12268 H 1152.25 -2.91172 4.6896 0
M  V30 12269 H 1154.72 -3.103 2.77224 0
M  V30 12270 H 1153.6 -4.37581 3.31382 0
M  V30 12271 H 1153.86 -4.12316 1.59523 0
M  V30 12272 N 1152.92 -1.31168 -0.873655 0
M  V30 12273 C 1154.16 -1.20821 -1.62881 0
M  V30 12274 C 1154.5 0.233994 -1.92785 0
M  V30 12275 O 1153.77 1.16588 -1.55684 0
M  V30 12276 C 1154.06 -2.04875 -2.96139 0
M  V30 12277 C 1153.91 -3.57375 -2.73136 0
M  V30 12278 C 1155.23 -1.8953 -3.97198 0
M  V30 12279 H 1152.35 -0.44026 -0.59105 0
M  V30 12280 H 1154.99 -1.6092 -1.01019 0
M  V30 12281 H 1153.14 -1.70806 -3.48938 0
M  V30 12282 H 1154.81 -4.01561 -2.27038 0
M  V30 12283 H 1153.05 -3.8099 -2.07434 0
M  V30 12284 H 1153.72 -4.1149 -3.6794 0
M  V30 12285 H 1156.2 -2.19337 -3.53596 0
M  V30 12286 H 1155.08 -2.5065 -4.8833 0
M  V30 12287 H 1155.34 -0.857576 -4.33703 0
M  V30 12288 N 1154.4 1.08748 -1.14068 0
M  V30 12289 C 1155.62 1.85353 -0.930532 0
M  V30 12290 C 1156.05 1.80892 0.515717 0
M  V30 12291 O 1155.4 1.19146 1.36652 0
M  V30 12292 C 1155.45 3.30962 -1.43167 0
M  V30 12293 O 1154.56 4.0769 -0.621468 0
M  V30 12294 H 1153.9 0.574485 -0.332962 0
M  V30 12295 H 1156.43 1.37282 -1.51707 0
M  V30 12296 H 1156.44 3.81807 -1.43832 0
M  V30 12297 H 1155.11 3.33524 -2.48464 0
M  V30 12298 H 1153.69 3.66587 -0.683267 0
M  V30 12299 N 1155.87 0.935264 1.26849 0
M  V30 12300 C 1157.12 0.590057 1.94653 0
M  V30 12301 C 1157.48 -0.860481 1.72086 0
M  V30 12302 O 1156.77 -1.60672 1.04379 0
M  V30 12303 C 1156.96 0.861098 3.46872 0
M  V30 12304 C 1156.79 2.33643 3.84241 0
M  V30 12305 C 1155.56 2.99052 4.07303 0
M  V30 12306 C 1157.76 3.3145 3.9325 0
M  V30 12307 N 1155.74 4.36659 4.31511 0
M  V30 12308 C 1157.11 4.54294 4.21921 0
M  V30 12309 C 1159.17 3.26555 3.75854 0
M  V30 12310 C 1157.87 5.72854 4.35006 0
M  V30 12311 C 1159.9 4.44435 3.90168 0
M  V30 12312 C 1159.26 5.66059 4.19233 0
M  V30 12313 H 1155.36 0.266182 0.735303 0
M  V30 12314 H 1157.94 1.20345 1.53053 0
M  V30 12315 H 1156.11 0.276803 3.87412 0
M  V30 12316 H 1157.84 0.477757 4.0187 0
M  V30 12317 H 1154.6 2.49692 4.02431 0
M  V30 12318 H 1155.02 5.07869 4.47658 0
M  V30 12319 H 1159.67 2.33585 3.52417 0
M  V30 12320 H 1157.38 6.66283 4.57266 0
M  V30 12321 H 1160.97 4.42174 3.78119 0
M  V30 12322 H 1159.85 6.55753 4.30068 0
M  V30 12323 N 1157.35 -1.41121 0.701616 0
M  V30 12324 C 1158.3 -2.30765 0.040121 0
M  V30 12325 C 1159.27 -1.47436 -0.764975 0
M  V30 12326 O 1160.45 -1.76209 -0.731775 0
M  V30 12327 C 1157.59 -3.33535 -0.885903 0
M  V30 12328 C 1156.71 -4.3194 -0.0717765 0
M  V30 12329 C 1155.84 -5.21779 -0.995996 0
M  V30 12330 C 1154.88 -6.11849 -0.175133 0
M  V30 12331 N 1154.02 -6.94151 -1.05348 0
M  V30 12332 H 1158.86 -2.86772 0.810312 0
M  V30 12333 H 1156.4 -1.41233 0.411301 0
M  V30 12334 H 1158.35 -3.91675 -1.4369 0
M  V30 12335 H 1156.98 -2.79065 -1.62243 0
M  V30 12336 H 1156.04 -3.75698 0.596221 0
M  V30 12337 H 1157.35 -4.95597 0.56435 0
M  V30 12338 H 1156.5 -5.84782 -1.61601 0
M  V30 12339 H 1155.24 -4.58363 -1.66597 0
M  V30 12340 H 1154.25 -5.4789 0.457916 0
M  V30 12341 H 1155.47 -6.77322 0.491133 0
M  V30 12342 H 1153.42 -6.33338 -1.70936 0
M  V30 12343 H 1153.33 -7.54518 -0.473065 0
M  V30 12344 H 1154.6 -7.61617 -1.66012 0
M  V30 12345 N 1158.83 -0.446794 -1.51134 0
M  V30 12346 C 1159.78 0.374154 -2.29571 0
M  V30 12347 C 1160.77 1.01241 -1.35818 0
M  V30 12348 O 1161.98 0.946293 -1.53119 0
M  V30 12349 H 1158.35 0.13948 -0.738951 0
M  V30 12350 H 1160.32 -0.308117 -2.96805 0
M  V30 12351 C 1159.07 1.45754 -3.15675 0
M  V30 12352 H 1158.4 0.975787 -3.87709 0
M  V30 12353 H 1159.84 2.00502 -3.73597 0
M  V30 12354 C 1158.3 2.44606 -2.31667 0
M  V30 12355 O 1158.83 3.49352 -1.98284 0
M  V30 12356 N 1157.03 2.15725 -1.94708 0
M  V30 12357 H 1156.58 1.30572 -2.22056 0
M  V30 12358 H 1156.54 2.82103 -1.38798 0
M  V30 12359 N 1160.31 1.56586 -0.178487 0
M  V30 12360 C 1161.26 2.18309 0.74899 0
M  V30 12361 C 1162.23 1.12525 1.22178 0
M  V30 12362 O 1163.41 1.40706 1.28866 0
M  V30 12363 C 1160.55 2.83353 1.9699 0
M  V30 12364 C 1159.66 4.03618 1.54002 0
M  V30 12365 C 1158.8 4.56567 2.71514 0
M  V30 12366 C 1157.84 5.69226 2.25051 0
M  V30 12367 N 1156.97 6.16654 3.35682 0
M  V30 12368 H 1161.81 2.97217 0.21587 0
M  V30 12369 H 1159.35 1.46794 0.0948182 0
M  V30 12370 H 1161.31 3.19226 2.68609 0
M  V30 12371 H 1159.94 2.07037 2.4766 0
M  V30 12372 H 1158.99 3.73518 0.720298 0
M  V30 12373 H 1160.3 4.85148 1.15901 0
M  V30 12374 H 1159.46 4.94659 3.5128 0
M  V30 12375 H 1158.2 3.7411 3.12879 0
M  V30 12376 H 1157.2 5.30679 1.43734 0
M  V30 12377 H 1158.43 6.5349 1.84736 0
M  V30 12378 H 1156.37 5.37124 3.76609 0
M  V30 12379 H 1156.29 6.93192 3.01697 0
M  V30 12380 H 1157.56 6.59397 4.15711 0
M  V30 12381 N 1161.79 -0.095206 1.57312 0
M  V30 12382 C 1162.7 -1.13388 2.05379 0
M  V30 12383 C 1163.71 -1.43868 0.978668 0
M  V30 12384 O 1164.89 -1.54512 1.29182 0
M  V30 12385 C 1161.95 -2.43444 2.46852 0
M  V30 12386 C 1161.01 -2.20146 3.68557 0
M  V30 12387 C 1160.25 -3.44001 4.08043 0
M  V30 12388 O 1160.47 -4.52233 3.47623 0
M  V30 12389 O 1159.4 -3.33596 5.00997 0
M  V30 12390 H 1163.23 -0.755622 2.9415 0
M  V30 12391 H 1160.82 -0.307707 1.46197 0
M  V30 12392 H 1162.7 -3.20027 2.74155 0
M  V30 12393 H 1161.37 -2.80696 1.61219 0
M  V30 12394 H 1160.28 -1.41345 3.46371 0
M  V30 12395 H 1161.61 -1.87787 4.54969 0
M  V30 12396 N 1163.26 -1.53291 -0.366026 0
M  V30 12397 C 1164.19 -1.82675 -1.45437 0
M  V30 12398 C 1165.18 -0.680227 -1.55907 0
M  V30 12399 O 1166.36 -0.930032 -1.70482 0
M  V30 12400 C 1163.49 -2.01626 -2.8278 0
M  V30 12401 C 1162.44 -3.17391 -2.87135 0
M  V30 12402 C 1161.77 -3.21634 -4.27148 0
M  V30 12403 C 1163.07 -4.5599 -2.54697 0
M  V30 12404 H 1164.76 -2.73818 -1.21096 0
M  V30 12405 H 1162.31 -1.31754 -0.581108 0
M  V30 12406 H 1164.26 -2.20765 -3.58944 0
M  V30 12407 H 1162.99 -1.07193 -3.08508 0
M  V30 12408 H 1161.65 -2.98071 -2.13422 0
M  V30 12409 H 1161.29 -2.2484 -4.49951 0
M  V30 12410 H 1160.99 -3.99414 -4.30978 0
M  V30 12411 H 1162.52 -3.42957 -5.05186 0
M  V30 12412 H 1163.93 -4.75294 -3.20575 0
M  V30 12413 H 1162.33 -5.36008 -2.69844 0
M  V30 12414 H 1163.4 -4.61133 -1.49949 0
M  V30 12415 N 1164.74 0.6258 -1.44643 0
M  V30 12416 C 1165.69 1.73751 -1.51919 0
M  V30 12417 C 1166.66 1.62007 -0.36647 0
M  V30 12418 O 1167.84 1.81852 -0.577439 0
M  V30 12419 C 1164.98 3.12015 -1.47448 0
M  V30 12420 C 1164.1 3.34696 -2.73135 0
M  V30 12421 C 1163.23 4.62962 -2.6046 0
M  V30 12422 C 1162.27 4.7884 -3.81286 0
M  V30 12423 N 1161.41 5.98388 -3.67255 0
M  V30 12424 H 1166.25 1.66867 -2.46899 0
M  V30 12425 H 1163.79 0.813921 -1.22531 0
M  V30 12426 H 1165.74 3.91983 -1.42846 0
M  V30 12427 H 1164.37 3.179 -0.560312 0
M  V30 12428 H 1163.43 2.4863 -2.87901 0
M  V30 12429 H 1164.74 3.42306 -3.62806 0
M  V30 12430 H 1163.89 5.51099 -2.53722 0
M  V30 12431 H 1162.63 4.57719 -1.68359 0
M  V30 12432 H 1161.64 3.89131 -3.88403 0
M  V30 12433 H 1162.86 4.85893 -4.74431 0
M  V30 12434 H 1160.81 5.94224 -2.77909 0
M  V30 12435 H 1160.72 6.07078 -4.50547 0
M  V30 12436 H 1161.99 6.89072 -3.64417 0
M  V30 12437 N 1166.22 1.31629 0.866686 0
M  V30 12438 C 1167.46 1.22806 1.63395 0
M  V30 12439 C 1167.82 -0.209785 1.9085 0
M  V30 12440 O 1169.03 -0.421562 2.65474 0
M  V30 12441 C 1167.3 2.05187 2.92631 0
M  V30 12442 S 1168.86 2.13261 3.83491 0
M  V30 12443 H 1165.67 0.437339 0.560585 0
M  V30 12444 H 1168.28 1.66333 1.02731 0
M  V30 12445 H 1166.98 3.08736 2.70389 0
M  V30 12446 H 1166.51 1.62393 3.58318 0
M  V30 12447 H 1168.53 1.27333 4.79584 0
M  V30 12448 N 1167.7 -1.08142 1.14644 0
M  V30 12449 C 1168.95 -1.80225 0.914517 0
M  V30 12450 C 1169.27 -1.86778 -0.560269 0
M  V30 12451 O 1168.54 -1.36284 -1.40724 0
M  V30 12452 H 1167.12 -0.667492 0.335356 0
M  V30 12453 H 1169.78 -1.30729 1.44554 0
M  V30 12454 H 1168.88 -2.82958 1.31685 0
M  V30 12455 N 1169.18 -0.941978 -1.26351 0
M  V30 12456 C 1170.4 -0.606231 -1.98342 0
M  V30 12457 C 1170.83 0.812014 -1.6967 0
M  V30 12458 O 1170.19 1.54712 -0.9452 0
M  V30 12459 C 1170.23 -0.855864 -3.50296 0
M  V30 12460 O 1169.34 0.0716251 -4.12338 0
M  V30 12461 H 1168.68 -0.231815 -0.62222 0
M  V30 12462 H 1171.21 -1.26513 -1.60797 0
M  V30 12463 H 1171.22 -0.777079 -4.00531 0
M  V30 12464 H 1169.89 -1.8896 -3.70496 0
M  V30 12465 H 1168.47 -0.0582866 -3.72854 0
M  V30 12466 N 1170.66 1.40747 -0.709091 0
M  V30 12467 C 1171.9 2.00606 -0.245324 0
M  V30 12468 C 1172.22 1.56489 1.16346 0
M  V30 12469 O 1171.49 0.801456 1.78755 0
M  V30 12470 H 1170.07 0.741833 -0.0877098 0
M  V30 12471 H 1172.74 1.72178 -0.913271 0
M  V30 12472 H 1171.83 3.10901 -0.273322 0
M  V30 12473 N 1172.13 0.454803 1.50895 0
M  V30 12474 C 1173.38 -0.107367 2.01414 0
M  V30 12475 C 1173.7 -1.42243 1.34262 0
M  V30 12476 O 1174.9 -2.06858 1.75846 0
M  V30 12477 C 1173.36 -0.241872 3.59086 0
M  V30 12478 C 1172.97 1.06379 4.35187 0
M  V30 12479 C 1174.71 -0.756873 4.17698 0
M  V30 12480 C 1172.62 0.893973 5.84604 0
M  V30 12481 H 1171.55 -0.0439003 0.752721 0
M  V30 12482 H 1174.2 0.587225 1.7385 0
M  V30 12483 H 1172.58 -0.999873 3.83169 0
M  V30 12484 H 1173.75 1.83148 4.2284 0
M  V30 12485 H 1172.07 1.50865 3.88109 0
M  V30 12486 H 1174.67 -0.900697 5.27059 0
M  V30 12487 H 1175.01 -1.74397 3.7801 0
M  V30 12488 H 1175.54 -0.0567088 3.9776 0
M  V30 12489 H 1172.28 1.85395 6.28736 0
M  V30 12490 H 1171.8 0.166387 5.99569 0
M  V30 12491 H 1173.48 0.554084 6.44623 0
M  V30 12492 N 1173.61 -1.56489 0.186789 0
M  V30 12493 C 1174.86 -1.97341 -0.454158 0
M  V30 12494 C 1175.19 -1.07337 -1.622 0
M  V30 12495 O 1174.44 -0.1107 -1.95387 0
M  V30 12496 C 1174.74 -3.44145 -0.964315 0
M  V30 12497 C 1174.41 -4.50812 0.0892734 0
M  V30 12498 C 1173.07 -4.79707 0.378794 0
M  V30 12499 C 1175.42 -5.14968 0.8036 0
M  V30 12500 C 1172.75 -5.70051 1.38776 0
M  V30 12501 C 1175.1 -6.06402 1.80166 0
M  V30 12502 C 1173.76 -6.33657 2.09847 0
M  V30 12503 H 1173.03 -0.722124 -0.166188 0
M  V30 12504 H 1175.68 -1.89412 0.282008 0
M  V30 12505 H 1173.99 -3.49103 -1.7786 0
M  V30 12506 H 1175.68 -3.73104 -1.4695 0
M  V30 12507 H 1172.27 -4.28349 -0.146552 0
M  V30 12508 H 1176.46 -4.92743 0.593147 0
M  V30 12509 H 1171.71 -5.89445 1.62373 0
M  V30 12510 H 1175.89 -6.55176 2.36045 0
M  V30 12511 H 1173.51 -7.03462 2.88175 0
M  V30 12512 N 1175.09 0.086862 -1.5736 0
M  V30 12513 C 1176.34 0.790008 -1.8678 0
M  V30 12514 C 1176.67 1.77977 -0.777042 0
M  V30 12515 O 1175.94 1.93317 0.21419 0
M  V30 12516 C 1176.23 1.51143 -3.26845 0
M  V30 12517 C 1176.08 0.539106 -4.46558 0
M  V30 12518 C 1177.4 2.46003 -3.64926 0
M  V30 12519 H 1174.52 0.285741 -0.679354 0
M  V30 12520 H 1177.16 0.0534655 -1.89925 0
M  V30 12521 H 1175.31 2.13928 -3.24295 0
M  V30 12522 H 1176.98 -0.0823679 -4.61226 0
M  V30 12523 H 1175.22 -0.146842 -4.33551 0
M  V30 12524 H 1175.9 1.0812 -5.41308 0
M  V30 12525 H 1178.37 1.93306 -3.68473 0
M  V30 12526 H 1177.25 2.93493 -4.63846 0
M  V30 12527 H 1177.51 3.30133 -2.94049 0
M  V30 12528 N 1176.57 1.53483 0.357892 0
M  V30 12529 C 1177.8 1.73956 1.12013 0
M  V30 12530 C 1178.21 0.472053 1.82803 0
M  V30 12531 O 1177.57 -0.555499 1.7384 0
M  V30 12532 C 1177.62 2.91015 2.14459 0
M  V30 12533 O 1177.34 4.12862 1.4655 0
M  V30 12534 C 1178.84 3.23423 3.0317 0
M  V30 12535 H 1176.06 0.58161 0.334621 0
M  V30 12536 H 1178.6 2.00256 0.414467 0
M  V30 12537 H 1176.76 2.67087 2.80612 0
M  V30 12538 H 1177.17 4.78468 2.14869 0
M  V30 12539 H 1178.65 4.08717 3.71018 0
M  V30 12540 H 1179.12 2.39114 3.68404 0
M  V30 12541 H 1179.73 3.49305 2.42624 0
M  V30 12542 N 1178.05 -0.61812 1.44973 0
M  V30 12543 C 1179.32 -1.37705 1.38913 0
M  V30 12544 C 1179.7 -2.1103 0.054385 0
M  V30 12545 O 1179.05 -2.07197 -0.963409 0
M  V30 12546 C 1179.26 -2.33265 2.59593 0
M  V30 12547 C 1180.61 -2.96197 3.04224 0
M  V30 12548 O 1181.63 -2.43589 2.59891 0
M  V30 12549 O 1180.49 -3.91666 3.8113 0
M  V30 12550 H 1177.59 -0.61694 0.55074 0
M  V30 12551 H 1180.13 -0.642088 1.57084 0
M  V30 12552 H 1178.9 -1.78271 3.48332 0
M  V30 12553 H 1178.53 -3.14158 2.43702 0
M  V30 12554 N 1179.52 -1.32087 -0.859693 0
M  V30 12555 C 1180.47 -1.20549 -1.98924 0
M  V30 12556 C 1181.47 -0.111422 -1.69033 0
M  V30 12557 O 1182.67 -0.27401 -1.77902 0
M  V30 12558 H 1179.05 -0.373538 -0.652667 0
M  V30 12559 H 1181.02 -2.16091 -2.05785 0
M  V30 12560 C 1179.77 -0.940226 -3.34746 0
M  V30 12561 H 1179.09 -1.77427 -3.58273 0
M  V30 12562 H 1180.53 -0.899712 -4.14344 0
M  V30 12563 C 1178.99 0.357042 -3.35003 0
M  V30 12564 O 1179.52 1.37054 -3.77596 0
M  V30 12565 N 1177.72 0.37723 -2.88141 0
M  V30 12566 H 1177.27 -0.448051 -2.53674 0
M  V30 12567 H 1177.23 1.24509 -2.88695 0
M  V30 12568 N 1181 1.07532 -1.15215 0
M  V30 12569 C 1182.25 1.8036 -0.927263 0
M  V30 12570 C 1182.58 1.86414 0.544371 0
M  V30 12571 O 1181.86 1.34653 1.40353 0
M  V30 12572 C 1182.14 3.25512 -1.53992 0
M  V30 12573 C 1181.99 3.27614 -3.08203 0
M  V30 12574 C 1183.31 4.22731 -1.22418 0
M  V30 12575 H 1180.43 0.654775 -0.338289 0
M  V30 12576 H 1183.07 1.25842 -1.42351 0
M  V30 12577 H 1181.22 3.72068 -1.11791 0
M  V30 12578 H 1182.89 2.89315 -3.59297 0
M  V30 12579 H 1181.14 2.66627 -3.42188 0
M  V30 12580 H 1181.81 4.29956 -3.46182 0
M  V30 12581 H 1184.28 3.84557 -1.58919 0
M  V30 12582 H 1183.16 5.22589 -1.67906 0
M  V30 12583 H 1183.42 4.41875 -0.14091 0
M  V30 12584 N 1182.48 0.948665 1.2585 0
M  V30 12585 C 1183.43 0.434929 2.23813 0
M  V30 12586 C 1184.41 -0.472518 1.53805 0
M  V30 12587 O 1185.61 -0.306542 1.74325 0
M  V30 12588 C 1182.74 -0.291678 3.42059 0
M  V30 12589 C 1181.82 0.633493 4.19342 0
M  V30 12590 N 1182.21 1.76254 4.74097 0
M  V30 12591 C 1180.51 0.440528 4.43819 0
M  V30 12592 C 1181.21 2.33968 5.32573 0
M  V30 12593 N 1180.19 1.62687 5.18685 0
M  V30 12594 H 1183.99 1.29668 2.63749 0
M  V30 12595 H 1181.5 0.805431 1.4102 0
M  V30 12596 H 1183.5 -0.676811 4.1137 0
M  V30 12597 H 1182.16 -1.15011 3.03649 0
M  V30 12598 H 1183.17 2.14453 4.71413 0
M  V30 12599 H 1179.85 -0.375515 4.15808 0
M  V30 12600 H 1181.24 3.2914 5.85761 0
M  V30 12601 N 1183.96 -1.40369 0.716545 0
M  V30 12602 C 1185.19 -2.05181 0.266143 0
M  V30 12603 C 1185.6 -1.53988 -1.09239 0
M  V30 12604 O 1184.96 -0.696859 -1.68672 0
M  V30 12605 C 1185.01 -3.60713 0.238384 0
M  V30 12606 O 1184.73 -4.10018 1.54328 0
M  V30 12607 C 1186.23 -4.42701 -0.230453 0
M  V30 12608 H 1183.45 -0.66028 0.119463 0
M  V30 12609 H 1186 -1.7976 0.97502 0
M  V30 12610 H 1184.15 -3.85101 -0.421466 0
M  V30 12611 H 1184.56 -5.0422 1.4444 0
M  V30 12612 H 1186.04 -5.51642 -0.198728 0
M  V30 12613 H 1186.52 -4.20354 -1.27276 0
M  V30 12614 H 1187.12 -4.23423 0.399155 0
M  V30 12615 N 1185.44 -0.462799 -1.50652 0
M  V30 12616 C 1186.68 0.0873392 -2.03212 0
M  V30 12617 C 1187.04 1.38147 -1.33915 0
M  V30 12618 O 1186.33 1.86161 -0.453286 0
M  V30 12619 C 1186.52 0.335294 -3.55824 0
M  V30 12620 C 1186.35 -0.933253 -4.3991 0
M  V30 12621 C 1185.12 -1.47417 -4.83318 0
M  V30 12622 C 1187.32 -1.8264 -4.80777 0
M  V30 12623 N 1185.3 -2.6926 -5.51699 0
M  V30 12624 C 1186.67 -2.89075 -5.48485 0
M  V30 12625 C 1188.73 -1.83778 -4.62742 0
M  V30 12626 C 1187.43 -3.96625 -6.00067 0
M  V30 12627 C 1189.46 -2.90279 -5.15259 0
M  V30 12628 C 1188.82 -3.95433 -5.82934 0
M  V30 12629 H 1184.92 -0.00785676 -0.781961 0
M  V30 12630 H 1187.5 -0.629156 -1.84254 0
M  V30 12631 H 1185.67 1.02083 -3.74745 0
M  V30 12632 H 1187.41 0.879039 -3.95038 0
M  V30 12633 H 1184.16 -1.02451 -4.62386 0
M  V30 12634 H 1184.59 -3.31115 -5.90502 0
M  V30 12635 H 1189.23 -1.03802 -4.0986 0
M  V30 12636 H 1186.95 -4.77424 -6.51991 0
M  V30 12637 H 1190.53 -2.92133 -5.0314 0
M  V30 12638 H 1189.41 -4.76487 -6.2284 0
M  V30 12639 N 1186.91 1.56388 -0.195085 0
M  V30 12640 C 1188.14 2.01963 0.449289 0
M  V30 12641 C 1188.56 1.07522 1.55192 0
M  V30 12642 O 1187.91 0.0800915 1.82324 0
M  V30 12643 C 1187.97 3.47231 1.00561 0
M  V30 12644 O 1187.69 4.38068 -0.0530241 0
M  V30 12645 C 1189.19 4.08324 1.72587 0
M  V30 12646 H 1186.41 0.661452 0.112792 0
M  V30 12647 H 1188.95 2.02231 -0.303788 0
M  V30 12648 H 1187.11 3.47663 1.70907 0
M  V30 12649 H 1187.52 5.23256 0.361076 0
M  V30 12650 H 1188.99 5.11821 2.06744 0
M  V30 12651 H 1189.47 3.51782 2.62956 0
M  V30 12652 H 1190.08 4.11665 1.06826 0
M  V30 12653 N 1188.39 -0.0785156 1.57404 0
M  V30 12654 C 1189.3 -1.11203 2.0657 0
M  V30 12655 C 1190.32 -1.42822 0.993872 0
M  V30 12656 O 1191.49 -1.53133 1.30814 0
M  V30 12657 C 1188.56 -2.40812 2.4942 0
M  V30 12658 C 1187.62 -2.16225 3.70871 0
M  V30 12659 C 1186.85 -3.39654 4.11668 0
M  V30 12660 O 1187.08 -4.48521 3.524 0
M  V30 12661 O 1186.01 -3.28263 5.04507 0
M  V30 12662 H 1189.84 -0.724381 2.94935 0
M  V30 12663 H 1187.42 -0.292184 1.46515 0
M  V30 12664 H 1189.3 -3.17101 2.77534 0
M  V30 12665 H 1187.98 -2.7897 1.64187 0
M  V30 12666 H 1186.89 -1.37663 3.4785 0
M  V30 12667 H 1188.22 -1.82951 4.56935 0
M  V30 12668 N 1189.87 -1.5367 -0.349747 0
M  V30 12669 C 1190.8 -1.77528 -1.4497 0
M  V30 12670 C 1191.82 -0.656412 -1.4898 0
M  V30 12671 O 1193 -0.933016 -1.52174 0
M  V30 12672 C 1190.1 -1.85445 -2.8366 0
M  V30 12673 C 1189.28 -3.15295 -3.03163 0
M  V30 12674 C 1188.34 -3.1425 -4.22059 0
M  V30 12675 O 1187.36 -3.87994 -4.16472 0
M  V30 12676 N 1188.56 -2.36181 -5.30282 0
M  V30 12677 H 1191.33 -2.72444 -1.24877 0
M  V30 12678 H 1188.89 -1.52644 -0.539586 0
M  V30 12679 H 1190.88 -1.82204 -3.61364 0
M  V30 12680 H 1189.45 -0.977436 -2.96926 0
M  V30 12681 H 1188.67 -3.31711 -2.12983 0
M  V30 12682 H 1189.96 -4.01078 -3.13072 0
M  V30 12683 H 1189.36 -1.75808 -5.37688 0
M  V30 12684 H 1187.92 -2.38744 -6.06502 0
M  V30 12685 N 1191.35 0.610423 -1.45298 0
M  V30 12686 C 1192.58 1.39419 -1.52466 0
M  V30 12687 C 1192.99 1.88563 -0.1551 0
M  V30 12688 O 1192.33 1.62692 0.853061 0
M  V30 12689 C 1192.39 2.63515 -2.44541 0
M  V30 12690 C 1192.06 2.36028 -3.91331 0
M  V30 12691 C 1193.05 1.96567 -4.81308 0
M  V30 12692 C 1190.74 2.49028 -4.36223 0
M  V30 12693 C 1192.73 1.70461 -6.14184 0
M  V30 12694 C 1190.42 2.22536 -5.6914 0
M  V30 12695 C 1191.42 1.83314 -6.5794 0
M  V30 12696 O 1191.1 1.57131 -7.88394 0
M  V30 12697 H 1190.84 0.433278 -0.518889 0
M  V30 12698 H 1193.39 0.751803 -1.91147 0
M  V30 12699 H 1191.62 3.30463 -2.00826 0
M  V30 12700 H 1193.31 3.25554 -2.42424 0
M  V30 12701 H 1194.08 1.86062 -4.4789 0
M  V30 12702 H 1189.95 2.78524 -3.67349 0
M  V30 12703 H 1193.5 1.39773 -6.83454 0
M  V30 12704 H 1189.4 2.32657 -6.02114 0
M  V30 12705 H 1190.16 1.71207 -8.00394 0
M  V30 12706 N 1192.83 1.32541 0.852676 0
M  V30 12707 C 1193.77 1.21643 1.96142 0
M  V30 12708 C 1194.74 0.0981496 1.6581 0
M  V30 12709 O 1195.93 0.27404 1.88822 0
M  V30 12710 C 1193.07 0.947483 3.31838 0
M  V30 12711 C 1192.18 2.15074 3.74656 0
M  V30 12712 C 1191.32 1.81711 4.99154 0
M  V30 12713 C 1190.36 2.98346 5.34468 0
M  V30 12714 N 1189.49 2.65062 6.50143 0
M  V30 12715 H 1194.33 2.16479 2.04795 0
M  V30 12716 H 1191.87 1.07664 1.00234 0
M  V30 12717 H 1193.83 0.772038 4.09994 0
M  V30 12718 H 1192.46 0.0359112 3.2278 0
M  V30 12719 H 1191.51 2.43639 2.92137 0
M  V30 12720 H 1192.82 3.02314 3.96747 0
M  V30 12721 H 1191.98 1.60729 5.85022 0
M  V30 12722 H 1190.71 0.916875 4.79004 0
M  V30 12723 H 1189.72 3.19956 4.47111 0
M  V30 12724 H 1190.94 3.89104 5.56574 0
M  V30 12725 H 1188.89 1.77582 6.31507 0
M  V30 12726 H 1188.81 3.45832 6.72262 0
M  V30 12727 H 1190.08 2.47516 7.39159 0
M  V30 12728 N 1194.3 -1.0692 1.15784 0
M  V30 12729 C 1195.55 -1.796 0.935429 0
M  V30 12730 C 1195.88 -1.86935 -0.537173 0
M  V30 12731 O 1195.13 -1.35244 -1.41448 0
M  V30 12732 C 1195.43 -3.24389 1.50022 0
M  V30 12733 C 1195.1 -3.37145 2.99406 0
M  V30 12734 C 1193.76 -3.40334 3.40186 0
M  V30 12735 C 1196.11 -3.39584 3.95389 0
M  V30 12736 C 1193.44 -3.43569 4.75581 0
M  V30 12737 C 1195.79 -3.44356 5.30661 0
M  V30 12738 C 1194.46 -3.45824 5.70931 0
M  V30 12739 H 1193.73 -0.657201 0.342298 0
M  V30 12740 H 1196.37 -1.25784 1.44397 0
M  V30 12741 H 1194.68 -3.81015 0.91297 0
M  V30 12742 H 1196.38 -3.79209 1.30389 0
M  V30 12743 H 1192.97 -3.35365 2.66887 0
M  V30 12744 H 1197.15 -3.36337 3.64954 0
M  V30 12745 H 1192.41 -3.43006 5.06119 0
M  V30 12746 H 1196.58 -3.4519 6.04828 0
M  V30 12747 H 1194.21 -3.48084 6.75826 0
M  V30 12748 N 1195.78 -0.955326 -1.25345 0
M  V30 12749 C 1196.71 -0.4334 -2.25065 0
M  V30 12750 C 1197.73 0.451099 -1.56425 0
M  V30 12751 O 1198.92 0.259265 -1.76607 0
M  V30 12752 C 1196.02 0.394809 -3.36592 0
M  V30 12753 C 1195.19 -0.476856 -4.34793 0
M  V30 12754 C 1194.25 0.293269 -5.25382 0
M  V30 12755 O 1193.27 -0.30857 -5.68363 0
M  V30 12756 N 1194.48 1.58617 -5.58409 0
M  V30 12757 H 1197.24 -1.29073 -2.70482 0
M  V30 12758 H 1194.8 -0.825764 -1.39258 0
M  V30 12759 H 1196.79 0.917747 -3.94157 0
M  V30 12760 H 1195.36 1.153 -2.90559 0
M  V30 12761 H 1194.58 -1.18089 -3.76097 0
M  V30 12762 H 1195.87 -1.07178 -4.97384 0
M  V30 12763 H 1195.27 2.09705 -5.25395 0
M  V30 12764 H 1193.83 2.05506 -6.18555 0
M  V30 12765 N 1197.26 1.39987 -0.723979 0
M  V30 12766 C 1198.67 1.83606 -0.338461 0
M  V30 12767 C 1199.02 1.6051 1.12831 0
M  V30 12768 O 1198.15 1.09041 1.8692 0
M  V30 12769 C 1198.74 3.33308 -0.607533 0
M  V30 12770 C 1197.3 3.75389 -0.275632 0
M  V30 12771 C 1196.45 2.6311 -0.875699 0
M  V30 12772 H 1199.4 1.29135 -0.922483 0
M  V30 12773 H 1199.42 3.80297 0.124424 0
M  V30 12774 H 1198.93 3.50087 -1.67514 0
M  V30 12775 H 1197.03 3.64203 0.786579 0
M  V30 12776 H 1197.15 4.73185 -0.750492 0
M  V30 12777 H 1195.51 2.5289 -0.303122 0
M  V30 12778 H 1196.29 2.82698 -1.94774 0
M  V30 12779 N 1198.74 0.470782 1.50404 0
M  V30 12780 C 1199.65 -0.328877 2.32283 0
M  V30 12781 C 1200.67 -0.99629 1.42654 0
M  V30 12782 O 1201.84 -0.984331 1.75707 0
M  V30 12783 C 1198.91 -1.39675 3.1732 0
M  V30 12784 C 1197.97 -0.745965 4.22769 0
M  V30 12785 C 1197.2 -1.76295 5.03742 0
M  V30 12786 O 1197.42 -2.98943 4.85788 0
M  V30 12787 O 1196.36 -1.33495 5.86909 0
M  V30 12788 H 1200.18 0.340491 3.01785 0
M  V30 12789 H 1197.77 0.232637 1.47578 0
M  V30 12790 H 1199.65 -2.0153 3.70086 0
M  V30 12791 H 1198.33 -2.04959 2.50546 0
M  V30 12792 H 1197.23 -0.0884647 3.73995 0
M  V30 12793 H 1198.57 -0.136074 4.92012 0
M  V30 12794 N 1200.22 -1.56282 0.203376 0
M  V30 12795 C 1201.44 -2.02643 -0.441658 0
M  V30 12796 C 1201.87 -1.0825 -1.5383 0
M  V30 12797 O 1201.23 -0.0674337 -1.81175 0
M  V30 12798 C 1201.27 -3.47382 -0.967369 0
M  V30 12799 O 1200.38 -3.56115 -2.07981 0
M  V30 12800 H 1199.72 -0.656081 -0.102242 0
M  V30 12801 H 1202.25 -2.02134 0.316684 0
M  V30 12802 H 1202.26 -3.8734 -1.28186 0
M  V30 12803 H 1200.93 -4.15574 -0.164625 0
M  V30 12804 H 1199.51 -3.28035 -1.77334 0
M  V30 12805 N 1201.7 0.070167 -1.57444 0
M  V30 12806 C 1203.11 0.621805 -1.76041 0
M  V30 12807 C 1203.46 1.77824 -0.829047 0
M  V30 12808 O 1202.58 2.16396 -0.0135453 0
M  V30 12809 C 1203.18 1.13476 -3.19231 0
M  V30 12810 C 1201.74 1.63225 -3.39167 0
M  V30 12811 C 1200.88 0.552369 -2.71743 0
M  V30 12812 H 1203.83 -0.156009 -1.57931 0
M  V30 12813 H 1203.86 2.00352 -3.2348 0
M  V30 12814 H 1203.37 0.29288 -3.86993 0
M  V30 12815 H 1201.47 2.49733 -2.76522 0
M  V30 12816 H 1201.58 1.70807 -4.47618 0
M  V30 12817 H 1199.95 0.997797 -2.34342 0
M  V30 12818 H 1200.73 -0.279354 -3.42162 0
M  V30 12819 N 1203.17 1.53854 0.341593 0
M  V30 12820 C 1204.4 1.75447 1.10604 0
M  V30 12821 C 1204.82 0.493225 1.81518 0
M  V30 12822 O 1204.18 -0.554253 1.7262 0
M  V30 12823 C 1204.23 2.93593 2.09369 0
M  V30 12824 O 1203.33 2.63878 3.16926 0
M  V30 12825 H 1202.67 0.581923 0.319783 0
M  V30 12826 H 1205.2 2.00822 0.391388 0
M  V30 12827 H 1205.21 3.20437 2.52556 0
M  V30 12828 H 1203.89 3.85067 1.57151 0
M  V30 12829 H 1202.47 2.47929 2.78542 0
M  V30 12830 N 1204.65 -0.602709 1.4562 0
M  V30 12831 C 1205.6 -1.71312 1.54664 0
M  V30 12832 C 1206.57 -1.61403 0.392197 0
M  V30 12833 O 1207.75 -1.80911 0.606297 0
M  V30 12834 C 1204.89 -3.09629 1.52393 0
M  V30 12835 C 1204.01 -3.30308 2.78425 0
M  V30 12836 C 1203.14 -4.5876 2.67793 0
M  V30 12837 C 1202.18 -4.72713 3.88855 0
M  V30 12838 N 1201.32 -5.92469 3.76729 0
M  V30 12839 H 1206.16 -1.62918 2.49523 0
M  V30 12840 H 1203.69 -0.794324 1.2381 0
M  V30 12841 H 1205.65 -3.89661 1.49064 0
M  V30 12842 H 1204.28 -3.16968 0.610816 0
M  V30 12843 H 1203.33 -2.44018 2.9182 0
M  V30 12844 H 1204.65 -3.36491 3.68205 0
M  V30 12845 H 1203.8 -5.46993 2.62457 0
M  V30 12846 H 1202.54 -4.54983 1.75619 0
M  V30 12847 H 1201.54 -3.82903 3.94545 0
M  V30 12848 H 1202.77 -4.78284 4.82101 0
M  V30 12849 H 1200.72 -5.89728 2.87328 0
M  V30 12850 H 1200.63 -5.99833 4.60148 0
M  V30 12851 H 1201.9 -6.83187 3.75334 0
M  V30 12852 N 1206.13 -1.32992 -0.845635 0
M  V30 12853 C 1207.06 -1.25301 -1.97033 0
M  V30 12854 C 1208.04 -0.134966 -1.69564 0
M  V30 12855 O 1209.23 -0.323629 -1.91484 0
M  V30 12856 C 1206.36 -0.984551 -3.33052 0
M  V30 12857 C 1205.31 -2.06481 -3.749 0
M  V30 12858 C 1204.64 -1.6486 -5.08651 0
M  V30 12859 C 1205.94 -3.48083 -3.89404 0
M  V30 12860 H 1207.63 -2.194 -2.03725 0
M  V30 12861 H 1205.18 -1.05621 -0.978783 0
M  V30 12862 H 1207.13 -0.917269 -4.11296 0
M  V30 12863 H 1205.85 -0.00793116 -3.26599 0
M  V30 12864 H 1204.51 -2.1224 -2.98915 0
M  V30 12865 H 1204.16 -0.659183 -4.98662 0
M  V30 12866 H 1203.86 -2.37145 -5.37621 0
M  V30 12867 H 1205.38 -1.59585 -5.89377 0
M  V30 12868 H 1206.8 -3.44863 -4.57976 0
M  V30 12869 H 1205.19 -4.18796 -4.29802 0
M  V30 12870 H 1206.26 -3.87084 -2.92051 0
M  V30 12871 N 1207.61 1.06304 -1.1635 0
M  V30 12872 C 1208.57 2.11947 -0.872419 0
M  V30 12873 C 1209.57 1.60253 0.132534 0
M  V30 12874 O 1210.76 1.73922 -0.0983441 0
M  V30 12875 C 1207.89 3.39536 -0.304646 0
M  V30 12876 H 1209.09 2.39201 -1.80894 0
M  V30 12877 H 1206.64 1.22367 -0.972419 0
M  V30 12878 H 1207.37 3.17931 0.639565 0
M  V30 12879 H 1207.16 3.78363 -1.02878 0
M  V30 12880 H 1208.65 4.17431 -0.118936 0
M  V30 12881 N 1209.09 0.96196 1.24836 0
M  V30 12882 C 1210.31 0.637709 1.97353 0
M  V30 12883 C 1210.74 -0.784919 1.7094 0
M  V30 12884 O 1210.09 -1.53188 0.969694 0
M  V30 12885 C 1210.14 0.911485 3.4889 0
M  V30 12886 O 1209.25 -0.00601668 4.124 0
M  V30 12887 H 1208.59 0.241685 0.618453 0
M  V30 12888 H 1211.12 1.29055 1.58764 0
M  V30 12889 H 1211.13 0.840702 3.99245 0
M  V30 12890 H 1209.8 1.9483 3.67442 0
M  V30 12891 H 1208.38 0.117597 3.72715 0
M  V30 12892 N 1210.56 -1.39601 0.731392 0
M  V30 12893 C 1211.53 -2.28992 0.0976037 0
M  V30 12894 C 1212.53 -1.46135 -0.670917 0
M  V30 12895 O 1213.72 -1.66856 -0.50047 0
M  V30 12896 C 1210.85 -3.29582 -0.871124 0
M  V30 12897 H 1212.04 -2.86541 0.885112 0
M  V30 12898 H 1209.59 -1.48188 0.497002 0
M  V30 12899 H 1210.33 -2.77082 -1.68512 0
M  V30 12900 H 1210.11 -3.9077 -0.322735 0
M  V30 12901 H 1211.6 -3.96479 -1.31126 0
M  V30 12902 N 1212.04 -0.478751 -1.50152 0
M  V30 12903 C 1213.29 0.07531 -2.01559 0
M  V30 12904 C 1213.6 1.40089 -1.36508 0
M  V30 12905 O 1214.81 2.04035 -1.79115 0
M  V30 12906 C 1213.27 0.184714 -3.59426 0
M  V30 12907 C 1212.87 -1.13289 -4.33439 0
M  V30 12908 C 1214.62 0.690326 -4.18849 0
M  V30 12909 C 1212.53 -0.986866 -5.83108 0
M  V30 12910 H 1211.46 0.0319196 -0.753324 0
M  V30 12911 H 1214.11 -0.614809 -1.72894 0
M  V30 12912 H 1212.49 0.938788 -3.84711 0
M  V30 12913 H 1213.66 -1.89852 -4.19872 0
M  V30 12914 H 1211.98 -1.57021 -3.8566 0
M  V30 12915 H 1214.57 0.816733 -5.28426 0
M  V30 12916 H 1214.92 1.68361 -3.80737 0
M  V30 12917 H 1215.45 -0.00657846 -3.97799 0
M  V30 12918 H 1212.19 -1.95375 -6.25707 0
M  V30 12919 H 1211.71 -0.261752 -5.99229 0
M  V30 12920 H 1213.39 -0.656567 -6.4366 0
M  V30 12921 N 1213.52 1.56172 -0.211661 0
M  V30 12922 C 1214.45 2.17107 0.734657 0
M  V30 12923 C 1215.47 1.1374 1.16478 0
M  V30 12924 O 1216.65 1.40763 1.09764 0
M  V30 12925 C 1213.75 2.73182 2.00561 0
M  V30 12926 C 1212.93 4.0162 1.73264 0
M  V30 12927 C 1211.99 4.42357 2.84968 0
M  V30 12928 O 1211.01 5.09453 2.53863 0
M  V30 12929 N 1212.21 4.07223 4.13702 0
M  V30 12930 H 1214.98 2.98939 0.213475 0
M  V30 12931 H 1212.54 1.61872 -0.0302898 0
M  V30 12932 H 1214.53 2.97411 2.74461 0
M  V30 12933 H 1213.1 1.9571 2.43754 0
M  V30 12934 H 1212.32 3.85351 0.830575 0
M  V30 12935 H 1213.61 4.85426 1.52445 0
M  V30 12936 H 1213.01 3.53286 4.4182 0
M  V30 12937 H 1211.57 4.36366 4.84178 0
M  V30 12938 N 1215 -0.0618163 1.57479 0
M  V30 12939 C 1215.95 -1.0724 2.04373 0
M  V30 12940 C 1216.92 -1.37875 0.926271 0
M  V30 12941 O 1218.1 -1.48772 1.19463 0
M  V30 12942 C 1215.24 -2.37805 2.50085 0
M  V30 12943 C 1214.35 -2.13614 3.7549 0
M  V30 12944 C 1213.49 -3.37814 4.09945 0
M  V30 12945 C 1212.53 -3.09032 5.28361 0
M  V30 12946 N 1211.66 -4.25591 5.58406 0
M  V30 12947 H 1216.5 -0.665536 2.90473 0
M  V30 12948 H 1214.04 -0.317043 1.43643 0
M  V30 12949 H 1216 -3.14048 2.74644 0
M  V30 12950 H 1214.63 -2.76275 1.66948 0
M  V30 12951 H 1213.68 -1.28017 3.58212 0
M  V30 12952 H 1214.99 -1.88361 4.61867 0
M  V30 12953 H 1214.15 -4.22447 4.35458 0
M  V30 12954 H 1212.89 -3.66153 3.22154 0
M  V30 12955 H 1211.89 -2.22797 5.02635 0
M  V30 12956 H 1213.12 -2.82006 6.17778 0
M  V30 12957 H 1211.06 -4.53941 4.73575 0
M  V30 12958 H 1210.98 -4.03646 6.39223 0
M  V30 12959 H 1212.25 -5.11191 5.88476 0
M  V30 12960 N 1216.48 -1.54033 -0.333429 0
M  V30 12961 C 1217.44 -1.82021 -1.39288 0
M  V30 12962 C 1218.44 -0.691623 -1.45166 0
M  V30 12963 O 1219.63 -0.959925 -1.45365 0
M  V30 12964 C 1216.76 -1.97136 -2.78119 0
M  V30 12965 H 1217.95 -2.76671 -1.1573 0
M  V30 12966 H 1215.51 -1.45599 -0.568376 0
M  V30 12967 H 1216.24 -1.04663 -3.06946 0
M  V30 12968 H 1216.03 -2.79251 -2.75247 0
M  V30 12969 H 1217.52 -2.20271 -3.54782 0
M  V30 12970 N 1217.95 0.594978 -1.45938 0
M  V30 12971 C 1218.9 1.69949 -1.51991 0
M  V30 12972 C 1219.89 1.56301 -0.381956 0
M  V30 12973 O 1221.08 1.65423 -0.62961 0
M  V30 12974 C 1218.21 3.08723 -1.5015 0
M  V30 12975 C 1217.3 3.27712 -2.69194 0
M  V30 12976 N 1217.69 3.1691 -3.9421 0
M  V30 12977 C 1215.98 3.58618 -2.65158 0
M  V30 12978 C 1216.69 3.37572 -4.7373 0
M  V30 12979 N 1215.66 3.62154 -4.05395 0
M  V30 12980 H 1219.46 1.60109 -2.46459 0
M  V30 12981 H 1216.98 0.798634 -1.41406 0
M  V30 12982 H 1218.97 3.87978 -1.52573 0
M  V30 12983 H 1217.63 3.19702 -0.567488 0
M  V30 12984 H 1218.65 2.95039 -4.25643 0
M  V30 12985 H 1215.32 3.76358 -1.80724 0
M  V30 12986 H 1216.71 3.34507 -5.82713 0
M  V30 12987 N 1219.43 1.33438 0.838571 0
M  V30 12988 C 1220.34 1.25753 1.98049 0
M  V30 12989 C 1221.36 0.168051 1.73187 0
M  V30 12990 O 1222.53 0.391691 1.97554 0
M  V30 12991 C 1219.6 0.997148 3.32051 0
M  V30 12992 C 1218.66 2.17667 3.70027 0
M  V30 12993 C 1217.89 1.92861 4.97635 0
M  V30 12994 O 1218.12 0.879072 5.63585 0
M  V30 12995 O 1217.05 2.79402 5.33121 0
M  V30 12996 H 1220.88 2.21786 2.07472 0
M  V30 12997 H 1218.46 1.13488 0.971645 0
M  V30 12998 H 1220.34 0.869099 4.1234 0
M  V30 12999 H 1219.02 0.0671036 3.2363 0
M  V30 13000 H 1217.93 2.36025 2.90246 0
M  V30 13001 H 1219.26 3.09006 3.83114 0
M  V30 13002 N 1220.91 -1.05686 1.16912 0
M  V30 13003 C 1221.82 -2.16824 0.8958 0
M  V30 13004 C 1222.84 -1.73482 -0.134215 0
M  V30 13005 O 1224.01 -2.01352 0.0438776 0
M  V30 13006 C 1221.08 -3.44298 0.407427 0
M  V30 13007 C 1220.14 -4.02114 1.50342 0
M  V30 13008 C 1219.37 -5.23503 1.03826 0
M  V30 13009 O 1219.59 -5.70295 -0.109579 0
M  V30 13010 O 1218.53 -5.73432 1.8292 0
M  V30 13011 H 1222.35 -2.42725 1.82533 0
M  V30 13012 H 1219.94 -1.15339 0.949589 0
M  V30 13013 H 1221.82 -4.21159 0.142356 0
M  V30 13014 H 1220.5 -3.19908 -0.494009 0
M  V30 13015 H 1219.4 -3.26715 1.82231 0
M  V30 13016 H 1220.74 -4.30811 2.38039 0
M  V30 13017 N 1222.39 -0.968567 -1.24324 0
M  V30 13018 C 1223.64 -0.629682 -1.9204 0
M  V30 13019 C 1223.96 0.837906 -1.7608 0
M  V30 13020 O 1223.23 1.5982 -1.13289 0
M  V30 13021 H 1221.81 -0.229901 -0.710742 0
M  V30 13022 H 1224.47 -1.22982 -1.512 0
M  V30 13023 H 1223.57 -0.871034 -2.99699 0
M  V30 13024 N 1223.87 1.39211 -0.738786 0
M  V30 13025 C 1225.12 1.99673 -0.285254 0
M  V30 13026 C 1225.43 1.59297 1.13507 0
M  V30 13027 O 1226.63 2.12622 1.68832 0
M  V30 13028 C 1225.09 3.5696 -0.45906 0
M  V30 13029 C 1224.7 4.06297 -1.88751 0
M  V30 13030 C 1226.44 4.24446 -0.0674954 0
M  V30 13031 C 1224.35 5.56171 -2.01067 0
M  V30 13032 H 1223.28 0.746945 -0.102901 0
M  V30 13033 H 1225.93 1.59163 -0.913209 0
M  V30 13034 H 1224.31 3.95285 0.23785 0
M  V30 13035 H 1225.49 3.79297 -2.61669 0
M  V30 13036 H 1223.8 3.51486 -2.23264 0
M  V30 13037 H 1226.4 5.34521 -0.138475 0
M  V30 13038 H 1226.74 4.04653 0.977823 0
M  V30 13039 H 1227.27 3.91309 -0.715704 0
M  V30 13040 H 1224.01 5.80849 -3.03801 0
M  V30 13041 H 1223.53 5.84961 -1.32591 0
M  V30 13042 H 1225.21 6.21642 -1.79362 0
M  V30 13043 N 1225.34 0.486708 1.49896 0
M  V30 13044 C 1226.58 -0.0613987 2.04308 0
M  V30 13045 C 1226.95 -1.3558 1.35948 0
M  V30 13046 O 1228.15 -1.98726 1.81001 0
M  V30 13047 C 1226.42 -0.225167 3.5669 0
M  V30 13048 S 1227.98 -0.729581 4.32692 0
M  V30 13049 H 1224.8 -0.00856238 0.710948 0
M  V30 13050 H 1227.4 0.657414 1.84115 0
M  V30 13051 H 1226.1 0.722447 4.03991 0
M  V30 13052 H 1225.63 -0.969639 3.81263 0
M  V30 13053 H 1227.65 -2.00082 4.54072 0
M  V30 13054 N 1226.82 -1.56058 0.219941 0
M  V30 13055 C 1228.07 -1.97869 -0.411383 0
M  V30 13056 C 1228.39 -1.10878 -1.60409 0
M  V30 13057 O 1227.66 -0.185454 -1.9502 0
M  V30 13058 H 1226.24 -0.730747 -0.154979 0
M  V30 13059 H 1228.9 -1.92379 0.312461 0
M  V30 13060 H 1228 -3.0323 -0.738798 0
M  V30 13061 N 1228.3 0.053464 -1.57509 0
M  V30 13062 C 1229.55 0.748016 -1.87317 0
M  V30 13063 C 1229.86 1.77805 -0.815161 0
M  V30 13064 O 1231.07 2.52347 -1.00167 0
M  V30 13065 C 1229.53 1.38137 -3.32334 0
M  V30 13066 C 1229.13 0.388958 -4.46308 0
M  V30 13067 C 1230.88 2.05722 -3.7132 0
M  V30 13068 C 1228.78 1.02927 -5.82374 0
M  V30 13069 H 1227.71 0.283123 -0.698826 0
M  V30 13070 H 1230.37 0.00170723 -1.835 0
M  V30 13071 H 1228.75 2.17656 -3.3082 0
M  V30 13072 H 1229.92 -0.377752 -4.59249 0
M  V30 13073 H 1228.24 -0.183447 -4.15996 0
M  V30 13074 H 1230.83 2.54437 -4.70283 0
M  V30 13075 H 1231.18 2.86475 -3.02056 0
M  V30 13076 H 1231.71 1.3301 -3.74904 0
M  V30 13077 H 1228.45 0.261674 -6.54977 0
M  V30 13078 H 1227.97 1.7664 -5.732 0
M  V30 13079 H 1229.65 1.54378 -6.28312 0
M  V30 13080 N 1229.78 1.54207 0.325255 0
M  V30 13081 C 1231.2 1.44879 0.669492 0
M  V30 13082 C 1231.4 0.620298 1.91715 0
M  V30 13083 O 1230.45 0.118435 2.52222 0
M  V30 13084 C 1231.76 2.88581 0.845077 0
M  V30 13085 C 1233.31 2.98472 0.942527 0
M  V30 13086 C 1233.79 4.4332 1.15029 0
M  V30 13087 N 1235.28 4.46925 1.21707 0
M  V30 13088 C 1236.01 5.56155 1.39568 0
M  V30 13089 N 1235.51 6.75357 1.54483 0
M  V30 13090 N 1237.3 5.43799 1.42263 0
M  V30 13091 H 1229.45 2.06556 -0.494819 0
M  V30 13092 H 1231.72 0.934474 -0.159568 0
M  V30 13093 H 1231.42 3.517 -0.000442996 0
M  V30 13094 H 1231.3 3.34596 1.74141 0
M  V30 13095 H 1233.68 2.35481 1.77855 0
M  V30 13096 H 1233.76 2.5579 0.0226995 0
M  V30 13097 H 1233.41 5.06896 0.319127 0
M  V30 13098 H 1233.34 4.8361 2.08397 0
M  V30 13099 H 1235.83 3.61036 1.11632 0
M  V30 13100 H 1236.14 7.54363 1.67799 0
M  V30 13101 H 1234.49 6.78268 1.51584 0
M  V30 13102 H 1237.68 4.49627 1.30205 0
M  V30 13103 H 1237.85 6.28982 1.5584 0
M  V30 13104 N 1231.26 -0.58723 1.46251 0
M  V30 13105 C 1232.48 -1.37661 1.55126 0
M  V30 13106 C 1232.91 -1.87123 0.191489 0
M  V30 13107 O 1232.27 -1.6131 -0.827576 0
M  V30 13108 C 1232.31 -2.54324 2.5564 0
M  V30 13109 O 1231.42 -3.55617 2.0883 0
M  V30 13110 H 1230.76 -0.410154 0.522178 0
M  V30 13111 H 1233.29 -0.712738 1.91784 0
M  V30 13112 H 1233.3 -3.01301 2.75103 0
M  V30 13113 H 1231.97 -2.17675 3.54387 0
M  V30 13114 H 1230.55 -3.15151 1.99335 0
M  V30 13115 N 1232.74 -1.33881 -0.831482 0
M  V30 13116 C 1233.98 -1.25942 -1.58955 0
M  V30 13117 C 1234.31 0.172542 -1.93432 0
M  V30 13118 O 1233.59 1.11577 -1.59314 0
M  V30 13119 C 1233.87 -2.14193 -2.89471 0
M  V30 13120 C 1233.73 -3.65883 -2.61628 0
M  V30 13121 C 1235.04 -2.02071 -3.90967 0
M  V30 13122 H 1232.16 -0.458841 -0.576744 0
M  V30 13123 H 1234.81 -1.64052 -0.958482 0
M  V30 13124 H 1232.96 -1.81821 -3.43327 0
M  V30 13125 H 1234.63 -4.08581 -2.14148 0
M  V30 13126 H 1232.87 -3.87397 -1.95208 0
M  V30 13127 H 1233.54 -4.22988 -3.54662 0
M  V30 13128 H 1236.02 -2.30476 -3.46439 0
M  V30 13129 H 1234.89 -2.66059 -4.80108 0
M  V30 13130 H 1235.15 -0.995121 -4.30755 0
M  V30 13131 N 1234.21 1.05064 -1.1747 0
M  V30 13132 C 1235.44 1.81761 -0.988464 0
M  V30 13133 C 1235.86 1.83028 0.463272 0
M  V30 13134 O 1235.21 1.25846 1.32171 0
M  V30 13135 C 1235.26 3.2782 -1.5237 0
M  V30 13136 O 1234.99 3.26726 -2.91859 0
M  V30 13137 C 1236.49 4.212 -1.38223 0
M  V30 13138 H 1233.71 0.572712 -0.349631 0
M  V30 13139 H 1236.25 1.32477 -1.55789 0
M  V30 13140 H 1234.41 3.7437 -0.996272 0
M  V30 13141 H 1234.82 4.18151 -3.16623 0
M  V30 13142 H 1236.29 5.2166 -1.80485 0
M  V30 13143 H 1236.77 4.37962 -0.329491 0
M  V30 13144 H 1237.38 3.80506 -1.89988 0
M  V30 13145 N 1235.69 0.975146 1.23809 0
M  V30 13146 C 1237.11 0.682899 1.44252 0
M  V30 13147 C 1237.31 -0.752739 1.86912 0
M  V30 13148 O 1236.36 -1.52579 2.01186 0
M  V30 13149 C 1237.68 1.67335 2.49839 0
M  V30 13150 C 1239.22 1.6868 2.63659 0
M  V30 13151 C 1239.7 2.66542 3.72451 0
M  V30 13152 N 1241.19 2.65028 3.79887 0
M  V30 13153 C 1241.93 3.37421 4.63611 0
M  V30 13154 N 1241.42 4.19355 5.51465 0
M  V30 13155 N 1243.21 3.2621 4.57759 0
M  V30 13156 H 1235.37 1.9026 0.94418 0
M  V30 13157 H 1237.63 0.819543 0.476502 0
M  V30 13158 H 1237.33 2.69978 2.25399 0
M  V30 13159 H 1237.21 1.45201 3.48133 0
M  V30 13160 H 1239.6 0.667438 2.87453 0
M  V30 13161 H 1239.68 1.94878 1.65699 0
M  V30 13162 H 1239.32 3.68617 3.49405 0
M  V30 13163 H 1239.25 2.3762 4.69941 0
M  V30 13164 H 1241.74 2.05562 3.171 0
M  V30 13165 H 1242.05 4.71461 6.12327 0
M  V30 13166 H 1240.4 4.23447 5.51106 0
M  V30 13167 H 1243.59 2.61656 3.88142 0
M  V30 13168 H 1243.76 3.82889 5.22781 0
M  V30 13169 N 1237.17 -1.38817 0.746158 0
M  V30 13170 C 1238.1 -2.33144 0.128836 0
M  V30 13171 C 1239.08 -1.54487 -0.711873 0
M  V30 13172 O 1240.27 -1.82836 -0.654577 0
M  V30 13173 C 1237.4 -3.38639 -0.770772 0
M  V30 13174 C 1236.35 -4.27987 -0.0333669 0
M  V30 13175 C 1235.68 -5.24274 -1.05073 0
M  V30 13176 C 1236.98 -5.09915 1.13066 0
M  V30 13177 H 1238.67 -2.85019 0.916778 0
M  V30 13178 H 1236.22 -1.37039 0.442306 0
M  V30 13179 H 1238.17 -4.03587 -1.21225 0
M  V30 13180 H 1236.89 -2.8523 -1.59095 0
M  V30 13181 H 1235.55 -3.64534 0.388612 0
M  V30 13182 H 1235.2 -4.67156 -1.86478 0
M  V30 13183 H 1234.9 -5.84906 -0.562037 0
M  V30 13184 H 1236.42 -5.92099 -1.49169 0
M  V30 13185 H 1237.84 -5.68145 0.767084 0
M  V30 13186 H 1236.23 -5.79744 1.54972 0
M  V30 13187 H 1237.3 -4.4409 1.94709 0
M  V30 13188 N 1238.65 -0.49465 -1.49636 0
M  V30 13189 C 1239.56 0.291881 -2.32777 0
M  V30 13190 C 1240.57 0.973468 -1.44221 0
M  V30 13191 O 1241.75 0.956252 -1.77251 0
M  V30 13192 C 1238.81 1.34609 -3.19502 0
M  V30 13193 C 1237.88 0.678611 -4.23903 0
M  V30 13194 C 1237.11 1.68259 -5.06483 0
M  V30 13195 O 1237.33 2.91176 -4.90482 0
M  V30 13196 O 1236.27 1.24141 -5.88959 0
M  V30 13197 H 1240.09 -0.388459 -3.01205 0
M  V30 13198 H 1237.68 -0.256086 -1.47189 0
M  V30 13199 H 1239.56 1.95617 -3.73245 0
M  V30 13200 H 1238.23 2.00947 -2.53775 0
M  V30 13201 H 1237.14 0.0289541 -3.74089 0
M  V30 13202 H 1238.47 0.0577817 -4.92166 0
M  V30 13203 N 1240.13 1.55939 -0.228214 0
M  V30 13204 C 1241.07 2.21957 0.69556 0
M  V30 13205 C 1242.07 1.20109 1.19458 0
M  V30 13206 O 1243.27 1.38171 1.15364 0
M  V30 13207 H 1239.65 0.711744 0.242744 0
M  V30 13208 H 1241.62 2.98177 0.115403 0
M  V30 13209 C 1240.37 2.91847 1.88999 0
M  V30 13210 H 1239.69 3.69978 1.51512 0
M  V30 13211 H 1241.13 3.4143 2.51399 0
M  V30 13212 C 1239.59 1.94683 2.74954 0
M  V30 13213 O 1240.12 1.468 3.73915 0
M  V30 13214 N 1238.33 1.62188 2.41129 0
M  V30 13215 H 1237.87 2.01322 1.60709 0
M  V30 13216 H 1237.83 0.9744 2.98919 0
M  V30 13217 N 1241.6 -0.0451101 1.57535 0
M  V30 13218 C 1242.53 -1.05046 2.08537 0
M  V30 13219 C 1243.52 -1.3872 0.984418 0
M  V30 13220 O 1244.7 -1.47884 1.25873 0
M  V30 13221 C 1241.83 -2.3562 2.55148 0
M  V30 13222 C 1240.78 -2.16231 3.69362 0
M  V30 13223 C 1240.11 -3.52423 4.02122 0
M  V30 13224 C 1241.41 -1.56159 4.98409 0
M  V30 13225 H 1243.1 -0.625965 2.92783 0
M  V30 13226 H 1240.65 -0.299657 1.40848 0
M  V30 13227 H 1242.6 -3.06266 2.89446 0
M  V30 13228 H 1241.33 -2.80099 1.67964 0
M  V30 13229 H 1239.99 -1.4802 3.35389 0
M  V30 13230 H 1239.63 -3.94522 3.12028 0
M  V30 13231 H 1239.33 -3.4028 4.79044 0
M  V30 13232 H 1240.86 -4.24458 4.38939 0
M  V30 13233 H 1242.27 -2.16703 5.30766 0
M  V30 13234 H 1240.67 -1.54638 5.79834 0
M  V30 13235 H 1241.74 -0.525698 4.82042 0
M  V30 13236 N 1243.08 -1.54377 -0.317073 0
M  V30 13237 C 1244.02 -1.7907 -1.41453 0
M  V30 13238 C 1244.99 -0.641012 -1.49432 0
M  V30 13239 O 1246.18 -0.879179 -1.66741 0
M  V30 13240 C 1243.3 -1.91307 -2.79498 0
M  V30 13241 C 1242.35 -3.13639 -2.8902 0
M  V30 13242 S 1243.18 -4.72093 -2.52762 0
M  V30 13243 C 1244.34 -4.87245 -3.92866 0
M  V30 13244 H 1244.57 -2.71875 -1.20296 0
M  V30 13245 H 1242.11 -1.45583 -0.514279 0
M  V30 13246 H 1244.06 -1.99043 -3.59015 0
M  V30 13247 H 1242.72 -0.994687 -2.97934 0
M  V30 13248 H 1241.92 -3.18955 -3.90235 0
M  V30 13249 H 1241.52 -3.04266 -2.17481 0
M  V30 13250 H 1243.81 -4.7028 -4.87691 0
M  V30 13251 H 1244.75 -5.89344 -3.92529 0
M  V30 13252 H 1245.16 -4.15504 -3.82122 0
M  V30 13253 N 1244.56 0.579466 -1.4656 0
M  V30 13254 C 1245.81 1.33738 -1.5325 0
M  V30 13255 C 1246.16 1.91527 -0.183045 0
M  V30 13256 O 1245.45 1.73698 0.80867 0
M  V30 13257 C 1245.65 2.48417 -2.56951 0
M  V30 13258 C 1245.48 2.01862 -4.01848 0
M  V30 13259 C 1244.25 1.86729 -4.69532 0
M  V30 13260 C 1246.45 1.57633 -4.89547 0
M  V30 13261 N 1244.43 1.34279 -5.99034 0
M  V30 13262 C 1245.8 1.16797 -6.08899 0
M  V30 13263 C 1247.85 1.45481 -4.76172 0
M  V30 13264 C 1246.56 0.650182 -7.16355 0
M  V30 13265 C 1248.58 0.951049 -5.83703 0
M  V30 13266 C 1247.94 0.552488 -7.0223 0
M  V30 13267 H 1244.04 0.482241 -0.615603 0
M  V30 13268 H 1246.63 0.659411 -1.83193 0
M  V30 13269 H 1244.8 3.13773 -2.28912 0
M  V30 13270 H 1246.53 3.15374 -2.53616 0
M  V30 13271 H 1243.29 2.08773 -4.25101 0
M  V30 13272 H 1243.71 1.10207 -6.6797 0
M  V30 13273 H 1248.35 1.74912 -3.84923 0
M  V30 13274 H 1246.07 0.343456 -8.0737 0
M  V30 13275 H 1249.66 0.860884 -5.75396 0
M  V30 13276 H 1248.54 0.168703 -7.84019 0
M  V30 13277 N 1246.04 1.3432 0.824371 0
M  V30 13278 C 1246.99 1.25776 1.93517 0
M  V30 13279 C 1247.96 0.133298 1.65564 0
M  V30 13280 O 1249.14 0.31403 1.88198 0
M  V30 13281 C 1246.28 1.01766 3.29754 0
M  V30 13282 C 1245.39 2.22973 3.7001 0
M  V30 13283 C 1244.53 1.92258 4.95187 0
M  V30 13284 C 1243.57 3.09616 5.2802 0
M  V30 13285 N 1242.7 2.78793 6.44375 0
M  V30 13286 H 1247.54 2.20774 2.00157 0
M  V30 13287 H 1245.08 1.09766 0.979274 0
M  V30 13288 H 1247.04 0.858831 4.08265 0
M  V30 13289 H 1245.67 0.10437 3.22631 0
M  V30 13290 H 1244.72 2.49781 2.86903 0
M  V30 13291 H 1246.03 3.10661 3.90245 0
M  V30 13292 H 1245.19 1.73102 5.81481 0
M  V30 13293 H 1243.93 1.01827 4.76951 0
M  V30 13294 H 1242.93 3.29368 4.40223 0
M  V30 13295 H 1244.16 4.00822 5.48196 0
M  V30 13296 H 1242.1 1.90938 6.27598 0
M  V30 13297 H 1242.02 3.60014 6.64775 0
M  V30 13298 H 1243.29 2.63139 7.33743 0
M  V30 13299 N 1247.52 -1.0444 1.18026 0
M  V30 13300 C 1248.45 -2.12388 0.86162 0
M  V30 13301 C 1249.46 -1.62204 -0.139196 0
M  V30 13302 O 1250.65 -1.78282 0.0881334 0
M  V30 13303 C 1247.75 -3.37859 0.265407 0
M  V30 13304 C 1246.92 -4.17292 1.31096 0
M  V30 13305 C 1245.98 -5.21096 0.731121 0
M  V30 13306 O 1245.01 -5.5159 1.40488 0
M  V30 13307 N 1246.21 -5.78568 -0.473194 0
M  V30 13308 H 1248.98 -2.40317 1.79074 0
M  V30 13309 H 1246.54 -1.20601 1.08014 0
M  V30 13310 H 1248.53 -4.04472 -0.135976 0
M  V30 13311 H 1247.1 -3.07403 -0.567658 0
M  V30 13312 H 1246.32 -3.46057 1.8878 0
M  V30 13313 H 1247.61 -4.67158 2.01596 0
M  V30 13314 H 1247 -5.56088 -1.03839 0
M  V30 13315 H 1245.56 -6.46665 -0.816545 0
M  V30 13316 N 1248.99 -0.981699 -1.2329 0
M  V30 13317 C 1250.24 -0.646818 -1.91048 0
M  V30 13318 C 1250.56 0.823479 -1.77421 0
M  V30 13319 O 1251.76 1.26948 -2.39993 0
M  V30 13320 C 1250.22 -1.1063 -3.42475 0
M  V30 13321 C 1249.83 -2.60103 -3.6476 0
M  V30 13322 C 1251.57 -0.845227 -4.16 0
M  V30 13323 C 1249.48 -2.99712 -5.0983 0
M  V30 13324 H 1248.41 -0.238221 -0.715379 0
M  V30 13325 H 1251.06 -1.18977 -1.39702 0
M  V30 13326 H 1249.44 -0.491554 -3.92937 0
M  V30 13327 H 1250.61 -3.26828 -3.24839 0
M  V30 13328 H 1248.93 -2.83972 -3.04547 0
M  V30 13329 H 1251.53 -1.11699 -5.22903 0
M  V30 13330 H 1251.87 0.218661 -4.15725 0
M  V30 13331 H 1252.4 -1.42162 -3.7153 0
M  V30 13332 H 1249.14 -4.0523 -5.15237 0
M  V30 13333 H 1248.66 -2.37683 -5.50697 0
M  V30 13334 H 1250.34 -2.9039 -5.78172 0
M  V30 13335 N 1250.47 1.3842 -0.753509 0
M  V30 13336 C 1251.7 2.04403 -0.320449 0
M  V30 13337 C 1252.12 1.5683 1.05118 0
M  V30 13338 O 1251.47 0.741335 1.66765 0
M  V30 13339 C 1251.52 3.59954 -0.333937 0
M  V30 13340 O 1251.24 4.05782 -1.65144 0
M  V30 13341 C 1252.75 4.43156 0.112997 0
M  V30 13342 H 1249.97 0.656881 -0.136927 0
M  V30 13343 H 1252.51 1.77112 -1.02234 0
M  V30 13344 H 1250.66 3.86083 0.319215 0
M  V30 13345 H 1251.08 5.00213 -1.57757 0
M  V30 13346 H 1252.55 5.51975 0.0523995 0
M  V30 13347 H 1253.03 4.23581 1.16087 0
M  V30 13348 H 1253.64 4.22216 -0.511278 0
M  V30 13349 N 1251.95 0.502579 1.49372 0
M  V30 13350 C 1253.18 -0.0403087 2.07361 0
M  V30 13351 C 1253.6 -1.29918 1.36026 0
M  V30 13352 O 1252.96 -1.76428 0.417488 0
M  V30 13353 C 1253.01 -0.275362 3.59547 0
M  V30 13354 O 1252.11 -1.34975 3.89686 0
M  V30 13355 H 1251.45 0.0269268 0.663454 0
M  V30 13356 H 1253.98 0.702652 1.92156 0
M  V30 13357 H 1253.99 -0.506392 4.04845 0
M  V30 13358 H 1252.67 0.644382 4.10878 0
M  V30 13359 H 1251.24 -1.10355 3.56197 0
M  V30 13360 N 1253.43 -1.55816 0.23648 0
M  V30 13361 C 1254.34 -2.24576 -0.678439 0
M  V30 13362 C 1255.35 -1.25836 -1.20172 0
M  V30 13363 O 1256.53 -1.58686 -1.24019 0
M  V30 13364 C 1253.6 -2.92376 -1.86325 0
M  V30 13365 C 1252.66 -4.06499 -1.38047 0
M  V30 13366 C 1251.89 -4.71057 -2.50881 0
M  V30 13367 O 1252.11 -4.34652 -3.69369 0
M  V30 13368 O 1251.05 -5.59768 -2.21232 0
M  V30 13369 H 1254.87 -3.03452 -0.122601 0
M  V30 13370 H 1252.46 -1.49399 0.00540803 0
M  V30 13371 H 1254.34 -3.35117 -2.55488 0
M  V30 13372 H 1253.01 -2.16448 -2.40691 0
M  V30 13373 H 1251.92 -3.68296 -0.656422 0
M  V30 13374 H 1253.25 -4.84214 -0.883024 0
M  V30 13375 N 1254.91 0.036755 -1.57557 0
M  V30 13376 C 1255.84 1.03939 -2.09091 0
M  V30 13377 C 1256.82 1.38196 -0.991761 0
M  V30 13378 O 1258 1.47214 -1.26656 0
M  V30 13379 C 1255.13 2.34263 -2.56394 0
M  V30 13380 C 1254.09 2.14269 -3.70504 0
M  V30 13381 C 1253.41 3.50286 -4.03985 0
M  V30 13382 C 1254.71 1.53514 -4.9923 0
M  V30 13383 H 1256.41 0.610429 -2.93111 0
M  V30 13384 H 1253.95 0.292183 -1.41005 0
M  V30 13385 H 1255.91 3.04727 -2.91066 0
M  V30 13386 H 1254.63 2.79205 -1.69447 0
M  V30 13387 H 1253.29 1.46239 -3.36169 0
M  V30 13388 H 1252.94 3.92861 -3.14116 0
M  V30 13389 H 1252.64 3.37735 -4.80842 0
M  V30 13390 H 1254.16 4.22124 -4.41184 0
M  V30 13391 H 1255.57 2.13885 -5.31908 0
M  V30 13392 H 1253.97 1.51561 -5.80646 0
M  V30 13393 H 1255.04 0.500126 -4.82314 0
M  V30 13394 N 1256.39 1.54543 0.308881 0
M  V30 13395 C 1257.33 1.85693 1.40074 0
M  V30 13396 C 1258.33 0.730004 1.52864 0
M  V30 13397 O 1259.53 0.913884 1.55075 0
M  V30 13398 H 1255.91 0.588842 0.467728 0
M  V30 13399 H 1257.88 2.76973 1.11034 0
M  V30 13400 C 1256.63 2.11399 2.76054 0
M  V30 13401 H 1255.95 2.97583 2.66992 0
M  V30 13402 H 1257.39 2.37139 3.51484 0
M  V30 13403 C 1255.85 0.91007 3.24375 0
M  V30 13404 O 1256.38 0.12663 4.015 0
M  V30 13405 N 1254.59 0.717629 2.816 0
M  V30 13406 H 1254.13 1.35637 2.18998 0
M  V30 13407 H 1254.09 -0.0863585 3.14281 0
M  V30 13408 N 1257.86 -0.571685 1.46866 0
M  V30 13409 C 1258.81 -1.6751 1.54676 0
M  V30 13410 C 1259.8 -1.55673 0.406774 0
M  V30 13411 O 1260.99 -1.64401 0.655847 0
M  V30 13412 C 1258.12 -3.06295 1.55043 0
M  V30 13413 C 1257.2 -3.23388 2.74374 0
M  V30 13414 N 1257.6 -3.10598 3.99202 0
M  V30 13415 C 1255.89 -3.54354 2.7083 0
M  V30 13416 C 1256.59 -3.29993 4.79041 0
M  V30 13417 N 1255.57 -3.55659 4.11106 0
M  V30 13418 H 1259.37 -1.56168 2.48975 0
M  V30 13419 H 1256.89 -0.776036 1.42658 0
M  V30 13420 H 1258.88 -3.85502 1.58726 0
M  V30 13421 H 1257.54 -3.18759 0.618278 0
M  V30 13422 H 1258.55 -2.8823 4.30283 0
M  V30 13423 H 1255.23 -3.73435 1.86688 0
M  V30 13424 H 1256.62 -3.25194 5.87961 0
M  V30 13425 N 1259.34 -1.34755 -0.817236 0
M  V30 13426 C 1260.59 -1.26771 -1.56882 0
M  V30 13427 C 1260.9 0.158962 -1.94953 0
M  V30 13428 O 1262.11 0.360996 -2.69089 0
M  V30 13429 C 1260.57 -2.22261 -2.83069 0
M  V30 13430 C 1260.17 -3.70216 -2.52277 0
M  V30 13431 C 1261.92 -2.23197 -3.61086 0
M  V30 13432 C 1259.82 -4.57559 -3.74691 0
M  V30 13433 H 1258.75 -0.470961 -0.588822 0
M  V30 13434 H 1261.41 -1.59955 -0.899254 0
M  V30 13435 H 1259.79 -1.82036 -3.5168 0
M  V30 13436 H 1260.96 -4.19014 -1.9174 0
M  V30 13437 H 1259.28 -3.71784 -1.87525 0
M  V30 13438 H 1261.87 -2.85673 -4.5199 0
M  V30 13439 H 1262.22 -1.2328 -3.97628 0
M  V30 13440 H 1262.75 -2.61897 -2.99424 0
M  V30 13441 H 1259.49 -5.58434 -3.43267 0
M  V30 13442 H 1259.01 -4.13494 -4.34491 0
M  V30 13443 H 1260.69 -4.72451 -4.42039 0
M  V30 13444 N 1260.82 1.03812 -1.18578 0
M  V30 13445 C 1261.75 2.13802 -0.938665 0
M  V30 13446 C 1262.73 1.69643 0.124575 0
M  V30 13447 O 1263.92 1.94179 -0.0285421 0
M  V30 13448 C 1261.05 3.44154 -0.466392 0
M  V30 13449 C 1260 4.01949 -1.47041 0
M  V30 13450 C 1259.33 5.27811 -0.855558 0
M  V30 13451 C 1260.63 4.37827 -2.84789 0
M  V30 13452 H 1262.32 2.34732 -1.85852 0
M  V30 13453 H 1259.87 1.12808 -0.895007 0
M  V30 13454 H 1261.82 4.20463 -0.280856 0
M  V30 13455 H 1260.54 3.22918 0.489041 0
M  V30 13456 H 1259.2 3.27725 -1.64293 0
M  V30 13457 H 1258.85 5.02886 0.107142 0
M  V30 13458 H 1258.55 5.67441 -1.52592 0
M  V30 13459 H 1260.07 6.06795 -0.680609 0
M  V30 13460 H 1261.49 5.05112 -2.71173 0
M  V30 13461 H 1259.88 4.88514 -3.48532 0
M  V30 13462 H 1260.95 3.47541 -3.38147 0
M  V30 13463 N 1262.3 0.988223 1.22768 0
M  V30 13464 C 1263.52 0.679426 1.95955 0
M  V30 13465 C 1263.95 -0.748483 1.72567 0
M  V30 13466 O 1263.31 -1.51097 1.00197 0
M  V30 13467 C 1263.35 0.985284 3.46878 0
M  V30 13468 O 1262.46 0.0814607 4.1232 0
M  V30 13469 H 1261.8 0.254749 0.613188 0
M  V30 13470 H 1264.33 1.32393 1.55991 0
M  V30 13471 H 1264.34 0.925198 3.97371 0
M  V30 13472 H 1263.01 2.02581 3.63227 0
M  V30 13473 H 1261.59 0.196629 3.72381 0
M  V30 13474 N 1263.78 -1.38018 0.760839 0
M  V30 13475 C 1264.69 -2.34181 0.140232 0
M  V30 13476 C 1265.7 -1.59635 -0.692287 0
M  V30 13477 O 1266.88 -1.91788 -0.614752 0
M  V30 13478 C 1263.94 -3.38778 -0.73693 0
M  V30 13479 C 1263 -4.29157 0.110792 0
M  V30 13480 C 1262.24 -5.28758 -0.724599 0
M  V30 13481 O 1262.46 -5.35585 -1.96226 0
M  V30 13482 O 1261.39 -6.01738 -0.139565 0
M  V30 13483 H 1265.22 -2.88962 0.934588 0
M  V30 13484 H 1262.8 -1.3999 0.521835 0
M  V30 13485 H 1264.69 -4.02804 -1.23803 0
M  V30 13486 H 1263.36 -2.86341 -1.50966 0
M  V30 13487 H 1262.27 -3.68268 0.658007 0
M  V30 13488 H 1263.6 -4.84869 0.846346 0
M  V30 13489 N 1265.25 -0.510493 -1.49103 0
M  V30 13490 C 1266.2 0.276449 -2.30951 0
M  V30 13491 C 1267.2 0.953893 -1.3999 0
M  V30 13492 O 1268.4 0.880499 -1.56994 0
M  V30 13493 H 1264.78 0.108013 -0.744202 0
M  V30 13494 H 1266.75 -0.433725 -2.95231 0
M  V30 13495 C 1265.5 1.32234 -3.21573 0
M  V30 13496 H 1264.82 0.810468 -3.91499 0
M  V30 13497 H 1266.26 1.84476 -3.81765 0
M  V30 13498 C 1264.72 2.3456 -2.41833 0
M  V30 13499 O 1265.25 3.40627 -2.12922 0
M  V30 13500 N 1263.45 2.07272 -2.03682 0
M  V30 13501 H 1263 1.21036 -2.27394 0
M  V30 13502 H 1262.96 2.75963 -1.50638 0
M  V30 13503 N 1266.73 1.55688 -0.24474 0
M  V30 13504 C 1267.64 2.24933 0.666519 0
M  V30 13505 C 1268.66 1.26471 1.19503 0
M  V30 13506 O 1269.83 1.59342 1.23176 0
M  V30 13507 C 1266.9 2.9336 1.84772 0
M  V30 13508 C 1265.96 4.07225 1.35889 0
M  V30 13509 C 1265.19 4.72381 2.48379 0
M  V30 13510 O 1265.42 4.36605 3.67059 0
M  V30 13511 O 1264.35 5.60933 2.18261 0
M  V30 13512 H 1268.18 3.03513 0.106507 0
M  V30 13513 H 1265.76 1.49394 -0.0133309 0
M  V30 13514 H 1267.64 3.36468 2.53708 0
M  V30 13515 H 1266.32 2.17721 2.39539 0
M  V30 13516 H 1265.22 3.68639 0.636881 0
M  V30 13517 H 1266.56 4.84676 0.857333 0
M  V30 13518 N 1268.21 -0.0283989 1.57574 0
M  V30 13519 C 1269.46 -0.720142 1.89583 0
M  V30 13520 C 1269.79 -1.7497 0.842562 0
M  V30 13521 O 1269.06 -1.93979 -0.142294 0
M  V30 13522 C 1269.35 -1.38909 3.32229 0
M  V30 13523 C 1269.2 -0.372998 4.48251 0
M  V30 13524 C 1270.52 -2.32289 3.73804 0
M  V30 13525 H 1267.64 -0.26033 0.689491 0
M  V30 13526 H 1270.28 0.0170607 1.89992 0
M  V30 13527 H 1268.43 -2.01744 3.32011 0
M  V30 13528 H 1270.1 0.253492 4.60603 0
M  V30 13529 H 1268.34 0.30765 4.32708 0
M  V30 13530 H 1269.02 -0.879549 5.44948 0
M  V30 13531 H 1271.49 -1.79497 3.75393 0
M  V30 13532 H 1270.37 -2.76075 4.74419 0
M  V30 13533 H 1270.63 -3.18992 3.06099 0
M  V30 13534 N 1269.69 -1.54705 -0.300681 0
M  V30 13535 C 1270.63 -1.85678 -1.37084 0
M  V30 13536 C 1271.6 -0.70573 -1.50362 0
M  V30 13537 O 1272.79 -0.954385 -1.65215 0
M  V30 13538 C 1269.93 -2.10995 -2.73084 0
M  V30 13539 C 1269.04 -3.38621 -2.68254 0
M  V30 13540 C 1268.18 -3.53779 -3.9625 0
M  V30 13541 C 1267.22 -4.75195 -3.85818 0
M  V30 13542 N 1266.35 -4.87157 -5.05591 0
M  V30 13543 H 1271.19 -2.76967 -1.09971 0
M  V30 13544 H 1268.73 -1.37147 -0.531887 0
M  V30 13545 H 1270.69 -2.23669 -3.52176 0
M  V30 13546 H 1269.32 -1.22973 -2.98458 0
M  V30 13547 H 1268.37 -3.34566 -1.81025 0
M  V30 13548 H 1269.68 -4.27834 -2.56436 0
M  V30 13549 H 1268.84 -3.66119 -4.83779 0
M  V30 13550 H 1267.58 -2.62699 -4.10902 0
M  V30 13551 H 1266.58 -4.62888 -2.96673 0
M  V30 13552 H 1267.81 -5.67683 -3.72711 0
M  V30 13553 H 1265.75 -3.99001 -5.20706 0
M  V30 13554 H 1265.67 -5.70372 -4.96197 0
M  V30 13555 H 1266.94 -5.03854 -5.9477 0
M  V30 13556 N 1271.17 0.563888 -1.47167 0
M  V30 13557 C 1272.1 1.68137 -1.62025 0
M  V30 13558 C 1273.08 1.63481 -0.469899 0
M  V30 13559 O 1274.26 1.81206 -0.698432 0
M  V30 13560 C 1271.39 3.06779 -1.62801 0
M  V30 13561 C 1270.35 3.26278 -2.76996 0
M  V30 13562 C 1269.67 4.65638 -2.62841 0
M  V30 13563 C 1270.97 3.12295 -4.18651 0
M  V30 13564 H 1272.67 1.55958 -2.55573 0
M  V30 13565 H 1270.21 0.74887 -1.22996 0
M  V30 13566 H 1272.17 3.84795 -1.71787 0
M  V30 13567 H 1270.89 3.19901 -0.658097 0
M  V30 13568 H 1269.55 2.50668 -2.67509 0
M  V30 13569 H 1269.2 4.75551 -1.63892 0
M  V30 13570 H 1268.9 4.79635 -3.39447 0
M  V30 13571 H 1270.42 5.45798 -2.73746 0
M  V30 13572 H 1271.83 3.80136 -4.2915 0
M  V30 13573 H 1270.23 3.37805 -4.95992 0
M  V30 13574 H 1271.3 2.09126 -4.37486 0
M  V30 13575 N 1272.64 1.35187 0.810078 0
M  V30 13576 C 1273.87 1.31371 1.59841 0
M  V30 13577 C 1274.29 -0.109547 1.88482 0
M  V30 13578 O 1273.64 -1.06047 1.48527 0
M  V30 13579 C 1273.7 2.11496 2.93175 0
M  V30 13580 O 1273.42 3.48273 2.65777 0
M  V30 13581 C 1274.92 2.15226 3.87547 0
M  V30 13582 H 1272.14 0.451428 0.496441 0
M  V30 13583 H 1274.68 1.7799 1.00697 0
M  V30 13584 H 1272.84 1.68486 3.48843 0
M  V30 13585 H 1273.25 3.89845 3.50886 0
M  V30 13586 H 1274.72 2.75687 4.78226 0
M  V30 13587 H 1275.2 1.15007 4.23875 0
M  V30 13588 H 1275.81 2.58382 3.37815 0
M  V30 13589 N 1274.12 -1.03182 1.19127 0
M  V30 13590 C 1275.37 -1.75934 0.986415 0
M  V30 13591 C 1275.68 -1.89519 -0.48392 0
M  V30 13592 O 1276.89 -2.59213 -0.80752 0
M  V30 13593 C 1275.35 -3.16358 1.71597 0
M  V30 13594 C 1274.95 -3.10836 3.22622 0
M  V30 13595 C 1276.7 -3.93426 1.59425 0
M  V30 13596 C 1274.61 -4.46174 3.88179 0
M  V30 13597 H 1273.54 -0.659516 0.365451 0
M  V30 13598 H 1276.19 -1.15497 1.42593 0
M  V30 13599 H 1274.57 -3.77245 1.20426 0
M  V30 13600 H 1275.74 -2.59348 3.80887 0
M  V30 13601 H 1274.06 -2.47266 3.35035 0
M  V30 13602 H 1276.65 -4.93526 2.05757 0
M  V30 13603 H 1277 -4.12678 0.547926 0
M  V30 13604 H 1277.53 -3.39134 2.07925 0
M  V30 13605 H 1274.27 -4.32126 4.92897 0
M  V30 13606 H 1273.79 -4.97729 3.34702 0
M  V30 13607 H 1275.47 -5.15066 3.91556 0
M  V30 13608 N 1275.6 -0.99472 -1.22242 0
M  V30 13609 C 1276.53 -0.491445 -2.22845 0
M  V30 13610 C 1277.51 0.449265 -1.5627 0
M  V30 13611 O 1278.7 0.374386 -1.84745 0
M  V30 13612 C 1275.82 0.287355 -3.37479 0
M  V30 13613 C 1274.87 -0.599617 -4.22264 0
M  V30 13614 S 1275.7 -2.05599 -4.94459 0
M  V30 13615 C 1276.86 -1.28673 -6.12531 0
M  V30 13616 H 1277.09 -1.34393 -2.6519 0
M  V30 13617 H 1274.62 -0.801833 -1.31947 0
M  V30 13618 H 1276.58 0.730646 -4.03945 0
M  V30 13619 H 1275.24 1.11514 -2.93638 0
M  V30 13620 H 1274.44 -0.000289277 -5.04 0
M  V30 13621 H 1274.04 -0.979748 -3.60939 0
M  V30 13622 H 1276.33 -0.555315 -6.7522 0
M  V30 13623 H 1277.27 -2.07943 -6.76879 0
M  V30 13624 H 1277.68 -0.79922 -5.58814 0
M  V30 13625 N 1277.08 1.37613 -0.768148 0
M  V30 13626 C 1278.31 2.04052 -0.342111 0
M  V30 13627 C 1278.72 1.57936 1.03449 0
M  V30 13628 O 1278.08 0.758981 1.65969 0
M  V30 13629 C 1278.13 3.5958 -0.372096 0
M  V30 13630 O 1277.85 4.04008 -1.69439 0
M  V30 13631 C 1279.35 4.43251 0.0659884 0
M  V30 13632 H 1276.57 0.655391 -0.143886 0
M  V30 13633 H 1279.12 1.76017 -1.04107 0
M  V30 13634 H 1277.27 3.86399 0.278248 0
M  V30 13635 H 1277.68 4.98511 -1.63054 0
M  V30 13636 H 1279.16 5.52 -0.00614775 0
M  V30 13637 H 1279.64 4.24788 1.11588 0
M  V30 13638 H 1280.24 4.2165 -0.55603 0
M  V30 13639 N 1278.56 0.518393 1.4883 0
M  V30 13640 C 1279.8 -0.019866 2.0209 0
M  V30 13641 C 1280.13 -1.35863 1.3988 0
M  V30 13642 O 1279.4 -1.87722 0.560117 0
M  V30 13643 H 1277.98 -0.0103306 0.746929 0
M  V30 13644 H 1280.64 0.679591 1.82668 0
M  V30 13645 H 1279.73 -0.136749 3.118 0
M  V30 13646 N 1280.03 -1.55556 0.252993 0
M  V30 13647 C 1281.31 -1.91022 -0.420696 0
M  V30 13648 C 1281.69 -1.17452 -1.75409 0
M  V30 13649 O 1281.04 -0.294 -2.26601 0
M  V30 13650 C 1281.25 -3.441 -0.582787 0
M  V30 13651 C 1282.6 -4.15468 -0.875873 0
M  V30 13652 O 1283.62 -3.49872 -0.668425 0
M  V30 13653 O 1282.48 -5.31508 -1.27128 0
M  V30 13654 H 1279.57 -0.7953 -0.226776 0
M  V30 13655 H 1282.12 -1.67072 0.297511 0
M  V30 13656 H 1280.89 -3.89673 0.356474 0
M  V30 13657 H 1280.52 -3.73933 -1.3513 0
M  V30 13658 N 1281.51 0.0200419 -1.57587 0
M  V30 13659 C 1282.76 0.708115 -1.88861 0
M  V30 13660 C 1283.07 1.76036 -0.852693 0
M  V30 13661 O 1284.28 2.50165 -1.05497 0
M  V30 13662 C 1282.74 1.31057 -3.3519 0
M  V30 13663 C 1282.34 0.294202 -4.47033 0
M  V30 13664 C 1284.09 1.97799 -3.756 0
M  V30 13665 C 1282 0.905508 -5.84427 0
M  V30 13666 H 1280.93 0.268236 -0.704674 0
M  V30 13667 H 1283.58 -0.0372162 -1.83462 0
M  V30 13668 H 1281.96 2.1059 -3.35362 0
M  V30 13669 H 1283.13 -0.475081 -4.58344 0
M  V30 13670 H 1281.45 -0.271644 -4.15513 0
M  V30 13671 H 1284.04 2.44404 -4.75574 0
M  V30 13672 H 1284.39 2.80004 -3.08064 0
M  V30 13673 H 1284.92 1.25028 -3.77641 0
M  V30 13674 H 1281.66 0.122685 -6.55385 0
M  V30 13675 H 1281.18 1.64442 -5.76818 0
M  V30 13676 H 1282.86 1.41016 -6.31446 0
M  V30 13677 N 1282.99 1.54862 0.292472 0
M  V30 13678 C 1283.94 1.86403 1.36098 0
M  V30 13679 C 1284.91 0.713694 1.49985 0
M  V30 13680 O 1286.09 0.963134 1.64707 0
M  V30 13681 C 1283.23 2.1244 2.71962 0
M  V30 13682 C 1282.35 3.40038 2.66454 0
M  V30 13683 C 1281.48 3.55875 3.94368 0
M  V30 13684 C 1280.52 4.77235 3.83293 0
M  V30 13685 N 1279.66 4.89832 5.03 0
M  V30 13686 H 1284.5 2.77546 1.085 0
M  V30 13687 H 1282.03 1.37427 0.524607 0
M  V30 13688 H 1283.99 2.25533 3.50985 0
M  V30 13689 H 1282.62 1.24554 2.97802 0
M  V30 13690 H 1281.67 3.35521 1.79248 0
M  V30 13691 H 1282.99 4.29188 2.54163 0
M  V30 13692 H 1282.14 3.68679 4.8183 0
M  V30 13693 H 1280.88 2.64874 4.09503 0
M  V30 13694 H 1279.88 4.64455 2.94214 0
M  V30 13695 H 1281.11 5.69651 3.69695 0
M  V30 13696 H 1279.05 4.01756 5.18582 0
M  V30 13697 H 1278.97 5.72996 4.93165 0
M  V30 13698 H 1280.24 5.07001 5.92089 0
M  V30 13699 N 1284.47 -0.556076 1.47464 0
M  V30 13700 C 1285.72 -1.31061 1.53842 0
M  V30 13701 C 1286.04 -1.93943 0.202806 0
M  V30 13702 O 1285.31 -1.7999 -0.773338 0
M  V30 13703 H 1283.89 -0.486696 0.566689 0
M  V30 13704 H 1286.55 -0.64924 1.83769 0
M  V30 13705 H 1285.65 -2.10354 2.30559 0
M  V30 13706 N 1285.95 -1.35615 -0.802897 0
M  V30 13707 C 1287.2 -1.28428 -1.55528 0
M  V30 13708 C 1287.51 0.138275 -1.95111 0
M  V30 13709 O 1288.72 0.332435 -2.69457 0
M  V30 13710 C 1287.17 -2.25251 -2.80696 0
M  V30 13711 C 1286.78 -3.72871 -2.48336 0
M  V30 13712 C 1288.52 -2.27014 -3.58699 0
M  V30 13713 C 1286.43 -4.61507 -3.69817 0
M  V30 13714 H 1285.36 -0.47718 -0.583794 0
M  V30 13715 H 1288.01 -1.609 -0.882238 0
M  V30 13716 H 1286.39 -1.85755 -3.4973 0
M  V30 13717 H 1287.57 -4.21024 -1.87285 0
M  V30 13718 H 1285.88 -3.73752 -1.83571 0
M  V30 13719 H 1288.48 -2.90451 -4.48935 0
M  V30 13720 H 1288.82 -1.27491 -3.96298 0
M  V30 13721 H 1289.36 -2.65058 -2.9663 0
M  V30 13722 H 1286.09 -5.62043 -3.37324 0
M  V30 13723 H 1285.61 -4.18079 -4.30081 0
M  V30 13724 H 1287.29 -4.77113 -4.37004 0
M  V30 13725 N 1287.43 1.02549 -1.19673 0
M  V30 13726 C 1288.36 2.10513 -0.880879 0
M  V30 13727 C 1289.34 1.61776 0.163455 0
M  V30 13728 O 1290.52 1.8846 0.0390085 0
M  V30 13729 C 1287.65 3.37195 -0.318936 0
M  V30 13730 C 1286.69 4.04808 -1.34286 0
M  V30 13731 S 1287.53 4.49881 -2.90461 0
M  V30 13732 C 1288.68 5.79776 -2.35819 0
M  V30 13733 H 1288.92 2.3698 -1.7952 0
M  V30 13734 H 1286.45 1.15537 -1.02423 0
M  V30 13735 H 1288.41 4.105 -0.00124931 0
M  V30 13736 H 1287.07 3.08815 0.573749 0
M  V30 13737 H 1286.26 4.9592 -0.898859 0
M  V30 13738 H 1285.86 3.37688 -1.60756 0
M  V30 13739 H 1288.15 6.54501 -1.75026 0
M  V30 13740 H 1289.1 6.2896 -3.25292 0
M  V30 13741 H 1289.51 5.35611 -1.78272 0
M  V30 13742 N 1288.9 1.00119 1.21713 0
M  V30 13743 C 1289.84 0.516633 2.23301 0
M  V30 13744 C 1290.85 -0.392732 1.57992 0
M  V30 13745 O 1292.04 -0.19354 1.77448 0
M  V30 13746 C 1289.14 -0.269612 3.37826 0
M  V30 13747 C 1288.31 0.637898 4.32723 0
M  V30 13748 C 1287.37 -0.0980745 5.26109 0
M  V30 13749 O 1286.4 0.519302 5.66826 0
M  V30 13750 N 1287.6 -1.37783 5.63911 0
M  V30 13751 H 1290.36 1.39022 2.65505 0
M  V30 13752 H 1287.92 0.87688 1.36097 0
M  V30 13753 H 1289.92 -0.770826 3.97291 0
M  V30 13754 H 1288.49 -1.04436 2.94638 0
M  V30 13755 H 1287.71 1.31966 3.71455 0
M  V30 13756 H 1288.99 1.25564 4.93063 0
M  V30 13757 H 1288.39 -1.90061 5.32817 0
M  V30 13758 H 1286.95 -1.82407 6.25756 0
M  V30 13759 N 1290.38 -1.37203 0.775435 0
M  V30 13760 C 1291.63 -1.99897 0.341936 0
M  V30 13761 C 1291.96 -1.61414 -1.07978 0
M  V30 13762 O 1291.24 -0.862108 -1.7435 0
M  V30 13763 C 1291.52 -3.56755 0.489715 0
M  V30 13764 C 1291.37 -4.05135 1.95411 0
M  V30 13765 C 1292.69 -4.39978 -0.103779 0
M  V30 13766 H 1289.81 -0.726199 0.125717 0
M  V30 13767 H 1292.45 -1.62826 0.979167 0
M  V30 13768 H 1290.6 -3.88464 -0.0527684 0
M  V30 13769 H 1292.27 -3.83975 2.55658 0
M  V30 13770 H 1290.52 -3.57192 2.46164 0
M  V30 13771 H 1291.19 -5.14161 2.00855 0
M  V30 13772 H 1293.66 -4.14547 0.359134 0
M  V30 13773 H 1292.54 -5.48892 0.0297337 0
M  V30 13774 H 1292.8 -4.25658 -1.19448 0
M  V30 13775 N 1291.86 -0.526279 -1.48553 0
M  V30 13776 C 1293.11 0.00914839 -2.02098 0
M  V30 13777 C 1293.43 1.35119 -1.40598 0
M  V30 13778 O 1292.7 1.87422 -0.570065 0
M  V30 13779 H 1291.28 0.00636935 -0.746973 0
M  V30 13780 H 1293.94 -0.689269 -1.82305 0
M  V30 13781 H 1293.04 0.120212 -3.11868 0
M  V30 13782 N 1293.34 1.5542 -0.261239 0
M  V30 13783 C 1294.28 2.21972 0.632216 0
M  V30 13784 C 1295.25 1.18843 1.16041 0
M  V30 13785 O 1296.44 1.47339 1.21226 0
M  V30 13786 C 1293.58 2.93397 1.81693 0
M  V30 13787 C 1292.69 4.11214 1.3239 0
M  V30 13788 C 1291.83 4.70318 2.46931 0
M  V30 13789 C 1290.87 5.80355 1.94561 0
M  V30 13790 N 1290 6.33581 3.02523 0
M  V30 13791 H 1294.84 2.97944 0.058018 0
M  V30 13792 H 1292.38 1.4709 0.0168725 0
M  V30 13793 H 1294.34 3.33015 2.5131 0
M  V30 13794 H 1292.97 2.19874 2.36337 0
M  V30 13795 H 1292.02 3.76811 0.521292 0
M  V30 13796 H 1293.33 4.90609 0.900214 0
M  V30 13797 H 1292.49 5.12584 3.24565 0
M  V30 13798 H 1291.23 3.90169 2.92608 0
M  V30 13799 H 1290.23 5.37552 1.15402 0
M  V30 13800 H 1291.46 6.62364 1.49836 0
M  V30 13801 H 1289.4 5.56332 3.47608 0
M  V30 13802 H 1289.32 7.08209 2.64529 0
M  V30 13803 H 1290.59 6.80506 3.80174 0
M  V30 13804 N 1294.82 -0.0116844 1.57596 0
M  V30 13805 C 1296.23 -0.367602 1.55309 0
M  V30 13806 C 1296.43 -1.75524 0.98962 0
M  V30 13807 O 1295.49 -2.44813 0.618289 0
M  V30 13808 C 1296.8 -0.253532 2.99629 0
M  V30 13809 C 1298.35 -0.329335 3.11263 0
M  V30 13810 C 1298.82 -0.24452 4.57347 0
M  V30 13811 N 1300.31 -0.302782 4.62209 0
M  V30 13812 C 1301.05 -0.260315 5.72809 0
M  V30 13813 N 1300.55 -0.169124 6.92594 0
M  V30 13814 N 1302.34 -0.311323 5.61237 0
M  V30 13815 H 1294.49 0.896204 1.92567 0
M  V30 13816 H 1296.75 0.342445 0.883988 0
M  V30 13817 H 1296.46 0.70074 3.44648 0
M  V30 13818 H 1296.33 -1.04029 3.62571 0
M  V30 13819 H 1298.72 -1.27405 2.66181 0
M  V30 13820 H 1298.8 0.487084 2.5112 0
M  V30 13821 H 1298.44 0.696597 5.031 0
M  V30 13822 H 1298.37 -1.07927 5.15421 0
M  V30 13823 H 1300.87 -0.375067 3.76034 0
M  V30 13824 H 1301.18 -0.142296 7.72669 0
M  V30 13825 H 1299.52 -0.134919 6.94869 0
M  V30 13826 H 1302.71 -0.380678 4.6655 0
M  V30 13827 H 1302.89 -0.274761 6.47417 0
M  V30 13828 N 1296.29 -1.55015 -0.284256 0
M  V30 13829 C 1297.52 -1.79431 -1.04016 0
M  V30 13830 C 1297.94 -0.560254 -1.79563 0
M  V30 13831 O 1297.3 0.489804 -1.74558 0
M  V30 13832 C 1297.35 -3.01162 -1.98328 0
M  V30 13833 O 1296.45 -2.75459 -3.06914 0
M  V30 13834 H 1295.79 -0.593391 -0.297965 0
M  V30 13835 H 1298.32 -2.02136 -0.316585 0
M  V30 13836 H 1298.33 -3.29589 -2.40489 0
M  V30 13837 H 1297.01 -3.90634 -1.42751 0
M  V30 13838 H 1295.59 -2.58096 -2.69148 0
M  V30 13839 N 1297.77 0.548248 -1.47757 0
M  V30 13840 C 1298.7 1.66409 -1.63799 0
M  V30 13841 C 1299.68 1.62973 -0.487211 0
M  V30 13842 O 1300.87 1.80455 -0.717612 0
M  V30 13843 C 1298 3.05035 -1.66046 0
M  V30 13844 C 1296.95 3.23322 -2.80441 0
M  V30 13845 C 1296.28 4.62824 -2.67765 0
M  V30 13846 C 1297.58 3.07837 -4.2194 0
M  V30 13847 H 1299.27 1.53239 -2.57212 0
M  V30 13848 H 1296.82 0.735783 -1.23783 0
M  V30 13849 H 1298.77 3.82951 -1.75859 0
M  V30 13850 H 1297.49 3.19185 -0.69199 0
M  V30 13851 H 1296.15 2.47816 -2.70153 0
M  V30 13852 H 1295.8 4.73786 -1.68927 0
M  V30 13853 H 1295.5 4.76007 -3.44515 0
M  V30 13854 H 1297.03 5.42864 -2.7952 0
M  V30 13855 H 1298.44 3.75563 -4.33157 0
M  V30 13856 H 1296.84 3.32525 -4.99547 0
M  V30 13857 H 1297.91 2.04474 -4.3968 0
M  V30 13858 N 1299.25 1.36039 0.795694 0
M  V30 13859 C 1300.67 1.16315 1.09284 0
M  V30 13860 C 1300.87 -0.017024 2.01493 0
M  V30 13861 O 1299.92 -0.684316 2.4305 0
M  V30 13862 C 1301.23 2.47113 1.71335 0
M  V30 13863 C 1302.78 2.5342 1.83705 0
M  V30 13864 C 1303.26 3.84289 2.49171 0
M  V30 13865 N 1304.75 3.856 2.56645 0
M  V30 13866 C 1305.48 4.83597 3.08094 0
M  V30 13867 N 1304.98 5.91985 3.59897 0
M  V30 13868 N 1306.77 4.71023 3.06748 0
M  V30 13869 H 1298.92 2.11611 0.182957 0
M  V30 13870 H 1301.19 0.937035 0.143771 0
M  V30 13871 H 1300.89 3.33708 1.11049 0
M  V30 13872 H 1300.77 2.62461 2.70914 0
M  V30 13873 H 1303.15 1.67247 2.43131 0
M  V30 13874 H 1303.23 2.41977 0.829495 0
M  V30 13875 H 1302.88 4.70865 1.90391 0
M  V30 13876 H 1302.81 3.93025 3.50484 0
M  V30 13877 H 1305.3 3.07291 2.19956 0
M  V30 13878 H 1305.61 6.6274 3.97487 0
M  V30 13879 H 1303.96 5.95662 3.58066 0
M  V30 13880 H 1307.15 3.8548 2.65561 0
M  V30 13881 H 1307.32 5.47555 3.46536 0
M  V30 13882 N 1300.73 -1.01913 1.20215 0
M  V30 13883 C 1302.14 -1.5692 1.01159 0
M  V30 13884 C 1302.49 -1.91368 -0.432746 0
M  V30 13885 O 1301.62 -1.71959 -1.31374 0
M  V30 13886 C 1302.21 -2.85125 1.83001 0
M  V30 13887 C 1300.77 -3.36669 1.68318 0
M  V30 13888 C 1299.92 -2.10003 1.81091 0
M  V30 13889 H 1302.87 -0.843246 1.34443 0
M  V30 13890 H 1302.89 -3.56428 1.33188 0
M  V30 13891 H 1302.4 -2.60021 2.88116 0
M  V30 13892 H 1300.5 -3.66739 0.658292 0
M  V30 13893 H 1300.61 -4.09042 2.49442 0
M  V30 13894 H 1298.98 -2.22337 1.24252 0
M  V30 13895 H 1299.76 -1.87329 2.87685 0
M  V30 13896 N 1302.21 -1.00763 -1.2118 0
M  V30 13897 C 1303.14 -0.528468 -2.23024 0
M  V30 13898 C 1304.15 0.384348 -1.58198 0
M  V30 13899 O 1305.34 0.184127 -1.77548 0
M  V30 13900 C 1302.44 0.251693 -3.37964 0
M  V30 13901 C 1301.61 -0.660838 -4.32379 0
M  V30 13902 C 1300.67 0.0701723 -5.26153 0
M  V30 13903 O 1299.7 -0.549355 -5.66543 0
M  V30 13904 N 1300.9 1.34791 -5.64634 0
M  V30 13905 H 1303.67 -1.40428 -2.64764 0
M  V30 13906 H 1301.23 -0.884085 -1.3563 0
M  V30 13907 H 1303.22 0.749746 -3.97694 0
M  V30 13908 H 1301.79 1.02872 -2.95188 0
M  V30 13909 H 1301.01 -1.33934 -3.7075 0
M  V30 13910 H 1302.3 -1.28177 -4.9239 0
M  V30 13911 H 1301.69 1.87232 -5.33817 0
M  V30 13912 H 1300.25 1.79086 -6.26715 0
M  V30 13913 N 1303.68 1.3679 -0.7827 0
M  V30 13914 C 1305.1 1.82006 -0.41603 0
M  V30 13915 C 1305.45 1.65151 1.05922 0
M  V30 13916 O 1304.57 1.1687 1.82127 0
M  V30 13917 C 1305.17 3.30432 -0.748353 0
M  V30 13918 C 1303.73 3.73883 -0.4346 0
M  V30 13919 C 1302.87 2.59159 -0.986505 0
M  V30 13920 H 1305.82 1.25107 -0.976423 0
M  V30 13921 H 1305.84 3.80482 -0.036985 0
M  V30 13922 H 1305.36 3.42667 -1.82212 0
M  V30 13923 H 1303.46 3.67211 0.631401 0
M  V30 13924 H 1303.57 4.69577 -0.950511 0
M  V30 13925 H 1301.93 2.51377 -0.410108 0
M  V30 13926 H 1302.72 2.74182 -2.06589 0
M  V30 13927 N 1305.16 0.53415 1.48272 0
M  V30 13928 C 1306.39 0.00574475 2.06899 0
M  V30 13929 C 1306.81 -1.27754 1.39012 0
M  V30 13930 O 1306.16 -1.76102 0.478993 0
M  V30 13931 C 1306.21 -0.217576 3.60845 0
M  V30 13932 O 1305.93 1.01487 4.26183 0
M  V30 13933 C 1307.44 -0.785888 4.36278 0
M  V30 13934 H 1304.66 0.0353967 0.670066 0
M  V30 13935 H 1307.2 0.740984 1.90603 0
M  V30 13936 H 1305.35 -0.902875 3.76732 0
M  V30 13937 H 1305.77 0.7982 5.18391 0
M  V30 13938 H 1307.24 -0.891551 5.44753 0
M  V30 13939 H 1307.72 -1.79178 4.00989 0
M  V30 13940 H 1308.33 -0.137022 4.25079 0
M  V30 13941 N 1306.64 -1.55279 0.269478 0
M  V30 13942 C 1307.55 -2.25965 -0.63065 0
M  V30 13943 C 1308.57 -1.28357 -1.17476 0
M  V30 13944 O 1309.74 -1.61281 -1.20625 0
M  V30 13945 C 1306.81 -2.96263 -1.80081 0
M  V30 13946 C 1305.87 -4.09336 -1.29394 0
M  V30 13947 C 1305.1 -4.76272 -2.40833 0
M  V30 13948 O 1305.32 -4.42389 -3.60066 0
M  V30 13949 O 1304.26 -5.64334 -2.09309 0
M  V30 13950 H 1308.08 -3.03644 -0.0582069 0
M  V30 13951 H 1305.67 -1.49354 0.0370966 0
M  V30 13952 H 1307.55 -3.40461 -2.48322 0
M  V30 13953 H 1306.23 -2.21505 -2.36045 0
M  V30 13954 H 1305.13 -3.69605 -0.578154 0
M  V30 13955 H 1306.47 -4.85978 -0.780117 0
M  V30 13956 N 1308.12 0.00332656 -1.576 0
M  V30 13957 C 1309.05 0.994803 -2.11248 0
M  V30 13958 C 1310.03 1.36061 -1.02085 0
M  V30 13959 O 1311.21 1.44494 -1.2975 0
M  V30 13960 C 1308.34 2.28772 -2.61306 0
M  V30 13961 C 1307.3 2.06362 -3.74965 0
M  V30 13962 C 1306.62 3.41638 -4.11324 0
M  V30 13963 C 1307.92 1.4289 -5.02374 0
M  V30 13964 H 1309.62 0.548119 -2.9434 0
M  V30 13965 H 1307.16 0.262208 -1.41593 0
M  V30 13966 H 1309.12 2.98485 -2.97464 0
M  V30 13967 H 1307.84 2.75547 -1.75332 0
M  V30 13968 H 1306.5 1.39076 -3.39195 0
M  V30 13969 H 1306.15 3.8611 -3.22379 0
M  V30 13970 H 1305.85 3.2746 -4.87897 0
M  V30 13971 H 1307.37 4.12671 -4.50039 0
M  V30 13972 H 1308.79 2.02555 -5.36325 0
M  V30 13973 H 1307.18 1.3921 -5.8373 0
M  V30 13974 H 1308.25 0.397708 -4.83266 0
M  V30 13975 N 1309.6 1.55164 0.276031 0
M  V30 13976 C 1311.01 1.46936 0.623061 0
M  V30 13977 C 1311.21 0.680977 1.89644 0
M  V30 13978 O 1310.27 0.198618 2.51718 0
M  V30 13979 C 1311.58 2.91123 0.752839 0
M  V30 13980 C 1313.13 3.01319 0.847093 0
M  V30 13981 C 1313.6 4.46755 1.00867 0
M  V30 13982 N 1315.1 4.5057 1.07427 0
M  V30 13983 C 1315.83 5.60314 1.21804 0
M  V30 13984 N 1315.33 6.7993 1.32919 0
M  V30 13985 N 1317.12 5.4805 1.2489 0
M  V30 13986 H 1309.27 2.04877 -0.560282 0
M  V30 13987 H 1311.53 0.928925 -0.189217 0
M  V30 13988 H 1311.24 3.51521 -0.112333 0
M  V30 13989 H 1311.11 3.39967 1.63408 0
M  V30 13990 H 1313.5 2.41021 1.70274 0
M  V30 13991 H 1313.58 2.55733 -0.0586896 0
M  V30 13992 H 1313.23 5.07655 0.1577 0
M  V30 13993 H 1313.16 4.89995 1.92906 0
M  V30 13994 H 1315.65 3.64404 1.00089 0
M  V30 13995 H 1315.96 7.59319 1.43714 0
M  V30 13996 H 1314.3 6.82747 1.29929 0
M  V30 13997 H 1317.5 4.53542 1.15834 0
M  V30 13998 H 1317.67 6.33621 1.3575 0
M  V30 13999 N 1311.07 -0.540404 1.48045 0
M  V30 14000 C 1312.3 -1.31986 1.58944 0
M  V30 14001 C 1312.71 -1.87608 0.244889 0
M  V30 14002 O 1312.06 -1.66576 -0.774467 0
M  V30 14003 C 1312.12 -2.51547 2.56835 0
M  V30 14004 C 1311.78 -2.17089 4.02146 0
M  V30 14005 C 1312.78 -1.73379 4.90138 0
M  V30 14006 C 1310.46 -2.27932 4.47607 0
M  V30 14007 C 1312.46 -1.40964 6.21617 0
M  V30 14008 C 1310.14 -1.95129 5.7911 0
M  V30 14009 C 1311.14 -1.51715 6.65937 0
M  V30 14010 O 1310.83 -1.19337 7.94993 0
M  V30 14011 H 1310.56 -0.408028 0.538971 0
M  V30 14012 H 1313.12 -0.659748 1.94516 0
M  V30 14013 H 1311.35 -3.20505 2.16364 0
M  V30 14014 H 1313.04 -3.13617 2.57681 0
M  V30 14015 H 1313.8 -1.64481 4.56258 0
M  V30 14016 H 1309.68 -2.6068 3.8022 0
M  V30 14017 H 1313.22 -1.07005 6.89344 0
M  V30 14018 H 1309.12 -2.03664 6.12528 0
M  V30 14019 H 1309.89 -1.32824 8.07651 0
M  V30 14020 N 1312.55 -1.36459 -0.788468 0
M  V30 14021 C 1313.78 -1.34063 -1.58246 0
M  V30 14022 C 1314.2 0.0754933 -1.87948 0
M  V30 14023 O 1313.56 1.04772 -1.47961 0
M  V30 14024 C 1313.61 -2.17038 -2.8797 0
M  V30 14025 O 1312.71 -1.56353 -3.81612 0
M  V30 14026 H 1312.05 -0.458816 -0.479983 0
M  V30 14027 H 1314.58 -1.79755 -0.977207 0
M  V30 14028 H 1314.59 -2.29651 -3.3723 0
M  V30 14029 H 1313.27 -3.19981 -2.65678 0
M  V30 14030 H 1311.85 -1.52685 -3.40208 0
M  V30 14031 N 1314.03 1.01274 -1.20754 0
M  V30 14032 C 1315.28 1.75298 -1.03161 0
M  V30 14033 C 1315.63 1.87504 0.431299 0
M  V30 14034 O 1314.92 1.39262 1.31593 0
M  V30 14035 C 1315.12 3.16862 -1.65329 0
M  V30 14036 C 1314.95 3.18459 -3.17513 0
M  V30 14037 C 1313.72 3.25479 -3.86512 0
M  V30 14038 C 1315.92 3.04195 -4.14693 0
M  V30 14039 N 1313.9 3.1662 -5.25951 0
M  V30 14040 C 1315.27 3.03149 -5.40833 0
M  V30 14041 C 1317.32 2.8844 -4.05841 0
M  V30 14042 C 1316.03 2.87963 -6.59143 0
M  V30 14043 C 1318.05 2.74609 -5.23779 0
M  V30 14044 C 1317.41 2.74232 -6.48827 0
M  V30 14045 H 1313.51 0.652001 -0.431762 0
M  V30 14046 H 1316.1 1.2043 -1.52986 0
M  V30 14047 H 1314.27 3.70015 -1.18082 0
M  V30 14048 H 1316 3.79337 -1.41015 0
M  V30 14049 H 1312.76 3.3236 -3.37392 0
M  V30 14050 H 1313.18 3.15554 -5.98961 0
M  V30 14051 H 1317.82 2.87542 -3.09967 0
M  V30 14052 H 1315.54 2.87609 -7.55186 0
M  V30 14053 H 1319.13 2.6343 -5.18745 0
M  V30 14054 H 1318.01 2.63653 -7.38551 0
M  V30 14055 N 1315.51 1.01404 1.20644 0
M  V30 14056 C 1316.46 0.582109 2.23339 0
M  V30 14057 C 1317.43 -0.39649 1.61298 0
M  V30 14058 O 1318.61 -0.296504 1.88482 0
M  V30 14059 C 1315.75 -0.076029 3.45016 0
M  V30 14060 C 1314.86 0.946829 4.21496 0
M  V30 14061 C 1314 0.26001 5.30563 0
M  V30 14062 C 1313.04 1.2698 5.98784 0
M  V30 14063 N 1312.18 0.609827 6.99447 0
M  V30 14064 H 1317.02 1.46248 2.59645 0
M  V30 14065 H 1314.55 0.732145 1.27585 0
M  V30 14066 H 1316.51 -0.474714 4.1449 0
M  V30 14067 H 1315.14 -0.920062 3.0941 0
M  V30 14068 H 1314.19 1.4637 3.51113 0
M  V30 14069 H 1315.5 1.71491 4.68393 0
M  V30 14070 H 1314.66 -0.19431 6.06389 0
M  V30 14071 H 1313.4 -0.540395 4.84697 0
M  V30 14072 H 1312.4 1.73453 5.21722 0
M  V30 14073 H 1313.63 2.07144 6.46737 0
M  V30 14074 H 1311.57 -0.170756 6.55778 0
M  V30 14075 H 1311.49 1.31601 7.44458 0
M  V30 14076 H 1312.76 0.179014 7.79294 0
M  V30 14077 N 1316.99 -1.36373 0.789944 0
M  V30 14078 C 1318.22 -2.03482 0.37453 0
M  V30 14079 C 1318.63 -1.59562 -1.00923 0
M  V30 14080 O 1317.99 -0.785289 -1.64741 0
M  V30 14081 C 1318.04 -3.58942 0.429255 0
M  V30 14082 O 1317.76 -4.01261 1.75845 0
M  V30 14083 C 1319.26 -4.433 0.00453729 0
M  V30 14084 H 1316.48 -0.653019 0.154295 0
M  V30 14085 H 1319.02 -1.74339 1.06894 0
M  V30 14086 H 1317.18 -3.86793 -0.21674 0
M  V30 14087 H 1317.59 -4.95854 1.70964 0
M  V30 14088 H 1319.07 -5.5192 0.0939653 0
M  V30 14089 H 1319.54 -4.26509 -1.04816 0
M  V30 14090 H 1320.15 -4.20712 0.623041 0
M  V30 14091 N 1318.47 -0.542005 -1.47987 0
M  V30 14092 C 1319.71 -0.0205021 -2.0339 0
M  V30 14093 C 1320.07 1.30854 -1.41049 0
M  V30 14094 O 1319.36 1.83496 -0.551328 0
M  V30 14095 C 1319.55 0.146208 -3.57101 0
M  V30 14096 C 1319.38 -1.16513 -4.34344 0
M  V30 14097 C 1318.15 -1.72829 -4.74824 0
M  V30 14098 C 1320.35 -2.07869 -4.7042 0
M  V30 14099 N 1318.33 -2.98126 -5.36651 0
M  V30 14100 C 1319.7 -3.17743 -5.3239 0
M  V30 14101 C 1321.76 -2.08049 -4.5235 0
M  V30 14102 C 1320.46 -4.27876 -5.78199 0
M  V30 14103 C 1322.49 -3.17184 -4.99147 0
M  V30 14104 C 1321.85 -4.25777 -5.61153 0
M  V30 14105 H 1317.95 -0.0492957 -0.780445 0
M  V30 14106 H 1320.53 -0.725941 -1.8066 0
M  V30 14107 H 1318.7 0.820747 -3.79629 0
M  V30 14108 H 1320.44 0.668402 -3.99142 0
M  V30 14109 H 1317.19 -1.26817 -4.56305 0
M  V30 14110 H 1317.61 -3.6195 -5.7212 0
M  V30 14111 H 1322.26 -1.25382 -4.03781 0
M  V30 14112 H 1319.97 -5.11313 -6.25767 0
M  V30 14113 H 1323.56 -3.18392 -4.86947 0
M  V30 14114 H 1322.44 -5.08833 -5.96707 0
M  V30 14115 N 1319.94 1.55134 -0.277709 0
M  V30 14116 C 1321.19 1.99259 0.337662 0
M  V30 14117 C 1321.51 1.16755 1.56183 0
M  V30 14118 O 1320.78 0.257707 1.94198 0
M  V30 14119 H 1319.36 0.735995 0.127751 0
M  V30 14120 H 1322.02 1.91087 -0.383646 0
M  V30 14121 H 1321.12 3.05763 0.625747 0
M  V30 14122 N 1321.42 0.00503138 1.57599 0
M  V30 14123 C 1322.37 -0.984754 2.08737 0
M  V30 14124 C 1323.34 -1.33822 0.983915 0
M  V30 14125 O 1324.52 -1.43572 1.25665 0
M  V30 14126 C 1321.66 -2.26984 2.59946 0
M  V30 14127 C 1320.78 -1.97496 3.84212 0
M  V30 14128 C 1319.91 -3.20123 4.23904 0
M  V30 14129 C 1318.95 -2.86344 5.40993 0
M  V30 14130 N 1318.09 -4.01524 5.75954 0
M  V30 14131 H 1322.93 -0.541737 2.93034 0
M  V30 14132 H 1320.46 -0.255834 1.44858 0
M  V30 14133 H 1322.42 -3.02117 2.87717 0
M  V30 14134 H 1321.05 -2.68946 1.78516 0
M  V30 14135 H 1320.1 -1.12709 3.63319 0
M  V30 14136 H 1321.42 -1.68602 4.69441 0
M  V30 14137 H 1320.57 -4.03598 4.52983 0
M  V30 14138 H 1319.31 -3.5216 3.37394 0
M  V30 14139 H 1318.31 -2.01278 5.11632 0
M  V30 14140 H 1319.54 -2.5555 6.29183 0
M  V30 14141 H 1317.49 -4.33447 4.92402 0
M  V30 14142 H 1317.4 -3.76171 6.55768 0
M  V30 14143 H 1318.67 -4.85772 6.09628 0
M  V30 14144 N 1322.9 -1.55308 -0.267798 0
M  V30 14145 C 1323.86 -1.87765 -1.31442 0
M  V30 14146 C 1324.86 -0.752571 -1.42102 0
M  V30 14147 O 1326.05 -1.02072 -1.41163 0
M  V30 14148 C 1323.18 -2.08754 -2.69508 0
M  V30 14149 H 1324.38 -2.8133 -1.03891 0
M  V30 14150 H 1321.93 -1.47879 -0.506111 0
M  V30 14151 H 1322.67 -1.17588 -3.02231 0
M  V30 14152 H 1322.45 -2.90674 -2.63156 0
M  V30 14153 H 1323.94 -2.3512 -3.4512 0
M  V30 14154 N 1324.38 0.532545 -1.4833 0
M  V30 14155 C 1325.32 1.63737 -1.62661 0
M  V30 14156 C 1326.29 1.59348 -0.468758 0
M  V30 14157 O 1327.48 1.77812 -0.691921 0
M  V30 14158 C 1324.62 3.02006 -1.66993 0
M  V30 14159 C 1323.73 3.16648 -2.93867 0
M  V30 14160 C 1322.87 4.4546 -2.89376 0
M  V30 14161 C 1321.91 4.53622 -4.10966 0
M  V30 14162 N 1321.04 5.7382 -4.04567 0
M  V30 14163 H 1325.88 1.50828 -2.57012 0
M  V30 14164 H 1323.42 0.734348 -1.27459 0
M  V30 14165 H 1325.38 3.82105 -1.67486 0
M  V30 14166 H 1324.01 3.13693 -0.76135 0
M  V30 14167 H 1323.06 2.29817 -3.0313 0
M  V30 14168 H 1324.37 3.1854 -3.8384 0
M  V30 14169 H 1323.53 5.33848 -2.88256 0
M  V30 14170 H 1322.27 4.46085 -1.97127 0
M  V30 14171 H 1321.27 3.63642 -4.12364 0
M  V30 14172 H 1322.5 4.54738 -5.04371 0
M  V30 14173 H 1320.44 5.75347 -3.15137 0
M  V30 14174 H 1320.36 5.77196 -4.88243 0
M  V30 14175 H 1321.63 6.64502 -4.07502 0
M  V30 14176 N 1325.86 1.36875 0.78122 0
M  V30 14177 C 1326.79 1.26232 1.90107 0
M  V30 14178 C 1327.77 0.144779 1.61954 0
M  V30 14179 O 1328.95 0.317344 1.8581 0
M  V30 14180 C 1326.08 0.949543 3.25117 0
M  V30 14181 C 1325.12 2.08266 3.72193 0
M  V30 14182 S 1325.96 3.70141 3.86983 0
M  V30 14183 C 1327.11 3.40994 5.24856 0
M  V30 14184 H 1327.35 2.21016 1.98844 0
M  V30 14185 H 1324.88 1.22387 0.941324 0
M  V30 14186 H 1326.84 0.775902 4.031 0
M  V30 14187 H 1325.5 0.0193416 3.14094 0
M  V30 14188 H 1324.69 1.81858 4.70046 0
M  V30 14189 H 1324.29 2.21595 3.01284 0
M  V30 14190 H 1326.58 2.95395 6.09711 0
M  V30 14191 H 1327.53 4.38141 5.56272 0
M  V30 14192 H 1327.94 2.76146 4.92345 0
M  V30 14193 N 1327.33 -1.00632 1.21289 0
M  V30 14194 C 1328.26 -2.11238 0.995021 0
M  V30 14195 C 1329.24 -1.69914 -0.0795537 0
M  V30 14196 O 1330.43 -1.94035 0.0800152 0
M  V30 14197 C 1327.56 -3.42797 0.557475 0
M  V30 14198 C 1326.51 -3.97909 1.57646 0
M  V30 14199 C 1325.84 -5.25357 0.995197 0
M  V30 14200 C 1327.14 -4.30123 2.96297 0
M  V30 14201 H 1328.83 -2.29722 1.9201 0
M  V30 14202 H 1326.38 -1.10395 0.924602 0
M  V30 14203 H 1328.33 -4.19571 0.392236 0
M  V30 14204 H 1327.06 -3.24101 -0.403253 0
M  V30 14205 H 1325.72 -3.23254 1.72924 0
M  V30 14206 H 1325.36 -5.02993 0.026227 0
M  V30 14207 H 1325.06 -5.63196 1.67583 0
M  V30 14208 H 1326.59 -6.04777 0.841251 0
M  V30 14209 H 1328 -4.97744 2.8447 0
M  V30 14210 H 1326.4 -4.79101 3.61361 0
M  V30 14211 H 1327.47 -3.38454 3.47242 0
M  V30 14212 N 1328.81 -1.02043 -1.20104 0
M  V30 14213 C 1330.04 -0.731142 -1.94085 0
M  V30 14214 C 1330.46 0.702467 -1.74491 0
M  V30 14215 O 1329.82 1.48387 -1.04168 0
M  V30 14216 C 1329.87 -1.07691 -3.44144 0
M  V30 14217 O 1328.97 -0.190751 -4.11959 0
M  V30 14218 H 1328.31 -0.270917 -0.606218 0
M  V30 14219 H 1330.84 -1.36483 -1.52426 0
M  V30 14220 H 1330.85 -1.03023 -3.94779 0
M  V30 14221 H 1329.53 -2.1214 -3.57728 0
M  V30 14222 H 1328.1 -0.29529 -3.71729 0
M  V30 14223 N 1330.29 1.35952 -0.797165 0
M  V30 14224 C 1331.52 2.0328 -0.385316 0
M  V30 14225 C 1331.93 1.60095 1.00076 0
M  V30 14226 O 1331.29 0.794014 1.64322 0
M  V30 14227 C 1331.34 3.5871 -0.448284 0
M  V30 14228 O 1331.06 4.00323 -1.7797 0
M  V30 14229 C 1332.56 4.43291 -0.0280465 0
M  V30 14230 H 1329.78 0.652192 -0.157756 0
M  V30 14231 H 1332.33 1.73769 -1.07817 0
M  V30 14232 H 1330.48 3.86903 0.196224 0
M  V30 14233 H 1330.9 4.94941 -1.73592 0
M  V30 14234 H 1332.37 5.51862 -0.123234 0
M  V30 14235 H 1332.85 4.27059 1.02552 0
M  V30 14236 H 1333.45 4.20375 -0.645343 0
M  V30 14237 N 1331.77 0.549846 1.47697 0
M  V30 14238 C 1332.68 -0.205286 2.337 0
M  V30 14239 C 1333.69 -0.919271 1.47734 0
M  V30 14240 O 1334.87 -0.889808 1.80678 0
M  V30 14241 C 1331.94 -1.22658 3.24278 0
M  V30 14242 C 1331 -0.520815 4.26129 0
M  V30 14243 C 1330.23 -1.49345 5.12378 0
M  V30 14244 O 1330.45 -2.72772 5.00951 0
M  V30 14245 O 1329.39 -1.02197 5.93161 0
M  V30 14246 H 1333.21 0.499982 2.99556 0
M  V30 14247 H 1330.8 0.310538 1.46137 0
M  V30 14248 H 1332.68 -1.8163 3.80248 0
M  V30 14249 H 1331.35 -1.9139 2.61059 0
M  V30 14250 H 1330.26 0.109906 3.73939 0
M  V30 14251 H 1331.59 0.124922 4.92041 0
M  V30 14252 N 1333.25 -1.54984 0.285932 0
M  V30 14253 C 1334.18 -2.25916 -0.590259 0
M  V30 14254 C 1335.16 -1.25319 -1.15018 0
M  V30 14255 O 1336.34 -1.54062 -1.18231 0
M  V30 14256 C 1333.47 -2.98849 -1.76936 0
M  V30 14257 C 1332.43 -4.06466 -1.3405 0
M  V30 14258 C 1331.75 -4.67032 -2.60356 0
M  V30 14259 C 1333.05 -5.20064 -0.482754 0
M  V30 14260 H 1334.75 -2.994 0.00131571 0
M  V30 14261 H 1332.29 -1.44 0.00207281 0
M  V30 14262 H 1334.25 -3.47186 -2.3883 0
M  V30 14263 H 1332.97 -2.22918 -2.38694 0
M  V30 14264 H 1331.63 -3.58957 -0.7447 0
M  V30 14265 H 1331.28 -3.87757 -3.20396 0
M  V30 14266 H 1330.98 -5.39703 -2.32368 0
M  V30 14267 H 1332.5 -5.18124 -3.23079 0
M  V30 14268 H 1333.91 -5.64387 -1.00697 0
M  V30 14269 H 1332.31 -5.99363 -0.297291 0
M  V30 14270 H 1333.38 -4.82358 0.495861 0
M  V30 14271 N 1334.72 -0.0133892 -1.57594 0
M  V30 14272 C 1335.67 0.982482 -2.05746 0
M  V30 14273 C 1336.66 1.29508 -0.954801 0
M  V30 14274 O 1337.85 1.28382 -1.21848 0
M  V30 14275 C 1334.98 2.27012 -2.57527 0
M  V30 14276 C 1334.07 1.98658 -3.74694 0
M  V30 14277 N 1334.46 1.40512 -4.85891 0
M  V30 14278 C 1332.75 2.28732 -3.82881 0
M  V30 14279 C 1333.46 1.28933 -5.67231 0
M  V30 14280 N 1332.43 1.77951 -5.13648 0
M  V30 14281 H 1336.23 0.527626 -2.89125 0
M  V30 14282 H 1333.75 0.192001 -1.61261 0
M  V30 14283 H 1335.74 2.99212 -2.90306 0
M  V30 14284 H 1334.4 2.73139 -1.75572 0
M  V30 14285 H 1335.42 1.08217 -5.06468 0
M  V30 14286 H 1332.09 2.77641 -3.11804 0
M  V30 14287 H 1333.48 0.841051 -6.66615 0
M  V30 14288 N 1336.2 1.55448 0.259558 0
M  V30 14289 C 1337.15 1.90056 1.34096 0
M  V30 14290 C 1338.14 0.778267 1.50464 0
M  V30 14291 O 1339.35 0.962758 1.52089 0
M  V30 14292 H 1335.73 0.603424 0.448758 0
M  V30 14293 H 1337.7 2.80365 1.02166 0
M  V30 14294 C 1336.45 2.20074 2.69189 0
M  V30 14295 H 1335.77 3.05926 2.57389 0
M  V30 14296 H 1337.21 2.48201 3.43762 0
M  V30 14297 C 1335.67 1.01281 3.21316 0
M  V30 14298 O 1336.2 0.2543 4.00894 0
M  V30 14299 N 1334.4 0.806855 2.79174 0
M  V30 14300 H 1333.95 1.42536 2.14572 0
M  V30 14301 H 1333.91 0.0136714 3.14397 0
M  V30 14302 N 1337.68 -0.524672 1.4861 0
M  V30 14303 C 1338.61 -1.64481 1.59621 0
M  V30 14304 C 1339.63 -1.55557 0.480181 0
M  V30 14305 O 1340.81 -1.61921 0.751254 0
M  V30 14306 C 1337.91 -3.03158 1.51487 0
M  V30 14307 C 1337.09 -3.37509 2.78221 0
M  V30 14308 C 1336.15 -4.5549 2.63467 0
M  V30 14309 O 1335.17 -4.58448 3.37364 0
M  V30 14310 N 1336.37 -5.53986 1.73437 0
M  V30 14311 H 1339.14 -1.5547 2.56221 0
M  V30 14312 H 1336.7 -0.712059 1.45401 0
M  V30 14313 H 1338.69 -3.79969 1.39305 0
M  V30 14314 H 1337.26 -3.06219 0.628406 0
M  V30 14315 H 1336.48 -2.49824 3.04929 0
M  V30 14316 H 1337.77 -3.57246 3.62288 0
M  V30 14317 H 1337.17 -5.54378 1.12612 0
M  V30 14318 H 1335.73 -6.29993 1.6719 0
M  V30 14319 N 1339.16 -1.37287 -0.77395 0
M  V30 14320 C 1340.39 -1.35563 -1.56302 0
M  V30 14321 C 1340.8 0.0595356 -1.88706 0
M  V30 14322 O 1340.16 1.02072 -1.51286 0
M  V30 14323 C 1340.21 -2.19195 -2.87464 0
M  V30 14324 O 1339.93 -3.55197 -2.5645 0
M  V30 14325 C 1341.43 -2.25425 -3.81704 0
M  V30 14326 H 1338.65 -0.464431 -0.484298 0
M  V30 14327 H 1341.2 -1.80597 -0.959425 0
M  V30 14328 H 1339.35 -1.77676 -3.44253 0
M  V30 14329 H 1339.76 -3.99011 -3.40427 0
M  V30 14330 H 1341.24 -2.8827 -4.70749 0
M  V30 14331 H 1341.72 -1.26205 -4.20677 0
M  V30 14332 H 1342.32 -2.67247 -3.30846 0
M  V30 14333 N 1340.64 0.999871 -1.21821 0
M  V30 14334 C 1341.88 1.7384 -1.03855 0
M  V30 14335 C 1342.21 1.89749 0.42727 0
M  V30 14336 O 1341.47 1.43261 1.33323 0
M  V30 14337 C 1341.77 3.1509 -1.6868 0
M  V30 14338 C 1341.43 3.19115 -3.18554 0
M  V30 14339 C 1340.09 3.19921 -3.5945 0
M  V30 14340 C 1342.45 3.15954 -4.14515 0
M  V30 14341 C 1339.77 3.15257 -4.94803 0
M  V30 14342 C 1342.13 3.12831 -5.49836 0
M  V30 14343 C 1340.79 3.11949 -5.90122 0
M  V30 14344 H 1340.06 0.636126 -0.380032 0
M  V30 14345 H 1342.71 1.17151 -1.51485 0
M  V30 14346 H 1341.01 3.75044 -1.13356 0
M  V30 14347 H 1342.71 3.70962 -1.52277 0
M  V30 14348 H 1339.3 3.19234 -2.85986 0
M  V30 14349 H 1343.48 3.14487 -3.83942 0
M  V30 14350 H 1338.74 3.12915 -5.25256 0
M  V30 14351 H 1342.91 3.09339 -6.23925 0
M  V30 14352 H 1340.54 3.0809 -6.94971 0
M  V30 14353 N 1342.11 1.02678 1.19562 0
M  V30 14354 C 1343.04 0.626359 2.24942 0
M  V30 14355 C 1344.03 -0.363612 1.66168 0
M  V30 14356 O 1345.21 -0.246793 1.92625 0
M  V30 14357 C 1342.34 -0.0257912 3.4729 0
M  V30 14358 C 1341.29 0.886237 4.18724 0
M  V30 14359 C 1340.62 0.0993081 5.34608 0
M  V30 14360 C 1341.92 2.19901 4.73752 0
M  V30 14361 H 1343.61 1.50729 2.58691 0
M  V30 14362 H 1341.16 0.726195 1.24348 0
M  V30 14363 H 1343.11 -0.317545 4.20202 0
M  V30 14364 H 1341.84 -0.941511 3.12735 0
M  V30 14365 H 1340.5 1.16215 3.47692 0
M  V30 14366 H 1340.14 -0.81838 4.96298 0
M  V30 14367 H 1339.84 0.706776 5.83334 0
M  V30 14368 H 1341.37 -0.185754 6.10317 0
M  V30 14369 H 1342.78 1.96892 5.3843 0
M  V30 14370 H 1341.18 2.75821 5.32956 0
M  V30 14371 H 1342.25 2.85509 3.91934 0
M  V30 14372 N 1343.59 -1.35528 0.804364 0
M  V30 14373 C 1344.84 -1.98084 0.380196 0
M  V30 14374 C 1345.15 -1.64531 -1.05778 0
M  V30 14375 O 1346.36 -2.20435 -1.58495 0
M  V30 14376 C 1344.82 -3.54364 0.628848 0
M  V30 14377 C 1344.42 -3.96828 2.07921 0
M  V30 14378 C 1346.17 -4.23641 0.269927 0
M  V30 14379 C 1344.08 -5.45944 2.27374 0
M  V30 14380 H 1343.01 -0.741185 0.138422 0
M  V30 14381 H 1345.66 -1.54624 0.988107 0
M  V30 14382 H 1344.04 -3.9597 -0.0489837 0
M  V30 14383 H 1345.21 -3.6638 2.79467 0
M  V30 14384 H 1343.53 -3.40433 2.39779 0
M  V30 14385 H 1346.12 -5.33251 0.393344 0
M  V30 14386 H 1346.47 -4.08858 -0.783644 0
M  V30 14387 H 1347 -3.87448 0.901588 0
M  V30 14388 H 1343.74 -5.65693 3.31168 0
M  V30 14389 H 1343.26 -5.77969 1.6035 0
M  V30 14390 H 1344.94 -6.12376 2.08817 0
M  V30 14391 N 1345.07 -0.557671 -1.47404 0
M  V30 14392 C 1346.35 0.031908 -1.95574 0
M  V30 14393 C 1346.73 1.48509 -1.50027 0
M  V30 14394 O 1346.08 2.16209 -0.73932 0
M  V30 14395 C 1346.29 -0.114055 -3.48814 0
M  V30 14396 C 1347.63 0.0310533 -4.24589 0
M  V30 14397 O 1348.66 -0.041626 -3.56176 0
M  V30 14398 O 1347.52 0.187487 -5.46178 0
M  V30 14399 H 1344.61 0.0638747 -0.82453 0
M  V30 14400 H 1347.16 -0.624227 -1.57802 0
M  V30 14401 H 1345.93 -1.12525 -3.74772 0
M  V30 14402 H 1345.55 0.57967 -3.93352 0
M  V30 14403 N 1346.55 1.54831 -0.294147 0
M  V30 14404 C 1347.8 1.99606 0.316509 0
M  V30 14405 C 1348.12 1.18405 1.54936 0
M  V30 14406 O 1347.39 0.278289 1.93913 0
M  V30 14407 H 1345.97 0.737309 0.119938 0
M  V30 14408 H 1348.63 1.90669 -0.403891 0
M  V30 14409 H 1347.73 3.06409 0.593282 0
M  V30 14410 N 1348.03 0.0217466 1.57585 0
M  V30 14411 C 1349.44 -0.51811 1.79367 0
M  V30 14412 C 1349.79 -1.72688 0.931313 0
M  V30 14413 O 1348.91 -2.15949 0.139687 0
M  V30 14414 C 1349.51 -0.946711 3.25304 0
M  V30 14415 C 1348.07 -1.43173 3.48107 0
M  V30 14416 C 1347.22 -0.392996 2.74501 0
M  V30 14417 H 1350.17 0.247822 1.56753 0
M  V30 14418 H 1350.19 -1.81152 3.34611 0
M  V30 14419 H 1349.7 -0.0667536 3.88043 0
M  V30 14420 H 1347.8 -2.33186 2.90612 0
M  V30 14421 H 1347.91 -1.44419 4.56815 0
M  V30 14422 H 1346.28 -0.859471 2.39761 0
M  V30 14423 H 1347.06 0.478368 3.39951 0
M  V30 14424 N 1349.51 -1.55583 -0.251311 0
M  V30 14425 C 1350.42 -1.93073 -1.33266 0
M  V30 14426 C 1351.43 -0.830612 -1.52895 0
M  V30 14427 O 1352.61 -1.13162 -1.66602 0
M  V30 14428 C 1349.67 -2.21396 -2.66805 0
M  V30 14429 C 1348.73 -3.44815 -2.55737 0
M  V30 14430 C 1347.97 -3.71777 -3.82907 0
M  V30 14431 O 1348.19 -3.00884 -4.84587 0
M  V30 14432 O 1347.12 -4.65305 -3.81805 0
M  V30 14433 H 1350.95 -2.85168 -1.04465 0
M  V30 14434 H 1348.53 -1.42408 -0.451693 0
M  V30 14435 H 1350.42 -2.4094 -3.45725 0
M  V30 14436 H 1349.09 -1.3248 -2.95348 0
M  V30 14437 H 1348 -3.30582 -1.75118 0
M  V30 14438 H 1349.33 -4.34019 -2.32139 0
M  V30 14439 N 1350.98 0.516783 -1.48886 0
M  V30 14440 C 1352.21 1.29628 -1.61258 0
M  V30 14441 C 1352.63 1.86744 -0.27786 0
M  V30 14442 O 1351.98 1.67061 0.734639 0
M  V30 14443 C 1352.03 2.43779 -2.66935 0
M  V30 14444 O 1351.76 1.89014 -3.95228 0
M  V30 14445 C 1353.26 3.35398 -2.89867 0
M  V30 14446 H 1350.48 0.393736 -0.543335 0
M  V30 14447 H 1353.02 0.622069 -1.94809 0
M  V30 14448 H 1351.18 3.0706 -2.36206 0
M  V30 14449 H 1351.59 2.63833 -4.53312 0
M  V30 14450 H 1353.06 4.11812 -3.6758 0
M  V30 14451 H 1353.54 3.91436 -1.99185 0
M  V30 14452 H 1354.15 2.77898 -3.21952 0
M  V30 14453 N 1352.46 1.37696 0.766659 0
M  V30 14454 C 1353.42 1.33688 1.86172 0
M  V30 14455 C 1354.42 0.239922 1.59 0
M  V30 14456 O 1355.61 0.496066 1.66988 0
M  V30 14457 C 1352.75 1.07807 3.23405 0
M  V30 14458 H 1353.94 2.311 1.91136 0
M  V30 14459 H 1351.49 1.22799 0.966961 0
M  V30 14460 H 1352.23 0.109477 3.24115 0
M  V30 14461 H 1352.01 1.87213 3.4452 0
M  V30 14462 H 1353.5 1.07665 4.03482 0
M  V30 14463 N 1353.94 -0.993397 1.22349 0
M  V30 14464 C 1354.85 -2.11771 1.00947 0
M  V30 14465 C 1355.87 -1.73949 -0.0420679 0
M  V30 14466 O 1357.04 -2.00837 0.150548 0
M  V30 14467 C 1354.11 -3.41654 0.589359 0
M  V30 14468 C 1353.17 -3.93579 1.71446 0
M  V30 14469 C 1352.4 -5.17264 1.3143 0
M  V30 14470 O 1352.62 -5.70074 0.192876 0
M  V30 14471 O 1351.56 -5.62929 2.13059 0
M  V30 14472 H 1355.38 -2.32708 1.95142 0
M  V30 14473 H 1352.97 -1.10144 1.00939 0
M  V30 14474 H 1354.85 -4.19813 0.365403 0
M  V30 14475 H 1353.53 -3.22077 -0.323738 0
M  V30 14476 H 1352.43 -3.16596 1.99294 0
M  V30 14477 H 1353.77 -4.17588 2.6054 0
M  V30 14478 N 1355.42 -1.03311 -1.19015 0
M  V30 14479 C 1356.66 -0.740813 -1.90503 0
M  V30 14480 C 1357.02 0.717732 -1.7808 0
M  V30 14481 O 1358.22 1.12329 -2.44204 0
M  V30 14482 C 1356.49 -1.18473 -3.37193 0
M  V30 14483 S 1358.05 -1.01692 -4.26854 0
M  V30 14484 H 1354.87 -0.269575 -0.657913 0
M  V30 14485 H 1357.47 -1.32382 -1.43858 0
M  V30 14486 H 1356.18 -2.2418 -3.43761 0
M  V30 14487 H 1355.71 -0.59519 -3.88872 0
M  V30 14488 H 1357.72 0.070076 -4.96151 0
M  V30 14489 N 1356.9 1.35099 -0.81154 0
M  V30 14490 C 1358.31 1.81082 -0.454543 0
M  V30 14491 C 1358.66 1.67361 1.02395 0
M  V30 14492 O 1357.78 1.20707 1.79607 0
M  V30 14493 C 1358.38 3.2877 -0.818274 0
M  V30 14494 C 1356.94 3.72877 -0.513808 0
M  V30 14495 C 1356.08 2.57008 -1.04125 0
M  V30 14496 H 1359.03 1.23007 -1.00274 0
M  V30 14497 H 1359.06 3.80318 -0.117683 0
M  V30 14498 H 1358.57 3.38725 -1.89439 0
M  V30 14499 H 1356.67 3.68468 0.553368 0
M  V30 14500 H 1356.78 4.67455 -1.0499 0
M  V30 14501 H 1355.15 2.5045 -0.463337 0
M  V30 14502 H 1355.93 2.69738 -2.12358 0
M  V30 14503 N 1358.37 0.56548 1.47106 0
M  V30 14504 C 1359.32 -0.190542 2.31818 0
M  V30 14505 C 1360.32 -0.901279 1.43434 0
M  V30 14506 O 1361.52 -0.821625 1.60154 0
M  V30 14507 H 1357.9 -0.0803183 0.747698 0
M  V30 14508 H 1359.87 0.542999 2.93418 0
M  V30 14509 C 1358.62 -1.20208 3.2626 0
M  V30 14510 H 1357.94 -0.664608 3.94237 0
M  V30 14511 H 1359.38 -1.7018 3.88349 0
M  V30 14512 C 1357.84 -2.25423 2.50372 0
M  V30 14513 O 1358.37 -3.3249 2.25418 0
M  V30 14514 N 1356.57 -1.9957 2.11235 0
M  V30 14515 H 1356.12 -1.12513 2.31729 0
M  V30 14516 H 1356.08 -2.70182 1.60777 0
M  V30 14517 N 1359.85 -1.54672 0.302354 0
M  V30 14518 C 1361.08 -2.04578 -0.309093 0
M  V30 14519 C 1361.5 -1.17957 -1.47416 0
M  V30 14520 O 1360.85 -0.2055 -1.81339 0
M  V30 14521 C 1360.9 -3.53334 -0.764023 0
M  V30 14522 O 1360.62 -4.36662 0.354674 0
M  V30 14523 C 1362.13 -4.19243 -1.44048 0
M  V30 14524 H 1359.35 -0.667651 -0.0669575 0
M  V30 14525 H 1361.89 -1.99658 0.442379 0
M  V30 14526 H 1360.04 -3.5861 -1.46552 0
M  V30 14527 H 1360.46 -5.245 0.000241188 0
M  V30 14528 H 1361.93 -5.24847 -1.70995 0
M  V30 14529 H 1362.41 -3.69061 -2.38098 0
M  V30 14530 H 1363.02 -4.18046 -0.782132 0
M  V30 14531 N 1361.33 -0.0301034 -1.57571 0
M  V30 14532 C 1362.28 0.969425 -2.11435 0
M  V30 14533 C 1363.27 1.33627 -1.04116 0
M  V30 14534 O 1364.48 1.31839 -1.2255 0
M  V30 14535 H 1360.85 0.330407 -0.675526 0
M  V30 14536 H 1362.82 0.489828 -2.94352 0
M  V30 14537 C 1361.57 2.24233 -2.65734 0
M  V30 14538 H 1360.9 1.9688 -3.47963 0
M  V30 14539 H 1362.34 2.92378 -3.07068 0
M  V30 14540 C 1360.8 2.97274 -1.58524 0
M  V30 14541 O 1361.33 3.8942 -0.985641 0
M  V30 14542 N 1359.53 2.59627 -1.30545 0
M  V30 14543 H 1359.08 1.84773 -1.79491 0
M  V30 14544 H 1359.04 3.08807 -0.590372 0
M  V30 14545 N 1362.81 1.55714 0.243056 0
M  V30 14546 C 1364.22 1.48224 0.591754 0
M  V30 14547 C 1364.42 0.72105 1.88157 0
M  V30 14548 O 1363.48 0.251966 2.5124 0
M  V30 14549 C 1364.79 2.92655 0.690918 0
M  V30 14550 C 1366.34 3.03048 0.782988 0
M  V30 14551 C 1366.82 4.48794 0.913682 0
M  V30 14552 N 1368.31 4.52748 0.978454 0
M  V30 14553 C 1369.04 5.62771 1.09891 0
M  V30 14554 N 1368.54 6.82596 1.18467 0
M  V30 14555 N 1370.33 5.50576 1.13237 0
M  V30 14556 H 1362.48 2.03642 -0.603614 0
M  V30 14557 H 1364.75 0.924702 -0.208878 0
M  V30 14558 H 1364.45 3.51203 -0.186871 0
M  V30 14559 H 1364.33 3.43357 1.5616 0
M  V30 14560 H 1366.71 2.44578 1.65123 0
M  V30 14561 H 1366.79 2.55551 -0.112921 0
M  V30 14562 H 1366.44 5.07875 0.0499835 0
M  V30 14563 H 1366.37 4.93976 1.82469 0
M  V30 14564 H 1368.86 3.66445 0.92337 0
M  V30 14565 H 1369.17 7.62197 1.27576 0
M  V30 14566 H 1367.52 6.85349 1.15418 0
M  V30 14567 H 1370.71 4.55897 1.06188 0
M  V30 14568 H 1370.88 6.36358 1.2228 0
M  V30 14569 N 1364.29 -0.50888 1.49158 0
M  V30 14570 C 1365.25 -1.59354 1.64739 0
M  V30 14571 C 1366.25 -1.52175 0.519557 0
M  V30 14572 O 1367.44 -1.55468 0.785838 0
M  V30 14573 C 1364.57 -2.99002 1.63739 0
M  V30 14574 H 1365.76 -1.46871 2.61474 0
M  V30 14575 H 1363.32 -0.732532 1.38071 0
M  V30 14576 H 1364.05 -3.1697 0.685583 0
M  V30 14577 H 1363.84 -3.05622 2.45637 0
M  V30 14578 H 1365.33 -3.77822 1.77877 0
M  V30 14579 N 1365.76 -1.381 -0.759346 0
M  V30 14580 C 1367.01 -1.35196 -1.51966 0
M  V30 14581 C 1367.37 0.0595044 -1.92308 0
M  V30 14582 O 1366.66 1.02089 -1.62137 0
M  V30 14583 C 1366.85 -2.23636 -2.78786 0
M  V30 14584 C 1366.68 -3.73241 -2.50841 0
M  V30 14585 C 1365.45 -4.42292 -2.44348 0
M  V30 14586 C 1367.65 -4.6581 -2.18003 0
M  V30 14587 N 1365.63 -5.77366 -2.08617 0
M  V30 14588 C 1367 -5.89354 -1.92516 0
M  V30 14589 C 1369.06 -4.54071 -2.04264 0
M  V30 14590 C 1367.76 -7.02473 -1.54675 0
M  V30 14591 C 1369.79 -5.67088 -1.67825 0
M  V30 14592 C 1369.15 -6.89689 -1.43206 0
M  V30 14593 H 1365.25 -0.550002 -0.555897 0
M  V30 14594 H 1367.83 -1.73436 -0.884769 0
M  V30 14595 H 1366 -1.87594 -3.40093 0
M  V30 14596 H 1367.73 -2.119 -3.44791 0
M  V30 14597 H 1364.49 -3.95439 -2.60624 0
M  V30 14598 H 1364.91 -6.48784 -1.93414 0
M  V30 14599 H 1369.56 -3.59843 -2.21975 0
M  V30 14600 H 1367.27 -7.96624 -1.35704 0
M  V30 14601 H 1370.86 -5.59982 -1.57834 0
M  V30 14602 H 1369.74 -7.75658 -1.15428 0
M  V30 14603 N 1367.24 0.986894 -1.22875 0
M  V30 14604 C 1368.19 2.09935 -1.00151 0
M  V30 14605 C 1369.18 1.69303 0.0573751 0
M  V30 14606 O 1370.39 1.79746 -0.0955781 0
M  V30 14607 H 1366.77 0.686605 -0.306721 0
M  V30 14608 H 1368.74 2.26271 -1.94535 0
M  V30 14609 C 1367.49 3.42442 -0.602374 0
M  V30 14610 H 1366.81 3.74154 -1.40886 0
M  V30 14611 H 1368.25 4.21242 -0.482836 0
M  V30 14612 C 1366.71 3.29785 0.688707 0
M  V30 14613 O 1367.24 3.6208 1.73957 0
M  V30 14614 N 1365.44 2.82956 0.662152 0
M  V30 14615 H 1364.99 2.56873 -0.193337 0
M  V30 14616 H 1364.95 2.74869 1.52625 0
M  V30 14617 N 1368.72 1.0394 1.18466 0
M  V30 14618 C 1369.95 0.761926 1.92897 0
M  V30 14619 C 1370.37 -0.674618 1.75586 0
M  V30 14620 O 1369.73 -1.46711 1.06515 0
M  V30 14621 C 1369.78 1.13152 3.42387 0
M  V30 14622 O 1368.88 0.256266 4.11603 0
M  V30 14623 H 1368.22 0.280527 0.601831 0
M  V30 14624 H 1370.75 1.3889 1.50235 0
M  V30 14625 H 1370.76 1.0929 3.9309 0
M  V30 14626 H 1369.44 2.17804 3.54308 0
M  V30 14627 H 1368.01 0.354392 3.71212 0
M  V30 14628 N 1370.2 -1.34667 0.818693 0
M  V30 14629 C 1371.13 -2.32134 0.252239 0
M  V30 14630 C 1372.11 -1.58044 -0.628982 0
M  V30 14631 O 1373.29 -1.86049 -0.55674 0
M  V30 14632 C 1370.42 -3.42249 -0.590183 0
M  V30 14633 C 1369.38 -4.27562 0.193547 0
M  V30 14634 C 1368.7 -5.29107 -0.771349 0
M  V30 14635 C 1370 -5.03205 1.39936 0
M  V30 14636 H 1371.7 -2.79758 1.06657 0
M  V30 14637 H 1369.24 -1.34502 0.514325 0
M  V30 14638 H 1371.2 -4.09445 -0.996616 0
M  V30 14639 H 1369.92 -2.93262 -1.43752 0
M  V30 14640 H 1368.58 -3.61962 0.581297 0
M  V30 14641 H 1368.23 -4.76384 -1.61453 0
M  V30 14642 H 1367.93 -5.87063 -0.251201 0
M  V30 14643 H 1369.45 -5.99174 -1.17573 0
M  V30 14644 H 1370.87 -5.6328 1.06717 0
M  V30 14645 H 1369.26 -5.70715 1.85485 0
M  V30 14646 H 1370.33 -4.33145 2.17976 0
M  V30 14647 N 1371.68 -0.573274 -1.46804 0
M  V30 14648 C 1372.59 0.168081 -2.33997 0
M  V30 14649 C 1373.6 0.895652 -1.49178 0
M  V30 14650 O 1374.78 0.860951 -1.8207 0
M  V30 14651 C 1371.84 1.17483 -3.26188 0
M  V30 14652 C 1370.9 0.452956 -4.26904 0
M  V30 14653 C 1370.14 1.41175 -5.1469 0
M  V30 14654 O 1370.36 2.64767 -5.05227 0
M  V30 14655 O 1369.29 0.927472 -5.94711 0
M  V30 14656 H 1373.12 -0.547576 -2.98723 0
M  V30 14657 H 1370.71 -0.333747 -1.45624 0
M  V30 14658 H 1372.59 1.75557 -3.8309 0
M  V30 14659 H 1371.26 1.87213 -2.6407 0
M  V30 14660 H 1370.17 -0.169383 -3.73716 0
M  V30 14661 H 1371.5 -0.203186 -4.9178 0
M  V30 14662 N 1373.15 1.5451 -0.310553 0
M  V30 14663 C 1374.4 2.00623 0.296343 0
M  V30 14664 C 1374.73 1.19855 1.52802 0
M  V30 14665 O 1374.01 0.277468 1.92511 0
M  V30 14666 C 1374.29 3.54305 0.643448 0
M  V30 14667 C 1374.14 4.45807 -0.598029 0
M  V30 14668 C 1375.46 4.14958 1.46623 0
M  V30 14669 H 1372.58 0.729303 0.106236 0
M  V30 14670 H 1375.22 1.85196 -0.424549 0
M  V30 14671 H 1373.37 3.67581 1.25762 0
M  V30 14672 H 1375.05 4.44421 -1.23643 0
M  V30 14673 H 1373.29 4.16014 -1.22944 0
M  V30 14674 H 1373.96 5.51124 -0.310883 0
M  V30 14675 H 1376.44 4.05176 0.947199 0
M  V30 14676 H 1375.31 5.22627 1.67787 0
M  V30 14677 H 1375.57 3.67445 2.45839 0
M  V30 14678 N 1374.63 0.0384594 1.57553 0
M  V30 14679 C 1375.54 -0.955737 2.14249 0
M  V30 14680 C 1376.56 -1.35056 1.09708 0
M  V30 14681 O 1377.74 -1.43008 1.41812 0
M  V30 14682 C 1374.8 -2.21647 2.66596 0
M  V30 14683 C 1373.86 -1.88119 3.85888 0
M  V30 14684 C 1373.09 -3.08182 4.35729 0
M  V30 14685 O 1373.32 -4.21145 3.84699 0
M  V30 14686 O 1372.25 -2.89936 5.27467 0
M  V30 14687 H 1376.08 -0.50361 2.99495 0
M  V30 14688 H 1373.66 -0.182698 1.48279 0
M  V30 14689 H 1375.54 -2.9564 3.00291 0
M  V30 14690 H 1374.22 -2.66022 1.84428 0
M  V30 14691 H 1373.13 -1.11481 3.57103 0
M  V30 14692 H 1374.46 -1.48553 4.69247 0
M  V30 14693 N 1376.11 -1.55841 -0.234795 0
M  V30 14694 C 1377.39 -1.69008 -0.984665 0
M  V30 14695 C 1377.77 -0.581882 -2.02922 0
M  V30 14696 O 1377.12 0.412998 -2.24737 0
M  V30 14697 C 1377.33 -3.09796 -1.60708 0
M  V30 14698 C 1378.67 -3.68784 -2.10436 0
M  V30 14699 O 1379.7 -3.12674 -1.70627 0
M  V30 14700 O 1378.56 -4.67175 -2.83567 0
M  V30 14701 H 1375.65 -0.68786 -0.459105 0
M  V30 14702 H 1378.2 -1.68166 -0.227623 0
M  V30 14703 H 1376.97 -3.81908 -0.852169 0
M  V30 14704 H 1376.59 -3.147 -2.43001 0
M  V30 14705 N 1377.59 0.500963 -1.49426 0
M  V30 14706 C 1378.82 1.27725 -1.62388 0
M  V30 14707 C 1379.23 1.86893 -0.294544 0
M  V30 14708 O 1378.57 1.68571 0.73003 0
M  V30 14709 C 1378.63 2.44649 -2.63414 0
M  V30 14710 C 1378.3 2.0635 -4.0776 0
M  V30 14711 C 1379.29 1.60323 -4.94563 0
M  V30 14712 C 1376.98 2.15984 -4.53493 0
M  V30 14713 C 1378.97 1.24433 -6.25136 0
M  V30 14714 C 1376.66 1.79706 -5.8408 0
M  V30 14715 C 1377.66 1.34005 -6.69725 0
M  V30 14716 O 1377.35 0.982171 -7.97878 0
M  V30 14717 H 1377.08 0.393595 -0.549599 0
M  V30 14718 H 1379.63 0.607944 -1.96197 0
M  V30 14719 H 1377.86 3.14656 -2.24785 0
M  V30 14720 H 1379.55 3.06675 -2.65905 0
M  V30 14721 H 1380.32 1.52326 -4.60458 0
M  V30 14722 H 1376.2 2.50507 -3.86998 0
M  V30 14723 H 1379.74 0.886906 -6.91939 0
M  V30 14724 H 1375.64 1.87352 -6.17713 0
M  V30 14725 H 1376.4 1.11364 -8.10889 0
M  V30 14726 N 1379.07 1.38501 0.752011 0
M  V30 14727 C 1380.32 1.34529 1.50819 0
M  V30 14728 C 1380.64 -0.0636155 1.94896 0
M  V30 14729 O 1379.91 -1.01161 1.6776 0
M  V30 14730 H 1378.49 0.49501 0.559441 0
M  V30 14731 H 1381.15 1.73196 0.893822 0
M  V30 14732 H 1380.24 1.99713 2.39835 0
M  V30 14733 N 1380.55 -0.980364 1.23396 0
M  V30 14734 C 1381.79 -1.72166 1.06607 0
M  V30 14735 C 1382.12 -1.90405 -0.397029 0
M  V30 14736 O 1381.38 -1.45363 -1.31027 0
M  V30 14737 C 1381.67 -3.12367 1.73671 0
M  V30 14738 C 1381.34 -3.14007 3.2359 0
M  V30 14739 C 1380 -3.14162 3.64494 0
M  V30 14740 C 1382.35 -3.09319 4.19489 0
M  V30 14741 C 1379.68 -3.07345 4.99756 0
M  V30 14742 C 1382.03 -3.04044 5.54743 0
M  V30 14743 C 1380.7 -3.02521 5.9501 0
M  V30 14744 H 1379.97 -0.63 0.390104 0
M  V30 14745 H 1382.62 -1.14727 1.5333 0
M  V30 14746 H 1380.92 -3.73193 1.19308 0
M  V30 14747 H 1382.62 -3.68493 1.58159 0
M  V30 14748 H 1379.21 -3.14644 2.91028 0
M  V30 14749 H 1383.39 -3.08339 3.88897 0
M  V30 14750 H 1378.65 -3.04519 5.30168 0
M  V30 14751 H 1382.82 -2.99374 6.28767 0
M  V30 14752 H 1380.45 -2.96994 6.99785 0
M  V30 14753 N 1382.02 -1.04567 -1.17913 0
M  V30 14754 C 1383.27 -0.750538 -1.87647 0
M  V30 14755 C 1383.59 0.72423 -1.81052 0
M  V30 14756 O 1382.86 1.52292 -1.23223 0
M  V30 14757 H 1381.44 -0.274636 -0.694683 0
M  V30 14758 H 1384.1 -1.32349 -1.43072 0
M  V30 14759 H 1383.2 -1.05987 -2.93553 0
M  V30 14760 N 1383.5 1.34231 -0.825823 0
M  V30 14761 C 1384.75 1.9849 -0.415891 0
M  V30 14762 C 1385.08 1.6531 1.01913 0
M  V30 14763 O 1384.36 0.926223 1.7103 0
M  V30 14764 C 1384.64 3.54691 -0.621785 0
M  V30 14765 C 1384.49 3.97603 -2.10313 0
M  V30 14766 C 1385.81 4.4006 -0.0595871 0
M  V30 14767 H 1382.93 0.721032 -0.152582 0
M  V30 14768 H 1385.57 1.5908 -1.03892 0
M  V30 14769 H 1383.72 3.88392 -0.0914439 0
M  V30 14770 H 1385.39 3.74221 -2.69733 0
M  V30 14771 H 1383.64 3.47809 -2.59251 0
M  V30 14772 H 1384.31 5.06352 -2.19799 0
M  V30 14773 H 1386.78 4.12929 -0.512743 0
M  V30 14774 H 1385.66 5.48403 -0.233431 0
M  V30 14775 H 1385.92 4.29798 1.03568 0
M  V30 14776 N 1384.98 0.581051 1.46498 0
M  V30 14777 C 1386.23 0.0659956 2.02392 0
M  V30 14778 C 1386.55 -1.29329 1.45273 0
M  V30 14779 O 1385.81 -1.86047 0.607041 0
M  V30 14780 C 1386.11 -0.0514774 3.57363 0
M  V30 14781 C 1385.77 1.24 4.33514 0
M  V30 14782 C 1384.44 1.59383 4.54038 0
M  V30 14783 C 1386.79 2.09473 4.77253 0
M  V30 14784 C 1384.12 2.8004 5.15552 0
M  V30 14785 C 1386.47 3.29355 5.401 0
M  V30 14786 C 1385.13 3.65022 5.58852 0
M  V30 14787 H 1384.4 0.0241495 0.740606 0
M  V30 14788 H 1387.05 0.757354 1.75887 0
M  V30 14789 H 1385.35 -0.825955 3.82995 0
M  V30 14790 H 1387.05 -0.465726 3.98286 0
M  V30 14791 H 1383.64 0.954547 4.17835 0
M  V30 14792 H 1387.83 1.83441 4.61154 0
M  V30 14793 H 1383.08 3.07814 5.28262 0
M  V30 14794 H 1387.26 3.95855 5.7295 0
M  V30 14795 H 1384.88 4.58607 6.06287 0
M  V30 14796 N 1386.46 -1.54343 0.318742 0
M  V30 14797 C 1387.69 -2.04894 -0.287378 0
M  V30 14798 C 1388.1 -1.19514 -1.46157 0
M  V30 14799 O 1387.46 -0.224722 -1.81111 0
M  V30 14800 C 1387.51 -3.54124 -0.726505 0
M  V30 14801 O 1387.23 -4.36261 0.400968 0
M  V30 14802 C 1388.73 -4.20748 -1.39594 0
M  V30 14803 H 1385.95 -0.668323 -0.0598724 0
M  V30 14804 H 1388.49 -1.99177 0.463531 0
M  V30 14805 H 1386.65 -3.60145 -1.4274 0
M  V30 14806 H 1387.06 -5.2447 0.0558714 0
M  V30 14807 H 1388.54 -5.26632 -1.65418 0
M  V30 14808 H 1389.01 -3.71566 -2.3417 0
M  V30 14809 H 1389.62 -4.18852 -0.737749 0
M  V30 14810 N 1387.94 -0.0468143 -1.5753 0
M  V30 14811 C 1389.16 0.637648 -1.96829 0
M  V30 14812 C 1389.58 1.64635 -0.924158 0
M  V30 14813 O 1388.94 1.82267 0.0921139 0
M  V30 14814 C 1388.99 1.32842 -3.36207 0
M  V30 14815 O 1388.71 0.360111 -4.36617 0
M  V30 14816 C 1390.21 2.10305 -3.90239 0
M  V30 14817 H 1387.43 0.174634 -0.647876 0
M  V30 14818 H 1389.97 -0.111824 -2.04194 0
M  V30 14819 H 1388.13 2.02915 -3.30006 0
M  V30 14820 H 1388.54 0.852661 -5.17523 0
M  V30 14821 H 1390.02 2.54065 -4.90056 0
M  V30 14822 H 1390.49 2.94942 -3.25432 0
M  V30 14823 H 1391.1 1.45152 -3.99764 0
M  V30 14824 N 1389.41 1.55964 0.226527 0
M  V30 14825 C 1390.36 1.92857 1.30034 0
M  V30 14826 C 1391.36 0.810008 1.48779 0
M  V30 14827 O 1392.56 0.994801 1.50012 0
M  V30 14828 H 1388.94 0.612807 0.435857 0
M  V30 14829 H 1390.91 2.82469 0.96196 0
M  V30 14830 C 1389.66 2.25735 2.6446 0
M  V30 14831 H 1388.98 3.11317 2.50842 0
M  V30 14832 H 1390.42 2.55437 3.3842 0
M  V30 14833 C 1388.88 1.08074 3.19095 0
M  V30 14834 O 1389.41 0.339279 4.00265 0
M  V30 14835 N 1387.62 0.86589 2.774 0
M  V30 14836 H 1387.16 1.47055 2.11501 0
M  V30 14837 H 1387.12 0.0803566 3.14297 0
M  V30 14838 N 1390.89 -0.493031 1.4969 0
M  V30 14839 C 1392.14 -1.2433 1.58823 0
M  V30 14840 C 1392.45 -1.9353 0.283823 0
M  V30 14841 O 1393.66 -2.70311 0.253801 0
M  V30 14842 C 1392.12 -2.25792 2.8026 0
M  V30 14843 C 1391.72 -1.62496 4.17491 0
M  V30 14844 C 1393.47 -3.01598 2.98729 0
M  V30 14845 C 1391.38 -2.62115 5.30141 0
M  V30 14846 H 1390.31 -0.467738 0.591386 0
M  V30 14847 H 1392.96 -0.516238 1.76089 0
M  V30 14848 H 1391.34 -3.01696 2.56506 0
M  V30 14849 H 1392.51 -0.925305 4.51414 0
M  V30 14850 H 1390.83 -0.990516 4.04447 0
M  V30 14851 H 1393.42 -3.76111 3.80058 0
M  V30 14852 H 1393.77 -3.59687 2.09597 0
M  V30 14853 H 1394.3 -2.32809 3.2256 0
M  V30 14854 H 1391.04 -2.08797 6.21357 0
M  V30 14855 H 1390.56 -3.30298 5.00663 0
M  V30 14856 H 1392.24 -3.24385 5.59807 0
M  V30 14857 N 1392.37 -1.38898 -0.744656 0
M  V30 14858 C 1393.62 -1.368 -1.50523 0
M  V30 14859 C 1393.97 0.0391042 -1.9236 0
M  V30 14860 O 1393.26 1.00363 -1.63211 0
M  V30 14861 C 1393.46 -2.2658 -2.76398 0
M  V30 14862 C 1393.29 -3.7588 -2.46868 0
M  V30 14863 C 1392.06 -4.44859 -2.39643 0
M  V30 14864 C 1394.26 -4.68096 -2.1305 0
M  V30 14865 N 1392.24 -5.79547 -2.02482 0
M  V30 14866 C 1393.61 -5.91362 -1.86254 0
M  V30 14867 C 1395.66 -4.56212 -1.99436 0
M  V30 14868 C 1394.37 -7.04074 -1.47216 0
M  V30 14869 C 1396.39 -5.68836 -1.618 0
M  V30 14870 C 1395.75 -6.9117 -1.35882 0
M  V30 14871 H 1391.85 -0.555867 -0.550032 0
M  V30 14872 H 1394.44 -1.74364 -0.866324 0
M  V30 14873 H 1392.61 -1.9119 -3.38084 0
M  V30 14874 H 1394.34 -2.15545 -3.42524 0
M  V30 14875 H 1391.1 -3.98181 -2.56415 0
M  V30 14876 H 1391.52 -6.50799 -1.86522 0
M  V30 14877 H 1396.16 -3.62177 -2.18146 0
M  V30 14878 H 1393.88 -7.98019 -1.27247 0
M  V30 14879 H 1397.47 -5.61624 -1.51886 0
M  V30 14880 H 1396.35 -7.76839 -1.07195 0
M  V30 14881 N 1393.85 0.973806 -1.23914 0
M  V30 14882 C 1394.78 2.08526 -1.05068 0
M  V30 14883 C 1395.76 1.70065 0.0344761 0
M  V30 14884 O 1396.94 1.93755 -0.131432 0
M  V30 14885 C 1394.07 3.41198 -0.648165 0
M  V30 14886 C 1393.03 3.9359 -1.6814 0
M  V30 14887 C 1392.35 5.22534 -1.13414 0
M  V30 14888 C 1393.65 4.22116 -3.07597 0
M  V30 14889 H 1395.35 2.24551 -1.98034 0
M  V30 14890 H 1392.89 1.07905 -0.953546 0
M  V30 14891 H 1394.85 4.18383 -0.50334 0
M  V30 14892 H 1393.57 3.25056 0.317182 0
M  V30 14893 H 1392.23 3.18555 -1.81434 0
M  V30 14894 H 1391.88 5.02747 -0.159578 0
M  V30 14895 H 1391.58 5.58555 -1.82456 0
M  V30 14896 H 1393.1 6.02334 -1.0013 0
M  V30 14897 H 1394.52 4.90027 -2.97567 0
M  V30 14898 H 1392.91 4.69352 -3.73937 0
M  V30 14899 H 1393.98 3.29128 -3.56094 0
M  V30 14900 N 1395.33 1.05191 1.17357 0
M  V30 14901 C 1396.74 0.773255 1.39617 0
M  V30 14902 C 1396.94 -0.632346 1.91321 0
M  V30 14903 O 1396 -1.39475 2.10483 0
M  V30 14904 C 1397.31 1.82885 2.38692 0
M  V30 14905 C 1398.86 1.85106 2.52398 0
M  V30 14906 C 1399.33 2.89689 3.54746 0
M  V30 14907 N 1400.83 2.88651 3.62263 0
M  V30 14908 C 1401.56 3.66221 4.41214 0
M  V30 14909 N 1401.06 4.53577 5.23679 0
M  V30 14910 N 1402.85 3.54661 4.36087 0
M  V30 14911 H 1395 1.9588 0.82127 0
M  V30 14912 H 1397.26 0.848187 0.423417 0
M  V30 14913 H 1396.97 2.83766 2.07773 0
M  V30 14914 H 1396.84 1.67047 3.38194 0
M  V30 14915 H 1399.23 0.848896 2.82627 0
M  V30 14916 H 1399.31 2.05022 1.5297 0
M  V30 14917 H 1398.96 3.90091 3.25255 0
M  V30 14918 H 1398.89 2.67025 4.53878 0
M  V30 14919 H 1401.38 2.25312 3.03386 0
M  V30 14920 H 1401.69 5.09449 5.81104 0
M  V30 14921 H 1400.03 4.57638 5.23061 0
M  V30 14922 H 1403.23 2.8581 3.70716 0
M  V30 14923 H 1403.4 4.15361 4.97372 0
M  V30 14924 N 1396.8 -1.33791 0.83293 0
M  V30 14925 C 1397.73 -2.31853 0.276846 0
M  V30 14926 C 1398.72 -1.58702 -0.612184 0
M  V30 14927 O 1399.9 -1.86629 -0.536975 0
M  V30 14928 C 1397.03 -3.42855 -0.55385 0
M  V30 14929 C 1395.98 -4.27333 0.238884 0
M  V30 14930 C 1395.31 -5.29895 -0.715187 0
M  V30 14931 C 1396.61 -5.01692 1.45265 0
M  V30 14932 H 1398.3 -2.78611 1.09618 0
M  V30 14933 H 1395.85 -1.33949 0.528562 0
M  V30 14934 H 1397.8 -4.10479 -0.953133 0
M  V30 14935 H 1396.53 -2.94771 -1.40634 0
M  V30 14936 H 1395.19 -3.61325 0.619656 0
M  V30 14937 H 1394.83 -4.7807 -1.56391 0
M  V30 14938 H 1394.53 -5.87296 -0.188921 0
M  V30 14939 H 1396.06 -6.00387 -1.11211 0
M  V30 14940 H 1397.47 -5.62117 1.12685 0
M  V30 14941 H 1395.87 -5.68715 1.91528 0
M  V30 14942 H 1396.94 -4.30809 2.22558 0
M  V30 14943 N 1398.28 -0.588812 -1.46187 0
M  V30 14944 C 1399.7 -0.250962 -1.57615 0
M  V30 14945 C 1399.9 1.2467 -1.58302 0
M  V30 14946 O 1398.95 2.02876 -1.50325 0
M  V30 14947 C 1400.27 -0.905561 -2.8674 0
M  V30 14948 C 1401.82 -0.879721 -3.00383 0
M  V30 14949 C 1402.29 -1.51398 -4.32253 0
M  V30 14950 N 1403.78 -1.4786 -4.38967 0
M  V30 14951 C 1404.52 -1.93868 -5.39632 0
M  V30 14952 N 1404.01 -2.47876 -6.46938 0
M  V30 14953 N 1405.81 -1.84748 -5.30872 0
M  V30 14954 H 1397.96 -1.56148 -1.43985 0
M  V30 14955 H 1400.22 -0.653028 -0.68721 0
M  V30 14956 H 1399.93 -1.95935 -2.92066 0
M  V30 14957 H 1399.8 -0.417456 -3.74883 0
M  V30 14958 H 1402.19 0.165466 -2.94636 0
M  V30 14959 H 1402.27 -1.40591 -2.137 0
M  V30 14960 H 1401.91 -2.55839 -4.38758 0
M  V30 14961 H 1401.84 -0.962965 -5.17721 0
M  V30 14962 H 1404.33 -1.08387 -3.62023 0
M  V30 14963 H 1404.65 -2.80824 -7.1997 0
M  V30 14964 H 1402.99 -2.51905 -6.47741 0
M  V30 14965 H 1406.18 -1.42307 -4.45944 0
M  V30 14966 H 1406.35 -2.20919 -6.09179 0
M  V30 14967 N 1399.76 1.54172 -0.326923 0
M  V30 14968 C 1400.67 2.28149 0.546351 0
M  V30 14969 C 1401.69 1.32628 1.12631 0
M  V30 14970 O 1402.86 1.65647 1.14556 0
M  V30 14971 C 1399.93 3.02742 1.68962 0
M  V30 14972 C 1398.99 4.13856 1.14112 0
M  V30 14973 C 1398.22 4.84882 2.2299 0
M  V30 14974 O 1398.44 4.55448 3.43399 0
M  V30 14975 O 1397.38 5.71714 1.8822 0
M  V30 14976 H 1401.2 3.03651 -0.0545288 0
M  V30 14977 H 1398.79 1.49113 -0.0925027 0
M  V30 14978 H 1400.67 3.49443 2.35515 0
M  V30 14979 H 1399.35 2.30113 2.27662 0
M  V30 14980 H 1398.25 3.71497 0.440579 0
M  V30 14981 H 1399.59 4.88539 0.599211 0
M  V30 14982 N 1401.24 0.0551678 1.57503 0
M  V30 14983 C 1402.19 -0.917847 2.11764 0
M  V30 14984 C 1403.16 -1.30624 1.02599 0
M  V30 14985 O 1404.34 -1.39501 1.30169 0
M  V30 14986 C 1401.48 -2.18599 2.67036 0
M  V30 14987 C 1400.59 -1.85173 3.90301 0
M  V30 14988 C 1399.73 -3.06475 4.33874 0
M  V30 14989 C 1398.77 -2.68988 5.49829 0
M  V30 14990 N 1397.9 -3.82997 5.88437 0
M  V30 14991 H 1402.74 -0.448236 2.9461 0
M  V30 14992 H 1400.28 -0.209619 1.45599 0
M  V30 14993 H 1402.24 -2.92811 2.97183 0
M  V30 14994 H 1400.87 -2.6313 1.86982 0
M  V30 14995 H 1399.92 -1.01094 3.66721 0
M  V30 14996 H 1401.23 -1.53582 4.74567 0
M  V30 14997 H 1400.39 -3.88982 4.65594 0
M  V30 14998 H 1399.13 -3.41247 3.48427 0
M  V30 14999 H 1398.13 -1.84899 5.17776 0
M  V30 15000 H 1399.36 -2.35404 6.36994 0
M  V30 15001 H 1397.3 -4.17562 5.05942 0
M  V30 15002 H 1397.22 -3.55118 6.67403 0
M  V30 15003 H 1398.49 -4.66131 6.24773 0
M  V30 15004 N 1402.72 -1.56081 -0.218252 0
M  V30 15005 C 1403.65 -1.89176 -1.29403 0
M  V30 15006 C 1404.66 -0.780312 -1.42881 0
M  V30 15007 O 1405.85 -1.05863 -1.4372 0
M  V30 15008 C 1402.95 -2.08818 -2.66923 0
M  V30 15009 C 1402.12 -3.39854 -2.75351 0
M  V30 15010 C 1401.18 -3.48889 -3.93908 0
M  V30 15011 O 1400.21 -4.21894 -3.82091 0
M  V30 15012 N 1401.41 -2.80273 -5.08357 0
M  V30 15013 H 1404.18 -2.82047 -1.01338 0
M  V30 15014 H 1401.74 -1.56667 -0.408278 0
M  V30 15015 H 1403.73 -2.12175 -3.44622 0
M  V30 15016 H 1402.3 -1.22557 -2.87574 0
M  V30 15017 H 1401.52 -3.48568 -1.84104 0
M  V30 15018 H 1402.81 -4.26168 -2.77954 0
M  V30 15019 H 1402.2 -2.20744 -5.20854 0
M  V30 15020 H 1400.76 -2.89286 -5.84086 0
M  V30 15021 N 1404.2 0.485086 -1.49949 0
M  V30 15022 C 1405.47 1.24639 -1.50747 0
M  V30 15023 C 1405.85 2.09683 -0.244162 0
M  V30 15024 O 1405.2 2.1503 0.772949 0
M  V30 15025 C 1405.41 2.08946 -2.7954 0
M  V30 15026 C 1406.76 2.67604 -3.29656 0
M  V30 15027 O 1407.78 2.192 -2.80766 0
M  V30 15028 O 1406.64 3.55761 -4.14845 0
M  V30 15029 H 1403.74 0.564849 -0.604049 0
M  V30 15030 H 1406.28 0.498052 -1.62227 0
M  V30 15031 H 1405.05 1.46185 -3.62968 0
M  V30 15032 H 1404.68 2.90941 -2.70997 0
M  V30 15033 N 1405.67 1.39291 0.737279 0
M  V30 15034 C 1406.64 1.37607 1.83294 0
M  V30 15035 C 1407.64 0.273594 1.58455 0
M  V30 15036 O 1408.83 0.531375 1.65898 0
M  V30 15037 C 1405.96 1.14642 3.21045 0
M  V30 15038 H 1407.15 2.35102 1.86191 0
M  V30 15039 H 1404.7 1.24822 0.940696 0
M  V30 15040 H 1405.44 0.178202 3.2381 0
M  V30 15041 H 1405.22 1.94479 3.40471 0
M  V30 15042 H 1406.71 1.162 4.01108 0
M  V30 15043 N 1407.15 -0.967221 1.24429 0
M  V30 15044 C 1408.4 -1.71026 1.08427 0
M  V30 15045 C 1408.73 -1.90815 -0.376812 0
M  V30 15046 O 1407.98 -1.46745 -1.29477 0
M  V30 15047 C 1408.28 -3.10507 1.76975 0
M  V30 15048 C 1407.95 -3.10557 3.26902 0
M  V30 15049 C 1406.61 -3.10278 3.67806 0
M  V30 15050 C 1408.96 -3.04852 4.22746 0
M  V30 15051 C 1406.29 -3.02027 5.02988 0
M  V30 15052 C 1408.64 -2.98143 5.57937 0
M  V30 15053 C 1407.3 -2.96193 5.98185 0
M  V30 15054 H 1406.57 -0.625827 0.396764 0
M  V30 15055 H 1409.22 -1.13094 1.54538 0
M  V30 15056 H 1407.53 -3.71906 1.2326 0
M  V30 15057 H 1409.22 -3.66794 1.62058 0
M  V30 15058 H 1405.81 -3.11539 2.94349 0
M  V30 15059 H 1410 -3.04197 3.92145 0
M  V30 15060 H 1405.25 -2.98878 5.33368 0
M  V30 15061 H 1409.43 -2.92688 6.31907 0
M  V30 15062 H 1407.05 -2.89555 7.02895 0
M  V30 15063 N 1408.63 -1.05812 -1.16797 0
M  V30 15064 C 1409.87 -0.781055 -1.88889 0
M  V30 15065 C 1410.23 0.679797 -1.79563 0
M  V30 15066 O 1411.43 1.07124 -2.46532 0
M  V30 15067 C 1409.71 -1.25598 -3.34604 0
M  V30 15068 S 1411.26 -1.10724 -4.24601 0
M  V30 15069 H 1408.08 -0.28347 -0.652047 0
M  V30 15070 H 1410.68 -1.35404 -1.41018 0
M  V30 15071 H 1409.39 -2.31421 -3.38928 0
M  V30 15072 H 1408.92 -0.677541 -3.87522 0
M  V30 15073 H 1410.93 -0.0351807 -4.96188 0
M  V30 15074 N 1410.11 1.33347 -0.840014 0
M  V30 15075 C 1411.38 1.92293 -0.358158 0
M  V30 15076 C 1411.76 1.76594 1.15662 0
M  V30 15077 O 1411.11 1.15503 1.97158 0
M  V30 15078 C 1411.32 3.39558 -0.806329 0
M  V30 15079 C 1412.67 4.16705 -0.81501 0
M  V30 15080 O 1413.69 3.48214 -0.75001 0
M  V30 15081 O 1412.55 5.38974 -0.903818 0
M  V30 15082 H 1409.65 0.820737 -0.101585 0
M  V30 15083 H 1412.19 1.42213 -0.925942 0
M  V30 15084 H 1410.97 3.44861 -1.84897 0
M  V30 15085 H 1410.59 3.97017 -0.215181 0
M  V30 15086 N 1411.59 0.596556 1.45873 0
M  V30 15087 C 1412.81 0.0916466 2.07197 0
M  V30 15088 C 1413.24 -1.21004 1.44012 0
M  V30 15089 O 1412.59 -1.73415 0.528844 0
M  V30 15090 C 1412.64 -0.0461457 3.6057 0
M  V30 15091 O 1411.75 -1.09919 3.97481 0
M  V30 15092 H 1411.09 0.0690655 0.660398 0
M  V30 15093 H 1413.62 0.823434 1.87299 0
M  V30 15094 H 1413.63 -0.2479 4.07246 0
M  V30 15095 H 1412.3 0.904381 4.05948 0
M  V30 15096 H 1410.88 -0.874788 3.62494 0
M  V30 15097 N 1413.06 -1.53996 0.335095 0
M  V30 15098 C 1414.01 -2.24736 -0.52559 0
M  V30 15099 C 1414.98 -1.24244 -1.10239 0
M  V30 15100 O 1416.17 -1.52955 -1.14058 0
M  V30 15101 C 1413.31 -3.01732 -1.67487 0
M  V30 15102 C 1412.42 -4.17062 -1.1262 0
M  V30 15103 C 1411.55 -4.81563 -2.2421 0
M  V30 15104 C 1410.59 -5.88977 -1.6665 0
M  V30 15105 N 1409.73 -6.47293 -2.71949 0
M  V30 15106 H 1414.57 -2.97881 0.0842008 0
M  V30 15107 H 1412.11 -1.47003 0.0533254 0
M  V30 15108 H 1414.06 -3.44626 -2.35135 0
M  V30 15109 H 1412.69 -2.30899 -2.25578 0
M  V30 15110 H 1411.75 -3.78869 -0.340917 0
M  V30 15111 H 1413.06 -4.94346 -0.665113 0
M  V30 15112 H 1412.21 -5.27486 -2.9974 0
M  V30 15113 H 1410.95 -4.03685 -2.73659 0
M  V30 15114 H 1409.96 -5.42446 -0.89623 0
M  V30 15115 H 1411.18 -6.68758 -1.18064 0
M  V30 15116 H 1409.13 -5.72283 -3.20668 0
M  V30 15117 H 1409.04 -7.20024 -2.30438 0
M  V30 15118 H 1410.31 -6.97869 -3.47273 0
M  V30 15119 N 1414.54 -0.0635198 -1.57472 0
M  V30 15120 C 1415.47 0.90431 -2.15278 0
M  V30 15121 C 1416.45 1.31609 -1.07764 0
M  V30 15122 O 1417.64 1.38861 -1.35762 0
M  V30 15123 C 1414.77 2.17483 -2.70774 0
M  V30 15124 C 1413.72 1.90272 -3.8338 0
M  V30 15125 C 1413.05 3.23885 -4.25444 0
M  V30 15126 C 1414.35 1.21454 -5.07983 0
M  V30 15127 H 1416.04 0.422786 -2.964 0
M  V30 15128 H 1413.59 0.201918 -1.42577 0
M  V30 15129 H 1415.54 2.856 -3.09856 0
M  V30 15130 H 1414.26 2.67863 -1.86861 0
M  V30 15131 H 1412.92 1.24564 -3.44789 0
M  V30 15132 H 1412.57 3.72089 -3.38465 0
M  V30 15133 H 1412.27 3.06472 -5.01347 0
M  V30 15134 H 1413.8 3.93212 -4.67137 0
M  V30 15135 H 1415.21 1.79625 -5.44433 0
M  V30 15136 H 1413.61 1.14327 -5.89109 0
M  V30 15137 H 1414.68 0.19238 -4.84518 0
M  V30 15138 N 1416.02 1.56195 0.209972 0
M  V30 15139 C 1416.95 1.88389 1.28781 0
M  V30 15140 C 1417.93 0.742429 1.44661 0
M  V30 15141 O 1419.11 0.991955 1.60289 0
M  V30 15142 C 1416.24 2.10107 2.65655 0
M  V30 15143 C 1415.29 3.32804 2.66728 0
M  V30 15144 S 1416.12 4.88384 2.1964 0
M  V30 15145 C 1417.28 5.13151 3.58367 0
M  V30 15146 H 1417.51 2.79517 1.01281 0
M  V30 15147 H 1415.04 1.4878 0.412768 0
M  V30 15148 H 1417 2.23302 3.44451 0
M  V30 15149 H 1415.66 1.19756 2.90374 0
M  V30 15150 H 1414.85 3.4508 3.67336 0
M  V30 15151 H 1414.46 3.18525 1.96004 0
M  V30 15152 H 1416.75 5.02759 4.54136 0
M  V30 15153 H 1417.69 6.14985 3.50998 0
M  V30 15154 H 1418.1 4.4084 3.52591 0
M  V30 15155 N 1417.5 -0.477127 1.50204 0
M  V30 15156 C 1418.72 -1.25775 1.6491 0
M  V30 15157 C 1419.15 -1.85187 0.329765 0
M  V30 15158 O 1418.51 -1.67004 -0.705641 0
M  V30 15159 C 1418.55 -2.3466 2.73801 0
M  V30 15160 O 1417.66 -3.39147 2.34634 0
M  V30 15161 H 1417 -0.370291 0.551163 0
M  V30 15162 H 1419.53 -0.568514 1.96543 0
M  V30 15163 H 1419.54 -2.80065 2.96695 0
M  V30 15164 H 1418.21 -1.90788 3.69557 0
M  V30 15165 H 1416.79 -2.99496 2.22163 0
M  V30 15166 N 1418.98 -1.3968 -0.729882 0
M  V30 15167 C 1419.94 -1.38577 -1.82562 0
M  V30 15168 C 1420.94 -0.281994 -1.58308 0
M  V30 15169 O 1422.13 -0.540165 -1.65614 0
M  V30 15170 C 1419.26 -1.16343 -3.20433 0
M  V30 15171 H 1420.45 -2.36086 -1.84942 0
M  V30 15172 H 1418.01 -1.25319 -0.934063 0
M  V30 15173 H 1418.74 -0.195372 -3.23711 0
M  V30 15174 H 1418.53 -1.96282 -3.39435 0
M  V30 15175 H 1420.02 -1.18325 -4.00486 0
M  V30 15176 N 1420.45 0.960609 -1.2494 0
M  V30 15177 C 1421.42 2.03791 -1.04891 0
M  V30 15178 C 1422.42 1.608 -0.00375792 0
M  V30 15179 O 1423.61 1.72463 -0.24539 0
M  V30 15180 C 1420.74 3.35733 -0.591309 0
M  V30 15181 H 1421.93 2.2301 -2.00516 0
M  V30 15182 H 1419.49 1.13686 -1.07263 0
M  V30 15183 H 1420.22 3.22207 0.367816 0
M  V30 15184 H 1420.01 3.68283 -1.34574 0
M  V30 15185 H 1421.5 4.14921 -0.472283 0
M  V30 15186 N 1421.93 1.0643 1.16234 0
M  V30 15187 C 1423.18 0.77689 1.86138 0
M  V30 15188 C 1423.49 -0.699301 1.82672 0
M  V30 15189 O 1424.7 -1.10113 2.48168 0
M  V30 15190 C 1423.16 1.3396 3.3404 0
M  V30 15191 C 1422.76 2.84613 3.45976 0
M  V30 15192 C 1424.51 1.12979 4.09189 0
M  V30 15193 C 1422.42 3.34122 4.87972 0
M  V30 15194 H 1421.35 0.286936 0.697269 0
M  V30 15195 H 1424 1.28318 1.31174 0
M  V30 15196 H 1422.38 0.761073 3.88618 0
M  V30 15197 H 1423.55 3.48429 3.01552 0
M  V30 15198 H 1421.87 3.04277 2.84262 0
M  V30 15199 H 1424.46 1.47456 5.13966 0
M  V30 15200 H 1424.81 0.0682424 4.16244 0
M  V30 15201 H 1425.34 1.67418 3.60855 0
M  V30 15202 H 1422.08 4.39761 4.86097 0
M  V30 15203 H 1421.6 2.75055 5.33015 0
M  V30 15204 H 1423.28 3.29529 5.56794 0
M  V30 15205 N 1423.41 -1.329 0.847073 0
M  V30 15206 C 1424.36 -2.29044 0.284199 0
M  V30 15207 C 1425.33 -1.54706 -0.604591 0
M  V30 15208 O 1426.51 -1.82966 -0.541116 0
M  V30 15209 C 1423.65 -3.4104 -0.527822 0
M  V30 15210 C 1422.77 -4.30273 0.385907 0
M  V30 15211 C 1421.9 -5.29391 -0.438009 0
M  V30 15212 C 1420.94 -6.10265 0.473596 0
M  V30 15213 N 1420.08 -7.01403 -0.312684 0
M  V30 15214 H 1424.92 -2.76582 1.10935 0
M  V30 15215 H 1422.45 -1.36085 0.558508 0
M  V30 15216 H 1424.41 -4.04686 -1.01417 0
M  V30 15217 H 1423.04 -2.94673 -1.31787 0
M  V30 15218 H 1422.09 -3.67275 0.99061 0
M  V30 15219 H 1423.41 -4.86837 1.08585 0
M  V30 15220 H 1422.56 -5.98604 -0.987842 0
M  V30 15221 H 1421.3 -4.73424 -1.17135 0
M  V30 15222 H 1420.3 -5.39963 1.03537 0
M  V30 15223 H 1421.53 -6.68316 1.20543 0
M  V30 15224 H 1419.47 -6.47875 -1.02926 0
M  V30 15225 H 1419.39 -7.55286 0.328376 0
M  V30 15226 H 1420.66 -7.74912 -0.844489 0
M  V30 15227 N 1424.89 -0.604284 -1.45555 0
M  V30 15228 C 1426.17 -0.0303285 -1.95576 0
M  V30 15229 C 1426.55 1.43661 -1.54676 0
M  V30 15230 O 1425.89 2.13747 -0.807731 0
M  V30 15231 C 1426.1 -0.22497 -3.48274 0
M  V30 15232 C 1427.45 -0.104042 -4.24473 0
M  V30 15233 O 1428.48 -0.154919 -3.55863 0
M  V30 15234 O 1427.33 0.0136297 -5.46498 0
M  V30 15235 H 1424.43 0.0376106 -0.826144 0
M  V30 15236 H 1426.97 -0.674114 -1.55736 0
M  V30 15237 H 1425.75 -1.24391 -3.71002 0
M  V30 15238 H 1425.37 0.454234 -3.94997 0
M  V30 15239 N 1426.37 1.53816 -0.343257 0
M  V30 15240 C 1427.31 2.26505 0.529002 0
M  V30 15241 C 1428.31 1.28639 1.1022 0
M  V30 15242 O 1429.51 1.46348 1.04797 0
M  V30 15243 H 1425.89 0.727789 0.189279 0
M  V30 15244 H 1427.86 2.98211 -0.106096 0
M  V30 15245 C 1426.61 3.05062 1.6683 0
M  V30 15246 H 1425.93 3.80198 1.23651 0
M  V30 15247 H 1427.37 3.59138 2.2538 0
M  V30 15248 C 1425.83 2.14543 2.59756 0
M  V30 15249 O 1426.36 1.74132 3.61996 0
M  V30 15250 N 1424.57 1.79628 2.28434 0
M  V30 15251 H 1424.11 2.12688 1.45332 0
M  V30 15252 H 1424.07 1.19345 2.90868 0
M  V30 15253 N 1427.84 0.0718701 1.57436 0
M  V30 15254 C 1429.26 -0.28476 1.57039 0
M  V30 15255 C 1429.46 -1.70032 1.08127 0
M  V30 15256 O 1428.52 -2.41191 0.747189 0
M  V30 15257 C 1429.83 -0.0943482 3.00552 0
M  V30 15258 C 1431.38 -0.163879 3.12571 0
M  V30 15259 C 1431.85 -0.00174658 4.58 0
M  V30 15260 N 1433.34 -0.0573489 4.63164 0
M  V30 15261 C 1434.08 0.0436849 5.73383 0
M  V30 15262 N 1433.57 0.198243 6.92516 0
M  V30 15263 N 1435.37 -0.0133856 5.62098 0
M  V30 15264 H 1427.52 0.99702 1.87545 0
M  V30 15265 H 1429.78 0.388822 0.864593 0
M  V30 15266 H 1429.49 0.882445 3.40449 0
M  V30 15267 H 1429.36 -0.846636 3.67576 0
M  V30 15268 H 1431.75 -1.13116 2.7256 0
M  V30 15269 H 1431.83 0.619513 2.48185 0
M  V30 15270 H 1431.47 0.9623 4.98701 0
M  V30 15271 H 1431.4 -0.804543 5.20418 0
M  V30 15272 H 1433.89 -0.175212 3.77494 0
M  V30 15273 H 1434.21 0.267479 7.72337 0
M  V30 15274 H 1432.55 0.233606 6.94607 0
M  V30 15275 H 1435.74 -0.132835 4.67911 0
M  V30 15276 H 1435.92 0.0688076 6.47963 0
M  V30 15277 N 1429.32 -1.56304 -0.201686 0
M  V30 15278 C 1430.29 -1.93171 -1.2336 0
M  V30 15279 C 1431.29 -0.812164 -1.38782 0
M  V30 15280 O 1432.48 -1.07967 -1.36707 0
M  V30 15281 C 1429.61 -2.19997 -2.60411 0
M  V30 15282 H 1430.8 -2.85483 -0.918654 0
M  V30 15283 H 1428.35 -1.49893 -0.442935 0
M  V30 15284 H 1429.09 -1.30301 -2.96972 0
M  V30 15285 H 1428.87 -3.01574 -2.5059 0
M  V30 15286 H 1430.36 -2.49547 -3.34838 0
M  V30 15287 N 1430.8 0.469154 -1.50455 0
M  V30 15288 C 1432.05 1.2229 -1.6178 0
M  V30 15289 C 1432.38 1.91577 -0.318073 0
M  V30 15290 O 1431.65 1.82205 0.68057 0
M  V30 15291 C 1431.94 2.26504 -2.79943 0
M  V30 15292 C 1431.79 1.61509 -4.19804 0
M  V30 15293 C 1433.11 3.27796 -2.93662 0
M  V30 15294 H 1430.23 0.443241 -0.588817 0
M  V30 15295 H 1432.87 0.516431 -1.82847 0
M  V30 15296 H 1431.02 2.86757 -2.62112 0
M  V30 15297 H 1432.69 1.04838 -4.49229 0
M  V30 15298 H 1430.94 0.918162 -4.23972 0
M  V30 15299 H 1431.61 2.37248 -4.98415 0
M  V30 15300 H 1434.08 2.77568 -3.09992 0
M  V30 15301 H 1432.96 3.98041 -3.77961 0
M  V30 15302 H 1433.22 3.92033 -2.04359 0
M  V30 15303 N 1432.28 1.40065 0.722464 0
M  V30 15304 C 1433.23 1.36267 1.82798 0
M  V30 15305 C 1434.21 0.241375 1.59079 0
M  V30 15306 O 1435.4 0.479929 1.70369 0
M  V30 15307 C 1432.53 1.22086 3.20858 0
M  V30 15308 C 1431.62 2.38969 3.50364 0
M  V30 15309 N 1432.01 3.6445 3.50727 0
M  V30 15310 C 1430.31 2.32199 3.80788 0
M  V30 15311 C 1431.01 4.41816 3.78383 0
M  V30 15312 N 1429.99 3.71565 3.96787 0
M  V30 15313 H 1433.79 2.31236 1.81403 0
M  V30 15314 H 1431.3 1.33739 0.92128 0
M  V30 15315 H 1433.3 1.17448 4.00014 0
M  V30 15316 H 1431.96 0.280787 3.23484 0
M  V30 15317 H 1432.97 3.97705 3.3174 0
M  V30 15318 H 1429.65 1.46521 3.90945 0
M  V30 15319 H 1431.04 5.5064 3.85027 0
M  V30 15320 N 1433.76 -0.95397 1.25448 0
M  V30 15321 C 1434.72 -2.03231 1.0597 0
M  V30 15322 C 1435.72 -1.60795 0.0122855 0
M  V30 15323 O 1436.91 -1.7233 0.254533 0
M  V30 15324 C 1434.04 -3.35414 0.609105 0
M  V30 15325 H 1435.24 -2.21943 2.01696 0
M  V30 15326 H 1432.79 -1.13115 1.07864 0
M  V30 15327 H 1433.52 -3.22398 -0.350723 0
M  V30 15328 H 1433.31 -3.67564 1.36526 0
M  V30 15329 H 1434.8 -4.14664 0.49428 0
M  V30 15330 N 1435.24 -1.07045 -1.15668 0
M  V30 15331 C 1436.51 -0.704942 -1.82455 0
M  V30 15332 C 1436.89 0.812921 -1.9482 0
M  V30 15333 O 1436.24 1.72615 -1.49721 0
M  V30 15334 C 1436.45 -1.41574 -3.18995 0
M  V30 15335 C 1437.8 -1.56584 -3.94673 0
M  V30 15336 O 1438.82 -1.37626 -3.28538 0
M  V30 15337 O 1437.68 -1.87751 -5.13237 0
M  V30 15338 H 1434.78 -0.250469 -0.788159 0
M  V30 15339 H 1437.32 -1.17118 -1.22806 0
M  V30 15340 H 1436.09 -2.4504 -3.05075 0
M  V30 15341 H 1435.72 -0.940071 -3.86327 0
M  V30 15342 N 1436.71 1.32449 -0.85411 0
M  V30 15343 C 1437.65 2.26901 -0.243148 0
M  V30 15344 C 1438.62 1.50375 0.618558 0
M  V30 15345 O 1439.81 1.79501 0.575479 0
M  V30 15346 C 1436.94 3.32265 0.657108 0
M  V30 15347 C 1435.98 4.26298 -0.131141 0
M  V30 15348 S 1436.81 5.14086 -1.49919 0
M  V30 15349 C 1437.97 6.22973 -0.604632 0
M  V30 15350 H 1438.2 2.78373 -1.04384 0
M  V30 15351 H 1435.74 1.39972 -0.651712 0
M  V30 15352 H 1437.69 3.93447 1.17087 0
M  V30 15353 H 1436.36 2.79578 1.4316 0
M  V30 15354 H 1435.55 5.0094 0.55452 0
M  V30 15355 H 1435.15 3.69531 -0.576469 0
M  V30 15356 H 1437.44 6.7723 0.191348 0
M  V30 15357 H 1438.39 6.95656 -1.32168 0
M  V30 15358 H 1438.79 5.64215 -0.179215 0
M  V30 15359 N 1438.19 0.611994 1.45232 0
M  V30 15360 C 1439.44 0.108696 2.01807 0
M  V30 15361 C 1439.76 -1.26692 1.48237 0
M  V30 15362 O 1439.03 -1.8378 0.678368 0
M  V30 15363 H 1437.61 0.0371921 0.746074 0
M  V30 15364 H 1440.27 0.794386 1.77976 0
M  V30 15365 H 1439.37 0.0618207 3.12039 0
M  V30 15366 N 1439.67 -1.53632 0.351409 0
M  V30 15367 C 1440.9 -2.0516 -0.243498 0
M  V30 15368 C 1441.31 -1.22559 -1.44138 0
M  V30 15369 O 1440.65 -0.255726 -1.81911 0
M  V30 15370 C 1440.71 -3.52324 -0.71469 0
M  V30 15371 C 1440.38 -4.55543 0.364598 0
M  V30 15372 C 1441.37 -5.05626 1.20987 0
M  V30 15373 C 1439.06 -4.99593 0.520779 0
M  V30 15374 C 1441.05 -5.98347 2.1968 0
M  V30 15375 C 1438.74 -5.92123 1.51109 0
M  V30 15376 C 1439.74 -6.41389 2.34754 0
M  V30 15377 O 1439.43 -7.32097 3.32098 0
M  V30 15378 H 1439.16 -0.674193 -0.0493948 0
M  V30 15379 H 1441.71 -1.99123 0.503919 0
M  V30 15380 H 1439.94 -3.55852 -1.51348 0
M  V30 15381 H 1441.63 -3.86783 -1.23102 0
M  V30 15382 H 1442.4 -4.72353 1.10033 0
M  V30 15383 H 1438.28 -4.60843 -0.120466 0
M  V30 15384 H 1441.82 -6.36724 2.85005 0
M  V30 15385 H 1437.72 -6.24811 1.62116 0
M  V30 15386 H 1438.48 -7.50053 3.27662 0
M  V30 15387 N 1441.15 -0.0802183 -1.57396 0
M  V30 15388 C 1442.39 0.581779 -1.94902 0
M  V30 15389 C 1442.75 1.66708 -0.960532 0
M  V30 15390 O 1442.04 1.91593 0.0158677 0
M  V30 15391 C 1442.24 1.19551 -3.36812 0
M  V30 15392 C 1442.06 0.171196 -4.49374 0
M  V30 15393 C 1440.83 -0.247104 -5.04695 0
M  V30 15394 C 1443.03 -0.594852 -5.10848 0
M  V30 15395 N 1441.01 -1.26125 -6.00804 0
M  V30 15396 C 1442.39 -1.46124 -6.02535 0
M  V30 15397 C 1444.44 -0.65 -4.93639 0
M  V30 15398 C 1443.14 -2.37789 -6.78859 0
M  V30 15399 C 1445.17 -1.55419 -5.70613 0
M  V30 15400 C 1444.53 -2.40824 -6.61954 0
M  V30 15401 H 1440.63 0.183663 -0.760126 0
M  V30 15402 H 1443.21 -0.159324 -1.94047 0
M  V30 15403 H 1441.39 1.90651 -3.38389 0
M  V30 15404 H 1443.12 1.81867 -3.61534 0
M  V30 15405 H 1439.87 0.137694 -4.734 0
M  V30 15406 H 1440.3 -1.76608 -6.53558 0
M  V30 15407 H 1444.94 -0.00389787 -4.228 0
M  V30 15408 H 1442.66 -3.03431 -7.4897 0
M  V30 15409 H 1446.24 -1.60181 -5.59315 0
M  V30 15410 H 1445.12 -3.09654 -7.20475 0
M  V30 15411 N 1442.63 1.56409 0.193394 0
M  V30 15412 C 1443.87 1.79919 0.911712 0
M  V30 15413 C 1444.19 0.653729 1.84352 0
M  V30 15414 O 1445.39 0.773172 2.60258 0
M  V30 15415 C 1443.85 3.18726 1.67158 0
M  V30 15416 C 1443.46 4.41078 0.784512 0
M  V30 15417 C 1445.2 3.51544 2.37944 0
M  V30 15418 C 1443.11 5.70907 1.54335 0
M  V30 15419 H 1442.04 0.670864 0.344177 0
M  V30 15420 H 1444.69 1.82757 0.164967 0
M  V30 15421 H 1443.07 3.10142 2.46227 0
M  V30 15422 H 1444.25 4.60789 0.032356 0
M  V30 15423 H 1442.56 4.15978 0.187407 0
M  V30 15424 H 1445.16 4.45779 2.95271 0
M  V30 15425 H 1445.5 2.75369 3.12214 0
M  V30 15426 H 1446.03 3.61583 1.65839 0
M  V30 15427 H 1442.77 6.50052 0.843393 0
M  V30 15428 H 1442.29 5.5521 2.26939 0
M  V30 15429 H 1443.97 6.12085 2.09669 0
M  V30 15430 N 1444.1 -0.461169 1.50702 0
M  V30 15431 C 1445.01 -1.58355 1.73092 0
M  V30 15432 C 1446.03 -1.62795 0.61431 0
M  V30 15433 O 1447.21 -1.8048 0.893806 0
M  V30 15434 C 1444.27 -2.94509 1.82936 0
M  V30 15435 C 1443.33 -3.00378 3.06711 0
M  V30 15436 C 1442.56 -4.30037 3.16076 0
M  V30 15437 O 1442.79 -5.21097 2.31978 0
M  V30 15438 O 1441.72 -4.41702 4.08881 0
M  V30 15439 H 1445.55 -1.42384 2.68255 0
M  V30 15440 H 1443.13 -0.641709 1.34916 0
M  V30 15441 H 1445.01 -3.75357 1.91534 0
M  V30 15442 H 1443.69 -3.10658 0.909581 0
M  V30 15443 H 1442.6 -2.18571 3.03608 0
M  V30 15444 H 1443.93 -2.89167 3.983 0
M  V30 15445 N 1445.58 -1.40446 -0.715026 0
M  V30 15446 C 1446.81 -1.42263 -1.50917 0
M  V30 15447 C 1447.23 -0.0242402 -1.88084 0
M  V30 15448 O 1446.59 0.967817 -1.53307 0
M  V30 15449 C 1446.64 -2.31998 -2.7606 0
M  V30 15450 O 1445.74 -1.76361 -3.72787 0
M  V30 15451 H 1445.08 -0.483614 -0.454988 0
M  V30 15452 H 1447.61 -1.84682 -0.880549 0
M  V30 15453 H 1447.62 -2.47204 -3.24583 0
M  V30 15454 H 1446.3 -3.33614 -2.48343 0
M  V30 15455 H 1444.87 -1.70504 -3.31636 0
M  V30 15456 N 1447.06 0.947303 -1.25952 0
M  V30 15457 C 1448.02 2.02667 -1.07046 0
M  V30 15458 C 1449.02 1.60787 -0.0208127 0
M  V30 15459 O 1450.21 1.72193 -0.263668 0
M  V30 15460 C 1447.34 3.35087 -0.626885 0
M  V30 15461 H 1448.54 2.20871 -2.0287 0
M  V30 15462 H 1446.09 1.12541 -1.08462 0
M  V30 15463 H 1446.83 3.22579 0.333621 0
M  V30 15464 H 1446.61 3.66835 -1.38473 0
M  V30 15465 H 1448.1 4.14397 -0.516264 0
M  V30 15466 N 1448.54 1.07657 1.15099 0
M  V30 15467 C 1449.47 0.721201 2.22083 0
M  V30 15468 C 1450.45 -0.292808 1.67561 0
M  V30 15469 O 1451.63 -0.164872 1.93499 0
M  V30 15470 C 1448.76 0.12153 3.47087 0
M  V30 15471 C 1447.72 1.06303 4.14588 0
M  V30 15472 C 1447.04 0.325964 5.33706 0
M  V30 15473 C 1448.34 2.39796 4.63999 0
M  V30 15474 H 1450.04 1.61566 2.52065 0
M  V30 15475 H 1447.58 0.778282 1.21156 0
M  V30 15476 H 1449.54 -0.139037 4.21171 0
M  V30 15477 H 1448.26 -0.808022 3.16447 0
M  V30 15478 H 1446.92 1.30858 3.4245 0
M  V30 15479 H 1446.57 -0.607147 4.99322 0
M  V30 15480 H 1446.27 0.953552 5.79811 0
M  V30 15481 H 1447.79 0.0732695 6.10556 0
M  V30 15482 H 1449.21 2.19552 5.29594 0
M  V30 15483 H 1447.6 2.98178 5.20778 0
M  V30 15484 H 1448.67 3.01876 3.79472 0
M  V30 15485 N 1450.02 -1.31994 0.861122 0
M  V30 15486 C 1450.96 -2.30666 0.299352 0
M  V30 15487 C 1451.96 -1.59133 -0.580779 0
M  V30 15488 O 1453.16 -1.73813 -0.467864 0
M  V30 15489 H 1449.54 -0.747932 0.0781091 0
M  V30 15490 H 1451.51 -2.7553 1.14567 0
M  V30 15491 C 1450.26 -3.44203 -0.491883 0
M  V30 15492 H 1449.58 -3.99412 0.17608 0
M  V30 15493 H 1451.02 -4.15384 -0.850434 0
M  V30 15494 C 1449.48 -2.92042 -1.67967 0
M  V30 15495 O 1450.01 -2.90073 -2.77886 0
M  V30 15496 N 1448.22 -2.48358 -1.50887 0
M  V30 15497 H 1447.76 -2.50159 -0.614683 0
M  V30 15498 H 1447.72 -2.13813 -2.30503 0
M  V30 15499 N 1451.49 -0.619688 -1.44906 0
M  V30 15500 C 1452.77 -0.0510703 -1.95533 0
M  V30 15501 C 1453.15 1.42013 -1.56191 0
M  V30 15502 O 1452.5 2.12879 -0.830356 0
M  V30 15503 C 1452.71 -0.261896 -3.48016 0
M  V30 15504 C 1454.06 -0.149057 -4.24338 0
M  V30 15505 O 1455.08 -0.192655 -3.55679 0
M  V30 15506 O 1453.94 -0.0443345 -5.46482 0
M  V30 15507 H 1451.03 0.0288461 -0.826497 0
M  V30 15508 H 1453.58 -0.690594 -1.55013 0
M  V30 15509 H 1452.35 -1.28319 -3.69662 0
M  V30 15510 H 1451.98 0.412314 -3.95456 0
M  V30 15511 N 1452.97 1.53444 -0.359552 0
M  V30 15512 C 1454.2 2.05584 0.232953 0
M  V30 15513 C 1454.62 1.23347 1.42937 0
M  V30 15514 O 1453.97 0.272662 1.80452 0
M  V30 15515 C 1454.02 3.55926 0.632359 0
M  V30 15516 O 1453.74 4.35045 -0.516494 0
M  V30 15517 C 1455.25 4.24301 1.28389 0
M  V30 15518 H 1452.47 0.669676 0.042132 0
M  V30 15519 H 1455.01 1.97878 -0.516176 0
M  V30 15520 H 1453.16 3.63802 1.33141 0
M  V30 15521 H 1453.58 5.24138 -0.194906 0
M  V30 15522 H 1455.05 5.30832 1.51397 0
M  V30 15523 H 1455.53 3.77644 2.24236 0
M  V30 15524 H 1456.14 4.20661 0.626438 0
M  V30 15525 N 1454.45 0.0885642 1.57351 0
M  V30 15526 C 1455.7 -0.571435 1.95208 0
M  V30 15527 C 1456.05 -1.66196 0.96936 0
M  V30 15528 O 1455.34 -1.91599 -0.00570677 0
M  V30 15529 C 1455.54 -1.17764 3.37441 0
M  V30 15530 C 1455.37 -0.147362 4.49458 0
M  V30 15531 C 1454.14 0.273866 5.04557 0
M  V30 15532 C 1456.34 0.621935 5.10526 0
M  V30 15533 N 1454.32 1.29309 6.00127 0
M  V30 15534 C 1455.69 1.49317 6.01751 0
M  V30 15535 C 1457.74 0.676169 4.93287 0
M  V30 15536 C 1456.45 2.41386 6.77588 0
M  V30 15537 C 1458.47 1.58443 5.6978 0
M  V30 15538 C 1457.83 2.44331 6.60668 0
M  V30 15539 H 1453.93 -0.179629 0.76109 0
M  V30 15540 H 1456.52 0.169612 1.9396 0
M  V30 15541 H 1454.69 -1.88853 3.39395 0
M  V30 15542 H 1456.42 -1.79947 3.62493 0
M  V30 15543 H 1453.18 -0.112587 4.73466 0
M  V30 15544 H 1453.6 1.80072 6.52613 0
M  V30 15545 H 1458.24 0.0263199 4.22792 0
M  V30 15546 H 1455.96 3.07399 7.4735 0
M  V30 15547 H 1459.55 1.63145 5.58458 0
M  V30 15548 H 1458.43 3.1347 7.18823 0
M  V30 15549 N 1455.93 -1.56509 -0.185096 0
M  V30 15550 C 1456.88 -1.95336 -1.22934 0
M  V30 15551 C 1457.85 -0.81532 -1.44713 0
M  V30 15552 O 1459.03 -1.07431 -1.57681 0
M  V30 15553 C 1456.17 -2.30671 -2.56681 0
M  V30 15554 C 1455.28 -3.57586 -2.42397 0
M  V30 15555 C 1454.42 -3.82197 -3.68916 0
M  V30 15556 C 1453.46 -5.02505 -3.49507 0
M  V30 15557 N 1452.59 -5.23319 -4.68062 0
M  V30 15558 H 1457.43 -2.84361 -0.89123 0
M  V30 15559 H 1454.97 -1.40715 -0.428689 0
M  V30 15560 H 1456.93 -2.49176 -3.34615 0
M  V30 15561 H 1455.56 -1.44773 -2.88514 0
M  V30 15562 H 1454.61 -3.47072 -1.55709 0
M  V30 15563 H 1455.92 -4.45677 -2.23994 0
M  V30 15564 H 1455.08 -4.00996 -4.55288 0
M  V30 15565 H 1453.82 -2.92455 -3.90284 0
M  V30 15566 H 1452.82 -4.83619 -2.6152 0
M  V30 15567 H 1454.05 -5.93765 -3.29574 0
M  V30 15568 H 1451.99 -4.36526 -4.89674 0
M  V30 15569 H 1451.91 -6.05608 -4.52521 0
M  V30 15570 H 1453.18 -5.46585 -5.55757 0
M  V30 15571 N 1457.41 0.45317 -1.50944 0
M  V30 15572 C 1458.66 1.20076 -1.62064 0
M  V30 15573 C 1458.97 1.92709 -0.335034 0
M  V30 15574 O 1460.17 2.69543 -0.32538 0
M  V30 15575 C 1458.63 2.18283 -2.86148 0
M  V30 15576 C 1458.24 1.5137 -4.21653 0
M  V30 15577 C 1459.98 2.93572 -3.0662 0
M  V30 15578 C 1457.89 2.47968 -5.36904 0
M  V30 15579 H 1456.82 0.451894 -0.603579 0
M  V30 15580 H 1459.47 0.46937 -1.77396 0
M  V30 15581 H 1457.85 2.94789 -2.64415 0
M  V30 15582 H 1459.03 0.805295 -4.53709 0
M  V30 15583 H 1457.34 0.882935 -4.06931 0
M  V30 15584 H 1459.94 3.65903 -3.89897 0
M  V30 15585 H 1460.28 3.54003 -2.1906 0
M  V30 15586 H 1460.81 2.24175 -3.28619 0
M  V30 15587 H 1457.55 1.92249 -6.26674 0
M  V30 15588 H 1457.07 3.16907 -5.09244 0
M  V30 15589 H 1458.75 3.09428 -5.6821 0
M  V30 15590 N 1458.88 1.40823 0.707568 0
M  V30 15591 C 1459.79 1.44058 1.85161 0
M  V30 15592 C 1460.81 0.332357 1.70796 0
M  V30 15593 O 1461.99 0.578205 1.92922 0
M  V30 15594 C 1459.05 1.3091 3.21035 0
M  V30 15595 C 1458.11 2.51944 3.47595 0
M  V30 15596 C 1457.35 2.39414 4.76987 0
M  V30 15597 O 1457.57 1.41224 5.52641 0
M  V30 15598 O 1456.5 3.28944 5.04063 0
M  V30 15599 H 1460.33 2.40551 1.85388 0
M  V30 15600 H 1457.91 1.22232 0.859052 0
M  V30 15601 H 1459.8 1.25816 4.02179 0
M  V30 15602 H 1458.47 0.375263 3.21517 0
M  V30 15603 H 1457.38 2.62615 2.66428 0
M  V30 15604 H 1458.71 3.44115 3.51917 0
M  V30 15605 N 1460.36 -0.94061 1.26453 0
M  V30 15606 C 1461.31 -2.03941 1.08059 0
M  V30 15607 C 1462.28 -1.66094 -0.0145388 0
M  V30 15608 O 1463.46 -1.90246 0.145338 0
M  V30 15609 C 1460.6 -3.37501 0.720228 0
M  V30 15610 C 1459.72 -3.88381 1.89167 0
M  V30 15611 C 1458.85 -5.10329 1.47437 0
M  V30 15612 C 1457.89 -5.53473 2.61408 0
M  V30 15613 N 1457.03 -6.66624 2.20355 0
M  V30 15614 H 1461.87 -2.19006 2.0209 0
M  V30 15615 H 1459.41 -1.07305 1.00618 0
M  V30 15616 H 1461.36 -4.14287 0.492177 0
M  V30 15617 H 1459.99 -3.2228 -0.183101 0
M  V30 15618 H 1459.05 -3.0799 2.23264 0
M  V30 15619 H 1460.36 -4.16338 2.74708 0
M  V30 15620 H 1459.51 -5.94577 1.20679 0
M  V30 15621 H 1458.25 -4.8412 0.589873 0
M  V30 15622 H 1457.26 -4.67782 2.88894 0
M  V30 15623 H 1458.48 -5.81684 3.50458 0
M  V30 15624 H 1456.43 -6.42097 1.34341 0
M  V30 15625 H 1456.34 -6.9417 2.99439 0
M  V30 15626 H 1457.61 -7.54245 1.96811 0
M  V30 15627 N 1461.84 -1.08266 -1.14527 0
M  V30 15628 C 1462.8 -0.715117 -2.17758 0
M  V30 15629 C 1463.8 0.24935 -1.58855 0
M  V30 15630 O 1464.99 0.0290846 -1.74176 0
M  V30 15631 C 1462.13 -0.055575 -3.40855 0
M  V30 15632 H 1463.32 -1.62921 -2.51787 0
M  V30 15633 H 1460.87 -0.880346 -1.2915 0
M  V30 15634 H 1461.61 0.870312 -3.12404 0
M  V30 15635 H 1461.39 -0.749382 -3.84872 0
M  V30 15636 H 1462.88 0.186592 -4.17183 0
M  V30 15637 N 1463.32 1.31536 -0.86811 0
M  V30 15638 C 1464.54 2.01487 -0.491705 0
M  V30 15639 C 1464.97 1.64744 0.907803 0
M  V30 15640 O 1464.33 0.855093 1.59868 0
M  V30 15641 C 1464.38 3.54621 -0.65395 0
M  V30 15642 O 1463.48 4.11252 0.307532 0
M  V30 15643 H 1462.82 0.634469 -0.195819 0
M  V30 15644 H 1465.35 1.67775 -1.17101 0
M  V30 15645 H 1465.36 4.04323 -0.546539 0
M  V30 15646 H 1464.04 3.80704 -1.67443 0
M  V30 15647 H 1462.61 3.72577 0.155233 0
M  V30 15648 N 1464.8 0.627364 1.44575 0
M  V30 15649 C 1466.04 0.130352 2.0208 0
M  V30 15650 C 1466.37 -1.24642 1.49314 0
M  V30 15651 O 1465.63 -1.84022 0.665923 0
M  V30 15652 C 1465.93 0.0622409 3.57346 0
M  V30 15653 C 1465.59 1.37729 4.2935 0
M  V30 15654 C 1464.25 1.73747 4.48737 0
M  V30 15655 C 1466.61 2.2455 4.70347 0
M  V30 15656 C 1463.93 2.96301 5.06382 0
M  V30 15657 C 1466.29 3.46371 5.29349 0
M  V30 15658 C 1464.95 3.82616 5.46956 0
M  V30 15659 H 1464.22 0.0476991 0.739463 0
M  V30 15660 H 1466.87 0.812928 1.73389 0
M  V30 15661 H 1465.17 -0.70369 3.85429 0
M  V30 15662 H 1466.87 -0.338778 3.99566 0
M  V30 15663 H 1463.46 1.08699 4.14587 0
M  V30 15664 H 1467.64 1.98019 4.55085 0
M  V30 15665 H 1462.9 3.24465 5.18201 0
M  V30 15666 H 1467.07 4.13882 5.60067 0
M  V30 15667 H 1464.7 4.77663 5.9139 0
M  V30 15668 N 1466.28 -1.53251 0.367684 0
M  V30 15669 C 1467.52 -2.00469 -0.222481 0
M  V30 15670 C 1467.84 -1.259 -1.49695 0
M  V30 15671 O 1469.04 -1.63717 -2.16585 0
M  V30 15672 C 1467.5 -3.57113 -0.447018 0
M  V30 15673 C 1467.11 -4.40562 0.812946 0
M  V30 15674 C 1468.85 -4.12681 -0.994725 0
M  V30 15675 C 1466.76 -5.88763 0.557877 0
M  V30 15676 H 1465.69 -0.748974 -0.0869144 0
M  V30 15677 H 1468.34 -1.76927 0.48675 0
M  V30 15678 H 1466.72 -3.76818 -1.21756 0
M  V30 15679 H 1467.9 -4.3263 1.58644 0
M  V30 15680 H 1466.21 -3.96108 1.28403 0
M  V30 15681 H 1468.81 -5.2104 -1.20091 0
M  V30 15682 H 1469.15 -3.67408 -1.95748 0
M  V30 15683 H 1469.68 -3.96783 -0.284295 0
M  V30 15684 H 1466.42 -6.38317 1.49102 0
M  V30 15685 H 1465.94 -5.99539 -0.177082 0
M  V30 15686 H 1467.62 -6.46738 0.18419 0
M  V30 15687 N 1467.75 -0.0969077 -1.57302 0
M  V30 15688 C 1468.66 0.875561 -2.17649 0
M  V30 15689 C 1469.68 1.30892 -1.14645 0
M  V30 15690 O 1470.86 1.37646 -1.47022 0
M  V30 15691 C 1467.92 2.116 -2.74639 0
M  V30 15692 C 1466.98 1.73667 -3.92604 0
M  V30 15693 C 1466.21 2.91798 -4.46867 0
M  V30 15694 O 1466.44 4.06577 -4.00064 0
M  V30 15695 O 1465.37 2.70159 -5.37864 0
M  V30 15696 H 1469.2 0.392107 -3.01158 0
M  V30 15697 H 1466.78 0.127539 -1.48855 0
M  V30 15698 H 1468.66 2.84292 -3.11057 0
M  V30 15699 H 1467.34 2.58994 -1.94174 0
M  V30 15700 H 1466.25 0.981505 -3.60995 0
M  V30 15701 H 1467.58 1.31035 -4.74437 0
M  V30 15702 N 1469.23 1.56605 0.176793 0
M  V30 15703 C 1470.48 1.81952 0.895627 0
M  V30 15704 C 1470.81 0.673893 1.82133 0
M  V30 15705 O 1470.09 -0.324494 1.91774 0
M  V30 15706 C 1470.37 3.17658 1.69604 0
M  V30 15707 C 1470.22 4.4274 0.793834 0
M  V30 15708 C 1471.54 3.50246 2.66488 0
M  V30 15709 H 1468.66 0.661884 0.324159 0
M  V30 15710 H 1471.3 1.89307 0.162092 0
M  V30 15711 H 1469.45 3.11518 2.3214 0
M  V30 15712 H 1471.12 4.60942 0.181775 0
M  V30 15713 H 1469.37 4.33681 0.101566 0
M  V30 15714 H 1470.04 5.34231 1.38927 0
M  V30 15715 H 1472.51 3.56804 2.1408 0
M  V30 15716 H 1471.39 4.46286 3.19562 0
M  V30 15717 H 1471.65 2.7467 3.46423 0
M  V30 15718 N 1470.71 -0.445159 1.51182 0
M  V30 15719 C 1471.66 -1.53975 1.71931 0
M  V30 15720 C 1472.63 -1.56344 0.560865 0
M  V30 15721 O 1473.81 -1.73475 0.794414 0
M  V30 15722 C 1470.95 -2.91756 1.84316 0
M  V30 15723 C 1470.06 -2.98976 3.11829 0
M  V30 15724 C 1469.2 -4.27831 3.14855 0
M  V30 15725 C 1468.24 -4.2889 4.36715 0
M  V30 15726 N 1467.38 -5.49257 4.37334 0
M  V30 15727 H 1472.22 -1.35586 2.65368 0
M  V30 15728 H 1469.75 -0.658787 1.31523 0
M  V30 15729 H 1471.71 -3.7169 1.89479 0
M  V30 15730 H 1470.34 -3.08721 0.942947 0
M  V30 15731 H 1469.39 -2.11753 3.16014 0
M  V30 15732 H 1470.7 -2.95619 4.01759 0
M  V30 15733 H 1469.86 -5.16134 3.1889 0
M  V30 15734 H 1468.6 -4.33833 2.228 0
M  V30 15735 H 1467.6 -3.38982 4.32864 0
M  V30 15736 H 1468.83 -4.24558 5.30026 0
M  V30 15737 H 1466.77 -5.55995 3.48145 0
M  V30 15738 H 1466.69 -5.47748 5.21064 0
M  V30 15739 H 1467.96 -6.39613 4.45551 0
M  V30 15740 N 1472.19 -1.41197 -0.700089 0
M  V30 15741 C 1473.41 -1.43856 -1.494 0
M  V30 15742 C 1473.84 -0.0441877 -1.88048 0
M  V30 15743 O 1473.2 0.951503 -1.54325 0
M  V30 15744 C 1473.24 -2.34913 -2.73584 0
M  V30 15745 O 1472.35 -1.80305 -3.70896 0
M  V30 15746 H 1471.69 -0.488412 -0.449833 0
M  V30 15747 H 1474.22 -1.85606 -0.860911 0
M  V30 15748 H 1474.23 -2.50633 -3.21943 0
M  V30 15749 H 1472.9 -3.36229 -2.44791 0
M  V30 15750 H 1471.48 -1.74012 -3.29809 0
M  V30 15751 N 1473.67 0.933891 -1.2695 0
M  V30 15752 C 1474.91 1.69554 -1.14153 0
M  V30 15753 C 1475.27 1.89503 0.308639 0
M  V30 15754 O 1476.47 2.62925 0.558894 0
M  V30 15755 C 1474.74 3.02894 -1.8971 0
M  V30 15756 S 1476.3 3.94051 -1.93053 0
M  V30 15757 H 1473.12 0.582546 -0.407629 0
M  V30 15758 H 1475.72 1.11233 -1.60772 0
M  V30 15759 H 1474.42 2.86061 -2.94274 0
M  V30 15760 H 1473.96 3.6627 -1.43561 0
M  V30 15761 H 1475.97 4.85551 -1.02249 0
M  V30 15762 N 1475.14 1.08871 1.13951 0
M  V30 15763 C 1476.09 0.692507 2.17229 0
M  V30 15764 C 1477.08 -0.290264 1.5826 0
M  V30 15765 O 1478.27 -0.101531 1.76709 0
M  V30 15766 C 1475.4 0.108487 3.43129 0
M  V30 15767 C 1474.48 1.11733 4.09117 0
M  V30 15768 N 1474.88 2.30244 4.50357 0
M  V30 15769 C 1473.17 0.954172 4.35674 0
M  V30 15770 C 1473.87 2.94373 5.01716 0
M  V30 15771 N 1472.85 2.2196 4.96221 0
M  V30 15772 H 1476.65 1.59489 2.46861 0
M  V30 15773 H 1474.17 0.964113 1.30685 0
M  V30 15774 H 1476.16 -0.193345 4.16451 0
M  V30 15775 H 1474.82 -0.78882 3.14973 0
M  V30 15776 H 1475.83 2.67871 4.43244 0
M  V30 15777 H 1472.51 0.111069 4.17352 0
M  V30 15778 H 1473.9 3.95089 5.43465 0
M  V30 15779 N 1476.62 -1.31073 0.875073 0
M  V30 15780 C 1477.87 -1.97194 0.498612 0
M  V30 15781 C 1478.22 -1.67884 -0.939819 0
M  V30 15782 O 1477.52 -0.967708 -1.65366 0
M  V30 15783 C 1477.71 -3.50511 0.698351 0
M  V30 15784 C 1477.54 -3.94722 2.15465 0
M  V30 15785 C 1476.31 -4.2081 2.79726 0
M  V30 15786 C 1478.51 -4.08283 3.12745 0
M  V30 15787 N 1476.49 -4.51411 4.16055 0
M  V30 15788 C 1477.86 -4.42653 4.34117 0
M  V30 15789 C 1479.91 -3.90678 3.08667 0
M  V30 15790 C 1478.62 -4.61255 5.51939 0
M  V30 15791 C 1480.64 -4.10476 4.25751 0
M  V30 15792 C 1480.01 -4.45182 5.45887 0
M  V30 15793 H 1476.1 -0.74692 0.231592 0
M  V30 15794 H 1478.69 -1.585 1.13074 0
M  V30 15795 H 1476.86 -3.88282 0.0957804 0
M  V30 15796 H 1478.59 -4.03661 0.289771 0
M  V30 15797 H 1475.35 -4.13641 2.30648 0
M  V30 15798 H 1475.77 -4.70862 4.86434 0
M  V30 15799 H 1480.41 -3.6293 2.16892 0
M  V30 15800 H 1478.13 -4.8785 6.44227 0
M  V30 15801 H 1481.72 -3.98334 4.24054 0
M  V30 15802 H 1480.6 -4.60189 6.34977 0
M  V30 15803 N 1478.1 -0.635022 -1.4424 0
M  V30 15804 C 1479.51 -0.222982 -1.85364 0
M  V30 15805 C 1479.86 1.22648 -1.5314 0
M  V30 15806 O 1478.99 1.93373 -0.971384 0
M  V30 15807 C 1479.58 -0.397912 -3.36455 0
M  V30 15808 C 1478.14 -0.0403458 -3.76378 0
M  V30 15809 C 1477.29 -0.709451 -2.68071 0
M  V30 15810 H 1480.24 -0.839923 -1.34651 0
M  V30 15811 H 1480.26 0.361996 -3.78774 0
M  V30 15812 H 1479.77 -1.45294 -3.59877 0
M  V30 15813 H 1477.87 1.01279 -3.58571 0
M  V30 15814 H 1477.99 -0.453121 -4.76952 0
M  V30 15815 H 1476.35 -0.144386 -2.5429 0
M  V30 15816 H 1477.13 -1.76715 -2.94324 0
M  V30 15817 N 1479.58 1.53054 -0.375806 0
M  V30 15818 C 1480.53 2.2605 0.46582 0
M  V30 15819 C 1481.5 1.27123 1.06906 0
M  V30 15820 O 1482.68 1.55926 1.09963 0
M  V30 15821 C 1479.82 3.06066 1.59429 0
M  V30 15822 C 1478.93 4.19901 1.01523 0
M  V30 15823 C 1478.07 4.87339 2.11363 0
M  V30 15824 C 1477.11 5.93189 1.50976 0
M  V30 15825 N 1476.24 6.54276 2.54692 0
M  V30 15826 H 1481.08 2.97553 -0.163149 0
M  V30 15827 H 1478.62 1.4681 -0.092282 0
M  V30 15828 H 1480.58 3.50739 2.25915 0
M  V30 15829 H 1479.21 2.36799 2.19377 0
M  V30 15830 H 1478.26 3.7964 0.240346 0
M  V30 15831 H 1479.57 4.95935 0.533812 0
M  V30 15832 H 1478.73 5.35247 2.85649 0
M  V30 15833 H 1477.47 4.10799 2.6286 0
M  V30 15834 H 1476.47 5.44632 0.752095 0
M  V30 15835 H 1477.7 6.71654 1.00291 0
M  V30 15836 H 1475.64 5.80584 3.05383 0
M  V30 15837 H 1475.56 7.2588 2.11267 0
M  V30 15838 H 1476.83 7.06831 3.28648 0
M  V30 15839 N 1481.06 0.105248 1.57248 0
M  V30 15840 C 1482.28 -0.567515 1.99484 0
M  V30 15841 C 1482.71 -1.60298 0.984182 0
M  V30 15842 O 1482.06 -1.81242 -0.0459944 0
M  V30 15843 C 1482.11 -1.18271 3.40653 0
M  V30 15844 O 1481.22 -2.29843 3.42412 0
M  V30 15845 H 1480.56 -0.143069 0.648404 0
M  V30 15846 H 1483.09 0.189661 2.03719 0
M  V30 15847 H 1483.1 -1.52157 3.78566 0
M  V30 15848 H 1481.77 -0.424179 4.13731 0
M  V30 15849 H 1480.35 -1.975 3.16304 0
M  V30 15850 N 1482.53 -1.56697 -0.168486 0
M  V30 15851 C 1483.48 -1.93039 -1.21325 0
M  V30 15852 C 1484.47 -0.799039 -1.39657 0
M  V30 15853 O 1485.66 -1.06226 -1.41581 0
M  V30 15854 C 1482.79 -2.29622 -2.55203 0
M  V30 15855 C 1481.88 -3.49278 -2.40553 0
M  V30 15856 N 1482.27 -4.6644 -1.95622 0
M  V30 15857 C 1480.56 -3.53941 -2.71371 0
M  V30 15858 C 1481.27 -5.48572 -1.93502 0
M  V30 15859 N 1480.24 -4.89693 -2.36012 0
M  V30 15860 H 1484.04 -2.81109 -0.857611 0
M  V30 15861 H 1481.56 -1.5797 -0.376734 0
M  V30 15862 H 1483.55 -2.53854 -3.30702 0
M  V30 15863 H 1482.21 -1.42893 -2.91568 0
M  V30 15864 H 1483.23 -4.90604 -1.65916 0
M  V30 15865 H 1479.9 -2.77697 -3.11754 0
M  V30 15866 H 1481.29 -6.52464 -1.60438 0
M  V30 15867 N 1484.01 0.437135 -1.51416 0
M  V30 15868 C 1485.24 1.20898 -1.67903 0
M  V30 15869 C 1485.66 1.85009 -0.376458 0
M  V30 15870 O 1485.01 1.7072 0.645051 0
M  V30 15871 C 1485.06 2.29286 -2.79482 0
M  V30 15872 O 1484.78 1.67798 -4.04692 0
M  V30 15873 C 1486.29 3.19561 -3.07238 0
M  V30 15874 H 1483.51 0.364381 -0.563442 0
M  V30 15875 H 1486.05 0.517931 -1.97833 0
M  V30 15876 H 1484.2 2.94107 -2.5215 0
M  V30 15877 H 1484.62 2.39433 -4.6666 0
M  V30 15878 H 1486.09 3.91748 -3.88893 0
M  V30 15879 H 1486.57 3.80327 -2.19654 0
M  V30 15880 H 1487.18 2.60441 -3.3623 0
M  V30 15881 N 1485.49 1.41566 0.692592 0
M  V30 15882 C 1486.42 1.46423 1.81886 0
M  V30 15883 C 1487.4 0.32258 1.67013 0
M  V30 15884 O 1488.59 0.534437 1.86701 0
M  V30 15885 C 1485.72 1.3486 3.20047 0
M  V30 15886 C 1484.67 2.46867 3.49629 0
M  V30 15887 C 1484 2.20369 4.87177 0
M  V30 15888 C 1485.3 3.89205 3.48306 0
M  V30 15889 H 1486.99 2.40683 1.78079 0
M  V30 15890 H 1484.54 1.15845 0.855334 0
M  V30 15891 H 1486.49 1.36869 3.98553 0
M  V30 15892 H 1485.21 0.370859 3.24488 0
M  V30 15893 H 1483.87 2.44146 2.73475 0
M  V30 15894 H 1483.52 1.20931 4.88247 0
M  V30 15895 H 1483.22 2.95426 5.07934 0
M  V30 15896 H 1484.74 2.24099 5.6799 0
M  V30 15897 H 1486.16 3.93626 4.16811 0
M  V30 15898 H 1484.56 4.63969 3.80595 0
M  V30 15899 H 1485.63 4.17144 2.47222 0
M  V30 15900 N 1486.97 -0.927146 1.27443 0
M  V30 15901 C 1488.21 -1.67775 1.14991 0
M  V30 15902 C 1488.57 -1.90029 -0.301107 0
M  V30 15903 O 1487.86 -1.47997 -1.21686 0
M  V30 15904 C 1488.06 -3.0472 1.86764 0
M  V30 15905 C 1487.89 -2.95829 3.38696 0
M  V30 15906 C 1486.66 -2.9808 4.08015 0
M  V30 15907 C 1488.85 -2.74905 4.34663 0
M  V30 15908 N 1486.84 -2.79636 5.46513 0
M  V30 15909 C 1488.21 -2.65172 5.60432 0
M  V30 15910 C 1490.26 -2.59797 4.24747 0
M  V30 15911 C 1488.96 -2.41872 6.77415 0
M  V30 15912 C 1490.99 -2.37874 5.41452 0
M  V30 15913 C 1490.35 -2.28884 6.66177 0
M  V30 15914 H 1486.45 -0.620709 0.475651 0
M  V30 15915 H 1489.04 -1.09605 1.60919 0
M  V30 15916 H 1487.21 -3.61002 1.43291 0
M  V30 15917 H 1488.94 -3.68722 1.66812 0
M  V30 15918 H 1485.69 -3.08329 3.59486 0
M  V30 15919 H 1486.12 -2.73544 6.19276 0
M  V30 15920 H 1490.76 -2.65506 3.29039 0
M  V30 15921 H 1488.48 -2.34903 7.73205 0
M  V30 15922 H 1492.06 -2.27069 5.35659 0
M  V30 15923 H 1490.94 -2.12149 7.54959 0
M  V30 15924 N 1488.45 -1.09474 -1.13372 0
M  V30 15925 C 1489.67 -0.853093 -1.89043 0
M  V30 15926 C 1490.1 0.590075 -1.78605 0
M  V30 15927 O 1489.45 1.41462 -1.13394 0
M  V30 15928 C 1489.5 -1.29359 -3.36599 0
M  V30 15929 O 1488.61 -0.452355 -4.09912 0
M  V30 15930 H 1487.95 -0.308922 -0.587761 0
M  V30 15931 H 1490.48 -1.459 -1.43437 0
M  V30 15932 H 1490.49 -1.27921 -3.87428 0
M  V30 15933 H 1489.16 -2.3446 -3.43513 0
M  V30 15934 H 1487.74 -0.531098 -3.69099 0
M  V30 15935 N 1489.92 1.30607 -0.882012 0
M  V30 15936 C 1490.87 2.3016 -0.336011 0
M  V30 15937 C 1491.87 1.60037 0.555389 0
M  V30 15938 O 1493.07 1.74536 0.440152 0
M  V30 15939 H 1489.45 0.746595 -0.0899982 0
M  V30 15940 H 1491.42 2.73673 -1.18936 0
M  V30 15941 C 1490.17 3.44942 0.437061 0
M  V30 15942 H 1489.49 3.99081 -0.2396 0
M  V30 15943 H 1490.93 4.16684 0.784242 0
M  V30 15944 C 1489.39 2.94678 1.633 0
M  V30 15945 O 1489.92 2.94457 2.73236 0
M  V30 15946 N 1488.13 2.50727 1.46917 0
M  V30 15947 H 1487.67 2.51105 0.574807 0
M  V30 15948 H 1487.63 2.17453 2.27072 0
M  V30 15949 N 1491.4 0.642663 1.43901 0
M  V30 15950 C 1492.65 0.151478 2.01532 0
M  V30 15951 C 1492.97 -1.23519 1.50891 0
M  V30 15952 O 1492.24 -1.82299 0.717197 0
M  V30 15953 H 1490.82 0.0530091 0.745117 0
M  V30 15954 H 1493.48 0.831958 1.76251 0
M  V30 15955 H 1492.58 0.127995 3.11837 0
M  V30 15956 N 1492.88 -1.52852 0.383918 0
M  V30 15957 C 1494.13 -2.01809 -0.200285 0
M  V30 15958 C 1494.46 -1.27009 -1.46909 0
M  V30 15959 O 1493.74 -0.369002 -1.90968 0
M  V30 15960 C 1494.02 -3.56971 -0.473672 0
M  V30 15961 C 1493.87 -4.42446 0.810048 0
M  V30 15962 C 1495.19 -4.21481 -1.26658 0
M  V30 15963 H 1492.31 -0.733541 -0.0713192 0
M  V30 15964 H 1494.95 -1.8296 0.512425 0
M  V30 15965 H 1493.1 -3.73163 -1.08081 0
M  V30 15966 H 1494.77 -4.38016 1.44706 0
M  V30 15967 H 1493.02 -4.09674 1.42652 0
M  V30 15968 H 1493.69 -5.49013 0.573478 0
M  V30 15969 H 1496.16 -4.09233 -0.752806 0
M  V30 15970 H 1495.04 -5.30037 -1.42661 0
M  V30 15971 H 1495.3 -3.78756 -2.28028 0
M  V30 15972 N 1494.36 -0.113586 -1.5719 0
M  V30 15973 C 1495.29 0.835363 -2.18046 0
M  V30 15974 C 1496.27 1.28114 -1.11897 0
M  V30 15975 O 1497.46 1.34472 -1.40111 0
M  V30 15976 C 1494.59 2.08759 -2.77556 0
M  V30 15977 C 1493.54 1.77979 -3.8924 0
M  V30 15978 C 1492.87 3.10185 -4.35533 0
M  V30 15979 C 1494.17 1.05231 -5.11589 0
M  V30 15980 H 1495.86 0.328275 -2.97595 0
M  V30 15981 H 1493.41 0.156456 -1.43148 0
M  V30 15982 H 1495.36 2.75597 -3.18785 0
M  V30 15983 H 1494.08 2.61783 -1.95288 0
M  V30 15984 H 1492.74 1.13532 -3.48577 0
M  V30 15985 H 1492.39 3.61133 -3.50131 0
M  V30 15986 H 1492.09 2.90367 -5.10843 0
M  V30 15987 H 1493.61 3.78151 -4.7941 0
M  V30 15988 H 1495.03 1.62213 -5.49872 0
M  V30 15989 H 1493.42 0.955269 -5.92448 0
M  V30 15990 H 1494.49 0.038137 -4.84885 0
M  V30 15991 N 1495.84 1.56784 0.160173 0
M  V30 15992 C 1496.75 2.00514 1.21783 0
M  V30 15993 C 1497.76 0.918341 1.47792 0
M  V30 15994 O 1498.94 1.22683 1.59721 0
M  V30 15995 C 1496 2.36575 2.53443 0
M  V30 15996 C 1495.07 3.59138 2.35198 0
M  V30 15997 C 1494.3 3.93469 3.6058 0
M  V30 15998 O 1494.52 3.28625 4.6622 0
M  V30 15999 O 1493.46 4.86774 3.54027 0
M  V30 16000 H 1497.28 2.90774 0.876607 0
M  V30 16001 H 1494.87 1.44799 0.367897 0
M  V30 16002 H 1496.75 2.60687 3.31089 0
M  V30 16003 H 1495.42 1.49474 2.87122 0
M  V30 16004 H 1494.33 3.4023 1.55546 0
M  V30 16005 H 1495.66 4.46815 2.0644 0
M  V30 16006 N 1497.32 -0.429099 1.51646 0
M  V30 16007 C 1498.54 -1.20465 1.68828 0
M  V30 16008 C 1498.97 -1.84044 0.388514 0
M  V30 16009 O 1498.32 -1.69165 -0.652152 0
M  V30 16010 C 1498.37 -2.25831 2.81128 0
M  V30 16011 O 1497.48 -3.31511 2.45305 0
M  V30 16012 H 1496.82 -0.352568 0.562665 0
M  V30 16013 H 1499.35 -0.505698 1.98252 0
M  V30 16014 H 1499.36 -2.70484 3.05455 0
M  V30 16015 H 1498.03 -1.78934 3.7544 0
M  V30 16016 H 1496.61 -2.92277 2.31579 0
M  V30 16017 N 1498.79 -1.41931 -0.685074 0
M  V30 16018 C 1499.7 -1.46985 -1.82846 0
M  V30 16019 C 1500.72 -0.359487 -1.70246 0
M  V30 16020 O 1501.9 -0.608824 -1.91977 0
M  V30 16021 C 1498.96 -1.36001 -3.18912 0
M  V30 16022 C 1498.02 -2.57442 -3.43543 0
M  V30 16023 C 1497.25 -2.46972 -4.73118 0
M  V30 16024 O 1497.48 -1.49999 -5.50324 0
M  V30 16025 O 1496.41 -3.36922 -4.98766 0
M  V30 16026 H 1500.24 -2.4347 -1.81538 0
M  V30 16027 H 1497.82 -1.23583 -0.839497 0
M  V30 16028 H 1499.7 -1.32198 -4.00127 0
M  V30 16029 H 1498.38 -0.426366 -3.2088 0
M  V30 16030 H 1497.29 -2.66821 -2.62217 0
M  V30 16031 H 1498.62 -3.49671 -3.46398 0
M  V30 16032 N 1500.27 0.920374 -1.27933 0
M  V30 16033 C 1501.2 2.0229 -1.05612 0
M  V30 16034 C 1502.18 1.6258 0.0257603 0
M  V30 16035 O 1503.37 1.88112 -0.120852 0
M  V30 16036 C 1500.49 3.33279 -0.603563 0
M  V30 16037 C 1499.54 3.91971 -1.6811 0
M  V30 16038 S 1500.37 4.23645 -3.27544 0
M  V30 16039 C 1501.53 5.57704 -2.84107 0
M  V30 16040 H 1501.76 2.20913 -1.98959 0
M  V30 16041 H 1499.29 1.06441 -1.11847 0
M  V30 16042 H 1501.25 4.09012 -0.349146 0
M  V30 16043 H 1499.91 3.12567 0.309962 0
M  V30 16044 H 1499.11 4.86518 -1.31592 0
M  V30 16045 H 1498.71 3.22849 -1.88797 0
M  V30 16046 H 1501 6.37313 -2.29866 0
M  V30 16047 H 1501.94 5.99129 -3.77426 0
M  V30 16048 H 1502.35 5.18576 -2.23024 0
M  V30 16049 N 1501.75 1.10074 1.1279 0
M  V30 16050 C 1503 0.842118 1.84489 0
M  V30 16051 C 1503.33 -0.630737 1.83672 0
M  V30 16052 O 1502.6 -1.46481 1.27959 0
M  V30 16053 C 1502.89 1.3864 3.32342 0
M  V30 16054 C 1502.74 2.92585 3.41635 0
M  V30 16055 C 1504.06 1.02565 4.27982 0
M  V30 16056 H 1501.18 0.307376 0.669842 0
M  V30 16057 H 1503.82 1.36326 1.32345 0
M  V30 16058 H 1501.97 0.943134 3.76878 0
M  V30 16059 H 1503.64 3.4541 3.0576 0
M  V30 16060 H 1501.88 3.29378 2.82299 0
M  V30 16061 H 1502.56 3.25749 4.45636 0
M  V30 16062 H 1505.03 1.40807 3.91552 0
M  V30 16063 H 1503.91 1.43345 5.29852 0
M  V30 16064 H 1504.17 -0.0653712 4.42052 0
M  V30 16065 N 1503.23 -1.30138 0.888926 0
M  V30 16066 C 1504.48 -1.95265 0.5054 0
M  V30 16067 C 1504.79 -1.70925 -0.950998 0
M  V30 16068 O 1506 -2.30069 -1.44155 0
M  V30 16069 C 1504.45 -3.49647 0.852937 0
M  V30 16070 C 1504.06 -3.82802 2.32737 0
M  V30 16071 C 1505.8 -4.21067 0.538801 0
M  V30 16072 C 1503.71 -5.30379 2.61633 0
M  V30 16073 H 1502.64 -0.730882 0.185278 0
M  V30 16074 H 1505.29 -1.48027 1.08444 0
M  V30 16075 H 1503.67 -3.9548 0.202937 0
M  V30 16076 H 1504.85 -3.47866 3.02202 0
M  V30 16077 H 1503.16 -3.24495 2.60944 0
M  V30 16078 H 1505.76 -5.2967 0.731676 0
M  V30 16079 H 1506.1 -4.13014 -0.522039 0
M  V30 16080 H 1506.64 -3.8093 1.14617 0
M  V30 16081 H 1503.37 -5.43486 3.66473 0
M  V30 16082 H 1502.89 -5.66601 1.96782 0
M  V30 16083 H 1504.57 -5.97856 2.47339 0
M  V30 16084 N 1504.71 -0.650285 -1.43559 0
M  V30 16085 C 1506.12 -0.24263 -1.85117 0
M  V30 16086 C 1506.47 1.21017 -1.54432 0
M  V30 16087 O 1505.59 1.92332 -0.991839 0
M  V30 16088 C 1506.19 -0.433575 -3.36014 0
M  V30 16089 C 1504.75 -0.0802635 -3.76314 0
M  V30 16090 C 1503.89 -0.737844 -2.67303 0
M  V30 16091 H 1506.84 -0.854158 -1.33753 0
M  V30 16092 H 1506.87 0.321801 -3.79137 0
M  V30 16093 H 1506.38 -1.49102 -3.58316 0
M  V30 16094 H 1504.48 0.974703 -3.59625 0
M  V30 16095 H 1504.59 -0.503683 -4.76445 0
M  V30 16096 H 1502.96 -0.171349 -2.54123 0
M  V30 16097 H 1503.74 -1.79826 -2.92434 0
M  V30 16098 N 1506.18 1.52647 -0.392018 0
M  V30 16099 C 1507.13 2.26532 0.441819 0
M  V30 16100 C 1508.1 1.2825 1.05552 0
M  V30 16101 O 1509.29 1.57083 1.08303 0
M  V30 16102 C 1506.43 3.0774 1.56174 0
M  V30 16103 C 1505.54 4.20955 0.970632 0
M  V30 16104 C 1504.67 4.89553 2.06183 0
M  V30 16105 C 1503.71 5.94756 1.44676 0
M  V30 16106 N 1502.85 6.5694 2.47738 0
M  V30 16107 H 1507.69 2.97363 -0.194699 0
M  V30 16108 H 1505.23 1.46704 -0.107848 0
M  V30 16109 H 1507.18 3.53116 2.22183 0
M  V30 16110 H 1505.81 2.39112 2.16853 0
M  V30 16111 H 1504.87 3.79874 0.200067 0
M  V30 16112 H 1506.18 4.96474 0.481181 0
M  V30 16113 H 1505.33 5.38247 2.79956 0
M  V30 16114 H 1504.07 4.13564 2.58488 0
M  V30 16115 H 1503.08 5.45399 0.694288 0
M  V30 16116 H 1504.3 6.72679 0.931617 0
M  V30 16117 H 1502.25 5.8379 2.99208 0
M  V30 16118 H 1502.16 7.2808 2.03556 0
M  V30 16119 H 1503.43 7.10277 3.21133 0
M  V30 16120 N 1507.66 0.121921 1.57128 0
M  V30 16121 C 1508.61 -0.844503 2.16728 0
M  V30 16122 C 1509.6 -1.2733 1.1173 0
M  V30 16123 O 1510.81 -1.2447 1.30028 0
M  V30 16124 H 1507.19 -0.290459 0.693641 0
M  V30 16125 H 1509.16 -0.317379 2.96707 0
M  V30 16126 C 1507.91 -2.08359 2.78356 0
M  V30 16127 H 1507.23 -1.76258 3.5885 0
M  V30 16128 H 1508.67 -2.73978 3.23592 0
M  V30 16129 C 1507.13 -2.87526 1.75586 0
M  V30 16130 O 1507.66 -3.83011 1.21101 0
M  V30 16131 N 1505.86 -2.51575 1.4546 0
M  V30 16132 H 1505.41 -1.73993 1.89958 0
M  V30 16133 H 1505.37 -3.0484 0.769411 0
M  V30 16134 N 1509.14 -1.56867 -0.151857 0
M  V30 16135 C 1510.39 -1.83082 -0.865285 0
M  V30 16136 C 1510.72 -0.702056 -1.81387 0
M  V30 16137 O 1509.97 0.309291 -1.9324 0
M  V30 16138 C 1510.27 -3.15597 -1.6773 0
M  V30 16139 C 1509.94 -4.4231 -0.875929 0
M  V30 16140 C 1508.6 -4.76724 -0.654826 0
M  V30 16141 C 1510.95 -5.20246 -0.315162 0
M  V30 16142 C 1508.28 -5.86538 0.13783 0
M  V30 16143 C 1510.63 -6.30892 0.464508 0
M  V30 16144 C 1509.29 -6.63859 0.696233 0
M  V30 16145 H 1508.56 -0.669945 -0.31663 0
M  V30 16146 H 1511.21 -1.91064 -0.129175 0
M  V30 16147 H 1509.52 -3.03044 -2.48338 0
M  V30 16148 H 1511.21 -3.33094 -2.23269 0
M  V30 16149 H 1507.8 -4.15328 -1.05832 0
M  V30 16150 H 1511.99 -4.94038 -0.473273 0
M  V30 16151 H 1507.24 -6.10525 0.32691 0
M  V30 16152 H 1511.42 -6.90479 0.906187 0
M  V30 16153 H 1509.04 -7.48788 1.3123 0
M  V30 16154 N 1510.62 0.421051 -1.51871 0
M  V30 16155 C 1511.58 1.49478 -1.73749 0
M  V30 16156 C 1512.58 1.48887 -0.607395 0
M  V30 16157 O 1513.77 1.50622 -0.875143 0
M  V30 16158 C 1510.9 2.88947 -1.80893 0
M  V30 16159 H 1512.1 1.31377 -2.69593 0
M  V30 16160 H 1509.65 0.650786 -1.42107 0
M  V30 16161 H 1510.38 3.12434 -0.86922 0
M  V30 16162 H 1510.17 2.90781 -2.63038 0
M  V30 16163 H 1511.66 3.66809 -1.99602 0
M  V30 16164 N 1512.1 1.42293 0.677538 0
M  V30 16165 C 1513.34 1.42334 1.43476 0
M  V30 16166 C 1513.67 0.0397842 1.94959 0
M  V30 16167 O 1512.94 -0.921258 1.72886 0
M  V30 16168 H 1511.52 0.523969 0.532415 0
M  V30 16169 H 1514.18 1.7769 0.800758 0
M  V30 16170 H 1513.27 2.12146 2.28912 0
M  V30 16171 N 1513.57 -0.913576 1.28419 0
M  V30 16172 C 1514.99 -1.47782 1.14094 0
M  V30 16173 C 1515.34 -1.94347 -0.269004 0
M  V30 16174 O 1514.46 -1.82474 -1.16328 0
M  V30 16175 C 1515.06 -2.6859 2.06507 0
M  V30 16176 C 1513.62 -3.21193 1.96245 0
M  V30 16177 C 1512.76 -1.939 1.98238 0
M  V30 16178 H 1515.71 -0.726271 1.41106 0
M  V30 16179 H 1515.73 -3.43858 1.62916 0
M  V30 16180 H 1515.25 -2.34668 3.09116 0
M  V30 16181 H 1513.35 -3.5984 0.966737 0
M  V30 16182 H 1513.46 -3.8643 2.83211 0
M  V30 16183 H 1511.82 -2.11006 1.42648 0
M  V30 16184 H 1512.61 -1.62273 3.02527 0
M  V30 16185 N 1515.05 -1.1067 -1.12204 0
M  V30 16186 C 1516.3 -0.85189 -1.8404 0
M  V30 16187 C 1516.63 0.620988 -1.84004 0
M  V30 16188 O 1515.91 1.45801 -1.28734 0
M  V30 16189 C 1516.19 -1.40401 -3.31602 0
M  V30 16190 C 1516.04 -2.94392 -3.40078 0
M  V30 16191 C 1517.36 -1.04834 -4.27432 0
M  V30 16192 H 1514.48 -0.310924 -0.668203 0
M  V30 16193 H 1517.12 -1.37026 -1.3162 0
M  V30 16194 H 1515.27 -0.963107 -3.76373 0
M  V30 16195 H 1516.94 -3.47027 -3.03924 0
M  V30 16196 H 1515.19 -3.3087 -2.80548 0
M  V30 16197 H 1515.86 -3.28107 -4.43903 0
M  V30 16198 H 1518.33 -1.42882 -3.90799 0
M  V30 16199 H 1517.21 -1.46153 -5.29085 0
M  V30 16200 H 1517.47 0.0419272 -4.4208 0
M  V30 16201 N 1516.53 1.29665 -0.895815 0
M  V30 16202 C 1517.76 2.00399 -0.534333 0
M  V30 16203 C 1518.18 1.66632 0.872654 0
M  V30 16204 O 1517.54 0.888811 1.58018 0
M  V30 16205 C 1517.59 3.53154 -0.729023 0
M  V30 16206 O 1516.69 4.11812 0.22023 0
M  V30 16207 H 1516.03 0.630173 -0.209233 0
M  V30 16208 H 1518.56 1.65253 -1.20634 0
M  V30 16209 H 1518.57 4.03073 -0.632179 0
M  V30 16210 H 1517.25 3.77067 -1.75481 0
M  V30 16211 H 1515.82 3.72822 0.0761687 0
M  V30 16212 N 1518.01 0.657889 1.43212 0
M  V30 16213 C 1518.94 -0.0695999 2.29094 0
M  V30 16214 C 1519.95 -0.782463 1.42763 0
M  V30 16215 O 1521.14 -0.63944 1.66654 0
M  V30 16216 C 1518.24 -1.12178 3.19796 0
M  V30 16217 C 1517.42 -0.486131 4.3469 0
M  V30 16218 C 1516.47 -1.43582 5.06232 0
M  V30 16219 O 1515.5 -0.942622 5.61341 0
M  V30 16220 N 1516.7 -2.76966 5.10167 0
M  V30 16221 H 1519.47 0.667565 2.92171 0
M  V30 16222 H 1517.03 0.501022 1.53953 0
M  V30 16223 H 1519.02 -1.75801 3.64522 0
M  V30 16224 H 1517.59 -1.76087 2.58287 0
M  V30 16225 H 1516.81 0.329281 3.92822 0
M  V30 16226 H 1518.1 -0.0425918 5.08782 0
M  V30 16227 H 1517.5 -3.19592 4.66774 0
M  V30 16228 H 1516.05 -3.3588 5.58595 0
M  V30 16229 N 1519.49 -1.52437 0.400108 0
M  V30 16230 C 1520.44 -2.23576 -0.446964 0
M  V30 16231 C 1521.42 -1.24368 -1.02085 0
M  V30 16232 O 1522.61 -1.49652 -0.945165 0
M  V30 16233 C 1519.74 -3.05402 -1.56795 0
M  V30 16234 C 1518.83 -4.12013 -1.00527 0
M  V30 16235 N 1519.22 -5.05519 -0.168475 0
M  V30 16236 C 1517.52 -4.27337 -1.27669 0
M  V30 16237 C 1518.22 -5.81523 0.143579 0
M  V30 16238 N 1517.19 -5.41623 -0.463209 0
M  V30 16239 H 1521 -2.93227 0.198775 0
M  V30 16240 H 1518.51 -1.61036 0.210019 0
M  V30 16241 H 1520.51 -3.54912 -2.1873 0
M  V30 16242 H 1519.17 -2.37288 -2.2164 0
M  V30 16243 H 1520.18 -5.17532 0.195125 0
M  V30 16244 H 1516.85 -3.70452 -1.92539 0
M  V30 16245 H 1518.24 -6.6685 0.822256 0
M  V30 16246 N 1520.96 -0.130252 -1.57061 0
M  V30 16247 C 1521.91 0.832998 -2.17173 0
M  V30 16248 C 1522.91 1.26735 -1.12403 0
M  V30 16249 O 1524.11 1.23778 -1.30686 0
M  V30 16250 H 1520.49 0.286777 -0.695171 0
M  V30 16251 H 1522.46 0.301639 -2.96872 0
M  V30 16252 C 1521.21 2.06879 -2.79457 0
M  V30 16253 H 1520.53 1.74352 -3.5978 0
M  V30 16254 H 1521.97 2.72258 -3.25041 0
M  V30 16255 C 1520.43 2.86591 -1.77108 0
M  V30 16256 O 1520.96 3.82363 -1.2313 0
M  V30 16257 N 1519.17 2.508 -1.46792 0
M  V30 16258 H 1518.71 1.72984 -1.90878 0
M  V30 16259 H 1518.67 3.04428 -0.785566 0
M  V30 16260 N 1522.44 1.56945 0.143535 0
M  V30 16261 C 1523.39 1.99479 1.19628 0
M  V30 16262 C 1524.39 0.887733 1.44276 0
M  V30 16263 O 1525.59 1.07292 1.44528 0
M  V30 16264 H 1521.97 0.635049 0.402761 0
M  V30 16265 H 1523.94 2.87171 0.810877 0
M  V30 16266 C 1522.69 2.39436 2.52123 0
M  V30 16267 H 1522.01 3.24176 2.33987 0
M  V30 16268 H 1523.45 2.73017 3.24404 0
M  V30 16269 C 1521.91 1.24836 3.12918 0
M  V30 16270 O 1522.44 0.550973 3.97903 0
M  V30 16271 N 1520.64 1.01172 2.7242 0
M  V30 16272 H 1520.19 1.5806 2.03408 0
M  V30 16273 H 1520.15 0.246846 3.13429 0
M  V30 16274 N 1523.92 -0.412991 1.52093 0
M  V30 16275 C 1525.34 -0.751324 1.40809 0
M  V30 16276 C 1525.54 -1.94951 0.509543 0
M  V30 16277 O 1524.59 -2.52486 -0.026132 0
M  V30 16278 C 1525.91 -1.00888 2.8327 0
M  V30 16279 C 1527.45 -1.11183 2.92587 0
M  V30 16280 C 1527.93 -1.40217 4.36008 0
M  V30 16281 N 1529.42 -1.4709 4.39225 0
M  V30 16282 C 1530.16 -1.71174 5.47254 0
M  V30 16283 N 1529.65 -1.92887 6.65407 0
M  V30 16284 N 1531.44 -1.73157 5.34765 0
M  V30 16285 H 1523.6 0.375774 2.0905 0
M  V30 16286 H 1525.86 0.105817 0.942076 0
M  V30 16287 H 1525.56 -0.200872 3.51126 0
M  V30 16288 H 1525.44 -1.93008 3.2408 0
M  V30 16289 H 1527.83 -1.91043 2.24915 0
M  V30 16290 H 1527.91 -0.169078 2.55241 0
M  V30 16291 H 1527.55 -0.608754 5.04239 0
M  V30 16292 H 1527.48 -2.35737 4.70888 0
M  V30 16293 H 1529.97 -1.32114 3.54054 0
M  V30 16294 H 1530.28 -2.10704 7.43521 0
M  V30 16295 H 1528.63 -1.9016 6.68479 0
M  V30 16296 H 1531.82 -1.55728 4.41437 0
M  V30 16297 H 1531.99 -1.91587 6.1903 0
M  V30 16298 N 1525.4 -1.4265 -0.669982 0
M  V30 16299 C 1526.81 -1.38614 -1.25072 0
M  V30 16300 C 1527.16 -0.0818051 -1.96029 0
M  V30 16301 O 1526.29 0.81931 -2.0029 0
M  V30 16302 C 1526.88 -2.51085 -2.27469 0
M  V30 16303 C 1525.44 -2.50366 -2.81059 0
M  V30 16304 C 1524.59 -2.29632 -1.5545 0
M  V30 16305 H 1527.54 -1.51794 -0.463058 0
M  V30 16306 H 1527.56 -2.21612 -3.09303 0
M  V30 16307 H 1527.07 -3.46002 -1.75796 0
M  V30 16308 H 1525.17 -1.5928 -3.36839 0
M  V30 16309 H 1525.29 -3.47569 -3.29746 0
M  V30 16310 H 1523.65 -1.77982 -1.82193 0
M  V30 16311 H 1524.43 -3.26611 -1.05736 0
M  V30 16312 N 1526.88 0.906753 -1.28902 0
M  V30 16313 C 1528.13 1.6533 -1.16234 0
M  V30 16314 C 1528.45 1.92861 0.288004 0
M  V30 16315 O 1527.72 1.54971 1.19837 0
M  V30 16316 H 1526.3 0.612806 -0.427174 0
M  V30 16317 H 1528.96 1.08764 -1.6173 0
M  V30 16318 H 1528.05 2.61271 -1.70715 0
M  V30 16319 N 1528.36 1.11264 1.11616 0
M  V30 16320 C 1529.59 0.881522 1.8685 0
M  V30 16321 C 1529.99 -0.572088 1.80344 0
M  V30 16322 O 1529.34 -1.40665 1.18148 0
M  V30 16323 C 1529.4 1.26245 3.36604 0
M  V30 16324 C 1529.06 2.72485 3.6688 0
M  V30 16325 C 1530.06 3.70708 3.64516 0
M  V30 16326 C 1527.74 3.09086 3.95943 0
M  V30 16327 C 1529.74 5.0355 3.90789 0
M  V30 16328 C 1527.43 4.42114 4.21875 0
M  V30 16329 C 1528.42 5.39155 4.19286 0
M  V30 16330 O 1528.11 6.69787 4.44568 0
M  V30 16331 H 1527.84 0.315647 0.597782 0
M  V30 16332 H 1530.4 1.48317 1.42095 0
M  V30 16333 H 1528.63 0.603938 3.81955 0
M  V30 16334 H 1530.32 1.00744 3.93199 0
M  V30 16335 H 1531.08 3.43776 3.42115 0
M  V30 16336 H 1526.96 2.34171 3.97095 0
M  V30 16337 H 1530.51 5.79285 3.88684 0
M  V30 16338 H 1526.4 4.6878 4.43751 0
M  V30 16339 H 1527.17 6.75548 4.62144 0
M  V30 16340 N 1529.83 -1.29188 0.902679 0
M  V30 16341 C 1530.78 -2.25236 0.353959 0
M  V30 16342 C 1531.77 -1.52002 -0.527659 0
M  V30 16343 O 1532.96 -1.73107 -0.369189 0
M  V30 16344 C 1530.09 -3.40785 -0.414803 0
M  V30 16345 C 1529.17 -4.21353 0.481904 0
M  V30 16346 N 1529.57 -4.80143 1.59048 0
M  V30 16347 C 1527.86 -4.45119 0.280241 0
M  V30 16348 C 1528.56 -5.40661 2.14616 0
M  V30 16349 N 1527.54 -5.24213 1.43882 0
M  V30 16350 H 1531.34 -2.68252 1.20076 0
M  V30 16351 H 1528.86 -1.43832 0.754069 0
M  V30 16352 H 1530.85 -4.08662 -0.824674 0
M  V30 16353 H 1529.51 -2.99305 -1.25883 0
M  V30 16354 H 1530.52 -4.78838 1.97319 0
M  V30 16355 H 1527.2 -4.14184 -0.525174 0
M  V30 16356 H 1528.59 -5.97246 3.07809 0
M  V30 16357 N 1531.31 -0.665475 -1.42861 0
M  V30 16358 C 1532.54 -0.192 -2.06007 0
M  V30 16359 C 1532.95 1.1472 -1.49949 0
M  V30 16360 O 1532.31 1.71074 -0.635599 0
M  V30 16361 C 1532.36 -0.108189 -3.61338 0
M  V30 16362 O 1532.08 -1.39446 -4.15315 0
M  V30 16363 C 1533.58 0.3899 -4.41582 0
M  V30 16364 H 1530.8 -0.0955812 -0.664158 0
M  V30 16365 H 1533.35 -0.909582 -1.83158 0
M  V30 16366 H 1531.5 0.560024 -3.83331 0
M  V30 16367 H 1531.92 -1.26168 -5.09099 0
M  V30 16368 H 1533.39 0.39747 -5.50567 0
M  V30 16369 H 1533.87 1.42348 -4.15492 0
M  V30 16370 H 1534.47 -0.246248 -4.24587 0
M  V30 16371 N 1532.79 1.52222 -0.408187 0
M  V30 16372 C 1533.72 2.24676 0.453129 0
M  V30 16373 C 1534.73 1.27605 1.01098 0
M  V30 16374 O 1535.92 1.53557 0.910084 0
M  V30 16375 C 1533.02 2.96431 1.64262 0
M  V30 16376 C 1532.2 4.20364 1.20883 0
M  V30 16377 C 1531.26 4.74951 2.26512 0
M  V30 16378 O 1530.28 5.37556 1.87142 0
M  V30 16379 N 1531.48 4.56443 3.58665 0
M  V30 16380 H 1534.25 2.9923 -0.16771 0
M  V30 16381 H 1531.81 1.60178 -0.235517 0
M  V30 16382 H 1533.8 3.29844 2.3449 0
M  V30 16383 H 1532.37 2.25068 2.1694 0
M  V30 16384 H 1531.59 3.92776 0.334712 0
M  V30 16385 H 1532.88 5.0085 0.895939 0
M  V30 16386 H 1532.28 4.06511 3.93402 0
M  V30 16387 H 1530.83 4.94295 4.24871 0
M  V30 16388 N 1534.27 0.138579 1.5699 0
M  V30 16389 C 1535.5 -0.521806 2.00212 0
M  V30 16390 C 1535.91 -1.58967 1.01857 0
M  V30 16391 O 1535.27 -1.82494 0.0143099 0
M  V30 16392 C 1535.32 -1.13014 3.4338 0
M  V30 16393 O 1535.04 -0.104938 4.37974 0
M  V30 16394 C 1536.54 -1.87195 4.01837 0
M  V30 16395 H 1533.76 -0.136564 0.656956 0
M  V30 16396 H 1536.3 0.230685 2.03195 0
M  V30 16397 H 1534.46 -1.8333 3.41275 0
M  V30 16398 H 1534.87 -0.54948 5.21614 0
M  V30 16399 H 1536.35 -2.25061 5.04035 0
M  V30 16400 H 1536.82 -2.75467 3.42074 0
M  V30 16401 H 1537.43 -1.21597 4.07547 0
M  V30 16402 N 1535.75 -1.57019 -0.13521 0
M  V30 16403 C 1536.71 -1.98229 -1.15056 0
M  V30 16404 C 1537.71 -0.870295 -1.35213 0
M  V30 16405 O 1538.9 -1.13668 -1.32005 0
M  V30 16406 C 1536.03 -2.30844 -2.50846 0
M  V30 16407 H 1537.22 -2.89123 -0.796744 0
M  V30 16408 H 1534.78 -1.51636 -0.378962 0
M  V30 16409 H 1535.51 -1.42779 -2.91178 0
M  V30 16410 H 1535.3 -3.11931 -2.37574 0
M  V30 16411 H 1536.79 -2.63524 -3.23952 0
M  V30 16412 N 1537.22 0.404919 -1.52309 0
M  V30 16413 C 1538.47 1.14921 -1.66246 0
M  V30 16414 C 1538.79 1.90919 -0.396868 0
M  V30 16415 O 1538.06 1.86856 0.588361 0
M  V30 16416 H 1536.64 0.427223 -0.612772 0
M  V30 16417 H 1539.31 0.461091 -1.89367 0
M  V30 16418 H 1538.4 1.86095 -2.5055 0
M  V30 16419 N 1538.7 1.43003 0.662408 0
M  V30 16420 C 1540.11 1.39275 1.24336 0
M  V30 16421 C 1540.46 0.0921999 1.95983 0
M  V30 16422 O 1539.59 -0.808677 2.00722 0
M  V30 16423 C 1540.18 2.52287 2.26134 0
M  V30 16424 C 1538.74 2.51853 2.79727 0
M  V30 16425 C 1537.89 2.30453 1.5423 0
M  V30 16426 H 1540.84 1.52038 0.455002 0
M  V30 16427 H 1540.86 2.23249 3.08123 0
M  V30 16428 H 1540.37 3.46929 1.73959 0
M  V30 16429 H 1538.48 1.61064 3.3599 0
M  V30 16430 H 1538.59 3.49313 3.27898 0
M  V30 16431 H 1536.95 1.78946 1.81247 0
M  V30 16432 H 1537.74 3.27167 1.04003 0
M  V30 16433 N 1540.18 -0.899904 1.29381 0
M  V30 16434 C 1541.43 -1.65298 1.18524 0
M  V30 16435 C 1541.78 -1.90625 -0.260731 0
M  V30 16436 O 1541.07 -1.50544 -1.1852 0
M  V30 16437 C 1541.27 -3.0069 1.93185 0
M  V30 16438 C 1541.1 -2.88578 3.44895 0
M  V30 16439 C 1539.87 -2.89358 4.14246 0
M  V30 16440 C 1542.07 -2.65623 4.40396 0
M  V30 16441 N 1540.05 -2.67981 5.52322 0
M  V30 16442 C 1541.42 -2.53225 5.6593 0
M  V30 16443 C 1543.47 -2.50729 4.30162 0
M  V30 16444 C 1542.18 -2.27449 6.82393 0
M  V30 16445 C 1544.2 -2.26336 5.46375 0
M  V30 16446 C 1543.56 -2.14702 6.70882 0
M  V30 16447 H 1539.66 -0.61048 0.48871 0
M  V30 16448 H 1542.25 -1.06167 1.63207 0
M  V30 16449 H 1540.42 -3.57881 1.50916 0
M  V30 16450 H 1542.15 -3.65101 1.74596 0
M  V30 16451 H 1538.91 -3.00634 3.65946 0
M  V30 16452 H 1539.33 -2.60346 6.24939 0
M  V30 16453 H 1543.97 -2.58467 3.34596 0
M  V30 16454 H 1541.69 -2.18449 7.78014 0
M  V30 16455 H 1545.28 -2.15656 5.40355 0
M  V30 16456 H 1544.16 -1.96088 7.59289 0
M  V30 16457 N 1541.66 -1.11854 -1.11024 0
M  V30 16458 C 1542.61 -0.749858 -2.15316 0
M  V30 16459 C 1543.59 0.248202 -1.58974 0
M  V30 16460 O 1544.78 0.054644 -1.76916 0
M  V30 16461 C 1541.91 -0.199423 -3.4272 0
M  V30 16462 C 1541 -1.22541 -4.06011 0
M  V30 16463 N 1541.39 -2.42104 -4.44094 0
M  V30 16464 C 1539.69 -1.06935 -4.32991 0
M  V30 16465 C 1540.39 -3.07572 -4.93735 0
M  V30 16466 N 1539.37 -2.35038 -4.90161 0
M  V30 16467 H 1543.17 -1.65978 -2.42546 0
M  V30 16468 H 1540.68 -0.998423 -1.28083 0
M  V30 16469 H 1542.68 0.0828628 -4.16818 0
M  V30 16470 H 1541.34 0.705033 -3.16953 0
M  V30 16471 H 1542.35 -2.79529 -4.35986 0
M  V30 16472 H 1539.03 -0.221683 -4.16911 0
M  V30 16473 H 1540.42 -4.0936 -5.32799 0
M  V30 16474 N 1543.14 1.28707 -0.909517 0
M  V30 16475 C 1544.07 2.29845 -0.411552 0
M  V30 16476 C 1545.05 1.62001 0.518615 0
M  V30 16477 O 1546.23 1.89442 0.427252 0
M  V30 16478 C 1543.36 3.45501 0.353013 0
M  V30 16479 C 1542.32 4.25213 -0.487625 0
M  V30 16480 C 1541.64 5.33164 0.405026 0
M  V30 16481 C 1542.94 4.9237 -1.74268 0
M  V30 16482 H 1544.64 2.71746 -1.25676 0
M  V30 16483 H 1542.18 1.30639 -0.605759 0
M  V30 16484 H 1544.14 4.15338 0.712191 0
M  V30 16485 H 1542.86 3.02469 1.23209 0
M  V30 16486 H 1541.52 3.57098 -0.829265 0
M  V30 16487 H 1541.17 4.86375 1.28252 0
M  V30 16488 H 1540.87 5.87399 -0.153811 0
M  V30 16489 H 1542.39 6.0585 0.760179 0
M  V30 16490 H 1543.8 5.5459 -1.45266 0
M  V30 16491 H 1542.2 5.56581 -2.2436 0
M  V30 16492 H 1543.27 4.171 -2.47297 0
M  V30 16493 N 1544.61 0.673042 1.42506 0
M  V30 16494 C 1545.86 0.194192 2.01165 0
M  V30 16495 C 1546.18 -1.2029 1.53477 0
M  V30 16496 O 1545.45 -1.80737 0.755704 0
M  V30 16497 H 1544.03 0.0688022 0.743825 0
M  V30 16498 H 1546.7 0.869157 1.74447 0
M  V30 16499 H 1545.79 0.194111 3.11496 0
M  V30 16500 N 1546.09 -1.52004 0.416254 0
M  V30 16501 C 1547.04 -2.27206 -0.405723 0
M  V30 16502 C 1548.01 -1.29913 -1.03498 0
M  V30 16503 O 1549.19 -1.58786 -1.0579 0
M  V30 16504 C 1546.33 -3.10186 -1.51258 0
M  V30 16505 C 1545.45 -4.22445 -0.903539 0
M  V30 16506 C 1544.58 -4.92771 -1.98368 0
M  V30 16507 C 1543.62 -5.96983 -1.35196 0
M  V30 16508 N 1542.76 -6.60798 -2.37255 0
M  V30 16509 H 1547.6 -2.97016 0.241983 0
M  V30 16510 H 1545.14 -1.46514 0.131174 0
M  V30 16511 H 1547.09 -3.56606 -2.16537 0
M  V30 16512 H 1545.72 -2.42532 -2.13021 0
M  V30 16513 H 1544.78 -3.80144 -0.139607 0
M  V30 16514 H 1546.09 -4.97176 -0.402136 0
M  V30 16515 H 1545.24 -5.42633 -2.71357 0
M  V30 16516 H 1543.98 -4.17624 -2.51876 0
M  V30 16517 H 1542.99 -5.46434 -0.607431 0
M  V30 16518 H 1544.21 -6.74076 -0.824482 0
M  V30 16519 H 1542.16 -5.88476 -2.89882 0
M  V30 16520 H 1542.07 -7.31227 -1.91947 0
M  V30 16521 H 1543.34 -7.15296 -3.09792 0
M  V30 16522 N 1547.57 -0.146903 -1.56914 0
M  V30 16523 C 1548.5 0.788924 -2.19769 0
M  V30 16524 C 1549.48 1.25712 -1.14589 0
M  V30 16525 O 1550.67 1.3147 -1.42931 0
M  V30 16526 C 1547.8 2.02824 -2.81921 0
M  V30 16527 C 1546.75 1.69683 -3.92927 0
M  V30 16528 C 1546.08 3.00877 -4.42015 0
M  V30 16529 C 1547.38 0.943559 -5.13706 0
M  V30 16530 H 1549.07 0.265076 -2.98224 0
M  V30 16531 H 1546.62 0.126057 -1.43447 0
M  V30 16532 H 1548.57 2.68773 -3.2456 0
M  V30 16533 H 1547.29 2.57581 -2.00797 0
M  V30 16534 H 1545.95 1.06112 -3.50907 0
M  V30 16535 H 1545.6 3.53625 -3.57713 0
M  V30 16536 H 1545.3 2.79466 -5.16888 0
M  V30 16537 H 1546.82 3.67897 -4.87323 0
M  V30 16538 H 1548.24 1.50513 -5.5319 0
M  V30 16539 H 1546.64 0.829387 -5.94341 0
M  V30 16540 H 1547.71 -0.0647228 -4.84857 0
M  V30 16541 N 1549.05 1.57088 0.126881 0
M  V30 16542 C 1549.96 2.03053 1.17502 0
M  V30 16543 C 1550.97 0.949484 1.45811 0
M  V30 16544 O 1552.15 1.26043 1.57083 0
M  V30 16545 C 1549.22 2.41897 2.48368 0
M  V30 16546 C 1548.28 3.64047 2.27527 0
M  V30 16547 C 1547.51 4.01029 3.52153 0
M  V30 16548 O 1547.73 3.38441 4.59145 0
M  V30 16549 O 1546.67 4.94174 3.43622 0
M  V30 16550 H 1550.49 2.92568 0.814733 0
M  V30 16551 H 1548.08 1.45547 0.3371 0
M  V30 16552 H 1549.96 2.67652 3.25485 0
M  V30 16553 H 1548.63 1.55531 2.83887 0
M  V30 16554 H 1547.54 3.43452 1.48294 0
M  V30 16555 H 1548.87 4.51093 1.96916 0
M  V30 16556 N 1550.53 -0.396836 1.52522 0
M  V30 16557 C 1551.46 -1.50564 1.71481 0
M  V30 16558 C 1552.44 -1.5256 0.562524 0
M  V30 16559 O 1553.62 -1.71083 0.791378 0
M  V30 16560 C 1550.75 -2.89058 1.76531 0
M  V30 16561 C 1549.79 -3.04922 2.98202 0
M  V30 16562 S 1550.63 -2.76944 4.58326 0
M  V30 16563 C 1551.78 -4.17645 4.66179 0
M  V30 16564 H 1552.02 -1.34256 2.6526 0
M  V30 16565 H 1549.55 -0.589208 1.42715 0
M  V30 16566 H 1551.51 -3.6887 1.80125 0
M  V30 16567 H 1550.17 -3.02699 0.838582 0
M  V30 16568 H 1549.36 -4.06277 2.98254 0
M  V30 16569 H 1548.96 -2.32992 2.92559 0
M  V30 16570 H 1551.26 -5.11461 4.44312 0
M  V30 16571 H 1552.2 -4.22612 5.68159 0
M  V30 16572 H 1552.61 -4.03189 3.95093 0
M  V30 16573 N 1552.01 -1.43353 -0.654814 0
M  V30 16574 C 1553.28 -1.35363 -1.41195 0
M  V30 16575 C 1553.66 -0.000661523 -2.111 0
M  V30 16576 O 1553.01 1.01583 -2.04678 0
M  V30 16577 C 1553.22 -2.53572 -2.39796 0
M  V30 16578 C 1554.57 -2.96587 -3.03844 0
M  V30 16579 O 1555.59 -2.53607 -2.50124 0
M  V30 16580 O 1554.45 -3.71039 -4.01239 0
M  V30 16581 H 1551.55 -0.534861 -0.630756 0
M  V30 16582 H 1554.09 -1.55399 -0.681857 0
M  V30 16583 H 1552.86 -3.43682 -1.87078 0
M  V30 16584 H 1552.49 -2.35628 -3.20258 0
M  V30 16585 N 1553.48 0.89303 -1.29857 0
M  V30 16586 C 1554.73 1.64413 -1.18214 0
M  V30 16587 C 1555.06 1.92687 0.26492 0
M  V30 16588 O 1554.31 1.54044 1.20702 0
M  V30 16589 C 1554.61 2.99661 -1.94777 0
M  V30 16590 C 1554.28 2.90969 -3.44453 0
M  V30 16591 C 1552.94 2.88306 -3.8527 0
M  V30 16592 C 1555.29 2.79686 -4.39801 0
M  V30 16593 C 1552.62 2.72188 -5.19741 0
M  V30 16594 C 1554.97 2.65107 -5.7437 0
M  V30 16595 C 1553.64 2.60814 -6.14437 0
M  V30 16596 H 1552.91 0.60163 -0.432577 0
M  V30 16597 H 1555.55 1.03891 -1.60869 0
M  V30 16598 H 1553.86 3.64087 -1.44733 0
M  V30 16599 H 1555.56 3.56722 -1.83168 0
M  V30 16600 H 1552.15 2.93848 -3.12012 0
M  V30 16601 H 1556.33 2.80816 -4.09214 0
M  V30 16602 H 1551.59 2.67273 -5.49886 0
M  V30 16603 H 1555.76 2.55349 -6.47897 0
M  V30 16604 H 1553.39 2.48082 -7.18582 0
M  V30 16605 N 1554.96 1.12442 1.10429 0
M  V30 16606 C 1556.24 0.791191 1.78884 0
M  V30 16607 C 1556.62 -0.719044 1.98477 0
M  V30 16608 O 1555.97 -1.65275 1.57786 0
M  V30 16609 C 1556.18 1.56632 3.11877 0
M  V30 16610 C 1557.52 1.75236 3.86752 0
M  V30 16611 O 1558.55 1.53145 3.21598 0
M  V30 16612 O 1557.41 2.12025 5.03694 0
M  V30 16613 H 1554.5 0.287788 0.775311 0
M  V30 16614 H 1557.05 1.22844 1.17078 0
M  V30 16615 H 1555.82 2.59317 2.93037 0
M  V30 16616 H 1555.44 1.12332 3.81402 0
M  V30 16617 N 1556.44 -1.28223 0.91633 0
M  V30 16618 C 1557.69 -1.94865 0.550823 0
M  V30 16619 C 1558.01 -1.72113 -0.905945 0
M  V30 16620 O 1557.27 -1.03668 -1.65987 0
M  V30 16621 C 1557.57 -3.48112 0.809509 0
M  V30 16622 C 1557.23 -3.90967 2.24623 0
M  V30 16623 C 1555.9 -4.02379 2.63903 0
M  V30 16624 C 1558.25 -4.12865 3.18106 0
M  V30 16625 C 1555.58 -4.33069 3.95814 0
M  V30 16626 C 1557.93 -4.45036 4.49584 0
M  V30 16627 C 1556.59 -4.54659 4.88714 0
M  V30 16628 H 1555.86 -0.71306 0.20156 0
M  V30 16629 H 1558.51 -1.5251 1.15814 0
M  V30 16630 H 1556.81 -3.91618 0.119411 0
M  V30 16631 H 1558.51 -3.97797 0.505843 0
M  V30 16632 H 1555.1 -3.82614 1.93144 0
M  V30 16633 H 1559.29 -4.035 2.88966 0
M  V30 16634 H 1554.54 -4.38725 4.25829 0
M  V30 16635 H 1558.72 -4.60928 5.22033 0
M  V30 16636 H 1556.34 -4.78194 5.90961 0
M  V30 16637 N 1557.92 -0.68059 -1.42147 0
M  V30 16638 C 1559.16 -0.209222 -2.03326 0
M  V30 16639 C 1559.52 1.16419 -1.52678 0
M  V30 16640 O 1560.72 1.73055 -2.05683 0
M  V30 16641 C 1558.99 -0.248331 -3.56536 0
M  V30 16642 S 1560.55 0.151186 -4.38539 0
M  V30 16643 H 1557.37 -0.0854956 -0.705841 0
M  V30 16644 H 1559.97 -0.895033 -1.73809 0
M  V30 16645 H 1558.68 -1.25016 -3.90895 0
M  V30 16646 H 1558.21 0.457124 -3.90735 0
M  V30 16647 H 1560.22 1.38301 -4.76537 0
M  V30 16648 N 1559.4 1.51781 -0.424309 0
M  V30 16649 C 1560.31 2.31162 0.40015 0
M  V30 16650 C 1561.32 1.39523 1.03969 0
M  V30 16651 O 1562.5 1.72597 1.0379 0
M  V30 16652 C 1559.56 3.12875 1.49366 0
M  V30 16653 C 1558.62 4.20275 0.875616 0
M  V30 16654 C 1557.86 4.98082 1.91702 0
M  V30 16655 O 1558.08 4.76365 3.13739 0
M  V30 16656 O 1557.01 5.82527 1.5148 0
M  V30 16657 H 1560.84 3.0269 -0.247529 0
M  V30 16658 H 1558.42 1.48223 -0.187146 0
M  V30 16659 H 1560.31 3.63714 2.12815 0
M  V30 16660 H 1558.98 2.44125 2.12567 0
M  V30 16661 H 1557.89 3.73546 0.203429 0
M  V30 16662 H 1559.22 4.91361 0.287306 0
M  V30 16663 N 1560.87 0.155222 1.56834 0
M  V30 16664 C 1562.12 -0.49285 1.95998 0
M  V30 16665 C 1562.44 -1.64857 1.0415 0
M  V30 16666 O 1561.71 -1.9562 0.104654 0
M  V30 16667 H 1560.29 -0.185063 0.723713 0
M  V30 16668 H 1562.95 0.232644 1.93507 0
M  V30 16669 H 1562.05 -0.863552 2.99915 0
M  V30 16670 N 1562.35 -1.57153 -0.118549 0
M  V30 16671 C 1563.58 -1.89062 -0.840429 0
M  V30 16672 C 1563.99 -0.746516 -1.73414 0
M  V30 16673 O 1563.35 0.282638 -1.80298 0
M  V30 16674 C 1563.4 -3.20433 -1.67347 0
M  V30 16675 O 1563.12 -4.30439 -0.815739 0
M  V30 16676 C 1564.62 -3.66048 -2.50047 0
M  V30 16677 H 1561.84 -0.626005 -0.241575 0
M  V30 16678 H 1564.39 -2.04241 -0.102804 0
M  V30 16679 H 1562.54 -3.06922 -2.36385 0
M  V30 16680 H 1562.96 -5.05736 -1.39037 0
M  V30 16681 H 1564.43 -4.60729 -3.04028 0
M  V30 16682 H 1564.91 -2.92727 -3.27426 0
M  V30 16683 H 1565.51 -3.82349 -1.86251 0
M  V30 16684 N 1563.83 0.388742 -1.5273 0
M  V30 16685 C 1565.06 1.15495 -1.71664 0
M  V30 16686 C 1565.47 1.83717 -0.435127 0
M  V30 16687 O 1564.83 1.72686 0.590411 0
M  V30 16688 C 1564.88 2.20279 -2.86635 0
M  V30 16689 O 1564.6 1.54838 -4.09825 0
M  V30 16690 C 1566.1 3.09625 -3.1725 0
M  V30 16691 H 1563.32 0.346271 -0.57475 0
M  V30 16692 H 1565.87 0.454729 -1.9938 0
M  V30 16693 H 1564.02 2.85936 -2.61379 0
M  V30 16694 H 1564.44 2.24466 -4.74042 0
M  V30 16695 H 1565.91 3.79177 -4.01159 0
M  V30 16696 H 1566.39 3.73147 -2.31643 0
M  V30 16697 H 1566.99 2.49612 -3.44345 0
M  V30 16698 N 1565.31 1.43698 0.647203 0
M  V30 16699 C 1566.55 1.45849 1.40911 0
M  V30 16700 C 1566.89 0.0846767 1.94015 0
M  V30 16701 O 1566.16 -0.89537 1.72665 0
M  V30 16702 C 1566.44 2.50579 2.58616 0
M  V30 16703 C 1566.3 3.97258 2.10965 0
M  V30 16704 C 1567.62 2.51981 3.60824 0
M  V30 16705 H 1564.74 0.531056 0.511027 0
M  V30 16706 H 1567.38 1.75283 0.733204 0
M  V30 16707 H 1565.53 2.25611 3.16278 0
M  V30 16708 H 1567.2 4.33304 1.58257 0
M  V30 16709 H 1565.44 4.09802 1.42284 0
M  V30 16710 H 1566.11 4.6616 2.95633 0
M  V30 16711 H 1568.59 2.7425 3.12932 0
M  V30 16712 H 1567.47 3.27191 4.40723 0
M  V30 16713 H 1567.73 1.55582 4.1382 0
M  V30 16714 N 1566.79 -0.886131 1.30328 0
M  V30 16715 C 1568.03 -1.64026 1.19261 0
M  V30 16716 C 1568.37 -1.92553 -0.252379 0
M  V30 16717 O 1567.64 -1.54564 -1.18069 0
M  V30 16718 C 1567.92 -2.9808 2.0204 0
M  V30 16719 C 1567.78 -2.76534 3.54752 0
M  V30 16720 C 1569.1 -3.98989 1.85731 0
M  V30 16721 H 1566.21 -0.595224 0.4346 0
M  V30 16722 H 1568.86 -1.0255 1.59949 0
M  V30 16723 H 1567.01 -3.50552 1.67469 0
M  V30 16724 H 1568.68 -2.3086 3.99376 0
M  V30 16725 H 1566.92 -2.1106 3.78993 0
M  V30 16726 H 1567.59 -3.71849 4.07961 0
M  V30 16727 H 1570.07 -3.55673 2.15953 0
M  V30 16728 H 1568.94 -4.90699 2.45979 0
M  V30 16729 H 1569.21 -4.34501 0.816152 0
M  V30 16730 N 1568.26 -1.13026 -1.09832 0
M  V30 16731 C 1569.51 -0.890736 -1.82191 0
M  V30 16732 C 1569.84 0.581818 -1.8528 0
M  V30 16733 O 1569.12 1.43037 -1.31798 0
M  V30 16734 C 1569.4 -1.47403 -3.28549 0
M  V30 16735 C 1569.25 -3.0154 -3.33757 0
M  V30 16736 C 1570.57 -1.13876 -4.25112 0
M  V30 16737 H 1567.69 -0.325028 -0.661457 0
M  V30 16738 H 1570.33 -1.39787 -1.28684 0
M  V30 16739 H 1568.48 -1.04272 -3.74245 0
M  V30 16740 H 1570.16 -3.53395 -2.96495 0
M  V30 16741 H 1568.4 -3.36746 -2.73467 0
M  V30 16742 H 1569.07 -3.37449 -4.36843 0
M  V30 16743 H 1571.55 -1.51139 -3.87681 0
M  V30 16744 H 1570.42 -1.57343 -5.25865 0
M  V30 16745 H 1570.68 -0.051854 -4.4207 0
M  V30 16746 N 1569.74 1.27735 -0.923117 0
M  V30 16747 C 1570.97 1.98682 -0.577317 0
M  V30 16748 C 1571.39 1.68904 0.843608 0
M  V30 16749 O 1570.74 0.947021 1.56006 0
M  V30 16750 C 1570.79 3.52804 -0.788144 0
M  V30 16751 O 1570.51 3.81537 -2.15316 0
M  V30 16752 C 1572.02 4.41006 -0.450437 0
M  V30 16753 H 1569.24 0.634186 -0.2192 0
M  V30 16754 H 1571.78 1.62702 -1.23888 0
M  V30 16755 H 1569.93 3.87012 -0.173441 0
M  V30 16756 H 1570.35 4.76142 -2.19976 0
M  V30 16757 H 1571.82 5.48175 -0.648674 0
M  V30 16758 H 1572.3 4.3489 0.613806 0
M  V30 16759 H 1572.91 4.1231 -1.04308 0
M  V30 16760 N 1571.22 0.688118 1.41784 0
M  V30 16761 C 1572.13 0.018397 2.34593 0
M  V30 16762 C 1573.15 -0.774275 1.55824 0
M  V30 16763 O 1574.32 -0.713546 1.88336 0
M  V30 16764 C 1571.39 -0.911914 3.34492 0
M  V30 16765 C 1570.45 -0.112284 4.29153 0
M  V30 16766 C 1569.68 -0.998285 5.2428 0
M  V30 16767 O 1569.9 -2.23782 5.24669 0
M  V30 16768 O 1568.84 -0.451951 6.00201 0
M  V30 16769 H 1572.66 0.783224 2.93427 0
M  V30 16770 H 1570.25 0.448413 1.42512 0
M  V30 16771 H 1572.13 -1.4456 3.95829 0
M  V30 16772 H 1570.81 -1.65636 2.78112 0
M  V30 16773 H 1569.71 0.465822 3.71189 0
M  V30 16774 H 1571.05 0.593338 4.88611 0
M  V30 16775 N 1572.7 -1.51554 0.432352 0
M  V30 16776 C 1573.98 -1.94621 -0.195472 0
M  V30 16777 C 1574.36 -1.37072 -1.60544 0
M  V30 16778 O 1573.7 -0.555781 -2.21638 0
M  V30 16779 C 1573.91 -3.48544 -0.178267 0
M  V30 16780 C 1575.26 -4.22839 -0.386283 0
M  V30 16781 O 1576.29 -3.55275 -0.256604 0
M  V30 16782 O 1575.14 -5.42693 -0.643927 0
M  V30 16783 H 1572.24 -0.816291 -0.132656 0
M  V30 16784 H 1574.78 -1.62473 0.489972 0
M  V30 16785 H 1573.56 -3.82874 0.807658 0
M  V30 16786 H 1573.18 -3.87121 -0.906832 0
M  V30 16787 N 1574.18 -0.163538 -1.56749 0
M  V30 16788 C 1575.42 0.485954 -1.98539 0
M  V30 16789 C 1575.78 1.60942 -1.04698 0
M  V30 16790 O 1576.98 2.32092 -1.35598 0
M  V30 16791 C 1575.25 0.963784 -3.4416 0
M  V30 16792 S 1576.81 1.61555 -4.07977 0
M  V30 16793 H 1573.63 0.15658 -0.693544 0
M  V30 16794 H 1576.23 -0.259161 -1.93775 0
M  V30 16795 H 1574.94 0.135594 -4.10176 0
M  V30 16796 H 1574.47 1.74313 -3.52674 0
M  V30 16797 H 1576.48 2.90344 -4.02387 0
M  V30 16798 N 1575.65 1.57214 0.110213 0
M  V30 16799 C 1576.9 1.84946 0.814827 0
M  V30 16800 C 1577.22 0.750029 1.79999 0
M  V30 16801 O 1576.49 -0.225164 1.94602 0
M  V30 16802 H 1575.07 0.682385 0.303907 0
M  V30 16803 H 1577.74 1.94666 0.0954415 0
M  V30 16804 H 1576.83 2.81167 1.35469 0
M  V30 16805 N 1577.13 -0.380637 1.52934 0
M  V30 16806 C 1578.08 -1.48584 1.78957 0
M  V30 16807 C 1579.07 -1.56103 0.657901 0
M  V30 16808 O 1580.28 -1.59169 0.84055 0
M  V30 16809 H 1576.66 -0.494687 0.566382 0
M  V30 16810 H 1578.63 -1.23833 2.71492 0
M  V30 16811 C 1577.38 -2.85615 1.98291 0
M  V30 16812 H 1576.7 -2.80583 2.84804 0
M  V30 16813 H 1578.14 -3.62164 2.20485 0
M  V30 16814 C 1576.6 -3.28267 0.757764 0
M  V30 16815 O 1577.13 -4.01654 -0.0608007 0
M  V30 16816 N 1575.33 -2.84641 0.585486 0
M  V30 16817 H 1574.88 -2.25087 1.25274 0
M  V30 16818 H 1574.84 -3.13536 -0.232871 0
M  V30 16819 N 1578.61 -1.44039 -0.639573 0
M  V30 16820 C 1580.03 -1.2774 -0.956802 0
M  V30 16821 C 1580.23 -0.207018 -2.00434 0
M  V30 16822 O 1579.28 0.409954 -2.4915 0
M  V30 16823 C 1580.6 -2.64624 -1.42809 0
M  V30 16824 C 1582.14 -2.72266 -1.54402 0
M  V30 16825 C 1582.62 -4.09601 -2.04918 0
M  V30 16826 N 1584.11 -4.11735 -2.122 0
M  V30 16827 C 1584.84 -5.14842 -2.52439 0
M  V30 16828 N 1584.34 -6.28316 -2.91875 0
M  V30 16829 N 1586.13 -5.02196 -2.52499 0
M  V30 16830 H 1578.28 -2.12333 0.0533569 0
M  V30 16831 H 1580.55 -0.947208 -0.0387401 0
M  V30 16832 H 1580.25 -3.43983 -0.732728 0
M  V30 16833 H 1580.13 -2.90944 -2.40066 0
M  V30 16834 H 1582.51 -1.93232 -2.23037 0
M  V30 16835 H 1582.6 -2.49697 -0.555426 0
M  V30 16836 H 1582.24 -4.89108 -1.3688 0
M  V30 16837 H 1582.17 -4.29542 -3.04633 0
M  V30 16838 H 1584.66 -3.29833 -1.84441 0
M  V30 16839 H 1584.97 -7.0281 -3.21368 0
M  V30 16840 H 1583.32 -6.31767 -2.89647 0
M  V30 16841 H 1586.51 -4.12606 -2.21075 0
M  V30 16842 H 1586.68 -5.82677 -2.83535 0
M  V30 16843 N 1580.09 0.879207 -1.30796 0
M  V30 16844 C 1581.34 1.62828 -1.19715 0
M  V30 16845 C 1581.66 1.93429 0.247031 0
M  V30 16846 O 1580.93 1.57478 1.16522 0
M  V30 16847 H 1579.51 0.603607 -0.440077 0
M  V30 16848 H 1582.17 1.05309 -1.64 0
M  V30 16849 H 1581.27 2.57591 -1.76219 0
M  V30 16850 N 1581.57 1.13606 1.09231 0
M  V30 16851 C 1582.98 0.91148 1.62938 0
M  V30 16852 C 1583.33 -0.55157 1.88287 0
M  V30 16853 O 1582.45 -1.4187 1.63407 0
M  V30 16854 C 1583.05 1.64812 2.96011 0
M  V30 16855 C 1581.61 1.46935 3.46536 0
M  V30 16856 C 1580.76 1.67605 2.20916 0
M  V30 16857 H 1583.71 1.28907 0.925669 0
M  V30 16858 H 1583.73 1.10638 3.6406 0
M  V30 16859 H 1583.24 2.71291 2.77529 0
M  V30 16860 H 1581.34 0.427667 3.70138 0
M  V30 16861 H 1581.45 2.23374 4.2384 0
M  V30 16862 H 1579.82 1.10105 2.29672 0
M  V30 16863 H 1580.6 2.75408 2.04952 0
M  V30 16864 N 1583.05 -1.27244 0.929878 0
M  V30 16865 C 1584.27 -1.98912 0.587277 0
M  V30 16866 C 1584.7 -1.68888 -0.828168 0
M  V30 16867 O 1584.05 -0.930394 -1.55606 0
M  V30 16868 C 1584.1 -3.51097 0.822399 0
M  V30 16869 O 1583.21 -4.12251 -0.110968 0
M  V30 16870 H 1582.55 -0.624404 0.225867 0
M  V30 16871 H 1585.08 -1.61997 1.24973 0
M  V30 16872 H 1585.09 -4.01255 0.738824 0
M  V30 16873 H 1583.76 -3.72282 1.85416 0
M  V30 16874 H 1582.34 -3.72893 0.0227053 0
M  V30 16875 N 1584.52 -0.695628 -1.41417 0
M  V30 16876 C 1585.45 -0.0447013 -2.33457 0
M  V30 16877 C 1586.43 0.767104 -1.51821 0
M  V30 16878 O 1587.62 0.720066 -1.80357 0
M  V30 16879 C 1584.75 0.892353 -3.3564 0
M  V30 16880 C 1583.7 0.187638 -4.27588 0
M  V30 16881 C 1583.03 1.23906 -5.20146 0
M  V30 16882 C 1584.33 -0.946093 -5.1366 0
M  V30 16883 H 1586.02 -0.81343 -2.88138 0
M  V30 16884 H 1583.57 -0.392614 -1.38544 0
M  V30 16885 H 1585.52 1.35696 -3.98954 0
M  V30 16886 H 1584.25 1.69275 -2.79309 0
M  V30 16887 H 1582.91 -0.256942 -3.65698 0
M  V30 16888 H 1582.55 2.03198 -4.6013 0
M  V30 16889 H 1582.25 0.772536 -5.82499 0
M  V30 16890 H 1583.78 1.70417 -5.86336 0
M  V30 16891 H 1585.19 -0.561764 -5.70541 0
M  V30 16892 H 1583.59 -1.33971 -5.84954 0
M  V30 16893 H 1584.66 -1.78573 -4.50821 0
M  V30 16894 N 1586 1.51322 -0.440383 0
M  V30 16895 C 1587.42 1.5933 -0.0928372 0
M  V30 16896 C 1587.62 1.45107 1.39807 0
M  V30 16897 O 1586.67 1.29385 2.16831 0
M  V30 16898 C 1587.99 2.9433 -0.615663 0
M  V30 16899 C 1589.53 3.07647 -0.576373 0
M  V30 16900 C 1590.01 4.45176 -1.07622 0
M  V30 16901 N 1591.5 4.51504 -1.03434 0
M  V30 16902 C 1592.24 5.56249 -1.39194 0
M  V30 16903 N 1591.73 6.68398 -1.82254 0
M  V30 16904 N 1593.52 5.46624 -1.30991 0
M  V30 16905 H 1585.68 1.58812 -1.41041 0
M  V30 16906 H 1587.94 0.748795 -0.581386 0
M  V30 16907 H 1587.64 3.10117 -1.65892 0
M  V30 16908 H 1587.52 3.77176 -0.0422513 0
M  V30 16909 H 1589.91 2.91526 0.457904 0
M  V30 16910 H 1589.99 2.26633 -1.18622 0
M  V30 16911 H 1589.63 4.62044 -2.10898 0
M  V30 16912 H 1589.56 5.24734 -0.442882 0
M  V30 16913 H 1592.05 3.71013 -0.718156 0
M  V30 16914 H 1592.36 7.44347 -2.07769 0
M  V30 16915 H 1590.71 6.69598 -1.86183 0
M  V30 16916 H 1593.9 4.57894 -0.972145 0
M  V30 16917 H 1594.07 6.28143 -1.59188 0
M  V30 16918 N 1587.48 0.171848 1.5666 0
M  V30 16919 C 1588.71 -0.479221 2.01274 0
M  V30 16920 C 1589.12 -1.56771 1.05206 0
M  V30 16921 O 1588.48 -1.82423 0.0530164 0
M  V30 16922 C 1588.53 -1.05705 3.457 0
M  V30 16923 O 1588.25 -0.0120133 4.38098 0
M  V30 16924 C 1589.75 -1.78629 4.05717 0
M  V30 16925 H 1586.97 -0.122598 0.659705 0
M  V30 16926 H 1589.52 0.273733 2.0266 0
M  V30 16927 H 1587.67 -1.7605 3.45087 0
M  V30 16928 H 1588.09 -0.438714 5.22662 0
M  V30 16929 H 1589.56 -2.14319 5.08696 0
M  V30 16930 H 1590.04 -2.68149 3.4784 0
M  V30 16931 H 1590.64 -1.12925 4.10034 0
M  V30 16932 N 1588.96 -1.5727 -0.101874 0
M  V30 16933 C 1590.19 -1.89943 -0.820329 0
M  V30 16934 C 1590.6 -0.764867 -1.72613 0
M  V30 16935 O 1589.96 0.263499 -1.80588 0
M  V30 16936 C 1590.01 -3.2219 -1.63939 0
M  V30 16937 O 1589.73 -4.31279 -0.770039 0
M  V30 16938 C 1591.23 -3.6868 -2.46151 0
M  V30 16939 H 1588.45 -0.628532 -0.234922 0
M  V30 16940 H 1590.99 -2.04339 -0.0811362 0
M  V30 16941 H 1589.15 -3.09411 -2.33117 0
M  V30 16942 H 1589.56 -5.07182 -1.33665 0
M  V30 16943 H 1591.04 -4.63928 -2.99124 0
M  V30 16944 H 1591.51 -2.96183 -3.24303 0
M  V30 16945 H 1592.12 -3.84303 -1.82185 0
M  V30 16946 N 1590.44 0.372521 -1.53134 0
M  V30 16947 C 1591.66 1.13668 -1.72879 0
M  V30 16948 C 1592.08 1.83246 -0.454588 0
M  V30 16949 O 1591.44 1.73302 0.572062 0
M  V30 16950 C 1591.49 2.17226 -2.88955 0
M  V30 16951 O 1591.21 1.50483 -4.11445 0
M  V30 16952 C 1592.71 3.06243 -3.20516 0
M  V30 16953 H 1589.93 0.340156 -0.57839 0
M  V30 16954 H 1592.47 0.433557 -1.99851 0
M  V30 16955 H 1590.63 2.83148 -2.64397 0
M  V30 16956 H 1591.04 2.19425 -4.76396 0
M  V30 16957 H 1592.52 3.74901 -4.05158 0
M  V30 16958 H 1592.99 3.70669 -2.35587 0
M  V30 16959 H 1593.6 2.45946 -3.46973 0
M  V30 16960 N 1591.91 1.44376 0.631925 0
M  V30 16961 C 1592.88 1.50825 1.72582 0
M  V30 16962 C 1593.88 0.390379 1.55989 0
M  V30 16963 O 1595.07 0.65297 1.61499 0
M  V30 16964 C 1592.2 1.38141 3.11657 0
M  V30 16965 H 1593.39 2.48265 1.68239 0
M  V30 16966 H 1590.94 1.31456 0.845514 0
M  V30 16967 H 1591.68 0.417905 3.21596 0
M  V30 16968 H 1591.46 2.19198 3.25107 0
M  V30 16969 H 1592.95 1.45633 3.91383 0
M  V30 16970 N 1593.39 -0.872258 1.31261 0
M  V30 16971 C 1594.62 -1.6632 1.23905 0
M  V30 16972 C 1595.04 -1.87109 -0.192878 0
M  V30 16973 O 1594.4 -1.4112 -1.1382 0
M  V30 16974 C 1594.45 -3.00979 1.98606 0
M  V30 16975 O 1593.55 -3.90642 1.32183 0
M  V30 16976 H 1592.89 -0.507736 0.427902 0
M  V30 16977 H 1595.42 -1.0877 1.73292 0
M  V30 16978 H 1595.43 -3.50931 2.08113 0
M  V30 16979 H 1594.11 -2.85168 3.02741 0
M  V30 16980 H 1592.68 -3.4909 1.31112 0
M  V30 16981 N 1594.87 -1.14184 -1.08627 0
M  V30 16982 C 1596.12 -0.906869 -1.80611 0
M  V30 16983 C 1596.44 0.568182 -1.86539 0
M  V30 16984 O 1595.71 1.41301 -1.35687 0
M  V30 16985 H 1594.29 -0.332523 -0.668908 0
M  V30 16986 H 1596.95 -1.43998 -1.31341 0
M  V30 16987 H 1596.05 -1.30484 -2.83514 0
M  V30 16988 N 1596.35 1.26749 -0.936613 0
M  V30 16989 C 1597.3 2.26542 -0.441307 0
M  V30 16990 C 1598.27 1.58503 0.496581 0
M  V30 16991 O 1599.45 1.86259 0.41379 0
M  V30 16992 C 1596.59 3.43866 0.291633 0
M  V30 16993 C 1595.7 4.26592 -0.681397 0
M  V30 16994 C 1594.84 5.31151 0.0722826 0
M  V30 16995 C 1593.88 6.05553 -0.892869 0
M  V30 16996 N 1593.01 7.01891 -0.17124 0
M  V30 16997 H 1597.85 2.68282 -1.29725 0
M  V30 16998 H 1595.39 1.31914 -0.650928 0
M  V30 16999 H 1597.35 4.10711 0.732984 0
M  V30 17000 H 1595.98 3.03051 1.11175 0
M  V30 17001 H 1595.03 3.59579 -1.24126 0
M  V30 17002 H 1596.34 4.78201 -1.41864 0
M  V30 17003 H 1595.5 6.03987 0.57313 0
M  V30 17004 H 1594.24 4.80369 0.842439 0
M  V30 17005 H 1593.24 5.31548 -1.40488 0
M  V30 17006 H 1594.47 6.58424 -1.66296 0
M  V30 17007 H 1592.41 6.53426 0.580507 0
M  V30 17008 H 1592.33 7.5123 -0.847897 0
M  V30 17009 H 1593.6 7.78889 0.308662 0
M  V30 17010 N 1597.83 0.703118 1.41046 0
M  V30 17011 C 1598.76 0.0570815 2.3343 0
M  V30 17012 C 1599.74 -0.759042 1.52225 0
M  V30 17013 O 1600.92 -0.710491 1.80736 0
M  V30 17014 C 1598.05 -0.874541 3.36109 0
M  V30 17015 C 1597.01 -0.16496 4.27682 0
M  V30 17016 C 1596.33 -1.21145 5.20795 0
M  V30 17017 C 1597.63 0.97332 5.13151 0
M  V30 17018 H 1599.33 0.828699 2.87703 0
M  V30 17019 H 1596.87 0.399956 1.38334 0
M  V30 17020 H 1598.83 -1.33579 3.99668 0
M  V30 17021 H 1597.55 -1.67791 2.80203 0
M  V30 17022 H 1596.21 0.276332 3.65557 0
M  V30 17023 H 1595.86 -2.00755 4.61201 0
M  V30 17024 H 1595.56 -0.741633 5.82901 0
M  V30 17025 H 1597.08 -1.67305 5.87232 0
M  V30 17026 H 1598.49 0.592013 5.70235 0
M  V30 17027 H 1596.89 1.37071 5.84236 0
M  V30 17028 H 1597.96 1.80961 4.49868 0
M  V30 17029 N 1599.3 -1.51086 0.448402 0
M  V30 17030 C 1600.55 -2.01367 -0.115904 0
M  V30 17031 C 1600.87 -1.33658 -1.42811 0
M  V30 17032 O 1602.07 -1.74968 -2.07602 0
M  V30 17033 C 1600.53 -3.58981 -0.257092 0
M  V30 17034 C 1600.14 -4.35634 1.04534 0
M  V30 17035 C 1601.88 -4.17373 -0.774573 0
M  V30 17036 C 1599.79 -5.84978 0.869184 0
M  V30 17037 H 1598.72 -0.752528 -0.0470907 0
M  V30 17038 H 1601.37 -1.74098 0.57985 0
M  V30 17039 H 1599.75 -3.82742 -1.01611 0
M  V30 17040 H 1600.92 -4.23612 1.81354 0
M  V30 17041 H 1599.24 -3.88745 1.49219 0
M  V30 17042 H 1601.84 -5.26673 -0.923032 0
M  V30 17043 H 1602.18 -3.77267 -1.75997 0
M  V30 17044 H 1602.71 -3.97732 -0.0735697 0
M  V30 17045 H 1599.45 -6.29516 1.82729 0
M  V30 17046 H 1598.97 -5.99634 0.140969 0
M  V30 17047 H 1600.65 -6.44852 0.526752 0
M  V30 17048 N 1600.78 -0.180154 -1.56567 0
M  V30 17049 C 1602.01 0.46854 -2.01525 0
M  V30 17050 C 1602.43 1.56211 -1.06036 0
M  V30 17051 O 1601.78 1.82392 -0.06269 0
M  V30 17052 C 1601.83 1.0387 -3.46256 0
M  V30 17053 O 1601.55 -0.0112203 -4.38099 0
M  V30 17054 C 1603.06 1.76475 -4.06659 0
M  V30 17055 H 1600.28 0.119098 -0.660346 0
M  V30 17056 H 1602.82 -0.284477 -2.02512 0
M  V30 17057 H 1600.97 1.74217 -3.46016 0
M  V30 17058 H 1601.39 0.41099 -5.22887 0
M  V30 17059 H 1602.86 2.11618 -5.09825 0
M  V30 17060 H 1603.34 2.66301 -3.49257 0
M  V30 17061 H 1603.95 1.10749 -4.10627 0
M  V30 17062 N 1602.26 1.57322 0.0935319 0
M  V30 17063 C 1603.17 2.05499 1.13169 0
M  V30 17064 C 1604.19 0.980199 1.43764 0
M  V30 17065 O 1605.36 1.29347 1.54374 0
M  V30 17066 C 1602.43 2.47111 2.43181 0
M  V30 17067 C 1601.49 3.68791 2.19754 0
M  V30 17068 C 1600.72 4.08408 3.43567 0
M  V30 17069 O 1600.94 3.48104 4.51863 0
M  V30 17070 O 1599.88 5.01351 3.33062 0
M  V30 17071 H 1603.7 2.9423 0.752491 0
M  V30 17072 H 1601.29 1.4623 0.306151 0
M  V30 17073 H 1603.17 2.74495 3.19735 0
M  V30 17074 H 1601.85 1.61518 2.80524 0
M  V30 17075 H 1600.75 3.46521 1.40976 0
M  V30 17076 H 1602.09 4.55169 1.87303 0
M  V30 17077 N 1603.74 -0.364395 1.53329 0
M  V30 17078 C 1604.98 -1.10501 1.70766 0
M  V30 17079 C 1605.34 -1.86955 0.45448 0
M  V30 17080 O 1604.63 -1.8346 -0.552528 0
M  V30 17081 C 1604.83 -2.09208 2.8977 0
M  V30 17082 C 1604.66 -1.42453 4.26541 0
M  V30 17083 C 1603.43 -1.17816 4.91373 0
M  V30 17084 C 1605.62 -0.861619 5.07031 0
M  V30 17085 N 1603.61 -0.474233 6.12066 0
M  V30 17086 C 1604.98 -0.28712 6.19335 0
M  V30 17087 C 1607.03 -0.760424 4.92059 0
M  V30 17088 C 1605.73 0.378707 7.18302 0
M  V30 17089 C 1607.76 -0.108375 5.91301 0
M  V30 17090 C 1607.12 0.455245 7.02927 0
M  V30 17091 H 1603.22 -0.38946 0.678119 0
M  V30 17092 H 1605.81 -0.391247 1.90728 0
M  V30 17093 H 1603.98 -2.77897 2.71345 0
M  V30 17094 H 1605.71 -2.75956 2.96024 0
M  V30 17095 H 1602.46 -1.45975 4.50542 0
M  V30 17096 H 1602.89 -0.137599 6.7686 0
M  V30 17097 H 1607.53 -1.18194 4.05943 0
M  V30 17098 H 1605.25 0.812171 8.04008 0
M  V30 17099 H 1608.83 -0.0309878 5.81792 0
M  V30 17100 H 1607.71 0.951813 7.78402 0
M  V30 17101 N 1605.22 -1.44709 -0.62426 0
M  V30 17102 C 1606.46 -1.4938 -1.39517 0
M  V30 17103 C 1606.82 -0.125721 -1.91588 0
M  V30 17104 O 1608.02 -0.0471087 -2.68759 0
M  V30 17105 C 1606.29 -2.53005 -2.52435 0
M  V30 17106 S 1607.85 -2.76776 -3.40501 0
M  V30 17107 H 1604.67 -0.528266 -0.475874 0
M  V30 17108 H 1607.27 -1.81679 -0.722007 0
M  V30 17109 H 1605.98 -3.51099 -2.12502 0
M  V30 17110 H 1605.51 -2.22301 -3.2457 0
M  V30 17111 H 1607.52 -2.08891 -4.50088 0
M  V30 17112 N 1606.69 0.865285 -1.31722 0
M  V30 17113 C 1607.93 1.63264 -1.2298 0
M  V30 17114 C 1608.3 1.90873 0.207754 0
M  V30 17115 O 1609.5 2.65518 0.418737 0
M  V30 17116 C 1607.77 2.92412 -2.05499 0
M  V30 17117 S 1609.33 3.83263 -2.13669 0
M  V30 17118 H 1606.15 0.560119 -0.437936 0
M  V30 17119 H 1608.75 1.02554 -1.66442 0
M  V30 17120 H 1607.45 2.7006 -3.09024 0
M  V30 17121 H 1606.98 3.58145 -1.62774 0
M  V30 17122 H 1609 4.79448 -1.27843 0
M  V30 17123 N 1608.17 1.14759 1.0802 0
M  V30 17124 C 1609.59 0.8888 1.32561 0
M  V30 17125 C 1609.79 -0.467926 1.95992 0
M  V30 17126 O 1608.84 -1.21135 2.21546 0
M  V30 17127 C 1610.16 2.02456 2.22333 0
M  V30 17128 C 1611.71 2.05831 2.35802 0
M  V30 17129 C 1612.18 3.18711 3.28918 0
M  V30 17130 N 1613.67 3.18315 3.36496 0
M  V30 17131 C 1614.41 4.02297 4.08589 0
M  V30 17132 N 1613.9 4.96327 4.83354 0
M  V30 17133 N 1615.7 3.90344 4.0446 0
M  V30 17134 H 1607.85 2.02135 0.652307 0
M  V30 17135 H 1610.11 0.881021 0.35001 0
M  V30 17136 H 1609.82 3.00354 1.82976 0
M  V30 17137 H 1609.69 1.95108 3.2282 0
M  V30 17138 H 1612.08 1.08537 2.74415 0
M  V30 17139 H 1612.16 2.17248 1.35044 0
M  V30 17140 H 1611.8 4.16253 2.91025 0
M  V30 17141 H 1611.73 3.04531 4.29614 0
M  V30 17142 H 1614.22 2.50214 2.83199 0
M  V30 17143 H 1614.54 5.56865 5.35837 0
M  V30 17144 H 1612.88 5.00321 4.82394 0
M  V30 17145 H 1616.07 3.162 3.45159 0
M  V30 17146 H 1616.24 4.56019 4.60381 0
M  V30 17147 N 1609.65 -1.26251 0.943322 0
M  V30 17148 C 1610.88 -1.98278 0.608341 0
M  V30 17149 C 1611.3 -1.69756 -0.810208 0
M  V30 17150 O 1610.66 -0.946846 -1.54611 0
M  V30 17151 C 1610.71 -3.50205 0.859591 0
M  V30 17152 O 1609.81 -4.12345 -0.0672371 0
M  V30 17153 H 1609.15 -0.621973 0.232477 0
M  V30 17154 H 1611.68 -1.60662 1.26684 0
M  V30 17155 H 1611.69 -4.00449 0.781341 0
M  V30 17156 H 1610.37 -3.70294 1.89354 0
M  V30 17157 H 1608.94 -3.72848 0.0622543 0
M  V30 17158 N 1611.13 -0.710588 -1.40671 0
M  V30 17159 C 1612.37 -0.252303 -2.02837 0
M  V30 17160 C 1612.73 1.13154 -1.55113 0
M  V30 17161 O 1613.93 1.68653 -2.09307 0
M  V30 17162 C 1612.21 -0.323902 -3.55929 0
M  V30 17163 S 1613.76 0.0581316 -4.38761 0
M  V30 17164 H 1610.58 -0.100448 -0.703869 0
M  V30 17165 H 1613.18 -0.931699 -1.71871 0
M  V30 17166 H 1611.89 -1.33279 -3.88156 0
M  V30 17167 H 1611.42 0.37414 -3.91617 0
M  V30 17168 H 1613.43 1.28162 -4.79363 0
M  V30 17169 N 1612.61 1.50847 -0.456408 0
M  V30 17170 C 1613.84 2.0665 0.101737 0
M  V30 17171 C 1614.25 1.32188 1.34803 0
M  V30 17172 O 1613.61 0.38687 1.78352 0
M  V30 17173 C 1613.66 3.59227 0.404724 0
M  V30 17174 O 1613.38 4.30879 -0.79212 0
M  V30 17175 C 1614.88 4.31607 1.01145 0
M  V30 17176 H 1612.1 0.671 -0.000542219 0
M  V30 17177 H 1614.64 1.94195 -0.640974 0
M  V30 17178 H 1612.8 3.71533 1.09735 0
M  V30 17179 H 1613.21 5.21837 -0.527843 0
M  V30 17180 H 1614.69 5.39386 1.17332 0
M  V30 17181 H 1615.16 3.9114 1.99765 0
M  V30 17182 H 1615.77 4.23794 0.357645 0
M  V30 17183 N 1614.09 0.188454 1.56469 0
M  V30 17184 C 1615.02 -0.730379 2.21783 0
M  V30 17185 C 1616 -1.22629 1.17882 0
M  V30 17186 O 1617.18 -1.27634 1.46367 0
M  V30 17187 C 1614.31 -1.95278 2.872 0
M  V30 17188 C 1613.27 -1.59205 3.97288 0
M  V30 17189 C 1612.59 -2.89052 4.49836 0
M  V30 17190 C 1613.89 -0.807027 5.16027 0
M  V30 17191 H 1615.59 -0.185914 2.98822 0
M  V30 17192 H 1613.13 -0.0879804 1.43731 0
M  V30 17193 H 1615.08 -2.60074 3.31571 0
M  V30 17194 H 1613.81 -2.52167 2.07556 0
M  V30 17195 H 1612.47 -0.967713 3.53597 0
M  V30 17196 H 1612.12 -3.44017 3.66963 0
M  V30 17197 H 1611.82 -2.65663 5.24115 0
M  V30 17198 H 1613.34 -3.54847 4.96906 0
M  V30 17199 H 1614.75 -1.35794 5.56986 0
M  V30 17200 H 1613.15 -0.671516 5.96331 0
M  V30 17201 H 1614.22 0.193251 4.84515 0
M  V30 17202 N 1615.56 -1.5737 -0.0851874 0
M  V30 17203 C 1616.97 -1.7544 -0.638575 0
M  V30 17204 C 1617.33 -0.812041 -1.78607 0
M  V30 17205 O 1616.45 0.00710428 -2.16399 0
M  V30 17206 C 1617.05 -3.18134 -1.16517 0
M  V30 17207 C 1615.6 -3.37594 -1.66454 0
M  V30 17208 C 1614.75 -2.71203 -0.578274 0
M  V30 17209 H 1617.7 -1.58073 0.140931 0
M  V30 17210 H 1617.72 -3.21553 -2.0343 0
M  V30 17211 H 1617.24 -3.86696 -0.329794 0
M  V30 17212 H 1615.34 -2.74126 -2.5236 0
M  V30 17213 H 1615.45 -4.45968 -1.75071 0
M  V30 17214 H 1613.81 -2.33379 -1.02011 0
M  V30 17215 H 1614.6 -3.42413 0.246691 0
M  V30 17216 N 1617.04 0.356258 -1.53521 0
M  V30 17217 C 1618.45 0.932569 -1.61741 0
M  V30 17218 C 1618.8 1.89965 -0.490677 0
M  V30 17219 O 1617.93 2.1301 0.381514 0
M  V30 17220 C 1618.52 1.69818 -2.93168 0
M  V30 17221 C 1617.08 2.22369 -3.03692 0
M  V30 17222 C 1616.23 1.03891 -2.57103 0
M  V30 17223 H 1619.18 0.134769 -1.58127 0
M  V30 17224 H 1619.2 2.56011 -2.81494 0
M  V30 17225 H 1618.71 0.994065 -3.75153 0
M  V30 17226 H 1616.81 2.95994 -2.26314 0
M  V30 17227 H 1616.93 2.49611 -4.08939 0
M  V30 17228 H 1615.29 1.40862 -2.12202 0
M  V30 17229 H 1616.07 0.349637 -3.41515 0
M  V30 17230 N 1618.52 1.45038 0.616577 0
M  V30 17231 C 1619.45 1.55858 1.73869 0
M  V30 17232 C 1620.43 0.410657 1.65069 0
M  V30 17233 O 1621.62 0.632652 1.83606 0
M  V30 17234 C 1618.75 1.51635 3.12448 0
M  V30 17235 C 1617.7 2.65053 3.36052 0
M  V30 17236 C 1617.03 2.45883 4.74811 0
M  V30 17237 C 1618.33 4.07121 3.27185 0
M  V30 17238 H 1620.02 2.49784 1.6507 0
M  V30 17239 H 1617.57 1.20216 0.792724 0
M  V30 17240 H 1619.52 1.57803 3.90738 0
M  V30 17241 H 1618.24 0.542342 3.22066 0
M  V30 17242 H 1616.9 2.58299 2.60149 0
M  V30 17243 H 1616.55 1.46641 4.8115 0
M  V30 17244 H 1616.25 3.21935 4.9156 0
M  V30 17245 H 1617.77 2.53892 5.55312 0
M  V30 17246 H 1619.19 4.15167 3.9536 0
M  V30 17247 H 1617.58 4.83491 3.55466 0
M  V30 17248 H 1618.65 4.29663 2.24762 0
M  V30 17249 N 1620 -0.858287 1.32179 0
M  V30 17250 C 1621.41 -1.14591 1.1109 0
M  V30 17251 C 1621.61 -2.01194 -0.110998 0
M  V30 17252 O 1620.67 -2.39593 -0.79695 0
M  V30 17253 C 1621.98 -1.82675 2.38852 0
M  V30 17254 C 1623.53 -1.95326 2.44574 0
M  V30 17255 C 1624.01 -2.66826 3.72247 0
M  V30 17256 N 1625.5 -2.74353 3.73208 0
M  V30 17257 C 1626.23 -3.30317 4.68698 0
M  V30 17258 N 1625.73 -3.87121 5.74552 0
M  V30 17259 N 1627.52 -3.28386 4.562 0
M  V30 17260 H 1619.67 -0.281471 2.10527 0
M  V30 17261 H 1621.93 -0.187326 0.929308 0
M  V30 17262 H 1621.64 -1.26495 3.28165 0
M  V30 17263 H 1621.51 -2.82862 2.49537 0
M  V30 17264 H 1623.9 -2.50668 1.55723 0
M  V30 17265 H 1623.98 -0.94147 2.37844 0
M  V30 17266 H 1623.63 -2.12149 4.61471 0
M  V30 17267 H 1623.56 -3.68437 3.76247 0
M  V30 17268 H 1626.05 -2.34051 2.96696 0
M  V30 17269 H 1626.36 -4.2797 6.43476 0
M  V30 17270 H 1624.71 -3.85463 5.78311 0
M  V30 17271 H 1627.9 -2.83254 3.72672 0
M  V30 17272 H 1628.07 -3.71701 5.30794 0
M  V30 17273 N 1621.48 -1.1533 -1.07409 0
M  V30 17274 C 1622.71 -0.950263 -1.83449 0
M  V30 17275 C 1623.11 0.504761 -1.82343 0
M  V30 17276 O 1622.46 1.36183 -1.23287 0
M  V30 17277 C 1622.52 -1.38651 -3.31687 0
M  V30 17278 C 1622.18 -2.85914 -3.56514 0
M  V30 17279 C 1623.18 -3.83981 -3.50506 0
M  V30 17280 C 1620.86 -3.23568 -3.84199 0
M  V30 17281 C 1622.86 -5.17707 -3.71831 0
M  V30 17282 C 1620.55 -4.57467 -4.05175 0
M  V30 17283 C 1621.54 -5.54345 -3.98986 0
M  V30 17284 O 1621.23 -6.85826 -4.19403 0
M  V30 17285 H 1620.96 -0.337616 -0.585655 0
M  V30 17286 H 1623.52 -1.53489 -1.36493 0
M  V30 17287 H 1621.75 -0.745282 -3.7945 0
M  V30 17288 H 1623.44 -1.15267 -3.89189 0
M  V30 17289 H 1624.2 -3.56237 -3.29121 0
M  V30 17290 H 1620.08 -2.48748 -3.88131 0
M  V30 17291 H 1623.63 -5.93311 -3.66916 0
M  V30 17292 H 1619.52 -4.84927 -4.26047 0
M  V30 17293 H 1620.29 -6.92235 -4.36753 0
M  V30 17294 N 1622.95 1.25748 -0.950004 0
M  V30 17295 C 1624.37 1.45599 -0.653697 0
M  V30 17296 C 1624.57 1.85357 0.790245 0
M  V30 17297 O 1623.63 1.98071 1.56601 0
M  V30 17298 C 1624.94 2.5316 -1.62267 0
M  V30 17299 C 1626.49 2.67004 -1.63334 0
M  V30 17300 C 1626.96 3.77745 -2.58984 0
M  V30 17301 N 1628.45 3.8515 -2.57321 0
M  V30 17302 C 1629.19 4.70315 -3.28011 0
M  V30 17303 N 1628.68 5.59802 -4.08159 0
M  V30 17304 N 1630.48 4.64239 -3.16921 0
M  V30 17305 H 1622.63 0.982321 -1.88319 0
M  V30 17306 H 1624.89 0.492917 -0.809776 0
M  V30 17307 H 1624.6 2.30792 -2.65382 0
M  V30 17308 H 1624.47 3.50988 -1.38158 0
M  V30 17309 H 1626.86 2.88739 -0.609388 0
M  V30 17310 H 1626.94 1.69591 -1.915 0
M  V30 17311 H 1626.58 3.56761 -3.61502 0
M  V30 17312 H 1626.51 4.74633 -2.28103 0
M  V30 17313 H 1629 3.21178 -1.99131 0
M  V30 17314 H 1629.32 6.21701 -4.59029 0
M  V30 17315 H 1627.66 5.59525 -4.12258 0
M  V30 17316 H 1630.85 3.93335 -2.53782 0
M  V30 17317 H 1631.03 5.30389 -3.72279 0
M  V30 17318 N 1624.43 0.718038 1.40292 0
M  V30 17319 C 1625.68 0.258092 2.00445 0
M  V30 17320 C 1626 -1.15347 1.57226 0
M  V30 17321 O 1625.27 -1.78241 0.812822 0
M  V30 17322 H 1623.85 0.0924316 0.741259 0
M  V30 17323 H 1626.51 0.924216 1.71593 0
M  V30 17324 H 1625.61 0.293113 3.10721 0
M  V30 17325 N 1625.91 -1.50602 0.464402 0
M  V30 17326 C 1626.82 -2.32142 -0.338721 0
M  V30 17327 C 1627.84 -1.4223 -1.00233 0
M  V30 17328 O 1629.01 -1.75288 -0.99177 0
M  V30 17329 C 1626.08 -3.16725 -1.41019 0
M  V30 17330 C 1625.14 -4.22449 -0.76388 0
M  V30 17331 C 1624.37 -5.0299 -1.78429 0
M  V30 17332 O 1624.59 -4.84516 -3.00999 0
M  V30 17333 O 1623.53 -5.86338 -1.35982 0
M  V30 17334 H 1627.35 -3.01927 0.327695 0
M  V30 17335 H 1624.94 -1.47675 0.226379 0
M  V30 17336 H 1626.82 -3.69228 -2.03097 0
M  V30 17337 H 1625.5 -2.49675 -2.06019 0
M  V30 17338 H 1624.4 -3.73955 -0.104318 0
M  V30 17339 H 1625.74 -4.9195 -0.156929 0
M  V30 17340 N 1627.39 -0.19675 -1.56367 0
M  V30 17341 C 1628.67 0.489288 -1.89381 0
M  V30 17342 C 1629.05 1.79529 -1.11052 0
M  V30 17343 O 1628.39 2.27513 -0.212117 0
M  V30 17344 C 1628.6 0.706459 -3.41775 0
M  V30 17345 C 1629.95 1.02508 -4.1204 0
M  V30 17346 O 1630.98 0.794123 -3.47235 0
M  V30 17347 O 1629.83 1.46207 -5.26579 0
M  V30 17348 H 1626.93 0.2553 -0.786607 0
M  V30 17349 H 1629.47 -0.237086 -1.68036 0
M  V30 17350 H 1628.25 -0.215762 -3.90705 0
M  V30 17351 H 1627.87 1.48523 -3.68818 0
M  V30 17352 N 1628.87 1.57413 0.0768405 0
M  V30 17353 C 1630.11 1.86633 0.775414 0
M  V30 17354 C 1630.44 0.788041 1.78367 0
M  V30 17355 O 1629.71 -0.183835 1.95036 0
M  V30 17356 H 1628.29 0.688678 0.289365 0
M  V30 17357 H 1630.95 1.94825 0.0541285 0
M  V30 17358 H 1630.04 2.83977 1.29474 0
M  V30 17359 N 1630.34 -0.348112 1.53707 0
M  V30 17360 C 1631.58 -1.09736 1.72445 0
M  V30 17361 C 1631.95 -1.86028 0.475158 0
M  V30 17362 O 1633.15 -2.6333 0.539493 0
M  V30 17363 C 1631.42 -2.01721 2.95032 0
M  V30 17364 S 1632.98 -2.83929 3.34559 0
M  V30 17365 H 1629.8 -0.370854 0.60662 0
M  V30 17366 H 1632.4 -0.376358 1.91843 0
M  V30 17367 H 1631.1 -1.44466 3.84133 0
M  V30 17368 H 1630.63 -2.78265 2.78086 0
M  V30 17369 H 1632.65 -4.04113 2.87937 0
M  V30 17370 N 1631.82 -1.45363 -0.608876 0
M  V30 17371 C 1633.07 -1.50525 -1.36799 0
M  V30 17372 C 1633.42 -0.14442 -1.91857 0
M  V30 17373 O 1632.72 0.843502 -1.72034 0
M  V30 17374 C 1632.91 -2.51893 -2.53544 0
M  V30 17375 C 1632.74 -3.97699 -2.09918 0
M  V30 17376 C 1631.51 -4.65675 -1.96151 0
M  V30 17377 C 1633.71 -4.86272 -1.67464 0
M  V30 17378 N 1631.69 -5.96207 -1.46321 0
M  V30 17379 C 1633.06 -6.06423 -1.29041 0
M  V30 17380 C 1635.12 -4.73144 -1.55045 0
M  V30 17381 C 1633.82 -7.149 -0.794378 0
M  V30 17382 C 1635.84 -5.81668 -1.06846 0
M  V30 17383 C 1635.21 -7.00974 -0.693858 0
M  V30 17384 H 1631.31 -0.605762 -0.494546 0
M  V30 17385 H 1633.89 -1.81828 -0.696187 0
M  V30 17386 H 1632.06 -2.22544 -3.18322 0
M  V30 17387 H 1633.79 -2.47211 -3.2042 0
M  V30 17388 H 1630.55 -4.20808 -2.17296 0
M  V30 17389 H 1630.97 -6.65614 -1.23642 0
M  V30 17390 H 1635.61 -3.81321 -1.82632 0
M  V30 17391 H 1633.33 -8.06514 -0.506051 0
M  V30 17392 H 1636.92 -5.73544 -0.976637 0
M  V30 17393 H 1635.8 -7.83519 -0.326629 0
M  V30 17394 N 1633.3 0.851265 -1.32632 0
M  V30 17395 C 1634.53 1.63568 -1.26211 0
M  V30 17396 C 1634.94 1.8842 0.171578 0
M  V30 17397 O 1634.28 1.45592 1.12021 0
M  V30 17398 C 1634.34 3.01653 -1.95566 0
M  V30 17399 C 1634.01 2.99827 -3.44896 0
M  V30 17400 C 1635 2.76431 -4.4032 0
M  V30 17401 C 1632.69 3.20355 -3.86883 0
M  V30 17402 C 1634.68 2.73572 -5.75706 0
M  V30 17403 C 1632.37 3.17122 -5.22376 0
M  V30 17404 C 1633.37 2.9376 -6.16599 0
M  V30 17405 O 1633.06 2.90408 -7.49612 0
M  V30 17406 H 1632.79 0.516079 -0.436622 0
M  V30 17407 H 1635.34 1.06941 -1.75365 0
M  V30 17408 H 1633.57 3.60083 -1.40986 0
M  V30 17409 H 1635.26 3.62403 -1.82809 0
M  V30 17410 H 1636.03 2.60335 -4.09208 0
M  V30 17411 H 1631.91 3.37563 -3.13962 0
M  V30 17412 H 1635.45 2.55257 -6.49222 0
M  V30 17413 H 1631.35 3.32764 -5.53117 0
M  V30 17414 H 1632.12 3.06338 -7.59012 0
M  V30 17415 N 1634.78 1.15898 1.06796 0
M  V30 17416 C 1636.03 0.935488 1.79145 0
M  V30 17417 C 1636.35 -0.538433 1.87419 0
M  V30 17418 O 1635.62 -1.39124 1.37917 0
M  V30 17419 H 1634.2 0.343123 0.663533 0
M  V30 17420 H 1636.86 1.4607 1.29034 0
M  V30 17421 H 1635.96 1.34978 2.81402 0
M  V30 17422 N 1636.26 -1.25243 0.956659 0
M  V30 17423 C 1637.19 -2.24251 0.422686 0
M  V30 17424 C 1638.17 -1.54815 -0.497106 0
M  V30 17425 O 1639.35 -1.83506 -0.431019 0
M  V30 17426 C 1636.48 -3.36436 -0.390996 0
M  V30 17427 C 1635.52 -4.23908 0.469484 0
M  V30 17428 S 1636.36 -5.00547 1.90297 0
M  V30 17429 C 1637.51 -6.16198 1.09777 0
M  V30 17430 H 1637.75 -2.69197 1.26175 0
M  V30 17431 H 1635.28 -1.3435 0.76088 0
M  V30 17432 H 1637.24 -4.01508 -0.854516 0
M  V30 17433 H 1635.9 -2.9007 -1.20491 0
M  V30 17434 H 1635.09 -5.03763 -0.154694 0
M  V30 17435 H 1634.69 -3.63781 0.868294 0
M  V30 17436 H 1636.99 -6.76609 0.347418 0
M  V30 17437 H 1637.93 -6.82953 1.87031 0
M  V30 17438 H 1638.34 -5.61007 0.627003 0
M  V30 17439 N 1637.73 -0.725468 -1.3991 0
M  V30 17440 C 1638.64 -0.0805887 -2.34462 0
M  V30 17441 C 1639.66 0.732689 -1.57822 0
M  V30 17442 O 1640.84 0.663362 -1.90162 0
M  V30 17443 C 1637.9 0.822908 -3.36792 0
M  V30 17444 C 1636.96 -0.00153812 -4.293 0
M  V30 17445 C 1636.2 0.85893 -5.26743 0
M  V30 17446 O 1636.42 2.09793 -5.30418 0
M  V30 17447 O 1635.35 0.292659 -6.01188 0
M  V30 17448 H 1639.18 -0.860746 -2.91247 0
M  V30 17449 H 1636.76 -0.48604 -1.41273 0
M  V30 17450 H 1638.65 1.34014 -3.99522 0
M  V30 17451 H 1637.32 1.58204 -2.82406 0
M  V30 17452 H 1636.23 -0.564072 -3.69823 0
M  V30 17453 H 1637.56 -0.722675 -4.86866 0
M  V30 17454 N 1639.21 1.50354 -0.472382 0
M  V30 17455 C 1640.46 2.01526 0.0838536 0
M  V30 17456 C 1640.77 1.35913 1.40667 0
M  V30 17457 O 1641.98 1.78248 2.04792 0
M  V30 17458 C 1640.44 3.59344 0.199949 0
M  V30 17459 C 1640.04 4.33916 -1.11451 0
M  V30 17460 C 1641.79 4.18553 0.708075 0
M  V30 17461 C 1639.7 5.83521 -0.962138 0
M  V30 17462 H 1638.63 0.753182 0.0351127 0
M  V30 17463 H 1641.28 1.73153 -0.607474 0
M  V30 17464 H 1639.66 3.8431 0.955088 0
M  V30 17465 H 1640.83 4.20673 -1.8807 0
M  V30 17466 H 1639.15 3.86322 -1.55385 0
M  V30 17467 H 1641.74 5.28075 0.839126 0
M  V30 17468 H 1642.09 3.80019 1.69973 0
M  V30 17469 H 1642.62 3.97799 0.0102847 0
M  V30 17470 H 1639.36 6.26529 -1.9272 0
M  V30 17471 H 1638.88 5.99334 -0.236348 0
M  V30 17472 H 1640.56 6.43933 -0.629276 0
M  V30 17473 N 1640.69 0.205039 1.56261 0
M  V30 17474 C 1642.11 -0.150644 1.58887 0
M  V30 17475 C 1642.31 -1.60256 1.22148 0
M  V30 17476 O 1641.36 -2.33991 0.948912 0
M  V30 17477 C 1642.68 0.160711 3.0027 0
M  V30 17478 C 1644.22 0.101616 3.12835 0
M  V30 17479 C 1644.7 0.386417 4.56367 0
M  V30 17480 N 1646.19 0.335392 4.61984 0
M  V30 17481 C 1646.93 0.529473 5.7095 0
M  V30 17482 N 1646.42 0.784441 6.88345 0
M  V30 17483 N 1648.21 0.463044 5.6019 0
M  V30 17484 H 1640.37 1.15238 1.78421 0
M  V30 17485 H 1642.63 0.460698 0.82853 0
M  V30 17486 H 1642.33 1.1678 3.31746 0
M  V30 17487 H 1642.21 -0.532067 3.73429 0
M  V30 17488 H 1644.6 -0.896093 2.81166 0
M  V30 17489 H 1644.68 0.827622 2.42041 0
M  V30 17490 H 1644.32 1.38149 4.88751 0
M  V30 17491 H 1644.25 -0.360592 5.25364 0
M  V30 17492 H 1646.74 0.145346 3.7762 0
M  V30 17493 H 1647.05 0.921077 7.67291 0
M  V30 17494 H 1645.4 0.821448 6.90128 0
M  V30 17495 H 1648.59 0.2642 4.67354 0
M  V30 17496 H 1648.76 0.617712 6.45049 0
M  V30 17497 N 1642.17 -1.57451 -0.0684915 0
M  V30 17498 C 1643.58 -1.76107 -0.619932 0
M  V30 17499 C 1643.93 -0.830939 -1.77735 0
M  V30 17500 O 1643.06 -0.0158481 -2.16394 0
M  V30 17501 C 1643.65 -3.19352 -1.13136 0
M  V30 17502 C 1642.21 -3.39341 -1.62864 0
M  V30 17503 C 1641.36 -2.71801 -0.549477 0
M  V30 17504 H 1644.31 -1.57915 0.157689 0
M  V30 17505 H 1644.33 -3.23693 -2.00008 0
M  V30 17506 H 1643.84 -3.87024 -0.288762 0
M  V30 17507 H 1641.94 -2.76787 -2.49438 0
M  V30 17508 H 1642.06 -4.47799 -1.70331 0
M  V30 17509 H 1640.42 -2.34448 -0.995302 0
M  V30 17510 H 1641.2 -3.42132 0.282995 0
M  V30 17511 N 1643.65 0.339955 -1.5389 0
M  V30 17512 C 1644.58 1.42316 -1.85117 0
M  V30 17513 C 1645.56 1.5473 -0.706591 0
M  V30 17514 O 1646.74 1.68879 -0.958834 0
M  V30 17515 C 1643.87 2.79317 -2.06396 0
M  V30 17516 C 1642.83 2.81707 -3.22219 0
M  V30 17517 C 1642.15 4.21627 -3.28838 0
M  V30 17518 C 1643.45 2.46921 -4.60247 0
M  V30 17519 H 1645.15 1.16431 -2.75834 0
M  V30 17520 H 1642.69 0.558661 -1.32721 0
M  V30 17521 H 1644.65 3.55145 -2.26826 0
M  V30 17522 H 1643.37 3.06644 -1.12414 0
M  V30 17523 H 1642.03 2.08332 -3.01651 0
M  V30 17524 H 1641.68 4.4607 -2.32444 0
M  V30 17525 H 1641.38 4.24137 -4.06672 0
M  V30 17526 H 1642.9 4.99292 -3.51482 0
M  V30 17527 H 1644.32 3.12462 -4.80667 0
M  V30 17528 H 1642.71 2.60707 -5.40511 0
M  V30 17529 H 1643.78 1.421 -4.63611 0
M  V30 17530 N 1645.13 1.45684 0.601159 0
M  V30 17531 C 1646.07 1.54846 1.71147 0
M  V30 17532 C 1647.04 0.393914 1.61361 0
M  V30 17533 O 1648.23 0.608222 1.80846 0
M  V30 17534 C 1645.37 1.52723 3.09467 0
M  V30 17535 C 1644.48 2.78776 3.30012 0
M  V30 17536 C 1643.62 2.68281 4.58474 0
M  V30 17537 C 1642.65 3.89358 4.72299 0
M  V30 17538 N 1641.79 3.77359 5.92068 0
M  V30 17539 H 1646.63 2.49696 1.62653 0
M  V30 17540 H 1644.17 1.23894 0.793006 0
M  V30 17541 H 1646.13 1.49479 3.89502 0
M  V30 17542 H 1644.76 0.614189 3.16903 0
M  V30 17543 H 1643.81 2.9208 2.43708 0
M  V30 17544 H 1645.12 3.68563 3.36099 0
M  V30 17545 H 1644.27 2.63039 5.46713 0
M  V30 17546 H 1643.01 1.76103 4.54795 0
M  V30 17547 H 1642.02 3.94952 3.82482 0
M  V30 17548 H 1643.24 4.82609 4.77771 0
M  V30 17549 H 1641.19 2.87955 5.89422 0
M  V30 17550 H 1641.11 4.60786 5.99343 0
M  V30 17551 H 1642.37 3.76061 6.82787 0
M  V30 17552 N 1646.6 -0.84422 1.33082 0
M  V30 17553 C 1647.51 -1.9858 1.24913 0
M  V30 17554 C 1648.53 -1.73256 0.160708 0
M  V30 17555 O 1649.71 -1.97719 0.383313 0
M  V30 17556 C 1646.77 -3.32471 0.983063 0
M  V30 17557 C 1645.83 -3.70946 2.16096 0
M  V30 17558 C 1645.06 -4.98448 1.90749 0
M  V30 17559 O 1645.29 -5.63953 0.855173 0
M  V30 17560 O 1644.22 -5.34301 2.7714 0
M  V30 17561 H 1648.05 -2.0841 2.20905 0
M  V30 17562 H 1645.63 -0.976447 1.13075 0
M  V30 17563 H 1647.51 -4.12705 0.851612 0
M  V30 17564 H 1646.19 -3.23656 0.053384 0
M  V30 17565 H 1645.1 -2.91244 2.34793 0
M  V30 17566 H 1646.43 -3.8442 3.07379 0
M  V30 17567 N 1648.08 -1.16463 -1.0618 0
M  V30 17568 C 1649.03 -0.87224 -2.13683 0
M  V30 17569 C 1650 0.179784 -1.65124 0
M  V30 17570 O 1651.18 0.0447406 -1.90748 0
M  V30 17571 C 1648.32 -0.380728 -3.42993 0
M  V30 17572 C 1647.44 -1.49571 -4.05281 0
M  V30 17573 C 1646.57 -0.959099 -5.2247 0
M  V30 17574 C 1645.61 -2.05021 -5.76743 0
M  V30 17575 N 1644.75 -1.5291 -6.85247 0
M  V30 17576 H 1649.59 -1.79288 -2.38033 0
M  V30 17577 H 1647.12 -0.894379 -1.16787 0
M  V30 17578 H 1649.08 -0.0773816 -4.17128 0
M  V30 17579 H 1647.71 0.502966 -3.18857 0
M  V30 17580 H 1646.76 -1.915 -3.28682 0
M  V30 17581 H 1648.08 -2.31904 -4.41613 0
M  V30 17582 H 1647.23 -0.609003 -6.03636 0
M  V30 17583 H 1645.97 -0.105086 -4.87587 0
M  V30 17584 H 1644.97 -2.40899 -4.94214 0
M  V30 17585 H 1646.2 -2.90821 -6.13678 0
M  V30 17586 H 1644.15 -0.697639 -6.5228 0
M  V30 17587 H 1644.06 -2.28859 -7.20527 0
M  V30 17588 H 1645.33 -1.20762 -7.70089 0
M  V30 17589 N 1649.56 1.24734 -0.963288 0
M  V30 17590 C 1650.47 2.29268 -0.497316 0
M  V30 17591 C 1651.49 1.68356 0.439572 0
M  V30 17592 O 1652.66 1.98942 0.313697 0
M  V30 17593 C 1649.73 3.46068 0.209261 0
M  V30 17594 C 1648.79 4.22394 -0.766907 0
M  V30 17595 C 1648.02 5.33617 -0.0939542 0
M  V30 17596 O 1648.24 5.59323 1.11864 0
M  V30 17597 O 1647.18 5.96774 -0.78388 0
M  V30 17598 H 1651 2.71235 -1.36622 0
M  V30 17599 H 1648.59 1.30344 -0.730126 0
M  V30 17600 H 1650.47 4.17015 0.606367 0
M  V30 17601 H 1649.15 3.06087 1.0532 0
M  V30 17602 H 1648.05 3.53841 -1.21439 0
M  V30 17603 H 1649.39 4.66181 -1.57912 0
M  V30 17604 N 1651.04 0.732878 1.39523 0
M  V30 17605 C 1651.95 0.0930216 2.34416 0
M  V30 17606 C 1652.96 -0.724309 1.58208 0
M  V30 17607 O 1654.14 -0.653267 1.90511 0
M  V30 17608 C 1651.2 -0.805036 3.37224 0
M  V30 17609 C 1650.27 0.0243049 4.29293 0
M  V30 17610 C 1649.5 -0.830984 5.27191 0
M  V30 17611 O 1649.72 -2.06977 5.31523 0
M  V30 17612 O 1648.66 -0.260772 6.01335 0
M  V30 17613 H 1652.48 0.876179 2.90786 0
M  V30 17614 H 1650.07 0.493525 1.41013 0
M  V30 17615 H 1651.95 -1.31894 4.00228 0
M  V30 17616 H 1650.62 -1.56704 2.83241 0
M  V30 17617 H 1649.53 0.583677 3.69519 0
M  V30 17618 H 1650.86 0.748485 4.86476 0
M  V30 17619 N 1652.52 -1.50101 0.480349 0
M  V30 17620 C 1653.46 -2.30347 -0.322924 0
M  V30 17621 C 1654.46 -1.3804 -0.981904 0
M  V30 17622 O 1655.66 -1.55188 -0.91195 0
M  V30 17623 H 1652.04 -0.741875 -0.122985 0
M  V30 17624 H 1654.01 -2.96045 0.374155 0
M  V30 17625 C 1652.76 -3.18844 -1.38686 0
M  V30 17626 H 1652.08 -3.89787 -0.889181 0
M  V30 17627 H 1653.52 -3.77971 -1.9213 0
M  V30 17628 C 1651.98 -2.37058 -2.39385 0
M  V30 17629 O 1652.51 -2.06016 -3.44848 0
M  V30 17630 N 1650.72 -1.99465 -2.11334 0
M  V30 17631 H 1650.26 -2.24909 -1.25593 0
M  V30 17632 H 1650.22 -1.45048 -2.78942 0
M  V30 17633 N 1653.99 -0.213323 -1.5615 0
M  V30 17634 C 1654.92 0.695003 -2.22917 0
M  V30 17635 C 1655.9 1.20738 -1.19818 0
M  V30 17636 O 1657.09 1.25289 -1.48379 0
M  V30 17637 C 1654.22 1.90685 -2.9027 0
M  V30 17638 C 1653.17 1.52865 -3.9977 0
M  V30 17639 C 1652.5 2.81859 -4.54378 0
M  V30 17640 C 1653.8 0.724829 -5.17246 0
M  V30 17641 H 1655.49 0.138351 -2.9908 0
M  V30 17642 H 1653.04 0.0651029 -1.43853 0
M  V30 17643 H 1654.99 2.54766 -3.35667 0
M  V30 17644 H 1653.72 2.48833 -2.11541 0
M  V30 17645 H 1652.38 0.911336 -3.55092 0
M  V30 17646 H 1652.02 3.38135 -3.72389 0
M  V30 17647 H 1651.72 2.57291 -5.28275 0
M  V30 17648 H 1653.25 3.46897 -5.02489 0
M  V30 17649 H 1654.66 1.26915 -5.59076 0
M  V30 17650 H 1653.06 0.57656 -5.97324 0
M  V30 17651 H 1654.13 -0.270309 -4.84146 0
M  V30 17652 N 1655.47 1.57485 0.0601405 0
M  V30 17653 C 1656.72 1.88094 0.758192 0
M  V30 17654 C 1657.05 0.807138 1.76632 0
M  V30 17655 O 1656.33 -0.181347 1.93653 0
M  V30 17656 C 1656.61 3.29363 1.45574 0
M  V30 17657 C 1656.46 4.47408 0.463233 0
M  V30 17658 C 1657.78 3.69048 2.39773 0
M  V30 17659 H 1654.9 0.684106 0.274169 0
M  V30 17660 H 1657.54 1.89988 0.0212215 0
M  V30 17661 H 1655.69 3.27879 2.08393 0
M  V30 17662 H 1657.36 4.6102 -0.160641 0
M  V30 17663 H 1655.61 4.3324 -0.220408 0
M  V30 17664 H 1656.28 5.43065 0.989164 0
M  V30 17665 H 1658.75 3.71701 1.87024 0
M  V30 17666 H 1657.63 4.68761 2.85577 0
M  V30 17667 H 1657.89 2.9961 3.25094 0
M  V30 17668 N 1656.95 -0.331789 1.54068 0
M  V30 17669 C 1658.18 -1.09484 1.76148 0
M  V30 17670 C 1658.6 -1.81201 0.504772 0
M  V30 17671 O 1657.96 -1.7297 -0.54325 0
M  V30 17672 C 1658.01 -2.07495 2.94921 0
M  V30 17673 O 1657.11 -3.15239 2.65891 0
M  V30 17674 H 1656.45 -0.316071 0.583948 0
M  V30 17675 H 1658.98 -0.378593 2.01067 0
M  V30 17676 H 1658.99 -2.5051 3.22038 0
M  V30 17677 H 1657.67 -1.54696 3.8606 0
M  V30 17678 H 1656.24 -2.76958 2.49697 0
M  V30 17679 N 1658.43 -1.46001 -0.593424 0
M  V30 17680 C 1659.65 -1.54541 -1.38318 0
M  V30 17681 C 1660.08 -0.183555 -1.87202 0
M  V30 17682 O 1659.44 0.834407 -1.60958 0
M  V30 17683 C 1659.48 -2.54559 -2.55405 0
M  V30 17684 O 1658.59 -2.07321 -3.56499 0
M  V30 17685 H 1657.93 -0.520434 -0.412364 0
M  V30 17686 H 1660.46 -1.9148 -0.720862 0
M  V30 17687 H 1660.47 -2.73823 -3.02465 0
M  V30 17688 H 1659.14 -3.53461 -2.19176 0
M  V30 17689 H 1657.72 -1.97997 -3.15993 0
M  V30 17690 N 1659.91 0.83715 -1.33527 0
M  V30 17691 C 1660.84 1.96231 -1.26553 0
M  V30 17692 C 1661.82 1.69474 -0.14576 0
M  V30 17693 O 1663 1.91274 -0.335815 0
M  V30 17694 C 1660.13 3.32419 -1.00574 0
M  V30 17695 C 1659.09 3.73577 -2.08864 0
M  V30 17696 C 1658.41 5.07591 -1.68095 0
M  V30 17697 C 1659.71 3.87179 -3.50556 0
M  V30 17698 H 1661.41 2.02324 -2.20693 0
M  V30 17699 H 1658.95 0.972038 -1.06242 0
M  V30 17700 H 1660.91 4.10703 -0.943439 0
M  V30 17701 H 1659.63 3.26587 -0.0287268 0
M  V30 17702 H 1658.29 2.97557 -2.14139 0
M  V30 17703 H 1657.94 4.98232 -0.690922 0
M  V30 17704 H 1657.64 5.361 -2.40563 0
M  V30 17705 H 1659.16 5.88349 -1.63334 0
M  V30 17706 H 1660.57 4.55771 -3.47772 0
M  V30 17707 H 1658.97 4.27127 -4.21524 0
M  V30 17708 H 1660.04 2.8958 -3.88936 0
M  V30 17709 N 1661.38 1.17024 1.05561 0
M  V30 17710 C 1662.63 0.957742 1.7876 0
M  V30 17711 C 1662.96 -0.512652 1.87311 0
M  V30 17712 O 1662.24 -1.38047 1.37016 0
M  V30 17713 C 1662.52 1.59495 3.22852 0
M  V30 17714 C 1662.37 3.13719 3.22336 0
M  V30 17715 C 1663.69 1.29576 4.20593 0
M  V30 17716 H 1660.81 0.349354 0.648938 0
M  V30 17717 H 1663.45 1.44467 1.23408 0
M  V30 17718 H 1661.6 1.18091 3.70117 0
M  V30 17719 H 1663.28 3.64156 2.83175 0
M  V30 17720 H 1661.52 3.46664 2.60781 0
M  V30 17721 H 1662.19 3.5343 4.24018 0
M  V30 17722 H 1664.67 1.65423 3.81804 0
M  V30 17723 H 1663.54 1.76751 5.19663 0
M  V30 17724 H 1663.8 0.21589 4.41573 0
M  V30 17725 N 1662.86 -1.24221 0.969889 0
M  V30 17726 C 1664.09 -1.96403 0.650658 0
M  V30 17727 C 1664.51 -1.71919 -0.780339 0
M  V30 17728 O 1663.86 -1.00427 -1.52383 0
M  V30 17729 C 1663.91 -3.49636 0.918542 0
M  V30 17730 O 1663.63 -3.73283 2.29328 0
M  V30 17731 C 1665.14 -4.3903 0.613803 0
M  V30 17732 H 1662.36 -0.625614 0.242587 0
M  V30 17733 H 1664.9 -1.57992 1.29842 0
M  V30 17734 H 1663.05 -3.86101 0.316959 0
M  V30 17735 H 1663.47 -4.67649 2.37496 0
M  V30 17736 H 1664.94 -5.4539 0.851679 0
M  V30 17737 H 1665.42 -4.36868 -0.451976 0
M  V30 17738 H 1666.03 -4.08155 1.19539 0
M  V30 17739 N 1664.34 -0.740267 -1.39132 0
M  V30 17740 C 1665.3 -0.112183 -2.28925 0
M  V30 17741 C 1666.3 0.661598 -1.46559 0
M  V30 17742 O 1667.49 0.489835 -1.67171 0
M  V30 17743 C 1664.63 0.850121 -3.3013 0
M  V30 17744 H 1665.82 -0.903339 -2.85972 0
M  V30 17745 H 1663.37 -0.506427 -1.47868 0
M  V30 17746 H 1664.11 1.66744 -2.78149 0
M  V30 17747 H 1663.89 0.297847 -3.90967 0
M  V30 17748 H 1665.38 1.28599 -3.97306 0
M  V30 17749 N 1665.82 1.49844 -0.488302 0
M  V30 17750 C 1667.07 2.02009 0.0605782 0
M  V30 17751 C 1667.39 1.37114 1.38653 0
M  V30 17752 O 1666.66 0.522182 1.88812 0
M  V30 17753 H 1665.24 0.746569 0.0253773 0
M  V30 17754 H 1667.9 1.84 -0.64265 0
M  V30 17755 H 1667 3.11461 0.199542 0
M  V30 17756 N 1667.3 0.221601 1.56034 0
M  V30 17757 C 1668.25 -0.701876 2.16928 0
M  V30 17758 C 1669.23 -1.1575 1.11762 0
M  V30 17759 O 1670.42 -1.11148 1.3775 0
M  V30 17760 C 1667.55 -1.90977 2.85277 0
M  V30 17761 C 1666.64 -1.47382 3.97667 0
M  V30 17762 N 1667.03 -0.750469 5.00202 0
M  V30 17763 C 1665.33 -1.7611 4.09757 0
M  V30 17764 C 1666.03 -0.528168 5.79297 0
M  V30 17765 N 1665 -1.08488 5.32664 0
M  V30 17766 H 1668.81 -0.14079 2.93563 0
M  V30 17767 H 1666.32 0.0228611 1.62384 0
M  V30 17768 H 1668.32 -2.5821 3.27312 0
M  V30 17769 H 1666.98 -2.47532 2.10138 0
M  V30 17770 H 1667.99 -0.403152 5.16328 0
M  V30 17771 H 1664.66 -2.33986 3.4577 0
M  V30 17772 H 1666.05 0.0475532 6.71883 0
M  V30 17773 N 1668.77 -1.57515 -0.0517878 0
M  V30 17774 C 1670.02 -1.87843 -0.745624 0
M  V30 17775 C 1670.34 -0.816318 -1.77091 0
M  V30 17776 O 1669.61 0.152784 -1.95303 0
M  V30 17777 H 1668.19 -0.693194 -0.278372 0
M  V30 17778 H 1670.86 -1.94886 -0.0231267 0
M  V30 17779 H 1669.95 -2.86001 -1.2494 0
M  V30 17780 N 1670.25 0.323614 -1.54242 0
M  V30 17781 C 1671.19 1.41936 -1.79963 0
M  V30 17782 C 1672.2 1.47845 -0.681604 0
M  V30 17783 O 1673.39 1.50569 -0.95871 0
M  V30 17784 C 1670.49 2.80472 -1.90233 0
M  V30 17785 C 1669.66 2.97768 -3.20395 0
M  V30 17786 C 1668.72 4.16664 -3.21368 0
M  V30 17787 O 1667.75 4.09827 -3.95007 0
M  V30 17788 N 1668.95 5.26196 -2.45148 0
M  V30 17789 H 1671.71 1.20235 -2.74524 0
M  V30 17790 H 1669.27 0.513599 -1.53538 0
M  V30 17791 H 1671.27 3.58219 -1.88312 0
M  V30 17792 H 1669.84 2.95224 -1.02769 0
M  V30 17793 H 1669.06 2.07322 -3.35278 0
M  V30 17794 H 1670.34 3.06219 -4.06334 0
M  V30 17795 H 1669.74 5.34626 -1.84909 0
M  V30 17796 H 1668.3 6.02362 -2.49004 0
M  V30 17797 N 1671.73 1.46313 0.585673 0
M  V30 17798 C 1672.98 1.50738 1.34019 0
M  V30 17799 C 1673.29 0.162245 1.94926 0
M  V30 17800 O 1674.5 0.0842676 2.71369 0
M  V30 17801 C 1672.96 2.65592 2.42876 0
M  V30 17802 C 1672.56 4.06513 1.88285 0
M  V30 17803 C 1674.31 2.79284 3.19689 0
M  V30 17804 C 1672.21 5.12712 2.94754 0
M  V30 17805 H 1671.14 0.560979 0.503804 0
M  V30 17806 H 1673.8 1.72516 0.625344 0
M  V30 17807 H 1672.18 2.37138 3.17146 0
M  V30 17808 H 1673.35 4.44744 1.20578 0
M  V30 17809 H 1671.67 3.97462 1.2415 0
M  V30 17810 H 1674.26 3.55795 3.99142 0
M  V30 17811 H 1674.61 1.86694 3.7209 0
M  V30 17812 H 1675.14 3.0737 2.52525 0
M  V30 17813 H 1671.88 6.07084 2.47244 0
M  V30 17814 H 1671.4 4.79028 3.6096 0
M  V30 17815 H 1673.08 5.38426 3.58757 0
M  V30 17816 N 1673.21 -0.830057 1.33969 0
M  V30 17817 C 1674.49 -1.57112 1.16513 0
M  V30 17818 C 1674.87 -2.09429 -0.265075 0
M  V30 17819 O 1674.21 -1.90263 -1.26539 0
M  V30 17820 C 1674.42 -2.69808 2.2137 0
M  V30 17821 C 1675.77 -3.38761 2.55981 0
M  V30 17822 O 1676.8 -2.80058 2.20104 0
M  V30 17823 O 1675.66 -4.44753 3.1758 0
M  V30 17824 H 1672.75 -0.693066 0.451207 0
M  V30 17825 H 1675.3 -0.872048 1.4558 0
M  V30 17826 H 1674.07 -2.28852 3.17399 0
M  V30 17827 H 1673.69 -3.47372 1.93439 0
M  V30 17828 N 1674.69 -1.17582 -1.04939 0
M  V30 17829 C 1675.64 -0.891102 -2.14854 0
M  V30 17830 C 1676.63 0.145242 -1.68776 0
M  V30 17831 O 1677.84 -0.00207978 -1.8 0
M  V30 17832 H 1674.21 -0.270641 -0.701611 0
M  V30 17833 H 1676.18 -1.82519 -2.36071 0
M  V30 17834 C 1674.93 -0.423679 -3.45109 0
M  V30 17835 H 1674.25 -1.2126 -3.80967 0
M  V30 17836 H 1675.69 -0.263369 -4.23181 0
M  V30 17837 C 1674.15 0.859085 -3.25763 0
M  V30 17838 O 1674.68 1.9253 -3.52555 0
M  V30 17839 N 1672.89 0.80824 -2.79134 0
M  V30 17840 H 1672.44 -0.0596431 -2.57531 0
M  V30 17841 H 1672.39 1.66697 -2.6657 0
M  V30 17842 N 1676.17 1.23705 -0.976463 0
M  V30 17843 C 1677.41 1.92015 -0.643168 0
M  V30 17844 C 1677.74 1.76239 0.822796 0
M  V30 17845 O 1677 1.11469 1.60851 0
M  V30 17846 C 1677.29 3.43853 -0.974676 0
M  V30 17847 C 1676.96 3.79805 -2.43021 0
M  V30 17848 C 1675.62 3.89329 -2.82801 0
M  V30 17849 C 1677.97 3.97218 -3.37442 0
M  V30 17850 C 1675.3 4.13691 -4.16025 0
M  V30 17851 C 1677.65 4.23079 -4.70305 0
M  V30 17852 C 1676.32 4.30824 -5.0985 0
M  V30 17853 H 1675.59 0.702631 -0.235352 0
M  V30 17854 H 1678.24 1.46811 -1.22959 0
M  V30 17855 H 1676.54 3.90602 -0.306121 0
M  V30 17856 H 1678.24 3.9493 -0.695061 0
M  V30 17857 H 1674.83 3.72963 -2.11179 0
M  V30 17858 H 1679.01 3.89254 -3.07889 0
M  V30 17859 H 1674.27 4.17909 -4.46276 0
M  V30 17860 H 1678.44 4.35496 -5.4343 0
M  V30 17861 H 1676.07 4.49454 -6.13103 0
M  V30 17862 N 1677.64 0.747635 1.38738 0
M  V30 17863 C 1678.87 0.310484 2.05063 0
M  V30 17864 C 1679.29 -1.05078 1.56013 0
M  V30 17865 O 1678.65 -1.66842 0.709461 0
M  V30 17866 C 1678.7 0.335837 3.59033 0
M  V30 17867 O 1677.8 -0.672218 4.06884 0
M  V30 17868 H 1677.14 0.138591 0.649375 0
M  V30 17869 H 1679.67 1.01709 1.77529 0
M  V30 17870 H 1679.68 0.184631 4.07582 0
M  V30 17871 H 1678.36 1.32906 3.94092 0
M  V30 17872 H 1676.94 -0.486112 3.69718 0
M  V30 17873 N 1679.12 -1.49583 0.496242 0
M  V30 17874 C 1680.05 -2.31885 -0.274139 0
M  V30 17875 C 1681.03 -1.39939 -0.96701 0
M  V30 17876 O 1682.22 -1.6885 -0.959333 0
M  V30 17877 C 1679.35 -3.20332 -1.34181 0
M  V30 17878 C 1678.3 -4.21033 -0.769091 0
M  V30 17879 C 1677.63 -4.98385 -1.93693 0
M  V30 17880 C 1678.93 -5.21764 0.236648 0
M  V30 17881 H 1680.62 -2.9654 0.412824 0
M  V30 17882 H 1678.17 -1.42605 0.199979 0
M  V30 17883 H 1680.12 -3.76718 -1.88843 0
M  V30 17884 H 1678.84 -2.53611 -2.05789 0
M  V30 17885 H 1677.5 -3.65785 -0.244252 0
M  V30 17886 H 1677.15 -4.28115 -2.64058 0
M  V30 17887 H 1676.85 -5.66519 -1.55981 0
M  V30 17888 H 1678.38 -5.57613 -2.48798 0
M  V30 17889 H 1679.79 -5.72871 -0.221672 0
M  V30 17890 H 1678.19 -5.97761 0.529346 0
M  V30 17891 H 1679.26 -4.70964 1.15415 0
M  V30 17892 N 1680.6 -0.229873 -1.55915 0
M  V30 17893 C 1681.85 0.398775 -1.98127 0
M  V30 17894 C 1682.17 1.597 -1.11897 0
M  V30 17895 O 1681.44 1.94898 -0.197868 0
M  V30 17896 H 1680.02 0.150323 -0.731719 0
M  V30 17897 H 1682.68 -0.324704 -1.92176 0
M  V30 17898 H 1681.78 0.719475 -3.03694 0
M  V30 17899 N 1682.08 1.5754 0.0434337 0
M  V30 17900 C 1683.33 1.87789 0.736074 0
M  V30 17901 C 1683.64 0.826466 1.77282 0
M  V30 17902 O 1684.85 1.01771 2.51704 0
M  V30 17903 C 1683.3 3.33207 1.36018 0
M  V30 17904 C 1682.91 4.46547 0.360532 0
M  V30 17905 C 1684.65 3.72623 2.03353 0
M  V30 17906 C 1682.56 5.83018 0.992167 0
M  V30 17907 H 1681.49 0.700614 0.278667 0
M  V30 17908 H 1684.14 1.83497 -0.00997697 0
M  V30 17909 H 1682.52 3.32199 2.15546 0
M  V30 17910 H 1683.7 4.58999 -0.406987 0
M  V30 17911 H 1682.01 4.1587 -0.209931 0
M  V30 17912 H 1684.61 4.71893 2.51437 0
M  V30 17913 H 1684.95 3.03874 2.84546 0
M  V30 17914 H 1685.49 3.75744 1.3062 0
M  V30 17915 H 1682.22 6.55131 0.219964 0
M  V30 17916 H 1681.74 5.74313 1.72987 0
M  V30 17917 H 1683.42 6.29283 1.50374 0
M  V30 17918 N 1683.56 -0.31543 1.54411 0
M  V30 17919 C 1684.49 -1.39353 1.87358 0
M  V30 17920 C 1685.47 -1.53586 0.731118 0
M  V30 17921 O 1686.65 -1.67332 0.98558 0
M  V30 17922 C 1683.78 -2.75998 2.10814 0
M  V30 17923 C 1682.74 -2.76545 3.2666 0
M  V30 17924 C 1682.06 -4.16343 3.35504 0
M  V30 17925 C 1683.36 -2.39567 4.64117 0
M  V30 17926 H 1685.06 -1.12028 2.77651 0
M  V30 17927 H 1682.6 -0.537476 1.33593 0
M  V30 17928 H 1684.55 -3.51491 2.32447 0
M  V30 17929 H 1683.28 -3.04817 1.17278 0
M  V30 17930 H 1681.94 -2.03507 3.04927 0
M  V30 17931 H 1681.59 -4.42316 2.39512 0
M  V30 17932 H 1681.29 -4.17613 4.13368 0
M  V30 17933 H 1682.81 -4.93637 3.59381 0
M  V30 17934 H 1684.22 -3.04775 4.85577 0
M  V30 17935 H 1682.62 -2.52075 5.4459 0
M  V30 17936 H 1683.69 -1.34707 4.65813 0
M  V30 17937 N 1685.03 -1.46622 -0.577906 0
M  V30 17938 C 1686.28 -1.5188 -1.3333 0
M  V30 17939 C 1686.6 -0.173993 -1.94222 0
M  V30 17940 O 1685.87 0.799972 -1.78822 0
M  V30 17941 H 1684.45 -0.559401 -0.495055 0
M  V30 17942 H 1687.12 -1.82785 -0.676449 0
M  V30 17943 H 1686.21 -2.27411 -2.13754 0
M  V30 17944 N 1686.51 0.822941 -1.34408 0
M  V30 17945 C 1687.45 1.93899 -1.20326 0
M  V30 17946 C 1688.42 1.62323 -0.0949083 0
M  V30 17947 O 1689.61 1.86698 -0.260056 0
M  V30 17948 C 1686.73 3.27884 -0.849118 0
M  V30 17949 C 1685.78 3.78421 -1.96723 0
M  V30 17950 S 1686.61 3.98182 -3.58066 0
M  V30 17951 C 1687.77 5.35094 -3.24693 0
M  V30 17952 H 1688 2.05547 -2.14797 0
M  V30 17953 H 1685.54 0.978513 -1.19434 0
M  V30 17954 H 1687.49 4.05296 -0.651579 0
M  V30 17955 H 1686.15 3.14005 0.0772533 0
M  V30 17956 H 1685.35 4.75416 -1.67318 0
M  V30 17957 H 1684.95 3.07955 -2.12225 0
M  V30 17958 H 1687.24 6.18507 -2.76507 0
M  V30 17959 H 1688.18 5.69482 -4.20828 0
M  V30 17960 H 1688.59 5.00604 -2.60876 0
M  V30 17961 N 1687.99 1.18137 1.04314 0
M  V30 17962 C 1688.95 0.908268 2.10436 0
M  V30 17963 C 1689.95 -0.105315 1.60455 0
M  V30 17964 O 1691.14 0.12785 1.7373 0
M  V30 17965 C 1688.28 0.362233 3.3897 0
M  V30 17966 H 1689.47 1.84928 2.36096 0
M  V30 17967 H 1687.02 0.993048 1.20699 0
M  V30 17968 H 1687.76 -0.58551 3.18971 0
M  V30 17969 H 1687.54 1.09285 3.76562 0
M  V30 17970 H 1689.03 0.18977 4.17169 0
M  V30 17971 N 1689.47 -1.23186 0.98301 0
M  V30 17972 C 1690.4 -2.27054 0.544858 0
M  V30 17973 C 1691.38 -1.64749 -0.423281 0
M  V30 17974 O 1692.56 -1.91611 -0.316075 0
M  V30 17975 C 1689.69 -3.46972 -0.150976 0
M  V30 17976 C 1688.65 -4.21647 0.734707 0
M  V30 17977 C 1687.97 -5.34618 -0.0934874 0
M  V30 17978 C 1689.27 -4.81372 2.02679 0
M  V30 17979 H 1690.97 -2.63957 1.41305 0
M  V30 17980 H 1688.51 -1.26885 0.680895 0
M  V30 17981 H 1690.47 -4.18784 -0.468825 0
M  V30 17982 H 1689.19 -3.09137 -1.05364 0
M  V30 17983 H 1687.85 -3.51655 1.03605 0
M  V30 17984 H 1687.5 -4.93025 -0.996768 0
M  V30 17985 H 1687.2 -5.85503 0.496019 0
M  V30 17986 H 1688.72 -6.09251 -0.405658 0
M  V30 17987 H 1690.14 -5.45178 1.77353 0
M  V30 17988 H 1688.53 -5.42554 2.56429 0
M  V30 17989 H 1689.6 -4.01972 2.71194 0
M  V30 17990 N 1690.95 -0.754982 -1.38339 0
M  V30 17991 C 1692.19 -0.311762 -2.00086 0
M  V30 17992 C 1692.52 1.10693 -1.59929 0
M  V30 17993 O 1691.78 1.77279 -0.8289 0
M  V30 17994 C 1692.08 -0.383719 -3.55334 0
M  V30 17995 C 1691.74 -1.75826 -4.15206 0
M  V30 17996 C 1690.4 -2.13443 -4.31272 0
M  V30 17997 C 1692.76 -2.65985 -4.4822 0
M  V30 17998 C 1690.08 -3.40689 -4.77649 0
M  V30 17999 C 1692.44 -3.92623 -4.96014 0
M  V30 18000 C 1691.1 -4.30307 -5.10286 0
M  V30 18001 H 1690.37 -0.114082 -0.732166 0
M  V30 18002 H 1693.02 -0.965735 -1.65366 0
M  V30 18003 H 1691.32 0.353817 -3.90199 0
M  V30 18004 H 1693.02 -0.022341 -4.00994 0
M  V30 18005 H 1689.61 -1.45585 -4.03117 0
M  V30 18006 H 1693.79 -2.38188 -4.35408 0
M  V30 18007 H 1689.05 -3.69802 -4.86884 0
M  V30 18008 H 1693.22 -4.62626 -5.20529 0
M  V30 18009 H 1690.85 -5.28968 -5.45982 0
M  V30 18010 N 1692.42 1.49318 -0.504168 0
M  V30 18011 C 1693.35 2.32027 0.261837 0
M  V30 18012 C 1694.34 1.4045 0.959575 0
M  V30 18013 O 1695.52 1.69357 0.950365 0
M  V30 18014 C 1692.65 3.21039 1.3248 0
M  V30 18015 C 1691.6 4.21435 0.746752 0
M  V30 18016 C 1690.93 4.99405 1.91047 0
M  V30 18017 C 1692.23 5.21631 -0.264315 0
M  V30 18018 H 1693.92 2.96317 -0.428544 0
M  V30 18019 H 1691.47 1.42497 -0.207539 0
M  V30 18020 H 1693.42 3.77714 1.86843 0
M  V30 18021 H 1692.15 2.54699 2.04441 0
M  V30 18022 H 1690.81 3.6591 0.22485 0
M  V30 18023 H 1690.45 4.29509 2.61784 0
M  V30 18024 H 1690.15 5.67338 1.52975 0
M  V30 18025 H 1691.68 5.58924 2.45837 0
M  V30 18026 H 1693.09 5.72981 0.191288 0
M  V30 18027 H 1691.49 5.97472 -0.561039 0
M  V30 18028 H 1692.56 4.70346 -1.17911 0
M  V30 18029 N 1693.9 0.238138 1.5579 0
M  V30 18030 C 1694.81 -0.676049 2.24648 0
M  V30 18031 C 1695.83 -1.20038 1.25964 0
M  V30 18032 O 1697 -1.2385 1.58818 0
M  V30 18033 C 1694.07 -1.86014 2.92574 0
M  V30 18034 C 1693.13 -1.37615 4.06646 0
M  V30 18035 C 1692.36 -2.5038 4.71323 0
M  V30 18036 O 1692.59 -3.68906 4.35045 0
M  V30 18037 O 1691.52 -2.20636 5.60003 0
M  V30 18038 H 1695.35 -0.119372 3.03465 0
M  V30 18039 H 1692.93 0.00699789 1.49398 0
M  V30 18040 H 1694.81 -2.55132 3.35389 0
M  V30 18041 H 1693.49 -2.4046 2.16704 0
M  V30 18042 H 1692.4 -0.652503 3.68366 0
M  V30 18043 H 1693.73 -0.877871 4.84308 0
M  V30 18044 N 1695.38 -1.57561 -0.0350783 0
M  V30 18045 C 1696.29 -2.09558 -1.05464 0
M  V30 18046 C 1697.31 -1.03288 -1.40027 0
M  V30 18047 O 1698.48 -1.34987 -1.49467 0
M  V30 18048 C 1695.55 -2.55966 -2.33842 0
M  V30 18049 C 1694.61 -3.76693 -2.05915 0
M  V30 18050 C 1693.84 -4.20878 -3.28172 0
M  V30 18051 O 1694.06 -3.64634 -4.38632 0
M  V30 18052 O 1693 -5.13367 -3.14225 0
M  V30 18053 H 1696.82 -2.9682 -0.642771 0
M  V30 18054 H 1694.41 -1.47265 -0.251668 0
M  V30 18055 H 1696.29 -2.86173 -3.09327 0
M  V30 18056 H 1694.97 -1.71818 -2.74336 0
M  V30 18057 H 1693.87 -3.51514 -1.28018 0
M  V30 18058 H 1695.21 -4.61807 -1.70281 0
M  V30 18059 N 1696.86 0.307236 -1.54576 0
M  V30 18060 C 1697.79 1.4031 -1.79968 0
M  V30 18061 C 1698.77 1.4902 -0.650513 0
M  V30 18062 O 1699.95 1.66178 -0.889778 0
M  V30 18063 C 1697.08 2.78274 -1.93083 0
M  V30 18064 C 1696.13 2.87017 -3.15473 0
M  V30 18065 S 1696.96 2.49751 -4.73693 0
M  V30 18066 C 1698.12 3.89755 -4.89736 0
M  V30 18067 H 1698.35 1.18562 -2.72636 0
M  V30 18068 H 1695.88 0.504999 -1.45908 0
M  V30 18069 H 1697.84 3.57741 -2.01325 0
M  V30 18070 H 1696.5 2.97295 -1.01364 0
M  V30 18071 H 1695.69 3.88196 -3.21434 0
M  V30 18072 H 1695.3 2.15539 -3.05645 0
M  V30 18073 H 1697.59 4.84687 -4.73376 0
M  V30 18074 H 1698.53 3.88768 -5.91832 0
M  V30 18075 H 1698.94 3.79468 -4.17928 0
M  V30 18076 N 1698.34 1.46926 0.570122 0
M  V30 18077 C 1699.27 1.61311 1.68822 0
M  V30 18078 C 1700.25 0.462964 1.63678 0
M  V30 18079 O 1701.43 0.690745 1.815 0
M  V30 18080 C 1698.56 1.61499 3.07466 0
M  V30 18081 C 1697.52 2.7561 3.27449 0
M  V30 18082 C 1696.84 2.60865 4.66748 0
M  V30 18083 C 1698.14 4.17324 3.14067 0
M  V30 18084 H 1699.84 2.54909 1.5704 0
M  V30 18085 H 1697.38 1.22677 0.754077 0
M  V30 18086 H 1699.34 1.70155 3.8552 0
M  V30 18087 H 1698.06 0.64453 3.20177 0
M  V30 18088 H 1696.72 2.66444 2.51799 0
M  V30 18089 H 1696.37 1.61875 4.76241 0
M  V30 18090 H 1696.07 3.37411 4.81069 0
M  V30 18091 H 1697.59 2.7143 5.46954 0
M  V30 18092 H 1699 4.27534 3.81952 0
M  V30 18093 H 1697.4 4.94555 3.39905 0
M  V30 18094 H 1698.47 4.36596 2.10979 0
M  V30 18095 N 1699.82 -0.815801 1.34842 0
M  V30 18096 C 1701.23 -1.10999 1.1468 0
M  V30 18097 C 1701.43 -2.01445 -0.0469339 0
M  V30 18098 O 1700.49 -2.42007 -0.720322 0
M  V30 18099 C 1701.8 -1.74984 2.44543 0
M  V30 18100 C 1703.35 -1.87447 2.50665 0
M  V30 18101 C 1703.82 -2.54848 3.80548 0
M  V30 18102 N 1705.31 -2.62341 3.81748 0
M  V30 18103 C 1706.05 -3.15239 4.7897 0
M  V30 18104 N 1705.55 -3.68646 5.86577 0
M  V30 18105 N 1707.34 -3.13706 4.66417 0
M  V30 18106 H 1699.49 -0.214351 2.11316 0
M  V30 18107 H 1701.75 -0.157666 0.934797 0
M  V30 18108 H 1701.46 -1.1599 3.32023 0
M  V30 18109 H 1701.33 -2.7478 2.5841 0
M  V30 18110 H 1703.72 -2.45587 1.63619 0
M  V30 18111 H 1703.8 -0.865325 2.40719 0
M  V30 18112 H 1703.44 -1.9736 4.67987 0
M  V30 18113 H 1703.37 -3.5628 3.87778 0
M  V30 18114 H 1705.87 -2.24493 3.03992 0
M  V30 18115 H 1706.18 -4.07281 6.56766 0
M  V30 18116 H 1704.52 -3.6687 5.90281 0
M  V30 18117 H 1707.71 -2.71255 3.81495 0
M  V30 18118 H 1707.89 -3.54626 5.4235 0
M  V30 18119 N 1701.29 -1.18689 -1.03686 0
M  V30 18120 C 1702.52 -1.00961 -1.80595 0
M  V30 18121 C 1702.94 0.44188 -1.83556 0
M  V30 18122 O 1702.29 1.30693 -1.27379 0
M  V30 18123 C 1702.34 -1.56185 -3.26019 0
M  V30 18124 O 1702.07 -2.95652 -3.23298 0
M  V30 18125 C 1703.57 -1.43129 -4.19558 0
M  V30 18126 H 1700.79 -0.356291 -0.568593 0
M  V30 18127 H 1703.33 -1.57324 -1.3065 0
M  V30 18128 H 1701.49 -1.03989 -3.73182 0
M  V30 18129 H 1701.9 -3.21481 -4.14427 0
M  V30 18130 H 1703.37 -1.86561 -5.19518 0
M  V30 18131 H 1703.85 -0.380581 -4.37548 0
M  V30 18132 H 1704.46 -1.94416 -3.78262 0
M  V30 18133 N 1702.77 1.22662 -0.989529 0
M  V30 18134 C 1704.19 1.43445 -0.699687 0
M  V30 18135 C 1704.39 1.87778 0.730875 0
M  V30 18136 O 1703.44 2.02953 1.5022 0
M  V30 18137 C 1704.76 2.47869 -1.70239 0
M  V30 18138 C 1706.3 2.61672 -1.71746 0
M  V30 18139 C 1706.78 3.69315 -2.7087 0
M  V30 18140 N 1708.27 3.76768 -2.69444 0
M  V30 18141 C 1709.01 4.59641 -3.42808 0
M  V30 18142 N 1708.5 5.46533 -4.25762 0
M  V30 18143 N 1710.29 4.53921 -3.3153 0
M  V30 18144 H 1702.45 0.921912 -1.91349 0
M  V30 18145 H 1704.71 0.466905 -0.825048 0
M  V30 18146 H 1704.41 2.22233 -2.7259 0
M  V30 18147 H 1704.29 3.46415 -1.49254 0
M  V30 18148 H 1706.68 2.86655 -0.70094 0
M  V30 18149 H 1706.76 1.63413 -1.96799 0
M  V30 18150 H 1706.4 3.4508 -3.72669 0
M  V30 18151 H 1706.33 4.67136 -2.43088 0
M  V30 18152 H 1708.82 3.1468 -2.09249 0
M  V30 18153 H 1709.13 6.06783 -4.78575 0
M  V30 18154 H 1707.48 5.46126 -4.2985 0
M  V30 18155 H 1710.67 3.85062 -2.66168 0
M  V30 18156 H 1710.84 5.18277 -3.88964 0
M  V30 18157 N 1704.25 0.762308 1.37937 0
M  V30 18158 C 1705.5 0.322846 2.00214 0
M  V30 18159 C 1705.83 -1.09513 1.60376 0
M  V30 18160 O 1705.1 -1.75165 0.845432 0
M  V30 18161 C 1705.39 0.455651 3.57206 0
M  V30 18162 C 1705.24 1.91537 4.06981 0
M  V30 18163 C 1706.56 -0.145758 4.39859 0
M  V30 18164 H 1703.68 0.118781 0.727365 0
M  V30 18165 H 1706.32 0.963585 1.63753 0
M  V30 18166 H 1704.47 -0.0898341 3.88396 0
M  V30 18167 H 1706.14 2.51983 3.86397 0
M  V30 18168 H 1704.38 2.42744 3.59524 0
M  V30 18169 H 1705.06 1.9594 5.16054 0
M  V30 18170 H 1707.53 0.31956 4.14871 0
M  V30 18171 H 1706.41 -0.0226441 5.48895 0
M  V30 18172 H 1706.67 -1.23504 4.24499 0
M  V30 18173 N 1705.73 -1.49049 0.51208 0
M  V30 18174 C 1706.98 -2.0208 -0.0284326 0
M  V30 18175 C 1707.3 -1.39303 -1.36454 0
M  V30 18176 O 1706.57 -0.552155 -1.87958 0
M  V30 18177 H 1705.15 -0.746878 -0.0134968 0
M  V30 18178 H 1707.81 -1.82954 0.671842 0
M  V30 18179 H 1706.9 -3.11739 -0.149966 0
M  V30 18180 N 1707.21 -0.246397 -1.55662 0
M  V30 18181 C 1708.43 0.382645 -2.03331 0
M  V30 18182 C 1708.85 1.51573 -1.12566 0
M  V30 18183 O 1708.21 1.81962 -0.139992 0
M  V30 18184 C 1708.26 0.890907 -3.5035 0
M  V30 18185 O 1707.98 -0.197023 -4.37657 0
M  V30 18186 C 1709.48 1.59069 -4.13778 0
M  V30 18187 H 1706.7 0.0909834 -0.664803 0
M  V30 18188 H 1709.24 -0.370113 -2.01123 0
M  V30 18189 H 1707.4 1.59385 -3.53094 0
M  V30 18190 H 1707.81 0.188846 -5.2416 0
M  V30 18191 H 1709.29 1.89805 -5.18342 0
M  V30 18192 H 1709.76 2.51248 -3.60238 0
M  V30 18193 H 1710.37 0.932333 -4.14955 0
M  V30 18194 N 1708.68 1.57577 0.026722 0
M  V30 18195 C 1709.63 2.06711 1.02661 0
M  V30 18196 C 1710.6 0.956754 1.35777 0
M  V30 18197 O 1711.79 1.22747 1.46074 0
M  V30 18198 C 1708.93 2.55321 2.32175 0
M  V30 18199 C 1708.04 3.80155 2.05197 0
M  V30 18200 C 1707.17 4.17368 3.28599 0
M  V30 18201 C 1706.21 5.35114 2.97186 0
M  V30 18202 N 1705.35 5.67747 4.13046 0
M  V30 18203 H 1710.19 2.91884 0.600666 0
M  V30 18204 H 1707.73 1.44313 0.284968 0
M  V30 18205 H 1709.68 2.81572 3.07853 0
M  V30 18206 H 1708.31 1.73061 2.72488 0
M  V30 18207 H 1707.37 3.60975 1.20006 0
M  V30 18208 H 1708.68 4.65949 1.78026 0
M  V30 18209 H 1707.83 4.4476 4.12642 0
M  V30 18210 H 1706.57 3.30231 3.58886 0
M  V30 18211 H 1705.58 5.07473 2.11545 0
M  V30 18212 H 1706.8 6.23906 2.68175 0
M  V30 18213 H 1704.75 4.83569 4.4328 0
M  V30 18214 H 1704.66 6.48056 3.89307 0
M  V30 18215 H 1705.93 5.99717 4.97956 0
M  V30 18216 N 1710.16 -0.299034 1.54737 0
M  V30 18217 C 1711.11 -1.37055 1.82208 0
M  V30 18218 C 1712.1 -1.45855 0.679357 0
M  V30 18219 O 1713.29 -1.49974 0.940044 0
M  V30 18220 C 1710.42 -2.73525 2.07459 0
M  V30 18221 C 1709.5 -2.6894 3.27921 0
M  V30 18222 N 1709.89 -2.33972 4.48432 0
M  V30 18223 C 1708.19 -3.0004 3.29988 0
M  V30 18224 C 1708.89 -2.38734 5.30454 0
M  V30 18225 N 1707.87 -2.76167 4.68223 0
M  V30 18226 H 1711.67 -1.08986 2.72945 0
M  V30 18227 H 1709.18 -0.507618 1.54263 0
M  V30 18228 H 1711.18 -3.50787 2.25287 0
M  V30 18229 H 1709.84 -3.02503 1.1799 0
M  V30 18230 H 1710.85 -2.06392 4.74998 0
M  V30 18231 H 1707.53 -3.33901 2.50632 0
M  V30 18232 H 1708.92 -2.1448 6.36748 0
M  V30 18233 N 1711.64 -1.47227 -0.562322 0
M  V30 18234 C 1712.6 -1.58887 -1.6519 0
M  V30 18235 C 1713.6 -0.464359 -1.53949 0
M  V30 18236 O 1714.79 -0.729279 -1.582 0
M  V30 18237 C 1711.92 -1.52853 -3.04711 0
M  V30 18238 H 1713.12 -2.5601 -1.56202 0
M  V30 18239 H 1710.67 -1.35341 -0.781832 0
M  V30 18240 H 1711.41 -0.570867 -3.19236 0
M  V30 18241 H 1711.19 -2.3446 -3.14279 0
M  V30 18242 H 1712.68 -1.6414 -3.83989 0
M  V30 18243 N 1713.12 0.808639 -1.35273 0
M  V30 18244 C 1714.37 1.56071 -1.27768 0
M  V30 18245 C 1714.68 1.9505 0.146545 0
M  V30 18246 O 1715.89 2.69314 0.343855 0
M  V30 18247 C 1714.34 2.81648 -2.24059 0
M  V30 18248 C 1713.95 2.49915 -3.71815 0
M  V30 18249 C 1715.69 3.59658 -2.25492 0
M  V30 18250 C 1713.6 3.7177 -4.59936 0
M  V30 18251 H 1712.53 0.585811 -0.474701 0
M  V30 18252 H 1715.18 0.889051 -1.60525 0
M  V30 18253 H 1713.56 3.50514 -1.84271 0
M  V30 18254 H 1714.74 1.89068 -4.20226 0
M  V30 18255 H 1713.05 1.85154 -3.72971 0
M  V30 18256 H 1715.65 4.50162 -2.88545 0
M  V30 18257 H 1715.99 3.96835 -1.2581 0
M  V30 18258 H 1716.53 2.97751 -2.63798 0
M  V30 18259 H 1713.26 3.39704 -5.60608 0
M  V30 18260 H 1712.78 4.3185 -4.16252 0
M  V30 18261 H 1714.46 4.39022 -4.75256 0
M  V30 18262 N 1714.6 1.19237 1.03055 0
M  V30 18263 C 1715.53 0.95226 2.132 0
M  V30 18264 C 1716.51 -0.113771 1.69719 0
M  V30 18265 O 1717.69 0.0409057 1.94157 0
M  V30 18266 C 1714.82 0.488296 3.4385 0
M  V30 18267 C 1713.78 1.49597 4.01005 0
M  V30 18268 C 1713.1 0.889148 5.27255 0
M  V30 18269 C 1714.4 2.87571 4.36005 0
M  V30 18270 H 1716.1 1.87343 2.33544 0
M  V30 18271 H 1713.64 0.902172 1.12236 0
M  V30 18272 H 1715.6 0.307623 4.20276 0
M  V30 18273 H 1714.32 -0.468469 3.23223 0
M  V30 18274 H 1712.98 1.66376 3.26672 0
M  V30 18275 H 1712.63 -0.0751191 5.02944 0
M  V30 18276 H 1712.33 1.56202 5.66458 0
M  V30 18277 H 1713.85 0.719233 6.06349 0
M  V30 18278 H 1715.26 2.74384 5.03375 0
M  V30 18279 H 1713.66 3.51635 4.86285 0
M  V30 18280 H 1714.73 3.40353 3.45381 0
M  V30 18281 N 1716.07 -1.22136 0.99602 0
M  V30 18282 C 1717 -2.26463 0.568909 0
M  V30 18283 C 1717.99 -1.65189 -0.405783 0
M  V30 18284 O 1719.17 -1.91935 -0.295735 0
M  V30 18285 C 1716.3 -3.47112 -0.114166 0
M  V30 18286 C 1715.25 -4.20844 0.779387 0
M  V30 18287 C 1714.58 -5.34687 -0.0367787 0
M  V30 18288 C 1715.88 -4.79195 2.07773 0
M  V30 18289 H 1717.57 -2.62443 1.44097 0
M  V30 18290 H 1715.12 -1.26156 0.694314 0
M  V30 18291 H 1717.07 -4.19258 -0.424381 0
M  V30 18292 H 1715.8 -3.10238 -1.02079 0
M  V30 18293 H 1714.46 -3.50537 1.07329 0
M  V30 18294 H 1714.1 -4.94054 -0.94442 0
M  V30 18295 H 1713.8 -5.84944 0.558092 0
M  V30 18296 H 1715.33 -6.09647 -0.341016 0
M  V30 18297 H 1716.74 -5.43266 1.83126 0
M  V30 18298 H 1715.14 -5.39803 2.62169 0
M  V30 18299 H 1716.21 -3.99073 2.75442 0
M  V30 18300 N 1717.55 -0.769612 -1.37531 0
M  V30 18301 C 1718.8 -0.33346 -2.0004 0
M  V30 18302 C 1719.13 1.08661 -1.60955 0
M  V30 18303 O 1718.41 1.74714 -0.854709 0
M  V30 18304 C 1718.69 -0.474588 -3.56959 0
M  V30 18305 C 1718.54 -1.93692 -4.0596 0
M  V30 18306 C 1719.86 0.122429 -4.3993 0
M  V30 18307 H 1716.98 -0.122637 -0.726725 0
M  V30 18308 H 1719.62 -0.972255 -1.6324 0
M  V30 18309 H 1717.77 0.0692352 -3.88438 0
M  V30 18310 H 1719.44 -2.54028 -3.85055 0
M  V30 18311 H 1717.69 -2.44647 -3.58232 0
M  V30 18312 H 1718.36 -1.98674 -5.15008 0
M  V30 18313 H 1720.83 -0.341557 -4.14696 0
M  V30 18314 H 1719.71 -0.00646545 -5.489 0
M  V30 18315 H 1719.97 1.21251 -4.25148 0
M  V30 18316 N 1719.03 1.48775 -0.519977 0
M  V30 18317 C 1719.99 2.27967 0.237405 0
M  V30 18318 C 1720.99 1.34787 0.876868 0
M  V30 18319 O 1722.18 1.57773 0.738463 0
M  V30 18320 C 1719.32 3.13353 1.34248 0
M  V30 18321 H 1720.51 2.96386 -0.457753 0
M  V30 18322 H 1718.06 1.53852 -0.275569 0
M  V30 18323 H 1718.8 2.49543 2.0712 0
M  V30 18324 H 1718.58 3.81885 0.889187 0
M  V30 18325 H 1720.07 3.73116 1.87547 0
M  V30 18326 N 1720.51 0.254649 1.55529 0
M  V30 18327 C 1721.75 -0.368477 1.99424 0
M  V30 18328 C 1722.09 -1.57023 1.14269 0
M  V30 18329 O 1721.36 -1.93386 0.207886 0
M  V30 18330 C 1721.65 -0.77076 3.51755 0
M  V30 18331 C 1721.5 0.436923 4.47673 0
M  V30 18332 C 1722.82 -1.61487 4.09402 0
M  V30 18333 H 1719.94 -0.132459 0.724999 0
M  V30 18334 H 1722.58 0.357508 1.86606 0
M  V30 18335 H 1720.73 -1.38932 3.62809 0
M  V30 18336 H 1722.4 1.07541 4.4859 0
M  V30 18337 H 1720.64 1.07866 4.20175 0
M  V30 18338 H 1721.31 0.111996 5.51886 0
M  V30 18339 H 1723.79 -1.09265 4.01498 0
M  V30 18340 H 1722.67 -1.86519 5.16238 0
M  V30 18341 H 1722.93 -2.58926 3.58343 0
M  V30 18342 N 1721.99 -1.57589 -0.0183649 0
M  V30 18343 C 1723.21 -1.94421 -0.722172 0
M  V30 18344 C 1723.64 -0.855471 -1.67521 0
M  V30 18345 O 1722.99 0.187954 -1.80323 0
M  V30 18346 C 1723.04 -3.30331 -1.44615 0
M  V30 18347 O 1722.15 -3.23337 -2.55982 0
M  V30 18348 H 1721.49 -0.63519 -0.193466 0
M  V30 18349 H 1724.02 -2.04579 0.0293527 0
M  V30 18350 H 1724.03 -3.65471 -1.8137 0
M  V30 18351 H 1722.7 -4.09132 -0.747256 0
M  V30 18352 H 1721.28 -2.99845 -2.21692 0
M  V30 18353 N 1723.46 0.290824 -1.54893 0
M  V30 18354 C 1724.71 1.02475 -1.74657 0
M  V30 18355 C 1725.04 1.86915 -0.537885 0
M  V30 18356 O 1724.29 1.89722 0.479998 0
M  V30 18357 C 1724.59 1.95145 -2.99422 0
M  V30 18358 C 1724.26 1.26599 -4.32763 0
M  V30 18359 C 1722.92 1.07639 -4.69007 0
M  V30 18360 C 1725.27 0.776794 -5.15379 0
M  V30 18361 C 1722.6 0.38458 -5.85438 0
M  V30 18362 C 1724.95 0.0986614 -6.32523 0
M  V30 18363 C 1723.62 -0.102812 -6.67421 0
M  V30 18364 H 1722.89 0.374982 -0.639116 0
M  V30 18365 H 1725.53 0.298659 -1.89157 0
M  V30 18366 H 1723.84 2.74316 -2.79746 0
M  V30 18367 H 1725.54 2.5202 -3.11908 0
M  V30 18368 H 1722.13 1.42365 -4.04265 0
M  V30 18369 H 1726.31 0.91096 -4.87868 0
M  V30 18370 H 1721.57 0.217593 -6.11013 0
M  V30 18371 H 1725.74 -0.28825 -6.95803 0
M  V30 18372 H 1723.37 -0.640872 -7.57494 0
M  V30 18373 N 1724.94 1.47523 0.554506 0
M  V30 18374 C 1726.19 1.54515 1.3135 0
M  V30 18375 C 1726.52 0.207892 1.93084 0
M  V30 18376 O 1725.8 -0.783749 1.7801 0
M  V30 18377 C 1726.08 2.66519 2.42156 0
M  V30 18378 C 1725.93 4.0987 1.85274 0
M  V30 18379 C 1727.25 2.74418 3.44068 0
M  V30 18380 H 1724.37 0.562481 0.476219 0
M  V30 18381 H 1727.01 1.79591 0.620246 0
M  V30 18382 H 1725.16 2.45268 3.0129 0
M  V30 18383 H 1726.83 4.42492 1.3038 0
M  V30 18384 H 1725.08 4.18021 1.15934 0
M  V30 18385 H 1725.75 4.84017 2.65389 0
M  V30 18386 H 1728.22 2.93596 2.94857 0
M  V30 18387 H 1727.1 3.54557 4.19023 0
M  V30 18388 H 1727.36 1.81584 4.03088 0
M  V30 18389 N 1726.42 -0.801453 1.357 0
M  V30 18390 C 1727.65 -1.59001 1.32386 0
M  V30 18391 C 1728.06 -1.88548 -0.0975432 0
M  V30 18392 O 1727.42 -1.49199 -1.05099 0
M  V30 18393 C 1727.47 -2.91822 2.13359 0
M  V30 18394 O 1727.19 -2.63554 3.49958 0
M  V30 18395 C 1728.69 -3.86169 2.17689 0
M  V30 18396 H 1725.91 -0.493557 0.45458 0
M  V30 18397 H 1728.46 -0.995616 1.78627 0
M  V30 18398 H 1726.61 -3.47763 1.70704 0
M  V30 18399 H 1727.03 -3.48397 3.92071 0
M  V30 18400 H 1728.5 -4.76461 2.78727 0
M  V30 18401 H 1728.98 -4.23134 1.17704 0
M  V30 18402 H 1729.58 -3.36163 2.60527 0
M  V30 18403 N 1727.9 -1.19782 -1.02421 0
M  V30 18404 C 1728.83 -0.963553 -2.12692 0
M  V30 18405 C 1729.81 0.104769 -1.69777 0
M  V30 18406 O 1730.99 -0.0512017 -1.94132 0
M  V30 18407 C 1728.12 -0.506525 -3.43586 0
M  V30 18408 C 1727.08 -1.51722 -4.00206 0
M  V30 18409 C 1726.4 -0.917097 -5.26776 0
M  V30 18410 C 1727.7 -2.89879 -4.34474 0
M  V30 18411 H 1729.4 -1.88579 -2.32547 0
M  V30 18412 H 1726.94 -0.908111 -1.11756 0
M  V30 18413 H 1728.9 -0.329907 -4.20107 0
M  V30 18414 H 1727.62 0.451322 -3.23467 0
M  V30 18415 H 1726.28 -1.68106 -3.25785 0
M  V30 18416 H 1725.93 0.0484457 -5.02977 0
M  V30 18417 H 1725.63 -1.59204 -5.65622 0
M  V30 18418 H 1727.15 -0.751379 -6.05959 0
M  V30 18419 H 1728.57 -2.7705 -5.01913 0
M  V30 18420 H 1726.96 -3.54209 -4.84413 0
M  V30 18421 H 1728.03 -3.42179 -3.43571 0
M  V30 18422 N 1729.38 1.21606 -1.00248 0
M  V30 18423 C 1730.63 1.89922 -0.679152 0
M  V30 18424 C 1730.94 1.78793 0.793246 0
M  V30 18425 O 1732.15 2.42113 1.22856 0
M  V30 18426 C 1730.6 3.40548 -1.16427 0
M  V30 18427 C 1730.21 3.60293 -2.66257 0
M  V30 18428 C 1731.95 4.14506 -0.915714 0
M  V30 18429 C 1729.86 5.04669 -3.08323 0
M  V30 18430 H 1728.79 0.711232 -0.250329 0
M  V30 18431 H 1731.44 1.37663 -1.21331 0
M  V30 18432 H 1729.82 3.92046 -0.558177 0
M  V30 18433 H 1731 3.19245 -3.32294 0
M  V30 18434 H 1729.31 2.99683 -2.891 0
M  V30 18435 H 1731.91 5.20932 -1.20558 0
M  V30 18436 H 1732.25 4.16037 0.148068 0
M  V30 18437 H 1732.79 3.69064 -1.48448 0
M  V30 18438 H 1729.52 5.08284 -4.13917 0
M  V30 18439 H 1729.04 5.46583 -2.46996 0
M  V30 18440 H 1730.72 5.7316 -3.00162 0
M  V30 18441 N 1730.86 0.776895 1.37121 0
M  V30 18442 C 1732.08 0.355097 2.0383 0
M  V30 18443 C 1732.5 -1.02441 1.58591 0
M  V30 18444 O 1731.86 -1.65482 0.769533 0
M  V30 18445 C 1731.91 0.394984 3.59336 0
M  V30 18446 O 1731.63 1.72008 4.0292 0
M  V30 18447 C 1733.13 -0.0377636 4.43284 0
M  V30 18448 H 1730.35 0.148056 0.654462 0
M  V30 18449 H 1732.89 1.05225 1.75351 0
M  V30 18450 H 1731.05 -0.253638 3.86569 0
M  V30 18451 H 1731.46 1.66225 4.97463 0
M  V30 18452 H 1732.94 0.0412956 5.51985 0
M  V30 18453 H 1733.41 -1.08881 4.2549 0
M  V30 18454 H 1734.02 0.582867 4.21287 0
M  V30 18455 N 1732.33 -1.48497 0.527859 0
M  V30 18456 C 1733.58 -2.02099 -0.00699772 0
M  V30 18457 C 1733.9 -1.40742 -1.34969 0
M  V30 18458 O 1733.17 -0.572059 -1.87361 0
M  V30 18459 H 1731.75 -0.746979 -0.00557445 0
M  V30 18460 H 1734.41 -1.82231 0.691209 0
M  V30 18461 H 1733.51 -3.11881 -0.116893 0
M  V30 18462 N 1733.81 -0.262893 -1.55392 0
M  V30 18463 C 1734.76 0.645946 -2.23451 0
M  V30 18464 C 1735.75 1.16753 -1.2274 0
M  V30 18465 O 1736.96 1.12257 -1.40706 0
M  V30 18466 H 1733.33 0.226829 -0.716975 0
M  V30 18467 H 1735.31 0.0489539 -2.9836 0
M  V30 18468 C 1734.05 1.82451 -2.95985 0
M  V30 18469 H 1733.38 1.43233 -3.73262 0
M  V30 18470 H 1734.82 2.43731 -3.46945 0
M  V30 18471 C 1733.28 2.7055 -2.0076 0
M  V30 18472 O 1733.81 3.70552 -1.55093 0
M  V30 18473 N 1732.01 2.37457 -1.67519 0
M  V30 18474 H 1731.56 1.56184 -2.04852 0
M  V30 18475 H 1731.52 2.96675 -1.04074 0
M  V30 18476 N 1735.29 1.57597 0.0100073 0
M  V30 18477 C 1736.22 2.03212 1.03826 0
M  V30 18478 C 1737.2 0.920049 1.34067 0
M  V30 18479 O 1738.38 1.18739 1.46401 0
M  V30 18480 C 1735.51 2.42128 2.36836 0
M  V30 18481 C 1734.56 3.63969 2.22326 0
M  V30 18482 S 1735.39 5.12313 1.5587 0
M  V30 18483 C 1736.55 5.54489 2.90331 0
M  V30 18484 H 1736.78 2.90112 0.649812 0
M  V30 18485 H 1734.31 1.52816 0.220575 0
M  V30 18486 H 1736.27 2.65219 3.1332 0
M  V30 18487 H 1734.93 1.55646 2.72824 0
M  V30 18488 H 1734.12 3.88916 3.20562 0
M  V30 18489 H 1733.73 3.40829 1.53986 0
M  V30 18490 H 1736.02 5.56338 3.86645 0
M  V30 18491 H 1736.96 6.54564 2.70095 0
M  V30 18492 H 1737.37 4.8203 2.93781 0
M  V30 18493 N 1736.77 -0.282606 1.55045 0
M  V30 18494 C 1737.99 -1.03825 1.79542 0
M  V30 18495 C 1738.42 -1.79503 0.562165 0
M  V30 18496 O 1737.78 -1.7461 -0.487946 0
M  V30 18497 C 1737.82 -1.98007 3.01373 0
M  V30 18498 O 1736.93 -3.06621 2.75785 0
M  V30 18499 H 1736.27 -0.297333 0.593708 0
M  V30 18500 H 1738.8 -0.314434 2.02169 0
M  V30 18501 H 1738.81 -2.40138 3.29845 0
M  V30 18502 H 1737.48 -1.42335 3.90786 0
M  V30 18503 H 1736.06 -2.68874 2.58382 0
M  V30 18504 N 1738.25 -1.47815 -0.546675 0
M  V30 18505 C 1739.49 -1.5498 -1.30336 0
M  V30 18506 C 1739.82 -0.216533 -1.93291 0
M  V30 18507 O 1739.08 0.791622 -1.78974 0
M  V30 18508 C 1739.37 -2.6242 -2.42632 0
M  V30 18509 C 1739.04 -4.05375 -1.97439 0
M  V30 18510 C 1737.7 -4.44287 -1.84831 0
M  V30 18511 C 1740.05 -4.9503 -1.6308 0
M  V30 18512 C 1737.38 -5.70678 -1.36174 0
M  V30 18513 C 1739.73 -6.21894 -1.1589 0
M  V30 18514 C 1738.4 -6.59678 -1.01886 0
M  V30 18515 H 1737.67 -0.567112 -0.476933 0
M  V30 18516 H 1740.32 -1.81461 -0.611907 0
M  V30 18517 H 1738.62 -2.29736 -3.17378 0
M  V30 18518 H 1740.32 -2.65184 -3.00796 0
M  V30 18519 H 1736.91 -3.74635 -2.08199 0
M  V30 18520 H 1741.09 -4.65657 -1.71689 0
M  V30 18521 H 1736.35 -5.98693 -1.24004 0
M  V30 18522 H 1740.52 -6.9077 -0.883691 0
M  V30 18523 H 1738.15 -7.57504 -0.639614 0
M  V30 18524 N 1739.72 0.794246 -1.36123 0
M  V30 18525 C 1741.14 1.0916 -1.16431 0
M  V30 18526 C 1741.34 2.01495 0.0148797 0
M  V30 18527 O 1740.4 2.43123 0.681729 0
M  V30 18528 C 1741.71 1.71071 -2.47295 0
M  V30 18529 C 1743.26 1.83435 -2.53615 0
M  V30 18530 C 1743.73 2.48761 -3.84554 0
M  V30 18531 N 1745.22 2.56235 -3.85873 0
M  V30 18532 C 1745.96 3.07579 -4.83924 0
M  V30 18533 N 1745.45 3.59267 -5.92367 0
M  V30 18534 N 1747.25 3.06246 -4.71349 0
M  V30 18535 H 1739.4 0.180705 -2.1163 0
M  V30 18536 H 1741.66 0.142774 -0.937187 0
M  V30 18537 H 1741.37 1.10693 -3.33826 0
M  V30 18538 H 1741.24 2.70634 -2.62749 0
M  V30 18539 H 1743.63 2.42953 -1.67505 0
M  V30 18540 H 1743.71 0.82692 -2.42065 0
M  V30 18541 H 1743.35 1.8989 -4.71067 0
M  V30 18542 H 1743.28 3.50066 -3.93397 0
M  V30 18543 H 1745.77 2.19629 -3.07525 0
M  V30 18544 H 1746.09 3.96781 -6.63163 0
M  V30 18545 H 1744.43 3.57432 -5.96043 0
M  V30 18546 H 1747.62 2.65151 -3.85762 0
M  V30 18547 H 1747.8 3.45953 -5.47924 0
M  V30 18548 N 1741.2 1.20323 1.01785 0
M  V30 18549 C 1742.48 0.921703 1.72522 0
M  V30 18550 C 1742.86 -0.569838 2.03264 0
M  V30 18551 O 1742.21 -1.53115 1.69611 0
M  V30 18552 C 1742.42 1.79335 2.99399 0
M  V30 18553 C 1743.76 2.03442 3.72688 0
M  V30 18554 O 1744.79 1.76578 3.09352 0
M  V30 18555 O 1743.65 2.48803 4.86579 0
M  V30 18556 H 1740.74 0.344505 0.751828 0
M  V30 18557 H 1743.29 1.31191 1.07644 0
M  V30 18558 H 1742.06 2.80339 2.72994 0
M  V30 18559 H 1741.68 1.40314 3.72018 0
M  V30 18560 N 1742.68 -1.21073 1.00892 0
M  V30 18561 C 1743.61 -2.25847 0.592897 0
M  V30 18562 C 1744.59 -1.6561 -0.38824 0
M  V30 18563 O 1745.78 -1.92238 -0.275361 0
M  V30 18564 C 1742.91 -3.47214 -0.0773439 0
M  V30 18565 C 1741.86 -4.19994 0.82398 0
M  V30 18566 C 1741.19 -5.34696 0.0199341 0
M  V30 18567 C 1742.49 -4.76964 2.12844 0
M  V30 18568 H 1744.18 -2.609 1.46873 0
M  V30 18569 H 1741.73 -1.25412 0.707656 0
M  V30 18570 H 1743.68 -4.19684 -0.379889 0
M  V30 18571 H 1742.4 -3.11303 -0.987833 0
M  V30 18572 H 1741.06 -3.49379 1.11041 0
M  V30 18573 H 1740.71 -4.95028 -0.891966 0
M  V30 18574 H 1740.41 -5.84319 0.620102 0
M  V30 18575 H 1741.93 -6.09974 -0.276336 0
M  V30 18576 H 1743.35 -5.41293 1.88878 0
M  V30 18577 H 1741.74 -5.36992 2.67879 0
M  V30 18578 H 1742.81 -3.96129 2.79659 0
M  V30 18579 N 1744.16 -0.784156 -1.36707 0
M  V30 18580 C 1745.41 -0.353434 -1.98986 0
M  V30 18581 C 1745.73 1.07714 -1.62551 0
M  V30 18582 O 1745 1.7416 -0.896938 0
M  V30 18583 H 1743.58 -0.127693 -0.736005 0
M  V30 18584 H 1746.24 -1.00503 -1.66988 0
M  V30 18585 H 1745.34 -0.441028 -3.08968 0
M  V30 18586 N 1745.64 1.48215 -0.535727 0
M  V30 18587 C 1747.05 1.58417 -0.193977 0
M  V30 18588 C 1747.25 1.53705 1.30296 0
M  V30 18589 O 1746.31 1.42913 2.08164 0
M  V30 18590 C 1747.62 2.89819 -0.8016 0
M  V30 18591 C 1749.17 3.03359 -0.770858 0
M  V30 18592 C 1749.64 4.3743 -1.35716 0
M  V30 18593 N 1751.14 4.44012 -1.31938 0
M  V30 18594 C 1751.87 5.4627 -1.74287 0
M  V30 18595 N 1751.37 6.55454 -2.24393 0
M  V30 18596 N 1753.16 5.37187 -1.65489 0
M  V30 18597 H 1745.31 1.49521 -1.50855 0
M  V30 18598 H 1747.57 0.710306 -0.627829 0
M  V30 18599 H 1747.28 2.98939 -1.85278 0
M  V30 18600 H 1747.15 3.76144 -0.282036 0
M  V30 18601 H 1749.54 2.93848 0.271577 0
M  V30 18602 H 1749.62 2.1863 -1.32795 0
M  V30 18603 H 1749.27 4.47696 -2.39855 0
M  V30 18604 H 1749.2 5.20856 -0.775696 0
M  V30 18605 H 1751.69 3.65695 -0.952653 0
M  V30 18606 H 1752 7.29626 -2.54686 0
M  V30 18607 H 1750.34 6.56402 -2.2839 0
M  V30 18608 H 1753.54 4.50785 -1.26138 0
M  V30 18609 H 1753.71 6.16747 -1.98814 0
M  V30 18610 N 1747.11 0.27113 1.5525 0
M  V30 18611 C 1748.36 -0.347304 1.99804 0
M  V30 18612 C 1748.69 -1.55803 1.15928 0
M  V30 18613 O 1747.97 -1.93154 0.228386 0
M  V30 18614 C 1748.25 -0.733408 3.52552 0
M  V30 18615 C 1748.1 0.48438 4.47184 0
M  V30 18616 C 1749.42 -1.57136 4.11092 0
M  V30 18617 H 1746.54 -0.124762 0.726363 0
M  V30 18618 H 1749.18 0.37728 1.86217 0
M  V30 18619 H 1747.33 -1.35076 3.64262 0
M  V30 18620 H 1749.01 1.12293 4.47424 0
M  V30 18621 H 1747.25 1.12317 4.19008 0
M  V30 18622 H 1747.92 0.170525 5.51737 0
M  V30 18623 H 1750.4 -1.05001 4.02634 0
M  V30 18624 H 1749.27 -1.81033 5.18187 0
M  V30 18625 H 1749.53 -2.55111 3.61069 0
M  V30 18626 N 1748.59 -1.576 -0.00164943 0
M  V30 18627 C 1749.53 -2.0376 -1.02747 0
M  V30 18628 C 1750.5 -0.927146 -1.33577 0
M  V30 18629 O 1751.69 -1.19514 -1.45769 0
M  V30 18630 C 1748.81 -2.43381 -2.35549 0
M  V30 18631 C 1747.86 -3.65143 -2.20392 0
M  V30 18632 S 1748.69 -5.13132 -1.53151 0
M  V30 18633 C 1749.85 -5.56021 -2.87387 0
M  V30 18634 H 1750.08 -2.90452 -0.634417 0
M  V30 18635 H 1747.62 -1.52931 -0.212468 0
M  V30 18636 H 1749.57 -2.66877 -3.11909 0
M  V30 18637 H 1748.23 -1.57091 -2.71995 0
M  V30 18638 H 1747.43 -3.90611 -3.18495 0
M  V30 18639 H 1747.03 -3.41641 -1.52177 0
M  V30 18640 H 1749.32 -5.58381 -3.83689 0
M  V30 18641 H 1750.26 -6.55987 -2.6662 0
M  V30 18642 H 1750.67 -4.83582 -2.9122 0
M  V30 18643 N 1750.07 0.274379 -1.55193 0
M  V30 18644 C 1751.32 1.00766 -1.75995 0
M  V30 18645 C 1751.65 1.8599 -0.558679 0
M  V30 18646 O 1750.92 1.8937 0.443784 0
M  V30 18647 C 1751.21 1.89137 -3.0643 0
M  V30 18648 C 1751.06 1.06914 -4.36909 0
M  V30 18649 C 1752.38 2.87869 -3.32896 0
M  V30 18650 H 1749.5 0.364915 -0.640317 0
M  V30 18651 H 1752.14 0.280156 -1.87923 0
M  V30 18652 H 1750.29 2.51166 -2.96391 0
M  V30 18653 H 1751.96 0.469666 -4.58903 0
M  V30 18654 H 1750.21 0.372566 -4.32197 0
M  V30 18655 H 1750.88 1.72063 -5.24498 0
M  V30 18656 H 1753.35 2.35974 -3.42718 0
M  V30 18657 H 1752.23 3.46845 -4.25429 0
M  V30 18658 H 1752.49 3.62921 -2.52469 0
M  V30 18659 N 1751.55 1.48103 0.538828 0
M  V30 18660 C 1752.48 1.56526 1.66057 0
M  V30 18661 C 1753.46 0.416225 1.57182 0
M  V30 18662 O 1754.64 0.626601 1.77781 0
M  V30 18663 C 1751.77 1.485 3.0441 0
M  V30 18664 C 1750.82 2.68135 3.31672 0
M  V30 18665 S 1751.65 4.30182 3.1891 0
M  V30 18666 C 1752.81 4.24739 4.59725 0
M  V30 18667 H 1753.04 2.51425 1.5866 0
M  V30 18668 H 1750.57 1.36527 0.721101 0
M  V30 18669 H 1752.53 1.44556 3.84206 0
M  V30 18670 H 1751.19 0.549541 3.09255 0
M  V30 18671 H 1750.38 2.58633 4.3258 0
M  V30 18672 H 1749.99 2.69296 2.5953 0
M  V30 18673 H 1752.28 3.94127 5.51063 0
M  V30 18674 H 1753.22 5.25796 4.74283 0
M  V30 18675 H 1753.63 3.55332 4.38634 0
M  V30 18676 N 1753.03 -0.787016 1.36542 0
M  V30 18677 C 1754.27 -1.54728 1.311 0
M  V30 18678 C 1754.61 -1.93895 -0.108853 0
M  V30 18679 O 1753.88 -1.62896 -1.06278 0
M  V30 18680 C 1754.16 -2.82272 2.23594 0
M  V30 18681 C 1754.02 -2.49457 3.74287 0
M  V30 18682 C 1755.34 -3.84112 2.14816 0
M  V30 18683 H 1752.45 -0.561347 0.477555 0
M  V30 18684 H 1755.1 -0.904027 1.67115 0
M  V30 18685 H 1753.25 -3.37163 1.93011 0
M  V30 18686 H 1754.92 -2.00599 4.15401 0
M  V30 18687 H 1753.16 -1.82366 3.93605 0
M  V30 18688 H 1753.83 -3.40563 4.3442 0
M  V30 18689 H 1756.31 -3.38674 2.41741 0
M  V30 18690 H 1755.18 -4.71101 2.817 0
M  V30 18691 H 1755.45 -4.2725 1.13621 0
M  V30 18692 N 1754.5 -1.20861 -1.01145 0
M  V30 18693 C 1755.75 -1.0199 -1.74478 0
M  V30 18694 C 1756.07 0.4484 -1.89775 0
M  V30 18695 O 1755.34 1.32386 -1.44398 0
M  V30 18696 H 1753.92 -0.37439 -0.646406 0
M  V30 18697 H 1756.59 -1.5206 -1.21917 0
M  V30 18698 H 1755.68 -1.48251 -2.74642 0
M  V30 18699 N 1755.98 1.20536 -1.01532 0
M  V30 18700 C 1756.95 2.21495 -0.589298 0
M  V30 18701 C 1757.95 1.57167 0.339871 0
M  V30 18702 O 1759.14 1.73724 0.128736 0
M  V30 18703 C 1756.27 3.40614 0.139623 0
M  V30 18704 H 1757.46 2.607 -1.48241 0
M  V30 18705 H 1755.01 1.33977 -0.804977 0
M  V30 18706 H 1755.75 3.0691 1.04771 0
M  V30 18707 H 1755.53 3.88531 -0.52785 0
M  V30 18708 H 1757.02 4.15431 0.425083 0
M  V30 18709 N 1757.46 0.791395 1.36289 0
M  V30 18710 C 1758.69 0.376696 2.03442 0
M  V30 18711 C 1759.1 -1.00753 1.59669 0
M  V30 18712 O 1758.46 -1.64657 0.787042 0
M  V30 18713 C 1758.51 0.433074 3.58897 0
M  V30 18714 O 1758.23 1.76272 4.01073 0
M  V30 18715 C 1759.73 0.00925475 4.43299 0
M  V30 18716 H 1756.95 0.154989 0.652855 0
M  V30 18717 H 1759.5 1.07079 1.74225 0
M  V30 18718 H 1757.65 -0.212623 3.86816 0
M  V30 18719 H 1758.07 1.71492 4.95672 0
M  V30 18720 H 1759.54 0.0998386 5.5191 0
M  V30 18721 H 1760.02 -1.04362 4.26621 0
M  V30 18722 H 1760.62 0.627518 4.20645 0
M  V30 18723 N 1758.94 -1.47929 0.54358 0
M  V30 18724 C 1759.87 -2.26722 -0.259258 0
M  V30 18725 C 1760.85 -1.33195 -0.932623 0
M  V30 18726 O 1762.03 -1.62558 -0.954322 0
M  V30 18727 C 1759.16 -3.09833 -1.36826 0
M  V30 18728 C 1758.21 -4.18836 -0.80488 0
M  V30 18729 S 1759.04 -5.34433 0.337912 0
M  V30 18730 C 1760.2 -6.21105 -0.773234 0
M  V30 18731 H 1760.43 -2.94468 0.409397 0
M  V30 18732 H 1757.96 -1.5084 0.329626 0
M  V30 18733 H 1759.92 -3.5829 -2.00345 0
M  V30 18734 H 1758.58 -2.41476 -2.00869 0
M  V30 18735 H 1757.77 -4.76665 -1.63726 0
M  V30 18736 H 1757.38 -3.73189 -0.246123 0
M  V30 18737 H 1759.67 -6.56629 -1.66865 0
M  V30 18738 H 1760.61 -7.07718 -0.232611 0
M  V30 18739 H 1761.02 -5.54463 -1.05977 0
M  V30 18740 N 1760.42 -0.27936 -1.55104 0
M  V30 18741 C 1761.65 0.339429 -2.04097 0
M  V30 18742 C 1762.06 1.49151 -1.15756 0
M  V30 18743 O 1761.42 1.81624 -0.178558 0
M  V30 18744 C 1761.47 0.816392 -3.52161 0
M  V30 18745 O 1761.19 -0.289812 -4.3714 0
M  V30 18746 C 1762.69 1.50256 -4.17059 0
M  V30 18747 H 1759.91 0.0768615 -0.666583 0
M  V30 18748 H 1762.45 -0.412691 -2.00293 0
M  V30 18749 H 1760.61 1.51859 -3.56395 0
M  V30 18750 H 1761.02 0.0776213 -5.24443 0
M  V30 18751 H 1762.5 1.78767 -5.22251 0
M  V30 18752 H 1762.97 2.4355 -3.65486 0
M  V30 18753 H 1763.58 0.844106 -4.16839 0
M  V30 18754 N 1761.9 1.57599 -0.0067085 0
M  V30 18755 C 1763.17 1.82097 0.714141 0
M  V30 18756 C 1763.55 0.885868 1.91613 0
M  V30 18757 O 1762.9 -0.0638506 2.28411 0
M  V30 18758 C 1763.11 3.30759 1.11354 0
M  V30 18759 C 1764.46 3.96668 1.51459 0
M  V30 18760 O 1765.48 3.35121 1.20715 0
M  V30 18761 O 1764.34 5.051 2.08654 0
M  V30 18762 H 1761.44 0.750071 0.348314 0
M  V30 18763 H 1763.98 1.69669 -0.0326766 0
M  V30 18764 H 1762.75 3.90455 0.257068 0
M  V30 18765 H 1762.38 3.48211 1.91924 0
M  V30 18766 N 1763.37 -0.266145 1.55336 0
M  V30 18767 C 1764.65 -1.01852 1.6699 0
M  V30 18768 C 1765.03 -2.04053 0.54088 0
M  V30 18769 O 1764.38 -2.23859 -0.458193 0
M  V30 18770 C 1764.59 -1.66917 3.06496 0
M  V30 18771 C 1765.94 -2.17824 3.64469 0
M  V30 18772 O 1766.96 -1.76892 3.09173 0
M  V30 18773 O 1765.82 -2.92922 4.61367 0
M  V30 18774 H 1762.91 -0.472871 0.67847 0
M  V30 18775 H 1765.46 -0.261458 1.67674 0
M  V30 18776 H 1764.23 -0.928941 3.80114 0
M  V30 18777 H 1763.85 -2.49292 3.0974 0
M  V30 18778 N 1764.85 -1.48386 -0.530967 0
M  V30 18779 C 1766.1 -1.55608 -1.28332 0
M  V30 18780 C 1766.41 -0.234479 -1.94189 0
M  V30 18781 O 1767.62 -0.184926 -2.70869 0
M  V30 18782 C 1766.08 -2.74423 -2.32852 0
M  V30 18783 C 1765.68 -4.13221 -1.73068 0
M  V30 18784 C 1767.43 -2.90956 -3.09103 0
M  V30 18785 C 1765.33 -5.23299 -2.75522 0
M  V30 18786 H 1764.26 -0.579291 -0.482637 0
M  V30 18787 H 1766.92 -1.74718 -0.560885 0
M  V30 18788 H 1765.3 -2.48745 -3.08126 0
M  V30 18789 H 1766.47 -4.48913 -1.03989 0
M  V30 18790 H 1764.79 -4.01796 -1.09312 0
M  V30 18791 H 1767.38 -3.70363 -3.85662 0
M  V30 18792 H 1767.73 -2.00376 -3.64905 0
M  V30 18793 H 1768.26 -3.1653 -2.40943 0
M  V30 18794 H 1765 -6.15842 -2.24542 0
M  V30 18795 H 1764.52 -4.92095 -3.42932 0
M  V30 18796 H 1766.2 -5.5137 -3.38526 0
M  V30 18797 N 1766.33 0.779763 -1.36958 0
M  V30 18798 C 1767.58 1.53499 -1.31463 0
M  V30 18799 C 1767.9 1.94728 0.102869 0
M  V30 18800 O 1767.17 1.65688 1.0452 0
M  V30 18801 H 1765.75 0.5693 -0.483638 0
M  V30 18802 H 1768.41 0.928536 -1.7136 0
M  V30 18803 H 1767.51 2.4381 -1.94841 0
M  V30 18804 N 1767.81 1.21396 1.00503 0
M  V30 18805 C 1768.74 0.916483 2.08988 0
M  V30 18806 C 1769.72 -0.135972 1.6203 0
M  V30 18807 O 1770.9 -0.00701537 1.88499 0
M  V30 18808 C 1768.03 0.376122 3.36605 0
M  V30 18809 C 1767.08 1.41137 4.0247 0
M  V30 18810 S 1767.91 2.98055 4.44886 0
M  V30 18811 C 1769.06 2.45626 5.7569 0
M  V30 18812 H 1769.3 1.83517 2.33899 0
M  V30 18813 H 1766.83 1.0437 1.13782 0
M  V30 18814 H 1768.79 0.0709239 4.10439 0
M  V30 18815 H 1767.45 -0.52125 3.09745 0
M  V30 18816 H 1766.64 0.982903 4.94323 0
M  V30 18817 H 1766.24 1.66465 3.34911 0
M  V30 18818 H 1768.54 1.8611 6.51436 0
M  V30 18819 H 1769.48 3.3592 6.23348 0
M  V30 18820 H 1769.89 1.87337 5.32508 0
M  V30 18821 N 1769.29 -1.19996 1.0217 0
M  V30 18822 C 1770.53 -1.89121 0.712579 0
M  V30 18823 C 1770.85 -1.79556 -0.760561 0
M  V30 18824 O 1770.12 -1.2013 -1.54744 0
M  V30 18825 H 1768.7 -0.700075 0.260585 0
M  V30 18826 H 1771.37 -1.4571 1.2944 0
M  V30 18827 H 1770.46 -2.95629 1.00051 0
M  V30 18828 N 1770.76 -0.798611 -1.35867 0
M  V30 18829 C 1772.01 -0.375816 -1.99287 0
M  V30 18830 C 1772.34 1.05223 -1.63223 0
M  V30 18831 O 1771.62 1.72862 -0.891576 0
M  V30 18832 C 1771.9 -0.550197 -3.55872 0
M  V30 18833 C 1771.75 -2.0226 -4.0176 0
M  V30 18834 C 1773.07 0.0290862 -4.4009 0
M  V30 18835 H 1770.19 -0.138024 -0.72396 0
M  V30 18836 H 1772.83 -1.00666 -1.61141 0
M  V30 18837 H 1770.98 -0.0131739 -3.88498 0
M  V30 18838 H 1772.66 -2.62139 -3.7958 0
M  V30 18839 H 1770.9 -2.52191 -3.52962 0
M  V30 18840 H 1771.57 -2.09553 -5.10678 0
M  V30 18841 H 1774.05 -0.429444 -4.13878 0
M  V30 18842 H 1772.92 -0.122894 -5.48762 0
M  V30 18843 H 1773.18 1.12206 -4.27624 0
M  V30 18844 N 1772.24 1.47639 -0.551417 0
M  V30 18845 C 1773.47 2.06878 -0.0298904 0
M  V30 18846 C 1773.88 1.40493 1.26123 0
M  V30 18847 O 1773.24 0.499513 1.75531 0
M  V30 18848 C 1773.29 3.61074 0.175449 0
M  V30 18849 O 1773.01 4.2497 -1.06454 0
M  V30 18850 C 1774.51 4.37166 0.734919 0
M  V30 18851 H 1771.73 0.669607 -0.0432142 0
M  V30 18852 H 1774.28 1.89726 -0.763178 0
M  V30 18853 H 1772.43 3.7776 0.858848 0
M  V30 18854 H 1772.85 5.17424 -0.858644 0
M  V30 18855 H 1774.32 5.45756 0.827915 0
M  V30 18856 H 1774.8 4.03052 1.74486 0
M  V30 18857 H 1775.4 4.2521 0.0874045 0
M  V30 18858 N 1773.72 0.287581 1.54954 0
M  V30 18859 C 1774.95 -0.328124 2.03978 0
M  V30 18860 C 1775.36 -1.49083 1.16494 0
M  V30 18861 O 1774.7 -1.82813 0.180286 0
M  V30 18862 C 1774.76 -0.859765 3.49068 0
M  V30 18863 C 1774.43 0.175918 4.56661 0
M  V30 18864 C 1775.42 0.999759 5.10197 0
M  V30 18865 C 1773.11 0.313751 5.01319 0
M  V30 18866 C 1775.1 1.9475 6.06919 0
M  V30 18867 C 1772.79 1.26495 5.97865 0
M  V30 18868 C 1773.79 2.08032 6.50547 0
M  V30 18869 O 1773.48 3.01542 7.45203 0
M  V30 18870 H 1773.21 -0.0772306 0.671574 0
M  V30 18871 H 1775.76 0.42115 2.01036 0
M  V30 18872 H 1773.99 -1.65933 3.49289 0
M  V30 18873 H 1775.68 -1.3899 3.81361 0
M  V30 18874 H 1776.45 0.904073 4.76499 0
M  V30 18875 H 1772.33 -0.310922 4.5995 0
M  V30 18876 H 1775.87 2.58433 6.47965 0
M  V30 18877 H 1771.77 1.36141 6.3098 0
M  V30 18878 H 1772.54 2.96367 7.62961 0
M  V30 18879 N 1775.2 -1.57593 0.0150662 0
M  V30 18880 C 1776.13 -2.12395 -0.970081 0
M  V30 18881 C 1777.11 -1.03666 -1.34861 0
M  V30 18882 O 1778.29 -1.31427 -1.4297 0
M  V30 18883 C 1775.42 -2.63958 -2.25707 0
M  V30 18884 C 1774.38 -3.77348 -2.01971 0
M  V30 18885 C 1773.7 -4.15284 -3.36814 0
M  V30 18886 C 1775 -5.04008 -1.37017 0
M  V30 18887 H 1776.7 -2.9496 -0.513731 0
M  V30 18888 H 1774.24 -1.41889 -0.245666 0
M  V30 18889 H 1776.2 -3.00927 -2.94993 0
M  V30 18890 H 1774.92 -1.78535 -2.73483 0
M  V30 18891 H 1773.58 -3.40795 -1.35107 0
M  V30 18892 H 1773.23 -3.26863 -3.82321 0
M  V30 18893 H 1772.93 -4.91686 -3.21744 0
M  V30 18894 H 1774.45 -4.54824 -4.07391 0
M  V30 18895 H 1775.87 -5.38652 -1.96282 0
M  V30 18896 H 1774.26 -5.85315 -1.32388 0
M  V30 18897 H 1775.33 -4.83698 -0.341281 0
M  V30 18898 N 1776.68 0.257904 -1.55475 0
M  V30 18899 C 1777.64 1.30244 -1.88598 0
M  V30 18900 C 1778.64 1.4162 -0.761604 0
M  V30 18901 O 1779.83 1.4051 -1.02968 0
M  V30 18902 C 1776.96 2.68173 -2.10466 0
M  V30 18903 H 1778.15 1.02098 -2.81986 0
M  V30 18904 H 1775.71 0.496685 -1.48198 0
M  V30 18905 H 1776.44 3.01476 -1.1951 0
M  V30 18906 H 1776.23 2.61299 -2.92344 0
M  V30 18907 H 1777.72 3.43616 -2.37313 0
M  V30 18908 N 1778.15 1.48666 0.52309 0
M  V30 18909 C 1779.08 1.666 1.63605 0
M  V30 18910 C 1780.07 0.514803 1.62123 0
M  V30 18911 O 1781.25 0.748138 1.79211 0
M  V30 18912 C 1778.38 1.71199 3.02172 0
M  V30 18913 C 1777.33 2.85888 3.18515 0
M  V30 18914 C 1776.66 2.75582 4.58213 0
M  V30 18915 C 1777.96 4.27104 3.00631 0
M  V30 18916 H 1779.65 2.59776 1.48851 0
M  V30 18917 H 1777.2 1.25014 0.714667 0
M  V30 18918 H 1779.15 1.82333 3.79911 0
M  V30 18919 H 1777.88 0.746066 3.17964 0
M  V30 18920 H 1776.54 2.7432 2.43195 0
M  V30 18921 H 1776.18 1.76944 4.7085 0
M  V30 18922 H 1775.88 3.52545 4.70091 0
M  V30 18923 H 1777.41 2.88693 5.38041 0
M  V30 18924 H 1778.82 4.3947 3.68157 0
M  V30 18925 H 1777.22 5.05119 3.23999 0
M  V30 18926 H 1778.29 4.43087 1.96982 0
M  V30 18927 N 1779.63 -0.772489 1.37369 0
M  V30 18928 C 1780.56 -1.89969 1.35772 0
M  V30 18929 C 1781.54 -1.68586 0.226452 0
M  V30 18930 O 1782.73 -1.89454 0.426692 0
M  V30 18931 C 1779.86 -3.27242 1.16319 0
M  V30 18932 C 1778.81 -3.63187 2.2645 0
M  V30 18933 C 1778.14 -4.98992 1.92121 0
M  V30 18934 C 1779.44 -3.70013 3.6863 0
M  V30 18935 H 1781.13 -1.91564 2.30095 0
M  V30 18936 H 1778.68 -0.920241 1.10759 0
M  V30 18937 H 1780.63 -4.05734 1.13832 0
M  V30 18938 H 1779.36 -3.26078 0.184513 0
M  V30 18939 H 1778.01 -2.87001 2.28091 0
M  V30 18940 H 1777.66 -4.94368 0.927848 0
M  V30 18941 H 1777.36 -5.24012 2.65867 0
M  V30 18942 H 1778.89 -5.79886 1.91219 0
M  V30 18943 H 1780.3 -4.38659 3.69122 0
M  V30 18944 H 1778.7 -4.06529 4.41423 0
M  V30 18945 H 1779.77 -2.70694 4.02309 0
M  V30 18946 N 1781.11 -1.21927 -0.998575 0
M  V30 18947 C 1782.07 -0.985744 -2.0692 0
M  V30 18948 C 1783.07 0.0456907 -1.60735 0
M  V30 18949 O 1784.26 -0.192241 -1.73136 0
M  V30 18950 C 1781.4 -0.48779 -3.37392 0
M  V30 18951 H 1782.59 -1.93563 -2.2907 0
M  V30 18952 H 1780.14 -1.03716 -1.1693 0
M  V30 18953 H 1780.88 0.466723 -3.20924 0
M  V30 18954 H 1780.66 -1.23186 -3.72247 0
M  V30 18955 H 1782.15 -0.344469 -4.16177 0
M  V30 18956 N 1782.59 1.19452 -1.02805 0
M  V30 18957 C 1783.55 2.20857 -0.612757 0
M  V30 18958 C 1784.55 1.57519 0.323182 0
M  V30 18959 O 1785.74 1.7385 0.110303 0
M  V30 18960 C 1782.87 3.40743 0.103488 0
M  V30 18961 H 1784.07 2.59113 -1.50998 0
M  V30 18962 H 1781.62 1.33116 -0.819142 0
M  V30 18963 H 1782.35 3.08004 1.0151 0
M  V30 18964 H 1782.14 3.87949 -0.56903 0
M  V30 18965 H 1783.63 4.15858 0.380998 0
M  V30 18966 N 1784.07 0.805805 1.35442 0
M  V30 18967 C 1785.31 0.385808 1.98791 0
M  V30 18968 C 1785.64 -1.04681 1.63927 0
M  V30 18969 O 1784.9 -1.7408 0.894125 0
M  V30 18970 C 1785.2 0.515335 3.53665 0
M  V30 18971 C 1784.86 1.91115 4.08394 0
M  V30 18972 C 1783.52 2.29302 4.23053 0
M  V30 18973 C 1785.88 2.82437 4.38039 0
M  V30 18974 C 1783.2 3.58182 4.64675 0
M  V30 18975 C 1785.56 4.10762 4.811 0
M  V30 18976 C 1784.22 4.48949 4.93964 0
M  V30 18977 H 1783.49 0.141177 0.727427 0
M  V30 18978 H 1786.14 1.02644 1.61667 0
M  V30 18979 H 1784.44 -0.208753 3.91243 0
M  V30 18980 H 1786.14 0.171152 4.00635 0
M  V30 18981 H 1782.73 1.60446 3.97436 0
M  V30 18982 H 1786.91 2.54183 4.26268 0
M  V30 18983 H 1782.17 3.87618 4.72824 0
M  V30 18984 H 1786.34 4.81626 5.03 0
M  V30 18985 H 1783.97 5.48867 5.25974 0
M  V30 18986 N 1785.54 -1.47344 0.559239 0
M  V30 18987 C 1786.49 -2.30039 -0.187317 0
M  V30 18988 C 1787.46 -1.39186 -0.906443 0
M  V30 18989 O 1788.65 -1.68147 -0.901739 0
M  V30 18990 C 1785.79 -3.2319 -1.21004 0
M  V30 18991 C 1784.9 -4.29134 -0.496776 0
M  V30 18992 C 1784.03 -5.09435 -1.50497 0
M  V30 18993 C 1783.07 -6.07151 -0.776794 0
M  V30 18994 N 1782.21 -6.80404 -1.73192 0
M  V30 18995 H 1787.05 -2.93357 0.523978 0
M  V30 18996 H 1784.59 -1.44597 0.270225 0
M  V30 18997 H 1786.55 -3.75621 -1.81561 0
M  V30 18998 H 1785.18 -2.61732 -1.88935 0
M  V30 18999 H 1784.23 -3.79744 0.223359 0
M  V30 19000 H 1785.54 -4.98746 0.0735731 0
M  V30 19001 H 1784.69 -5.66026 -2.18402 0
M  V30 19002 H 1783.43 -4.3973 -2.10924 0
M  V30 19003 H 1782.44 -5.49736 -0.0838382 0
M  V30 19004 H 1783.66 -6.78866 -0.178239 0
M  V30 19005 H 1781.61 -6.13427 -2.32472 0
M  V30 19006 H 1781.53 -7.46193 -1.21377 0
M  V30 19007 H 1782.79 -7.41567 -2.40204 0
M  V30 19008 N 1787.02 -0.295795 -1.54799 0
M  V30 19009 C 1788.27 0.315473 -2.00331 0
M  V30 19010 C 1788.6 1.53939 -1.18392 0
M  V30 19011 O 1787.88 1.92767 -0.259086 0
M  V30 19012 C 1788.16 0.677227 -3.53674 0
M  V30 19013 C 1788.01 -0.555462 -4.46357 0
M  V30 19014 C 1789.33 1.50576 -4.1354 0
M  V30 19015 H 1786.45 0.113191 -0.728256 0
M  V30 19016 H 1789.09 -0.406858 -1.85593 0
M  V30 19017 H 1787.24 1.29264 -3.66365 0
M  V30 19018 H 1788.91 -1.19397 -4.45581 0
M  V30 19019 H 1787.16 -1.18968 -4.17168 0
M  V30 19020 H 1787.83 -0.25828 -5.51395 0
M  V30 19021 H 1790.3 0.985819 -4.04253 0
M  V30 19022 H 1789.18 1.72766 -5.21002 0
M  V30 19023 H 1789.44 2.49334 -3.65082 0
M  V30 19024 N 1788.5 1.57583 -0.0234236 0
M  V30 19025 C 1789.92 1.56089 0.332916 0
M  V30 19026 C 1790.12 1.02847 1.73276 0
M  V30 19027 O 1789.17 0.672668 2.43375 0
M  V30 19028 C 1790.49 3.0012 0.186725 0
M  V30 19029 C 1792.03 3.11919 0.259918 0
M  V30 19030 C 1792.51 4.57778 0.142583 0
M  V30 19031 N 1794 4.62769 0.199748 0
M  V30 19032 C 1794.74 5.73247 0.132655 0
M  V30 19033 N 1794.23 6.92798 0.0148037 0
M  V30 19034 N 1796.02 5.61791 0.186228 0
M  V30 19035 H 1788.18 1.90523 -0.938877 0
M  V30 19036 H 1790.44 0.876141 -0.362052 0
M  V30 19037 H 1790.14 3.43002 -0.777338 0
M  V30 19038 H 1790.02 3.64798 0.959267 0
M  V30 19039 H 1792.41 2.68952 1.21444 0
M  V30 19040 H 1792.49 2.49972 -0.542901 0
M  V30 19041 H 1792.13 5.01424 -0.808491 0
M  V30 19042 H 1792.06 5.17698 0.964194 0
M  V30 19043 H 1794.55 3.76776 0.291211 0
M  V30 19044 H 1794.86 7.72794 -0.0298548 0
M  V30 19045 H 1793.21 6.94997 -0.0198993 0
M  V30 19046 H 1796.4 4.67282 0.276658 0
M  V30 19047 H 1796.57 6.47869 0.130478 0
M  V30 19048 N 1789.98 -0.249655 1.5561 0
M  V30 19049 C 1791.39 -0.818934 1.67781 0
M  V30 19050 C 1791.74 -1.86134 0.620374 0
M  V30 19051 O 1790.87 -2.15133 -0.233869 0
M  V30 19052 C 1791.46 -1.49219 3.0417 0
M  V30 19053 C 1790.02 -2.0092 3.18289 0
M  V30 19054 C 1789.17 -0.859333 2.63649 0
M  V30 19055 H 1792.12 -0.0255186 1.58679 0
M  V30 19056 H 1792.14 -2.36011 2.98461 0
M  V30 19057 H 1791.65 -0.733268 3.8111 0
M  V30 19058 H 1789.75 -2.79701 2.46167 0
M  V30 19059 H 1789.87 -2.20848 4.25163 0
M  V30 19060 H 1788.23 -1.2591 2.21402 0
M  V30 19061 H 1789.01 -0.113545 3.43112 0
M  V30 19062 N 1791.46 -1.48941 -0.515198 0
M  V30 19063 C 1792.69 -1.61396 -1.29457 0
M  V30 19064 C 1793.1 -0.279847 -1.86714 0
M  V30 19065 O 1792.46 0.732861 -1.67139 0
M  V30 19066 C 1792.51 -2.67194 -2.43494 0
M  V30 19067 O 1792.23 -3.95429 -1.88593 0
M  V30 19068 C 1793.73 -2.90224 -3.35089 0
M  V30 19069 H 1790.95 -0.543754 -0.393157 0
M  V30 19070 H 1793.49 -1.94875 -0.619996 0
M  V30 19071 H 1791.65 -2.36532 -3.06808 0
M  V30 19072 H 1792.06 -4.53593 -2.63351 0
M  V30 19073 H 1793.54 -3.68018 -4.1142 0
M  V30 19074 H 1794.01 -1.99601 -3.91224 0
M  V30 19075 H 1794.62 -3.22247 -2.77555 0
M  V30 19076 N 1792.94 0.765193 -1.37777 0
M  V30 19077 C 1794.18 1.52397 -1.33347 0
M  V30 19078 C 1794.51 1.94335 0.0800559 0
M  V30 19079 O 1793.77 1.64847 1.05469 0
M  V30 19080 C 1794.06 2.79732 -2.22452 0
M  V30 19081 C 1793.73 2.56814 -3.70618 0
M  V30 19082 C 1792.39 2.50272 -4.10996 0
M  V30 19083 C 1794.74 2.36494 -4.64457 0
M  V30 19084 C 1792.07 2.2141 -5.43318 0
M  V30 19085 C 1794.42 2.09155 -5.97024 0
M  V30 19086 C 1793.09 2.01062 -6.36499 0
M  V30 19087 H 1792.36 0.55766 -0.487951 0
M  V30 19088 H 1795.01 0.880853 -1.70039 0
M  V30 19089 H 1793.31 3.48635 -1.78777 0
M  V30 19090 H 1795.01 3.37639 -2.16335 0
M  V30 19091 H 1791.6 2.62771 -3.38599 0
M  V30 19092 H 1795.78 2.40534 -4.34117 0
M  V30 19093 H 1791.04 2.13644 -5.72858 0
M  V30 19094 H 1795.21 1.92433 -6.69285 0
M  V30 19095 H 1792.84 1.78462 -7.38956 0
M  V30 19096 N 1794.41 1.22455 0.992094 0
M  V30 19097 C 1795.38 0.996703 2.06394 0
M  V30 19098 C 1796.38 -0.0371659 1.60757 0
M  V30 19099 O 1797.57 0.20142 1.73032 0
M  V30 19100 C 1794.7 0.505675 3.37129 0
M  V30 19101 H 1795.89 1.94776 2.28041 0
M  V30 19102 H 1793.44 1.04335 1.16378 0
M  V30 19103 H 1794.18 -0.449697 3.21167 0
M  V30 19104 H 1793.96 1.25158 3.71588 0
M  V30 19105 H 1795.45 0.366535 4.15988 0
M  V30 19106 N 1795.89 -1.18905 1.03437 0
M  V30 19107 C 1796.85 -2.20529 0.624461 0
M  V30 19108 C 1797.85 -1.57688 -0.314824 0
M  V30 19109 O 1799.04 -1.73906 -0.101082 0
M  V30 19110 C 1796.18 -3.40793 -0.0854166 0
M  V30 19111 H 1797.37 -2.58309 1.5237 0
M  V30 19112 H 1794.92 -1.32679 0.826189 0
M  V30 19113 H 1795.66 -3.08538 -0.998747 0
M  V30 19114 H 1795.44 -3.87642 0.589596 0
M  V30 19115 H 1796.93 -4.16055 -0.358938 0
M  V30 19116 N 1797.37 -0.812977 -1.35013 0
M  V30 19117 C 1798.62 -0.395562 -1.98191 0
M  V30 19118 C 1798.94 1.04242 -1.64799 0
M  V30 19119 O 1798.21 1.72219 -0.933678 0
M  V30 19120 H 1796.79 -0.143276 -0.733131 0
M  V30 19121 H 1799.45 -1.04023 -1.64819 0
M  V30 19122 H 1798.55 -0.506466 -3.07963 0
M  V30 19123 N 1798.85 1.47045 -0.567045 0
M  V30 19124 C 1799.78 2.32929 0.163191 0
M  V30 19125 C 1800.76 1.44393 0.899142 0
M  V30 19126 O 1801.94 1.73235 0.87768 0
M  V30 19127 C 1799.07 3.26369 1.18745 0
M  V30 19128 C 1798.03 4.24223 0.567335 0
M  V30 19129 C 1797.35 5.07058 1.69693 0
M  V30 19130 C 1798.65 5.2004 -0.485319 0
M  V30 19131 H 1800.35 2.94233 -0.553837 0
M  V30 19132 H 1797.89 1.41488 -0.267789 0
M  V30 19133 H 1799.85 3.85299 1.70654 0
M  V30 19134 H 1798.57 2.6314 1.93455 0
M  V30 19135 H 1797.23 3.66534 0.0694525 0
M  V30 19136 H 1796.88 4.40226 2.43331 0
M  V30 19137 H 1796.58 5.73316 1.28774 0
M  V30 19138 H 1798.1 5.68848 2.2191 0
M  V30 19139 H 1799.52 5.73277 -0.0519049 0
M  V30 19140 H 1797.91 5.94554 -0.813942 0
M  V30 19141 H 1798.98 4.64921 -1.37754 0
M  V30 19142 N 1800.33 0.304 1.5464 0
M  V30 19143 C 1801.26 -0.563854 2.2659 0
M  V30 19144 C 1802.24 -1.13547 1.26653 0
M  V30 19145 O 1803.42 -1.16425 1.55431 0
M  V30 19146 C 1800.55 -1.73437 3.00894 0
M  V30 19147 C 1799.51 -1.29297 4.08003 0
M  V30 19148 C 1798.83 -2.54888 4.70038 0
M  V30 19149 C 1800.13 -0.422027 5.20592 0
M  V30 19150 H 1801.83 0.0362569 2.99378 0
M  V30 19151 H 1799.37 0.0188781 1.43988 0
M  V30 19152 H 1801.32 -2.34762 3.4995 0
M  V30 19153 H 1800.05 -2.36076 2.25689 0
M  V30 19154 H 1798.71 -0.702757 3.59801 0
M  V30 19155 H 1798.36 -3.15848 3.9147 0
M  V30 19156 H 1798.06 -2.26054 5.42378 0
M  V30 19157 H 1799.58 -3.17011 5.21859 0
M  V30 19158 H 1800.99 -0.941036 5.65524 0
M  V30 19159 H 1799.39 -0.227323 5.99669 0
M  V30 19160 H 1800.46 0.55212 4.81746 0
M  V30 19161 N 1801.8 -1.57568 0.0317802 0
M  V30 19162 C 1802.73 -2.13412 -0.947499 0
M  V30 19163 C 1803.71 -1.05091 -1.33753 0
M  V30 19164 O 1804.9 -1.32936 -1.41568 0
M  V30 19165 C 1802.03 -2.66337 -2.22895 0
M  V30 19166 C 1800.98 -3.79469 -1.97958 0
M  V30 19167 C 1800.31 -4.18833 -3.3239 0
M  V30 19168 C 1801.61 -5.05432 -1.31664 0
M  V30 19169 H 1803.3 -2.95488 -0.482417 0
M  V30 19170 H 1800.85 -1.42142 -0.230603 0
M  V30 19171 H 1802.8 -3.04039 -2.91784 0
M  V30 19172 H 1801.53 -1.81426 -2.71574 0
M  V30 19173 H 1800.19 -3.42209 -1.31485 0
M  V30 19174 H 1799.83 -3.30899 -3.78833 0
M  V30 19175 H 1799.53 -4.95071 -3.16511 0
M  V30 19176 H 1801.06 -4.5912 -4.02544 0
M  V30 19177 H 1802.47 -5.40704 -1.90558 0
M  V30 19178 H 1800.87 -5.86686 -1.26173 0
M  V30 19179 H 1801.94 -4.84032 -0.28996 0
M  V30 19180 N 1803.28 0.241399 -1.5574 0
M  V30 19181 C 1804.7 0.590176 -1.48287 0
M  V30 19182 C 1804.9 1.8808 -0.723052 0
M  V30 19183 O 1803.95 2.51213 -0.25464 0
M  V30 19184 C 1805.27 0.687804 -2.92728 0
M  V30 19185 C 1806.82 0.779763 -3.03131 0
M  V30 19186 C 1807.29 0.908905 -4.48891 0
M  V30 19187 N 1808.78 0.973636 -4.52852 0
M  V30 19188 C 1809.52 1.09292 -5.62888 0
M  V30 19189 N 1809.01 1.1774 -6.82722 0
M  V30 19190 N 1810.81 1.12651 -5.50696 0
M  V30 19191 H 1802.96 -0.605781 -2.03578 0
M  V30 19192 H 1805.22 -0.209862 -0.924479 0
M  V30 19193 H 1804.93 -0.190608 -3.51183 0
M  V30 19194 H 1804.8 1.55794 -3.43523 0
M  V30 19195 H 1807.19 1.64863 -2.44754 0
M  V30 19196 H 1807.27 -0.115641 -2.55538 0
M  V30 19197 H 1806.91 0.0445788 -5.0788 0
M  V30 19198 H 1806.84 1.81943 -4.9417 0
M  V30 19199 H 1809.33 0.919469 -3.66544 0
M  V30 19200 H 1809.65 1.26764 -7.62332 0
M  V30 19201 H 1807.99 1.14688 -6.85472 0
M  V30 19202 H 1811.18 1.05703 -4.56009 0
M  V30 19203 H 1811.35 1.21602 -6.36488 0
M  V30 19204 N 1804.76 1.49212 0.507292 0
M  V30 19205 C 1805.71 1.65417 1.60953 0
M  V30 19206 C 1806.68 0.495737 1.5853 0
M  V30 19207 O 1807.86 0.722002 1.76612 0
M  V30 19208 C 1805 1.72095 2.99128 0
M  V30 19209 C 1804.12 2.99199 3.11615 0
M  V30 19210 C 1803.25 2.96895 4.40485 0
M  V30 19211 C 1802.29 4.18607 4.46581 0
M  V30 19212 N 1801.43 4.14248 5.66871 0
M  V30 19213 H 1806.27 2.59535 1.46444 0
M  V30 19214 H 1803.8 1.28687 0.712609 0
M  V30 19215 H 1805.76 1.73947 3.79207 0
M  V30 19216 H 1804.39 0.814484 3.12356 0
M  V30 19217 H 1803.44 3.06988 2.24639 0
M  V30 19218 H 1804.76 3.89192 3.11979 0
M  V30 19219 H 1803.91 2.97275 5.28878 0
M  V30 19220 H 1802.65 2.0467 4.42675 0
M  V30 19221 H 1801.65 4.18477 3.56591 0
M  V30 19222 H 1802.88 5.12017 4.46112 0
M  V30 19223 H 1800.82 3.24857 5.69916 0
M  V30 19224 H 1800.74 4.97969 5.68826 0
M  V30 19225 H 1802.01 4.18722 6.57489 0
M  V30 19226 N 1806.24 -0.757876 1.38181 0
M  V30 19227 C 1807.17 -1.88519 1.37779 0
M  V30 19228 C 1808.15 -1.68336 0.24432 0
M  V30 19229 O 1809.33 -1.88991 0.446762 0
M  V30 19230 C 1806.46 -3.2599 1.19784 0
M  V30 19231 C 1805.42 -3.60764 2.30289 0
M  V30 19232 C 1804.74 -4.96927 1.97403 0
M  V30 19233 C 1806.04 -3.66082 3.72533 0
M  V30 19234 H 1807.74 -1.89112 2.32114 0
M  V30 19235 H 1805.28 -0.908442 1.11729 0
M  V30 19236 H 1807.24 -4.04504 1.18129 0
M  V30 19237 H 1805.96 -3.25864 0.219088 0
M  V30 19238 H 1804.62 -2.84566 2.31123 0
M  V30 19239 H 1804.27 -4.93356 0.98023 0
M  V30 19240 H 1803.97 -5.21162 2.7141 0
M  V30 19241 H 1805.49 -5.77825 1.97359 0
M  V30 19242 H 1806.91 -4.3472 3.73754 0
M  V30 19243 H 1805.3 -4.01824 4.4571 0
M  V30 19244 H 1806.37 -2.66412 4.05158 0
M  V30 19245 N 1807.72 -1.22979 -0.985586 0
M  V30 19246 C 1808.94 -1.0853 -1.7615 0
M  V30 19247 C 1809.36 0.36363 -1.85265 0
M  V30 19248 O 1808.72 1.25173 -1.32808 0
M  V30 19249 C 1808.77 -1.69872 -3.19101 0
M  V30 19250 O 1808.49 -3.09098 -3.10467 0
M  V30 19251 C 1809.99 -1.60795 -4.1311 0
M  V30 19252 H 1807.21 -0.380086 -0.55297 0
M  V30 19253 H 1809.75 -1.62724 -1.2386 0
M  V30 19254 H 1807.91 -1.19724 -3.68436 0
M  V30 19255 H 1808.32 -3.38769 -4.00419 0
M  V30 19256 H 1809.8 -2.08428 -5.11138 0
M  V30 19257 H 1810.27 -0.565817 -4.3554 0
M  V30 19258 H 1810.88 -2.10284 -3.69676 0
M  V30 19259 N 1809.19 1.18355 -1.04066 0
M  V30 19260 C 1810.42 1.92816 -0.763979 0
M  V30 19261 C 1810.84 1.75658 0.672749 0
M  V30 19262 O 1810.2 1.06671 1.46598 0
M  V30 19263 C 1810.25 3.42267 -1.13516 0
M  V30 19264 O 1809.35 4.11576 -0.260646 0
M  V30 19265 H 1808.7 0.601532 -0.281167 0
M  V30 19266 H 1811.23 1.50087 -1.3905 0
M  V30 19267 H 1811.24 3.92973 -1.09709 0
M  V30 19268 H 1809.91 3.54076 -2.18181 0
M  V30 19269 H 1808.49 3.71174 -0.358342 0
M  V30 19270 N 1810.67 0.820125 1.3458 0
M  V30 19271 C 1811.62 0.237994 2.2957 0
M  V30 19272 C 1812.59 -0.635637 1.53456 0
M  V30 19273 O 1813.77 -0.57787 1.81839 0
M  V30 19274 C 1810.91 -0.596426 3.39907 0
M  V30 19275 C 1810.03 0.29914 4.30963 0
M  V30 19276 C 1809.16 -0.54458 5.28401 0
M  V30 19277 C 1808.2 0.350546 6.11095 0
M  V30 19278 N 1807.34 -0.453936 7.00631 0
M  V30 19279 H 1812.18 1.0534 2.7876 0
M  V30 19280 H 1809.72 0.530977 1.37183 0
M  V30 19281 H 1811.67 -1.0955 4.0256 0
M  V30 19282 H 1810.3 -1.37697 2.91958 0
M  V30 19283 H 1809.36 0.916412 3.69196 0
M  V30 19284 H 1810.67 0.987544 4.88926 0
M  V30 19285 H 1809.82 -1.10825 5.96492 0
M  V30 19286 H 1808.56 -1.2665 4.70968 0
M  V30 19287 H 1807.57 0.926375 5.41939 0
M  V30 19288 H 1808.79 1.07054 6.70609 0
M  V30 19289 H 1806.74 -1.15958 6.4567 0
M  V30 19290 H 1806.65 0.176138 7.55795 0
M  V30 19291 H 1807.92 -1.00044 7.73053 0
M  V30 19292 N 1812.15 -1.46743 0.574835 0
M  V30 19293 C 1813.06 -2.34015 -0.16559 0
M  V30 19294 C 1814.08 -1.49273 -0.894064 0
M  V30 19295 O 1815.25 -1.82162 -0.859013 0
M  V30 19296 C 1812.32 -3.26313 -1.17136 0
M  V30 19297 C 1811.38 -4.26952 -0.448413 0
M  V30 19298 C 1810.61 -5.1484 -1.40627 0
M  V30 19299 O 1810.83 -5.05508 -2.6423 0
M  V30 19300 O 1809.77 -5.9481 -0.921143 0
M  V30 19301 H 1813.59 -2.98664 0.550754 0
M  V30 19302 H 1811.18 -1.45589 0.335297 0
M  V30 19303 H 1813.06 -3.83276 -1.75149 0
M  V30 19304 H 1811.74 -2.64269 -1.86931 0
M  V30 19305 H 1810.64 -3.73698 0.17336 0
M  V30 19306 H 1811.98 -4.91759 0.208419 0
M  V30 19307 N 1813.63 -0.312197 -1.54477 0
M  V30 19308 C 1814.56 0.551829 -2.26886 0
M  V30 19309 C 1815.54 1.12874 -1.27254 0
M  V30 19310 O 1816.72 1.15599 -1.56046 0
M  V30 19311 C 1813.85 1.71839 -3.01809 0
M  V30 19312 C 1812.81 1.27131 -4.08683 0
M  V30 19313 C 1812.13 2.52392 -4.71384 0
M  V30 19314 C 1813.43 0.394413 -5.20809 0
M  V30 19315 H 1815.13 -0.0521331 -2.99355 0
M  V30 19316 H 1812.67 -0.0265138 -1.43976 0
M  V30 19317 H 1814.63 2.32903 -3.5119 0
M  V30 19318 H 1813.35 2.34876 -2.26938 0
M  V30 19319 H 1812.01 0.683666 -3.60169 0
M  V30 19320 H 1811.66 3.13768 -3.93139 0
M  V30 19321 H 1811.36 2.23174 -5.43569 0
M  V30 19322 H 1812.88 3.14239 -5.23533 0
M  V30 19323 H 1814.3 0.911031 -5.66015 0
M  V30 19324 H 1812.69 0.195517 -5.99781 0
M  V30 19325 H 1813.76 -0.577661 -4.81447 0
M  V30 19326 N 1815.11 1.57549 -0.040136 0
M  V30 19327 C 1816.04 2.06413 0.973089 0
M  V30 19328 C 1817.02 0.962235 1.31072 0
M  V30 19329 O 1818.2 1.23337 1.42549 0
M  V30 19330 C 1815.33 2.49541 2.29013 0
M  V30 19331 C 1814.37 3.70858 2.10634 0
M  V30 19332 S 1815.21 5.17013 1.39493 0
M  V30 19333 C 1816.36 5.63445 2.72544 0
M  V30 19334 H 1816.6 2.92032 0.557186 0
M  V30 19335 H 1814.13 1.53441 0.171846 0
M  V30 19336 H 1816.09 2.75052 3.04723 0
M  V30 19337 H 1814.75 1.64247 2.67734 0
M  V30 19338 H 1813.94 3.98918 3.08027 0
M  V30 19339 H 1813.54 3.45555 1.43065 0
M  V30 19340 H 1815.84 5.68357 3.68749 0
M  V30 19341 H 1816.78 6.62826 2.49134 0
M  V30 19342 H 1817.19 4.91133 2.78296 0
M  V30 19343 N 1816.58 -0.233136 1.55866 0
M  V30 19344 C 1817.52 -1.31564 1.86457 0
M  V30 19345 C 1818.5 -1.45747 0.720872 0
M  V30 19346 O 1819.68 -1.61744 0.968051 0
M  V30 19347 C 1816.81 -2.68745 2.0614 0
M  V30 19348 C 1815.85 -2.71639 3.28808 0
M  V30 19349 S 1816.69 -2.26866 4.85069 0
M  V30 19350 C 1817.84 -3.65945 5.07774 0
M  V30 19351 H 1818.07 -1.05419 2.77982 0
M  V30 19352 H 1815.61 -0.434809 1.48151 0
M  V30 19353 H 1817.57 -3.47728 2.18164 0
M  V30 19354 H 1816.23 -2.9212 1.15433 0
M  V30 19355 H 1815.42 -3.72418 3.39589 0
M  V30 19356 H 1815.02 -2.00711 3.15581 0
M  V30 19357 H 1817.31 -4.61549 4.95962 0
M  V30 19358 H 1818.26 -3.60088 6.09706 0
M  V30 19359 H 1818.66 -3.59096 4.35557 0
M  V30 19360 N 1818.06 -1.49479 -0.499372 0
M  V30 19361 C 1819.29 -1.6276 -1.27738 0
M  V30 19362 C 1819.71 -0.299635 -1.86407 0
M  V30 19363 O 1819.06 0.715092 -1.67907 0
M  V30 19364 C 1819.11 -2.69762 -2.40647 0
M  V30 19365 O 1818.84 -3.97407 -1.84388 0
M  V30 19366 C 1820.34 -2.93762 -3.31992 0
M  V30 19367 H 1817.56 -0.547893 -0.387368 0
M  V30 19368 H 1820.1 -1.95522 -0.599292 0
M  V30 19369 H 1818.26 -2.39773 -3.04282 0
M  V30 19370 H 1818.67 -4.56361 -2.58525 0
M  V30 19371 H 1820.14 -3.72361 -4.07494 0
M  V30 19372 H 1820.62 -2.0374 -3.89085 0
M  V30 19373 H 1821.23 -3.25173 -2.74122 0
M  V30 19374 N 1819.54 0.750537 -1.38581 0
M  V30 19375 C 1820.77 1.53978 -1.38196 0
M  V30 19376 C 1821.18 1.8878 0.0274976 0
M  V30 19377 O 1820.54 1.52997 0.994894 0
M  V30 19378 C 1820.59 2.83702 -2.24043 0
M  V30 19379 O 1820.31 2.50384 -3.59499 0
M  V30 19380 C 1821.81 3.77823 -2.31872 0
M  V30 19381 H 1819.03 0.476345 -0.472585 0
M  V30 19382 H 1821.58 0.928634 -1.82199 0
M  V30 19383 H 1819.73 3.41187 -1.83494 0
M  V30 19384 H 1820.15 3.33605 -4.04732 0
M  V30 19385 H 1821.62 4.65788 -2.96218 0
M  V30 19386 H 1822.1 4.18474 -1.33327 0
M  V30 19387 H 1822.7 3.26262 -2.72824 0
M  V30 19388 N 1821.02 1.235 0.979051 0
M  V30 19389 C 1822.27 1.06197 1.71479 0
M  V30 19390 C 1822.58 -0.401066 1.91444 0
M  V30 19391 O 1823.79 -0.69406 2.62479 0
M  V30 19392 C 1822.24 1.85189 3.08598 0
M  V30 19393 C 1821.85 3.35831 2.96516 0
M  V30 19394 C 1823.6 1.76379 3.86122 0
M  V30 19395 C 1821.5 4.0721 4.28875 0
M  V30 19396 H 1820.43 0.393779 0.643004 0
M  V30 19397 H 1823.08 1.47479 1.09188 0
M  V30 19398 H 1821.47 1.36714 3.71652 0
M  V30 19399 H 1822.64 3.91803 2.42543 0
M  V30 19400 H 1820.95 3.45469 2.32466 0
M  V30 19401 H 1823.55 2.2702 4.84114 0
M  V30 19402 H 1823.89 0.726826 4.09906 0
M  V30 19403 H 1824.43 2.22473 3.29773 0
M  V30 19404 H 1821.17 5.11218 4.10288 0
M  V30 19405 H 1820.69 3.56025 4.82707 0
M  V30 19406 H 1822.37 4.13579 4.97555 0
M  V30 19407 N 1822.5 -1.17802 1.04693 0
M  V30 19408 C 1823.75 -1.87567 0.752534 0
M  V30 19409 C 1824.07 -1.81129 -0.722303 0
M  V30 19410 O 1823.34 -1.23385 -1.52161 0
M  V30 19411 H 1821.92 -0.69439 0.275376 0
M  V30 19412 H 1824.58 -1.42932 1.32501 0
M  V30 19413 H 1823.67 -2.9344 1.06299 0
M  V30 19414 N 1823.98 -0.827251 -1.34143 0
M  V30 19415 C 1825.22 -0.413762 -1.9741 0
M  V30 19416 C 1825.54 1.0297 -1.66303 0
M  V30 19417 O 1826.74 1.5473 -2.23094 0
M  V30 19418 C 1825.2 -0.688904 -3.53245 0
M  V30 19419 C 1824.81 -2.14627 -3.93242 0
M  V30 19420 C 1826.55 -0.341794 -4.23122 0
M  V30 19421 C 1824.46 -2.36607 -5.42006 0
M  V30 19422 H 1823.39 -0.150982 -0.738729 0
M  V30 19423 H 1826.04 -1.01421 -1.52925 0
M  V30 19424 H 1824.42 -0.0182319 -3.95996 0
M  V30 19425 H 1825.6 -2.85646 -3.61584 0
M  V30 19426 H 1823.91 -2.45523 -3.36314 0
M  V30 19427 H 1826.51 -0.483797 -5.32507 0
M  V30 19428 H 1826.85 0.714135 -4.10129 0
M  V30 19429 H 1827.38 -0.96722 -3.85862 0
M  V30 19430 H 1824.12 -3.40722 -5.5999 0
M  V30 19431 H 1823.64 -1.70137 -5.75164 0
M  V30 19432 H 1825.32 -2.19181 -6.08744 0
M  V30 19433 N 1825.45 1.46436 -0.582609 0
M  V30 19434 C 1826.7 2.02685 -0.0682503 0
M  V30 19435 C 1827.03 1.45315 1.2883 0
M  V30 19436 O 1826.31 0.61821 1.84414 0
M  V30 19437 C 1826.59 3.601 -0.00237797 0
M  V30 19438 C 1826.44 4.27855 -1.38782 0
M  V30 19439 C 1827.76 4.34525 0.69829 0
M  V30 19440 H 1824.88 0.736531 -0.0262761 0
M  V30 19441 H 1827.52 1.7458 -0.749789 0
M  V30 19442 H 1825.67 3.84176 0.57803 0
M  V30 19443 H 1827.35 4.15043 -2.01339 0
M  V30 19444 H 1825.59 3.87221 -1.95557 0
M  V30 19445 H 1826.26 5.36614 -1.2942 0
M  V30 19446 H 1828.74 4.15594 0.205219 0
M  V30 19447 H 1827.61 5.44244 0.71341 0
M  V30 19448 H 1827.87 4.05575 1.75957 0
M  V30 19449 N 1826.93 0.320385 1.54309 0
M  V30 19450 C 1827.86 -0.539789 2.27175 0
M  V30 19451 C 1828.84 -1.12198 1.2785 0
M  V30 19452 O 1830.03 -1.1477 1.56657 0
M  V30 19453 C 1827.16 -1.70236 3.02716 0
M  V30 19454 C 1826.11 -1.24962 4.09351 0
M  V30 19455 C 1825.44 -2.49888 4.72715 0
M  V30 19456 C 1826.74 -0.366788 5.21011 0
M  V30 19457 H 1828.43 0.0680079 2.99323 0
M  V30 19458 H 1825.98 0.0341488 1.4396 0
M  V30 19459 H 1827.93 -2.31037 3.5242 0
M  V30 19460 H 1826.65 -2.33669 2.2818 0
M  V30 19461 H 1825.31 -0.664556 3.60526 0
M  V30 19462 H 1824.96 -3.11679 3.94798 0
M  V30 19463 H 1824.66 -2.20288 5.44745 0
M  V30 19464 H 1826.19 -3.11458 5.25192 0
M  V30 19465 H 1827.6 -0.881001 5.6649 0
M  V30 19466 H 1826 -0.163707 5.99877 0
M  V30 19467 H 1827.07 0.603185 4.81134 0
M  V30 19468 N 1828.41 -1.57525 0.0484906 0
M  V30 19469 C 1829.34 -2.14405 -0.924811 0
M  V30 19470 C 1830.32 -1.06503 -1.32631 0
M  V30 19471 O 1831.51 -1.3443 -1.4015 0
M  V30 19472 C 1828.64 -2.68686 -2.20057 0
M  V30 19473 C 1827.59 -3.81547 -1.93922 0
M  V30 19474 C 1826.92 -4.22334 -3.27929 0
M  V30 19475 C 1828.22 -5.06801 -1.26295 0
M  V30 19476 H 1829.91 -2.95983 -0.45105 0
M  V30 19477 H 1827.46 -1.42378 -0.215514 0
M  V30 19478 H 1829.41 -3.07117 -2.88543 0
M  V30 19479 H 1828.13 -1.84296 -2.69634 0
M  V30 19480 H 1826.79 -3.43585 -1.27848 0
M  V30 19481 H 1826.44 -3.34899 -3.75302 0
M  V30 19482 H 1826.14 -4.984 -3.11242 0
M  V30 19483 H 1827.66 -4.63363 -3.97652 0
M  V30 19484 H 1829.08 -5.42695 -1.84812 0
M  V30 19485 H 1827.47 -5.87991 -1.19943 0
M  V30 19486 H 1828.54 -4.84313 -0.238605 0
M  V30 19487 N 1829.89 0.224867 -1.55988 0
M  V30 19488 C 1831.11 0.970897 -1.83271 0
M  V30 19489 C 1831.54 1.77293 -0.628399 0
M  V30 19490 O 1830.9 1.76301 0.422804 0
M  V30 19491 C 1830.94 1.86686 -3.08514 0
M  V30 19492 O 1830.05 2.96174 -2.86975 0
M  V30 19493 H 1829.39 0.275093 -0.604334 0
M  V30 19494 H 1831.92 0.239183 -2.03197 0
M  V30 19495 H 1831.93 2.27731 -3.3853 0
M  V30 19496 H 1830.6 1.27733 -3.95799 0
M  V30 19497 H 1829.18 2.59099 -2.68183 0
M  V30 19498 N 1831.37 1.49742 0.491438 0
M  V30 19499 C 1832.3 1.63245 1.60884 0
M  V30 19500 C 1833.31 0.514713 1.54449 0
M  V30 19501 O 1834.5 0.787136 1.60207 0
M  V30 19502 C 1831.6 1.58202 2.99709 0
M  V30 19503 C 1830.77 2.8567 3.31227 0
M  V30 19504 C 1829.83 2.73548 4.49509 0
M  V30 19505 O 1828.86 3.47492 4.50819 0
M  V30 19506 N 1830.06 1.85734 5.49985 0
M  V30 19507 H 1832.82 2.5962 1.49724 0
M  V30 19508 H 1830.39 1.46951 0.679494 0
M  V30 19509 H 1832.38 1.47734 3.76771 0
M  V30 19510 H 1830.95 0.696461 3.04743 0
M  V30 19511 H 1830.17 3.10418 2.4297 0
M  V30 19512 H 1831.46 3.70156 3.49088 0
M  V30 19513 H 1830.85 1.24933 5.51732 0
M  V30 19514 H 1829.41 1.81182 6.26112 0
M  V30 19515 N 1832.84 -0.743177 1.38977 0
M  V30 19516 C 1834.07 -1.53753 1.39193 0
M  V30 19517 C 1834.49 -1.88095 -0.0136591 0
M  V30 19518 O 1833.85 -1.51326 -0.998508 0
M  V30 19519 C 1833.9 -2.80679 2.26389 0
M  V30 19520 O 1833 -3.76265 1.68815 0
M  V30 19521 H 1832.35 -0.464639 0.474349 0
M  V30 19522 H 1834.88 -0.917579 1.82871 0
M  V30 19523 H 1834.89 -3.29498 2.40614 0
M  V30 19524 H 1833.56 -2.55014 3.28543 0
M  V30 19525 H 1832.14 -3.35004 1.63788 0
M  V30 19526 N 1834.32 -1.24018 -0.972487 0
M  V30 19527 C 1835.55 -1.10483 -1.75523 0
M  V30 19528 C 1835.97 0.338985 -1.8502 0
M  V30 19529 O 1835.33 1.24534 -1.31761 0
M  V30 19530 C 1835.38 -1.74396 -3.15624 0
M  V30 19531 O 1834.48 -1.01148 -3.99804 0
M  V30 19532 H 1833.82 -0.386777 -0.539722 0
M  V30 19533 H 1836.35 -1.64231 -1.22022 0
M  V30 19534 H 1836.36 -1.79958 -3.66168 0
M  V30 19535 H 1835.04 -2.7945 -3.08026 0
M  V30 19536 H 1833.62 -1.03338 -3.58296 0
M  V30 19537 N 1835.8 1.17245 -1.05316 0
M  V30 19538 C 1837.05 1.86871 -0.759093 0
M  V30 19539 C 1837.36 1.81997 0.7167 0
M  V30 19540 O 1838.57 2.47106 1.12476 0
M  V30 19541 C 1837.02 3.35303 -1.30766 0
M  V30 19542 C 1836.63 3.48676 -2.81299 0
M  V30 19543 C 1838.38 4.10249 -1.0907 0
M  V30 19544 C 1836.28 4.91138 -3.2945 0
M  V30 19545 H 1835.21 0.699975 -0.28027 0
M  V30 19546 H 1837.86 1.32393 -1.27061 0
M  V30 19547 H 1836.25 3.89326 -0.723955 0
M  V30 19548 H 1837.42 3.04864 -3.45536 0
M  V30 19549 H 1835.74 2.87152 -3.0155 0
M  V30 19550 H 1838.33 5.1535 -1.42545 0
M  V30 19551 H 1838.68 4.1629 -0.0285204 0
M  V30 19552 H 1839.21 3.62436 -1.63967 0
M  V30 19553 H 1835.95 4.90271 -4.35103 0
M  V30 19554 H 1835.47 5.35615 -2.69956 0
M  V30 19555 H 1837.15 5.59913 -3.24201 0
M  V30 19556 N 1837.28 0.834353 1.33702 0
M  V30 19557 C 1838.69 0.485213 1.80285 0
M  V30 19558 C 1839.04 -0.995397 1.69075 0
M  V30 19559 O 1838.17 -1.77532 1.23738 0
M  V30 19560 C 1838.76 0.873959 3.27334 0
M  V30 19561 C 1837.32 0.577023 3.71951 0
M  V30 19562 C 1836.47 1.08473 2.55204 0
M  V30 19563 H 1839.42 1.02347 1.21288 0
M  V30 19564 H 1839.44 0.182218 3.80063 0
M  V30 19565 H 1838.95 1.95161 3.35461 0
M  V30 19566 H 1837.05 -0.490747 3.69354 0
M  V30 19567 H 1837.16 1.12909 4.65605 0
M  V30 19568 H 1835.53 0.505779 2.49628 0
M  V30 19569 H 1836.31 2.16906 2.66095 0
M  V30 19570 N 1838.76 -1.46125 0.590367 0
M  V30 19571 C 1839.67 -2.34177 -0.140761 0
M  V30 19572 C 1840.68 -1.50213 -0.878181 0
M  V30 19573 O 1841.86 -1.83063 -0.839644 0
M  V30 19574 C 1838.92 -3.27537 -1.13669 0
M  V30 19575 C 1837.98 -4.27403 -0.403103 0
M  V30 19576 C 1837.22 -5.16302 -1.35159 0
M  V30 19577 O 1837.44 -5.08283 -2.58853 0
M  V30 19578 O 1836.37 -5.95753 -0.858003 0
M  V30 19579 H 1840.2 -2.98063 0.582401 0
M  V30 19580 H 1837.79 -1.45225 0.35072 0
M  V30 19581 H 1839.67 -3.85112 -1.71074 0
M  V30 19582 H 1838.34 -2.66237 -1.84118 0
M  V30 19583 H 1837.25 -3.73493 0.212986 0
M  V30 19584 H 1838.58 -4.9151 0.260565 0
M  V30 19585 N 1840.23 -0.328564 -1.54137 0
M  V30 19586 C 1841.46 0.274326 -2.05073 0
M  V30 19587 C 1841.88 1.45393 -1.20442 0
M  V30 19588 O 1841.23 1.80964 -0.23625 0
M  V30 19589 C 1841.29 0.703941 -3.5458 0
M  V30 19590 O 1841.01 -0.428738 -4.35997 0
M  V30 19591 C 1842.51 1.36912 -4.21628 0
M  V30 19592 H 1839.73 0.0556157 -0.668691 0
M  V30 19593 H 1842.27 -0.476204 -1.98878 0
M  V30 19594 H 1840.43 1.40444 -3.61046 0
M  V30 19595 H 1840.84 -0.0892654 -5.24424 0
M  V30 19596 H 1842.31 1.62062 -5.27674 0
M  V30 19597 H 1842.79 2.31799 -3.73049 0
M  V30 19598 H 1843.4 0.711064 -4.19314 0
M  V30 19599 N 1841.71 1.57497 -0.0568439 0
M  V30 19600 C 1842.96 1.9209 0.615157 0
M  V30 19601 C 1843.27 0.937538 1.71667 0
M  V30 19602 O 1844.48 1.17573 2.44722 0
M  V30 19603 C 1842.94 3.41183 1.14552 0
M  V30 19604 C 1842.54 4.47936 0.0758146 0
M  V30 19605 C 1844.29 3.84801 1.79244 0
M  V30 19606 C 1842.2 5.88148 0.619381 0
M  V30 19607 H 1841.13 0.716918 0.233547 0
M  V30 19608 H 1843.78 1.83062 -0.126654 0
M  V30 19609 H 1842.16 3.45234 1.93983 0
M  V30 19610 H 1843.33 4.55482 -0.69807 0
M  V30 19611 H 1841.65 4.13694 -0.473984 0
M  V30 19612 H 1844.24 4.86929 2.20918 0
M  V30 19613 H 1844.59 3.21355 2.64645 0
M  V30 19614 H 1845.12 3.8329 1.0646 0
M  V30 19615 H 1841.86 6.55204 -0.19712 0
M  V30 19616 H 1841.38 5.84152 1.36112 0
M  V30 19617 H 1843.06 6.37572 1.1005 0
M  V30 19618 N 1843.19 -0.216591 1.56105 0
M  V30 19619 C 1844.12 -1.27155 1.95841 0
M  V30 19620 C 1845.1 -1.48626 0.827313 0
M  V30 19621 O 1846.29 -1.60725 1.09 0
M  V30 19622 C 1843.42 -2.62032 2.27939 0
M  V30 19623 C 1842.37 -2.55211 3.43586 0
M  V30 19624 C 1841.7 -3.94163 3.61303 0
M  V30 19625 C 1843 -2.09566 4.78413 0
M  V30 19626 H 1844.69 -0.941435 2.84214 0
M  V30 19627 H 1842.24 -0.451427 1.36741 0
M  V30 19628 H 1844.19 -3.35997 2.5433 0
M  V30 19629 H 1842.91 -2.96742 1.36426 0
M  V30 19630 H 1841.57 -1.83703 3.17252 0
M  V30 19631 H 1841.22 -4.26188 2.67156 0
M  V30 19632 H 1840.92 -3.90479 4.3909 0
M  V30 19633 H 1842.44 -4.69782 3.90047 0
M  V30 19634 H 1843.86 -2.73277 5.03977 0
M  V30 19635 H 1842.26 -2.16931 5.59518 0
M  V30 19636 H 1843.33 -1.0481 4.73437 0
M  V30 19637 N 1844.67 -1.5 -0.48349 0
M  V30 19638 C 1845.58 -1.70722 -1.60907 0
M  V30 19639 C 1846.59 -0.590075 -1.63689 0
M  V30 19640 O 1847.77 -0.866915 -1.81787 0
M  V30 19641 C 1844.84 -1.78544 -2.97192 0
M  V30 19642 C 1843.9 -3.02218 -3.04898 0
M  V30 19643 C 1843.13 -3.09658 -4.34681 0
M  V30 19644 O 1843.35 -2.24216 -5.24484 0
M  V30 19645 O 1842.29 -4.02278 -4.47723 0
M  V30 19646 H 1846.11 -2.66111 -1.4635 0
M  V30 19647 H 1843.7 -1.33949 -0.661666 0
M  V30 19648 H 1845.58 -1.85941 -3.78159 0
M  V30 19649 H 1844.25 -0.863364 -3.11974 0
M  V30 19650 H 1843.16 -3.00329 -2.23054 0
M  V30 19651 H 1844.49 -3.93964 -2.95048 0
M  V30 19652 N 1846.15 0.735796 -1.39369 0
M  V30 19653 C 1847.08 1.86303 -1.4076 0
M  V30 19654 C 1848.06 1.67926 -0.27107 0
M  V30 19655 O 1849.24 1.88257 -0.476773 0
M  V30 19656 C 1846.37 3.24043 -1.24955 0
M  V30 19657 C 1845.33 3.57055 -2.35999 0
M  V30 19658 C 1844.65 4.93723 -2.05284 0
M  V30 19659 C 1845.95 3.60109 -3.7831 0
M  V30 19660 H 1847.65 1.85396 -2.35093 0
M  V30 19661 H 1845.19 0.890552 -1.1316 0
M  V30 19662 H 1847.15 4.02574 -1.24549 0
M  V30 19663 H 1845.87 3.25475 -0.270902 0
M  V30 19664 H 1844.53 2.80853 -2.35621 0
M  V30 19665 H 1844.18 4.91734 -1.05859 0
M  V30 19666 H 1843.88 5.16779 -2.79667 0
M  V30 19667 H 1845.4 5.74612 -2.06527 0
M  V30 19668 H 1846.81 4.28718 -3.80622 0
M  V30 19669 H 1845.21 3.94683 -4.52046 0
M  V30 19670 H 1846.28 2.59932 -4.09345 0
M  V30 19671 N 1847.63 1.24532 0.965897 0
M  V30 19672 C 1848.85 1.11318 1.74401 0
M  V30 19673 C 1849.27 -0.33411 1.8582 0
M  V30 19674 O 1848.63 -1.23044 1.34783 0
M  V30 19675 C 1848.68 1.74927 3.16358 0
M  V30 19676 O 1848.4 3.13998 3.05511 0
M  V30 19677 C 1849.9 1.67347 4.105 0
M  V30 19678 H 1847.12 0.388835 0.546853 0
M  V30 19679 H 1849.66 1.64674 1.21255 0
M  V30 19680 H 1847.82 1.2557 3.66485 0
M  V30 19681 H 1848.23 3.45097 3.94979 0
M  V30 19682 H 1849.71 2.16533 5.07757 0
M  V30 19683 H 1850.18 0.635036 4.34585 0
M  V30 19684 H 1850.79 2.16139 3.66284 0
M  V30 19685 N 1849.1 -1.16685 1.05936 0
M  V30 19686 C 1850.38 -1.8312 0.6875 0
M  V30 19687 C 1850.76 -1.94035 -0.831474 0
M  V30 19688 O 1850.11 -1.48067 -1.74036 0
M  V30 19689 C 1850.32 -3.20331 1.38524 0
M  V30 19690 C 1851.67 -3.96149 1.52811 0
M  V30 19691 O 1852.69 -3.29837 1.34485 0
M  V30 19692 O 1851.55 -5.15005 1.82845 0
M  V30 19693 H 1848.64 -0.790513 0.242937 0
M  V30 19694 H 1851.19 -1.23918 1.15941 0
M  V30 19695 H 1849.96 -3.074 2.42118 0
M  V30 19696 H 1849.58 -3.87206 0.903164 0
M  V30 19697 N 1850.58 -0.841432 -1.33258 0
M  V30 19698 C 1851.54 -0.281685 -2.27462 0
M  V30 19699 C 1852.54 0.551062 -1.51063 0
M  V30 19700 O 1853.73 0.364482 -1.70344 0
M  V30 19701 C 1850.87 0.602896 -3.35526 0
M  V30 19702 H 1852.06 -1.11298 -2.78483 0
M  V30 19703 H 1849.61 -0.614717 -1.43704 0
M  V30 19704 H 1850.35 1.45652 -2.89751 0
M  V30 19705 H 1850.13 0.00701634 -3.92099 0
M  V30 19706 H 1851.62 0.987735 -4.05751 0
M  V30 19707 N 1852.06 1.4581 -0.598108 0
M  V30 19708 C 1852.99 2.33223 0.113747 0
M  V30 19709 C 1853.97 1.46268 0.868312 0
M  V30 19710 O 1855.16 1.75058 0.840737 0
M  V30 19711 C 1852.29 3.28815 1.11795 0
M  V30 19712 C 1851.24 4.25331 0.477223 0
M  V30 19713 C 1850.57 5.10544 1.589 0
M  V30 19714 C 1851.87 5.18894 -0.595518 0
M  V30 19715 H 1853.56 2.92992 -0.616123 0
M  V30 19716 H 1851.11 1.40888 -0.297741 0
M  V30 19717 H 1853.06 3.88832 1.62443 0
M  V30 19718 H 1851.78 2.67185 1.87829 0
M  V30 19719 H 1850.44 3.66599 -0.00831044 0
M  V30 19720 H 1850.09 4.45288 2.33939 0
M  V30 19721 H 1849.79 5.75918 1.16584 0
M  V30 19722 H 1851.31 5.73427 2.09794 0
M  V30 19723 H 1852.73 5.73037 -0.173494 0
M  V30 19724 H 1851.12 5.92694 -0.939873 0
M  V30 19725 H 1852.19 4.61895 -1.47584 0
M  V30 19726 N 1853.54 0.336733 1.53961 0
M  V30 19727 C 1854.5 -0.510638 2.23439 0
M  V30 19728 C 1855.5 -1.03304 1.23227 0
M  V30 19729 O 1856.69 -0.923373 1.47714 0
M  V30 19730 C 1853.82 -1.71063 2.94873 0
M  V30 19731 H 1855.02 0.0969205 2.99743 0
M  V30 19732 H 1852.57 0.0879867 1.56052 0
M  V30 19733 H 1853.3 -2.35707 2.22739 0
M  V30 19734 H 1853.09 -1.34331 3.68371 0
M  V30 19735 H 1854.58 -2.31182 3.47771 0
M  V30 19736 N 1855.02 -1.57465 0.0651956 0
M  V30 19737 C 1855.95 -2.15374 -0.902018 0
M  V30 19738 C 1856.93 -1.07904 -1.31494 0
M  V30 19739 O 1858.11 -1.35909 -1.38717 0
M  V30 19740 C 1855.24 -2.71005 -2.17195 0
M  V30 19741 C 1854.2 -3.83583 -1.89864 0
M  V30 19742 C 1853.52 -4.25789 -3.23432 0
M  V30 19743 C 1854.82 -5.08112 -1.20913 0
M  V30 19744 H 1856.52 -2.96445 -0.419631 0
M  V30 19745 H 1854.06 -1.42599 -0.200401 0
M  V30 19746 H 1856.01 -3.1016 -2.8527 0
M  V30 19747 H 1854.74 -1.87146 -2.67664 0
M  V30 19748 H 1853.4 -3.44921 -1.24197 0
M  V30 19749 H 1853.05 -3.38861 -3.71729 0
M  V30 19750 H 1852.75 -5.01673 -3.05938 0
M  V30 19751 H 1854.27 -4.67555 -3.92715 0
M  V30 19752 H 1855.68 -5.44624 -1.79046 0
M  V30 19753 H 1854.08 -5.8923 -1.137 0
M  V30 19754 H 1855.15 -4.84538 -0.187224 0
M  V30 19755 N 1856.49 0.20831 -1.56217 0
M  V30 19756 C 1857.74 0.928886 -1.79488 0
M  V30 19757 C 1858.06 1.84337 -0.636 0
M  V30 19758 O 1857.33 1.92813 0.346416 0
M  V30 19759 H 1855.91 0.345985 -0.662045 0
M  V30 19760 H 1858.57 0.216988 -1.93688 0
M  V30 19761 H 1857.67 1.52786 -2.72145 0
M  V30 19762 N 1857.97 1.50255 0.475528 0
M  V30 19763 C 1858.9 1.63428 1.59268 0
M  V30 19764 C 1859.88 0.482517 1.55276 0
M  V30 19765 O 1861.07 0.70144 1.74963 0
M  V30 19766 C 1858.19 1.61277 2.97838 0
M  V30 19767 C 1857.24 2.81961 3.20001 0
M  V30 19768 S 1858.07 4.43321 3.00378 0
M  V30 19769 C 1859.23 4.43855 4.41297 0
M  V30 19770 H 1859.46 2.57928 1.47853 0
M  V30 19771 H 1856.99 1.39462 0.662547 0
M  V30 19772 H 1858.95 1.60721 3.77729 0
M  V30 19773 H 1857.61 0.680212 3.06646 0
M  V30 19774 H 1856.81 2.76747 4.21221 0
M  V30 19775 H 1856.41 2.80061 2.47875 0
M  V30 19776 H 1858.7 4.17145 5.33851 0
M  V30 19777 H 1859.64 5.45439 4.51555 0
M  V30 19778 H 1860.05 3.73616 4.23168 0
M  V30 19779 N 1859.45 -0.728395 1.39758 0
M  V30 19780 C 1860.38 -1.85149 1.33398 0
M  V30 19781 C 1861.36 -1.61283 0.206504 0
M  V30 19782 O 1862.54 -1.84463 0.388051 0
M  V30 19783 C 1859.67 -3.21255 1.07297 0
M  V30 19784 C 1858.72 -3.6397 2.22324 0
M  V30 19785 S 1859.55 -3.72569 3.84646 0
M  V30 19786 C 1860.71 -5.11455 3.60783 0
M  V30 19787 H 1860.94 -1.90261 2.28447 0
M  V30 19788 H 1858.47 -0.893913 1.25891 0
M  V30 19789 H 1860.43 -3.99844 0.929231 0
M  V30 19790 H 1859.09 -3.13791 0.139242 0
M  V30 19791 H 1858.28 -4.62761 1.99671 0
M  V30 19792 H 1857.89 -2.92604 2.32936 0
M  V30 19793 H 1860.18 -5.97989 3.18457 0
M  V30 19794 H 1861.12 -5.39139 4.59059 0
M  V30 19795 H 1861.53 -4.81443 2.94742 0
M  V30 19796 N 1860.93 -1.25042 -0.959279 0
M  V30 19797 C 1862.17 -1.09677 -1.70584 0
M  V30 19798 C 1862.51 0.362184 -1.90793 0
M  V30 19799 O 1861.78 1.26722 -1.47552 0
M  V30 19800 C 1862.06 -1.84646 -3.09157 0
M  V30 19801 C 1861.92 -3.38342 -2.96387 0
M  V30 19802 C 1863.24 -1.62588 -4.08966 0
M  V30 19803 H 1860.36 -0.399817 -0.619125 0
M  V30 19804 H 1863 -1.53816 -1.11537 0
M  V30 19805 H 1861.15 -1.47129 -3.59563 0
M  V30 19806 H 1862.82 -3.85507 -2.53342 0
M  V30 19807 H 1861.06 -3.66291 -2.32408 0
M  V30 19808 H 1861.73 -3.86007 -3.94592 0
M  V30 19809 H 1864.21 -1.9524 -3.67451 0
M  V30 19810 H 1863.09 -2.17488 -5.03975 0
M  V30 19811 H 1863.35 -0.566103 -4.38461 0
M  V30 19812 N 1862.41 1.16121 -1.06553 0
M  V30 19813 C 1863.34 2.22761 -0.699976 0
M  V30 19814 C 1864.32 1.67274 0.308783 0
M  V30 19815 O 1865.5 1.93333 0.183328 0
M  V30 19816 C 1862.63 3.47187 -0.0884044 0
M  V30 19817 C 1861.59 4.15584 -1.02343 0
M  V30 19818 C 1860.91 5.33992 -0.275022 0
M  V30 19819 C 1862.21 4.66266 -2.35358 0
M  V30 19820 H 1863.91 2.53595 -1.59153 0
M  V30 19821 H 1861.45 1.21893 -0.766686 0
M  V30 19822 H 1863.41 4.21019 0.17922 0
M  V30 19823 H 1862.13 3.15661 0.838181 0
M  V30 19824 H 1860.79 3.43683 -1.27584 0
M  V30 19825 H 1860.44 4.9872 0.654765 0
M  V30 19826 H 1860.14 5.80695 -0.898181 0
M  V30 19827 H 1861.66 6.10598 -0.0150056 0
M  V30 19828 H 1863.07 5.31665 -2.14488 0
M  V30 19829 H 1861.47 5.236 -2.93195 0
M  V30 19830 H 1862.54 3.82335 -2.98241 0
M  V30 19831 N 1863.88 0.848487 1.3281 0
M  V30 19832 C 1864.83 0.286636 2.29013 0
M  V30 19833 C 1865.8 -0.602944 1.5477 0
M  V30 19834 O 1866.99 -0.539169 1.83024 0
M  V30 19835 C 1864.13 -0.524193 3.41096 0
M  V30 19836 C 1863.24 0.390486 4.30232 0
M  V30 19837 C 1862.37 -0.432376 5.29437 0
M  V30 19838 C 1861.41 0.48009 6.10214 0
M  V30 19839 N 1860.55 -0.30522 7.01436 0
M  V30 19840 H 1865.39 1.1123 2.76463 0
M  V30 19841 H 1862.93 0.559956 1.36025 0
M  V30 19842 H 1864.89 -1.00987 4.04793 0
M  V30 19843 H 1863.52 -1.31474 2.94813 0
M  V30 19844 H 1862.57 0.994518 3.6717 0
M  V30 19845 H 1863.88 1.09103 4.86722 0
M  V30 19846 H 1863.03 -0.981471 5.98709 0
M  V30 19847 H 1861.77 -1.16631 4.73549 0
M  V30 19848 H 1860.78 1.04112 5.39853 0
M  V30 19849 H 1862 1.21254 6.68187 0
M  V30 19850 H 1859.95 -1.02236 6.47984 0
M  V30 19851 H 1859.87 0.336414 7.55251 0
M  V30 19852 H 1861.13 -0.836242 7.75001 0
M  V30 19853 N 1865.36 -1.4549 0.605832 0
M  V30 19854 C 1866.3 -2.27618 -0.162864 0
M  V30 19855 C 1867.27 -1.37031 -0.875291 0
M  V30 19856 O 1868.46 -1.66459 -0.884517 0
M  V30 19857 C 1865.58 -3.15357 -1.23561 0
M  V30 19858 C 1864.63 -4.21873 -0.626513 0
M  V30 19859 S 1865.46 -5.32519 0.564279 0
M  V30 19860 C 1866.62 -6.23826 -0.509106 0
M  V30 19861 H 1866.85 -2.92466 0.533923 0
M  V30 19862 H 1864.39 -1.49307 0.393306 0
M  V30 19863 H 1866.34 -3.66465 -1.84969 0
M  V30 19864 H 1865 -2.49778 -1.90446 0
M  V30 19865 H 1864.2 -4.83181 -1.43361 0
M  V30 19866 H 1863.8 -3.73897 -0.0876196 0
M  V30 19867 H 1866.09 -6.63116 -1.38865 0
M  V30 19868 H 1867.03 -7.08068 0.0677653 0
M  V30 19869 H 1867.44 -5.58459 -0.823646 0
M  V30 19870 N 1866.84 -0.344893 -1.5378 0
M  V30 19871 C 1868.09 0.25158 -2.01233 0
M  V30 19872 C 1868.42 1.50094 -1.23229 0
M  V30 19873 O 1867.69 1.91845 -0.320282 0
M  V30 19874 C 1867.98 0.564366 -3.5565 0
M  V30 19875 C 1867.83 -0.697186 -4.44364 0
M  V30 19876 C 1869.15 1.37343 -4.18121 0
M  V30 19877 H 1866.27 0.0899643 -0.731488 0
M  V30 19878 H 1868.91 -0.465697 -1.84204 0
M  V30 19879 H 1867.06 1.17543 -3.70292 0
M  V30 19880 H 1868.73 -1.33512 -4.41557 0
M  V30 19881 H 1866.98 -1.3218 -4.13172 0
M  V30 19882 H 1867.65 -0.433571 -5.50295 0
M  V30 19883 H 1870.12 0.85671 -4.07185 0
M  V30 19884 H 1869 1.56103 -5.26235 0
M  V30 19885 H 1869.26 2.37593 -3.7283 0
M  V30 19886 N 1868.32 1.57428 -0.0735454 0
M  V30 19887 C 1869.73 1.57069 0.283088 0
M  V30 19888 C 1869.93 1.08308 1.69917 0
M  V30 19889 O 1868.99 0.749756 2.41112 0
M  V30 19890 C 1870.3 3.00562 0.0911498 0
M  V30 19891 C 1871.85 3.12588 0.160552 0
M  V30 19892 C 1872.33 4.58 -0.00312732 0
M  V30 19893 N 1873.82 4.6317 0.0524201 0
M  V30 19894 C 1874.55 5.73378 -0.0497867 0
M  V30 19895 N 1874.05 6.92495 -0.205612 0
M  V30 19896 N 1875.84 5.621 0.00740387 0
M  V30 19897 H 1867.99 1.87439 -0.999015 0
M  V30 19898 H 1870.26 0.864179 -0.389742 0
M  V30 19899 H 1869.96 3.40355 -0.886068 0
M  V30 19900 H 1869.84 3.67666 0.842723 0
M  V30 19901 H 1872.22 2.7268 1.12826 0
M  V30 19902 H 1872.3 2.48119 -0.622153 0
M  V30 19903 H 1871.95 4.98598 -0.967606 0
M  V30 19904 H 1871.88 5.20503 0.799004 0
M  V30 19905 H 1874.37 3.77512 0.171195 0
M  V30 19906 H 1874.68 7.72308 -0.275698 0
M  V30 19907 H 1873.03 6.94582 -0.240997 0
M  V30 19908 H 1876.22 4.67925 0.127856 0
M  V30 19909 H 1876.39 6.47956 -0.075703 0
M  V30 19910 N 1869.8 -0.200022 1.56326 0
M  V30 19911 C 1870.74 -1.26742 1.95036 0
M  V30 19912 C 1871.74 -1.47383 0.835143 0
M  V30 19913 O 1872.94 -1.48302 1.02012 0
M  V30 19914 H 1869.32 -0.425393 0.620117 0
M  V30 19915 H 1871.29 -0.913877 2.84061 0
M  V30 19916 C 1870.04 -2.60591 2.30191 0
M  V30 19917 H 1869.36 -2.45522 3.1553 0
M  V30 19918 H 1870.8 -3.34036 2.61144 0
M  V30 19919 C 1869.26 -3.17215 1.13474 0
M  V30 19920 O 1869.79 -3.99631 0.407168 0
M  V30 19921 N 1868 -2.7589 0.912849 0
M  V30 19922 H 1867.54 -2.08974 1.50624 0
M  V30 19923 H 1867.5 -3.14116 0.133691 0
M  V30 19924 N 1871.27 -1.50505 -0.467553 0
M  V30 19925 C 1872.21 -1.64271 -1.58399 0
M  V30 19926 C 1873.19 -0.490745 -1.55018 0
M  V30 19927 O 1874.37 -0.710709 -1.74589 0
M  V30 19928 C 1871.5 -1.62854 -2.96978 0
M  V30 19929 C 1870.54 -2.83654 -3.18501 0
M  V30 19930 S 1871.38 -4.44908 -2.98022 0
M  V30 19931 C 1872.53 -4.4619 -4.38937 0
M  V30 19932 H 1872.76 -2.58708 -1.46484 0
M  V30 19933 H 1870.3 -1.39812 -0.655141 0
M  V30 19934 H 1872.26 -1.62722 -3.76871 0
M  V30 19935 H 1870.92 -0.696465 -3.06281 0
M  V30 19936 H 1870.11 -2.78977 -4.19747 0
M  V30 19937 H 1869.71 -2.81371 -2.46386 0
M  V30 19938 H 1872 -4.1997 -5.31631 0
M  V30 19939 H 1872.95 -5.47826 -4.48656 0
M  V30 19940 H 1873.35 -3.75855 -4.21181 0
M  V30 19941 N 1872.75 0.720973 -1.40142 0
M  V30 19942 C 1873.66 1.86527 -1.42284 0
M  V30 19943 C 1874.68 1.71106 -0.316044 0
M  V30 19944 O 1875.85 1.93465 -0.55977 0
M  V30 19945 C 1872.92 3.2227 -1.27841 0
M  V30 19946 C 1871.98 3.49984 -2.48616 0
M  V30 19947 C 1871.21 4.7925 -2.34852 0
M  V30 19948 O 1871.44 5.53963 -1.35945 0
M  V30 19949 O 1870.37 5.07179 -3.24119 0
M  V30 19950 H 1874.2 1.87675 -2.38771 0
M  V30 19951 H 1871.78 0.870677 -1.21407 0
M  V30 19952 H 1873.66 4.03362 -1.21973 0
M  V30 19953 H 1872.34 3.21861 -0.344566 0
M  V30 19954 H 1871.25 2.68922 -2.60061 0
M  V30 19955 H 1872.58 3.55184 -3.40742 0
M  V30 19956 N 1874.23 1.25549 0.952634 0
M  V30 19957 C 1875.18 1.06108 2.04963 0
M  V30 19958 C 1876.15 -0.0303872 1.66072 0
M  V30 19959 O 1877.33 0.127178 1.90376 0
M  V30 19960 C 1874.47 0.68799 3.38173 0
M  V30 19961 C 1873.59 1.85452 3.90168 0
M  V30 19962 C 1872.72 1.4256 5.11713 0
M  V30 19963 C 1871.76 2.56115 5.55942 0
M  V30 19964 N 1870.9 2.13984 6.68697 0
M  V30 19965 H 1875.74 1.99991 2.20925 0
M  V30 19966 H 1873.27 0.995895 1.08261 0
M  V30 19967 H 1875.23 0.452622 4.14737 0
M  V30 19968 H 1873.86 -0.213845 3.22091 0
M  V30 19969 H 1872.91 2.20314 3.10106 0
M  V30 19970 H 1874.23 2.70722 4.1894 0
M  V30 19971 H 1873.38 1.15 5.95701 0
M  V30 19972 H 1872.12 0.54365 4.8466 0
M  V30 19973 H 1871.12 2.84417 4.70518 0
M  V30 19974 H 1872.35 3.44891 5.85002 0
M  V30 19975 H 1870.29 1.28208 6.4335 0
M  V30 19976 H 1870.21 2.92801 6.96996 0
M  V30 19977 H 1871.48 1.89605 7.56089 0
M  V30 19978 N 1875.71 -1.15554 1.07168 0
M  V30 19979 C 1876.94 -1.89906 0.813588 0
M  V30 19980 C 1877.35 -1.78164 -0.636732 0
M  V30 19981 O 1876.69 -1.13 -1.44833 0
M  V30 19982 C 1876.75 -3.40937 1.14028 0
M  V30 19983 C 1876.42 -3.76465 2.59082 0
M  V30 19984 C 1877.41 -3.77643 3.57326 0
M  V30 19985 C 1875.1 -4.06829 2.94611 0
M  V30 19986 C 1877.09 -4.08688 4.89134 0
M  V30 19987 C 1874.78 -4.37539 4.26618 0
M  V30 19988 C 1875.78 -4.3845 5.23689 0
M  V30 19989 O 1875.46 -4.68425 6.53325 0
M  V30 19990 H 1875.2 -0.608773 0.293891 0
M  V30 19991 H 1877.75 -1.4735 1.43098 0
M  V30 19992 H 1875.98 -3.83884 0.465848 0
M  V30 19993 H 1877.67 -3.96575 0.865029 0
M  V30 19994 H 1878.44 -3.54286 3.31219 0
M  V30 19995 H 1874.31 -4.05279 2.19704 0
M  V30 19996 H 1877.86 -4.09315 5.64896 0
M  V30 19997 H 1873.76 -4.60363 4.52478 0
M  V30 19998 H 1874.52 -4.86198 6.58448 0
M  V30 19999 N 1877.19 -0.855519 -1.32358 0
M  V30 20000 C 1878.12 -0.258029 -2.27743 0
M  V30 20001 C 1879.13 0.570733 -1.52468 0
M  V30 20002 O 1880.32 0.395082 -1.74073 0
M  V30 20003 C 1877.42 0.653958 -3.32531 0
M  V30 20004 C 1876.59 -0.139145 -4.37179 0
M  V30 20005 C 1875.65 0.698738 -5.2154 0
M  V30 20006 O 1874.68 0.131945 -5.69047 0
M  V30 20007 N 1875.88 2.01331 -5.44468 0
M  V30 20008 H 1878.65 -1.07766 -2.79654 0
M  V30 20009 H 1876.21 -0.715584 -1.45227 0
M  V30 20010 H 1878.2 1.21985 -3.85878 0
M  V30 20011 H 1876.77 1.37427 -2.80771 0
M  V30 20012 H 1875.99 -0.886466 -3.84103 0
M  V30 20013 H 1877.28 -0.683873 -5.04183 0
M  V30 20014 H 1876.68 2.49712 -5.07602 0
M  V30 20015 H 1875.23 2.52732 -6.00808 0
M  V30 20016 N 1878.67 1.45167 -0.61354 0
M  V30 20017 C 1879.6 2.3333 0.089004 0
M  V30 20018 C 1880.58 1.47181 0.85275 0
M  V30 20019 O 1881.76 1.7594 0.822122 0
M  V30 20020 C 1878.89 3.29982 1.08301 0
M  V30 20021 C 1877.85 4.25813 0.432084 0
M  V30 20022 C 1877.17 5.122 1.53476 0
M  V30 20023 C 1878.47 5.18233 -0.65052 0
M  V30 20024 H 1880.17 2.92322 -0.647165 0
M  V30 20025 H 1877.71 1.40565 -0.312667 0
M  V30 20026 H 1879.66 3.90533 1.5831 0
M  V30 20027 H 1878.39 2.69162 1.84985 0
M  V30 20028 H 1877.05 3.6657 -0.0471927 0
M  V30 20029 H 1876.7 4.47744 2.29203 0
M  V30 20030 H 1876.4 5.77122 1.10469 0
M  V30 20031 H 1877.92 5.7562 2.037 0
M  V30 20032 H 1879.33 5.72821 -0.234262 0
M  V30 20033 H 1877.73 5.91664 -1.00268 0
M  V30 20034 H 1878.8 4.60304 -1.52475 0
M  V30 20035 N 1880.14 0.353044 1.53595 0
M  V30 20036 C 1881.11 -0.48691 2.23968 0
M  V30 20037 C 1882.11 -1.01991 1.24316 0
M  V30 20038 O 1883.3 -0.907654 1.48685 0
M  V30 20039 C 1880.43 -1.67926 2.96671 0
M  V30 20040 H 1881.62 0.128707 2.99624 0
M  V30 20041 H 1879.17 0.104533 1.5595 0
M  V30 20042 H 1879.91 -2.33331 2.25227 0
M  V30 20043 H 1879.69 -1.30417 3.69776 0
M  V30 20044 H 1881.18 -2.2748 3.50203 0
M  V30 20045 N 1881.62 -1.57387 0.0818932 0
M  V30 20046 C 1882.87 -1.94156 -0.585765 0
M  V30 20047 C 1883.2 -0.962889 -1.68648 0
M  V30 20048 O 1882.48 0.00625819 -1.94499 0
M  V30 20049 C 1882.76 -3.41132 -1.15329 0
M  V30 20050 C 1882.61 -4.49762 -0.0585349 0
M  V30 20051 C 1883.93 -3.89137 -2.05573 0
M  V30 20052 H 1881.05 -0.706012 -0.211463 0
M  V30 20053 H 1883.69 -1.89408 0.149918 0
M  V30 20054 H 1881.84 -3.4531 -1.78026 0
M  V30 20055 H 1883.51 -4.57702 0.575061 0
M  V30 20056 H 1881.76 -4.29496 0.609574 0
M  V30 20057 H 1882.43 -5.49765 -0.496206 0
M  V30 20058 H 1884.9 -3.87029 -1.52798 0
M  V30 20059 H 1883.78 -4.92569 -2.42213 0
M  V30 20060 H 1884.04 -3.27663 -2.96799 0
M  V30 20061 N 1883.1 0.191729 -1.56429 0
M  V30 20062 C 1884.33 0.927708 -1.84936 0
M  V30 20063 C 1884.74 1.76708 -0.664809 0
M  V30 20064 O 1884.1 1.78783 0.366436 0
M  V30 20065 C 1884.15 1.82113 -3.12277 0
M  V30 20066 O 1883.87 1.01564 -4.26165 0
M  V30 20067 C 1885.37 2.6685 -3.53986 0
M  V30 20068 H 1882.59 0.270514 -0.614055 0
M  V30 20069 H 1885.14 0.197968 -2.0354 0
M  V30 20070 H 1883.29 2.50445 -2.9556 0
M  V30 20071 H 1883.71 1.62478 -4.987 0
M  V30 20072 H 1885.18 3.25189 -4.46045 0
M  V30 20073 H 1885.66 3.40725 -2.77134 0
M  V30 20074 H 1886.26 2.03884 -3.73245 0
M  V30 20075 N 1884.58 1.50751 0.459565 0
M  V30 20076 C 1885.83 1.61553 1.20762 0
M  V30 20077 C 1886.14 0.326862 1.9285 0
M  V30 20078 O 1887.35 0.313951 2.69679 0
M  V30 20079 C 1885.8 2.8522 2.19494 0
M  V30 20080 C 1885.41 4.21008 1.53156 0
M  V30 20081 C 1887.15 3.05373 2.94869 0
M  V30 20082 C 1885.06 5.35848 2.50241 0
M  V30 20083 H 1883.99 0.601658 0.454448 0
M  V30 20084 H 1886.64 1.77195 0.476886 0
M  V30 20085 H 1885.02 2.63163 2.95908 0
M  V30 20086 H 1886.2 4.53363 0.824521 0
M  V30 20087 H 1884.51 4.06554 0.900178 0
M  V30 20088 H 1887.11 3.88342 3.67552 0
M  V30 20089 H 1887.45 2.17557 3.54929 0
M  V30 20090 H 1887.99 3.27665 2.25566 0
M  V30 20091 H 1884.72 6.25854 1.94904 0
M  V30 20092 H 1884.24 5.07896 3.19063 0
M  V30 20093 H 1885.92 5.66894 3.11834 0
M  V30 20094 N 1886.06 -0.713531 1.40522 0
M  V30 20095 C 1886.99 -1.83724 1.35354 0
M  V30 20096 C 1887.97 -1.61055 0.223598 0
M  V30 20097 O 1889.15 -1.84041 0.407593 0
M  V30 20098 C 1886.28 -3.20099 1.10699 0
M  V30 20099 C 1885.32 -3.61592 2.26172 0
M  V30 20100 S 1886.16 -3.68469 3.88576 0
M  V30 20101 C 1887.31 -5.076 3.66188 0
M  V30 20102 H 1887.55 -1.87828 2.30452 0
M  V30 20103 H 1885.08 -0.88051 1.26832 0
M  V30 20104 H 1887.04 -3.98836 0.971588 0
M  V30 20105 H 1885.7 -3.13626 0.172515 0
M  V30 20106 H 1884.89 -4.60617 2.04568 0
M  V30 20107 H 1884.49 -2.90117 2.36026 0
M  V30 20108 H 1886.78 -5.94578 3.24782 0
M  V30 20109 H 1887.73 -5.3424 4.64751 0
M  V30 20110 H 1888.14 -4.7829 2.99831 0
M  V30 20111 N 1887.53 -1.26053 -0.945962 0
M  V30 20112 C 1888.5 -1.07262 -2.02553 0
M  V30 20113 C 1889.5 -0.0225237 -1.60784 0
M  V30 20114 O 1890.69 -0.265501 -1.72165 0
M  V30 20115 C 1887.82 -0.63045 -3.3502 0
M  V30 20116 H 1889.01 -2.03105 -2.20655 0
M  V30 20117 H 1886.56 -1.08582 -1.12426 0
M  V30 20118 H 1887.3 0.330188 -3.22615 0
M  V30 20119 H 1887.08 -1.38863 -3.66687 0
M  V30 20120 H 1888.57 -0.520674 -4.14341 0
M  V30 20121 N 1889.01 1.14984 -1.07779 0
M  V30 20122 C 1890.26 1.85219 -0.798561 0
M  V30 20123 C 1890.57 1.83476 0.677935 0
M  V30 20124 O 1891.78 2.49436 1.0721 0
M  V30 20125 C 1890.24 3.32454 -1.37849 0
M  V30 20126 C 1889.84 3.42631 -2.88631 0
M  V30 20127 C 1891.59 4.07843 -1.17747 0
M  V30 20128 C 1889.49 4.8404 -3.39794 0
M  V30 20129 H 1888.42 0.693872 -0.295054 0
M  V30 20130 H 1891.08 1.29668 -1.2984 0
M  V30 20131 H 1889.46 3.87703 -0.806374 0
M  V30 20132 H 1890.63 2.97466 -3.51925 0
M  V30 20133 H 1888.95 2.80691 -3.07573 0
M  V30 20134 H 1891.54 5.1221 -1.53444 0
M  V30 20135 H 1891.89 4.16136 -0.116815 0
M  V30 20136 H 1892.42 3.58876 -1.71618 0
M  V30 20137 H 1889.16 4.80932 -4.45404 0
M  V30 20138 H 1888.68 5.29769 -2.81256 0
M  V30 20139 H 1890.36 5.5291 -3.36005 0
M  V30 20140 N 1890.49 0.862526 1.31902 0
M  V30 20141 C 1891.42 0.328423 2.31179 0
M  V30 20142 C 1892.4 -0.57668 1.60026 0
M  V30 20143 O 1893.59 -0.49527 1.87778 0
M  V30 20144 C 1890.72 -0.47734 3.44004 0
M  V30 20145 C 1889.67 0.334015 4.26695 0
M  V30 20146 C 1889 -0.596973 5.31357 0
M  V30 20147 C 1890.3 1.56405 4.98332 0
M  V30 20148 H 1891.99 1.15797 2.761 0
M  V30 20149 H 1889.54 0.558268 1.32738 0
M  V30 20150 H 1891.49 -0.861461 4.12501 0
M  V30 20151 H 1890.21 -1.34033 2.9783 0
M  V30 20152 H 1888.87 0.699989 3.59855 0
M  V30 20153 H 1888.52 -1.45703 4.81435 0
M  V30 20154 H 1888.22 -0.0580517 5.87571 0
M  V30 20155 H 1889.74 -0.978099 6.02715 0
M  V30 20156 H 1891.16 1.25178 5.59467 0
M  V30 20157 H 1889.55 2.04149 5.64308 0
M  V30 20158 H 1890.62 2.32099 4.25744 0
M  V30 20159 N 1891.97 -1.4484 0.62123 0
M  V30 20160 C 1893.21 -2.04018 0.124967 0
M  V30 20161 C 1893.57 -1.47734 -1.22633 0
M  V30 20162 O 1894.77 -1.98351 -1.81412 0
M  V30 20163 C 1893.04 -3.57258 0.10069 0
M  V30 20164 S 1894.6 -4.37539 -0.332394 0
M  V30 20165 H 1891.42 -0.708773 0.0562358 0
M  V30 20166 H 1894.02 -1.77361 0.822397 0
M  V30 20167 H 1892.73 -3.95731 1.08745 0
M  V30 20168 H 1892.26 -3.88511 -0.618303 0
M  V30 20169 H 1894.27 -4.7041 -1.57888 0
M  V30 20170 N 1893.45 -0.361184 -1.53405 0
M  V30 20171 C 1894.69 0.230222 -2.01489 0
M  V30 20172 C 1895.03 1.48779 -1.24814 0
M  V30 20173 O 1894.3 1.91494 -0.340612 0
M  V30 20174 C 1894.58 0.526613 -3.56229 0
M  V30 20175 C 1894.44 -0.744277 -4.436 0
M  V30 20176 C 1895.76 1.32901 -4.19554 0
M  V30 20177 H 1892.87 0.0822009 -0.732402 0
M  V30 20178 H 1895.52 -0.485208 -1.837 0
M  V30 20179 H 1893.67 1.13609 -3.71517 0
M  V30 20180 H 1895.34 -1.38188 -4.40116 0
M  V30 20181 H 1893.58 -1.36555 -4.11747 0
M  V30 20182 H 1894.25 -0.491913 -5.49804 0
M  V30 20183 H 1896.73 0.813474 -4.08071 0
M  V30 20184 H 1895.6 1.50513 -5.27861 0
M  V30 20185 H 1895.87 2.33625 -3.75329 0
M  V30 20186 N 1894.92 1.57341 -0.0902386 0
M  V30 20187 C 1896.34 1.8145 0.439638 0
M  V30 20188 C 1896.69 1.00551 1.68475 0
M  V30 20189 O 1895.81 0.233442 2.15137 0
M  V30 20190 C 1896.41 3.29113 0.804384 0
M  V30 20191 C 1894.97 3.54003 1.27903 0
M  V30 20192 C 1894.11 2.7595 0.27328 0
M  V30 20193 H 1897.06 1.55527 -0.315738 0
M  V30 20194 H 1897.08 3.4217 1.66432 0
M  V30 20195 H 1896.6 3.87966 -0.102017 0
M  V30 20196 H 1894.7 3.00475 2.20331 0
M  V30 20197 H 1894.81 4.62662 1.24422 0
M  V30 20198 H 1893.17 2.43271 0.754419 0
M  V30 20199 H 1893.96 3.3755 -0.625715 0
M  V30 20200 N 1896.4 -0.183431 1.56529 0
M  V30 20201 C 1897.35 -1.24666 1.9637 0
M  V30 20202 C 1898.34 -1.46489 0.850728 0
M  V30 20203 O 1899.55 -1.47212 1.03579 0
M  V30 20204 H 1895.93 -0.418792 0.624594 0
M  V30 20205 H 1897.9 -0.883697 2.85015 0
M  V30 20206 C 1896.65 -2.58135 2.32942 0
M  V30 20207 H 1895.97 -2.42162 3.18116 0
M  V30 20208 H 1897.41 -3.31247 2.64672 0
M  V30 20209 C 1895.87 -3.15993 1.16832 0
M  V30 20210 O 1896.4 -3.99177 0.449531 0
M  V30 20211 N 1894.6 -2.74907 0.942059 0
M  V30 20212 H 1894.15 -2.07365 1.52832 0
M  V30 20213 H 1894.11 -3.13956 0.167 0
M  V30 20214 N 1897.88 -1.50992 -0.451564 0
M  V30 20215 C 1898.84 -1.70703 -1.52949 0
M  V30 20216 C 1899.84 -0.577275 -1.50081 0
M  V30 20217 O 1901.03 -0.844619 -1.52354 0
M  V30 20218 C 1898.17 -1.75035 -2.92533 0
M  V30 20219 H 1899.36 -2.66891 -1.36782 0
M  V30 20220 H 1896.91 -1.40767 -0.679285 0
M  V30 20221 H 1897.65 -0.806096 -3.14122 0
M  V30 20222 H 1897.43 -2.57126 -2.96021 0
M  V30 20223 H 1898.92 -1.92171 -3.70756 0
M  V30 20224 N 1899.36 0.706069 -1.40899 0
M  V30 20225 C 1900.6 1.46821 -1.39898 0
M  V30 20226 C 1900.94 1.942 -0.00437855 0
M  V30 20227 O 1900.21 1.68815 0.966002 0
M  V30 20228 C 1900.5 2.68756 -2.39671 0
M  V30 20229 C 1900.35 2.27211 -3.88195 0
M  V30 20230 C 1901.67 3.70935 -2.36845 0
M  V30 20231 H 1898.79 0.532549 -0.509471 0
M  V30 20232 H 1901.43 0.805057 -1.72101 0
M  V30 20233 H 1899.58 3.25337 -2.1234 0
M  V30 20234 H 1901.25 1.76038 -4.2639 0
M  V30 20235 H 1899.49 1.59108 -4.03568 0
M  V30 20236 H 1900.16 3.14656 -4.53537 0
M  V30 20237 H 1902.64 3.24004 -2.61076 0
M  V30 20238 H 1901.52 4.53876 -3.08687 0
M  V30 20239 H 1901.78 4.19899 -1.38337 0
M  V30 20240 N 1900.84 1.26553 0.939264 0
M  V30 20241 C 1902.09 1.11599 1.68014 0
M  V30 20242 C 1902.4 -0.339956 1.92623 0
M  V30 20243 O 1903.6 -0.610203 2.64554 0
M  V30 20244 C 1902.06 1.94913 3.02551 0
M  V30 20245 C 1901.67 3.45094 2.85682 0
M  V30 20246 C 1903.41 1.88574 3.80316 0
M  V30 20247 C 1901.32 4.20648 4.15703 0
M  V30 20248 H 1900.25 0.414037 0.630151 0
M  V30 20249 H 1902.9 1.50878 1.04441 0
M  V30 20250 H 1901.28 1.48469 3.67115 0
M  V30 20251 H 1902.46 3.99321 2.29956 0
M  V30 20252 H 1900.77 3.5269 2.21357 0
M  V30 20253 H 1903.37 2.42307 4.76646 0
M  V30 20254 H 1903.71 0.856867 4.07386 0
M  V30 20255 H 1904.24 2.32852 3.22529 0
M  V30 20256 H 1900.98 5.24013 3.93816 0
M  V30 20257 H 1900.5 3.71202 4.71136 0
M  V30 20258 H 1902.18 4.29199 4.84146 0
M  V30 20259 N 1902.31 -1.14411 1.08387 0
M  V30 20260 C 1903.24 -2.21619 0.735327 0
M  V30 20261 C 1904.23 -1.67744 -0.282132 0
M  V30 20262 O 1905.41 -1.936 -0.152547 0
M  V30 20263 C 1902.54 -3.47003 0.143628 0
M  V30 20264 C 1901.49 -4.13903 1.08941 0
M  V30 20265 C 1900.82 -5.33487 0.359941 0
M  V30 20266 C 1902.12 -4.62463 2.42746 0
M  V30 20267 H 1903.81 -2.51031 1.63168 0
M  V30 20268 H 1901.36 -1.20658 0.785981 0
M  V30 20269 H 1903.31 -4.21251 -0.112217 0
M  V30 20270 H 1902.04 -3.16955 -0.787856 0
M  V30 20271 H 1900.7 -3.4161 1.33035 0
M  V30 20272 H 1900.34 -4.99699 -0.57534 0
M  V30 20273 H 1900.04 -5.79192 0.990451 0
M  V30 20274 H 1901.57 -6.10497 0.112145 0
M  V30 20275 H 1902.98 -5.28185 2.22919 0
M  V30 20276 H 1901.38 -5.18869 3.01488 0
M  V30 20277 H 1902.45 -3.77542 3.04286 0
M  V30 20278 N 1903.79 -0.869509 -1.31443 0
M  V30 20279 C 1904.72 -0.282169 -2.27456 0
M  V30 20280 C 1905.74 0.55453 -1.53065 0
M  V30 20281 O 1906.93 0.376597 -1.74482 0
M  V30 20282 C 1904.03 0.618652 -3.33206 0
M  V30 20283 C 1903.2 -0.185505 -4.37006 0
M  V30 20284 C 1902.26 0.643383 -5.22252 0
M  V30 20285 O 1901.28 0.0715827 -5.69155 0
M  V30 20286 N 1902.49 1.95545 -5.46573 0
M  V30 20287 H 1905.25 -1.10726 -2.78496 0
M  V30 20288 H 1902.81 -0.730947 -1.4446 0
M  V30 20289 H 1904.8 1.17886 -3.8715 0
M  V30 20290 H 1903.37 1.34442 -2.82213 0
M  V30 20291 H 1902.59 -0.927156 -3.83142 0
M  V30 20292 H 1903.88 -0.73731 -5.03429 0
M  V30 20293 H 1903.28 2.44315 -5.10222 0
M  V30 20294 H 1901.84 2.46345 -6.03455 0
M  V30 20295 N 1905.27 1.44508 -0.628902 0
M  V30 20296 C 1906.22 2.32427 0.0895754 0
M  V30 20297 C 1907.21 1.47217 0.838067 0
M  V30 20298 O 1908.42 1.63575 0.751218 0
M  V30 20299 H 1904.79 0.750483 0.0477349 0
M  V30 20300 H 1906.76 2.9078 -0.670054 0
M  V30 20301 C 1905.51 3.31177 1.0591 0
M  V30 20302 H 1904.84 3.96754 0.492578 0
M  V30 20303 H 1906.28 3.9538 1.53135 0
M  V30 20304 C 1904.74 2.59936 2.14325 0
M  V30 20305 O 1905.27 2.3966 3.22375 0
M  V30 20306 N 1903.47 2.19712 1.90197 0
M  V30 20307 H 1903.02 2.36402 1.02332 0
M  V30 20308 H 1902.98 1.72371 2.62936 0
M  V30 20309 N 1906.75 0.369315 1.53212 0
M  V30 20310 C 1907.71 -0.463128 2.24472 0
M  V30 20311 C 1908.71 -1.00667 1.2539 0
M  V30 20312 O 1909.9 -0.891832 1.4964 0
M  V30 20313 C 1907.03 -1.6477 2.98435 0
M  V30 20314 H 1908.23 0.160479 2.9947 0
M  V30 20315 H 1905.78 0.121068 1.5583 0
M  V30 20316 H 1906.52 -2.30929 2.27689 0
M  V30 20317 H 1906.3 -1.26487 3.71138 0
M  V30 20318 H 1907.79 -2.23753 3.52596 0
M  V30 20319 N 1908.23 -1.57291 0.0985816 0
M  V30 20320 C 1909.47 -1.95568 -0.558993 0
M  V30 20321 C 1909.83 -0.979923 -1.65576 0
M  V30 20322 O 1909.12 -0.00649322 -1.91599 0
M  V30 20323 C 1909.32 -3.38184 -1.15613 0
M  V30 20324 C 1909.14 -4.49543 -0.11874 0
M  V30 20325 C 1907.91 -5.04373 0.305987 0
M  V30 20326 C 1910.11 -5.10119 0.65443 0
M  V30 20327 N 1908.09 -5.99291 1.33128 0
M  V30 20328 C 1909.47 -6.00788 1.53146 0
M  V30 20329 C 1911.52 -4.92847 0.707565 0
M  V30 20330 C 1910.22 -6.76037 2.45695 0
M  V30 20331 C 1912.25 -5.6876 1.62068 0
M  V30 20332 C 1911.61 -6.59099 2.48533 0
M  V30 20333 H 1907.71 -0.762218 -0.17478 0
M  V30 20334 H 1910.29 -1.93848 0.181959 0
M  V30 20335 H 1908.47 -3.40591 -1.86688 0
M  V30 20336 H 1910.2 -3.63632 -1.77635 0
M  V30 20337 H 1906.95 -4.73528 -0.0824372 0
M  V30 20338 H 1907.38 -6.51453 1.84223 0
M  V30 20339 H 1912.02 -4.22766 0.0532402 0
M  V30 20340 H 1909.74 -7.45377 3.12151 0
M  V30 20341 H 1913.32 -5.57408 1.66697 0
M  V30 20342 H 1912.2 -7.16812 3.18041 0
M  V30 20343 N 1909.71 0.175127 -1.56624 0
M  V30 20344 C 1910.65 1.21687 -1.96114 0
M  V30 20345 C 1911.62 1.44191 -0.824518 0
M  V30 20346 O 1912.81 1.56994 -1.08433 0
M  V30 20347 C 1909.95 2.55207 -2.323 0
M  V30 20348 C 1909.06 2.40115 -3.59122 0
M  V30 20349 C 1908.2 3.66475 -3.84538 0
M  V30 20350 C 1907.23 3.463 -5.04721 0
M  V30 20351 N 1906.37 4.6472 -5.26288 0
M  V30 20352 H 1911.21 0.873106 -2.84923 0
M  V30 20353 H 1908.75 0.419721 -1.40985 0
M  V30 20354 H 1910.71 3.33022 -2.51302 0
M  V30 20355 H 1909.34 2.87587 -1.46607 0
M  V30 20356 H 1908.39 1.53496 -3.48056 0
M  V30 20357 H 1909.7 2.21151 -4.47095 0
M  V30 20358 H 1908.85 4.52726 -4.03886 0
M  V30 20359 H 1907.59 3.88414 -2.94934 0
M  V30 20360 H 1906.6 2.58435 -4.85274 0
M  V30 20361 H 1907.82 3.25787 -5.95852 0
M  V30 20362 H 1905.77 4.86885 -4.39635 0
M  V30 20363 H 1905.69 4.48656 -6.08477 0
M  V30 20364 H 1906.95 5.52265 -5.50112 0
M  V30 20365 N 1911.18 1.5123 0.44355 0
M  V30 20366 C 1912.43 1.63833 1.19527 0
M  V30 20367 C 1912.76 0.350544 1.9101 0
M  V30 20368 O 1912.04 -0.649546 1.83333 0
M  V30 20369 C 1912.32 2.83747 2.21719 0
M  V30 20370 C 1912.17 4.22484 1.5436 0
M  V30 20371 C 1913.49 2.99184 3.22765 0
M  V30 20372 H 1910.61 0.596256 0.433184 0
M  V30 20373 H 1913.25 1.83697 0.485321 0
M  V30 20374 H 1911.4 2.66942 2.82267 0
M  V30 20375 H 1913.08 4.50944 0.971976 0
M  V30 20376 H 1911.32 4.25469 0.846069 0
M  V30 20377 H 1911.99 5.0237 2.28754 0
M  V30 20378 H 1914.47 3.14659 2.72266 0
M  V30 20379 H 1913.34 3.84663 3.91569 0
M  V30 20380 H 1913.6 2.10984 3.88508 0
M  V30 20381 N 1912.66 -0.698586 1.41271 0
M  V30 20382 C 1913.89 -1.49247 1.44014 0
M  V30 20383 C 1914.31 -1.88043 0.0461888 0
M  V30 20384 O 1913.67 -1.54426 -0.94986 0
M  V30 20385 C 1913.72 -2.73334 2.35204 0
M  V30 20386 O 1912.82 -3.70704 1.807 0
M  V30 20387 H 1912.16 -0.449313 0.488891 0
M  V30 20388 H 1914.69 -0.858936 1.85697 0
M  V30 20389 H 1914.7 -3.21676 2.50975 0
M  V30 20390 H 1913.38 -2.44433 3.3649 0
M  V30 20391 H 1911.95 -3.29624 1.74363 0
M  V30 20392 N 1914.14 -1.27049 -0.93254 0
M  V30 20393 C 1915.38 -1.14333 -1.69432 0
M  V30 20394 C 1915.74 0.306622 -1.89536 0
M  V30 20395 O 1916.94 0.556096 -2.62985 0
M  V30 20396 C 1915.22 -1.90032 -3.02692 0
M  V30 20397 S 1916.77 -1.93472 -3.93845 0
M  V30 20398 H 1913.59 -0.408249 -0.582111 0
M  V30 20399 H 1916.19 -1.6089 -1.11061 0
M  V30 20400 H 1914.9 -2.94579 -2.85748 0
M  V30 20401 H 1914.43 -1.4395 -3.66117 0
M  V30 20402 H 1916.44 -1.02765 -4.85442 0
M  V30 20403 N 1915.62 1.13835 -1.08993 0
M  V30 20404 C 1916.85 1.88861 -0.844923 0
M  V30 20405 C 1917.26 1.78897 0.603444 0
M  V30 20406 O 1916.62 1.15246 1.41508 0
M  V30 20407 C 1916.67 3.38622 -1.26559 0
M  V30 20408 O 1916.39 3.48321 -2.65714 0
M  V30 20409 C 1917.89 4.30629 -1.05232 0
M  V30 20410 H 1915.11 0.598038 -0.304288 0
M  V30 20411 H 1917.65 1.44129 -1.45076 0
M  V30 20412 H 1915.81 3.80954 -0.703737 0
M  V30 20413 H 1916.22 4.41387 -2.83333 0
M  V30 20414 H 1917.7 5.34057 -1.39598 0
M  V30 20415 H 1918.17 4.39199 0.0102308 0
M  V30 20416 H 1918.78 3.9406 -1.5999 0
M  V30 20417 N 1917.1 0.876467 1.3098 0
M  V30 20418 C 1918.34 0.486745 1.95739 0
M  V30 20419 C 1918.66 -0.967265 1.7001 0
M  V30 20420 O 1919.86 -1.46344 2.28683 0
M  V30 20421 C 1918.32 0.819534 3.50445 0
M  V30 20422 C 1917.93 2.29074 3.85005 0
M  V30 20423 C 1919.67 0.498597 4.21562 0
M  V30 20424 C 1917.58 2.5656 5.32851 0
M  V30 20425 H 1916.51 0.178295 0.732616 0
M  V30 20426 H 1919.16 1.07027 1.49055 0
M  V30 20427 H 1917.54 0.165191 3.95655 0
M  V30 20428 H 1918.72 2.98869 3.50733 0
M  V30 20429 H 1917.03 2.57836 3.2697 0
M  V30 20430 H 1919.63 0.6811 5.30344 0
M  V30 20431 H 1919.97 -0.561426 4.12497 0
M  V30 20432 H 1920.5 1.10976 3.82007 0
M  V30 20433 H 1917.24 3.61271 5.46959 0
M  V30 20434 H 1916.76 1.91366 5.68453 0
M  V30 20435 H 1918.44 2.41623 6.00189 0
M  V30 20436 N 1918.57 -1.44173 0.636557 0
M  V30 20437 C 1919.5 -2.33442 -0.0518719 0
M  V30 20438 C 1920.48 -1.48519 -0.829226 0
M  V30 20439 O 1921.67 -1.77225 -0.794028 0
M  V30 20440 C 1918.8 -3.31663 -1.03038 0
M  V30 20441 C 1917.75 -4.26447 -0.364286 0
M  V30 20442 C 1917.08 -5.14577 -1.45308 0
M  V30 20443 C 1918.38 -5.17133 0.732884 0
M  V30 20444 H 1920.07 -2.91255 0.693589 0
M  V30 20445 H 1917.62 -1.40049 0.33499 0
M  V30 20446 H 1919.57 -3.93002 -1.52077 0
M  V30 20447 H 1918.3 -2.72071 -1.80679 0
M  V30 20448 H 1916.96 -3.66448 0.105505 0
M  V30 20449 H 1916.6 -4.51334 -2.22051 0
M  V30 20450 H 1916.3 -5.78807 -1.01274 0
M  V30 20451 H 1917.83 -5.78788 -1.94517 0
M  V30 20452 H 1919.24 -5.72376 0.325363 0
M  V30 20453 H 1917.64 -5.89994 1.09669 0
M  V30 20454 H 1918.71 -4.5782 1.59779 0
M  V30 20455 N 1920.05 -0.377435 -1.53014 0
M  V30 20456 C 1921.01 0.451217 -2.24715 0
M  V30 20457 C 1922.01 1.00001 -1.25923 0
M  V30 20458 O 1923.2 0.883884 -1.5011 0
M  V30 20459 C 1920.34 1.63185 -2.99305 0
M  V30 20460 H 1921.53 -0.176358 -2.99381 0
M  V30 20461 H 1919.08 -0.12933 -1.55764 0
M  V30 20462 H 1919.82 2.29718 -2.2891 0
M  V30 20463 H 1919.6 1.24517 -3.71804 0
M  V30 20464 H 1921.09 2.2188 -3.53778 0
M  V30 20465 N 1921.53 1.57237 -0.106922 0
M  V30 20466 C 1922.78 1.95064 0.554803 0
M  V30 20467 C 1923.11 0.989597 1.67095 0
M  V30 20468 O 1922.38 0.0246857 1.94484 0
M  V30 20469 C 1922.67 3.42924 1.09887 0
M  V30 20470 C 1922.52 4.49798 -0.0130257 0
M  V30 20471 C 1923.84 3.92358 1.99356 0
M  V30 20472 H 1920.96 0.709287 0.200204 0
M  V30 20473 H 1923.6 1.89145 -0.180032 0
M  V30 20474 H 1921.75 3.48098 1.7251 0
M  V30 20475 H 1923.42 4.56729 -0.647804 0
M  V30 20476 H 1921.67 4.28472 -0.677825 0
M  V30 20477 H 1922.34 5.50485 0.40868 0
M  V30 20478 H 1924.81 3.89411 1.46622 0
M  V30 20479 H 1923.69 4.9636 2.34346 0
M  V30 20480 H 1923.95 3.32343 2.91549 0
M  V30 20481 N 1923.01 -0.166818 1.56715 0
M  V30 20482 C 1924.25 -0.884023 1.82518 0
M  V30 20483 C 1924.59 -1.817 0.685477 0
M  V30 20484 O 1923.86 -1.91977 -0.312277 0
M  V30 20485 C 1924.15 -1.67578 3.18731 0
M  V30 20486 C 1924 -0.765627 4.43236 0
M  V30 20487 C 1925.32 -2.64252 3.51936 0
M  V30 20488 H 1922.44 -0.319938 0.663934 0
M  V30 20489 H 1925.08 -0.150034 1.89407 0
M  V30 20490 H 1923.23 -2.30152 3.1299 0
M  V30 20491 H 1924.9 -0.152422 4.61048 0
M  V30 20492 H 1923.14 -0.0739497 4.33737 0
M  V30 20493 H 1923.81 -1.35523 5.35105 0
M  V30 20494 H 1926.29 -2.11804 3.5816 0
M  V30 20495 H 1925.17 -3.16714 4.48312 0
M  V30 20496 H 1925.43 -3.44667 2.7687 0
M  V30 20497 N 1924.49 -1.51463 -0.435524 0
M  V30 20498 C 1925.71 -1.68316 -1.21179 0
M  V30 20499 C 1926.14 -0.380709 -1.84207 0
M  V30 20500 O 1925.49 0.659318 -1.68887 0
M  V30 20501 C 1925.54 -2.80168 -2.27021 0
M  V30 20502 O 1924.65 -2.43897 -3.32548 0
M  V30 20503 H 1923.99 -0.561165 -0.35495 0
M  V30 20504 H 1926.52 -1.98036 -0.514097 0
M  V30 20505 H 1926.53 -3.04305 -2.71776 0
M  V30 20506 H 1925.2 -3.74678 -1.80524 0
M  V30 20507 H 1923.78 -2.30337 -2.93256 0
M  V30 20508 N 1925.96 0.691085 -1.4164 0
M  V30 20509 C 1927.21 1.45329 -1.41447 0
M  V30 20510 C 1927.54 1.94184 -0.0249758 0
M  V30 20511 O 1926.82 1.69831 0.948043 0
M  V30 20512 C 1927.1 2.66199 -2.42508 0
M  V30 20513 C 1926.95 2.23081 -3.90583 0
M  V30 20514 C 1928.27 3.68402 -2.40766 0
M  V30 20515 H 1925.39 0.527115 -0.515091 0
M  V30 20516 H 1928.03 0.786758 -1.72945 0
M  V30 20517 H 1926.18 3.23066 -2.15778 0
M  V30 20518 H 1927.86 1.71506 -4.28233 0
M  V30 20519 H 1926.1 1.54818 -4.05233 0
M  V30 20520 H 1926.77 3.09828 -4.56848 0
M  V30 20521 H 1929.25 3.21217 -2.64497 0
M  V30 20522 H 1928.12 4.50576 -3.13484 0
M  V30 20523 H 1928.38 4.18408 -1.42783 0
M  V30 20524 N 1927.44 1.27542 0.925789 0
M  V30 20525 C 1928.67 1.16921 1.71301 0
M  V30 20526 C 1929.09 -0.270082 1.86151 0
M  V30 20527 O 1928.45 -1.19558 1.36293 0
M  V30 20528 C 1928.5 1.8599 3.08934 0
M  V30 20529 O 1927.6 1.15917 3.95774 0
M  V30 20530 H 1926.94 0.406542 0.524995 0
M  V30 20531 H 1929.47 1.68646 1.15843 0
M  V30 20532 H 1929.48 1.93424 3.59237 0
M  V30 20533 H 1928.16 2.9069 2.97443 0
M  V30 20534 H 1926.74 1.16564 3.54213 0
M  V30 20535 N 1928.92 -1.13255 1.09595 0
M  V30 20536 C 1930.33 -1.66118 0.852147 0
M  V30 20537 C 1930.68 -1.86177 -0.61909 0
M  V30 20538 O 1929.81 -1.58186 -1.47669 0
M  V30 20539 C 1930.4 -3.0176 1.54034 0
M  V30 20540 C 1928.96 -3.51608 1.34347 0
M  V30 20541 C 1928.11 -2.26815 1.59531 0
M  V30 20542 H 1931.06 -0.971539 1.25486 0
M  V30 20543 H 1931.08 -3.67812 0.974418 0
M  V30 20544 H 1930.59 -2.87129 2.6111 0
M  V30 20545 H 1928.69 -3.71439 0.293951 0
M  V30 20546 H 1928.81 -4.31618 2.07949 0
M  V30 20547 H 1927.17 -2.33492 1.01753 0
M  V30 20548 H 1927.95 -2.14748 2.6784 0
M  V30 20549 N 1930.4 -0.883401 -1.30514 0
M  V30 20550 C 1931.33 -0.36516 -2.30627 0
M  V30 20551 C 1932.31 0.551149 -1.60923 0
M  V30 20552 O 1933.49 0.465333 -1.88543 0
M  V30 20553 C 1930.62 0.422552 -3.4472 0
M  V30 20554 C 1929.58 -0.401856 -4.26109 0
M  V30 20555 C 1928.9 0.512363 -5.3224 0
M  V30 20556 C 1930.2 -1.64313 -4.95781 0
M  V30 20557 H 1931.9 -1.20175 -2.74223 0
M  V30 20558 H 1929.44 -0.579315 -1.31833 0
M  V30 20559 H 1931.4 0.795726 -4.13819 0
M  V30 20560 H 1930.12 1.29278 -2.99925 0
M  V30 20561 H 1928.78 -0.75715 -3.58696 0
M  V30 20562 H 1928.43 1.38025 -4.83692 0
M  V30 20563 H 1928.13 -0.0354331 -5.87589 0
M  V30 20564 H 1929.65 0.882088 -6.04195 0
M  V30 20565 H 1931.07 -1.34063 -5.57405 0
M  V30 20566 H 1929.46 -2.13101 -5.60989 0
M  V30 20567 H 1930.53 -2.38843 -4.21998 0
M  V30 20568 N 1931.88 1.43833 -0.644194 0
M  V30 20569 C 1933.12 2.01914 -0.153927 0
M  V30 20570 C 1933.45 1.50758 1.22891 0
M  V30 20571 O 1932.71 0.687354 1.83232 0
M  V30 20572 C 1933.01 3.57249 -0.103941 0
M  V30 20573 C 1932.67 4.27713 -1.42731 0
M  V30 20574 C 1931.33 4.46679 -1.78972 0
M  V30 20575 C 1933.69 4.67695 -2.30024 0
M  V30 20576 C 1931.01 5.0289 -3.0219 0
M  V30 20577 C 1933.37 5.2527 -3.52525 0
M  V30 20578 C 1932.03 5.42453 -3.88974 0
M  V30 20579 H 1931.3 0.738856 -0.0563257 0
M  V30 20580 H 1933.95 1.72428 -0.833108 0
M  V30 20581 H 1932.25 3.86224 0.65866 0
M  V30 20582 H 1933.95 3.99935 0.292124 0
M  V30 20583 H 1930.54 4.1329 -1.1353 0
M  V30 20584 H 1934.72 4.52743 -2.03317 0
M  V30 20585 H 1929.98 5.14379 -3.3049 0
M  V30 20586 H 1934.15 5.55198 -4.2039 0
M  V30 20587 H 1931.78 5.85775 -4.84532 0
M  V30 20588 N 1933.35 0.385544 1.52811 0
M  V30 20589 C 1934.28 -0.442951 2.2926 0
M  V30 20590 C 1935.27 -1.06674 1.32494 0
M  V30 20591 O 1936.45 -1.08022 1.61384 0
M  V30 20592 C 1933.58 -1.57243 3.09664 0
M  V30 20593 C 1932.53 -1.07488 4.14283 0
M  V30 20594 C 1931.86 -2.29614 4.82889 0
M  V30 20595 C 1933.16 -0.145479 5.22097 0
M  V30 20596 H 1934.85 0.1949 2.98765 0
M  V30 20597 H 1932.4 0.0951762 1.43685 0
M  V30 20598 H 1934.35 -2.15882 3.61902 0
M  V30 20599 H 1933.08 -2.23781 2.37885 0
M  V30 20600 H 1931.74 -0.511047 3.6302 0
M  V30 20601 H 1931.38 -2.94653 4.07662 0
M  V30 20602 H 1931.08 -1.96985 5.53598 0
M  V30 20603 H 1932.61 -2.88902 5.37929 0
M  V30 20604 H 1934.02 -0.639941 5.69717 0
M  V30 20605 H 1932.42 0.0908687 6.00031 0
M  V30 20606 H 1933.49 0.806707 4.78142 0
M  V30 20607 N 1934.83 -1.57178 0.115259 0
M  V30 20608 C 1936.06 -1.99415 -0.55147 0
M  V30 20609 C 1936.48 -0.994862 -1.60462 0
M  V30 20610 O 1935.83 0.0127831 -1.82496 0
M  V30 20611 C 1935.88 -3.41665 -1.18099 0
M  V30 20612 O 1935.6 -4.3777 -0.169944 0
M  V30 20613 C 1937.11 -3.99014 -1.9314 0
M  V30 20614 H 1934.33 -0.654856 -0.146302 0
M  V30 20615 H 1936.87 -2.03515 0.200495 0
M  V30 20616 H 1935.02 -3.38516 -1.88376 0
M  V30 20617 H 1935.44 -5.20741 -0.626853 0
M  V30 20618 H 1936.91 -5.00639 -2.32519 0
M  V30 20619 H 1937.39 -3.37947 -2.80515 0
M  V30 20620 H 1938 -4.05697 -1.27634 0
M  V30 20621 N 1936.31 0.158505 -1.56801 0
M  V30 20622 C 1937.54 0.892291 -1.87224 0
M  V30 20623 C 1937.96 1.74468 -0.703029 0
M  V30 20624 O 1937.32 1.77936 0.347649 0
M  V30 20625 C 1937.37 1.73433 -3.16154 0
M  V30 20626 O 1936.47 2.83736 -2.99279 0
M  V30 20627 H 1935.81 0.249214 -0.615458 0
M  V30 20628 H 1938.34 0.152785 -2.04029 0
M  V30 20629 H 1938.35 2.13168 -3.47884 0
M  V30 20630 H 1937.03 1.10831 -4.00861 0
M  V30 20631 H 1935.6 2.47491 -2.78931 0
M  V30 20632 N 1937.79 1.51692 0.427485 0
M  V30 20633 C 1939.01 1.68956 1.20285 0
M  V30 20634 C 1939.44 0.390472 1.84003 0
M  V30 20635 O 1938.8 -0.650352 1.69234 0
M  V30 20636 C 1938.85 2.81368 2.25532 0
M  V30 20637 O 1937.95 2.45657 3.3125 0
M  V30 20638 H 1937.29 0.56304 0.351969 0
M  V30 20639 H 1939.82 1.98306 0.503588 0
M  V30 20640 H 1939.83 3.05742 2.70158 0
M  V30 20641 H 1938.51 3.7563 1.78535 0
M  V30 20642 H 1937.08 2.31889 2.9203 0
M  V30 20643 N 1939.27 -0.683564 1.42004 0
M  V30 20644 C 1940.2 -1.80902 1.40737 0
M  V30 20645 C 1941.21 -1.59865 0.307725 0
M  V30 20646 O 1942.4 -1.69146 0.570244 0
M  V30 20647 C 1939.5 -3.17867 1.17533 0
M  V30 20648 C 1938.67 -3.65829 2.39766 0
M  V30 20649 C 1937.73 -4.81499 2.12238 0
M  V30 20650 O 1936.76 -4.92495 2.85371 0
M  V30 20651 N 1937.96 -5.69592 1.12006 0
M  V30 20652 H 1940.73 -1.82478 2.37744 0
M  V30 20653 H 1938.29 -0.866335 1.36771 0
M  V30 20654 H 1940.28 -3.92891 0.970489 0
M  V30 20655 H 1938.85 -3.11244 0.290811 0
M  V30 20656 H 1938.07 -2.81579 2.75874 0
M  V30 20657 H 1939.36 -3.94615 3.2118 0
M  V30 20658 H 1938.76 -5.63351 0.515003 0
M  V30 20659 H 1937.31 -6.44465 0.975098 0
M  V30 20660 N 1940.75 -1.28031 -0.919012 0
M  V30 20661 C 1941.68 -1.07305 -2.0253 0
M  V30 20662 C 1942.69 -0.0264063 -1.62779 0
M  V30 20663 O 1943.88 -0.268902 -1.76463 0
M  V30 20664 C 1940.98 -0.607467 -3.33411 0
M  V30 20665 C 1940.15 -1.72834 -4.01805 0
M  V30 20666 C 1939.21 -1.25703 -5.10965 0
M  V30 20667 O 1938.24 -1.9583 -5.34452 0
M  V30 20668 N 1939.44 -0.117374 -5.80381 0
M  V30 20669 H 1942.2 -2.02575 -2.2087 0
M  V30 20670 H 1939.77 -1.19713 -1.08997 0
M  V30 20671 H 1941.76 -0.275875 -4.03759 0
M  V30 20672 H 1940.33 0.252241 -3.11581 0
M  V30 20673 H 1939.55 -2.22979 -3.25075 0
M  V30 20674 H 1940.84 -2.48038 -4.44246 0
M  V30 20675 H 1940.23 0.467747 -5.63763 0
M  V30 20676 H 1938.79 0.154978 -6.51616 0
M  V30 20677 N 1942.22 1.12672 -1.10194 0
M  V30 20678 C 1943.17 2.18326 -0.748496 0
M  V30 20679 C 1944.14 1.63824 0.274007 0
M  V30 20680 O 1945.33 1.90179 0.153852 0
M  V30 20681 C 1942.47 3.4461 -0.183772 0
M  V30 20682 C 1941.58 4.13178 -1.26127 0
M  V30 20683 C 1940.71 5.27103 -0.658462 0
M  V30 20684 C 1939.75 5.87533 -1.71672 0
M  V30 20685 N 1938.89 6.92876 -1.13435 0
M  V30 20686 H 1943.73 2.47906 -1.65369 0
M  V30 20687 H 1941.27 1.21715 -0.826064 0
M  V30 20688 H 1943.22 4.16887 0.161511 0
M  V30 20689 H 1941.85 3.15456 0.684657 0
M  V30 20690 H 1940.91 3.39105 -1.72372 0
M  V30 20691 H 1942.22 4.54163 -2.06246 0
M  V30 20692 H 1941.37 6.06132 -0.26248 0
M  V30 20693 H 1940.11 4.87389 0.174183 0
M  V30 20694 H 1939.12 5.07193 -2.12215 0
M  V30 20695 H 1940.34 6.29318 -2.55217 0
M  V30 20696 H 1938.29 6.55204 -0.323127 0
M  V30 20697 H 1938.2 7.32446 -1.8724 0
M  V30 20698 H 1939.47 7.75739 -0.764838 0
M  V30 20699 N 1943.7 0.89031 1.30043 0
M  V30 20700 C 1944.66 0.365912 2.2626 0
M  V30 20701 C 1945.66 -0.494616 1.53004 0
M  V30 20702 O 1946.85 -0.301009 1.7158 0
M  V30 20703 C 1943.99 -0.477952 3.37533 0
M  V30 20704 H 1945.18 1.21557 2.7416 0
M  V30 20705 H 1942.73 0.667628 1.41324 0
M  V30 20706 H 1943.47 -1.34798 2.94958 0
M  V30 20707 H 1943.25 0.138514 3.91855 0
M  V30 20708 H 1944.74 -0.836463 4.09137 0
M  V30 20709 N 1945.18 -1.43489 0.651812 0
M  V30 20710 C 1946.46 -1.95371 0.0946135 0
M  V30 20711 C 1946.84 -1.59316 -1.38498 0
M  V30 20712 O 1946.18 -0.87757 -2.10976 0
M  V30 20713 C 1946.39 -3.47346 0.339353 0
M  V30 20714 C 1947.74 -4.23901 0.243543 0
M  V30 20715 O 1948.77 -3.55161 0.271836 0
M  V30 20716 O 1947.63 -5.46248 0.166055 0
M  V30 20717 H 1944.72 -0.826934 -0.0104284 0
M  V30 20718 H 1947.27 -1.53436 0.724952 0
M  V30 20719 H 1946.04 -3.66712 1.36522 0
M  V30 20720 H 1945.66 -3.96277 -0.324122 0
M  V30 20721 N 1946.66 -0.393643 -1.52605 0
M  V30 20722 C 1947.9 0.179883 -2.02603 0
M  V30 20723 C 1948.26 1.44108 -1.27478 0
M  V30 20724 O 1947.55 1.88034 -0.367952 0
M  V30 20725 C 1947.75 0.497148 -3.53925 0
M  V30 20726 C 1947.57 -0.731749 -4.43707 0
M  V30 20727 C 1946.34 -1.25232 -4.89536 0
M  V30 20728 C 1948.54 -1.60534 -4.88603 0
M  V30 20729 N 1946.52 -2.43831 -5.634 0
M  V30 20730 C 1947.9 -2.63772 -5.61092 0
M  V30 20731 C 1949.95 -1.62493 -4.70638 0
M  V30 20732 C 1948.65 -3.68859 -6.17524 0
M  V30 20733 C 1950.68 -2.66489 -5.27956 0
M  V30 20734 C 1950.04 -3.68449 -6.00354 0
M  V30 20735 H 1946.14 0.0277973 -0.781506 0
M  V30 20736 H 1948.72 -0.544509 -1.86931 0
M  V30 20737 H 1946.9 1.19059 -3.69702 0
M  V30 20738 H 1948.63 1.0582 -3.9062 0
M  V30 20739 H 1945.38 -0.812663 -4.66576 0
M  V30 20740 H 1945.81 -3.03852 -6.04982 0
M  V30 20741 H 1950.45 -0.850107 -4.14165 0
M  V30 20742 H 1948.17 -4.47206 -6.73077 0
M  V30 20743 H 1951.75 -2.68893 -5.15934 0
M  V30 20744 H 1950.63 -4.476 -6.43913 0
M  V30 20745 N 1948.14 1.57115 -0.123593 0
M  V30 20746 C 1949.38 1.94527 0.533131 0
M  V30 20747 C 1949.7 1.0095 1.67536 0
M  V30 20748 O 1950.9 1.27846 2.39515 0
M  V30 20749 C 1949.36 3.45735 0.999783 0
M  V30 20750 C 1948.97 4.47854 -0.114238 0
M  V30 20751 C 1950.71 3.92057 1.62762 0
M  V30 20752 C 1948.62 5.90245 0.36937 0
M  V30 20753 H 1947.55 0.726179 0.20293 0
M  V30 20754 H 1950.2 1.8236 -0.204183 0
M  V30 20755 H 1948.58 3.53151 1.79166 0
M  V30 20756 H 1949.76 4.52111 -0.890627 0
M  V30 20757 H 1948.07 4.11311 -0.649019 0
M  V30 20758 H 1950.67 4.9586 2.00067 0
M  V30 20759 H 1951.01 3.3229 2.50777 0
M  V30 20760 H 1951.54 3.8746 0.901074 0
M  V30 20761 H 1948.28 6.53778 -0.474837 0
M  V30 20762 H 1947.8 5.89399 1.11214 0
M  V30 20763 H 1949.48 6.41666 0.829093 0
M  V30 20764 N 1949.61 -0.150187 1.56883 0
M  V30 20765 C 1951.02 -0.710574 1.72649 0
M  V30 20766 C 1951.38 -1.81812 0.737493 0
M  V30 20767 O 1950.5 -2.16184 -0.0965795 0
M  V30 20768 C 1951.1 -1.29572 3.13044 0
M  V30 20769 C 1949.65 -1.80271 3.30423 0
M  V30 20770 C 1948.8 -0.689923 2.6858 0
M  V30 20771 H 1951.75 0.0754473 1.58521 0
M  V30 20772 H 1951.77 -2.16552 3.12867 0
M  V30 20773 H 1951.29 -0.489412 3.85002 0
M  V30 20774 H 1949.39 -2.63479 2.63457 0
M  V30 20775 H 1949.5 -1.93362 4.38347 0
M  V30 20776 H 1947.86 -1.11574 2.28961 0
M  V30 20777 H 1948.65 0.104892 3.4314 0
M  V30 20778 N 1951.09 -1.51916 -0.419434 0
M  V30 20779 C 1952.02 -1.77475 -1.5174 0
M  V30 20780 C 1953 -0.625263 -1.58191 0
M  V30 20781 O 1954.19 -0.869815 -1.73631 0
M  V30 20782 C 1951.32 -1.91608 -2.89661 0
M  V30 20783 C 1950.27 -3.07151 -2.98064 0
M  V30 20784 C 1949.6 -3.06493 -4.3814 0
M  V30 20785 C 1950.9 -4.46799 -2.70495 0
M  V30 20786 H 1952.59 -2.69413 -1.30602 0
M  V30 20787 H 1950.14 -1.2964 -0.626849 0
M  V30 20788 H 1952.09 -2.08072 -3.66448 0
M  V30 20789 H 1950.82 -0.963332 -3.1207 0
M  V30 20790 H 1949.47 -2.90422 -2.2372 0
M  V30 20791 H 1949.12 -2.08959 -4.57542 0
M  V30 20792 H 1948.82 -3.84091 -4.44689 0
M  V30 20793 H 1950.35 -3.25072 -5.16876 0
M  V30 20794 H 1951.76 -4.63787 -3.37008 0
M  V30 20795 H 1950.16 -5.26238 -2.88432 0
M  V30 20796 H 1951.23 -4.55604 -1.65991 0
M  V30 20797 N 1952.57 0.676023 -1.42365 0
M  V30 20798 C 1953.53 1.77138 -1.45446 0
M  V30 20799 C 1954.53 1.57116 -0.342226 0
M  V30 20800 O 1955.72 1.63431 -0.602999 0
M  V30 20801 C 1952.86 3.15757 -1.28492 0
M  V30 20802 H 1954.05 1.75794 -2.42974 0
M  V30 20803 H 1951.6 0.885538 -1.28794 0
M  V30 20804 H 1952.34 3.22729 -0.318815 0
M  V30 20805 H 1952.12 3.31694 -2.09097 0
M  V30 20806 H 1953.61 3.95677 -1.33528 0
M  V30 20807 N 1954.05 1.28517 0.912209 0
M  V30 20808 C 1954.98 1.15113 2.03153 0
M  V30 20809 C 1955.96 0.0485128 1.70031 0
M  V30 20810 O 1957.14 0.225778 1.92883 0
M  V30 20811 C 1954.27 0.81381 3.37631 0
M  V30 20812 C 1953.23 1.87137 3.8492 0
M  V30 20813 C 1952.55 1.38765 5.1638 0
M  V30 20814 C 1953.85 3.27819 4.06611 0
M  V30 20815 H 1955.55 2.0875 2.14625 0
M  V30 20816 H 1953.09 1.00504 1.03126 0
M  V30 20817 H 1955.05 0.706804 4.1543 0
M  V30 20818 H 1953.77 -0.15826 3.26216 0
M  V30 20819 H 1952.43 1.96755 3.09327 0
M  V30 20820 H 1952.08 0.404598 5.0137 0
M  V30 20821 H 1951.78 2.09482 5.48991 0
M  V30 20822 H 1953.3 1.29389 5.96733 0
M  V30 20823 H 1954.72 3.21114 4.7493 0
M  V30 20824 H 1953.11 3.96384 4.50555 0
M  V30 20825 H 1954.18 3.71723 3.11368 0
M  V30 20826 N 1955.53 -1.12086 1.1079 0
M  V30 20827 C 1956.75 -1.87493 0.874862 0
M  V30 20828 C 1957.17 -1.79834 -0.574907 0
M  V30 20829 O 1956.53 -1.17483 -1.39657 0
M  V30 20830 C 1956.58 -3.36566 1.3193 0
M  V30 20831 O 1956.3 -3.4405 2.71222 0
M  V30 20832 C 1957.8 -4.289 1.12069 0
M  V30 20833 H 1955.02 -0.593122 0.313764 0
M  V30 20834 H 1957.56 -1.41803 1.4735 0
M  V30 20835 H 1955.72 -3.79787 0.764254 0
M  V30 20836 H 1956.13 -4.36824 2.90319 0
M  V30 20837 H 1957.61 -5.31768 1.48076 0
M  V30 20838 H 1958.08 -4.3916 0.0596432 0
M  V30 20839 H 1958.69 -3.91465 1.66238 0
M  V30 20840 N 1957 -0.897194 -1.29569 0
M  V30 20841 C 1958.25 -0.517823 -1.9494 0
M  V30 20842 C 1958.57 0.940096 -1.71527 0
M  V30 20843 O 1959.77 1.42687 -2.30982 0
M  V30 20844 C 1958.23 -0.875183 -3.49097 0
M  V30 20845 C 1957.84 -2.3517 -3.81312 0
M  V30 20846 C 1959.58 -0.565601 -4.20715 0
M  V30 20847 C 1957.49 -2.65005 -5.28702 0
M  V30 20848 H 1956.42 -0.189928 -0.729687 0
M  V30 20849 H 1959.07 -1.09385 -1.47334 0
M  V30 20850 H 1957.45 -0.228115 -3.95342 0
M  V30 20851 H 1958.62 -3.04411 -3.45934 0
M  V30 20852 H 1956.94 -2.63005 -3.22827 0
M  V30 20853 H 1959.54 -0.765387 -5.29194 0
M  V30 20854 H 1959.88 0.49573 -4.13338 0
M  V30 20855 H 1960.41 -1.1704 -3.80193 0
M  V30 20856 H 1957.15 -3.69927 -5.41142 0
M  V30 20857 H 1956.67 -2.00386 -5.65337 0
M  V30 20858 H 1958.35 -2.51141 -5.96269 0
M  V30 20859 N 1958.48 1.43142 -0.659413 0
M  V30 20860 C 1959.43 2.30783 0.0284037 0
M  V30 20861 C 1960.4 1.451 0.808407 0
M  V30 20862 O 1961.58 1.73959 0.783764 0
M  V30 20863 C 1958.72 3.30758 0.984529 0
M  V30 20864 C 1957.84 4.31537 0.199975 0
M  V30 20865 C 1956.97 5.18592 1.15046 0
M  V30 20866 C 1956.01 6.1106 0.356695 0
M  V30 20867 N 1955.15 6.90718 1.25909 0
M  V30 20868 H 1959.99 2.89051 -0.724821 0
M  V30 20869 H 1957.53 1.42392 -0.369192 0
M  V30 20870 H 1959.48 3.87236 1.55254 0
M  V30 20871 H 1958.11 2.74125 1.70456 0
M  V30 20872 H 1957.17 3.77303 -0.484425 0
M  V30 20873 H 1958.48 4.97054 -0.416974 0
M  V30 20874 H 1957.63 5.79727 1.7889 0
M  V30 20875 H 1956.37 4.53215 1.80131 0
M  V30 20876 H 1955.38 5.49008 -0.295063 0
M  V30 20877 H 1956.6 6.78481 -0.28984 0
M  V30 20878 H 1954.55 6.27984 1.89662 0
M  V30 20879 H 1954.46 7.52782 0.69685 0
M  V30 20880 H 1955.73 7.56353 1.88549 0
M  V30 20881 N 1959.96 0.40173 1.52394 0
M  V30 20882 C 1961.21 -0.17611 2.01331 0
M  V30 20883 C 1961.53 -1.46274 1.28953 0
M  V30 20884 O 1960.8 -1.91492 0.413249 0
M  V30 20885 H 1959.38 -0.0680697 0.743892 0
M  V30 20886 H 1962.04 0.536274 1.87377 0
M  V30 20887 H 1961.14 -0.377497 3.09809 0
M  V30 20888 N 1961.44 -1.57047 0.131923 0
M  V30 20889 C 1962.37 -2.19006 -0.809859 0
M  V30 20890 C 1963.35 -1.13384 -1.26799 0
M  V30 20891 O 1964.53 -1.4167 -1.32827 0
M  V30 20892 C 1961.66 -2.79973 -2.05505 0
M  V30 20893 C 1960.62 -3.9129 -1.73424 0
M  V30 20894 C 1959.94 -4.39123 -3.05081 0
M  V30 20895 C 1961.24 -5.12783 -0.992535 0
M  V30 20896 H 1962.94 -2.97958 -0.293522 0
M  V30 20897 H 1960.48 -1.4332 -0.13974 0
M  V30 20898 H 1962.44 -3.2198 -2.71858 0
M  V30 20899 H 1961.16 -1.9833 -2.59486 0
M  V30 20900 H 1959.82 -3.49879 -1.09456 0
M  V30 20901 H 1959.47 -3.54322 -3.57022 0
M  V30 20902 H 1959.17 -5.14197 -2.84385 0
M  V30 20903 H 1960.69 -4.8379 -3.72531 0
M  V30 20904 H 1962.11 -5.51728 -1.55785 0
M  V30 20905 H 1960.5 -5.93522 -0.886062 0
M  V30 20906 H 1961.57 -4.84896 0.0184538 0
M  V30 20907 N 1962.92 0.141865 -1.5696 0
M  V30 20908 C 1963.86 1.19416 -1.99606 0
M  V30 20909 C 1964.86 1.44182 -0.889268 0
M  V30 20910 O 1966.06 1.44414 -1.07446 0
M  V30 20911 H 1962.44 0.402085 -0.635477 0
M  V30 20912 H 1964.41 0.80782 -2.87257 0
M  V30 20913 C 1963.16 2.51868 -2.39704 0
M  V30 20914 H 1962.48 2.33642 -3.24425 0
M  V30 20915 H 1963.92 3.24113 -2.73362 0
M  V30 20916 C 1962.38 3.12785 -1.25169 0
M  V30 20917 O 1962.91 3.97845 -0.555208 0
M  V30 20918 N 1961.12 2.72312 -1.01461 0
M  V30 20919 H 1960.66 2.0324 -1.58276 0
M  V30 20920 H 1960.62 3.13403 -0.250181 0
M  V30 20921 N 1964.39 1.52136 0.411372 0
M  V30 20922 C 1965.81 1.58274 0.990272 0
M  V30 20923 C 1966.16 0.421874 1.91611 0
M  V30 20924 O 1965.28 -0.458058 2.11497 0
M  V30 20925 C 1965.88 2.86855 1.80276 0
M  V30 20926 C 1964.44 2.95478 2.33173 0
M  V30 20927 C 1963.58 2.5319 1.13093 0
M  V30 20928 H 1966.53 1.57538 0.191687 0
M  V30 20929 H 1966.55 2.72082 2.65992 0
M  V30 20930 H 1966.07 3.71326 1.12866 0
M  V30 20931 H 1964.17 2.15496 3.03961 0
M  V30 20932 H 1964.28 3.99674 2.64192 0
M  V30 20933 H 1962.64 2.06986 1.48421 0
M  V30 20934 H 1963.43 3.40032 0.472529 0
M  V30 20935 N 1965.87 -0.668464 1.42721 0
M  V30 20936 C 1967.1 -1.45659 1.46939 0
M  V30 20937 C 1967.52 -1.88619 0.0826133 0
M  V30 20938 O 1966.87 -1.58537 -0.904 0
M  V30 20939 C 1966.92 -2.70158 2.40202 0
M  V30 20940 O 1966.65 -2.28999 3.73485 0
M  V30 20941 C 1968.15 -3.63662 2.53505 0
M  V30 20942 H 1965.37 -0.447982 0.499553 0
M  V30 20943 H 1967.91 -0.820826 1.87304 0
M  V30 20944 H 1966.07 -3.29909 2.03074 0
M  V30 20945 H 1966.48 -3.09441 4.23493 0
M  V30 20946 H 1967.95 -4.47726 3.22871 0
M  V30 20947 H 1968.43 -4.09989 1.57498 0
M  V30 20948 H 1969.04 -3.09801 2.91382 0
M  V30 20949 N 1967.35 -1.28999 -0.905381 0
M  V30 20950 C 1968.31 -1.13652 -1.99038 0
M  V30 20951 C 1969.31 -0.0736646 -1.60631 0
M  V30 20952 O 1970.5 -0.320139 -1.71233 0
M  V30 20953 C 1967.64 -0.736715 -3.32844 0
M  V30 20954 H 1968.83 -2.10022 -2.14081 0
M  V30 20955 H 1966.38 -1.12104 -1.08915 0
M  V30 20956 H 1967.12 0.227383 -3.23502 0
M  V30 20957 H 1966.9 -1.50459 -3.62084 0
M  V30 20958 H 1968.39 -0.65223 -4.12475 0
M  V30 20959 N 1968.83 1.11497 -1.11383 0
M  V30 20960 C 1970.08 1.82584 -0.857082 0
M  V30 20961 C 1970.39 1.8554 0.61922 0
M  V30 20962 O 1971.6 2.52721 0.992197 0
M  V30 20963 C 1970.05 3.279 -1.48356 0
M  V30 20964 C 1969.66 3.33275 -2.99386 0
M  V30 20965 C 1971.41 4.0389 -1.30663 0
M  V30 20966 C 1969.31 4.72984 -3.55021 0
M  V30 20967 H 1968.24 0.684134 -0.31698 0
M  V30 20968 H 1970.89 1.25471 -1.339 0
M  V30 20969 H 1969.28 3.84941 -0.929311 0
M  V30 20970 H 1970.45 2.86119 -3.6121 0
M  V30 20971 H 1968.76 2.70764 -3.16348 0
M  V30 20972 H 1971.36 5.07069 -1.69662 0
M  V30 20973 H 1971.7 4.15554 -0.249147 0
M  V30 20974 H 1972.24 3.53235 -1.82949 0
M  V30 20975 H 1968.98 4.66518 -4.60479 0
M  V30 20976 H 1968.5 5.20553 -2.97968 0
M  V30 20977 H 1970.18 5.41941 -3.53425 0
M  V30 20978 N 1970.31 0.904053 1.29092 0
M  V30 20979 C 1971.55 0.532203 1.95381 0
M  V30 20980 C 1971.88 -0.922327 1.71241 0
M  V30 20981 O 1971.14 -1.66968 1.02079 0
M  V30 20982 C 1971.44 0.776255 3.48868 0
M  V30 20983 C 1971.1 2.20882 3.93093 0
M  V30 20984 C 1969.76 2.60052 4.04878 0
M  V30 20985 C 1972.12 3.14152 4.15882 0
M  V30 20986 C 1969.44 3.91663 4.36826 0
M  V30 20987 C 1971.8 4.45317 4.49306 0
M  V30 20988 C 1970.46 4.84354 4.59301 0
M  V30 20989 H 1969.73 0.194747 0.714951 0
M  V30 20990 H 1972.38 1.14354 1.53608 0
M  V30 20991 H 1970.68 0.0820369 3.91714 0
M  V30 20992 H 1972.38 0.467861 3.98261 0
M  V30 20993 H 1968.97 1.89485 3.84439 0
M  V30 20994 H 1973.15 2.85103 4.06239 0
M  V30 20995 H 1968.41 4.21623 4.42769 0
M  V30 20996 H 1972.58 5.17611 4.65888 0
M  V30 20997 H 1970.21 5.86371 4.83811 0
M  V30 20998 N 1971.79 -1.4279 0.666995 0
M  V30 20999 C 1972.72 -2.335 -0.00234362 0
M  V30 21000 C 1973.7 -1.50244 -0.797537 0
M  V30 21001 O 1974.88 -1.7887 -0.756257 0
M  V30 21002 C 1972.01 -3.33774 -0.959795 0
M  V30 21003 C 1970.97 -4.27124 -0.273749 0
M  V30 21004 C 1970.29 -5.17544 -1.3436 0
M  V30 21005 C 1971.59 -5.15462 0.842411 0
M  V30 21006 H 1973.29 -2.89719 0.755212 0
M  V30 21007 H 1970.83 -1.39307 0.364622 0
M  V30 21008 H 1972.78 -3.96139 -1.43707 0
M  V30 21009 H 1971.51 -2.75842 -1.74868 0
M  V30 21010 H 1970.17 -3.66142 0.18321 0
M  V30 21011 H 1969.82 -4.55943 -2.12427 0
M  V30 21012 H 1969.52 -5.80825 -0.889738 0
M  V30 21013 H 1971.04 -5.82784 -1.82196 0
M  V30 21014 H 1972.45 -5.71557 0.4467 0
M  V30 21015 H 1970.85 -5.87535 1.22158 0
M  V30 21016 H 1971.92 -4.54327 1.69454 0
M  V30 21017 N 1973.26 -0.409806 -1.52179 0
M  V30 21018 C 1974.49 0.165235 -2.06239 0
M  V30 21019 C 1974.91 1.38804 -1.2798 0
M  V30 21020 O 1974.26 1.79458 -0.331843 0
M  V30 21021 C 1974.31 0.514997 -3.57813 0
M  V30 21022 O 1974.04 -0.659248 -4.33111 0
M  V30 21023 C 1975.54 1.1437 -4.28293 0
M  V30 21024 H 1972.76 0.0200917 -0.670699 0
M  V30 21025 H 1975.3 -0.580955 -1.96074 0
M  V30 21026 H 1973.46 1.21108 -3.67983 0
M  V30 21027 H 1973.87 -0.367126 -5.23214 0
M  V30 21028 H 1975.34 1.33863 -5.35523 0
M  V30 21029 H 1975.82 2.11699 -3.84812 0
M  V30 21030 H 1976.43 0.487795 -4.22493 0
M  V30 21031 N 1974.74 1.56975 -0.14025 0
M  V30 21032 C 1975.97 2.00267 0.519675 0
M  V30 21033 C 1976.38 1.02026 1.58859 0
M  V30 21034 O 1975.74 0.0162519 1.82493 0
M  V30 21035 C 1975.79 3.435 1.12648 0
M  V30 21036 O 1975.51 4.37985 0.100277 0
M  V30 21037 C 1977.01 4.02036 1.86767 0
M  V30 21038 H 1974.23 0.657101 0.135865 0
M  V30 21039 H 1976.78 2.0317 -0.232847 0
M  V30 21040 H 1974.93 3.4147 1.82967 0
M  V30 21041 H 1975.35 5.21672 0.543929 0
M  V30 21042 H 1976.82 5.04274 2.24525 0
M  V30 21043 H 1977.3 3.42367 2.75103 0
M  V30 21044 H 1977.9 4.07676 1.21163 0
M  V30 21045 N 1976.22 -0.133539 1.57033 0
M  V30 21046 C 1977.15 -1.16595 2.02306 0
M  V30 21047 C 1978.13 -1.44031 0.904933 0
M  V30 21048 O 1979.32 -1.54721 1.17367 0
M  V30 21049 C 1976.45 -2.49581 2.41509 0
M  V30 21050 C 1975.4 -2.36639 3.56631 0
M  V30 21051 C 1974.73 -3.74457 3.81688 0
M  V30 21052 C 1976.03 -1.83912 4.88849 0
M  V30 21053 H 1977.72 -0.789456 2.88804 0
M  V30 21054 H 1975.27 -0.378309 1.38942 0
M  V30 21055 H 1977.22 -3.22043 2.71783 0
M  V30 21056 H 1975.94 -2.89093 1.51964 0
M  V30 21057 H 1974.6 -1.66628 3.26544 0
M  V30 21058 H 1974.25 -4.11428 2.89372 0
M  V30 21059 H 1973.95 -3.66655 4.59171 0
M  V30 21060 H 1975.47 -4.48446 4.14401 0
M  V30 21061 H 1976.89 -2.46178 5.17754 0
M  V30 21062 H 1975.28 -1.86967 5.70231 0
M  V30 21063 H 1976.35 -0.795669 4.78327 0
M  V30 21064 N 1977.7 -1.52352 -0.403298 0
M  V30 21065 C 1978.92 -1.70849 -1.17582 0
M  V30 21066 C 1979.35 -0.419696 -1.83358 0
M  V30 21067 O 1978.71 0.623346 -1.70247 0
M  V30 21068 C 1978.75 -2.8492 -2.21027 0
M  V30 21069 O 1977.86 -2.50896 -3.273 0
M  V30 21070 H 1977.2 -0.568568 -0.342967 0
M  V30 21071 H 1979.73 -1.99082 -0.471975 0
M  V30 21072 H 1979.74 -3.10002 -2.6526 0
M  V30 21073 H 1978.41 -3.78423 -1.72536 0
M  V30 21074 H 1976.99 -2.36506 -2.88304 0
M  V30 21075 N 1979.18 0.660885 -1.43074 0
M  V30 21076 C 1980.59 0.97566 -1.26305 0
M  V30 21077 C 1980.79 2.00719 -0.17724 0
M  V30 21078 O 1979.85 2.48514 0.446896 0
M  V30 21079 C 1981.16 1.46722 -2.62475 0
M  V30 21080 C 1982.71 1.58427 -2.69944 0
M  V30 21081 C 1983.18 2.10976 -4.06514 0
M  V30 21082 N 1984.67 2.18289 -4.08539 0
M  V30 21083 C 1985.41 2.60054 -5.11038 0
M  V30 21084 N 1984.91 3.01171 -6.23913 0
M  V30 21085 N 1986.7 2.59926 -4.98392 0
M  V30 21086 H 1978.85 -0.02183 -2.12389 0
M  V30 21087 H 1981.11 0.0527972 -0.946529 0
M  V30 21088 H 1980.82 0.783712 -3.42857 0
M  V30 21089 H 1980.69 2.44359 -2.87348 0
M  V30 21090 H 1983.08 2.25881 -1.899 0
M  V30 21091 H 1983.16 0.592433 -2.48845 0
M  V30 21092 H 1982.8 1.44126 -4.87022 0
M  V30 21093 H 1982.73 3.10976 -4.24972 0
M  V30 21094 H 1985.23 1.89317 -3.27059 0
M  V30 21095 H 1985.54 3.31766 -6.97962 0
M  V30 21096 H 1983.88 2.98994 -6.27398 0
M  V30 21097 H 1987.07 2.27175 -4.09279 0
M  V30 21098 H 1987.25 2.92154 -5.78403 0
M  V30 21099 N 1980.65 1.29477 0.898527 0
M  V30 21100 C 1981.88 1.20406 1.68255 0
M  V30 21101 C 1982.3 -0.235141 1.8733 0
M  V30 21102 O 1981.65 -1.15727 1.41115 0
M  V30 21103 C 1981.71 1.91451 3.06641 0
M  V30 21104 O 1981.43 3.29751 2.88437 0
M  V30 21105 C 1982.93 1.88871 4.01052 0
M  V30 21106 H 1980.15 0.417276 0.525473 0
M  V30 21107 H 1982.69 1.7087 1.12356 0
M  V30 21108 H 1980.85 1.4482 3.59313 0
M  V30 21109 H 1981.26 3.65548 3.76131 0
M  V30 21110 H 1982.73 2.43144 4.95566 0
M  V30 21111 H 1983.21 0.864507 4.30608 0
M  V30 21112 H 1983.82 2.35251 3.54312 0
M  V30 21113 N 1982.13 -1.10905 1.11972 0
M  V30 21114 C 1983.36 -1.87095 0.894991 0
M  V30 21115 C 1983.78 -1.79875 -0.550144 0
M  V30 21116 O 1983.14 -1.16517 -1.38901 0
M  V30 21117 C 1983.19 -3.33634 1.36825 0
M  V30 21118 O 1982.29 -4.08802 0.543553 0
M  V30 21119 H 1981.63 -0.580734 0.321938 0
M  V30 21120 H 1984.16 -1.40152 1.49059 0
M  V30 21121 H 1984.17 -3.84482 1.36519 0
M  V30 21122 H 1982.85 -3.38205 2.42054 0
M  V30 21123 H 1981.43 -3.67824 0.613185 0
M  V30 21124 N 1983.61 -0.910886 -1.2861 0
M  V30 21125 C 1984.56 -0.395575 -2.27385 0
M  V30 21126 C 1985.53 0.528415 -1.57471 0
M  V30 21127 O 1986.71 0.451232 -1.85388 0
M  V30 21128 C 1983.85 0.360855 -3.43208 0
M  V30 21129 C 1982.97 -0.59531 -4.27879 0
M  V30 21130 C 1982.1 0.179282 -5.30897 0
M  V30 21131 C 1981.14 -0.770684 -6.07229 0
M  V30 21132 N 1980.28 -0.0297918 -7.02094 0
M  V30 21133 H 1985.12 -1.24293 -2.70842 0
M  V30 21134 H 1982.65 -0.624218 -1.33199 0
M  V30 21135 H 1984.61 0.815583 -4.0915 0
M  V30 21136 H 1983.24 1.17258 -3.0075 0
M  V30 21137 H 1982.29 -1.16857 -3.62006 0
M  V30 21138 H 1983.61 -1.32201 -4.80962 0
M  V30 21139 H 1982.76 0.694702 -6.0271 0
M  V30 21140 H 1981.5 0.93905 -4.78574 0
M  V30 21141 H 1980.5 -1.29751 -5.3427 0
M  V30 21142 H 1981.73 -1.52996 -6.61641 0
M  V30 21143 H 1979.67 0.712039 -6.52124 0
M  V30 21144 H 1979.59 -0.69637 -7.52786 0
M  V30 21145 H 1980.86 0.465527 -7.78109 0
M  V30 21146 N 1985.09 1.42434 -0.674558 0
M  V30 21147 C 1986.04 2.308 0.00392457 0
M  V30 21148 C 1987.01 1.45949 0.792972 0
M  V30 21149 O 1988.19 1.74781 0.765269 0
M  V30 21150 C 1985.33 3.31784 0.949392 0
M  V30 21151 C 1984.44 4.31725 0.154193 0
M  V30 21152 C 1983.58 5.19783 1.09539 0
M  V30 21153 C 1982.62 6.11404 0.291864 0
M  V30 21154 N 1981.75 6.92015 1.18576 0
M  V30 21155 H 1986.59 2.88266 -0.755438 0
M  V30 21156 H 1984.13 1.41992 -0.384274 0
M  V30 21157 H 1986.09 3.88861 1.51138 0
M  V30 21158 H 1984.72 2.75918 1.67539 0
M  V30 21159 H 1983.77 3.76768 -0.524416 0
M  V30 21160 H 1985.08 4.96584 -0.469669 0
M  V30 21161 H 1984.24 5.81592 1.72732 0
M  V30 21162 H 1982.98 4.551 1.75314 0
M  V30 21163 H 1981.98 5.48664 -0.353276 0
M  V30 21164 H 1983.21 6.78136 -0.361786 0
M  V30 21165 H 1981.15 6.29961 1.82991 0
M  V30 21166 H 1981.07 7.53478 0.616968 0
M  V30 21167 H 1982.34 7.5831 1.80516 0
M  V30 21168 N 1986.57 0.417871 1.51959 0
M  V30 21169 C 1987.98 0.0691743 1.5945 0
M  V30 21170 C 1988.18 -1.41946 1.43016 0
M  V30 21171 O 1987.24 -2.18728 1.26152 0
M  V30 21172 C 1988.55 0.571902 2.95211 0
M  V30 21173 C 1990.1 0.530639 3.08469 0
M  V30 21174 C 1990.57 1.01002 4.46724 0
M  V30 21175 N 1992.07 0.967199 4.5299 0
M  V30 21176 C 1992.8 1.30921 5.58254 0
M  V30 21177 N 1992.3 1.72311 6.7103 0
M  V30 21178 N 1994.09 1.22862 5.48508 0
M  V30 21179 H 1986.24 1.38668 1.60888 0
M  V30 21180 H 1988.5 0.570206 0.757344 0
M  V30 21181 H 1988.21 1.6127 3.12546 0
M  V30 21182 H 1988.08 -0.0137455 3.77197 0
M  V30 21183 H 1990.47 -0.50113 2.90814 0
M  V30 21184 H 1990.55 1.15245 2.28369 0
M  V30 21185 H 1990.2 2.04016 4.65124 0
M  V30 21186 H 1990.13 0.364935 5.25334 0
M  V30 21187 H 1992.62 0.663 3.72039 0
M  V30 21188 H 1992.93 1.96696 7.47349 0
M  V30 21189 H 1991.27 1.76222 6.72288 0
M  V30 21190 H 1994.47 0.904063 4.59287 0
M  V30 21191 H 1994.64 1.49846 6.30437 0
M  V30 21192 N 1988.04 -1.56898 0.148573 0
M  V30 21193 C 1989.27 -2.00974 -0.512287 0
M  V30 21194 C 1989.69 -1.02801 -1.57523 0
M  V30 21195 O 1989.05 -0.00400411 -1.813 0
M  V30 21196 C 1989.1 -3.43785 -1.08832 0
M  V30 21197 O 1988.2 -3.4862 -2.20313 0
M  V30 21198 H 1987.55 -0.652102 -0.125133 0
M  V30 21199 H 1990.08 -2.03119 0.245769 0
M  V30 21200 H 1990.09 -3.82618 -1.41659 0
M  V30 21201 H 1988.76 -4.14744 -0.309923 0
M  V30 21202 H 1987.34 -3.2163 -1.88702 0
M  V30 21203 N 1989.52 0.125209 -1.57102 0
M  V30 21204 C 1990.77 0.830372 -1.85678 0
M  V30 21205 C 1991.12 1.77786 -0.735511 0
M  V30 21206 O 1990.42 1.89759 0.264965 0
M  V30 21207 C 1990.61 1.62349 -3.18398 0
M  V30 21208 C 1990.44 0.754303 -4.43329 0
M  V30 21209 C 1989.21 0.411522 -5.03621 0
M  V30 21210 C 1991.41 0.0747326 -5.14246 0
M  V30 21211 N 1989.39 -0.468983 -6.12106 0
M  V30 21212 C 1990.76 -0.665023 -6.16423 0
M  V30 21213 C 1992.82 -0.00233295 -4.979 0
M  V30 21214 C 1991.52 -1.4746 -7.04023 0
M  V30 21215 C 1993.54 -0.798713 -5.85982 0
M  V30 21216 C 1992.91 -1.52668 -6.87657 0
M  V30 21217 H 1989.01 0.280983 -0.729776 0
M  V30 21218 H 1991.59 0.0944536 -1.94471 0
M  V30 21219 H 1989.76 2.33049 -3.10713 0
M  V30 21220 H 1991.49 2.27351 -3.34804 0
M  V30 21221 H 1988.25 0.75234 -4.67586 0
M  V30 21222 H 1988.67 -0.900902 -6.70979 0
M  V30 21223 H 1993.31 0.546129 -4.19258 0
M  V30 21224 H 1991.03 -2.03424 -7.82077 0
M  V30 21225 H 1994.62 -0.86062 -5.75399 0
M  V30 21226 H 1993.5 -2.13301 -7.54634 0
M  V30 21227 N 1991 1.52564 0.395213 0
M  V30 21228 C 1992.41 1.59315 0.973429 0
M  V30 21229 C 1992.76 0.442173 1.91152 0
M  V30 21230 O 1991.89 -0.4356 2.1197 0
M  V30 21231 C 1992.48 2.88751 1.77224 0
M  V30 21232 C 1991.04 2.97935 2.30026 0
M  V30 21233 C 1990.19 2.54376 1.10401 0
M  V30 21234 H 1993.14 1.57733 0.174968 0
M  V30 21235 H 1993.16 2.74887 2.63091 0
M  V30 21236 H 1992.67 3.72502 1.08922 0
M  V30 21237 H 1990.77 2.18708 3.01658 0
M  V30 21238 H 1990.89 4.02454 2.59938 0
M  V30 21239 H 1989.25 2.08549 1.46217 0
M  V30 21240 H 1990.03 3.40514 0.436438 0
M  V30 21241 N 1992.48 -0.653289 1.43422 0
M  V30 21242 C 1993.41 -1.77779 1.51383 0
M  V30 21243 C 1994.39 -1.6606 0.368515 0
M  V30 21244 O 1995.57 -1.85157 0.585721 0
M  V30 21245 C 1992.7 -3.16206 1.43635 0
M  V30 21246 C 1991.66 -3.42688 2.56415 0
M  V30 21247 C 1990.98 -4.80915 2.3372 0
M  V30 21248 C 1992.28 -3.3744 3.98662 0
M  V30 21249 H 1993.98 -1.71374 2.45502 0
M  V30 21250 H 1991.52 -0.823062 1.1816 0
M  V30 21251 H 1993.48 -3.94627 1.47808 0
M  V30 21252 H 1992.2 -3.23341 0.460202 0
M  V30 21253 H 1990.86 -2.66638 2.51594 0
M  V30 21254 H 1990.51 -4.84726 1.34349 0
M  V30 21255 H 1990.21 -4.99594 3.09321 0
M  V30 21256 H 1991.73 -5.61594 2.39677 0
M  V30 21257 H 1993.15 -4.05798 4.0497 0
M  V30 21258 H 1991.54 -3.67656 4.74288 0
M  V30 21259 H 1992.61 -2.35624 4.23803 0
M  V30 21260 N 1993.96 -1.29952 -0.891648 0
M  V30 21261 C 1994.9 -1.15662 -2.01805 0
M  V30 21262 C 1995.9 -0.0701689 -1.69255 0
M  V30 21263 O 1997.1 -0.230546 -1.78517 0
M  V30 21264 H 1993.48 -0.357511 -0.661581 0
M  V30 21265 H 1995.45 -2.11008 -2.10993 0
M  V30 21266 C 1994.2 -0.858316 -3.36939 0
M  V30 21267 H 1993.52 -1.68637 -3.62494 0
M  V30 21268 H 1994.96 -0.798404 -4.16415 0
M  V30 21269 C 1993.42 0.438629 -3.34032 0
M  V30 21270 O 1993.95 1.46221 -3.74142 0
M  V30 21271 N 1992.16 0.447383 -2.87136 0
M  V30 21272 H 1991.7 -0.386058 -2.54691 0
M  V30 21273 H 1991.66 1.31512 -2.85573 0
M  V30 21274 N 1995.44 1.1031 -1.12559 0
M  V30 21275 C 1996.35 2.20257 -0.807721 0
M  V30 21276 C 1997.36 1.728 0.203997 0
M  V30 21277 O 1998.54 2.01365 0.0372766 0
M  V30 21278 C 1995.6 3.4566 -0.26839 0
M  V30 21279 C 1994.66 4.07844 -1.3402 0
M  V30 21280 C 1993.9 5.27261 -0.826511 0
M  V30 21281 O 1994.12 5.6939 0.339244 0
M  V30 21282 O 1993.05 5.80335 -1.5967 0
M  V30 21283 H 1996.88 2.49882 -1.72606 0
M  V30 21284 H 1994.46 1.19071 -0.902352 0
M  V30 21285 H 1996.35 4.21391 0.0274321 0
M  V30 21286 H 1995.02 3.17658 0.622489 0
M  V30 21287 H 1993.93 3.33791 -1.68921 0
M  V30 21288 H 1995.26 4.40051 -2.20489 0
M  V30 21289 N 1996.91 0.917694 1.28125 0
M  V30 21290 C 1997.88 0.413823 2.25433 0
M  V30 21291 C 1998.88 -0.46205 1.54019 0
M  V30 21292 O 2000.07 -0.264546 1.7218 0
M  V30 21293 C 1997.2 -0.406249 3.38471 0
M  V30 21294 H 1998.39 1.27345 2.7152 0
M  V30 21295 H 1995.94 0.697455 1.39876 0
M  V30 21296 H 1996.68 -1.28511 2.97751 0
M  V30 21297 H 1996.46 0.221601 3.91473 0
M  V30 21298 H 1997.95 -0.749491 4.10819 0
M  V30 21299 N 1998.39 -1.42074 0.682102 0
M  V30 21300 C 1999.64 -2.0066 0.204581 0
M  V30 21301 C 1999.95 -1.54595 -1.19832 0
M  V30 21302 O 2001.16 -2.05648 -1.7726 0
M  V30 21303 C 1999.62 -3.5852 0.31488 0
M  V30 21304 C 1999.22 -4.13571 1.7223 0
M  V30 21305 C 2000.97 -4.24374 -0.103556 0
M  V30 21306 C 1998.87 -5.6382 1.78497 0
M  V30 21307 H 1997.8 -0.750485 0.0727253 0
M  V30 21308 H 2000.46 -1.62712 0.848346 0
M  V30 21309 H 1998.84 -3.94006 -0.396905 0
M  V30 21310 H 2000.01 -3.89531 2.46176 0
M  V30 21311 H 1998.33 -3.60195 2.08922 0
M  V30 21312 H 2000.92 -5.34645 -0.0769789 0
M  V30 21313 H 2001.27 -4.00385 -1.14005 0
M  V30 21314 H 2001.8 -3.93874 0.557477 0
M  V30 21315 H 1998.54 -5.92616 2.80154 0
M  V30 21316 H 1998.06 -5.89828 1.08918 0
M  V30 21317 H 1999.74 -6.28363 1.54172 0
M  V30 21318 N 1999.87 -0.425924 -1.51735 0
M  V30 21319 C 2000.8 0.43622 -2.23992 0
M  V30 21320 C 2001.78 1.03418 -1.25473 0
M  V30 21321 O 2002.96 1.07884 -1.54575 0
M  V30 21322 C 2000.09 1.60697 -2.98151 0
M  V30 21323 C 1999.14 1.13079 -4.11236 0
M  V30 21324 S 1999.97 0.0821469 -5.35437 0
M  V30 21325 C 2001.13 1.25783 -6.13131 0
M  V30 21326 H 2001.36 -0.177262 -2.96771 0
M  V30 21327 H 1998.89 -0.210346 -1.5296 0
M  V30 21328 H 2000.85 2.2782 -3.4148 0
M  V30 21329 H 1999.51 2.19183 -2.24983 0
M  V30 21330 H 1998.7 2.00594 -4.62361 0
M  V30 21331 H 1998.31 0.537962 -3.70111 0
M  V30 21332 H 2000.6 2.17834 -6.41525 0
M  V30 21333 H 2001.54 0.786776 -7.03715 0
M  V30 21334 H 2001.95 1.49123 -5.44447 0
M  V30 21335 N 2001.35 1.56817 -0.156891 0
M  V30 21336 C 2002.31 2.16058 0.764967 0
M  V30 21337 C 2003.31 1.10488 1.16829 0
M  V30 21338 O 2004.5 1.36077 1.0876 0
M  V30 21339 C 2001.63 2.73173 2.03935 0
M  V30 21340 H 2002.83 2.98861 0.249482 0
M  V30 21341 H 2000.38 1.56025 0.0926074 0
M  V30 21342 H 2001.11 1.94064 2.59827 0
M  V30 21343 H 2000.9 3.50417 1.75926 0
M  V30 21344 H 2002.39 3.18783 2.69754 0
M  V30 21345 N 2002.83 -0.116876 1.57166 0
M  V30 21346 C 2004.07 -0.825509 1.85238 0
M  V30 21347 C 2004.4 -1.79427 0.742936 0
M  V30 21348 O 2003.68 -1.92873 -0.251043 0
M  V30 21349 C 2003.96 -1.57353 3.23901 0
M  V30 21350 C 2003.82 -0.624227 4.45447 0
M  V30 21351 C 2005.13 -2.52922 3.60164 0
M  V30 21352 H 2002.25 -0.298653 0.673777 0
M  V30 21353 H 2004.9 -0.0897002 1.89788 0
M  V30 21354 H 2003.05 -2.20078 3.20153 0
M  V30 21355 H 2004.72 -0.00566556 4.613 0
M  V30 21356 H 2002.96 0.0640779 4.33753 0
M  V30 21357 H 2003.63 -1.1843 5.39146 0
M  V30 21358 H 2006.11 -2.00302 3.64717 0
M  V30 21359 H 2004.98 -3.02291 4.58161 0
M  V30 21360 H 2005.24 -3.35684 2.87695 0
M  V30 21361 N 2004.3 -1.52772 -0.387116 0
M  V30 21362 C 2005.55 -1.67576 -1.12973 0
M  V30 21363 C 2005.87 -0.419122 -1.90443 0
M  V30 21364 O 2005.14 0.566514 -1.8753 0
M  V30 21365 H 2003.72 -0.617716 -0.420043 0
M  V30 21366 H 2006.38 -1.89892 -0.43896 0
M  V30 21367 H 2005.48 -2.52704 -1.83158 0
M  V30 21368 N 2005.78 0.645673 -1.43767 0
M  V30 21369 C 2006.71 1.77057 -1.43966 0
M  V30 21370 C 2007.69 1.59805 -0.300185 0
M  V30 21371 O 2008.88 1.81886 -0.494937 0
M  V30 21372 C 2006 3.14453 -1.25845 0
M  V30 21373 C 2005.05 3.50389 -2.43166 0
M  V30 21374 S 2005.88 3.4951 -4.05713 0
M  V30 21375 C 2007.04 4.8955 -3.89989 0
M  V30 21376 H 2007.27 1.76619 -2.39151 0
M  V30 21377 H 2004.8 0.818994 -1.30889 0
M  V30 21378 H 2006.76 3.93747 -1.16077 0
M  V30 21379 H 2005.42 3.12446 -0.321954 0
M  V30 21380 H 2004.62 4.50332 -2.26312 0
M  V30 21381 H 2004.22 2.78525 -2.49599 0
M  V30 21382 H 2006.51 5.78405 -3.5278 0
M  V30 21383 H 2007.45 5.11457 -4.89711 0
M  V30 21384 H 2007.86 4.6344 -3.2231 0
M  V30 21385 N 2007.26 1.30423 0.884744 0
M  V30 21386 C 2008.51 1.19435 1.63899 0
M  V30 21387 C 2008.84 -0.25033 1.9258 0
M  V30 21388 O 2008.11 -1.17904 1.5469 0
M  V30 21389 C 2008.4 2.02357 2.97865 0
M  V30 21390 C 2008.25 3.55046 2.76156 0
M  V30 21391 C 2009.57 1.86156 3.98791 0
M  V30 21392 H 2006.69 0.435234 0.594761 0
M  V30 21393 H 2009.33 1.60058 1.0238 0
M  V30 21394 H 2007.48 1.67842 3.50373 0
M  V30 21395 H 2009.15 3.99622 2.30434 0
M  V30 21396 H 2007.39 3.79218 2.10657 0
M  V30 21397 H 2008.07 4.08356 3.71415 0
M  V30 21398 H 2010.54 2.16332 3.55443 0
M  V30 21399 H 2009.42 2.46501 4.90437 0
M  V30 21400 H 2009.68 0.820775 4.34414 0
M  V30 21401 N 2008.74 -1.09711 1.13142 0
M  V30 21402 C 2009.96 -1.86136 0.914785 0
M  V30 21403 C 2010.39 -1.80448 -0.531035 0
M  V30 21404 O 2009.75 -1.17983 -1.37658 0
M  V30 21405 C 2009.79 -3.32164 1.40356 0
M  V30 21406 O 2008.9 -4.08203 0.586881 0
M  V30 21407 H 2008.24 -0.577287 0.328079 0
M  V30 21408 H 2010.77 -1.38563 1.50537 0
M  V30 21409 H 2010.78 -3.83013 1.40589 0
M  V30 21410 H 2009.45 -3.35619 2.45628 0
M  V30 21411 H 2008.03 -3.67153 0.652163 0
M  V30 21412 N 2010.22 -0.924476 -1.27637 0
M  V30 21413 C 2011.47 -0.559056 -1.93797 0
M  V30 21414 C 2011.78 0.903501 -1.73483 0
M  V30 21415 O 2012.98 1.37756 -2.33956 0
M  V30 21416 C 2011.44 -0.949035 -3.47162 0
M  V30 21417 C 2011.05 -2.43205 -3.76238 0
M  V30 21418 C 2012.79 -0.654714 -4.19421 0
M  V30 21419 C 2010.7 -2.7616 -5.22962 0
M  V30 21420 H 2009.63 -0.205363 -0.725494 0
M  V30 21421 H 2012.28 -1.12485 -1.4498 0
M  V30 21422 H 2010.66 -0.311922 -3.9477 0
M  V30 21423 H 2011.84 -3.1168 -3.39399 0
M  V30 21424 H 2010.15 -2.69794 -3.17176 0
M  V30 21425 H 2012.75 -0.877465 -5.27451 0
M  V30 21426 H 2013.09 0.407944 -4.14296 0
M  V30 21427 H 2013.62 -1.25078 -3.77625 0
M  V30 21428 H 2010.36 -3.81322 -5.33173 0
M  V30 21429 H 2009.88 -2.12332 -5.60959 0
M  V30 21430 H 2011.56 -2.63732 -5.90808 0
M  V30 21431 N 2011.69 1.41711 -0.689627 0
M  V30 21432 C 2012.62 2.33474 -0.0348045 0
M  V30 21433 C 2013.61 1.51494 0.773533 0
M  V30 21434 O 2014.79 1.8005 0.727705 0
M  V30 21435 C 2011.92 3.35259 0.906573 0
M  V30 21436 C 2010.87 4.27505 0.205762 0
M  V30 21437 C 2010.2 5.19616 1.26109 0
M  V30 21438 C 2011.5 5.14056 -0.92431 0
M  V30 21439 H 2013.19 2.88481 -0.801208 0
M  V30 21440 H 2010.74 1.3871 -0.386738 0
M  V30 21441 H 2012.69 3.98375 1.37386 0
M  V30 21442 H 2011.42 2.78589 1.70457 0
M  V30 21443 H 2010.08 3.65804 -0.241437 0
M  V30 21444 H 2009.72 4.59264 2.05147 0
M  V30 21445 H 2009.42 5.82167 0.797221 0
M  V30 21446 H 2010.95 5.85609 1.72901 0
M  V30 21447 H 2012.36 5.70774 -0.537573 0
M  V30 21448 H 2010.76 5.85517 -1.3149 0
M  V30 21449 H 2011.83 4.51574 -1.7666 0
M  V30 21450 N 2013.17 0.433965 1.51507 0
M  V30 21451 C 2014.14 -0.367505 2.26234 0
M  V30 21452 C 2015.14 -0.952583 1.29547 0
M  V30 21453 O 2016.33 -0.827563 1.53287 0
M  V30 21454 C 2013.46 -1.51964 3.05155 0
M  V30 21455 H 2014.65 0.28735 2.9852 0
M  V30 21456 H 2012.2 0.187052 1.55177 0
M  V30 21457 H 2012.94 -2.21064 2.37278 0
M  V30 21458 H 2012.72 -1.10632 3.76169 0
M  V30 21459 H 2014.21 -2.08597 3.61769 0
M  V30 21460 N 2014.65 -1.56732 0.165206 0
M  V30 21461 C 2015.88 -2.01506 -0.490943 0
M  V30 21462 C 2016.3 -1.04466 -1.56424 0
M  V30 21463 O 2015.66 -0.0232331 -1.81285 0
M  V30 21464 C 2015.71 -3.4492 -1.05179 0
M  V30 21465 O 2014.81 -3.50937 -2.16603 0
M  V30 21466 H 2014.15 -0.653393 -0.11821 0
M  V30 21467 H 2016.68 -2.02846 0.267298 0
M  V30 21468 H 2016.69 -3.84099 -1.37593 0
M  V30 21469 H 2015.37 -4.15049 -0.265916 0
M  V30 21470 H 2013.94 -3.23613 -1.85281 0
M  V30 21471 N 2016.13 0.10854 -1.57226 0
M  V30 21472 C 2017.35 0.832276 -1.89968 0
M  V30 21473 C 2017.78 1.72143 -0.758179 0
M  V30 21474 O 2017.14 1.78952 0.290864 0
M  V30 21475 C 2017.18 1.63287 -3.21512 0
M  V30 21476 O 2016.29 2.74071 -3.08154 0
M  V30 21477 H 2015.63 0.229508 -0.623075 0
M  V30 21478 H 2018.16 0.0877974 -2.04412 0
M  V30 21479 H 2018.17 2.01992 -3.5449 0
M  V30 21480 H 2016.84 0.98022 -4.04184 0
M  V30 21481 H 2015.42 2.38492 -2.86664 0
M  V30 21482 N 2017.61 1.52975 0.379009 0
M  V30 21483 C 2018.54 1.81436 1.46981 0
M  V30 21484 C 2019.52 0.666985 1.56478 0
M  V30 21485 O 2020.7 0.915545 1.71264 0
M  V30 21486 C 2017.83 1.99221 2.84479 0
M  V30 21487 C 2016.79 3.14946 2.89816 0
M  V30 21488 C 2016.11 3.18001 4.2986 0
M  V30 21489 C 2017.41 4.53814 2.58554 0
M  V30 21490 H 2019.11 2.72781 1.23413 0
M  V30 21491 H 2016.65 1.31257 0.592257 0
M  V30 21492 H 2018.61 2.17714 3.60803 0
M  V30 21493 H 2017.33 1.04573 3.09406 0
M  V30 21494 H 2015.99 2.96251 2.15942 0
M  V30 21495 H 2015.64 2.21017 4.51841 0
M  V30 21496 H 2015.34 3.95746 4.34349 0
M  V30 21497 H 2016.86 3.38662 5.08075 0
M  V30 21498 H 2018.27 4.72559 3.24593 0
M  V30 21499 H 2016.67 5.33701 2.74379 0
M  V30 21500 H 2017.74 4.59845 1.53853 0
M  V30 21501 N 2019.08 -0.63804 1.44107 0
M  V30 21502 C 2020.01 -1.76164 1.5326 0
M  V30 21503 C 2021 -1.6566 0.386107 0
M  V30 21504 O 2022.18 -1.84525 0.605326 0
M  V30 21505 C 2019.31 -3.14665 1.4698 0
M  V30 21506 C 2018.26 -3.39949 2.60035 0
M  V30 21507 C 2017.59 -4.78409 2.38808 0
M  V30 21508 C 2018.89 -3.33193 4.02219 0
M  V30 21509 H 2020.58 -1.6876 2.47306 0
M  V30 21510 H 2018.13 -0.810483 1.19026 0
M  V30 21511 H 2020.08 -3.93037 1.51986 0
M  V30 21512 H 2018.81 -3.22835 0.494471 0
M  V30 21513 H 2017.47 -2.63955 2.54408 0
M  V30 21514 H 2017.11 -4.83274 1.39483 0
M  V30 21515 H 2016.81 -4.96285 3.14602 0
M  V30 21516 H 2018.34 -5.5902 2.4562 0
M  V30 21517 H 2019.75 -4.0148 4.09252 0
M  V30 21518 H 2018.15 -3.62605 4.78161 0
M  V30 21519 H 2019.22 -2.31116 4.26279 0
M  V30 21520 N 2020.56 -1.3089 -0.877815 0
M  V30 21521 C 2021.51 -1.17878 -1.98427 0
M  V30 21522 C 2022.48 -0.0664893 -1.65967 0
M  V30 21523 O 2023.66 -0.237956 -1.8931 0
M  V30 21524 C 2020.8 -0.883984 -3.33586 0
M  V30 21525 C 2019.92 -2.07885 -3.78692 0
M  V30 21526 C 2019.05 -1.72152 -5.02531 0
M  V30 21527 C 2018.09 -2.88092 -5.40064 0
M  V30 21528 N 2017.23 -2.52607 -6.55083 0
M  V30 21529 H 2022.07 -2.12531 -2.08889 0
M  V30 21530 H 2019.61 -1.05732 -1.0227 0
M  V30 21531 H 2021.56 -0.693656 -4.11393 0
M  V30 21532 H 2020.19 0.0256933 -3.2279 0
M  V30 21533 H 2019.25 -2.3802 -2.96733 0
M  V30 21534 H 2020.56 -2.94687 -4.02444 0
M  V30 21535 H 2019.71 -1.49536 -5.87983 0
M  V30 21536 H 2018.45 -0.825297 -4.80666 0
M  V30 21537 H 2017.46 -3.11366 -4.53135 0
M  V30 21538 H 2018.68 -3.78412 -5.63898 0
M  V30 21539 H 2016.63 -1.65499 -6.3478 0
M  V30 21540 H 2016.54 -3.3294 -6.78739 0
M  V30 21541 H 2017.81 -2.33365 -7.43748 0
M  V30 21542 N 2022.04 1.0911 -1.13723 0
M  V30 21543 C 2022.99 2.17927 -0.813066 0
M  V30 21544 C 2023.98 1.68143 0.205993 0
M  V30 21545 O 2025.19 1.7989 0.0628131 0
M  V30 21546 H 2021.56 0.710911 -0.245171 0
M  V30 21547 H 2023.53 2.42497 -1.7389 0
M  V30 21548 C 2022.28 3.46412 -0.298989 0
M  V30 21549 H 2021.61 3.85091 -1.07447 0
M  V30 21550 H 2023.05 4.23856 -0.110638 0
M  V30 21551 C 2021.51 3.22454 0.975967 0
M  V30 21552 O 2022.04 3.45385 2.05115 0
M  V30 21553 N 2020.24 2.76039 0.908345 0
M  V30 21554 H 2019.79 2.57579 0.0332379 0
M  V30 21555 H 2019.75 2.60387 1.76199 0
M  V30 21556 N 2023.52 0.931232 1.27145 0
M  V30 21557 C 2024.8 0.491789 1.89317 0
M  V30 21558 C 2025.18 -1.03026 1.84252 0
M  V30 21559 O 2024.52 -1.88596 1.29011 0
M  V30 21560 C 2024.73 1.04187 3.33086 0
M  V30 21561 C 2026.08 1.1045 4.09983 0
M  V30 21562 O 2027.11 0.991747 3.42115 0
M  V30 21563 O 2025.96 1.27861 5.31332 0
M  V30 21564 H 2023.06 0.158746 0.811621 0
M  V30 21565 H 2025.6 1.02315 1.35387 0
M  V30 21566 H 2024.38 2.08566 3.31083 0
M  V30 21567 H 2024 0.492365 3.9454 0
M  V30 21568 N 2025 -1.41343 0.697132 0
M  V30 21569 C 2026.23 -2.05528 0.237841 0
M  V30 21570 C 2026.64 -1.52468 -1.11351 0
M  V30 21571 O 2026 -0.673549 -1.69616 0
M  V30 21572 C 2026.05 -3.61007 0.188651 0
M  V30 21573 O 2025.77 -4.12106 1.48662 0
M  V30 21574 C 2027.27 -4.42341 -0.291439 0
M  V30 21575 H 2024.49 -0.661864 0.110352 0
M  V30 21576 H 2027.03 -1.81086 0.950155 0
M  V30 21577 H 2025.19 -3.84483 -0.474496 0
M  V30 21578 H 2025.6 -5.06162 1.37477 0
M  V30 21579 H 2027.08 -5.51316 -0.274731 0
M  V30 21580 H 2027.55 -4.1856 -1.33057 0
M  V30 21581 H 2028.16 -4.23933 0.340765 0
M  V30 21582 N 2026.48 -0.441993 -1.51275 0
M  V30 21583 C 2027.89 0.0200405 -1.86689 0
M  V30 21584 C 2028.24 1.41527 -1.35885 0
M  V30 21585 O 2027.36 2.04366 -0.711583 0
M  V30 21586 C 2027.96 0.0431426 -3.38773 0
M  V30 21587 C 2026.52 0.449604 -3.73705 0
M  V30 21588 C 2025.66 -0.354706 -2.75022 0
M  V30 21589 H 2028.61 -0.657627 -1.44433 0
M  V30 21590 H 2028.64 0.851643 -3.70847 0
M  V30 21591 H 2028.15 -0.97245 -3.75719 0
M  V30 21592 H 2026.25 1.47063 -3.4235 0
M  V30 21593 H 2026.36 0.171167 -4.78794 0
M  V30 21594 H 2024.73 0.187631 -2.54008 0
M  V30 21595 H 2025.51 -1.36926 -3.14811 0
M  V30 21596 N 2027.95 1.56642 -0.173515 0
M  V30 21597 C 2028.89 2.13917 0.794652 0
M  V30 21598 C 2029.86 1.06986 1.22445 0
M  V30 21599 O 2031.05 1.34974 1.31583 0
M  V30 21600 C 2028.18 2.68052 2.07041 0
M  V30 21601 C 2027.22 3.87375 1.78446 0
M  V30 21602 S 2028.05 5.26975 0.951737 0
M  V30 21603 C 2029.21 5.84516 2.23811 0
M  V30 21604 H 2029.44 2.95704 0.307683 0
M  V30 21605 H 2026.98 1.54345 0.0411859 0
M  V30 21606 H 2028.93 2.99888 2.80316 0
M  V30 21607 H 2027.6 1.86347 2.52851 0
M  V30 21608 H 2026.79 4.23588 2.7311 0
M  V30 21609 H 2026.39 3.56437 1.13265 0
M  V30 21610 H 2028.68 5.97564 3.19254 0
M  V30 21611 H 2029.63 6.81555 1.92063 0
M  V30 21612 H 2030.03 5.12952 2.35671 0
M  V30 21613 N 2029.43 -0.1002 1.57281 0
M  V30 21614 C 2030.66 -0.818307 1.9003 0
M  V30 21615 C 2031.07 -1.72531 0.766704 0
M  V30 21616 O 2030.43 -1.80616 -0.261577 0
M  V30 21617 C 2030.48 -1.63596 3.22364 0
M  V30 21618 O 2030.2 -0.765449 4.31361 0
M  V30 21619 C 2031.7 -2.45758 3.68942 0
M  V30 21620 H 2028.92 -0.234253 0.628782 0
M  V30 21621 H 2031.47 -0.0789616 2.04347 0
M  V30 21622 H 2029.62 -2.32787 3.09659 0
M  V30 21623 H 2030.04 -1.33126 5.07324 0
M  V30 21624 H 2031.51 -2.9863 4.64246 0
M  V30 21625 H 2031.99 -3.23987 2.96528 0
M  V30 21626 H 2032.59 -1.81776 3.84497 0
M  V30 21627 N 2030.91 -1.53174 -0.370891 0
M  V30 21628 C 2032.16 -1.68764 -1.11189 0
M  V30 21629 C 2032.48 -0.439297 -1.89987 0
M  V30 21630 O 2031.75 0.546592 -1.8812 0
M  V30 21631 H 2030.33 -0.622136 -0.413467 0
M  V30 21632 H 2032.99 -1.90347 -0.418794 0
M  V30 21633 H 2032.09 -2.54633 -1.80468 0
M  V30 21634 N 2032.39 0.630389 -1.44443 0
M  V30 21635 C 2033.8 1.21202 -1.4201 0
M  V30 21636 C 2034.15 1.95729 -0.135833 0
M  V30 21637 O 2033.27 2.02474 0.763765 0
M  V30 21638 C 2033.87 2.20458 -2.57262 0
M  V30 21639 C 2032.43 2.74047 -2.58021 0
M  V30 21640 C 2031.58 1.49058 -2.33831 0
M  V30 21641 H 2034.53 0.421022 -1.53013 0
M  V30 21642 H 2034.55 3.03074 -2.30057 0
M  V30 21643 H 2034.06 1.66188 -3.50718 0
M  V30 21644 H 2032.16 3.32319 -1.68509 0
M  V30 21645 H 2032.27 3.20036 -3.56531 0
M  V30 21646 H 2030.64 1.77216 -1.82939 0
M  V30 21647 H 2031.42 0.96689 -3.29403 0
M  V30 21648 N 2033.87 1.31354 0.870861 0
M  V30 21649 C 2034.8 1.21518 1.99388 0
M  V30 21650 C 2035.78 0.102582 1.6979 0
M  V30 21651 O 2036.96 0.287028 1.92067 0
M  V30 21652 C 2034.09 0.920813 3.34871 0
M  V30 21653 C 2033.05 1.99289 3.78772 0
M  V30 21654 C 2032.37 1.55123 5.11704 0
M  V30 21655 C 2033.67 3.40589 3.95975 0
M  V30 21656 H 2035.37 2.15473 2.07875 0
M  V30 21657 H 2032.91 1.03734 0.998761 0
M  V30 21658 H 2034.86 0.838612 4.12971 0
M  V30 21659 H 2033.59 -0.0543971 3.26555 0
M  V30 21660 H 2032.25 2.06496 3.0291 0
M  V30 21661 H 2031.9 0.563901 4.99829 0
M  V30 21662 H 2031.6 2.26842 5.42048 0
M  V30 21663 H 2033.12 1.48308 5.92315 0
M  V30 21664 H 2034.53 3.36061 4.64474 0
M  V30 21665 H 2032.93 4.10517 4.37716 0
M  V30 21666 H 2034 3.8144 2.99385 0
M  V30 21667 N 2035.34 -1.08505 1.143 0
M  V30 21668 C 2036.59 -1.8114 0.911938 0
M  V30 21669 C 2036.92 -1.85946 -0.560156 0
M  V30 21670 O 2036.2 -1.33458 -1.41489 0
M  V30 21671 C 2036.48 -3.26806 1.51227 0
M  V30 21672 C 2036.33 -3.30215 3.05414 0
M  V30 21673 C 2037.65 -4.23754 1.1883 0
M  V30 21674 H 2034.77 -0.657619 0.332725 0
M  V30 21675 H 2037.41 -1.27044 1.41279 0
M  V30 21676 H 2035.56 -3.73003 1.08633 0
M  V30 21677 H 2037.24 -2.92351 3.56832 0
M  V30 21678 H 2035.48 -2.69518 3.39915 0
M  V30 21679 H 2036.15 -4.32875 3.42525 0
M  V30 21680 H 2038.63 -3.8589 1.55653 0
M  V30 21681 H 2037.5 -5.23993 1.63469 0
M  V30 21682 H 2037.76 -4.41979 0.103442 0
M  V30 21683 N 2036.82 -0.937962 -1.26649 0
M  V30 21684 C 2037.78 -0.449635 -2.24746 0
M  V30 21685 C 2038.78 0.437489 -1.54734 0
M  V30 21686 O 2039.97 0.237121 -1.72579 0
M  V30 21687 C 2037.11 0.35235 -3.39074 0
M  V30 21688 H 2038.3 -1.31648 -2.6946 0
M  V30 21689 H 2035.85 -0.71962 -1.38749 0
M  V30 21690 H 2036.59 1.23758 -2.99757 0
M  V30 21691 H 2036.37 -0.283853 -3.91071 0
M  V30 21692 H 2037.86 0.684038 -4.1196 0
M  V30 21693 N 2038.3 1.40971 -0.704618 0
M  V30 21694 C 2039.55 2.00682 -0.238954 0
M  V30 21695 C 2039.87 1.56119 1.16842 0
M  V30 21696 O 2039.14 0.795777 1.79009 0
M  V30 21697 H 2037.72 0.742108 -0.0853541 0
M  V30 21698 H 2040.38 1.72467 -0.9078 0
M  V30 21699 H 2039.48 3.10986 -0.26345 0
M  V30 21700 N 2039.78 0.45001 1.51039 0
M  V30 21701 C 2041.03 -0.111969 2.0179 0
M  V30 21702 C 2041.35 -1.42098 1.33541 0
M  V30 21703 O 2040.62 -1.9008 0.473962 0
M  V30 21704 H 2039.2 -0.0443688 0.745681 0
M  V30 21705 H 2041.86 0.595615 1.85576 0
M  V30 21706 H 2040.96 -0.278742 3.10853 0
M  V30 21707 N 2041.26 -1.56548 0.18182 0
M  V30 21708 C 2042.19 -2.21471 -0.739774 0
M  V30 21709 C 2043.17 -1.17361 -1.23128 0
M  V30 21710 O 2044.35 -1.45825 -1.28253 0
M  V30 21711 C 2041.48 -2.86369 -1.96494 0
M  V30 21712 C 2040.44 -3.96609 -1.60888 0
M  V30 21713 C 2039.76 -4.48607 -2.90957 0
M  V30 21714 C 2041.06 -5.15681 -0.828895 0
M  V30 21715 H 2042.76 -2.98741 -0.19858 0
M  V30 21716 H 2040.3 -1.43692 -0.0940725 0
M  V30 21717 H 2042.26 -3.30466 -2.61477 0
M  V30 21718 H 2040.98 -2.06485 -2.53045 0
M  V30 21719 H 2039.64 -3.53184 -0.982694 0
M  V30 21720 H 2039.29 -3.65501 -3.45569 0
M  V30 21721 H 2038.99 -5.22984 -2.67882 0
M  V30 21722 H 2040.51 -4.95397 -3.56951 0
M  V30 21723 H 2041.92 -5.56405 -1.38153 0
M  V30 21724 H 2040.32 -5.96041 -0.696789 0
M  V30 21725 H 2041.39 -4.84592 0.172711 0
M  V30 21726 N 2042.73 0.0918577 -1.57332 0
M  V30 21727 C 2043.66 1.11191 -2.05326 0
M  V30 21728 C 2044.65 1.41581 -0.942802 0
M  V30 21729 O 2045.83 1.51555 -1.21428 0
M  V30 21730 C 2042.96 2.4309 -2.48041 0
M  V30 21731 C 2041.91 2.271 -3.6278 0
M  V30 21732 C 2041.24 3.64205 -3.91482 0
M  V30 21733 C 2042.54 1.70886 -4.93554 0
M  V30 21734 H 2044.23 0.712608 -2.90796 0
M  V30 21735 H 2041.78 0.341338 -1.39896 0
M  V30 21736 H 2043.73 3.14724 -2.80226 0
M  V30 21737 H 2042.46 2.84962 -1.59575 0
M  V30 21738 H 2041.12 1.57911 -3.30847 0
M  V30 21739 H 2040.76 4.03611 -3.00179 0
M  V30 21740 H 2040.46 3.54352 -4.68731 0
M  V30 21741 H 2041.99 4.37302 -4.26145 0
M  V30 21742 H 2043.4 2.32364 -5.24099 0
M  V30 21743 H 2041.8 1.71783 -5.74987 0
M  V30 21744 H 2042.87 0.668569 -4.80269 0
M  V30 21745 N 2044.21 1.53368 0.362763 0
M  V30 21746 C 2045.44 1.73599 1.12565 0
M  V30 21747 C 2045.86 0.466247 1.82952 0
M  V30 21748 O 2045.21 -0.561016 1.73663 0
M  V30 21749 C 2045.26 2.90332 2.15382 0
M  V30 21750 O 2044.98 4.12394 1.4786 0
M  V30 21751 C 2046.49 3.22459 3.04196 0
M  V30 21752 H 2043.71 0.580544 0.336466 0
M  V30 21753 H 2046.25 2.00123 0.420823 0
M  V30 21754 H 2044.4 2.66195 2.81459 0
M  V30 21755 H 2044.82 4.77783 2.16387 0
M  V30 21756 H 2046.29 4.07537 3.72314 0
M  V30 21757 H 2046.77 2.37943 3.69161 0
M  V30 21758 H 2047.38 3.48532 2.43732 0
M  V30 21759 N 2045.69 -0.62272 1.44776 0
M  V30 21760 C 2046.94 -1.38415 1.4822 0
M  V30 21761 C 2047.27 -1.93844 0.117595 0
M  V30 21762 O 2046.54 -1.7416 -0.865935 0
M  V30 21763 C 2046.83 -2.54325 2.54933 0
M  V30 21764 C 2046.68 -2.04192 4.00782 0
M  V30 21765 C 2048 -3.56495 2.58069 0
M  V30 21766 H 2045.12 -0.501939 0.539654 0
M  V30 21767 H 2047.76 -0.703347 1.76502 0
M  V30 21768 H 2045.91 -3.12403 2.30947 0
M  V30 21769 H 2047.58 -1.50879 4.35928 0
M  V30 21770 H 2045.83 -1.35308 4.12158 0
M  V30 21771 H 2046.5 -2.87679 4.7111 0
M  V30 21772 H 2048.97 -3.08232 2.79522 0
M  V30 21773 H 2047.85 -4.35106 3.34625 0
M  V30 21774 H 2048.11 -4.11119 1.62583 0
M  V30 21775 N 2047.17 -1.31814 -0.863883 0
M  V30 21776 C 2048.41 -1.23154 -1.63133 0
M  V30 21777 C 2048.77 0.205722 -1.90895 0
M  V30 21778 O 2049.97 0.415911 -2.65563 0
M  V30 21779 C 2048.24 -2.0581 -2.92194 0
M  V30 21780 S 2049.8 -2.14077 -3.83036 0
M  V30 21781 H 2046.62 -0.438531 -0.559653 0
M  V30 21782 H 2049.22 -1.66551 -1.02377 0
M  V30 21783 H 2047.93 -3.09311 -2.69731 0
M  V30 21784 H 2047.46 -1.63155 -3.57972 0
M  V30 21785 H 2049.47 -1.28353 -4.79312 0
M  V30 21786 N 2048.65 1.07897 -1.14873 0
M  V30 21787 C 2049.88 1.8385 -0.942478 0
M  V30 21788 C 2050.28 1.82127 0.512486 0
M  V30 21789 O 2049.63 1.22709 1.36705 0
M  V30 21790 C 2049.69 3.32272 -1.37244 0
M  V30 21791 C 2049.35 3.57723 -2.844 0
M  V30 21792 C 2050.35 3.52131 -3.82492 0
M  V30 21793 C 2048.04 3.85567 -3.21937 0
M  V30 21794 C 2050.03 3.74022 -5.16126 0
M  V30 21795 C 2047.72 4.07111 -4.55745 0
M  V30 21796 C 2048.71 4.01333 -5.52649 0
M  V30 21797 O 2048.4 4.22306 -6.84042 0
M  V30 21798 H 2048.13 0.587081 -0.33513 0
M  V30 21799 H 2050.69 1.37142 -1.52909 0
M  V30 21800 H 2048.92 3.79763 -0.72919 0
M  V30 21801 H 2050.61 3.89674 -1.13617 0
M  V30 21802 H 2051.37 3.30628 -3.54838 0
M  V30 21803 H 2047.25 3.89182 -2.471 0
M  V30 21804 H 2050.8 3.69428 -5.91751 0
M  V30 21805 H 2046.69 4.28099 -4.83117 0
M  V30 21806 H 2047.46 4.39684 -6.90377 0
M  V30 21807 N 2050.12 0.944665 1.2615 0
M  V30 21808 C 2051.37 0.594973 1.93876 0
M  V30 21809 C 2051.7 -0.864305 1.73906 0
M  V30 21810 O 2050.98 -1.61882 1.07817 0
M  V30 21811 C 2051.26 0.9423 3.47552 0
M  V30 21812 C 2051.11 2.45658 3.76792 0
M  V30 21813 C 2052.43 0.460204 4.37687 0
M  V30 21814 H 2049.55 0.217629 0.704135 0
M  V30 21815 H 2052.19 1.17952 1.48954 0
M  V30 21816 H 2050.34 0.444863 3.85945 0
M  V30 21817 H 2052.02 3.02701 3.48095 0
M  V30 21818 H 2050.26 2.89856 3.22747 0
M  V30 21819 H 2050.93 2.65011 4.84224 0
M  V30 21820 H 2053.41 0.886761 4.06541 0
M  V30 21821 H 2052.28 0.732019 5.43997 0
M  V30 21822 H 2052.54 -0.639853 4.37445 0
M  V30 21823 N 2051.6 -1.40596 0.712085 0
M  V30 21824 C 2052.53 -2.33389 0.0719438 0
M  V30 21825 C 2053.51 -1.52706 -0.749334 0
M  V30 21826 O 2054.7 -1.81185 -0.698968 0
M  V30 21827 C 2051.83 -3.36659 -0.853122 0
M  V30 21828 C 2050.78 -4.27778 -0.137724 0
M  V30 21829 C 2050.11 -5.21556 -1.17827 0
M  V30 21830 C 2051.41 -5.12521 1.00597 0
M  V30 21831 H 2053.1 -2.87169 0.847002 0
M  V30 21832 H 2050.65 -1.38077 0.408756 0
M  V30 21833 H 2052.6 -4.00511 -1.31031 0
M  V30 21834 H 2051.33 -2.81266 -1.66004 0
M  V30 21835 H 2049.98 -3.65374 0.299603 0
M  V30 21836 H 2049.63 -4.6247 -1.97814 0
M  V30 21837 H 2049.33 -5.83361 -0.704503 0
M  V30 21838 H 2050.86 -5.88285 -1.63563 0
M  V30 21839 H 2052.27 -5.69847 0.62831 0
M  V30 21840 H 2050.67 -5.83351 1.40789 0
M  V30 21841 H 2051.74 -4.48706 1.83822 0
M  V30 21842 N 2053.08 -0.458013 -1.50798 0
M  V30 21843 C 2054.31 0.0995379 -2.0666 0
M  V30 21844 C 2054.72 1.34662 -1.32331 0
M  V30 21845 O 2054.08 1.78311 -0.388768 0
M  V30 21846 C 2054.13 0.400901 -3.5927 0
M  V30 21847 O 2053.85 -0.796705 -4.30795 0
M  V30 21848 C 2055.35 1.00686 -4.31714 0
M  V30 21849 H 2052.57 -0.00125628 -0.670999 0
M  V30 21850 H 2055.12 -0.643041 -1.94127 0
M  V30 21851 H 2053.27 1.0934 -3.7165 0
M  V30 21852 H 2053.69 -0.533396 -5.21781 0
M  V30 21853 H 2055.16 1.16758 -5.39511 0
M  V30 21854 H 2055.64 1.99349 -3.91352 0
M  V30 21855 H 2056.24 0.353135 -4.23831 0
M  V30 21856 N 2054.56 1.56449 -0.190119 0
M  V30 21857 C 2055.81 1.97048 0.449068 0
M  V30 21858 C 2056.13 1.07797 1.62496 0
M  V30 21859 O 2055.4 0.148203 1.95339 0
M  V30 21860 H 2053.98 0.727656 0.168896 0
M  V30 21861 H 2056.64 1.9294 -0.275691 0
M  V30 21862 H 2055.74 3.01764 0.79653 0
M  V30 21863 N 2056.04 -0.0835127 1.57379 0
M  V30 21864 C 2057.45 -0.438018 1.53472 0
M  V30 21865 C 2057.65 -1.79853 0.908578 0
M  V30 21866 O 2056.71 -2.47377 0.506047 0
M  V30 21867 C 2058.02 -0.389855 2.98162 0
M  V30 21868 C 2059.57 -0.470883 3.09438 0
M  V30 21869 C 2060.05 -0.452749 4.55757 0
M  V30 21870 N 2061.54 -0.513166 4.60349 0
M  V30 21871 C 2062.27 -0.52116 5.71027 0
M  V30 21872 N 2061.77 -0.484668 6.91103 0
M  V30 21873 N 2063.56 -0.566841 5.59235 0
M  V30 21874 H 2055.71 0.807491 1.96452 0
M  V30 21875 H 2057.97 0.301793 0.89868 0
M  V30 21876 H 2057.68 0.542902 3.47484 0
M  V30 21877 H 2057.55 -1.20449 3.57452 0
M  V30 21878 H 2059.94 -1.39406 2.60096 0
M  V30 21879 H 2060.02 0.372104 2.53079 0
M  V30 21880 H 2059.67 0.466533 5.05753 0
M  V30 21881 H 2059.6 -1.31311 5.09966 0
M  V30 21882 H 2062.09 -0.546093 3.73933 0
M  V30 21883 H 2062.4 -0.494371 7.71217 0
M  V30 21884 H 2060.75 -0.451537 6.93532 0
M  V30 21885 H 2063.94 -0.59296 4.64329 0
M  V30 21886 H 2064.11 -0.569602 6.45492 0
M  V30 21887 N 2057.52 -1.53558 -0.354624 0
M  V30 21888 C 2058.74 -1.74503 -1.12087 0
M  V30 21889 C 2059.17 -0.477817 -1.8193 0
M  V30 21890 O 2058.52 0.568868 -1.72144 0
M  V30 21891 C 2058.57 -2.91808 -2.1185 0
M  V30 21892 O 2057.68 -2.61182 -3.19152 0
M  V30 21893 H 2057.02 -0.579191 -0.324705 0
M  V30 21894 H 2059.55 -2.00483 -0.4084 0
M  V30 21895 H 2059.56 -3.18284 -2.55263 0
M  V30 21896 H 2058.23 -3.83721 -1.6041 0
M  V30 21897 H 2056.81 -2.45558 -2.80634 0
M  V30 21898 N 2058.99 0.615033 -1.45104 0
M  V30 21899 C 2059.96 1.7081 -1.52828 0
M  V30 21900 C 2060.96 1.55523 -0.408557 0
M  V30 21901 O 2062.15 1.60726 -0.671773 0
M  V30 21902 C 2059.28 3.10023 -1.41768 0
M  V30 21903 H 2060.47 1.6533 -2.50212 0
M  V30 21904 H 2058.02 0.830115 -1.32434 0
M  V30 21905 H 2058.76 3.21086 -0.455409 0
M  V30 21906 H 2058.54 3.22527 -2.22977 0
M  V30 21907 H 2060.03 3.89657 -1.5019 0
M  V30 21908 N 2060.47 1.3227 0.85688 0
M  V30 21909 C 2061.75 1.13324 1.59427 0
M  V30 21910 C 2062.13 -0.307216 2.08853 0
M  V30 21911 O 2061.48 -1.30347 1.87675 0
M  V30 21912 C 2061.69 2.15889 2.74213 0
M  V30 21913 C 2063.03 2.49103 3.4385 0
M  V30 21914 O 2064.06 2.14417 2.84436 0
M  V30 21915 O 2062.92 3.08555 4.51061 0
M  V30 21916 H 2060.01 0.437152 0.702016 0
M  V30 21917 H 2062.56 1.43793 0.901202 0
M  V30 21918 H 2061.33 3.12724 2.35201 0
M  V30 21919 H 2060.95 1.86401 3.51198 0
M  V30 21920 N 2061.95 -1.07287 1.15444 0
M  V30 21921 C 2062.88 -2.16494 0.87478 0
M  V30 21922 C 2063.86 -1.69199 -0.174882 0
M  V30 21923 O 2065.05 -1.94178 -0.0291162 0
M  V30 21924 C 2062.18 -3.45387 0.364018 0
M  V30 21925 C 2061.13 -4.06137 1.35043 0
M  V30 21926 C 2060.46 -5.30118 0.69849 0
M  V30 21927 C 2061.76 -4.46089 2.71665 0
M  V30 21928 H 2063.45 -2.40146 1.78802 0
M  V30 21929 H 2061 -1.15415 0.861124 0
M  V30 21930 H 2062.95 -4.21111 0.15591 0
M  V30 21931 H 2061.67 -3.21324 -0.58469 0
M  V30 21932 H 2060.33 -3.32458 1.54491 0
M  V30 21933 H 2059.98 -5.02346 -0.256386 0
M  V30 21934 H 2059.68 -5.71721 1.35679 0
M  V30 21935 H 2061.2 -6.08548 0.500171 0
M  V30 21936 H 2062.62 -5.12939 2.56059 0
M  V30 21937 H 2061.01 -4.98645 3.33876 0
M  V30 21938 H 2062.08 -3.57427 3.2768 0
M  V30 21939 N 2063.43 -0.951342 -1.25647 0
M  V30 21940 C 2064.34 -0.475416 -2.29732 0
M  V30 21941 C 2065.35 0.455617 -1.67929 0
M  V30 21942 O 2066.53 0.332666 -1.98634 0
M  V30 21943 C 2063.59 0.242274 -3.45852 0
M  V30 21944 C 2062.66 -0.726566 -4.23107 0
M  V30 21945 C 2061.89 -0.043031 -5.33683 0
M  V30 21946 O 2062.11 1.17196 -5.5823 0
M  V30 21947 O 2061.05 -0.726899 -5.97495 0
M  V30 21948 H 2064.87 -1.34027 -2.72526 0
M  V30 21949 H 2062.46 -0.717655 -1.31035 0
M  V30 21950 H 2064.34 0.646132 -4.16417 0
M  V30 21951 H 2063.01 1.08236 -3.05068 0
M  V30 21952 H 2061.92 -1.18057 -3.54984 0
M  V30 21953 H 2063.25 -1.53457 -4.67666 0
M  V30 21954 N 2064.91 1.40216 -0.719531 0
M  V30 21955 C 2065.84 2.33348 -0.08432 0
M  V30 21956 C 2066.82 1.53101 0.741225 0
M  V30 21957 O 2068 1.81553 0.68935 0
M  V30 21958 C 2065.13 3.37106 0.835256 0
M  V30 21959 C 2064.09 4.27845 0.115036 0
M  V30 21960 C 2063.41 5.22174 1.15059 0
M  V30 21961 C 2064.71 5.1198 -1.03314 0
M  V30 21962 H 2066.41 2.86716 -0.862219 0
M  V30 21963 H 2063.95 1.37858 -0.416073 0
M  V30 21964 H 2065.9 4.012 1.28905 0
M  V30 21965 H 2064.63 2.82142 1.6451 0
M  V30 21966 H 2063.29 3.6521 -0.318975 0
M  V30 21967 H 2062.94 4.63513 1.95359 0
M  V30 21968 H 2062.64 5.83727 0.673556 0
M  V30 21969 H 2064.16 5.89144 1.60441 0
M  V30 21970 H 2065.57 5.69505 -0.658522 0
M  V30 21971 H 2063.97 5.82596 -1.4388 0
M  V30 21972 H 2065.04 4.47725 -1.86199 0
M  V30 21973 N 2066.38 0.466004 1.50553 0
M  V30 21974 C 2067.29 -0.33625 2.32178 0
M  V30 21975 C 2068.31 -1.00081 1.42337 0
M  V30 21976 O 2069.49 -0.989904 1.75393 0
M  V30 21977 C 2066.55 -1.40682 3.16875 0
M  V30 21978 C 2065.61 -0.759384 4.2253 0
M  V30 21979 C 2064.84 -1.77894 5.03179 0
M  V30 21980 O 2065.07 -3.00483 4.84836 0
M  V30 21981 O 2064 -1.35358 5.86483 0
M  V30 21982 H 2067.83 0.330908 3.01892 0
M  V30 21983 H 2065.41 0.22795 1.47651 0
M  V30 21984 H 2067.29 -2.02704 3.69444 0
M  V30 21985 H 2065.97 -2.05753 2.49894 0
M  V30 21986 H 2064.88 -0.100338 3.73965 0
M  V30 21987 H 2066.21 -0.151694 4.91966 0
M  V30 21988 N 2067.86 -1.56346 0.198413 0
M  V30 21989 C 2069.28 -1.58822 -0.157378 0
M  V30 21990 C 2069.48 -1.21468 -1.60773 0
M  V30 21991 O 2068.53 -0.938985 -2.34391 0
M  V30 21992 C 2069.85 -3.00336 0.14798 0
M  V30 21993 C 2071.39 -3.12875 0.0883539 0
M  V30 21994 C 2071.87 -4.56527 0.367068 0
M  V30 21995 N 2073.36 -4.62122 0.315805 0
M  V30 21996 C 2074.1 -5.7117 0.505265 0
M  V30 21997 N 2073.59 -6.88671 0.755254 0
M  V30 21998 N 2075.38 -5.60381 0.439293 0
M  V30 21999 H 2067.54 -1.78908 1.1448 0
M  V30 22000 H 2069.8 -0.830475 0.457182 0
M  V30 22001 H 2069.5 -3.32238 1.15373 0
M  V30 22002 H 2069.38 -3.732 -0.547892 0
M  V30 22003 H 2071.77 -2.80783 -0.908004 0
M  V30 22004 H 2071.85 -2.4239 0.817354 0
M  V30 22005 H 2071.49 -4.89332 1.36076 0
M  V30 22006 H 2071.42 -5.25206 -0.382859 0
M  V30 22007 H 2073.91 -3.77679 0.129337 0
M  V30 22008 H 2074.22 -7.67675 0.888542 0
M  V30 22009 H 2072.57 -6.9047 0.792186 0
M  V30 22010 H 2075.76 -4.67462 0.244386 0
M  V30 22011 H 2075.93 -6.45305 0.590363 0
M  V30 22012 N 2069.34 0.0751653 -1.57421 0
M  V30 22013 C 2070.3 1.07404 -2.02477 0
M  V30 22014 C 2071.3 1.31792 -0.921282 0
M  V30 22015 O 2072.49 1.27569 -1.18625 0
M  V30 22016 C 2069.63 2.4185 -2.40253 0
M  V30 22017 H 2070.82 0.685783 -2.91954 0
M  V30 22018 H 2068.37 0.320795 -1.52973 0
M  V30 22019 H 2069.11 2.85515 -1.53791 0
M  V30 22020 H 2068.89 2.25492 -3.20774 0
M  V30 22021 H 2070.38 3.13655 -2.75699 0
M  V30 22022 N 2070.82 1.53744 0.346476 0
M  V30 22023 C 2072.05 1.74784 1.10717 0
M  V30 22024 C 2072.46 0.485625 1.82448 0
M  V30 22025 O 2071.82 -0.542565 1.74248 0
M  V30 22026 C 2071.87 2.926 2.1229 0
M  V30 22027 O 2071.59 4.13939 1.43477 0
M  V30 22028 C 2073.09 3.25667 3.00758 0
M  V30 22029 H 2070.31 0.58408 0.33029 0
M  V30 22030 H 2072.86 2.00558 0.399573 0
M  V30 22031 H 2071.01 2.69165 2.7862 0
M  V30 22032 H 2071.42 4.80051 2.11308 0
M  V30 22033 H 2072.9 4.11463 3.6797 0
M  V30 22034 H 2073.38 2.41845 3.66617 0
M  V30 22035 H 2073.98 3.51098 2.40022 0
M  V30 22036 N 2072.3 -0.607329 1.45428 0
M  V30 22037 C 2073.57 -1.36669 1.39932 0
M  V30 22038 C 2073.95 -2.10984 0.0700663 0
M  V30 22039 O 2073.3 -2.07907 -0.947984 0
M  V30 22040 C 2073.51 -2.3133 2.61319 0
M  V30 22041 C 2074.86 -2.93928 3.06417 0
M  V30 22042 O 2075.88 -2.4165 2.61694 0
M  V30 22043 O 2074.74 -3.88823 3.8403 0
M  V30 22044 H 2071.84 -0.61283 0.55531 0
M  V30 22045 H 2074.38 -0.630396 1.57557 0
M  V30 22046 H 2073.15 -1.75677 3.49647 0
M  V30 22047 H 2072.78 -3.12338 2.4603 0
M  V30 22048 N 2073.77 -1.32722 -0.849853 0
M  V30 22049 C 2075.02 -1.23739 -1.60675 0
M  V30 22050 C 2075.35 0.199183 -1.93176 0
M  V30 22051 O 2074.63 1.13761 -1.57761 0
M  V30 22052 C 2074.91 -2.10183 -2.92395 0
M  V30 22053 C 2074.76 -3.62243 -2.66646 0
M  V30 22054 C 2076.08 -1.96664 -3.93715 0
M  V30 22055 H 2073.2 -0.45085 -0.583013 0
M  V30 22056 H 2075.84 -1.62716 -0.980999 0
M  V30 22057 H 2073.99 -1.77072 -3.458 0
M  V30 22058 H 2075.67 -4.05591 -2.19758 0
M  V30 22059 H 2073.91 -3.8467 -2.00529 0
M  V30 22060 H 2074.58 -4.1806 -3.60458 0
M  V30 22061 H 2077.06 -2.25679 -3.49583 0
M  V30 22062 H 2075.93 -2.59417 -4.83729 0
M  V30 22063 H 2076.19 -0.935664 -4.32085 0
M  V30 22064 N 2075.25 1.06673 -1.16011 0
M  V30 22065 C 2076.2 2.14051 -0.863174 0
M  V30 22066 C 2077.17 1.65046 0.186783 0
M  V30 22067 O 2078.35 1.90727 0.0528262 0
M  V30 22068 C 2075.49 3.43152 -0.366184 0
M  V30 22069 C 2074.61 4.05911 -1.47852 0
M  V30 22070 C 2073.74 5.22872 -0.936942 0
M  V30 22071 C 2072.78 5.77607 -2.02574 0
M  V30 22072 N 2071.92 6.85889 -1.50004 0
M  V30 22073 H 2076.76 2.38791 -1.78277 0
M  V30 22074 H 2074.3 1.17165 -0.889421 0
M  V30 22075 H 2076.25 4.17157 -0.0596984 0
M  V30 22076 H 2074.88 3.18641 0.516479 0
M  V30 22077 H 2073.94 3.29491 -1.90105 0
M  V30 22078 H 2075.25 4.42592 -2.3003 0
M  V30 22079 H 2074.4 6.03888 -0.583409 0
M  V30 22080 H 2073.14 4.87627 -0.0844157 0
M  V30 22081 H 2072.15 4.95231 -2.38802 0
M  V30 22082 H 2073.37 6.14905 -2.88217 0
M  V30 22083 H 2071.32 6.5257 -0.669982 0
M  V30 22084 H 2071.23 7.21491 -2.25802 0
M  V30 22085 H 2072.5 7.70594 -1.17496 0
M  V30 22086 N 2076.73 0.957992 1.25141 0
M  V30 22087 C 2077.98 0.625071 1.93557 0
M  V30 22088 C 2078.33 -0.829302 1.7361 0
M  V30 22089 O 2077.62 -1.58763 1.07261 0
M  V30 22090 C 2077.82 0.923523 3.45262 0
M  V30 22091 C 2077.65 2.40536 3.79964 0
M  V30 22092 C 2076.42 3.0635 4.01843 0
M  V30 22093 C 2078.62 3.38489 3.87207 0
M  V30 22094 N 2076.6 4.44371 4.23565 0
M  V30 22095 C 2077.97 4.6183 4.13658 0
M  V30 22096 C 2080.02 3.33281 3.69903 0
M  V30 22097 C 2078.73 5.80608 4.24603 0
M  V30 22098 C 2080.75 4.514 3.82088 0
M  V30 22099 C 2080.11 5.73529 4.08954 0
M  V30 22100 H 2076.21 0.279402 0.730383 0
M  V30 22101 H 2078.8 1.23086 1.50857 0
M  V30 22102 H 2076.97 0.346636 3.8685 0
M  V30 22103 H 2078.7 0.550165 4.00943 0
M  V30 22104 H 2075.46 2.5691 3.97862 0
M  V30 22105 H 2075.88 5.15861 4.38425 0
M  V30 22106 H 2080.52 2.39904 3.48146 0
M  V30 22107 H 2078.24 6.74422 4.45174 0
M  V30 22108 H 2081.83 4.48922 3.70082 0
M  V30 22109 H 2080.71 6.63403 4.1817 0
M  V30 22110 N 2078.21 -1.39832 0.726957 0
M  V30 22111 C 2079.49 -1.94595 0.198042 0
M  V30 22112 C 2079.87 -1.66433 -1.29858 0
M  V30 22113 O 2079.21 -0.98817 -2.06028 0
M  V30 22114 C 2079.42 -3.45059 0.522997 0
M  V30 22115 C 2080.77 -4.22014 0.467902 0
M  V30 22116 O 2081.8 -3.53221 0.459717 0
M  V30 22117 O 2080.65 -5.44599 0.455375 0
M  V30 22118 H 2077.75 -0.826324 0.0334203 0
M  V30 22119 H 2080.29 -1.49377 0.805266 0
M  V30 22120 H 2079.07 -3.58959 1.55769 0
M  V30 22121 H 2078.69 -3.97438 -0.113609 0
M  V30 22122 N 2079.69 -0.473982 -1.50304 0
M  V30 22123 C 2080.96 0.141727 -1.95086 0
M  V30 22124 C 2081.34 1.56703 -1.41447 0
M  V30 22125 O 2080.69 2.20021 -0.616691 0
M  V30 22126 C 2080.9 0.0820815 -3.48903 0
M  V30 22127 C 2082.25 0.26953 -4.23744 0
M  V30 22128 O 2083.27 0.158532 -3.55847 0
M  V30 22129 O 2082.13 0.494023 -5.44262 0
M  V30 22130 H 2079.23 0.110094 -0.819639 0
M  V30 22131 H 2081.77 -0.534591 -1.6106 0
M  V30 22132 H 2080.54 -0.912936 -3.80501 0
M  V30 22133 H 2080.17 0.799731 -3.89474 0
M  V30 22134 N 2081.16 1.56239 -0.206702 0
M  V30 22135 C 2082.1 2.16873 0.741546 0
M  V30 22136 C 2083.11 1.1337 1.16838 0
M  V30 22137 O 2084.3 1.40413 1.1021 0
M  V30 22138 C 2081.4 2.72544 2.01427 0
M  V30 22139 C 2080.57 4.01068 1.74538 0
M  V30 22140 C 2079.63 4.4145 2.86371 0
M  V30 22141 O 2078.66 5.08645 2.55479 0
M  V30 22142 N 2079.86 4.05908 4.14993 0
M  V30 22143 H 2082.62 2.98869 0.222965 0
M  V30 22144 H 2080.18 1.6188 -0.0251503 0
M  V30 22145 H 2082.18 2.96538 2.75404 0
M  V30 22146 H 2080.75 1.94935 2.44375 0
M  V30 22147 H 2079.97 3.85085 0.842806 0
M  V30 22148 H 2081.25 4.84939 1.53985 0
M  V30 22149 H 2080.65 3.51882 4.4294 0
M  V30 22150 H 2079.21 4.34827 4.85561 0
M  V30 22151 N 2082.64 -0.0668159 1.57458 0
M  V30 22152 C 2083.61 -1.06329 2.03044 0
M  V30 22153 C 2084.61 -1.31301 0.928259 0
M  V30 22154 O 2085.8 -1.26938 1.193 0
M  V30 22155 C 2082.93 -2.40573 2.41532 0
M  V30 22156 H 2084.12 -0.67029 2.92313 0
M  V30 22157 H 2081.67 -0.312678 1.53141 0
M  V30 22158 H 2082.41 -2.84695 1.55303 0
M  V30 22159 H 2082.19 -2.23788 3.21965 0
M  V30 22160 H 2083.68 -3.12189 2.77359 0
M  V30 22161 N 2084.12 -1.53926 -0.338317 0
M  V30 22162 C 2085.03 -1.85282 -1.43902 0
M  V30 22163 C 2086.05 -0.743407 -1.5732 0
M  V30 22164 O 2087.22 -1.03624 -1.72697 0
M  V30 22165 C 2084.29 -2.06058 -2.78821 0
M  V30 22166 C 2083.35 -3.29903 -2.74704 0
M  V30 22167 C 2082.58 -3.49679 -4.03188 0
M  V30 22168 O 2082.81 -2.73186 -5.00725 0
M  V30 22169 O 2081.74 -4.43121 -4.07342 0
M  V30 22170 H 2085.57 -2.78849 -1.2032 0
M  V30 22171 H 2083.15 -1.39646 -0.530982 0
M  V30 22172 H 2085.03 -2.21138 -3.58714 0
M  V30 22173 H 2083.71 -1.15679 -3.02325 0
M  V30 22174 H 2082.61 -3.20222 -1.93413 0
M  V30 22175 H 2083.95 -4.20292 -2.56155 0
M  V30 22176 N 2085.6 0.599608 -1.45748 0
M  V30 22177 C 2086.85 1.35451 -1.49452 0
M  V30 22178 C 2087.16 1.95072 -0.143637 0
M  V30 22179 O 2088.37 2.71437 -0.0583691 0
M  V30 22180 C 2086.82 2.454 -2.63262 0
M  V30 22181 C 2086.43 1.92156 -4.04698 0
M  V30 22182 C 2088.18 3.22339 -2.7622 0
M  V30 22183 C 2086.08 2.99633 -5.09876 0
M  V30 22184 H 2085.01 0.509134 -0.556146 0
M  V30 22185 H 2087.66 0.641777 -1.71911 0
M  V30 22186 H 2086.05 3.19395 -2.34101 0
M  V30 22187 H 2087.22 1.24817 -4.43574 0
M  V30 22188 H 2085.53 1.27937 -3.96259 0
M  V30 22189 H 2088.13 4.02519 -3.5197 0
M  V30 22190 H 2088.47 3.73854 -1.83135 0
M  V30 22191 H 2089.01 2.55446 -3.04946 0
M  V30 22192 H 2085.75 2.53026 -6.04697 0
M  V30 22193 H 2085.27 3.65514 -4.75562 0
M  V30 22194 H 2086.95 3.63878 -5.34978 0
M  V30 22195 N 2087.08 1.33171 0.842803 0
M  V30 22196 C 2088.3 1.27579 1.63519 0
M  V30 22197 C 2088.73 -0.151151 1.87492 0
M  V30 22198 O 2088.09 -1.10648 1.4362 0
M  V30 22199 C 2088.13 2.05261 2.9648 0
M  V30 22200 O 2087.24 1.40852 3.87601 0
M  V30 22201 H 2086.58 0.439106 0.498078 0
M  V30 22202 H 2089.11 1.75672 1.04883 0
M  V30 22203 H 2089.12 2.15879 3.46209 0
M  V30 22204 H 2087.79 3.09018 2.78354 0
M  V30 22205 H 2086.37 1.38855 3.46083 0
M  V30 22206 N 2088.56 -1.06056 1.16576 0
M  V30 22207 C 2089.8 -1.78546 0.946876 0
M  V30 22208 C 2090.12 -1.87758 -0.526489 0
M  V30 22209 O 2089.39 -1.38801 -1.38243 0
M  V30 22210 H 2087.97 -0.661335 0.347341 0
M  V30 22211 H 2090.64 -1.28101 1.46888 0
M  V30 22212 H 2089.73 -2.80537 1.36767 0
M  V30 22213 N 2090.03 -0.964615 -1.24631 0
M  V30 22214 C 2091.26 -0.641907 -1.97216 0
M  V30 22215 C 2091.68 0.781279 -1.71107 0
M  V30 22216 O 2091.04 1.52981 -0.972952 0
M  V30 22217 C 2091.09 -0.918908 -3.48695 0
M  V30 22218 O 2090.19 -0.00276058 -4.124 0
M  V30 22219 H 2089.53 -0.243001 -0.617937 0
M  V30 22220 H 2092.06 -1.29393 -1.58489 0
M  V30 22221 H 2092.07 -0.849197 -3.99065 0
M  V30 22222 H 2090.75 -1.95612 -3.67027 0
M  V30 22223 H 2089.33 -0.125529 -3.72689 0
M  V30 22224 N 2091.51 1.39445 -0.734362 0
M  V30 22225 C 2092.74 2.0535 -0.290903 0
M  V30 22226 C 2093.16 1.55004 1.06562 0
M  V30 22227 O 2092.52 0.693509 1.67512 0
M  V30 22228 C 2092.57 3.59337 -0.301562 0
M  V30 22229 O 2091.67 4.06225 0.711013 0
M  V30 22230 H 2091.01 0.650668 -0.132389 0
M  V30 22231 H 2093.54 1.78491 -1.00011 0
M  V30 22232 H 2093.55 4.0774 -0.14573 0
M  V30 22233 H 2092.23 3.95343 -1.2914 0
M  V30 22234 H 2090.8 3.69237 0.521369 0
M  V30 22235 N 2092.99 0.481946 1.5005 0
M  V30 22236 C 2094.4 0.0294639 1.86677 0
M  V30 22237 C 2094.75 -1.37874 1.39589 0
M  V30 22238 O 2093.88 -2.02407 0.765517 0
M  V30 22239 C 2094.47 0.0466921 3.38768 0
M  V30 22240 C 2093.03 -0.350364 3.74766 0
M  V30 22241 C 2092.18 0.427499 2.73985 0
M  V30 22242 H 2095.13 0.69569 1.42639 0
M  V30 22243 H 2095.15 -0.75302 3.72974 0
M  V30 22244 H 2094.66 1.07172 3.73009 0
M  V30 22245 H 2092.76 -1.37934 3.46128 0
M  V30 22246 H 2092.88 -0.0441626 4.7908 0
M  V30 22247 H 2091.24 -0.120219 2.54416 0
M  V30 22248 H 2092.02 1.45225 3.1107 0
M  V30 22249 N 2094.47 -1.56127 0.214985 0
M  V30 22250 C 2095.72 -1.97304 -0.41881 0
M  V30 22251 C 2096.03 -1.10547 -1.61366 0
M  V30 22252 O 2097.24 -1.41593 -2.31654 0
M  V30 22253 C 2095.69 -3.50975 -0.796509 0
M  V30 22254 C 2095.3 -4.46426 0.375156 0
M  V30 22255 C 2097.04 -4.0088 -1.39627 0
M  V30 22256 C 2094.95 -5.91395 -0.0246118 0
M  V30 22257 H 2093.88 -0.736775 -0.160246 0
M  V30 22258 H 2096.53 -1.8086 0.310157 0
M  V30 22259 H 2094.91 -3.62996 -1.58271 0
M  V30 22260 H 2096.09 -4.46149 1.15271 0
M  V30 22261 H 2094.4 -4.06827 0.887721 0
M  V30 22262 H 2097 -5.06681 -1.70816 0
M  V30 22263 H 2097.34 -3.46346 -2.30977 0
M  V30 22264 H 2097.88 -3.92055 -0.673641 0
M  V30 22265 H 2094.61 -6.49897 0.855201 0
M  V30 22266 H 2094.13 -5.94881 -0.766611 0
M  V30 22267 H 2095.81 -6.45408 -0.453573 0
M  V30 22268 N 2095.95 0.0584645 -1.57492 0
M  V30 22269 C 2096.88 1.0681 -2.07639 0
M  V30 22270 C 2097.86 1.3955 -0.972622 0
M  V30 22271 O 2099.04 1.48946 -1.24615 0
M  V30 22272 C 2096.17 2.37774 -2.53142 0
M  V30 22273 C 2095.13 2.19354 -3.67516 0
M  V30 22274 C 2094.45 3.5582 -3.9912 0
M  V30 22275 C 2095.75 1.60379 -4.97067 0
M  V30 22276 H 2097.45 0.650765 -2.92242 0
M  V30 22277 H 2094.99 0.311587 -1.40589 0
M  V30 22278 H 2096.94 3.08709 -2.86839 0
M  V30 22279 H 2095.67 2.81513 -1.65583 0
M  V30 22280 H 2094.33 1.50858 -3.34122 0
M  V30 22281 H 2093.98 3.97153 -3.08672 0
M  V30 22282 H 2093.68 3.4433 -4.76142 0
M  V30 22283 H 2095.2 4.28164 -4.35325 0
M  V30 22284 H 2096.61 2.21195 -5.2891 0
M  V30 22285 H 2095.01 1.59548 -5.78502 0
M  V30 22286 H 2096.08 0.566547 -4.81579 0
M  V30 22287 N 2097.42 1.54103 0.330149 0
M  V30 22288 C 2098.65 1.76264 1.09297 0
M  V30 22289 C 2099.07 0.5067 1.81147 0
M  V30 22290 O 2098.43 -0.541409 1.73027 0
M  V30 22291 C 2098.48 2.95141 2.07181 0
M  V30 22292 O 2097.58 2.66226 3.14956 0
M  V30 22293 H 2096.92 0.584284 0.31545 0
M  V30 22294 H 2099.45 2.01107 0.376453 0
M  V30 22295 H 2099.46 3.22305 2.50167 0
M  V30 22296 H 2098.14 3.86224 1.54285 0
M  V30 22297 H 2096.72 2.49992 2.76692 0
M  V30 22298 N 2098.9 -0.59187 1.46064 0
M  V30 22299 C 2100.15 -1.34657 1.50168 0
M  V30 22300 C 2100.46 -1.94993 0.153981 0
M  V30 22301 O 2101.67 -2.71402 0.0727633 0
M  V30 22302 C 2100.13 -2.44 2.6456 0
M  V30 22303 C 2099.73 -1.90007 4.05711 0
M  V30 22304 C 2101.48 -3.2087 2.77926 0
M  V30 22305 C 2099.39 -2.96925 5.11458 0
M  V30 22306 H 2098.32 -0.506178 0.558838 0
M  V30 22307 H 2100.97 -0.632651 1.72249 0
M  V30 22308 H 2099.35 -3.18149 2.35791 0
M  V30 22309 H 2100.52 -1.22462 4.44229 0
M  V30 22310 H 2098.84 -1.25833 3.96932 0
M  V30 22311 H 2101.43 -4.00647 3.54099 0
M  V30 22312 H 2101.78 -3.72878 1.85115 0
M  V30 22313 H 2102.31 -2.53825 3.06296 0
M  V30 22314 H 2099.05 -2.49815 6.0603 0
M  V30 22315 H 2098.57 -3.62987 4.77494 0
M  V30 22316 H 2100.25 -3.61036 5.369 0
M  V30 22317 N 2100.38 -1.33616 -0.835729 0
M  V30 22318 C 2101.61 -1.28297 -1.62319 0
M  V30 22319 C 2102.02 0.145496 -1.88239 0
M  V30 22320 O 2101.38 1.08862 -1.46476 0
M  V30 22321 C 2101.43 -2.05863 -2.97158 0
M  V30 22322 O 2101.15 -3.43137 -2.72375 0
M  V30 22323 C 2102.65 -2.07791 -3.91584 0
M  V30 22324 H 2099.87 -0.441872 -0.504966 0
M  V30 22325 H 2102.42 -1.76036 -1.04075 0
M  V30 22326 H 2100.57 -1.61799 -3.51994 0
M  V30 22327 H 2100.99 -3.83078 -3.58262 0
M  V30 22328 H 2102.46 -2.66511 -4.834 0
M  V30 22329 H 2102.94 -1.06897 -4.25993 0
M  V30 22330 H 2103.54 -2.51888 -3.42684 0
M  V30 22331 N 2101.86 1.05436 -1.17136 0
M  V30 22332 C 2103.11 1.77784 -0.952661 0
M  V30 22333 C 2103.42 1.88561 0.519999 0
M  V30 22334 O 2104.63 2.57625 0.856841 0
M  V30 22335 C 2103.08 3.19575 -1.65529 0
M  V30 22336 C 2102.69 3.16936 -3.16631 0
M  V30 22337 C 2104.43 3.96397 -1.51888 0
M  V30 22338 C 2102.34 4.535 -3.79594 0
M  V30 22339 H 2101.27 0.66637 -0.352799 0
M  V30 22340 H 2103.92 1.18197 -1.40363 0
M  V30 22341 H 2102.3 3.79474 -1.13205 0
M  V30 22342 H 2103.48 2.6657 -3.75869 0
M  V30 22343 H 2101.79 2.53614 -3.30256 0
M  V30 22344 H 2104.39 4.97363 -1.96302 0
M  V30 22345 H 2104.73 4.13649 -0.469072 0
M  V30 22346 H 2105.27 3.4304 -2.01416 0
M  V30 22347 H 2102.01 4.41453 -4.84561 0
M  V30 22348 H 2101.53 5.04026 -3.25143 0
M  V30 22349 H 2103.2 5.22444 -3.81656 0
M  V30 22350 N 2103.34 0.971211 1.24118 0
M  V30 22351 C 2104.56 0.652357 1.96873 0
M  V30 22352 C 2104.99 -0.772193 1.71519 0
M  V30 22353 O 2104.34 -1.52463 0.981051 0
M  V30 22354 C 2104.39 0.937388 3.48203 0
M  V30 22355 O 2103.5 0.0246311 4.12393 0
M  V30 22356 H 2102.84 0.246274 0.61664 0
M  V30 22357 H 2105.37 1.30231 1.578 0
M  V30 22358 H 2105.38 0.870349 3.98609 0
M  V30 22359 H 2104.05 1.97556 3.65984 0
M  V30 22360 H 2102.63 0.145292 3.72617 0
M  V30 22361 N 2104.81 -1.39054 0.741747 0
M  V30 22362 C 2105.72 -2.34352 0.107946 0
M  V30 22363 C 2106.74 -1.58666 -0.71422 0
M  V30 22364 O 2107.92 -1.90923 -0.641124 0
M  V30 22365 C 2104.98 -3.3773 -0.783547 0
M  V30 22366 C 2104.04 -4.29269 0.0516392 0
M  V30 22367 C 2103.28 -5.27709 -0.797398 0
M  V30 22368 O 2103.5 -5.3283 -2.03588 0
M  V30 22369 O 2102.43 -6.01489 -0.222478 0
M  V30 22370 H 2106.26 -2.90223 0.894677 0
M  V30 22371 H 2103.84 -1.40696 0.502494 0
M  V30 22372 H 2105.73 -4.01059 -1.29342 0
M  V30 22373 H 2104.4 -2.84233 -1.54898 0
M  V30 22374 H 2103.31 -3.6914 0.607193 0
M  V30 22375 H 2104.64 -4.85989 0.779446 0
M  V30 22376 N 2106.29 -0.489897 -1.49792 0
M  V30 22377 C 2107.57 0.121028 -1.95225 0
M  V30 22378 C 2107.95 1.55194 -1.43101 0
M  V30 22379 O 2107.3 2.19354 -0.639992 0
M  V30 22380 C 2107.51 0.045071 -3.48971 0
M  V30 22381 C 2108.86 0.224571 -4.24006 0
M  V30 22382 O 2109.88 0.120781 -3.55995 0
M  V30 22383 O 2108.74 0.436269 -5.44756 0
M  V30 22384 H 2105.83 0.101395 -0.820761 0
M  V30 22385 H 2108.38 -0.551643 -1.60484 0
M  V30 22386 H 2107.15 -0.953242 -3.79512 0
M  V30 22387 H 2106.77 0.758377 -3.903 0
M  V30 22388 N 2107.77 1.56011 -0.223262 0
M  V30 22389 C 2109.02 1.97956 0.407171 0
M  V30 22390 C 2109.34 1.11219 1.60173 0
M  V30 22391 O 2108.61 0.189604 1.9498 0
M  V30 22392 H 2107.19 0.731075 0.153424 0
M  V30 22393 H 2109.85 1.92312 -0.316554 0
M  V30 22394 H 2108.95 3.03386 0.732342 0
M  V30 22395 N 2109.25 -0.0501116 1.5752 0
M  V30 22396 C 2110.47 -0.761197 1.92926 0
M  V30 22397 C 2110.9 -1.69211 0.821546 0
M  V30 22398 O 2110.26 -1.79908 -0.224247 0
M  V30 22399 C 2110.3 -1.51241 3.27351 0
M  V30 22400 O 2109.41 -2.62445 3.18114 0
M  V30 22401 H 2108.75 -0.206224 0.631164 0
M  V30 22402 H 2111.28 -0.0118709 2.04597 0
M  V30 22403 H 2111.29 -1.88696 3.61743 0
M  V30 22404 H 2109.96 -0.829535 4.07543 0
M  V30 22405 H 2108.54 -2.27688 2.95318 0
M  V30 22406 N 2110.73 -1.54276 -0.321972 0
M  V30 22407 C 2111.66 -1.7862 -1.42021 0
M  V30 22408 C 2112.64 -0.636264 -1.49634 0
M  V30 22409 O 2113.82 -0.873881 -1.6702 0
M  V30 22410 C 2110.95 -1.90419 -2.80104 0
M  V30 22411 C 2109.99 -3.1272 -2.90015 0
M  V30 22412 S 2110.83 -4.71288 -2.5426 0
M  V30 22413 C 2111.98 -4.85995 -3.94411 0
M  V30 22414 H 2112.22 -2.71492 -1.21158 0
M  V30 22415 H 2109.75 -1.45419 -0.518899 0
M  V30 22416 H 2111.71 -1.97902 -3.59646 0
M  V30 22417 H 2110.37 -0.985223 -2.98249 0
M  V30 22418 H 2109.56 -3.17715 -3.91246 0
M  V30 22419 H 2109.16 -3.03574 -2.18446 0
M  V30 22420 H 2111.46 -4.6873 -4.89182 0
M  V30 22421 H 2112.4 -5.88095 -3.94398 0
M  V30 22422 H 2112.81 -4.14288 -3.83439 0
M  V30 22423 N 2112.2 0.584116 -1.46376 0
M  V30 22424 C 2113.43 1.37331 -1.55419 0
M  V30 22425 C 2113.85 1.87082 -0.195472 0
M  V30 22426 O 2113.21 1.61486 0.824141 0
M  V30 22427 C 2113.26 2.53779 -2.56181 0
M  V30 22428 O 2112.36 3.55172 -2.09586 0
M  V30 22429 H 2111.71 0.409042 -0.523049 0
M  V30 22430 H 2114.24 0.708655 -1.91936 0
M  V30 22431 H 2114.25 3.00715 -2.75744 0
M  V30 22432 H 2112.92 2.16921 -3.5485 0
M  V30 22433 H 2111.5 3.14726 -2.00005 0
M  V30 22434 N 2113.68 1.34058 0.828631 0
M  V30 22435 C 2114.93 1.25437 1.57951 0
M  V30 22436 C 2115.25 -0.175484 1.94811 0
M  V30 22437 O 2116.45 -0.383797 2.68774 0
M  V30 22438 C 2114.91 2.19853 2.84943 0
M  V30 22439 C 2114.52 3.68064 2.55407 0
M  V30 22440 C 2116.26 2.20128 3.62966 0
M  V30 22441 C 2114.17 4.54366 3.78557 0
M  V30 22442 H 2113.1 0.465952 0.592794 0
M  V30 22443 H 2115.75 1.59187 0.912783 0
M  V30 22444 H 2114.13 1.79047 3.53211 0
M  V30 22445 H 2115.3 4.17373 1.95286 0
M  V30 22446 H 2113.62 3.70181 1.9067 0
M  V30 22447 H 2116.22 2.81831 4.54396 0
M  V30 22448 H 2116.56 1.19905 3.98658 0
M  V30 22449 H 2117.09 2.59349 3.01634 0
M  V30 22450 H 2113.83 5.55503 3.47989 0
M  V30 22451 H 2113.35 4.09795 4.37982 0
M  V30 22452 H 2115.03 4.68687 4.46029 0
M  V30 22453 N 2115.16 -1.04814 1.17694 0
M  V30 22454 C 2116.11 -2.12651 0.897118 0
M  V30 22455 C 2117.08 -1.65323 -0.160501 0
M  V30 22456 O 2118.26 -1.90787 -0.0224765 0
M  V30 22457 C 2115.4 -3.42526 0.420731 0
M  V30 22458 C 2114.52 -4.03508 1.54291 0
M  V30 22459 C 2113.65 -5.21315 1.02001 0
M  V30 22460 C 2112.69 -5.74311 2.11738 0
M  V30 22461 N 2111.83 -6.83415 1.60897 0
M  V30 22462 H 2116.67 -2.35925 1.82054 0
M  V30 22463 H 2114.2 -1.15736 0.907948 0
M  V30 22464 H 2116.16 -4.1701 0.126057 0
M  V30 22465 H 2114.79 -3.19423 -0.46572 0
M  V30 22466 H 2113.84 -3.26425 1.95323 0
M  V30 22467 H 2115.16 -4.38876 2.37042 0
M  V30 22468 H 2114.31 -6.02884 0.679408 0
M  V30 22469 H 2113.05 -4.87431 0.161982 0
M  V30 22470 H 2112.05 -4.91369 2.46651 0
M  V30 22471 H 2113.28 -6.10242 2.97963 0
M  V30 22472 H 2111.23 -6.51421 0.773715 0
M  V30 22473 H 2111.14 -7.17807 2.37252 0
M  V30 22474 H 2112.41 -7.68627 1.29741 0
M  V30 22475 N 2116.64 -0.977779 -1.23601 0
M  V30 22476 C 2117.59 -0.508228 -2.2698 0
M  V30 22477 C 2118.58 0.433405 -1.63762 0
M  V30 22478 O 2119.79 0.307586 -1.77352 0
M  V30 22479 H 2116.16 -0.145916 -0.737708 0
M  V30 22480 H 2118.13 -1.39189 -2.63949 0
M  V30 22481 C 2116.88 0.176292 -3.47253 0
M  V30 22482 H 2116.21 -0.539185 -3.96147 0
M  V30 22483 H 2117.65 0.468511 -4.21404 0
M  V30 22484 C 2116.1 1.40665 -3.06129 0
M  V30 22485 O 2116.63 2.50307 -3.1418 0
M  V30 22486 N 2114.84 1.27636 -2.6107 0
M  V30 22487 H 2114.39 0.38425 -2.54718 0
M  V30 22488 H 2114.35 2.10067 -2.33921 0
M  V30 22489 N 2118.12 1.38658 -0.749111 0
M  V30 22490 C 2119.03 2.34291 -0.120373 0
M  V30 22491 C 2120.04 1.59043 0.705796 0
M  V30 22492 O 2121.22 1.9126 0.63099 0
M  V30 22493 C 2118.28 3.38141 0.765626 0
M  V30 22494 C 2117.35 4.29236 -0.0744037 0
M  V30 22495 C 2116.58 5.28125 0.769401 0
M  V30 22496 O 2116.8 5.33902 2.0076 0
M  V30 22497 O 2115.74 6.01598 0.190576 0
M  V30 22498 H 2119.56 2.89744 -0.910056 0
M  V30 22499 H 2117.15 1.40428 -0.509948 0
M  V30 22500 H 2119.03 4.0174 1.27214 0
M  V30 22501 H 2117.7 2.8505 1.53388 0
M  V30 22502 H 2116.61 3.68812 -0.626761 0
M  V30 22503 H 2117.94 4.85569 -0.805208 0
M  V30 22504 N 2119.6 0.497834 1.49531 0
M  V30 22505 C 2120.51 -0.286926 2.32839 0
M  V30 22506 C 2121.52 -0.970397 1.44427 0
M  V30 22507 O 2122.7 -0.952478 1.77454 0
M  V30 22508 C 2119.76 -1.33928 3.19788 0
M  V30 22509 C 2118.82 -0.669588 4.24046 0
M  V30 22510 C 2118.06 -1.67181 5.0684 0
M  V30 22511 O 2118.28 -2.90132 4.91101 0
M  V30 22512 O 2117.21 -1.22887 5.89222 0
M  V30 22513 H 2121.04 0.394869 3.01122 0
M  V30 22514 H 2118.62 0.259218 1.47134 0
M  V30 22515 H 2120.51 -1.94822 3.73661 0
M  V30 22516 H 2119.18 -2.00407 2.54202 0
M  V30 22517 H 2118.09 -0.0209922 3.74094 0
M  V30 22518 H 2119.42 -0.0473067 4.92177 0
M  V30 22519 N 2121.07 -1.5589 0.231532 0
M  V30 22520 C 2121.98 -2.24359 -0.685566 0
M  V30 22521 C 2123 -1.25454 -1.20571 0
M  V30 22522 O 2124.18 -1.58292 -1.24522 0
M  V30 22523 C 2121.24 -2.91783 -1.87252 0
M  V30 22524 C 2120.3 -4.06059 -1.39337 0
M  V30 22525 C 2119.53 -4.70258 -2.52375 0
M  V30 22526 O 2119.76 -4.33477 -3.70747 0
M  V30 22527 O 2118.69 -5.59063 -2.23008 0
M  V30 22528 H 2122.52 -3.03412 -0.132235 0
M  V30 22529 H 2120.1 -1.494 0.000664697 0
M  V30 22530 H 2121.98 -3.34305 -2.56551 0
M  V30 22531 H 2120.66 -2.15683 -2.41377 0
M  V30 22532 H 2119.57 -3.68086 -0.668112 0
M  V30 22533 H 2120.9 -4.83932 -0.898393 0
M  V30 22534 N 2122.55 0.0417572 -1.57545 0
M  V30 22535 C 2123.46 1.06351 -2.09109 0
M  V30 22536 C 2124.48 1.40464 -1.02694 0
M  V30 22537 O 2125.65 1.50038 -1.34352 0
M  V30 22538 C 2122.72 2.34925 -2.54973 0
M  V30 22539 C 2121.78 2.0751 -3.75816 0
M  V30 22540 C 2121.01 3.29954 -4.19483 0
M  V30 22541 O 2121.24 4.40174 -3.62772 0
M  V30 22542 O 2120.17 3.16399 -5.12031 0
M  V30 22543 H 2124 0.655348 -2.96545 0
M  V30 22544 H 2121.58 0.257909 -1.47157 0
M  V30 22545 H 2123.46 3.10537 -2.84859 0
M  V30 22546 H 2122.14 2.75062 -1.70653 0
M  V30 22547 H 2121.04 1.29507 -3.50968 0
M  V30 22548 H 2122.38 1.72237 -4.61081 0
M  V30 22549 N 2124.03 1.54445 0.313786 0
M  V30 22550 C 2124.96 1.80863 1.40787 0
M  V30 22551 C 2125.97 0.691004 1.47408 0
M  V30 22552 O 2127.16 0.968278 1.49955 0
M  V30 22553 C 2124.26 1.92015 2.79255 0
M  V30 22554 C 2123.44 3.22285 2.95722 0
M  V30 22555 C 2122.5 3.24014 4.1461 0
M  V30 22556 O 2121.52 3.97608 4.07304 0
M  V30 22557 N 2122.72 2.48493 5.24625 0
M  V30 22558 H 2125.49 2.75284 1.18485 0
M  V30 22559 H 2123.05 1.53861 0.503813 0
M  V30 22560 H 2125.04 1.90589 3.57013 0
M  V30 22561 H 2123.61 1.04647 2.94564 0
M  V30 22562 H 2122.83 3.36591 2.05183 0
M  V30 22563 H 2124.12 4.08276 3.03625 0
M  V30 22564 H 2123.52 1.88309 5.33438 0
M  V30 22565 H 2122.07 2.52834 6.00765 0
M  V30 22566 N 2125.51 -0.576345 1.46683 0
M  V30 22567 C 2126.74 -1.3602 1.55905 0
M  V30 22568 C 2127.15 -1.87712 0.202401 0
M  V30 22569 O 2126.51 -1.63966 -0.801346 0
M  V30 22570 C 2126.56 -2.54335 2.56897 0
M  V30 22571 O 2126.28 -2.04783 3.87293 0
M  V30 22572 C 2127.78 -3.46804 2.7612 0
M  V30 22573 H 2125 -0.415305 0.527032 0
M  V30 22574 H 2127.54 -0.700047 1.92145 0
M  V30 22575 H 2125.7 -3.16326 2.23644 0
M  V30 22576 H 2126.11 -2.81882 4.42315 0
M  V30 22577 H 2127.59 -4.26286 3.50691 0
M  V30 22578 H 2128.06 -3.99143 1.83253 0
M  V30 22579 H 2128.67 -2.90643 3.10495 0
M  V30 22580 N 2126.99 -1.34495 -0.82151 0
M  V30 22581 C 2127.92 -1.28835 -1.94741 0
M  V30 22582 C 2128.9 -0.165528 -1.69293 0
M  V30 22583 O 2130.08 -0.358115 -1.9087 0
M  V30 22584 C 2127.21 -1.04446 -3.31222 0
M  V30 22585 C 2126.17 -2.13209 -3.71114 0
M  V30 22586 C 2125.49 -1.74007 -5.05594 0
M  V30 22587 C 2126.79 -3.55051 -3.83062 0
M  V30 22588 H 2128.49 -2.23039 -1.99734 0
M  V30 22589 H 2126.03 -1.07369 -0.959573 0
M  V30 22590 H 2127.98 -0.991306 -4.09574 0
M  V30 22591 H 2126.71 -0.0668391 -3.26532 0
M  V30 22592 H 2125.37 -2.17597 -2.95038 0
M  V30 22593 H 2125.02 -0.749021 -4.97392 0
M  V30 22594 H 2124.72 -2.46803 -5.33256 0
M  V30 22595 H 2126.24 -1.7019 -5.86402 0
M  V30 22596 H 2127.65 -3.53068 -4.51681 0
M  V30 22597 H 2126.05 -4.2648 -4.22179 0
M  V30 22598 H 2127.12 -3.92289 -2.85021 0
M  V30 22599 N 2128.46 1.04188 -1.18248 0
M  V30 22600 C 2129.69 1.81021 -1.00194 0
M  V30 22601 C 2130.11 1.83367 0.449658 0
M  V30 22602 O 2129.46 1.26824 1.31232 0
M  V30 22603 C 2129.52 3.26678 -1.54802 0
M  V30 22604 O 2129.24 3.24548 -2.94279 0
M  V30 22605 C 2130.74 4.20161 -1.41349 0
M  V30 22606 H 2127.96 0.570098 -0.353877 0
M  V30 22607 H 2130.5 1.31316 -1.56769 0
M  V30 22608 H 2128.66 3.7362 -1.02407 0
M  V30 22609 H 2129.07 4.15787 -3.19721 0
M  V30 22610 H 2130.54 5.20304 -1.84357 0
M  V30 22611 H 2131.02 4.37705 -0.362029 0
M  V30 22612 H 2131.63 3.79083 -1.92811 0
M  V30 22613 N 2129.94 0.98432 1.23081 0
M  V30 22614 C 2131.19 0.650883 1.90909 0
M  V30 22615 C 2131.5 -0.819701 1.77596 0
M  V30 22616 O 2132.71 -1.26436 2.40263 0
M  V30 22617 C 2131.17 1.11359 3.42239 0
M  V30 22618 C 2130.77 2.60879 3.64206 0
M  V30 22619 C 2132.52 0.854079 4.15819 0
M  V30 22620 C 2130.43 3.00797 5.09191 0
M  V30 22621 H 2129.36 0.239743 0.71487 0
M  V30 22622 H 2132.01 1.19274 1.39449 0
M  V30 22623 H 2130.39 0.499916 3.92832 0
M  V30 22624 H 2131.56 3.27519 3.24142 0
M  V30 22625 H 2129.88 2.84619 3.03942 0
M  V30 22626 H 2132.47 1.12812 5.22664 0
M  V30 22627 H 2132.82 -0.209813 4.15771 0
M  V30 22628 H 2133.35 1.42952 3.71227 0
M  V30 22629 H 2130.09 4.06326 5.14373 0
M  V30 22630 H 2129.61 2.38854 5.5019 0
M  V30 22631 H 2131.29 2.9162 5.77552 0
M  V30 22632 N 2131.42 -1.38259 0.756453 0
M  V30 22633 C 2132.35 -2.33042 0.146158 0
M  V30 22634 C 2133.33 -1.55012 -0.700373 0
M  V30 22635 O 2134.52 -1.83317 -0.640972 0
M  V30 22636 C 2131.65 -3.39202 -0.745585 0
M  V30 22637 C 2130.6 -4.28 -0.00155995 0
M  V30 22638 C 2129.93 -5.25041 -1.01174 0
M  V30 22639 C 2131.23 -5.09061 1.16852 0
M  V30 22640 H 2132.92 -2.84329 0.937934 0
M  V30 22641 H 2130.47 -1.36706 0.452478 0
M  V30 22642 H 2132.42 -4.04477 -1.18223 0
M  V30 22643 H 2131.14 -2.86405 -1.56971 0
M  V30 22644 H 2129.8 -3.64236 0.415692 0
M  V30 22645 H 2129.45 -4.68529 -1.83001 0
M  V30 22646 H 2129.15 -5.85307 -0.518554 0
M  V30 22647 H 2130.67 -5.93191 -1.44764 0
M  V30 22648 H 2132.09 -5.67559 0.809284 0
M  V30 22649 H 2130.49 -5.78577 1.59276 0
M  V30 22650 H 2131.56 -4.42631 1.98004 0
M  V30 22651 N 2132.9 -0.505757 -1.49264 0
M  V30 22652 C 2134.15 0.0389421 -2.01662 0
M  V30 22653 C 2134.46 1.37604 -1.39012 0
M  V30 22654 O 2135.67 2.00771 -1.82766 0
M  V30 22655 C 2134.12 0.119854 -3.597 0
M  V30 22656 C 2133.73 -1.21089 -4.31325 0
M  V30 22657 C 2135.47 0.614665 -4.20026 0
M  V30 22658 C 2133.38 -1.09188 -5.81233 0
M  V30 22659 H 2132.31 0.0183265 -0.753777 0
M  V30 22660 H 2134.96 -0.645894 -1.71757 0
M  V30 22661 H 2133.34 0.869244 -3.86342 0
M  V30 22662 H 2134.52 -1.97394 -4.1638 0
M  V30 22663 H 2132.83 -1.63951 -3.82765 0
M  V30 22664 H 2135.43 0.721287 -5.29813 0
M  V30 22665 H 2135.77 1.61466 -3.83711 0
M  V30 22666 H 2136.31 -0.0783291 -3.97723 0
M  V30 22667 H 2133.05 -2.06629 -6.22081 0
M  V30 22668 H 2132.57 -0.369793 -5.98659 0
M  V30 22669 H 2134.24 -0.772559 -6.42371 0
M  V30 22670 N 2134.38 1.55765 -0.239796 0
M  V30 22671 C 2135.79 1.59184 0.115214 0
M  V30 22672 C 2135.99 1.25688 1.57496 0
M  V30 22673 O 2135.05 1.0008 2.31819 0
M  V30 22674 C 2136.36 2.99838 -0.227557 0
M  V30 22675 C 2137.91 3.12531 -0.171276 0
M  V30 22676 C 2138.38 4.55393 -0.487979 0
M  V30 22677 N 2139.88 4.61122 -0.438217 0
M  V30 22678 C 2140.61 5.69629 -0.656523 0
M  V30 22679 N 2140.11 6.86426 -0.937578 0
M  V30 22680 N 2141.9 5.59019 -0.587713 0
M  V30 22681 H 2134.05 1.7581 -1.19184 0
M  V30 22682 H 2136.31 0.818062 -0.47904 0
M  V30 22683 H 2136.02 3.29062 -1.24141 0
M  V30 22684 H 2135.89 3.74521 0.448752 0
M  V30 22685 H 2138.28 2.83092 0.83324 0
M  V30 22686 H 2138.36 2.40138 -0.881332 0
M  V30 22687 H 2138.01 4.85552 -1.49002 0
M  V30 22688 H 2137.94 5.26037 0.243475 0
M  V30 22689 H 2140.43 3.77203 -0.229426 0
M  V30 22690 H 2140.74 7.65049 -1.09177 0
M  V30 22691 H 2139.08 6.88127 -0.974973 0
M  V30 22692 H 2142.28 4.66649 -0.368239 0
M  V30 22693 H 2142.45 6.43513 -0.761246 0
M  V30 22694 N 2135.85 -0.0334016 1.57565 0
M  V30 22695 C 2137.08 -0.736973 1.9333 0
M  V30 22696 C 2137.5 -1.69124 0.83919 0
M  V30 22697 O 2136.85 -1.81563 -0.184737 0
M  V30 22698 C 2136.91 -1.49777 3.29012 0
M  V30 22699 O 2136.63 -0.581806 4.3422 0
M  V30 22700 C 2138.13 -2.29889 3.79033 0
M  V30 22701 H 2135.35 -0.207374 0.638151 0
M  V30 22702 H 2137.89 0.0077802 2.04499 0
M  V30 22703 H 2136.05 -2.19444 3.19254 0
M  V30 22704 H 2136.46 -1.11488 5.12514 0
M  V30 22705 H 2137.93 -2.78671 4.76494 0
M  V30 22706 H 2138.41 -3.11119 3.10003 0
M  V30 22707 H 2139.02 -1.65304 3.9186 0
M  V30 22708 N 2137.33 -1.54609 -0.305591 0
M  V30 22709 C 2138.58 -1.73328 -1.03931 0
M  V30 22710 C 2138.9 -0.519482 -1.87953 0
M  V30 22711 O 2138.17 0.466312 -1.90269 0
M  V30 22712 H 2136.75 -0.639113 -0.386708 0
M  V30 22713 H 2139.41 -1.91952 -0.337684 0
M  V30 22714 H 2138.51 -2.62058 -1.69505 0
M  V30 22715 N 2138.81 0.568558 -1.46987 0
M  V30 22716 C 2139.74 1.68651 -1.61491 0
M  V30 22717 C 2140.72 1.63629 -0.464706 0
M  V30 22718 O 2141.91 1.81427 -0.692676 0
M  V30 22719 C 2139.04 3.07294 -1.61826 0
M  V30 22720 C 2137.99 3.27156 -2.75959 0
M  V30 22721 C 2137.32 4.6647 -2.61361 0
M  V30 22722 C 2138.62 3.13623 -4.17658 0
M  V30 22723 H 2140.31 1.56769 -2.55076 0
M  V30 22724 H 2137.86 0.752771 -1.22757 0
M  V30 22725 H 2139.81 3.85338 -1.70565 0
M  V30 22726 H 2138.53 3.20108 -0.647937 0
M  V30 22727 H 2137.19 2.51516 -2.66712 0
M  V30 22728 H 2136.84 4.76069 -1.62381 0
M  V30 22729 H 2136.54 4.8071 -3.37923 0
M  V30 22730 H 2138.06 5.46664 -2.72012 0
M  V30 22731 H 2139.48 3.81497 -4.27941 0
M  V30 22732 H 2137.88 3.39378 -4.94917 0
M  V30 22733 H 2138.95 2.10514 -4.3682 0
M  V30 22734 N 2140.29 1.34929 0.814366 0
M  V30 22735 C 2141.22 1.29866 1.94055 0
M  V30 22736 C 2142.2 0.174504 1.69203 0
M  V30 22737 O 2143.38 0.368232 1.90677 0
M  V30 22738 C 2140.51 1.06201 3.30664 0
M  V30 22739 C 2139.47 2.15174 3.69978 0
M  V30 22740 C 2138.79 1.76686 5.04664 0
M  V30 22741 C 2140.09 3.57077 3.81174 0
M  V30 22742 H 2141.79 2.24095 1.98549 0
M  V30 22743 H 2139.33 1.07877 0.953865 0
M  V30 22744 H 2141.29 1.01301 4.09043 0
M  V30 22745 H 2140.01 0.0841549 3.26492 0
M  V30 22746 H 2138.67 2.19158 2.9388 0
M  V30 22747 H 2138.32 0.775388 4.96988 0
M  V30 22748 H 2138.02 2.49628 5.3194 0
M  V30 22749 H 2139.54 1.73297 5.85492 0
M  V30 22750 H 2140.96 3.55458 4.49803 0
M  V30 22751 H 2139.35 4.28713 4.19911 0
M  V30 22752 H 2140.42 3.93795 2.82937 0
M  V30 22753 N 2141.77 -1.0356 1.18799 0
M  V30 22754 C 2143.01 -1.77109 0.987945 0
M  V30 22755 C 2143.35 -1.88154 -0.480786 0
M  V30 22756 O 2142.62 -1.39339 -1.35702 0
M  V30 22757 C 2142.9 -3.20098 1.64952 0
M  V30 22758 C 2142.76 -3.16964 3.19145 0
M  V30 22759 C 2144.08 -4.18333 1.36696 0
M  V30 22760 H 2141.19 -0.642915 0.360318 0
M  V30 22761 H 2143.84 -1.20938 1.4654 0
M  V30 22762 H 2141.99 -3.6806 1.24356 0
M  V30 22763 H 2143.66 -2.76953 3.6891 0
M  V30 22764 H 2141.9 -2.54859 3.5104 0
M  V30 22765 H 2142.57 -4.17958 3.60576 0
M  V30 22766 H 2145.05 -3.78941 1.7188 0
M  V30 22767 H 2143.92 -5.16589 1.85546 0
M  V30 22768 H 2144.19 -4.41143 0.290807 0
M  V30 22769 N 2143.25 -0.990834 -1.22557 0
M  V30 22770 C 2144.49 -0.660998 -1.90562 0
M  V30 22771 C 2144.81 0.810271 -1.78028 0
M  V30 22772 O 2146.01 1.2516 -2.4093 0
M  V30 22773 C 2144.47 -1.13172 -3.41643 0
M  V30 22774 C 2144.08 -2.62807 -3.62817 0
M  V30 22775 C 2145.82 -0.876119 -4.15361 0
M  V30 22776 C 2143.73 -3.03493 -5.07588 0
M  V30 22777 H 2142.66 -0.243531 -0.713589 0
M  V30 22778 H 2145.31 -1.20012 -1.38814 0
M  V30 22779 H 2143.69 -0.520742 -3.92561 0
M  V30 22780 H 2144.87 -3.29233 -3.22401 0
M  V30 22781 H 2143.18 -2.86227 -3.02428 0
M  V30 22782 H 2145.78 -1.15582 -5.22058 0
M  V30 22783 H 2146.12 0.187761 -4.15876 0
M  V30 22784 H 2146.65 -1.44919 -3.70464 0
M  V30 22785 H 2143.39 -4.09048 -5.12211 0
M  V30 22786 H 2142.91 -2.41769 -5.48915 0
M  V30 22787 H 2144.59 -2.94679 -5.75998 0
M  V30 22788 N 2144.72 1.37856 -0.763775 0
M  V30 22789 C 2145.95 2.04686 -0.334395 0
M  V30 22790 C 2146.37 1.57229 1.0325 0
M  V30 22791 O 2145.73 0.728884 1.66003 0
M  V30 22792 C 2145.78 3.58616 -0.377715 0
M  V30 22793 O 2144.88 4.07641 0.624687 0
M  V30 22794 H 2144.22 0.647714 -0.146161 0
M  V30 22795 H 2146.75 1.76329 -1.03774 0
M  V30 22796 H 2146.76 4.07339 -0.232185 0
M  V30 22797 H 2145.44 3.92514 -1.37496 0
M  V30 22798 H 2144.02 3.7026 0.442931 0
M  V30 22799 N 2146.2 0.513665 1.48994 0
M  V30 22800 C 2147.45 -0.0262821 2.02083 0
M  V30 22801 C 2147.77 -1.36306 1.39448 0
M  V30 22802 O 2147.04 -1.87899 0.554154 0
M  V30 22803 H 2145.62 -0.012702 0.746892 0
M  V30 22804 H 2148.28 0.673788 1.82883 0
M  V30 22805 H 2147.38 -0.146648 3.11755 0
M  V30 22806 N 2147.68 -1.55636 0.248053 0
M  V30 22807 C 2148.61 -2.2441 -0.645175 0
M  V30 22808 C 2149.59 -1.22477 -1.18039 0
M  V30 22809 O 2150.78 -1.51133 -1.21953 0
M  V30 22810 C 2147.91 -2.94446 -1.84171 0
M  V30 22811 C 2146.86 -4.03076 -1.43922 0
M  V30 22812 C 2146.19 -4.60544 -2.71668 0
M  V30 22813 C 2147.49 -5.18732 -0.609431 0
M  V30 22814 H 2149.18 -2.99314 -0.0716951 0
M  V30 22815 H 2146.73 -1.43962 -0.033043 0
M  V30 22816 H 2148.68 -3.41259 -2.47225 0
M  V30 22817 H 2147.4 -2.17031 -2.44059 0
M  V30 22818 H 2146.06 -3.57034 -0.832012 0
M  V30 22819 H 2145.71 -3.79829 -3.29756 0
M  V30 22820 H 2145.41 -5.33876 -2.4546 0
M  V30 22821 H 2146.93 -5.10091 -3.35618 0
M  V30 22822 H 2148.35 -5.61764 -1.1443 0
M  V30 22823 H 2146.74 -5.9846 -0.443361 0
M  V30 22824 H 2147.81 -4.83424 0.378087 0
M  V30 22825 N 2149.16 0.0250451 -1.5758 0
M  V30 22826 C 2150.4 0.715046 -1.89455 0
M  V30 22827 C 2150.73 1.75145 -0.84584 0
M  V30 22828 O 2149.99 1.95104 0.152678 0
M  V30 22829 C 2150.29 1.41772 -3.28079 0
M  V30 22830 C 2149.95 0.51691 -4.47927 0
M  V30 22831 C 2148.61 0.268813 -4.80449 0
M  V30 22832 C 2150.97 -0.104795 -5.21095 0
M  V30 22833 C 2148.29 -0.609698 -5.83523 0
M  V30 22834 C 2150.65 -0.971032 -6.25103 0
M  V30 22835 C 2149.31 -1.22855 -6.56097 0
M  V30 22836 H 2148.58 0.261654 -0.693266 0
M  V30 22837 H 2151.23 -0.0251007 -1.91484 0
M  V30 22838 H 2149.53 2.23128 -3.22057 0
M  V30 22839 H 2151.23 1.95721 -3.49992 0
M  V30 22840 H 2147.82 0.720436 -4.22502 0
M  V30 22841 H 2152 0.0739074 -4.96245 0
M  V30 22842 H 2147.26 -0.817479 -6.0591 0
M  V30 22843 H 2151.43 -1.45926 -6.80939 0
M  V30 22844 H 2149.06 -1.91101 -7.35788 0
M  V30 22845 N 2150.64 1.54769 0.297388 0
M  V30 22846 C 2152.05 1.65183 0.87014 0
M  V30 22847 C 2152.4 0.562844 1.87953 0
M  V30 22848 O 2151.52 -0.299913 2.14312 0
M  V30 22849 C 2152.12 2.99437 1.58501 0
M  V30 22850 C 2150.68 3.1196 2.10612 0
M  V30 22851 C 2149.82 2.60882 0.94 0
M  V30 22852 H 2152.77 1.58526 0.0743014 0
M  V30 22853 H 2152.8 2.91063 2.45077 0
M  V30 22854 H 2152.31 3.78675 0.850115 0
M  V30 22855 H 2150.41 2.3745 2.87138 0
M  V30 22856 H 2150.52 4.1817 2.33817 0
M  V30 22857 H 2148.89 2.17426 1.32658 0
M  V30 22858 H 2149.67 3.42601 0.219 0
M  V30 22859 N 2152.11 -0.560755 1.47286 0
M  V30 22860 C 2153.36 -1.32004 1.53957 0
M  V30 22861 C 2153.69 -1.9317 0.199705 0
M  V30 22862 O 2152.97 -1.77676 -0.791288 0
M  V30 22863 C 2153.25 -2.43284 2.6549 0
M  V30 22864 C 2153.1 -1.87009 4.09081 0
M  V30 22865 C 2154.42 -3.45228 2.72957 0
M  V30 22866 H 2151.54 -0.478599 0.560457 0
M  V30 22867 H 2154.18 -0.627854 1.79327 0
M  V30 22868 H 2152.33 -3.02327 2.43989 0
M  V30 22869 H 2154.01 -1.32254 4.41935 0
M  V30 22870 H 2152.25 -1.17705 4.17526 0
M  V30 22871 H 2152.92 -2.67438 4.82888 0
M  V30 22872 H 2155.4 -2.96099 2.92344 0
M  V30 22873 H 2154.27 -4.20522 3.52778 0
M  V30 22874 H 2154.53 -4.03854 1.79874 0
M  V30 22875 N 2153.59 -1.35359 -0.807199 0
M  V30 22876 C 2154.82 -1.31869 -1.60079 0
M  V30 22877 C 2155.24 0.101387 -1.87827 0
M  V30 22878 O 2154.6 1.06801 -1.46503 0
M  V30 22879 C 2154.65 -2.13049 -2.90934 0
M  V30 22880 O 2153.75 -1.51079 -3.8373 0
M  V30 22881 H 2153.09 -0.452158 -0.486261 0
M  V30 22882 H 2155.62 -1.78391 -1.00189 0
M  V30 22883 H 2155.63 -2.24982 -3.40363 0
M  V30 22884 H 2154.31 -3.16289 -2.70063 0
M  V30 22885 H 2152.88 -1.47982 -3.4228 0
M  V30 22886 N 2155.07 1.02928 -1.19346 0
M  V30 22887 C 2156.32 1.75724 -0.990157 0
M  V30 22888 C 2156.63 1.89622 0.479885 0
M  V30 22889 O 2157.84 2.59384 0.802002 0
M  V30 22890 C 2156.29 3.15992 -1.7227 0
M  V30 22891 C 2155.9 3.10149 -3.23283 0
M  V30 22892 C 2157.65 3.93086 -1.60262 0
M  V30 22893 C 2155.55 4.45347 -3.89128 0
M  V30 22894 H 2154.48 0.658737 -0.366854 0
M  V30 22895 H 2157.13 1.15193 -1.42838 0
M  V30 22896 H 2155.52 3.76987 -1.21229 0
M  V30 22897 H 2156.69 2.58537 -3.81438 0
M  V30 22898 H 2155 2.46552 -3.35561 0
M  V30 22899 H 2157.6 4.93087 -2.06807 0
M  V30 22900 H 2157.94 4.12561 -0.556708 0
M  V30 22901 H 2158.48 3.38691 -2.08647 0
M  V30 22902 H 2155.22 4.31076 -4.93816 0
M  V30 22903 H 2154.74 4.97016 -3.35761 0
M  V30 22904 H 2156.42 5.14231 -3.92652 0
M  V30 22905 N 2156.55 0.997319 1.2203 0
M  V30 22906 C 2157.96 0.710132 1.72667 0
M  V30 22907 C 2158.31 -0.77273 1.80342 0
M  V30 22908 O 2157.43 -1.6039 1.45273 0
M  V30 22909 C 2158.03 1.28239 3.13592 0
M  V30 22910 C 2156.59 1.04449 3.61618 0
M  V30 22911 C 2155.74 1.3999 2.3937 0
M  V30 22912 H 2158.69 1.16915 1.07315 0
M  V30 22913 H 2158.71 0.663177 3.74676 0
M  V30 22914 H 2158.22 2.36164 3.07974 0
M  V30 22915 H 2156.32 -0.0179379 3.72596 0
M  V30 22916 H 2156.43 1.71098 4.47507 0
M  V30 22917 H 2154.8 0.818553 2.41188 0
M  V30 22918 H 2155.58 2.48928 2.3641 0
M  V30 22919 N 2158.03 -1.37449 0.771075 0
M  V30 22920 C 2159.28 -1.98953 0.331779 0
M  V30 22921 C 2159.59 -1.61903 -1.09758 0
M  V30 22922 O 2160.79 -2.16505 -1.63823 0
M  V30 22923 C 2159.25 -3.55792 0.542247 0
M  V30 22924 C 2158.86 -4.01781 1.98183 0
M  V30 22925 C 2160.6 -4.24173 0.16654 0
M  V30 22926 C 2158.51 -5.51327 2.13993 0
M  V30 22927 H 2157.44 -0.74434 0.120306 0
M  V30 22928 H 2160.09 -1.56988 0.950108 0
M  V30 22929 H 2158.47 -3.95733 -0.145529 0
M  V30 22930 H 2159.65 -3.73086 2.7045 0
M  V30 22931 H 2157.96 -3.46179 2.31406 0
M  V30 22932 H 2160.56 -5.34052 0.263191 0
M  V30 22933 H 2160.9 -4.06825 -0.883113 0
M  V30 22934 H 2161.43 -3.89532 0.806838 0
M  V30 22935 H 2158.17 -5.736 3.17275 0
M  V30 22936 H 2157.69 -5.81707 1.46208 0
M  V30 22937 H 2159.37 -6.17286 1.93822 0
M  V30 22938 N 2159.5 -0.52156 -1.4872 0
M  V30 22939 C 2160.73 0.0117966 -2.06897 0
M  V30 22940 C 2161.15 1.28928 -1.37924 0
M  V30 22941 O 2160.5 1.76502 -0.464046 0
M  V30 22942 C 2160.56 0.248161 -3.60647 0
M  V30 22943 O 2160.28 -0.978703 -4.27028 0
M  V30 22944 C 2161.78 0.822848 -4.35596 0
M  V30 22945 H 2159 -0.0297145 -0.670342 0
M  V30 22946 H 2161.54 -0.724798 -1.91225 0
M  V30 22947 H 2159.7 0.934783 -3.75953 0
M  V30 22948 H 2160.11 -0.754221 -5.19049 0
M  V30 22949 H 2161.58 0.937703 -5.43977 0
M  V30 22950 H 2162.06 1.82571 -3.99455 0
M  V30 22951 H 2162.67 0.173056 -4.24948 0
M  V30 22952 N 2160.98 1.55502 -0.256304 0
M  V30 22953 C 2161.95 2.20485 0.626014 0
M  V30 22954 C 2162.95 1.17694 1.09566 0
M  V30 22955 O 2164.14 1.42718 0.998856 0
M  V30 22956 C 2161.27 2.85589 1.86149 0
M  V30 22957 H 2162.46 2.99842 0.0589124 0
M  V30 22958 H 2160.01 1.56299 -0.0068064 0
M  V30 22959 H 2160.75 2.10195 2.46959 0
M  V30 22960 H 2160.53 3.60896 1.53285 0
M  V30 22961 H 2162.02 3.35293 2.48935 0
M  V30 22962 N 2162.46 -0.0166879 1.57591 0
M  V30 22963 C 2163.42 -0.998156 2.06324 0
M  V30 22964 C 2164.42 -1.28282 0.969561 0
M  V30 22965 O 2165.61 -1.23078 1.23278 0
M  V30 22966 C 2162.75 -2.32767 2.49063 0
M  V30 22967 H 2163.94 -0.576954 2.94298 0
M  V30 22968 H 2161.49 -0.263799 1.54058 0
M  V30 22969 H 2162.23 -2.7961 1.64282 0
M  V30 22970 H 2162.01 -2.13431 3.28922 0
M  V30 22971 H 2163.5 -3.03207 2.87151 0
M  V30 22972 N 2163.94 -1.54924 -0.289176 0
M  V30 22973 C 2164.9 -1.85935 -1.34017 0
M  V30 22974 C 2165.9 -0.732916 -1.43126 0
M  V30 22975 O 2167.09 -1.00116 -1.42556 0
M  V30 22976 C 2164.22 -2.0502 -2.72359 0
M  V30 22977 H 2165.42 -2.79872 -1.07758 0
M  V30 22978 H 2162.97 -1.47168 -0.526442 0
M  V30 22979 H 2163.7 -1.13412 -3.03823 0
M  V30 22980 H 2163.49 -2.8702 -2.67136 0
M  V30 22981 H 2164.98 -2.30342 -3.48328 0
M  V30 22982 N 2165.42 0.552936 -1.47582 0
M  V30 22983 C 2166.66 1.30952 -1.55638 0
M  V30 22984 C 2167.02 1.91166 -0.217561 0
M  V30 22985 O 2166.31 1.75129 0.777208 0
M  V30 22986 C 2166.5 2.43742 -2.6139 0
M  V30 22987 C 2166.33 1.94581 -4.05423 0
M  V30 22988 C 2165.1 1.78229 -4.72824 0
M  V30 22989 C 2167.3 1.48778 -4.92311 0
M  V30 22990 N 2165.28 1.23453 -6.01359 0
M  V30 22991 C 2166.65 1.05795 -6.10907 0
M  V30 22992 C 2168.71 1.36868 -4.78719 0
M  V30 22993 C 2167.41 0.520866 -7.17412 0
M  V30 22994 C 2169.44 0.845611 -5.85323 0
M  V30 22995 C 2168.8 0.425735 -7.03112 0
M  V30 22996 H 2164.9 0.471059 -0.624201 0
M  V30 22997 H 2167.48 0.626261 -1.84353 0
M  V30 22998 H 2165.65 3.09593 -2.34535 0
M  V30 22999 H 2167.39 3.10748 -2.59263 0
M  V30 23000 H 2164.14 2.01072 -4.28797 0
M  V30 23001 H 2164.57 0.981404 -6.69849 0
M  V30 23002 H 2169.21 1.67941 -3.88015 0
M  V30 23003 H 2166.93 0.197773 -8.07858 0
M  V30 23004 H 2170.51 0.756959 -5.76855 0
M  V30 23005 H 2169.39 0.0272611 -7.84195 0
M  V30 23006 N 2166.89 1.35785 0.800009 0
M  V30 23007 C 2168.12 1.32363 1.5863 0
M  V30 23008 C 2168.53 -0.099518 1.88938 0
M  V30 23009 O 2167.88 -1.06381 1.49763 0
M  V30 23010 C 2167.94 2.0694 2.93966 0
M  V30 23011 C 2167.6 3.56091 2.86441 0
M  V30 23012 C 2168.6 4.50553 2.59419 0
M  V30 23013 C 2166.28 3.98831 3.05351 0
M  V30 23014 C 2168.28 5.8573 2.51394 0
M  V30 23015 C 2165.96 5.34102 2.96948 0
M  V30 23016 C 2166.96 6.27364 2.70006 0
M  V30 23017 O 2166.65 7.60153 2.61578 0
M  V30 23018 H 2166.38 0.456006 0.499033 0
M  V30 23019 H 2168.94 1.7932 1.00168 0
M  V30 23020 H 2167.17 1.5463 3.54438 0
M  V30 23021 H 2168.86 1.96511 3.55159 0
M  V30 23022 H 2169.62 4.18848 2.44522 0
M  V30 23023 H 2165.5 3.2662 3.25331 0
M  V30 23024 H 2169.04 6.58494 2.30285 0
M  V30 23025 H 2164.94 5.65418 3.11405 0
M  V30 23026 H 2165.71 7.70154 2.77137 0
M  V30 23027 N 2168.37 -1.02294 1.19891 0
M  V30 23028 C 2169.3 -2.12589 0.965816 0
M  V30 23029 C 2170.28 -1.69788 -0.102962 0
M  V30 23030 O 2171.47 -1.94127 0.0532676 0
M  V30 23031 C 2168.6 -3.43532 0.510181 0
M  V30 23032 C 2167.55 -4.00044 1.52147 0
M  V30 23033 C 2166.88 -5.26679 0.922703 0
M  V30 23034 C 2168.18 -4.34165 2.90341 0
M  V30 23035 H 2169.87 -2.32347 1.88826 0
M  V30 23036 H 2167.42 -1.11659 0.9093 0
M  V30 23037 H 2169.37 -4.20071 0.334377 0
M  V30 23038 H 2168.1 -3.23514 -0.447879 0
M  V30 23039 H 2166.75 -3.25606 1.68453 0
M  V30 23040 H 2166.4 -5.02982 -0.0430931 0
M  V30 23041 H 2166.1 -5.65452 1.59806 0
M  V30 23042 H 2167.63 -6.05879 0.757827 0
M  V30 23043 H 2169.04 -5.01617 2.77584 0
M  V30 23044 H 2167.44 -4.84036 3.54724 0
M  V30 23045 H 2168.51 -3.43207 3.42545 0
M  V30 23046 N 2169.85 -1.00378 -1.21499 0
M  V30 23047 C 2171.1 -0.696478 -1.91104 0
M  V30 23048 C 2171.45 0.764296 -1.76568 0
M  V30 23049 O 2170.74 1.54673 -1.13079 0
M  V30 23050 C 2170.94 -1.05103 -3.41596 0
M  V30 23051 C 2170.77 -2.54472 -3.70775 0
M  V30 23052 C 2169.54 -3.21053 -3.90196 0
M  V30 23053 C 2171.74 -3.52627 -3.74378 0
M  V30 23054 N 2169.72 -4.59786 -4.0678 0
M  V30 23055 C 2171.09 -4.76865 -3.96232 0
M  V30 23056 C 2173.14 -3.4678 -3.57278 0
M  V30 23057 C 2171.85 -5.95966 -4.02761 0
M  V30 23058 C 2173.87 -4.6527 -3.65072 0
M  V30 23059 C 2173.23 -5.88312 -3.87387 0
M  V30 23060 H 2169.33 -0.306317 -0.71951 0
M  V30 23061 H 2171.92 -1.286 -1.46185 0
M  V30 23062 H 2170.09 -0.489974 -3.85297 0
M  V30 23063 H 2171.82 -0.698593 -3.98625 0
M  V30 23064 H 2168.58 -2.715 -3.88053 0
M  V30 23065 H 2169 -5.31777 -4.18977 0
M  V30 23066 H 2173.64 -2.5266 -3.39003 0
M  V30 23067 H 2171.36 -6.9048 -4.19837 0
M  V30 23068 H 2174.95 -4.62348 -3.53165 0
M  V30 23069 H 2173.83 -6.78466 -3.9326 0
M  V30 23070 N 2171.33 1.37038 -0.778354 0
M  V30 23071 C 2172.24 2.33983 -0.170042 0
M  V30 23072 C 2173.25 1.60504 0.671902 0
M  V30 23073 O 2174.43 1.92556 0.590278 0
M  V30 23074 C 2171.5 3.39689 0.693729 0
M  V30 23075 C 2170.56 4.28981 -0.165434 0
M  V30 23076 C 2169.79 5.29638 0.657205 0
M  V30 23077 O 2170.01 5.38041 1.8939 0
M  V30 23078 O 2168.95 6.01867 0.0629255 0
M  V30 23079 H 2172.77 2.87749 -0.97131 0
M  V30 23080 H 2170.36 1.39314 -0.53962 0
M  V30 23081 H 2172.24 4.04348 1.18664 0
M  V30 23082 H 2170.91 2.8824 1.47307 0
M  V30 23083 H 2169.82 3.674 -0.704851 0
M  V30 23084 H 2171.15 4.83752 -0.908023 0
M  V30 23085 N 2172.81 0.529439 1.48441 0
M  V30 23086 C 2174.05 -0.00486384 2.02799 0
M  V30 23087 C 2174.39 -1.33985 1.40576 0
M  V30 23088 O 2173.66 -1.86523 0.551326 0
M  V30 23089 C 2173.94 -0.127443 3.59874 0
M  V30 23090 C 2173.8 1.23268 4.3258 0
M  V30 23091 C 2175.12 -0.854486 4.31725 0
M  V30 23092 H 2172.24 -0.00029358 0.737 0
M  V30 23093 H 2174.88 0.686364 1.7717 0
M  V30 23094 H 2173.03 -0.716153 3.81842 0
M  V30 23095 H 2174.7 1.86245 4.22031 0
M  V30 23096 H 2172.94 1.8147 3.94019 0
M  V30 23097 H 2173.61 1.09991 5.40931 0
M  V30 23098 H 2176.09 -0.354911 4.14584 0
M  V30 23099 H 2174.97 -0.909151 5.41318 0
M  V30 23100 H 2175.23 -1.90464 3.98968 0
M  V30 23101 N 2174.29 -1.55364 0.264547 0
M  V30 23102 C 2175.23 -2.22106 -0.62749 0
M  V30 23103 C 2176.2 -1.1909 -1.15788 0
M  V30 23104 O 2177.39 -1.47597 -1.20912 0
M  V30 23105 C 2174.53 -2.93783 -1.81068 0
M  V30 23106 C 2173.64 -4.11495 -1.31515 0
M  V30 23107 C 2172.78 -4.70842 -2.45929 0
M  V30 23108 C 2171.81 -5.80768 -1.93326 0
M  V30 23109 N 2170.95 -6.34223 -3.01173 0
M  V30 23110 H 2175.79 -2.97955 -0.0516766 0
M  V30 23111 H 2173.33 -1.47094 -0.0137419 0
M  V30 23112 H 2175.29 -3.33549 -2.50601 0
M  V30 23113 H 2173.92 -2.20376 -2.35869 0
M  V30 23114 H 2172.97 -3.76921 -0.513271 0
M  V30 23115 H 2174.28 -4.908 -0.88977 0
M  V30 23116 H 2173.43 -5.13274 -3.23474 0
M  V30 23117 H 2172.17 -3.90791 -2.91777 0
M  V30 23118 H 2171.18 -5.37797 -1.14257 0
M  V30 23119 H 2172.4 -6.62681 -1.48426 0
M  V30 23120 H 2170.35 -5.5707 -3.46423 0
M  V30 23121 H 2170.27 -7.08771 -2.63021 0
M  V30 23122 H 2171.53 -6.81313 -3.78725 0
M  V30 23123 N 2175.76 0.00833021 -1.57598 0
M  V30 23124 C 2176.71 1.00242 -2.07895 0
M  V30 23125 C 2177.68 1.34651 -0.972534 0
M  V30 23126 O 2178.87 1.44632 -1.24444 0
M  V30 23127 C 2176.01 2.2918 -2.58013 0
M  V30 23128 C 2175.12 2.00747 -3.82524 0
M  V30 23129 C 2174.25 3.23706 -4.21175 0
M  V30 23130 C 2173.29 2.90921 -5.38546 0
M  V30 23131 N 2172.43 4.06392 -5.72529 0
M  V30 23132 H 2177.27 0.566561 -2.92565 0
M  V30 23133 H 2174.81 0.268106 -1.44636 0
M  V30 23134 H 2176.76 3.04546 -2.85145 0
M  V30 23135 H 2175.39 2.7045 -1.76229 0
M  V30 23136 H 2174.45 1.15786 -3.6235 0
M  V30 23137 H 2175.76 1.72576 -4.67995 0
M  V30 23138 H 2174.91 4.07424 -4.49545 0
M  V30 23139 H 2173.65 3.55007 -3.34397 0
M  V30 23140 H 2172.66 2.05609 -5.09907 0
M  V30 23141 H 2173.88 2.60875 -6.26993 0
M  V30 23142 H 2171.83 4.37606 -4.88709 0
M  V30 23143 H 2171.74 3.81717 -6.52555 0
M  V30 23144 H 2173.01 4.90923 -6.05487 0
M  V30 23145 N 2177.24 1.55075 0.280956 0
M  V30 23146 C 2178.17 1.83809 1.36919 0
M  V30 23147 C 2179.19 0.722116 1.45909 0
M  V30 23148 O 2180.38 0.999868 1.47868 0
M  V30 23149 C 2177.48 1.97895 2.75119 0
M  V30 23150 C 2176.65 3.28485 2.88819 0
M  V30 23151 C 2175.71 3.32736 4.07643 0
M  V30 23152 O 2174.73 4.06159 3.98778 0
M  V30 23153 N 2175.94 2.59566 5.19236 0
M  V30 23154 H 2178.7 2.77736 1.12619 0
M  V30 23155 H 2176.26 1.54895 0.471063 0
M  V30 23156 H 2178.25 1.98119 3.5289 0
M  V30 23157 H 2176.82 1.10872 2.92278 0
M  V30 23158 H 2176.04 3.40868 1.97997 0
M  V30 23159 H 2177.33 4.14624 2.94897 0
M  V30 23160 H 2176.73 1.99582 5.29324 0
M  V30 23161 H 2175.29 2.65521 5.95266 0
M  V30 23162 N 2178.72 -0.545102 1.47873 0
M  V30 23163 C 2180.14 -0.872206 1.33659 0
M  V30 23164 C 2180.34 -1.98676 0.336181 0
M  V30 23165 O 2179.39 -2.51279 -0.248001 0
M  V30 23166 C 2180.7 -1.254 2.73304 0
M  V30 23167 C 2182.25 -1.36475 2.8168 0
M  V30 23168 C 2182.73 -1.78005 4.21993 0
M  V30 23169 N 2184.22 -1.85134 4.24593 0
M  V30 23170 C 2184.95 -2.18622 5.30087 0
M  V30 23171 N 2184.45 -2.50639 6.45873 0
M  V30 23172 N 2186.24 -2.19499 5.17471 0
M  V30 23173 H 2178.39 0.190536 2.11544 0
M  V30 23174 H 2180.66 0.0225858 0.947731 0
M  V30 23175 H 2180.36 -0.508782 3.48 0
M  V30 23176 H 2180.24 -2.20752 3.05857 0
M  V30 23177 H 2182.62 -2.10076 2.07249 0
M  V30 23178 H 2182.7 -0.392814 2.52766 0
M  V30 23179 H 2182.35 -1.04969 4.96935 0
M  V30 23180 H 2182.28 -2.76222 4.4834 0
M  V30 23181 H 2184.77 -1.62729 3.41068 0
M  V30 23182 H 2185.08 -2.75253 7.22119 0
M  V30 23183 H 2183.43 -2.48192 6.49173 0
M  V30 23184 H 2186.62 -1.93934 4.26037 0
M  V30 23185 H 2186.79 -2.45267 5.9979 0
M  V30 23186 N 2180.2 -1.36208 -0.792797 0
M  V30 23187 C 2181.16 -1.30111 -1.88689 0
M  V30 23188 C 2182.16 -0.209535 -1.59429 0
M  V30 23189 O 2183.35 -0.464108 -1.67904 0
M  V30 23190 C 2180.48 -1.01615 -3.25403 0
M  V30 23191 H 2181.68 -2.2741 -1.95511 0
M  V30 23192 H 2179.23 -1.20931 -0.990219 0
M  V30 23193 H 2179.96 -0.0476043 -3.24265 0
M  V30 23194 H 2179.75 -1.80604 -3.48029 0
M  V30 23195 H 2181.24 -0.999458 -4.05463 0
M  V30 23196 N 2181.68 1.01656 -1.20431 0
M  V30 23197 C 2182.92 1.74909 -1.01249 0
M  V30 23198 C 2183.24 1.89583 0.456441 0
M  V30 23199 O 2182.51 1.43836 1.32997 0
M  V30 23200 H 2181.09 0.647988 -0.371646 0
M  V30 23201 H 2183.76 1.22561 -1.51542 0
M  V30 23202 H 2182.85 2.75268 -1.47085 0
M  V30 23203 N 2183.15 1.01021 1.20965 0
M  V30 23204 C 2184.4 0.696906 1.9045 0
M  V30 23205 C 2184.73 -0.770906 1.78243 0
M  V30 23206 O 2184.01 -1.55939 1.16246 0
M  V30 23207 C 2184.29 1.1252 3.42069 0
M  V30 23208 C 2184.14 2.65285 3.63241 0
M  V30 23209 C 2185.46 0.691566 4.34632 0
M  V30 23210 H 2182.58 0.254648 0.691609 0
M  V30 23211 H 2185.22 1.25681 1.42493 0
M  V30 23212 H 2183.37 0.648818 3.83044 0
M  V30 23213 H 2185.05 3.20727 3.3156 0
M  V30 23214 H 2183.29 3.06557 3.06929 0
M  V30 23215 H 2183.96 2.90306 4.69496 0
M  V30 23216 H 2186.44 1.10101 4.01269 0
M  V30 23217 H 2185.31 1.01935 5.39352 0
M  V30 23218 H 2185.57 -0.407073 4.40222 0
M  V30 23219 N 2184.63 -1.36623 0.78561 0
M  V30 23220 C 2185.56 -2.3268 0.195557 0
M  V30 23221 C 2186.54 -1.56463 -0.667335 0
M  V30 23222 O 2187.73 -1.84636 -0.601943 0
M  V30 23223 C 2184.86 -3.40708 -0.673467 0
M  V30 23224 C 2183.81 -4.27907 0.0892255 0
M  V30 23225 C 2183.14 -5.27069 -0.900146 0
M  V30 23226 C 2184.44 -5.06468 1.27624 0
M  V30 23227 H 2186.13 -2.82276 0.998033 0
M  V30 23228 H 2183.68 -1.35716 0.481373 0
M  V30 23229 H 2185.63 -4.06893 -1.09617 0
M  V30 23230 H 2184.35 -2.8967 -1.50861 0
M  V30 23231 H 2183.01 -3.63272 0.492858 0
M  V30 23232 H 2182.66 -4.72306 -1.73022 0
M  V30 23233 H 2182.36 -5.86276 -0.394285 0
M  V30 23234 H 2183.89 -5.96128 -1.32149 0
M  V30 23235 H 2185.3 -5.65715 0.92949 0
M  V30 23236 H 2183.7 -5.75068 1.71513 0
M  V30 23237 H 2184.77 -4.38332 2.07349 0
M  V30 23238 N 2186.11 -0.537304 -1.48158 0
M  V30 23239 C 2187.36 -0.0140445 -2.03395 0
M  V30 23240 C 2187.71 1.31301 -1.40633 0
M  V30 23241 O 2187 1.83671 -0.5455 0
M  V30 23242 C 2187.2 0.157545 -3.57053 0
M  V30 23243 C 2187.03 -1.15133 -4.34712 0
M  V30 23244 C 2185.8 -1.71321 -4.75371 0
M  V30 23245 C 2187.99 -2.06374 -4.71078 0
M  V30 23246 N 2185.98 -2.96421 -5.37595 0
M  V30 23247 C 2187.35 -3.16051 -5.33397 0
M  V30 23248 C 2189.4 -2.06611 -4.53008 0
M  V30 23249 C 2188.11 -4.26038 -5.79555 0
M  V30 23250 C 2190.13 -3.15598 -5.00152 0
M  V30 23251 C 2189.49 -4.23993 -5.62502 0
M  V30 23252 H 2185.59 -0.0468176 -0.780597 0
M  V30 23253 H 2188.18 -0.720202 -1.8089 0
M  V30 23254 H 2186.35 0.832796 -3.79367 0
M  V30 23255 H 2188.08 0.681071 -3.98928 0
M  V30 23256 H 2184.83 -1.25367 -4.56706 0
M  V30 23257 H 2185.26 -3.60132 -5.73266 0
M  V30 23258 H 2189.9 -1.24099 -4.04177 0
M  V30 23259 H 2187.62 -5.09324 -6.27387 0
M  V30 23260 H 2191.2 -3.16845 -4.87956 0
M  V30 23261 H 2190.08 -5.06936 -5.98319 0
M  V30 23262 N 2187.59 1.55221 -0.272782 0
M  V30 23263 C 2188.87 1.91543 0.396336 0
M  V30 23264 C 2189.25 1.19676 1.73899 0
M  V30 23265 O 2188.59 0.322832 2.26208 0
M  V30 23266 C 2188.8 3.44814 0.53892 0
M  V30 23267 C 2190.15 4.1655 0.822894 0
M  V30 23268 O 2191.18 3.50695 0.623816 0
M  V30 23269 O 2190.03 5.33084 1.2035 0
M  V30 23270 H 2187.13 0.798123 0.21663 0
M  V30 23271 H 2189.67 1.66679 -0.318762 0
M  V30 23272 H 2188.45 3.89187 -0.406068 0
M  V30 23273 H 2188.07 3.75623 1.30358 0
M  V30 23274 N 2189.07 2.77022e-05 1.576 0
M  V30 23275 C 2190.31 -0.685829 1.90851 0
M  V30 23276 C 2190.65 -1.73422 0.873984 0
M  V30 23277 O 2189.92 -1.94204 -0.107282 0
M  V30 23278 C 2190.2 -1.32893 3.34681 0
M  V30 23279 C 2190.06 -0.292085 4.48851 0
M  V30 23280 C 2191.38 -2.25509 3.77933 0
M  V30 23281 H 2188.49 -0.247851 0.694074 0
M  V30 23282 H 2191.14 0.0513272 1.89931 0
M  V30 23283 H 2189.29 -1.95723 3.35596 0
M  V30 23284 H 2190.96 0.336531 4.60071 0
M  V30 23285 H 2189.2 0.385648 4.32082 0
M  V30 23286 H 2189.87 -0.781112 5.46445 0
M  V30 23287 H 2192.35 -1.72696 3.7857 0
M  V30 23288 H 2191.22 -2.67473 4.79322 0
M  V30 23289 H 2191.49 -3.13419 3.11803 0
M  V30 23290 N 2190.54 -1.55222 -0.272728 0
M  V30 23291 C 2191.96 -1.66547 -0.843751 0
M  V30 23292 C 2192.31 -0.592674 -1.87034 0
M  V30 23293 O 2191.43 0.26578 -2.14762 0
M  V30 23294 C 2192.03 -3.01921 -1.53718 0
M  V30 23295 C 2190.59 -3.15272 -2.05623 0
M  V30 23296 C 2189.73 -2.62344 -0.898377 0
M  V30 23297 H 2192.68 -1.58624 -0.0490719 0
M  V30 23298 H 2192.7 -2.94925 -2.40415 0
M  V30 23299 H 2192.22 -3.79979 -0.789763 0
M  V30 23300 H 2190.32 -2.41988 -2.83324 0
M  V30 23301 H 2190.43 -4.21837 -2.27135 0
M  V30 23302 H 2188.79 -2.19509 -1.29182 0
M  V30 23303 H 2189.58 -3.42906 -0.164467 0
M  V30 23304 N 2192.02 0.537252 -1.4816 0
M  V30 23305 C 2193.25 1.32317 -1.59709 0
M  V30 23306 C 2193.67 1.86365 -0.254891 0
M  V30 23307 O 2193.03 1.64026 0.772349 0
M  V30 23308 C 2193.08 2.45501 -2.64125 0
M  V30 23309 O 2192.18 3.48325 -2.2078 0
M  V30 23310 H 2191.52 0.392195 -0.535798 0
M  V30 23311 H 2194.05 0.647233 -1.94093 0
M  V30 23312 H 2194.06 2.9179 -2.85171 0
M  V30 23313 H 2192.74 2.05522 -3.61571 0
M  V30 23314 H 2191.32 3.08204 -2.09917 0
M  V30 23315 N 2193.5 1.36626 0.785562 0
M  V30 23316 C 2194.91 1.27805 1.36098 0
M  V30 23317 C 2195.26 -0.080453 1.96035 0
M  V30 23318 O 2194.39 -0.982008 1.92836 0
M  V30 23319 C 2194.98 2.3143 2.47438 0
M  V30 23320 C 2193.54 2.26286 3.00785 0
M  V30 23321 C 2192.69 2.16002 1.73892 0
M  V30 23322 H 2195.64 1.47449 0.586902 0
M  V30 23323 H 2195.66 1.95297 3.26557 0
M  V30 23324 H 2195.17 3.30293 2.03785 0
M  V30 23325 H 2193.27 1.30903 3.48848 0
M  V30 23326 H 2193.39 3.19134 3.57338 0
M  V30 23327 H 2191.75 1.62319 1.96277 0
M  V30 23328 H 2192.53 3.16757 1.32362 0
M  V30 23329 N 2194.98 -1.01016 1.20969 0
M  V30 23330 C 2196.39 -1.56164 1.02322 0
M  V30 23331 C 2196.74 -1.91684 -0.418512 0
M  V30 23332 O 2195.87 -1.7293 -1.30093 0
M  V30 23333 C 2196.46 -2.83757 1.85114 0
M  V30 23334 C 2195.02 -3.35409 1.70815 0
M  V30 23335 C 2194.17 -2.08651 1.82647 0
M  V30 23336 H 2197.12 -0.833232 1.35066 0
M  V30 23337 H 2197.14 -3.55429 1.35833 0
M  V30 23338 H 2196.65 -2.57873 2.9004 0
M  V30 23339 H 2194.75 -3.66239 0.685528 0
M  V30 23340 H 2194.86 -4.07177 2.52475 0
M  V30 23341 H 2193.23 -2.21407 1.259 0
M  V30 23342 H 2194.01 -1.85185 2.8907 0
M  V30 23343 N 2196.46 -1.01661 -1.20428 0
M  V30 23344 C 2197.87 -0.737512 -1.71516 0
M  V30 23345 C 2198.22 0.743941 -1.81549 0
M  V30 23346 O 2197.34 1.58058 -1.47806 0
M  V30 23347 C 2197.94 -1.33212 -3.11513 0
M  V30 23348 C 2196.5 -1.10189 -3.5991 0
M  V30 23349 C 2195.64 -1.4378 -2.37113 0
M  V30 23350 H 2198.6 -1.18608 -1.05441 0
M  V30 23351 H 2198.62 -0.722701 -3.73574 0
M  V30 23352 H 2198.13 -2.41034 -3.04178 0
M  V30 23353 H 2196.23 -0.0413411 -3.72577 0
M  V30 23354 H 2196.34 -1.78195 -4.44728 0
M  V30 23355 H 2194.71 -0.856821 -2.39856 0
M  V30 23356 H 2195.49 -2.52658 -2.3242 0
M  V30 23357 N 2197.93 1.36205 -0.792844 0
M  V30 23358 C 2199.18 1.99445 -0.367365 0
M  V30 23359 C 2199.51 1.62776 1.05914 0
M  V30 23360 O 2198.79 0.884241 1.73238 0
M  V30 23361 C 2199.07 3.56102 -0.535107 0
M  V30 23362 C 2198.92 4.02614 -2.00555 0
M  V30 23363 C 2200.24 4.40074 0.0477417 0
M  V30 23364 H 2197.36 0.724539 -0.134954 0
M  V30 23365 H 2200 1.61566 -0.999822 0
M  V30 23366 H 2198.15 3.885 0.003295 0
M  V30 23367 H 2199.83 3.80688 -2.60527 0
M  V30 23368 H 2198.07 3.54028 -2.50693 0
M  V30 23369 H 2198.74 5.11561 -2.07386 0
M  V30 23370 H 2201.22 4.14056 -0.411895 0
M  V30 23371 H 2200.09 5.4881 -0.0996301 0
M  V30 23372 H 2200.35 4.27144 1.14018 0
M  V30 23373 N 2199.41 0.545154 1.47871 0
M  V30 23374 C 2200.66 0.0165886 2.02093 0
M  V30 23375 C 2200.98 -1.33317 1.42308 0
M  V30 23376 O 2200.25 -1.86681 0.593886 0
M  V30 23377 H 2198.83 0.00314351 0.746993 0
M  V30 23378 H 2201.49 0.712429 1.81412 0
M  V30 23379 H 2200.59 -0.0804873 3.11996 0
M  V30 23380 N 2200.89 -1.55074 0.28101 0
M  V30 23381 C 2201.84 -2.22759 -0.603897 0
M  V30 23382 C 2202.81 -1.20311 -1.14518 0
M  V30 23383 O 2203.99 -1.48871 -1.1934 0
M  V30 23384 C 2201.13 -2.95687 -1.77942 0
M  V30 23385 C 2200.25 -4.12866 -1.27143 0
M  V30 23386 C 2199.38 -4.73424 -2.40921 0
M  V30 23387 C 2198.42 -5.82786 -1.87155 0
M  V30 23388 N 2197.56 -6.37382 -2.9443 0
M  V30 23389 H 2202.4 -2.97993 -0.0200716 0
M  V30 23390 H 2199.93 -1.471 0.00186011 0
M  V30 23391 H 2201.89 -3.36189 -2.47049 0
M  V30 23392 H 2200.52 -2.22866 -2.33518 0
M  V30 23393 H 2199.57 -3.77445 -0.473264 0
M  V30 23394 H 2200.89 -4.91716 -0.837664 0
M  V30 23395 H 2200.04 -5.16676 -3.18012 0
M  V30 23396 H 2198.78 -3.93864 -2.87616 0
M  V30 23397 H 2197.78 -5.38978 -1.08547 0
M  V30 23398 H 2199.01 -6.64218 -1.41389 0
M  V30 23399 H 2196.95 -5.60713 -3.40495 0
M  V30 23400 H 2196.87 -7.11521 -2.55488 0
M  V30 23401 H 2198.14 -6.85292 -3.71477 0
M  V30 23402 N 2202.37 -0.00838561 -1.57598 0
M  V30 23403 C 2203.33 0.965206 -2.07886 0
M  V30 23404 C 2204.33 1.26723 -0.989847 0
M  V30 23405 O 2205.52 1.21101 -1.2522 0
M  V30 23406 C 2202.65 2.28775 -2.52735 0
M  V30 23407 H 2203.85 0.53006 -2.95179 0
M  V30 23408 H 2201.4 0.239256 -1.54458 0
M  V30 23409 H 2202.14 2.76961 -1.6871 0
M  V30 23410 H 2201.92 2.08172 -3.32276 0
M  V30 23411 H 2203.41 2.986 -2.91938 0
M  V30 23412 N 2203.85 1.55365 0.264492 0
M  V30 23413 C 2204.76 1.91936 1.34899 0
M  V30 23414 C 2205.77 0.81762 1.53594 0
M  V30 23415 O 2206.95 1.11745 1.67556 0
M  V30 23416 C 2204.01 2.19126 2.68672 0
M  V30 23417 C 2203.08 3.42634 2.58651 0
M  V30 23418 C 2202.31 3.68517 3.86045 0
M  V30 23419 O 2202.53 2.96765 4.87121 0
M  V30 23420 O 2201.47 4.62051 3.85736 0
M  V30 23421 H 2205.29 2.84272 1.06878 0
M  V30 23422 H 2202.88 1.4202 0.46375 0
M  V30 23423 H 2204.76 2.38001 3.47755 0
M  V30 23424 H 2203.43 1.29971 2.96461 0
M  V30 23425 H 2202.34 3.29086 1.77914 0
M  V30 23426 H 2203.67 4.32035 2.3581 0
M  V30 23427 N 2205.33 -0.529387 1.48443 0
M  V30 23428 C 2206.26 -1.6431 1.65905 0
M  V30 23429 C 2207.24 -1.6234 0.507926 0
M  V30 23430 O 2208.42 -1.79526 0.740534 0
M  V30 23431 C 2205.55 -3.02895 1.69917 0
M  V30 23432 C 2204.51 -3.19724 2.84536 0
M  V30 23433 C 2203.83 -4.59377 2.73637 0
M  V30 23434 C 2205.13 -3.02439 4.25826 0
M  V30 23435 H 2206.83 -1.49951 2.59143 0
M  V30 23436 H 2204.37 -0.71996 1.2471 0
M  V30 23437 H 2206.32 -3.80681 1.80721 0
M  V30 23438 H 2205.05 -3.18278 0.73258 0
M  V30 23439 H 2203.71 -2.44356 2.73287 0
M  V30 23440 H 2203.36 -4.71596 1.74946 0
M  V30 23441 H 2203.06 -4.71582 3.50549 0
M  V30 23442 H 2204.58 -5.3926 2.8641 0
M  V30 23443 H 2205.99 -3.70016 4.37905 0
M  V30 23444 H 2204.39 -3.26137 5.03741 0
M  V30 23445 H 2205.46 -1.98859 4.42248 0
M  V30 23446 N 2206.8 -1.37041 -0.778305 0
M  V30 23447 C 2207.71 -1.3445 -1.92251 0
M  V30 23448 C 2208.73 -0.245021 -1.72266 0
M  V30 23449 O 2209.91 -0.479293 -1.95614 0
M  V30 23450 C 2206.97 -1.14405 -3.2728 0
M  V30 23451 C 2206.03 -2.33931 -3.59965 0
M  V30 23452 C 2205.26 -2.14834 -4.88551 0
M  V30 23453 O 2205.49 -1.12922 -5.59111 0
M  V30 23454 O 2204.42 -3.0287 -5.20147 0
M  V30 23455 H 2208.25 -2.30807 -1.97388 0
M  V30 23456 H 2205.83 -1.17703 -0.920134 0
M  V30 23457 H 2207.71 -1.05189 -4.0806 0
M  V30 23458 H 2206.39 -0.211181 -3.2301 0
M  V30 23459 H 2205.3 -2.48718 -2.79446 0
M  V30 23460 H 2206.63 -3.25763 -3.6897 0
M  V30 23461 N 2208.28 1.00373 -1.21503 0
M  V30 23462 C 2209.56 1.71435 -0.941775 0
M  V30 23463 C 2209.94 2.03915 0.546078 0
M  V30 23464 O 2209.29 1.71387 1.51125 0
M  V30 23465 C 2209.5 2.97286 -1.82817 0
M  V30 23466 C 2210.84 3.70289 -2.07777 0
M  V30 23467 O 2211.87 3.0727 -1.80176 0
M  V30 23468 O 2210.73 4.83642 -2.54465 0
M  V30 23469 H 2207.82 0.747756 -0.353256 0
M  V30 23470 H 2210.37 1.06105 -1.32438 0
M  V30 23471 H 2209.14 2.69704 -2.83506 0
M  V30 23472 H 2208.76 3.70356 -1.44646 0
M  V30 23473 N 2209.76 1.02298 1.19887 0
M  V30 23474 C 2211.01 0.714591 1.89045 0
M  V30 23475 C 2211.33 -0.758649 1.79637 0
M  V30 23476 O 2210.6 -1.54616 1.20294 0
M  V30 23477 H 2209.18 0.261329 0.699797 0
M  V30 23478 H 2211.84 1.29595 1.45572 0
M  V30 23479 H 2210.94 1.00365 2.95522 0
M  V30 23480 N 2211.24 -1.35782 0.800057 0
M  V30 23481 C 2212.2 -2.28221 0.211605 0
M  V30 23482 C 2213.2 -1.49297 -0.597254 0
M  V30 23483 O 2214.39 -1.69143 -0.416692 0
M  V30 23484 C 2211.52 -3.33514 -0.705787 0
M  V30 23485 H 2212.72 -2.81774 1.02682 0
M  V30 23486 H 2210.27 -1.45527 0.570236 0
M  V30 23487 H 2211 -2.85136 -1.54493 0
M  V30 23488 H 2210.79 -3.91892 -0.127586 0
M  V30 23489 H 2212.28 -4.02521 -1.11204 0
M  V30 23490 N 2212.72 -0.552988 -1.4758 0
M  V30 23491 C 2213.95 -0.0320454 -2.06575 0
M  V30 23492 C 2214.35 1.26522 -1.40673 0
M  V30 23493 O 2213.7 1.76882 -0.495839 0
M  V30 23494 C 2213.76 0.23885 -3.58706 0
M  V30 23495 C 2213.42 -0.968351 -4.46623 0
M  V30 23496 C 2214.42 -1.87282 -4.84996 0
M  V30 23497 C 2212.1 -1.18183 -4.88199 0
M  V30 23498 C 2214.1 -2.9745 -5.6374 0
M  V30 23499 C 2211.79 -2.28661 -5.66708 0
M  V30 23500 C 2212.78 -3.18125 -6.04388 0
M  V30 23501 O 2212.47 -4.26688 -6.81317 0
M  V30 23502 H 2212.2 -0.0408808 -0.674763 0
M  V30 23503 H 2214.76 -0.764753 -1.90632 0
M  V30 23504 H 2212.99 1.02582 -3.72846 0
M  V30 23505 H 2214.68 0.704661 -3.99737 0
M  V30 23506 H 2215.44 -1.71992 -4.53479 0
M  V30 23507 H 2211.32 -0.494674 -4.58338 0
M  V30 23508 H 2214.87 -3.67306 -5.9307 0
M  V30 23509 H 2210.76 -2.43925 -5.97638 0
M  V30 23510 H 2211.53 -4.24683 -6.99705 0
M  V30 23511 N 2214.19 1.54923 -0.28923 0
M  V30 23512 C 2215.61 1.5947 0.0645122 0
M  V30 23513 C 2215.81 1.30635 1.53417 0
M  V30 23514 O 2214.87 1.07404 2.28518 0
M  V30 23515 C 2216.18 2.98962 -0.322833 0
M  V30 23516 C 2217.73 3.11828 -0.270619 0
M  V30 23517 C 2218.2 4.5361 -0.632611 0
M  V30 23518 N 2219.69 4.59495 -0.584698 0
M  V30 23519 C 2220.43 5.67252 -0.837414 0
M  V30 23520 N 2219.92 6.83096 -1.15548 0
M  V30 23521 N 2221.72 5.56866 -0.765264 0
M  V30 23522 H 2213.87 1.71929 -1.24717 0
M  V30 23523 H 2216.13 0.802407 -0.504823 0
M  V30 23524 H 2215.84 3.24946 -1.34547 0
M  V30 23525 H 2215.71 3.75759 0.329374 0
M  V30 23526 H 2218.1 2.856 0.742755 0
M  V30 23527 H 2218.18 2.37212 -0.957284 0
M  V30 23528 H 2217.82 4.80566 -1.64374 0
M  V30 23529 H 2217.75 5.26545 0.0759974 0
M  V30 23530 H 2220.24 3.76282 -0.349314 0
M  V30 23531 H 2220.56 7.61189 -1.33461 0
M  V30 23532 H 2218.9 6.84677 -1.1934 0
M  V30 23533 H 2222.09 4.65242 -0.516514 0
M  V30 23534 H 2222.27 6.40765 -0.96559 0
M  V30 23535 N 2215.67 0.0167433 1.57591 0
M  V30 23536 C 2216.92 -0.663843 1.90463 0
M  V30 23537 C 2217.23 -1.73997 0.893546 0
M  V30 23538 O 2218.44 -2.47635 1.11307 0
M  V30 23539 C 2216.9 -1.23198 3.38157 0
M  V30 23540 C 2216.5 -0.189787 4.47598 0
M  V30 23541 C 2218.25 -1.88979 3.80115 0
M  V30 23542 C 2216.15 -0.768861 5.86381 0
M  V30 23543 H 2215.08 -0.251716 0.710742 0
M  V30 23544 H 2217.74 0.0800249 1.83325 0
M  V30 23545 H 2216.12 -2.02706 3.40186 0
M  V30 23546 H 2217.29 0.581926 4.57111 0
M  V30 23547 H 2215.61 0.368548 4.14766 0
M  V30 23548 H 2218.2 -2.33238 4.81149 0
M  V30 23549 H 2218.55 -2.72737 3.14516 0
M  V30 23550 H 2219.08 -1.1618 3.80456 0
M  V30 23551 H 2215.82 0.030311 6.55493 0
M  V30 23552 H 2215.34 -1.50935 5.80499 0
M  V30 23553 H 2217.02 -1.2624 6.34565 0
M  V30 23554 N 2217.15 -1.55503 -0.256249 0
M  V30 23555 C 2218.1 -1.89528 -1.3171 0
M  V30 23556 C 2219.07 -0.748505 -1.48279 0
M  V30 23557 O 2220.25 -1.00131 -1.62414 0
M  V30 23558 C 2217.39 -2.1873 -2.66929 0
M  V30 23559 C 2216.51 -3.46165 -2.58445 0
M  V30 23560 C 2215.64 -3.64982 -3.85955 0
M  V30 23561 C 2214.68 -4.86051 -3.7205 0
M  V30 23562 N 2213.82 -5.01438 -4.91431 0
M  V30 23563 H 2218.66 -2.80003 -1.01993 0
M  V30 23564 H 2216.19 -1.38614 -0.492389 0
M  V30 23565 H 2218.15 -2.33663 -3.45626 0
M  V30 23566 H 2216.78 -1.31471 -2.94814 0
M  V30 23567 H 2215.83 -3.39613 -1.71368 0
M  V30 23568 H 2217.15 -4.35003 -2.44077 0
M  V30 23569 H 2216.3 -3.79824 -4.73095 0
M  V30 23570 H 2215.04 -2.7436 -4.0321 0
M  V30 23571 H 2214.04 -4.71195 -2.83294 0
M  V30 23572 H 2215.27 -5.78125 -3.56299 0
M  V30 23573 H 2213.21 -4.1375 -5.09065 0
M  V30 23574 H 2213.13 -5.8435 -4.79658 0
M  V30 23575 H 2214.4 -5.20682 -5.80095 0
M  V30 23576 N 2218.63 0.521507 -1.48721 0
M  V30 23577 C 2219.56 1.6414 -1.5997 0
M  V30 23578 C 2220.57 1.55455 -0.483491 0
M  V30 23579 O 2221.76 1.61761 -0.754698 0
M  V30 23580 C 2218.86 3.02835 -1.52132 0
M  V30 23581 C 2218.04 3.36916 -2.78938 0
M  V30 23582 C 2217.09 4.54929 -2.64436 0
M  V30 23583 O 2216.12 4.57729 -3.38339 0
M  V30 23584 N 2217.32 5.53615 -1.74615 0
M  V30 23585 H 2220.09 1.54925 -2.56551 0
M  V30 23586 H 2217.65 0.708963 -1.45552 0
M  V30 23587 H 2219.64 3.79671 -1.40113 0
M  V30 23588 H 2218.21 3.06084 -0.634922 0
M  V30 23589 H 2217.43 2.49175 -3.0546 0
M  V30 23590 H 2218.72 3.56474 -3.63047 0
M  V30 23591 H 2218.12 5.54137 -1.13791 0
M  V30 23592 H 2216.67 6.29635 -1.68531 0
M  V30 23593 N 2220.11 1.37452 0.771027 0
M  V30 23594 C 2221.05 1.33273 1.88433 0
M  V30 23595 C 2222.02 0.198165 1.64914 0
M  V30 23596 O 2223.21 0.387639 1.86821 0
M  V30 23597 C 2220.35 1.14627 3.25507 0
M  V30 23598 C 2219.46 2.3732 3.60975 0
M  V30 23599 C 2218.6 2.11541 4.87261 0
M  V30 23600 C 2217.64 3.30097 5.15463 0
M  V30 23601 N 2216.77 3.03864 6.32938 0
M  V30 23602 H 2221.61 2.28458 1.9134 0
M  V30 23603 H 2219.15 1.13525 0.935446 0
M  V30 23604 H 2221.11 1.01838 4.0458 0
M  V30 23605 H 2219.74 0.230893 3.21973 0
M  V30 23606 H 2218.79 2.60847 2.76881 0
M  V30 23607 H 2220.1 3.25736 3.77754 0
M  V30 23608 H 2219.26 1.95787 5.74241 0
M  V30 23609 H 2217.99 1.20465 4.72588 0
M  V30 23610 H 2217 3.46389 4.26959 0
M  V30 23611 H 2218.22 4.22025 5.32045 0
M  V30 23612 H 2216.17 2.15418 6.19622 0
M  V30 23613 H 2216.09 3.85823 6.50136 0
M  V30 23614 H 2217.36 2.91729 7.22852 0
M  V30 23615 N 2221.58 -0.997276 1.22033 0
M  V30 23616 C 2222.83 -1.73276 1.04019 0
M  V30 23617 C 2223.15 -1.90285 -0.426222 0
M  V30 23618 O 2222.42 -1.45933 -1.30691 0
M  V30 23619 H 2221 -0.641993 0.381908 0
M  V30 23620 H 2223.67 -1.20135 1.53472 0
M  V30 23621 H 2222.76 -2.72893 1.51446 0
M  V30 23622 N 2223.06 -1.02932 -1.19343 0
M  V30 23623 C 2224.31 -0.721289 -1.88362 0
M  V30 23624 C 2224.62 0.753223 -1.80516 0
M  V30 23625 O 2225.83 1.17432 -2.4479 0
M  V30 23626 C 2224.29 -1.23984 -3.3787 0
M  V30 23627 C 2223.89 -2.74217 -3.54273 0
M  V30 23628 C 2225.64 -1.00782 -4.12363 0
M  V30 23629 C 2223.55 -3.19488 -4.97676 0
M  V30 23630 H 2222.48 -0.26611 -0.70548 0
M  V30 23631 H 2225.13 -1.24368 -1.34926 0
M  V30 23632 H 2223.51 -0.645369 -3.90706 0
M  V30 23633 H 2224.68 -3.39323 -3.11763 0
M  V30 23634 H 2223 -2.95704 -2.93169 0
M  V30 23635 H 2225.59 -1.32133 -5.18117 0
M  V30 23636 H 2225.94 0.0553576 -4.16263 0
M  V30 23637 H 2226.47 -1.56632 -3.65666 0
M  V30 23638 H 2223.21 -4.25137 -4.98938 0
M  V30 23639 H 2222.73 -2.5911 -5.40946 0
M  V30 23640 H 2224.41 -3.12855 -5.66331 0
M  V30 23641 N 2224.54 1.35356 -0.807246 0
M  V30 23642 C 2225.47 2.32339 -0.23255 0
M  V30 23643 C 2226.45 1.57505 0.642358 0
M  V30 23644 O 2227.64 1.8557 0.572493 0
M  V30 23645 C 2224.77 3.41736 0.619178 0
M  V30 23646 C 2223.72 4.27711 -0.157291 0
M  V30 23647 C 2223.05 5.28434 0.81618 0
M  V30 23648 C 2224.35 5.04373 -1.35665 0
M  V30 23649 H 2226.04 2.80652 -1.04281 0
M  V30 23650 H 2223.59 1.34933 -0.502904 0
M  V30 23651 H 2225.54 4.08586 1.03129 0
M  V30 23652 H 2224.26 2.92033 1.46233 0
M  V30 23653 H 2222.92 3.62442 -0.550589 0
M  V30 23654 H 2222.57 4.74998 1.65486 0
M  V30 23655 H 2222.27 5.86829 0.300964 0
M  V30 23656 H 2223.79 5.98155 1.22649 0
M  V30 23657 H 2225.21 5.64165 -1.01937 0
M  V30 23658 H 2223.61 5.72267 -1.8064 0
M  V30 23659 H 2224.68 4.34977 -2.14296 0
M  V30 23660 N 2226.02 0.560807 1.47284 0
M  V30 23661 C 2227.27 0.0380223 2.02064 0
M  V30 23662 C 2227.59 -1.31801 1.43714 0
M  V30 23663 O 2226.86 -1.86041 0.613652 0
M  V30 23664 H 2225.44 0.0110662 0.746918 0
M  V30 23665 H 2228.1 0.73163 1.80647 0
M  V30 23666 H 2227.2 -0.0473914 3.12064 0
M  V30 23667 N 2227.5 -1.54768 0.297442 0
M  V30 23668 C 2228.73 -2.04183 -0.315129 0
M  V30 23669 C 2229.13 -1.17441 -1.48338 0
M  V30 23670 O 2228.48 -0.191923 -1.82695 0
M  V30 23671 C 2228.54 -3.49608 -0.837521 0
M  V30 23672 C 2228.2 -4.5654 0.204992 0
M  V30 23673 C 2229.2 -5.0955 1.03222 0
M  V30 23674 C 2226.89 -5.01109 0.345666 0
M  V30 23675 C 2228.88 -6.05667 1.98611 0
M  V30 23676 C 2226.57 -5.97047 1.303 0
M  V30 23677 C 2227.56 -6.49209 2.1217 0
M  V30 23678 O 2227.25 -7.43268 3.06281 0
M  V30 23679 H 2226.98 -0.672052 -0.0729528 0
M  V30 23680 H 2229.54 -2.00764 0.433942 0
M  V30 23681 H 2227.77 -3.50339 -1.63706 0
M  V30 23682 H 2229.46 -3.82239 -1.36559 0
M  V30 23683 H 2230.22 -4.75914 0.934395 0
M  V30 23684 H 2226.1 -4.60139 -0.281629 0
M  V30 23685 H 2229.65 -6.46306 2.62553 0
M  V30 23686 H 2225.54 -6.301 1.40156 0
M  V30 23687 H 2226.31 -7.61058 3.01219 0
M  V30 23688 N 2228.97 -0.0251005 -1.5758 0
M  V30 23689 C 2230.2 0.668282 -1.96338 0
M  V30 23690 C 2230.62 1.65098 -0.901343 0
M  V30 23691 O 2229.98 1.80773 0.138155 0
M  V30 23692 C 2230.03 1.35451 -3.34194 0
M  V30 23693 O 2229.13 2.46968 -3.30273 0
M  V30 23694 H 2228.48 0.175876 -0.640284 0
M  V30 23695 H 2231.01 -0.0857583 -2.0442 0
M  V30 23696 H 2231.02 1.71222 -3.70334 0
M  V30 23697 H 2229.69 0.634146 -4.11037 0
M  V30 23698 H 2228.27 2.13339 -3.05845 0
M  V30 23699 N 2230.45 1.55637 0.247999 0
M  V30 23700 C 2231.38 1.86672 1.3299 0
M  V30 23701 C 2232.4 0.752903 1.44344 0
M  V30 23702 O 2233.59 1.03101 1.45714 0
M  V30 23703 C 2230.69 2.03687 2.7086 0
M  V30 23704 C 2229.86 3.34537 2.81786 0
M  V30 23705 C 2228.92 3.41308 4.00494 0
M  V30 23706 O 2227.94 4.14526 3.90073 0
M  V30 23707 N 2229.15 2.70521 5.13613 0
M  V30 23708 H 2231.91 2.80062 1.06702 0
M  V30 23709 H 2229.47 1.5586 0.438101 0
M  V30 23710 H 2231.46 2.05559 3.48608 0
M  V30 23711 H 2230.03 1.17046 2.8986 0
M  V30 23712 H 2229.25 3.44991 1.90723 0
M  V30 23713 H 2230.54 4.20786 2.86036 0
M  V30 23714 H 2229.94 2.10765 5.24971 0
M  V30 23715 H 2228.5 2.78087 5.895 0
M  V30 23716 N 2231.93 -0.513613 1.48996 0
M  V30 23717 C 2233.18 -1.26507 1.57095 0
M  V30 23718 C 2233.49 -1.93903 0.257126 0
M  V30 23719 O 2234.7 -2.70635 0.216526 0
M  V30 23720 C 2233.16 -2.29633 2.77122 0
M  V30 23721 C 2232.76 -1.68234 4.15212 0
M  V30 23722 C 2234.51 -3.05686 2.94544 0
M  V30 23723 C 2232.41 -2.69396 5.26478 0
M  V30 23724 H 2231.34 -0.475843 0.584884 0
M  V30 23725 H 2234 -0.540456 1.75361 0
M  V30 23726 H 2232.38 -3.05202 2.52324 0
M  V30 23727 H 2233.55 -0.987426 4.50096 0
M  V30 23728 H 2231.87 -1.04616 4.03044 0
M  V30 23729 H 2234.46 -3.81313 3.74839 0
M  V30 23730 H 2234.81 -3.62541 2.04621 0
M  V30 23731 H 2235.34 -2.37232 3.19321 0
M  V30 23732 H 2232.08 -2.1734 6.1842 0
M  V30 23733 H 2231.6 -3.37166 4.96064 0
M  V30 23734 H 2233.28 -3.32069 5.55283 0
M  V30 23735 N 2233.41 -1.37859 -0.763727 0
M  V30 23736 C 2234.66 -1.33245 -1.51954 0
M  V30 23737 C 2234.98 0.0801367 -1.94835 0
M  V30 23738 O 2234.25 1.02579 -1.66896 0
M  V30 23739 H 2232.83 -0.49025 -0.563617 0
M  V30 23740 H 2235.49 -1.72432 -0.908474 0
M  V30 23741 H 2234.59 -1.97673 -2.4152 0
M  V30 23742 N 2234.89 0.990791 -1.22561 0
M  V30 23743 C 2235.85 2.06288 -0.998899 0
M  V30 23744 C 2236.85 1.60761 0.0354551 0
M  V30 23745 O 2238.04 1.7301 -0.203261 0
M  V30 23746 C 2235.17 3.37075 -0.509263 0
M  V30 23747 H 2236.37 2.27833 -1.95018 0
M  V30 23748 H 2233.92 1.16267 -1.04459 0
M  V30 23749 H 2234.65 3.21215 0.446279 0
M  V30 23750 H 2234.44 3.71455 -1.25554 0
M  V30 23751 H 2235.93 4.15949 -0.370961 0
M  V30 23752 N 2236.37 1.03564 1.18795 0
M  V30 23753 C 2237.61 0.734602 1.88276 0
M  V30 23754 C 2237.93 -0.739554 1.80432 0
M  V30 23755 O 2237.2 -1.53331 1.21928 0
M  V30 23756 H 2235.78 0.268737 0.696986 0
M  V30 23757 H 2238.45 1.31131 1.44189 0
M  V30 23758 H 2237.54 1.03494 2.94441 0
M  V30 23759 N 2237.84 -1.34926 0.814413 0
M  V30 23760 C 2239.09 -1.98835 0.399048 0
M  V30 23761 C 2239.42 -1.6444 -1.03311 0
M  V30 23762 O 2238.7 -0.911689 -1.71809 0
M  V30 23763 C 2238.98 -3.55206 0.591692 0
M  V30 23764 C 2238.83 -3.99372 2.06935 0
M  V30 23765 C 2240.15 -4.40094 0.0222763 0
M  V30 23766 H 2237.27 -0.7223 0.146464 0
M  V30 23767 H 2239.91 -1.59955 1.0254 0
M  V30 23768 H 2238.06 -3.88456 0.0585124 0
M  V30 23769 H 2239.74 -3.76495 2.66551 0
M  V30 23770 H 2237.98 -3.49995 2.56293 0
M  V30 23771 H 2238.65 -5.08197 2.15499 0
M  V30 23772 H 2241.13 -4.13349 0.477716 0
M  V30 23773 H 2240 -5.48582 0.186928 0
M  V30 23774 H 2240.26 -4.28904 -1.07208 0
M  V30 23775 N 2239.32 -0.56861 -1.46985 0
M  V30 23776 C 2240.55 -0.0539536 -2.0653 0
M  V30 23777 C 2240.96 1.25023 -1.42007 0
M  V30 23778 O 2240.3 1.76346 -0.514572 0
M  V30 23779 C 2240.36 0.200791 -3.58939 0
M  V30 23780 C 2240.03 -1.01567 -4.45571 0
M  V30 23781 C 2241.03 -1.92416 -4.82983 0
M  V30 23782 C 2238.71 -1.23355 -4.86918 0
M  V30 23783 C 2240.7 -3.03412 -5.60553 0
M  V30 23784 C 2238.39 -2.34659 -5.6425 0
M  V30 23785 C 2239.39 -3.24518 -6.0098 0
M  V30 23786 O 2239.08 -4.3389 -6.76753 0
M  V30 23787 H 2238.81 -0.0480352 -0.674291 0
M  V30 23788 H 2241.36 -0.784929 -1.8981 0
M  V30 23789 H 2239.59 0.986213 -3.73913 0
M  V30 23790 H 2241.28 0.662223 -4.00461 0
M  V30 23791 H 2242.05 -1.76793 -4.5163 0
M  V30 23792 H 2237.93 -0.543259 -4.57788 0
M  V30 23793 H 2241.47 -3.73576 -5.89141 0
M  V30 23794 H 2237.37 -2.5025 -5.95017 0
M  V30 23795 H 2238.14 -4.32081 -6.95161 0
M  V30 23796 N 2240.8 1.54608 -0.305646 0
M  V30 23797 C 2241.75 2.23692 0.568382 0
M  V30 23798 C 2242.72 1.22118 1.1259 0
M  V30 23799 O 2243.9 1.50751 1.16956 0
M  V30 23800 C 2241.04 2.9848 1.73215 0
M  V30 23801 C 2240.15 4.14837 1.20558 0
M  V30 23802 C 2239.29 4.77197 2.33359 0
M  V30 23803 C 2238.33 5.8569 1.7786 0
M  V30 23804 N 2237.47 6.41985 2.84252 0
M  V30 23805 H 2242.31 2.97987 -0.0273391 0
M  V30 23806 H 2239.84 1.47078 -0.0252622 0
M  V30 23807 H 2241.8 3.40076 2.41669 0
M  V30 23808 H 2240.43 2.26552 2.29943 0
M  V30 23809 H 2239.48 3.7815 0.413156 0
M  V30 23810 H 2240.79 4.92986 0.759331 0
M  V30 23811 H 2239.95 5.21669 3.09751 0
M  V30 23812 H 2238.69 3.98389 2.81313 0
M  V30 23813 H 2237.69 5.40637 0.999585 0
M  V30 23814 H 2238.92 6.66384 1.30804 0
M  V30 23815 H 2236.86 5.66059 3.31531 0
M  V30 23816 H 2236.78 7.15495 2.44136 0
M  V30 23817 H 2238.05 6.91115 3.60528 0
M  V30 23818 N 2242.28 0.033457 1.57564 0
M  V30 23819 C 2243.19 -0.962535 2.13945 0
M  V30 23820 C 2244.2 -1.35404 1.09278 0
M  V30 23821 O 2245.38 -1.43457 1.41358 0
M  V30 23822 C 2242.44 -2.22492 2.65891 0
M  V30 23823 C 2241.51 -1.89343 3.85289 0
M  V30 23824 C 2240.74 -3.09564 4.34748 0
M  V30 23825 O 2240.96 -4.22364 3.8336 0
M  V30 23826 O 2239.9 -2.91609 5.26543 0
M  V30 23827 H 2243.72 -0.513116 2.99334 0
M  V30 23828 H 2241.31 -0.187404 1.4822 0
M  V30 23829 H 2243.19 -2.96592 2.99351 0
M  V30 23830 H 2241.86 -2.66607 1.83583 0
M  V30 23831 H 2240.77 -1.12614 3.56748 0
M  V30 23832 H 2242.1 -1.50042 4.68773 0
M  V30 23833 N 2243.76 -1.55766 -0.239741 0
M  V30 23834 C 2245 -1.77581 -0.96486 0
M  V30 23835 C 2245.32 -0.598732 -1.85581 0
M  V30 23836 O 2244.59 0.385193 -1.92076 0
M  V30 23837 H 2243.17 -0.65494 -0.359253 0
M  V30 23838 H 2245.84 -1.93212 -0.255967 0
M  V30 23839 H 2244.93 -2.69011 -1.58238 0
M  V30 23840 N 2245.23 0.505704 -1.49266 0
M  V30 23841 C 2246.46 1.28426 -1.62217 0
M  V30 23842 C 2246.88 1.86533 -0.29173 0
M  V30 23843 O 2246.23 1.67602 0.722204 0
M  V30 23844 C 2246.28 2.41788 -2.68739 0
M  V30 23845 O 2246.01 1.86071 -3.96622 0
M  V30 23846 C 2247.51 3.33235 -2.92352 0
M  V30 23847 H 2244.73 0.389687 -0.546246 0
M  V30 23848 H 2247.27 0.607575 -1.95266 0
M  V30 23849 H 2245.43 3.05296 -2.38481 0
M  V30 23850 H 2245.84 2.60457 -4.55261 0
M  V30 23851 H 2247.31 4.09068 -3.70631 0
M  V30 23852 H 2247.79 3.89945 -2.02088 0
M  V30 23853 H 2248.4 2.75498 -3.24008 0
M  V30 23854 N 2246.71 1.38262 0.756405 0
M  V30 23855 C 2247.96 1.34315 1.51545 0
M  V30 23856 C 2248.29 -0.0676802 1.94382 0
M  V30 23857 O 2247.54 -1.04418 1.65516 0
M  V30 23858 C 2247.84 2.24229 2.78309 0
M  V30 23859 C 2247.51 3.72246 2.54449 0
M  V30 23860 C 2246.17 4.12581 2.4765 0
M  V30 23861 C 2248.52 4.65953 2.33532 0
M  V30 23862 C 2245.85 5.44717 2.17946 0
M  V30 23863 C 2248.2 5.98343 2.05349 0
M  V30 23864 C 2246.87 6.37766 1.97005 0
M  V30 23865 H 2246.14 0.491492 0.554542 0
M  V30 23866 H 2248.78 1.70596 0.870009 0
M  V30 23867 H 2247.09 1.80993 3.47489 0
M  V30 23868 H 2248.78 2.1848 3.36255 0
M  V30 23869 H 2245.37 3.40265 2.6061 0
M  V30 23870 H 2249.56 4.35639 2.37765 0
M  V30 23871 H 2244.81 5.74207 2.09992 0
M  V30 23872 H 2248.99 6.70497 1.88167 0
M  V30 23873 H 2246.62 7.40077 1.73753 0
M  V30 23874 N 2248.19 -0.984277 1.23084 0
M  V30 23875 C 2249.14 -2.06064 0.975786 0
M  V30 23876 C 2250.12 -1.60717 -0.0767969 0
M  V30 23877 O 2251.32 -1.76486 0.134836 0
M  V30 23878 C 2248.45 -3.38623 0.564733 0
M  V30 23879 C 2247.53 -3.9058 1.65251 0
M  V30 23880 N 2247.92 -4.15661 2.88201 0
M  V30 23881 C 2246.22 -4.19074 1.52619 0
M  V30 23882 C 2246.92 -4.58018 3.58601 0
M  V30 23883 N 2245.9 -4.6222 2.86101 0
M  V30 23884 H 2249.7 -2.23408 1.90961 0
M  V30 23885 H 2247.21 -1.16673 1.12965 0
M  V30 23886 H 2249.21 -4.15314 0.363293 0
M  V30 23887 H 2247.87 -3.22675 -0.36209 0
M  V30 23888 H 2248.88 -4.03598 3.24544 0
M  V30 23889 H 2245.56 -4.12151 0.666193 0
M  V30 23890 H 2246.95 -4.85974 4.63982 0
M  V30 23891 N 2249.67 -1.04192 -1.18244 0
M  V30 23892 C 2250.9 -0.766106 -1.92194 0
M  V30 23893 C 2251.31 0.676902 -1.76248 0
M  V30 23894 O 2250.67 1.46153 -1.09296 0
M  V30 23895 C 2250.72 -1.12448 -3.43566 0
M  V30 23896 O 2250.44 -2.51084 -3.5901 0
M  V30 23897 C 2251.94 -0.873351 -4.34612 0
M  V30 23898 H 2249.16 -0.279299 -0.610109 0
M  V30 23899 H 2251.71 -1.38992 -1.50005 0
M  V30 23900 H 2249.86 -0.54561 -3.83539 0
M  V30 23901 H 2250.27 -2.64839 -4.52726 0
M  V30 23902 H 2251.75 -1.17395 -5.39372 0
M  V30 23903 H 2252.23 0.191832 -4.38781 0
M  V30 23904 H 2252.83 -1.43558 -4.00339 0
M  V30 23905 N 2251.15 1.34492 -0.821557 0
M  V30 23906 C 2252.08 2.27426 -0.187744 0
M  V30 23907 C 2253.06 1.48822 0.655044 0
M  V30 23908 O 2254.24 1.78044 0.61908 0
M  V30 23909 C 2251.37 3.30563 0.737937 0
M  V30 23910 C 2250.41 4.26491 -0.0271463 0
M  V30 23911 S 2251.25 5.17589 -1.37338 0
M  V30 23912 C 2252.4 6.24262 -0.452537 0
M  V30 23913 H 2252.64 2.80835 -0.975647 0
M  V30 23914 H 2250.17 1.41519 -0.617385 0
M  V30 23915 H 2252.13 3.90475 1.26647 0
M  V30 23916 H 2250.79 2.76004 1.49935 0
M  V30 23917 H 2249.98 4.99439 0.676513 0
M  V30 23918 H 2249.58 3.70826 -0.486185 0
M  V30 23919 H 2251.88 6.76562 0.356438 0
M  V30 23920 H 2252.82 6.98672 -1.15165 0
M  V30 23921 H 2253.23 5.64485 -0.0415747 0
M  V30 23922 N 2252.62 0.576397 1.46681 0
M  V30 23923 C 2253.87 0.0679662 2.03286 0
M  V30 23924 C 2254.23 -1.27527 1.44065 0
M  V30 23925 O 2253.52 -1.8216 0.594005 0
M  V30 23926 C 2253.71 -0.0628232 3.57345 0
M  V30 23927 C 2253.54 1.26618 4.31507 0
M  V30 23928 C 2252.31 1.83864 4.70661 0
M  V30 23929 C 2254.51 2.18791 4.6544 0
M  V30 23930 N 2252.49 3.1057 5.29546 0
M  V30 23931 C 2253.86 3.30082 5.2483 0
M  V30 23932 C 2255.92 2.18549 4.47371 0
M  V30 23933 C 2254.62 4.41254 5.68056 0
M  V30 23934 C 2256.65 3.28747 4.91609 0
M  V30 23935 C 2256.01 4.38758 5.51063 0
M  V30 23936 H 2252.11 0.0674973 0.779082 0
M  V30 23937 H 2254.69 0.767908 1.78917 0
M  V30 23938 H 2252.86 -0.731921 3.81441 0
M  V30 23939 H 2254.59 -0.575063 4.00593 0
M  V30 23940 H 2251.35 1.37432 4.53221 0
M  V30 23941 H 2251.77 3.75205 5.63516 0
M  V30 23942 H 2256.42 1.34772 4.00745 0
M  V30 23943 H 2254.13 5.25779 6.13663 0
M  V30 23944 H 2257.72 3.29671 4.79383 0
M  V30 23945 H 2256.6 5.22621 5.84668 0
M  V30 23946 N 2254.1 -1.54444 0.313841 0
M  V30 23947 C 2255.05 -2.20712 -0.571859 0
M  V30 23948 C 2256.04 -1.18437 -1.08911 0
M  V30 23949 O 2257.23 -1.44106 -1.02774 0
M  V30 23950 C 2254.36 -2.96111 -1.73704 0
M  V30 23951 C 2253.44 -4.05715 -1.23515 0
M  V30 23952 N 2253.83 -5.03775 -0.4522 0
M  V30 23953 C 2252.13 -4.1949 -1.51475 0
M  V30 23954 C 2252.83 -5.81411 -0.183335 0
M  V30 23955 N 2251.81 -5.38165 -0.76675 0
M  V30 23956 H 2255.61 -2.93881 0.0337319 0
M  V30 23957 H 2253.13 -1.61962 0.11922 0
M  V30 23958 H 2255.12 -3.42064 -2.38323 0
M  V30 23959 H 2253.78 -2.24462 -2.34621 0
M  V30 23960 H 2254.79 -5.17811 -0.0959221 0
M  V30 23961 H 2251.47 -3.59051 -2.13046 0
M  V30 23962 H 2252.86 -6.70416 0.446334 0
M  V30 23963 N 2255.58 -0.0418125 -1.57545 0
M  V30 23964 C 2256.83 0.634987 -1.92603 0
M  V30 23965 C 2257.16 1.71044 -0.919657 0
M  V30 23966 O 2256.43 1.9442 0.055755 0
M  V30 23967 C 2256.72 1.23973 -3.38087 0
M  V30 23968 C 2256.57 0.172978 -4.49467 0
M  V30 23969 C 2257.89 2.1541 -3.83779 0
M  V30 23970 H 2255.01 0.229362 -0.700401 0
M  V30 23971 H 2257.65 -0.101666 -1.89728 0
M  V30 23972 H 2255.8 1.86756 -3.40667 0
M  V30 23973 H 2257.47 -0.458392 -4.59017 0
M  V30 23974 H 2255.72 -0.500072 -4.30908 0
M  V30 23975 H 2256.39 0.635957 -5.48324 0
M  V30 23976 H 2258.86 1.62599 -3.83016 0
M  V30 23977 H 2257.74 2.5467 -4.86245 0
M  V30 23978 H 2258 3.05042 -3.20003 0
M  V30 23979 N 2257.06 1.55891 0.231477 0
M  V30 23980 C 2258.29 1.82515 0.974473 0
M  V30 23981 C 2258.7 0.619622 1.78343 0
M  V30 23982 O 2258.06 -0.411817 1.77793 0
M  V30 23983 C 2258.11 3.07542 1.90001 0
M  V30 23984 O 2257.83 4.23442 1.12377 0
M  V30 23985 C 2259.33 3.4708 2.75773 0
M  V30 23986 H 2256.55 0.606971 0.286054 0
M  V30 23987 H 2259.1 2.0297 0.249703 0
M  V30 23988 H 2257.25 2.89091 2.57886 0
M  V30 23989 H 2257.66 4.94403 1.75117 0
M  V30 23990 H 2259.14 4.37625 3.36435 0
M  V30 23991 H 2259.62 2.68373 3.47667 0
M  V30 23992 H 2260.22 3.67935 2.13317 0
M  V30 23993 N 2258.54 -0.497781 1.49532 0
M  V30 23994 C 2259.95 -0.829242 1.36366 0
M  V30 23995 C 2260.15 -1.97506 0.399218 0
M  V30 23996 O 2259.21 -2.51941 -0.167933 0
M  V30 23997 C 2260.52 -1.16642 2.77155 0
M  V30 23998 C 2262.07 -1.27444 2.85879 0
M  V30 23999 C 2262.54 -1.64489 4.27443 0
M  V30 24000 N 2264.04 -1.71532 4.30268 0
M  V30 24001 C 2264.77 -2.01647 5.36774 0
M  V30 24002 N 2264.27 -2.29964 6.5352 0
M  V30 24003 N 2266.06 -2.02925 5.24193 0
M  V30 24004 H 2258.21 0.257741 2.1083 0
M  V30 24005 H 2260.47 0.0527257 0.946533 0
M  V30 24006 H 2260.18 -0.397811 3.49443 0
M  V30 24007 H 2260.05 -2.10909 3.12725 0
M  V30 24008 H 2262.44 -2.03376 2.13827 0
M  V30 24009 H 2262.52 -0.3122 2.53888 0
M  V30 24010 H 2262.17 -0.891063 5.00022 0
M  V30 24011 H 2262.1 -2.61819 4.56901 0
M  V30 24012 H 2264.59 -1.51796 3.46073 0
M  V30 24013 H 2264.9 -2.5214 7.3051 0
M  V30 24014 H 2263.24 -2.27414 6.56741 0
M  V30 24015 H 2266.44 -1.80281 4.31991 0
M  V30 24016 H 2266.61 -2.26061 6.0729 0
M  V30 24017 N 2260.01 -1.38661 -0.749062 0
M  V30 24018 C 2261.26 -1.3485 -1.50532 0
M  V30 24019 C 2261.58 0.0594673 -1.94909 0
M  V30 24020 O 2260.85 1.00803 -1.67975 0
M  V30 24021 H 2259.43 -0.4962 -0.558386 0
M  V30 24022 H 2262.1 -1.73386 -0.890134 0
M  V30 24023 H 2261.19 -2.00223 -2.3941 0
M  V30 24024 N 2261.49 0.977736 -1.23605 0
M  V30 24025 C 2262.46 2.05217 -1.02072 0
M  V30 24026 C 2263.46 1.60789 0.0184023 0
M  V30 24027 O 2264.65 1.72785 -0.2216 0
M  V30 24028 C 2261.78 3.36516 -0.544985 0
M  V30 24029 H 2262.97 2.25752 -1.97424 0
M  V30 24030 H 2260.52 1.15153 -1.05686 0
M  V30 24031 H 2261.26 3.2167 0.412184 0
M  V30 24032 H 2261.04 3.70102 -1.29486 0
M  V30 24033 H 2262.53 4.15532 -0.415058 0
M  V30 24034 N 2262.97 1.04818 1.1769 0
M  V30 24035 C 2264.22 0.757143 1.88136 0
M  V30 24036 C 2264.55 -0.713809 1.80606 0
M  V30 24037 O 2263.83 -1.52162 1.21149 0
M  V30 24038 C 2264.11 1.23346 3.38316 0
M  V30 24039 C 2263.96 2.76707 3.54617 0
M  V30 24040 C 2265.28 0.829491 4.32212 0
M  V30 24041 H 2262.4 0.276522 0.683158 0
M  V30 24042 H 2265.04 1.30151 1.38422 0
M  V30 24043 H 2263.19 0.770352 3.80786 0
M  V30 24044 H 2264.86 3.31113 3.21188 0
M  V30 24045 H 2263.11 3.16167 2.9702 0
M  V30 24046 H 2263.78 3.05096 4.60022 0
M  V30 24047 H 2266.25 1.22812 3.97563 0
M  V30 24048 H 2265.13 1.19043 5.35836 0
M  V30 24049 H 2265.39 -0.266814 4.41294 0
M  V30 24050 N 2264.45 -1.34055 0.828678 0
M  V30 24051 C 2265.38 -2.3194 0.269483 0
M  V30 24052 C 2266.36 -1.58507 -0.617219 0
M  V30 24053 O 2267.55 -1.86457 -0.542898 0
M  V30 24054 C 2264.68 -3.42678 -0.564733 0
M  V30 24055 C 2263.63 -4.27407 0.225316 0
M  V30 24056 C 2262.96 -5.29666 -0.732007 0
M  V30 24057 C 2264.26 -5.02151 1.43672 0
M  V30 24058 H 2265.95 -2.78958 1.08733 0
M  V30 24059 H 2263.5 -1.34116 0.524307 0
M  V30 24060 H 2265.45 -4.10175 -0.966161 0
M  V30 24061 H 2264.17 -2.94323 -1.41569 0
M  V30 24062 H 2262.83 -3.6152 0.608181 0
M  V30 24063 H 2262.48 -4.77571 -1.57908 0
M  V30 24064 H 2262.18 -5.87233 -0.207566 0
M  V30 24065 H 2263.7 -6.00031 -1.13117 0
M  V30 24066 H 2265.12 -5.62471 1.109 0
M  V30 24067 H 2263.51 -5.6932 1.89721 0
M  V30 24068 H 2264.58 -4.31513 2.21189 0
M  V30 24069 N 2265.93 -0.584167 -1.46374 0
M  V30 24070 C 2266.86 0.196636 -2.27351 0
M  V30 24071 C 2267.84 0.895537 -1.35716 0
M  V30 24072 O 2269.02 0.909131 -1.65127 0
M  V30 24073 C 2266.15 1.28229 -3.13488 0
M  V30 24074 C 2265.2 0.689071 -4.20897 0
M  V30 24075 S 2266.03 -0.485164 -5.33298 0
M  V30 24076 C 2267.18 0.601658 -6.23002 0
M  V30 24077 H 2267.42 -0.490447 -2.93227 0
M  V30 24078 H 2264.95 -0.371098 -1.49874 0
M  V30 24079 H 2266.91 1.90388 -3.63679 0
M  V30 24080 H 2265.57 1.94133 -2.46923 0
M  V30 24081 H 2264.76 1.50518 -4.80999 0
M  V30 24082 H 2264.36 0.143115 -3.73726 0
M  V30 24083 H 2266.66 1.48694 -6.60981 0
M  V30 24084 H 2267.6 0.0373554 -7.0809 0
M  V30 24085 H 2268.01 0.906459 -5.57175 0
M  V30 24086 N 2267.41 1.54275 -0.322027 0
M  V30 24087 C 2268.36 2.21012 0.560146 0
M  V30 24088 C 2269.34 1.19013 1.08281 0
M  V30 24089 O 2270.53 1.44649 1.02009 0
M  V30 24090 C 2267.66 2.97028 1.72132 0
M  V30 24091 C 2266.75 4.06365 1.21361 0
M  V30 24092 N 2267.14 5.04007 0.425477 0
M  V30 24093 C 2265.44 4.20287 1.49248 0
M  V30 24094 C 2266.14 5.815 0.152499 0
M  V30 24095 N 2265.11 5.38564 0.738199 0
M  V30 24096 H 2268.91 2.93859 -0.0493166 0
M  V30 24097 H 2266.43 1.61896 -0.127808 0
M  V30 24098 H 2268.43 3.43323 2.36506 0
M  V30 24099 H 2267.09 2.25703 2.33427 0
M  V30 24100 H 2268.1 5.17855 0.0684599 0
M  V30 24101 H 2264.77 3.60176 2.11139 0
M  V30 24102 H 2266.16 6.7017 -0.481882 0
M  V30 24103 N 2268.88 0.0501669 1.5752 0
M  V30 24104 C 2269.83 -0.924566 2.11472 0
M  V30 24105 C 2270.8 -1.30949 1.02184 0
M  V30 24106 O 2271.99 -1.39914 1.29726 0
M  V30 24107 C 2269.13 -2.19446 2.66341 0
M  V30 24108 C 2268.24 -1.86411 3.89711 0
M  V30 24109 C 2267.37 -3.07851 4.32899 0
M  V30 24110 C 2266.41 -2.70733 5.48972 0
M  V30 24111 N 2265.55 -3.84863 5.87218 0
M  V30 24112 H 2270.39 -0.457588 2.94466 0
M  V30 24113 H 2267.93 -0.214241 1.45532 0
M  V30 24114 H 2269.88 -2.93753 2.96252 0
M  V30 24115 H 2268.51 -2.63723 1.86146 0
M  V30 24116 H 2267.57 -1.02257 3.66398 0
M  V30 24117 H 2268.88 -1.55088 4.74077 0
M  V30 24118 H 2268.03 -3.90458 4.64357 0
M  V30 24119 H 2266.77 -3.42352 3.47342 0
M  V30 24120 H 2265.78 -1.86542 5.17187 0
M  V30 24121 H 2267 -2.37425 6.36244 0
M  V30 24122 H 2264.95 -4.19166 5.04614 0
M  V30 24123 H 2264.86 -3.57235 6.66273 0
M  V30 24124 H 2266.13 -4.68113 6.2329 0
M  V30 24125 N 2270.36 -1.56011 -0.223207 0
M  V30 24126 C 2271.61 -1.78594 -0.945971 0
M  V30 24127 C 2271.93 -0.618381 -1.84935 0
M  V30 24128 O 2271.2 0.364799 -1.92473 0
M  V30 24129 H 2269.78 -0.658713 -0.352287 0
M  V30 24130 H 2272.44 -1.93472 -0.23546 0
M  V30 24131 H 2271.54 -2.70675 -1.55376 0
M  V30 24132 N 2271.84 0.489844 -1.49794 0
M  V30 24133 C 2272.79 1.59011 -1.67284 0
M  V30 24134 C 2273.76 1.5794 -0.514204 0
M  V30 24135 O 2274.94 1.75757 -0.742564 0
M  V30 24136 C 2272.08 2.97099 -1.75574 0
M  V30 24137 C 2271.19 3.08102 -3.02816 0
M  V30 24138 C 2270.33 4.3699 -3.02016 0
M  V30 24139 C 2269.37 4.41666 -4.2379 0
M  V30 24140 N 2268.51 5.61998 -4.20836 0
M  V30 24141 H 2273.35 1.43405 -2.61226 0
M  V30 24142 H 2270.88 0.697542 -1.2951 0
M  V30 24143 H 2272.84 3.77152 -1.78361 0
M  V30 24144 H 2271.47 3.11384 -0.850882 0
M  V30 24145 H 2270.52 2.21041 -3.09588 0
M  V30 24146 H 2271.83 3.07416 -3.92806 0
M  V30 24147 H 2270.99 5.25373 -3.03427 0
M  V30 24148 H 2269.73 4.40256 -2.09823 0
M  V30 24149 H 2268.73 3.51683 -4.2261 0
M  V30 24150 H 2269.96 4.40106 -5.17188 0
M  V30 24151 H 2267.9 5.66086 -3.31486 0
M  V30 24152 H 2267.82 5.62976 -5.04574 0
M  V30 24153 H 2269.09 6.52558 -4.26367 0
M  V30 24154 N 2273.32 1.39056 0.741698 0
M  V30 24155 C 2274.73 1.20514 1.04636 0
M  V30 24156 C 2274.93 0.0620572 2.01404 0
M  V30 24157 O 2273.99 -0.588414 2.45548 0
M  V30 24158 C 2275.3 2.53646 1.61506 0
M  V30 24159 C 2276.85 2.60433 1.73619 0
M  V30 24160 C 2277.33 3.93771 2.33899 0
M  V30 24161 N 2278.82 3.95374 2.41316 0
M  V30 24162 C 2279.55 4.95314 2.8888 0
M  V30 24163 N 2279.05 6.05651 3.3639 0
M  V30 24164 N 2280.84 4.82697 2.88028 0
M  V30 24165 H 2272.99 2.12166 0.0997782 0
M  V30 24166 H 2275.25 0.941955 0.10689 0
M  V30 24167 H 2274.96 3.37809 0.97868 0
M  V30 24168 H 2274.83 2.72889 2.60406 0
M  V30 24169 H 2277.22 1.76659 2.3638 0
M  V30 24170 H 2277.3 2.45046 0.733902 0
M  V30 24171 H 2276.95 4.77973 1.71767 0
M  V30 24172 H 2276.88 4.06475 3.34792 0
M  V30 24173 H 2279.37 3.15686 2.07728 0
M  V30 24174 H 2279.68 6.77827 3.71174 0
M  V30 24175 H 2278.03 6.09254 3.34416 0
M  V30 24176 H 2281.22 3.95604 2.5023 0
M  V30 24177 H 2281.39 5.60732 3.24783 0
M  V30 24178 N 2274.8 -0.971167 1.24121 0
M  V30 24179 C 2276.04 -1.70799 1.07287 0
M  V30 24180 C 2276.36 -1.91696 -0.388868 0
M  V30 24181 O 2277.56 -2.62915 -0.677333 0
M  V30 24182 C 2276.02 -3.07413 1.8715 0
M  V30 24183 C 2275.63 -2.94371 3.37712 0
M  V30 24184 C 2277.37 -3.84992 1.78834 0
M  V30 24185 C 2275.28 -4.26274 4.09933 0
M  V30 24186 H 2274.21 -0.640483 0.397865 0
M  V30 24187 H 2276.86 -1.08247 1.48172 0
M  V30 24188 H 2275.24 -3.70774 1.39078 0
M  V30 24189 H 2276.42 -2.40044 3.93339 0
M  V30 24190 H 2274.73 -2.30261 3.46942 0
M  V30 24191 H 2277.33 -4.82658 2.30098 0
M  V30 24192 H 2277.67 -4.09435 0.752912 0
M  V30 24193 H 2278.2 -3.2835 2.24568 0
M  V30 24194 H 2274.94 -4.07024 5.13821 0
M  V30 24195 H 2274.46 -4.8043 3.59091 0
M  V30 24196 H 2276.14 -4.94912 4.16739 0
M  V30 24197 N 2276.27 -1.05441 -1.17133 0
M  V30 24198 C 2277.18 -0.668405 -2.24877 0
M  V30 24199 C 2278.2 0.311657 -1.71186 0
M  V30 24200 O 2279.38 0.163126 -2.00738 0
M  V30 24201 C 2276.44 -0.0517089 -3.46661 0
M  V30 24202 C 2275.5 -1.08254 -4.15427 0
M  V30 24203 C 2274.74 -0.495175 -5.31398 0
M  V30 24204 O 2274.96 0.694643 -5.66154 0
M  V30 24205 O 2273.89 -1.23066 -5.89184 0
M  V30 24206 H 2277.72 -1.56642 -2.60187 0
M  V30 24207 H 2275.3 -0.826125 -1.24481 0
M  V30 24208 H 2277.19 0.290892 -4.20395 0
M  V30 24209 H 2275.86 0.819916 -3.13144 0
M  V30 24210 H 2274.77 -1.47717 -3.43701 0
M  V30 24211 H 2276.1 -1.9254 -4.52978 0
M  V30 24212 N 2277.75 1.33613 -0.835776 0
M  V30 24213 C 2279.16 1.80233 -0.487131 0
M  V30 24214 C 2279.51 1.69181 0.993597 0
M  V30 24215 O 2278.64 1.23927 1.77401 0
M  V30 24216 C 2279.23 3.27241 -0.877442 0
M  V30 24217 C 2277.79 3.71889 -0.580981 0
M  V30 24218 C 2276.94 2.55088 -1.08744 0
M  V30 24219 H 2279.89 1.21179 -1.02476 0
M  V30 24220 H 2279.91 3.80044 -0.186262 0
M  V30 24221 H 2279.42 3.35253 -1.95518 0
M  V30 24222 H 2277.53 3.69406 0.486817 0
M  V30 24223 H 2277.64 4.65485 -1.13405 0
M  V30 24224 H 2276 2.49574 -0.508436 0
M  V30 24225 H 2276.79 2.65864 -2.17189 0
M  V30 24226 N 2279.23 0.591922 1.46062 0
M  V30 24227 C 2280.46 0.0850678 2.07225 0
M  V30 24228 C 2280.88 -1.21461 1.43628 0
M  V30 24229 O 2280.24 -1.73583 0.523336 0
M  V30 24230 C 2280.29 -0.0575933 3.60554 0
M  V30 24231 O 2279.39 -1.11181 3.9713 0
M  V30 24232 H 2278.73 0.0669684 0.660614 0
M  V30 24233 H 2281.26 0.817483 1.87559 0
M  V30 24234 H 2281.27 -0.260829 4.07165 0
M  V30 24235 H 2279.95 0.891488 4.06233 0
M  V30 24236 H 2278.52 -0.886292 3.62214 0
M  V30 24237 N 2280.71 -1.54102 0.330204 0
M  V30 24238 C 2281.95 -2.01686 -0.263506 0
M  V30 24239 C 2282.31 -1.2141 -1.49256 0
M  V30 24240 O 2281.6 -0.289885 -1.89394 0
M  V30 24241 C 2281.8 -3.51567 -0.643072 0
M  V30 24242 C 2281.63 -4.46353 0.54765 0
M  V30 24243 C 2280.4 -4.94295 1.04882 0
M  V30 24244 C 2282.59 -4.94824 1.40193 0
M  V30 24245 N 2280.58 -5.73001 2.20326 0
M  V30 24246 C 2281.95 -5.71519 2.40345 0
M  V30 24247 C 2284 -4.76955 1.42893 0
M  V30 24248 C 2282.7 -6.32248 3.43009 0
M  V30 24249 C 2284.73 -5.38524 2.4443 0
M  V30 24250 C 2284.09 -6.15076 3.43309 0
M  V30 24251 H 2280.19 -0.779688 -0.0600889 0
M  V30 24252 H 2282.78 -1.89023 0.466747 0
M  V30 24253 H 2280.95 -3.64462 -1.34245 0
M  V30 24254 H 2282.68 -3.8591 -1.21882 0
M  V30 24255 H 2279.43 -4.69537 0.619038 0
M  V30 24256 H 2279.86 -6.17029 2.78576 0
M  V30 24257 H 2284.5 -4.17326 0.678122 0
M  V30 24258 H 2282.22 -6.90993 4.18992 0
M  V30 24259 H 2285.8 -5.26611 2.47329 0
M  V30 24260 H 2284.68 -6.61871 4.20591 0
M  V30 24261 N 2282.19 -0.0585199 -1.57491 0
M  V30 24262 C 2283.15 0.89858 -2.10851 0
M  V30 24263 C 2284.15 1.2351 -1.02966 0
M  V30 24264 O 2285.34 1.17056 -1.29009 0
M  V30 24265 C 2282.47 2.20618 -2.59885 0
M  V30 24266 H 2283.66 0.435883 -2.96715 0
M  V30 24267 H 2281.22 0.189995 -1.55141 0
M  V30 24268 H 2281.95 2.71454 -1.77436 0
M  V30 24269 H 2281.74 1.97495 -3.3873 0
M  V30 24270 H 2283.23 2.89161 -3.0129 0
M  V30 24271 N 2283.66 1.56128 0.21493 0
M  V30 24272 C 2284.94 1.70248 0.963063 0
M  V30 24273 C 2285.32 0.607676 2.02165 0
M  V30 24274 O 2284.67 -0.384345 2.25244 0
M  V30 24275 C 2284.88 3.11818 1.5675 0
M  V30 24276 C 2286.23 3.71434 2.05723 0
M  V30 24277 O 2287.25 3.14821 1.66631 0
M  V30 24278 O 2286.11 4.70748 2.77595 0
M  V30 24279 H 2283.2 0.693651 0.450309 0
M  V30 24280 H 2285.75 1.68443 0.206189 0
M  V30 24281 H 2284.52 3.82962 0.803465 0
M  V30 24282 H 2284.15 3.17769 2.38974 0
M  V30 24283 N 2285.14 -0.481893 1.50052 0
M  V30 24284 C 2286.39 -1.23658 1.60738 0
M  V30 24285 C 2286.72 -1.9184 0.30182 0
M  V30 24286 O 2286 -1.81621 -0.695993 0
M  V30 24287 C 2286.28 -2.28869 2.78013 0
M  V30 24288 C 2286.13 -1.65062 4.18419 0
M  V30 24289 C 2287.45 -3.30274 2.90873 0
M  V30 24290 H 2284.57 -0.448218 0.585038 0
M  V30 24291 H 2287.21 -0.531914 1.82403 0
M  V30 24292 H 2285.36 -2.88969 2.59672 0
M  V30 24293 H 2287.03 -1.08642 4.48324 0
M  V30 24294 H 2285.28 -0.954074 4.23178 0
M  V30 24295 H 2285.95 -2.41465 4.96385 0
M  V30 24296 H 2288.42 -2.80186 3.07628 0
M  V30 24297 H 2287.3 -4.01231 3.74573 0
M  V30 24298 H 2287.56 -3.93751 2.01028 0
M  V30 24299 N 2286.62 -1.39448 -0.734313 0
M  V30 24300 C 2287.57 -1.38222 -1.84833 0
M  V30 24301 C 2288.54 -0.241819 -1.6433 0
M  V30 24302 O 2289.72 -0.437035 -1.85727 0
M  V30 24303 C 2286.86 -1.23217 -3.22353 0
M  V30 24304 C 2285.98 -2.46808 -3.54556 0
M  V30 24305 C 2285.11 -2.24386 -4.81482 0
M  V30 24306 C 2284.15 -3.43648 -5.0653 0
M  V30 24307 N 2283.29 -3.20539 -6.24659 0
M  V30 24308 H 2288.13 -2.33451 -1.85215 0
M  V30 24309 H 2285.66 -1.15965 -0.905018 0
M  V30 24310 H 2287.62 -1.12529 -4.01738 0
M  V30 24311 H 2286.25 -0.316178 -3.21248 0
M  V30 24312 H 2285.3 -2.68096 -2.69868 0
M  V30 24313 H 2286.62 -3.35636 -3.68985 0
M  V30 24314 H 2285.77 -2.10943 -5.68848 0
M  V30 24315 H 2284.51 -1.32952 -4.69228 0
M  V30 24316 H 2283.51 -3.57588 -4.17625 0
M  V30 24317 H 2284.74 -4.35983 -5.20668 0
M  V30 24318 H 2282.68 -2.31771 -6.13692 0
M  V30 24319 H 2282.6 -4.02925 -6.39678 0
M  V30 24320 H 2283.87 -3.10792 -7.14863 0
M  V30 24321 N 2288.1 0.964571 -1.24635 0
M  V30 24322 C 2289.05 2.05966 -1.04148 0
M  V30 24323 C 2290.02 1.66036 0.0462328 0
M  V30 24324 O 2291.2 1.90488 -0.109006 0
M  V30 24325 C 2288.34 3.38814 -0.65569 0
M  V30 24326 C 2287.45 3.9192 -1.81721 0
M  V30 24327 C 2286.59 5.1305 -1.37671 0
M  V30 24328 C 2285.63 5.58361 -2.50798 0
M  V30 24329 N 2284.76 6.70708 -2.07593 0
M  V30 24330 H 2289.6 2.22823 -1.97873 0
M  V30 24331 H 2287.14 1.09206 -0.985519 0
M  V30 24332 H 2289.1 4.1515 -0.413027 0
M  V30 24333 H 2287.73 3.21872 0.24457 0
M  V30 24334 H 2286.78 3.12194 -2.17345 0
M  V30 24335 H 2288.09 4.21504 -2.66712 0
M  V30 24336 H 2287.25 5.96771 -1.09311 0
M  V30 24337 H 2285.99 4.85157 -0.497378 0
M  V30 24338 H 2284.99 4.7321 -2.79914 0
M  V30 24339 H 2286.22 5.88266 -3.39293 0
M  V30 24340 H 2284.16 6.44544 -1.22063 0
M  V30 24341 H 2284.08 6.99758 -2.86137 0
M  V30 24342 H 2285.35 7.57863 -1.82382 0
M  V30 24343 N 2289.58 1.0606 1.16572 0
M  V30 24344 C 2290.85 0.689448 1.83046 0
M  V30 24345 C 2291.23 -0.829409 1.94124 0
M  V30 24346 O 2290.58 -1.73878 1.48252 0
M  V30 24347 C 2290.79 1.38864 3.20184 0
M  V30 24348 C 2292.14 1.53232 3.95986 0
M  V30 24349 O 2293.16 1.34836 3.29693 0
M  V30 24350 O 2292.02 1.83393 5.1481 0
M  V30 24351 H 2289.12 0.243778 0.790254 0
M  V30 24352 H 2291.66 1.16073 1.23795 0
M  V30 24353 H 2290.43 2.42445 3.07142 0
M  V30 24354 H 2290.06 0.907284 3.8711 0
M  V30 24355 N 2291.06 -1.33168 0.84285 0
M  V30 24356 C 2291.99 -2.31641 0.294069 0
M  V30 24357 C 2292.97 -1.59153 -0.600373 0
M  V30 24358 O 2294.15 -1.87022 -0.523091 0
M  V30 24359 C 2291.28 -3.43257 -0.528355 0
M  V30 24360 C 2290.24 -4.27143 0.270635 0
M  V30 24361 C 2289.56 -5.30412 -0.675788 0
M  V30 24362 C 2290.86 -5.00599 1.4899 0
M  V30 24363 H 2292.56 -2.77789 1.11686 0
M  V30 24364 H 2290.1 -1.33552 0.538502 0
M  V30 24365 H 2292.05 -4.11176 -0.922602 0
M  V30 24366 H 2290.78 -2.95808 -1.38439 0
M  V30 24367 H 2289.44 -3.60855 0.646491 0
M  V30 24368 H 2289.09 -4.79219 -1.52834 0
M  V30 24369 H 2288.79 -5.8742 -0.145271 0
M  V30 24370 H 2290.31 -6.01197 -1.06746 0
M  V30 24371 H 2291.72 -5.61264 1.16859 0
M  V30 24372 H 2290.12 -5.67276 1.95749 0
M  V30 24373 H 2291.19 -4.29143 2.25753 0
M  V30 24374 N 2292.53 -0.599659 -1.45746 0
M  V30 24375 C 2293.78 -0.0893865 -2.01502 0
M  V30 24376 C 2294.1 1.28485 -1.47482 0
M  V30 24377 O 2295.3 1.88741 -1.95164 0
M  V30 24378 C 2293.76 -0.109145 -3.59734 0
M  V30 24379 C 2293.37 -1.48274 -4.22751 0
M  V30 24380 C 2295.11 0.346299 -4.23085 0
M  V30 24381 C 2293.02 -1.45931 -5.73113 0
M  V30 24382 H 2291.95 -0.029648 -0.753417 0
M  V30 24383 H 2294.6 -0.753818 -1.67302 0
M  V30 24384 H 2292.98 0.621785 -3.91088 0
M  V30 24385 H 2294.15 -2.23475 -4.02983 0
M  V30 24386 H 2292.47 -1.87962 -3.71563 0
M  V30 24387 H 2295.07 0.382886 -5.33327 0
M  V30 24388 H 2295.41 1.36736 -3.93203 0
M  V30 24389 H 2295.94 -0.331107 -3.9642 0
M  V30 24390 H 2292.68 -2.45773 -6.07681 0
M  V30 24391 H 2292.2 -0.749769 -5.95095 0
M  V30 24392 H 2293.88 -1.17952 -6.36157 0
M  V30 24393 N 2294.01 1.53925 -0.338371 0
M  V30 24394 C 2295.24 2.05714 0.263951 0
M  V30 24395 C 2295.66 1.21204 1.43845 0
M  V30 24396 O 2295.02 0.224567 1.79904 0
M  V30 24397 C 2295.07 3.54472 0.661938 0
M  V30 24398 O 2294.17 3.72836 1.76259 0
M  V30 24399 H 2293.51 0.662483 0.0448606 0
M  V30 24400 H 2296.04 1.98619 -0.491083 0
M  V30 24401 H 2296.05 3.97012 0.940524 0
M  V30 24402 H 2294.73 4.15433 -0.19701 0
M  V30 24403 H 2293.3 3.422 1.48167 0
M  V30 24404 N 2295.49 0.0668712 1.57458 0
M  V30 24405 C 2296.72 -0.611643 1.97339 0
M  V30 24406 C 2297.13 -1.6398 0.943773 0
M  V30 24407 O 2296.47 -1.83532 -0.0785261 0
M  V30 24408 C 2296.53 -1.34199 3.33513 0
M  V30 24409 C 2296.2 -0.467861 4.54599 0
M  V30 24410 C 2297.19 0.27253 5.19185 0
M  V30 24411 C 2294.88 -0.394182 5.00751 0
M  V30 24412 C 2296.87 1.07487 6.28272 0
M  V30 24413 C 2294.56 0.411836 6.09711 0
M  V30 24414 C 2295.56 1.14504 6.73333 0
M  V30 24415 O 2295.25 1.93777 7.80196 0
M  V30 24416 H 2294.98 -0.170882 0.654045 0
M  V30 24417 H 2297.53 0.134325 2.0496 0
M  V30 24418 H 2295.76 -2.13392 3.22491 0
M  V30 24419 H 2297.45 -1.91226 3.58033 0
M  V30 24420 H 2298.22 0.225171 4.84477 0
M  V30 24421 H 2294.1 -0.95449 4.51011 0
M  V30 24422 H 2297.64 1.64767 6.77863 0
M  V30 24423 H 2293.54 0.460777 6.43853 0
M  V30 24424 H 2294.3 1.86156 7.9705 0
M  V30 24425 N 2296.97 -1.56239 -0.206647 0
M  V30 24426 C 2298.22 -1.79587 -0.926976 0
M  V30 24427 C 2298.54 -0.637962 -1.84269 0
M  V30 24428 O 2297.81 0.344364 -1.9285 0
M  V30 24429 H 2296.39 -0.662413 -0.34528 0
M  V30 24430 H 2299.05 -1.93711 -0.214926 0
M  V30 24431 H 2298.14 -2.72307 -1.52496 0
M  V30 24432 N 2298.45 0.473929 -1.50305 0
M  V30 24433 C 2299.69 1.2238 -1.60834 0
M  V30 24434 C 2300.01 1.92529 -0.309424 0
M  V30 24435 O 2299.28 1.8398 0.672928 0
M  V30 24436 H 2297.86 0.454712 -0.59266 0
M  V30 24437 H 2300.53 0.546935 -1.87069 0
M  V30 24438 H 2299.62 1.97323 -2.41806 0
M  V30 24439 N 2299.92 1.39835 0.726907 0
M  V30 24440 C 2301.17 1.37227 1.48368 0
M  V30 24441 C 2301.49 -0.0284514 1.94979 0
M  V30 24442 O 2300.76 -0.981183 1.69557 0
M  V30 24443 H 2299.34 0.505021 0.550421 0
M  V30 24444 H 2302 1.7478 0.862437 0
M  V30 24445 H 2301.1 2.04007 2.36194 0
M  V30 24446 N 2301.4 -0.957948 1.25144 0
M  V30 24447 C 2302.65 -1.70529 1.10866 0
M  V30 24448 C 2303 -1.89238 -0.347357 0
M  V30 24449 O 2302.3 -1.44985 -1.25259 0
M  V30 24450 C 2302.49 -3.09183 1.79277 0
M  V30 24451 C 2302.32 -3.04001 3.31382 0
M  V30 24452 C 2301.09 -3.07941 4.00625 0
M  V30 24453 C 2303.29 -2.85423 4.2783 0
M  V30 24454 N 2301.27 -2.9288 5.39532 0
M  V30 24455 C 2302.64 -2.78759 5.53799 0
M  V30 24456 C 2304.69 -2.70078 4.18285 0
M  V30 24457 C 2303.4 -2.58319 6.71315 0
M  V30 24458 C 2305.42 -2.51007 5.3549 0
M  V30 24459 C 2304.79 -2.45061 6.60397 0
M  V30 24460 H 2300.88 -0.632124 0.460373 0
M  V30 24461 H 2303.47 -1.13497 1.58198 0
M  V30 24462 H 2301.64 -3.64389 1.34445 0
M  V30 24463 H 2303.37 -3.7268 1.57771 0
M  V30 24464 H 2300.13 -3.17003 3.51861 0
M  V30 24465 H 2300.55 -2.88564 6.12421 0
M  V30 24466 H 2305.19 -2.73451 3.22466 0
M  V30 24467 H 2302.91 -2.53688 7.67247 0
M  V30 24468 H 2306.5 -2.40064 5.29963 0
M  V30 24469 H 2305.38 -2.30496 7.49561 0
M  V30 24470 N 2302.88 -1.06677 -1.16008 0
M  V30 24471 C 2303.83 -0.681006 -2.20524 0
M  V30 24472 C 2304.8 0.324255 -1.62904 0
M  V30 24473 O 2305.98 0.21226 -1.89616 0
M  V30 24474 C 2303.12 -0.0777158 -3.45012 0
M  V30 24475 C 2302.23 -1.13362 -4.16861 0
M  V30 24476 C 2301.37 -0.496063 -5.28879 0
M  V30 24477 C 2300.41 -1.53524 -5.92534 0
M  V30 24478 N 2299.55 -0.920754 -6.96036 0
M  V30 24479 H 2304.39 -1.57667 -2.52874 0
M  V30 24480 H 2301.92 -0.788245 -1.24198 0
M  V30 24481 H 2303.88 0.28963 -4.16193 0
M  V30 24482 H 2302.51 0.781338 -3.13201 0
M  V30 24483 H 2301.56 -1.61863 -3.44245 0
M  V30 24484 H 2302.87 -1.92182 -4.6029 0
M  V30 24485 H 2302.03 -0.0759671 -6.06652 0
M  V30 24486 H 2300.77 0.323976 -4.86623 0
M  V30 24487 H 2299.77 -1.96519 -5.13479 0
M  V30 24488 H 2301 -2.35744 -6.36869 0
M  V30 24489 H 2298.94 -0.121495 -6.55887 0
M  V30 24490 H 2298.86 -1.64629 -7.37857 0
M  V30 24491 H 2300.13 -0.525932 -7.77724 0
M  V30 24492 N 2304.36 1.32719 -0.8499 0
M  V30 24493 C 2305.29 2.31482 -0.306349 0
M  V30 24494 C 2306.27 1.59469 0.591924 0
M  V30 24495 O 2307.45 1.87297 0.513166 0
M  V30 24496 C 2304.58 3.43533 0.510144 0
M  V30 24497 C 2303.54 4.26994 -0.293284 0
M  V30 24498 C 2302.86 5.30763 0.647649 0
M  V30 24499 C 2304.16 4.99802 -1.51643 0
M  V30 24500 H 2305.86 2.77193 -1.13157 0
M  V30 24501 H 2303.4 1.33265 -0.545577 0
M  V30 24502 H 2305.36 4.1166 0.900783 0
M  V30 24503 H 2304.08 2.96538 1.36869 0
M  V30 24504 H 2302.74 3.60507 -0.665619 0
M  V30 24505 H 2302.39 4.80023 1.5029 0
M  V30 24506 H 2302.09 5.87489 0.114116 0
M  V30 24507 H 2303.61 6.01754 1.03557 0
M  V30 24508 H 2305.03 5.60636 -1.19834 0
M  V30 24509 H 2303.42 5.6623 -1.98755 0
M  V30 24510 H 2304.49 4.27939 -2.28026 0
M  V30 24511 N 2305.84 0.60738 1.45426 0
M  V30 24512 C 2306.75 -0.113422 2.34326 0
M  V30 24513 C 2307.76 -0.860591 1.51228 0
M  V30 24514 O 2308.94 -0.818223 1.8403 0
M  V30 24515 C 2306 -1.09838 3.28841 0
M  V30 24516 C 2305.06 -0.353196 4.27845 0
M  V30 24517 C 2304.3 -1.29124 5.17844 0
M  V30 24518 O 2304.52 -2.52904 5.11269 0
M  V30 24519 O 2303.45 -0.788418 5.96714 0
M  V30 24520 H 2307.28 0.617146 2.97363 0
M  V30 24521 H 2304.87 0.367644 1.44806 0
M  V30 24522 H 2306.75 -1.66568 3.87083 0
M  V30 24523 H 2305.42 -1.80998 2.68368 0
M  V30 24524 H 2304.33 0.25656 3.73219 0
M  V30 24525 H 2305.66 0.317909 4.91172 0
M  V30 24526 N 2307.31 -1.53743 0.34653 0
M  V30 24527 C 2308.56 -2.00565 -0.248577 0
M  V30 24528 C 2308.88 -1.23596 -1.50828 0
M  V30 24529 O 2308.15 -0.343946 -1.92857 0
M  V30 24530 H 2306.73 -0.740955 -0.0948434 0
M  V30 24531 H 2309.4 -1.89188 0.468375 0
M  V30 24532 H 2308.49 -3.08246 -0.48894 0
M  V30 24533 N 2308.79 -0.0752207 -1.5742 0
M  V30 24534 C 2309.7 0.905473 -2.16422 0
M  V30 24535 C 2310.72 1.32459 -1.1283 0
M  V30 24536 O 2311.89 1.39659 -1.45112 0
M  V30 24537 C 2308.96 2.15365 -2.71696 0
M  V30 24538 C 2308.02 1.79061 -3.90174 0
M  V30 24539 C 2307.25 2.97928 -4.42803 0
M  V30 24540 O 2307.48 4.12051 -3.94423 0
M  V30 24541 O 2306.41 2.77546 -5.3409 0
M  V30 24542 H 2310.24 0.433573 -3.00589 0
M  V30 24543 H 2307.82 0.148041 -1.48665 0
M  V30 24544 H 2309.7 2.88551 -3.07109 0
M  V30 24545 H 2308.38 2.61646 -1.90587 0
M  V30 24546 H 2307.29 1.03116 -3.59608 0
M  V30 24547 H 2308.62 1.3756 -4.72587 0
M  V30 24548 N 2310.27 1.56347 0.198358 0
M  V30 24549 C 2311.52 1.81603 0.916083 0
M  V30 24550 C 2311.87 0.651776 1.81024 0
M  V30 24551 O 2311.16 -0.353196 1.88316 0
M  V30 24552 C 2311.36 3.10478 1.77025 0
M  V30 24553 C 2311.19 4.39327 0.960287 0
M  V30 24554 C 2309.96 5.01154 0.646005 0
M  V30 24555 C 2312.16 5.13337 0.314538 0
M  V30 24556 N 2310.14 6.13627 -0.182935 0
M  V30 24557 C 2311.51 6.18854 -0.376748 0
M  V30 24558 C 2313.56 4.97369 0.229931 0
M  V30 24559 C 2312.27 7.10135 -1.14458 0
M  V30 24560 C 2314.29 5.8907 -0.524493 0
M  V30 24561 C 2313.65 6.9403 -1.20424 0
M  V30 24562 H 2309.75 0.715874 0.31472 0
M  V30 24563 H 2312.34 1.93818 0.185068 0
M  V30 24564 H 2310.51 2.99503 2.4729 0
M  V30 24565 H 2312.24 3.23834 2.42721 0
M  V30 24566 H 2309 4.63568 0.969642 0
M  V30 24567 H 2309.42 6.74451 -0.586921 0
M  V30 24568 H 2314.06 4.16254 0.741111 0
M  V30 24569 H 2311.78 7.90715 -1.6672 0
M  V30 24570 H 2315.37 5.78788 -0.591269 0
M  V30 24571 H 2314.25 7.63763 -1.77866 0
M  V30 24572 N 2311.75 -0.465951 1.50554 0
M  V30 24573 C 2312.7 -1.5633 1.69793 0
M  V30 24574 C 2313.67 -1.57102 0.539266 0
M  V30 24575 O 2314.85 -1.74554 0.770432 0
M  V30 24576 C 2311.99 -2.94268 1.80278 0
M  V30 24577 C 2311.1 -3.03245 3.07679 0
M  V30 24578 C 2310.24 -4.3213 3.08929 0
M  V30 24579 C 2309.28 -4.34868 4.30763 0
M  V30 24580 N 2308.41 -5.55232 4.29723 0
M  V30 24581 H 2313.25 -1.39231 2.63475 0
M  V30 24582 H 2310.79 -0.67685 1.30603 0
M  V30 24583 H 2312.75 -3.74266 1.84338 0
M  V30 24584 H 2311.38 -3.09991 0.900312 0
M  V30 24585 H 2310.43 -2.16088 3.13066 0
M  V30 24586 H 2311.74 -3.01128 3.97647 0
M  V30 24587 H 2310.9 -5.20479 3.11747 0
M  V30 24588 H 2309.64 -4.36863 2.168 0
M  V30 24589 H 2308.64 -3.44915 4.28152 0
M  V30 24590 H 2309.87 -4.31822 5.24125 0
M  V30 24591 H 2307.81 -5.6074 3.4045 0
M  V30 24592 H 2307.73 -5.54877 5.13466 0
M  V30 24593 H 2309 -6.45692 4.36694 0
M  V30 24594 N 2313.23 -1.40218 -0.719481 0
M  V30 24595 C 2314.14 -1.42483 -1.86375 0
M  V30 24596 C 2315.15 -0.317864 -1.71072 0
M  V30 24597 O 2316.33 -0.561828 -1.93405 0
M  V30 24598 C 2313.39 -1.28183 -3.22133 0
M  V30 24599 C 2312.45 -2.48988 -3.49719 0
M  V30 24600 C 2311.69 -2.35362 -4.79 0
M  V30 24601 O 2311.91 -1.36534 -5.53818 0
M  V30 24602 O 2310.84 -3.24659 -5.06834 0
M  V30 24603 H 2314.67 -2.38971 -1.87421 0
M  V30 24604 H 2312.26 -1.21499 -0.869384 0
M  V30 24605 H 2314.14 -1.22402 -4.03232 0
M  V30 24606 H 2312.81 -0.347991 -3.21824 0
M  V30 24607 H 2311.72 -2.60347 -2.68645 0
M  V30 24608 H 2313.05 -3.4112 -3.54822 0
M  V30 24609 N 2314.7 0.951297 -1.25651 0
M  V30 24610 C 2315.95 1.69296 -1.10378 0
M  V30 24611 C 2316.27 1.91736 0.355305 0
M  V30 24612 O 2315.54 1.50683 1.25185 0
M  V30 24613 H 2314.12 0.627376 -0.405472 0
M  V30 24614 H 2316.79 1.14356 -1.57825 0
M  V30 24615 H 2315.88 2.67084 -1.6147 0
M  V30 24616 N 2316.18 1.07291 1.1544 0
M  V30 24617 C 2317.09 0.704096 2.23785 0
M  V30 24618 C 2318.11 -0.284383 1.7166 0
M  V30 24619 O 2319.28 -0.13117 2.00972 0
M  V30 24620 C 2316.35 0.106853 3.46535 0
M  V30 24621 C 2315.41 1.14849 4.13652 0
M  V30 24622 C 2314.64 0.579653 5.30543 0
M  V30 24623 O 2314.87 -0.604485 5.67188 0
M  V30 24624 O 2313.8 1.32424 5.87152 0
M  V30 24625 H 2317.63 1.60761 2.57662 0
M  V30 24626 H 2315.21 0.845825 1.23151 0
M  V30 24627 H 2317.09 -0.223974 4.20804 0
M  V30 24628 H 2315.77 -0.769994 3.14409 0
M  V30 24629 H 2314.68 1.53166 3.41308 0
M  V30 24630 H 2316.01 1.99722 4.49858 0
M  V30 24631 N 2317.66 -1.32267 0.856927 0
M  V30 24632 C 2318.57 -2.32594 0.306172 0
M  V30 24633 C 2319.59 -1.64148 -0.57718 0
M  V30 24634 O 2320.76 -1.9567 -0.477009 0
M  V30 24635 C 2317.83 -3.43155 -0.4945 0
M  V30 24636 C 2316.89 -4.27287 0.415261 0
M  V30 24637 C 2316.12 -5.32569 -0.347293 0
M  V30 24638 O 2316.34 -5.48167 -1.57698 0
M  V30 24639 O 2315.28 -6.0121 0.288087 0
M  V30 24640 H 2319.1 -2.81596 1.13742 0
M  V30 24641 H 2316.69 -1.35931 0.619926 0
M  V30 24642 H 2318.57 -4.10578 -0.948871 0
M  V30 24643 H 2317.25 -2.96338 -1.30251 0
M  V30 24644 H 2316.15 -3.62665 0.917856 0
M  V30 24645 H 2317.49 -4.77635 1.18852 0
M  V30 24646 N 2319.14 -0.615084 -1.45102 0
M  V30 24647 C 2320.38 -0.113382 -2.02483 0
M  V30 24648 C 2320.72 1.25561 -1.48149 0
M  V30 24649 O 2319.99 1.82991 -0.659136 0
M  V30 24650 C 2320.28 -0.0825911 -3.60005 0
M  V30 24651 C 2320.13 -1.48279 -4.24657 0
M  V30 24652 C 2321.45 0.601325 -4.35973 0
M  V30 24653 H 2318.57 -0.0426761 -0.735763 0
M  V30 24654 H 2321.21 -0.788491 -1.72866 0
M  V30 24655 H 2319.36 0.49231 -3.85368 0
M  V30 24656 H 2321.03 -2.10534 -4.10455 0
M  V30 24657 H 2319.27 -2.04134 -3.82769 0
M  V30 24658 H 2319.94 -1.41342 -5.33598 0
M  V30 24659 H 2322.42 0.112593 -4.15948 0
M  V30 24660 H 2321.3 0.592001 -5.45698 0
M  V30 24661 H 2321.56 1.66879 -4.09394 0
M  V30 24662 N 2320.62 1.53557 -0.354678 0
M  V30 24663 C 2321.55 2.22953 0.53146 0
M  V30 24664 C 2322.56 1.2399 1.05501 0
M  V30 24665 O 2323.75 1.50279 0.963252 0
M  V30 24666 C 2320.85 2.90502 1.74533 0
M  V30 24667 C 2320.02 4.15878 1.35516 0
M  V30 24668 C 2319.08 4.66735 2.42991 0
M  V30 24669 O 2318.11 5.30679 2.05835 0
M  V30 24670 N 2319.31 4.43614 3.74415 0
M  V30 24671 H 2322.08 2.99634 -0.0629142 0
M  V30 24672 H 2319.64 1.60904 -0.17933 0
M  V30 24673 H 2321.63 3.21437 2.45886 0
M  V30 24674 H 2320.2 2.1734 2.24682 0
M  V30 24675 H 2319.42 3.91365 0.471929 0
M  V30 24676 H 2320.71 4.97408 1.07062 0
M  V30 24677 H 2320.11 3.92498 4.07384 0
M  V30 24678 H 2318.66 4.79128 4.41905 0
M  V30 24679 N 2322.1 0.083568 1.57378 0
M  V30 24680 C 2323.34 -0.583699 1.94218 0
M  V30 24681 C 2323.67 -1.68545 0.964683 0
M  V30 24682 O 2322.95 -1.945 -0.00418839 0
M  V30 24683 C 2323.23 -1.14966 3.41255 0
M  V30 24684 C 2323.09 -0.0537487 4.49768 0
M  V30 24685 C 2324.4 -2.05159 3.89356 0
M  V30 24686 H 2321.52 -0.210711 0.706236 0
M  V30 24687 H 2324.17 0.151933 1.89392 0
M  V30 24688 H 2322.32 -1.77659 3.45499 0
M  V30 24689 H 2323.99 0.579931 4.5764 0
M  V30 24690 H 2322.23 0.614144 4.29431 0
M  V30 24691 H 2322.9 -0.490355 5.49818 0
M  V30 24692 H 2325.38 -1.52387 3.87192 0
M  V30 24693 H 2324.25 -2.41689 4.92826 0
M  V30 24694 H 2324.51 -2.9645 3.27978 0
M  V30 24695 N 2323.57 -1.5645 -0.190064 0
M  V30 24696 C 2324.5 -1.97971 -1.23813 0
M  V30 24697 C 2325.48 -0.85242 -1.472 0
M  V30 24698 O 2326.67 -1.11712 -1.58852 0
M  V30 24699 C 2323.8 -2.32354 -2.58126 0
M  V30 24700 C 2322.75 -3.47868 -2.49342 0
M  V30 24701 C 2322.08 -3.67941 -3.87974 0
M  V30 24702 C 2323.38 -4.81901 -2.01416 0
M  V30 24703 H 2325.07 -2.85771 -0.89306 0
M  V30 24704 H 2322.62 -1.37488 -0.428153 0
M  V30 24705 H 2324.57 -2.59997 -3.31632 0
M  V30 24706 H 2323.3 -1.41443 -2.94383 0
M  V30 24707 H 2321.96 -3.20324 -1.78291 0
M  V30 24708 H 2321.6 -2.74352 -4.21592 0
M  V30 24709 H 2321.3 -4.45654 -3.8297 0
M  V30 24710 H 2322.83 -3.97965 -4.63094 0
M  V30 24711 H 2324.24 -5.08542 -2.64684 0
M  V30 24712 H 2322.64 -5.6312 -2.07403 0
M  V30 24713 H 2323.71 -4.75148 -0.967593 0
M  V30 24714 N 2325.05 0.45796 -1.50799 0
M  V30 24715 C 2326.01 1.53671 -1.70053 0
M  V30 24716 C 2327.01 1.50324 -0.570908 0
M  V30 24717 O 2328.2 1.52711 -0.838153 0
M  V30 24718 C 2325.34 2.93273 -1.73793 0
M  V30 24719 H 2326.53 1.37912 -2.66309 0
M  V30 24720 H 2324.08 0.685246 -1.40478 0
M  V30 24721 H 2324.82 3.14461 -0.792773 0
M  V30 24722 H 2324.6 2.97108 -2.55869 0
M  V30 24723 H 2326.09 3.71567 -1.90598 0
M  V30 24724 N 2326.53 1.40598 0.712035 0
M  V30 24725 C 2327.46 1.43902 1.83887 0
M  V30 24726 C 2328.44 0.299533 1.67442 0
M  V30 24727 O 2329.63 0.508657 1.8742 0
M  V30 24728 C 2326.76 1.30437 3.21875 0
M  V30 24729 C 2325.71 2.42026 3.52998 0
M  V30 24730 C 2325.04 2.13634 4.90168 0
M  V30 24731 C 2326.34 3.84368 3.53636 0
M  V30 24732 H 2328.03 2.38206 1.81379 0
M  V30 24733 H 2325.58 1.14655 0.871217 0
M  V30 24734 H 2327.53 1.31364 4.00402 0
M  V30 24735 H 2326.25 0.326107 3.24968 0
M  V30 24736 H 2324.91 2.40354 2.76813 0
M  V30 24737 H 2324.56 1.14191 4.89867 0
M  V30 24738 H 2324.26 2.88398 5.11957 0
M  V30 24739 H 2325.78 2.1625 5.71024 0
M  V30 24740 H 2327.2 3.87844 4.22196 0
M  V30 24741 H 2325.59 4.5868 3.86953 0
M  V30 24742 H 2326.66 4.13698 2.52947 0
M  V30 24743 N 2328.01 -0.94462 1.26153 0
M  V30 24744 C 2328.92 -2.07646 1.0918 0
M  V30 24745 C 2329.93 -1.7398 0.0262241 0
M  V30 24746 O 2331.11 -2.00091 0.229243 0
M  V30 24747 C 2328.17 -3.39078 0.722974 0
M  V30 24748 C 2327.24 -3.86549 1.86758 0
M  V30 24749 C 2326.47 -5.11708 1.51626 0
M  V30 24750 O 2326.69 -5.68878 0.416431 0
M  V30 24751 O 2325.63 -5.54135 2.34985 0
M  V30 24752 H 2329.45 -2.24872 2.04124 0
M  V30 24753 H 2327.04 -1.06098 1.05184 0
M  V30 24754 H 2328.92 -4.18056 0.529861 0
M  V30 24755 H 2327.59 -3.23099 -0.197102 0
M  V30 24756 H 2326.5 -3.08531 2.11564 0
M  V30 24757 H 2327.83 -4.07042 2.76726 0
M  V30 24758 N 2329.49 -1.07901 -1.1487 0
M  V30 24759 C 2330.9 -0.827392 -1.67365 0
M  V30 24760 C 2331.25 0.64666 -1.85237 0
M  V30 24761 O 2330.37 1.50001 -1.55976 0
M  V30 24762 C 2330.97 -1.49537 -3.04013 0
M  V30 24763 C 2329.53 -1.29112 -3.53563 0
M  V30 24764 C 2328.67 -1.56147 -2.29158 0
M  V30 24765 H 2331.62 -1.2403 -0.990061 0
M  V30 24766 H 2331.65 -0.919708 -3.69218 0
M  V30 24767 H 2331.16 -2.56819 -2.90974 0
M  V30 24768 H 2329.26 -0.238778 -3.71834 0
M  V30 24769 H 2329.37 -2.01519 -4.34657 0
M  V30 24770 H 2327.74 -0.982758 -2.34976 0
M  V30 24771 H 2328.52 -2.64623 -2.187 0
M  V30 24772 N 2330.96 1.31811 -0.863929 0
M  V30 24773 C 2332.21 1.96536 -0.470938 0
M  V30 24774 C 2332.53 1.68658 0.978741 0
M  V30 24775 O 2331.8 0.998746 1.68529 0
M  V30 24776 H 2330.38 0.727127 -0.171161 0
M  V30 24777 H 2333.04 1.60727 -1.10239 0
M  V30 24778 H 2332.14 3.05805 -0.62367 0
M  V30 24779 N 2332.44 0.62277 1.44773 0
M  V30 24780 C 2333.39 -0.0871274 2.30635 0
M  V30 24781 C 2334.36 -0.845072 1.42996 0
M  V30 24782 O 2335.54 -0.827782 1.71908 0
M  V30 24783 C 2332.68 -1.06839 3.28146 0
M  V30 24784 C 2331.8 -0.309733 4.30888 0
M  V30 24785 C 2330.93 -1.28206 5.15496 0
M  V30 24786 C 2329.97 -0.51209 6.09954 0
M  V30 24787 N 2329.11 -1.43446 6.8729 0
M  V30 24788 H 2333.95 0.651025 2.90802 0
M  V30 24789 H 2331.48 0.332835 1.43285 0
M  V30 24790 H 2333.44 -1.65059 3.8316 0
M  V30 24791 H 2332.07 -1.77377 2.69699 0
M  V30 24792 H 2331.12 0.388247 3.78414 0
M  V30 24793 H 2332.44 0.290341 4.97954 0
M  V30 24794 H 2331.59 -1.93586 5.74986 0
M  V30 24795 H 2330.33 -1.91607 4.48484 0
M  V30 24796 H 2329.33 0.155248 5.49581 0
M  V30 24797 H 2330.56 0.117077 6.78999 0
M  V30 24798 H 2328.51 -2.05583 6.22954 0
M  V30 24799 H 2328.42 -0.888203 7.50764 0
M  V30 24800 H 2329.69 -2.07736 7.51309 0
M  V30 24801 N 2333.92 -1.53367 0.362817 0
M  V30 24802 C 2334.87 -2.2716 -0.500115 0
M  V30 24803 C 2335.86 -1.30032 -1.08573 0
M  V30 24804 O 2337.07 -1.4767 -1.02925 0
M  V30 24805 H 2333.44 -0.730141 -0.179996 0
M  V30 24806 H 2335.41 -2.98052 0.144063 0
M  V30 24807 C 2334.16 -3.07162 -1.62931 0
M  V30 24808 H 2333.49 -3.81742 -1.18799 0
M  V30 24809 H 2334.93 -3.61979 -2.20788 0
M  V30 24810 C 2333.38 -2.17833 -2.57003 0
M  V30 24811 O 2333.91 -1.78727 -3.59749 0
M  V30 24812 N 2332.12 -1.82522 -2.26128 0
M  V30 24813 H 2331.67 -2.14522 -1.42612 0
M  V30 24814 H 2331.63 -1.23039 -2.89325 0
M  V30 24815 N 2335.4 -0.091913 -1.57332 0
M  V30 24816 C 2336.81 0.437707 -1.81497 0
M  V30 24817 C 2337.16 1.68368 -1.0073 0
M  V30 24818 O 2336.29 2.15112 -0.235732 0
M  V30 24819 C 2336.88 0.800881 -3.29198 0
M  V30 24820 C 2335.44 1.27526 -3.54138 0
M  V30 24821 C 2334.59 0.270344 -2.75979 0
M  V30 24822 H 2337.54 -0.317393 -1.55494 0
M  V30 24823 H 2337.56 1.66068 -3.42347 0
M  V30 24824 H 2337.07 -0.106146 -3.87955 0
M  V30 24825 H 2335.17 2.20011 -3.00709 0
M  V30 24826 H 2335.28 1.23929 -4.62794 0
M  V30 24827 H 2333.65 0.75183 -2.43351 0
M  V30 24828 H 2334.43 -0.629307 -3.37483 0
M  V30 24829 N 2336.88 1.56548 0.181765 0
M  V30 24830 C 2338.29 1.50432 0.533133 0
M  V30 24831 C 2338.49 0.79433 1.85183 0
M  V30 24832 O 2337.55 0.350361 2.50057 0
M  V30 24833 C 2338.86 2.95141 0.575545 0
M  V30 24834 C 2340.41 3.05887 0.663466 0
M  V30 24835 C 2340.88 4.52033 0.736866 0
M  V30 24836 N 2342.38 4.56239 0.800037 0
M  V30 24837 C 2343.11 5.6665 0.877227 0
M  V30 24838 N 2342.61 6.86719 0.915895 0
M  V30 24839 N 2344.4 5.54595 0.915444 0
M  V30 24840 H 2336.55 2.01117 -0.68306 0
M  V30 24841 H 2338.81 0.915793 -0.245004 0
M  V30 24842 H 2338.52 3.50199 -0.324543 0
M  V30 24843 H 2338.39 3.4922 1.42566 0
M  V30 24844 H 2340.78 2.50869 1.55398 0
M  V30 24845 H 2340.86 2.54911 -0.213115 0
M  V30 24846 H 2340.51 5.0768 -0.149351 0
M  V30 24847 H 2340.44 5.00756 1.62944 0
M  V30 24848 H 2342.93 3.69787 0.778861 0
M  V30 24849 H 2343.24 7.66616 0.975678 0
M  V30 24850 H 2341.58 6.89351 0.884348 0
M  V30 24851 H 2344.78 4.59712 0.882164 0
M  V30 24852 H 2344.95 6.40666 0.97214 0
M  V30 24853 N 2338.35 -0.449957 1.5104 0
M  V30 24854 C 2339.32 -1.52767 1.70865 0
M  V30 24855 C 2340.32 -1.50019 0.578872 0
M  V30 24856 O 2341.51 -1.52264 0.84624 0
M  V30 24857 C 2338.64 -2.92347 1.75346 0
M  V30 24858 H 2339.83 -1.36498 2.67036 0
M  V30 24859 H 2337.39 -0.677787 1.40839 0
M  V30 24860 H 2338.12 -3.14036 0.809438 0
M  V30 24861 H 2337.91 -2.95747 2.57441 0
M  V30 24862 H 2339.4 -3.70551 1.92566 0
M  V30 24863 N 2339.83 -1.40974 -0.704569 0
M  V30 24864 C 2341.08 -1.40054 -1.46672 0
M  V30 24865 C 2341.41 -0.00644516 -1.94199 0
M  V30 24866 O 2340.69 0.964205 -1.68918 0
M  V30 24867 C 2340.97 -2.39957 -2.68501 0
M  V30 24868 C 2340.82 -3.88436 -2.26798 0
M  V30 24869 C 2342.14 -2.3724 -3.70682 0
M  V30 24870 H 2339.26 -0.510038 -0.532006 0
M  V30 24871 H 2341.9 -1.72187 -0.803225 0
M  V30 24872 H 2340.05 -2.12686 -3.25111 0
M  V30 24873 H 2341.72 -4.26577 -1.75585 0
M  V30 24874 H 2339.97 -4.03737 -1.58678 0
M  V30 24875 H 2340.64 -4.53871 -3.14173 0
M  V30 24876 H 2343.11 -2.6142 -3.23726 0
M  V30 24877 H 2341.99 -3.0917 -4.53547 0
M  V30 24878 H 2342.25 -1.38784 -4.19752 0
M  V30 24879 N 2341.31 0.937917 -1.26653 0
M  V30 24880 C 2342.24 2.041 -1.04287 0
M  V30 24881 C 2343.26 1.628 -0.00223876 0
M  V30 24882 O 2344.44 1.76843 -0.242676 0
M  V30 24883 C 2341.54 3.34276 -0.557905 0
M  V30 24884 C 2340.72 4.04326 -1.66851 0
M  V30 24885 C 2339.78 5.12775 -1.18104 0
M  V30 24886 O 2338.8 5.373 -1.87874 0
M  V30 24887 N 2340 5.80492 -0.0312026 0
M  V30 24888 H 2342.77 2.23853 -1.99274 0
M  V30 24889 H 2340.33 1.10762 -1.18082 0
M  V30 24890 H 2342.32 4.04124 -0.215907 0
M  V30 24891 H 2340.89 3.11172 0.298468 0
M  V30 24892 H 2340.11 3.2835 -2.18129 0
M  V30 24893 H 2341.4 4.47879 -2.41416 0
M  V30 24894 H 2340.8 5.63006 0.551387 0
M  V30 24895 H 2339.36 6.51314 0.251694 0
M  V30 24896 N 2342.79 1.08509 1.14296 0
M  V30 24897 C 2344.02 0.836909 1.89218 0
M  V30 24898 C 2344.43 -0.611022 1.78639 0
M  V30 24899 O 2343.79 -1.41996 1.14645 0
M  V30 24900 C 2343.84 1.25122 3.39156 0
M  V30 24901 O 2343.56 2.64235 3.49444 0
M  V30 24902 C 2345.06 1.03405 4.31071 0
M  V30 24903 H 2342.28 0.30175 0.599323 0
M  V30 24904 H 2344.83 1.44463 1.44743 0
M  V30 24905 H 2342.98 0.687581 3.81249 0
M  V30 24906 H 2343.39 2.81459 4.42584 0
M  V30 24907 H 2344.87 1.37332 5.34644 0
M  V30 24908 H 2345.35 -0.0288487 4.39191 0
M  V30 24909 H 2345.95 1.58318 3.94735 0
M  V30 24910 N 2344.27 -1.31351 0.870907 0
M  V30 24911 C 2345.21 -2.28494 0.325465 0
M  V30 24912 C 2346.18 -1.55771 -0.576588 0
M  V30 24913 O 2347.37 -1.83912 -0.508026 0
M  V30 24914 C 2344.51 -3.41936 -0.466223 0
M  V30 24915 C 2343.62 -4.29507 0.463454 0
M  V30 24916 C 2342.76 -5.30095 -0.342451 0
M  V30 24917 C 2341.8 -6.09312 0.583593 0
M  V30 24918 N 2340.93 -7.01853 -0.18612 0
M  V30 24919 H 2345.77 -2.74536 1.15906 0
M  V30 24920 H 2343.31 -1.35055 0.582963 0
M  V30 24921 H 2345.27 -4.06449 -0.941013 0
M  V30 24922 H 2343.9 -2.97002 -1.26451 0
M  V30 24923 H 2342.95 -3.65429 1.05669 0
M  V30 24924 H 2344.26 -4.848 1.17349 0
M  V30 24925 H 2343.42 -6.00288 -0.87971 0
M  V30 24926 H 2342.15 -4.7546 -1.08577 0
M  V30 24927 H 2341.16 -5.38008 1.1326 0
M  V30 24928 H 2342.38 -6.66033 1.32578 0
M  V30 24929 H 2340.33 -6.49626 -0.912234 0
M  V30 24930 H 2340.25 -7.54571 0.464555 0
M  V30 24931 H 2341.52 -7.76309 -0.70458 0
M  V30 24932 N 2345.74 -0.630439 -1.44441 0
M  V30 24933 C 2347.16 -0.217096 -1.85434 0
M  V30 24934 C 2347.51 1.23133 -1.5275 0
M  V30 24935 O 2346.63 1.9368 -0.965239 0
M  V30 24936 C 2347.23 -0.387227 -3.3658 0
M  V30 24937 C 2345.79 -0.0283959 -3.76389 0
M  V30 24938 C 2344.93 -0.700937 -2.68295 0
M  V30 24939 H 2347.88 -0.835644 -1.34917 0
M  V30 24940 H 2347.9 0.37402 -3.78657 0
M  V30 24941 H 2347.42 -1.4415 -3.60336 0
M  V30 24942 H 2345.52 1.02417 -3.58248 0
M  V30 24943 H 2345.63 -0.437976 -4.77094 0
M  V30 24944 H 2343.99 -0.136312 -2.54335 0
M  V30 24945 H 2344.78 -1.75779 -2.94884 0
M  V30 24946 N 2347.22 1.53172 -0.370945 0
M  V30 24947 C 2348.47 2.00936 0.216637 0
M  V30 24948 C 2348.79 1.2598 1.48843 0
M  V30 24949 O 2348.06 0.374584 1.92285 0
M  V30 24950 H 2346.64 0.74237 0.0830434 0
M  V30 24951 H 2349.3 1.88419 -0.498413 0
M  V30 24952 H 2348.4 3.08985 0.439839 0
M  V30 24953 N 2348.7 0.100255 1.57281 0
M  V30 24954 C 2349.63 -0.853819 2.1733 0
M  V30 24955 C 2350.61 -1.29058 1.10806 0
M  V30 24956 O 2351.8 -1.35655 1.38966 0
M  V30 24957 C 2348.93 -2.11104 2.75776 0
M  V30 24958 C 2347.88 -1.81273 3.87717 0
M  V30 24959 C 2347.21 -3.13867 4.32888 0
M  V30 24960 C 2348.51 -1.09565 5.10679 0
M  V30 24961 H 2350.2 -0.353493 2.97306 0
M  V30 24962 H 2347.75 -0.168587 1.4301 0
M  V30 24963 H 2349.7 -2.7829 3.16437 0
M  V30 24964 H 2348.42 -2.63429 1.93061 0
M  V30 24965 H 2347.08 -1.16483 3.47602 0
M  V30 24966 H 2346.73 -3.64089 3.47057 0
M  V30 24967 H 2346.43 -2.94687 5.08363 0
M  V30 24968 H 2347.95 -3.82202 4.76187 0
M  V30 24969 H 2349.37 -1.66869 5.48477 0
M  V30 24970 H 2347.77 -1.00546 5.91617 0
M  V30 24971 H 2348.84 -0.0792447 4.84835 0
M  V30 24972 N 2350.18 -1.56643 -0.17346 0
M  V30 24973 C 2351.43 -1.81872 -0.890433 0
M  V30 24974 C 2351.75 -0.676992 -1.82338 0
M  V30 24975 O 2351.01 0.335893 -1.92796 0
M  V30 24976 C 2351.31 -3.13255 -1.72064 0
M  V30 24977 C 2350.97 -4.41061 -0.936801 0
M  V30 24978 C 2349.64 -4.75776 -0.720461 0
M  V30 24979 C 2351.99 -5.19763 -0.386827 0
M  V30 24980 C 2349.32 -5.86672 0.056986 0
M  V30 24981 C 2351.67 -6.31473 0.377521 0
M  V30 24982 C 2350.33 -6.64755 0.60468 0
M  V30 24983 H 2349.6 -0.665518 -0.325833 0
M  V30 24984 H 2352.25 -1.90868 -0.155493 0
M  V30 24985 H 2350.55 -2.99593 -2.5249 0
M  V30 24986 H 2352.25 -3.29986 -2.27838 0
M  V30 24987 H 2348.84 -4.1383 -1.11546 0
M  V30 24988 H 2353.03 -4.93339 -0.541312 0
M  V30 24989 H 2348.28 -6.10918 0.242742 0
M  V30 24990 H 2352.46 -6.91662 0.810946 0
M  V30 24991 H 2350.08 -7.50525 1.20898 0
M  V30 24992 N 2351.66 0.44194 -1.51277 0
M  V30 24993 C 2353.07 0.778059 -1.3935 0
M  V30 24994 C 2353.27 1.95888 -0.472246 0
M  V30 24995 O 2352.33 2.52391 0.0743107 0
M  V30 24996 C 2353.64 1.06275 -2.81294 0
M  V30 24997 C 2355.19 1.16746 -2.90412 0
M  V30 24998 C 2355.67 1.48512 -4.33253 0
M  V30 24999 N 2357.16 1.55445 -4.36338 0
M  V30 25000 C 2357.89 1.81586 -5.43888 0
M  V30 25001 N 2357.39 2.05551 -6.61605 0
M  V30 25002 N 2359.18 1.8333 -5.31363 0
M  V30 25003 H 2351.33 -0.335811 -2.09729 0
M  V30 25004 H 2353.59 -0.0878193 -0.943924 0
M  V30 25005 H 2353.3 0.267843 -3.50679 0
M  V30 25006 H 2353.17 1.99157 -3.20338 0
M  V30 25007 H 2355.56 1.953 -2.21228 0
M  V30 25008 H 2355.64 0.217756 -2.54871 0
M  V30 25009 H 2355.29 0.704869 -5.02985 0
M  V30 25010 H 2355.22 2.44681 -4.66304 0
M  V30 25011 H 2357.71 1.38847 -3.51468 0
M  V30 25012 H 2358.02 2.24854 -7.39365 0
M  V30 25013 H 2356.37 2.02882 -6.64728 0
M  V30 25014 H 2359.56 1.64124 -4.38384 0
M  V30 25015 H 2359.73 2.03366 -6.15261 0
M  V30 25016 N 2353.14 1.41345 0.697083 0
M  V30 25017 C 2354.36 1.43974 1.4859 0
M  V30 25018 C 2354.78 0.0445944 1.88747 0
M  V30 25019 O 2354.14 -0.935758 1.56684 0
M  V30 25020 C 2354.19 2.34711 2.74942 0
M  V30 25021 O 2353.91 3.68796 2.36477 0
M  V30 25022 C 2355.41 2.46127 3.68695 0
M  V30 25023 H 2352.63 0.490426 0.457956 0
M  V30 25024 H 2355.17 1.85612 0.858397 0
M  V30 25025 H 2353.33 1.96386 3.33933 0
M  V30 25026 H 2353.74 4.17173 3.1791 0
M  V30 25027 H 2355.22 3.13785 4.5414 0
M  V30 25028 H 2355.69 1.49206 4.13079 0
M  V30 25029 H 2356.3 2.85081 3.15608 0
M  V30 25030 N 2354.61 -0.931187 1.27148 0
M  V30 25031 C 2355.56 -2.05266 1.09402 0
M  V30 25032 C 2356.56 -1.6939 0.0180889 0
M  V30 25033 O 2357.76 -1.79142 0.175542 0
M  V30 25034 H 2354.14 -0.672262 0.336998 0
M  V30 25035 H 2356.11 -2.17382 2.0442 0
M  V30 25036 C 2354.86 -3.3942 0.754299 0
M  V30 25037 H 2354.18 -3.67508 1.57411 0
M  V30 25038 H 2355.62 -4.18673 0.669977 0
M  V30 25039 C 2354.08 -3.32526 -0.541138 0
M  V30 25040 O 2354.61 -3.69469 -1.57657 0
M  V30 25041 N 2352.81 -2.85624 -0.535467 0
M  V30 25042 H 2352.36 -2.55757 0.307556 0
M  V30 25043 H 2352.32 -2.81394 -1.40231 0
M  V30 25044 N 2356.09 -1.09114 -1.13719 0
M  V30 25045 C 2357.32 -0.846932 -1.88771 0
M  V30 25046 C 2357.73 0.60154 -1.78961 0
M  V30 25047 O 2357.09 1.41386 -1.15397 0
M  V30 25048 C 2357.14 -1.26919 -3.38488 0
M  V30 25049 O 2356.86 -2.66085 -3.48038 0
M  V30 25050 C 2358.36 -1.0569 -4.30517 0
M  V30 25051 H 2355.58 -0.304924 -0.597714 0
M  V30 25052 H 2358.13 -1.45229 -1.43975 0
M  V30 25053 H 2356.28 -0.70779 -3.80879 0
M  V30 25054 H 2356.7 -2.83803 -4.41085 0
M  V30 25055 H 2358.17 -1.40166 -5.33908 0
M  V30 25056 H 2358.65 0.00555696 -4.392 0
M  V30 25057 H 2359.25 -1.60409 -3.9389 0
M  V30 25058 N 2357.57 1.30887 -0.877861 0
M  V30 25059 C 2358.82 1.96026 -0.491757 0
M  V30 25060 C 2359.14 1.69687 0.960797 0
M  V30 25061 O 2358.41 1.01656 1.6746 0
M  V30 25062 H 2356.99 0.72527 -0.178863 0
M  V30 25063 H 2359.65 1.59549 -1.11938 0
M  V30 25064 H 2358.75 3.05126 -0.656069 0
M  V30 25065 N 2359.05 0.638091 1.44105 0
M  V30 25066 C 2360.28 0.152651 2.06336 0
M  V30 25067 C 2360.69 -1.1756 1.47733 0
M  V30 25068 O 2360.05 -1.72256 0.602836 0
M  V30 25069 C 2360.1 0.0392126 3.61479 0
M  V30 25070 O 2359.82 1.31495 4.179 0
M  V30 25071 C 2361.32 -0.474099 4.40758 0
M  V30 25072 H 2358.54 0.0828893 0.665861 0
M  V30 25073 H 2361.08 0.874463 1.8486 0
M  V30 25074 H 2359.24 -0.633075 3.82192 0
M  V30 25075 H 2359.65 1.1643 5.11414 0
M  V30 25076 H 2361.13 -0.502466 5.49708 0
M  V30 25077 H 2361.6 -1.50251 4.127 0
M  V30 25078 H 2362.21 0.165176 4.24979 0
M  V30 25079 N 2360.53 -1.52973 0.379063 0
M  V30 25080 C 2361.77 -2.00629 -0.207577 0
M  V30 25081 C 2362.09 -1.27008 -1.48756 0
M  V30 25082 O 2363.29 -1.65322 -2.15362 0
M  V30 25083 C 2361.75 -3.57435 -0.420467 0
M  V30 25084 C 2361.36 -4.39946 0.845664 0
M  V30 25085 C 2363.1 -4.13409 -0.964029 0
M  V30 25086 C 2361.01 -5.88332 0.601616 0
M  V30 25087 H 2359.94 -0.749599 -0.0813459 0
M  V30 25088 H 2362.59 -1.7656 0.499884 0
M  V30 25089 H 2360.97 -3.77712 -1.18952 0
M  V30 25090 H 2362.15 -4.31439 1.61855 0
M  V30 25091 H 2360.46 -3.95143 1.31343 0
M  V30 25092 H 2363.06 -5.21918 -1.16216 0
M  V30 25093 H 2363.4 -3.68852 -1.93012 0
M  V30 25094 H 2363.93 -3.96983 -0.2548 0
M  V30 25095 H 2360.67 -6.37191 1.53842 0
M  V30 25096 H 2360.19 -5.99654 -0.132523 0
M  V30 25097 H 2361.87 -6.46583 0.232247 0
M  V30 25098 N 2362 -0.108595 -1.57225 0
M  V30 25099 C 2363.25 0.550819 -1.94449 0
M  V30 25100 C 2363.57 1.67876 -0.992103 0
M  V30 25101 O 2362.84 1.95845 -0.0465344 0
M  V30 25102 H 2361.42 0.206466 -0.7179 0
M  V30 25103 H 2364.08 -0.175096 -1.94112 0
M  V30 25104 H 2363.18 0.952207 -2.9722 0
M  V30 25105 N 2363.48 1.56732 0.16515 0
M  V30 25106 C 2364.44 1.95997 1.18818 0
M  V30 25107 C 2365.44 0.844334 1.36849 0
M  V30 25108 O 2366.63 1.11128 1.3415 0
M  V30 25109 C 2363.77 2.26015 2.55206 0
M  V30 25110 H 2364.96 2.8755 0.851774 0
M  V30 25111 H 2362.51 1.50885 0.407831 0
M  V30 25112 H 2363.25 1.37196 2.9385 0
M  V30 25113 H 2363.03 3.0734 2.43484 0
M  V30 25114 H 2364.52 2.57294 3.28922 0
M  V30 25115 N 2364.96 -0.433911 1.51509 0
M  V30 25116 C 2366.21 -1.18481 1.64591 0
M  V30 25117 C 2366.54 -1.90783 0.362699 0
M  V30 25118 O 2365.81 -1.83743 -0.637859 0
M  V30 25119 C 2366.1 -2.19908 2.85153 0
M  V30 25120 C 2365.95 -1.51667 4.23459 0
M  V30 25121 C 2367.27 -3.20853 3.01233 0
M  V30 25122 H 2364.39 -0.429378 0.599002 0
M  V30 25123 H 2367.03 -0.473615 1.84002 0
M  V30 25124 H 2365.18 -2.80561 2.68733 0
M  V30 25125 H 2366.85 -0.943243 4.51554 0
M  V30 25126 H 2365.1 -0.81896 4.25999 0
M  V30 25127 H 2365.77 -2.25551 5.03816 0
M  V30 25128 H 2368.24 -2.70257 3.16386 0
M  V30 25129 H 2367.12 -3.89111 3.87148 0
M  V30 25130 H 2367.38 -3.87156 2.13454 0
M  V30 25131 N 2366.44 -1.41713 -0.689577 0
M  V30 25132 C 2367.66 -1.44962 -1.48327 0
M  V30 25133 C 2368.09 -0.0581613 -1.8801 0
M  V30 25134 O 2367.45 0.940008 -1.55028 0
M  V30 25135 C 2367.49 -2.36939 -2.71831 0
M  V30 25136 O 2366.6 -1.83057 -3.69546 0
M  V30 25137 H 2365.94 -0.491742 -0.446191 0
M  V30 25138 H 2368.47 -1.8624 -0.847094 0
M  V30 25139 H 2368.48 -2.53018 -3.20071 0
M  V30 25140 H 2367.15 -3.38039 -2.42285 0
M  V30 25141 H 2365.73 -1.76458 -3.28507 0
M  V30 25142 N 2367.92 0.924431 -1.2764 0
M  V30 25143 C 2368.85 2.04242 -1.1317 0
M  V30 25144 C 2369.83 1.70069 -0.0322859 0
M  V30 25145 O 2371.01 1.9309 -0.207362 0
M  V30 25146 C 2368.14 3.38392 -0.781556 0
M  V30 25147 C 2367.1 3.86688 -1.83456 0
M  V30 25148 C 2366.42 5.17681 -1.33831 0
M  V30 25149 C 2367.72 4.0972 -3.23924 0
M  V30 25150 H 2369.42 2.16607 -2.06693 0
M  V30 25151 H 2366.96 1.0408 -0.995155 0
M  V30 25152 H 2368.92 4.16086 -0.66713 0
M  V30 25153 H 2367.64 3.2605 0.189381 0
M  V30 25154 H 2366.3 3.1119 -1.93794 0
M  V30 25155 H 2365.95 5.01733 -0.356738 0
M  V30 25156 H 2365.65 5.50965 -2.04234 0
M  V30 25157 H 2367.17 5.97941 -1.23689 0
M  V30 25158 H 2368.58 4.77973 -3.16567 0
M  V30 25159 H 2366.98 4.54317 -3.92067 0
M  V30 25160 H 2368.05 3.14901 -3.68735 0
M  V30 25161 N 2369.39 1.09715 1.13139 0
M  V30 25162 C 2370.67 0.747334 1.8076 0
M  V30 25163 C 2371.05 -0.76723 1.96664 0
M  V30 25164 O 2370.4 -1.69073 1.53709 0
M  V30 25165 C 2370.61 1.48981 3.15604 0
M  V30 25166 C 2371.96 1.65753 3.90911 0
M  V30 25167 O 2372.98 1.45257 3.25237 0
M  V30 25168 O 2371.84 1.99679 5.08715 0
M  V30 25169 H 2368.93 0.268796 0.782098 0
M  V30 25170 H 2371.48 1.19953 1.20039 0
M  V30 25171 H 2370.25 2.52094 2.99273 0
M  V30 25172 H 2369.88 1.02998 3.84028 0
M  V30 25173 N 2370.87 -1.30419 0.88479 0
M  V30 25174 C 2372.12 -1.9615 0.50314 0
M  V30 25175 C 2372.45 -1.69853 -0.947647 0
M  V30 25176 O 2371.7 -0.995891 -1.68465 0
M  V30 25177 C 2372 -3.49982 0.72438 0
M  V30 25178 C 2371.67 -3.96328 2.15022 0
M  V30 25179 C 2370.33 -4.08694 2.54013 0
M  V30 25180 C 2372.68 -4.205 3.07944 0
M  V30 25181 C 2370.01 -4.42592 3.85135 0
M  V30 25182 C 2372.36 -4.55867 4.38598 0
M  V30 25183 C 2371.03 -4.66441 4.77482 0
M  V30 25184 H 2370.3 -0.717763 0.184112 0
M  V30 25185 H 2372.94 -1.55289 1.12061 0
M  V30 25186 H 2371.25 -3.91793 0.0238775 0
M  V30 25187 H 2372.94 -3.98912 0.408687 0
M  V30 25188 H 2369.53 -3.8721 1.83757 0
M  V30 25189 H 2373.72 -4.10427 2.79041 0
M  V30 25190 H 2368.97 -4.48979 4.15004 0
M  V30 25191 H 2373.15 -4.73521 5.10638 0
M  V30 25192 H 2370.78 -4.92463 5.79124 0
M  V30 25193 N 2372.35 -0.645724 -1.43764 0
M  V30 25194 C 2373.58 -0.16192 -2.06767 0
M  V30 25195 C 2374 1.16047 -1.48037 0
M  V30 25196 O 2373.36 1.71521 -0.587399 0
M  V30 25197 C 2373.41 -0.0762636 -3.60519 0
M  V30 25198 O 2372.51 0.96365 -4.00983 0
M  V30 25199 H 2371.85 -0.0914405 -0.657674 0
M  V30 25200 H 2374.38 -0.886531 -1.84396 0
M  V30 25201 H 2374.39 0.109532 -4.07853 0
M  V30 25202 H 2373.07 -1.04164 -4.02644 0
M  V30 25203 H 2371.64 0.751248 -3.65254 0
M  V30 25204 N 2373.83 1.5277 -0.38717 0
M  V30 25205 C 2375.24 1.86496 0.0873306 0
M  V30 25206 C 2375.59 1.30694 1.46334 0
M  V30 25207 O 2374.72 0.637445 2.06798 0
M  V30 25208 C 2375.31 3.38397 0.165245 0
M  V30 25209 C 2373.87 3.71841 0.584036 0
M  V30 25210 C 2373.02 2.76122 -0.255328 0
M  V30 25211 H 2375.97 1.4671 -0.60513 0
M  V30 25212 H 2375.99 3.67535 0.984783 0
M  V30 25213 H 2375.5 3.78981 -0.836368 0
M  V30 25214 H 2373.6 3.36825 1.59309 0
M  V30 25215 H 2373.71 4.77866 0.343665 0
M  V30 25216 H 2372.08 2.53166 0.279081 0
M  V30 25217 H 2372.86 3.19543 -1.25488 0
M  V30 25218 N 2375.31 0.116931 1.57166 0
M  V30 25219 C 2376.55 -0.540499 1.94738 0
M  V30 25220 C 2376.88 -1.67347 1.00099 0
M  V30 25221 O 2376.15 -1.95817 0.0569199 0
M  V30 25222 H 2374.73 -0.202656 0.718985 0
M  V30 25223 H 2377.39 0.185388 1.94016 0
M  V30 25224 H 2376.48 -0.936431 2.9772 0
M  V30 25225 N 2376.78 -1.56818 -0.156836 0
M  V30 25226 C 2378.01 -1.86956 -0.886283 0
M  V30 25227 C 2378.43 -0.704006 -1.75183 0
M  V30 25228 O 2377.78 0.326521 -1.79555 0
M  V30 25229 C 2377.84 -3.16257 -1.75112 0
M  V30 25230 O 2377.56 -4.28321 -0.920461 0
M  V30 25231 C 2379.06 -3.59842 -2.58899 0
M  V30 25232 H 2376.28 -0.619928 -0.256769 0
M  V30 25233 H 2378.82 -2.0393 -0.152579 0
M  V30 25234 H 2376.98 -3.01066 -2.43799 0
M  V30 25235 H 2377.39 -5.02195 -1.51329 0
M  V30 25236 H 2378.86 -4.53178 -3.15172 0
M  V30 25237 H 2379.34 -2.84655 -3.34467 0
M  V30 25238 H 2379.95 -3.77693 -1.95519 0
M  V30 25239 N 2378.26 0.425871 -1.51737 0
M  V30 25240 C 2379.49 1.20105 -1.69084 0
M  V30 25241 C 2379.91 1.83961 -0.39243 0
M  V30 25242 O 2379.27 1.69303 0.648551 0
M  V30 25243 C 2379.32 2.25232 -2.81608 0
M  V30 25244 O 2378.42 3.30988 -2.4601 0
M  V30 25245 H 2377.76 0.35137 -0.563414 0
M  V30 25246 H 2380.29 0.501477 -1.98359 0
M  V30 25247 H 2380.3 2.69833 -3.0603 0
M  V30 25248 H 2378.98 1.78135 -3.7582 0
M  V30 25249 H 2377.56 2.91783 -2.322 0
M  V30 25250 N 2379.74 1.42077 0.682052 0
M  V30 25251 C 2380.99 1.41878 1.43927 0
M  V30 25252 C 2381.31 0.0335942 1.94971 0
M  V30 25253 O 2380.58 -0.926743 1.72593 0
M  V30 25254 H 2379.16 0.522276 0.534076 0
M  V30 25255 H 2381.82 1.77435 0.806396 0
M  V30 25256 H 2380.92 2.11418 2.29584 0
M  V30 25257 N 2381.22 -0.917649 1.28129 0
M  V30 25258 C 2382.44 -1.70553 1.1801 0
M  V30 25259 C 2382.87 -1.86319 -0.258224 0
M  V30 25260 O 2382.23 -1.37051 -1.18687 0
M  V30 25261 C 2382.28 -3.07743 1.87954 0
M  V30 25262 O 2381.38 -3.95028 1.18434 0
M  V30 25263 H 2380.72 -0.522396 0.409876 0
M  V30 25264 H 2383.25 -1.14767 1.69381 0
M  V30 25265 H 2383.26 -3.57998 1.95708 0
M  V30 25266 H 2381.94 -2.95586 2.92578 0
M  V30 25267 H 2380.51 -3.53464 1.18818 0
M  V30 25268 N 2382.7 -1.10314 -1.12555 0
M  V30 25269 C 2384.11 -0.862707 -1.65573 0
M  V30 25270 C 2384.46 0.607223 -1.86567 0
M  V30 25271 O 2383.58 1.46659 -1.59123 0
M  V30 25272 C 2384.18 -1.55952 -3.00773 0
M  V30 25273 C 2382.74 -1.36583 -3.50745 0
M  V30 25274 C 2381.89 -1.60972 -2.25795 0
M  V30 25275 H 2384.84 -1.26102 -0.96353 0
M  V30 25276 H 2384.86 -0.997818 -3.67184 0
M  V30 25277 H 2384.37 -2.62933 -2.85461 0
M  V30 25278 H 2382.47 -0.317596 -3.71244 0
M  V30 25279 H 2382.58 -2.10693 -4.30285 0
M  V30 25280 H 2380.95 -1.03238 -2.32839 0
M  V30 25281 H 2381.73 -2.69202 -2.13038 0
M  V30 25282 N 2384.18 1.29948 -0.891694 0
M  V30 25283 C 2385.42 1.95157 -0.509555 0
M  V30 25284 C 2385.74 1.71127 0.947358 0
M  V30 25285 O 2386.94 2.30375 1.43665 0
M  V30 25286 C 2385.4 3.49465 -0.860377 0
M  V30 25287 C 2385.01 3.82306 -2.33552 0
M  V30 25288 C 2386.75 4.20951 -0.547761 0
M  V30 25289 C 2384.66 5.29821 -2.62762 0
M  V30 25290 H 2383.59 0.730486 -0.186833 0
M  V30 25291 H 2386.24 1.47796 -1.08759 0
M  V30 25292 H 2384.62 3.95436 -0.211354 0
M  V30 25293 H 2385.8 3.47222 -3.02942 0
M  V30 25294 H 2384.11 3.23939 -2.61634 0
M  V30 25295 H 2386.71 5.29513 -0.742947 0
M  V30 25296 H 2387.05 4.13124 0.513248 0
M  V30 25297 H 2387.58 3.80685 -1.15427 0
M  V30 25298 H 2384.32 5.42705 -3.67629 0
M  V30 25299 H 2383.84 5.66181 -1.97987 0
M  V30 25300 H 2385.52 5.97329 -2.48611 0
M  V30 25301 N 2385.65 0.653339 1.4342 0
M  V30 25302 C 2386.9 0.167027 2.02111 0
M  V30 25303 C 2387.23 -1.21589 1.51425 0
M  V30 25304 O 2386.51 -1.81179 0.707421 0
M  V30 25305 C 2386.79 0.178011 3.5966 0
M  V30 25306 C 2386.64 1.59485 4.20576 0
M  V30 25307 C 2387.96 -0.485523 4.37414 0
M  V30 25308 H 2385.08 0.0621686 0.734373 0
M  V30 25309 H 2387.72 0.834046 1.70715 0
M  V30 25310 H 2385.87 -0.389964 3.86538 0
M  V30 25311 H 2387.55 2.21343 4.04728 0
M  V30 25312 H 2385.79 2.1421 3.77222 0
M  V30 25313 H 2386.46 1.55439 5.29663 0
M  V30 25314 H 2388.94 -0.00227214 4.161 0
M  V30 25315 H 2387.81 -0.44711 5.47076 0
M  V30 25316 H 2388.07 -1.55966 4.13675 0
M  V30 25317 N 2387.13 -1.52563 0.395266 0
M  V30 25318 C 2388.41 -1.94086 -0.242873 0
M  V30 25319 C 2388.79 -1.33116 -1.63839 0
M  V30 25320 O 2388.14 -0.501568 -2.22927 0
M  V30 25321 C 2388.35 -3.48006 -0.263209 0
M  V30 25322 C 2389.69 -4.21772 -0.48928 0
M  V30 25323 O 2390.72 -3.54543 -0.343163 0
M  V30 25324 O 2389.58 -5.40961 -0.776074 0
M  V30 25325 H 2386.67 -0.812814 -0.152522 0
M  V30 25326 H 2389.22 -1.63619 0.450206 0
M  V30 25327 H 2387.99 -3.8473 0.714052 0
M  V30 25328 H 2387.61 -3.84794 -1.00096 0
M  V30 25329 N 2388.61 -0.125265 -1.57101 0
M  V30 25330 C 2389.56 0.822617 -2.15642 0
M  V30 25331 C 2390.53 1.25925 -1.08315 0
M  V30 25332 O 2391.71 1.33565 -1.36254 0
M  V30 25333 C 2388.85 2.06489 -2.76508 0
M  V30 25334 C 2387.96 1.67605 -3.98161 0
M  V30 25335 C 2387.1 2.86846 -4.47094 0
M  V30 25336 C 2386.14 2.44232 -5.61264 0
M  V30 25337 N 2385.28 3.56408 -6.04911 0
M  V30 25338 H 2390.12 0.316573 -2.96314 0
M  V30 25339 H 2387.65 0.144562 -1.46388 0
M  V30 25340 H 2389.61 2.79284 -3.0993 0
M  V30 25341 H 2388.24 2.54541 -1.98516 0
M  V30 25342 H 2387.29 0.846595 -3.7086 0
M  V30 25343 H 2388.6 1.32292 -4.80937 0
M  V30 25344 H 2387.76 3.67859 -4.82457 0
M  V30 25345 H 2386.5 3.2539 -3.63281 0
M  V30 25346 H 2385.5 1.61654 -5.25498 0
M  V30 25347 H 2386.73 2.06799 -6.46847 0
M  V30 25348 H 2384.67 3.94613 -5.24038 0
M  V30 25349 H 2384.59 3.25039 -6.82558 0
M  V30 25350 H 2385.86 4.37841 -6.44915 0
M  V30 25351 N 2390.09 1.56899 0.148518 0
M  V30 25352 C 2391.03 1.98151 1.18341 0
M  V30 25353 C 2392 0.848873 1.4277 0
M  V30 25354 O 2393.19 1.11082 1.55131 0
M  V30 25355 C 2390.33 2.36598 2.51227 0
M  V30 25356 C 2389.44 3.63146 2.33985 0
M  V30 25357 C 2388.58 3.90703 3.59895 0
M  V30 25358 C 2387.62 5.10526 3.37683 0
M  V30 25359 N 2386.75 5.341 4.5572 0
M  V30 25360 H 2391.59 2.86363 0.82462 0
M  V30 25361 H 2389.13 1.41677 0.395731 0
M  V30 25362 H 2391.09 2.56918 3.28708 0
M  V30 25363 H 2389.72 1.51468 2.85057 0
M  V30 25364 H 2388.77 3.50612 1.47566 0
M  V30 25365 H 2390.08 4.50784 2.13531 0
M  V30 25366 H 2389.24 4.11512 4.45805 0
M  V30 25367 H 2387.98 3.01484 3.83352 0
M  V30 25368 H 2386.98 4.89591 2.50161 0
M  V30 25369 H 2388.21 6.01296 3.15627 0
M  V30 25370 H 2386.15 4.47836 4.79353 0
M  V30 25371 H 2386.07 6.16004 4.38263 0
M  V30 25372 H 2387.34 5.59407 5.42848 0
M  V30 25373 N 2391.57 -0.417818 1.51961 0
M  V30 25374 C 2392.81 -1.16326 1.65265 0
M  V30 25375 C 2393.13 -1.91248 0.380667 0
M  V30 25376 O 2392.4 -1.8635 -0.604181 0
M  V30 25377 H 2390.98 -0.432403 0.609128 0
M  V30 25378 H 2393.65 -0.477129 1.8897 0
M  V30 25379 H 2392.74 -1.88212 2.48963 0
M  V30 25380 N 2393.04 -1.42436 -0.674508 0
M  V30 25381 C 2393.99 -1.45937 -1.78804 0
M  V30 25382 C 2394.96 -0.3113 -1.63157 0
M  V30 25383 O 2396.15 -0.515415 -1.83707 0
M  V30 25384 C 2393.29 -1.36779 -3.16837 0
M  V30 25385 C 2392.4 -2.61623 -3.43769 0
M  V30 25386 C 2391.53 -2.44605 -4.71531 0
M  V30 25387 C 2390.57 -3.64822 -4.91499 0
M  V30 25388 N 2389.71 -3.46744 -6.10502 0
M  V30 25389 H 2394.55 -2.41097 -1.75147 0
M  V30 25390 H 2392.09 -1.19699 -0.855019 0
M  V30 25391 H 2394.04 -1.29466 -3.96603 0
M  V30 25392 H 2392.67 -0.452145 -3.19618 0
M  V30 25393 H 2391.73 -2.79301 -2.58254 0
M  V30 25394 H 2393.04 -3.50984 -3.54417 0
M  V30 25395 H 2392.19 -2.3488 -5.59389 0
M  V30 25396 H 2390.93 -1.52734 -4.63167 0
M  V30 25397 H 2389.94 -3.74979 -4.02083 0
M  V30 25398 H 2391.16 -4.57674 -5.01708 0
M  V30 25399 H 2389.11 -2.57591 -6.0331 0
M  V30 25400 H 2389.02 -4.29693 -6.22013 0
M  V30 25401 H 2390.29 -3.40832 -7.01038 0
M  V30 25402 N 2394.52 0.910841 -1.28614 0
M  V30 25403 C 2395.77 1.66272 -1.16109 0
M  V30 25404 C 2396.1 1.92036 0.289079 0
M  V30 25405 O 2395.38 1.52283 1.20997 0
M  V30 25406 C 2395.66 3.01882 -1.96315 0
M  V30 25407 C 2395.51 2.83253 -3.4941 0
M  V30 25408 C 2396.83 4.0246 -1.78083 0
M  V30 25409 H 2393.95 0.603409 -0.423162 0
M  V30 25410 H 2396.59 1.05584 -1.57962 0
M  V30 25411 H 2394.74 3.53684 -1.60749 0
M  V30 25412 H 2396.41 2.38439 -3.94898 0
M  V30 25413 H 2394.66 2.18255 -3.74897 0
M  V30 25414 H 2395.33 3.79567 -4.0079 0
M  V30 25415 H 2397.8 3.5973 -2.09126 0
M  V30 25416 H 2396.68 4.95304 -2.3657 0
M  V30 25417 H 2396.94 4.3598 -0.733085 0
M  V30 25418 N 2396 1.10909 1.11969 0
M  V30 25419 C 2397.25 0.855806 1.83858 0
M  V30 25420 C 2397.58 -0.61707 1.84136 0
M  V30 25421 O 2396.85 -1.45526 1.29044 0
M  V30 25422 C 2397.14 1.41106 3.31302 0
M  V30 25423 C 2396.99 2.95116 3.39451 0
M  V30 25424 C 2398.31 1.05743 4.27208 0
M  V30 25425 H 2395.43 0.312346 0.66754 0
M  V30 25426 H 2398.07 1.37306 1.31328 0
M  V30 25427 H 2396.22 0.971116 3.76167 0
M  V30 25428 H 2397.89 3.47673 3.03185 0
M  V30 25429 H 2396.14 3.31466 2.79844 0
M  V30 25430 H 2396.81 3.29051 4.43203 0
M  V30 25431 H 2399.28 1.43713 3.90494 0
M  V30 25432 H 2398.16 1.47279 5.28772 0
M  V30 25433 H 2398.42 -0.0325181 4.42088 0
M  V30 25434 N 2397.48 -1.29474 0.898573 0
M  V30 25435 C 2398.73 -1.95219 0.522881 0
M  V30 25436 C 2399.05 -1.71194 -0.93368 0
M  V30 25437 O 2398.32 -1.04308 -1.65821 0
M  V30 25438 H 2396.9 -0.722333 0.190379 0
M  V30 25439 H 2399.56 -1.57748 1.14462 0
M  V30 25440 H 2398.66 -3.04044 0.704529 0
M  V30 25441 N 2398.96 -0.660936 -1.43071 0
M  V30 25442 C 2399.89 0.0122419 -2.33497 0
M  V30 25443 C 2400.87 0.803899 -1.49905 0
M  V30 25444 O 2402.05 0.763833 -1.78548 0
M  V30 25445 C 2399.18 0.973936 -3.33364 0
M  V30 25446 C 2398.14 0.291852 -4.27004 0
M  V30 25447 C 2397.46 1.36553 -5.16969 0
M  V30 25448 C 2398.76 -0.820552 -5.15814 0
M  V30 25449 H 2400.46 -0.742924 -2.90036 0
M  V30 25450 H 2398 -0.358713 -1.39461 0
M  V30 25451 H 2399.96 1.45385 -3.95527 0
M  V30 25452 H 2398.68 1.76036 -2.75098 0
M  V30 25453 H 2397.34 -0.167687 -3.66216 0
M  V30 25454 H 2396.99 2.14358 -4.55038 0
M  V30 25455 H 2396.69 0.914352 -5.80442 0
M  V30 25456 H 2398.21 1.84665 -5.82006 0
M  V30 25457 H 2399.62 -0.422467 -5.71741 0
M  V30 25458 H 2398.02 -1.19667 -5.88048 0
M  V30 25459 H 2399.09 -1.67526 -4.55042 0
M  V30 25460 N 2400.43 1.52351 -0.403352 0
M  V30 25461 C 2401.66 2.05868 0.173724 0
M  V30 25462 C 2402.07 1.27381 1.39895 0
M  V30 25463 O 2401.42 0.317322 1.80939 0
M  V30 25464 C 2401.48 3.54547 0.594694 0
M  V30 25465 C 2401.14 4.54043 -0.519006 0
M  V30 25466 C 2402.14 5.01229 -1.38079 0
M  V30 25467 C 2399.82 4.97538 -0.690048 0
M  V30 25468 C 2401.82 5.90546 -2.39862 0
M  V30 25469 C 2399.5 5.86653 -1.71119 0
M  V30 25470 C 2400.5 6.33051 -2.56389 0
M  V30 25471 O 2400.19 7.20403 -3.56756 0
M  V30 25472 H 2399.92 0.675481 0.0264833 0
M  V30 25473 H 2402.48 1.97298 -0.571214 0
M  V30 25474 H 2400.71 3.60784 1.39183 0
M  V30 25475 H 2402.4 3.90738 1.09903 0
M  V30 25476 H 2403.16 4.68346 -1.26002 0
M  V30 25477 H 2399.04 4.60986 -0.03602 0
M  V30 25478 H 2402.58 6.26684 -3.06452 0
M  V30 25479 H 2398.48 6.18949 -1.83229 0
M  V30 25480 H 2399.25 7.385 -3.52931 0
M  V30 25481 N 2401.91 0.133594 1.57033 0
M  V30 25482 C 2403.16 -0.519814 1.95301 0
M  V30 25483 C 2403.48 -1.66276 1.01869 0
M  V30 25484 O 2402.75 -1.95746 0.0776857 0
M  V30 25485 H 2401.33 -0.195019 0.721094 0
M  V30 25486 H 2403.99 0.205955 1.93809 0
M  V30 25487 H 2403.09 -0.904801 2.98697 0
M  V30 25488 N 2403.39 -1.56975 -0.140195 0
M  V30 25489 C 2404.34 -1.99733 -1.19204 0
M  V30 25490 C 2405.33 -0.890802 -1.44087 0
M  V30 25491 O 2406.54 -1.07599 -1.443 0
M  V30 25492 H 2402.91 -0.635905 -0.401409 0
M  V30 25493 H 2404.88 -2.87343 -0.804763 0
M  V30 25494 C 2403.63 -2.39972 -2.51612 0
M  V30 25495 H 2402.96 -3.24673 -2.33297 0
M  V30 25496 H 2404.4 -2.73706 -3.23822 0
M  V30 25497 C 2402.86 -1.25502 -3.12651 0
M  V30 25498 O 2403.39 -0.559441 -3.97785 0
M  V30 25499 N 2401.59 -1.01751 -2.72204 0
M  V30 25500 H 2401.14 -1.58492 -2.03071 0
M  V30 25501 H 2401.1 -0.253516 -3.13376 0
M  V30 25502 N 2404.87 0.409753 -1.5218 0
M  V30 25503 C 2406.12 1.15448 -1.6588 0
M  V30 25504 C 2406.44 1.91044 -0.390804 0
M  V30 25505 O 2405.71 1.86668 0.59429 0
M  V30 25506 H 2404.29 0.429166 -0.611412 0
M  V30 25507 H 2406.95 0.467101 -1.8922 0
M  V30 25508 H 2406.05 1.86889 -2.49958 0
M  V30 25509 N 2406.35 1.42792 0.666944 0
M  V30 25510 C 2407.59 1.43893 1.42908 0
M  V30 25511 C 2407.93 0.0579313 1.94114 0
M  V30 25512 O 2407.2 -0.91908 1.71415 0
M  V30 25513 C 2407.48 2.46991 2.62044 0
M  V30 25514 C 2407.34 3.94313 2.16419 0
M  V30 25515 C 2408.66 2.46984 3.64262 0
M  V30 25516 H 2405.77 0.523963 0.518297 0
M  V30 25517 H 2408.42 1.74256 0.75729 0
M  V30 25518 H 2406.57 2.21231 3.19357 0
M  V30 25519 H 2408.24 4.31082 1.64213 0
M  V30 25520 H 2406.48 4.07802 1.47918 0
M  V30 25521 H 2407.15 4.62041 3.02029 0
M  V30 25522 H 2409.63 2.69911 3.16681 0
M  V30 25523 H 2408.5 3.21087 4.45191 0
M  V30 25524 H 2408.77 1.49864 4.15924 0
M  V30 25525 N 2407.82 -0.904008 1.29095 0
M  V30 25526 C 2409.07 -1.65654 1.16989 0
M  V30 25527 C 2409.4 -1.92187 -0.278891 0
M  V30 25528 O 2408.68 -1.52922 -1.20188 0
M  V30 25529 C 2408.96 -3.00836 1.97913 0
M  V30 25530 C 2408.81 -2.81396 3.50908 0
M  V30 25531 C 2410.13 -4.0151 1.80215 0
M  V30 25532 H 2407.25 -0.601157 0.426356 0
M  V30 25533 H 2409.89 -1.04744 1.5852 0
M  V30 25534 H 2408.04 -3.52826 1.62622 0
M  V30 25535 H 2409.72 -2.36341 3.96157 0
M  V30 25536 H 2407.96 -2.16263 3.76049 0
M  V30 25537 H 2408.63 -3.77436 4.02798 0
M  V30 25538 H 2411.11 -3.58615 2.11031 0
M  V30 25539 H 2409.98 -4.94042 2.39193 0
M  V30 25540 H 2410.24 -4.35585 0.756196 0
M  V30 25541 N 2409.3 -1.11501 -1.11379 0
M  V30 25542 C 2410.53 -0.886783 -1.86933 0
M  V30 25543 C 2410.95 0.563445 -1.80196 0
M  V30 25544 O 2410.3 1.38906 -1.1837 0
M  V30 25545 C 2410.35 -1.3407 -3.35719 0
M  V30 25546 O 2410.07 -2.73407 -3.42316 0
M  V30 25547 C 2411.58 -1.14798 -4.28178 0
M  V30 25548 H 2408.8 -0.317534 -0.591112 0
M  V30 25549 H 2411.34 -1.4825 -1.40862 0
M  V30 25550 H 2409.49 -0.788421 -3.79292 0
M  V30 25551 H 2409.91 -2.93095 -4.34966 0
M  V30 25552 H 2411.38 -1.51459 -5.30815 0
M  V30 25553 H 2411.86 -0.087605 -4.39113 0
M  V30 25554 H 2412.47 -1.68728 -3.90399 0
M  V30 25555 N 2410.78 1.28995 -0.905426 0
M  V30 25556 C 2412.2 1.47797 -0.602356 0
M  V30 25557 C 2412.4 1.82479 0.854613 0
M  V30 25558 O 2411.45 1.92471 1.63435 0
M  V30 25559 C 2412.77 2.58682 -1.5331 0
M  V30 25560 C 2414.31 2.72555 -1.53892 0
M  V30 25561 C 2414.79 3.86575 -2.45609 0
M  V30 25562 N 2416.28 3.93917 -2.43688 0
M  V30 25563 C 2417.02 4.81503 -3.11356 0
M  V30 25564 N 2416.51 5.7374 -3.88323 0
M  V30 25565 N 2418.3 4.75043 -3.00484 0
M  V30 25566 H 2410.46 1.04761 -1.84767 0
M  V30 25567 H 2412.72 0.520947 -0.792034 0
M  V30 25568 H 2412.42 2.39936 -2.57145 0
M  V30 25569 H 2412.3 3.55607 -1.25793 0
M  V30 25570 H 2414.69 2.90695 -0.507992 0
M  V30 25571 H 2414.77 1.76188 -1.8545 0
M  V30 25572 H 2414.41 3.69191 -3.48799 0
M  V30 25573 H 2414.34 4.82323 -2.11358 0
M  V30 25574 H 2416.83 3.27948 -1.87772 0
M  V30 25575 H 2417.14 6.37381 -4.36996 0
M  V30 25576 H 2415.49 5.73607 -3.92429 0
M  V30 25577 H 2418.68 4.01973 -2.39865 0
M  V30 25578 H 2418.85 5.43089 -3.53494 0
M  V30 25579 N 2412.26 0.668514 1.42719 0
M  V30 25580 C 2413.48 0.194794 2.06483 0
M  V30 25581 C 2413.91 -1.13677 1.49864 0
M  V30 25582 O 2413.27 -1.70564 0.614612 0
M  V30 25583 C 2413.32 0.133609 3.60352 0
M  V30 25584 O 2412.42 -0.899736 4.02466 0
M  V30 25585 H 2411.76 0.101892 0.656136 0
M  V30 25586 H 2414.29 0.915754 1.82962 0
M  V30 25587 H 2414.3 -0.0446324 4.07976 0
M  V30 25588 H 2412.98 1.10557 4.00936 0
M  V30 25589 H 2411.55 -0.693044 3.66403 0
M  V30 25590 N 2413.74 -1.52135 0.411426 0
M  V30 25591 C 2414.99 -2.01439 -0.163287 0
M  V30 25592 C 2415.31 -1.29882 -1.4545 0
M  V30 25593 O 2414.58 -0.425434 -1.91225 0
M  V30 25594 H 2413.16 -0.74431 -0.0633316 0
M  V30 25595 H 2415.82 -1.87032 0.548194 0
M  V30 25596 H 2414.91 -3.10043 -0.357762 0
M  V30 25597 N 2415.22 -0.14192 -1.5696 0
M  V30 25598 C 2416.18 0.785549 -2.15318 0
M  V30 25599 C 2417.18 1.17878 -1.09368 0
M  V30 25600 O 2418.37 1.10053 -1.35033 0
M  V30 25601 C 2415.5 2.06532 -2.71214 0
M  V30 25602 H 2416.69 0.277988 -2.98609 0
M  V30 25603 H 2414.25 0.107491 -1.5593 0
M  V30 25604 H 2414.98 2.61667 -1.91575 0
M  V30 25605 H 2414.77 1.79262 -3.48723 0
M  V30 25606 H 2416.26 2.72784 -3.16194 0
M  V30 25607 N 2416.69 1.57047 0.131868 0
M  V30 25608 C 2417.92 1.88069 0.855186 0
M  V30 25609 C 2418.33 0.729848 1.74556 0
M  V30 25610 O 2417.67 -0.308931 1.81084 0
M  V30 25611 C 2417.74 3.13967 1.75114 0
M  V30 25612 C 2417.4 4.45093 1.03639 0
M  V30 25613 C 2418.4 5.18486 0.383185 0
M  V30 25614 C 2416.08 4.91806 1.02139 0
M  V30 25615 C 2418.08 6.36805 -0.275459 0
M  V30 25616 C 2415.76 6.10045 0.35894 0
M  V30 25617 C 2416.76 6.82391 -0.288341 0
M  V30 25618 O 2416.45 7.98382 -0.940251 0
M  V30 25619 H 2416.18 0.627332 0.251853 0
M  V30 25620 H 2418.74 2.05021 0.124746 0
M  V30 25621 H 2416.97 2.93064 2.5229 0
M  V30 25622 H 2418.65 3.31113 2.34774 0
M  V30 25623 H 2419.42 4.83458 0.386477 0
M  V30 25624 H 2415.3 4.35408 1.51463 0
M  V30 25625 H 2418.84 6.93211 -0.78127 0
M  V30 25626 H 2414.74 6.44532 0.353367 0
M  V30 25627 H 2415.51 8.14143 -0.843433 0
M  V30 25628 N 2418.17 -0.401677 1.52395 0
M  V30 25629 C 2419.42 -1.14963 1.67067 0
M  V30 25630 C 2419.75 -1.89971 0.403086 0
M  V30 25631 O 2419.03 -1.85055 -0.598741 0
M  V30 25632 C 2419.31 -2.1381 2.89754 0
M  V30 25633 C 2419.16 -1.4265 4.2658 0
M  V30 25634 C 2420.48 -3.14391 3.07971 0
M  V30 25635 H 2417.6 -0.416576 0.607975 0
M  V30 25636 H 2420.24 -0.434478 1.84966 0
M  V30 25637 H 2418.39 -2.74798 2.74624 0
M  V30 25638 H 2420.06 -0.847249 4.53453 0
M  V30 25639 H 2418.31 -0.728415 4.27641 0
M  V30 25640 H 2418.98 -2.14814 5.08487 0
M  V30 25641 H 2421.45 -2.63485 3.22048 0
M  V30 25642 H 2420.33 -3.80812 3.95315 0
M  V30 25643 H 2420.59 -3.82542 2.21618 0
M  V30 25644 N 2419.65 -1.43144 -0.659362 0
M  V30 25645 C 2420.87 -1.48075 -1.45219 0
M  V30 25646 C 2421.3 -0.098028 -1.87844 0
M  V30 25647 O 2420.66 0.906913 -1.56987 0
M  V30 25648 C 2420.71 -2.42652 -2.66744 0
M  V30 25649 O 2419.81 -1.90854 -3.6558 0
M  V30 25650 H 2419.15 -0.501095 -0.43566 0
M  V30 25651 H 2421.68 -1.87995 -0.807399 0
M  V30 25652 H 2421.69 -2.59751 -3.14632 0
M  V30 25653 H 2420.37 -3.43103 -2.35061 0
M  V30 25654 H 2418.94 -1.83387 -3.2469 0
M  V30 25655 N 2421.13 0.897149 -1.29572 0
M  V30 25656 C 2422.09 1.9831 -1.14917 0
M  V30 25657 C 2423.09 1.60581 -0.0838911 0
M  V30 25658 O 2424.28 1.71026 -0.331036 0
M  V30 25659 C 2421.41 3.32368 -0.757893 0
M  V30 25660 H 2422.61 2.1274 -2.11381 0
M  V30 25661 H 2420.16 1.08199 -1.12795 0
M  V30 25662 H 2420.89 3.2364 0.20678 0
M  V30 25663 H 2420.68 3.61118 -1.52761 0
M  V30 25664 H 2422.17 4.12051 -0.67848 0
M  V30 25665 N 2422.61 1.1209 1.10786 0
M  V30 25666 C 2423.85 0.868691 1.82035 0
M  V30 25667 C 2424.17 -0.607394 1.8593 0
M  V30 25668 O 2425.37 -0.976085 2.53347 0
M  V30 25669 C 2423.83 1.50441 3.26949 0
M  V30 25670 C 2423.44 3.01502 3.31362 0
M  V30 25671 C 2425.18 1.33232 4.0305 0
M  V30 25672 C 2423.09 3.58025 4.70714 0
M  V30 25673 H 2422.02 0.32133 0.682102 0
M  V30 25674 H 2424.67 1.34696 1.24616 0
M  V30 25675 H 2423.05 0.953803 3.84342 0
M  V30 25676 H 2424.23 3.63025 2.83813 0
M  V30 25677 H 2422.54 3.18065 2.68744 0
M  V30 25678 H 2425.14 1.72887 5.05978 0
M  V30 25679 H 2425.48 0.275602 4.15387 0
M  V30 25680 H 2426.01 1.85194 3.52062 0
M  V30 25681 H 2422.75 4.6344 4.63577 0
M  V30 25682 H 2422.27 3.01277 5.18645 0
M  V30 25683 H 2423.95 3.56869 5.39679 0
M  V30 25684 N 2424.08 -1.28513 0.912254 0
M  V30 25685 C 2425.05 -2.25607 0.404263 0
M  V30 25686 C 2426.05 -1.53821 -0.468575 0
M  V30 25687 O 2427.24 -1.72066 -0.271843 0
M  V30 25688 C 2424.37 -3.38295 -0.420594 0
M  V30 25689 H 2425.56 -2.72058 1.26193 0
M  V30 25690 H 2423.11 -1.4017 0.691519 0
M  V30 25691 H 2423.85 -2.97203 -1.29772 0
M  V30 25692 H 2423.63 -3.91564 0.205004 0
M  V30 25693 H 2425.12 -4.10498 -0.766899 0
M  V30 25694 N 2425.56 -0.676073 -1.42362 0
M  V30 25695 C 2426.49 0.0404202 -2.29164 0
M  V30 25696 C 2427.51 0.764219 -1.43748 0
M  V30 25697 O 2428.7 0.618166 -1.67454 0
M  V30 25698 C 2425.8 1.08097 -3.21198 0
M  V30 25699 C 2424.97 0.430736 -4.35274 0
M  V30 25700 C 2424.03 1.37124 -5.08019 0
M  V30 25701 O 2423.05 0.871061 -5.62495 0
M  V30 25702 N 2424.26 2.70447 -5.13652 0
M  V30 25703 H 2427.02 -0.704718 -2.91297 0
M  V30 25704 H 2424.58 -0.520586 -1.53302 0
M  V30 25705 H 2426.57 1.71145 -3.66731 0
M  V30 25706 H 2425.14 1.72783 -2.60509 0
M  V30 25707 H 2424.36 -0.379278 -3.92371 0
M  V30 25708 H 2425.65 -0.0222027 -5.08795 0
M  V30 25709 H 2425.05 3.13621 -4.70806 0
M  V30 25710 H 2423.61 3.28739 -5.62826 0
M  V30 25711 N 2427.04 1.51915 -0.419488 0
M  V30 25712 C 2428.27 2.0634 0.1521 0
M  V30 25713 C 2428.68 1.28861 1.37986 0
M  V30 25714 O 2428.04 0.343263 1.79243 0
M  V30 25715 C 2428.09 3.58134 0.492203 0
M  V30 25716 O 2427.81 4.32683 -0.686812 0
M  V30 25717 C 2429.31 4.29012 1.1164 0
M  V30 25718 H 2426.53 0.670813 0.0158207 0
M  V30 25719 H 2429.08 1.957 -0.593428 0
M  V30 25720 H 2427.23 3.68747 1.18762 0
M  V30 25721 H 2427.65 5.22969 -0.400433 0
M  V30 25722 H 2429.12 5.36364 1.3045 0
M  V30 25723 H 2429.6 3.86152 2.09244 0
M  V30 25724 H 2430.2 4.22795 0.460884 0
M  V30 25725 N 2428.52 0.150242 1.56882 0
M  V30 25726 C 2429.43 -0.801184 2.20495 0
M  V30 25727 C 2430.44 -1.26925 1.19021 0
M  V30 25728 O 2431.62 -1.32576 1.5161 0
M  V30 25729 C 2428.69 -2.02156 2.81662 0
M  V30 25730 C 2427.75 -1.60242 3.98273 0
M  V30 25731 C 2426.98 -2.76462 4.56513 0
M  V30 25732 O 2427.2 -3.92764 4.13634 0
M  V30 25733 O 2426.14 -2.51748 5.46724 0
M  V30 25734 H 2429.96 -0.289664 3.02315 0
M  V30 25735 H 2427.55 -0.0769422 1.49202 0
M  V30 25736 H 2429.43 -2.7357 3.20527 0
M  V30 25737 H 2428.1 -2.52254 2.02853 0
M  V30 25738 H 2427.01 -0.858413 3.64118 0
M  V30 25739 H 2428.34 -1.14856 4.78611 0
M  V30 25740 N 2430 -1.57115 -0.123538 0
M  V30 25741 C 2430.94 -2.00009 -1.15174 0
M  V30 25742 C 2431.91 -0.871479 -1.41402 0
M  V30 25743 O 2433.1 -1.13536 -1.53344 0
M  V30 25744 C 2430.24 -2.40565 -2.47431 0
M  V30 25745 C 2429.35 -3.66823 -2.28178 0
M  V30 25746 C 2428.49 -3.96379 -3.53634 0
M  V30 25747 C 2427.53 -5.15833 -3.29519 0
M  V30 25748 N 2426.66 -5.41283 -4.47166 0
M  V30 25749 H 2431.5 -2.87639 -0.778957 0
M  V30 25750 H 2429.04 -1.42289 -0.373141 0
M  V30 25751 H 2431 -2.62115 -3.24579 0
M  V30 25752 H 2429.63 -1.55983 -2.82611 0
M  V30 25753 H 2428.68 -3.52915 -1.41969 0
M  V30 25754 H 2429.99 -4.54124 -2.06332 0
M  V30 25755 H 2429.15 -4.18553 -4.39202 0
M  V30 25756 H 2427.88 -3.07545 -3.78507 0
M  V30 25757 H 2426.89 -4.93509 -2.42341 0
M  V30 25758 H 2428.11 -6.06241 -3.06021 0
M  V30 25759 H 2426.06 -4.55405 -4.72167 0
M  V30 25760 H 2425.98 -6.22899 -4.28408 0
M  V30 25761 H 2427.25 -5.67972 -5.3388 0
M  V30 25762 N 2431.47 0.393589 -1.52606 0
M  V30 25763 C 2432.7 1.16492 -1.71594 0
M  V30 25764 C 2433.12 1.83087 -0.431363 0
M  V30 25765 O 2432.48 1.70641 0.612493 0
M  V30 25766 C 2432.53 2.19208 -2.86322 0
M  V30 25767 O 2431.63 3.25695 -2.52975 0
M  V30 25768 H 2430.98 0.33934 -0.57074 0
M  V30 25769 H 2433.51 0.459289 -1.99378 0
M  V30 25770 H 2433.52 2.63281 -3.11684 0
M  V30 25771 H 2432.19 1.70123 -3.79514 0
M  V30 25772 H 2430.77 2.86792 -2.38337 0
M  V30 25773 N 2432.95 1.43492 0.651762 0
M  V30 25774 C 2434.2 1.44472 1.40751 0
M  V30 25775 C 2434.51 0.0732189 1.95463 0
M  V30 25776 O 2435.72 -0.0395244 2.71471 0
M  V30 25777 C 2434.18 2.54244 2.54731 0
M  V30 25778 C 2433.78 3.97507 2.06621 0
M  V30 25779 C 2435.53 2.6442 3.32088 0
M  V30 25780 C 2433.44 4.98743 3.1782 0
M  V30 25781 H 2432.37 0.53743 0.528853 0
M  V30 25782 H 2435.02 1.69486 0.703335 0
M  V30 25783 H 2433.4 2.22434 3.27626 0
M  V30 25784 H 2434.57 4.38785 1.40727 0
M  V30 25785 H 2432.89 3.91389 1.42139 0
M  V30 25786 H 2435.48 3.3723 4.14946 0
M  V30 25787 H 2435.83 1.69538 3.80214 0
M  V30 25788 H 2436.36 2.95539 2.66274 0
M  V30 25789 H 2433.1 5.95182 2.74661 0
M  V30 25790 H 2432.62 4.62076 3.82421 0
M  V30 25791 H 2434.3 5.21512 3.82928 0
M  V30 25792 N 2434.43 -0.890264 1.30046 0
M  V30 25793 C 2435.34 -2.02829 1.17889 0
M  V30 25794 C 2436.36 -1.73712 0.0999915 0
M  V30 25795 O 2437.53 -1.98939 0.313902 0
M  V30 25796 C 2434.6 -3.35707 0.866138 0
M  V30 25797 C 2433.66 -3.7828 2.02985 0
M  V30 25798 C 2432.89 -5.04817 1.73193 0
M  V30 25799 O 2433.11 -5.666 0.657337 0
M  V30 25800 O 2432.05 -5.4367 2.58276 0
M  V30 25801 H 2435.87 -2.16012 2.13478 0
M  V30 25802 H 2433.46 -1.01541 1.09589 0
M  V30 25803 H 2435.34 -4.15432 0.706696 0
M  V30 25804 H 2434.02 -3.23645 -0.0598874 0
M  V30 25805 H 2432.92 -2.99281 2.24459 0
M  V30 25806 H 2434.26 -3.94939 2.93741 0
M  V30 25807 N 2435.91 -1.12676 -1.1019 0
M  V30 25808 C 2437.19 -0.794997 -1.78715 0
M  V30 25809 C 2437.57 0.714818 -1.98629 0
M  V30 25810 O 2436.91 1.64939 -1.58138 0
M  V30 25811 C 2437.12 -1.57296 -3.11543 0
M  V30 25812 C 2438.47 -1.76059 -3.86379 0
M  V30 25813 O 2439.5 -1.53829 -3.21271 0
M  V30 25814 O 2438.35 -2.13096 -5.03242 0
M  V30 25815 H 2435.45 -0.289437 -0.774697 0
M  V30 25816 H 2437.99 -1.23093 -1.16817 0
M  V30 25817 H 2436.77 -2.5994 -2.92484 0
M  V30 25818 H 2436.39 -1.13144 -3.81162 0
M  V30 25819 N 2437.39 1.28028 -0.919057 0
M  V30 25820 C 2438.33 2.29103 -0.401793 0
M  V30 25821 C 2439.33 1.61562 0.509326 0
M  V30 25822 O 2440.53 1.75725 0.389983 0
M  V30 25823 H 2436.91 0.743711 -0.111344 0
M  V30 25824 H 2438.88 2.70154 -1.26725 0
M  V30 25825 C 2437.63 3.46052 0.338088 0
M  V30 25826 H 2436.95 3.98231 -0.353802 0
M  V30 25827 H 2438.39 4.18759 0.664579 0
M  V30 25828 C 2436.85 2.99234 1.54793 0
M  V30 25829 O 2437.38 3.02162 2.6469 0
M  V30 25830 N 2435.59 2.54832 1.39675 0
M  V30 25831 H 2435.13 2.52648 0.502653 0
M  V30 25832 H 2435.09 2.23867 2.20751 0
M  V30 25833 N 2438.86 0.683613 1.42002 0
M  V30 25834 C 2440.28 0.285769 1.845 0
M  V30 25835 C 2440.63 -1.17379 1.57215 0
M  V30 25836 O 2439.75 -1.89965 1.03646 0
M  V30 25837 C 2440.35 0.51188 3.34911 0
M  V30 25838 C 2438.91 0.168071 3.76025 0
M  V30 25839 C 2438.05 0.80003 2.65509 0
M  V30 25840 H 2441 0.885142 1.31723 0
M  V30 25841 H 2441.02 -0.233226 3.79785 0
M  V30 25842 H 2440.54 1.57425 3.54738 0
M  V30 25843 H 2438.64 -0.890504 3.61802 0
M  V30 25844 H 2438.75 0.614744 4.7514 0
M  V30 25845 H 2437.11 0.230613 2.53654 0
M  V30 25846 H 2437.9 1.86603 2.88157 0
M  V30 25847 N 2440.34 -1.5169 0.427538 0
M  V30 25848 C 2441.25 -2.31247 -0.395229 0
M  V30 25849 C 2442.27 -1.39744 -1.03671 0
M  V30 25850 O 2443.45 -1.72817 -1.03422 0
M  V30 25851 C 2440.51 -3.13192 -1.487 0
M  V30 25852 C 2439.57 -4.20461 -0.866669 0
M  V30 25853 C 2438.8 -4.98489 -1.90642 0
M  V30 25854 O 2439.03 -4.77032 -3.12725 0
M  V30 25855 O 2437.96 -5.82848 -1.5024 0
M  V30 25856 H 2441.79 -3.02636 0.253971 0
M  V30 25857 H 2439.37 -1.48183 0.1903 0
M  V30 25858 H 2441.25 -3.64166 -2.12041 0
M  V30 25859 H 2439.93 -2.44577 -2.12047 0
M  V30 25860 H 2438.84 -3.73589 -0.195478 0
M  V30 25861 H 2440.17 -4.91421 -0.276848 0
M  V30 25862 N 2441.82 -0.15856 -1.568 0
M  V30 25863 C 2443.07 0.489667 -1.95666 0
M  V30 25864 C 2443.38 1.65246 -1.04657 0
M  V30 25865 O 2444.59 2.36608 -1.3315 0
M  V30 25866 C 2443.05 0.922521 -3.47876 0
M  V30 25867 C 2442.65 -0.213971 -4.47489 0
M  V30 25868 C 2444.4 1.53989 -3.95585 0
M  V30 25869 C 2442.3 0.237799 -5.90922 0
M  V30 25870 H 2441.23 0.186704 -0.730519 0
M  V30 25871 H 2443.89 -0.244754 -1.8186 0
M  V30 25872 H 2442.27 1.71255 -3.57054 0
M  V30 25873 H 2443.44 -0.991115 -4.50015 0
M  V30 25874 H 2441.76 -0.740479 -4.09763 0
M  V30 25875 H 2444.35 1.88972 -5.00194 0
M  V30 25876 H 2444.7 2.43313 -3.37794 0
M  V30 25877 H 2445.23 0.814542 -3.89371 0
M  V30 25878 H 2441.97 -0.620351 -6.52558 0
M  V30 25879 H 2441.49 0.980572 -5.9173 0
M  V30 25880 H 2443.17 0.685954 -6.43353 0
M  V30 25881 N 2443.3 1.57178 0.115204 0
M  V30 25882 C 2444.21 2.0392 1.1599 0
M  V30 25883 C 2445.23 0.960293 1.45101 0
M  V30 25884 O 2446.4 1.27207 1.56142 0
M  V30 25885 C 2443.47 2.43736 2.46563 0
M  V30 25886 C 2442.53 3.65727 2.24815 0
M  V30 25887 C 2441.76 4.03635 3.49163 0
M  V30 25888 O 2441.98 3.41843 4.56617 0
M  V30 25889 O 2440.92 4.96714 3.3994 0
M  V30 25890 H 2444.74 2.93165 0.792968 0
M  V30 25891 H 2442.33 1.45794 0.326274 0
M  V30 25892 H 2444.21 2.70063 3.23487 0
M  V30 25893 H 2442.89 1.57636 2.82723 0
M  V30 25894 H 2441.79 3.44545 1.45738 0
M  V30 25895 H 2443.13 4.52544 1.93558 0
M  V30 25896 N 2444.78 -0.38549 1.52813 0
M  V30 25897 C 2446.05 -1.14462 1.58612 0
M  V30 25898 C 2446.43 -2.07625 0.381438 0
M  V30 25899 O 2445.78 -2.19645 -0.62996 0
M  V30 25900 C 2445.99 -1.90123 2.92668 0
M  V30 25901 C 2447.34 -2.45361 3.4653 0
M  V30 25902 O 2448.36 -2.00275 2.94565 0
M  V30 25903 O 2447.22 -3.27728 4.37329 0
M  V30 25904 H 2444.32 -0.52393 0.639865 0
M  V30 25905 H 2446.86 -0.39036 1.65149 0
M  V30 25906 H 2445.64 -1.22015 3.7179 0
M  V30 25907 H 2445.26 -2.72502 2.89531 0
M  V30 25908 N 2446.26 -1.43835 -0.644143 0
M  V30 25909 C 2447.53 -1.36409 -1.40186 0
M  V30 25910 C 2447.91 -0.0163495 -2.11094 0
M  V30 25911 O 2447.26 1.00059 -2.05428 0
M  V30 25912 C 2447.47 -2.55347 -2.37905 0
M  V30 25913 C 2448.82 -2.98837 -3.01631 0
M  V30 25914 O 2449.84 -2.55459 -2.48232 0
M  V30 25915 O 2448.7 -3.7401 -3.9847 0
M  V30 25916 H 2445.8 -0.539534 -0.626764 0
M  V30 25917 H 2448.34 -1.55901 -0.670289 0
M  V30 25918 H 2447.11 -3.45063 -1.84519 0
M  V30 25919 H 2446.74 -2.38001 -3.18498 0
M  V30 25920 N 2447.73 0.883355 -1.30517 0
M  V30 25921 C 2448.98 1.63003 -1.18798 0
M  V30 25922 C 2449.3 1.93919 0.255889 0
M  V30 25923 O 2450.5 2.66957 0.494607 0
M  V30 25924 C 2448.96 2.9379 -2.07883 0
M  V30 25925 C 2448.57 2.70408 -3.57188 0
M  V30 25926 C 2450.31 3.71757 -2.04931 0
M  V30 25927 C 2448.22 3.97022 -4.38324 0
M  V30 25928 H 2447.15 0.611554 -0.441042 0
M  V30 25929 H 2449.8 0.977826 -1.55277 0
M  V30 25930 H 2448.18 3.60313 -1.64289 0
M  V30 25931 H 2449.35 2.12377 -4.08941 0
M  V30 25932 H 2447.67 2.05814 -3.6198 0
M  V30 25933 H 2450.27 4.65661 -2.628 0
M  V30 25934 H 2450.61 4.03276 -1.03317 0
M  V30 25935 H 2451.14 3.121 -2.46654 0
M  V30 25936 H 2447.88 3.70661 -5.40639 0
M  V30 25937 H 2447.4 4.54552 -3.91334 0
M  V30 25938 H 2449.08 4.65028 -4.49842 0
M  V30 25939 N 2449.21 1.13259 1.09591 0
M  V30 25940 C 2450.46 0.893289 1.81732 0
M  V30 25941 C 2450.79 -0.580623 1.85631 0
M  V30 25942 O 2450.04 -1.44564 1.31908 0
M  V30 25943 C 2450.34 1.42416 3.27799 0
M  V30 25944 C 2450.01 2.91462 3.44036 0
M  V30 25945 C 2448.67 3.32156 3.48175 0
M  V30 25946 C 2451.02 3.87362 3.48712 0
M  V30 25947 C 2448.35 4.67439 3.54567 0
M  V30 25948 C 2450.7 5.22486 3.56639 0
M  V30 25949 C 2449.36 5.6271 3.59045 0
M  V30 25950 H 2448.63 0.326877 0.665005 0
M  V30 25951 H 2451.28 1.41425 1.29117 0
M  V30 25952 H 2449.59 0.823863 3.8304 0
M  V30 25953 H 2451.28 1.2151 3.82147 0
M  V30 25954 H 2447.87 2.58993 3.41498 0
M  V30 25955 H 2452.06 3.5701 3.44757 0
M  V30 25956 H 2447.31 4.97982 3.54717 0
M  V30 25957 H 2451.49 5.96613 3.59202 0
M  V30 25958 H 2449.11 6.67525 3.63751 0
M  V30 25959 N 2450.69 -1.27539 0.925834 0
M  V30 25960 C 2452.11 -1.4682 0.625793 0
M  V30 25961 C 2452.31 -1.83816 -0.825474 0
M  V30 25962 O 2451.36 -1.95047 -1.60353 0
M  V30 25963 C 2452.67 -2.5621 1.57406 0
M  V30 25964 C 2454.22 -2.70072 1.58209 0
M  V30 25965 C 2454.7 -3.82619 2.51728 0
M  V30 25966 N 2456.19 -3.8999 2.49924 0
M  V30 25967 C 2456.92 -4.76489 3.18976 0
M  V30 25968 N 2456.42 -5.67489 3.97401 0
M  V30 25969 N 2458.21 -4.70202 3.08004 0
M  V30 25970 H 2450.36 -1.01808 1.86411 0
M  V30 25971 H 2452.63 -0.50828 0.800222 0
M  V30 25972 H 2452.33 -2.35815 2.6093 0
M  V30 25973 H 2452.21 -3.5356 1.31434 0
M  V30 25974 H 2454.59 -2.8985 0.554175 0
M  V30 25975 H 2454.67 -1.73215 1.88229 0
M  V30 25976 H 2454.32 -3.63595 3.54628 0
M  V30 25977 H 2454.25 -4.78899 2.19004 0
M  V30 25978 H 2456.74 -3.24919 1.92966 0
M  V30 25979 H 2457.05 -6.30348 4.47081 0
M  V30 25980 H 2455.4 -5.67291 4.01505 0
M  V30 25981 H 2458.59 -3.98106 2.4623 0
M  V30 25982 H 2458.76 -5.37397 3.62089 0
M  V30 25983 N 2452.17 -0.691135 -1.41637 0
M  V30 25984 C 2453.11 -0.023011 -2.30789 0
M  V30 25985 C 2454.08 0.775885 -1.46865 0
M  V30 25986 O 2455.27 0.744819 -1.75662 0
M  V30 25987 C 2452.41 0.910607 -3.32869 0
M  V30 25988 C 2451.52 0.103798 -4.31875 0
M  V30 25989 C 2450.66 1.03465 -5.21026 0
M  V30 25990 C 2449.7 0.22049 -6.11703 0
M  V30 25991 N 2448.83 1.10491 -6.93351 0
M  V30 25992 H 2453.67 -0.789029 -2.87364 0
M  V30 25993 H 2451.21 -0.400819 -1.41534 0
M  V30 25994 H 2453.17 1.4659 -3.90599 0
M  V30 25995 H 2451.8 1.64307 -2.77854 0
M  V30 25996 H 2450.85 -0.568351 -3.7613 0
M  V30 25997 H 2452.16 -0.527591 -4.96002 0
M  V30 25998 H 2451.32 1.65932 -5.83568 0
M  V30 25999 H 2450.06 1.69991 -4.57115 0
M  V30 26000 H 2449.06 -0.417283 -5.48214 0
M  V30 26001 H 2450.29 -0.440903 -6.77667 0
M  V30 26002 H 2448.23 1.75627 -6.32053 0
M  V30 26003 H 2448.15 0.528992 -7.54147 0
M  V30 26004 H 2449.42 1.71654 -7.60365 0
M  V30 26005 N 2453.65 1.51461 -0.435577 0
M  V30 26006 C 2455.06 1.59358 -0.0877782 0
M  V30 26007 C 2455.26 1.44663 1.40267 0
M  V30 26008 O 2454.32 1.28696 2.17241 0
M  V30 26009 C 2455.63 2.94524 -0.606316 0
M  V30 26010 C 2457.18 3.07829 -0.566602 0
M  V30 26011 C 2457.65 4.45515 -1.06208 0
M  V30 26012 N 2459.14 4.5183 -1.02 0
M  V30 26013 C 2459.88 5.56688 -1.37427 0
M  V30 26014 N 2459.38 6.68973 -1.80131 0
M  V30 26015 N 2461.17 5.47037 -1.29255 0
M  V30 26016 H 2453.32 1.59259 -1.40536 0
M  V30 26017 H 2455.58 0.750638 -0.579005 0
M  V30 26018 H 2455.29 3.10642 -1.64906 0
M  V30 26019 H 2455.16 3.77188 -0.030276 0
M  V30 26020 H 2457.55 2.91379 0.467157 0
M  V30 26021 H 2457.63 2.27008 -1.17902 0
M  V30 26022 H 2457.27 4.62711 -2.0943 0
M  V30 26023 H 2457.2 5.24872 -0.426219 0
M  V30 26024 H 2459.7 3.7124 -0.706373 0
M  V30 26025 H 2460.01 7.45002 -2.05405 0
M  V30 26026 H 2458.35 6.70185 -1.84056 0
M  V30 26027 H 2461.54 4.582 -0.957602 0
M  V30 26028 H 2461.72 6.28645 -1.57193 0
M  V30 26029 N 2455.12 0.166873 1.56714 0
M  V30 26030 C 2456.54 -0.189345 1.58473 0
M  V30 26031 C 2456.74 -1.63187 1.18204 0
M  V30 26032 O 2455.8 -2.36236 0.89157 0
M  V30 26033 C 2457.11 0.0874401 3.00573 0
M  V30 26034 C 2458.66 0.0252993 3.1299 0
M  V30 26035 C 2459.13 0.275014 4.57174 0
M  V30 26036 N 2460.62 0.222634 4.62665 0
M  V30 26037 C 2461.36 0.390086 5.72072 0
M  V30 26038 N 2460.85 0.616351 6.90053 0
M  V30 26039 N 2462.65 0.326301 5.61152 0
M  V30 26040 H 2454.8 1.10853 1.81178 0
M  V30 26041 H 2457.06 0.440357 0.839518 0
M  V30 26042 H 2456.77 1.08656 3.34495 0
M  V30 26043 H 2456.64 -0.622972 3.7202 0
M  V30 26044 H 2459.03 -0.964391 2.78897 0
M  V30 26045 H 2459.11 0.768352 2.43988 0
M  V30 26046 H 2458.75 1.26189 4.91974 0
M  V30 26047 H 2458.68 -0.488597 5.24328 0
M  V30 26048 H 2461.17 0.0532177 3.77863 0
M  V30 26049 H 2461.49 0.733694 7.69309 0
M  V30 26050 H 2459.83 0.652912 6.91926 0
M  V30 26051 H 2463.02 0.150154 4.67859 0
M  V30 26052 H 2463.2 0.46023 6.46364 0
M  V30 26053 N 2456.6 -1.57237 -0.106866 0
M  V30 26054 C 2457.53 -2.04256 -1.13145 0
M  V30 26055 C 2458.51 -0.929249 -1.42474 0
M  V30 26056 O 2459.7 -1.19976 -1.52707 0
M  V30 26057 C 2456.83 -2.4571 -2.45446 0
M  V30 26058 C 2455.78 -3.60597 -2.30552 0
M  V30 26059 C 2455.11 -3.87989 -3.67925 0
M  V30 26060 C 2456.41 -4.919 -1.75588 0
M  V30 26061 H 2458.1 -2.90103 -0.740323 0
M  V30 26062 H 2455.65 -1.39564 -0.354672 0
M  V30 26063 H 2457.6 -2.7721 -3.17384 0
M  V30 26064 H 2456.33 -1.56848 -2.86472 0
M  V30 26065 H 2454.98 -3.29325 -1.61061 0
M  V30 26066 H 2454.63 -2.96314 -4.06457 0
M  V30 26067 H 2454.33 -4.65328 -3.58808 0
M  V30 26068 H 2455.86 -4.21953 -4.41348 0
M  V30 26069 H 2457.27 -5.21858 -2.37355 0
M  V30 26070 H 2455.67 -5.73322 -1.77262 0
M  V30 26071 H 2456.74 -4.79609 -0.714367 0
M  V30 26072 N 2458.08 0.377381 -1.53015 0
M  V30 26073 C 2459.31 1.14216 -1.72517 0
M  V30 26074 C 2459.72 1.83389 -0.448768 0
M  V30 26075 O 2459.08 1.7312 0.577562 0
M  V30 26076 C 2459.13 2.18143 -2.88264 0
M  V30 26077 O 2458.85 1.51788 -4.10965 0
M  V30 26078 C 2460.35 3.07259 -3.19542 0
M  V30 26079 H 2457.57 0.34199 -0.577307 0
M  V30 26080 H 2460.12 0.4399 -1.99713 0
M  V30 26081 H 2458.27 2.83986 -2.63497 0
M  V30 26082 H 2458.69 2.20937 -4.75697 0
M  V30 26083 H 2460.16 3.76186 -4.03966 0
M  V30 26084 H 2460.64 3.71415 -2.34409 0
M  V30 26085 H 2461.24 2.47047 -3.46191 0
M  V30 26086 N 2459.56 1.44175 0.636506 0
M  V30 26087 C 2460.81 1.45956 1.39211 0
M  V30 26088 C 2461.12 0.0939462 1.95374 0
M  V30 26089 O 2462.33 -0.010729 2.71498 0
M  V30 26090 C 2460.78 2.56932 2.5202 0
M  V30 26091 C 2460.39 3.99676 2.02393 0
M  V30 26092 C 2462.13 2.67928 3.29264 0
M  V30 26093 C 2460.04 5.02086 3.12512 0
M  V30 26094 H 2458.97 0.543009 0.523123 0
M  V30 26095 H 2461.62 1.70222 0.685319 0
M  V30 26096 H 2460 2.25896 3.25249 0
M  V30 26097 H 2461.18 4.40253 1.36065 0
M  V30 26098 H 2459.49 3.92875 1.3798 0
M  V30 26099 H 2462.09 3.41612 4.11346 0
M  V30 26100 H 2462.43 1.73562 3.78394 0
M  V30 26101 H 2462.97 2.98346 2.63124 0
M  V30 26102 H 2459.71 5.98062 2.68333 0
M  V30 26103 H 2459.23 4.66106 3.77499 0
M  V30 26104 H 2460.9 5.25544 3.77375 0
M  V30 26105 N 2461.04 -0.876421 1.30983 0
M  V30 26106 C 2461.97 -1.98589 1.12417 0
M  V30 26107 C 2462.95 -1.62573 0.0294364 0
M  V30 26108 O 2464.13 -1.87594 0.184631 0
M  V30 26109 C 2461.26 -3.31038 0.716334 0
M  V30 26110 C 2460.3 -3.86039 1.81318 0
M  V30 26111 S 2461.14 -4.12284 3.41734 0
M  V30 26112 C 2462.29 -5.4774 3.02872 0
M  V30 26113 H 2462.53 -2.14033 2.06342 0
M  V30 26114 H 2460.06 -1.02583 1.15395 0
M  V30 26115 H 2462.02 -4.07592 0.487769 0
M  V30 26116 H 2460.68 -3.13439 -0.203694 0
M  V30 26117 H 2459.87 -4.81771 1.48029 0
M  V30 26118 H 2459.47 -3.16255 1.99646 0
M  V30 26119 H 2461.77 -6.29144 2.51364 0
M  V30 26120 H 2462.71 -5.85973 3.97544 0
M  V30 26121 H 2463.12 -5.10707 2.40496 0
M  V30 26122 N 2462.51 -1.13839 -1.08989 0
M  V30 26123 C 2463.79 -0.813907 -1.77862 0
M  V30 26124 C 2464.17 0.693711 -1.99376 0
M  V30 26125 O 2463.52 1.63252 -1.59878 0
M  V30 26126 C 2463.73 -1.60591 -3.09857 0
M  V30 26127 C 2465.08 -1.80147 -3.8449 0
M  V30 26128 O 2466.1 -1.57228 -3.19622 0
M  V30 26129 O 2464.96 -2.18422 -5.00953 0
M  V30 26130 H 2462.05 -0.297637 -0.771583 0
M  V30 26131 H 2464.6 -1.24325 -1.15505 0
M  V30 26132 H 2463.37 -2.63027 -2.89711 0
M  V30 26133 H 2463 -1.1718 -3.7994 0
M  V30 26134 N 2463.99 1.27046 -0.932584 0
M  V30 26135 C 2464.92 2.29065 -0.452942 0
M  V30 26136 C 2465.9 1.6291 0.48931 0
M  V30 26137 O 2467.09 1.90182 0.393013 0
M  V30 26138 C 2464.22 3.46082 0.290637 0
M  V30 26139 C 2463.17 4.24264 -0.564242 0
M  V30 26140 C 2462.5 5.33808 0.308793 0
M  V30 26141 C 2463.8 4.89146 -1.83121 0
M  V30 26142 H 2465.49 2.69435 -1.30557 0
M  V30 26143 H 2463.04 1.29525 -0.629224 0
M  V30 26144 H 2464.99 4.16555 0.63716 0
M  V30 26145 H 2463.72 3.04642 1.17733 0
M  V30 26146 H 2462.37 3.55544 -0.89354 0
M  V30 26147 H 2462.02 4.88609 1.19458 0
M  V30 26148 H 2461.72 5.87026 -0.259736 0
M  V30 26149 H 2463.25 6.07122 0.650777 0
M  V30 26150 H 2464.66 5.5188 -1.55246 0
M  V30 26151 H 2463.06 5.52444 -2.34363 0
M  V30 26152 H 2464.13 4.12572 -2.5478 0
M  V30 26153 N 2465.47 0.698636 1.41269 0
M  V30 26154 C 2466.42 0.0120236 2.27997 0
M  V30 26155 C 2467.4 -0.74974 1.42365 0
M  V30 26156 O 2468.6 -0.624729 1.65608 0
M  V30 26157 C 2465.73 -0.9214 3.30704 0
M  V30 26158 C 2464.81 -0.155722 4.23814 0
M  V30 26159 N 2465.2 0.852103 4.98571 0
M  V30 26160 C 2463.5 -0.390758 4.44285 0
M  V30 26161 C 2464.2 1.3107 5.66741 0
M  V30 26162 N 2463.18 0.636039 5.39866 0
M  V30 26163 H 2466.98 0.784699 2.83231 0
M  V30 26164 H 2464.49 0.529738 1.53517 0
M  V30 26165 H 2466.49 -1.42847 3.91664 0
M  V30 26166 H 2465.15 -1.69364 2.77031 0
M  V30 26167 H 2466.16 1.23244 5.03022 0
M  V30 26168 H 2462.84 -1.14064 4.01616 0
M  V30 26169 H 2464.23 2.14718 6.36668 0
M  V30 26170 N 2466.95 -1.51228 0.443603 0
M  V30 26171 C 2468.36 -1.86691 -0.0180538 0
M  V30 26172 C 2468.71 -1.36035 -1.41382 0
M  V30 26173 O 2467.84 -0.713758 -2.0429 0
M  V30 26174 C 2468.43 -3.38777 -0.0395375 0
M  V30 26175 C 2466.99 -3.73753 -0.445627 0
M  V30 26176 C 2466.14 -2.74984 0.357633 0
M  V30 26177 H 2469.09 -1.44363 0.659164 0
M  V30 26178 H 2469.11 -3.70937 -0.847696 0
M  V30 26179 H 2468.62 -3.75616 0.976448 0
M  V30 26180 H 2466.72 -3.42506 -1.46698 0
M  V30 26181 H 2466.83 -4.78812 -0.166071 0
M  V30 26182 H 2465.2 -2.54028 -0.184928 0
M  V30 26183 H 2465.98 -3.14665 1.37261 0
M  V30 26184 N 2468.43 -0.175182 -1.56623 0
M  V30 26185 C 2469.67 0.467851 -1.9661 0
M  V30 26186 C 2470 1.63517 -1.06241 0
M  V30 26187 O 2469.27 1.95471 -0.129557 0
M  V30 26188 H 2467.85 0.175832 -0.726011 0
M  V30 26189 H 2470.51 -0.257268 -1.93195 0
M  V30 26190 H 2469.6 0.825289 -3.00991 0
M  V30 26191 N 2469.91 1.57292 0.0985263 0
M  V30 26192 C 2470.87 2.0086 1.10398 0
M  V30 26193 C 2471.87 0.901616 1.33145 0
M  V30 26194 O 2473.06 1.16718 1.29316 0
M  V30 26195 C 2470.19 2.36636 2.4539 0
M  V30 26196 H 2471.38 2.90904 0.729048 0
M  V30 26197 H 2468.94 1.52479 0.343468 0
M  V30 26198 H 2469.67 1.49536 2.87766 0
M  V30 26199 H 2469.46 3.17391 2.30229 0
M  V30 26200 H 2470.95 2.71013 3.17713 0
M  V30 26201 N 2471.38 -0.369261 1.53213 0
M  V30 26202 C 2472.63 -1.11009 1.68883 0
M  V30 26203 C 2472.95 -1.8994 0.441319 0
M  V30 26204 O 2472.22 -1.88178 -0.54459 0
M  V30 26205 H 2470.8 -0.412805 0.622576 0
M  V30 26206 H 2473.46 -0.416768 1.90392 0
M  V30 26207 H 2472.56 -1.80196 2.54825 0
M  V30 26208 N 2472.86 -1.4451 -0.628851 0
M  V30 26209 C 2473.81 -1.51552 -1.74071 0
M  V30 26210 C 2474.78 -0.363049 -1.62084 0
M  V30 26211 O 2475.96 -0.573599 -1.81974 0
M  V30 26212 C 2473.1 -1.46789 -3.12325 0
M  V30 26213 C 2472.22 -2.72428 -3.35272 0
M  V30 26214 C 2471.35 -2.59483 -4.63511 0
M  V30 26215 C 2470.39 -3.80274 -4.79644 0
M  V30 26216 N 2469.53 -3.65991 -5.99162 0
M  V30 26217 H 2474.37 -2.46547 -1.67388 0
M  V30 26218 H 2471.9 -1.22359 -0.816505 0
M  V30 26219 H 2473.86 -1.42019 -3.92284 0
M  V30 26220 H 2472.49 -0.5536 -3.18017 0
M  V30 26221 H 2471.54 -2.87376 -2.49237 0
M  V30 26222 H 2472.86 -3.62082 -3.43071 0
M  V30 26223 H 2472.01 -2.52558 -5.51633 0
M  V30 26224 H 2470.75 -1.67392 -4.58073 0
M  V30 26225 H 2469.75 -3.87581 -3.8995 0
M  V30 26226 H 2470.98 -4.73404 -4.86894 0
M  V30 26227 H 2468.93 -2.76654 -5.9481 0
M  V30 26228 H 2468.84 -4.49264 -6.08028 0
M  V30 26229 H 2470.11 -3.62962 -6.8984 0
M  V30 26230 N 2474.34 0.869463 -1.31446 0
M  V30 26231 C 2475.57 1.65532 -1.24125 0
M  V30 26232 C 2475.98 1.87807 0.193354 0
M  V30 26233 O 2475.34 1.43658 1.12555 0
M  V30 26234 C 2475.39 3.023 -1.98234 0
M  V30 26235 O 2475.11 2.8102 -3.36094 0
M  V30 26236 C 2476.61 3.96745 -1.97758 0
M  V30 26237 H 2473.83 0.516048 -0.428878 0
M  V30 26238 H 2476.38 1.08522 -1.7333 0
M  V30 26239 H 2474.53 3.55998 -1.52788 0
M  V30 26240 H 2474.95 3.67895 -3.73836 0
M  V30 26241 H 2476.42 4.90026 -2.54122 0
M  V30 26242 H 2476.9 4.28575 -0.960212 0
M  V30 26243 H 2477.5 3.48984 -2.43085 0
M  V30 26244 N 2475.82 1.14415 1.08383 0
M  V30 26245 C 2476.76 0.831303 2.15309 0
M  V30 26246 C 2477.73 -0.211263 1.64751 0
M  V30 26247 O 2478.92 -0.0811339 1.90627 0
M  V30 26248 C 2476.06 0.315203 3.43658 0
M  V30 26249 C 2475.17 1.4181 4.08061 0
M  V30 26250 C 2474.31 0.859218 5.24205 0
M  V30 26251 C 2473.35 1.93977 5.80551 0
M  V30 26252 N 2472.48 1.39805 6.8804 0
M  V30 26253 H 2477.32 1.74713 2.41411 0
M  V30 26254 H 2474.86 0.871929 1.18473 0
M  V30 26255 H 2476.82 -0.0022355 4.172 0
M  V30 26256 H 2475.45 -0.563724 3.1784 0
M  V30 26257 H 2474.5 1.85193 3.32277 0
M  V30 26258 H 2475.81 2.23434 4.45958 0
M  V30 26259 H 2474.97 0.493697 6.04688 0
M  V30 26260 H 2473.71 0.0120177 4.87699 0
M  V30 26261 H 2472.71 2.31424 4.98721 0
M  V30 26262 H 2473.94 2.79057 6.19116 0
M  V30 26263 H 2471.88 0.573034 6.53492 0
M  V30 26264 H 2471.8 2.15067 7.24764 0
M  V30 26265 H 2473.07 1.06044 7.72253 0
M  V30 26266 N 2477.3 -1.26549 0.939309 0
M  V30 26267 C 2478.71 -1.46148 0.64133 0
M  V30 26268 C 2478.91 -1.84681 -0.805931 0
M  V30 26269 O 2477.97 -1.96737 -1.58275 0
M  V30 26270 C 2479.28 -2.54526 1.60115 0
M  V30 26271 C 2480.83 -2.68379 1.61064 0
M  V30 26272 C 2481.3 -3.79927 2.55772 0
M  V30 26273 N 2482.79 -3.87317 2.54046 0
M  V30 26274 C 2483.53 -4.73079 3.24012 0
M  V30 26275 N 2483.03 -5.63242 4.03398 0
M  V30 26276 N 2484.82 -4.66909 3.12974 0
M  V30 26277 H 2476.97 -0.998252 1.8748 0
M  V30 26278 H 2479.23 -0.499764 0.805568 0
M  V30 26279 H 2478.94 -2.33034 2.63416 0
M  V30 26280 H 2478.81 -3.52146 1.35177 0
M  V30 26281 H 2481.2 -2.89246 0.584886 0
M  V30 26282 H 2481.28 -1.71209 1.90056 0
M  V30 26283 H 2480.92 -3.59813 3.58465 0
M  V30 26284 H 2480.85 -4.7655 2.24071 0
M  V30 26285 H 2483.35 -3.22854 1.96401 0
M  V30 26286 H 2483.66 -6.25571 4.53741 0
M  V30 26287 H 2482 -5.63 4.07499 0
M  V30 26288 H 2485.19 -3.95472 2.50439 0
M  V30 26289 H 2485.37 -5.33526 3.67769 0
M  V30 26290 N 2478.77 -0.706118 -1.40896 0
M  V30 26291 C 2480 -0.250559 -2.05075 0
M  V30 26292 C 2480.41 1.10919 -1.53277 0
M  V30 26293 O 2479.75 1.70638 -0.680311 0
M  V30 26294 C 2479.82 -0.142242 -3.59218 0
M  V30 26295 C 2479.48 -1.43573 -4.33861 0
M  V30 26296 C 2480.48 -2.37575 -4.62444 0
M  V30 26297 C 2478.16 -1.69203 -4.72943 0
M  V30 26298 C 2480.16 -3.55459 -5.29082 0
M  V30 26299 C 2477.84 -2.87371 -5.39315 0
M  V30 26300 C 2478.84 -3.80322 -5.67313 0
M  V30 26301 O 2478.53 -4.96419 -6.32316 0
M  V30 26302 H 2478.26 -0.112086 -0.666643 0
M  V30 26303 H 2480.82 -0.962271 -1.81465 0
M  V30 26304 H 2479.05 0.625332 -3.8161 0
M  V30 26305 H 2480.73 0.277513 -4.0495 0
M  V30 26306 H 2481.5 -2.19034 -4.32723 0
M  V30 26307 H 2477.38 -0.977121 -4.50526 0
M  V30 26308 H 2480.92 -4.28028 -5.50852 0
M  V30 26309 H 2476.82 -3.05824 -5.68456 0
M  V30 26310 H 2477.59 -4.96372 -6.50813 0
M  V30 26311 N 2480.25 1.50991 -0.451617 0
M  V30 26312 C 2481.18 2.30969 0.342857 0
M  V30 26313 C 2482.16 1.37007 1.00813 0
M  V30 26314 O 2483.35 1.65928 1.00904 0
M  V30 26315 C 2480.48 3.16208 1.43631 0
M  V30 26316 C 2479.43 4.18564 0.893744 0
M  V30 26317 C 2478.76 4.92415 2.08403 0
M  V30 26318 C 2480.06 5.22236 -0.0816486 0
M  V30 26319 H 2481.75 2.97635 -0.324608 0
M  V30 26320 H 2479.3 1.43135 -0.157556 0
M  V30 26321 H 2481.25 3.70945 1.99944 0
M  V30 26322 H 2479.97 2.4739 2.13227 0
M  V30 26323 H 2478.63 3.64899 0.352734 0
M  V30 26324 H 2478.28 4.20087 2.76651 0
M  V30 26325 H 2477.98 5.61639 1.72731 0
M  V30 26326 H 2479.51 5.49981 2.65242 0
M  V30 26327 H 2480.92 5.71961 0.391642 0
M  V30 26328 H 2479.32 5.99069 -0.351656 0
M  V30 26329 H 2480.39 4.74183 -1.01382 0
M  V30 26330 N 2481.73 0.183486 1.56528 0
M  V30 26331 C 2483.14 -0.331144 1.8374 0
M  V30 26332 C 2483.49 -1.62209 1.10375 0
M  V30 26333 O 2482.62 -2.13372 0.360747 0
M  V30 26334 C 2483.21 -0.607587 3.33307 0
M  V30 26335 C 2481.77 -1.06662 3.60971 0
M  V30 26336 C 2480.92 -0.10898 2.77086 0
M  V30 26337 H 2483.87 0.407511 1.53379 0
M  V30 26338 H 2483.89 -1.45826 3.51447 0
M  V30 26339 H 2483.4 0.332154 3.86676 0
M  V30 26340 H 2481.5 -2.02104 3.13025 0
M  V30 26341 H 2481.62 -0.967364 4.69232 0
M  V30 26342 H 2479.98 -0.60867 2.4732 0
M  V30 26343 H 2480.76 0.824998 3.3324 0
M  V30 26344 N 2483.21 -1.57342 -0.0901833 0
M  V30 26345 C 2484.17 -2.01443 -1.09332 0
M  V30 26346 C 2485.17 -0.908664 -1.32665 0
M  V30 26347 O 2486.36 -1.17402 -1.28695 0
M  V30 26348 C 2483.49 -2.37934 -2.44132 0
M  V30 26349 H 2484.69 -2.91286 -0.713611 0
M  V30 26350 H 2482.24 -1.52659 -0.335377 0
M  V30 26351 H 2482.97 -1.5106 -2.86969 0
M  V30 26352 H 2482.76 -3.18607 -2.28543 0
M  V30 26353 H 2484.25 -2.72694 -3.16272 0
M  V30 26354 N 2484.69 0.36113 -1.53407 0
M  V30 26355 C 2485.94 1.10063 -1.69024 0
M  V30 26356 C 2486.25 1.90333 -0.450871 0
M  V30 26357 O 2487.45 2.67084 -0.487664 0
M  V30 26358 C 2485.91 2.00592 -2.98815 0
M  V30 26359 C 2485.52 1.25614 -4.30029 0
M  V30 26360 C 2487.26 2.74507 -3.23799 0
M  V30 26361 C 2485.17 2.15071 -5.50907 0
M  V30 26362 H 2484.1 0.414595 -0.629783 0
M  V30 26363 H 2486.75 0.361317 -1.79908 0
M  V30 26364 H 2485.13 2.78273 -2.81745 0
M  V30 26365 H 2486.31 0.529659 -4.57746 0
M  V30 26366 H 2484.62 0.635424 -4.11523 0
M  V30 26367 H 2487.22 3.41673 -4.11295 0
M  V30 26368 H 2487.56 3.40119 -2.40051 0
M  V30 26369 H 2488.09 2.03908 -3.41565 0
M  V30 26370 H 2484.83 1.54029 -6.37146 0
M  V30 26371 H 2484.35 2.85556 -5.27464 0
M  V30 26372 H 2486.03 2.74527 -5.8587 0
M  V30 26373 N 2486.16 1.44842 0.621179 0
M  V30 26374 C 2487.41 1.48367 1.38257 0
M  V30 26375 C 2487.74 0.119658 1.93831 0
M  V30 26376 O 2487.02 -0.864081 1.74252 0
M  V30 26377 C 2487.3 2.55203 2.54054 0
M  V30 26378 C 2487.15 4.00999 2.03765 0
M  V30 26379 C 2488.47 2.58448 3.5622 0
M  V30 26380 H 2485.59 0.540187 0.501365 0
M  V30 26381 H 2488.23 1.76577 0.701469 0
M  V30 26382 H 2486.38 2.31279 3.12157 0
M  V30 26383 H 2488.06 4.36088 1.50415 0
M  V30 26384 H 2486.3 4.12302 1.34869 0
M  V30 26385 H 2486.97 4.71416 2.87177 0
M  V30 26386 H 2489.45 2.7985 3.07934 0
M  V30 26387 H 2488.32 3.35087 4.3475 0
M  V30 26388 H 2488.58 1.63021 4.10946 0
M  V30 26389 N 2487.64 -0.862479 1.31905 0
M  V30 26390 C 2489.06 -1.14943 1.10726 0
M  V30 26391 C 2489.26 -2.01158 -0.117386 0
M  V30 26392 O 2488.31 -2.39339 -0.804553 0
M  V30 26393 C 2489.63 -1.83433 2.38271 0
M  V30 26394 C 2491.18 -1.96102 2.43953 0
M  V30 26395 C 2491.65 -2.68006 3.71398 0
M  V30 26396 N 2493.14 -2.75537 3.72335 0
M  V30 26397 C 2493.88 -3.31804 4.67647 0
M  V30 26398 N 2493.37 -3.88943 5.7332 0
M  V30 26399 N 2495.17 -3.29833 4.55156 0
M  V30 26400 H 2487.32 -0.288154 2.10436 0
M  V30 26401 H 2489.58 -0.190275 0.928708 0
M  V30 26402 H 2489.29 -1.27536 3.27761 0
M  V30 26403 H 2489.16 -2.83653 2.48638 0
M  V30 26404 H 2491.55 -2.51161 1.54926 0
M  V30 26405 H 2491.63 -0.949017 2.37544 0
M  V30 26406 H 2491.27 -2.13613 4.60795 0
M  V30 26407 H 2491.2 -3.69629 3.75076 0
M  V30 26408 H 2493.69 -2.34992 2.95951 0
M  V30 26409 H 2494.01 -4.30011 6.42114 0
M  V30 26410 H 2492.35 -3.87297 5.77084 0
M  V30 26411 H 2495.54 -2.84436 3.71771 0
M  V30 26412 H 2495.71 -3.73385 5.29611 0
M  V30 26413 N 2489.12 -1.14988 -1.07775 0
M  V30 26414 C 2490.03 -0.856584 -2.18403 0
M  V30 26415 C 2491.05 0.165454 -1.73212 0
M  V30 26416 O 2492.22 -0.00758759 -2.01399 0
M  V30 26417 C 2489.29 -0.34532 -3.44976 0
M  V30 26418 C 2488.35 -1.43072 -4.04758 0
M  V30 26419 C 2487.58 -0.943756 -5.25289 0
M  V30 26420 O 2487.8 0.212325 -5.70005 0
M  V30 26421 O 2486.74 -1.72557 -5.76635 0
M  V30 26422 H 2490.56 -1.78129 -2.45975 0
M  V30 26423 H 2488.15 -0.928651 -1.17032 0
M  V30 26424 H 2490.03 -0.0664412 -4.21348 0
M  V30 26425 H 2488.71 0.551575 -3.18966 0
M  V30 26426 H 2487.61 -1.76314 -3.29946 0
M  V30 26427 H 2488.95 -2.30237 -4.35031 0
M  V30 26428 N 2490.6 1.26049 -0.946007 0
M  V30 26429 C 2491.56 2.24456 -0.463936 0
M  V30 26430 C 2492.56 1.5501 0.427627 0
M  V30 26431 O 2493.75 1.72726 0.226127 0
M  V30 26432 C 2490.88 3.39292 0.330753 0
M  V30 26433 H 2492.08 2.68616 -1.33361 0
M  V30 26434 H 2489.63 1.38288 -0.72844 0
M  V30 26435 H 2490.36 3.00539 1.21847 0
M  V30 26436 H 2490.15 3.90883 -0.308748 0
M  V30 26437 H 2491.64 4.12387 0.657793 0
M  V30 26438 N 2492.08 0.71358 1.4052 0
M  V30 26439 C 2493.33 0.249228 2.00154 0
M  V30 26440 C 2493.64 -1.16359 1.57226 0
M  V30 26441 O 2494.84 -1.72635 2.09545 0
M  V30 26442 C 2493.3 0.394663 3.5773 0
M  V30 26443 C 2492.91 1.814 4.09632 0
M  V30 26444 C 2494.65 -0.00899903 4.24499 0
M  V30 26445 C 2492.56 1.91012 5.59704 0
M  V30 26446 H 2491.49 0.0894246 0.748678 0
M  V30 26447 H 2494.14 0.88438 1.60782 0
M  V30 26448 H 2492.52 -0.30904 3.94792 0
M  V30 26449 H 2493.7 2.54791 3.8395 0
M  V30 26450 H 2492.01 2.16894 3.55452 0
M  V30 26451 H 2494.61 0.0421344 5.34683 0
M  V30 26452 H 2494.95 -1.05058 4.02826 0
M  V30 26453 H 2495.48 0.645076 3.92535 0
M  V30 26454 H 2492.22 2.93285 5.86229 0
M  V30 26455 H 2491.74 1.22029 5.87255 0
M  V30 26456 H 2493.42 1.68131 6.24773 0
M  V30 26457 N 2493.55 -1.50749 0.459618 0
M  V30 26458 C 2494.5 -2.28275 -0.340484 0
M  V30 26459 C 2495.47 -1.32824 -0.997347 0
M  V30 26460 O 2496.66 -1.61751 -1.01199 0
M  V30 26461 C 2493.8 -3.1439 -1.42312 0
M  V30 26462 C 2492.91 -4.2486 -0.782177 0
M  V30 26463 C 2492.04 -4.9825 -1.84174 0
M  V30 26464 C 2491.08 -6.0061 -1.18042 0
M  V30 26465 N 2490.22 -6.67322 -2.18232 0
M  V30 26466 H 2495.06 -2.96201 0.326951 0
M  V30 26467 H 2492.6 -1.46078 0.173083 0
M  V30 26468 H 2494.56 -3.62661 -2.06234 0
M  V30 26469 H 2493.19 -2.48534 -2.05988 0
M  V30 26470 H 2492.24 -3.80388 -0.0306736 0
M  V30 26471 H 2493.55 -4.98124 -0.259576 0
M  V30 26472 H 2492.7 -5.50182 -2.55705 0
M  V30 26473 H 2491.44 -4.24667 -2.39812 0
M  V30 26474 H 2490.45 -5.4795 -0.450679 0
M  V30 26475 H 2491.67 -6.76161 -0.631083 0
M  V30 26476 H 2489.62 -5.96537 -2.72909 0
M  V30 26477 H 2489.54 -7.36424 -1.70925 0
M  V30 26478 H 2490.8 -7.23876 -2.89179 0
M  V30 26479 N 2495.03 -0.191784 -1.56429 0
M  V30 26480 C 2496.45 0.164109 -1.58754 0
M  V30 26481 C 2496.65 1.61286 -1.20785 0
M  V30 26482 O 2495.7 2.34787 -0.92904 0
M  V30 26483 C 2497.02 -0.135248 -3.00396 0
M  V30 26484 C 2498.57 -0.0750901 -3.1291 0
M  V30 26485 C 2499.04 -0.347712 -4.56678 0
M  V30 26486 N 2500.53 -0.296212 -4.62252 0
M  V30 26487 C 2501.27 -0.481048 -5.71379 0
M  V30 26488 N 2500.76 -0.726054 -6.88985 0
M  V30 26489 N 2502.56 -0.415534 -5.60562 0
M  V30 26490 H 2494.71 -1.13721 -1.79391 0
M  V30 26491 H 2496.97 -0.453657 -0.832406 0
M  V30 26492 H 2496.68 -1.13964 -3.32724 0
M  V30 26493 H 2496.55 0.563708 -3.72964 0
M  V30 26494 H 2498.94 0.919899 -2.80396 0
M  V30 26495 H 2499.02 -0.807071 -2.42734 0
M  V30 26496 H 2498.66 -1.34 -4.89904 0
M  V30 26497 H 2498.59 0.40512 -5.25039 0
M  V30 26498 H 2501.08 -0.113326 -3.7773 0
M  V30 26499 H 2501.4 -0.855992 -7.68045 0
M  V30 26500 H 2499.74 -0.762909 -6.908 0
M  V30 26501 H 2502.93 -0.224568 -4.67561 0
M  V30 26502 H 2503.1 -0.563002 -6.4555 0
M  V30 26503 N 2496.51 1.57387 0.0818378 0
M  V30 26504 C 2497.76 1.86386 0.781335 0
M  V30 26505 C 2498.08 0.782374 1.78617 0
M  V30 26506 O 2497.35 -0.190027 1.94976 0
M  V30 26507 H 2495.93 0.687756 0.29155 0
M  V30 26508 H 2498.59 1.94807 0.0603137 0
M  V30 26509 H 2497.69 2.83564 1.30375 0
M  V30 26510 N 2497.99 -0.35299 1.53596 0
M  V30 26511 C 2498.92 -1.4388 1.83904 0
M  V30 26512 C 2499.9 -1.55323 0.693448 0
M  V30 26513 O 2501.08 -1.69686 0.944482 0
M  V30 26514 C 2498.21 -2.81057 2.04021 0
M  V30 26515 C 2497.17 -2.84428 3.19819 0
M  V30 26516 C 2496.49 -4.244 3.25252 0
M  V30 26517 C 2497.79 -2.50814 4.58137 0
M  V30 26518 H 2499.49 -1.18765 2.74837 0
M  V30 26519 H 2497.03 -0.569894 1.32243 0
M  V30 26520 H 2498.99 -3.57055 2.23807 0
M  V30 26521 H 2497.71 -3.07586 1.0981 0
M  V30 26522 H 2496.37 -2.10882 2.99874 0
M  V30 26523 H 2496.02 -4.48025 2.28654 0
M  V30 26524 H 2495.72 -4.27569 4.03061 0
M  V30 26525 H 2497.24 -5.02254 3.47237 0
M  V30 26526 H 2498.66 -3.16526 4.78001 0
M  V30 26527 H 2497.05 -2.65281 5.38281 0
M  V30 26528 H 2498.12 -1.46026 4.6239 0
M  V30 26529 N 2499.47 -1.45169 -0.613489 0
M  V30 26530 C 2500.88 -1.29445 -0.933606 0
M  V30 26531 C 2501.08 -0.243137 -2.00028 0
M  V30 26532 O 2500.14 0.364948 -2.49849 0
M  V30 26533 C 2501.45 -2.67157 -1.38013 0
M  V30 26534 C 2503 -2.75007 -1.49466 0
M  V30 26535 C 2503.48 -4.1323 -1.97496 0
M  V30 26536 N 2504.97 -4.15495 -2.04739 0
M  V30 26537 C 2505.7 -5.19311 -2.43112 0
M  V30 26538 N 2505.2 -6.33478 -2.80495 0
M  V30 26539 N 2506.99 -5.06669 -2.43399 0
M  V30 26540 H 2499.14 -2.12202 0.091647 0
M  V30 26541 H 2501.4 -0.947753 -0.0216488 0
M  V30 26542 H 2501.11 -3.45248 -0.670564 0
M  V30 26543 H 2500.98 -2.95226 -2.34779 0
M  V30 26544 H 2503.37 -1.97223 -2.19515 0
M  V30 26545 H 2503.45 -2.50658 -0.510298 0
M  V30 26546 H 2503.1 -4.91497 -1.28036 0
M  V30 26547 H 2503.03 -4.34967 -2.96836 0
M  V30 26548 H 2505.52 -3.33106 -1.78462 0
M  V30 26549 H 2505.83 -7.08492 -3.08639 0
M  V30 26550 H 2504.18 -6.36889 -2.78205 0
M  V30 26551 H 2507.37 -4.16526 -2.13596 0
M  V30 26552 H 2507.54 -5.87696 -2.72979 0
M  V30 26553 N 2500.95 0.855472 -1.32361 0
M  V30 26554 C 2502.17 1.64206 -1.25873 0
M  V30 26555 C 2502.59 1.88002 0.173424 0
M  V30 26556 O 2501.95 1.44844 1.11025 0
M  V30 26557 C 2502 3.00181 -2.01429 0
M  V30 26558 O 2501.72 2.77439 -3.39056 0
M  V30 26559 C 2503.22 3.94625 -2.01955 0
M  V30 26560 H 2500.44 0.51147 -0.434327 0
M  V30 26561 H 2502.98 1.06677 -1.74471 0
M  V30 26562 H 2501.14 3.54357 -1.56555 0
M  V30 26563 H 2501.55 3.63909 -3.77717 0
M  V30 26564 H 2503.03 4.87304 -2.59305 0
M  V30 26565 H 2503.5 4.27532 -1.00561 0
M  V30 26566 H 2504.11 3.46386 -2.46773 0
M  V30 26567 N 2502.42 1.15558 1.07164 0
M  V30 26568 C 2503.35 0.877084 2.16401 0
M  V30 26569 C 2504.33 -0.173082 1.69217 0
M  V30 26570 O 2505.52 -0.0270498 1.94181 0
M  V30 26571 C 2502.65 0.367693 3.45348 0
M  V30 26572 C 2501.6 1.35475 4.05993 0
M  V30 26573 C 2500.93 0.704131 5.30043 0
M  V30 26574 C 2502.23 2.7214 4.45799 0
M  V30 26575 H 2503.92 1.79057 2.39956 0
M  V30 26576 H 2501.47 0.862351 1.15323 0
M  V30 26577 H 2503.42 0.160391 4.21095 0
M  V30 26578 H 2502.15 -0.58127 3.21386 0
M  V30 26579 H 2500.81 1.54845 3.32293 0
M  V30 26580 H 2500.45 -0.25104 5.02373 0
M  V30 26581 H 2500.15 1.36287 5.71576 0
M  V30 26582 H 2501.68 0.506647 6.08494 0
M  V30 26583 H 2503.09 2.56604 5.12667 0
M  V30 26584 H 2501.49 3.34406 4.9829 0
M  V30 26585 H 2502.56 3.2806 3.57078 0
M  V30 26586 N 2503.9 -1.25546 0.952678 0
M  V30 26587 C 2505.15 -1.92504 0.602087 0
M  V30 26588 C 2505.46 -1.75452 -0.864633 0
M  V30 26589 O 2506.67 -2.36967 -1.3251 0
M  V30 26590 C 2505.13 -3.44962 1.02613 0
M  V30 26591 C 2504.73 -3.70727 2.51526 0
M  V30 26592 C 2506.48 -4.17858 0.747979 0
M  V30 26593 C 2504.38 -5.16681 2.87741 0
M  V30 26594 H 2503.31 -0.72074 0.221473 0
M  V30 26595 H 2505.97 -1.42439 1.15687 0
M  V30 26596 H 2504.35 -3.93977 0.399781 0
M  V30 26597 H 2505.52 -3.32372 3.19163 0
M  V30 26598 H 2503.84 -3.11087 2.76792 0
M  V30 26599 H 2506.43 -5.25366 0.994739 0
M  V30 26600 H 2506.78 -4.15102 -0.315556 0
M  V30 26601 H 2507.31 -3.74745 1.33459 0
M  V30 26602 H 2504.05 -5.24547 3.93104 0
M  V30 26603 H 2503.57 -5.5609 2.24775 0
M  V30 26604 H 2505.25 -5.84787 2.76827 0
M  V30 26605 N 2505.38 -0.721022 -1.40139 0
M  V30 26606 C 2506.31 -0.0868031 -2.33339 0
M  V30 26607 C 2507.29 0.739596 -1.5318 0
M  V30 26608 O 2508.48 0.687417 -1.81627 0
M  V30 26609 C 2505.61 0.831668 -3.37195 0
M  V30 26610 C 2504.56 0.110483 -4.27857 0
M  V30 26611 C 2503.89 1.14503 -5.22296 0
M  V30 26612 C 2505.19 -1.03859 -5.1187 0
M  V30 26613 H 2506.88 -0.86527 -2.86624 0
M  V30 26614 H 2504.43 -0.41754 -1.37814 0
M  V30 26615 H 2506.38 1.28478 -4.01337 0
M  V30 26616 H 2505.1 1.64209 -2.82317 0
M  V30 26617 H 2503.76 -0.322861 -3.65176 0
M  V30 26618 H 2503.41 1.94865 -4.6372 0
M  V30 26619 H 2503.11 0.667344 -5.83798 0
M  V30 26620 H 2504.63 1.59814 -5.89315 0
M  V30 26621 H 2506.05 -0.664582 -5.69435 0
M  V30 26622 H 2504.44 -1.445 -5.82443 0
M  V30 26623 H 2505.51 -1.86676 -4.47527 0
M  V30 26624 N 2506.86 1.50503 -0.467606 0
M  V30 26625 C 2507.82 2.26997 0.317019 0
M  V30 26626 C 2508.82 1.31637 0.92349 0
M  V30 26627 O 2510.01 1.55093 0.793212 0
M  V30 26628 C 2507.14 3.08465 1.45129 0
M  V30 26629 H 2508.34 2.97806 -0.353775 0
M  V30 26630 H 2505.89 1.54722 -0.221572 0
M  V30 26631 H 2506.62 2.42144 2.15724 0
M  V30 26632 H 2506.41 3.7854 1.02225 0
M  V30 26633 H 2507.9 3.66326 2.00487 0
M  V30 26634 N 2508.34 0.200077 1.56325 0
M  V30 26635 C 2509.75 -0.311638 1.84081 0
M  V30 26636 C 2510.1 -1.61029 1.1209 0
M  V30 26637 O 2509.22 -2.12977 0.383358 0
M  V30 26638 C 2509.82 -0.572201 3.33933 0
M  V30 26639 C 2508.38 -1.02827 3.62082 0
M  V30 26640 C 2507.52 -0.0795852 2.77186 0
M  V30 26641 H 2510.47 0.423756 1.52938 0
M  V30 26642 H 2510.5 -1.4209 3.52974 0
M  V30 26643 H 2510.01 0.373147 3.86302 0
M  V30 26644 H 2508.11 -1.98773 3.15151 0
M  V30 26645 H 2508.22 -0.917541 4.70232 0
M  V30 26646 H 2506.59 -0.582404 2.47952 0
M  V30 26647 H 2507.37 0.860297 3.32346 0
M  V30 26648 N 2509.81 -1.57429 -0.0734901 0
M  V30 26649 C 2511.04 -1.91391 -0.785936 0
M  V30 26650 C 2511.46 -0.795877 -1.71205 0
M  V30 26651 O 2510.81 0.230883 -1.81034 0
M  V30 26652 C 2510.86 -3.25094 -1.58101 0
M  V30 26653 O 2510.59 -4.32598 -0.692124 0
M  V30 26654 C 2512.09 -3.7306 -2.39461 0
M  V30 26655 H 2509.31 -0.632667 -0.223547 0
M  V30 26656 H 2511.85 -2.04452 -0.044266 0
M  V30 26657 H 2510.01 -3.13566 -2.27498 0
M  V30 26658 H 2510.42 -5.09511 -1.24496 0
M  V30 26659 H 2511.89 -4.69247 -2.90707 0
M  V30 26660 H 2512.37 -3.01984 -3.18908 0
M  V30 26661 H 2512.98 -3.87527 -1.75224 0
M  V30 26662 N 2511.29 0.344839 -1.53781 0
M  V30 26663 C 2512.71 0.687863 -1.44016 0
M  V30 26664 C 2512.91 1.92488 -0.595868 0
M  V30 26665 O 2511.96 2.52352 -0.0863508 0
M  V30 26666 C 2513.28 0.881707 -2.87483 0
M  V30 26667 C 2514.82 0.980407 -2.97249 0
M  V30 26668 C 2515.3 1.20658 -4.41821 0
M  V30 26669 N 2516.79 1.27381 -4.45341 0
M  V30 26670 C 2517.53 1.46629 -5.54335 0
M  V30 26671 N 2517.02 1.63059 -6.73338 0
M  V30 26672 N 2518.81 1.49166 -5.41946 0
M  V30 26673 H 2510.97 -0.468511 -2.07168 0
M  V30 26674 H 2513.23 -0.147672 -0.936428 0
M  V30 26675 H 2512.93 0.0442826 -3.51672 0
M  V30 26676 H 2512.81 1.78382 -3.32355 0
M  V30 26677 H 2515.2 1.80835 -2.33201 0
M  V30 26678 H 2515.28 0.0552264 -2.5574 0
M  V30 26679 H 2514.92 0.383563 -5.0645 0
M  V30 26680 H 2514.85 2.1453 -4.8092 0
M  V30 26681 H 2517.34 1.16214 -3.59587 0
M  V30 26682 H 2517.65 1.77378 -7.52168 0
M  V30 26683 H 2516 1.60197 -6.76285 0
M  V30 26684 H 2519.19 1.35912 -4.47935 0
M  V30 26685 H 2519.36 1.63826 -6.26949 0
M  V30 26686 N 2512.77 1.45492 0.605781 0
M  V30 26687 C 2514.02 1.49825 1.36676 0
M  V30 26688 C 2514.35 0.140209 1.93693 0
M  V30 26689 O 2513.62 -0.84555 1.75159 0
M  V30 26690 C 2513.91 2.57883 2.51333 0
M  V30 26691 C 2513.76 4.03137 1.995 0
M  V30 26692 C 2515.08 2.62212 3.53459 0
M  V30 26693 H 2512.2 0.545475 0.495607 0
M  V30 26694 H 2514.84 1.77311 0.682701 0
M  V30 26695 H 2512.99 2.34577 3.09687 0
M  V30 26696 H 2514.66 4.37659 1.45782 0
M  V30 26697 H 2512.9 4.13709 1.30489 0
M  V30 26698 H 2513.58 4.74436 2.82161 0
M  V30 26699 H 2516.05 2.831 3.04948 0
M  V30 26700 H 2514.93 3.3968 4.31172 0
M  V30 26701 H 2515.19 1.6737 4.09194 0
M  V30 26702 N 2514.25 -0.848441 1.32813 0
M  V30 26703 C 2515.49 -1.60543 1.2391 0
M  V30 26704 C 2515.83 -1.93197 -0.197127 0
M  V30 26705 O 2515.1 -1.57882 -1.13593 0
M  V30 26706 C 2515.39 -2.92172 2.10494 0
M  V30 26707 C 2515.24 -2.6626 3.62527 0
M  V30 26708 C 2516.56 -3.93505 1.97082 0
M  V30 26709 H 2513.68 -0.582532 0.45147 0
M  V30 26710 H 2516.32 -0.979267 1.6282 0
M  V30 26711 H 2514.47 -3.45611 1.7744 0
M  V30 26712 H 2516.14 -2.19326 4.05825 0
M  V30 26713 H 2514.38 -2.00119 3.84883 0
M  V30 26714 H 2515.05 -3.60013 4.18443 0
M  V30 26715 H 2517.53 -3.49342 2.26051 0
M  V30 26716 H 2516.41 -4.83453 2.59932 0
M  V30 26717 H 2516.67 -4.31986 0.940262 0
M  V30 26718 N 2515.73 -1.16125 -1.06549 0
M  V30 26719 C 2516.69 -0.867944 -2.12131 0
M  V30 26720 C 2517.69 0.135916 -1.60225 0
M  V30 26721 O 2518.88 -0.0946728 -1.73943 0
M  V30 26722 C 2516.01 -0.297479 -3.396 0
M  V30 26723 H 2517.2 -1.80389 -2.39583 0
M  V30 26724 H 2514.76 -0.969834 -1.22572 0
M  V30 26725 H 2515.49 0.646274 -3.17795 0
M  V30 26726 H 2515.28 -1.02079 -3.78579 0
M  V30 26727 H 2516.77 -0.110125 -4.17455 0
M  V30 26728 N 2517.2 1.25039 -0.959323 0
M  V30 26729 C 2518.17 2.23951 -0.487717 0
M  V30 26730 C 2519.17 1.55454 0.411162 0
M  V30 26731 O 2520.36 1.72956 0.207794 0
M  V30 26732 C 2517.49 3.39623 0.294748 0
M  V30 26733 H 2518.68 2.67187 -1.36203 0
M  V30 26734 H 2516.24 1.37507 -0.743066 0
M  V30 26735 H 2516.97 3.01815 1.18652 0
M  V30 26736 H 2516.76 3.90533 -0.350189 0
M  V30 26737 H 2518.25 4.13061 0.614017 0
M  V30 26738 N 2518.68 0.728444 1.39755 0
M  V30 26739 C 2519.59 0.0855786 2.34444 0
M  V30 26740 C 2520.61 -0.729328 1.57977 0
M  V30 26741 O 2521.78 -0.659313 1.90302 0
M  V30 26742 C 2518.85 -0.815738 3.36967 0
M  V30 26743 C 2517.91 0.0106751 4.29299 0
M  V30 26744 C 2517.14 -0.847717 5.26925 0
M  V30 26745 O 2517.37 -2.08664 5.30863 0
M  V30 26746 O 2516.3 -0.279863 6.01249 0
M  V30 26747 H 2520.13 0.866943 2.91063 0
M  V30 26748 H 2517.71 0.489045 1.41169 0
M  V30 26749 H 2519.59 -1.33164 3.99807 0
M  V30 26750 H 2518.27 -1.57603 2.82742 0
M  V30 26751 H 2517.18 0.571942 3.69702 0
M  V30 26752 H 2518.51 0.733036 4.86711 0
M  V30 26753 N 2520.16 -1.50253 0.475581 0
M  V30 26754 C 2521.09 -2.25305 -0.362341 0
M  V30 26755 C 2522.07 -1.28805 -0.992371 0
M  V30 26756 O 2523.26 -1.58038 -1.02743 0
M  V30 26757 C 2520.38 -3.03274 -1.50807 0
M  V30 26758 C 2519.43 -4.14732 -0.994971 0
M  V30 26759 S 2520.26 -5.35418 0.0939377 0
M  V30 26760 C 2521.42 -6.16935 -1.05556 0
M  V30 26761 H 2521.65 -2.96028 0.274738 0
M  V30 26762 H 2519.18 -1.52186 0.260522 0
M  V30 26763 H 2521.14 -3.48785 -2.1647 0
M  V30 26764 H 2519.8 -2.32068 -2.11668 0
M  V30 26765 H 2519 -4.68706 -1.85284 0
M  V30 26766 H 2518.6 -3.71679 -0.415987 0
M  V30 26767 H 2520.89 -6.4834 -1.96624 0
M  V30 26768 H 2521.83 -7.05922 -0.554985 0
M  V30 26769 H 2522.24 -5.49056 -1.31142 0
M  V30 26770 N 2521.64 -0.208365 -1.56217 0
M  V30 26771 C 2522.55 0.718796 -2.23317 0
M  V30 26772 C 2523.56 1.2242 -1.2365 0
M  V30 26773 O 2524.74 1.26858 -1.56426 0
M  V30 26774 C 2521.81 1.91563 -2.88971 0
M  V30 26775 C 2520.87 1.4535 -4.03945 0
M  V30 26776 C 2520.1 2.59329 -4.66459 0
M  V30 26777 O 2520.32 3.77141 -4.27926 0
M  V30 26778 O 2519.26 2.31283 -5.5569 0
M  V30 26779 H 2523.08 0.177262 -3.03182 0
M  V30 26780 H 2520.67 0.0215139 -1.49385 0
M  V30 26781 H 2522.55 2.61486 -3.30459 0
M  V30 26782 H 2521.22 2.44552 -2.12076 0
M  V30 26783 H 2520.13 0.722681 -3.67053 0
M  V30 26784 H 2521.46 0.970134 -4.82545 0
M  V30 26785 N 2523.12 1.57465 0.0651402 0
M  V30 26786 C 2524.03 2.07507 1.09444 0
M  V30 26787 C 2525.04 1.00597 1.41973 0
M  V30 26788 O 2526.22 1.3211 1.52016 0
M  V30 26789 C 2523.28 2.51457 2.38684 0
M  V30 26790 C 2522.34 3.72695 2.13066 0
M  V30 26791 C 2521.58 4.14539 3.36144 0
M  V30 26792 O 2521.8 3.56197 4.45511 0
M  V30 26793 O 2520.73 5.07277 3.23965 0
M  V30 26794 H 2524.56 2.95539 0.699298 0
M  V30 26795 H 2522.15 1.46758 0.279726 0
M  V30 26796 H 2524.03 2.80218 3.14732 0
M  V30 26797 H 2522.7 1.66551 2.77565 0
M  V30 26798 H 2521.61 3.49007 1.34703 0
M  V30 26799 H 2522.94 4.58473 1.79062 0
M  V30 26800 N 2524.59 -0.336679 1.53962 0
M  V30 26801 C 2525.56 -1.39672 1.81726 0
M  V30 26802 C 2526.56 -1.45312 0.688558 0
M  V30 26803 O 2527.75 -1.45568 0.956854 0
M  V30 26804 C 2524.88 -2.78535 1.96548 0
M  V30 26805 H 2526.07 -1.16314 2.76426 0
M  V30 26806 H 2523.63 -0.571448 1.45479 0
M  V30 26807 H 2524.36 -3.07167 1.04015 0
M  V30 26808 H 2524.15 -2.75836 2.7867 0
M  V30 26809 H 2525.64 -3.55246 2.19522 0
M  V30 26810 N 2526.07 -1.45812 -0.598057 0
M  V30 26811 C 2527 -1.5806 -1.7187 0
M  V30 26812 C 2527.98 -0.431644 -1.64532 0
M  V30 26813 O 2529.17 -0.655982 -1.82785 0
M  V30 26814 C 2526.3 -1.55602 -3.10492 0
M  V30 26815 C 2525.25 -2.69311 -3.32649 0
M  V30 26816 C 2524.58 -2.5191 -4.71641 0
M  V30 26817 C 2525.88 -4.11254 -3.21974 0
M  V30 26818 H 2527.57 -2.51866 -1.61876 0
M  V30 26819 H 2525.12 -1.21216 -0.777351 0
M  V30 26820 H 2527.07 -1.62767 -3.88697 0
M  V30 26821 H 2525.8 -0.583311 -3.21349 0
M  V30 26822 H 2524.45 -2.61591 -2.56838 0
M  V30 26823 H 2524.1 -1.52757 -4.79244 0
M  V30 26824 H 2523.8 -3.28169 -4.87421 0
M  V30 26825 H 2525.33 -2.60943 -5.52034 0
M  V30 26826 H 2526.74 -4.20168 -3.90041 0
M  V30 26827 H 2525.14 -4.87979 -3.49281 0
M  V30 26828 H 2526.21 -4.3249 -2.19272 0
M  V30 26829 N 2527.55 0.841385 -1.33261 0
M  V30 26830 C 2528.97 1.13167 -1.1254 0
M  V30 26831 C 2529.17 2.01319 0.0853683 0
M  V30 26832 O 2528.22 2.40589 0.766374 0
M  V30 26833 C 2529.54 1.79619 -2.41159 0
M  V30 26834 C 2531.08 1.92196 -2.47042 0
M  V30 26835 C 2531.56 2.62064 -3.75615 0
M  V30 26836 N 2533.05 2.69578 -3.76672 0
M  V30 26837 C 2533.78 3.24322 -4.72867 0
M  V30 26838 N 2533.28 3.79773 -5.79435 0
M  V30 26839 N 2535.07 3.2255 -4.60345 0
M  V30 26840 H 2527.22 0.254639 -2.10868 0
M  V30 26841 H 2529.49 0.175476 -0.931618 0
M  V30 26842 H 2529.19 1.22305 -3.29749 0
M  V30 26843 H 2529.07 2.79661 -2.53119 0
M  V30 26844 H 2531.45 2.48664 -1.58903 0
M  V30 26845 H 2531.54 0.911106 -2.39024 0
M  V30 26846 H 2531.18 2.06255 -4.64135 0
M  V30 26847 H 2531.11 3.63616 -3.80909 0
M  V30 26848 H 2533.6 2.30254 -2.99652 0
M  V30 26849 H 2533.91 4.19741 -6.48874 0
M  V30 26850 H 2532.26 3.78067 -5.83172 0
M  V30 26851 H 2535.45 2.78486 -3.76249 0
M  V30 26852 H 2535.62 3.64912 -5.35484 0
M  V30 26853 N 2529.03 1.16688 1.05932 0
M  V30 26854 C 2530.28 0.948775 1.78445 0
M  V30 26855 C 2530.6 -0.52449 1.87814 0
M  V30 26856 O 2529.87 -1.38096 1.38948 0
M  V30 26857 H 2528.45 0.348044 0.660965 0
M  V30 26858 H 2531.11 1.47025 1.27944 0
M  V30 26859 H 2530.21 1.37066 2.80392 0
M  V30 26860 N 2530.51 -1.24529 0.96594 0
M  V30 26861 C 2531.44 -2.27783 0.513516 0
M  V30 26862 C 2532.42 -1.6415 -0.445945 0
M  V30 26863 O 2533.6 -1.91157 -0.342451 0
M  V30 26864 C 2530.73 -3.46731 -0.198778 0
M  V30 26865 C 2529.69 -4.22619 0.67653 0
M  V30 26866 C 2529.01 -5.34439 -0.167154 0
M  V30 26867 C 2530.31 -4.84119 1.96026 0
M  V30 26868 H 2532.01 -2.65879 1.37654 0
M  V30 26869 H 2529.55 -1.27811 0.663344 0
M  V30 26870 H 2531.51 -4.18098 -0.526493 0
M  V30 26871 H 2530.23 -3.07656 -1.09614 0
M  V30 26872 H 2528.89 -3.5305 0.987492 0
M  V30 26873 H 2528.54 -4.91604 -1.06462 0
M  V30 26874 H 2528.24 -5.86131 0.415284 0
M  V30 26875 H 2529.76 -6.08634 -0.489581 0
M  V30 26876 H 2531.18 -5.4757 1.69823 0
M  V30 26877 H 2529.57 -5.46036 2.48927 0
M  V30 26878 H 2530.64 -4.05672 2.65629 0
M  V30 26879 N 2531.99 -0.735845 -1.39367 0
M  V30 26880 C 2533.4 -0.354048 -1.83312 0
M  V30 26881 C 2533.75 1.11464 -1.61463 0
M  V30 26882 O 2532.87 1.85987 -1.10625 0
M  V30 26883 C 2533.47 -0.635827 -3.3278 0
M  V30 26884 C 2532.03 -0.307514 -3.75142 0
M  V30 26885 C 2531.17 -0.89802 -2.62356 0
M  V30 26886 H 2534.12 -0.93342 -1.28347 0
M  V30 26887 H 2534.15 0.0921105 -3.80388 0
M  V30 26888 H 2533.66 -1.70482 -3.48651 0
M  V30 26889 H 2531.76 0.755609 -3.64858 0
M  V30 26890 H 2531.87 -0.790666 -4.72531 0
M  V30 26891 H 2530.24 -0.324596 -2.52623 0
M  V30 26892 H 2531.02 -1.97169 -2.81033 0
M  V30 26893 N 2533.46 1.49999 -0.483543 0
M  V30 26894 C 2534.71 2.01582 0.0688748 0
M  V30 26895 C 2535.03 1.36954 1.39653 0
M  V30 26896 O 2536.23 1.79765 2.03462 0
M  V30 26897 C 2534.69 3.59483 0.173238 0
M  V30 26898 C 2534.3 4.33075 -1.14672 0
M  V30 26899 C 2536.04 4.19068 0.67695 0
M  V30 26900 C 2533.95 5.8279 -1.00548 0
M  V30 26901 H 2532.88 0.753422 0.0295144 0
M  V30 26902 H 2535.53 1.72697 -0.620325 0
M  V30 26903 H 2533.91 3.85009 0.926501 0
M  V30 26904 H 2535.08 4.19264 -1.91192 0
M  V30 26905 H 2533.4 3.85156 -1.58251 0
M  V30 26906 H 2536 5.28684 0.799859 0
M  V30 26907 H 2536.34 3.81272 1.67144 0
M  V30 26908 H 2536.87 3.97795 -0.0192782 0
M  V30 26909 H 2533.61 6.2508 -1.97371 0
M  V30 26910 H 2533.13 5.99142 -0.280881 0
M  V30 26911 H 2534.81 6.43447 -0.677113 0
M  V30 26912 N 2534.94 0.216646 1.56104 0
M  V30 26913 C 2536.36 -0.138832 1.58995 0
M  V30 26914 C 2536.56 -1.59344 1.23336 0
M  V30 26915 O 2535.61 -2.3328 0.966275 0
M  V30 26916 C 2536.93 0.183021 3.00143 0
M  V30 26917 C 2538.47 0.124862 3.12751 0
M  V30 26918 C 2538.95 0.420321 4.56067 0
M  V30 26919 N 2540.44 0.369715 4.61722 0
M  V30 26920 C 2541.18 0.571889 5.70541 0
M  V30 26921 N 2540.67 0.835574 6.87743 0
M  V30 26922 N 2542.46 0.504662 5.5983 0
M  V30 26923 H 2534.62 1.16561 1.7756 0
M  V30 26924 H 2536.88 0.466843 0.825083 0
M  V30 26925 H 2536.58 1.19242 3.30869 0
M  V30 26926 H 2536.46 -0.504301 3.73814 0
M  V30 26927 H 2538.85 -0.875174 2.81824 0
M  V30 26928 H 2538.93 0.845586 2.4142 0
M  V30 26929 H 2538.57 1.41777 4.87711 0
M  V30 26930 H 2538.5 -0.321539 5.25617 0
M  V30 26931 H 2540.99 0.173405 3.77502 0
M  V30 26932 H 2541.3 0.978073 7.66586 0
M  V30 26933 H 2539.65 0.872713 6.89499 0
M  V30 26934 H 2542.84 0.298924 4.67145 0
M  V30 26935 H 2543.01 0.665632 6.44572 0
M  V30 26936 N 2536.42 -1.57498 -0.0567885 0
M  V30 26937 C 2537.65 -1.91936 -0.764482 0
M  V30 26938 C 2538.06 -0.8123 -1.70875 0
M  V30 26939 O 2537.4 0.222181 -1.82351 0
M  V30 26940 C 2537.46 -3.21965 -1.59935 0
M  V30 26941 C 2537.13 -4.49531 -0.822846 0
M  V30 26942 C 2538.12 -5.19724 -0.135373 0
M  V30 26943 C 2535.81 -4.96119 -0.785579 0
M  V30 26944 C 2537.8 -6.34765 0.578973 0
M  V30 26945 C 2535.49 -6.11063 -0.067471 0
M  V30 26946 C 2536.49 -6.80238 0.613591 0
M  V30 26947 O 2536.18 -7.92987 1.3201 0
M  V30 26948 H 2535.91 -0.638634 -0.221636 0
M  V30 26949 H 2538.46 -2.05383 -0.0267857 0
M  V30 26950 H 2536.69 -3.04768 -2.3802 0
M  V30 26951 H 2538.38 -3.41937 -2.18709 0
M  V30 26952 H 2539.15 -4.84751 -0.155373 0
M  V30 26953 H 2535.03 -4.42139 -1.30516 0
M  V30 26954 H 2538.57 -6.88694 1.11112 0
M  V30 26955 H 2534.47 -6.45484 -0.0454501 0
M  V30 26956 H 2535.23 -8.09191 1.23091 0
M  V30 26957 N 2537.9 0.328509 -1.54138 0
M  V30 26958 C 2538.83 1.42507 -1.79512 0
M  V30 26959 C 2539.84 1.4806 -0.676906 0
M  V30 26960 O 2541.03 1.50873 -0.953925 0
M  V30 26961 C 2538.13 2.81075 -1.89342 0
M  V30 26962 C 2537.3 2.98783 -3.19448 0
M  V30 26963 C 2536.36 4.17682 -3.20043 0
M  V30 26964 O 2535.39 4.11079 -3.93704 0
M  V30 26965 N 2536.59 5.26972 -2.43476 0
M  V30 26966 H 2539.36 1.21106 -2.74141 0
M  V30 26967 H 2536.92 0.518472 -1.53374 0
M  V30 26968 H 2538.91 3.58815 -1.87173 0
M  V30 26969 H 2537.48 2.95549 -1.01831 0
M  V30 26970 H 2536.7 2.08386 -3.34618 0
M  V30 26971 H 2537.99 3.07507 -4.0536 0
M  V30 26972 H 2537.39 5.35211 -1.8321 0
M  V30 26973 H 2535.94 6.0315 -2.4709 0
M  V30 26974 N 2539.38 1.46127 0.590316 0
M  V30 26975 C 2540.6 1.546 1.37501 0
M  V30 26976 C 2541.02 0.18448 1.87897 0
M  V30 26977 O 2540.38 -0.816956 1.63193 0
M  V30 26978 C 2540.43 2.54458 2.56775 0
M  V30 26979 O 2540.15 3.85321 2.08469 0
M  V30 26980 C 2541.65 2.72798 3.49423 0
M  V30 26981 H 2538.87 0.523045 0.420316 0
M  V30 26982 H 2541.41 1.91468 0.71835 0
M  V30 26983 H 2539.57 2.20615 3.18446 0
M  V30 26984 H 2539.98 4.39605 2.8609 0
M  V30 26985 H 2541.46 3.46608 4.29613 0
M  V30 26986 H 2541.93 1.79436 4.00873 0
M  V30 26987 H 2542.54 3.07707 2.93592 0
M  V30 26988 N 2540.85 -0.834306 1.33705 0
M  V30 26989 C 2542.26 -1.40617 1.22815 0
M  V30 26990 C 2542.62 -1.95618 -0.151073 0
M  V30 26991 O 2541.74 -1.8917 -1.05089 0
M  V30 26992 C 2542.34 -2.5562 2.2236 0
M  V30 26993 C 2540.89 -3.08747 2.15295 0
M  V30 26994 C 2540.04 -1.81566 2.09592 0
M  V30 26995 H 2542.99 -0.639677 1.45237 0
M  V30 26996 H 2543.01 -3.33385 1.83397 0
M  V30 26997 H 2542.53 -2.1556 3.22731 0
M  V30 26998 H 2540.63 -3.53341 1.18241 0
M  V30 26999 H 2540.74 -3.68611 3.06044 0
M  V30 27000 H 2539.1 -2.02001 1.55138 0
M  V30 27001 H 2539.89 -1.43696 3.11779 0
M  V30 27002 N 2542.33 -1.17248 -1.05312 0
M  V30 27003 C 2543.29 -0.890394 -2.11198 0
M  V30 27004 C 2544.29 0.118915 -1.6036 0
M  V30 27005 O 2545.48 -0.113116 -1.73832 0
M  V30 27006 C 2542.62 -0.333481 -3.39265 0
M  V30 27007 H 2543.81 -1.8292 -2.37656 0
M  V30 27008 H 2541.36 -0.98278 -1.21537 0
M  V30 27009 H 2542.1 0.612531 -3.18463 0
M  V30 27010 H 2541.88 -1.06089 -3.77475 0
M  V30 27011 H 2543.37 -0.154395 -4.17314 0
M  V30 27012 N 2543.81 1.24015 -0.972531 0
M  V30 27013 C 2545.06 1.91522 -0.632636 0
M  V30 27014 C 2545.37 1.76806 0.83661 0
M  V30 27015 O 2546.58 2.39045 1.28723 0
M  V30 27016 C 2545.03 3.43286 -1.08088 0
M  V30 27017 C 2544.64 3.66679 -2.57392 0
M  V30 27018 C 2546.39 4.16615 -0.814362 0
M  V30 27019 C 2544.29 5.12038 -2.95924 0
M  V30 27020 H 2543.22 0.717125 -0.232911 0
M  V30 27021 H 2545.87 1.4058 -1.17938 0
M  V30 27022 H 2544.26 3.93291 -0.462409 0
M  V30 27023 H 2545.43 3.27253 -3.24411 0
M  V30 27024 H 2543.75 3.06644 -2.81706 0
M  V30 27025 H 2546.34 5.23717 -1.07819 0
M  V30 27026 H 2546.69 4.15552 0.249477 0
M  V30 27027 H 2547.22 3.72574 -1.39404 0
M  V30 27028 H 2543.96 5.18227 -4.01399 0
M  V30 27029 H 2543.48 5.52444 -2.33593 0
M  V30 27030 H 2545.16 5.80309 -2.86096 0
M  V30 27031 N 2545.29 0.743226 1.38974 0
M  V30 27032 C 2546.7 0.419691 1.53983 0
M  V30 27033 C 2546.9 -1.06847 1.70839 0
M  V30 27034 O 2545.96 -1.85457 1.71353 0
M  V30 27035 C 2547.27 1.2099 2.75285 0
M  V30 27036 C 2548.82 1.19894 2.89127 0
M  V30 27037 C 2549.3 1.97188 4.13377 0
M  V30 27038 N 2550.79 1.94396 4.20434 0
M  V30 27039 C 2551.52 2.51005 5.15542 0
M  V30 27040 N 2551.02 3.16285 6.16389 0
M  V30 27041 N 2552.81 2.40992 5.07818 0
M  V30 27042 H 2544.96 1.70782 1.26282 0
M  V30 27043 H 2547.23 0.723417 0.612676 0
M  V30 27044 H 2546.93 2.26327 2.692 0
M  V30 27045 H 2546.81 0.819824 3.68183 0
M  V30 27046 H 2549.19 0.153657 2.947 0
M  V30 27047 H 2549.27 1.62845 1.9727 0
M  V30 27048 H 2548.92 3.01722 4.08566 0
M  V30 27049 H 2548.85 1.51638 5.04295 0
M  V30 27050 H 2551.34 1.46845 3.48202 0
M  V30 27051 H 2551.65 3.56927 6.85436 0
M  V30 27052 H 2550 3.20377 6.16752 0
M  V30 27053 H 2553.19 1.89629 4.2797 0
M  V30 27054 H 2553.36 2.85408 5.81761 0
M  V30 27055 N 2546.77 -1.4974 0.491491 0
M  V30 27056 C 2547.73 -2.27473 -0.280866 0
M  V30 27057 C 2548.73 -1.3309 -0.90243 0
M  V30 27058 O 2549.92 -1.56335 -0.768438 0
M  V30 27059 C 2547.05 -3.10734 -1.40203 0
M  V30 27060 H 2548.24 -2.97206 0.401109 0
M  V30 27061 H 2545.8 -1.54349 0.246159 0
M  V30 27062 H 2546.53 -2.45545 -2.11844 0
M  V30 27063 H 2546.32 -3.80118 -0.961903 0
M  V30 27064 H 2547.81 -3.69469 -1.94633 0
M  V30 27065 N 2548.24 -0.224922 -1.55987 0
M  V30 27066 C 2549.15 0.69507 -2.24067 0
M  V30 27067 C 2550.17 1.21102 -1.24941 0
M  V30 27068 O 2551.35 1.25192 -1.57762 0
M  V30 27069 C 2548.41 1.88488 -2.90987 0
M  V30 27070 C 2547.47 1.41057 -4.05464 0
M  V30 27071 C 2546.71 2.54367 -4.69184 0
M  V30 27072 O 2546.93 3.72581 -4.31902 0
M  V30 27073 O 2545.86 2.25376 -5.58112 0
M  V30 27074 H 2549.69 0.145096 -3.03353 0
M  V30 27075 H 2547.27 0.0056685 -1.49399 0
M  V30 27076 H 2549.16 2.57966 -3.33214 0
M  V30 27077 H 2547.83 2.42289 -2.14657 0
M  V30 27078 H 2546.74 0.68371 -3.67799 0
M  V30 27079 H 2548.07 0.9189 -4.83546 0
M  V30 27080 N 2549.72 1.57526 0.0484352 0
M  V30 27081 C 2550.67 2.01734 1.06243 0
M  V30 27082 C 2551.66 0.903268 1.33154 0
M  V30 27083 O 2552.85 1.16719 1.33063 0
M  V30 27084 C 2549.98 2.48425 2.36939 0
M  V30 27085 C 2549.06 3.66614 2.13202 0
M  V30 27086 N 2549.45 4.80006 1.59462 0
M  V30 27087 C 2547.75 3.73614 2.43574 0
M  V30 27088 C 2548.45 5.61738 1.51082 0
M  V30 27089 N 2547.43 5.06273 1.97961 0
M  V30 27090 H 2551.23 2.86833 0.640625 0
M  V30 27091 H 2548.75 1.60384 0.255105 0
M  V30 27092 H 2550.74 2.78347 3.10369 0
M  V30 27093 H 2549.4 1.64723 2.79815 0
M  V30 27094 H 2550.41 5.01833 1.27999 0
M  V30 27095 H 2547.09 3.00674 2.89657 0
M  V30 27096 H 2548.48 6.62803 1.10187 0
M  V30 27097 N 2551.2 -0.32033 1.5431 0
M  V30 27098 C 2552.43 -1.07735 1.76638 0
M  V30 27099 C 2552.84 -1.81597 0.516522 0
M  V30 27100 O 2552.2 -1.75144 -0.512911 0
M  V30 27101 C 2552.25 -2.07293 2.96162 0
M  V30 27102 O 2551.97 -1.36431 4.16315 0
M  V30 27103 C 2553.47 -2.95188 3.30725 0
M  V30 27104 H 2550.69 -0.320328 0.589602 0
M  V30 27105 H 2553.24 -0.365475 2.01208 0
M  V30 27106 H 2551.39 -2.74011 2.73856 0
M  V30 27107 H 2551.81 -2.03129 4.83569 0
M  V30 27108 H 2553.28 -3.60933 4.17649 0
M  V30 27109 H 2553.76 -3.62459 2.48033 0
M  V30 27110 H 2554.36 -2.34028 3.55121 0
M  V30 27111 N 2552.68 -1.46438 -0.582558 0
M  V30 27112 C 2553.93 -1.51456 -1.33812 0
M  V30 27113 C 2554.25 -0.167826 -1.94276 0
M  V30 27114 O 2553.52 0.805646 -1.78567 0
M  V30 27115 H 2552.1 -0.557827 -0.496828 0
M  V30 27116 H 2554.76 -1.82569 -0.682249 0
M  V30 27117 H 2553.86 -2.26731 -2.14475 0
M  V30 27118 N 2554.16 0.827204 -1.34146 0
M  V30 27119 C 2555.57 1.11967 -1.13734 0
M  V30 27120 C 2555.77 2.01398 0.0640109 0
M  V30 27121 O 2554.83 2.41388 0.740814 0
M  V30 27122 C 2556.14 1.77051 -2.4305 0
M  V30 27123 C 2557.69 1.89565 -2.49066 0
M  V30 27124 C 2558.16 2.58065 -3.78373 0
M  V30 27125 N 2559.66 2.65568 -3.7951 0
M  V30 27126 C 2560.39 3.19288 -4.7628 0
M  V30 27127 N 2559.89 3.73606 -5.8343 0
M  V30 27128 N 2561.68 3.17649 -4.63741 0
M  V30 27129 H 2553.83 0.232259 -2.11126 0
M  V30 27130 H 2556.09 0.165586 -0.933427 0
M  V30 27131 H 2555.8 1.18801 -3.31027 0
M  V30 27132 H 2555.67 2.76961 -2.56071 0
M  V30 27133 H 2558.06 2.46965 -1.61531 0
M  V30 27134 H 2558.14 0.885703 -2.39977 0
M  V30 27135 H 2557.79 2.01321 -4.66296 0
M  V30 27136 H 2557.72 3.59555 -3.84744 0
M  V30 27137 H 2560.21 2.27063 -3.02078 0
M  V30 27138 H 2560.52 4.12835 -6.5329 0
M  V30 27139 H 2558.86 3.71861 -5.87149 0
M  V30 27140 H 2562.06 2.74479 -3.79182 0
M  V30 27141 H 2562.23 3.59212 -5.39324 0
M  V30 27142 N 2555.63 1.17805 1.04688 0
M  V30 27143 C 2556.54 0.914189 2.16055 0
M  V30 27144 C 2557.56 -0.119472 1.73589 0
M  V30 27145 O 2558.74 0.0609822 2.01308 0
M  V30 27146 C 2555.8 0.436663 3.43939 0
M  V30 27147 C 2554.86 1.53753 4.00822 0
M  V30 27148 C 2554.1 1.0827 5.22603 0
M  V30 27149 O 2554.32 -0.0611242 5.70367 0
M  V30 27150 O 2553.25 1.87785 5.71857 0
M  V30 27151 H 2557.08 1.84588 2.41166 0
M  V30 27152 H 2554.66 0.959354 1.14528 0
M  V30 27153 H 2556.55 0.178131 4.21023 0
M  V30 27154 H 2555.22 -0.466813 3.20316 0
M  V30 27155 H 2554.13 1.85 3.25155 0
M  V30 27156 H 2555.46 2.4169 4.28774 0
M  V30 27157 N 2557.11 -1.23497 0.979094 0
M  V30 27158 C 2558.36 -1.91184 0.642784 0
M  V30 27159 C 2558.67 -1.77247 -0.827222 0
M  V30 27160 O 2559.88 -2.39724 -1.27454 0
M  V30 27161 C 2558.34 -3.42707 1.09907 0
M  V30 27162 C 2557.94 -3.65309 2.59333 0
M  V30 27163 C 2559.69 -4.16178 0.836444 0
M  V30 27164 C 2557.6 -5.10461 2.98636 0
M  V30 27165 H 2556.53 -0.71588 0.236711 0
M  V30 27166 H 2559.18 -1.39953 1.18682 0
M  V30 27167 H 2557.56 -3.9304 0.483259 0
M  V30 27168 H 2558.73 -3.25528 3.26142 0
M  V30 27169 H 2557.05 -3.05146 2.83328 0
M  V30 27170 H 2559.64 -5.23137 1.10595 0
M  V30 27171 H 2559.99 -4.15678 -0.227436 0
M  V30 27172 H 2560.52 -3.7183 1.41377 0
M  V30 27173 H 2557.26 -5.16091 4.04142 0
M  V30 27174 H 2556.78 -5.51197 2.3652 0
M  V30 27175 H 2558.46 -5.78783 2.89169 0
M  V30 27176 N 2558.59 -0.750586 -1.38578 0
M  V30 27177 C 2559.84 -0.30586 -2.0048 0
M  V30 27178 C 2560.17 1.10869 -1.59442 0
M  V30 27179 O 2559.45 1.75875 -0.830551 0
M  V30 27180 C 2559.73 -0.42535 -3.57579 0
M  V30 27181 C 2559.58 -1.88079 -4.08591 0
M  V30 27182 C 2560.9 0.183045 -4.39719 0
M  V30 27183 H 2558.02 -0.11261 -0.728346 0
M  V30 27184 H 2560.66 -0.949667 -1.64564 0
M  V30 27185 H 2558.81 0.122759 -3.88306 0
M  V30 27186 H 2560.48 -2.48698 -3.88519 0
M  V30 27187 H 2558.73 -2.39687 -3.61569 0
M  V30 27188 H 2559.4 -1.91557 -5.17697 0
M  V30 27189 H 2561.87 -0.284376 -4.15127 0
M  V30 27190 H 2560.75 0.0691792 -5.48856 0
M  V30 27191 H 2561.01 1.27099 -4.23436 0
M  V30 27192 N 2560.07 1.49477 -0.499425 0
M  V30 27193 C 2561.35 1.95298 0.108595 0
M  V30 27194 C 2561.73 1.44087 1.5428 0
M  V30 27195 O 2561.07 0.653946 2.18942 0
M  V30 27196 C 2561.28 3.48993 0.0228497 0
M  V30 27197 C 2562.63 4.2414 0.197568 0
M  V30 27198 O 2563.66 3.56065 0.0981109 0
M  V30 27199 O 2562.52 5.45023 0.401573 0
M  V30 27200 H 2559.61 0.82139 0.0961665 0
M  V30 27201 H 2562.16 1.60129 -0.561851 0
M  V30 27202 H 2560.93 3.78897 -0.977388 0
M  V30 27203 H 2560.55 3.90775 0.73351 0
M  V30 27204 N 2561.55 0.233191 1.55865 0
M  V30 27205 C 2562.48 -0.666559 2.23784 0
M  V30 27206 C 2563.46 -1.19203 1.21345 0
M  V30 27207 O 2564.64 -1.23389 1.49962 0
M  V30 27208 C 2561.77 -1.86973 2.92675 0
M  V30 27209 C 2560.73 -1.47761 4.01685 0
M  V30 27210 C 2560.05 -2.7605 4.57931 0
M  V30 27211 C 2561.35 -0.658902 5.18127 0
M  V30 27212 H 2563.05 -0.100253 2.99232 0
M  V30 27213 H 2560.59 -0.0467787 1.43924 0
M  V30 27214 H 2562.55 -2.50471 3.38884 0
M  V30 27215 H 2561.27 -2.46119 2.14693 0
M  V30 27216 H 2559.93 -0.866043 3.56224 0
M  V30 27217 H 2559.58 -3.33365 3.76665 0
M  V30 27218 H 2559.28 -2.50543 5.31509 0
M  V30 27219 H 2560.8 -3.4047 5.06865 0
M  V30 27220 H 2562.22 -1.19785 5.60646 0
M  V30 27221 H 2560.61 -0.500447 5.9801 0
M  V30 27222 H 2561.68 0.331941 4.83763 0
M  V30 27223 N 2563.03 -1.57549 -0.0400806 0
M  V30 27224 C 2563.96 -2.01194 -1.07686 0
M  V30 27225 C 2564.94 -0.894297 -1.35798 0
M  V30 27226 O 2566.12 -1.15924 -1.4864 0
M  V30 27227 C 2563.25 -2.37565 -2.41414 0
M  V30 27228 C 2562.29 -3.5966 -2.29231 0
M  V30 27229 S 2563.13 -5.09245 -1.65619 0
M  V30 27230 C 2564.28 -5.48848 -3.0086 0
M  V30 27231 H 2564.52 -2.88819 -0.705057 0
M  V30 27232 H 2562.05 -1.52368 -0.249698 0
M  V30 27233 H 2564.01 -2.59191 -3.18324 0
M  V30 27234 H 2562.67 -1.50412 -2.75745 0
M  V30 27235 H 2561.86 -3.82728 -3.27925 0
M  V30 27236 H 2561.46 -3.37828 -1.60463 0
M  V30 27237 H 2563.75 -5.48858 -3.97191 0
M  V30 27238 H 2564.7 -6.49291 -2.82537 0
M  V30 27239 H 2565.11 -4.76336 -3.02926 0
M  V30 27240 N 2564.5 0.312142 -1.54478 0
M  V30 27241 C 2565.74 1.05681 -1.7496 0
M  V30 27242 C 2566.11 1.84868 -0.518446 0
M  V30 27243 O 2567.31 2.62 -0.600805 0
M  V30 27244 C 2565.58 1.9478 -2.99659 0
M  V30 27245 S 2567.14 2.76043 -3.41095 0
M  V30 27246 H 2563.96 0.356595 -0.61511 0
M  V30 27247 H 2566.56 0.33148 -1.92669 0
M  V30 27248 H 2565.26 1.35461 -3.874 0
M  V30 27249 H 2564.79 2.71699 -2.84505 0
M  V30 27250 H 2566.81 3.97282 -2.9729 0
M  V30 27251 N 2565.98 1.46745 0.574784 0
M  V30 27252 C 2566.93 1.54322 1.67836 0
M  V30 27253 C 2567.92 0.403487 1.55759 0
M  V30 27254 O 2569.11 0.652376 1.64539 0
M  V30 27255 C 2566.24 1.54396 3.06622 0
M  V30 27256 C 2565.32 2.73691 3.23966 0
M  V30 27257 N 2565.71 3.98546 3.1144 0
M  V30 27258 C 2564.01 2.70082 3.54925 0
M  V30 27259 C 2564.71 4.78343 3.31003 0
M  V30 27260 N 2563.69 4.10354 3.56526 0
M  V30 27261 H 2567.49 2.48645 1.56693 0
M  V30 27262 H 2565 1.42494 0.779046 0
M  V30 27263 H 2567 1.57912 3.85836 0
M  V30 27264 H 2565.66 0.611549 3.18889 0
M  V30 27265 H 2566.67 4.29674 2.89138 0
M  V30 27266 H 2563.35 1.859 3.73828 0
M  V30 27267 H 2564.74 5.87273 3.26435 0
M  V30 27268 N 2567.46 -0.820078 1.34583 0
M  V30 27269 C 2568.42 -1.91273 1.26283 0
M  V30 27270 C 2569.42 -1.59819 0.177372 0
M  V30 27271 O 2570.61 -1.68805 0.430186 0
M  V30 27272 C 2567.74 -3.27384 0.950385 0
M  V30 27273 H 2568.94 -2.00054 2.23425 0
M  V30 27274 H 2566.49 -1.01438 1.18912 0
M  V30 27275 H 2567.23 -3.24295 -0.0177368 0
M  V30 27276 H 2567.01 -3.51598 1.73556 0
M  V30 27277 H 2568.5 -4.07395 0.917564 0
M  V30 27278 N 2568.94 -1.18359 -1.04062 0
M  V30 27279 C 2570.17 -1.00387 -1.80915 0
M  V30 27280 C 2570.58 0.447706 -1.83415 0
M  V30 27281 O 2569.94 1.31097 -1.26964 0
M  V30 27282 C 2569.99 -1.55149 -3.26513 0
M  V30 27283 O 2569.71 -2.94624 -3.24235 0
M  V30 27284 C 2571.21 -1.41796 -4.2001 0
M  V30 27285 H 2568.43 -0.354484 -0.569721 0
M  V30 27286 H 2570.97 -1.56909 -1.31149 0
M  V30 27287 H 2569.13 -1.02804 -3.7351 0
M  V30 27288 H 2569.54 -3.20164 -4.15446 0
M  V30 27289 H 2571.02 -1.84911 -5.20108 0
M  V30 27290 H 2571.49 -0.366687 -4.37667 0
M  V30 27291 H 2572.1 -1.93214 -3.78878 0
M  V30 27292 N 2570.42 1.22976 -0.98563 0
M  V30 27293 C 2571.66 1.91531 -0.65742 0
M  V30 27294 C 2571.99 1.76846 0.809676 0
M  V30 27295 O 2571.25 1.12661 1.60019 0
M  V30 27296 C 2571.54 3.43119 -1.0002 0
M  V30 27297 C 2571.21 3.77988 -2.45837 0
M  V30 27298 C 2569.87 3.87217 -2.85686 0
M  V30 27299 C 2572.22 3.94699 -3.40385 0
M  V30 27300 C 2569.55 4.10588 -4.19088 0
M  V30 27301 C 2571.9 4.19572 -4.73437 0
M  V30 27302 C 2570.57 4.27023 -5.13038 0
M  V30 27303 H 2569.84 0.700863 -0.240567 0
M  V30 27304 H 2572.49 1.45893 -1.24046 0
M  V30 27305 H 2570.79 3.90364 -0.335141 0
M  V30 27306 H 2572.49 3.94403 -0.724391 0
M  V30 27307 H 2569.08 3.71383 -2.13945 0
M  V30 27308 H 2573.26 3.86955 -3.10773 0
M  V30 27309 H 2568.52 4.14581 -4.49369 0
M  V30 27310 H 2572.69 4.31446 -5.46651 0
M  V30 27311 H 2570.32 4.44885 -6.16426 0
M  V30 27312 N 2571.89 0.757924 1.38178 0
M  V30 27313 C 2573.12 0.326973 2.043 0
M  V30 27314 C 2573.54 -1.04617 1.57165 0
M  V30 27315 O 2572.89 -1.66527 0.746655 0
M  V30 27316 C 2572.94 0.345427 3.59846 0
M  V30 27317 O 2572.67 1.66439 4.05253 0
M  V30 27318 C 2574.17 -0.0988491 4.4319 0
M  V30 27319 H 2571.39 0.139023 0.65644 0
M  V30 27320 H 2573.93 1.02799 1.76784 0
M  V30 27321 H 2572.09 -0.306888 3.86183 0
M  V30 27322 H 2572.5 1.59354 4.99707 0
M  V30 27323 H 2573.97 -0.0347775 5.51989 0
M  V30 27324 H 2574.45 -1.14734 4.23949 0
M  V30 27325 H 2575.06 0.524754 4.2205 0
M  V30 27326 N 2573.37 -1.4921 0.507345 0
M  V30 27327 C 2574.31 -2.26023 -0.314469 0
M  V30 27328 C 2575.28 -1.30881 -0.964826 0
M  V30 27329 O 2576.47 -1.60182 -0.993679 0
M  V30 27330 C 2573.59 -3.06404 -1.4434 0
M  V30 27331 C 2572.64 -4.16749 -0.906776 0
M  V30 27332 S 2573.47 -5.35098 0.207487 0
M  V30 27333 C 2574.63 -6.19035 -0.924464 0
M  V30 27334 H 2574.86 -2.95378 0.337468 0
M  V30 27335 H 2572.4 -1.51599 0.292744 0
M  V30 27336 H 2574.35 -3.53298 -2.09023 0
M  V30 27337 H 2573.01 -2.36506 -2.06698 0
M  V30 27338 H 2572.21 -4.72531 -1.75301 0
M  V30 27339 H 2571.81 -3.72478 -0.337055 0
M  V30 27340 H 2574.1 -6.52365 -1.82828 0
M  V30 27341 H 2575.04 -7.0694 -0.405123 0
M  V30 27342 H 2575.45 -5.51714 -1.19466 0
M  V30 27343 N 2574.85 -0.241454 -1.55739 0
M  V30 27344 C 2576.27 0.11352 -1.59196 0
M  V30 27345 C 2576.47 1.57362 -1.25855 0
M  V30 27346 O 2575.52 2.31713 -1.00327 0
M  V30 27347 C 2576.84 -0.230748 -2.99813 0
M  V30 27348 C 2578.38 -0.174602 -3.12513 0
M  V30 27349 C 2578.86 -0.492825 -4.55341 0
M  V30 27350 N 2580.35 -0.443124 -4.61076 0
M  V30 27351 C 2581.08 -0.662585 -5.69559 0
M  V30 27352 N 2580.58 -0.944882 -6.86326 0
M  V30 27353 N 2582.37 -0.593662 -5.58956 0
M  V30 27354 H 2574.52 -1.19371 -1.75683 0
M  V30 27355 H 2576.79 -0.47991 -0.817552 0
M  V30 27356 H 2576.49 -1.24491 -3.2893 0
M  V30 27357 H 2576.37 0.444767 -3.74569 0
M  V30 27358 H 2578.75 0.830227 -2.83181 0
M  V30 27359 H 2578.84 -0.883887 -2.40044 0
M  V30 27360 H 2578.48 -1.49518 -4.85393 0
M  V30 27361 H 2578.41 0.237877 -5.26062 0
M  V30 27362 H 2580.9 -0.23344 -3.77178 0
M  V30 27363 H 2581.21 -1.09991 -7.64933 0
M  V30 27364 H 2579.56 -0.982296 -6.88023 0
M  V30 27365 H 2582.75 -0.373205 -4.6661 0
M  V30 27366 H 2582.92 -0.768094 -6.43432 0
M  V30 27367 N 2576.33 1.57568 0.0317248 0
M  V30 27368 C 2577.26 2.09422 1.03271 0
M  V30 27369 C 2578.24 0.996168 1.37879 0
M  V30 27370 O 2579.42 1.27125 1.46809 0
M  V30 27371 C 2576.55 2.57141 2.33443 0
M  V30 27372 C 2575.51 3.71186 2.13085 0
M  V30 27373 C 2574.83 4.05102 3.48994 0
M  V30 27374 C 2576.13 4.99718 1.51919 0
M  V30 27375 H 2577.83 2.93304 0.601069 0
M  V30 27376 H 2575.37 1.41097 0.28768 0
M  V30 27377 H 2577.33 2.92037 3.03796 0
M  V30 27378 H 2576.05 1.70338 2.78662 0
M  V30 27379 H 2574.71 3.36634 1.45165 0
M  V30 27380 H 2574.36 3.15369 3.91857 0
M  V30 27381 H 2574.06 4.81917 3.36198 0
M  V30 27382 H 2575.58 4.4253 4.20714 0
M  V30 27383 H 2577 5.32588 2.12186 0
M  V30 27384 H 2575.39 5.81127 1.49706 0
M  V30 27385 H 2576.46 4.82471 0.484726 0
M  V30 27386 N 2577.81 -0.303946 1.54641 0
M  V30 27387 C 2578.74 -1.37957 1.88389 0
M  V30 27388 C 2579.72 -1.53038 0.742512 0
M  V30 27389 O 2580.9 -1.66595 0.997988 0
M  V30 27390 C 2578.03 -2.74424 2.12859 0
M  V30 27391 C 2576.99 -2.7411 3.28706 0
M  V30 27392 C 2576.31 -4.13838 3.38589 0
M  V30 27393 C 2577.61 -2.36112 4.65885 0
M  V30 27394 H 2579.31 -1.09961 2.78476 0
M  V30 27395 H 2576.85 -0.527533 1.33989 0
M  V30 27396 H 2578.81 -3.49754 2.35053 0
M  V30 27397 H 2577.53 -3.03937 1.1954 0
M  V30 27398 H 2576.19 -2.01235 3.06431 0
M  V30 27399 H 2575.84 -4.40524 2.42792 0
M  V30 27400 H 2575.54 -4.1453 4.1646 0
M  V30 27401 H 2577.06 -4.90953 3.6304 0
M  V30 27402 H 2578.47 -3.01158 4.87829 0
M  V30 27403 H 2576.87 -2.48021 5.46448 0
M  V30 27404 H 2577.94 -1.31241 4.66802 0
M  V30 27405 N 2579.28 -1.47047 -0.566994 0
M  V30 27406 C 2580.51 -1.57011 -1.35508 0
M  V30 27407 C 2580.93 -0.217292 -1.86841 0
M  V30 27408 O 2580.29 0.805239 -1.62436 0
M  V30 27409 C 2580.34 -2.59125 -2.50772 0
M  V30 27410 O 2579.44 -2.13717 -3.52702 0
M  V30 27411 H 2578.79 -0.527787 -0.40291 0
M  V30 27412 H 2581.32 -1.92749 -0.686207 0
M  V30 27413 H 2581.33 -2.79234 -2.97476 0
M  V30 27414 H 2580 -3.57357 -2.12765 0
M  V30 27415 H 2578.58 -2.03664 -3.1237 0
M  V30 27416 N 2580.76 0.812929 -1.35016 0
M  V30 27417 C 2582.17 1.38646 -1.25037 0
M  V30 27418 C 2582.52 1.95833 0.119933 0
M  V30 27419 O 2581.65 1.90818 1.02066 0
M  V30 27420 C 2582.24 2.5205 -2.26398 0
M  V30 27421 C 2580.8 3.05283 -2.2018 0
M  V30 27422 C 2579.95 1.78209 -2.12454 0
M  V30 27423 H 2582.9 0.61649 -1.46236 0
M  V30 27424 H 2582.92 3.30425 -1.88678 0
M  V30 27425 H 2582.43 2.10398 -3.2612 0
M  V30 27426 H 2580.54 3.51415 -1.23848 0
M  V30 27427 H 2580.65 3.63695 -3.1187 0
M  V30 27428 H 2579.01 1.99507 -1.58332 0
M  V30 27429 H 2579.8 1.38717 -3.14026 0
M  V30 27430 N 2582.24 1.18909 1.03433 0
M  V30 27431 C 2583.49 0.982699 1.76142 0
M  V30 27432 C 2583.8 -0.487919 1.89417 0
M  V30 27433 O 2585.01 -0.81299 2.59042 0
M  V30 27434 C 2583.46 1.70929 3.16719 0
M  V30 27435 C 2583.07 3.21965 3.11517 0
M  V30 27436 C 2584.82 1.58594 3.93761 0
M  V30 27437 C 2582.72 3.87236 4.46992 0
M  V30 27438 H 2581.65 0.364058 0.660286 0
M  V30 27439 H 2584.3 1.42349 1.15798 0
M  V30 27440 H 2582.69 1.1963 3.77498 0
M  V30 27441 H 2583.86 3.80339 2.60152 0
M  V30 27442 H 2582.18 3.34513 2.47972 0
M  V30 27443 H 2584.77 2.04715 4.93959 0
M  V30 27444 H 2585.12 0.539214 4.12793 0
M  V30 27445 H 2585.65 2.07209 3.39572 0
M  V30 27446 H 2582.39 4.91984 4.33165 0
M  V30 27447 H 2581.91 3.33651 4.98435 0
M  V30 27448 H 2583.59 3.90468 5.15891 0
M  V30 27449 N 2583.72 -1.22452 0.992137 0
M  V30 27450 C 2585.13 -1.43296 0.702739 0
M  V30 27451 C 2585.33 -1.87933 -0.726876 0
M  V30 27452 O 2584.39 -2.03273 -1.49788 0
M  V30 27453 C 2585.7 -2.47506 1.70766 0
M  V30 27454 C 2587.25 -2.61306 1.72302 0
M  V30 27455 C 2587.73 -3.68737 2.71656 0
M  V30 27456 N 2589.22 -3.76194 2.70245 0
M  V30 27457 C 2589.95 -4.58911 3.43786 0
M  V30 27458 N 2589.45 -5.45626 4.26924 0
M  V30 27459 N 2591.24 -4.53214 3.32495 0
M  V30 27460 H 2583.39 -0.917837 1.91545 0
M  V30 27461 H 2585.66 -0.465148 0.82604 0
M  V30 27462 H 2585.36 -2.21652 2.73063 0
M  V30 27463 H 2585.24 -3.46096 1.49991 0
M  V30 27464 H 2587.62 -2.86505 0.707039 0
M  V30 27465 H 2587.7 -1.62994 1.97146 0
M  V30 27466 H 2587.35 -3.44286 3.73403 0
M  V30 27467 H 2587.28 -4.66617 2.44082 0
M  V30 27468 H 2589.77 -3.14234 2.09918 0
M  V30 27469 H 2590.08 -6.05763 4.79866 0
M  V30 27470 H 2588.43 -5.4521 4.31011 0
M  V30 27471 H 2591.62 -3.84494 2.66987 0
M  V30 27472 H 2591.79 -5.17448 3.90067 0
M  V30 27473 N 2585.2 -0.765242 -1.37774 0
M  V30 27474 C 2586.44 -0.327107 -2.00145 0
M  V30 27475 C 2586.78 1.09172 -1.60609 0
M  V30 27476 O 2586.05 1.74984 -0.849158 0
M  V30 27477 C 2586.33 -0.463252 -3.57108 0
M  V30 27478 C 2586.19 -1.92402 -4.06573 0
M  V30 27479 C 2587.51 0.136396 -4.39889 0
M  V30 27480 H 2584.62 -0.120329 -0.727111 0
M  V30 27481 H 2587.27 -0.967068 -1.63548 0
M  V30 27482 H 2585.42 0.0815675 -3.88414 0
M  V30 27483 H 2587.09 -2.52805 -3.85859 0
M  V30 27484 H 2585.33 -2.43509 -3.59007 0
M  V30 27485 H 2586 -1.97038 -5.15636 0
M  V30 27486 H 2588.48 -0.328389 -4.14802 0
M  V30 27487 H 2587.35 0.0109617 -5.48899 0
M  V30 27488 H 2587.62 1.226 -4.24761 0
M  V30 27489 N 2586.67 1.48939 -0.515251 0
M  V30 27490 C 2588.09 1.86565 -0.0710395 0
M  V30 27491 C 2588.44 1.42626 1.34731 0
M  V30 27492 O 2587.56 0.810414 2.00652 0
M  V30 27493 C 2588.16 3.3858 -0.122142 0
M  V30 27494 C 2586.72 3.75453 0.266797 0
M  V30 27495 C 2585.86 2.72965 -0.488424 0
M  V30 27496 H 2588.81 1.41054 -0.727291 0
M  V30 27497 H 2588.83 3.74559 0.669752 0
M  V30 27498 H 2588.35 3.70529 -1.15455 0
M  V30 27499 H 2586.45 3.49115 1.3019 0
M  V30 27500 H 2586.56 4.79059 -0.0625653 0
M  V30 27501 H 2584.92 2.54621 0.0635174 0
M  V30 27502 H 2585.71 3.07758 -1.52118 0
M  V30 27503 N 2588.15 0.249709 1.55609 0
M  V30 27504 C 2589.1 -0.664867 2.22895 0
M  V30 27505 C 2590.1 -1.1779 1.21746 0
M  V30 27506 O 2591.3 -1.13446 1.3975 0
M  V30 27507 H 2587.68 -0.232899 0.715026 0
M  V30 27508 H 2589.65 -0.0742473 2.98308 0
M  V30 27509 C 2588.4 -1.84954 2.94427 0
M  V30 27510 H 2587.72 -1.46393 3.72034 0
M  V30 27511 H 2589.16 -2.46664 3.44866 0
M  V30 27512 C 2587.62 -2.72242 1.98459 0
M  V30 27513 O 2588.15 -3.71854 1.51946 0
M  V30 27514 N 2586.35 -2.38868 1.655 0
M  V30 27515 H 2585.9 -1.57915 2.0352 0
M  V30 27516 H 2585.86 -2.97546 1.01555 0
M  V30 27517 N 2589.63 -1.57583 -0.0233682 0
M  V30 27518 C 2590.86 -1.93514 -0.723597 0
M  V30 27519 C 2591.27 -0.848362 -1.69114 0
M  V30 27520 O 2590.61 0.183452 -1.82782 0
M  V30 27521 C 2590.67 -3.25285 -1.53069 0
M  V30 27522 C 2590.34 -4.51175 -0.727308 0
M  V30 27523 C 2591.34 -5.19894 -0.025101 0
M  V30 27524 C 2589.02 -4.97674 -0.680168 0
M  V30 27525 C 2591.01 -6.33394 0.713486 0
M  V30 27526 C 2588.7 -6.11068 0.0621597 0
M  V30 27527 C 2589.7 -6.78784 0.757741 0
M  V30 27528 O 2589.39 -7.90009 1.48801 0
M  V30 27529 H 2589.12 -0.643192 -0.208039 0
M  V30 27530 H 2591.67 -2.05393 0.016785 0
M  V30 27531 H 2589.9 -3.09748 -2.31502 0
M  V30 27532 H 2591.59 -3.465 -2.11407 0
M  V30 27533 H 2592.36 -4.84972 -0.0525151 0
M  V30 27534 H 2588.24 -4.44808 -1.21109 0
M  V30 27535 H 2591.78 -6.86183 1.25695 0
M  V30 27536 H 2587.68 -6.45435 0.0914768 0
M  V30 27537 H 2588.45 -8.06398 1.40228 0
M  V30 27538 N 2591.11 0.29574 -1.548 0
M  V30 27539 C 2592.06 1.38492 -1.86877 0
M  V30 27540 C 2593.05 1.52238 -0.742965 0
M  V30 27541 O 2594.26 1.54293 -0.927026 0
M  V30 27542 H 2590.63 0.462709 -0.592794 0
M  V30 27543 H 2592.6 1.08677 -2.77906 0
M  V30 27544 C 2591.35 2.74248 -2.13736 0
M  V30 27545 H 2590.68 2.64454 -2.9984 0
M  V30 27546 H 2592.12 3.49457 -2.40116 0
M  V30 27547 C 2590.57 3.2359 -0.937595 0
M  V30 27548 O 2591.1 4.01378 -0.160736 0
M  V30 27549 N 2589.31 2.8098 -0.741527 0
M  V30 27550 H 2588.86 2.17838 -1.37493 0
M  V30 27551 H 2588.82 3.14343 0.0596551 0
M  V30 27552 N 2592.59 1.47346 0.559187 0
M  V30 27553 C 2593.52 1.62561 1.67619 0
M  V30 27554 C 2594.5 0.475115 1.6333 0
M  V30 27555 O 2595.68 0.704214 1.80982 0
M  V30 27556 C 2592.81 1.6378 3.06257 0
M  V30 27557 C 2591.77 2.78036 3.25392 0
M  V30 27558 C 2591.09 2.64326 4.64796 0
M  V30 27559 C 2592.39 4.19646 3.10957 0
M  V30 27560 H 2594.09 2.56069 1.55142 0
M  V30 27561 H 2591.63 1.23234 0.74494 0
M  V30 27562 H 2593.59 1.73015 3.84244 0
M  V30 27563 H 2592.31 0.668306 3.19689 0
M  V30 27564 H 2590.97 2.68308 2.49812 0
M  V30 27565 H 2590.62 1.65409 4.75025 0
M  V30 27566 H 2590.32 3.40977 4.78549 0
M  V30 27567 H 2591.84 2.75487 5.44921 0
M  V30 27568 H 2593.26 4.30361 3.78764 0
M  V30 27569 H 2591.65 4.97068 3.3622 0
M  V30 27570 H 2592.72 4.38152 2.07729 0
M  V30 27571 N 2594.07 -0.805758 1.35445 0
M  V30 27572 C 2595.31 -1.55799 1.281 0
M  V30 27573 C 2595.63 -1.95081 -0.142393 0
M  V30 27574 O 2596.83 -2.69386 -0.338122 0
M  V30 27575 C 2595.29 -2.8117 2.24658 0
M  V30 27576 C 2594.9 -2.49123 3.72346 0
M  V30 27577 C 2596.64 -3.59177 2.26257 0
M  V30 27578 C 2594.55 -3.70791 4.60726 0
M  V30 27579 H 2593.48 -0.5848 0.475947 0
M  V30 27580 H 2596.13 -0.885632 1.60713 0
M  V30 27581 H 2594.51 -3.50121 1.85017 0
M  V30 27582 H 2595.69 -1.88173 4.20627 0
M  V30 27583 H 2594 -1.8436 3.73364 0
M  V30 27584 H 2596.6 -4.49547 2.89503 0
M  V30 27585 H 2596.94 -3.96566 1.26654 0
M  V30 27586 H 2597.47 -2.97189 2.64431 0
M  V30 27587 H 2594.21 -3.3851 5.6133 0
M  V30 27588 H 2593.73 -4.30963 4.1717 0
M  V30 27589 H 2595.41 -4.3801 4.7619 0
M  V30 27590 N 2595.54 -1.19456 -1.02801 0
M  V30 27591 C 2596.79 -0.992027 -1.75618 0
M  V30 27592 C 2597.11 0.477867 -1.89673 0
M  V30 27593 O 2598.31 0.799241 -2.59469 0
M  V30 27594 C 2596.77 -1.72606 -3.15809 0
M  V30 27595 C 2596.38 -3.23612 -3.09805 0
M  V30 27596 C 2598.12 -1.6068 -3.92915 0
M  V30 27597 C 2596.03 -3.89601 -4.44932 0
M  V30 27598 H 2594.96 -0.367555 -0.658346 0
M  V30 27599 H 2597.61 -1.42961 -1.15041 0
M  V30 27600 H 2595.99 -1.2163 -3.76858 0
M  V30 27601 H 2597.16 -3.81713 -2.58131 0
M  V30 27602 H 2595.48 -3.35823 -2.46195 0
M  V30 27603 H 2598.08 -2.07332 -4.92867 0
M  V30 27604 H 2598.42 -0.561098 -4.12501 0
M  V30 27605 H 2598.95 -2.09007 -3.38469 0
M  V30 27606 H 2595.69 -4.94274 -4.3055 0
M  V30 27607 H 2595.21 -3.36289 -4.96658 0
M  V30 27608 H 2596.89 -3.93199 -5.13813 0
M  V30 27609 N 2597.02 1.21924 -0.998617 0
M  V30 27610 C 2597.95 2.22687 -0.498557 0
M  V30 27611 C 2598.93 1.56413 0.444273 0
M  V30 27612 O 2600.12 1.84863 0.368486 0
M  V30 27613 C 2597.24 3.37569 0.276579 0
M  V30 27614 C 2596.29 4.2207 -0.613094 0
M  V30 27615 S 2597.12 4.938 -2.07176 0
M  V30 27616 C 2598.28 6.12117 -1.30628 0
M  V30 27617 H 2598.51 2.6476 -1.35239 0
M  V30 27618 H 2596.04 1.3169 -0.806042 0
M  V30 27619 H 2598 4.04177 0.717746 0
M  V30 27620 H 2596.66 2.93993 1.10576 0
M  V30 27621 H 2595.86 5.03997 -0.0163795 0
M  V30 27622 H 2595.46 3.60624 -0.991266 0
M  V30 27623 H 2597.75 6.7504 -0.576869 0
M  V30 27624 H 2598.69 6.76212 -2.10103 0
M  V30 27625 H 2599.1 5.58556 -0.817056 0
M  V30 27626 N 2598.5 0.772537 1.37367 0
M  V30 27627 C 2599.78 0.261914 1.93839 0
M  V30 27628 C 2600.16 -1.24316 1.70613 0
M  V30 27629 O 2599.5 -2.02668 1.05537 0
M  V30 27630 C 2599.71 0.636162 3.43153 0
M  V30 27631 C 2601.06 0.606398 4.20248 0
M  V30 27632 O 2602.09 0.5756 3.51519 0
M  V30 27633 O 2600.95 0.634182 5.42808 0
M  V30 27634 H 2598.04 0.06057 0.824779 0
M  V30 27635 H 2600.59 0.853943 1.46649 0
M  V30 27636 H 2599.36 1.67486 3.53644 0
M  V30 27637 H 2598.98 0.0171215 3.97596 0
M  V30 27638 N 2599.98 -1.48664 0.523142 0
M  V30 27639 C 2600.89 -2.33292 -0.247365 0
M  V30 27640 C 2601.9 -1.46054 -0.945743 0
M  V30 27641 O 2603.08 -1.79045 -0.922221 0
M  V30 27642 C 2600.14 -3.22015 -1.28481 0
M  V30 27643 C 2599.21 -4.25121 -0.597517 0
M  V30 27644 C 2598.44 -5.09604 -1.58554 0
M  V30 27645 O 2598.66 -4.95954 -2.81754 0
M  V30 27646 O 2597.6 -5.91223 -1.12869 0
M  V30 27647 H 2601.42 -3.00408 0.445922 0
M  V30 27648 H 2599.01 -1.46673 0.284154 0
M  V30 27649 H 2600.89 -3.76914 -1.88452 0
M  V30 27650 H 2599.56 -2.57567 -1.96063 0
M  V30 27651 H 2598.47 -3.74076 0.0425064 0
M  V30 27652 H 2599.8 -4.92187 0.0362382 0
M  V30 27653 N 2601.46 -0.257958 -1.55475 0
M  V30 27654 C 2602.42 0.623667 -2.20552 0
M  V30 27655 C 2603.42 1.0944 -1.17811 0
M  V30 27656 O 2604.61 0.997337 -1.42824 0
M  V30 27657 C 2601.74 1.85845 -2.85787 0
M  V30 27658 H 2602.93 0.0557216 -2.99848 0
M  V30 27659 H 2600.49 -0.00846967 -1.56298 0
M  V30 27660 H 2601.22 2.46735 -2.10457 0
M  V30 27661 H 2601.01 1.52901 -3.61059 0
M  V30 27662 H 2602.5 2.48578 -3.35557 0
M  V30 27663 N 2602.93 1.57593 0.0150108 0
M  V30 27664 C 2603.88 2.03942 1.0194 0
M  V30 27665 C 2604.87 0.931309 1.31208 0
M  V30 27666 O 2606.06 1.19515 1.30557 0
M  V30 27667 C 2603.19 2.53395 2.31616 0
M  V30 27668 C 2602.28 3.71054 2.05377 0
M  V30 27669 N 2602.67 4.8328 1.49244 0
M  V30 27670 C 2600.96 3.78697 2.35594 0
M  V30 27671 C 2601.67 5.64816 1.39133 0
M  V30 27672 N 2600.64 5.10358 1.87178 0
M  V30 27673 H 2604.44 2.88127 0.579639 0
M  V30 27674 H 2601.96 1.60889 0.221028 0
M  V30 27675 H 2603.95 2.84867 3.04395 0
M  V30 27676 H 2602.61 1.70621 2.76258 0
M  V30 27677 H 2603.63 5.04435 1.17326 0
M  V30 27678 H 2600.3 3.06751 2.83214 0
M  V30 27679 H 2601.69 6.64992 0.961036 0
M  V30 27680 N 2604.41 -0.287527 1.54955 0
M  V30 27681 C 2605.66 -1.02103 1.74875 0
M  V30 27682 C 2605.99 -1.868 0.541862 0
M  V30 27683 O 2605.24 -1.89824 -0.475959 0
M  V30 27684 C 2605.54 -1.94507 2.99836 0
M  V30 27685 C 2605.21 -1.25678 4.33031 0
M  V30 27686 C 2603.87 -1.0664 4.69235 0
M  V30 27687 C 2606.22 -0.765823 5.15543 0
M  V30 27688 C 2603.55 -0.37212 5.85519 0
M  V30 27689 C 2605.9 -0.0851989 6.32543 0
M  V30 27690 C 2604.57 0.117017 6.67397 0
M  V30 27691 H 2603.84 -0.373621 0.639913 0
M  V30 27692 H 2606.48 -0.294632 1.8922 0
M  V30 27693 H 2604.79 -2.7372 2.8033 0
M  V30 27694 H 2606.48 -2.51356 3.12444 0
M  V30 27695 H 2603.07 -1.41505 4.04567 0
M  V30 27696 H 2607.26 -0.900574 4.88061 0
M  V30 27697 H 2602.51 -0.204588 6.11058 0
M  V30 27698 H 2606.69 0.303058 6.9574 0
M  V30 27699 H 2604.32 0.656992 7.57356 0
M  V30 27700 N 2605.89 -1.47641 -0.551365 0
M  V30 27701 C 2607.12 -1.58191 -1.33354 0
M  V30 27702 C 2607.53 -0.234232 -1.87341 0
M  V30 27703 O 2606.89 0.773401 -1.65302 0
M  V30 27704 C 2606.94 -2.61177 -2.49938 0
M  V30 27705 O 2606.66 -3.90713 -1.9818 0
M  V30 27706 C 2608.16 -2.81966 -3.42067 0
M  V30 27707 H 2605.38 -0.534005 -0.4063 0
M  V30 27708 H 2607.93 -1.93305 -0.667333 0
M  V30 27709 H 2606.08 -2.2898 -3.12485 0
M  V30 27710 H 2606.5 -4.47036 -2.74334 0
M  V30 27711 H 2607.97 -3.57876 -4.20272 0
M  V30 27712 H 2608.45 -1.90002 -3.95975 0
M  V30 27713 H 2609.05 -3.15383 -2.85331 0
M  V30 27714 N 2607.37 0.798563 -1.3587 0
M  V30 27715 C 2608.65 1.5435 -1.20148 0
M  V30 27716 C 2609.03 2.09991 0.216124 0
M  V30 27717 O 2608.37 1.93165 1.22064 0
M  V30 27718 C 2608.58 2.64568 -2.27607 0
M  V30 27719 C 2609.93 3.32694 -2.63817 0
M  V30 27720 O 2610.96 2.74845 -2.26581 0
M  V30 27721 O 2609.81 4.3722 -3.27874 0
M  V30 27722 H 2606.91 0.682347 -0.46726 0
M  V30 27723 H 2609.45 0.837833 -1.47575 0
M  V30 27724 H 2608.23 2.21382 -3.22654 0
M  V30 27725 H 2607.85 3.42762 -2.01494 0
M  V30 27726 N 2608.85 1.19999 1.02166 0
M  V30 27727 C 2610.26 1.00827 1.57133 0
M  V30 27728 C 2610.61 -0.436784 1.91276 0
M  V30 27729 O 2609.73 -1.31737 1.71681 0
M  V30 27730 C 2610.33 1.82398 2.85511 0
M  V30 27731 C 2608.89 1.67607 3.37024 0
M  V30 27732 C 2608.03 1.80648 2.10385 0
M  V30 27733 H 2610.99 1.34265 0.846082 0
M  V30 27734 H 2611.01 1.32435 3.56709 0
M  V30 27735 H 2610.52 2.87566 2.60629 0
M  V30 27736 H 2608.62 0.65055 3.66877 0
M  V30 27737 H 2608.73 2.48578 4.09568 0
M  V30 27738 H 2607.1 1.23782 2.22599 0
M  V30 27739 H 2607.88 2.87289 1.87935 0
M  V30 27740 N 2610.32 -1.21392 1.00507 0
M  V30 27741 C 2611.29 -2.21986 0.570498 0
M  V30 27742 C 2612.29 -1.56873 -0.353183 0
M  V30 27743 O 2613.48 -1.73608 -0.14346 0
M  V30 27744 C 2610.61 -3.40483 -0.168496 0
M  V30 27745 H 2611.8 -2.61948 1.46026 0
M  V30 27746 H 2609.36 -1.34655 0.793589 0
M  V30 27747 H 2610.09 -3.0601 -1.07369 0
M  V30 27748 H 2609.88 -3.88964 0.494892 0
M  V30 27749 H 2611.37 -4.15056 -0.460289 0
M  V30 27750 N 2611.8 -0.779811 -1.36955 0
M  V30 27751 C 2613.03 -0.35826 -2.04282 0
M  V30 27752 C 2613.45 1.01408 -1.58423 0
M  V30 27753 O 2612.81 1.65141 -0.748208 0
M  V30 27754 C 2612.86 -0.419542 -3.58151 0
M  V30 27755 O 2611.96 0.57707 -4.08343 0
M  V30 27756 H 2611.3 -0.15371 -0.645964 0
M  V30 27757 H 2613.83 -1.05825 -1.75106 0
M  V30 27758 H 2613.84 -0.279707 -4.0704 0
M  V30 27759 H 2612.52 -1.42068 -3.90883 0
M  V30 27760 H 2611.1 0.39969 -3.70752 0
M  V30 27761 N 2613.28 1.48384 -0.531019 0
M  V30 27762 C 2614.53 2.01699 0.00470803 0
M  V30 27763 C 2614.84 1.41328 1.35225 0
M  V30 27764 O 2616.05 1.86147 1.9764 0
M  V30 27765 C 2614.5 3.59852 0.0587841 0
M  V30 27766 C 2614.11 4.29208 -1.28392 0
M  V30 27767 C 2615.86 4.21009 0.543284 0
M  V30 27768 C 2613.76 5.79296 -1.19038 0
M  V30 27769 H 2612.69 0.75398 0.00552992 0
M  V30 27770 H 2615.34 1.70636 -0.674954 0
M  V30 27771 H 2613.73 3.87762 0.803544 0
M  V30 27772 H 2614.9 4.12969 -2.04433 0
M  V30 27773 H 2613.22 3.79927 -1.70425 0
M  V30 27774 H 2615.81 5.30961 0.631257 0
M  V30 27775 H 2616.16 3.86397 1.5493 0
M  V30 27776 H 2616.69 3.97533 -0.145824 0
M  V30 27777 H 2613.43 6.18484 -2.17158 0
M  V30 27778 H 2612.95 5.97945 -0.471351 0
M  V30 27779 H 2614.63 6.40967 -0.881478 0
M  V30 27780 N 2614.76 0.2662 1.55336 0
M  V30 27781 C 2615.72 -0.611962 2.20879 0
M  V30 27782 C 2616.72 -1.08814 1.1839 0
M  V30 27783 O 2617.91 -0.989749 1.43351 0
M  V30 27784 C 2615.04 -1.84327 2.86769 0
M  V30 27785 H 2616.24 -0.0398191 2.99874 0
M  V30 27786 H 2613.79 0.0167584 1.56291 0
M  V30 27787 H 2614.52 -2.45615 2.11763 0
M  V30 27788 H 2614.31 -1.50984 3.61865 0
M  V30 27789 H 2615.8 -2.46795 3.36871 0
M  V30 27790 N 2616.24 -1.57599 -0.0066531 0
M  V30 27791 C 2617.2 -2.06955 -0.984999 0
M  V30 27792 C 2618.2 -0.97771 -1.27662 0
M  V30 27793 O 2619.39 -1.24059 -1.22291 0
M  V30 27794 C 2616.52 -2.5054 -2.31176 0
M  V30 27795 H 2617.71 -2.94659 -0.558203 0
M  V30 27796 H 2615.27 -1.54223 -0.253984 0
M  V30 27797 H 2616 -1.66059 -2.78558 0
M  V30 27798 H 2615.79 -3.30274 -2.11333 0
M  V30 27799 H 2617.28 -2.89075 -3.01372 0
M  V30 27800 N 2617.72 0.279305 -1.55105 0
M  V30 27801 C 2619.13 0.626161 -1.46804 0
M  V30 27802 C 2619.33 1.89788 -0.676972 0
M  V30 27803 O 2618.39 2.51759 -0.193304 0
M  V30 27804 C 2619.7 0.758983 -2.90964 0
M  V30 27805 C 2621.25 0.853451 -3.0114 0
M  V30 27806 C 2621.72 1.0181 -4.46541 0
M  V30 27807 N 2623.21 1.08378 -4.50343 0
M  V30 27808 C 2623.95 1.22986 -5.60055 0
M  V30 27809 N 2623.45 1.34354 -6.79648 0
M  V30 27810 N 2625.24 1.26046 -5.47785 0
M  V30 27811 H 2617.39 -0.555957 -2.04995 0
M  V30 27812 H 2619.65 -0.187256 -0.929322 0
M  V30 27813 H 2619.36 -0.104913 -3.51543 0
M  V30 27814 H 2619.23 1.64125 -3.39622 0
M  V30 27815 H 2621.62 1.70782 -2.40661 0
M  V30 27816 H 2621.7 -0.0532916 -2.55744 0
M  V30 27817 H 2621.34 0.168415 -5.07621 0
M  V30 27818 H 2621.27 1.9394 -4.89587 0
M  V30 27819 H 2623.77 1.00858 -3.64192 0
M  V30 27820 H 2624.08 1.45317 -7.59014 0
M  V30 27821 H 2622.42 1.3137 -6.82471 0
M  V30 27822 H 2625.61 1.16792 -4.53296 0
M  V30 27823 H 2625.79 1.37087 -6.33333 0
M  V30 27824 N 2619.19 1.47931 0.543528 0
M  V30 27825 C 2620.44 1.5495 1.29749 0
M  V30 27826 C 2620.76 0.219276 1.93763 0
M  V30 27827 O 2620.03 -0.758019 1.8064 0
M  V30 27828 H 2618.61 0.570803 0.481864 0
M  V30 27829 H 2621.27 1.84314 0.633604 0
M  V30 27830 H 2620.37 2.32338 2.08388 0
M  V30 27831 N 2620.67 -0.791347 1.36292 0
M  V30 27832 C 2621.9 -1.57784 1.33371 0
M  V30 27833 C 2622.31 -1.88998 -0.0874856 0
M  V30 27834 O 2621.65 -1.50437 -1.05425 0
M  V30 27835 C 2621.71 -2.92643 2.08807 0
M  V30 27836 C 2621.38 -2.84167 3.57908 0
M  V30 27837 C 2622.38 -2.56545 4.52195 0
M  V30 27838 C 2620.06 -3.02805 4.00767 0
M  V30 27839 C 2622.05 -2.47659 5.87319 0
M  V30 27840 C 2619.74 -2.93541 5.35982 0
M  V30 27841 C 2620.74 -2.66006 6.29071 0
M  V30 27842 O 2620.43 -2.56732 7.61803 0
M  V30 27843 H 2620.16 -0.496119 0.459175 0
M  V30 27844 H 2622.71 -0.990238 1.79954 0
M  V30 27845 H 2620.94 -3.53446 1.56884 0
M  V30 27846 H 2622.63 -3.53901 1.98769 0
M  V30 27847 H 2623.4 -2.4185 4.20397 0
M  V30 27848 H 2619.28 -3.23244 3.28685 0
M  V30 27849 H 2622.82 -2.26087 6.59947 0
M  V30 27850 H 2618.72 -3.07798 5.67389 0
M  V30 27851 H 2619.49 -2.72228 7.71903 0
M  V30 27852 N 2622.15 -1.2054 -1.01528 0
M  V30 27853 C 2623.4 -1.0106 -1.74556 0
M  V30 27854 C 2623.71 0.457723 -1.90169 0
M  V30 27855 O 2624.92 0.771676 -2.60303 0
M  V30 27856 C 2623.37 -1.75946 -3.1396 0
M  V30 27857 C 2622.98 -3.2688 -3.06355 0
M  V30 27858 C 2624.73 -1.64839 -3.91188 0
M  V30 27859 C 2622.63 -3.94299 -4.40775 0
M  V30 27860 H 2621.56 -0.374517 -0.654411 0
M  V30 27861 H 2624.21 -1.44173 -1.13518 0
M  V30 27862 H 2622.6 -1.2562 -3.75547 0
M  V30 27863 H 2623.77 -3.8443 -2.54068 0
M  V30 27864 H 2622.08 -3.38415 -2.42619 0
M  V30 27865 H 2624.68 -2.12548 -4.9064 0
M  V30 27866 H 2625.02 -0.604818 -4.11883 0
M  V30 27867 H 2625.56 -2.12585 -3.36233 0
M  V30 27868 H 2622.3 -4.98813 -4.25283 0
M  V30 27869 H 2621.82 -3.41538 -4.93064 0
M  V30 27870 H 2623.5 -3.98626 -5.09614 0
M  V30 27871 N 2623.63 1.20858 -1.01149 0
M  V30 27872 C 2624.85 1.94622 -0.716732 0
M  V30 27873 C 2625.28 1.73965 0.715384 0
M  V30 27874 O 2624.64 1.03065 1.49155 0
M  V30 27875 C 2624.68 3.44933 -1.05136 0
M  V30 27876 O 2623.79 4.12089 -0.160204 0
M  V30 27877 H 2623.13 0.60821 -0.266415 0
M  V30 27878 H 2625.66 1.53433 -1.35349 0
M  V30 27879 H 2625.67 3.95532 -1.00093 0
M  V30 27880 H 2624.34 3.59291 -2.09482 0
M  V30 27881 H 2622.92 3.71938 -0.267722 0
M  V30 27882 N 2625.11 0.787064 1.3654 0
M  V30 27883 C 2626.33 0.370235 2.0356 0
M  V30 27884 C 2626.75 -1.0126 1.59348 0
M  V30 27885 O 2626.11 -1.64906 0.78181 0
M  V30 27886 C 2626.16 0.421677 3.59032 0
M  V30 27887 O 2625.88 1.74997 4.01631 0
M  V30 27888 C 2627.38 -0.00481971 4.433 0
M  V30 27889 H 2624.6 0.152916 0.653343 0
M  V30 27890 H 2627.14 1.06525 1.74564 0
M  V30 27891 H 2625.3 -0.224903 3.86747 0
M  V30 27892 H 2625.71 1.69917 4.96214 0
M  V30 27893 H 2627.19 0.0823154 5.51939 0
M  V30 27894 H 2627.66 -1.05716 4.26287 0
M  V30 27895 H 2628.27 0.614159 4.20842 0
M  V30 27896 N 2626.58 -1.48101 0.53888 0
M  V30 27897 C 2628 -1.58375 0.197348 0
M  V30 27898 C 2628.2 -1.53982 -1.29969 0
M  V30 27899 O 2627.26 -1.43356 -2.07859 0
M  V30 27900 C 2628.57 -2.89647 0.807766 0
M  V30 27901 C 2630.12 -3.03194 0.777313 0
M  V30 27902 C 2630.59 -4.3714 1.36647 0
M  V30 27903 N 2632.08 -4.4373 1.32883 0
M  V30 27904 C 2632.82 -5.45898 1.7545 0
M  V30 27905 N 2632.31 -6.54975 2.25787 0
M  V30 27906 N 2634.11 -5.36833 1.66632 0
M  V30 27907 H 2626.26 -1.49199 1.51173 0
M  V30 27908 H 2628.52 -0.708968 0.62934 0
M  V30 27909 H 2628.23 -2.98544 1.85914 0
M  V30 27910 H 2628.1 -3.76083 0.290041 0
M  V30 27911 H 2630.49 -2.93905 -0.265322 0
M  V30 27912 H 2630.57 -2.18347 1.3326 0
M  V30 27913 H 2630.21 -4.47185 2.40808 0
M  V30 27914 H 2630.14 -5.20689 0.78678 0
M  V30 27915 H 2632.63 -3.65492 0.960434 0
M  V30 27916 H 2632.95 -7.29083 2.56239 0
M  V30 27917 H 2631.29 -6.55914 2.29787 0
M  V30 27918 H 2634.48 -4.50515 1.27097 0
M  V30 27919 H 2634.66 -6.16323 2.00126 0
M  V30 27920 N 2628.06 -0.274434 -1.55192 0
M  V30 27921 C 2629.31 0.343051 -1.99877 0
M  V30 27922 C 2629.64 1.55555 -1.16259 0
M  V30 27923 O 2628.92 1.93105 -0.232496 0
M  V30 27924 C 2629.2 0.725903 -3.52708 0
M  V30 27925 C 2629.05 -0.493896 -4.4708 0
M  V30 27926 C 2630.37 1.5626 -4.11425 0
M  V30 27927 H 2627.49 0.123216 -0.726627 0
M  V30 27928 H 2630.13 -0.381243 -1.86136 0
M  V30 27929 H 2628.28 1.34301 -3.64548 0
M  V30 27930 H 2629.95 -1.13245 -4.47184 0
M  V30 27931 H 2628.2 -1.13208 -4.18768 0
M  V30 27932 H 2628.87 -0.182267 -5.51699 0
M  V30 27933 H 2631.34 1.04144 -4.02856 0
M  V30 27934 H 2630.22 1.7993 -5.18572 0
M  V30 27935 H 2630.48 2.54341 -3.61611 0
M  V30 27936 N 2629.54 1.576 -0.00170483 0
M  V30 27937 C 2630.45 2.11962 1.00544 0
M  V30 27938 C 2631.47 1.06528 1.37578 0
M  V30 27939 O 2632.64 1.38439 1.46276 0
M  V30 27940 C 2629.71 2.61354 2.27804 0
M  V30 27941 C 2628.77 3.81396 1.97067 0
M  V30 27942 C 2628 4.28423 3.1826 0
M  V30 27943 O 2628.22 3.74772 4.30002 0
M  V30 27944 O 2627.16 5.20561 3.02158 0
M  V30 27945 H 2630.98 2.98239 0.573321 0
M  V30 27946 H 2628.57 1.47812 0.217229 0
M  V30 27947 H 2630.45 2.93315 3.02563 0
M  V30 27948 H 2629.13 1.78174 2.70251 0
M  V30 27949 H 2628.03 3.54406 1.19779 0
M  V30 27950 H 2629.37 4.65655 1.59456 0
M  V30 27951 N 2631.02 -0.271076 1.55251 0
M  V30 27952 C 2631.95 -1.36072 1.83193 0
M  V30 27953 C 2632.93 -1.47462 0.685117 0
M  V30 27954 O 2634.11 -1.64056 0.928321 0
M  V30 27955 C 2631.24 -2.73692 1.99525 0
M  V30 27956 C 2630.29 -2.79576 3.22086 0
M  V30 27957 S 2631.12 -2.38627 4.79393 0
M  V30 27958 C 2632.27 -3.78219 4.987 0
M  V30 27959 H 2632.51 -1.12167 2.75329 0
M  V30 27960 H 2630.04 -0.470808 1.47047 0
M  V30 27961 H 2632 -3.52945 2.0962 0
M  V30 27962 H 2630.66 -2.94848 1.08275 0
M  V30 27963 H 2629.85 -3.80589 3.30406 0
M  V30 27964 H 2629.45 -2.08347 3.10592 0
M  V30 27965 H 2631.75 -4.73506 4.84559 0
M  V30 27966 H 2632.69 -3.74849 6.00744 0
M  V30 27967 H 2633.1 -3.69611 4.26671 0
M  V30 27968 N 2632.5 -1.48217 -0.535675 0
M  V30 27969 C 2633.74 -1.55636 -1.28925 0
M  V30 27970 C 2634.07 -0.229548 -1.93644 0
M  V30 27971 O 2633.34 0.748428 -1.8104 0
M  V30 27972 H 2631.92 -0.573351 -0.47883 0
M  V30 27973 H 2634.58 -1.84647 -0.623821 0
M  V30 27974 H 2633.67 -2.3344 -2.07153 0
M  V30 27975 N 2633.97 0.784108 -1.3671 0
M  V30 27976 C 2634.88 1.92819 -1.33634 0
M  V30 27977 C 2635.9 1.72369 -0.237716 0
M  V30 27978 O 2637.08 1.95815 -0.470996 0
M  V30 27979 C 2634.14 3.27762 -1.13017 0
M  V30 27980 C 2633.2 3.60953 -2.32403 0
M  V30 27981 C 2632.44 4.89457 -2.12761 0
M  V30 27982 O 2632.66 5.59584 -1.10551 0
M  V30 27983 O 2631.59 5.21427 -3.00662 0
M  V30 27984 H 2635.42 1.98364 -2.29968 0
M  V30 27985 H 2633 0.925115 -1.17311 0
M  V30 27986 H 2634.89 4.08503 -1.03458 0
M  V30 27987 H 2633.56 3.23097 -0.197487 0
M  V30 27988 H 2632.47 2.80498 -2.47532 0
M  V30 27989 H 2633.8 3.70348 -3.24196 0
M  V30 27990 N 2635.45 1.21076 1.00888 0
M  V30 27991 C 2636.42 0.968165 2.07748 0
M  V30 27992 C 2637.42 -0.0593163 1.60691 0
M  V30 27993 O 2638.61 0.177555 1.73293 0
M  V30 27994 C 2635.74 0.459168 3.37794 0
M  V30 27995 H 2636.93 1.91614 2.30703 0
M  V30 27996 H 2634.48 1.02721 1.17805 0
M  V30 27997 H 2635.22 -0.493914 3.20517 0
M  V30 27998 H 2635 1.20025 3.73278 0
M  V30 27999 H 2636.49 0.309173 4.16454 0
M  V30 28000 N 2636.93 -1.2032 1.01789 0
M  V30 28001 C 2637.89 -2.21369 0.594011 0
M  V30 28002 C 2638.89 -1.57239 -0.336525 0
M  V30 28003 O 2640.08 -1.73751 -0.125038 0
M  V30 28004 C 2637.22 -3.40643 -0.132373 0
M  V30 28005 H 2638.41 -2.60384 1.48796 0
M  V30 28006 H 2635.96 -1.33805 0.807826 0
M  V30 28007 H 2636.7 -3.07132 -1.04117 0
M  V30 28008 H 2636.48 -3.88418 0.536119 0
M  V30 28009 H 2637.97 -4.1552 -0.416241 0
M  V30 28010 N 2638.41 -0.794293 -1.3612 0
M  V30 28011 C 2639.66 -0.368211 -1.98717 0
M  V30 28012 C 2639.98 1.06503 -1.63347 0
M  V30 28013 O 2639.25 1.73489 -0.909856 0
M  V30 28014 H 2637.83 -0.133159 -0.735036 0
M  V30 28015 H 2640.49 -1.01741 -1.66237 0
M  V30 28016 H 2639.59 -0.463977 -3.08632 0
M  V30 28017 N 2639.89 1.47813 -0.546727 0
M  V30 28018 C 2641.14 2.01693 -0.0166852 0
M  V30 28019 C 2641.45 1.42754 1.33718 0
M  V30 28020 O 2642.65 1.88233 1.95654 0
M  V30 28021 C 2641.11 3.59894 0.0206137 0
M  V30 28022 C 2640.72 4.27822 -1.32938 0
M  V30 28023 C 2642.46 4.21562 0.4986 0
M  V30 28024 C 2640.37 5.78001 -1.25175 0
M  V30 28025 H 2639.3 0.753996 -0.00246736 0
M  V30 28026 H 2641.95 1.6991 -0.693014 0
M  V30 28027 H 2640.33 3.88592 0.762372 0
M  V30 28028 H 2641.51 4.10778 -2.08802 0
M  V30 28029 H 2639.82 3.78098 -1.74445 0
M  V30 28030 H 2642.42 5.316 0.574906 0
M  V30 28031 H 2642.76 3.88018 1.50823 0
M  V30 28032 H 2643.29 3.97356 -0.187979 0
M  V30 28033 H 2640.03 6.16146 -2.23705 0
M  V30 28034 H 2639.55 5.97412 -0.534745 0
M  V30 28035 H 2641.23 6.39996 -0.949411 0
M  V30 28036 N 2641.36 0.28266 1.55044 0
M  V30 28037 C 2642.61 -0.331954 1.99761 0
M  V30 28038 C 2642.94 -1.55293 1.17108 0
M  V30 28039 O 2642.19 -1.94336 0.230633 0
M  V30 28040 C 2642.49 -0.750877 3.49423 0
M  V30 28041 C 2642.16 0.366307 4.4941 0
M  V30 28042 C 2640.82 0.673048 4.7647 0
M  V30 28043 C 2643.17 1.11873 5.09052 0
M  V30 28044 C 2640.5 1.73566 5.60439 0
M  V30 28045 C 2642.85 2.17112 5.94176 0
M  V30 28046 C 2641.52 2.48413 6.19554 0
M  V30 28047 H 2640.79 -0.121471 0.730976 0
M  V30 28048 H 2643.43 0.397943 1.8732 0
M  V30 28049 H 2641.74 -1.56057 3.59379 0
M  V30 28050 H 2643.44 -1.2373 3.81434 0
M  V30 28051 H 2640.03 0.117116 4.2844 0
M  V30 28052 H 2644.21 0.895011 4.88163 0
M  V30 28053 H 2639.47 1.9831 5.78345 0
M  V30 28054 H 2643.64 2.75884 6.39422 0
M  V30 28055 H 2641.27 3.30886 6.84411 0
M  V30 28056 N 2642.84 -1.57597 0.0100627 0
M  V30 28057 C 2643.78 -2.04518 -1.0123 0
M  V30 28058 C 2644.75 -0.937047 -1.32884 0
M  V30 28059 O 2645.94 -1.20594 -1.44877 0
M  V30 28060 C 2643.06 -2.45125 -2.33734 0
M  V30 28061 C 2642.11 -3.66771 -2.17673 0
M  V30 28062 S 2642.94 -5.14256 -1.49334 0
M  V30 28063 C 2644.1 -5.58142 -2.83247 0
M  V30 28064 H 2644.33 -2.90916 -0.612815 0
M  V30 28065 H 2641.87 -1.53085 -0.201097 0
M  V30 28066 H 2643.82 -2.69187 -3.09917 0
M  V30 28067 H 2642.48 -1.59108 -2.7082 0
M  V30 28068 H 2641.68 -3.92967 -3.15583 0
M  V30 28069 H 2641.28 -3.42762 -1.49634 0
M  V30 28070 H 2643.57 -5.61217 -3.79529 0
M  V30 28071 H 2644.51 -6.57951 -2.61738 0
M  V30 28072 H 2644.92 -4.85732 -2.87618 0
M  V30 28073 N 2644.32 0.262839 -1.55393 0
M  V30 28074 C 2645.55 1.01105 -1.80514 0
M  V30 28075 C 2645.96 1.79555 -0.583565 0
M  V30 28076 O 2645.32 1.76927 0.447554 0
M  V30 28077 C 2645.37 1.96159 -3.03651 0
M  V30 28078 O 2645.09 1.20886 -4.21092 0
M  V30 28079 C 2646.59 2.82709 -3.41453 0
M  V30 28080 H 2643.81 0.298225 -0.601085 0
M  V30 28081 H 2646.36 0.290546 -2.02425 0
M  V30 28082 H 2644.51 2.63658 -2.83837 0
M  V30 28083 H 2644.93 1.85042 -4.90775 0
M  V30 28084 H 2646.4 3.45184 -4.30757 0
M  V30 28085 H 2646.88 3.53004 -2.61314 0
M  V30 28086 H 2647.48 2.20686 -3.63562 0
M  V30 28087 N 2645.8 1.48499 0.527807 0
M  V30 28088 C 2646.76 1.62699 1.61436 0
M  V30 28089 C 2647.76 0.500163 1.52823 0
M  V30 28090 O 2648.95 0.766003 1.56455 0
M  V30 28091 C 2646.08 1.59923 3.01061 0
M  V30 28092 H 2647.28 2.59585 1.50185 0
M  V30 28093 H 2644.83 1.37128 0.750031 0
M  V30 28094 H 2645.56 0.645219 3.17817 0
M  V30 28095 H 2645.35 2.41731 3.08721 0
M  V30 28096 H 2646.84 1.73057 3.80054 0
M  V30 28097 N 2647.28 -0.776847 1.37123 0
M  V30 28098 C 2648.51 -1.56588 1.35233 0
M  V30 28099 C 2648.92 -1.88693 -0.0635186 0
M  V30 28100 O 2648.28 -1.51071 -1.02391 0
M  V30 28101 C 2648.33 -2.87926 2.18588 0
M  V30 28102 O 2648.05 -2.57199 3.54655 0
M  V30 28103 C 2649.55 -3.82179 2.24619 0
M  V30 28104 H 2646.77 -0.485277 0.463408 0
M  V30 28105 H 2649.31 -0.963235 1.80394 0
M  V30 28106 H 2647.47 -3.44627 1.76949 0
M  V30 28107 H 2647.88 -3.41268 3.98292 0
M  V30 28108 H 2649.36 -4.71356 2.87275 0
M  V30 28109 H 2649.83 -4.20942 1.25317 0
M  V30 28110 H 2650.44 -3.31409 2.66548 0
M  V30 28111 N 2648.76 -1.2161 -1.00244 0
M  V30 28112 C 2650.17 -1.03314 -1.55509 0
M  V30 28113 C 2650.52 0.406299 -1.91947 0
M  V30 28114 O 2649.64 1.28989 -1.73755 0
M  V30 28115 C 2650.24 -1.86918 -2.82573 0
M  V30 28116 C 2648.8 -1.72947 -3.34315 0
M  V30 28117 C 2647.94 -1.83972 -2.07484 0
M  V30 28118 H 2650.89 -1.35594 -0.824615 0
M  V30 28119 H 2650.92 -1.38094 -3.54557 0
M  V30 28120 H 2650.43 -2.91676 -2.56021 0
M  V30 28121 H 2648.53 -0.708834 -3.65795 0
M  V30 28122 H 2648.64 -2.55062 -4.05562 0
M  V30 28123 H 2647.01 -1.27308 -2.20601 0
M  V30 28124 H 2647.79 -2.90243 -1.83341 0
M  V30 28125 N 2650.23 1.19778 -1.02425 0
M  V30 28126 C 2651.64 1.71043 -0.748419 0
M  V30 28127 C 2652 1.82019 0.732366 0
M  V30 28128 O 2651.12 1.48809 1.57114 0
M  V30 28129 C 2651.72 3.10658 -1.35193 0
M  V30 28130 C 2650.27 3.59201 -1.12478 0
M  V30 28131 C 2649.42 2.36193 -1.45287 0
M  V30 28132 H 2652.37 1.04684 -1.19277 0
M  V30 28133 H 2652.39 3.73106 -0.746473 0
M  V30 28134 H 2651.91 3.02637 -2.42966 0
M  V30 28135 H 2650.01 3.72543 -0.0650637 0
M  V30 28136 H 2650.12 4.43585 -1.81023 0
M  V30 28137 H 2648.48 2.39305 -0.872076 0
M  V30 28138 H 2649.27 2.30806 -2.54133 0
M  V30 28139 N 2651.71 0.801501 1.35697 0
M  V30 28140 C 2652.96 0.378745 1.98519 0
M  V30 28141 C 2653.28 -1.05635 1.63909 0
M  V30 28142 O 2652.55 -1.73004 0.919043 0
M  V30 28143 H 2651.13 0.137055 0.734319 0
M  V30 28144 H 2653.79 1.02622 1.65695 0
M  V30 28145 H 2652.89 0.480338 3.08382 0
M  V30 28146 N 2653.19 -1.47521 0.554558 0
M  V30 28147 C 2654.41 -2.07375 0.0323025 0
M  V30 28148 C 2654.84 -1.4049 -1.25077 0
M  V30 28149 O 2654.2 -0.47899 -1.74858 0
M  V30 28150 C 2654.25 -3.60291 -0.149334 0
M  V30 28151 O 2653.35 -3.94172 -1.21252 0
M  V30 28152 H 2652.69 -0.662105 0.0501345 0
M  V30 28153 H 2655.22 -1.89579 0.769485 0
M  V30 28154 H 2655.23 -4.0637 -0.364365 0
M  V30 28155 H 2653.91 -4.0837 0.787815 0
M  V30 28156 H 2652.48 -3.59842 -0.978187 0
M  V30 28157 N 2654.67 -0.290879 -1.54892 0
M  V30 28158 C 2656.08 0.0628152 -1.59476 0
M  V30 28159 C 2656.28 1.53278 -1.30798 0
M  V30 28160 O 2655.34 2.28404 -1.07648 0
M  V30 28161 C 2656.65 -0.326014 -2.98927 0
M  V30 28162 C 2658.2 -0.273937 -3.11799 0
M  V30 28163 C 2658.68 -0.637438 -4.53542 0
M  V30 28164 N 2660.17 -0.589587 -4.59432 0
M  V30 28165 C 2660.9 -0.84345 -5.67163 0
M  V30 28166 N 2660.4 -1.16275 -6.82973 0
M  V30 28167 N 2662.19 -0.771189 -5.56785 0
M  V30 28168 H 2654.34 -1.24899 -1.71796 0
M  V30 28169 H 2656.6 -0.505677 -0.80187 0
M  V30 28170 H 2656.31 -1.34893 -3.24803 0
M  V30 28171 H 2656.18 0.325375 -3.75794 0
M  V30 28172 H 2658.57 0.739715 -2.85679 0
M  V30 28173 H 2658.65 -0.959808 -2.3711 0
M  V30 28174 H 2658.3 -1.64885 -4.80391 0
M  V30 28175 H 2658.23 0.070394 -5.26553 0
M  V30 28176 H 2660.72 -0.353318 -3.76245 0
M  V30 28177 H 2661.03 -1.34271 -7.61046 0
M  V30 28178 H 2659.38 -1.20069 -6.8455 0
M  V30 28179 H 2662.57 -0.521465 -4.65186 0
M  V30 28180 H 2662.74 -0.972408 -6.40662 0
M  V30 28181 N 2656.15 1.57589 -0.0184203 0
M  V30 28182 C 2657.42 1.82623 0.700589 0
M  V30 28183 C 2657.8 0.900084 1.90949 0
M  V30 28184 O 2657.15 -0.0468744 2.28452 0
M  V30 28185 C 2657.36 3.31577 1.08893 0
M  V30 28186 C 2658.71 3.97782 1.48507 0
M  V30 28187 O 2659.73 3.36009 1.18221 0
M  V30 28188 O 2658.59 5.06636 2.04894 0
M  V30 28189 H 2655.69 0.752639 0.34273 0
M  V30 28190 H 2658.23 1.6964 -0.0452846 0
M  V30 28191 H 2657 3.90635 0.228044 0
M  V30 28192 H 2656.63 3.49628 1.89331 0
M  V30 28193 N 2657.62 -0.254594 1.5553 0
M  V30 28194 C 2659.03 -0.824256 1.6752 0
M  V30 28195 C 2659.39 -1.8633 0.614462 0
M  V30 28196 O 2658.51 -2.15057 -0.240698 0
M  V30 28197 C 2659.11 -1.50184 3.03694 0
M  V30 28198 C 2657.66 -2.01929 3.1765 0
M  V30 28199 C 2656.81 -0.8677 2.63375 0
M  V30 28200 H 2659.76 -0.0305564 1.58671 0
M  V30 28201 H 2659.78 -2.36957 2.9771 0
M  V30 28202 H 2659.3 -0.745364 3.80875 0
M  V30 28203 H 2657.4 -2.80481 2.45278 0
M  V30 28204 H 2657.51 -2.22196 4.24459 0
M  V30 28205 H 2655.87 -1.26612 2.21001 0
M  V30 28206 H 2656.66 -0.124437 3.43074 0
M  V30 28207 N 2659.1 -1.48777 -0.519925 0
M  V30 28208 C 2660.35 -1.57306 -1.27519 0
M  V30 28209 C 2660.68 -0.251362 -1.92869 0
M  V30 28210 O 2659.93 0.759212 -1.80373 0
M  V30 28211 C 2660.23 -2.66754 -2.37859 0
M  V30 28212 C 2659.9 -4.0887 -1.90095 0
M  V30 28213 C 2658.56 -4.47549 -1.76787 0
M  V30 28214 C 2660.91 -4.97891 -1.54124 0
M  V30 28215 C 2658.24 -5.73042 -1.25858 0
M  V30 28216 C 2660.59 -6.23883 -1.04654 0
M  V30 28217 C 2659.25 -6.61409 -0.899707 0
M  V30 28218 H 2658.52 -0.575622 -0.466626 0
M  V30 28219 H 2661.17 -1.82535 -0.579077 0
M  V30 28220 H 2659.48 -2.35423 -3.13182 0
M  V30 28221 H 2661.17 -2.70566 -2.95964 0
M  V30 28222 H 2657.76 -3.78329 -2.01407 0
M  V30 28223 H 2661.95 -4.68678 -1.63261 0
M  V30 28224 H 2657.2 -6.00832 -1.13185 0
M  V30 28225 H 2661.38 -6.92252 -0.758952 0
M  V30 28226 H 2659 -7.58535 -0.502878 0
M  V30 28227 N 2660.58 0.769564 -1.37534 0
M  V30 28228 C 2661.99 1.34598 -1.29385 0
M  V30 28229 C 2662.34 1.96116 0.0575694 0
M  V30 28230 O 2661.47 1.93969 0.959436 0
M  V30 28231 C 2662.06 2.4472 -2.34302 0
M  V30 28232 C 2660.62 2.98124 -2.29781 0
M  V30 28233 C 2659.77 1.7136 -2.18016 0
M  V30 28234 H 2662.72 0.569654 -1.48124 0
M  V30 28235 H 2662.74 3.24256 -1.99094 0
M  V30 28236 H 2662.25 1.99916 -3.32649 0
M  V30 28237 H 2660.35 3.47297 -1.34965 0
M  V30 28238 H 2660.47 3.53589 -3.23283 0
M  V30 28239 H 2658.83 1.94369 -1.64599 0
M  V30 28240 H 2659.61 1.28657 -3.1828 0
M  V30 28241 N 2662.06 1.22139 0.995977 0
M  V30 28242 C 2662.99 0.946521 2.08743 0
M  V30 28243 C 2664 -0.0737071 1.62633 0
M  V30 28244 O 2665.19 0.159918 1.77782 0
M  V30 28245 C 2662.29 0.401364 3.36515 0
M  V30 28246 C 2661.47 1.47808 4.11669 0
M  V30 28247 C 2660.52 0.940552 5.17726 0
M  V30 28248 O 2659.55 1.62606 5.4548 0
M  V30 28249 N 2660.75 -0.239621 5.80005 0
M  V30 28250 H 2663.52 1.88615 2.32905 0
M  V30 28251 H 2661.08 1.12787 1.1615 0
M  V30 28252 H 2663.07 0.0271548 4.04691 0
M  V30 28253 H 2661.64 -0.443299 3.09441 0
M  V30 28254 H 2660.86 2.02574 3.38168 0
M  V30 28255 H 2662.15 2.20261 4.58653 0
M  V30 28256 H 2661.55 -0.81342 5.59821 0
M  V30 28257 H 2660.1 -0.555247 6.49431 0
M  V30 28258 N 2663.54 -1.19233 1.03059 0
M  V30 28259 C 2664.76 -1.93457 0.747604 0
M  V30 28260 C 2665.19 -1.75081 -0.687617 0
M  V30 28261 O 2664.54 -1.05425 -1.47497 0
M  V30 28262 C 2664.59 -3.43217 1.10611 0
M  V30 28263 O 2663.7 -4.11782 0.225743 0
M  V30 28264 H 2663.04 -0.603894 0.276057 0
M  V30 28265 H 2665.57 -1.51261 1.37773 0
M  V30 28266 H 2665.58 -3.93889 1.06373 0
M  V30 28267 H 2664.25 -3.55913 2.15171 0
M  V30 28268 H 2662.83 -3.71465 0.32686 0
M  V30 28269 N 2665.01 -0.808686 -1.3527 0
M  V30 28270 C 2665.96 -0.208646 -2.31662 0
M  V30 28271 C 2666.96 0.64275 -1.56733 0
M  V30 28272 O 2668.16 0.535679 -1.71844 0
M  V30 28273 H 2664.54 -0.0487124 -0.750421 0
M  V30 28274 H 2666.51 -1.03671 -2.79812 0
M  V30 28275 C 2665.26 0.626513 -3.42009 0
M  V30 28276 H 2664.58 -0.0192806 -3.99795 0
M  V30 28277 H 2666.02 1.01271 -4.11728 0
M  V30 28278 C 2664.48 1.79293 -2.85229 0
M  V30 28279 O 2665.01 2.8905 -2.7895 0
M  V30 28280 N 2663.22 1.60512 -2.42248 0
M  V30 28281 H 2662.76 0.712331 -2.47555 0
M  V30 28282 H 2662.72 2.38712 -2.04607 0
M  V30 28283 N 2666.49 1.47225 -0.562374 0
M  V30 28284 C 2667.46 2.28554 0.172016 0
M  V30 28285 C 2668.46 1.37244 0.837904 0
M  V30 28286 O 2669.65 1.59823 0.692973 0
M  V30 28287 C 2666.78 3.1707 1.25218 0
M  V30 28288 H 2667.97 2.94953 -0.542453 0
M  V30 28289 H 2665.52 1.52999 -0.31952 0
M  V30 28290 H 2666.26 2.55373 1.99888 0
M  V30 28291 H 2666.04 3.84275 0.779448 0
M  V30 28292 H 2667.53 3.78335 1.76784 0
M  V30 28293 N 2667.97 0.299089 1.54736 0
M  V30 28294 C 2669.38 -0.193938 1.8569 0
M  V30 28295 C 2669.73 -1.53575 1.22104 0
M  V30 28296 O 2668.86 -2.10108 0.518027 0
M  V30 28297 C 2669.45 -0.358674 3.36896 0
M  V30 28298 C 2668.01 -0.795922 3.67889 0
M  V30 28299 C 2667.16 0.0968557 2.77131 0
M  V30 28300 H 2670.11 0.520161 1.49933 0
M  V30 28301 H 2670.13 -1.19355 3.61296 0
M  V30 28302 H 2669.64 0.618066 3.83147 0
M  V30 28303 H 2667.74 -1.78328 3.27154 0
M  V30 28304 H 2667.86 -0.616634 4.75115 0
M  V30 28305 H 2666.22 -0.423537 2.51154 0
M  V30 28306 H 2667 1.06991 3.26202 0
M  V30 28307 N 2669.45 -1.57577 0.0267774 0
M  V30 28308 C 2670.7 -1.90881 -0.651702 0
M  V30 28309 C 2671.01 -0.904607 -1.73425 0
M  V30 28310 O 2672.22 -1.12881 -2.46921 0
M  V30 28311 C 2670.67 -3.38935 -1.21042 0
M  V30 28312 C 2670.28 -4.4771 -0.161283 0
M  V30 28313 C 2672.02 -3.8131 -1.86555 0
M  V30 28314 C 2669.93 -5.86859 -0.731508 0
M  V30 28315 H 2668.86 -0.712331 -0.247186 0
M  V30 28316 H 2671.51 -1.83271 0.0916963 0
M  V30 28317 H 2669.89 -3.4147 -2.00536 0
M  V30 28318 H 2671.07 -4.56731 0.61102 0
M  V30 28319 H 2669.38 -4.14523 0.39495 0
M  V30 28320 H 2671.98 -4.82624 -2.3017 0
M  V30 28321 H 2672.32 -3.16246 -2.70729 0
M  V30 28322 H 2672.86 -3.81188 -1.13755 0
M  V30 28323 H 2669.6 -6.5546 0.0720482 0
M  V30 28324 H 2669.12 -5.81448 -1.47235 0
M  V30 28325 H 2670.79 -6.35356 -1.22197 0
M  V30 28326 N 2670.93 0.246342 -1.55663 0
M  V30 28327 C 2671.86 1.3314 -1.85335 0
M  V30 28328 C 2672.84 1.46353 -0.70849 0
M  V30 28329 O 2674.02 1.62559 -0.954303 0
M  V30 28330 C 2671.15 2.70483 -2.03854 0
M  V30 28331 C 2670.19 2.74417 -3.26493 0
M  V30 28332 S 2671.03 2.3097 -4.83128 0
M  V30 28333 C 2672.18 3.70237 -5.04654 0
M  V30 28334 H 2672.42 1.07772 -2.77078 0
M  V30 28335 H 2669.95 0.447354 -1.47777 0
M  V30 28336 H 2671.91 3.49565 -2.15208 0
M  V30 28337 H 2670.57 2.93088 -1.12952 0
M  V30 28338 H 2669.76 3.75284 -3.36419 0
M  V30 28339 H 2669.36 2.03379 -3.13868 0
M  V30 28340 H 2671.66 4.65738 -4.92031 0
M  V30 28341 H 2672.6 3.65245 -6.06632 0
M  V30 28342 H 2673.01 3.62776 -4.32497 0
M  V30 28343 N 2672.4 1.4905 0.512027 0
M  V30 28344 C 2673.68 1.48476 1.27335 0
M  V30 28345 C 2674.06 0.206338 2.10089 0
M  V30 28346 O 2673.41 -0.811571 2.13602 0
M  V30 28347 C 2673.62 2.7573 2.13949 0
M  V30 28348 C 2674.97 3.2478 2.73501 0
M  V30 28349 O 2675.99 2.76771 2.24224 0
M  V30 28350 O 2674.85 4.08367 3.63178 0
M  V30 28351 H 2671.94 0.593772 0.575642 0
M  V30 28352 H 2674.49 1.61303 0.527204 0
M  V30 28353 H 2673.26 3.60275 1.52702 0
M  V30 28354 H 2672.89 2.6571 2.95777 0
M  V30 28355 N 2673.88 -0.762259 1.3794 0
M  V30 28356 C 2674.79 -1.90669 1.36684 0
M  V30 28357 C 2675.81 -1.71969 0.265108 0
M  V30 28358 O 2676.98 -1.95041 0.502089 0
M  V30 28359 C 2674.05 -3.25923 1.18217 0
M  V30 28360 C 2673.11 -3.5721 2.38116 0
M  V30 28361 C 2672.34 -4.86011 2.20521 0
M  V30 28362 O 2672.57 -5.57755 1.19439 0
M  V30 28363 O 2671.5 -5.16577 3.0892 0
M  V30 28364 H 2675.33 -1.94681 2.33095 0
M  V30 28365 H 2672.91 -0.906335 1.18768 0
M  V30 28366 H 2674.79 -4.06805 1.09944 0
M  V30 28367 H 2673.47 -3.22742 0.248864 0
M  V30 28368 H 2672.38 -2.76524 2.51963 0
M  V30 28369 H 2673.71 -3.65143 3.30047 0
M  V30 28370 N 2675.36 -1.22666 -0.989486 0
M  V30 28371 C 2676.27 -1.01623 -2.11447 0
M  V30 28372 C 2677.29 0.0365144 -1.73962 0
M  V30 28373 O 2678.46 -0.156959 -2.00787 0
M  V30 28374 C 2675.53 -0.600264 -3.41464 0
M  V30 28375 C 2674.59 -1.72702 -3.9303 0
M  V30 28376 C 2673.82 -1.3308 -5.16842 0
M  V30 28377 O 2674.04 -0.211075 -5.70009 0
M  V30 28378 O 2672.98 -2.14855 -5.62246 0
M  V30 28379 H 2676.8 -1.95884 -2.32084 0
M  V30 28380 H 2674.39 -1.0129 -1.09821 0
M  V30 28381 H 2676.27 -0.378804 -4.19694 0
M  V30 28382 H 2674.95 0.313454 -3.22179 0
M  V30 28383 H 2673.85 -2.00303 -3.15958 0
M  V30 28384 H 2675.19 -2.61872 -4.16754 0
M  V30 28385 N 2676.84 1.18685 -1.0369 0
M  V30 28386 C 2678.26 1.40589 -0.755438 0
M  V30 28387 C 2678.46 1.90501 0.656626 0
M  V30 28388 O 2677.51 2.08692 1.42141 0
M  V30 28389 C 2678.82 2.40998 -1.79835 0
M  V30 28390 C 2680.37 2.54731 -1.81882 0
M  V30 28391 C 2680.85 3.58401 -2.85154 0
M  V30 28392 N 2682.34 3.65905 -2.84021 0
M  V30 28393 C 2683.07 4.45835 -3.60581 0
M  V30 28394 N 2682.57 5.29405 -4.4688 0
M  V30 28395 N 2684.36 4.40562 -3.49087 0
M  V30 28396 H 2676.51 0.846114 -1.9482 0
M  V30 28397 H 2678.78 0.434169 -0.842734 0
M  V30 28398 H 2678.48 2.11365 -2.81101 0
M  V30 28399 H 2678.36 3.40291 -1.62733 0
M  V30 28400 H 2680.74 2.83683 -0.812886 0
M  V30 28401 H 2680.82 1.55565 -2.0306 0
M  V30 28402 H 2680.47 3.3019 -3.85924 0
M  V30 28403 H 2680.4 4.57237 -2.61232 0
M  V30 28404 H 2682.89 3.06226 -2.21436 0
M  V30 28405 H 2683.2 5.87536 -5.02018 0
M  V30 28406 H 2681.55 5.28838 -4.50949 0
M  V30 28407 H 2684.74 3.7432 -2.81073 0
M  V30 28408 H 2684.91 5.02614 -4.09003 0
M  V30 28409 N 2678.32 0.815849 1.34839 0
M  V30 28410 C 2679.23 0.234503 2.33425 0
M  V30 28411 C 2680.24 -0.627384 1.62296 0
M  V30 28412 O 2681.42 -0.536953 1.9411 0
M  V30 28413 C 2678.48 -0.599789 3.41472 0
M  V30 28414 C 2677.55 0.283671 4.28362 0
M  V30 28415 C 2676.78 -0.510897 5.31249 0
M  V30 28416 O 2677 -1.7448 5.43059 0
M  V30 28417 O 2675.94 0.103075 6.01812 0
M  V30 28418 H 2679.76 1.05029 2.84961 0
M  V30 28419 H 2677.35 0.577834 1.37773 0
M  V30 28420 H 2679.23 -1.07468 4.07466 0
M  V30 28421 H 2677.9 -1.39302 2.92193 0
M  V30 28422 H 2676.81 0.805901 3.65316 0
M  V30 28423 H 2678.14 1.04108 4.81064 0
M  V30 28424 N 2679.8 -1.46924 0.570174 0
M  V30 28425 C 2681.04 -2.01641 0.0487707 0
M  V30 28426 C 2681.36 -1.44863 -1.3143 0
M  V30 28427 O 2682.56 -1.91322 -1.92635 0
M  V30 28428 C 2681.02 -3.59881 0.036645 0
M  V30 28429 C 2680.63 -4.25653 1.39727 0
M  V30 28430 C 2682.37 -4.22302 -0.43147 0
M  V30 28431 C 2680.28 -5.75936 1.34355 0
M  V30 28432 H 2679.21 -0.753861 0.0144625 0
M  V30 28433 H 2681.86 -1.68786 0.719957 0
M  V30 28434 H 2680.24 -3.89756 -0.700454 0
M  V30 28435 H 2681.42 -4.07404 2.15311 0
M  V30 28436 H 2679.73 -3.75275 1.80438 0
M  V30 28437 H 2682.33 -5.32448 -0.49026 0
M  V30 28438 H 2682.67 -3.90369 -1.44631 0
M  V30 28439 H 2683.2 -3.97006 0.251171 0
M  V30 28440 H 2679.94 -6.12509 2.33479 0
M  V30 28441 H 2679.46 -5.96485 0.62972 0
M  V30 28442 H 2681.14 -6.38405 1.05111 0
M  V30 28443 N 2681.27 -0.307291 -1.54575 0
M  V30 28444 C 2682.68 0.184088 -1.8579 0
M  V30 28445 C 2683.04 1.52925 -1.22916 0
M  V30 28446 O 2682.16 2.0983 -0.529163 0
M  V30 28447 C 2682.76 0.340803 -3.37082 0
M  V30 28448 C 2681.31 0.776401 -3.68306 0
M  V30 28449 C 2680.46 -0.111551 -2.77076 0
M  V30 28450 H 2683.41 -0.528105 -1.49655 0
M  V30 28451 H 2683.43 1.17437 -3.61924 0
M  V30 28452 H 2682.95 -0.638376 -3.82814 0
M  V30 28453 H 2681.05 1.76591 -3.28095 0
M  V30 28454 H 2681.16 0.591429 -4.75436 0
M  V30 28455 H 2679.52 0.410212 -2.51375 0
M  V30 28456 H 2680.31 -1.0872 -3.2563 0
M  V30 28457 N 2682.75 1.57561 -0.0351337 0
M  V30 28458 C 2683.66 2.14047 0.960257 0
M  V30 28459 C 2684.68 1.09422 1.35288 0
M  V30 28460 O 2685.85 1.4151 1.43307 0
M  V30 28461 C 2682.92 2.66128 2.22209 0
M  V30 28462 C 2681.98 3.8549 1.88933 0
M  V30 28463 C 2681.21 4.35077 3.09101 0
M  V30 28464 O 2681.44 3.83809 4.21956 0
M  V30 28465 O 2680.37 5.26853 2.91048 0
M  V30 28466 H 2684.2 2.99388 0.509931 0
M  V30 28467 H 2681.78 1.4824 0.185827 0
M  V30 28468 H 2683.66 2.99666 2.96274 0
M  V30 28469 H 2682.34 1.83866 2.66411 0
M  V30 28470 H 2681.24 3.56867 1.12234 0
M  V30 28471 H 2682.58 4.68933 1.49543 0
M  V30 28472 N 2684.23 -0.238084 1.55791 0
M  V30 28473 C 2685.65 -0.587019 1.48412 0
M  V30 28474 C 2685.85 -1.87926 0.727053 0
M  V30 28475 O 2684.9 -2.51158 0.259986 0
M  V30 28476 C 2686.21 -0.681572 2.92874 0
M  V30 28477 C 2687.76 -0.773309 3.03297 0
M  V30 28478 C 2688.24 -0.899349 4.49083 0
M  V30 28479 N 2689.73 -0.963995 4.53058 0
M  V30 28480 C 2690.46 -1.08094 5.63119 0
M  V30 28481 N 2689.96 -1.16287 6.82971 0
M  V30 28482 N 2691.75 -1.11479 5.50935 0
M  V30 28483 H 2683.9 0.610112 2.03449 0
M  V30 28484 H 2686.17 0.211829 0.92403 0
M  V30 28485 H 2685.87 0.198082 3.51142 0
M  V30 28486 H 2685.75 -1.55063 3.43854 0
M  V30 28487 H 2688.13 -1.64341 2.45104 0
M  V30 28488 H 2688.21 0.121079 2.55513 0
M  V30 28489 H 2687.86 -0.0337693 5.07889 0
M  V30 28490 H 2687.79 -1.80891 4.94556 0
M  V30 28491 H 2690.28 -0.911666 3.66738 0
M  V30 28492 H 2690.59 -1.25142 7.626 0
M  V30 28493 H 2688.94 -1.13229 6.85714 0
M  V30 28494 H 2692.13 -1.04732 4.56233 0
M  V30 28495 H 2692.3 -1.20247 6.36745 0
M  V30 28496 N 2685.71 -1.4932 -0.504115 0
M  V30 28497 C 2686.93 -1.62617 -1.28726 0
M  V30 28498 C 2687.36 -0.296342 -1.85751 0
M  V30 28499 O 2686.72 0.73562 -1.65706 0
M  V30 28500 C 2686.76 -2.69528 -2.39556 0
M  V30 28501 O 2685.87 -2.28484 -3.4332 0
M  V30 28502 H 2685.21 -0.544401 -0.380162 0
M  V30 28503 H 2687.74 -1.95486 -0.603838 0
M  V30 28504 H 2687.75 -2.916 -2.85365 0
M  V30 28505 H 2686.42 -3.66059 -1.97417 0
M  V30 28506 H 2685 -2.1673 -3.03451 0
M  V30 28507 N 2687.19 0.754933 -1.38342 0
M  V30 28508 C 2688.43 1.51533 -1.35681 0
M  V30 28509 C 2688.79 1.92326 0.0533647 0
M  V30 28510 O 2688.08 1.62462 1.01571 0
M  V30 28511 C 2688.27 2.78071 -2.24525 0
M  V30 28512 C 2688.1 2.49648 -3.7404 0
M  V30 28513 C 2686.87 2.42935 -4.4307 0
M  V30 28514 C 2689.07 2.16515 -4.66504 0
M  V30 28515 N 2687.05 2.06773 -5.7803 0
M  V30 28516 C 2688.42 1.90633 -5.89965 0
M  V30 28517 C 2690.48 2.02813 -4.54721 0
M  V30 28518 C 2689.18 1.52432 -7.02963 0
M  V30 28519 C 2691.21 1.66013 -5.67621 0
M  V30 28520 C 2690.57 1.41003 -6.90143 0
M  V30 28521 H 2686.67 0.554138 -0.551774 0
M  V30 28522 H 2689.25 0.879228 -1.73717 0
M  V30 28523 H 2687.42 3.39492 -1.88679 0
M  V30 28524 H 2689.16 3.44112 -2.12999 0
M  V30 28525 H 2685.91 2.5936 -3.96269 0
M  V30 28526 H 2686.33 1.91341 -6.49398 0
M  V30 28527 H 2690.98 2.20825 -3.6055 0
M  V30 28528 H 2688.69 1.3316 -7.97053 0
M  V30 28529 H 2692.28 1.56046 -5.60483 0
M  V30 28530 H 2691.16 1.12951 -7.76023 0
M  V30 28531 N 2688.66 1.23189 0.982967 0
M  V30 28532 C 2689.61 1.0082 2.09614 0
M  V30 28533 C 2690.61 -0.0519698 1.6932 0
M  V30 28534 O 2691.81 0.101316 1.79715 0
M  V30 28535 H 2688.19 0.308911 0.685622 0
M  V30 28536 H 2690.16 1.95257 2.25649 0
M  V30 28537 C 2688.91 0.613304 3.42248 0
M  V30 28538 H 2688.23 1.42079 3.73702 0
M  V30 28539 H 2689.67 0.496282 4.21086 0
M  V30 28540 C 2688.13 -0.678175 3.30004 0
M  V30 28541 O 2688.66 -1.728 3.62633 0
M  V30 28542 N 2686.86 -0.653115 2.83166 0
M  V30 28543 H 2686.41 0.201537 2.5681 0
M  V30 28544 H 2686.37 -1.51747 2.75355 0
M  V30 28545 N 2690.14 -1.18133 1.04318 0
M  V30 28546 C 2691.37 -1.92653 0.768081 0
M  V30 28547 C 2691.79 -1.75801 -0.669009 0
M  V30 28548 O 2691.15 -1.06983 -1.4637 0
M  V30 28549 C 2691.2 -3.42024 1.14245 0
M  V30 28550 O 2690.3 -4.11519 0.269405 0
M  V30 28551 H 2689.64 -0.600932 0.282447 0
M  V30 28552 H 2692.17 -1.49791 1.39369 0
M  V30 28553 H 2692.18 -3.92739 1.10545 0
M  V30 28554 H 2690.86 -3.53611 2.18934 0
M  V30 28555 H 2689.43 -3.71097 0.366241 0
M  V30 28556 N 2691.62 -0.822988 -1.34405 0
M  V30 28557 C 2692.87 -0.41028 -1.97892 0
M  V30 28558 C 2693.19 1.03014 -1.65569 0
M  V30 28559 O 2692.46 1.7152 -0.946451 0
M  V30 28560 H 2691.04 -0.14872 -0.732046 0
M  V30 28561 H 2693.7 -1.05245 -1.64041 0
M  V30 28562 H 2692.8 -0.529338 -3.07578 0
M  V30 28563 N 2693.1 1.4662 -0.577957 0
M  V30 28564 C 2694.05 2.27298 0.178829 0
M  V30 28565 C 2695.03 1.35591 0.866255 0
M  V30 28566 O 2696.22 1.59799 0.761135 0
M  V30 28567 C 2693.35 3.21833 1.19493 0
M  V30 28568 C 2692.44 4.21024 0.509866 0
M  V30 28569 N 2692.83 5.03953 -0.431859 0
M  V30 28570 C 2691.13 4.39456 0.76121 0
M  V30 28571 C 2691.83 5.75722 -0.831794 0
M  V30 28572 N 2690.81 5.43295 -0.181993 0
M  V30 28573 H 2694.61 2.88804 -0.544909 0
M  V30 28574 H 2692.12 1.57412 -0.3994 0
M  V30 28575 H 2694.12 3.78335 1.75124 0
M  V30 28576 H 2692.78 2.61885 1.91954 0
M  V30 28577 H 2693.79 5.11572 -0.807134 0
M  V30 28578 H 2690.47 3.90661 1.47276 0
M  V30 28579 H 2691.86 6.52404 -1.60682 0
M  V30 28580 N 2694.58 0.315484 1.5441 0
M  V30 28581 C 2695.49 -0.56325 2.27738 0
M  V30 28582 C 2696.5 -1.13611 1.31789 0
M  V30 28583 O 2697.68 -1.15781 1.64793 0
M  V30 28584 C 2694.74 -1.71202 3.01481 0
M  V30 28585 C 2693.8 -1.17177 4.12999 0
M  V30 28586 C 2693.04 -2.26579 4.83216 0
M  V30 28587 O 2693.26 -3.46767 4.5289 0
M  V30 28588 O 2692.19 -1.92453 5.70303 0
M  V30 28589 H 2696.02 0.0320147 3.03683 0
M  V30 28590 H 2693.61 0.081445 1.49178 0
M  V30 28591 H 2695.49 -2.381 3.47687 0
M  V30 28592 H 2694.16 -2.29362 2.28418 0
M  V30 28593 H 2693.07 -0.468109 3.7116 0
M  V30 28594 H 2694.4 -0.635415 4.88081 0
M  V30 28595 N 2696.05 -1.5754 0.0434891 0
M  V30 28596 C 2697.3 -1.93492 -0.627075 0
M  V30 28597 C 2697.66 -0.921392 -1.68903 0
M  V30 28598 O 2696.95 0.0605462 -1.91504 0
M  V30 28599 C 2697.14 -3.33932 -1.27374 0
M  V30 28600 C 2696.97 -4.48853 -0.275951 0
M  V30 28601 C 2695.74 -5.05134 0.129333 0
M  V30 28602 C 2697.94 -5.12097 0.475552 0
M  V30 28603 N 2695.92 -6.03582 1.12079 0
M  V30 28604 C 2697.29 -6.05778 1.32032 0
M  V30 28605 C 2699.35 -4.95021 0.534698 0
M  V30 28606 C 2698.05 -6.8422 2.21892 0
M  V30 28607 C 2700.08 -5.74082 1.42069 0
M  V30 28608 C 2699.44 -6.67391 2.2532 0
M  V30 28609 H 2695.54 -0.755636 -0.201341 0
M  V30 28610 H 2698.12 -1.94366 0.114025 0
M  V30 28611 H 2696.29 -3.3385 -1.9849 0
M  V30 28612 H 2698.02 -3.57194 -1.90249 0
M  V30 28613 H 2694.78 -4.7295 -0.248062 0
M  V30 28614 H 2695.2 -6.57499 1.61318 0
M  V30 28615 H 2699.85 -4.22694 -0.0947074 0
M  V30 28616 H 2697.56 -7.55842 2.85881 0
M  V30 28617 H 2701.15 -5.62899 1.47093 0
M  V30 28618 H 2700.03 -7.27501 2.92767 0
M  V30 28619 N 2697.53 0.229818 -1.55915 0
M  V30 28620 C 2698.78 0.956836 -1.78809 0
M  V30 28621 C 2699.11 1.84314 -0.611719 0
M  V30 28622 O 2698.39 1.90563 0.389365 0
M  V30 28623 C 2698.67 1.80283 -3.11721 0
M  V30 28624 C 2698.52 0.943571 -4.39792 0
M  V30 28625 C 2699.84 2.78216 -3.41004 0
M  V30 28626 H 2696.96 0.346426 -0.650506 0
M  V30 28627 H 2699.6 0.226219 -1.88648 0
M  V30 28628 H 2697.75 2.42574 -3.03463 0
M  V30 28629 H 2699.42 0.33804 -4.6006 0
M  V30 28630 H 2697.67 0.248629 -4.33087 0
M  V30 28631 H 2698.34 1.5697 -5.29211 0
M  V30 28632 H 2700.81 2.26061 -3.49336 0
M  V30 28633 H 2699.69 3.34518 -4.35188 0
M  V30 28634 H 2699.95 3.55541 -2.6276 0
M  V30 28635 N 2699.01 1.49585 0.49619 0
M  V30 28636 C 2700.24 1.63031 1.27391 0
M  V30 28637 C 2700.65 0.303601 1.86343 0
M  V30 28638 O 2700.01 -0.711517 1.68059 0
M  V30 28639 C 2700.06 2.70273 2.40072 0
M  V30 28640 O 2699.78 3.97799 1.83542 0
M  V30 28641 C 2701.28 2.94468 3.31366 0
M  V30 28642 H 2698.5 0.548716 0.386201 0
M  V30 28643 H 2701.05 1.95649 0.595129 0
M  V30 28644 H 2699.2 2.4042 3.03771 0
M  V30 28645 H 2699.62 4.5691 2.57553 0
M  V30 28646 H 2701.09 3.73228 4.067 0
M  V30 28647 H 2701.57 2.04567 3.8865 0
M  V30 28648 H 2702.17 3.25756 2.73429 0
M  V30 28649 N 2700.49 -0.747586 1.3874 0
M  V30 28650 C 2701.77 -1.49784 1.25794 0
M  V30 28651 C 2702.15 -2.10648 -0.138038 0
M  V30 28652 O 2701.49 -1.97562 -1.14811 0
M  V30 28653 C 2701.7 -2.55938 2.37269 0
M  V30 28654 C 2703.05 -3.22674 2.75983 0
M  V30 28655 O 2704.08 -2.66246 2.36625 0
M  V30 28656 O 2702.93 -4.2475 3.43875 0
M  V30 28657 H 2700.03 -0.664535 0.492263 0
M  V30 28658 H 2702.57 -0.782484 1.50583 0
M  V30 28659 H 2701.35 -2.09255 3.30648 0
M  V30 28660 H 2700.97 -3.35048 2.14077 0
M  V30 28661 N 2701.97 -1.23709 -0.97642 0
M  V30 28662 C 2703.21 -1.07157 -1.71825 0
M  V30 28663 C 2703.54 0.390948 -1.9053 0
M  V30 28664 O 2702.8 1.30562 -1.45781 0
M  V30 28665 C 2703.1 -1.74668 -3.11811 0
M  V30 28666 C 2702.76 -3.24591 -3.12972 0
M  V30 28667 C 2701.42 -3.65495 -3.12996 0
M  V30 28668 C 2703.78 -4.20475 -3.07978 0
M  V30 28669 C 2701.1 -5.00734 -3.05748 0
M  V30 28670 C 2703.46 -5.55711 -3.02272 0
M  V30 28671 C 2702.12 -5.95973 -3.0062 0
M  V30 28672 H 2701.39 -0.392113 -0.628751 0
M  V30 28673 H 2704.04 -1.53695 -1.14236 0
M  V30 28674 H 2702.34 -1.20499 -3.7281 0
M  V30 28675 H 2704.04 -1.59335 -3.67986 0
M  V30 28676 H 2700.63 -2.92031 -3.13713 0
M  V30 28677 H 2704.81 -3.89879 -3.07096 0
M  V30 28678 H 2700.07 -5.31138 -3.02825 0
M  V30 28679 H 2704.24 -6.2972 -2.97365 0
M  V30 28680 H 2701.87 -7.00729 -2.94759 0
M  V30 28681 N 2703.44 1.17579 -1.04943 0
M  V30 28682 C 2704.39 2.21511 -0.648194 0
M  V30 28683 C 2705.36 1.62405 0.348402 0
M  V30 28684 O 2706.55 1.8928 0.240386 0
M  V30 28685 C 2703.69 3.4509 -0.0264898 0
M  V30 28686 C 2702.8 4.18498 -1.07161 0
M  V30 28687 C 2701.93 5.29557 -0.417496 0
M  V30 28688 C 2700.97 5.94748 -1.4471 0
M  V30 28689 N 2700.11 6.97326 -0.817325 0
M  V30 28690 H 2704.95 2.55186 -1.53896 0
M  V30 28691 H 2702.49 1.25354 -0.769721 0
M  V30 28692 H 2704.45 4.15718 0.351383 0
M  V30 28693 H 2703.08 3.12007 0.827747 0
M  V30 28694 H 2702.13 3.4661 -1.56735 0
M  V30 28695 H 2703.44 4.63093 -1.85328 0
M  V30 28696 H 2702.59 6.06698 0.0140994 0
M  V30 28697 H 2701.33 4.86088 0.39618 0
M  V30 28698 H 2700.34 5.1634 -1.88874 0
M  V30 28699 H 2701.56 6.40298 -2.26264 0
M  V30 28700 H 2699.51 6.55996 -0.0241148 0
M  V30 28701 H 2699.43 7.4022 -1.53657 0
M  V30 28702 H 2700.69 7.78419 -0.41042 0
M  V30 28703 N 2704.92 0.830104 1.33967 0
M  V30 28704 C 2706.17 0.420768 1.97671 0
M  V30 28705 C 2706.49 -1.02135 1.66113 0
M  V30 28706 O 2705.76 -1.71016 0.955533 0
M  V30 28707 H 2704.34 0.1526 0.731247 0
M  V30 28708 H 2707 1.06113 1.63481 0
M  V30 28709 H 2706.1 0.545642 3.07293 0
M  V30 28710 N 2706.4 -1.46311 0.585725 0
M  V30 28711 C 2707.35 -2.30339 -0.145795 0
M  V30 28712 C 2708.32 -1.40799 -0.88119 0
M  V30 28713 O 2709.5 -1.69746 -0.871263 0
M  V30 28714 C 2706.64 -3.2532 -1.15155 0
M  V30 28715 C 2705.76 -4.2996 -0.419292 0
M  V30 28716 C 2704.89 -5.12067 -1.41284 0
M  V30 28717 C 2703.93 -6.08453 -0.667154 0
M  V30 28718 N 2703.07 -6.83417 -1.60891 0
M  V30 28719 H 2707.91 -2.92364 0.576807 0
M  V30 28720 H 2705.44 -1.44086 0.296262 0
M  V30 28721 H 2707.4 -3.78835 -1.74757 0
M  V30 28722 H 2706.03 -2.65097 -1.84183 0
M  V30 28723 H 2705.08 -3.79279 0.291817 0
M  V30 28724 H 2706.4 -4.98532 0.163521 0
M  V30 28725 H 2705.55 -5.69873 -2.08157 0
M  V30 28726 H 2704.29 -4.43463 -2.02958 0
M  V30 28727 H 2703.29 -5.49798 0.0153323 0
M  V30 28728 H 2704.52 -6.79077 -0.0557623 0
M  V30 28729 H 2702.47 -6.1752 -2.2137 0
M  V30 28730 H 2702.38 -7.48261 -1.07898 0
M  V30 28731 H 2703.65 -7.45779 -2.26789 0
M  V30 28732 N 2707.88 -0.323668 -1.54241 0
M  V30 28733 C 2709.11 0.280835 -2.04985 0
M  V30 28734 C 2709.52 1.45774 -1.1998 0
M  V30 28735 O 2708.88 1.81038 -0.230503 0
M  V30 28736 C 2708.93 0.715195 -3.54355 0
M  V30 28737 O 2708.65 -0.414893 -4.36131 0
M  V30 28738 C 2710.15 1.3825 -4.21191 0
M  V30 28739 H 2707.37 0.0577385 -0.668511 0
M  V30 28740 H 2709.92 -0.469887 -1.99028 0
M  V30 28741 H 2708.07 1.41589 -3.60598 0
M  V30 28742 H 2708.49 -0.0726148 -5.2445 0
M  V30 28743 H 2709.96 1.63736 -5.27157 0
M  V30 28744 H 2710.44 2.32982 -3.72311 0
M  V30 28745 H 2711.04 0.724373 -4.19086 0
M  V30 28746 N 2709.36 1.57515 -0.0518432 0
M  V30 28747 C 2710.6 1.93003 0.622711 0
M  V30 28748 C 2710.94 0.930529 1.70455 0
M  V30 28749 O 2710.21 -0.0433744 1.94452 0
M  V30 28750 C 2710.49 3.38869 1.21818 0
M  V30 28751 C 2710.35 4.49568 0.144355 0
M  V30 28752 C 2711.67 3.85143 2.12962 0
M  V30 28753 H 2708.79 0.701848 0.224897 0
M  V30 28754 H 2711.43 1.89659 -0.113745 0
M  V30 28755 H 2709.58 3.4185 1.84584 0
M  V30 28756 H 2711.25 4.58716 -0.48761 0
M  V30 28757 H 2709.49 4.30581 -0.527499 0
M  V30 28758 H 2710.16 5.48718 0.601031 0
M  V30 28759 H 2712.64 3.84043 1.60157 0
M  V30 28760 H 2711.52 4.87857 2.51569 0
M  V30 28761 H 2711.78 3.21939 3.02998 0
M  V30 28762 N 2710.84 -0.221546 1.56035 0
M  V30 28763 C 2712.08 -0.942942 1.80223 0
M  V30 28764 C 2712.44 -1.81971 0.624831 0
M  V30 28765 O 2711.73 -1.87771 -0.381112 0
M  V30 28766 C 2711.92 -1.81615 3.07816 0
M  V30 28767 C 2711.75 -1.0254 4.37853 0
M  V30 28768 C 2710.52 -0.720331 5.00139 0
M  V30 28769 C 2712.72 -0.390709 5.12814 0
M  V30 28770 N 2710.7 0.0918218 6.13831 0
M  V30 28771 C 2712.07 0.284837 6.19345 0
M  V30 28772 C 2714.13 -0.303741 4.96973 0
M  V30 28773 C 2712.83 1.03903 7.11756 0
M  V30 28774 C 2714.86 0.436987 5.89783 0
M  V30 28775 C 2714.22 1.10108 6.95741 0
M  V30 28776 H 2710.32 -0.325312 0.711123 0
M  V30 28777 H 2712.9 -0.21382 1.93522 0
M  V30 28778 H 2711.07 -2.51709 2.95799 0
M  V30 28779 H 2712.81 -2.47502 3.20195 0
M  V30 28780 H 2709.56 -1.03835 4.62077 0
M  V30 28781 H 2709.98 0.486733 6.75248 0
M  V30 28782 H 2714.63 -0.802823 4.15108 0
M  V30 28783 H 2712.34 1.54963 7.93103 0
M  V30 28784 H 2715.93 0.505282 5.79602 0
M  V30 28785 H 2714.81 1.66508 7.66319 0
M  V30 28786 N 2712.31 -1.49846 -0.48825 0
M  V30 28787 C 2713.56 -1.59975 -1.24154 0
M  V30 28788 C 2713.89 -0.292215 -1.92292 0
M  V30 28789 O 2713.14 0.720781 -1.81943 0
M  V30 28790 C 2713.44 -2.71739 -2.32147 0
M  V30 28791 C 2713.11 -4.1281 -1.8138 0
M  V30 28792 C 2711.77 -4.51198 -1.67254 0
M  V30 28793 C 2714.12 -5.01048 -1.43529 0
M  V30 28794 C 2711.45 -5.75582 -1.13675 0
M  V30 28795 C 2713.8 -6.25963 -0.913971 0
M  V30 28796 C 2712.47 -6.63168 -0.75921 0
M  V30 28797 H 2711.74 -0.585391 -0.454311 0
M  V30 28798 H 2714.38 -1.83722 -0.540228 0
M  V30 28799 H 2712.69 -2.42014 -3.08118 0
M  V30 28800 H 2714.39 -2.76783 -2.90159 0
M  V30 28801 H 2710.98 -3.82516 -1.93337 0
M  V30 28802 H 2715.16 -4.72036 -1.53283 0
M  V30 28803 H 2710.42 -6.03098 -1.00415 0
M  V30 28804 H 2714.59 -6.93706 -0.611944 0
M  V30 28805 H 2712.22 -7.59431 -0.341868 0
M  V30 28806 N 2713.79 0.740218 -1.39135 0
M  V30 28807 C 2715.04 1.50189 -1.36276 0
M  V30 28808 C 2715.37 1.94152 0.0429794 0
M  V30 28809 O 2714.65 1.6641 1.00688 0
M  V30 28810 C 2714.93 2.74521 -2.33046 0
M  V30 28811 C 2714.78 2.3661 -3.82539 0
M  V30 28812 C 2716.1 3.766 -2.27729 0
M  V30 28813 H 2713.22 0.544814 -0.496333 0
M  V30 28814 H 2715.86 0.846785 -1.70087 0
M  V30 28815 H 2714.01 3.30418 -2.04343 0
M  V30 28816 H 2715.68 1.86384 -4.2197 0
M  V30 28817 H 2713.93 1.68902 -3.99568 0
M  V30 28818 H 2714.6 3.25622 -4.45729 0
M  V30 28819 H 2717.07 3.30274 -2.53097 0
M  V30 28820 H 2715.95 4.61268 -2.97528 0
M  V30 28821 H 2716.21 4.23148 -1.28057 0
M  V30 28822 N 2715.27 1.24225 0.969846 0
M  V30 28823 C 2716.68 1.07401 1.52715 0
M  V30 28824 C 2717.03 -0.355265 1.92957 0
M  V30 28825 O 2716.16 -1.24337 1.77114 0
M  V30 28826 C 2716.75 1.94344 2.77517 0
M  V30 28827 C 2715.31 1.8175 3.29612 0
M  V30 28828 C 2714.46 1.89408 2.02533 0
M  V30 28829 H 2717.41 1.37733 0.788374 0
M  V30 28830 H 2717.43 1.47445 3.50771 0
M  V30 28831 H 2716.94 2.98361 2.48198 0
M  V30 28832 H 2715.04 0.805569 3.63787 0
M  V30 28833 H 2715.16 2.65725 3.98656 0
M  V30 28834 H 2713.52 1.33112 2.17148 0
M  V30 28835 H 2714.3 2.95002 1.75581 0
M  V30 28836 N 2716.75 -1.1702 1.05565 0
M  V30 28837 C 2717.97 -1.91828 0.788471 0
M  V30 28838 C 2718.4 -1.765 -0.650325 0
M  V30 28839 O 2717.76 -1.0853 -1.45227 0
M  V30 28840 C 2717.8 -3.40793 1.17866 0
M  V30 28841 O 2716.91 -4.1121 0.313037 0
M  V30 28842 H 2716.25 -0.597903 0.288805 0
M  V30 28843 H 2718.78 -1.48304 1.4095 0
M  V30 28844 H 2718.79 -3.91544 1.14704 0
M  V30 28845 H 2717.46 -3.51269 2.22672 0
M  V30 28846 H 2716.04 -3.70688 0.40558 0
M  V30 28847 N 2718.23 -0.837197 -1.33524 0
M  V30 28848 C 2719.47 -0.428421 -1.97098 0
M  V30 28849 C 2719.79 1.01731 -1.67063 0
M  V30 28850 O 2720.99 1.53068 -2.24237 0
M  V30 28851 C 2719.45 -0.715137 -3.52723 0
M  V30 28852 C 2719.06 -2.17543 -3.91636 0
M  V30 28853 C 2720.8 -0.373229 -4.22856 0
M  V30 28854 C 2718.71 -2.40629 -5.40233 0
M  V30 28855 H 2717.64 -0.156468 -0.737587 0
M  V30 28856 H 2720.29 -1.02555 -1.52167 0
M  V30 28857 H 2718.67 -0.04766 -3.95971 0
M  V30 28858 H 2719.85 -2.88325 -3.59451 0
M  V30 28859 H 2718.16 -2.48016 -3.34481 0
M  V30 28860 H 2720.76 -0.523357 -5.32133 0
M  V30 28861 H 2721.1 0.683636 -4.10648 0
M  V30 28862 H 2721.63 -0.995869 -3.85133 0
M  V30 28863 H 2718.37 -3.44874 -5.57443 0
M  V30 28864 H 2717.89 -1.74406 -5.73884 0
M  V30 28865 H 2719.57 -2.23699 -6.07098 0
M  V30 28866 N 2719.7 1.45999 -0.593476 0
M  V30 28867 C 2720.65 2.30413 0.133577 0
M  V30 28868 C 2721.62 1.41264 0.873711 0
M  V30 28869 O 2722.81 1.70205 0.862249 0
M  V30 28870 C 2719.95 3.25926 1.13428 0
M  V30 28871 C 2719.06 4.30177 0.396484 0
M  V30 28872 C 2718.19 5.12809 1.38566 0
M  V30 28873 C 2717.23 6.08799 0.634877 0
M  V30 28874 N 2716.37 6.8426 1.57264 0
M  V30 28875 H 2721.21 2.92054 -0.592303 0
M  V30 28876 H 2718.75 1.43927 -0.303899 0
M  V30 28877 H 2720.7 3.79756 1.72745 0
M  V30 28878 H 2719.33 2.6607 1.82775 0
M  V30 28879 H 2718.39 3.79119 -0.311927 0
M  V30 28880 H 2719.7 4.98438 -0.189957 0
M  V30 28881 H 2718.85 5.70969 2.05131 0
M  V30 28882 H 2717.59 4.44533 2.00604 0
M  V30 28883 H 2716.6 5.49782 -0.0444892 0
M  V30 28884 H 2717.82 6.79097 0.0197484 0
M  V30 28885 H 2715.77 6.18686 2.18092 0
M  V30 28886 H 2715.68 7.48822 1.03928 0
M  V30 28887 H 2716.95 7.46972 2.22831 0
M  V30 28888 N 2721.18 0.331843 1.54067 0
M  V30 28889 C 2722.41 -0.26996 2.05131 0
M  V30 28890 C 2722.83 -1.45136 1.20752 0
M  V30 28891 O 2722.18 -1.80914 0.240101 0
M  V30 28892 C 2722.23 -0.696393 3.54729 0
M  V30 28893 O 2721.95 0.438017 4.35905 0
M  V30 28894 C 2723.46 -1.36014 4.21918 0
M  V30 28895 H 2720.68 -0.0541924 0.668808 0
M  V30 28896 H 2723.22 0.480435 1.98776 0
M  V30 28897 H 2721.37 -1.39675 3.61344 0
M  V30 28898 H 2721.79 0.100427 5.24404 0
M  V30 28899 H 2723.26 -1.60938 5.28018 0
M  V30 28900 H 2723.74 -2.31005 3.73542 0
M  V30 28901 H 2724.35 -0.702138 4.19464 0
M  V30 28902 N 2722.66 -1.57485 0.0601958 0
M  V30 28903 C 2723.91 -1.92663 -0.610353 0
M  V30 28904 C 2724.23 -0.940011 -1.70847 0
M  V30 28905 O 2723.5 0.013711 -1.95895 0
M  V30 28906 H 2722.08 -0.711212 -0.228445 0
M  V30 28907 H 2724.74 -1.94559 0.115322 0
M  V30 28908 H 2723.84 -2.94151 -1.04315 0
M  V30 28909 N 2724.14 0.213268 -1.5615 0
M  V30 28910 C 2725.09 1.28391 -1.93955 0
M  V30 28911 C 2726.08 1.48086 -0.822618 0
M  V30 28912 O 2727.29 1.49162 -1.00751 0
M  V30 28913 H 2723.66 0.430635 -0.616488 0
M  V30 28914 H 2725.63 0.937927 -2.83276 0
M  V30 28915 C 2724.38 2.62533 -2.27973 0
M  V30 28916 H 2723.7 2.48188 -3.13437 0
M  V30 28917 H 2725.14 3.36238 -2.58303 0
M  V30 28918 C 2723.6 3.18165 -1.10781 0
M  V30 28919 O 2724.13 3.99962 -0.373272 0
M  V30 28920 N 2722.34 2.76654 -0.889426 0
M  V30 28921 H 2721.89 2.10244 -1.48847 0
M  V30 28922 H 2721.84 3.14218 -0.107055 0
M  V30 28923 N 2725.62 1.50103 0.480296 0
M  V30 28924 C 2726.89 1.51144 1.24157 0
M  V30 28925 C 2727.27 0.250855 2.09604 0
M  V30 28926 O 2726.62 -0.76608 2.15275 0
M  V30 28927 C 2726.83 2.80206 2.08052 0
M  V30 28928 C 2728.18 3.30509 2.6655 0
M  V30 28929 O 2729.2 2.81465 2.18303 0
M  V30 28930 O 2728.06 4.15979 3.54435 0
M  V30 28931 H 2725.16 0.605849 0.562918 0
M  V30 28932 H 2727.7 1.62385 0.49287 0
M  V30 28933 H 2726.47 3.63433 1.45026 0
M  V30 28934 H 2726.1 2.71924 2.90074 0
M  V30 28935 N 2727.09 -0.732829 1.39526 0
M  V30 28936 C 2728.34 -1.4879 1.36178 0
M  V30 28937 C 2728.66 -1.95562 -0.0387851 0
M  V30 28938 O 2729.86 -2.708 -0.194851 0
M  V30 28939 C 2728.32 -2.68866 2.39246 0
M  V30 28940 C 2727.93 -2.29035 3.85028 0
M  V30 28941 C 2729.67 -3.46679 2.44978 0
M  V30 28942 C 2727.58 -3.45847 4.79733 0
M  V30 28943 H 2726.51 -0.558748 0.506277 0
M  V30 28944 H 2729.16 -0.799197 1.65182 0
M  V30 28945 H 2727.54 -3.39822 2.03316 0
M  V30 28946 H 2728.71 -1.65612 4.30011 0
M  V30 28947 H 2727.03 -1.64309 3.82611 0
M  V30 28948 H 2729.63 -4.33569 3.12925 0
M  V30 28949 H 2729.97 -3.89295 1.47497 0
M  V30 28950 H 2730.5 -2.82754 2.79813 0
M  V30 28951 H 2727.24 -3.08279 5.78484 0
M  V30 28952 H 2726.76 -4.08244 4.39428 0
M  V30 28953 H 2728.44 -4.12152 4.98738 0
M  V30 28954 N 2728.57 -1.24737 -0.963244 0
M  V30 28955 C 2729.54 -1.0446 -2.04011 0
M  V30 28956 C 2730.54 -0.00036382 -1.608 0
M  V30 28957 O 2731.73 -0.241749 -1.72514 0
M  V30 28958 C 2728.86 -0.584221 -3.35857 0
M  V30 28959 H 2730.05 -2.00045 -2.23433 0
M  V30 28960 H 2727.6 -1.07023 -1.13912 0
M  V30 28961 H 2728.34 0.374616 -3.22129 0
M  V30 28962 H 2728.12 -1.33797 -3.68566 0
M  V30 28963 H 2729.61 -0.463524 -4.1502 0
M  V30 28964 N 2730.05 1.16459 -1.06184 0
M  V30 28965 C 2731.01 2.19012 -0.675761 0
M  V30 28966 C 2732.01 1.5838 0.277935 0
M  V30 28967 O 2733.2 1.74095 0.0604656 0
M  V30 28968 C 2730.34 3.40899 0.00585467 0
M  V30 28969 H 2731.53 2.54682 -1.58357 0
M  V30 28970 H 2729.08 1.30715 -0.856931 0
M  V30 28971 H 2729.82 3.10785 0.926465 0
M  V30 28972 H 2729.6 3.8616 -0.679908 0
M  V30 28973 H 2731.09 4.16779 0.261736 0
M  V30 28974 N 2731.53 0.844266 1.33079 0
M  V30 28975 C 2732.77 0.448732 1.99414 0
M  V30 28976 C 2733.13 -0.975029 1.654 0
M  V30 28977 O 2734.33 -1.47457 2.24744 0
M  V30 28978 C 2732.6 0.669151 3.5108 0
M  V30 28979 S 2734.16 0.369641 4.3724 0
M  V30 28980 H 2730.98 0.16855 0.690733 0
M  V30 28981 H 2733.58 1.09472 1.61975 0
M  V30 28982 H 2732.29 1.70464 3.73323 0
M  V30 28983 H 2731.82 0.00920126 3.93399 0
M  V30 28984 H 2733.83 -0.808466 4.89569 0
M  V30 28985 N 2733.01 -1.45682 0.60121 0
M  V30 28986 C 2733.94 -2.33246 -0.108783 0
M  V30 28987 C 2734.92 -1.46453 -0.865197 0
M  V30 28988 O 2736.1 -1.75236 -0.837009 0
M  V30 28989 C 2733.23 -3.29052 -1.11095 0
M  V30 28990 C 2732.19 -4.25432 -0.46817 0
M  V30 28991 C 2731.51 -5.10881 -1.57813 0
M  V30 28992 C 2732.81 -5.18766 0.606561 0
M  V30 28993 H 2734.51 -2.9286 0.622358 0
M  V30 28994 H 2732.05 -1.40825 0.300739 0
M  V30 28995 H 2734.01 -3.89177 -1.61615 0
M  V30 28996 H 2732.73 -2.67584 -1.8726 0
M  V30 28997 H 2731.39 -3.66596 0.0161129 0
M  V30 28998 H 2731.04 -4.45785 -2.32991 0
M  V30 28999 H 2730.74 -5.76165 -1.15358 0
M  V30 29000 H 2732.26 -5.73873 -2.08573 0
M  V30 29001 H 2733.67 -5.72999 0.185689 0
M  V30 29002 H 2732.07 -5.92493 0.952486 0
M  V30 29003 H 2733.14 -4.6158 1.48567 0
M  V30 29004 N 2734.48 -0.340009 -1.53889 0
M  V30 29005 C 2735.9 0.0120472 -1.59595 0
M  V30 29006 C 2736.1 1.49039 -1.35608 0
M  V30 29007 O 2735.16 2.24863 -1.1486 0
M  V30 29008 C 2736.47 -0.420951 -2.97739 0
M  V30 29009 C 2738.02 -0.372995 -3.1077 0
M  V30 29010 C 2738.49 -0.781407 -4.51285 0
M  V30 29011 N 2739.98 -0.735454 -4.57324 0
M  V30 29012 C 2740.72 -1.02346 -5.64192 0
M  V30 29013 N 2740.21 -1.37945 -6.78928 0
M  V30 29014 N 2742.01 -0.947936 -5.54049 0
M  V30 29015 H 2734.16 -1.30302 -1.67736 0
M  V30 29016 H 2736.42 -0.530932 -0.785376 0
M  V30 29017 H 2736.13 -1.45158 -3.20347 0
M  V30 29018 H 2736 0.205655 -3.76639 0
M  V30 29019 H 2738.39 0.648454 -2.87887 0
M  V30 29020 H 2738.47 -1.03476 -2.33937 0
M  V30 29021 H 2738.11 -1.80085 -4.74902 0
M  V30 29022 H 2738.04 -0.0971604 -5.2651 0
M  V30 29023 H 2740.53 -0.472839 -3.7493 0
M  V30 29024 H 2740.85 -1.58415 -7.56389 0
M  V30 29025 H 2739.19 -1.41786 -6.80383 0
M  V30 29026 H 2742.38 -0.669196 -4.63292 0
M  V30 29027 H 2742.56 -1.17574 -6.37244 0
M  V30 29028 N 2735.96 1.57451 -0.0685468 0
M  V30 29029 C 2736.91 2.12537 0.899824 0
M  V30 29030 C 2737.88 1.03705 1.29748 0
M  V30 29031 O 2739.07 1.3135 1.3839 0
M  V30 29032 C 2736.21 2.68884 2.16323 0
M  V30 29033 C 2735.32 3.9186 1.8185 0
M  V30 29034 C 2734.45 4.36462 3.02778 0
M  V30 29035 C 2733.49 5.52094 2.64307 0
M  V30 29036 N 2732.63 5.91669 3.77984 0
M  V30 29037 H 2737.47 2.9498 0.423191 0
M  V30 29038 H 2735.01 1.45772 0.197242 0
M  V30 29039 H 2736.96 2.9966 2.90275 0
M  V30 29040 H 2735.59 1.89211 2.61532 0
M  V30 29041 H 2734.65 3.67567 0.979743 0
M  V30 29042 H 2735.96 4.75855 1.49545 0
M  V30 29043 H 2735.11 4.68882 3.85012 0
M  V30 29044 H 2733.85 3.51314 3.38275 0
M  V30 29045 H 2732.86 5.19329 1.80494 0
M  V30 29046 H 2734.08 6.38971 2.29984 0
M  V30 29047 H 2732.03 5.09472 4.13249 0
M  V30 29048 H 2731.94 6.70396 3.49435 0
M  V30 29049 H 2733.21 6.28711 4.60807 0
M  V30 29050 N 2737.44 -0.204984 1.56261 0
M  V30 29051 C 2738.39 -1.27361 1.94633 0
M  V30 29052 C 2739.38 -1.47647 0.83046 0
M  V30 29053 O 2740.59 -1.48625 1.01541 0
M  V30 29054 H 2736.96 -0.42736 0.618763 0
M  V30 29055 H 2738.94 -0.922891 2.8377 0
M  V30 29056 C 2737.68 -2.6132 2.29362 0
M  V30 29057 H 2737.01 -2.46523 3.14748 0
M  V30 29058 H 2738.45 -3.34863 2.60082 0
M  V30 29059 C 2736.91 -3.17574 1.12466 0
M  V30 29060 O 2737.44 -3.99758 0.394478 0
M  V30 29061 N 2735.64 -2.76179 0.904085 0
M  V30 29062 H 2735.19 -2.09451 1.4996 0
M  V30 29063 H 2735.15 -3.14156 0.123718 0
M  V30 29064 N 2738.92 -1.50356 -0.472329 0
M  V30 29065 C 2740.17 -1.60964 -1.22208 0
M  V30 29066 C 2740.49 -0.311473 -1.92496 0
M  V30 29067 O 2739.76 0.67097 -1.84051 0
M  V30 29068 H 2738.34 -0.593143 -0.454081 0
M  V30 29069 H 2741 -1.87127 -0.544944 0
M  V30 29070 H 2740.1 -2.42016 -1.97065 0
M  V30 29071 N 2740.4 0.725419 -1.39912 0
M  V30 29072 C 2741.34 1.83949 -1.39396 0
M  V30 29073 C 2742.31 1.64173 -0.252278 0
M  V30 29074 O 2743.5 1.85445 -0.448852 0
M  V30 29075 C 2740.64 3.21562 -1.25267 0
M  V30 29076 C 2739.75 3.52977 -2.4906 0
M  V30 29077 C 2738.89 4.80043 -2.27447 0
M  V30 29078 C 2737.93 5.04332 -3.46866 0
M  V30 29079 N 2737.06 6.22606 -3.2451 0
M  V30 29080 H 2741.9 1.83725 -2.34626 0
M  V30 29081 H 2739.44 0.897616 -1.16539 0
M  V30 29082 H 2741.4 4.01013 -1.15084 0
M  V30 29083 H 2740.03 3.2104 -0.336626 0
M  V30 29084 H 2739.08 2.68155 -2.69809 0
M  V30 29085 H 2740.39 3.6684 -3.37979 0
M  V30 29086 H 2739.55 5.67493 -2.14561 0
M  V30 29087 H 2738.29 4.68372 -1.35937 0
M  V30 29088 H 2737.29 4.1534 -3.6024 0
M  V30 29089 H 2738.52 5.17882 -4.3929 0
M  V30 29090 H 2736.46 6.12204 -2.35674 0
M  V30 29091 H 2736.38 6.37099 -4.0699 0
M  V30 29092 H 2737.65 7.12869 -3.15337 0
M  V30 29093 N 2741.88 1.25246 0.956615 0
M  V30 29094 C 2743.29 1.02025 1.22732 0
M  V30 29095 C 2743.49 -0.264151 1.99761 0
M  V30 29096 O 2742.55 -0.977395 2.32816 0
M  V30 29097 C 2743.86 2.24221 2.00363 0
M  V30 29098 C 2745.41 2.28962 2.13414 0
M  V30 29099 C 2745.88 3.50809 2.94444 0
M  V30 29100 N 2747.37 3.51193 3.02023 0
M  V30 29101 C 2748.11 4.42135 3.65108 0
M  V30 29102 N 2747.61 5.43347 4.29821 0
M  V30 29103 N 2749.4 4.29821 3.62229 0
M  V30 29104 H 2741.55 2.07766 0.441246 0
M  V30 29105 H 2743.81 0.91231 0.25767 0
M  V30 29106 H 2743.52 3.17559 1.51159 0
M  V30 29107 H 2743.39 2.27233 3.01073 0
M  V30 29108 H 2745.78 1.36148 2.61816 0
M  V30 29109 H 2745.86 2.2997 1.12016 0
M  V30 29110 H 2745.5 4.43943 2.46733 0
M  V30 29111 H 2745.43 3.47046 3.96064 0
M  V30 29112 H 2747.93 2.77977 2.56002 0
M  V30 29113 H 2748.24 6.08955 4.75809 0
M  V30 29114 H 2746.58 5.47221 4.28455 0
M  V30 29115 H 2749.77 3.49979 3.10857 0
M  V30 29116 H 2749.95 5.00893 4.11109 0
M  V30 29117 N 2743.35 -1.15894 1.068 0
M  V30 29118 C 2744.6 -1.86824 0.788967 0
M  V30 29119 C 2744.93 -1.81791 -0.683052 0
M  V30 29120 O 2744.21 -1.23714 -1.50084 0
M  V30 29121 C 2744.49 -3.36174 1.29071 0
M  V30 29122 C 2744.34 -3.49869 2.82686 0
M  V30 29123 C 2745.66 -4.30742 0.902731 0
M  V30 29124 H 2742.78 -0.678366 0.288077 0
M  V30 29125 H 2745.42 -1.36193 1.32482 0
M  V30 29126 H 2743.57 -3.79423 0.834873 0
M  V30 29127 H 2745.25 -3.15522 3.36517 0
M  V30 29128 H 2743.49 -2.91611 3.21162 0
M  V30 29129 H 2744.16 -4.54778 3.1286 0
M  V30 29130 H 2746.64 -3.95421 1.29542 0
M  V30 29131 H 2745.51 -5.33738 1.2812 0
M  V30 29132 H 2745.77 -4.41683 -0.191874 0
M  V30 29133 N 2744.83 -0.851312 -1.32629 0
M  V30 29134 C 2746.08 -0.449302 -1.96632 0
M  V30 29135 C 2746.39 0.999533 -1.68133 0
M  V30 29136 O 2747.6 1.50681 -2.25848 0
M  V30 29137 C 2746.06 -0.752507 -3.51945 0
M  V30 29138 C 2745.66 -2.21685 -3.89307 0
M  V30 29139 C 2747.41 -0.418057 -4.22436 0
M  V30 29140 C 2745.31 -2.46345 -5.37651 0
M  V30 29141 H 2744.24 -0.164282 -0.735886 0
M  V30 29142 H 2746.9 -1.04163 -1.51071 0
M  V30 29143 H 2745.28 -0.0896554 -3.95898 0
M  V30 29144 H 2746.45 -2.92121 -3.56373 0
M  V30 29145 H 2744.77 -2.51549 -3.31831 0
M  V30 29146 H 2747.36 -0.579768 -5.31548 0
M  V30 29147 H 2747.71 0.640043 -4.1135 0
M  V30 29148 H 2748.24 -1.03666 -3.84055 0
M  V30 29149 H 2744.98 -3.50767 -5.53753 0
M  V30 29150 H 2744.5 -1.80483 -5.72002 0
M  V30 29151 H 2746.18 -2.30125 -6.04691 0
M  V30 29152 N 2746.31 1.45361 -0.608928 0
M  V30 29153 C 2747.24 2.28726 0.147277 0
M  V30 29154 C 2748.25 1.40027 0.830443 0
M  V30 29155 O 2749.44 1.64388 0.695607 0
M  V30 29156 C 2746.54 3.15806 1.22963 0
M  V30 29157 C 2745.72 4.32791 0.633315 0
M  V30 29158 C 2744.78 5.0107 1.60673 0
M  V30 29159 O 2743.8 5.5782 1.13251 0
M  V30 29160 N 2745 5.00477 2.94114 0
M  V30 29161 H 2747.77 2.94267 -0.568066 0
M  V30 29162 H 2745.33 1.55564 -0.448507 0
M  V30 29163 H 2747.32 3.58348 1.88066 0
M  V30 29164 H 2745.89 2.52165 1.84747 0
M  V30 29165 H 2745.11 3.93713 -0.195831 0
M  V30 29166 H 2746.4 5.08345 0.215166 0
M  V30 29167 H 2745.8 4.55663 3.35242 0
M  V30 29168 H 2744.35 5.46879 3.54636 0
M  V30 29169 N 2747.79 0.348166 1.53706 0
M  V30 29170 C 2748.72 -0.498726 2.28112 0
M  V30 29171 C 2749.7 -1.09873 1.29853 0
M  V30 29172 O 2750.88 -1.11926 1.58702 0
M  V30 29173 C 2748.01 -1.64748 3.05738 0
M  V30 29174 C 2746.97 -1.17558 4.11539 0
M  V30 29175 C 2746.29 -2.41321 4.77146 0
M  V30 29176 C 2747.59 -0.272752 5.21587 0
M  V30 29177 H 2749.29 0.121986 2.99151 0
M  V30 29178 H 2746.83 0.0601095 1.43874 0
M  V30 29179 H 2748.79 -2.24643 3.5653 0
M  V30 29180 H 2747.51 -2.29516 2.32358 0
M  V30 29181 H 2746.17 -0.599419 3.61666 0
M  V30 29182 H 2745.82 -3.04507 4.00356 0
M  V30 29183 H 2745.52 -2.10427 5.4863 0
M  V30 29184 H 2747.04 -3.01934 5.30724 0
M  V30 29185 H 2748.46 -0.778679 5.67987 0
M  V30 29186 H 2746.85 -0.0554795 6.00074 0
M  V30 29187 H 2747.92 0.689869 4.79968 0
M  V30 29188 N 2749.27 -1.57412 0.0768958 0
M  V30 29189 C 2750.49 -1.98429 -0.603369 0
M  V30 29190 C 2750.92 -0.955137 -1.62046 0
M  V30 29191 O 2750.27 0.0786459 -1.81129 0
M  V30 29192 C 2750.32 -3.38466 -1.2439 0
M  V30 29193 O 2749.43 -3.38214 -2.35976 0
M  V30 29194 H 2748.77 -0.64572 -0.15473 0
M  V30 29195 H 2751.3 -2.04028 0.152921 0
M  V30 29196 H 2751.31 -3.75763 -1.58954 0
M  V30 29197 H 2749.98 -4.129 -0.498663 0
M  V30 29198 H 2748.56 -3.12693 -2.03168 0
M  V30 29199 N 2750.74 0.196695 -1.56368 0
M  V30 29200 C 2752.16 0.547464 -1.49917 0
M  V30 29201 C 2752.36 1.85932 -0.776623 0
M  V30 29202 O 2751.42 2.5038 -0.326484 0
M  V30 29203 C 2752.73 0.603682 -2.94578 0
M  V30 29204 C 2754.28 0.692624 -3.0524 0
M  V30 29205 C 2754.75 0.779967 -4.5131 0
M  V30 29206 N 2756.24 0.843536 -4.55454 0
M  V30 29207 C 2756.98 0.931259 -5.65787 0
M  V30 29208 N 2756.47 0.981382 -6.85814 0
M  V30 29209 N 2758.27 0.968323 -5.53697 0
M  V30 29210 H 2750.42 -0.663838 -2.0176 0
M  V30 29211 H 2752.68 -0.236254 -0.918089 0
M  V30 29212 H 2752.39 -0.291111 -3.50493 0
M  V30 29213 H 2752.26 1.45892 -3.47844 0
M  V30 29214 H 2754.65 1.57785 -2.49375 0
M  V30 29215 H 2754.73 -0.188781 -2.55102 0
M  V30 29216 H 2754.37 -0.1009 -5.078 0
M  V30 29217 H 2754.3 1.67715 -4.99179 0
M  V30 29218 H 2756.79 0.814111 -3.69027 0
M  V30 29219 H 2757.11 1.04879 -7.6565 0
M  V30 29220 H 2755.45 0.950087 -6.88475 0
M  V30 29221 H 2758.64 0.925991 -4.5885 0
M  V30 29222 H 2758.82 1.03323 -6.3971 0
M  V30 29223 N 2752.22 1.50604 0.464349 0
M  V30 29224 C 2753.17 1.69959 1.56149 0
M  V30 29225 C 2754.14 0.540938 1.57045 0
M  V30 29226 O 2755.32 0.772289 1.74472 0
M  V30 29227 C 2752.46 1.80591 2.94076 0
M  V30 29228 C 2751.58 3.08002 3.02917 0
M  V30 29229 C 2750.71 3.09389 4.31801 0
M  V30 29230 C 2749.75 4.31225 4.34409 0
M  V30 29231 N 2748.89 4.30314 5.54774 0
M  V30 29232 H 2753.73 2.63623 1.3895 0
M  V30 29233 H 2751.27 1.30675 0.675459 0
M  V30 29234 H 2753.22 1.84737 3.7407 0
M  V30 29235 H 2751.85 0.903611 3.09895 0
M  V30 29236 H 2750.91 3.13295 2.15755 0
M  V30 29237 H 2752.22 3.97968 3.00705 0
M  V30 29238 H 2751.37 3.12301 5.20147 0
M  V30 29239 H 2750.11 2.17265 4.36632 0
M  V30 29240 H 2749.12 4.28518 3.44459 0
M  V30 29241 H 2750.34 5.24584 4.31264 0
M  V30 29242 H 2748.29 3.41047 5.60378 0
M  V30 29243 H 2748.2 5.14056 5.5433 0
M  V30 29244 H 2749.47 4.37381 6.45227 0
M  V30 29245 N 2753.7 -0.717989 1.40295 0
M  V30 29246 C 2754.93 -1.50711 1.41753 0
M  V30 29247 C 2755.34 -1.88793 0.0165698 0
M  V30 29248 O 2754.7 -1.55277 -0.958915 0
M  V30 29249 C 2754.75 -2.78396 2.30603 0
M  V30 29250 O 2754.47 -2.41926 3.65244 0
M  V30 29251 C 2755.97 -3.72309 2.40627 0
M  V30 29252 H 2753.19 -0.465186 0.483573 0
M  V30 29253 H 2755.74 -0.885857 1.84317 0
M  V30 29254 H 2753.89 -3.36812 1.91407 0
M  V30 29255 H 2754.31 -3.24068 4.12408 0
M  V30 29256 H 2755.78 -4.58748 3.07009 0
M  V30 29257 H 2756.26 -4.15248 1.43058 0
M  V30 29258 H 2756.86 -3.19806 2.80365 0
M  V30 29259 N 2755.18 -1.25752 -0.94996 0
M  V30 29260 C 2756.43 -1.10777 -1.69513 0
M  V30 29261 C 2756.75 0.350446 -1.91317 0
M  V30 29262 O 2756.01 1.2744 -1.48518 0
M  V30 29263 C 2756.31 -1.81242 -3.08036 0
M  V30 29264 C 2755.97 -3.31156 -3.06017 0
M  V30 29265 C 2754.64 -3.72052 -3.05173 0
M  V30 29266 C 2756.99 -4.26913 -2.9899 0
M  V30 29267 C 2754.32 -5.07107 -2.95058 0
M  V30 29268 C 2756.67 -5.61997 -2.90416 0
M  V30 29269 C 2755.33 -6.02215 -2.87911 0
M  V30 29270 H 2754.6 -0.405362 -0.620292 0
M  V30 29271 H 2757.25 -1.56084 -1.10951 0
M  V30 29272 H 2755.55 -1.2838 -3.7017 0
M  V30 29273 H 2757.25 -1.67104 -3.64523 0
M  V30 29274 H 2753.84 -2.9862 -3.07448 0
M  V30 29275 H 2758.02 -3.96306 -2.98757 0
M  V30 29276 H 2753.28 -5.37442 -2.9149 0
M  V30 29277 H 2757.45 -6.35885 -2.83941 0
M  V30 29278 H 2755.08 -7.06824 -2.79829 0
M  V30 29279 N 2756.66 1.15326 -1.07413 0
M  V30 29280 C 2757.93 1.82229 -0.710764 0
M  V30 29281 C 2758.31 1.95078 0.806697 0
M  V30 29282 O 2757.66 1.50271 1.72136 0
M  V30 29283 C 2757.87 3.18541 -1.42592 0
M  V30 29284 C 2759.22 3.94171 -1.57843 0
M  V30 29285 O 2760.24 3.28097 -1.38674 0
M  V30 29286 O 2759.1 5.12635 -1.89389 0
M  V30 29287 H 2756.2 0.787355 -0.252984 0
M  V30 29288 H 2758.74 1.22432 -1.1751 0
M  V30 29289 H 2757.51 3.04291 -2.46013 0
M  V30 29290 H 2757.14 3.86025 -0.9524 0
M  V30 29291 N 2758.13 0.858334 1.32176 0
M  V30 29292 C 2759.36 0.476753 2.01846 0
M  V30 29293 C 2759.78 -0.919992 1.64066 0
M  V30 29294 O 2759.14 -1.60498 0.843217 0
M  V30 29295 C 2759.19 0.62764 3.55096 0
M  V30 29296 O 2758.29 -0.338013 4.11012 0
M  V30 29297 H 2757.64 0.19111 0.635903 0
M  V30 29298 H 2760.17 1.15854 1.68639 0
M  V30 29299 H 2760.18 0.516547 4.04717 0
M  V30 29300 H 2758.85 1.64616 3.81935 0
M  V30 29301 H 2757.43 -0.182851 3.72451 0
M  V30 29302 N 2759.61 -1.45036 0.616628 0
M  V30 29303 C 2760.52 -2.34393 -0.0984989 0
M  V30 29304 C 2761.54 -1.51773 -0.850944 0
M  V30 29305 O 2762.71 -1.84547 -0.806488 0
M  V30 29306 C 2759.78 -3.29534 -1.07742 0
M  V30 29307 C 2758.84 -4.28061 -0.325946 0
M  V30 29308 C 2758.07 -5.18656 -1.25824 0
M  V30 29309 O 2758.3 -5.12869 -2.49643 0
M  V30 29310 O 2757.23 -5.97204 -0.750407 0
M  V30 29311 H 2761.06 -2.96964 0.636068 0
M  V30 29312 H 2758.64 -1.44569 0.376857 0
M  V30 29313 H 2760.52 -3.88135 -1.641 0
M  V30 29314 H 2759.2 -2.69515 -1.79286 0
M  V30 29315 H 2758.11 -3.73048 0.280319 0
M  V30 29316 H 2759.44 -4.9096 0.349177 0
M  V30 29317 N 2761.09 -0.356312 -1.53519 0
M  V30 29318 C 2762.32 0.236947 -2.05237 0
M  V30 29319 C 2762.73 1.43746 -1.23019 0
M  V30 29320 O 2762.07 1.81829 -0.261532 0
M  V30 29321 C 2762.13 0.703438 -3.52551 0
M  V30 29322 C 2761.8 -0.379139 -4.55425 0
M  V30 29323 C 2762.79 -1.22601 -5.05238 0
M  V30 29324 C 2760.48 -0.536726 -4.99424 0
M  V30 29325 C 2762.47 -2.21589 -5.97643 0
M  V30 29326 C 2760.16 -1.52999 -5.91637 0
M  V30 29327 C 2761.16 -2.36801 -6.40636 0
M  V30 29328 O 2760.85 -3.34434 -7.31033 0
M  V30 29329 H 2760.58 0.0472422 -0.674347 0
M  V30 29330 H 2763.13 -0.510273 -1.98961 0
M  V30 29331 H 2761.36 1.50211 -3.56333 0
M  V30 29332 H 2763.05 1.21867 -3.87174 0
M  V30 29333 H 2763.82 -1.11541 -4.72 0
M  V30 29334 H 2759.7 0.105753 -4.60879 0
M  V30 29335 H 2763.24 -2.87036 -6.35811 0
M  V30 29336 H 2759.14 -1.6411 -6.2429 0
M  V30 29337 H 2759.91 -3.30054 -7.49004 0
M  V30 29338 N 2762.57 1.57369 -0.0852427 0
M  V30 29339 C 2763.81 1.9428 0.581632 0
M  V30 29340 C 2764.15 0.966476 1.68443 0
M  V30 29341 O 2763.42 -0.00211859 1.945 0
M  V30 29342 C 2763.71 3.41377 1.14603 0
M  V30 29343 C 2763.56 4.49773 0.0489623 0
M  V30 29344 C 2764.88 3.89574 2.04744 0
M  V30 29345 H 2762 0.70646 0.20996 0
M  V30 29346 H 2764.64 1.89375 -0.153948 0
M  V30 29347 H 2762.79 3.45688 1.77291 0
M  V30 29348 H 2764.46 4.57578 -0.584801 0
M  V30 29349 H 2762.7 4.29365 -0.618713 0
M  V30 29350 H 2763.37 5.4987 0.484504 0
M  V30 29351 H 2765.85 3.87354 1.51974 0
M  V30 29352 H 2764.73 4.93083 2.41164 0
M  V30 29353 H 2764.99 3.28294 2.96101 0
M  V30 29354 N 2764.05 -0.188399 1.5647 0
M  V30 29355 C 2764.99 -1.23346 1.95076 0
M  V30 29356 C 2765.96 -1.44884 0.812264 0
M  V30 29357 O 2767.15 -1.57907 1.07098 0
M  V30 29358 C 2764.29 -2.57167 2.30128 0
M  V30 29359 C 2763.4 -2.43151 3.57074 0
M  V30 29360 C 2762.54 -3.69722 3.81417 0
M  V30 29361 C 2761.58 -3.50566 5.01766 0
M  V30 29362 N 2760.71 -4.69165 5.2233 0
M  V30 29363 H 2765.55 -0.89723 2.84172 0
M  V30 29364 H 2763.09 -0.431659 1.40624 0
M  V30 29365 H 2765.05 -3.3514 2.48469 0
M  V30 29366 H 2763.68 -2.88819 1.44164 0
M  V30 29367 H 2762.73 -1.56441 3.46743 0
M  V30 29368 H 2764.04 -2.24934 4.45204 0
M  V30 29369 H 2763.2 -4.56134 4.00034 0
M  V30 29370 H 2761.93 -3.909 2.9163 0
M  V30 29371 H 2760.94 -2.6254 4.83066 0
M  V30 29372 H 2762.16 -3.30827 5.93069 0
M  V30 29373 H 2760.11 -4.90595 4.35491 0
M  V30 29374 H 2760.03 -4.53798 6.04651 0
M  V30 29375 H 2761.3 -5.56909 5.4541 0
M  V30 29376 N 2765.53 -1.50848 -0.456355 0
M  V30 29377 C 2766.75 -1.66351 -1.23024 0
M  V30 29378 C 2767.17 -0.3529 -1.85473 0
M  V30 29379 O 2766.53 0.666709 -1.69886 0
M  V30 29380 C 2766.58 -2.76543 -2.32822 0
M  V30 29381 O 2766.3 -4.02525 -1.72931 0
M  V30 29382 C 2767.8 -3.0315 -3.23443 0
M  V30 29383 H 2765.02 -0.558763 -0.371517 0
M  V30 29384 H 2767.56 -1.97158 -0.543047 0
M  V30 29385 H 2765.72 -2.4839 -2.9729 0
M  V30 29386 H 2766.13 -4.63578 -2.45349 0
M  V30 29387 H 2767.61 -3.83879 -3.96662 0
M  V30 29388 H 2768.08 -2.148 -3.8309 0
M  V30 29389 H 2768.69 -3.32891 -2.64696 0
M  V30 29390 N 2767 0.710538 -1.40674 0
M  V30 29391 C 2768.42 1.01925 -1.22814 0
M  V30 29392 C 2768.62 2.01216 -0.106905 0
M  V30 29393 O 2767.68 2.46798 0.533571 0
M  V30 29394 C 2768.99 1.55815 -2.57181 0
M  V30 29395 C 2770.54 1.67775 -2.64236 0
M  V30 29396 C 2771.01 2.25069 -3.98883 0
M  V30 29397 N 2772.5 2.32449 -4.00652 0
M  V30 29398 C 2773.24 2.77775 -5.01626 0
M  V30 29399 N 2772.73 3.22815 -6.12994 0
M  V30 29400 N 2774.53 2.77204 -4.88993 0
M  V30 29401 H 2766.68 0.0524927 -2.12335 0
M  V30 29402 H 2768.94 0.0858814 -0.944102 0
M  V30 29403 H 2768.65 0.903189 -3.39905 0
M  V30 29404 H 2768.52 2.54262 -2.78622 0
M  V30 29405 H 2770.91 2.32387 -1.8188 0
M  V30 29406 H 2770.99 0.679134 -2.4662 0
M  V30 29407 H 2770.63 1.61077 -4.81681 0
M  V30 29408 H 2770.56 3.25654 -4.13832 0
M  V30 29409 H 2773.05 2.00645 -3.20235 0
M  V30 29410 H 2773.37 3.55983 -6.85927 0
M  V30 29411 H 2771.71 3.20762 -6.16552 0
M  V30 29412 H 2774.9 2.41356 -4.0108 0
M  V30 29413 H 2775.08 3.12211 -5.67827 0
M  V30 29414 N 2768.48 1.26254 0.943277 0
M  V30 29415 C 2769.71 1.14446 1.72365 0
M  V30 29416 C 2770.12 -0.300539 1.86393 0
M  V30 29417 O 2769.48 -1.20593 1.3698 0
M  V30 29418 C 2769.53 1.80605 3.13152 0
M  V30 29419 O 2769.25 3.19458 2.99797 0
M  V30 29420 C 2770.75 1.74724 4.07414 0
M  V30 29421 H 2767.97 0.398636 0.539751 0
M  V30 29422 H 2770.52 1.66834 1.18265 0
M  V30 29423 H 2768.67 1.3216 3.6416 0
M  V30 29424 H 2769.09 3.52165 3.8869 0
M  V30 29425 H 2770.56 2.25656 5.03769 0
M  V30 29426 H 2771.04 0.71332 4.33369 0
M  V30 29427 H 2771.64 2.22711 3.62326 0
M  V30 29428 N 2769.96 -1.14755 1.08024 0
M  V30 29429 C 2770.91 -2.21781 0.701127 0
M  V30 29430 C 2771.9 -1.66877 -0.291281 0
M  V30 29431 O 2773.11 -1.79338 -0.154264 0
M  V30 29432 H 2769.48 -0.722465 0.208681 0
M  V30 29433 H 2771.45 -2.51031 1.61326 0
M  V30 29434 C 2770.2 -3.47485 0.122339 0
M  V30 29435 H 2769.53 -3.90059 0.877134 0
M  V30 29436 H 2770.97 -4.2387 -0.105173 0
M  V30 29437 C 2769.42 -3.1707 -1.13877 0
M  V30 29438 O 2769.95 -3.34501 -2.22424 0
M  V30 29439 N 2768.16 -2.71059 -1.04762 0
M  V30 29440 H 2767.71 -2.57076 -0.164257 0
M  V30 29441 H 2767.67 -2.51084 -1.8922 0
M  V30 29442 N 2771.44 -0.865331 -1.31719 0
M  V30 29443 C 2772.71 -0.394823 -1.91574 0
M  V30 29444 C 2773.09 1.12268 -1.78771 0
M  V30 29445 O 2772.44 1.94916 -1.19248 0
M  V30 29446 C 2772.65 -0.871042 -3.37955 0
M  V30 29447 C 2774 -0.894457 -4.15072 0
M  V30 29448 O 2775.02 -0.816386 -3.46718 0
M  V30 29449 O 2773.88 -1.0066 -5.3715 0
M  V30 29450 H 2770.98 -0.117243 -0.818647 0
M  V30 29451 H 2773.52 -0.952938 -1.40418 0
M  V30 29452 H 2772.3 -1.9145 -3.41266 0
M  V30 29453 H 2771.92 -0.290977 -3.96534 0
M  V30 29454 N 2772.92 1.44707 -0.624311 0
M  V30 29455 C 2774.16 2.02953 -0.134766 0
M  V30 29456 C 2774.52 1.4818 1.22721 0
M  V30 29457 O 2773.81 0.653574 1.80108 0
M  V30 29458 C 2774 3.57358 -0.0546981 0
M  V30 29459 C 2773.83 4.2711 -1.40737 0
M  V30 29460 C 2772.6 4.64362 -1.99239 0
M  V30 29461 C 2774.8 4.57995 -2.33976 0
M  V30 29462 N 2772.78 5.19049 -3.27812 0
M  V30 29463 C 2774.15 5.13693 -3.47159 0
M  V30 29464 C 2776.21 4.39943 -2.3314 0
M  V30 29465 C 2774.91 5.53241 -4.59692 0
M  V30 29466 C 2776.94 4.80534 -3.44733 0
M  V30 29467 C 2776.3 5.3634 -4.56639 0
M  V30 29468 H 2772.4 0.776441 -0.0930754 0
M  V30 29469 H 2774.98 1.76295 -0.826317 0
M  V30 29470 H 2773.15 3.83641 0.606116 0
M  V30 29471 H 2774.89 4.02268 0.443046 0
M  V30 29472 H 2771.64 4.48458 -1.52259 0
M  V30 29473 H 2772.06 5.50876 -3.93529 0
M  V30 29474 H 2776.71 3.96097 -1.47875 0
M  V30 29475 H 2774.42 5.96045 -5.4567 0
M  V30 29476 H 2778.01 4.68285 -3.45254 0
M  V30 29477 H 2776.89 5.6717 -5.41561 0
M  V30 29478 N 2774.39 0.364449 1.53328 0
M  V30 29479 C 2775.67 -0.281928 1.93558 0
M  V30 29480 C 2776.05 -1.66488 1.29788 0
M  V30 29481 O 2775.4 -2.23893 0.456552 0
M  V30 29482 C 2775.61 -0.33327 3.47405 0
M  V30 29483 C 2776.96 -0.574157 4.207 0
M  V30 29484 O 2777.98 -0.414525 3.5378 0
M  V30 29485 O 2776.84 -0.884907 5.39288 0
M  V30 29486 H 2773.93 -0.168867 0.809576 0
M  V30 29487 H 2776.48 0.41715 1.64493 0
M  V30 29488 H 2775.25 0.636394 3.8609 0
M  V30 29489 H 2774.87 -1.07829 3.82699 0
M  V30 29490 N 2775.87 -1.57322 0.0935872 0
M  V30 29491 C 2777.12 -1.94298 -0.570475 0
M  V30 29492 C 2777.45 -0.975219 -1.68285 0
M  V30 29493 O 2776.7 0.00545215 -1.95699 0
M  V30 29494 C 2777 -3.37815 -1.16686 0
M  V30 29495 C 2776.67 -4.50547 -0.17843 0
M  V30 29496 C 2775.33 -4.81109 0.0934321 0
M  V30 29497 C 2777.68 -5.18829 0.496563 0
M  V30 29498 C 2775.01 -5.77282 1.04701 0
M  V30 29499 C 2777.36 -6.16025 1.4386 0
M  V30 29500 C 2776.02 -6.44994 1.71871 0
M  V30 29501 H 2775.29 -0.710988 -0.208752 0
M  V30 29502 H 2777.94 -1.90752 0.169099 0
M  V30 29503 H 2776.25 -3.37932 -1.98265 0
M  V30 29504 H 2777.94 -3.63725 -1.68834 0
M  V30 29505 H 2774.53 -4.26725 -0.400509 0
M  V30 29506 H 2778.72 -4.95394 0.299671 0
M  V30 29507 H 2773.97 -5.98042 1.27104 0
M  V30 29508 H 2778.15 -6.6803 1.96745 0
M  V30 29509 H 2775.77 -7.19325 2.45919 0
M  V30 29510 N 2777.35 0.180099 -1.56568 0
M  V30 29511 C 2778.6 0.899465 -1.81762 0
M  V30 29512 C 2778.93 1.82275 -0.670048 0
M  V30 29513 O 2778.2 1.91705 0.328541 0
M  V30 29514 C 2778.49 1.70274 -3.17299 0
M  V30 29515 C 2778.34 0.803177 -4.42571 0
M  V30 29516 C 2779.66 2.67227 -3.49683 0
M  V30 29517 H 2776.78 0.325555 -0.661198 0
M  V30 29518 H 2779.42 0.166087 -1.89273 0
M  V30 29519 H 2777.57 2.32797 -3.11027 0
M  V30 29520 H 2779.24 0.191504 -4.60902 0
M  V30 29521 H 2777.48 0.11072 -4.33659 0
M  V30 29522 H 2778.16 1.40054 -5.33937 0
M  V30 29523 H 2780.63 2.14833 -3.56351 0
M  V30 29524 H 2779.51 3.20503 -4.45611 0
M  V30 29525 H 2779.77 3.47002 -2.73938 0
M  V30 29526 N 2778.83 1.51088 0.448349 0
M  V30 29527 C 2780.07 1.63452 1.20046 0
M  V30 29528 C 2780.41 0.344478 1.9112 0
M  V30 29529 O 2779.68 -0.655364 1.83126 0
M  V30 29530 C 2779.96 2.83042 2.22619 0
M  V30 29531 C 2779.82 4.21992 1.55701 0
M  V30 29532 C 2781.14 2.98157 3.23713 0
M  V30 29533 H 2778.26 0.594878 0.435074 0
M  V30 29534 H 2780.9 1.83542 0.491151 0
M  V30 29535 H 2779.05 2.66044 2.83113 0
M  V30 29536 H 2780.72 4.50633 0.986288 0
M  V30 29537 H 2778.96 4.25199 0.859573 0
M  V30 29538 H 2779.63 5.01641 2.30348 0
M  V30 29539 H 2782.11 3.13793 2.73264 0
M  V30 29540 H 2780.99 3.83417 3.92788 0
M  V30 29541 H 2781.25 2.09749 3.89175 0
M  V30 29542 N 2780.31 -0.703068 1.41049 0
M  V30 29543 C 2781.53 -1.49199 1.43343 0
M  V30 29544 C 2781.95 -1.88765 0.0365928 0
M  V30 29545 O 2781.31 -1.56286 -0.942391 0
M  V30 29546 C 2781.36 -2.75935 2.33543 0
M  V30 29547 O 2781.08 -2.38038 3.6779 0
M  V30 29548 C 2782.58 -3.69736 2.44562 0
M  V30 29549 H 2779.8 -0.460031 0.48848 0
M  V30 29550 H 2782.34 -0.866257 1.85246 0
M  V30 29551 H 2780.5 -3.34763 1.94968 0
M  V30 29552 H 2780.91 -3.19676 4.15822 0
M  V30 29553 H 2782.39 -4.55466 3.11857 0
M  V30 29554 H 2782.86 -4.13708 1.47454 0
M  V30 29555 H 2783.47 -3.16814 2.83741 0
M  V30 29556 N 2781.78 -1.26752 -0.936569 0
M  V30 29557 C 2783.01 -1.15358 -1.71756 0
M  V30 29558 C 2783.43 0.29065 -1.86549 0
M  V30 29559 O 2782.78 1.19865 -1.37618 0
M  V30 29560 C 2782.84 -1.82263 -3.1219 0
M  V30 29561 O 2782.56 -3.21043 -2.98099 0
M  V30 29562 C 2784.06 -1.76882 -4.06482 0
M  V30 29563 H 2781.28 -0.401492 -0.537629 0
M  V30 29564 H 2783.82 -1.67459 -1.17379 0
M  V30 29565 H 2781.98 -1.34089 -3.63454 0
M  V30 29566 H 2782.39 -3.54221 -3.86817 0
M  V30 29567 H 2783.86 -2.28325 -5.02565 0
M  V30 29568 H 2784.34 -0.736292 -4.32984 0
M  V30 29569 H 2784.95 -2.24629 -3.6114 0
M  V30 29570 N 2783.26 1.1418 -1.08631 0
M  V30 29571 C 2784.54 1.81465 -0.730051 0
M  V30 29572 C 2784.92 1.95923 0.785961 0
M  V30 29573 O 2784.27 1.52089 1.70532 0
M  V30 29574 C 2784.48 3.17011 -1.45962 0
M  V30 29575 C 2785.83 3.92475 -1.62015 0
M  V30 29576 O 2786.85 3.26608 -1.42147 0
M  V30 29577 O 2785.71 5.10597 -1.94815 0
M  V30 29578 H 2782.8 0.784628 -0.26132 0
M  V30 29579 H 2785.35 1.21178 -1.18802 0
M  V30 29580 H 2784.12 3.01665 -2.49227 0
M  V30 29581 H 2783.74 3.84993 -0.993289 0
M  V30 29582 N 2784.74 0.872304 1.31258 0
M  V30 29583 C 2785.99 0.480528 1.95892 0
M  V30 29584 C 2786.3 -0.972658 1.69702 0
M  V30 29585 O 2787.51 -1.47069 2.28217 0
M  V30 29586 C 2785.96 0.808404 3.50703 0
M  V30 29587 C 2785.57 2.2785 3.85731 0
M  V30 29588 C 2787.32 0.48521 4.21718 0
M  V30 29589 C 2785.22 2.54867 5.33663 0
M  V30 29590 H 2784.15 0.175968 0.733179 0
M  V30 29591 H 2786.8 1.06553 1.49394 0
M  V30 29592 H 2785.19 0.152628 3.95706 0
M  V30 29593 H 2786.36 2.97754 3.51681 0
M  V30 29594 H 2784.68 2.56797 3.27787 0
M  V30 29595 H 2787.27 0.664259 5.30558 0
M  V30 29596 H 2787.62 -0.57452 4.12317 0
M  V30 29597 H 2788.15 1.09763 3.82357 0
M  V30 29598 H 2784.89 3.59532 5.48103 0
M  V30 29599 H 2784.41 1.8956 5.69058 0
M  V30 29600 H 2786.09 2.39716 6.00953 0
M  V30 29601 N 2786.22 -1.44374 0.631976 0
M  V30 29602 C 2787.44 -2.06912 0.142182 0
M  V30 29603 C 2787.87 -1.46922 -1.17454 0
M  V30 29604 O 2787.23 -0.571005 -1.72073 0
M  V30 29605 C 2787.27 -3.60576 0.0418586 0
M  V30 29606 O 2786.38 -4.00045 -1.00187 0
M  V30 29607 H 2785.72 -0.658516 0.0851607 0
M  V30 29608 H 2788.25 -1.85233 0.868895 0
M  V30 29609 H 2788.26 -4.0773 -0.148445 0
M  V30 29610 H 2786.93 -4.0362 1.00318 0
M  V30 29611 H 2785.51 -3.64521 -0.786067 0
M  V30 29612 N 2787.7 -0.372575 -1.53133 0
M  V30 29613 C 2788.61 0.478339 -2.29672 0
M  V30 29614 C 2789.62 1.08642 -1.35915 0
M  V30 29615 O 2790.8 1.09585 -1.68977 0
M  V30 29616 C 2787.86 1.59894 -3.07627 0
M  V30 29617 C 2786.92 1.01769 -4.17063 0
M  V30 29618 C 2786.16 2.08489 -4.91292 0
M  V30 29619 O 2786.38 3.29719 -4.65448 0
M  V30 29620 O 2785.31 1.71154 -5.77053 0
M  V30 29621 H 2789.14 -0.144703 -3.03355 0
M  V30 29622 H 2786.73 -0.136755 -1.48773 0
M  V30 29623 H 2788.61 2.25031 -3.56285 0
M  V30 29624 H 2787.28 2.20726 -2.36774 0
M  V30 29625 H 2786.19 0.330033 -3.72641 0
M  V30 29626 H 2787.52 0.453829 -4.90103 0
M  V30 29627 N 2789.17 1.5727 -0.101929 0
M  V30 29628 C 2790.11 2.10072 0.89134 0
M  V30 29629 C 2791.09 1.01293 1.27195 0
M  V30 29630 O 2792.27 1.28836 1.37599 0
M  V30 29631 C 2789.4 2.58335 2.19045 0
M  V30 29632 C 2788.44 3.78838 1.95919 0
M  V30 29633 S 2789.28 5.22088 1.19097 0
M  V30 29634 C 2790.43 5.73706 2.50224 0
M  V30 29635 H 2790.66 2.93994 0.44216 0
M  V30 29636 H 2788.2 1.53997 0.111502 0
M  V30 29637 H 2790.16 2.86798 2.93695 0
M  V30 29638 H 2788.82 1.74627 2.61083 0
M  V30 29639 H 2788.01 4.10698 2.92135 0
M  V30 29640 H 2787.61 3.50903 1.29395 0
M  V30 29641 H 2789.9 5.8239 3.46162 0
M  V30 29642 H 2790.85 6.72091 2.22932 0
M  V30 29643 H 2791.25 5.01675 2.58809 0
M  V30 29644 N 2790.65 -0.171793 1.56661 0
M  V30 29645 C 2791.9 -0.886742 1.81608 0
M  V30 29646 C 2792.22 -1.82802 0.67885 0
M  V30 29647 O 2791.49 -1.93569 -0.30132 0
M  V30 29648 H 2790.07 -0.330439 0.66994 0
M  V30 29649 H 2792.73 -0.171723 1.94142 0
M  V30 29650 H 2791.83 -1.46393 2.75637 0
M  V30 29651 N 2792.13 -1.51324 -0.44033 0
M  V30 29652 C 2793.09 -1.71834 -1.51676 0
M  V30 29653 C 2794.09 -0.588412 -1.49647 0
M  V30 29654 O 2795.28 -0.855918 -1.51722 0
M  V30 29655 C 2792.42 -1.77204 -2.91224 0
M  V30 29656 H 2793.61 -2.679 -1.34795 0
M  V30 29657 H 2791.16 -1.41268 -0.668805 0
M  V30 29658 H 2791.9 -0.829418 -3.13514 0
M  V30 29659 H 2791.68 -2.59319 -2.94102 0
M  V30 29660 H 2793.17 -1.94921 -3.69318 0
M  V30 29661 N 2793.61 0.695578 -1.41419 0
M  V30 29662 C 2794.56 1.83082 -1.43471 0
M  V30 29663 C 2795.55 1.66488 -0.312748 0
M  V30 29664 O 2796.76 1.73349 -0.484775 0
M  V30 29665 H 2793.13 0.603317 -0.448902 0
M  V30 29666 H 2795.1 1.78469 -2.39147 0
M  V30 29667 C 2793.85 3.21101 -1.33376 0
M  V30 29668 H 2793.17 3.34486 -2.18995 0
M  V30 29669 H 2794.61 4.00613 -1.38872 0
M  V30 29670 C 2793.07 3.36868 -0.0461076 0
M  V30 29671 O 2793.6 3.91276 0.909189 0
M  V30 29672 N 2791.81 2.90585 0.0299712 0
M  V30 29673 H 2791.36 2.46496 -0.748173 0
M  V30 29674 H 2791.31 3.01512 0.890938 0
M  V30 29675 N 2795.09 1.27247 0.929833 0
M  V30 29676 C 2796.33 1.1346 1.67729 0
M  V30 29677 C 2796.66 -0.319965 1.9185 0
M  V30 29678 O 2795.92 -1.25061 1.50526 0
M  V30 29679 C 2796.22 1.8612 3.05113 0
M  V30 29680 C 2795.88 3.35983 3.0071 0
M  V30 29681 C 2794.54 3.7686 2.99216 0
M  V30 29682 C 2796.9 4.31615 2.9216 0
M  V30 29683 C 2794.22 5.11737 2.86953 0
M  V30 29684 C 2796.58 5.66547 2.81439 0
M  V30 29685 C 2795.24 6.0672 2.78294 0
M  V30 29686 H 2794.51 0.415179 0.613765 0
M  V30 29687 H 2797.16 1.57829 1.08453 0
M  V30 29688 H 2795.46 1.34253 3.68081 0
M  V30 29689 H 2797.16 1.72882 3.61819 0
M  V30 29690 H 2793.75 3.03473 3.02658 0
M  V30 29691 H 2797.93 4.01008 2.92414 0
M  V30 29692 H 2793.19 5.42011 2.82903 0
M  V30 29693 H 2797.36 6.40322 2.73789 0
M  V30 29694 H 2794.99 7.11186 2.68548 0
M  V30 29695 N 2796.57 -1.13603 1.09235 0
M  V30 29696 C 2797.51 -2.18953 0.72996 0
M  V30 29697 C 2798.48 -1.63586 -0.287887 0
M  V30 29698 O 2799.67 -1.90041 -0.16997 0
M  V30 29699 C 2796.81 -3.44754 0.154549 0
M  V30 29700 C 2795.92 -4.14232 1.2262 0
M  V30 29701 C 2795.06 -5.27642 0.61375 0
M  V30 29702 C 2794.09 -5.88967 1.66684 0
M  V30 29703 N 2793.23 -6.93813 1.07557 0
M  V30 29704 H 2798.07 -2.49299 1.63261 0
M  V30 29705 H 2795.61 -1.22411 0.815715 0
M  V30 29706 H 2797.57 -4.16735 -0.19685 0
M  V30 29707 H 2796.2 -3.14864 -0.711377 0
M  V30 29708 H 2795.25 -3.40554 1.69491 0
M  V30 29709 H 2796.56 -4.55895 2.02388 0
M  V30 29710 H 2795.71 -6.06333 0.211082 0
M  V30 29711 H 2794.45 -4.87224 -0.215498 0
M  V30 29712 H 2793.46 -5.08974 2.07908 0
M  V30 29713 H 2794.68 -6.31459 2.49872 0
M  V30 29714 H 2792.63 -6.55454 0.267567 0
M  V30 29715 H 2792.55 -7.34007 1.81024 0
M  V30 29716 H 2793.81 -7.76359 0.699042 0
M  V30 29717 N 2798.04 -0.879253 -1.30793 0
M  V30 29718 C 2799.01 -0.346716 -2.26562 0
M  V30 29719 C 2800.01 0.50757 -1.52579 0
M  V30 29720 O 2801.2 0.315545 -1.71318 0
M  V30 29721 C 2798.33 0.506552 -3.37116 0
M  V30 29722 H 2799.52 -1.19228 -2.75181 0
M  V30 29723 H 2797.07 -0.655623 -1.41885 0
M  V30 29724 H 2797.81 1.37294 -2.93804 0
M  V30 29725 H 2797.59 -0.105287 -3.91959 0
M  V30 29726 H 2799.08 0.87112 -4.08413 0
M  V30 29727 N 2799.52 1.44037 -0.639624 0
M  V30 29728 C 2800.43 2.3452 0.0611965 0
M  V30 29729 C 2801.45 1.53107 0.82669 0
M  V30 29730 O 2802.62 1.85807 0.777027 0
M  V30 29731 C 2799.69 3.31206 1.02486 0
M  V30 29732 C 2798.75 4.28525 0.257804 0
M  V30 29733 C 2797.98 5.20592 1.17557 0
M  V30 29734 O 2798.21 5.16776 2.41452 0
M  V30 29735 O 2797.14 5.98322 0.655302 0
M  V30 29736 H 2800.97 2.95915 -0.683232 0
M  V30 29737 H 2798.55 1.43951 -0.399809 0
M  V30 29738 H 2800.43 3.90697 1.57905 0
M  V30 29739 H 2799.11 2.72333 1.74975 0
M  V30 29740 H 2798.01 3.72555 -0.339632 0
M  V30 29741 H 2799.35 4.90342 -0.42724 0
M  V30 29742 N 2801 0.380691 1.52933 0
M  V30 29743 C 2802.42 0.030271 1.59571 0
M  V30 29744 C 2802.62 -1.45391 1.39512 0
M  V30 29745 O 2801.67 -2.21739 1.20781 0
M  V30 29746 C 2802.98 0.499743 2.96518 0
M  V30 29747 C 2804.53 0.455259 3.09671 0
M  V30 29748 C 2805.01 0.900782 4.49054 0
M  V30 29749 N 2806.5 0.856447 4.55213 0
M  V30 29750 C 2807.23 1.17269 5.6128 0
M  V30 29751 N 2806.73 1.55897 6.75032 0
M  V30 29752 N 2808.52 1.0945 5.51341 0
M  V30 29753 H 2800.67 1.34703 1.64222 0
M  V30 29754 H 2802.94 0.551568 0.771023 0
M  V30 29755 H 2802.64 1.536 3.16386 0
M  V30 29756 H 2802.52 -0.105723 3.77052 0
M  V30 29757 H 2804.9 -0.571898 2.89505 0
M  V30 29758 H 2804.98 1.09642 2.31111 0
M  V30 29759 H 2804.63 1.92613 4.6996 0
M  V30 29760 H 2804.56 0.236721 5.26068 0
M  V30 29761 H 2807.05 0.572079 3.73545 0
M  V30 29762 H 2807.36 1.78413 7.51923 0
M  V30 29763 H 2805.71 1.59776 6.76385 0
M  V30 29764 H 2808.9 0.791794 4.61355 0
M  V30 29765 H 2809.07 1.34428 6.33903 0
M  V30 29766 N 2802.48 -1.57214 0.110268 0
M  V30 29767 C 2803.72 -1.95181 -0.55065 0
M  V30 29768 C 2804.06 -0.993151 -1.66884 0
M  V30 29769 O 2803.33 -0.0288249 -1.94479 0
M  V30 29770 C 2803.61 -3.43157 -1.09157 0
M  V30 29771 C 2803.47 -4.49794 0.0225989 0
M  V30 29772 C 2804.79 -3.92782 -1.98521 0
M  V30 29773 H 2801.91 -0.709711 -0.198694 0
M  V30 29774 H 2804.55 -1.89106 0.184057 0
M  V30 29775 H 2802.7 -3.48465 -1.71769 0
M  V30 29776 H 2804.37 -4.5659 0.657524 0
M  V30 29777 H 2802.61 -4.28326 0.686943 0
M  V30 29778 H 2803.28 -5.50571 -0.396963 0
M  V30 29779 H 2805.76 -3.89723 -1.45793 0
M  V30 29780 H 2804.64 -4.96857 -2.33289 0
M  V30 29781 H 2804.9 -3.32963 -2.90841 0
M  V30 29782 N 2803.96 0.163482 -1.5675 0
M  V30 29783 C 2805.2 0.877179 -1.81627 0
M  V30 29784 C 2805.52 1.8307 -0.688823 0
M  V30 29785 O 2806.72 2.58734 -0.822743 0
M  V30 29786 C 2805.18 1.6104 -3.21861 0
M  V30 29787 C 2804.79 0.700118 -4.42496 0
M  V30 29788 C 2806.53 2.31185 -3.56025 0
M  V30 29789 C 2804.44 1.43402 -5.73751 0
M  V30 29790 H 2803.37 0.3313 -0.677316 0
M  V30 29791 H 2806.02 0.130028 -1.83039 0
M  V30 29792 H 2804.4 2.40258 -3.14789 0
M  V30 29793 H 2805.58 -0.0556659 -4.60766 0
M  V30 29794 H 2803.89 0.107916 -4.1626 0
M  V30 29795 H 2806.49 2.86702 -4.51338 0
M  V30 29796 H 2806.83 3.06897 -2.81283 0
M  V30 29797 H 2807.36 1.58902 -3.64685 0
M  V30 29798 H 2804.1 0.719072 -6.51544 0
M  V30 29799 H 2803.62 2.16293 -5.59444 0
M  V30 29800 H 2805.3 1.97939 -6.15978 0
M  V30 29801 N 2805.43 1.51555 0.432299 0
M  V30 29802 C 2806.71 1.55017 1.19285 0
M  V30 29803 C 2807.09 0.317412 2.087 0
M  V30 29804 O 2806.44 -0.697204 2.17604 0
M  V30 29805 C 2806.65 2.86683 1.99032 0
M  V30 29806 C 2808 3.38822 2.55901 0
M  V30 29807 O 2809.02 2.88267 2.09238 0
M  V30 29808 O 2807.88 4.27044 3.41021 0
M  V30 29809 H 2804.97 0.623451 0.543358 0
M  V30 29810 H 2807.52 1.63871 0.440959 0
M  V30 29811 H 2806.29 3.67862 1.3339 0
M  V30 29812 H 2805.91 2.81015 2.81276 0
M  V30 29813 N 2806.91 -0.688069 1.41786 0
M  V30 29814 C 2808.32 -1.26825 1.37012 0
M  V30 29815 C 2808.67 -1.96118 0.0568695 0
M  V30 29816 O 2807.8 -1.99232 -0.844715 0
M  V30 29817 C 2808.39 -2.30643 2.48172 0
M  V30 29818 C 2806.95 -2.8422 2.46771 0
M  V30 29819 C 2806.1 -1.58357 2.27636 0
M  V30 29820 H 2809.05 -0.482324 1.51193 0
M  V30 29821 H 2809.07 -3.12096 2.17661 0
M  V30 29822 H 2808.58 -1.80182 3.43738 0
M  V30 29823 H 2806.68 -3.38837 1.54984 0
M  V30 29824 H 2806.8 -3.34139 3.43348 0
M  V30 29825 H 2805.16 -1.84442 1.75651 0
M  V30 29826 H 2805.94 -1.09881 3.2524 0
M  V30 29827 N 2808.39 -1.27739 -0.923072 0
M  V30 29828 C 2809.81 -1.05243 -1.19983 0
M  V30 29829 C 2810.01 0.211095 -2.00391 0
M  V30 29830 O 2809.06 0.915325 -2.35325 0
M  V30 29831 C 2810.37 -2.29454 -1.94348 0
M  V30 29832 C 2811.92 -2.34539 -2.07268 0
M  V30 29833 C 2812.4 -3.58492 -2.8504 0
M  V30 29834 N 2813.89 -3.59077 -2.92606 0
M  V30 29835 C 2814.62 -4.5166 -3.53258 0
M  V30 29836 N 2814.12 -5.54552 -4.15264 0
M  V30 29837 N 2815.91 -4.39274 -3.50706 0
M  V30 29838 H 2808.06 -2.08863 -0.386005 0
M  V30 29839 H 2810.33 -0.918821 -0.233391 0
M  V30 29840 H 2810.03 -3.21455 -1.42687 0
M  V30 29841 H 2809.91 -2.35135 -2.94943 0
M  V30 29842 H 2812.29 -1.43042 -2.58115 0
M  V30 29843 H 2812.37 -2.32859 -1.05879 0
M  V30 29844 H 2812.02 -4.50329 -2.34876 0
M  V30 29845 H 2811.95 -3.57425 -3.86724 0
M  V30 29846 H 2814.44 -2.84667 -2.48542 0
M  V30 29847 H 2814.75 -6.21356 -4.59496 0
M  V30 29848 H 2813.1 -5.58389 -4.13796 0
M  V30 29849 H 2816.29 -3.58098 -3.01469 0
M  V30 29850 H 2816.46 -5.11617 -3.97684 0
M  V30 29851 N 2809.87 1.13022 -1.09836 0
M  V30 29852 C 2811.28 1.36387 -0.828899 0
M  V30 29853 C 2811.48 1.93714 0.554722 0
M  V30 29854 O 2810.54 2.15933 1.30879 0
M  V30 29855 C 2811.85 2.31127 -1.92356 0
M  V30 29856 C 2813.4 2.44732 -1.95129 0
M  V30 29857 C 2813.88 3.42782 -3.03751 0
M  V30 29858 N 2815.37 3.50335 -3.03018 0
M  V30 29859 C 2816.1 4.26095 -3.83707 0
M  V30 29860 N 2815.6 5.04973 -4.74315 0
M  V30 29861 N 2817.39 4.21438 -3.71949 0
M  V30 29862 H 2809.54 0.741655 -1.99031 0
M  V30 29863 H 2811.81 0.388888 -0.864564 0
M  V30 29864 H 2811.51 1.96167 -2.9191 0
M  V30 29865 H 2811.39 3.31186 -1.80542 0
M  V30 29866 H 2813.77 2.78975 -0.962118 0
M  V30 29867 H 2813.85 1.44582 -2.11021 0
M  V30 29868 H 2813.5 3.09269 -4.02884 0
M  V30 29869 H 2813.43 4.42747 -2.85102 0
M  V30 29870 H 2815.92 2.94058 -2.37357 0
M  V30 29871 H 2816.23 5.60099 -5.32456 0
M  V30 29872 H 2814.58 5.04191 -4.78348 0
M  V30 29873 H 2817.77 3.58895 -3.0052 0
M  V30 29874 H 2817.94 4.80227 -4.3507 0
M  V30 29875 N 2811.35 0.886177 1.30325 0
M  V30 29876 C 2812.59 0.511946 1.97885 0
M  V30 29877 C 2812.95 -0.921915 1.68418 0
M  V30 29878 O 2814.15 -1.40233 2.29321 0
M  V30 29879 C 2812.42 0.780506 3.48773 0
M  V30 29880 S 2813.98 0.508558 4.35843 0
M  V30 29881 H 2810.8 0.19044 0.685021 0
M  V30 29882 H 2813.4 1.1457 1.58411 0
M  V30 29883 H 2812.11 1.82255 3.67711 0
M  V30 29884 H 2811.64 0.134353 3.93171 0
M  V30 29885 H 2813.65 -0.652304 4.91894 0
M  V30 29886 N 2812.82 -1.43695 0.647253 0
M  V30 29887 C 2813.76 -2.27991 -0.0976059 0
M  V30 29888 C 2814.74 -1.39481 -0.835685 0
M  V30 29889 O 2815.92 -1.68924 -0.836479 0
M  V30 29890 C 2813.05 -3.18767 -1.14479 0
M  V30 29891 C 2812.09 -4.23495 -0.505428 0
M  V30 29892 S 2812.93 -5.30684 0.716565 0
M  V30 29893 C 2814.08 -6.25028 -0.330229 0
M  V30 29894 H 2814.31 -2.90817 0.617468 0
M  V30 29895 H 2811.85 -1.48119 0.435907 0
M  V30 29896 H 2813.81 -3.71613 -1.74397 0
M  V30 29897 H 2812.47 -2.5513 -1.83214 0
M  V30 29898 H 2811.66 -4.87088 -1.29464 0
M  V30 29899 H 2811.26 -3.73995 0.0195034 0
M  V30 29900 H 2813.55 -6.66821 -1.19816 0
M  V30 29901 H 2814.5 -7.07583 0.270533 0
M  V30 29902 H 2814.9 -5.60589 -0.663361 0
M  V30 29903 N 2814.3 -0.388796 -1.52729 0
M  V30 29904 C 2815.25 0.446599 -2.26438 0
M  V30 29905 C 2816.22 1.05822 -1.28027 0
M  V30 29906 O 2817.4 1.08634 -1.56854 0
M  V30 29907 C 2814.54 1.56823 -3.0741 0
M  V30 29908 C 2813.66 0.979515 -4.20749 0
M  V30 29909 C 2812.79 2.07216 -4.89117 0
M  V30 29910 C 2811.83 1.45931 -5.9445 0
M  V30 29911 N 2810.97 2.49124 -6.56416 0
M  V30 29912 H 2815.81 -0.188422 -2.97404 0
M  V30 29913 H 2813.35 -0.104751 -1.46727 0
M  V30 29914 H 2815.3 2.22927 -3.52646 0
M  V30 29915 H 2813.93 2.17357 -2.38654 0
M  V30 29916 H 2812.99 0.208085 -3.7983 0
M  V30 29917 H 2814.3 0.49166 -4.96371 0
M  V30 29918 H 2813.45 2.81091 -5.37655 0
M  V30 29919 H 2812.19 2.59361 -4.13017 0
M  V30 29920 H 2811.2 0.705798 -5.45251 0
M  V30 29921 H 2812.42 0.945814 -6.72481 0
M  V30 29922 H 2810.37 3.00439 -5.83157 0
M  V30 29923 H 2810.28 2.05092 -7.27649 0
M  V30 29924 H 2811.55 3.22631 -7.09598 0
M  V30 29925 N 2815.78 1.57153 -0.118604 0
M  V30 29926 C 2817.19 1.82213 0.406838 0
M  V30 29927 C 2817.54 1.03574 1.66634 0
M  V30 29928 O 2816.67 0.272209 2.14681 0
M  V30 29929 C 2817.26 3.3051 0.744891 0
M  V30 29930 C 2815.82 3.56252 1.21497 0
M  V30 29931 C 2814.97 2.76398 0.223462 0
M  V30 29932 H 2817.92 1.54933 -0.34374 0
M  V30 29933 H 2817.94 3.45117 1.60234 0
M  V30 29934 H 2817.45 3.87719 -0.171979 0
M  V30 29935 H 2815.55 3.044 2.14875 0
M  V30 29936 H 2815.67 4.64831 1.16057 0
M  V30 29937 H 2814.03 2.44592 0.710417 0
M  V30 29938 H 2814.81 3.36366 -0.686498 0
M  V30 29939 N 2817.26 -0.155167 1.56834 0
M  V30 29940 C 2818.5 -0.870435 1.8317 0
M  V30 29941 C 2818.84 -1.81185 0.698961 0
M  V30 29942 O 2818.11 -1.92204 -0.298001 0
M  V30 29943 C 2818.4 -1.65205 3.19968 0
M  V30 29944 C 2818.25 -0.732666 4.43793 0
M  V30 29945 C 2819.57 -2.6163 3.5389 0
M  V30 29946 H 2816.69 -0.314995 0.666294 0
M  V30 29947 H 2819.33 -0.135954 1.89513 0
M  V30 29948 H 2817.48 -2.27819 3.14691 0
M  V30 29949 H 2819.15 -0.118154 4.61149 0
M  V30 29950 H 2817.39 -0.0417143 4.3378 0
M  V30 29951 H 2818.06 -1.31542 5.36098 0
M  V30 29952 H 2820.54 -2.09136 3.59724 0
M  V30 29953 H 2819.42 -3.13374 4.50653 0
M  V30 29954 H 2819.68 -3.426 2.79424 0
M  V30 29955 N 2818.74 -1.51782 -0.424256 0
M  V30 29956 C 2819.99 -1.64328 -1.16958 0
M  V30 29957 C 2820.3 -0.371783 -1.92034 0
M  V30 29958 O 2821.5 -0.376807 -2.68872 0
M  V30 29959 C 2819.96 -2.90265 -2.12777 0
M  V30 29960 C 2819.57 -4.24467 -1.43288 0
M  V30 29961 C 2821.31 -3.12171 -2.87662 0
M  V30 29962 C 2819.22 -5.41543 -2.37667 0
M  V30 29963 H 2818.15 -0.612101 -0.440282 0
M  V30 29964 H 2820.8 -1.7826 -0.4354 0
M  V30 29965 H 2819.18 -2.69997 -2.89685 0
M  V30 29966 H 2820.36 -4.55164 -0.718484 0
M  V30 29967 H 2818.67 -4.08544 -0.805046 0
M  V30 29968 H 2821.27 -3.96815 -3.58388 0
M  V30 29969 H 2821.61 -2.25782 -3.49754 0
M  V30 29970 H 2822.14 -3.32841 -2.17857 0
M  V30 29971 H 2818.88 -6.30232 -1.80244 0
M  V30 29972 H 2818.4 -5.15205 -3.07123 0
M  V30 29973 H 2820.08 -5.74017 -2.98519 0
M  V30 29974 N 2820.21 0.68054 -1.42149 0
M  V30 29975 C 2821.14 1.80636 -1.47963 0
M  V30 29976 C 2822.13 1.66733 -0.336757 0
M  V30 29977 O 2823.31 1.86241 -0.550279 0
M  V30 29978 C 2820.44 3.1889 -1.37574 0
M  V30 29979 C 2819.39 3.47519 -2.49829 0
M  V30 29980 C 2818.72 4.85287 -2.245 0
M  V30 29981 C 2820.02 3.44987 -3.9215 0
M  V30 29982 H 2821.71 1.76028 -2.42187 0
M  V30 29983 H 2819.26 0.845461 -1.16567 0
M  V30 29984 H 2821.21 3.97376 -1.4025 0
M  V30 29985 H 2819.94 3.24161 -0.398413 0
M  V30 29986 H 2818.6 2.71391 -2.4646 0
M  V30 29987 H 2818.24 4.87202 -1.25074 0
M  V30 29988 H 2817.94 5.05406 -2.99731 0
M  V30 29989 H 2819.47 5.66065 -2.28916 0
M  V30 29990 H 2820.88 4.13452 -3.97153 0
M  V30 29991 H 2819.28 3.7664 -4.67186 0
M  V30 29992 H 2820.35 2.43669 -4.1923 0
M  V30 29993 N 2821.69 1.28226 0.916285 0
M  V30 29994 C 2822.92 1.18076 1.69899 0
M  V30 29995 C 2823.34 -0.260935 1.86988 0
M  V30 29996 O 2822.69 -1.17661 1.39507 0
M  V30 29997 C 2822.74 1.87207 3.0925 0
M  V30 29998 O 2822.46 3.25745 2.92954 0
M  V30 29999 C 2823.97 1.83327 4.03617 0
M  V30 30000 H 2821.19 0.409995 0.531173 0
M  V30 30001 H 2823.73 1.69305 1.147 0
M  V30 30002 H 2821.88 1.39855 3.61275 0
M  V30 30003 H 2822.3 3.6033 3.81133 0
M  V30 30004 H 2823.77 2.36291 4.98869 0
M  V30 30005 H 2824.25 0.805083 4.31758 0
M  V30 30006 H 2824.86 2.30346 3.5752 0
M  V30 30007 N 2823.17 -1.12438 1.10433 0
M  V30 30008 C 2824.45 -1.80281 0.758829 0
M  V30 30009 C 2824.83 -1.97149 -0.754692 0
M  V30 30010 O 2824.18 -1.54782 -1.68091 0
M  V30 30011 C 2824.39 -3.14649 1.50987 0
M  V30 30012 C 2825.73 -3.89847 1.68239 0
M  V30 30013 O 2826.76 -3.24305 1.47325 0
M  V30 30014 O 2825.62 -5.07433 2.02914 0
M  V30 30015 H 2822.71 -0.780371 0.27377 0
M  V30 30016 H 2825.26 -1.19273 1.20715 0
M  V30 30017 H 2824.03 -2.97662 2.53994 0
M  V30 30018 H 2823.65 -3.83364 1.05441 0
M  V30 30019 N 2824.65 -0.893076 -1.29853 0
M  V30 30020 C 2825.9 -0.514601 -1.95439 0
M  V30 30021 C 2826.22 0.940929 -1.70797 0
M  V30 30022 O 2825.49 1.66262 -1.03604 0
M  V30 30023 H 2824.07 -0.187315 -0.723133 0
M  V30 30024 H 2826.73 -1.13792 -1.58232 0
M  V30 30025 H 2825.83 -0.691634 -3.0434 0
M  V30 30026 N 2826.13 1.4335 -0.654865 0
M  V30 30027 C 2827.04 2.34572 0.0363191 0
M  V30 30028 C 2828.05 1.53975 0.810405 0
M  V30 30029 O 2829.23 1.86621 0.757275 0
M  V30 30030 C 2826.29 3.32274 0.989675 0
M  V30 30031 C 2825.36 4.28775 0.212339 0
M  V30 30032 C 2824.59 5.2181 1.12028 0
M  V30 30033 O 2824.81 5.19307 2.35958 0
M  V30 30034 O 2823.75 5.98984 0.591805 0
M  V30 30035 H 2827.57 2.95174 -0.714579 0
M  V30 30036 H 2825.16 1.43519 -0.415055 0
M  V30 30037 H 2827.04 3.9235 1.53752 0
M  V30 30038 H 2825.71 2.74174 1.72077 0
M  V30 30039 H 2824.62 3.72174 -0.379127 0
M  V30 30040 H 2825.95 4.89861 -0.479224 0
M  V30 30041 N 2827.61 0.39689 1.52521 0
M  V30 30042 C 2828.52 -0.44174 2.30404 0
M  V30 30043 C 2829.53 -1.06466 1.37626 0
M  V30 30044 O 2830.71 -1.06883 1.70699 0
M  V30 30045 C 2827.77 -1.5498 3.10132 0
M  V30 30046 C 2826.83 -0.951206 4.18629 0
M  V30 30047 C 2826.07 -2.00646 4.94547 0
M  V30 30048 O 2826.29 -3.22272 4.70634 0
M  V30 30049 O 2825.22 -1.61952 5.79703 0
M  V30 30050 H 2829.05 0.192946 3.03086 0
M  V30 30051 H 2826.63 0.160406 1.48536 0
M  V30 30052 H 2828.52 -2.19335 3.5982 0
M  V30 30053 H 2827.19 -2.16931 2.40255 0
M  V30 30054 H 2826.1 -0.270707 3.73119 0
M  V30 30055 H 2827.43 -0.375801 4.90763 0
M  V30 30056 N 2829.08 -1.57088 0.126936 0
M  V30 30057 C 2830.5 -1.5794 -0.229614 0
M  V30 30058 C 2830.7 -1.14013 -1.66143 0
M  V30 30059 O 2829.76 -0.831161 -2.38428 0
M  V30 30060 C 2831.07 -3.00698 0.0109177 0
M  V30 30061 C 2832.62 -3.12953 -0.054363 0
M  V30 30062 C 2833.09 -4.57725 0.158577 0
M  V30 30063 N 2834.58 -4.63081 0.104817 0
M  V30 30064 C 2835.32 -5.72879 0.244371 0
M  V30 30065 N 2834.81 -6.91398 0.440537 0
M  V30 30066 N 2836.61 -5.61801 0.183385 0
M  V30 30067 H 2828.76 -1.8394 1.06206 0
M  V30 30068 H 2831.02 -0.850453 0.418849 0
M  V30 30069 H 2830.73 -3.37152 1.00108 0
M  V30 30070 H 2830.6 -3.70314 -0.717447 0
M  V30 30071 H 2832.99 -2.76352 -1.03506 0
M  V30 30072 H 2833.07 -2.45864 0.70601 0
M  V30 30073 H 2832.71 -4.95026 1.13628 0
M  V30 30074 H 2832.64 -5.22915 -0.621878 0
M  V30 30075 H 2835.13 -3.77876 -0.0429634 0
M  V30 30076 H 2835.45 -7.70927 0.537672 0
M  V30 30077 H 2833.79 -6.93364 0.476609 0
M  V30 30078 H 2836.98 -4.6809 0.0310384 0
M  V30 30079 H 2837.16 -6.47325 0.295585 0
M  V30 30080 N 2830.56 0.146848 -1.56914 0
M  V30 30081 C 2831.81 0.860708 -1.83629 0
M  V30 30082 C 2832.14 1.80812 -0.70856 0
M  V30 30083 O 2831.42 1.92359 0.287804 0
M  V30 30084 C 2831.7 1.63506 -3.20839 0
M  V30 30085 C 2831.55 0.709121 -4.44175 0
M  V30 30086 C 2832.87 2.59749 -3.55272 0
M  V30 30087 H 2829.99 0.311457 -0.667955 0
M  V30 30088 H 2832.63 0.125902 -1.89582 0
M  V30 30089 H 2830.78 2.26147 -3.15895 0
M  V30 30090 H 2832.45 0.093697 -4.61205 0
M  V30 30091 H 2830.7 0.0187093 -4.33796 0
M  V30 30092 H 2831.37 1.28697 -5.36788 0
M  V30 30093 H 2833.84 2.07226 -3.60828 0
M  V30 30094 H 2832.72 3.10979 -4.52309 0
M  V30 30095 H 2832.98 3.41113 -2.81237 0
M  V30 30096 N 2832.04 1.52005 0.4162 0
M  V30 30097 C 2833.29 1.64946 1.16085 0
M  V30 30098 C 2833.6 0.381962 1.91834 0
M  V30 30099 O 2834.81 0.39106 2.68669 0
M  V30 30100 C 2833.26 2.9139 2.11235 0
M  V30 30101 C 2832.87 4.25221 1.41035 0
M  V30 30102 C 2834.62 3.13693 2.86002 0
M  V30 30103 C 2832.52 5.42795 2.34792 0
M  V30 30104 H 2831.45 0.614427 0.43703 0
M  V30 30105 H 2834.1 1.78488 0.42594 0
M  V30 30106 H 2832.49 2.7153 2.88249 0
M  V30 30107 H 2833.66 4.55539 0.694336 0
M  V30 30108 H 2831.97 4.08965 0.783368 0
M  V30 30109 H 2834.57 3.9871 3.56279 0
M  V30 30110 H 2834.91 2.27634 3.48552 0
M  V30 30111 H 2835.45 3.33991 2.16089 0
M  V30 30112 H 2832.19 6.31179 1.76899 0
M  V30 30113 H 2831.71 5.16826 3.04386 0
M  V30 30114 H 2833.39 5.75592 2.9547 0
M  V30 30115 N 2833.52 -0.672992 1.42508 0
M  V30 30116 C 2834.45 -1.79848 1.48919 0
M  V30 30117 C 2835.43 -1.66552 0.345595 0
M  V30 30118 O 2836.61 -1.85946 0.560148 0
M  V30 30119 C 2833.74 -3.18156 1.39263 0
M  V30 30120 C 2832.7 -3.46189 2.51668 0
M  V30 30121 C 2832.02 -4.8409 2.2707 0
M  V30 30122 C 2833.32 -3.42902 3.93974 0
M  V30 30123 H 2835.02 -1.74741 2.43117 0
M  V30 30124 H 2832.56 -0.839267 1.17014 0
M  V30 30125 H 2834.52 -3.96627 1.42356 0
M  V30 30126 H 2833.24 -3.23945 0.415599 0
M  V30 30127 H 2831.9 -2.7008 2.47896 0
M  V30 30128 H 2831.55 -4.86532 1.27656 0
M  V30 30129 H 2831.25 -5.03809 3.02407 0
M  V30 30130 H 2832.77 -5.64843 2.31915 0
M  V30 30131 H 2834.19 -4.1134 3.9934 0
M  V30 30132 H 2832.58 -3.74157 4.69176 0
M  V30 30133 H 2833.65 -2.41442 4.20516 0
M  V30 30134 N 2835 -1.2871 -0.909472 0
M  V30 30135 C 2835.96 -1.13019 -1.99397 0
M  V30 30136 C 2836.96 -0.0685643 -1.60654 0
M  V30 30137 O 2838.15 -0.314701 -1.71334 0
M  V30 30138 C 2835.28 -0.726144 -3.33077 0
M  V30 30139 H 2836.47 -2.09341 -2.14747 0
M  V30 30140 H 2834.03 -1.11758 -1.0927 0
M  V30 30141 H 2834.76 0.237653 -3.23428 0
M  V30 30142 H 2834.55 -1.49308 -3.6256 0
M  V30 30143 H 2836.04 -0.639131 -4.1268 0
M  V30 30144 N 2836.47 1.1185 -1.11028 0
M  V30 30145 C 2837.72 1.83133 -0.854801 0
M  V30 30146 C 2838.04 1.84836 0.621342 0
M  V30 30147 O 2837.31 1.31587 1.45127 0
M  V30 30148 H 2835.89 0.678151 -0.313241 0
M  V30 30149 H 2838.55 1.35409 -1.4018 0
M  V30 30150 H 2837.65 2.87133 -1.22316 0
M  V30 30151 N 2837.95 0.89995 1.29378 0
M  V30 30152 C 2839.36 0.574459 1.77643 0
M  V30 30153 C 2839.71 -0.909898 1.73825 0
M  V30 30154 O 2838.84 -1.71145 1.32432 0
M  V30 30155 C 2839.43 1.03601 3.22571 0
M  V30 30156 C 2837.99 0.761675 3.68613 0
M  V30 30157 C 2837.14 1.21056 2.49481 0
M  V30 30158 H 2840.09 1.08265 1.16036 0
M  V30 30159 H 2840.11 0.371404 3.78683 0
M  V30 30160 H 2839.62 2.11637 3.25317 0
M  V30 30161 H 2837.72 -0.306062 3.71341 0
M  V30 30162 H 2837.84 1.35973 4.594 0
M  V30 30163 H 2836.2 0.629558 2.46797 0
M  V30 30164 H 2836.98 2.29898 2.54955 0
M  V30 30165 N 2839.43 -1.43001 0.662458 0
M  V30 30166 C 2840.36 -2.28082 -0.0734189 0
M  V30 30167 C 2841.34 -1.4036 -0.820845 0
M  V30 30168 O 2842.53 -1.69802 -0.818516 0
M  V30 30169 C 2839.65 -3.19963 -1.11091 0
M  V30 30170 C 2838.7 -4.24007 -0.460482 0
M  V30 30171 S 2839.53 -5.29894 0.77281 0
M  V30 30172 C 2840.69 -6.25343 -0.263918 0
M  V30 30173 H 2840.92 -2.90146 0.648278 0
M  V30 30174 H 2838.45 -1.47648 0.451592 0
M  V30 30175 H 2840.41 -3.73442 -1.70446 0
M  V30 30176 H 2839.07 -2.57059 -1.80498 0
M  V30 30177 H 2838.27 -4.88434 -1.2429 0
M  V30 30178 H 2837.87 -3.73953 0.0591695 0
M  V30 30179 H 2840.16 -6.68054 -1.12737 0
M  V30 30180 H 2841.1 -7.07256 0.345567 0
M  V30 30181 H 2841.51 -5.61261 -0.603866 0
M  V30 30182 N 2840.91 -0.404973 -1.52308 0
M  V30 30183 C 2842.32 0.0655598 -1.86585 0
M  V30 30184 C 2842.67 1.44798 -1.32393 0
M  V30 30185 O 2841.8 2.0604 -0.661536 0
M  V30 30186 C 2842.39 0.125741 -3.38567 0
M  V30 30187 C 2840.95 0.5406 -3.72498 0
M  V30 30188 C 2840.1 -0.287535 -2.75805 0
M  V30 30189 H 2843.05 -0.622211 -1.45994 0
M  V30 30190 H 2843.07 0.941823 -3.6866 0
M  V30 30191 H 2842.58 -0.880539 -3.77979 0
M  V30 30192 H 2840.68 1.55367 -3.38662 0
M  V30 30193 H 2840.79 0.287872 -4.78234 0
M  V30 30194 H 2839.16 0.249517 -2.53475 0
M  V30 30195 H 2839.94 -1.29209 -3.18057 0
M  V30 30196 N 2842.39 1.57018 -0.135265 0
M  V30 30197 C 2843.63 1.96032 0.519529 0
M  V30 30198 C 2843.97 1.01958 1.65282 0
M  V30 30199 O 2843.24 0.0597611 1.94408 0
M  V30 30200 C 2843.52 3.4485 1.03684 0
M  V30 30201 C 2843.38 4.49701 -0.0941544 0
M  V30 30202 C 2844.7 3.9589 1.92247 0
M  V30 30203 H 2841.81 0.712782 0.187378 0
M  V30 30204 H 2844.46 1.8879 -0.214119 0
M  V30 30205 H 2842.61 3.51153 1.66203 0
M  V30 30206 H 2844.28 4.55486 -0.73008 0
M  V30 30207 H 2842.52 4.27179 -0.754999 0
M  V30 30208 H 2843.19 5.51133 0.309322 0
M  V30 30209 H 2845.67 3.91993 1.39574 0
M  V30 30210 H 2844.54 5.00506 2.25355 0
M  V30 30211 H 2844.81 3.37548 2.85507 0
M  V30 30212 N 2843.86 -0.138524 1.5699 0
M  V30 30213 C 2845.09 -0.864404 1.87978 0
M  V30 30214 C 2845.51 -1.7435 0.724403 0
M  V30 30215 O 2844.86 -1.79924 -0.305544 0
M  V30 30216 C 2844.92 -1.71409 3.18279 0
M  V30 30217 O 2844.64 -0.870412 4.29366 0
M  V30 30218 C 2846.14 -2.54682 3.62839 0
M  V30 30219 H 2843.36 -0.249517 0.622882 0
M  V30 30220 H 2845.9 -0.128769 2.04094 0
M  V30 30221 H 2844.06 -2.40269 3.03891 0
M  V30 30222 H 2844.47 -1.45457 5.03927 0
M  V30 30223 H 2845.94 -3.09862 4.56825 0
M  V30 30224 H 2846.42 -3.31122 2.88539 0
M  V30 30225 H 2847.03 -1.91098 3.7995 0
M  V30 30226 N 2845.34 -1.52224 -0.408133 0
M  V30 30227 C 2846.29 -1.72019 -1.49645 0
M  V30 30228 C 2847.28 -0.574095 -1.5031 0
M  V30 30229 O 2848.47 -0.8312 -1.56269 0
M  V30 30230 C 2845.6 -1.87517 -2.87563 0
M  V30 30231 C 2844.68 -3.08 -2.91542 0
M  V30 30232 N 2845.07 -4.3069 -2.65217 0
M  V30 30233 C 2843.37 -3.07854 -3.2271 0
M  V30 30234 C 2844.07 -5.12167 -2.7579 0
M  V30 30235 N 2843.05 -4.47436 -3.08711 0
M  V30 30236 H 2846.85 -2.64519 -1.28089 0
M  V30 30237 H 2844.37 -1.5027 -0.615853 0
M  V30 30238 H 2846.36 -1.99815 -3.65896 0
M  V30 30239 H 2845.02 -0.962169 -3.10117 0
M  V30 30240 H 2846.03 -4.59146 -2.39593 0
M  V30 30241 H 2842.71 -2.26295 -3.50852 0
M  V30 30242 H 2844.1 -6.19915 -2.59144 0
M  V30 30243 N 2846.82 0.665425 -1.42863 0
M  V30 30244 C 2848.05 1.45845 -1.47458 0
M  V30 30245 C 2848.47 1.87884 -0.0900642 0
M  V30 30246 O 2847.83 1.56601 0.913559 0
M  V30 30247 C 2847.88 2.6777 -2.41519 0
M  V30 30248 O 2846.98 3.66385 -1.89303 0
M  V30 30249 H 2846.32 0.43778 -0.499244 0
M  V30 30250 H 2848.85 0.815361 -1.87651 0
M  V30 30251 H 2848.86 3.15731 -2.58415 0
M  V30 30252 H 2847.54 2.36513 -3.42103 0
M  V30 30253 H 2846.11 3.25465 -1.82009 0
M  V30 30254 N 2848.3 1.29191 0.902633 0
M  V30 30255 C 2849.52 1.19992 1.69164 0
M  V30 30256 C 2849.95 -0.236462 1.86608 0
M  V30 30257 O 2849.31 -1.1708 1.38427 0
M  V30 30258 C 2849.35 1.91532 3.05529 0
M  V30 30259 O 2848.46 1.23036 3.93619 0
M  V30 30260 H 2847.8 0.415945 0.517577 0
M  V30 30261 H 2850.33 1.70708 1.12782 0
M  V30 30262 H 2850.34 1.99872 3.5569 0
M  V30 30263 H 2849.01 2.96008 2.92151 0
M  V30 30264 H 2847.59 1.22935 3.52053 0
M  V30 30265 N 2849.78 -1.1126 1.1162 0
M  V30 30266 C 2850.74 -2.15538 0.779485 0
M  V30 30267 C 2851.74 -1.59525 -0.202053 0
M  V30 30268 O 2852.93 -1.74185 0.0226663 0
M  V30 30269 C 2850.06 -3.40539 0.1568 0
M  V30 30270 H 2851.25 -2.46837 1.70328 0
M  V30 30271 H 2848.81 -1.26478 0.918321 0
M  V30 30272 H 2849.54 -3.14851 -0.77713 0
M  V30 30273 H 2849.33 -3.82476 0.863375 0
M  V30 30274 H 2850.82 -4.17553 -0.0625876 0
M  V30 30275 N 2851.25 -0.906798 -1.28899 0
M  V30 30276 C 2852.22 -0.394695 -2.25776 0
M  V30 30277 C 2853.22 0.475092 -1.53621 0
M  V30 30278 O 2854.41 0.279134 -1.71949 0
M  V30 30279 C 2851.54 0.43493 -3.38114 0
M  V30 30280 H 2852.73 -1.25038 -2.7259 0
M  V30 30281 H 2850.29 -0.685571 -1.40462 0
M  V30 30282 H 2851.02 1.31031 -2.9665 0
M  V30 30283 H 2850.81 -0.188403 -3.91647 0
M  V30 30284 H 2852.3 0.784293 -4.10169 0
M  V30 30285 N 2852.73 1.42648 -0.670032 0
M  V30 30286 C 2853.66 2.29145 0.0501343 0
M  V30 30287 C 2854.68 1.43423 0.770306 0
M  V30 30288 O 2855.87 1.67191 0.625259 0
M  V30 30289 C 2852.97 3.20737 1.09458 0
M  V30 30290 C 2852.14 4.35087 0.449183 0
M  V30 30291 C 2851.2 5.07433 1.39276 0
M  V30 30292 O 2850.22 5.62121 0.894898 0
M  V30 30293 N 2851.43 5.12501 2.72622 0
M  V30 30294 H 2854.19 2.91593 -0.692363 0
M  V30 30295 H 2851.75 1.53521 -0.514083 0
M  V30 30296 H 2853.74 3.66002 1.72698 0
M  V30 30297 H 2852.31 2.59774 1.73886 0
M  V30 30298 H 2851.53 3.92528 -0.362642 0
M  V30 30299 H 2852.82 5.088 -0.00063421 0
M  V30 30300 H 2852.22 4.69472 3.15614 0
M  V30 30301 H 2850.78 5.61428 3.31122 0
M  V30 30302 N 2854.21 0.413044 1.52091 0
M  V30 30303 C 2855.63 0.0641116 1.59471 0
M  V30 30304 C 2855.83 -1.42399 1.42565 0
M  V30 30305 O 2854.88 -2.19127 1.25457 0
M  V30 30306 C 2856.2 0.562526 2.95391 0
M  V30 30307 C 2857.74 0.520842 3.08636 0
M  V30 30308 C 2858.22 0.995831 4.47043 0
M  V30 30309 N 2859.71 0.952812 4.53294 0
M  V30 30310 C 2860.45 1.29148 5.58667 0
M  V30 30311 N 2859.94 1.7018 6.71573 0
M  V30 30312 N 2861.73 1.2112 5.48896 0
M  V30 30313 H 2853.89 1.38156 1.61328 0
M  V30 30314 H 2856.15 0.567798 0.75915 0
M  V30 30315 H 2855.85 1.60277 3.13056 0
M  V30 30316 H 2855.73 -0.0257212 3.77191 0
M  V30 30317 H 2858.12 -0.510361 2.90653 0
M  V30 30318 H 2858.2 1.14519 2.28733 0
M  V30 30319 H 2857.84 2.02538 4.65769 0
M  V30 30320 H 2857.77 0.348255 5.25447 0
M  V30 30321 H 2860.26 0.651184 3.72247 0
M  V30 30322 H 2860.57 1.94323 7.4797 0
M  V30 30323 H 2858.92 1.74087 6.72844 0
M  V30 30324 H 2862.11 0.889477 4.59571 0
M  V30 30325 H 2862.28 1.47844 6.30909 0
M  V30 30326 N 2855.69 -1.56945 0.143591 0
M  V30 30327 C 2857.11 -1.58174 -0.212849 0
M  V30 30328 C 2857.31 -1.15768 -1.64924 0
M  V30 30329 O 2856.36 -0.856402 -2.37533 0
M  V30 30330 C 2857.67 -3.0067 0.0428101 0
M  V30 30331 C 2859.22 -3.12993 -0.0211671 0
M  V30 30332 C 2859.7 -4.57531 0.207116 0
M  V30 30333 N 2861.19 -4.62944 0.153927 0
M  V30 30334 C 2861.92 -5.72588 0.305119 0
M  V30 30335 N 2861.42 -6.90892 0.513844 0
M  V30 30336 N 2863.21 -5.61575 0.242961 0
M  V30 30337 H 2855.36 -1.82804 1.08151 0
M  V30 30338 H 2857.63 -0.845962 0.427846 0
M  V30 30339 H 2857.33 -3.36071 1.03678 0
M  V30 30340 H 2857.21 -3.71054 -0.67813 0
M  V30 30341 H 2859.59 -2.77435 -1.00569 0
M  V30 30342 H 2859.67 -2.45101 0.732047 0
M  V30 30343 H 2859.32 -4.93793 1.18872 0
M  V30 30344 H 2859.25 -5.23545 -0.566381 0
M  V30 30345 H 2861.74 -3.779 -0.00288224 0
M  V30 30346 H 2862.05 -7.70314 0.619409 0
M  V30 30347 H 2860.4 -6.92819 0.550123 0
M  V30 30348 H 2863.59 -4.6803 0.0806838 0
M  V30 30349 H 2863.76 -6.46976 0.364226 0
M  V30 30350 N 2857.17 0.130197 -1.57061 0
M  V30 30351 C 2858.42 0.83828 -1.83895 0
M  V30 30352 C 2858.74 1.80938 -0.727078 0
M  V30 30353 O 2858.01 1.943 0.249893 0
M  V30 30354 H 2856.59 0.312561 -0.678465 0
M  V30 30355 H 2859.25 0.120189 -1.94529 0
M  V30 30356 H 2858.34 1.39033 -2.79421 0
M  V30 30357 N 2858.65 1.52438 0.400055 0
M  V30 30358 C 2860.06 1.41443 0.739334 0
M  V30 30359 C 2860.26 0.526087 1.94511 0
M  V30 30360 O 2859.32 -0.00468063 2.525 0
M  V30 30361 C 2860.63 2.84117 0.984774 0
M  V30 30362 C 2862.18 2.93521 1.08693 0
M  V30 30363 C 2862.65 4.37184 1.36507 0
M  V30 30364 N 2864.14 4.40459 1.43353 0
M  V30 30365 C 2864.88 5.48689 1.66518 0
M  V30 30366 N 2864.38 6.67022 1.87227 0
M  V30 30367 N 2866.17 5.36216 1.68607 0
M  V30 30368 H 2858.32 2.08723 -0.39352 0
M  V30 30369 H 2860.58 0.941143 -0.113817 0
M  V30 30370 H 2860.29 3.51284 0.171035 0
M  V30 30371 H 2860.16 3.25708 1.90248 0
M  V30 30372 H 2862.55 2.2653 1.89125 0
M  V30 30373 H 2862.63 2.55375 0.147387 0
M  V30 30374 H 2862.27 5.04738 0.565893 0
M  V30 30375 H 2862.2 4.72874 2.31728 0
M  V30 30376 H 2864.7 3.55164 1.29102 0
M  V30 30377 H 2865.01 7.45284 2.04379 0
M  V30 30378 H 2863.35 6.7007 1.84474 0
M  V30 30379 H 2866.54 4.42744 1.51972 0
M  V30 30380 H 2866.72 6.20635 1.86321 0
M  V30 30381 N 2860.12 -0.657839 1.43214 0
M  V30 30382 C 2861.37 -1.41362 1.43874 0
M  V30 30383 C 2861.69 -1.95492 0.0649324 0
M  V30 30384 O 2862.89 -2.71452 -0.0510319 0
M  V30 30385 C 2861.35 -2.55806 2.53162 0
M  V30 30386 C 2860.96 -2.08304 3.96628 0
M  V30 30387 C 2862.7 -3.33206 2.6301 0
M  V30 30388 C 2860.61 -3.19932 4.97391 0
M  V30 30389 H 2859.54 -0.531126 0.535183 0
M  V30 30390 H 2862.19 -0.710514 1.69186 0
M  V30 30391 H 2860.57 -3.28566 2.21043 0
M  V30 30392 H 2861.74 -1.42585 4.38185 0
M  V30 30393 H 2860.06 -1.43797 3.90783 0
M  V30 30394 H 2862.66 -4.16372 3.35468 0
M  V30 30395 H 2863 -3.80929 1.67925 0
M  V30 30396 H 2863.53 -2.67524 2.94407 0
M  V30 30397 H 2860.27 -2.77182 5.94012 0
M  V30 30398 H 2859.79 -3.84377 4.6045 0
M  V30 30399 H 2861.47 -3.85136 5.19884 0
M  V30 30400 N 2861.6 -1.29668 -0.895769 0
M  V30 30401 C 2862.85 -1.17634 -1.64337 0
M  V30 30402 C 2863.17 0.271609 -1.93099 0
M  V30 30403 O 2862.44 1.18516 -1.55984 0
M  V30 30404 H 2861.02 -0.432365 -0.609155 0
M  V30 30405 H 2863.68 -1.62648 -1.07386 0
M  V30 30406 H 2862.78 -1.72929 -2.59812 0
M  V30 30407 N 2863.08 1.10667 -1.12208 0
M  V30 30408 C 2864.5 1.34598 -0.857642 0
M  V30 30409 C 2864.7 1.94847 0.513507 0
M  V30 30410 O 2863.75 2.18661 1.26269 0
M  V30 30411 C 2865.06 2.26994 -1.97216 0
M  V30 30412 C 2866.61 2.40538 -2.00276 0
M  V30 30413 C 2867.09 3.36262 -3.10954 0
M  V30 30414 N 2868.58 3.43829 -3.10381 0
M  V30 30415 C 2869.31 4.1786 -3.92658 0
M  V30 30416 N 2868.81 4.94798 -4.84919 0
M  V30 30417 N 2870.6 4.13454 -3.80805 0
M  V30 30418 H 2862.75 0.699271 -2.00559 0
M  V30 30419 H 2865.02 0.370461 -0.872618 0
M  V30 30420 H 2864.72 1.89931 -2.96005 0
M  V30 30421 H 2864.6 3.27282 -1.87526 0
M  V30 30422 H 2866.98 2.76872 -1.02108 0
M  V30 30423 H 2867.06 1.40073 -2.1404 0
M  V30 30424 H 2866.71 3.00653 -4.09353 0
M  V30 30425 H 2866.64 4.366 -2.94429 0
M  V30 30426 H 2869.13 2.88957 -2.43541 0
M  V30 30427 H 2869.44 5.48679 -5.44216 0
M  V30 30428 H 2867.79 4.93931 -4.88935 0
M  V30 30429 H 2870.98 3.5244 -3.08065 0
M  V30 30430 H 2871.15 4.70891 -4.45158 0
M  V30 30431 N 2864.56 0.913621 1.28416 0
M  V30 30432 C 2865.51 0.392077 2.29272 0
M  V30 30433 C 2866.5 -0.51617 1.61344 0
M  V30 30434 O 2867.71 -0.397429 1.75558 0
M  V30 30435 H 2864.08 0.108191 0.744177 0
M  V30 30436 H 2866.05 1.25579 2.70689 0
M  V30 30437 C 2864.8 -0.352754 3.45906 0
M  V30 30438 H 2864.12 0.336918 3.98378 0
M  V30 30439 H 2865.56 -0.682325 4.18474 0
M  V30 30440 C 2864.02 -1.5606 2.98575 0
M  V30 30441 O 2864.55 -2.65969 3.01037 0
M  V30 30442 N 2862.76 -1.40754 2.54237 0
M  V30 30443 H 2862.31 -0.513359 2.52433 0
M  V30 30444 H 2862.26 -2.21698 2.22929 0
M  V30 30445 N 2866.04 -1.4229 0.677588 0
M  V30 30446 C 2867.45 -1.84619 0.277945 0
M  V30 30447 C 2867.8 -1.56716 -1.18045 0
M  V30 30448 O 2866.92 -1.0284 -1.90402 0
M  V30 30449 C 2867.52 -3.35125 0.497678 0
M  V30 30450 C 2866.08 -3.76092 0.152129 0
M  V30 30451 C 2865.22 -2.65845 0.788767 0
M  V30 30452 H 2868.17 -1.32097 0.87955 0
M  V30 30453 H 2868.2 -3.79682 -0.249323 0
M  V30 30454 H 2867.71 -3.55402 1.55919 0
M  V30 30455 H 2865.81 -3.61421 -0.905833 0
M  V30 30456 H 2865.92 -4.75396 0.594597 0
M  V30 30457 H 2864.29 -2.53749 0.219858 0
M  V30 30458 H 2865.07 -2.88945 1.85379 0
M  V30 30459 N 2867.51 -0.421104 -1.5187 0
M  V30 30460 C 2868.93 -0.0725678 -1.59435 0
M  V30 30461 C 2869.13 1.41641 -1.43318 0
M  V30 30462 O 2868.19 2.18459 -1.26618 0
M  V30 30463 C 2869.5 -0.578184 -2.95089 0
M  V30 30464 C 2871.05 -0.537203 -3.08356 0
M  V30 30465 C 2871.52 -1.01952 -4.46508 0
M  V30 30466 N 2873.01 -0.976837 -4.52783 0
M  V30 30467 C 2873.75 -1.32109 -5.57974 0
M  V30 30468 N 2873.24 -1.73739 -6.70661 0
M  V30 30469 N 2875.04 -1.24029 -5.48246 0
M  V30 30470 H 2867.19 -1.3901 -1.60593 0
M  V30 30471 H 2869.45 -0.571816 -0.756128 0
M  V30 30472 H 2869.16 -1.61935 -3.12202 0
M  V30 30473 H 2869.03 0.00571743 -3.772 0
M  V30 30474 H 2871.42 0.49494 -2.9092 0
M  V30 30475 H 2871.5 -1.15731 -2.28123 0
M  V30 30476 H 2871.14 -2.05005 -4.64688 0
M  V30 30477 H 2871.07 -0.376116 -5.25255 0
M  V30 30478 H 2873.56 -0.670916 -3.71897 0
M  V30 30479 H 2873.88 -1.98287 -7.46929 0
M  V30 30480 H 2872.22 -1.77653 -6.71911 0
M  V30 30481 H 2875.41 -0.913836 -4.59093 0
M  V30 30482 H 2875.59 -1.51187 -6.30116 0
M  V30 30483 N 2868.99 1.56866 -0.151912 0
M  V30 30484 C 2869.94 2.18301 0.802952 0
M  V30 30485 C 2870.93 1.14141 1.25172 0
M  V30 30486 O 2872.14 1.32382 1.21963 0
M  V30 30487 H 2868.52 0.699062 0.277157 0
M  V30 30488 H 2870.49 2.97259 0.260646 0
M  V30 30489 C 2869.24 2.82285 2.03004 0
M  V30 30490 H 2868.56 3.62151 1.69371 0
M  V30 30491 H 2870 3.28767 2.67747 0
M  V30 30492 C 2868.46 1.81046 2.8412 0
M  V30 30493 O 2868.99 1.28395 3.80628 0
M  V30 30494 N 2867.19 1.50239 2.4875 0
M  V30 30495 H 2866.74 1.93247 1.70333 0
M  V30 30496 H 2866.7 0.827498 3.03315 0
M  V30 30497 N 2870.47 -0.121866 1.57128 0
M  V30 30498 C 2871.38 -1.16854 2.03427 0
M  V30 30499 C 2872.4 -1.45507 0.954134 0
M  V30 30500 O 2873.57 -1.5668 1.26544 0
M  V30 30501 C 2870.64 -2.47594 2.42689 0
M  V30 30502 C 2869.7 -2.26364 3.64771 0
M  V30 30503 C 2868.93 -3.5087 4.02151 0
M  V30 30504 O 2869.15 -4.58062 3.39905 0
M  V30 30505 O 2868.09 -3.42042 4.95268 0
M  V30 30506 H 2871.91 -0.805388 2.92826 0
M  V30 30507 H 2869.5 -0.332452 1.45654 0
M  V30 30508 H 2871.38 -3.24629 2.68689 0
M  V30 30509 H 2870.06 -2.83389 1.56437 0
M  V30 30510 H 2868.96 -1.47197 3.43924 0
M  V30 30511 H 2870.3 -1.95474 4.5172 0
M  V30 30512 N 2871.95 -1.52648 -0.391965 0
M  V30 30513 C 2872.9 -1.7785 -1.49907 0
M  V30 30514 C 2873.89 -0.64631 -1.56586 0
M  V30 30515 O 2875.1 -0.828726 -1.59788 0
M  V30 30516 H 2871.47 -0.562699 -0.498873 0
M  V30 30517 H 2873.44 -2.70566 -1.25843 0
M  V30 30518 C 2872.19 -1.96168 -2.87077 0
M  V30 30519 H 2871.51 -2.82716 -2.82687 0
M  V30 30520 H 2872.95 -2.17793 -3.63788 0
M  V30 30521 C 2871.41 -0.733406 -3.2882 0
M  V30 30522 O 2871.94 0.0905775 -4.01598 0
M  V30 30523 N 2870.15 -0.564367 -2.85067 0
M  V30 30524 H 2869.7 -1.23602 -2.2601 0
M  V30 30525 H 2869.65 0.256111 -3.13355 0
M  V30 30526 N 2873.43 0.650235 -1.43561 0
M  V30 30527 C 2874.7 1.40762 -1.35813 0
M  V30 30528 C 2875.08 2.11099 -0.00740089 0
M  V30 30529 O 2874.43 2.05002 1.00929 0
M  V30 30530 C 2874.64 2.38985 -2.54336 0
M  V30 30531 C 2875.99 3.02895 -2.97556 0
M  V30 30532 O 2877.01 2.49313 -2.54404 0
M  V30 30533 O 2875.87 4.00052 -3.72318 0
M  V30 30534 H 2872.97 0.629045 -0.536872 0
M  V30 30535 H 2875.51 0.676892 -1.55616 0
M  V30 30536 H 2874.28 1.8598 -3.44278 0
M  V30 30537 H 2873.91 3.19504 -2.36649 0
M  V30 30538 N 2874.9 1.30141 0.88888 0
M  V30 30539 C 2875.84 1.12003 1.9997 0
M  V30 30540 C 2876.85 0.0643905 1.62673 0
M  V30 30541 O 2878.04 0.310013 1.75787 0
M  V30 30542 C 2875.14 0.685118 3.31903 0
M  V30 30543 C 2874.31 1.82165 3.97661 0
M  V30 30544 C 2873.37 1.37594 5.07892 0
M  V30 30545 O 2872.4 2.0825 5.29736 0
M  V30 30546 N 2873.6 0.252799 5.79949 0
M  V30 30547 H 2876.36 2.07675 2.16082 0
M  V30 30548 H 2873.92 1.22225 1.06173 0
M  V30 30549 H 2875.92 0.370035 4.03005 0
M  V30 30550 H 2874.49 -0.179452 3.12084 0
M  V30 30551 H 2873.71 2.30505 3.19783 0
M  V30 30552 H 2874.99 2.58339 4.38336 0
M  V30 30553 H 2874.39 -0.336042 5.64701 0
M  V30 30554 H 2872.95 -0.00285356 6.518 0
M  V30 30555 N 2876.38 -1.1007 1.12794 0
M  V30 30556 C 2877.61 -1.85615 0.907221 0
M  V30 30557 C 2878.02 -1.81116 -0.547149 0
M  V30 30558 O 2877.36 -1.20078 -1.39022 0
M  V30 30559 C 2877.43 -3.3483 1.30878 0
M  V30 30560 C 2877.09 -3.63085 2.77522 0
M  V30 30561 C 2878.09 -3.59366 3.75702 0
M  V30 30562 C 2875.77 -3.91641 3.1452 0
M  V30 30563 C 2877.77 -3.83804 5.08895 0
M  V30 30564 C 2875.45 -4.15734 4.47893 0
M  V30 30565 C 2876.45 -4.11806 5.4489 0
M  V30 30566 O 2876.14 -4.35283 6.75858 0
M  V30 30567 H 2875.87 -0.593369 0.323865 0
M  V30 30568 H 2878.42 -1.40035 1.50264 0
M  V30 30569 H 2876.65 -3.81085 0.656585 0
M  V30 30570 H 2878.34 -3.91772 1.0616 0
M  V30 30571 H 2879.11 -3.37339 3.48464 0
M  V30 30572 H 2874.99 -3.93826 2.39628 0
M  V30 30573 H 2878.53 -3.80653 5.84593 0
M  V30 30574 H 2874.43 -4.37241 4.74859 0
M  V30 30575 H 2875.2 -4.52779 6.81861 0
M  V30 30576 N 2877.86 -0.920419 -1.2793 0
M  V30 30577 C 2879.11 -0.552901 -1.93974 0
M  V30 30578 C 2879.42 0.909004 -1.73195 0
M  V30 30579 O 2880.63 1.38498 -2.33518 0
M  V30 30580 C 2879.08 -0.938008 -3.47461 0
M  V30 30581 C 2878.69 -2.4201 -3.77008 0
M  V30 30582 C 2880.44 -0.641394 -4.19626 0
M  V30 30583 C 2878.34 -2.74498 -5.23836 0
M  V30 30584 H 2877.27 -0.203059 -0.726143 0
M  V30 30585 H 2879.92 -1.12024 -1.45337 0
M  V30 30586 H 2878.31 -0.299386 -3.94867 0
M  V30 30587 H 2879.48 -3.10601 -3.40387 0
M  V30 30588 H 2877.8 -2.68785 -3.18031 0
M  V30 30589 H 2880.39 -0.860714 -5.27727 0
M  V30 30590 H 2880.74 0.421095 -4.14165 0
M  V30 30591 H 2881.27 -1.23878 -3.7802 0
M  V30 30592 H 2878.01 -3.79627 -5.34381 0
M  V30 30593 H 2877.53 -2.1055 -5.6163 0
M  V30 30594 H 2879.21 -2.61855 -5.91643 0
M  V30 30595 N 2879.34 1.41929 -0.685124 0
M  V30 30596 C 2880.57 2.05424 -0.220088 0
M  V30 30597 C 2880.98 1.51613 1.13182 0
M  V30 30598 O 2880.32 0.654905 1.71629 0
M  V30 30599 C 2880.38 3.5939 -0.0888995 0
M  V30 30600 C 2880.05 4.35945 -1.37117 0
M  V30 30601 C 2881.04 4.6592 -2.30683 0
M  V30 30602 C 2878.73 4.75403 -1.62164 0
M  V30 30603 C 2880.72 5.343 -3.47566 0
M  V30 30604 C 2878.41 5.43522 -2.79333 0
M  V30 30605 C 2879.41 5.72897 -3.71858 0
M  V30 30606 O 2879.09 6.39616 -4.86977 0
M  V30 30607 H 2878.83 0.668233 -0.102177 0
M  V30 30608 H 2881.38 1.82873 -0.935227 0
M  V30 30609 H 2879.61 3.8064 0.681914 0
M  V30 30610 H 2881.3 4.04494 0.337598 0
M  V30 30611 H 2882.07 4.35927 -2.12586 0
M  V30 30612 H 2877.94 4.51927 -0.910132 0
M  V30 30613 H 2881.49 5.57145 -4.19804 0
M  V30 30614 H 2877.39 5.72933 -2.97352 0
M  V30 30615 H 2878.15 6.5811 -4.86656 0
M  V30 30616 N 2880.82 0.429152 1.51644 0
M  V30 30617 C 2881.75 -0.431452 2.24084 0
M  V30 30618 C 2882.73 -1.03151 1.25693 0
M  V30 30619 O 2883.91 -1.07554 1.54804 0
M  V30 30620 C 2881.04 -1.60062 2.98493 0
M  V30 30621 C 2880.08 -1.12203 4.11476 0
M  V30 30622 S 2880.92 -0.0707508 5.35453 0
M  V30 30623 C 2882.07 -1.24477 6.13397 0
M  V30 30624 H 2882.31 0.183577 2.96733 0
M  V30 30625 H 2879.84 0.213601 1.52915 0
M  V30 30626 H 2881.8 -2.27093 3.41964 0
M  V30 30627 H 2880.46 -2.18704 2.25449 0
M  V30 30628 H 2879.65 -1.9961 4.62787 0
M  V30 30629 H 2879.25 -0.530084 3.70224 0
M  V30 30630 H 2881.55 -2.16468 6.41987 0
M  V30 30631 H 2882.49 -0.771797 7.03881 0
M  V30 30632 H 2882.9 -1.47964 5.44763 0
M  V30 30633 N 2882.29 -1.56783 0.160229 0
M  V30 30634 C 2883.54 -1.96155 -0.48659 0
M  V30 30635 C 2883.86 -1.04676 -1.64523 0
M  V30 30636 O 2883.13 -0.110899 -1.95586 0
M  V30 30637 H 2881.71 -0.7243 -0.182752 0
M  V30 30638 H 2884.38 -1.93431 0.238821 0
M  V30 30639 H 2883.47 -3.00189 -0.853973 0
M  V30 30640 N 2883.77 0.113531 -1.57191 0
M  V30 30641 C 2884.68 1.15773 -2.04043 0
M  V30 30642 C 2885.7 1.44999 -0.961837 0
M  V30 30643 O 2886.88 1.56007 -1.27373 0
M  V30 30644 C 2883.94 2.46304 -2.43999 0
M  V30 30645 C 2883 2.24426 -3.65966 0
M  V30 30646 C 2882.23 3.48733 -4.04006 0
M  V30 30647 O 2882.46 4.56253 -3.42329 0
M  V30 30648 O 2881.39 3.39411 -4.97075 0
M  V30 30649 H 2885.22 0.789848 -2.93249 0
M  V30 30650 H 2882.8 0.324722 -1.45828 0
M  V30 30651 H 2884.68 3.232 -2.70407 0
M  V30 30652 H 2883.36 2.82555 -1.57937 0
M  V30 30653 H 2882.27 1.45371 -3.447 0
M  V30 30654 H 2883.6 1.93076 -4.5275 0
M  V30 30655 N 2885.25 1.52854 0.383864 0
M  V30 30656 C 2886.66 1.60034 0.961562 0
M  V30 30657 C 2887.01 0.456366 1.90819 0
M  V30 30658 O 2886.14 -0.419836 2.12288 0
M  V30 30659 C 2886.73 2.9006 1.75073 0
M  V30 30660 C 2885.29 2.99636 2.27805 0
M  V30 30661 C 2884.44 2.55189 1.08507 0
M  V30 30662 H 2887.39 1.57858 0.163241 0
M  V30 30663 H 2887.41 2.76835 2.61041 0
M  V30 30664 H 2886.92 3.73301 1.0615 0
M  V30 30665 H 2885.02 2.20944 3.00024 0
M  V30 30666 H 2885.14 4.04374 2.5694 0
M  V30 30667 H 2883.5 2.0963 1.44663 0
M  V30 30668 H 2884.28 3.40829 0.41112 0
M  V30 30669 N 2886.73 -0.642612 1.43904 0
M  V30 30670 C 2887.66 -1.76649 1.527 0
M  V30 30671 C 2888.64 -1.65782 0.380845 0
M  V30 30672 O 2889.83 -1.84716 0.599464 0
M  V30 30673 C 2886.96 -3.1513 1.45981 0
M  V30 30674 C 2885.91 -3.40773 2.58955 0
M  V30 30675 C 2885.24 -4.79165 2.37288 0
M  V30 30676 C 2886.54 -3.34468 4.01159 0
M  V30 30677 H 2888.23 -1.69545 2.46769 0
M  V30 30678 H 2885.78 -0.814258 1.18768 0
M  V30 30679 H 2887.73 -3.93518 1.50737 0
M  V30 30680 H 2886.45 -3.22991 0.484219 0
M  V30 30681 H 2885.11 -2.64761 2.53569 0
M  V30 30682 H 2884.76 -4.83714 1.37947 0
M  V30 30683 H 2884.46 -4.97282 3.13025 0
M  V30 30684 H 2885.98 -5.59797 2.43844 0
M  V30 30685 H 2887.4 -4.02777 4.07975 0
M  V30 30686 H 2885.79 -3.64121 4.77007 0
M  V30 30687 H 2886.86 -2.32468 4.25543 0
M  V30 30688 N 2888.21 -1.30611 -0.881966 0
M  V30 30689 C 2889.12 -1.19178 -2.02074 0
M  V30 30690 C 2890.13 -0.11105 -1.73645 0
M  V30 30691 O 2891.31 -0.326563 -1.98735 0
M  V30 30692 C 2888.37 -0.887496 -3.35148 0
M  V30 30693 C 2887.44 -2.0539 -3.76979 0
M  V30 30694 C 2886.67 -1.76404 -5.03704 0
M  V30 30695 O 2886.89 -0.693401 -5.6617 0
M  V30 30696 O 2885.83 -2.61733 -5.42014 0
M  V30 30697 H 2889.65 -2.14849 -2.14648 0
M  V30 30698 H 2887.24 -1.10233 -1.00841 0
M  V30 30699 H 2889.12 -0.733133 -4.14974 0
M  V30 30700 H 2887.79 0.0392785 -3.23676 0
M  V30 30701 H 2886.7 -2.2636 -2.97845 0
M  V30 30702 H 2888.03 -2.9625 -3.93061 0
M  V30 30703 N 2889.69 1.0947 -1.13376 0
M  V30 30704 C 2890.63 2.18184 -0.806143 0
M  V30 30705 C 2891.63 1.68077 0.21133 0
M  V30 30706 O 2892.83 1.7987 0.0685242 0
M  V30 30707 H 2889.21 0.711686 -0.242913 0
M  V30 30708 H 2891.18 2.43048 -1.73119 0
M  V30 30709 C 2889.93 3.46505 -0.287989 0
M  V30 30710 H 2889.25 3.8543 -1.06224 0
M  V30 30711 H 2890.69 4.23889 -0.0971799 0
M  V30 30712 C 2889.15 3.22142 0.986199 0
M  V30 30713 O 2889.68 3.44732 2.06211 0
M  V30 30714 N 2887.89 2.75749 0.917104 0
M  V30 30715 H 2887.43 2.57567 0.0414157 0
M  V30 30716 H 2887.39 2.59826 1.77025 0
M  V30 30717 N 2891.16 0.92719 1.2744 0
M  V30 30718 C 2892.44 0.485776 1.89472 0
M  V30 30719 C 2892.82 -1.0361 1.83924 0
M  V30 30720 O 2892.17 -1.89004 1.28412 0
M  V30 30721 C 2892.38 1.03129 3.33415 0
M  V30 30722 C 2893.73 1.09147 4.10332 0
M  V30 30723 O 2894.75 0.98088 3.42428 0
M  V30 30724 O 2893.61 1.26174 5.31735 0
M  V30 30725 H 2890.7 0.156169 0.812121 0
M  V30 30726 H 2893.25 1.01885 1.35711 0
M  V30 30727 H 2892.02 2.07514 3.31743 0
M  V30 30728 H 2891.64 0.479837 3.94694 0
M  V30 30729 N 2892.64 -1.41564 0.692641 0
M  V30 30730 C 2893.55 -2.34586 0.0258863 0
M  V30 30731 C 2894.57 -1.5607 -0.769296 0
M  V30 30732 O 2895.74 -1.88563 -0.70753 0
M  V30 30733 C 2892.81 -3.34782 -0.90123 0
M  V30 30734 C 2891.87 -4.29187 -0.0985824 0
M  V30 30735 C 2891.1 -5.24596 -0.981542 0
M  V30 30736 O 2891.33 -5.25381 -2.22106 0
M  V30 30737 O 2890.26 -6.00342 -0.432787 0
M  V30 30738 H 2894.09 -2.93175 0.792588 0
M  V30 30739 H 2891.67 -1.42368 0.45296 0
M  V30 30740 H 2893.55 -3.96288 -1.43295 0
M  V30 30741 H 2892.23 -2.7864 -1.64747 0
M  V30 30742 H 2891.13 -3.71038 0.477669 0
M  V30 30743 H 2892.47 -4.88419 0.608933 0
M  V30 30744 N 2894.12 -0.437188 -1.51415 0
M  V30 30745 C 2895.4 0.189258 -1.94682 0
M  V30 30746 C 2895.78 1.60106 -1.37584 0
M  V30 30747 O 2895.12 2.21459 -0.562854 0
M  V30 30748 C 2895.33 0.167139 -3.486 0
M  V30 30749 C 2896.68 0.372782 -4.2296 0
M  V30 30750 O 2897.71 0.24526 -3.55355 0
M  V30 30751 O 2896.57 0.626598 -5.42896 0
M  V30 30752 H 2893.66 0.130049 -0.816711 0
M  V30 30753 H 2896.21 -0.495156 -1.62315 0
M  V30 30754 H 2894.98 -0.819878 -3.82614 0
M  V30 30755 H 2894.6 0.894469 -3.87408 0
M  V30 30756 N 2895.6 1.56696 -0.168541 0
M  V30 30757 C 2896.84 1.98693 0.479613 0
M  V30 30758 C 2897.2 1.05212 1.60607 0
M  V30 30759 O 2898.4 1.36338 2.31658 0
M  V30 30760 C 2896.67 3.44466 0.952791 0
M  V30 30761 S 2898.23 4.08491 1.60252 0
M  V30 30762 H 2895.05 0.694041 0.154365 0
M  V30 30763 H 2897.65 1.93691 -0.265346 0
M  V30 30764 H 2896.36 4.10217 0.122498 0
M  V30 30765 H 2895.89 3.53228 1.73186 0
M  V30 30766 H 2897.9 4.03312 2.89057 0
M  V30 30767 N 2897.08 -0.105193 1.57249 0
M  V30 30768 C 2898.04 -1.11249 2.0039 0
M  V30 30769 C 2899.04 -1.33526 0.895964 0
M  V30 30770 O 2900.23 -1.29809 1.16169 0
M  V30 30771 C 2897.36 -2.46391 2.35593 0
M  V30 30772 H 2898.55 -0.741373 2.90592 0
M  V30 30773 H 2896.11 -0.349929 1.52332 0
M  V30 30774 H 2896.84 -2.88398 1.48315 0
M  V30 30775 H 2896.63 -2.31572 3.16412 0
M  V30 30776 H 2898.12 -3.18859 2.69663 0
M  V30 30777 N 2898.55 -1.53055 -0.375752 0
M  V30 30778 C 2899.5 -1.75154 -1.45962 0
M  V30 30779 C 2900.49 -0.605849 -1.49058 0
M  V30 30780 O 2901.68 -0.86416 -1.54471 0
M  V30 30781 C 2898.81 -1.93574 -2.83521 0
M  V30 30782 C 2897.9 -3.14115 -2.84943 0
M  V30 30783 N 2898.29 -4.36218 -2.56022 0
M  V30 30784 C 2896.58 -3.1463 -3.16107 0
M  V30 30785 C 2897.29 -5.17901 -2.64864 0
M  V30 30786 N 2896.26 -4.53883 -2.99151 0
M  V30 30787 H 2900.06 -2.67177 -1.22449 0
M  V30 30788 H 2897.58 -1.51542 -0.58384 0
M  V30 30789 H 2899.57 -2.07531 -3.61575 0
M  V30 30790 H 2898.23 -1.02773 -3.08006 0
M  V30 30791 H 2899.25 -4.64125 -2.298 0
M  V30 30792 H 2895.92 -2.33686 -3.45973 0
M  V30 30793 H 2897.31 -6.25272 -2.45936 0
M  V30 30794 N 2900.03 0.634971 -1.44242 0
M  V30 30795 C 2901.28 1.39489 -1.48035 0
M  V30 30796 C 2901.63 1.92086 -0.109825 0
M  V30 30797 O 2900.93 1.70486 0.874364 0
M  V30 30798 C 2901.12 2.58042 -2.47284 0
M  V30 30799 C 2900.95 2.1705 -3.93852 0
M  V30 30800 C 2899.72 2.0451 -4.62065 0
M  V30 30801 C 2901.92 1.762 -4.83175 0
M  V30 30802 N 2899.9 1.57041 -5.93474 0
M  V30 30803 C 2901.27 1.39948 -6.03999 0
M  V30 30804 C 2903.33 1.63546 -4.70274 0
M  V30 30805 C 2902.03 0.923071 -7.13353 0
M  V30 30806 C 2904.05 1.1731 -5.79648 0
M  V30 30807 C 2903.42 0.820058 -6.9961 0
M  V30 30808 H 2899.52 0.505382 -0.596752 0
M  V30 30809 H 2902.1 0.728838 -1.80544 0
M  V30 30810 H 2900.27 3.2228 -2.16772 0
M  V30 30811 H 2902 3.24823 -2.41397 0
M  V30 30812 H 2898.76 2.24843 -4.16824 0
M  V30 30813 H 2899.18 1.35616 -6.63278 0
M  V30 30814 H 2903.82 1.89474 -3.77968 0
M  V30 30815 H 2901.54 0.6513 -8.05471 0
M  V30 30816 H 2905.13 1.07983 -5.71691 0
M  V30 30817 H 2904.01 0.467763 -7.82804 0
M  V30 30818 N 2901.51 1.31076 0.875027 0
M  V30 30819 C 2902.46 1.183 1.98176 0
M  V30 30820 C 2903.43 0.0700215 1.65952 0
M  V30 30821 O 2904.61 0.241984 1.89259 0
M  V30 30822 C 2901.75 0.891082 3.33397 0
M  V30 30823 C 2900.87 2.0869 3.78249 0
M  V30 30824 C 2900 1.73221 5.02163 0
M  V30 30825 C 2899.04 2.89241 5.3945 0
M  V30 30826 N 2898.18 2.54001 6.54544 0
M  V30 30827 H 2903.02 2.12975 2.08436 0
M  V30 30828 H 2900.55 1.05949 1.02045 0
M  V30 30829 H 2902.51 0.70241 4.11244 0
M  V30 30830 H 2901.14 -0.0188232 3.22795 0
M  V30 30831 H 2900.19 2.38651 2.96226 0
M  V30 30832 H 2901.51 2.95543 4.01816 0
M  V30 30833 H 2900.66 1.50787 5.87663 0
M  V30 30834 H 2899.4 0.835525 4.8049 0
M  V30 30835 H 2898.4 3.12329 4.52471 0
M  V30 30836 H 2899.63 3.79611 5.63092 0
M  V30 30837 H 2897.57 1.66849 6.34427 0
M  V30 30838 H 2897.49 3.34384 6.78029 0
M  V30 30839 H 2898.76 2.34947 7.4325 0
M  V30 30840 N 2902.99 -1.08867 1.13955 0
M  V30 30841 C 2903.9 -2.1921 0.835705 0
M  V30 30842 C 2904.91 -1.73046 -0.181975 0
M  V30 30843 O 2906.09 -2.01397 -0.0116307 0
M  V30 30844 C 2903.16 -3.4529 0.312386 0
M  V30 30845 C 2902.22 -4.06105 1.39203 0
M  V30 30846 C 2901.45 -5.26166 0.893589 0
M  V30 30847 O 2901.67 -5.69776 -0.266707 0
M  V30 30848 O 2900.61 -5.78255 1.67047 0
M  V30 30849 H 2904.43 -2.47664 1.75774 0
M  V30 30850 H 2902.02 -1.17913 0.917442 0
M  V30 30851 H 2903.9 -4.21392 0.0262323 0
M  V30 30852 H 2902.57 -3.18425 -0.581986 0
M  V30 30853 H 2901.48 -3.31613 1.73158 0
M  V30 30854 H 2902.81 -4.37208 2.26075 0
M  V30 30855 N 2904.47 -0.933936 -1.26946 0
M  V30 30856 C 2905.43 -0.442497 -2.24888 0
M  V30 30857 C 2906.43 0.442399 -1.54595 0
M  V30 30858 O 2907.62 0.242599 -1.72502 0
M  V30 30859 C 2904.75 0.363114 -3.38961 0
M  V30 30860 H 2905.94 -1.30792 -2.69877 0
M  V30 30861 H 2903.5 -0.715211 -1.38976 0
M  V30 30862 H 2904.23 1.24709 -2.99363 0
M  V30 30863 H 2904.02 -0.271435 -3.91159 0
M  V30 30864 H 2905.51 0.697114 -4.1174 0
M  V30 30865 N 2905.94 1.41194 -0.700139 0
M  V30 30866 C 2906.89 2.30769 -0.0377058 0
M  V30 30867 C 2907.86 1.47356 0.766518 0
M  V30 30868 O 2909.05 1.76133 0.733619 0
M  V30 30869 C 2906.19 3.33442 0.889394 0
M  V30 30870 C 2905.3 4.31933 0.0762971 0
M  V30 30871 C 2904.43 5.21675 1.00146 0
M  V30 30872 C 2903.47 6.11831 0.181536 0
M  V30 30873 N 2902.61 6.94041 1.06074 0
M  V30 30874 H 2907.45 2.86856 -0.80731 0
M  V30 30875 H 2904.99 1.41276 -0.409823 0
M  V30 30876 H 2906.95 3.91524 1.441 0
M  V30 30877 H 2905.58 2.78895 1.62535 0
M  V30 30878 H 2904.63 3.75761 -0.592289 0
M  V30 30879 H 2905.94 4.95656 -0.559163 0
M  V30 30880 H 2905.09 5.84613 1.62213 0
M  V30 30881 H 2903.83 4.58189 1.67077 0
M  V30 30882 H 2902.84 5.47937 -0.452181 0
M  V30 30883 H 2904.06 6.77373 -0.484044 0
M  V30 30884 H 2902.01 6.33159 1.71599 0
M  V30 30885 H 2901.93 7.54469 0.480962 0
M  V30 30886 H 2903.19 7.61443 1.66809 0
M  V30 30887 N 2907.42 0.445212 1.51181 0
M  V30 30888 C 2908.36 -0.407661 2.24529 0
M  V30 30889 C 2909.33 -1.01812 1.2678 0
M  V30 30890 O 2910.52 -1.05906 1.55936 0
M  V30 30891 C 2907.64 -1.56887 3.00174 0
M  V30 30892 C 2906.69 -1.07833 4.12643 0
M  V30 30893 S 2907.52 -0.0139549 5.35498 0
M  V30 30894 C 2908.68 -1.17965 6.14683 0
M  V30 30895 H 2908.91 0.21504 2.96521 0
M  V30 30896 H 2906.45 0.229807 1.5268 0
M  V30 30897 H 2908.4 -2.23453 3.44353 0
M  V30 30898 H 2907.06 -2.163 2.27756 0
M  V30 30899 H 2906.26 -1.9469 4.64878 0
M  V30 30900 H 2905.86 -0.490787 3.70766 0
M  V30 30901 H 2908.15 -2.09647 6.44247 0
M  V30 30902 H 2909.09 -0.697098 7.0466 0
M  V30 30903 H 2909.5 -1.42177 5.46302 0
M  V30 30904 N 2908.9 -1.56605 0.176849 0
M  V30 30905 C 2909.83 -2.21235 -0.746802 0
M  V30 30906 C 2910.81 -1.16969 -1.235 0
M  V30 30907 O 2912 -1.45417 -1.28715 0
M  V30 30908 C 2909.13 -2.85744 -1.97402 0
M  V30 30909 C 2908.08 -3.96097 -1.62146 0
M  V30 30910 C 2907.41 -4.47681 -2.92379 0
M  V30 30911 C 2908.71 -5.15415 -0.845263 0
M  V30 30912 H 2910.4 -2.98676 -0.208064 0
M  V30 30913 H 2907.95 -1.43662 -0.0986342 0
M  V30 30914 H 2909.9 -3.29634 -2.62525 0
M  V30 30915 H 2908.62 -2.0568 -2.53699 0
M  V30 30916 H 2907.28 -3.5287 -0.993902 0
M  V30 30917 H 2906.93 -3.64402 -3.46728 0
M  V30 30918 H 2906.63 -5.22131 -2.69542 0
M  V30 30919 H 2908.15 -4.94262 -3.58522 0
M  V30 30920 H 2909.57 -5.55964 -1.39919 0
M  V30 30921 H 2907.97 -5.95817 -0.71571 0
M  V30 30922 H 2909.04 -4.84645 0.157324 0
M  V30 30923 N 2910.38 0.0968524 -1.57302 0
M  V30 30924 C 2911.31 1.11842 -2.04972 0
M  V30 30925 C 2912.29 1.4188 -0.938303 0
M  V30 30926 O 2913.47 1.5194 -1.20946 0
M  V30 30927 C 2910.6 2.43877 -2.47268 0
M  V30 30928 C 2909.56 2.28251 -3.62057 0
M  V30 30929 C 2908.88 3.65447 -3.90324 0
M  V30 30930 C 2910.18 1.72453 -4.93009 0
M  V30 30931 H 2911.88 0.721836 -2.90568 0
M  V30 30932 H 2909.42 0.345778 -1.39787 0
M  V30 30933 H 2911.38 3.15612 -2.79225 0
M  V30 30934 H 2910.1 2.85467 -1.58669 0
M  V30 30935 H 2908.76 1.58961 -3.30344 0
M  V30 30936 H 2908.41 4.04562 -2.98896 0
M  V30 30937 H 2908.11 3.55838 -4.67603 0
M  V30 30938 H 2909.63 4.38652 -4.24755 0
M  V30 30939 H 2911.05 2.34027 -5.23359 0
M  V30 30940 H 2909.44 1.73608 -5.74439 0
M  V30 30941 H 2910.51 0.683814 -4.80054 0
M  V30 30942 N 2911.86 1.53252 0.36763 0
M  V30 30943 C 2913.13 1.59937 1.12603 0
M  V30 30944 C 2913.51 0.405643 2.07166 0
M  V30 30945 O 2912.86 -0.604284 2.20365 0
M  V30 30946 C 2913.07 2.94867 1.86694 0
M  V30 30947 C 2914.42 3.4937 2.413 0
M  V30 30948 O 2915.44 2.96882 1.96823 0
M  V30 30949 O 2914.3 4.41124 3.22602 0
M  V30 30950 H 2911.4 0.645936 0.516426 0
M  V30 30951 H 2913.94 1.65594 0.371059 0
M  V30 30952 H 2912.71 3.73189 1.17668 0
M  V30 30953 H 2912.34 2.92692 2.69104 0
M  V30 30954 N 2913.34 -0.627313 1.44577 0
M  V30 30955 C 2914.28 -1.76028 1.52042 0
M  V30 30956 C 2915.28 -1.64806 0.391825 0
M  V30 30957 O 2916.48 -1.70839 0.56693 0
M  V30 30958 H 2912.86 -0.581212 0.477176 0
M  V30 30959 H 2914.83 -1.66855 2.4739 0
M  V30 30960 C 2913.58 -3.14372 1.48544 0
M  V30 30961 H 2912.9 -3.23657 2.34704 0
M  V30 30962 H 2914.34 -3.93531 1.57828 0
M  V30 30963 C 2912.8 -3.36265 0.206779 0
M  V30 30964 O 2913.33 -3.95168 -0.721471 0
M  V30 30965 N 2911.54 -2.90397 0.108705 0
M  V30 30966 H 2911.08 -2.42645 0.864927 0
M  V30 30967 H 2911.04 -3.0542 -0.746068 0
M  V30 30968 N 2914.81 -1.31539 -0.868063 0
M  V30 30969 C 2916.06 -1.20692 -1.61605 0
M  V30 30970 C 2916.38 0.23324 -1.94204 0
M  V30 30971 O 2917.58 0.463418 -2.67516 0
M  V30 30972 C 2916.04 -2.11297 -2.91344 0
M  V30 30973 C 2915.65 -3.6032 -2.66221 0
M  V30 30974 C 2917.39 -2.09255 -3.69341 0
M  V30 30975 C 2915.3 -4.42927 -3.91879 0
M  V30 30976 H 2914.23 -0.448149 -0.606365 0
M  V30 30977 H 2916.88 -1.56407 -0.959638 0
M  V30 30978 H 2915.26 -1.68483 -3.58371 0
M  V30 30979 H 2916.43 -4.11392 -2.0759 0
M  V30 30980 H 2914.75 -3.64357 -2.01576 0
M  V30 30981 H 2917.35 -2.68217 -4.62562 0
M  V30 30982 H 2917.69 -1.08017 -4.02042 0
M  V30 30983 H 2918.22 -2.5028 -3.092 0
M  V30 30984 H 2914.96 -5.44928 -3.64327 0
M  V30 30985 H 2914.48 -3.96612 -4.49954 0
M  V30 30986 H 2916.16 -4.55239 -4.59746 0
M  V30 30987 N 2916.29 1.08262 -1.1453 0
M  V30 30988 C 2917.24 2.17316 -0.829239 0
M  V30 30989 C 2918.23 1.68291 0.193492 0
M  V30 30990 O 2919.44 1.79932 0.0494428 0
M  V30 30991 H 2915.81 0.70907 -0.250448 0
M  V30 30992 H 2917.79 2.41198 -1.75687 0
M  V30 30993 C 2916.53 3.4618 -0.324724 0
M  V30 30994 H 2915.86 3.84282 -1.10306 0
M  V30 30995 H 2917.3 4.23762 -0.142134 0
M  V30 30996 C 2915.76 3.2317 0.951976 0
M  V30 30997 O 2916.29 3.469 2.02543 0
M  V30 30998 N 2914.49 2.76706 0.887806 0
M  V30 30999 H 2914.04 2.57596 0.0140949 0
M  V30 31000 H 2914 2.61689 1.74259 0
M  V30 31001 N 2917.77 0.940655 1.26449 0
M  V30 31002 C 2919 0.604677 1.97867 0
M  V30 31003 C 2919.41 -0.820221 1.70052 0
M  V30 31004 O 2918.77 -1.54684 0.968457 0
M  V30 31005 C 2918.82 0.836751 3.51683 0
M  V30 31006 O 2918.54 2.20561 3.7853 0
M  V30 31007 C 2920.04 0.511247 4.40342 0
M  V30 31008 H 2917.26 0.22793 0.631101 0
M  V30 31009 H 2919.81 1.26122 1.60977 0
M  V30 31010 H 2917.96 0.226827 3.86735 0
M  V30 31011 H 2918.38 2.26525 4.73061 0
M  V30 31012 H 2919.85 0.724253 5.47228 0
M  V30 31013 H 2920.33 -0.553739 4.35695 0
M  V30 31014 H 2920.93 1.09988 4.10832 0
M  V30 31015 N 2919.25 -1.40821 0.707617 0
M  V30 31016 C 2920.66 -1.83988 0.317043 0
M  V30 31017 C 2921.01 -1.59185 -1.14694 0
M  V30 31018 O 2920.13 -1.06855 -1.88178 0
M  V30 31019 C 2920.73 -3.33994 0.568651 0
M  V30 31020 C 2919.29 -3.75685 0.23187 0
M  V30 31021 C 2918.44 -2.64112 0.844979 0
M  V30 31022 H 2921.39 -1.30202 0.907372 0
M  V30 31023 H 2921.41 -3.80126 -0.168731 0
M  V30 31024 H 2920.92 -3.52015 1.63423 0
M  V30 31025 H 2919.02 -3.63261 -0.828966 0
M  V30 31026 H 2919.13 -4.74028 0.695302 0
M  V30 31027 H 2917.5 -2.53226 0.273632 0
M  V30 31028 H 2918.28 -2.84948 1.91467 0
M  V30 31029 N 2920.73 -0.453223 -1.50943 0
M  V30 31030 C 2921.64 0.355922 -2.31884 0
M  V30 31031 C 2922.65 1.01285 -1.41483 0
M  V30 31032 O 2923.83 1.00474 -1.74548 0
M  V30 31033 C 2920.89 1.43363 -3.15671 0
M  V30 31034 C 2919.95 0.795179 -4.21871 0
M  V30 31035 C 2919.19 1.82153 -5.01653 0
M  V30 31036 O 2919.41 3.04583 -4.82271 0
M  V30 31037 O 2918.34 1.40325 -5.85314 0
M  V30 31038 H 2922.17 -0.305301 -3.02162 0
M  V30 31039 H 2919.75 -0.215424 -1.47839 0
M  V30 31040 H 2921.64 2.05829 -3.67712 0
M  V30 31041 H 2920.31 2.07865 -2.48141 0
M  V30 31042 H 2919.22 0.13204 -3.73867 0
M  V30 31043 H 2920.55 0.193398 -4.9182 0
M  V30 31044 N 2922.2 1.56509 -0.185151 0
M  V30 31045 C 2923.45 1.96904 0.455322 0
M  V30 31046 C 2923.77 1.0728 1.62837 0
M  V30 31047 O 2923.04 0.142001 1.95385 0
M  V30 31048 H 2921.62 0.727116 0.171206 0
M  V30 31049 H 2924.28 1.93027 -0.269564 0
M  V30 31050 H 2923.38 3.0151 0.806107 0
M  V30 31051 N 2923.68 -0.0885089 1.57351 0
M  V30 31052 C 2924.93 -0.789524 1.85606 0
M  V30 31053 C 2925.24 -1.79575 0.775384 0
M  V30 31054 O 2926.45 -2.54514 0.945251 0
M  V30 31055 C 2924.91 -1.455 3.29177 0
M  V30 31056 C 2924.51 -0.4882 4.45332 0
M  V30 31057 C 2926.26 -2.13936 3.66649 0
M  V30 31058 C 2924.16 -1.15864 5.79939 0
M  V30 31059 H 2923.09 -0.298607 0.692351 0
M  V30 31060 H 2925.75 -0.0425499 1.83451 0
M  V30 31061 H 2924.13 -2.24966 3.25893 0
M  V30 31062 H 2925.3 0.27544 4.59976 0
M  V30 31063 H 2923.62 0.0908095 4.16301 0
M  V30 31064 H 2926.21 -2.64842 4.64503 0
M  V30 31065 H 2926.56 -2.93127 2.95605 0
M  V30 31066 H 2927.09 -1.41322 3.71851 0
M  V30 31067 H 2923.83 -0.407393 6.54233 0
M  V30 31068 H 2923.35 -1.89354 5.69126 0
M  V30 31069 H 2925.03 -1.68325 6.24721 0
M  V30 31070 N 2925.16 -1.53445 -0.359498 0
M  V30 31071 C 2926.41 -1.69141 -1.09883 0
M  V30 31072 C 2926.72 -0.452896 -1.90285 0
M  V30 31073 O 2927.93 -0.490506 -2.67032 0
M  V30 31074 C 2926.38 -2.99029 -2.00274 0
M  V30 31075 C 2925.99 -4.30163 -1.25156 0
M  V30 31076 C 2927.74 -3.24091 -2.74163 0
M  V30 31077 C 2925.64 -5.51136 -2.14484 0
M  V30 31078 H 2924.57 -0.630224 -0.413925 0
M  V30 31079 H 2927.22 -1.79946 -0.359402 0
M  V30 31080 H 2925.61 -2.82041 -2.77973 0
M  V30 31081 H 2926.78 -4.57802 -0.524787 0
M  V30 31082 H 2925.09 -4.11591 -0.631044 0
M  V30 31083 H 2927.69 -4.11658 -3.41236 0
M  V30 31084 H 2928.03 -2.40413 -3.39864 0
M  V30 31085 H 2928.57 -3.41781 -2.03544 0
M  V30 31086 H 2925.31 -6.3731 -1.53351 0
M  V30 31087 H 2924.83 -5.27767 -2.84995 0
M  V30 31088 H 2926.51 -5.86162 -2.73904 0
M  V30 31089 N 2926.64 0.619637 -1.44908 0
M  V30 31090 C 2928.05 1.20144 -1.42907 0
M  V30 31091 C 2928.4 1.95623 -0.150375 0
M  V30 31092 O 2927.52 2.03036 0.748697 0
M  V30 31093 C 2928.12 2.1854 -2.58893 0
M  V30 31094 C 2926.68 2.72122 -2.60051 0
M  V30 31095 C 2925.83 1.47316 -2.34932 0
M  V30 31096 H 2928.78 0.409639 -1.53322 0
M  V30 31097 H 2928.8 3.01356 -2.32303 0
M  V30 31098 H 2928.31 1.63577 -3.51944 0
M  V30 31099 H 2926.41 3.31057 -1.70974 0
M  V30 31100 H 2926.52 3.17377 -3.58899 0
M  V30 31101 H 2924.89 1.75851 -1.84251 0
M  V30 31102 H 2925.67 0.942384 -3.30112 0
M  V30 31103 N 2928.12 1.31997 0.861075 0
M  V30 31104 C 2929.34 1.25313 1.65261 0
M  V30 31105 C 2929.77 -0.176975 1.87266 0
M  V30 31106 O 2929.12 -1.12617 1.42082 0
M  V30 31107 C 2929.17 2.01155 2.99281 0
M  V30 31108 O 2928.28 1.35497 3.89505 0
M  V30 31109 H 2927.62 0.432201 0.504082 0
M  V30 31110 H 2930.15 1.7421 1.07294 0
M  V30 31111 H 2930.16 2.11087 3.49151 0
M  V30 31112 H 2928.83 3.05153 2.82586 0
M  V30 31113 H 2927.41 1.34073 3.47964 0
M  V30 31114 N 2929.59 -1.07653 1.15103 0
M  V30 31115 C 2930.53 -2.14142 0.78856 0
M  V30 31116 C 2931.51 -1.60913 -0.233607 0
M  V30 31117 O 2932.69 -1.88112 -0.120874 0
M  V30 31118 C 2929.82 -3.38263 0.172093 0
M  V30 31119 C 2928.86 -4.10262 1.16566 0
M  V30 31120 S 2929.7 -4.62079 2.70635 0
M  V30 31121 C 2930.85 -5.89477 2.104 0
M  V30 31122 H 2931.08 -2.44558 1.69052 0
M  V30 31123 H 2928.62 -1.19879 0.973054 0
M  V30 31124 H 2930.58 -4.10118 -0.177151 0
M  V30 31125 H 2929.24 -3.0603 -0.707415 0
M  V30 31126 H 2928.43 -4.99358 0.682488 0
M  V30 31127 H 2928.03 -3.44356 1.45929 0
M  V30 31128 H 2930.32 -6.6149 1.46417 0
M  V30 31129 H 2931.27 -6.42503 2.9765 0
M  V30 31130 H 2931.67 -5.42853 1.54826 0
M  V30 31131 N 2931.07 -0.947348 -1.25949 0
M  V30 31132 C 2932.32 -0.598212 -1.93462 0
M  V30 31133 C 2932.65 0.863674 -1.74273 0
M  V30 31134 O 2931.9 1.63407 -1.07687 0
M  V30 31135 C 2932.2 -0.894219 -3.46032 0
M  V30 31136 C 2931.87 -2.34097 -3.85369 0
M  V30 31137 C 2930.53 -2.73644 -3.95819 0
M  V30 31138 C 2932.88 -3.28087 -4.0498 0
M  V30 31139 C 2930.21 -4.06264 -4.23281 0
M  V30 31140 C 2932.56 -4.60311 -4.33932 0
M  V30 31141 C 2931.23 -4.99664 -4.42597 0
M  V30 31142 H 2930.5 -0.218901 -0.707929 0
M  V30 31143 H 2933.14 -1.19502 -1.49638 0
M  V30 31144 H 2931.45 -0.214943 -3.9121 0
M  V30 31145 H 2933.14 -0.602767 -3.96444 0
M  V30 31146 H 2929.73 -2.02424 -3.77786 0
M  V30 31147 H 2933.92 -2.98727 -3.96328 0
M  V30 31148 H 2929.17 -4.36408 -4.28203 0
M  V30 31149 H 2933.35 -5.33126 -4.48052 0
M  V30 31150 H 2930.98 -6.02454 -4.6363 0
M  V30 31151 N 2932.55 1.40444 -0.715075 0
M  V30 31152 C 2933.46 2.34515 -0.0632036 0
M  V30 31153 C 2934.48 1.57274 0.744369 0
M  V30 31154 O 2935.65 1.89665 0.677442 0
M  V30 31155 C 2932.72 3.36173 0.847855 0
M  V30 31156 C 2931.78 4.29289 0.0302901 0
M  V30 31157 C 2931.01 5.26092 0.897959 0
M  V30 31158 O 2931.23 5.28848 2.1372 0
M  V30 31159 O 2930.17 6.00955 0.337223 0
M  V30 31160 H 2933.99 2.91877 -0.839129 0
M  V30 31161 H 2931.58 1.41629 -0.475552 0
M  V30 31162 H 2933.46 3.98518 1.36973 0
M  V30 31163 H 2932.14 2.81225 1.60294 0
M  V30 31164 H 2931.04 3.70231 -0.536638 0
M  V30 31165 H 2932.38 4.87388 -0.68656 0
M  V30 31166 N 2934.03 0.461222 1.507 0
M  V30 31167 C 2935.44 0.00373509 1.867 0
M  V30 31168 C 2935.79 -1.39785 1.37676 0
M  V30 31169 O 2934.92 -2.03443 0.737551 0
M  V30 31170 C 2935.51 1.97394e-06 3.388 0
M  V30 31171 C 2934.07 -0.401978 3.74247 0
M  V30 31172 C 2933.22 0.3897 2.74548 0
M  V30 31173 H 2936.17 0.675967 1.43584 0
M  V30 31174 H 2936.19 -0.804348 3.71901 0
M  V30 31175 H 2935.7 1.02022 3.74451 0
M  V30 31176 H 2933.8 -1.42691 3.44195 0
M  V30 31177 H 2933.91 -0.11018 4.78973 0
M  V30 31178 H 2932.28 -0.155269 2.54226 0
M  V30 31179 H 2933.06 1.40924 3.13042 0
M  V30 31180 N 2935.51 -1.56408 0.193449 0
M  V30 31181 C 2936.42 -2.22621 -0.740073 0
M  V30 31182 C 2937.43 -1.22476 -1.23594 0
M  V30 31183 O 2938.61 -1.55208 -1.28345 0
M  V30 31184 C 2935.67 -2.8713 -1.94312 0
M  V30 31185 C 2934.73 -4.0254 -1.49198 0
M  V30 31186 C 2933.97 -4.63964 -2.63768 0
M  V30 31187 O 2934.19 -4.24308 -3.81208 0
M  V30 31188 O 2933.12 -5.53458 -2.36575 0
M  V30 31189 H 2936.95 -3.02999 -0.206184 0
M  V30 31190 H 2934.54 -1.49357 -0.0357676 0
M  V30 31191 H 2936.42 -3.27949 -2.64627 0
M  V30 31192 H 2935.09 -2.09732 -2.46564 0
M  V30 31193 H 2934 -3.66347 -0.757673 0
M  V30 31194 H 2935.33 -4.81597 -1.01614 0
M  V30 31195 N 2936.98 0.0801629 -1.57396 0
M  V30 31196 C 2938.4 0.434751 -1.53565 0
M  V30 31197 C 2938.6 1.79659 -0.912403 0
M  V30 31198 O 2937.66 2.47269 -0.511311 0
M  V30 31199 C 2938.97 0.383508 -2.98244 0
M  V30 31200 C 2940.52 0.464296 -3.09537 0
M  V30 31201 C 2940.99 0.443047 -4.55852 0
M  V30 31202 N 2942.48 0.503367 -4.60457 0
M  V30 31203 C 2943.22 0.509006 -5.71136 0
M  V30 31204 N 2942.71 0.469958 -6.91204 0
M  V30 31205 N 2944.51 0.554937 -5.59354 0
M  V30 31206 H 2936.66 -0.81167 -1.9628 0
M  V30 31207 H 2938.92 -0.303705 -0.898035 0
M  V30 31208 H 2938.63 -0.550297 -3.47368 0
M  V30 31209 H 2938.5 1.19688 -3.57708 0
M  V30 31210 H 2940.89 1.38852 -2.60392 0
M  V30 31211 H 2940.97 -0.37749 -2.52999 0
M  V30 31212 H 2940.61 -0.477296 -5.05652 0
M  V30 31213 H 2940.54 1.30225 -5.10244 0
M  V30 31214 H 2943.03 0.538134 -3.74049 0
M  V30 31215 H 2943.35 0.477956 -7.71321 0
M  V30 31216 H 2941.69 0.436775 -6.93626 0
M  V30 31217 H 2944.88 0.583077 -4.64454 0
M  V30 31218 H 2945.06 0.555862 -6.45611 0
M  V30 31219 N 2938.46 1.53634 0.351355 0
M  V30 31220 C 2939.37 1.84055 1.45468 0
M  V30 31221 C 2940.39 0.730043 1.57944 0
M  V30 31222 O 2941.56 1.02156 1.73569 0
M  V30 31223 C 2938.63 2.03686 2.80558 0
M  V30 31224 C 2937.69 3.27563 2.77491 0
M  V30 31225 C 2936.92 3.46248 4.06138 0
M  V30 31226 O 2937.15 2.68931 5.03023 0
M  V30 31227 O 2936.08 4.39652 4.11084 0
M  V30 31228 H 2939.91 2.77819 1.2268 0
M  V30 31229 H 2937.49 1.39191 0.542802 0
M  V30 31230 H 2939.37 2.18089 3.60576 0
M  V30 31231 H 2938.05 1.13111 3.03294 0
M  V30 31232 H 2936.96 3.18571 1.96121 0
M  V30 31233 H 2938.29 4.18105 2.59709 0
M  V30 31234 N 2939.94 -0.611943 1.45234 0
M  V30 31235 C 2940.89 -1.7229 1.53573 0
M  V30 31236 C 2941.86 -1.61649 0.38194 0
M  V30 31237 O 2943.04 -1.81292 0.594797 0
M  V30 31238 C 2940.18 -3.10591 1.50424 0
M  V30 31239 C 2939.3 -3.3207 2.76322 0
M  V30 31240 C 2938.43 -4.60451 2.64874 0
M  V30 31241 C 2937.47 -4.75173 3.85846 0
M  V30 31242 N 2936.61 -5.9485 3.72959 0
M  V30 31243 H 2941.45 -1.64499 2.48483 0
M  V30 31244 H 2938.98 -0.80217 1.23303 0
M  V30 31245 H 2940.94 -3.906 1.46587 0
M  V30 31246 H 2939.57 -3.1735 0.590677 0
M  V30 31247 H 2938.62 -2.45867 2.90265 0
M  V30 31248 H 2939.94 -3.38822 3.66061 0
M  V30 31249 H 2939.09 -5.48648 2.58978 0
M  V30 31250 H 2937.83 -4.56089 1.72727 0
M  V30 31251 H 2936.83 -3.854 3.92106 0
M  V30 31252 H 2938.06 -4.81336 4.79054 0
M  V30 31253 H 2936 -5.9154 2.83577 0
M  V30 31254 H 2935.92 -6.02743 4.5633 0
M  V30 31255 H 2937.19 -6.85557 3.70988 0
M  V30 31256 N 2941.42 -1.32452 -0.854063 0
M  V30 31257 C 2942.66 -1.23228 -1.61067 0
M  V30 31258 C 2943 0.205315 -1.93112 0
M  V30 31259 O 2942.27 1.14262 -1.57399 0
M  V30 31260 C 2942.56 -2.09254 -2.93061 0
M  V30 31261 C 2942.41 -3.61395 -2.67794 0
M  V30 31262 C 2943.73 -1.95413 -3.94337 0
M  V30 31263 H 2940.85 -0.448996 -0.584441 0
M  V30 31264 H 2943.49 -1.62403 -0.98616 0
M  V30 31265 H 2941.64 -1.75974 -3.4636 0
M  V30 31266 H 2943.31 -4.04891 -2.21045 0
M  V30 31267 H 2941.55 -3.84031 -2.01749 0
M  V30 31268 H 2942.22 -4.16914 -3.61783 0
M  V30 31269 H 2944.7 -2.24568 -3.50297 0
M  V30 31270 H 2943.58 -2.5788 -4.8455 0
M  V30 31271 H 2943.84 -0.921941 -4.3238 0
M  V30 31272 N 2942.9 1.07041 -1.15672 0
M  V30 31273 C 2944.17 1.76455 -0.843979 0
M  V30 31274 C 2944.55 2.00525 0.659771 0
M  V30 31275 O 2943.9 1.62626 1.60515 0
M  V30 31276 C 2944.11 3.07087 -1.65827 0
M  V30 31277 C 2945.46 3.81376 -1.86647 0
M  V30 31278 O 2946.48 3.16907 -1.6263 0
M  V30 31279 O 2945.34 4.97174 -2.26893 0
M  V30 31280 H 2942.44 0.76642 -0.310691 0
M  V30 31281 H 2944.98 1.13378 -1.26268 0
M  V30 31282 H 2943.76 2.85205 -2.67907 0
M  V30 31283 H 2943.38 3.77897 -1.23612 0
M  V30 31284 N 2944.38 0.954014 1.25445 0
M  V30 31285 C 2945.34 0.478219 2.24156 0
M  V30 31286 C 2946.34 -0.417749 1.55279 0
M  V30 31287 O 2947.53 -0.215124 1.72867 0
M  V30 31288 C 2944.66 -0.309142 3.39495 0
M  V30 31289 H 2945.85 1.35069 2.67762 0
M  V30 31290 H 2943.41 0.737231 1.37821 0
M  V30 31291 H 2944.14 -1.19931 3.01309 0
M  V30 31292 H 2943.93 0.333631 3.90678 0
M  V30 31293 H 2945.42 -0.631521 4.12797 0
M  V30 31294 N 2945.85 -1.40063 0.722513 0
M  V30 31295 C 2947.1 -1.99992 0.261967 0
M  V30 31296 C 2947.42 -1.57963 -1.15356 0
M  V30 31297 O 2948.62 -2.1064 -1.71298 0
M  V30 31298 C 2947.08 -3.57471 0.417433 0
M  V30 31299 C 2946.69 -4.08468 1.84004 0
M  V30 31300 C 2948.43 -4.24496 0.0180307 0
M  V30 31301 C 2946.34 -5.58476 1.94572 0
M  V30 31302 H 2945.27 -0.748094 0.0941899 0
M  V30 31303 H 2947.92 -1.60216 0.8946 0
M  V30 31304 H 2946.3 -3.94981 -0.283896 0
M  V30 31305 H 2947.47 -3.8232 2.57231 0
M  V30 31306 H 2945.79 -3.54064 2.19153 0
M  V30 31307 H 2948.39 -5.34646 0.0761789 0
M  V30 31308 H 2948.73 -4.03486 -1.02491 0
M  V30 31309 H 2949.26 -3.92116 0.670057 0
M  V30 31310 H 2946 -5.8435 2.97012 0
M  V30 31311 H 2945.52 -5.86467 1.25766 0
M  V30 31312 H 2947.2 -6.23689 1.72106 0
M  V30 31313 N 2947.33 -0.469207 -1.50453 0
M  V30 31314 C 2948.61 0.14792 -1.9504 0
M  V30 31315 C 2948.99 1.57151 -1.40949 0
M  V30 31316 O 2948.34 2.20216 -0.609702 0
M  V30 31317 C 2948.55 0.0931585 -3.48876 0
M  V30 31318 C 2949.89 0.282982 -4.23656 0
M  V30 31319 O 2950.92 0.169829 -3.55795 0
M  V30 31320 O 2949.78 0.511301 -5.44103 0
M  V30 31321 H 2946.87 0.112696 -0.819285 0
M  V30 31322 H 2949.42 -0.529474 -1.61229 0
M  V30 31323 H 2948.19 -0.900851 -3.80789 0
M  V30 31324 H 2947.81 0.812093 -3.89218 0
M  V30 31325 N 2948.81 1.56303 -0.201741 0
M  V30 31326 C 2950.06 1.97376 0.434412 0
M  V30 31327 C 2950.38 1.09001 1.6169 0
M  V30 31328 O 2949.65 0.162716 1.95223 0
M  V30 31329 H 2948.23 0.728891 0.163484 0
M  V30 31330 H 2950.89 1.9273 -0.290022 0
M  V30 31331 H 2949.99 3.02348 0.774082 0
M  V30 31332 N 2950.29 -0.0718147 1.57436 0
M  V30 31333 C 2951.2 -1.10323 2.07041 0
M  V30 31334 C 2952.21 -1.42398 0.999943 0
M  V30 31335 O 2953.39 -1.52575 1.31464 0
M  V30 31336 C 2950.45 -2.39748 2.50443 0
M  V30 31337 C 2949.52 -2.14644 3.71788 0
M  V30 31338 C 2948.75 -3.37899 4.1311 0
M  V30 31339 O 2948.97 -4.47016 3.54306 0
M  V30 31340 O 2947.91 -3.26113 5.05899 0
M  V30 31341 H 2951.73 -0.71182 2.9524 0
M  V30 31342 H 2949.32 -0.285945 1.46638 0
M  V30 31343 H 2951.2 -3.15917 2.78881 0
M  V30 31344 H 2949.87 -2.78269 1.65373 0
M  V30 31345 H 2948.78 -1.36181 3.48433 0
M  V30 31346 H 2950.11 -1.81004 4.5771 0
M  V30 31347 N 2951.77 -1.53818 -0.343203 0
M  V30 31348 C 2953 -1.74765 -1.10185 0
M  V30 31349 C 2953.4 -0.486889 -1.82828 0
M  V30 31350 O 2952.75 0.551167 -1.75237 0
M  V30 31351 C 2952.81 -2.87379 -2.15995 0
M  V30 31352 C 2952.47 -4.26972 -1.62924 0
M  V30 31353 C 2953.47 -5.08529 -1.08138 0
M  V30 31354 C 2951.15 -4.73457 -1.6776 0
M  V30 31355 C 2953.15 -6.34673 -0.588927 0
M  V30 31356 C 2950.84 -5.99574 -1.18127 0
M  V30 31357 C 2951.83 -6.80015 -0.63786 0
M  V30 31358 O 2951.52 -8.03762 -0.148931 0
M  V30 31359 H 2951.25 -0.587475 -0.334439 0
M  V30 31360 H 2953.81 -2.01446 -0.401073 0
M  V30 31361 H 2952.04 -2.56223 -2.89632 0
M  V30 31362 H 2953.73 -2.96292 -2.77427 0
M  V30 31363 H 2954.49 -4.73779 -1.03723 0
M  V30 31364 H 2950.37 -4.10903 -2.08997 0
M  V30 31365 H 2953.92 -6.97407 -0.16411 0
M  V30 31366 H 2949.81 -6.33819 -1.22243 0
M  V30 31367 H 2950.58 -8.18067 -0.266188 0
M  V30 31368 N 2953.24 0.604233 -1.45557 0
M  V30 31369 C 2954.66 0.925345 -1.30037 0
M  V30 31370 C 2954.86 1.99869 -0.255868 0
M  V30 31371 O 2953.92 2.50076 0.349032 0
M  V30 31372 C 2955.23 1.36309 -2.6803 0
M  V30 31373 C 2956.78 1.47712 -2.75953 0
M  V30 31374 C 2957.25 1.94861 -4.14479 0
M  V30 31375 N 2958.74 2.02089 -4.1679 0
M  V30 31376 C 2959.48 2.398 -5.20849 0
M  V30 31377 N 2958.97 2.76456 -6.35251 0
M  V30 31378 N 2960.77 2.40168 -5.08208 0
M  V30 31379 H 2952.92 -0.105157 -2.1214 0
M  V30 31380 H 2955.18 0.0156137 -0.947871 0
M  V30 31381 H 2954.89 0.648568 -3.45668 0
M  V30 31382 H 2954.76 2.32894 -2.96715 0
M  V30 31383 H 2957.15 2.18255 -1.98617 0
M  V30 31384 H 2957.23 0.494327 -2.50978 0
M  V30 31385 H 2956.87 1.24904 -4.92302 0
M  V30 31386 H 2956.8 2.9406 -4.36848 0
M  V30 31387 H 2959.29 1.76338 -3.34236 0
M  V30 31388 H 2959.61 3.04122 -7.10443 0
M  V30 31389 H 2957.95 2.74144 -6.38647 0
M  V30 31390 H 2961.14 2.1094 -4.17878 0
M  V30 31391 H 2961.32 2.69231 -5.89422 0
M  V30 31392 N 2954.72 1.32903 0.847027 0
M  V30 31393 C 2955.65 1.25095 1.97164 0
M  V30 31394 C 2956.63 0.133191 1.69578 0
M  V30 31395 O 2957.82 0.321625 1.91518 0
M  V30 31396 C 2954.95 0.981064 3.33155 0
M  V30 31397 C 2953.9 2.06088 3.75116 0
M  V30 31398 C 2953.23 1.64327 5.08823 0
M  V30 31399 C 2954.53 3.47676 3.89768 0
M  V30 31400 H 2956.22 2.19187 2.03954 0
M  V30 31401 H 2953.77 1.05519 0.979888 0
M  V30 31402 H 2955.72 0.912964 4.11391 0
M  V30 31403 H 2954.44 0.00451299 3.266 0
M  V30 31404 H 2953.1 2.11927 2.99137 0
M  V30 31405 H 2952.75 0.653964 4.98731 0
M  V30 31406 H 2952.45 2.36582 5.37869 0
M  V30 31407 H 2953.98 1.58968 5.89543 0
M  V30 31408 H 2955.39 3.44384 4.58337 0
M  V30 31409 H 2953.79 4.18346 4.30241 0
M  V30 31410 H 2954.86 3.86778 2.92456 0
M  V30 31411 N 2956.2 -1.06426 1.16238 0
M  V30 31412 C 2957.62 -1.31322 0.907007 0
M  V30 31413 C 2957.82 -1.96619 -0.440837 0
M  V30 31414 O 2956.87 -2.23196 -1.18066 0
M  V30 31415 C 2958.18 -2.19518 2.05505 0
M  V30 31416 C 2959.73 -2.32939 2.09065 0
M  V30 31417 C 2960.21 -3.24489 3.2322 0
M  V30 31418 N 2961.7 -3.32072 3.22928 0
M  V30 31419 C 2962.43 -4.02999 4.07897 0
M  V30 31420 N 2961.93 -4.7646 5.02949 0
M  V30 31421 N 2963.72 -3.99036 3.95888 0
M  V30 31422 H 2955.87 -0.624353 2.03016 0
M  V30 31423 H 2958.14 -0.33782 0.885766 0
M  V30 31424 H 2957.84 -1.78814 3.0285 0
M  V30 31425 H 2957.72 -3.20097 1.99544 0
M  V30 31426 H 2960.1 -2.72891 1.12313 0
M  V30 31427 H 2960.18 -1.32033 2.19091 0
M  V30 31428 H 2959.83 -2.85253 4.2023 0
M  V30 31429 H 2959.76 -4.25371 3.1043 0
M  V30 31430 H 2962.25 -2.79719 2.54098 0
M  V30 31431 H 2962.56 -5.28102 5.64205 0
M  V30 31432 H 2960.91 -4.75444 5.0693 0
M  V30 31433 H 2964.1 -3.40763 3.20933 0
M  V30 31434 H 2964.27 -4.54044 4.62329 0
M  V30 31435 N 2957.68 -0.960653 -1.24937 0
M  V30 31436 C 2958.93 -0.617475 -1.92436 0
M  V30 31437 C 2959.25 0.84907 -1.75544 0
M  V30 31438 O 2958.52 1.60536 -1.12271 0
M  V30 31439 H 2957.1 -0.225384 -0.712188 0
M  V30 31440 H 2959.76 -1.2202 -1.51978 0
M  V30 31441 H 2958.86 -0.851986 -3.00246 0
M  V30 31442 N 2959.16 1.39677 -0.729931 0
M  V30 31443 C 2960.07 2.34435 -0.0880735 0
M  V30 31444 C 2961.08 1.58055 0.727647 0
M  V30 31445 O 2962.26 1.90373 0.657287 0
M  V30 31446 C 2959.32 3.37053 0.812152 0
M  V30 31447 C 2958.38 4.29297 -0.0152435 0
M  V30 31448 C 2957.62 5.27014 0.842109 0
M  V30 31449 O 2957.84 5.31085 2.08098 0
M  V30 31450 O 2956.77 6.01278 0.273465 0
M  V30 31451 H 2960.6 2.90971 -0.87004 0
M  V30 31452 H 2958.19 1.41117 -0.490547 0
M  V30 31453 H 2960.07 3.99948 1.32738 0
M  V30 31454 H 2958.74 2.8291 1.57302 0
M  V30 31455 H 2957.65 3.69641 -0.575876 0
M  V30 31456 H 2958.98 4.86633 -0.738215 0
M  V30 31457 N 2960.63 0.47718 1.50202 0
M  V30 31458 C 2961.6 -0.302559 2.27194 0
M  V30 31459 C 2962.6 -0.915089 1.32222 0
M  V30 31460 O 2963.79 -0.783321 1.55595 0
M  V30 31461 C 2960.92 -1.43162 3.09382 0
M  V30 31462 H 2962.11 0.37273 2.97575 0
M  V30 31463 H 2959.67 0.231419 1.54577 0
M  V30 31464 H 2960.4 -2.14178 2.43513 0
M  V30 31465 H 2960.19 -0.99813 3.79183 0
M  V30 31466 H 2961.68 -1.9815 3.67595 0
M  V30 31467 N 2962.11 -1.56194 0.210027 0
M  V30 31468 C 2963.53 -1.58935 -0.145571 0
M  V30 31469 C 2963.73 -1.22659 -1.59865 0
M  V30 31470 O 2962.78 -0.956378 -2.33687 0
M  V30 31471 C 2964.1 -3.00217 0.170296 0
M  V30 31472 C 2965.65 -3.12801 0.111603 0
M  V30 31473 C 2966.12 -4.56241 0.400985 0
M  V30 31474 N 2967.61 -4.61875 0.350139 0
M  V30 31475 C 2968.35 -5.70778 0.547698 0
M  V30 31476 N 2967.84 -6.88091 0.806412 0
M  V30 31477 N 2969.64 -5.60039 0.480926 0
M  V30 31478 H 2961.79 -1.78052 1.15807 0
M  V30 31479 H 2964.05 -0.827055 0.463341 0
M  V30 31480 H 2963.76 -3.31371 1.17839 0
M  V30 31481 H 2963.63 -3.73597 -0.520143 0
M  V30 31482 H 2966.02 -2.8145 -0.887112 0
M  V30 31483 H 2966.1 -2.41776 0.835345 0
M  V30 31484 H 2965.74 -4.88307 1.39709 0
M  V30 31485 H 2965.67 -5.25476 -0.343818 0
M  V30 31486 H 2968.16 -3.77572 0.157401 0
M  V30 31487 H 2968.48 -7.66993 0.945568 0
M  V30 31488 H 2966.82 -6.89863 0.843476 0
M  V30 31489 H 2970.01 -4.67267 0.279119 0
M  V30 31490 H 2970.18 -6.44849 0.638302 0
M  V30 31491 N 2963.59 0.0634645 -1.57472 0
M  V30 31492 C 2964.54 1.07454 -2.0426 0
M  V30 31493 C 2965.51 1.37972 -0.924828 0
M  V30 31494 O 2966.69 1.48897 -1.19307 0
M  V30 31495 C 2963.83 2.38067 -2.49836 0
M  V30 31496 C 2962.95 2.14007 -3.75266 0
M  V30 31497 C 2962.08 3.38243 -4.09591 0
M  V30 31498 C 2961.12 3.09585 -5.28037 0
M  V30 31499 N 2960.26 4.26175 -5.5796 0
M  V30 31500 H 2965.1 0.668575 -2.90403 0
M  V30 31501 H 2962.63 0.318546 -1.4361 0
M  V30 31502 H 2964.59 3.14336 -2.74315 0
M  V30 31503 H 2963.22 2.7645 -1.66659 0
M  V30 31504 H 2962.27 1.28392 -3.58078 0
M  V30 31505 H 2963.59 1.88844 -4.6167 0
M  V30 31506 H 2962.74 4.22903 -4.35015 0
M  V30 31507 H 2961.48 3.6649 -3.21771 0
M  V30 31508 H 2960.48 2.23323 -5.02401 0
M  V30 31509 H 2961.71 2.82653 -6.17482 0
M  V30 31510 H 2959.65 4.54437 -4.73099 0
M  V30 31511 H 2959.57 4.04315 -6.388 0
M  V30 31512 H 2960.84 5.11807 -5.8794 0
M  V30 31513 N 2965.07 1.53998 0.33504 0
M  V30 31514 C 2966.3 1.75602 1.09415 0
M  V30 31515 C 2966.71 0.49917 1.82082 0
M  V30 31516 O 2966.07 -0.529601 1.74647 0
M  V30 31517 C 2966.12 2.9417 2.1011 0
M  V30 31518 O 2965.84 4.14994 1.40397 0
M  V30 31519 C 2967.34 3.27893 2.9833 0
M  V30 31520 H 2964.56 0.586519 0.32594 0
M  V30 31521 H 2967.11 2.0085 0.384658 0
M  V30 31522 H 2965.26 2.71228 2.76611 0
M  V30 31523 H 2965.67 4.81608 2.07734 0
M  V30 31524 H 2967.15 4.14186 3.64902 0
M  V30 31525 H 2967.63 2.44563 3.64809 0
M  V30 31526 H 2968.23 3.52872 2.37406 0
M  V30 31527 N 2966.55 -0.596505 1.45875 0
M  V30 31528 C 2967.79 -1.35518 1.50469 0
M  V30 31529 C 2968.12 -1.93914 0.150836 0
M  V30 31530 O 2967.38 -1.76186 -0.851882 0
M  V30 31531 C 2967.68 -2.51395 2.54038 0
M  V30 31532 C 2967.34 -2.11078 3.98443 0
M  V30 31533 C 2966 -1.99796 4.37761 0
M  V30 31534 C 2968.36 -1.79779 4.89213 0
M  V30 31535 C 2965.68 -1.55455 5.6573 0
M  V30 31536 C 2968.04 -1.36921 6.17605 0
M  V30 31537 C 2966.7 -1.24206 6.55842 0
M  V30 31538 H 2965.97 -0.495897 0.550606 0
M  V30 31539 H 2968.62 -0.673113 1.7928 0
M  V30 31540 H 2966.92 -3.24988 2.18837 0
M  V30 31541 H 2968.62 -3.09619 2.54827 0
M  V30 31542 H 2965.21 -2.20788 3.67356 0
M  V30 31543 H 2969.39 -1.87387 4.59565 0
M  V30 31544 H 2964.65 -1.44243 5.94141 0
M  V30 31545 H 2968.82 -1.11752 6.87375 0
M  V30 31546 H 2966.45 -0.896221 7.54899 0
M  V30 31547 N 2968.02 -1.3335 -0.839967 0
M  V30 31548 C 2969.27 -1.2493 -1.59751 0
M  V30 31549 C 2969.6 0.184821 -1.93319 0
M  V30 31550 O 2968.88 1.12586 -1.58602 0
M  V30 31551 C 2969.16 -2.1235 -2.90825 0
M  V30 31552 C 2969.01 -3.64215 -2.63946 0
M  V30 31553 C 2970.33 -1.99584 -3.92243 0
M  V30 31554 H 2967.45 -0.45517 -0.579646 0
M  V30 31555 H 2970.09 -1.6344 -0.96888 0
M  V30 31556 H 2968.24 -1.79637 -3.44475 0
M  V30 31557 H 2969.92 -4.07213 -2.16738 0
M  V30 31558 H 2968.16 -3.86149 -1.97664 0
M  V30 31559 H 2968.83 -4.20727 -3.57341 0
M  V30 31560 H 2971.31 -2.28271 -3.47896 0
M  V30 31561 H 2970.18 -2.63005 -4.81788 0
M  V30 31562 H 2970.44 -0.967749 -4.31378 0
M  V30 31563 N 2969.5 1.05808 -1.16801 0
M  V30 31564 C 2970.78 1.7555 -0.862647 0
M  V30 31565 C 2971.16 2.01213 0.638465 0
M  V30 31566 O 2970.51 1.64319 1.58781 0
M  V30 31567 C 2970.72 3.05311 -1.69075 0
M  V30 31568 C 2972.07 3.79375 -1.90682 0
M  V30 31569 O 2973.09 3.15164 -1.65982 0
M  V30 31570 O 2971.95 4.94739 -2.32153 0
M  V30 31571 H 2969.04 0.763082 -0.318802 0
M  V30 31572 H 2971.59 1.12032 -1.27463 0
M  V30 31573 H 2970.36 2.82347 -2.70917 0
M  V30 31574 H 2969.98 3.76564 -1.27613 0
M  V30 31575 N 2970.98 0.967265 1.24426 0
M  V30 31576 C 2971.91 0.515939 2.27729 0
M  V30 31577 C 2972.89 -0.444198 1.64198 0
M  V30 31578 O 2974.08 -0.340417 1.91193 0
M  V30 31579 C 2971.21 -0.195088 3.46752 0
M  V30 31580 C 2970.16 0.681027 4.22547 0
M  V30 31581 C 2969.49 -0.161467 5.34456 0
M  V30 31582 C 2970.79 1.96541 4.8391 0
M  V30 31583 H 2972.48 1.37937 2.65732 0
M  V30 31584 H 2970.03 0.664704 1.27741 0
M  V30 31585 H 2971.98 -0.522044 4.18154 0
M  V30 31586 H 2970.7 -1.09287 3.07773 0
M  V30 31587 H 2969.36 0.991248 3.52945 0
M  V30 31588 H 2969.01 -1.05938 4.91717 0
M  V30 31589 H 2968.71 0.421521 5.86086 0
M  V30 31590 H 2970.23 -0.483104 6.08686 0
M  V30 31591 H 2971.65 1.70406 5.47389 0
M  V30 31592 H 2970.05 2.49508 5.45771 0
M  V30 31593 H 2971.12 2.6606 4.05389 0
M  V30 31594 N 2972.46 -1.39288 0.737328 0
M  V30 31595 C 2973.39 -2.2815 0.0475855 0
M  V30 31596 C 2974.37 -1.44514 -0.745289 0
M  V30 31597 O 2975.55 -1.73902 -0.727357 0
M  V30 31598 C 2972.68 -3.25402 -0.939746 0
M  V30 31599 C 2971.73 -4.25852 -0.235078 0
M  V30 31600 S 2972.56 -5.25053 1.05261 0
M  V30 31601 C 2973.72 -6.25863 0.0679342 0
M  V30 31602 H 2973.95 -2.86302 0.801167 0
M  V30 31603 H 2971.48 -1.45047 0.529223 0
M  V30 31604 H 2973.44 -3.81951 -1.50411 0
M  V30 31605 H 2972.1 -2.66265 -1.66618 0
M  V30 31606 H 2971.29 -4.94336 -0.982249 0
M  V30 31607 H 2970.9 -3.73114 0.257311 0
M  V30 31608 H 2973.19 -6.73091 -0.77166 0
M  V30 31609 H 2974.13 -7.0443 0.719982 0
M  V30 31610 H 2974.54 -5.63673 -0.305505 0
M  V30 31611 N 2973.94 -0.485139 -1.49947 0
M  V30 31612 C 2975.35 -0.140124 -1.58984 0
M  V30 31613 C 2975.55 1.35435 -1.49196 0
M  V30 31614 O 2974.61 2.12892 -1.35769 0
M  V30 31615 C 2975.92 -0.702821 -2.92371 0
M  V30 31616 C 2977.47 -0.667503 -3.058 0
M  V30 31617 C 2977.95 -1.20799 -4.41782 0
M  V30 31618 N 2979.44 -1.168 -4.48232 0
M  V30 31619 C 2980.17 -1.55656 -5.51869 0
M  V30 31620 N 2979.67 -2.02028 -6.62689 0
M  V30 31621 N 2981.46 -1.47171 -5.42492 0
M  V30 31622 H 2973.61 -1.45696 -1.54552 0
M  V30 31623 H 2975.87 -0.603372 -0.731195 0
M  V30 31624 H 2975.58 -1.75031 -3.05053 0
M  V30 31625 H 2975.45 -0.154271 -3.76884 0
M  V30 31626 H 2977.84 0.371105 -2.92757 0
M  V30 31627 H 2977.92 -1.25302 -2.23009 0
M  V30 31628 H 2977.57 -2.2453 -4.55575 0
M  V30 31629 H 2977.5 -0.598556 -5.23187 0
M  V30 31630 H 2979.99 -0.828047 -3.68716 0
M  V30 31631 H 2980.3 -2.29788 -7.37846 0
M  V30 31632 H 2978.65 -2.05991 -6.63772 0
M  V30 31633 H 2981.84 -1.10773 -4.54804 0
M  V30 31634 H 2982.01 -1.77777 -6.23137 0
M  V30 31635 N 2975.42 1.56081 -0.218307 0
M  V30 31636 C 2976.83 1.5901 0.13714 0
M  V30 31637 C 2977.03 1.23505 1.59213 0
M  V30 31638 O 2976.09 0.968757 2.33177 0
M  V30 31639 C 2977.4 3.00123 -0.186215 0
M  V30 31640 C 2978.95 3.12737 -0.12819 0
M  V30 31641 C 2979.42 4.56022 -0.425174 0
M  V30 31642 N 2980.91 4.61683 -0.374628 0
M  V30 31643 C 2981.65 5.7048 -0.57796 0
M  V30 31644 N 2981.15 6.87653 -0.842892 0
M  V30 31645 N 2982.94 5.59776 -0.510619 0
M  V30 31646 H 2975.09 1.77435 -1.16749 0
M  V30 31647 H 2977.35 0.824586 -0.46772 0
M  V30 31648 H 2977.06 3.30742 -1.19594 0
M  V30 31649 H 2976.93 3.73867 0.500323 0
M  V30 31650 H 2979.32 2.81917 0.872174 0
M  V30 31651 H 2979.4 2.4133 -0.848155 0
M  V30 31652 H 2979.04 4.87559 -1.42296 0
M  V30 31653 H 2978.97 5.25651 0.315945 0
M  V30 31654 H 2981.47 3.77483 -0.177422 0
M  V30 31655 H 2981.78 7.66481 -0.98623 0
M  V30 31656 H 2980.12 6.89406 -0.88005 0
M  V30 31657 H 2983.31 4.67112 -0.303895 0
M  V30 31658 H 2983.49 6.44501 -0.672491 0
M  V30 31659 N 2976.89 -0.0551124 1.57504 0
M  V30 31660 C 2978.14 -0.749587 1.87685 0
M  V30 31661 C 2978.46 -1.77263 0.812578 0
M  V30 31662 O 2977.73 -1.95271 -0.156906 0
M  V30 31663 H 2976.31 -0.279834 0.692605 0
M  V30 31664 H 2978.97 -0.0272402 1.94881 0
M  V30 31665 H 2978.07 -1.25543 2.85736 0
M  V30 31666 N 2978.37 -1.54173 -0.326869 0
M  V30 31667 C 2979.65 -1.62866 -1.08323 0
M  V30 31668 C 2980.03 -0.460427 -2.06018 0
M  V30 31669 O 2979.38 0.545646 -2.2189 0
M  V30 31670 C 2979.59 -2.99713 -1.78811 0
M  V30 31671 C 2980.93 -3.55645 -2.31952 0
M  V30 31672 O 2981.96 -3.01996 -1.88883 0
M  V30 31673 O 2980.82 -4.49522 -3.10793 0
M  V30 31674 H 2977.91 -0.659401 -0.499119 0
M  V30 31675 H 2980.46 -1.66519 -0.327025 0
M  V30 31676 H 2979.23 -3.76177 -1.07732 0
M  V30 31677 H 2978.85 -2.99724 -2.6125 0
M  V30 31678 N 2979.85 0.58876 -1.4619 0
M  V30 31679 C 2980.78 1.7086 -1.59151 0
M  V30 31680 C 2981.76 1.64254 -0.442112 0
M  V30 31681 O 2982.95 1.82364 -0.667608 0
M  V30 31682 C 2980.08 3.09495 -1.57576 0
M  V30 31683 C 2979.03 3.30928 -2.71424 0
M  V30 31684 C 2978.36 4.70028 -2.54908 0
M  V30 31685 C 2979.66 3.19349 -4.13296 0
M  V30 31686 H 2981.35 1.60269 -2.52892 0
M  V30 31687 H 2978.9 0.769617 -1.21708 0
M  V30 31688 H 2980.85 3.87652 -1.65238 0
M  V30 31689 H 2979.57 3.20971 -0.603761 0
M  V30 31690 H 2978.23 2.55167 -2.63221 0
M  V30 31691 H 2977.88 4.78261 -1.55805 0
M  V30 31692 H 2977.58 4.85321 -3.31266 0
M  V30 31693 H 2979.1 5.50361 -2.64452 0
M  V30 31694 H 2980.52 3.87358 -4.22643 0
M  V30 31695 H 2978.91 3.46166 -4.90193 0
M  V30 31696 H 2979.98 2.16514 -4.33877 0
M  V30 31697 N 2981.33 1.33794 0.832883 0
M  V30 31698 C 2982.74 1.22965 1.40487 0
M  V30 31699 C 2983.09 -0.148991 1.95633 0
M  V30 31700 O 2982.21 -1.04887 1.89282 0
M  V30 31701 C 2982.81 2.22631 2.55383 0
M  V30 31702 C 2981.37 2.15624 3.08518 0
M  V30 31703 C 2980.52 2.09785 1.81343 0
M  V30 31704 H 2983.47 1.45305 0.638131 0
M  V30 31705 H 2983.49 1.83752 3.3319 0
M  V30 31706 H 2983 3.22961 2.15216 0
M  V30 31707 H 2981.1 1.18617 3.53215 0
M  V30 31708 H 2981.21 3.06436 3.68285 0
M  V30 31709 H 2979.58 1.55352 2.01836 0
M  V30 31710 H 2980.36 3.11932 1.43364 0
M  V30 31711 N 2982.81 -1.05187 1.1736 0
M  V30 31712 C 2984.05 -1.78453 0.963444 0
M  V30 31713 C 2984.38 -1.87474 -0.50667 0
M  V30 31714 O 2983.66 -1.37456 -1.37609 0
M  V30 31715 C 2983.94 -3.22341 1.60525 0
M  V30 31716 C 2983.8 -3.21333 3.14747 0
M  V30 31717 C 2985.11 -4.20177 1.30918 0
M  V30 31718 H 2982.23 -0.64782 0.351424 0
M  V30 31719 H 2984.88 -1.22946 1.4486 0
M  V30 31720 H 2983.03 -3.69738 1.19272 0
M  V30 31721 H 2984.7 -2.82011 3.65058 0
M  V30 31722 H 2982.94 -2.59672 3.47495 0
M  V30 31723 H 2983.61 -4.22887 3.54782 0
M  V30 31724 H 2986.09 -3.81274 1.66641 0
M  V30 31725 H 2984.96 -5.19097 1.7841 0
M  V30 31726 H 2985.22 -4.41501 0.229986 0
M  V30 31727 N 2984.28 -0.97385 -1.23911 0
M  V30 31728 C 2985.53 -0.649669 -1.92746 0
M  V30 31729 C 2985.88 0.807126 -1.74652 0
M  V30 31730 O 2985.18 1.57384 -1.09274 0
M  V30 31731 C 2985.37 -0.967416 -3.44058 0
M  V30 31732 C 2985.2 -2.45355 -3.7687 0
M  V30 31733 C 2983.97 -3.11442 -3.97909 0
M  V30 31734 C 2986.17 -3.43393 -3.82865 0
M  V30 31735 N 2984.15 -4.49729 -4.17872 0
M  V30 31736 C 2985.52 -4.67061 -4.07743 0
M  V30 31737 C 2987.58 -3.37965 -3.65628 0
M  V30 31738 C 2986.28 -5.85968 -4.17174 0
M  V30 31739 C 2988.31 -4.5623 -3.76309 0
M  V30 31740 C 2987.67 -5.7869 -4.01618 0
M  V30 31741 H 2983.77 -0.28868 -0.726765 0
M  V30 31742 H 2986.35 -1.24997 -1.49278 0
M  V30 31743 H 2984.52 -0.395872 -3.86377 0
M  V30 31744 H 2986.25 -0.601178 -4.0021 0
M  V30 31745 H 2983.01 -2.61956 -3.94558 0
M  V30 31746 H 2983.43 -5.21402 -4.3182 0
M  V30 31747 H 2988.07 -2.44318 -3.45063 0
M  V30 31748 H 2985.79 -6.80037 -4.3655 0
M  V30 31749 H 2989.38 -4.53598 -3.64335 0
M  V30 31750 H 2988.26 -6.68675 -4.09688 0
M  V30 31751 N 2985.76 1.38895 -0.744705 0
M  V30 31752 C 2986.69 2.33158 -0.126396 0
M  V30 31753 C 2987.67 1.54413 0.71349 0
M  V30 31754 O 2988.86 1.82767 0.65649 0
M  V30 31755 C 2985.99 3.38558 0.774316 0
M  V30 31756 C 2984.94 4.27983 0.0378461 0
M  V30 31757 C 2984.27 5.24164 1.05622 0
M  V30 31758 C 2985.57 5.10033 -1.12532 0
M  V30 31759 H 2987.26 2.85114 -0.913794 0
M  V30 31760 H 2984.81 1.37085 -0.440871 0
M  V30 31761 H 2986.76 4.0346 1.21648 0
M  V30 31762 H 2985.48 2.85063 1.59394 0
M  V30 31763 H 2984.14 3.64575 -0.384797 0
M  V30 31764 H 2983.79 4.66961 1.86967 0
M  V30 31765 H 2983.49 5.84847 0.568158 0
M  V30 31766 H 2985.02 5.91942 1.49788 0
M  V30 31767 H 2986.43 5.68225 -0.761137 0
M  V30 31768 H 2984.83 5.79906 -1.54365 0
M  V30 31769 H 2985.9 4.44294 -1.94245 0
M  V30 31770 N 2987.24 0.493084 1.49688 0
M  V30 31771 C 2988.2 -0.278445 2.27502 0
M  V30 31772 C 2989.2 -0.901014 1.33186 0
M  V30 31773 O 2990.39 -0.766774 1.56417 0
M  V30 31774 C 2987.53 -1.39872 3.10883 0
M  V30 31775 H 2988.72 0.404271 2.97163 0
M  V30 31776 H 2986.27 0.247801 1.54323 0
M  V30 31777 H 2987.01 -2.11583 2.4577 0
M  V30 31778 H 2986.79 -0.957857 3.8022 0
M  V30 31779 H 2988.28 -1.9424 3.69676 0
M  V30 31780 N 2988.72 -1.55963 0.226582 0
M  V30 31781 C 2989.95 -2.02534 -0.407879 0
M  V30 31782 C 2990.36 -1.10557 -1.53538 0
M  V30 31783 O 2989.7 -0.108442 -1.8338 0
M  V30 31784 C 2989.76 -3.45427 -0.996021 0
M  V30 31785 C 2989.43 -4.57 -0.00333619 0
M  V30 31786 C 2990.42 -5.13726 0.798872 0
M  V30 31787 C 2988.11 -5.02164 0.116875 0
M  V30 31788 C 2990.1 -6.14091 1.70795 0
M  V30 31789 C 2987.79 -6.02366 1.02948 0
M  V30 31790 C 2988.79 -6.58206 1.82355 0
M  V30 31791 O 2988.47 -7.56457 2.72081 0
M  V30 31792 H 2988.21 -0.668028 -0.103513 0
M  V30 31793 H 2990.76 -2.02533 0.341973 0
M  V30 31794 H 2988.99 -3.42512 -1.79506 0
M  V30 31795 H 2990.68 -3.75616 -1.53842 0
M  V30 31796 H 2991.45 -4.79679 0.716477 0
M  V30 31797 H 2987.32 -4.58377 -0.491092 0
M  V30 31798 H 2990.87 -6.57603 2.32818 0
M  V30 31799 H 2986.77 -6.35834 1.11287 0
M  V30 31800 H 2987.53 -7.73998 2.66212 0
M  V30 31801 N 2990.2 0.0467589 -1.57531 0
M  V30 31802 C 2991.14 1.05281 -2.05389 0
M  V30 31803 C 2992.11 1.36983 -0.93941 0
M  V30 31804 O 2993.3 1.47624 -1.2088 0
M  V30 31805 C 2990.44 2.35404 -2.52347 0
M  V30 31806 C 2989.55 2.10015 -3.77515 0
M  V30 31807 C 2988.69 3.3388 -4.13156 0
M  V30 31808 C 2987.73 3.03967 -5.31291 0
M  V30 31809 N 2986.86 4.20233 -5.62449 0
M  V30 31810 H 2991.7 0.637737 -2.91096 0
M  V30 31811 H 2989.24 0.303297 -1.43939 0
M  V30 31812 H 2991.2 3.11409 -2.77634 0
M  V30 31813 H 2989.83 2.74667 -1.69582 0
M  V30 31814 H 2988.88 1.24587 -3.59419 0
M  V30 31815 H 2990.19 1.83937 -4.63647 0
M  V30 31816 H 2989.35 4.18265 -4.39476 0
M  V30 31817 H 2988.08 3.63056 -3.2564 0
M  V30 31818 H 2987.09 2.17982 -5.04741 0
M  V30 31819 H 2988.31 2.76087 -6.20445 0
M  V30 31820 H 2986.26 4.49393 -4.77893 0
M  V30 31821 H 2986.18 3.97517 -6.43053 0
M  V30 31822 H 2987.45 5.05542 -5.93336 0
M  V30 31823 N 2991.67 1.54344 0.318688 0
M  V30 31824 C 2992.92 1.73038 1.05762 0
M  V30 31825 C 2993.25 0.505214 1.87513 0
M  V30 31826 O 2992.53 -0.497805 1.88022 0
M  V30 31827 C 2992.81 3.00891 1.9783 0
M  V30 31828 C 2992.66 4.3367 1.19376 0
M  V30 31829 C 2993.98 3.2452 2.97279 0
M  V30 31830 H 2991.1 0.62961 0.383093 0
M  V30 31831 H 2993.74 1.87044 0.333831 0
M  V30 31832 H 2991.89 2.89081 2.59547 0
M  V30 31833 H 2993.57 4.5737 0.600826 0
M  V30 31834 H 2991.81 4.30954 0.496122 0
M  V30 31835 H 2992.48 5.19358 1.87005 0
M  V30 31836 H 2994.96 3.35823 2.45687 0
M  V30 31837 H 2993.83 4.15327 3.5888 0
M  V30 31838 H 2994.09 2.41978 3.69999 0
M  V30 31839 N 2993.15 -0.580999 1.465 0
M  V30 31840 C 2994.12 -1.67197 1.56773 0
M  V30 31841 C 2995.12 -1.54527 0.444743 0
M  V30 31842 O 2996.31 -1.59114 0.709102 0
M  V30 31843 C 2993.44 -3.0663 1.48966 0
M  V30 31844 H 2994.63 -1.59445 2.54002 0
M  V30 31845 H 2992.18 -0.79898 1.34335 0
M  V30 31846 H 2992.92 -3.19936 0.530224 0
M  V30 31847 H 2992.7 -3.17235 2.30444 0
M  V30 31848 H 2994.19 -3.86046 1.59244 0
M  V30 31849 N 2994.63 -1.34234 -0.825776 0
M  V30 31850 C 2995.59 -1.25471 -1.91806 0
M  V30 31851 C 2996.59 -0.170595 -1.59893 0
M  V30 31852 O 2997.78 -0.423026 -1.68986 0
M  V30 31853 C 2994.92 -0.936498 -3.27784 0
M  V30 31854 H 2996.11 -2.22575 -2.00999 0
M  V30 31855 H 2993.66 -1.18481 -1.01941 0
M  V30 31856 H 2994.4 0.0314838 -3.24285 0
M  V30 31857 H 2994.18 -1.72064 -3.5233 0
M  V30 31858 H 2995.67 -0.900286 -4.0778 0
M  V30 31859 N 2996.11 1.04563 -1.17917 0
M  V30 31860 C 2997.02 2.15958 -0.916487 0
M  V30 31861 C 2998.03 1.73602 0.117625 0
M  V30 31862 O 2999.21 2.01301 -0.0631244 0
M  V30 31863 C 2996.28 3.43892 -0.440323 0
M  V30 31864 C 2995.34 4.00658 -1.54179 0
M  V30 31865 C 2994.57 5.22487 -1.08826 0
M  V30 31866 O 2994.79 5.70373 0.0550545 0
M  V30 31867 O 2993.73 5.71657 -1.88393 0
M  V30 31868 H 2997.55 2.40969 -1.84845 0
M  V30 31869 H 2995.14 1.14426 -0.960572 0
M  V30 31870 H 2997.02 4.21004 -0.182611 0
M  V30 31871 H 2995.69 3.20366 0.463404 0
M  V30 31872 H 2994.6 3.24958 -1.85346 0
M  V30 31873 H 2995.93 4.28516 -2.42146 0
M  V30 31874 N 2997.59 0.980408 1.23393 0
M  V30 31875 C 2998.83 0.648012 1.91429 0
M  V30 31876 C 2999.16 -0.821035 1.76873 0
M  V30 31877 O 2998.43 -1.5873 1.14811 0
M  V30 31878 H 2997.01 0.236685 0.708512 0
M  V30 31879 H 2999.67 1.24422 1.50017 0
M  V30 31880 H 2998.76 0.899645 2.98852 0
M  V30 31881 N 2999.06 -1.38498 0.75206 0
M  V30 31882 C 3000.31 -1.99391 0.304329 0
M  V30 31883 C 3000.63 -1.60375 -1.11979 0
M  V30 31884 O 3001.83 -2.14226 -1.66791 0
M  V30 31885 C 3000.29 -3.56505 0.493164 0
M  V30 31886 C 2999.9 -4.04474 1.92627 0
M  V30 31887 C 3001.64 -4.24362 0.108069 0
M  V30 31888 C 2999.55 -5.54223 2.06375 0
M  V30 31889 H 2998.48 -0.745928 0.110037 0
M  V30 31890 H 3001.13 -1.58282 0.928383 0
M  V30 31891 H 2999.51 -3.95494 -0.200051 0
M  V30 31892 H 3000.68 -3.76778 2.65283 0
M  V30 31893 H 2999 -3.49335 2.26614 0
M  V30 31894 H 3001.6 -5.34364 0.189568 0
M  V30 31895 H 3001.94 -4.0557 -0.939094 0
M  V30 31896 H 3002.47 -3.90607 0.75308 0
M  V30 31897 H 2999.21 -5.77918 3.0934 0
M  V30 31898 H 2998.73 -5.83667 1.38178 0
M  V30 31899 H 3000.41 -6.19899 1.85297 0
M  V30 31900 N 3000.54 -0.501015 -1.49424 0
M  V30 31901 C 3001.49 0.291108 -2.30771 0
M  V30 31902 C 3002.48 0.962763 -1.39382 0
M  V30 31903 O 3003.69 0.89045 -1.56432 0
M  V30 31904 H 3000.07 0.112737 -0.743501 0
M  V30 31905 H 3002.04 -0.414969 -2.95501 0
M  V30 31906 C 3000.79 1.34274 -3.20727 0
M  V30 31907 H 3000.11 0.835311 -3.90976 0
M  V30 31908 H 3001.55 1.86897 -3.80586 0
M  V30 31909 C 3000.01 2.36091 -2.40339 0
M  V30 31910 O 3000.54 3.41972 -2.10755 0
M  V30 31911 N 2998.74 2.08561 -2.02362 0
M  V30 31912 H 2998.29 1.22478 -2.26621 0
M  V30 31913 H 2998.25 2.76914 -1.48883 0
M  V30 31914 N 3002.02 1.5584 -0.234849 0
M  V30 31915 C 3003.25 2.02747 0.397132 0
M  V30 31916 C 3003.66 1.1137 1.52949 0
M  V30 31917 O 3003 0.118165 1.8332 0
M  V30 31918 C 3003.06 3.4595 0.977688 0
M  V30 31919 C 3002.73 4.56995 -0.0208997 0
M  V30 31920 C 3003.73 5.13295 -0.826105 0
M  V30 31921 C 3001.41 5.02095 -0.143504 0
M  V30 31922 C 3003.4 6.13177 -1.74049 0
M  V30 31923 C 3001.09 6.01812 -1.06141 0
M  V30 31924 C 3002.09 6.5723 -1.85843 0
M  V30 31925 O 3001.78 7.55004 -2.76088 0
M  V30 31926 H 3001.51 0.668567 0.0999685 0
M  V30 31927 H 3004.06 2.02349 -0.352709 0
M  V30 31928 H 3002.29 3.43459 1.77687 0
M  V30 31929 H 3003.98 3.76427 1.51847 0
M  V30 31930 H 3004.75 4.79292 -0.741906 0
M  V30 31931 H 3000.63 4.58631 0.466776 0
M  V30 31932 H 3004.17 6.56359 -2.36302 0
M  V30 31933 H 3000.07 6.35235 -1.14657 0
M  V30 31934 H 3000.84 7.72576 -2.70313 0
M  V30 31935 N 3003.5 -0.038404 1.57553 0
M  V30 31936 C 3004.46 -1.0265 2.04929 0
M  V30 31937 C 3005.46 -1.29606 0.951791 0
M  V30 31938 O 3006.65 -1.24765 1.2157 0
M  V30 31939 C 3003.78 -2.36177 2.45832 0
M  V30 31940 H 3004.98 -0.617456 2.93475 0
M  V30 31941 H 3002.53 -0.285004 1.5368 0
M  V30 31942 H 3003.27 -2.81848 1.60413 0
M  V30 31943 H 3003.05 -2.17944 3.25949 0
M  V30 31944 H 3004.54 -3.07135 2.82945 0
M  V30 31945 N 3004.98 -1.54511 -0.310498 0
M  V30 31946 C 3006.25 -1.64006 -1.0659 0
M  V30 31947 C 3006.63 -0.482252 -2.05518 0
M  V30 31948 O 3005.98 0.522081 -2.22456 0
M  V30 31949 C 3006.19 -3.01592 -1.75622 0
M  V30 31950 C 3007.54 -3.58085 -2.28167 0
M  V30 31951 O 3008.56 -3.03983 -1.85669 0
M  V30 31952 O 3007.42 -4.52793 -3.06008 0
M  V30 31953 H 3004.52 -0.664657 -0.492097 0
M  V30 31954 H 3007.06 -1.66857 -0.309345 0
M  V30 31955 H 3005.84 -3.77299 -1.03736 0
M  V30 31956 H 3005.46 -3.02478 -2.58056 0
M  V30 31957 N 3006.46 0.573222 -1.46806 0
M  V30 31958 C 3007.87 0.897554 -1.3197 0
M  V30 31959 C 3008.07 1.99281 -0.298206 0
M  V30 31960 O 3007.13 2.5076 0.295909 0
M  V30 31961 C 3008.44 1.30593 -2.70861 0
M  V30 31962 C 3009.99 1.41825 -2.79024 0
M  V30 31963 C 3010.46 1.86025 -4.18519 0
M  V30 31964 N 3011.95 1.93203 -4.20983 0
M  V30 31965 C 3012.69 2.28698 -5.25818 0
M  V30 31966 N 3012.19 2.62919 -6.40972 0
M  V30 31967 N 3013.98 2.29334 -5.13188 0
M  V30 31968 H 3006.13 -0.150131 -2.11869 0
M  V30 31969 H 3008.39 -0.00449562 -0.947989 0
M  V30 31970 H 3008.1 0.5751 -3.46966 0
M  V30 31971 H 3007.97 2.26548 -3.01589 0
M  V30 31972 H 3010.36 2.13993 -2.03202 0
M  V30 31973 H 3010.44 0.440979 -2.5197 0
M  V30 31974 H 3010.08 1.14433 -4.94841 0
M  V30 31975 H 3010.01 2.84728 -4.42987 0
M  V30 31976 H 3012.51 1.69208 -3.37901 0
M  V30 31977 H 3012.82 2.88984 -7.16734 0
M  V30 31978 H 3011.16 2.60535 -6.44318 0
M  V30 31979 H 3014.35 2.02029 -4.22258 0
M  V30 31980 H 3014.53 2.56668 -5.95 0
M  V30 31981 N 3007.93 1.3467 0.818645 0
M  V30 31982 C 3009.35 1.14445 1.11241 0
M  V30 31983 C 3009.55 -0.0511858 2.01435 0
M  V30 31984 O 3008.61 -0.725428 2.41855 0
M  V30 31985 C 3009.92 2.44173 1.755 0
M  V30 31986 C 3011.47 2.50268 1.87975 0
M  V30 31987 C 3011.94 3.80009 2.55651 0
M  V30 31988 N 3013.43 3.81193 2.63146 0
M  V30 31989 C 3014.17 4.78303 3.16249 0
M  V30 31990 N 3013.66 5.85797 3.69883 0
M  V30 31991 N 3015.46 4.65754 3.1469 0
M  V30 31992 H 3007.61 2.1127 0.218811 0
M  V30 31993 H 3009.87 0.934462 0.159639 0
M  V30 31994 H 3009.58 3.31777 1.16691 0
M  V30 31995 H 3009.45 2.57829 2.75325 0
M  V30 31996 H 3011.84 1.631 2.45931 0
M  V30 31997 H 3011.92 2.40536 0.870404 0
M  V30 31998 H 3011.56 4.67569 1.98347 0
M  V30 31999 H 3011.49 3.87025 3.57098 0
M  V30 32000 H 3013.98 3.03517 2.25135 0
M  V30 32001 H 3014.3 6.55905 4.08667 0
M  V30 32002 H 3012.64 5.89505 3.68115 0
M  V30 32003 H 3015.83 3.80922 2.72059 0
M  V30 32004 H 3016.01 5.41601 3.5577 0
M  V30 32005 N 3009.41 -1.03936 1.1847 0
M  V30 32006 C 3010.66 -1.77551 0.992333 0
M  V30 32007 C 3011.01 -1.86497 -0.472926 0
M  V30 32008 O 3010.31 -1.36299 -1.3466 0
M  V30 32009 C 3010.5 -3.20463 1.58235 0
M  V30 32010 C 3010.33 -3.25447 3.10346 0
M  V30 32011 C 3009.1 -3.34001 3.79172 0
M  V30 32012 C 3011.3 -3.1335 4.07819 0
M  V30 32013 N 3009.28 -3.28248 5.18774 0
M  V30 32014 C 3010.65 -3.15112 5.33952 0
M  V30 32015 C 3012.7 -2.97402 3.9932 0
M  V30 32016 C 3011.41 -3.02563 6.52571 0
M  V30 32017 C 3013.43 -2.86199 5.17537 0
M  V30 32018 C 3012.8 -2.88605 6.42562 0
M  V30 32019 H 3008.89 -0.66145 0.417143 0
M  V30 32020 H 3011.48 -1.23805 1.50267 0
M  V30 32021 H 3009.65 -3.72552 1.09817 0
M  V30 32022 H 3011.38 -3.82382 1.32537 0
M  V30 32023 H 3008.14 -3.39788 3.29911 0
M  V30 32024 H 3008.56 -3.28808 5.91789 0
M  V30 32025 H 3013.2 -2.9437 3.0349 0
M  V30 32026 H 3010.92 -3.04347 7.48598 0
M  V30 32027 H 3014.51 -2.74911 5.12753 0
M  V30 32028 H 3013.39 -2.80026 7.32499 0
M  V30 32029 N 3010.89 -0.986938 -1.22871 0
M  V30 32030 C 3012.13 -0.667577 -1.93191 0
M  V30 32031 C 3012.49 0.785165 -1.75212 0
M  V30 32032 O 3013.69 1.21566 -2.3974 0
M  V30 32033 C 3011.97 -1.05519 -3.41468 0
M  V30 32034 S 3013.52 -0.853293 -4.30423 0
M  V30 32035 H 3010.34 -0.244273 -0.667721 0
M  V30 32036 H 3012.94 -1.26796 -1.48805 0
M  V30 32037 H 3011.65 -2.10898 -3.52065 0
M  V30 32038 H 3011.18 -0.446362 -3.9086 0
M  V30 32039 H 3013.19 0.259357 -4.95522 0
M  V30 32040 N 3012.37 1.38098 -0.759394 0
M  V30 32041 C 3013.61 1.99985 -0.318148 0
M  V30 32042 C 3013.94 1.60282 1.10182 0
M  V30 32043 O 3013.2 0.834555 1.77013 0
M  V30 32044 C 3013.5 3.5521 -0.395061 0
M  V30 32045 C 3013.16 4.14643 -1.77151 0
M  V30 32046 C 3011.82 4.30588 -2.14819 0
M  V30 32047 C 3014.18 4.47369 -2.67415 0
M  V30 32048 C 3011.5 4.76558 -3.42212 0
M  V30 32049 C 3013.86 4.94758 -3.94205 0
M  V30 32050 C 3012.52 5.0891 -4.31934 0
M  V30 32051 H 3011.79 0.731798 -0.116419 0
M  V30 32052 H 3014.44 1.65057 -0.971009 0
M  V30 32053 H 3012.74 3.9031 0.341358 0
M  V30 32054 H 3014.44 4.00985 -0.0351426 0
M  V30 32055 H 3011.03 4.0265 -1.46871 0
M  V30 32056 H 3015.21 4.34646 -2.39577 0
M  V30 32057 H 3010.47 4.85701 -3.71355 0
M  V30 32058 H 3014.64 5.19049 -4.64285 0
M  V30 32059 H 3012.27 5.44291 -5.30708 0
M  V30 32060 N 3013.85 0.508932 1.49156 0
M  V30 32061 C 3015.12 -0.0961569 1.95364 0
M  V30 32062 C 3015.5 -1.53359 1.45066 0
M  V30 32063 O 3014.85 -2.18522 0.667874 0
M  V30 32064 C 3015.06 -0.000627536 3.49 0
M  V30 32065 C 3016.41 -0.170558 4.24257 0
M  V30 32066 O 3017.43 -0.0754368 3.5612 0
M  V30 32067 O 3016.29 -0.366862 5.45267 0
M  V30 32068 H 3013.39 -0.0909345 0.821985 0
M  V30 32069 H 3015.93 0.572035 1.59768 0
M  V30 32070 H 3014.7 1.00149 3.78267 0
M  V30 32071 H 3014.33 -0.708613 3.91235 0
M  V30 32072 N 3015.32 -1.55714 0.243111 0
M  V30 32073 C 3016.57 -1.98458 -0.381929 0
M  V30 32074 C 3016.89 -1.1325 -1.58743 0
M  V30 32075 O 3016.16 -0.214419 -1.94723 0
M  V30 32076 H 3014.74 -0.732969 -0.144101 0
M  V30 32077 H 3017.4 -1.91893 0.341019 0
M  V30 32078 H 3016.5 -3.04294 -0.693648 0
M  V30 32079 N 3016.8 0.030048 -1.57571 0
M  V30 32080 C 3018.03 0.732857 -1.93486 0
M  V30 32081 C 3018.45 1.68945 -0.842788 0
M  V30 32082 O 3017.8 1.81601 0.180872 0
M  V30 32083 C 3017.85 1.49076 -3.2933 0
M  V30 32084 O 3017.57 0.572563 -4.34342 0
M  V30 32085 C 3019.08 2.29082 -3.79521 0
M  V30 32086 H 3016.3 0.206015 -0.638591 0
M  V30 32087 H 3018.84 -0.0121326 -2.04496 0
M  V30 32088 H 3016.99 2.18764 -3.1972 0
M  V30 32089 H 3017.41 1.10397 -5.1275 0
M  V30 32090 H 3018.88 2.77656 -4.77086 0
M  V30 32091 H 3019.36 3.10458 -3.10664 0
M  V30 32092 H 3019.97 1.6447 -3.92211 0
M  V30 32093 N 3018.28 1.54674 0.3023 0
M  V30 32094 C 3019.7 1.45858 0.647886 0
M  V30 32095 C 3019.9 0.648724 1.90772 0
M  V30 32096 O 3018.95 0.155909 2.52018 0
M  V30 32097 C 3020.27 2.89805 0.802093 0
M  V30 32098 C 3021.81 2.9984 0.898062 0
M  V30 32099 C 3022.29 4.4498 1.08428 0
M  V30 32100 N 3023.78 4.48684 1.15051 0
M  V30 32101 C 3024.51 5.58168 1.31287 0
M  V30 32102 N 3024.01 6.77578 1.44428 0
M  V30 32103 N 3025.8 5.45854 1.34164 0
M  V30 32104 H 3017.95 2.05798 -0.525464 0
M  V30 32105 H 3020.22 0.931999 -0.173439 0
M  V30 32106 H 3019.92 3.5166 -0.0527149 0
M  V30 32107 H 3019.8 3.37148 1.69149 0
M  V30 32108 H 3022.18 2.38099 1.74336 0
M  V30 32109 H 3022.27 2.55795 -0.0153202 0
M  V30 32110 H 3021.91 5.07315 0.243753 0
M  V30 32111 H 3021.84 4.86654 2.01186 0
M  V30 32112 H 3024.33 3.62655 1.06253 0
M  V30 32113 H 3024.64 7.56774 1.56568 0
M  V30 32114 H 3022.99 6.80446 1.41487 0
M  V30 32115 H 3026.18 4.51512 1.23508 0
M  V30 32116 H 3026.35 6.31228 1.46474 0
M  V30 32117 N 3019.76 -0.565428 1.47108 0
M  V30 32118 C 3020.71 -1.69421 1.59371 0
M  V30 32119 C 3021.7 -1.62996 0.461373 0
M  V30 32120 O 3022.91 -1.68281 0.638878 0
M  V30 32121 H 3019.28 -0.56045 0.501397 0
M  V30 32122 H 3021.25 -1.56213 2.54244 0
M  V30 32123 C 3020 -3.07789 1.61744 0
M  V30 32124 H 3019.32 -3.13411 2.48221 0
M  V30 32125 H 3020.76 -3.86483 1.74377 0
M  V30 32126 C 3019.22 -3.35085 0.349215 0
M  V30 32127 O 3019.75 -3.97872 -0.553218 0
M  V30 32128 N 3017.96 -2.89674 0.231774 0
M  V30 32129 H 3017.51 -2.38759 0.967063 0
M  V30 32130 H 3017.46 -3.08309 -0.615857 0
M  V30 32131 N 3021.24 -1.35102 -0.811492 0
M  V30 32132 C 3022.18 -1.27645 -1.94447 0
M  V30 32133 C 3023.18 -0.172317 -1.68521 0
M  V30 32134 O 3024.38 -0.337998 -1.76798 0
M  V30 32135 H 3020.76 -0.396835 -0.638769 0
M  V30 32136 H 3022.73 -2.23372 -1.97857 0
M  V30 32137 C 3021.48 -1.06035 -3.31137 0
M  V30 32138 H 3020.8 -1.90234 -3.51641 0
M  V30 32139 H 3022.24 -1.04857 -4.1083 0
M  V30 32140 C 3020.7 0.23598 -3.36073 0
M  V30 32141 O 3021.23 1.23346 -3.82294 0
M  V30 32142 N 3019.44 0.273057 -2.89314 0
M  V30 32143 H 3018.98 -0.539255 -2.51892 0
M  V30 32144 H 3018.94 1.14015 -2.92998 0
M  V30 32145 N 3022.71 1.03306 -1.19019 0
M  V30 32146 C 3023.65 2.11555 -0.881884 0
M  V30 32147 C 3024.66 1.62329 0.123683 0
M  V30 32148 O 3025.85 1.7819 -0.105173 0
M  V30 32149 C 3022.95 3.3759 -0.297694 0
M  V30 32150 C 3022.12 4.1602 -1.35079 0
M  V30 32151 C 3021.18 5.20373 -0.780903 0
M  V30 32152 O 3020.21 5.50222 -1.45755 0
M  V30 32153 N 3021.41 5.78994 0.417863 0
M  V30 32154 H 3024.17 2.38595 -1.81364 0
M  V30 32155 H 3021.73 1.19563 -1.09162 0
M  V30 32156 H 3023.73 4.04583 0.0973029 0
M  V30 32157 H 3022.3 3.07931 0.538245 0
M  V30 32158 H 3021.52 3.44237 -1.9208 0
M  V30 32159 H 3022.8 4.65209 -2.06053 0
M  V30 32160 H 3022.2 5.57055 0.985183 0
M  V30 32161 H 3020.76 6.47416 0.754688 0
M  V30 32162 N 3024.19 0.99344 1.22346 0
M  V30 32163 C 3025.44 0.665053 1.9042 0
M  V30 32164 C 3025.75 -0.80648 1.782 0
M  V30 32165 O 3026.96 -1.24647 2.41196 0
M  V30 32166 C 3025.42 1.13899 3.41401 0
M  V30 32167 C 3025.02 2.63579 3.62257 0
M  V30 32168 C 3026.77 0.884957 4.15173 0
M  V30 32169 C 3024.68 3.04573 5.06941 0
M  V30 32170 H 3023.61 0.245049 0.713069 0
M  V30 32171 H 3026.26 1.20307 1.38558 0
M  V30 32172 H 3024.64 0.529096 3.92449 0
M  V30 32173 H 3025.81 3.29918 3.21699 0
M  V30 32174 H 3024.13 2.8687 3.01819 0
M  V30 32175 H 3026.72 1.16693 5.21811 0
M  V30 32176 H 3027.07 -0.178909 4.15915 0
M  V30 32177 H 3027.6 1.45707 3.70154 0
M  V30 32178 H 3024.34 4.10137 5.11339 0
M  V30 32179 H 3023.86 2.42937 5.48399 0
M  V30 32180 H 3025.54 2.95904 5.75369 0
M  V30 32181 N 3025.67 -1.37693 0.766707 0
M  V30 32182 C 3026.6 -2.32927 0.163473 0
M  V30 32183 C 3027.58 -1.55528 -0.688834 0
M  V30 32184 O 3028.77 -1.83788 -0.627331 0
M  V30 32185 C 3025.9 -3.39747 -0.720356 0
M  V30 32186 C 3024.85 -4.27989 0.0302471 0
M  V30 32187 C 3024.18 -5.25778 -0.972696 0
M  V30 32188 C 3025.48 -5.08178 1.20632 0
M  V30 32189 H 3027.17 -2.83624 0.959038 0
M  V30 32190 H 3024.72 -1.36366 0.462625 0
M  V30 32191 H 3026.67 -4.05344 -1.15214 0
M  V30 32192 H 3025.39 -2.87563 -1.54839 0
M  V30 32193 H 3024.05 -3.63917 0.442749 0
M  V30 32194 H 3023.7 -4.69876 -1.79514 0
M  V30 32195 H 3023.4 -5.85677 -0.475043 0
M  V30 32196 H 3024.92 -5.94251 -1.40352 0
M  V30 32197 H 3026.34 -5.66942 0.85144 0
M  V30 32198 H 3024.74 -5.77377 1.63572 0
M  V30 32199 H 3025.81 -4.41147 2.01288 0
M  V30 32200 N 3027.15 -0.516835 -1.48884 0
M  V30 32201 C 3028.06 0.257252 -2.33185 0
M  V30 32202 C 3029.07 0.951926 -1.45652 0
M  V30 32203 O 3030.25 0.929803 -1.78652 0
M  V30 32204 C 3027.32 1.29845 -3.21467 0
M  V30 32205 C 3026.38 0.615533 -4.24864 0
M  V30 32206 C 3025.61 1.60713 -5.08927 0
M  V30 32207 O 3025.83 2.83854 -4.94755 0
M  V30 32208 O 3024.77 1.15374 -5.90739 0
M  V30 32209 H 3028.59 -0.433183 -3.00595 0
M  V30 32210 H 3026.18 -0.277934 -1.46792 0
M  V30 32211 H 3028.06 1.90048 -3.76111 0
M  V30 32212 H 3026.73 1.97153 -2.56734 0
M  V30 32213 H 3025.64 -0.0266486 -3.74091 0
M  V30 32214 H 3026.97 -0.0153736 -4.92198 0
M  V30 32215 N 3028.63 1.55583 -0.251365 0
M  V30 32216 C 3029.54 2.25214 0.656939 0
M  V30 32217 C 3030.55 1.26979 1.18964 0
M  V30 32218 O 3031.73 1.59864 1.22496 0
M  V30 32219 C 3028.79 2.94144 1.83522 0
M  V30 32220 C 3027.85 4.078 1.34155 0
M  V30 32221 C 3027.09 4.73433 2.46366 0
M  V30 32222 O 3027.31 4.38163 3.65197 0
M  V30 32223 O 3026.24 5.61857 2.15871 0
M  V30 32224 H 3030.07 3.03556 0.0935862 0
M  V30 32225 H 3027.66 1.49387 -0.01969 0
M  V30 32226 H 3029.54 3.37545 2.52273 0
M  V30 32227 H 3028.21 2.18739 2.3861 0
M  V30 32228 H 3027.12 3.68907 0.621184 0
M  V30 32229 H 3028.45 4.85036 0.836694 0
M  V30 32230 N 3030.1 -0.0216912 1.57585 0
M  V30 32231 C 3031.05 -1.03838 2.08136 0
M  V30 32232 C 3032.05 -1.36976 0.996686 0
M  V30 32233 O 3033.25 -1.35795 1.18151 0
M  V30 32234 H 3029.63 -0.352426 0.664304 0
M  V30 32235 H 3031.6 -0.586288 2.92584 0
M  V30 32236 C 3030.35 -2.32844 2.58223 0
M  V30 32237 H 3029.67 -2.08208 3.41306 0
M  V30 32238 H 3031.11 -3.02311 2.97295 0
M  V30 32239 C 3029.57 -3.02323 1.4867 0
M  V30 32240 O 3030.1 -3.92449 0.857144 0
M  V30 32241 N 3028.31 -2.63777 1.21943 0
M  V30 32242 H 3027.85 -1.90571 1.73322 0
M  V30 32243 H 3027.81 -3.10581 0.488578 0
M  V30 32244 N 3031.58 -1.54832 -0.294093 0
M  V30 32245 C 3032.83 -1.74699 -1.02996 0
M  V30 32246 C 3033.16 -0.534982 -1.86686 0
M  V30 32247 O 3032.44 0.46783 -1.8879 0
M  V30 32248 C 3032.72 -3.04 -1.93018 0
M  V30 32249 C 3032.57 -4.35514 -1.12462 0
M  V30 32250 C 3033.89 -3.29208 -2.92079 0
M  V30 32251 H 3031.01 -0.635625 -0.373028 0
M  V30 32252 H 3033.65 -1.87552 -0.304032 0
M  V30 32253 H 3031.8 -2.93173 -2.54915 0
M  V30 32254 H 3033.48 -4.58268 -0.527986 0
M  V30 32255 H 3031.72 -4.31688 -0.427498 0
M  V30 32256 H 3032.39 -5.22268 -1.78719 0
M  V30 32257 H 3034.87 -3.39689 -2.40313 0
M  V30 32258 H 3033.74 -4.20984 -3.52227 0
M  V30 32259 H 3034 -2.47833 -3.66102 0
M  V30 32260 N 3033.06 0.557619 -1.47405 0
M  V30 32261 C 3033.97 1.69213 -1.62494 0
M  V30 32262 C 3034.99 1.66426 -0.507793 0
M  V30 32263 O 3036.16 1.8588 -0.775273 0
M  V30 32264 C 3033.23 3.05718 -1.63516 0
M  V30 32265 C 3032.29 3.19575 -2.86653 0
M  V30 32266 C 3031.52 4.49569 -2.87617 0
M  V30 32267 O 3031.75 5.35003 -1.97808 0
M  V30 32268 O 3030.68 4.67208 -3.79474 0
M  V30 32269 H 3034.51 1.59426 -2.5849 0
M  V30 32270 H 3032.09 0.727578 -1.30486 0
M  V30 32271 H 3033.97 3.86953 -1.6687 0
M  V30 32272 H 3032.65 3.15888 -0.706868 0
M  V30 32273 H 3031.55 2.37739 -2.88844 0
M  V30 32274 H 3032.89 3.14309 -3.78775 0
M  V30 32275 N 3034.54 1.35531 0.804316 0
M  V30 32276 C 3035.79 1.29121 1.56383 0
M  V30 32277 C 3036.12 -0.133501 1.93741 0
M  V30 32278 O 3035.39 -1.08341 1.61531 0
M  V30 32279 C 3035.68 2.19986 2.85093 0
M  V30 32280 C 3035.53 3.71085 2.54197 0
M  V30 32281 C 3036.85 2.09913 3.86813 0
M  V30 32282 H 3033.97 0.470378 0.567374 0
M  V30 32283 H 3036.61 1.65952 0.925206 0
M  V30 32284 H 3034.76 1.88707 3.39591 0
M  V30 32285 H 3036.43 4.12816 2.05865 0
M  V30 32286 H 3034.67 3.91254 1.87357 0
M  V30 32287 H 3035.35 4.30054 3.4606 0
M  V30 32288 H 3037.82 2.37415 3.41721 0
M  V30 32289 H 3036.7 2.75686 4.74645 0
M  V30 32290 H 3036.96 1.08178 4.28661 0
M  V30 32291 N 3036.02 -1.02674 1.19565 0
M  V30 32292 C 3036.93 -2.14472 0.950728 0
M  V30 32293 C 3037.94 -1.73767 -0.0899914 0
M  V30 32294 O 3039.12 -2.01175 0.0951417 0
M  V30 32295 C 3036.18 -3.43148 0.494977 0
M  V30 32296 C 3035.25 -3.98155 1.60534 0
M  V30 32297 C 3034.48 -5.2069 1.17124 0
M  V30 32298 O 3034.7 -5.70389 0.0356939 0
M  V30 32299 O 3033.64 -5.68587 1.97464 0
M  V30 32300 H 3037.46 -2.37998 1.88655 0
M  V30 32301 H 3035.05 -1.12884 0.978655 0
M  V30 32302 H 3036.93 -4.2066 0.249566 0
M  V30 32303 H 3035.6 -3.21063 -0.412378 0
M  V30 32304 H 3034.51 -3.21968 1.90493 0
M  V30 32305 H 3035.84 -4.24609 2.48933 0
M  V30 32306 N 3037.5 -0.999914 -1.21817 0
M  V30 32307 C 3038.74 -0.675142 -1.90065 0
M  V30 32308 C 3039.06 0.797018 -1.78625 0
M  V30 32309 O 3040.26 1.23367 -2.41853 0
M  V30 32310 C 3038.72 -1.15708 -3.40793 0
M  V30 32311 C 3038.33 -2.65496 -3.60854 0
M  V30 32312 C 3040.07 -0.906962 -4.14698 0
M  V30 32313 C 3037.98 -3.07257 -5.05319 0
M  V30 32314 H 3036.91 -0.248827 -0.711759 0
M  V30 32315 H 3039.56 -1.2104 -1.37918 0
M  V30 32316 H 3037.94 -0.549901 -3.92163 0
M  V30 32317 H 3039.12 -3.3162 -3.19945 0
M  V30 32318 H 3037.43 -2.88467 -3.00293 0
M  V30 32319 H 3040.03 -1.19459 -5.21185 0
M  V30 32320 H 3040.37 0.156849 -4.16004 0
M  V30 32321 H 3040.9 -1.47668 -3.69376 0
M  V30 32322 H 3037.64 -4.12843 -5.09157 0
M  V30 32323 H 3037.16 -2.45841 -5.47103 0
M  V30 32324 H 3038.84 -2.98951 -5.73792 0
M  V30 32325 N 3038.97 1.37284 -0.773999 0
M  V30 32326 C 3040.22 2.00386 -0.348868 0
M  V30 32327 C 3040.57 1.60339 1.06344 0
M  V30 32328 O 3039.87 0.840575 1.72177 0
M  V30 32329 C 3040.06 3.54771 -0.432714 0
M  V30 32330 C 3039.89 4.09811 -1.85163 0
M  V30 32331 C 3038.66 4.40659 -2.4728 0
M  V30 32332 C 3040.86 4.30651 -2.81147 0
M  V30 32333 N 3038.84 4.81428 -3.8092 0
M  V30 32334 C 3040.21 4.74054 -3.99591 0
M  V30 32335 C 3042.27 4.12789 -2.78405 0
M  V30 32336 C 3040.97 5.01466 -5.15679 0
M  V30 32337 C 3043 4.41338 -3.93668 0
M  V30 32338 C 3042.36 4.84983 -5.10853 0
M  V30 32339 H 3038.46 0.762224 -0.174752 0
M  V30 32340 H 3041.04 1.66557 -1.00831 0
M  V30 32341 H 3039.21 3.87902 0.196561 0
M  V30 32342 H 3040.94 4.04697 0.014689 0
M  V30 32343 H 3037.7 4.29818 -1.9888 0
M  V30 32344 H 3038.12 5.06118 -4.49637 0
M  V30 32345 H 3042.76 3.78216 -1.88977 0
M  V30 32346 H 3040.48 5.34927 -6.05705 0
M  V30 32347 H 3044.07 4.29103 -3.92889 0
M  V30 32348 H 3042.95 5.06649 -5.98562 0
M  V30 32349 N 3040.45 0.524724 1.48608 0
M  V30 32350 C 3041.68 -0.00739309 2.06899 0
M  V30 32351 C 3042.09 -1.28634 1.38198 0
M  V30 32352 O 3041.45 -1.76403 0.467802 0
M  V30 32353 C 3041.5 -0.240485 3.60699 0
M  V30 32354 O 3041.22 0.98779 4.26819 0
M  V30 32355 C 3042.72 -0.813576 4.3577 0
M  V30 32356 H 3039.94 0.0311411 0.670277 0
M  V30 32357 H 3042.49 0.728866 1.9107 0
M  V30 32358 H 3040.64 -0.926779 3.76151 0
M  V30 32359 H 3041.06 0.765267 5.18887 0
M  V30 32360 H 3042.53 -0.926124 5.44175 0
M  V30 32361 H 3043.01 -1.81721 3.99843 0
M  V30 32362 H 3043.61 -0.164011 4.24984 0
M  V30 32363 N 3041.93 -1.55447 0.259613 0
M  V30 32364 C 3042.88 -2.21906 -0.634539 0
M  V30 32365 C 3043.85 -1.18721 -1.16166 0
M  V30 32366 O 3045.03 -1.47212 -1.2138 0
M  V30 32367 C 3042.17 -2.93207 -1.82 0
M  V30 32368 C 3041.28 -4.11075 -1.3282 0
M  V30 32369 C 3040.42 -4.70059 -2.47423 0
M  V30 32370 C 3039.46 -5.80151 -1.95169 0
M  V30 32371 N 3038.6 -6.33264 -3.03185 0
M  V30 32372 H 3043.44 -2.97937 -0.0611362 0
M  V30 32373 H 3040.97 -1.47088 -0.0184119 0
M  V30 32374 H 3042.93 -3.32752 -2.51658 0
M  V30 32375 H 3041.56 -2.19626 -2.36567 0
M  V30 32376 H 3040.61 -3.76756 -0.525235 0
M  V30 32377 H 3041.92 -4.90515 -0.905348 0
M  V30 32378 H 3041.08 -5.12244 -3.25102 0
M  V30 32379 H 3039.82 -3.89863 -2.93016 0
M  V30 32380 H 3038.82 -5.37431 -1.15964 0
M  V30 32381 H 3040.05 -6.62207 -1.5053 0
M  V30 32382 H 3037.99 -5.55968 -3.4819 0
M  V30 32383 H 3037.91 -7.07932 -2.6527 0
M  V30 32384 H 3039.18 -6.80108 -3.80886 0
M  V30 32385 N 3043.41 0.0133338 -1.57594 0
M  V30 32386 C 3044.32 1.02562 -2.10993 0
M  V30 32387 C 3045.33 1.38589 -1.0521 0
M  V30 32388 O 3046.51 1.4759 -1.37037 0
M  V30 32389 C 3043.57 2.30288 -2.59169 0
M  V30 32390 C 3042.64 2.00698 -3.79498 0
M  V30 32391 C 3041.87 3.22334 -4.25367 0
M  V30 32392 O 3042.09 4.33559 -3.70652 0
M  V30 32393 O 3041.03 3.07112 -5.17654 0
M  V30 32394 H 3044.85 0.601753 -2.97679 0
M  V30 32395 H 3042.44 0.231324 -1.47598 0
M  V30 32396 H 3044.32 3.05348 -2.90414 0
M  V30 32397 H 3042.99 2.71939 -1.75587 0
M  V30 32398 H 3041.9 1.23155 -3.53247 0
M  V30 32399 H 3043.23 1.63892 -4.64112 0
M  V30 32400 N 3044.89 1.54985 0.285878 0
M  V30 32401 C 3046.13 1.74638 1.01715 0
M  V30 32402 C 3046.45 0.543375 1.87276 0
M  V30 32403 O 3045.72 -0.442044 1.90848 0
M  V30 32404 H 3044.3 0.643986 0.378538 0
M  V30 32405 H 3046.97 1.92367 0.313213 0
M  V30 32406 H 3046.06 2.64195 1.66154 0
M  V30 32407 N 3046.36 -0.549794 1.47699 0
M  V30 32408 C 3047.27 -1.68349 1.63389 0
M  V30 32409 C 3048.29 -1.66154 0.516612 0
M  V30 32410 O 3049.47 -1.85467 0.78512 0
M  V30 32411 C 3046.53 -3.04846 1.65135 0
M  V30 32412 C 3045.59 -3.18051 2.88344 0
M  V30 32413 C 3044.83 -4.48037 2.89998 0
M  V30 32414 O 3045.05 -5.33946 2.00643 0
M  V30 32415 O 3043.98 -4.65189 3.81946 0
M  V30 32416 H 3047.81 -1.58053 2.59332 0
M  V30 32417 H 3045.39 -0.720647 1.3087 0
M  V30 32418 H 3047.28 -3.86062 1.6892 0
M  V30 32419 H 3045.95 -3.15508 0.72361 0
M  V30 32420 H 3044.86 -2.36204 2.90101 0
M  V30 32421 H 3046.19 -3.12296 3.80437 0
M  V30 32422 N 3047.84 -1.35955 -0.797117 0
M  V30 32423 C 3049.26 -1.162 -1.09406 0
M  V30 32424 C 3049.46 0.0191328 -2.01491 0
M  V30 32425 O 3048.51 0.68686 -2.42978 0
M  V30 32426 C 3049.83 -2.46934 -1.71593 0
M  V30 32427 C 3051.38 -2.53227 -1.8397 0
M  V30 32428 C 3051.85 -3.84028 -2.49573 0
M  V30 32429 N 3053.34 -3.85331 -2.57049 0
M  V30 32430 C 3054.08 -4.83274 -3.086 0
M  V30 32431 N 3053.57 -5.91608 -3.60517 0
M  V30 32432 N 3055.37 -4.70701 -3.07241 0
M  V30 32433 H 3047.52 -2.11591 -0.185172 0
M  V30 32434 H 3049.78 -0.936884 -0.144752 0
M  V30 32435 H 3049.49 -3.33592 -1.11398 0
M  V30 32436 H 3049.36 -2.62177 -2.71188 0
M  V30 32437 H 3051.75 -1.66992 -2.43306 0
M  V30 32438 H 3051.83 -2.4189 -0.832027 0
M  V30 32439 H 3051.47 -4.70665 -1.90884 0
M  V30 32440 H 3051.4 -3.92657 -3.50895 0
M  V30 32441 H 3053.89 -3.07061 -2.20277 0
M  V30 32442 H 3054.21 -6.62324 -3.9818 0
M  V30 32443 H 3052.55 -5.95287 -3.5869 0
M  V30 32444 H 3055.74 -3.85202 -2.65965 0
M  V30 32445 H 3055.91 -5.47192 -3.47109 0
M  V30 32446 N 3049.32 1.02038 -1.20108 0
M  V30 32447 C 3050.27 2.10499 -0.946505 0
M  V30 32448 C 3051.24 1.65652 0.121873 0
M  V30 32449 O 3052.42 1.90787 -0.0220579 0
M  V30 32450 C 3049.56 3.4145 -0.500559 0
M  V30 32451 C 3048.68 3.99797 -1.63666 0
M  V30 32452 C 3047.81 5.18792 -1.1414 0
M  V30 32453 C 3046.85 5.69213 -2.25084 0
M  V30 32454 N 3045.99 6.79474 -1.76803 0
M  V30 32455 H 3050.83 2.31612 -1.8751 0
M  V30 32456 H 3048.36 1.13585 -0.934713 0
M  V30 32457 H 3050.32 4.16602 -0.22335 0
M  V30 32458 H 3048.95 3.20423 0.391042 0
M  V30 32459 H 3048 3.21777 -2.02888 0
M  V30 32460 H 3049.32 4.33224 -2.47221 0
M  V30 32461 H 3048.47 6.01134 -0.819932 0
M  V30 32462 H 3047.21 4.8692 -0.275701 0
M  V30 32463 H 3046.21 4.85478 -2.58052 0
M  V30 32464 H 3047.44 6.03121 -3.12124 0
M  V30 32465 H 3045.38 6.49438 -0.925542 0
M  V30 32466 H 3045.3 7.12075 -2.53941 0
M  V30 32467 H 3046.57 7.6539 -1.47645 0
M  V30 32468 N 3050.8 1.00636 1.21285 0
M  V30 32469 C 3051.75 0.567916 2.23704 0
M  V30 32470 C 3052.72 -0.406724 1.61043 0
M  V30 32471 O 3053.9 -0.308466 1.8829 0
M  V30 32472 C 3051.04 -0.0979354 3.44961 0
M  V30 32473 C 3050.15 0.920046 4.22089 0
M  V30 32474 C 3049.29 0.226315 5.30718 0
M  V30 32475 C 3048.33 1.23175 5.99578 0
M  V30 32476 N 3047.46 0.565401 6.9982 0
M  V30 32477 H 3052.3 1.44596 2.60568 0
M  V30 32478 H 3049.84 0.724029 1.28048 0
M  V30 32479 H 3051.8 -0.501024 4.14181 0
M  V30 32480 H 3050.43 -0.93969 3.0882 0
M  V30 32481 H 3049.48 1.44137 3.52035 0
M  V30 32482 H 3050.79 1.68513 4.69473 0
M  V30 32483 H 3049.95 -0.23281 6.06253 0
M  V30 32484 H 3048.69 -0.571161 4.84344 0
M  V30 32485 H 3047.69 1.70137 5.22813 0
M  V30 32486 H 3048.92 2.03033 6.48039 0
M  V30 32487 H 3046.86 -0.212393 6.55656 0
M  V30 32488 H 3046.78 1.26872 7.45278 0
M  V30 32489 H 3048.05 0.129526 7.79392 0
M  V30 32490 N 3052.28 -1.36872 0.781268 0
M  V30 32491 C 3053.21 -2.32741 0.188169 0
M  V30 32492 C 3054.19 -1.5625 -0.672299 0
M  V30 32493 O 3055.37 -1.84444 -0.607802 0
M  V30 32494 C 3052.5 -3.40492 -0.684281 0
M  V30 32495 C 3051.46 -4.27933 0.0756394 0
M  V30 32496 C 3050.78 -5.2678 -0.916875 0
M  V30 32497 C 3052.08 -5.0687 1.26015 0
M  V30 32498 H 3053.78 -2.82591 0.989066 0
M  V30 32499 H 3051.32 -1.35868 0.477062 0
M  V30 32500 H 3053.28 -4.06543 -1.10908 0
M  V30 32501 H 3052 -2.89189 -1.5178 0
M  V30 32502 H 3050.66 -3.63427 0.481322 0
M  V30 32503 H 3050.31 -4.71754 -1.7452 0
M  V30 32504 H 3050.01 -5.86148 -0.412897 0
M  V30 32505 H 3051.53 -5.95706 -1.34041 0
M  V30 32506 H 3052.94 -5.66007 0.911524 0
M  V30 32507 H 3051.34 -5.7561 1.69686 0
M  V30 32508 H 3052.41 -4.38988 2.05956 0
M  V30 32509 N 3053.75 -0.532597 -1.48328 0
M  V30 32510 C 3054.7 0.228739 -2.29664 0
M  V30 32511 C 3055.67 0.931376 -1.3753 0
M  V30 32512 O 3056.86 0.931892 -1.66494 0
M  V30 32513 C 3054 1.26808 -3.20957 0
M  V30 32514 C 3053.11 0.574024 -4.28169 0
M  V30 32515 C 3052.24 1.59653 -5.0664 0
M  V30 32516 C 3051.28 0.886073 -6.05653 0
M  V30 32517 N 3050.42 1.85424 -6.77172 0
M  V30 32518 H 3055.26 -0.471032 -2.94254 0
M  V30 32519 H 3052.8 -0.244125 -1.4506 0
M  V30 32520 H 3054.76 1.883 -3.72289 0
M  V30 32521 H 3053.39 1.9362 -2.58285 0
M  V30 32522 H 3052.44 -0.154894 -3.80085 0
M  V30 32523 H 3053.75 0.0163108 -4.98797 0
M  V30 32524 H 3052.9 2.28566 -5.61999 0
M  V30 32525 H 3051.64 2.18813 -4.35858 0
M  V30 32526 H 3050.65 0.182885 -5.49496 0
M  V30 32527 H 3051.87 0.300539 -6.78435 0
M  V30 32528 H 3049.82 2.43488 -6.09138 0
M  V30 32529 H 3049.74 1.34803 -7.43884 0
M  V30 32530 H 3051 2.53528 -7.37119 0
M  V30 32531 N 3055.23 1.55307 -0.267853 0
M  V30 32532 C 3056.64 1.85262 0.231311 0
M  V30 32533 C 3056.99 1.18985 1.56004 0
M  V30 32534 O 3056.12 0.475591 2.11109 0
M  V30 32535 C 3056.71 3.36105 0.426478 0
M  V30 32536 C 3055.27 3.6621 0.869881 0
M  V30 32537 C 3054.42 2.7727 -0.041001 0
M  V30 32538 H 3057.37 1.50951 -0.489847 0
M  V30 32539 H 3057.39 3.58818 1.2661 0
M  V30 32540 H 3056.9 3.84314 -0.540746 0
M  V30 32541 H 3055.01 3.23495 1.84883 0
M  V30 32542 H 3055.12 4.73776 0.712233 0
M  V30 32543 H 3053.48 2.5025 0.474053 0
M  V30 32544 H 3054.27 3.28291 -1.00398 0
M  V30 32545 N 3056.71 -0.00497598 1.57599 0
M  V30 32546 C 3058.13 -0.360988 1.55464 0
M  V30 32547 C 3058.33 -1.75101 0.997082 0
M  V30 32548 O 3057.38 -2.44548 0.628704 0
M  V30 32549 C 3058.7 -0.240775 2.99734 0
M  V30 32550 C 3060.24 -0.316083 3.114 0
M  V30 32551 C 3060.72 -0.22505 4.57447 0
M  V30 32552 N 3062.21 -0.283104 4.62334 0
M  V30 32553 C 3062.94 -0.23593 5.72914 0
M  V30 32554 N 3062.44 -0.139641 6.92659 0
M  V30 32555 N 3064.23 -0.28743 5.61365 0
M  V30 32556 H 3056.38 0.904393 1.92183 0
M  V30 32557 H 3058.65 0.346205 0.882522 0
M  V30 32558 H 3058.35 0.715404 3.44347 0
M  V30 32559 H 3058.23 -1.02485 3.63011 0
M  V30 32560 H 3060.61 -1.2627 2.6672 0
M  V30 32561 H 3060.7 0.497769 2.5091 0
M  V30 32562 H 3060.34 0.718006 5.02799 0
M  V30 32563 H 3060.27 -1.05732 5.15876 0
M  V30 32564 H 3062.76 -0.359057 3.7619 0
M  V30 32565 H 3063.07 -0.109404 7.72723 0
M  V30 32566 H 3061.42 -0.10534 6.9492 0
M  V30 32567 H 3064.61 -0.360815 4.66707 0
M  V30 32568 H 3064.78 -0.2472 6.47528 0
M  V30 32569 N 3058.19 -1.55135 -0.277654 0
M  V30 32570 C 3059.43 -1.76706 -1.0073 0
M  V30 32571 C 3059.79 -0.558823 -1.84106 0
M  V30 32572 O 3059.08 0.448558 -1.86275 0
M  V30 32573 C 3059.28 -3.01069 -1.92594 0
M  V30 32574 C 3059.11 -4.33872 -1.18258 0
M  V30 32575 C 3057.88 -4.97217 -0.900167 0
M  V30 32576 C 3060.07 -5.11072 -0.575329 0
M  V30 32577 N 3058.06 -6.13763 -0.12953 0
M  V30 32578 C 3059.43 -6.1997 0.0613726 0
M  V30 32579 C 3061.48 -4.95555 -0.482707 0
M  V30 32580 C 3060.18 -7.15039 0.781763 0
M  V30 32581 C 3062.21 -5.90975 0.224081 0
M  V30 32582 C 3061.57 -6.99258 0.849539 0
M  V30 32583 H 3057.67 -0.698933 -0.350737 0
M  V30 32584 H 3060.26 -1.92626 -0.283448 0
M  V30 32585 H 3058.43 -2.86533 -2.62209 0
M  V30 32586 H 3060.16 -3.11064 -2.58884 0
M  V30 32587 H 3056.91 -4.58033 -1.20426 0
M  V30 32588 H 3057.34 -6.76564 0.242984 0
M  V30 32589 H 3061.98 -4.11944 -0.951951 0
M  V30 32590 H 3059.7 -7.98174 1.2627 0
M  V30 32591 H 3063.28 -5.81047 0.296002 0
M  V30 32592 H 3062.16 -7.71823 1.38774 0
M  V30 32593 N 3059.67 0.541953 -1.47989 0
M  V30 32594 C 3060.6 1.6571 -1.64506 0
M  V30 32595 C 3061.58 1.62764 -0.494144 0
M  V30 32596 O 3062.76 1.80148 -0.725287 0
M  V30 32597 C 3059.89 3.04325 -1.67343 0
M  V30 32598 C 3058.85 3.22125 -2.81815 0
M  V30 32599 C 3058.17 4.6168 -2.69733 0
M  V30 32600 C 3059.47 3.06039 -4.23247 0
M  V30 32601 H 3061.17 1.52142 -2.57862 0
M  V30 32602 H 3058.71 0.730507 -1.24095 0
M  V30 32603 H 3060.67 3.82199 -1.77487 0
M  V30 32604 H 3059.39 3.18888 -0.70557 0
M  V30 32605 H 3058.05 2.46664 -2.71205 0
M  V30 32606 H 3057.7 4.73062 -1.70942 0
M  V30 32607 H 3057.4 4.74537 -3.46538 0
M  V30 32608 H 3058.92 5.41669 -2.81828 0
M  V30 32609 H 3060.33 3.73716 -4.34752 0
M  V30 32610 H 3058.73 3.30396 -5.00958 0
M  V30 32611 H 3059.8 2.02601 -4.40546 0
M  V30 32612 N 3061.15 1.36376 0.789896 0
M  V30 32613 C 3062.42 1.21128 1.53581 0
M  V30 32614 C 3062.8 -0.202748 2.10124 0
M  V30 32615 O 3062.15 -1.20832 1.93938 0
M  V30 32616 C 3062.36 2.29287 2.63113 0
M  V30 32617 C 3063.71 2.6593 3.31008 0
M  V30 32618 O 3064.73 2.28326 2.73396 0
M  V30 32619 O 3063.59 3.30651 4.35123 0
M  V30 32620 H 3060.69 0.471595 0.679358 0
M  V30 32621 H 3063.23 1.48106 0.82842 0
M  V30 32622 H 3062 3.24057 2.19323 0
M  V30 32623 H 3061.63 2.03672 3.41472 0
M  V30 32624 N 3062.62 -1.014 1.20647 0
M  V30 32625 C 3063.59 -2.08156 0.95935 0
M  V30 32626 C 3064.59 -1.60664 -0.0661276 0
M  V30 32627 O 3065.78 -1.73366 0.170208 0
M  V30 32628 C 3062.91 -3.37985 0.444844 0
M  V30 32629 H 3064.1 -2.31513 1.90635 0
M  V30 32630 H 3061.65 -1.1824 1.02221 0
M  V30 32631 H 3062.39 -3.20304 -0.507497 0
M  V30 32632 H 3062.17 -3.73783 1.18442 0
M  V30 32633 H 3063.66 -4.16581 0.291516 0
M  V30 32634 N 3064.1 -1.01278 -1.2075 0
M  V30 32635 C 3065.52 -0.726959 -1.42083 0
M  V30 32636 C 3065.72 0.694874 -1.8914 0
M  V30 32637 O 3064.77 1.46316 -2.05786 0
M  V30 32638 C 3066.09 -1.74943 -2.44572 0
M  V30 32639 C 3067.63 -1.76713 -2.58344 0
M  V30 32640 C 3068.11 -2.77875 -3.64073 0
M  V30 32641 N 3069.6 -2.76591 -3.71553 0
M  V30 32642 C 3070.34 -3.51525 -4.53009 0
M  V30 32643 N 3069.83 -4.36124 -5.38301 0
M  V30 32644 N 3071.62 -3.4014 -4.47506 0
M  V30 32645 H 3063.78 -1.93075 -0.885194 0
M  V30 32646 H 3066.04 -0.833816 -0.45106 0
M  V30 32647 H 3065.74 -2.76786 -2.16985 0
M  V30 32648 H 3065.62 -1.55844 -3.435 0
M  V30 32649 H 3068.01 -0.755566 -2.85263 0
M  V30 32650 H 3068.09 -1.99884 -1.59624 0
M  V30 32651 H 3067.73 -3.79193 -3.37898 0
M  V30 32652 H 3067.66 -2.51967 -4.62407 0
M  V30 32653 H 3070.15 -2.15221 -3.10626 0
M  V30 32654 H 3070.46 -4.90078 -5.97531 0
M  V30 32655 H 3068.81 -4.40203 -5.37816 0
M  V30 32656 H 3072 -2.73474 -3.79907 0
M  V30 32657 H 3072.17 -3.98793 -5.10752 0
M  V30 32658 N 3065.58 1.36456 -0.788516 0
M  V30 32659 C 3066.83 1.98514 -0.357087 0
M  V30 32660 C 3067.14 1.63287 1.07688 0
M  V30 32661 O 3068.35 2.18573 1.61053 0
M  V30 32662 C 3066.8 3.55072 -0.587512 0
M  V30 32663 C 3066.41 3.99224 -2.03283 0
M  V30 32664 C 3068.16 4.23927 -0.220543 0
M  V30 32665 C 3066.06 5.48557 -2.20996 0
M  V30 32666 H 3064.99 0.742748 -0.129775 0
M  V30 32667 H 3067.64 1.55765 -0.970022 0
M  V30 32668 H 3066.03 3.95886 0.0951222 0
M  V30 32669 H 3067.2 3.69612 -2.75179 0
M  V30 32670 H 3065.51 3.43204 -2.35796 0
M  V30 32671 H 3068.11 5.33673 -0.331179 0
M  V30 32672 H 3068.45 4.07917 0.831234 0
M  V30 32673 H 3068.99 3.88473 -0.856378 0
M  V30 32674 H 3065.73 5.69513 -3.24553 0
M  V30 32675 H 3065.25 5.79798 -1.53604 0
M  V30 32676 H 3066.93 6.14768 -2.01667 0
M  V30 32677 N 3067.06 0.540456 1.48043 0
M  V30 32678 C 3068.29 0.0145306 2.06595 0
M  V30 32679 C 3068.7 -1.2771 1.39595 0
M  V30 32680 O 3068.04 -1.77296 0.480825 0
M  V30 32681 C 3068.1 -0.269253 3.5849 0
M  V30 32682 C 3067.76 0.930451 4.47428 0
M  V30 32683 C 3068.76 1.83164 4.86567 0
M  V30 32684 C 3066.45 1.1404 4.89183 0
M  V30 32685 C 3068.44 2.92659 5.66241 0
M  V30 32686 C 3066.13 2.23848 5.68626 0
M  V30 32687 C 3067.13 3.1299 6.07064 0
M  V30 32688 O 3066.81 4.20896 6.8491 0
M  V30 32689 H 3066.55 0.0351586 0.675085 0
M  V30 32690 H 3069.1 0.748563 1.91274 0
M  V30 32691 H 3067.33 -1.05739 3.71963 0
M  V30 32692 H 3069.02 -0.738525 3.99125 0
M  V30 32693 H 3069.78 1.68142 4.54921 0
M  V30 32694 H 3065.66 0.455797 4.58741 0
M  V30 32695 H 3069.21 3.62265 5.96163 0
M  V30 32696 H 3065.1 2.3885 5.99684 0
M  V30 32697 H 3065.87 4.18736 7.0328 0
M  V30 32698 N 3068.54 -1.55163 0.276085 0
M  V30 32699 C 3069.76 -2.04483 -0.346612 0
M  V30 32700 C 3070.19 -1.1531 -1.48611 0
M  V30 32701 O 3069.54 -0.151907 -1.80662 0
M  V30 32702 C 3069.59 -3.51518 -0.804207 0
M  V30 32703 O 3068.7 -3.65432 -1.91136 0
M  V30 32704 H 3068.04 -0.660138 -0.0715135 0
M  V30 32705 H 3070.57 -2.00436 0.410667 0
M  V30 32706 H 3070.58 -3.929 -1.0997 0
M  V30 32707 H 3069.25 -4.1589 0.0294854 0
M  V30 32708 H 3067.83 -3.35953 -1.61833 0
M  V30 32709 N 3070.01 -0.00338196 -1.576 0
M  V30 32710 C 3071.29 0.717983 -1.81946 0
M  V30 32711 C 3071.67 1.918 -0.881822 0
M  V30 32712 O 3071.02 2.28397 0.0686716 0
M  V30 32713 C 3071.23 1.12052 -3.30523 0
M  V30 32714 C 3072.58 1.52296 -3.96347 0
M  V30 32715 O 3073.6 1.21422 -3.34866 0
M  V30 32716 O 3072.46 2.0972 -5.04658 0
M  V30 32717 H 3069.55 0.349896 -0.749334 0
M  V30 32718 H 3072.1 -0.0290952 -1.69675 0
M  V30 32719 H 3070.87 0.265309 -3.904 0
M  V30 32720 H 3070.49 1.92659 -3.47805 0
M  V30 32721 N 3071.49 1.5528 0.269423 0
M  V30 32722 C 3072.9 1.66726 0.840204 0
M  V30 32723 C 3073.25 0.596654 1.86908 0
M  V30 32724 O 3072.38 -0.261209 2.14818 0
M  V30 32725 C 3072.97 3.02248 1.53075 0
M  V30 32726 C 3071.53 3.15709 2.04951 0
M  V30 32727 C 3070.68 2.62535 0.892792 0
M  V30 32728 H 3073.63 1.58634 0.0456957 0
M  V30 32729 H 3073.65 2.95436 2.39787 0
M  V30 32730 H 3073.16 3.80147 0.781674 0
M  V30 32731 H 3071.26 2.4259 2.82809 0
M  V30 32732 H 3071.38 4.2232 2.26236 0
M  V30 32733 H 3069.74 2.19783 1.28715 0
M  V30 32734 H 3070.52 3.4294 0.157169 0
M  V30 32735 N 3072.97 -0.534097 1.48274 0
M  V30 32736 C 3073.9 -1.64836 1.65383 0
M  V30 32737 C 3074.88 -1.625 0.502769 0
M  V30 32738 O 3076.07 -1.79761 0.734831 0
M  V30 32739 C 3073.2 -3.03433 1.68954 0
M  V30 32740 C 3072.15 -3.20626 2.83519 0
M  V30 32741 C 3071.48 -4.60243 2.72177 0
M  V30 32742 C 3072.78 -3.0379 4.24864 0
M  V30 32743 H 3074.47 -1.50773 2.58666 0
M  V30 32744 H 3072.02 -0.723916 1.24481 0
M  V30 32745 H 3073.97 -3.81252 1.79512 0
M  V30 32746 H 3072.69 -3.18509 0.722471 0
M  V30 32747 H 3071.35 -2.45222 2.7251 0
M  V30 32748 H 3071 -4.72149 1.73448 0
M  V30 32749 H 3070.7 -4.72692 3.4905 0
M  V30 32750 H 3072.22 -5.40167 2.84696 0
M  V30 32751 H 3073.64 -3.71405 4.36728 0
M  V30 32752 H 3072.03 -3.27735 5.02703 0
M  V30 32753 H 3073.1 -2.00262 4.41614 0
M  V30 32754 N 3074.45 -1.36793 -0.782652 0
M  V30 32755 C 3075.41 -1.3151 -1.87717 0
M  V30 32756 C 3076.41 -0.221377 -1.59269 0
M  V30 32757 O 3077.6 -0.476573 -1.67554 0
M  V30 32758 C 3074.73 -1.04031 -3.24639 0
M  V30 32759 H 3075.93 -2.28857 -1.93816 0
M  V30 32760 H 3073.48 -1.21664 -0.981205 0
M  V30 32761 H 3074.21 -0.0717009 -3.24221 0
M  V30 32762 H 3074 -1.83186 -3.46678 0
M  V30 32763 H 3075.49 -1.02956 -4.04709 0
M  V30 32764 N 3075.93 1.00759 -1.21184 0
M  V30 32765 C 3076.86 2.11342 -0.99281 0
M  V30 32766 C 3077.84 1.69905 0.081332 0
M  V30 32767 O 3079.02 1.94043 -0.0779844 0
M  V30 32768 C 3076.15 3.42855 -0.553887 0
M  V30 32769 C 3075.11 3.98074 -1.5723 0
M  V30 32770 C 3074.43 5.25461 -0.989698 0
M  V30 32771 C 3075.73 4.30433 -2.95846 0
M  V30 32772 H 3077.43 2.29923 -1.9177 0
M  V30 32773 H 3074.97 1.10492 -0.923446 0
M  V30 32774 H 3076.93 4.19611 -0.387844 0
M  V30 32775 H 3075.65 3.24059 0.406645 0
M  V30 32776 H 3074.31 3.23434 -1.72586 0
M  V30 32777 H 3073.96 5.02996 -0.0209627 0
M  V30 32778 H 3073.66 5.63371 -1.66993 0
M  V30 32779 H 3075.18 6.04865 -0.834921 0
M  V30 32780 H 3076.59 4.98042 -2.83949 0
M  V30 32781 H 3074.99 4.79479 -3.6086 0
M  V30 32782 H 3076.06 3.38817 -3.46888 0
M  V30 32783 N 3077.4 1.01917 1.20211 0
M  V30 32784 C 3078.35 0.591611 2.23089 0
M  V30 32785 C 3079.32 -0.389621 1.61466 0
M  V30 32786 O 3080.51 -0.288478 1.88607 0
M  V30 32787 C 3077.65 -0.0613422 3.45045 0
M  V30 32788 C 3076.76 0.964762 4.21089 0
M  V30 32789 C 3075.89 0.282592 5.30448 0
M  V30 32790 C 3074.93 1.29528 5.98238 0
M  V30 32791 N 3074.07 0.639595 6.99181 0
M  V30 32792 H 3078.91 1.47352 2.5902 0
M  V30 32793 H 3076.45 0.737569 1.27273 0
M  V30 32794 H 3078.41 -0.457067 4.14689 0
M  V30 32795 H 3077.04 -0.906883 3.09799 0
M  V30 32796 H 3076.09 1.47863 3.50486 0
M  V30 32797 H 3077.4 1.73483 4.67659 0
M  V30 32798 H 3076.55 -0.168496 6.06466 0
M  V30 32799 H 3075.29 -0.519758 4.84922 0
M  V30 32800 H 3074.3 1.75673 5.20979 0
M  V30 32801 H 3075.52 2.09895 6.45849 0
M  V30 32802 H 3073.47 -0.14284 6.55844 0
M  V30 32803 H 3073.39 1.34769 7.43891 0
M  V30 32804 H 3074.65 0.212184 7.79211 0
M  V30 32805 N 3078.88 -1.36036 0.795742 0
M  V30 32806 C 3079.79 -2.33747 0.199825 0
M  V30 32807 C 3080.81 -1.61346 -0.651408 0
M  V30 32808 O 3081.98 -1.93292 -0.56571 0
M  V30 32809 C 3079.05 -3.40544 -0.650415 0
M  V30 32810 C 3078.11 -4.28736 0.220049 0
M  V30 32811 C 3077.34 -5.30432 -0.589705 0
M  V30 32812 O 3077.57 -5.40409 -1.82523 0
M  V30 32813 O 3076.5 -6.01898 0.0137245 0
M  V30 32814 H 3080.33 -2.86488 1.00787 0
M  V30 32815 H 3077.91 -1.38616 0.557317 0
M  V30 32816 H 3079.79 -4.05826 -1.13505 0
M  V30 32817 H 3078.47 -2.90092 -1.43625 0
M  V30 32818 H 3077.38 -3.66472 0.75158 0
M  V30 32819 H 3078.71 -4.82556 0.969553 0
M  V30 32820 N 3080.36 -0.5483 -1.47755 0
M  V30 32821 C 3081.61 -0.0209311 -2.02489 0
M  V30 32822 C 3081.94 1.32531 -1.42358 0
M  V30 32823 O 3081.19 1.87352 -0.565481 0
M  V30 32824 C 3081.49 0.131006 -3.5716 0
M  V30 32825 C 3081.16 -1.14321 -4.36167 0
M  V30 32826 C 3079.82 -1.49238 -4.57473 0
M  V30 32827 C 3082.17 -1.98798 -4.81797 0
M  V30 32828 C 3079.5 -2.68496 -5.21658 0
M  V30 32829 C 3081.85 -3.17252 -5.47297 0
M  V30 32830 C 3080.51 -3.52493 -5.66838 0
M  V30 32831 H 3079.78 -0.00765923 -0.74096 0
M  V30 32832 H 3082.43 -0.718018 -1.7753 0
M  V30 32833 H 3080.74 0.910996 -3.81062 0
M  V30 32834 H 3082.43 0.55426 -3.97151 0
M  V30 32835 H 3079.02 -0.861309 -4.19856 0
M  V30 32836 H 3083.21 -1.73131 -4.65123 0
M  V30 32837 H 3078.46 -2.9598 -5.34982 0
M  V30 32838 H 3082.64 -3.83004 -5.81619 0
M  V30 32839 H 3080.26 -4.44998 -6.16344 0
M  V30 32840 N 3081.84 1.55014 -0.28431 0
M  V30 32841 C 3082.8 2.21578 0.586143 0
M  V30 32842 C 3083.8 1.19652 1.07425 0
M  V30 32843 O 3084.99 1.44497 0.972951 0
M  V30 32844 C 3082.12 2.889 1.80968 0
M  V30 32845 H 3083.32 2.999 0.00481982 0
M  V30 32846 H 3080.87 1.56261 -0.0349971 0
M  V30 32847 H 3081.6 2.14615 2.43127 0
M  V30 32848 H 3081.39 3.63602 1.4675 0
M  V30 32849 H 3082.88 3.39728 2.42847 0
M  V30 32850 N 3083.32 0.0117398 1.57596 0
M  V30 32851 C 3084.28 -0.960779 2.08091 0
M  V30 32852 C 3085.28 -1.26512 0.992542 0
M  V30 32853 O 3086.47 -1.20835 1.25478 0
M  V30 32854 C 3083.6 -2.28236 2.53221 0
M  V30 32855 H 3084.79 -0.523777 2.95291 0
M  V30 32856 H 3082.35 -0.235968 1.54509 0
M  V30 32857 H 3083.08 -2.76602 1.69299 0
M  V30 32858 H 3082.87 -2.07464 3.32718 0
M  V30 32859 H 3084.36 -2.97978 2.92573 0
M  V30 32860 N 3084.79 -1.55421 -0.261185 0
M  V30 32861 C 3086.04 -1.76234 -0.989241 0
M  V30 32862 C 3086.36 -0.5731 -1.86388 0
M  V30 32863 O 3085.63 0.411626 -1.91527 0
M  V30 32864 H 3084.21 -0.649927 -0.368245 0
M  V30 32865 H 3086.88 -1.92841 -0.282569 0
M  V30 32866 H 3085.97 -2.66805 -1.6193 0
M  V30 32867 N 3086.27 0.526227 -1.48555 0
M  V30 32868 C 3087.69 0.855114 -1.34759 0
M  V30 32869 C 3087.89 1.98232 -0.361455 0
M  V30 32870 O 3086.94 2.51575 0.215981 0
M  V30 32871 C 3088.26 1.2191 -2.74879 0
M  V30 32872 C 3089.81 1.32877 -2.83395 0
M  V30 32873 C 3090.28 1.72616 -4.24226 0
M  V30 32874 N 3091.77 1.79712 -4.26917 0
M  V30 32875 C 3092.51 2.11854 -5.32828 0
M  V30 32876 N 3092 2.42394 -6.49012 0
M  V30 32877 N 3093.8 2.12892 -5.20225 0
M  V30 32878 H 3085.95 -0.21746 -2.11284 0
M  V30 32879 H 3088.21 -0.0346529 -0.947366 0
M  V30 32880 H 3087.92 0.464425 -3.4862 0
M  V30 32881 H 3087.79 2.16839 -3.08643 0
M  V30 32882 H 3090.18 2.0742 -2.09907 0
M  V30 32883 H 3090.26 0.360594 -2.53246 0
M  V30 32884 H 3089.9 0.986323 -4.98231 0
M  V30 32885 H 3089.83 2.7049 -4.51821 0
M  V30 32886 H 3092.32 1.58373 -3.43113 0
M  V30 32887 H 3092.64 2.66035 -7.25565 0
M  V30 32888 H 3090.98 2.39905 -6.52281 0
M  V30 32889 H 3094.17 1.88493 -4.28472 0
M  V30 32890 H 3094.34 2.37609 -6.02865 0
M  V30 32891 N 3087.75 1.37206 0.775387 0
M  V30 32892 C 3088.7 1.32674 1.88855 0
M  V30 32893 C 3089.67 0.192928 1.64976 0
M  V30 32894 O 3090.85 0.381706 1.86943 0
M  V30 32895 C 3087.99 1.13593 3.25869 0
M  V30 32896 C 3087.11 2.36173 3.61727 0
M  V30 32897 C 3086.24 2.09993 4.87931 0
M  V30 32898 C 3085.28 3.28459 5.16509 0
M  V30 32899 N 3084.42 3.01853 6.339 0
M  V30 32900 H 3089.26 2.2785 1.92064 0
M  V30 32901 H 3086.79 1.13227 0.939046 0
M  V30 32902 H 3088.75 1.00553 4.04901 0
M  V30 32903 H 3087.38 0.22067 3.22045 0
M  V30 32904 H 3086.43 2.59967 2.77708 0
M  V30 32905 H 3087.75 3.24535 3.78786 0
M  V30 32906 H 3086.9 1.93963 5.74859 0
M  V30 32907 H 3085.64 1.18964 4.72968 0
M  V30 32908 H 3084.64 3.45032 4.28057 0
M  V30 32909 H 3085.87 4.20334 5.33382 0
M  V30 32910 H 3083.81 2.1345 6.20302 0
M  V30 32911 H 3083.73 3.83757 6.51357 0
M  V30 32912 H 3085 2.89433 7.23774 0
M  V30 32913 N 3089.23 -1.00115 1.21716 0
M  V30 32914 C 3090.45 -1.78052 1.0636 0
M  V30 32915 C 3090.88 -1.84179 -0.382043 0
M  V30 32916 O 3090.24 -1.28821 -1.27573 0
M  V30 32917 C 3090.28 -3.19605 1.66988 0
M  V30 32918 O 3089.39 -4.02054 0.917963 0
M  V30 32919 H 3088.73 -0.548596 0.374084 0
M  V30 32920 H 3091.26 -1.25819 1.6134 0
M  V30 32921 H 3091.27 -3.70265 1.71369 0
M  V30 32922 H 3089.94 -3.1446 2.72191 0
M  V30 32923 H 3088.52 -3.60608 0.949536 0
M  V30 32924 N 3090.71 -1.02553 -1.19669 0
M  V30 32925 C 3091.64 -0.624004 -2.25008 0
M  V30 32926 C 3092.62 0.365351 -1.6613 0
M  V30 32927 O 3093.8 0.248809 -1.926 0
M  V30 32928 C 3090.93 0.0294259 -3.47288 0
M  V30 32929 C 3089.89 -0.881854 -4.18817 0
M  V30 32930 C 3089.21 -0.0937128 -5.34618 0
M  V30 32931 C 3090.51 -2.19405 -4.73982 0
M  V30 32932 H 3092.21 -1.50459 -2.58849 0
M  V30 32933 H 3089.75 -0.724893 -1.24424 0
M  V30 32934 H 3091.71 0.321943 -4.20168 0
M  V30 32935 H 3090.43 0.944783 -3.12636 0
M  V30 32936 H 3089.09 -1.15851 -3.47813 0
M  V30 32937 H 3088.74 0.823574 -4.96212 0
M  V30 32938 H 3088.44 -0.70067 -5.83408 0
M  V30 32939 H 3089.96 0.192142 -6.10298 0
M  V30 32940 H 3091.38 -1.96329 -5.38635 0
M  V30 32941 H 3089.77 -2.75263 -5.33245 0
M  V30 32942 H 3090.84 -2.85099 -3.92233 0
M  V30 32943 N 3092.19 1.35612 -0.802945 0
M  V30 32944 C 3093.41 2.03115 -0.393966 0
M  V30 32945 C 3093.83 1.60519 0.993933 0
M  V30 32946 O 3093.19 0.801002 1.63982 0
M  V30 32947 C 3093.24 3.58516 -0.463549 0
M  V30 32948 O 3092.96 3.99561 -1.79673 0
M  V30 32949 C 3094.46 4.43275 -0.0469157 0
M  V30 32950 H 3091.68 0.651514 -0.16053 0
M  V30 32951 H 3094.22 1.73309 -1.08555 0
M  V30 32952 H 3092.38 3.86983 0.179753 0
M  V30 32953 H 3092.79 4.94197 -1.75697 0
M  V30 32954 H 3094.27 5.51805 -0.146723 0
M  V30 32955 H 3094.74 4.27492 1.00733 0
M  V30 32956 H 3095.35 4.20097 -0.663232 0
M  V30 32957 N 3093.66 0.556128 1.47462 0
M  V30 32958 C 3094.59 -0.180456 2.32802 0
M  V30 32959 C 3095.57 -0.909823 1.43723 0
M  V30 32960 O 3096.76 -0.8905 1.7258 0
M  V30 32961 C 3093.89 -1.21161 3.2548 0
M  V30 32962 C 3092.84 -0.598771 4.23791 0
M  V30 32963 C 3092.17 -1.73448 5.05786 0
M  V30 32964 C 3093.47 0.44675 5.20386 0
M  V30 32965 H 3095.16 0.532007 2.94635 0
M  V30 32966 H 3092.71 0.257292 1.41683 0
M  V30 32967 H 3094.66 -1.73506 3.84023 0
M  V30 32968 H 3093.39 -1.954 2.61699 0
M  V30 32969 H 3092.05 -0.0966253 3.66473 0
M  V30 32970 H 3091.69 -2.46589 4.3841 0
M  V30 32971 H 3091.39 -1.33021 5.72345 0
M  V30 32972 H 3092.92 -2.26121 5.67187 0
M  V30 32973 H 3094.33 0.00940096 5.73299 0
M  V30 32974 H 3092.73 0.76984 5.95142 0
M  V30 32975 H 3093.8 1.34303 4.6593 0
M  V30 32976 N 3095.14 -1.54861 0.292527 0
M  V30 32977 C 3096.09 -2.24644 -0.603146 0
M  V30 32978 C 3097.08 -1.24948 -1.14387 0
M  V30 32979 O 3098.29 -1.42825 -1.09549 0
M  V30 32980 H 3094.66 -0.721177 -0.213092 0
M  V30 32981 H 3096.64 -2.98399 0.00804523 0
M  V30 32982 C 3095.38 -2.99416 -1.76764 0
M  V30 32983 H 3094.71 -3.75929 -1.36077 0
M  V30 32984 H 3096.15 -3.51538 -2.3706 0
M  V30 32985 C 3094.61 -2.05891 -2.66666 0
M  V30 32986 O 3095.14 -1.62142 -3.67522 0
M  V30 32987 N 3093.34 -1.72024 -2.34213 0
M  V30 32988 H 3092.89 -2.07798 -1.52243 0
M  V30 32989 H 3092.85 -1.09722 -2.94633 0
M  V30 32990 N 3096.62 -0.0200973 -1.57587 0
M  V30 32991 C 3097.55 0.963296 -2.12704 0
M  V30 32992 C 3098.53 1.34529 -1.04096 0
M  V30 32993 O 3099.72 1.4255 -1.31883 0
M  V30 32994 C 3096.85 2.24863 -2.64677 0
M  V30 32995 C 3095.8 2.00766 -3.77991 0
M  V30 32996 C 3095.13 3.35487 -4.16357 0
M  V30 32997 C 3096.43 1.35407 -5.04442 0
M  V30 32998 H 3098.12 0.504311 -2.95122 0
M  V30 32999 H 3095.67 0.241135 -1.41967 0
M  V30 33000 H 3097.62 2.94031 -3.01867 0
M  V30 33001 H 3096.34 2.72911 -1.79408 0
M  V30 33002 H 3095 1.34019 -3.41225 0
M  V30 33003 H 3094.65 3.81276 -3.28082 0
M  V30 33004 H 3094.35 3.20172 -4.9271 0
M  V30 33005 H 3095.87 4.05937 -4.56123 0
M  V30 33006 H 3097.29 1.94561 -5.39276 0
M  V30 33007 H 3095.68 1.30519 -5.85734 0
M  V30 33008 H 3096.75 0.325838 -4.83804 0
M  V30 33009 N 3098.1 1.55557 0.252939 0
M  V30 33010 C 3099.35 1.76308 0.979705 0
M  V30 33011 C 3099.66 0.582904 1.86713 0
M  V30 33012 O 3100.87 0.673293 2.63019 0
M  V30 33013 C 3099.32 3.12115 1.79199 0
M  V30 33014 C 3098.93 4.37763 0.952256 0
M  V30 33015 C 3100.67 3.42208 2.51185 0
M  V30 33016 C 3098.58 5.64602 1.76008 0
M  V30 33017 H 3097.51 0.657241 0.369527 0
M  V30 33018 H 3100.16 1.81994 0.234587 0
M  V30 33019 H 3098.54 3.0052 2.57883 0
M  V30 33020 H 3099.72 4.6033 0.20817 0
M  V30 33021 H 3098.03 4.1496 0.346009 0
M  V30 33022 H 3100.63 4.34187 3.12067 0
M  V30 33023 H 3100.97 2.63254 3.22495 0
M  V30 33024 H 3101.51 3.54991 1.79516 0
M  V30 33025 H 3098.24 6.4636 1.09084 0
M  V30 33026 H 3097.76 5.46146 2.47961 0
M  V30 33027 H 3099.44 6.03638 2.32874 0
M  V30 33028 N 3099.58 -0.518341 1.48832 0
M  V30 33029 C 3100.8 -1.29797 1.61122 0
M  V30 33030 C 3101.22 -1.86773 0.275905 0
M  V30 33031 O 3100.58 -1.66984 -0.736387 0
M  V30 33032 C 3100.63 -2.44058 2.6668 0
M  V30 33033 O 3100.35 -1.89427 3.9503 0
M  V30 33034 C 3101.85 -3.35701 2.89516 0
M  V30 33035 H 3099.07 -0.394304 0.542923 0
M  V30 33036 H 3101.61 -0.624108 1.94744 0
M  V30 33037 H 3099.77 -3.07307 2.35884 0
M  V30 33038 H 3100.18 -2.64308 4.53036 0
M  V30 33039 H 3101.66 -4.12196 3.67149 0
M  V30 33040 H 3102.13 -3.91644 1.98775 0
M  V30 33041 H 3102.74 -2.78235 3.21661 0
M  V30 33042 N 3101.05 -1.37615 -0.7681 0
M  V30 33043 C 3101.96 -1.35875 -1.91246 0
M  V30 33044 C 3102.98 -0.257816 -1.72079 0
M  V30 33045 O 3104.16 -0.493817 -1.95252 0
M  V30 33046 C 3101.22 -1.16834 -3.26421 0
M  V30 33047 C 3100.28 -2.366 -3.58216 0
M  V30 33048 C 3099.51 -2.18459 -4.86941 0
M  V30 33049 O 3099.74 -1.17074 -5.58256 0
M  V30 33050 O 3098.67 -3.06727 -5.17882 0
M  V30 33051 H 3102.5 -2.32267 -1.95667 0
M  V30 33052 H 3100.08 -1.18383 -0.911361 0
M  V30 33053 H 3101.96 -1.08219 -4.07267 0
M  V30 33054 H 3100.64 -0.23518 -3.22845 0
M  V30 33055 H 3099.55 -2.50788 -2.7759 0
M  V30 33056 H 3100.88 -3.28496 -3.66539 0
M  V30 33057 N 3102.53 0.994677 -1.22245 0
M  V30 33058 C 3103.46 2.08201 -0.934204 0
M  V30 33059 C 3104.44 1.6214 0.122202 0
M  V30 33060 O 3105.63 1.88498 -0.00899912 0
M  V30 33061 C 3102.75 3.36273 -0.404706 0
M  V30 33062 C 3101.8 4.01257 -1.44552 0
M  V30 33063 S 3102.63 4.42338 -3.01824 0
M  V30 33064 C 3103.79 5.73582 -2.50508 0
M  V30 33065 H 3104.02 2.32332 -1.85497 0
M  V30 33066 H 3101.55 1.12891 -1.05332 0
M  V30 33067 H 3103.51 4.10364 -0.105791 0
M  V30 33068 H 3102.17 3.10176 0.494916 0
M  V30 33069 H 3101.37 4.9347 -1.02486 0
M  V30 33070 H 3100.97 3.33485 -1.69304 0
M  V30 33071 H 3103.26 6.49832 -1.91637 0
M  V30 33072 H 3104.2 6.20472 -3.41204 0
M  V30 33073 H 3104.61 5.30898 -1.91854 0
M  V30 33074 N 3104.01 1.03186 1.19123 0
M  V30 33075 C 3105.26 0.728621 1.88509 0
M  V30 33076 C 3105.58 -0.745279 1.80196 0
M  V30 33077 O 3104.85 -1.53718 1.2144 0
M  V30 33078 H 3103.43 0.266523 0.697836 0
M  V30 33079 H 3106.09 1.30673 1.44605 0
M  V30 33080 H 3105.19 1.02559 2.94768 0
M  V30 33081 N 3105.49 -1.35184 0.810125 0
M  V30 33082 C 3106.9 -1.51753 0.494295 0
M  V30 33083 C 3107.1 -1.75847 -0.983876 0
M  V30 33084 O 3106.16 -1.80195 -1.76879 0
M  V30 33085 C 3107.47 -2.69056 1.34272 0
M  V30 33086 C 3109.02 -2.82935 1.33853 0
M  V30 33087 C 3109.5 -4.03268 2.17116 0
M  V30 33088 N 3110.99 -4.10452 2.14671 0
M  V30 33089 C 3111.72 -5.02686 2.75852 0
M  V30 33090 N 3111.22 -6.00229 3.45973 0
M  V30 33091 N 3113.01 -4.95459 2.65474 0
M  V30 33092 H 3105.16 -1.17802 1.76738 0
M  V30 33093 H 3107.43 -0.576663 0.752439 0
M  V30 33094 H 3107.13 -2.57841 2.39188 0
M  V30 33095 H 3107.01 -3.63746 0.998426 0
M  V30 33096 H 3109.39 -2.93599 0.297212 0
M  V30 33097 H 3109.47 -1.89092 1.72272 0
M  V30 33098 H 3109.12 -3.93364 3.2129 0
M  V30 33099 H 3109.05 -4.96299 1.76054 0
M  V30 33100 H 3111.54 -3.40626 1.63654 0
M  V30 33101 H 3111.85 -6.67212 3.89934 0
M  V30 33102 H 3110.2 -6.00392 3.50078 0
M  V30 33103 H 3113.39 -4.18212 2.10278 0
M  V30 33104 H 3113.56 -5.67149 3.13443 0
M  V30 33105 N 3106.97 -0.56394 -1.47165 0
M  V30 33106 C 3107.9 0.168107 -2.32894 0
M  V30 33107 C 3108.88 0.902188 -1.44203 0
M  V30 33108 O 3110.06 0.881335 -1.7305 0
M  V30 33109 C 3107.19 1.19433 -3.26118 0
M  V30 33110 C 3106.15 0.576288 -4.24102 0
M  V30 33111 C 3105.47 1.70763 -5.06699 0
M  V30 33112 C 3106.77 -0.474341 -5.20142 0
M  V30 33113 H 3108.47 -0.547625 -2.94349 0
M  V30 33114 H 3106.01 -0.264802 -1.41544 0
M  V30 33115 H 3107.97 1.71467 -3.84938 0
M  V30 33116 H 3106.69 1.9401 -2.62732 0
M  V30 33117 H 3105.35 0.077189 -3.66519 0
M  V30 33118 H 3105 2.4426 -4.39711 0
M  V30 33119 H 3104.7 1.29984 -5.73043 0
M  V30 33120 H 3106.22 2.2311 -5.68379 0
M  V30 33121 H 3107.63 -0.0398043 -5.73286 0
M  V30 33122 H 3106.03 -0.801391 -5.94725 0
M  V30 33123 H 3107.1 -1.36772 -4.65211 0
M  V30 33124 N 3108.44 1.54704 -0.300735 0
M  V30 33125 C 3109.86 1.85711 0.191962 0
M  V30 33126 C 3110.21 1.22267 1.53445 0
M  V30 33127 O 3109.33 0.520263 2.10053 0
M  V30 33128 C 3109.93 3.36934 0.355089 0
M  V30 33129 C 3108.49 3.67973 0.792006 0
M  V30 33130 C 3107.63 2.7712 -0.0998048 0
M  V30 33131 H 3110.58 1.49878 -0.521756 0
M  V30 33132 H 3110.6 3.61423 1.1897 0
M  V30 33133 H 3110.12 3.83081 -0.622143 0
M  V30 33134 H 3108.22 3.27344 1.7798 0
M  V30 33135 H 3108.33 4.75181 0.611578 0
M  V30 33136 H 3106.69 2.51199 0.420864 0
M  V30 33137 H 3107.48 3.26088 -1.07339 0
M  V30 33138 N 3109.92 0.0284543 1.57574 0
M  V30 33139 C 3111.15 -0.660541 1.96073 0
M  V30 33140 C 3111.57 -1.65701 0.90491 0
M  V30 33141 O 3110.92 -1.82148 -0.113347 0
M  V30 33142 C 3110.97 -1.3675 3.34636 0
M  V30 33143 O 3110.69 -0.410965 4.36168 0
M  V30 33144 C 3112.2 -2.14838 3.87762 0
M  V30 33145 H 3109.42 -0.182172 0.645797 0
M  V30 33146 H 3111.96 0.0880217 2.0431 0
M  V30 33147 H 3110.11 -2.06747 3.27619 0
M  V30 33148 H 3110.53 -0.912909 5.16494 0
M  V30 33149 H 3112 -2.59758 4.87062 0
M  V30 33150 H 3112.48 -2.98714 3.21973 0
M  V30 33151 H 3113.09 -1.498 3.98045 0
M  V30 33152 N 3111.4 -1.55689 -0.244686 0
M  V30 33153 C 3112.65 -1.77624 -0.972414 0
M  V30 33154 C 3112.98 -0.593169 -1.85234 0
M  V30 33155 O 3112.23 0.42343 -1.91064 0
M  V30 33156 C 3112.53 -3.05086 -1.86164 0
M  V30 33157 C 3112.2 -4.36332 -1.13689 0
M  V30 33158 C 3110.86 -4.71997 -0.936596 0
M  V30 33159 C 3113.21 -5.17459 -0.62336 0
M  V30 33160 C 3110.54 -5.86322 -0.210509 0
M  V30 33161 C 3112.89 -6.32537 0.0892698 0
M  V30 33162 C 3111.55 -6.66821 0.301021 0
M  V30 33163 H 3110.82 -0.649973 -0.355832 0
M  V30 33164 H 3113.47 -1.8996 -0.242339 0
M  V30 33165 H 3111.78 -2.87771 -2.65885 0
M  V30 33166 H 3113.47 -3.19257 -2.42644 0
M  V30 33167 H 3110.06 -4.08315 -1.30294 0
M  V30 33168 H 3114.25 -4.90359 -0.765639 0
M  V30 33169 H 3109.5 -6.11389 -0.0359987 0
M  V30 33170 H 3113.68 -6.9464 0.494807 0
M  V30 33171 H 3111.3 -7.55256 0.865598 0
M  V30 33172 N 3112.88 0.510441 -1.49105 0
M  V30 33173 C 3113.81 1.63037 -1.59669 0
M  V30 33174 C 3114.79 1.56359 -0.446173 0
M  V30 33175 O 3115.97 1.76551 -0.660445 0
M  V30 33176 C 3113.1 3.01518 -1.54287 0
M  V30 33177 C 3112.15 3.26489 -2.74421 0
M  V30 33178 S 3112.98 3.10635 -4.36195 0
M  V30 33179 C 3114.14 4.51529 -4.33443 0
M  V30 33180 H 3114.37 1.53829 -2.54409 0
M  V30 33181 H 3111.9 0.694891 -1.37879 0
M  V30 33182 H 3113.86 3.81374 -1.51868 0
M  V30 33183 H 3112.52 3.08149 -0.608512 0
M  V30 33184 H 3111.71 4.27561 -2.66848 0
M  V30 33185 H 3111.32 2.54339 -2.74204 0
M  V30 33186 H 3113.61 5.43434 -4.04581 0
M  V30 33187 H 3114.55 4.64153 -5.3476 0
M  V30 33188 H 3114.96 4.31766 -3.63646 0
M  V30 33189 N 3114.36 1.38021 0.760791 0
M  V30 33190 C 3115.58 1.37051 1.54999 0
M  V30 33191 C 3116 -0.041493 1.88754 0
M  V30 33192 O 3115.36 -1.00621 1.52255 0
M  V30 33193 C 3115.41 2.21933 2.85356 0
M  V30 33194 O 3115.13 3.57632 2.53043 0
M  V30 33195 C 3116.63 2.29064 3.79532 0
M  V30 33196 H 3113.85 0.46904 0.479836 0
M  V30 33197 H 3116.39 1.81506 0.942116 0
M  V30 33198 H 3114.55 1.80959 3.42538 0
M  V30 33199 H 3114.96 4.02247 3.36597 0
M  V30 33200 H 3116.44 2.92757 4.67972 0
M  V30 33201 H 3116.91 1.30221 4.19451 0
M  V30 33202 H 3117.52 2.70398 3.28276 0
M  V30 33203 N 3115.83 -0.98818 1.22771 0
M  V30 33204 C 3116.77 -2.08136 0.959794 0
M  V30 33205 C 3117.78 -1.62677 -0.0633501 0
M  V30 33206 O 3118.97 -1.77677 0.171234 0
M  V30 33207 C 3116.07 -3.36253 0.422783 0
M  V30 33208 C 3115.24 -4.1072 1.50426 0
M  V30 33209 C 3114.3 -5.17116 0.973498 0
M  V30 33210 O 3113.33 -5.44433 1.66076 0
M  V30 33211 N 3114.53 -5.80146 -0.202685 0
M  V30 33212 H 3117.29 -2.31699 1.90094 0
M  V30 33213 H 3114.85 -1.15429 1.13524 0
M  V30 33214 H 3116.85 -4.04665 0.0529225 0
M  V30 33215 H 3115.42 -3.09717 -0.423587 0
M  V30 33216 H 3114.64 -3.36871 2.04723 0
M  V30 33217 H 3115.92 -4.57241 2.23177 0
M  V30 33218 H 3115.32 -5.60328 -0.777757 0
M  V30 33219 H 3113.88 -6.49771 -0.513884 0
M  V30 33220 N 3117.31 -1.03816 -1.18575 0
M  V30 33221 C 3118.26 -0.627027 -2.22119 0
M  V30 33222 C 3119.23 0.363884 -1.62065 0
M  V30 33223 O 3120.41 0.258436 -1.89042 0
M  V30 33224 C 3117.55 0.00644067 -3.45099 0
M  V30 33225 C 3116.67 -1.03163 -4.19501 0
M  V30 33226 C 3115.8 -0.366946 -5.29931 0
M  V30 33227 C 3114.84 -1.39029 -5.96102 0
M  V30 33228 N 3113.98 -0.750748 -6.98075 0
M  V30 33229 H 3118.82 -1.51454 -2.56643 0
M  V30 33230 H 3116.36 -0.757724 -1.26083 0
M  V30 33231 H 3118.31 0.391035 -4.15363 0
M  V30 33232 H 3116.94 0.857482 -3.11203 0
M  V30 33233 H 3116 -1.5342 -3.4809 0
M  V30 33234 H 3117.31 -1.80901 -4.6484 0
M  V30 33235 H 3116.46 0.0719913 -6.06657 0
M  V30 33236 H 3115.2 0.442545 -4.85688 0
M  V30 33237 H 3114.21 -1.83939 -5.18118 0
M  V30 33238 H 3115.43 -2.20144 -6.42428 0
M  V30 33239 H 3113.38 0.0384828 -6.55989 0
M  V30 33240 H 3113.29 -1.46587 -7.41652 0
M  V30 33241 H 3114.56 -0.336123 -7.78775 0
M  V30 33242 N 3118.79 1.34753 -0.817283 0
M  V30 33243 C 3119.75 2.27933 -0.240651 0
M  V30 33244 C 3120.75 1.50045 0.578193 0
M  V30 33245 O 3121.94 1.6966 0.395118 0
M  V30 33246 C 3119.08 3.34386 0.663259 0
M  V30 33247 H 3120.27 2.80443 -1.06261 0
M  V30 33248 H 3117.82 1.44789 -0.588722 0
M  V30 33249 H 3118.56 2.8708 1.5085 0
M  V30 33250 H 3118.34 3.92023 0.0776699 0
M  V30 33251 H 3119.83 4.03905 1.06069 0
M  V30 33252 N 3120.27 0.571737 1.46864 0
M  V30 33253 C 3121.69 0.232578 1.57896 0
M  V30 33254 C 3121.89 -1.26506 1.56839 0
M  V30 33255 O 3120.94 -2.04614 1.4795 0
M  V30 33256 C 3122.25 0.872086 2.87776 0
M  V30 33257 C 3123.8 0.844658 3.01388 0
M  V30 33258 C 3124.28 1.4635 4.33988 0
M  V30 33259 N 3125.77 1.42734 4.4066 0
M  V30 33260 C 3126.5 1.87566 5.41855 0
M  V30 33261 N 3126 2.40321 6.49783 0
M  V30 33262 N 3127.79 1.78549 5.32988 0
M  V30 33263 H 3119.94 1.54459 1.45795 0
M  V30 33264 H 3122.21 0.644976 0.694773 0
M  V30 33265 H 3121.91 1.92518 2.94329 0
M  V30 33266 H 3121.79 0.373743 3.75344 0
M  V30 33267 H 3124.17 -0.199788 2.94423 0
M  V30 33268 H 3124.25 1.38091 2.15324 0
M  V30 33269 H 3123.9 2.50709 4.4171 0
M  V30 33270 H 3123.83 0.902571 5.18807 0
M  V30 33271 H 3126.32 1.04161 3.63261 0
M  V30 33272 H 3126.63 2.72416 7.23194 0
M  V30 33273 H 3124.98 2.4434 6.50633 0
M  V30 33274 H 3128.17 1.37101 4.47572 0
M  V30 33275 H 3128.34 2.13805 6.11712 0
M  V30 33276 N 3121.75 -1.54542 0.308935 0
M  V30 33277 C 3123.02 -1.92415 -0.351524 0
M  V30 33278 C 3123.4 -1.23702 -1.71058 0
M  V30 33279 O 3122.75 -0.37554 -2.25393 0
M  V30 33280 C 3122.96 -3.45978 -0.458296 0
M  V30 33281 C 3124.31 -4.18357 -0.72545 0
M  V30 33282 O 3125.33 -3.52055 -0.541797 0
M  V30 33283 O 3124.19 -5.35747 -1.07875 0
M  V30 33284 H 3121.29 -0.802962 -0.197943 0
M  V30 33285 H 3123.83 -1.6589 0.357577 0
M  V30 33286 H 3122.61 -3.88134 0.496791 0
M  V30 33287 H 3122.23 -3.78563 -1.21555 0
M  V30 33288 N 3123.23 -0.0368104 -1.57557 0
M  V30 33289 C 3124.19 0.927552 -2.09593 0
M  V30 33290 C 3125.19 1.24917 -1.01254 0
M  V30 33291 O 3126.38 1.18823 -1.27384 0
M  V30 33292 C 3123.51 2.24179 -2.5682 0
M  V30 33293 H 3124.7 0.476732 -2.96087 0
M  V30 33294 H 3122.26 0.211357 -1.54864 0
M  V30 33295 H 3122.99 2.73873 -1.73678 0
M  V30 33296 H 3122.78 2.02144 -3.35976 0
M  V30 33297 H 3124.27 2.93286 -2.97276 0
M  V30 33298 N 3124.7 1.55817 0.236426 0
M  V30 33299 C 3125.63 1.94208 1.29636 0
M  V30 33300 C 3126.61 0.808346 1.49666 0
M  V30 33301 O 3127.8 1.06947 1.62098 0
M  V30 33302 C 3124.93 2.24589 2.6491 0
M  V30 33303 C 3123.88 3.40313 2.59559 0
M  V30 33304 C 3123.21 3.56261 3.98726 0
M  V30 33305 C 3124.51 4.7571 2.15633 0
M  V30 33306 H 3126.2 2.82993 0.977503 0
M  V30 33307 H 3123.75 1.36156 0.46878 0
M  V30 33308 H 3125.7 2.50037 3.39204 0
M  V30 33309 H 3124.43 1.32641 2.98453 0
M  V30 33310 H 3123.09 3.1489 1.87722 0
M  V30 33311 H 3122.73 2.61715 4.29551 0
M  V30 33312 H 3122.43 4.34089 3.96031 0
M  V30 33313 H 3123.96 3.84041 4.74705 0
M  V30 33314 H 3125.37 5.00461 2.79664 0
M  V30 33315 H 3123.77 5.56714 2.24029 0
M  V30 33316 H 3124.84 4.72066 1.10822 0
M  V30 33317 N 3126.18 -0.502526 1.49373 0
M  V30 33318 C 3127.46 -1.26387 1.49284 0
M  V30 33319 C 3127.84 -2.09954 0.219711 0
M  V30 33320 O 3127.19 -2.14114 -0.797954 0
M  V30 33321 C 3127.4 -2.12189 2.77086 0
M  V30 33322 C 3128.74 -2.71427 3.26515 0
M  V30 33323 O 3129.77 -2.22457 2.78193 0
M  V30 33324 O 3128.63 -3.60571 4.10671 0
M  V30 33325 H 3125.72 -0.57185 0.597425 0
M  V30 33326 H 3128.27 -0.516922 1.61635 0
M  V30 33327 H 3127.04 -1.50405 3.6124 0
M  V30 33328 H 3126.66 -2.94079 2.67588 0
M  V30 33329 N 3127.66 -1.38422 -0.75346 0
M  V30 33330 C 3128.61 -1.35777 -1.88858 0
M  V30 33331 C 3129.6 -0.243637 -1.67639 0
M  V30 33332 O 3130.81 -0.41268 -1.75205 0
M  V30 33333 H 3127.18 -0.423571 -0.621363 0
M  V30 33334 H 3129.15 -2.31563 -1.88205 0
M  V30 33335 C 3127.9 -1.19984 -3.26342 0
M  V30 33336 H 3127.23 -2.04977 -3.43256 0
M  V30 33337 H 3128.67 -1.22188 -4.06012 0
M  V30 33338 C 3127.12 0.0932275 -3.36771 0
M  V30 33339 O 3127.65 1.0702 -3.87181 0
M  V30 33340 N 3125.86 0.150103 -2.90212 0
M  V30 33341 H 3125.41 -0.645606 -2.49379 0
M  V30 33342 H 3125.37 1.01485 -2.9757 0
M  V30 33343 N 3129.14 0.981655 -1.23294 0
M  V30 33344 C 3130.07 2.09189 -1.03742 0
M  V30 33345 C 3131.05 1.7004 0.0452742 0
M  V30 33346 O 3132.23 1.93834 -0.119126 0
M  V30 33347 C 3129.36 3.41603 -0.626487 0
M  V30 33348 C 3128.32 3.94649 -1.65638 0
M  V30 33349 C 3127.64 5.23243 -1.10093 0
M  V30 33350 C 3128.94 4.2406 -3.0491 0
M  V30 33351 H 3130.64 2.25804 -1.96604 0
M  V30 33352 H 3128.18 1.08508 -0.946675 0
M  V30 33353 H 3130.14 4.18694 -0.476763 0
M  V30 33354 H 3128.86 3.24848 0.337816 0
M  V30 33355 H 3127.52 3.19701 -1.79407 0
M  V30 33356 H 3127.17 5.02838 -0.127651 0
M  V30 33357 H 3126.87 5.59702 -1.78906 0
M  V30 33358 H 3128.39 6.02958 -0.963034 0
M  V30 33359 H 3129.81 4.91907 -2.9445 0
M  V30 33360 H 3128.2 4.71717 -3.70949 0
M  V30 33361 H 3129.27 3.31383 -3.53996 0
M  V30 33362 N 3130.62 1.04444 1.18022 0
M  V30 33363 C 3131.58 0.643174 2.19991 0
M  V30 33364 C 3132.58 -0.301416 1.5795 0
M  V30 33365 O 3133.77 -0.0863035 1.73986 0
M  V30 33366 C 3130.9 -0.0564609 3.40853 0
M  V30 33367 H 3132.09 1.54559 2.57005 0
M  V30 33368 H 3129.65 0.837432 1.31973 0
M  V30 33369 H 3130.38 -0.972499 3.09375 0
M  V30 33370 H 3130.17 0.622507 3.87127 0
M  V30 33371 H 3131.66 -0.323579 4.16344 0
M  V30 33372 N 3132.09 -1.34317 0.824418 0
M  V30 33373 C 3133.34 -1.98533 0.413814 0
M  V30 33374 C 3133.67 -1.65203 -1.02086 0
M  V30 33375 O 3132.95 -0.924432 -1.71127 0
M  V30 33376 C 3133.23 -3.54756 0.618073 0
M  V30 33377 C 3133.08 -3.97823 2.09897 0
M  V30 33378 C 3134.4 -4.40066 0.0549815 0
M  V30 33379 H 3131.52 -0.721192 0.151828 0
M  V30 33380 H 3134.16 -1.59188 1.03726 0
M  V30 33381 H 3132.31 -3.88402 0.087379 0
M  V30 33382 H 3133.99 -3.74504 2.69341 0
M  V30 33383 H 3132.23 -3.4808 2.58887 0
M  V30 33384 H 3132.9 -5.06582 2.19269 0
M  V30 33385 H 3135.38 -4.12982 0.508421 0
M  V30 33386 H 3134.25 -5.48428 0.227691 0
M  V30 33387 H 3134.51 -4.29689 -1.04017 0
M  V30 33388 N 3133.57 -0.579517 -1.46558 0
M  V30 33389 C 3134.5 0.143396 -2.33059 0
M  V30 33390 C 3135.48 0.886843 -1.45152 0
M  V30 33391 O 3136.67 0.862931 -1.73975 0
M  V30 33392 C 3133.8 1.15968 -3.27366 0
M  V30 33393 C 3132.75 0.531274 -4.2469 0
M  V30 33394 C 3132.08 1.65379 -5.08482 0
M  V30 33395 C 3133.38 -0.529482 -5.19609 0
M  V30 33396 H 3135.07 -0.578814 -2.93752 0
M  V30 33397 H 3132.62 -0.2798 -1.41256 0
M  V30 33398 H 3134.57 1.67375 -3.86735 0
M  V30 33399 H 3133.29 1.91212 -2.64774 0
M  V30 33400 H 3131.95 0.0383105 -3.6658 0
M  V30 33401 H 3131.6 2.39583 -4.42277 0
M  V30 33402 H 3131.3 1.23899 -5.74389 0
M  V30 33403 H 3132.83 2.17069 -5.70713 0
M  V30 33404 H 3134.24 -0.100607 -5.73212 0
M  V30 33405 H 3132.64 -0.864425 -5.93841 0
M  V30 33406 H 3133.71 -1.41699 -4.63734 0
M  V30 33407 N 3135.05 1.54376 -0.317127 0
M  V30 33408 C 3136 2.20833 0.56716 0
M  V30 33409 C 3136.98 1.18668 1.08658 0
M  V30 33410 O 3138.18 1.44324 1.02467 0
M  V30 33411 C 3135.31 2.9648 1.73074 0
M  V30 33412 C 3134.39 4.05977 1.22651 0
M  V30 33413 N 3134.78 5.0387 0.441477 0
M  V30 33414 C 3133.08 4.19811 1.50581 0
M  V30 33415 C 3133.78 5.81449 0.170961 0
M  V30 33416 N 3132.76 5.38327 0.755295 0
M  V30 33417 H 3136.56 2.93873 -0.0399866 0
M  V30 33418 H 3134.07 1.61936 -0.122667 0
M  V30 33419 H 3136.07 3.4257 2.37595 0
M  V30 33420 H 3134.73 2.24961 2.34142 0
M  V30 33421 H 3135.74 5.1783 0.0849011 0
M  V30 33422 H 3132.42 3.59504 2.12282 0
M  V30 33423 H 3133.81 6.70319 -0.460602 0
M  V30 33424 N 3136.53 0.0451655 1.57535 0
M  V30 33425 C 3137.76 -0.639707 1.96762 0
M  V30 33426 C 3138.17 -1.64732 0.922434 0
M  V30 33427 O 3137.53 -1.82258 -0.0940214 0
M  V30 33428 C 3137.58 -1.33194 3.36068 0
M  V30 33429 O 3137.3 -0.36468 4.3658 0
M  V30 33430 C 3138.8 -2.10713 3.90019 0
M  V30 33431 H 3136.02 -0.175312 0.647693 0
M  V30 33432 H 3138.57 0.109687 2.04206 0
M  V30 33433 H 3136.72 -2.03261 3.29794 0
M  V30 33434 H 3137.13 -0.858077 5.17433 0
M  V30 33435 H 3138.61 -2.54578 4.8979 0
M  V30 33436 H 3139.09 -2.95283 3.25123 0
M  V30 33437 H 3139.69 -1.4557 3.99612 0
M  V30 33438 N 3138.01 -1.5594 -0.228159 0
M  V30 33439 C 3138.97 -1.91051 -1.26618 0
M  V30 33440 C 3139.97 -0.788516 -1.40139 0
M  V30 33441 O 3141.16 -1.05633 -1.38518 0
M  V30 33442 C 3138.29 -2.1555 -2.64104 0
M  V30 33443 H 3139.48 -2.83885 -0.966928 0
M  V30 33444 H 3137.04 -1.4912 -0.468287 0
M  V30 33445 H 3137.77 -1.25247 -2.99138 0
M  V30 33446 H 3137.56 -2.97282 -2.55668 0
M  V30 33447 H 3139.05 -2.43833 -3.39021 0
M  V30 33448 N 3139.48 0.494597 -1.49638 0
M  V30 33449 C 3140.39 1.62169 -1.69524 0
M  V30 33450 C 3141.41 1.64122 -0.577923 0
M  V30 33451 O 3142.59 1.82425 -0.853414 0
M  V30 33452 C 3139.65 2.98507 -1.76336 0
M  V30 33453 C 3138.71 3.0713 -2.9995 0
M  V30 33454 C 3137.95 4.36965 -3.06426 0
M  V30 33455 O 3138.17 5.26132 -2.20322 0
M  V30 33456 O 3137.1 4.50693 -3.98948 0
M  V30 33457 H 3140.93 1.48319 -2.65019 0
M  V30 33458 H 3138.51 0.671579 -1.33455 0
M  V30 33459 H 3140.4 3.79527 -1.83132 0
M  V30 33460 H 3139.07 3.12605 -0.84021 0
M  V30 33461 H 3137.98 2.25274 -2.98667 0
M  V30 33462 H 3139.31 2.97961 -3.91765 0
M  V30 33463 N 3140.96 1.3882 0.746109 0
M  V30 33464 C 3141.93 1.36441 1.84165 0
M  V30 33465 C 3142.93 0.263527 1.58626 0
M  V30 33466 O 3144.12 0.52083 1.66232 0
M  V30 33467 C 3141.25 1.12601 3.21767 0
M  V30 33468 H 3142.44 2.33915 1.8768 0
M  V30 33469 H 3139.99 1.24222 0.948603 0
M  V30 33470 H 3140.73 0.157637 3.23917 0
M  V30 33471 H 3140.51 1.92313 3.41699 0
M  V30 33472 H 3142 1.1365 4.01838 0
M  V30 33473 N 3142.44 -0.975103 1.23812 0
M  V30 33474 C 3143.69 -1.71371 1.07127 0
M  V30 33475 C 3144.01 -1.91023 -0.391831 0
M  V30 33476 O 3143.28 -1.48267 -1.28038 0
M  V30 33477 H 3141.86 -0.635 0.393426 0
M  V30 33478 H 3144.52 -1.17347 1.55614 0
M  V30 33479 H 3143.62 -2.70117 1.56343 0
M  V30 33480 N 3143.92 -1.05068 -1.17467 0
M  V30 33481 C 3145.17 -0.758518 -1.87326 0
M  V30 33482 C 3145.49 0.716517 -1.81359 0
M  V30 33483 O 3144.76 1.51766 -1.2387 0
M  V30 33484 H 3143.34 -0.277591 -0.693507 0
M  V30 33485 H 3146 -1.32957 -1.42508 0
M  V30 33486 H 3145.1 -1.07235 -2.93099 0
M  V30 33487 N 3145.4 1.33878 -0.831529 0
M  V30 33488 C 3146.34 2.29359 -0.257489 0
M  V30 33489 C 3147.31 1.53991 0.622577 0
M  V30 33490 O 3148.5 1.82323 0.5624 0
M  V30 33491 C 3145.64 3.40401 0.567527 0
M  V30 33492 C 3144.75 4.30693 -0.335742 0
M  V30 33493 C 3143.89 5.28845 0.499669 0
M  V30 33494 C 3142.93 6.10776 -0.40245 0
M  V30 33495 N 3142.06 7.00991 0.394397 0
M  V30 33496 H 3146.9 2.77855 -1.07705 0
M  V30 33497 H 3144.44 1.36726 -0.542613 0
M  V30 33498 H 3146.4 4.03476 1.06126 0
M  V30 33499 H 3145.03 2.93117 1.35212 0
M  V30 33500 H 3144.08 3.68405 -0.947745 0
M  V30 33501 H 3145.39 4.8807 -1.02905 0
M  V30 33502 H 3144.55 5.97412 1.05753 0
M  V30 33503 H 3143.28 4.72027 1.22644 0
M  V30 33504 H 3142.29 5.41133 -0.972383 0
M  V30 33505 H 3143.51 6.69675 -1.12747 0
M  V30 33506 H 3141.46 6.46632 1.10469 0
M  V30 33507 H 3141.38 7.55618 -0.240341 0
M  V30 33508 H 3142.65 7.73875 0.934731 0
M  V30 33509 N 3146.87 0.587281 1.46249 0
M  V30 33510 C 3147.84 -0.133198 2.28813 0
M  V30 33511 C 3148.84 -0.814489 1.38646 0
M  V30 33512 O 3150.03 -0.665746 1.60977 0
M  V30 33513 C 3147.16 -1.19818 3.1915 0
M  V30 33514 H 3148.35 0.592437 2.9399 0
M  V30 33515 H 3145.91 0.345443 1.52435 0
M  V30 33516 H 3146.64 -1.95525 2.58729 0
M  V30 33517 H 3146.43 -0.714112 3.85542 0
M  V30 33518 H 3147.92 -1.70337 3.81281 0
M  V30 33519 N 3148.35 -1.54206 0.325309 0
M  V30 33520 C 3149.58 -2.04718 -0.278249 0
M  V30 33521 C 3149.99 -1.20098 -1.46196 0
M  V30 33522 O 3149.33 -0.224845 -1.82319 0
M  V30 33523 C 3149.4 -3.51062 -0.774326 0
M  V30 33524 C 3149.06 -4.56096 0.287305 0
M  V30 33525 C 3150.06 -5.07605 1.12397 0
M  V30 33526 C 3147.74 -5.00404 0.435996 0
M  V30 33527 C 3149.74 -6.01986 2.09503 0
M  V30 33528 C 3147.42 -5.946 1.41047 0
M  V30 33529 C 3148.42 -6.45277 2.23846 0
M  V30 33530 O 3148.11 -7.37623 3.19638 0
M  V30 33531 H 3147.84 -0.673259 -0.060819 0
M  V30 33532 H 3150.39 -1.99948 0.470084 0
M  V30 33533 H 3148.62 -3.53235 -1.5736 0
M  V30 33534 H 3150.31 -3.8464 -1.29642 0
M  V30 33535 H 3151.08 -4.74151 1.02008 0
M  V30 33536 H 3146.96 -4.60572 -0.198587 0
M  V30 33537 H 3150.5 -6.41465 2.74168 0
M  V30 33538 H 3146.4 -6.2747 1.51498 0
M  V30 33539 H 3147.17 -7.55501 3.14897 0
M  V30 33540 N 3149.83 -0.0535194 -1.57509 0
M  V30 33541 C 3150.78 0.937893 -2.12853 0
M  V30 33542 C 3151.77 1.32065 -1.0609 0
M  V30 33543 O 3152.98 1.30003 -1.24496 0
M  V30 33544 H 3149.35 0.32033 -0.680362 0
M  V30 33545 H 3151.33 0.446025 -2.95048 0
M  V30 33546 C 3150.07 2.20259 -2.69038 0
M  V30 33547 H 3149.4 1.91686 -3.50851 0
M  V30 33548 H 3150.84 2.87782 -3.1138 0
M  V30 33549 C 3149.3 2.94885 -1.62925 0
M  V30 33550 O 3149.83 3.87912 -1.04341 0
M  V30 33551 N 3148.03 2.57658 -1.34389 0
M  V30 33552 H 3147.58 1.82084 -1.82217 0
M  V30 33553 H 3147.54 3.07896 -0.636203 0
M  V30 33554 N 3151.31 1.56059 0.219886 0
M  V30 33555 C 3152.26 1.88948 1.27603 0
M  V30 33556 C 3153.24 0.752716 1.42208 0
M  V30 33557 O 3154.44 1.01516 1.44995 0
M  V30 33558 C 3151.56 2.21112 2.62611 0
M  V30 33559 C 3150.65 3.41185 2.519 0
M  V30 33560 N 3151.04 4.59759 2.10843 0
M  V30 33561 C 3149.34 3.44832 2.82855 0
M  V30 33562 C 3150.04 5.41918 2.11424 0
M  V30 33563 N 3149.02 4.81673 2.51976 0
M  V30 33564 H 3152.82 2.78139 0.949521 0
M  V30 33565 H 3150.33 1.56647 0.42844 0
M  V30 33566 H 3152.33 2.4285 3.38865 0
M  V30 33567 H 3150.99 1.33235 2.96106 0
M  V30 33568 H 3152 4.84887 1.81947 0
M  V30 33569 H 3148.68 2.67303 3.20711 0
M  V30 33570 H 3150.07 6.4684 1.81792 0
M  V30 33571 N 3152.79 -0.486655 1.49898 0
M  V30 33572 C 3153.75 -1.56888 1.67089 0
M  V30 33573 C 3154.75 -1.51386 0.542117 0
M  V30 33574 O 3155.94 -1.54283 0.808858 0
M  V30 33575 C 3153.07 -2.96536 1.68165 0
M  V30 33576 H 3154.27 -1.42969 2.63628 0
M  V30 33577 H 3151.82 -0.71193 1.39145 0
M  V30 33578 H 3152.55 -3.15916 0.732618 0
M  V30 33579 H 3152.34 -3.01937 2.50153 0
M  V30 33580 H 3153.83 -3.75137 1.83472 0
M  V30 33581 N 3154.27 -1.39214 -0.738737 0
M  V30 33582 C 3155.2 -1.40367 -1.866 0
M  V30 33583 C 3156.18 -0.267525 -1.67983 0
M  V30 33584 O 3157.36 -0.472798 -1.88357 0
M  V30 33585 C 3154.49 -1.2427 -3.24306 0
M  V30 33586 C 3153.45 -2.35245 -3.57552 0
M  V30 33587 C 3152.77 -2.04241 -4.94155 0
M  V30 33588 C 3154.07 -3.77549 -3.60907 0
M  V30 33589 H 3155.77 -2.34701 -1.85892 0
M  V30 33590 H 3153.31 -1.12972 -0.892939 0
M  V30 33591 H 3155.26 -1.23699 -4.02836 0
M  V30 33592 H 3153.99 -0.264032 -3.25531 0
M  V30 33593 H 3152.65 -2.35027 -2.8135 0
M  V30 33594 H 3152.3 -1.04821 -4.91957 0
M  V30 33595 H 3152 -2.78576 -5.17368 0
M  V30 33596 H 3153.52 -2.05313 -5.75047 0
M  V30 33597 H 3154.93 -3.79717 -4.29521 0
M  V30 33598 H 3153.33 -4.51212 -3.95636 0
M  V30 33599 H 3154.4 -4.08795 -2.60796 0
M  V30 33600 N 3155.74 0.968523 -1.24328 0
M  V30 33601 C 3156.97 1.75169 -1.11043 0
M  V30 33602 C 3157.39 1.85128 0.333077 0
M  V30 33603 O 3156.75 1.32158 1.24112 0
M  V30 33604 C 3156.8 3.15065 -1.75403 0
M  V30 33605 O 3155.9 3.99479 -1.02424 0
M  V30 33606 H 3155.24 0.538485 -0.388498 0
M  V30 33607 H 3157.77 1.21497 -1.64619 0
M  V30 33608 H 3157.78 3.65592 -1.81126 0
M  V30 33609 H 3156.46 3.07133 -2.80432 0
M  V30 33610 H 3155.04 3.57964 -1.04481 0
M  V30 33611 N 3157.22 1.0569 1.16908 0
M  V30 33612 C 3158.13 0.673189 2.24734 0
M  V30 33613 C 3159.15 -0.308013 1.71252 0
M  V30 33614 O 3160.32 -0.158853 2.00773 0
M  V30 33615 C 3157.39 0.0590869 3.4665 0
M  V30 33616 C 3156.45 1.09138 4.15196 0
M  V30 33617 C 3155.68 0.506484 5.31291 0
M  V30 33618 O 3155.91 -0.682592 5.66301 0
M  V30 33619 O 3154.84 1.2432 5.88921 0
M  V30 33620 H 3158.67 1.57195 2.59853 0
M  V30 33621 H 3156.25 0.828773 1.24305 0
M  V30 33622 H 3158.13 -0.281944 4.20456 0
M  V30 33623 H 3156.81 -0.813249 3.13318 0
M  V30 33624 H 3155.71 1.48448 3.43386 0
M  V30 33625 H 3157.05 1.93503 4.52567 0
M  V30 33626 N 3158.7 -1.33435 0.838617 0
M  V30 33627 C 3159.63 -2.31733 0.286713 0
M  V30 33628 C 3160.61 -1.58961 -0.605423 0
M  V30 33629 O 3161.8 -1.86855 -0.529026 0
M  V30 33630 C 3158.93 -3.43088 -0.539251 0
M  V30 33631 C 3157.88 -4.27227 0.257072 0
M  V30 33632 C 3157.21 -5.30195 -0.692625 0
M  V30 33633 C 3158.51 -5.01069 1.474 0
M  V30 33634 H 3160.2 -2.78142 1.10803 0
M  V30 33635 H 3157.75 -1.33722 0.534259 0
M  V30 33636 H 3159.7 -4.10881 -0.935652 0
M  V30 33637 H 3158.42 -2.95367 -1.39378 0
M  V30 33638 H 3157.08 -3.61058 0.63503 0
M  V30 33639 H 3156.73 -4.78731 -1.54354 0
M  V30 33640 H 3156.43 -5.87371 -0.16392 0
M  V30 33641 H 3157.95 -6.00855 -1.08655 0
M  V30 33642 H 3159.37 -5.61632 1.15077 0
M  V30 33643 H 3157.76 -5.67895 1.93947 0
M  V30 33644 H 3158.83 -4.29857 2.2439 0
M  V30 33645 N 3160.18 -0.595029 -1.45935 0
M  V30 33646 C 3161.59 -0.171812 -1.85908 0
M  V30 33647 C 3161.94 1.26822 -1.49702 0
M  V30 33648 O 3161.06 1.95977 -0.917722 0
M  V30 33649 C 3161.66 -0.305035 -3.37424 0
M  V30 33650 C 3160.22 0.0633973 -3.76347 0
M  V30 33651 C 3159.37 -0.635303 -2.69924 0
M  V30 33652 H 3162.32 -0.802495 -1.36915 0
M  V30 33653 H 3162.34 0.466246 -3.77633 0
M  V30 33654 H 3161.85 -1.3532 -3.63744 0
M  V30 33655 H 3159.95 1.11123 -3.55644 0
M  V30 33656 H 3160.06 -0.321503 -4.7802 0
M  V30 33657 H 3158.43 -0.0742502 -2.54592 0
M  V30 33658 H 3159.21 -1.68536 -2.99083 0
M  V30 33659 N 3161.66 1.54031 -0.333483 0
M  V30 33660 C 3162.57 2.2838 0.536634 0
M  V30 33661 C 3163.58 1.33106 1.12066 0
M  V30 33662 O 3164.76 1.66133 1.1385 0
M  V30 33663 C 3161.82 3.03459 1.67672 0
M  V30 33664 C 3160.88 4.14338 1.1235 0
M  V30 33665 C 3160.12 4.85827 2.20924 0
M  V30 33666 O 3160.34 4.56906 3.41458 0
M  V30 33667 O 3159.27 5.7251 1.85785 0
M  V30 33668 H 3163.1 3.03625 -0.0674537 0
M  V30 33669 H 3160.68 1.49073 -0.0988492 0
M  V30 33670 H 3162.57 3.50442 2.34026 0
M  V30 33671 H 3161.24 2.3108 2.2668 0
M  V30 33672 H 3160.15 3.71681 0.424761 0
M  V30 33673 H 3161.48 4.8879 0.578411 0
M  V30 33674 N 3163.13 0.0618717 1.57479 0
M  V30 33675 C 3164.36 -0.618802 1.9743 0
M  V30 33676 C 3164.78 -1.63744 0.939854 0
M  V30 33677 O 3164.13 -1.82347 -0.0746853 0
M  V30 33678 C 3164.18 -1.29622 3.37462 0
M  V30 33679 O 3163.91 -0.318355 4.36942 0
M  V30 33680 C 3165.41 -2.06565 3.92232 0
M  V30 33681 H 3162.63 -0.168433 0.649516 0
M  V30 33682 H 3165.17 0.131339 2.04078 0
M  V30 33683 H 3163.33 -1.99751 3.31931 0
M  V30 33684 H 3163.74 -0.803148 5.18314 0
M  V30 33685 H 3165.21 -2.49369 4.92462 0
M  V30 33686 H 3165.69 -2.91818 3.28236 0
M  V30 33687 H 3166.3 -1.41323 4.01133 0
M  V30 33688 N 3164.61 -1.56173 -0.211607 0
M  V30 33689 C 3165.54 -1.96246 -1.26529 0
M  V30 33690 C 3166.52 -0.832054 -1.48361 0
M  V30 33691 O 3167.71 -1.09513 -1.60376 0
M  V30 33692 C 3164.84 -2.28775 -2.61303 0
M  V30 33693 C 3163.79 -3.44399 -2.54112 0
M  V30 33694 C 3163.12 -3.62559 -3.93007 0
M  V30 33695 C 3164.42 -4.7908 -2.08038 0
M  V30 33696 H 3166.11 -2.84513 -0.932357 0
M  V30 33697 H 3163.66 -1.36885 -0.44706 0
M  V30 33698 H 3165.61 -2.55402 -3.35184 0
M  V30 33699 H 3164.34 -1.37372 -2.96305 0
M  V30 33700 H 3162.99 -3.17837 -1.82689 0
M  V30 33701 H 3162.64 -2.68516 -4.25333 0
M  V30 33702 H 3162.34 -4.40334 -3.89075 0
M  V30 33703 H 3163.87 -3.91545 -4.68535 0
M  V30 33704 H 3165.28 -5.04846 -2.71667 0
M  V30 33705 H 3163.68 -5.60208 -2.15144 0
M  V30 33706 H 3164.75 -4.73769 -1.03298 0
M  V30 33707 N 3166.09 0.478699 -1.50154 0
M  V30 33708 C 3167 1.60361 -1.71235 0
M  V30 33709 C 3168.02 1.635 -0.595298 0
M  V30 33710 O 3169.19 1.81509 -0.872715 0
M  V30 33711 C 3166.26 2.9662 -1.79492 0
M  V30 33712 C 3165.32 3.03931 -3.0319 0
M  V30 33713 C 3164.55 4.33691 -3.11044 0
M  V30 33714 O 3164.77 5.23765 -2.25889 0
M  V30 33715 O 3163.71 4.46436 -4.03706 0
M  V30 33716 H 3167.53 1.455 -2.66577 0
M  V30 33717 H 3165.12 0.657387 -1.3416 0
M  V30 33718 H 3167 3.77563 -1.87147 0
M  V30 33719 H 3165.68 3.11697 -0.873319 0
M  V30 33720 H 3164.58 2.22094 -3.0104 0
M  V30 33721 H 3165.92 2.93789 -3.94904 0
M  V30 33722 N 3167.57 1.39603 0.731343 0
M  V30 33723 C 3168.8 1.40308 1.52057 0
M  V30 33724 C 3169.21 -0.00144602 1.888 0
M  V30 33725 O 3168.57 -0.973688 1.54355 0
M  V30 33726 C 3168.62 2.27936 2.80584 0
M  V30 33727 O 3168.34 3.62919 2.454 0
M  V30 33728 C 3169.84 2.37063 3.74588 0
M  V30 33729 H 3167.06 0.479112 0.469779 0
M  V30 33730 H 3169.61 1.83464 0.903404 0
M  V30 33731 H 3167.76 1.88184 3.38623 0
M  V30 33732 H 3168.17 4.09296 3.27989 0
M  V30 33733 H 3169.65 3.02617 4.61657 0
M  V30 33734 H 3170.13 1.39089 4.16594 0
M  V30 33735 H 3170.73 2.773 3.22466 0
M  V30 33736 N 3169.05 -0.961916 1.2484 0
M  V30 33737 C 3169.98 -2.07512 1.07056 0
M  V30 33738 C 3170.96 -1.7009 -0.0182166 0
M  V30 33739 O 3172.14 -1.9362 0.149949 0
M  V30 33740 C 3169.27 -3.40563 0.680753 0
M  V30 33741 C 3168.23 -3.91964 1.71895 0
M  V30 33742 C 3167.55 -5.21426 1.18404 0
M  V30 33743 C 3168.85 -4.19156 3.11618 0
M  V30 33744 H 3170.55 -2.22647 2.00171 0
M  V30 33745 H 3168.09 -1.06989 0.963818 0
M  V30 33746 H 3170.05 -4.17883 0.543313 0
M  V30 33747 H 3168.77 -3.25345 -0.286092 0
M  V30 33748 H 3167.43 -3.16806 1.84471 0
M  V30 33749 H 3167.08 -5.02571 0.207632 0
M  V30 33750 H 3166.78 -5.56785 1.87788 0
M  V30 33751 H 3168.3 -6.01349 1.05884 0
M  V30 33752 H 3169.71 -4.8716 3.02238 0
M  V30 33753 H 3168.11 -4.65756 3.78406 0
M  V30 33754 H 3169.18 -3.25709 3.59224 0
M  V30 33755 N 3170.52 -1.06308 -1.16346 0
M  V30 33756 C 3171.45 -0.695273 -2.22909 0
M  V30 33757 C 3172.44 0.312313 -1.67208 0
M  V30 33758 O 3173.62 0.187408 -1.93294 0
M  V30 33759 C 3170.75 -0.0810759 -3.47205 0
M  V30 33760 C 3169.7 -1.01465 -4.15799 0
M  V30 33761 C 3169.03 -0.26375 -5.34049 0
M  V30 33762 C 3170.33 -2.34373 -4.66762 0
M  V30 33763 H 3172.02 -1.58618 -2.53931 0
M  V30 33764 H 3169.57 -0.764111 -1.22055 0
M  V30 33765 H 3171.52 0.188106 -4.2098 0
M  V30 33766 H 3170.25 0.844842 -3.15484 0
M  V30 33767 H 3168.91 -1.26858 -3.43951 0
M  V30 33768 H 3168.55 0.665291 -4.98581 0
M  V30 33769 H 3168.25 -0.885922 -5.80883 0
M  V30 33770 H 3169.78 -0.00211727 -6.106 0
M  V30 33771 H 3171.19 -2.13366 -5.32117 0
M  V30 33772 H 3169.59 -2.92089 -5.24218 0
M  V30 33773 H 3170.66 -2.97433 -3.82964 0
M  V30 33774 N 3172 1.32989 -0.845682 0
M  V30 33775 C 3172.93 2.31578 -0.298998 0
M  V30 33776 C 3173.91 1.5928 0.596984 0
M  V30 33777 O 3175.1 1.87133 0.51911 0
M  V30 33778 C 3172.23 3.43369 0.521048 0
M  V30 33779 C 3171.18 4.27085 -0.279726 0
M  V30 33780 C 3170.51 5.30555 0.664497 0
M  V30 33781 C 3171.81 5.00281 -1.50055 0
M  V30 33782 H 3173.5 2.77551 -1.12277 0
M  V30 33783 H 3171.05 1.33437 -0.541343 0
M  V30 33784 H 3173 4.11372 0.913849 0
M  V30 33785 H 3171.73 2.96102 1.37809 0
M  V30 33786 H 3170.38 3.60716 -0.654169 0
M  V30 33787 H 3170.03 4.79543 1.51813 0
M  V30 33788 H 3169.73 5.8745 0.132768 0
M  V30 33789 H 3171.26 6.01423 1.05467 0
M  V30 33790 H 3172.67 5.61014 -1.18054 0
M  V30 33791 H 3171.07 5.66858 -1.96956 0
M  V30 33792 H 3172.14 4.28661 -2.26666 0
M  V30 33793 N 3173.48 0.60276 1.45618 0
M  V30 33794 C 3174.41 -0.106301 2.33258 0
M  V30 33795 C 3175.39 -0.863638 1.46545 0
M  V30 33796 O 3176.58 -0.835144 1.75325 0
M  V30 33797 C 3173.71 -1.10745 3.2917 0
M  V30 33798 C 3172.66 -0.463642 4.25481 0
M  V30 33799 C 3171.99 -1.57269 5.11048 0
M  V30 33800 C 3173.29 0.612081 5.18701 0
M  V30 33801 H 3174.98 0.625474 2.92794 0
M  V30 33802 H 3172.53 0.302237 1.40792 0
M  V30 33803 H 3174.48 -1.61201 3.89348 0
M  V30 33804 H 3173.2 -1.86976 2.67783 0
M  V30 33805 H 3171.86 0.0200141 3.66595 0
M  V30 33806 H 3171.51 -2.32516 4.46033 0
M  V30 33807 H 3171.21 -1.14745 5.76288 0
M  V30 33808 H 3172.73 -2.07962 5.74094 0
M  V30 33809 H 3174.15 0.191787 5.72979 0
M  V30 33810 H 3172.55 0.95879 5.92391 0
M  V30 33811 H 3173.62 1.49058 4.61421 0
M  V30 33812 N 3174.96 -1.53852 0.341647 0
M  V30 33813 C 3176.19 -2.05299 -0.256893 0
M  V30 33814 C 3176.6 -1.21673 -1.44364 0
M  V30 33815 O 3175.96 -0.251615 -1.80757 0
M  V30 33816 C 3176.01 -3.55165 -0.673792 0
M  V30 33817 O 3175.73 -4.35617 0.465764 0
M  V30 33818 C 3177.23 -4.22776 -1.33325 0
M  V30 33819 H 3174.45 -0.66914 -0.0499327 0
M  V30 33820 H 3177 -1.98466 0.493082 0
M  V30 33821 H 3175.15 -3.62226 -1.37371 0
M  V30 33822 H 3175.56 -5.24329 0.133815 0
M  V30 33823 H 3177.04 -5.29032 -1.57573 0
M  V30 33824 H 3177.52 -3.75005 -2.28622 0
M  V30 33825 H 3178.12 -4.19903 -0.675415 0
M  V30 33826 N 3176.44 -0.0702223 -1.57443 0
M  V30 33827 C 3177.37 0.895138 -2.15661 0
M  V30 33828 C 3178.35 1.31149 -1.08323 0
M  V30 33829 O 3179.53 1.38282 -1.36351 0
M  V30 33830 C 3176.66 2.16329 -2.71697 0
M  V30 33831 C 3175.62 1.88639 -3.84187 0
M  V30 33832 C 3174.94 3.22071 -4.26819 0
M  V30 33833 C 3176.24 1.1929 -5.08495 0
M  V30 33834 H 3177.94 0.410165 -2.96577 0
M  V30 33835 H 3175.48 0.195847 -1.42662 0
M  V30 33836 H 3177.44 2.84278 -3.11069 0
M  V30 33837 H 3176.16 2.67065 -1.87999 0
M  V30 33838 H 3174.82 1.23095 -3.45316 0
M  V30 33839 H 3174.47 3.70645 -3.40046 0
M  V30 33840 H 3174.17 3.04335 -5.02647 0
M  V30 33841 H 3175.69 3.9122 -4.68806 0
M  V30 33842 H 3177.1 1.77306 -5.45193 0
M  V30 33843 H 3175.5 1.11818 -5.8959 0
M  V30 33844 H 3176.57 0.171754 -4.84596 0
M  V30 33845 N 3177.91 1.56283 0.203321 0
M  V30 33846 C 3178.84 1.96914 1.25487 0
M  V30 33847 C 3179.83 0.83991 1.47917 0
M  V30 33848 O 3181.01 1.10362 1.59793 0
M  V30 33849 C 3178.14 2.30157 2.60086 0
M  V30 33850 C 3177.09 3.45742 2.52282 0
M  V30 33851 C 3176.42 3.64638 3.91079 0
M  V30 33852 C 3177.72 4.80176 2.05494 0
M  V30 33853 H 3179.41 2.85003 0.917256 0
M  V30 33854 H 3176.96 1.3712 0.439794 0
M  V30 33855 H 3178.91 2.57176 3.33824 0
M  V30 33856 H 3177.64 1.38942 2.95572 0
M  V30 33857 H 3176.3 3.18801 1.81001 0
M  V30 33858 H 3175.94 2.70767 4.23903 0
M  V30 33859 H 3175.64 4.42391 3.86735 0
M  V30 33860 H 3177.17 3.94024 4.66452 0
M  V30 33861 H 3178.58 5.0628 2.68986 0
M  V30 33862 H 3176.98 5.61341 2.1217 0
M  V30 33863 H 3178.05 4.74311 1.00784 0
M  V30 33864 N 3179.39 -0.470729 1.50406 0
M  V30 33865 C 3180.36 -1.55107 1.68744 0
M  V30 33866 C 3181.36 -1.50803 0.558143 0
M  V30 33867 O 3182.55 -1.53416 0.825176 0
M  V30 33868 C 3179.68 -2.94736 1.713 0
M  V30 33869 H 3180.87 -1.40165 2.6513 0
M  V30 33870 H 3178.42 -0.697132 1.39892 0
M  V30 33871 H 3179.16 -3.15122 0.766084 0
M  V30 33872 H 3178.94 -2.99267 2.53341 0
M  V30 33873 H 3180.43 -3.7317 1.87441 0
M  V30 33874 N 3180.87 -1.39989 -0.72393 0
M  V30 33875 C 3182.1 -1.41112 -1.51311 0
M  V30 33876 C 3182.51 -0.00856652 -1.88798 0
M  V30 33877 O 3181.87 0.965488 -1.5487 0
M  V30 33878 C 3181.92 -2.29421 -2.79371 0
M  V30 33879 O 3181.64 -3.64216 -2.43472 0
M  V30 33880 C 3183.14 -2.39046 -3.73325 0
M  V30 33881 H 3180.36 -0.481597 -0.467231 0
M  V30 33882 H 3182.91 -1.8394 -0.893662 0
M  V30 33883 H 3181.06 -1.89977 -3.3762 0
M  V30 33884 H 3181.48 -4.1103 -3.25814 0
M  V30 33885 H 3182.95 -3.05061 -4.60045 0
M  V30 33886 H 3183.43 -1.41296 -4.15851 0
M  V30 33887 H 3184.03 -2.79007 -3.20991 0
M  V30 33888 N 3182.35 0.955282 -1.25348 0
M  V30 33889 C 3183.6 1.70233 -1.10221 0
M  V30 33890 C 3183.93 1.90907 0.356091 0
M  V30 33891 O 3183.2 1.47956 1.26251 0
M  V30 33892 C 3183.49 3.08565 -1.85632 0
M  V30 33893 C 3183.34 2.95305 -3.39286 0
M  V30 33894 C 3184.66 4.08445 -1.63893 0
M  V30 33895 H 3181.78 0.617845 -0.401791 0
M  V30 33896 H 3184.42 1.11046 -1.54172 0
M  V30 33897 H 3182.57 3.59091 -1.48276 0
M  V30 33898 H 3184.24 2.5211 -3.86314 0
M  V30 33899 H 3182.48 2.31238 -3.67031 0
M  V30 33900 H 3183.16 3.93357 -3.87265 0
M  V30 33901 H 3185.63 3.66826 -1.96412 0
M  V30 33902 H 3184.51 5.03278 -2.19095 0
M  V30 33903 H 3184.77 4.38278 -0.580098 0
M  V30 33904 N 3183.83 1.06924 1.1578 0
M  V30 33905 C 3185.06 0.810754 1.90353 0
M  V30 33906 C 3185.47 -0.635583 1.7778 0
M  V30 33907 O 3184.83 -1.43562 1.12677 0
M  V30 33908 C 3184.88 1.20436 3.40848 0
M  V30 33909 O 3184.6 2.59395 3.53052 0
M  V30 33910 C 3186.1 0.974549 4.32455 0
M  V30 33911 H 3183.32 0.293462 0.603424 0
M  V30 33912 H 3185.86 1.42455 1.4672 0
M  V30 33913 H 3184.02 0.634976 3.82161 0
M  V30 33914 H 3184.43 2.75333 4.46421 0
M  V30 33915 H 3185.91 1.29951 5.36485 0
M  V30 33916 H 3186.38 -0.0893709 4.39109 0
M  V30 33917 H 3186.99 1.52863 3.96879 0
M  V30 33918 N 3185.31 -1.32538 0.852723 0
M  V30 33919 C 3186.55 -1.96929 0.454259 0
M  V30 33920 C 3186.87 -1.67823 -0.993005 0
M  V30 33921 O 3186.14 -0.984422 -1.69369 0
M  V30 33922 H 3184.72 -0.728552 0.16499 0
M  V30 33923 H 3187.39 -1.61656 1.08873 0
M  V30 33924 H 3186.48 -3.06323 0.597721 0
M  V30 33925 N 3186.78 -0.610474 -1.45296 0
M  V30 33926 C 3188.03 -0.106584 -2.01819 0
M  V30 33927 C 3188.35 1.26847 -1.48104 0
M  V30 33928 O 3187.62 1.83851 -0.676444 0
M  V30 33929 H 3186.2 -0.0364113 -0.746112 0
M  V30 33930 H 3188.86 -0.792523 -1.78059 0
M  V30 33931 H 3187.96 -0.0585549 -3.12045 0
M  V30 33932 N 3188.26 1.53669 -0.349801 0
M  V30 33933 C 3189.51 2.00196 0.245826 0
M  V30 33934 C 3189.82 1.24147 1.51152 0
M  V30 33935 O 3191.03 1.61182 2.18478 0
M  V30 33936 C 3189.49 3.56568 0.488602 0
M  V30 33937 C 3189.09 4.4148 -0.761553 0
M  V30 33938 C 3190.84 4.11494 1.04275 0
M  V30 33939 C 3188.74 5.89373 -0.489232 0
M  V30 33940 H 3187.67 0.74791 0.0956362 0
M  V30 33941 H 3190.33 1.77482 -0.466099 0
M  V30 33942 H 3188.71 3.75373 1.26139 0
M  V30 33943 H 3189.88 4.34449 -1.53592 0
M  V30 33944 H 3188.2 3.97578 -1.23778 0
M  V30 33945 H 3190.79 5.19605 1.26155 0
M  V30 33946 H 3191.14 3.65102 2.00016 0
M  V30 33947 H 3191.67 3.96425 0.330513 0
M  V30 33948 H 3188.41 6.40011 -1.41654 0
M  V30 33949 H 3187.93 5.99291 0.246934 0
M  V30 33950 H 3189.61 6.46908 -0.108814 0
M  V30 33951 N 3189.74 0.0785709 1.57404 0
M  V30 33952 C 3190.99 -0.58899 1.93745 0
M  V30 33953 C 3191.31 -1.69208 0.959117 0
M  V30 33954 O 3190.57 -1.95685 -0.024126 0
M  V30 33955 C 3190.87 -1.19904 3.36687 0
M  V30 33956 C 3190.53 -0.221414 4.50356 0
M  V30 33957 C 3189.2 0.0475193 4.81177 0
M  V30 33958 C 3191.55 0.447032 5.19279 0
M  V30 33959 C 3188.88 0.991872 5.78255 0
M  V30 33960 C 3191.23 1.37975 6.1737 0
M  V30 33961 C 3189.89 1.65708 6.46604 0
M  V30 33962 H 3189.16 -0.215527 0.708964 0
M  V30 33963 H 3191.81 0.15089 1.90905 0
M  V30 33964 H 3190.11 -2.0148 3.36025 0
M  V30 33965 H 3191.81 -1.72297 3.62098 0
M  V30 33966 H 3188.4 -0.441209 4.26323 0
M  V30 33967 H 3192.59 0.252385 4.95658 0
M  V30 33968 H 3187.84 1.21392 5.99228 0
M  V30 33969 H 3192.02 1.90362 6.69877 0
M  V30 33970 H 3189.64 2.39044 7.21639 0
M  V30 33971 N 3191.22 -1.56389 -0.19503 0
M  V30 33972 C 3192.15 -1.97577 -1.24441 0
M  V30 33973 C 3193.13 -0.847743 -1.4747 0
M  V30 33974 O 3194.31 -1.11208 -1.59206 0
M  V30 33975 C 3191.44 -2.31533 -2.58862 0
M  V30 33976 C 3190.4 -3.47075 -2.50445 0
M  V30 33977 C 3189.72 -3.66707 -3.8914 0
M  V30 33978 C 3191.02 -4.81259 -2.02945 0
M  V30 33979 H 3192.72 -2.85486 -0.902128 0
M  V30 33980 H 3190.26 -1.37351 -0.432516 0
M  V30 33981 H 3192.22 -2.58942 -3.32456 0
M  V30 33982 H 3190.94 -1.40507 -2.94831 0
M  V30 33983 H 3189.6 -3.19757 -1.79307 0
M  V30 33984 H 3189.25 -2.73012 -4.22461 0
M  V30 33985 H 3188.95 -4.44436 -3.84383 0
M  V30 33986 H 3190.47 -3.96492 -4.64356 0
M  V30 33987 H 3191.89 -5.07699 -2.66297 0
M  V30 33988 H 3190.28 -5.62458 -2.0919 0
M  V30 33989 H 3191.35 -4.74838 -0.982674 0
M  V30 33990 N 3192.7 0.462746 -1.50653 0
M  V30 33991 C 3193.94 1.21421 -1.62059 0
M  V30 33992 C 3194.27 1.91769 -0.324811 0
M  V30 33993 O 3193.53 1.8314 0.689796 0
M  V30 33994 C 3193.82 2.27502 -2.75641 0
M  V30 33995 C 3193.49 1.74347 -4.15829 0
M  V30 33996 C 3192.15 1.59572 -4.53972 0
M  V30 33997 C 3194.5 1.35004 -5.03412 0
M  V30 33998 C 3191.83 1.03889 -5.77429 0
M  V30 33999 C 3194.18 0.807594 -6.27424 0
M  V30 34000 C 3192.85 0.64654 -6.64361 0
M  V30 34001 H 3192.12 0.44431 -0.593017 0
M  V30 34002 H 3194.77 0.508967 -1.84613 0
M  V30 34003 H 3193.07 3.03966 -2.47208 0
M  V30 34004 H 3194.77 2.85419 -2.81668 0
M  V30 34005 H 3191.36 1.86817 -3.85743 0
M  V30 34006 H 3195.54 1.45249 -4.7457 0
M  V30 34007 H 3190.8 0.901645 -6.04715 0
M  V30 34008 H 3194.97 0.494112 -6.94645 0
M  V30 34009 H 3192.6 0.21292 -7.59902 0
M  V30 34010 N 3194.17 1.40371 0.716495 0
M  V30 34011 C 3195.1 1.43318 1.84343 0
M  V30 34012 C 3196.09 0.294216 1.67536 0
M  V30 34013 O 3197.27 0.502704 1.87581 0
M  V30 34014 C 3194.4 1.29414 3.22288 0
M  V30 34015 C 3193.35 2.40904 3.53765 0
M  V30 34016 C 3192.68 2.12077 4.90844 0
M  V30 34017 C 3193.98 3.83243 3.54855 0
M  V30 34018 H 3195.67 2.37629 1.82134 0
M  V30 34019 H 3193.22 1.14378 0.874853 0
M  V30 34020 H 3195.17 1.30092 4.00817 0
M  V30 34021 H 3193.9 0.315787 3.2507 0
M  V30 34022 H 3192.56 2.39474 2.77575 0
M  V30 34023 H 3192.2 1.12635 4.90227 0
M  V30 34024 H 3191.9 2.86771 5.1287 0
M  V30 34025 H 3193.43 2.14436 5.71708 0
M  V30 34026 H 3194.84 3.86502 4.23426 0
M  V30 34027 H 3193.24 4.57449 3.88408 0
M  V30 34028 H 3194.31 4.12893 2.54259 0
M  V30 34029 N 3195.65 -0.948621 1.25853 0
M  V30 34030 C 3196.59 -2.04591 1.01083 0
M  V30 34031 C 3197.56 -1.62482 -0.0619406 0
M  V30 34032 O 3198.75 -1.88335 0.0789527 0
M  V30 34033 C 3195.87 -3.3454 0.529232 0
M  V30 34034 C 3194.92 -3.95616 1.59344 0
M  V30 34035 S 3195.75 -4.30831 3.18033 0
M  V30 34036 C 3196.91 -5.6389 2.71623 0
M  V30 34037 H 3197.14 -2.25287 1.93992 0
M  V30 34038 H 3194.68 -1.08904 1.0945 0
M  V30 34039 H 3196.63 -4.09688 0.258022 0
M  V30 34040 H 3195.29 -3.118 -0.379456 0
M  V30 34041 H 3194.49 -4.89326 1.20731 0
M  V30 34042 H 3194.09 -3.26971 1.81565 0
M  V30 34043 H 3196.38 -6.42272 2.15623 0
M  V30 34044 H 3197.32 -6.07381 3.63997 0
M  V30 34045 H 3197.73 -5.23411 2.11426 0
M  V30 34046 N 3197.13 -1.07536 -1.15212 0
M  V30 34047 C 3198.36 -0.820917 -1.90462 0
M  V30 34048 C 3198.78 0.620274 -1.77579 0
M  V30 34049 O 3198.14 1.43364 -1.10979 0
M  V30 34050 C 3198.19 -1.23633 -3.38744 0
M  V30 34051 O 3197.29 -0.382788 -4.1062 0
M  V30 34052 H 3196.63 -0.298911 -0.592915 0
M  V30 34053 H 3199.16 -1.43447 -1.45891 0
M  V30 34054 H 3199.17 -1.21333 -3.89541 0
M  V30 34055 H 3197.85 -2.28602 -3.47439 0
M  V30 34056 H 3196.42 -0.468439 -3.69946 0
M  V30 34057 N 3198.61 1.32084 -0.85974 0
M  V30 34058 C 3199.86 1.96685 -0.464696 0
M  V30 34059 C 3200.18 1.68347 0.984091 0
M  V30 34060 O 3199.45 0.993391 1.68845 0
M  V30 34061 H 3198.03 0.727666 -0.168851 0
M  V30 34062 H 3200.69 1.61077 -1.09728 0
M  V30 34063 H 3199.79 3.06002 -0.613958 0
M  V30 34064 N 3200.09 0.618171 1.4497 0
M  V30 34065 C 3201.5 0.282694 1.57076 0
M  V30 34066 C 3201.7 -1.21453 1.60784 0
M  V30 34067 O 3200.76 -1.99804 1.54385 0
M  V30 34068 C 3202.07 0.963198 2.84856 0
M  V30 34069 C 3203.62 0.940115 2.98548 0
M  V30 34070 C 3204.09 1.60083 4.29112 0
M  V30 34071 N 3205.59 1.56681 4.35896 0
M  V30 34072 C 3206.32 2.0471 5.35613 0
M  V30 34073 N 3205.82 2.60872 6.41808 0
M  V30 34074 N 3207.61 1.95415 5.27038 0
M  V30 34075 H 3199.76 1.59019 1.40807 0
M  V30 34076 H 3202.02 0.666753 0.673902 0
M  V30 34077 H 3201.73 2.01785 2.88055 0
M  V30 34078 H 3201.6 0.492967 3.73965 0
M  V30 34079 H 3203.99 -0.106019 2.94909 0
M  V30 34080 H 3204.07 1.44871 2.10822 0
M  V30 34081 H 3203.72 2.64635 4.3351 0
M  V30 34082 H 3203.65 1.06717 5.15673 0
M  V30 34083 H 3206.14 1.15665 3.59764 0
M  V30 34084 H 3206.45 2.95286 7.14161 0
M  V30 34085 H 3204.79 2.64916 6.4253 0
M  V30 34086 H 3207.99 1.51271 4.42984 0
M  V30 34087 H 3208.16 2.33158 6.046 0
M  V30 34088 N 3201.56 -1.53481 0.357946 0
M  V30 34089 C 3202.81 -2.00745 -0.233665 0
M  V30 34090 C 3203.13 -1.24713 -1.49905 0
M  V30 34091 O 3202.4 -0.358269 -1.92596 0
M  V30 34092 H 3200.98 -0.741639 -0.0893343 0
M  V30 34093 H 3203.65 -1.88835 0.482421 0
M  V30 34094 H 3202.74 -3.08601 -0.466019 0
M  V30 34095 N 3203.04 -0.0869173 -1.5736 0
M  V30 34096 C 3204.29 0.578353 -1.9323 0
M  V30 34097 C 3204.6 1.69845 -0.970157 0
M  V30 34098 O 3205.81 2.42432 -1.22226 0
M  V30 34099 C 3204.27 1.08014 -3.43309 0
M  V30 34100 C 3203.87 -0.0097601 -4.47999 0
M  V30 34101 C 3205.62 1.71861 -3.88154 0
M  V30 34102 C 3203.53 0.506925 -5.89223 0
M  V30 34103 H 3202.46 0.21981 -0.721249 0
M  V30 34104 H 3205.11 -0.161598 -1.82787 0
M  V30 34105 H 3203.49 1.87353 -3.48877 0
M  V30 34106 H 3204.66 -0.784944 -4.54065 0
M  V30 34107 H 3202.98 -0.552918 -4.12713 0
M  V30 34108 H 3205.57 2.11577 -4.91059 0
M  V30 34109 H 3205.92 2.58458 -3.26351 0
M  V30 34110 H 3206.45 0.991192 -3.85253 0
M  V30 34111 H 3203.19 -0.322236 -6.54707 0
M  V30 34112 H 3202.71 1.24929 -5.86645 0
M  V30 34113 H 3204.39 0.978515 -6.39558 0
M  V30 34114 N 3204.52 1.5649 0.186734 0
M  V30 34115 C 3205.77 1.80753 0.904031 0
M  V30 34116 C 3206.09 0.661376 1.83442 0
M  V30 34117 O 3205.36 -0.319777 1.93272 0
M  V30 34118 H 3203.94 0.666756 0.336817 0
M  V30 34119 H 3206.6 1.93969 0.190241 0
M  V30 34120 H 3205.7 2.74227 1.49016 0
M  V30 34121 N 3206 -0.45475 1.50897 0
M  V30 34122 C 3206.95 -1.55064 1.7095 0
M  V30 34123 C 3207.92 -1.56697 0.550926 0
M  V30 34124 O 3209.1 -1.73976 0.783382 0
M  V30 34125 C 3206.24 -2.9292 1.8246 0
M  V30 34126 C 3205.35 -3.0095 3.09924 0
M  V30 34127 C 3204.49 -4.29822 3.12132 0
M  V30 34128 C 3203.53 -4.31654 4.33983 0
M  V30 34129 N 3202.66 -5.52023 4.33838 0
M  V30 34130 H 3207.5 -1.37269 2.64502 0
M  V30 34131 H 3205.04 -0.667125 1.31102 0
M  V30 34132 H 3207 -3.72886 1.87115 0
M  V30 34133 H 3205.63 -3.09313 0.923325 0
M  V30 34134 H 3204.68 -2.13756 3.14663 0
M  V30 34135 H 3205.99 -2.98165 3.99874 0
M  V30 34136 H 3205.15 -5.18148 3.15607 0
M  V30 34137 H 3203.89 -4.35239 2.20041 0
M  V30 34138 H 3202.89 -3.41723 4.30703 0
M  V30 34139 H 3204.12 -4.27915 5.27319 0
M  V30 34140 H 3202.06 -5.58195 3.44608 0
M  V30 34141 H 3201.98 -5.51046 5.17576 0
M  V30 34142 H 3203.25 -6.42429 4.41481 0
M  V30 34143 N 3207.48 -1.40749 -0.709041 0
M  V30 34144 C 3208.41 -1.3594 -1.83291 0
M  V30 34145 C 3209.39 -0.228739 -1.60983 0
M  V30 34146 O 3210.57 -0.413467 -1.83909 0
M  V30 34147 C 3207.7 -1.1172 -3.19744 0
M  V30 34148 C 3206.74 -2.27325 -3.60868 0
M  V30 34149 S 3207.58 -3.8975 -3.67226 0
M  V30 34150 C 3208.73 -3.67806 -5.06428 0
M  V30 34151 H 3208.97 -2.3105 -1.87091 0
M  V30 34152 H 3206.5 -1.27113 -0.876457 0
M  V30 34153 H 3208.46 -0.984316 -3.98524 0
M  V30 34154 H 3207.12 -0.182527 -3.13569 0
M  V30 34155 H 3206.31 -2.06038 -4.59961 0
M  V30 34156 H 3205.91 -2.36951 -2.89362 0
M  V30 34157 H 3208.21 -3.26678 -5.93538 0
M  V30 34158 H 3209.15 -4.66454 -5.32753 0
M  V30 34159 H 3209.56 -3.01357 -4.7733 0
M  V30 34160 N 3208.96 0.941933 -1.26354 0
M  V30 34161 C 3210.18 1.72243 -1.14629 0
M  V30 34162 C 3210.6 1.86424 0.298555 0
M  V30 34163 O 3209.96 1.37108 1.20447 0
M  V30 34164 C 3210.01 3.12959 -1.80938 0
M  V30 34165 O 3209.73 2.99457 -3.19777 0
M  V30 34166 C 3211.23 4.07228 -1.75157 0
M  V30 34167 H 3208.45 0.539326 -0.39921 0
M  V30 34168 H 3210.99 1.18088 -1.6696 0
M  V30 34169 H 3209.15 3.64019 -1.32548 0
M  V30 34170 H 3209.56 3.88315 -3.52578 0
M  V30 34171 H 3211.04 5.03529 -2.26192 0
M  V30 34172 H 3211.51 4.33292 -0.717931 0
M  V30 34173 H 3212.12 3.62089 -2.23096 0
M  V30 34174 N 3210.43 1.08146 1.1464 0
M  V30 34175 C 3211.36 0.730648 2.21774 0
M  V30 34176 C 3212.34 -0.285672 1.67684 0
M  V30 34177 O 3213.53 -0.156633 1.93567 0
M  V30 34178 C 3210.66 0.136303 3.47032 0
M  V30 34179 C 3209.61 1.08067 4.14132 0
M  V30 34180 C 3208.94 0.348679 5.33562 0
M  V30 34181 C 3210.24 2.41769 4.62974 0
M  V30 34182 H 3211.93 1.62637 2.51375 0
M  V30 34183 H 3209.48 0.783432 1.20824 0
M  V30 34184 H 3211.43 -0.121108 4.21226 0
M  V30 34185 H 3210.16 -0.794544 3.16788 0
M  V30 34186 H 3208.82 1.32314 3.4189 0
M  V30 34187 H 3208.46 -0.585887 4.99576 0
M  V30 34188 H 3208.16 0.978224 5.794 0
M  V30 34189 H 3209.69 0.0992582 6.10519 0
M  V30 34190 H 3211.1 2.21804 5.28655 0
M  V30 34191 H 3209.5 3.00392 5.19504 0
M  V30 34192 H 3210.57 3.03488 3.78184 0
M  V30 34193 N 3211.91 -1.31626 0.866732 0
M  V30 34194 C 3213.16 -1.96436 0.47512 0
M  V30 34195 C 3213.48 -1.68866 -0.975149 0
M  V30 34196 O 3212.75 -1.00233 -1.68316 0
M  V30 34197 H 3211.33 -0.726761 0.172708 0
M  V30 34198 H 3213.99 -1.60492 1.10581 0
M  V30 34199 H 3213.09 -3.05672 0.630177 0
M  V30 34200 N 3213.39 -0.62585 -1.4464 0
M  V30 34201 C 3214.32 0.131441 -2.27821 0
M  V30 34202 C 3215.3 0.8563 -1.38225 0
M  V30 34203 O 3216.48 0.861464 -1.67663 0
M  V30 34204 C 3213.61 1.19198 -3.17032 0
M  V30 34205 C 3212.66 0.568241 -4.22698 0
M  V30 34206 S 3213.49 -0.637705 -5.31689 0
M  V30 34207 C 3214.65 0.422979 -6.24469 0
M  V30 34208 H 3214.88 -0.574228 -2.91702 0
M  V30 34209 H 3212.41 -0.41387 -1.4875 0
M  V30 34210 H 3214.37 1.79894 -3.68983 0
M  V30 34211 H 3213.03 1.86982 -2.52382 0
M  V30 34212 H 3212.22 1.36681 -4.85113 0
M  V30 34213 H 3211.83 0.0360186 -3.73983 0
M  V30 34214 H 3214.12 1.29702 -6.64969 0
M  V30 34215 H 3215.06 -0.165462 -7.07907 0
M  V30 34216 H 3215.47 0.746508 -5.59542 0
M  V30 34217 N 3214.87 1.53289 -0.36608 0
M  V30 34218 C 3216.11 2.03174 0.223522 0
M  V30 34219 C 3216.47 1.24747 1.45953 0
M  V30 34220 O 3217.67 1.64641 2.12478 0
M  V30 34221 C 3215.94 3.53774 0.507837 0
M  V30 34222 S 3217.5 4.25528 1.07104 0
M  V30 34223 H 3214.32 0.708021 0.0650185 0
M  V30 34224 H 3216.92 1.88756 -0.509061 0
M  V30 34225 H 3215.63 4.08454 -0.399202 0
M  V30 34226 H 3215.16 3.72354 1.26948 0
M  V30 34227 H 3217.17 4.36741 2.35525 0
M  V30 34228 N 3216.35 0.0952613 1.57312 0
M  V30 34229 C 3217.59 -0.571778 1.9624 0
M  V30 34230 C 3217.95 -1.6534 0.976049 0
M  V30 34231 O 3219.15 -2.37766 1.25383 0
M  V30 34232 C 3217.42 -1.11244 3.39646 0
M  V30 34233 S 3218.98 -1.79133 4.00571 0
M  V30 34234 H 3215.8 -0.186573 0.686084 0
M  V30 34235 H 3218.4 0.174704 1.94718 0
M  V30 34236 H 3217.1 -0.313724 4.09199 0
M  V30 34237 H 3216.64 -1.89475 3.44765 0
M  V30 34238 H 3218.65 -3.07557 3.89388 0
M  V30 34239 N 3217.82 -1.56587 -0.178432 0
M  V30 34240 C 3219.07 -1.80782 -0.894471 0
M  V30 34241 C 3219.39 -0.671323 -1.83719 0
M  V30 34242 O 3220.59 -0.798016 -2.59507 0
M  V30 34243 C 3219.05 -3.20309 -1.64104 0
M  V30 34244 C 3218.66 -4.41807 -0.74231 0
M  V30 34245 C 3220.4 -3.53802 -2.34572 0
M  V30 34246 C 3218.31 -5.72356 -1.4887 0
M  V30 34247 H 3217.24 -0.674123 -0.337748 0
M  V30 34248 H 3219.89 -1.82906 -0.147488 0
M  V30 34249 H 3218.27 -3.12482 -2.43251 0
M  V30 34250 H 3219.44 -4.60799 0.011696 0
M  V30 34251 H 3217.76 -4.16138 -0.147632 0
M  V30 34252 H 3220.36 -4.48582 -2.90996 0
M  V30 34253 H 3220.7 -2.78341 -3.09567 0
M  V30 34254 H 3221.23 -3.63152 -1.62375 0
M  V30 34255 H 3217.97 -6.50828 -0.781211 0
M  V30 34256 H 3217.49 -5.57355 -2.21621 0
M  V30 34257 H 3219.17 -6.14061 -2.03808 0
M  V30 34258 N 3219.3 0.446741 -1.51136 0
M  V30 34259 C 3220.55 1.19385 -1.62574 0
M  V30 34260 C 3220.86 1.92565 -0.343234 0
M  V30 34261 O 3222.07 2.69402 -0.336851 0
M  V30 34262 C 3220.53 2.17062 -2.87075 0
M  V30 34263 C 3220.13 1.49573 -4.22293 0
M  V30 34264 C 3221.88 2.92264 -3.07867 0
M  V30 34265 C 3219.78 2.4568 -5.37955 0
M  V30 34266 H 3218.71 0.44932 -0.605497 0
M  V30 34267 H 3221.37 0.461815 -1.77594 0
M  V30 34268 H 3219.75 2.93661 -2.65667 0
M  V30 34269 H 3220.92 0.785975 -4.54047 0
M  V30 34270 H 3219.24 0.865606 -4.07304 0
M  V30 34271 H 3221.83 3.6424 -3.91451 0
M  V30 34272 H 3222.18 3.53068 -2.20565 0
M  V30 34273 H 3222.71 2.22774 -3.2957 0
M  V30 34274 H 3219.45 1.8958 -6.27487 0
M  V30 34275 H 3218.97 3.14737 -5.10589 0
M  V30 34276 H 3220.65 3.07007 -5.69522 0
M  V30 34277 N 3220.78 1.41123 0.701567 0
M  V30 34278 C 3222.01 1.43502 1.49046 0
M  V30 34279 C 3222.42 0.0386016 1.88761 0
M  V30 34280 O 3221.78 -0.940728 1.56386 0
M  V30 34281 C 3221.83 2.33836 2.75686 0
M  V30 34282 O 3221.55 3.68043 2.37647 0
M  V30 34283 C 3223.05 2.44955 3.69475 0
M  V30 34284 H 3220.27 0.488969 0.459511 0
M  V30 34285 H 3222.82 1.85338 0.864286 0
M  V30 34286 H 3220.97 1.95324 3.34555 0
M  V30 34287 H 3221.39 4.16161 3.19233 0
M  V30 34288 H 3222.86 3.12342 4.55134 0
M  V30 34289 H 3223.34 1.47894 4.1355 0
M  V30 34290 H 3223.94 2.84078 3.16512 0
M  V30 34291 N 3222.26 -0.935219 1.26852 0
M  V30 34292 C 3223.22 -2.01634 1.08979 0
M  V30 34293 C 3224.22 -1.60759 0.0361826 0
M  V30 34294 O 3225.41 -1.71933 0.280118 0
M  V30 34295 C 3222.54 -3.34472 0.65889 0
M  V30 34296 H 3223.74 -2.18921 2.04972 0
M  V30 34297 H 3221.29 -1.11499 1.09533 0
M  V30 34298 H 3222.02 -3.22884 -0.302768 0
M  V30 34299 H 3221.81 -3.65494 1.41973 0
M  V30 34300 H 3223.3 -4.13884 0.555856 0
M  V30 34301 N 3223.74 -1.08752 -1.14065 0
M  V30 34302 C 3224.96 -0.841072 -1.8958 0
M  V30 34303 C 3225.39 0.601404 -1.78227 0
M  V30 34304 O 3224.74 1.42179 -1.12493 0
M  V30 34305 C 3224.79 -1.27219 -3.37413 0
M  V30 34306 O 3223.9 -0.426318 -4.10191 0
M  V30 34307 H 3223.24 -0.305183 -0.589711 0
M  V30 34308 H 3225.77 -1.44986 -1.44361 0
M  V30 34309 H 3225.78 -1.25458 -3.88232 0
M  V30 34310 H 3224.45 -2.32274 -3.44995 0
M  V30 34311 H 3223.03 -0.50765 -3.69428 0
M  V30 34312 N 3225.21 1.31165 -0.873701 0
M  V30 34313 C 3226.46 1.95841 -0.482612 0
M  V30 34314 C 3226.78 1.69805 0.970851 0
M  V30 34315 O 3227.98 2.28373 1.46826 0
M  V30 34316 C 3226.44 3.50617 -0.812135 0
M  V30 34317 C 3226.05 3.85488 -2.28261 0
M  V30 34318 C 3227.79 4.21666 -0.489698 0
M  V30 34319 C 3225.7 5.33392 -2.55435 0
M  V30 34320 H 3224.63 0.732991 -0.176748 0
M  V30 34321 H 3227.28 1.49281 -1.06712 0
M  V30 34322 H 3225.66 3.95689 -0.156839 0
M  V30 34323 H 3226.83 3.51364 -2.98128 0
M  V30 34324 H 3225.15 3.27514 -2.57145 0
M  V30 34325 H 3227.75 5.30487 -0.669905 0
M  V30 34326 H 3228.09 4.12377 0.570132 0
M  V30 34327 H 3228.62 3.8224 -1.1017 0
M  V30 34328 H 3225.36 5.4772 -3.60115 0
M  V30 34329 H 3224.88 5.68856 -1.90166 0
M  V30 34330 H 3226.56 6.00698 -2.40356 0
M  V30 34331 N 3226.69 0.633512 1.44307 0
M  V30 34332 C 3227.62 -0.0567992 2.33431 0
M  V30 34333 C 3228.6 -0.83236 1.48343 0
M  V30 34334 O 3229.79 -0.797767 1.77057 0
M  V30 34335 C 3226.92 -1.03738 3.31445 0
M  V30 34336 C 3225.87 -0.373287 4.26369 0
M  V30 34337 C 3225.2 -1.46394 5.14269 0
M  V30 34338 C 3226.5 0.721967 5.17286 0
M  V30 34339 H 3228.19 0.687439 2.91401 0
M  V30 34340 H 3225.74 0.332033 1.4012 0
M  V30 34341 H 3227.69 -1.52906 3.9268 0
M  V30 34342 H 3226.42 -1.81253 2.71689 0
M  V30 34343 H 3225.07 0.0977697 3.6647 0
M  V30 34344 H 3224.72 -2.23003 4.50864 0
M  V30 34345 H 3224.42 -1.02495 5.78592 0
M  V30 34346 H 3225.95 -1.95738 5.78376 0
M  V30 34347 H 3227.36 0.313281 5.72443 0
M  V30 34348 H 3225.76 1.08423 5.90224 0
M  V30 34349 H 3226.83 1.58812 4.58156 0
M  V30 34350 N 3228.17 -1.53093 0.374204 0
M  V30 34351 C 3229.1 -2.28925 -0.459936 0
M  V30 34352 C 3230.08 -1.31699 -1.07653 0
M  V30 34353 O 3231.27 -1.60579 -1.09216 0
M  V30 34354 C 3228.4 -3.0849 -1.59535 0
M  V30 34355 C 3227.35 -4.13475 -1.10556 0
M  V30 34356 C 3226.68 -4.81173 -2.33188 0
M  V30 34357 C 3227.98 -5.21975 -0.184183 0
M  V30 34358 H 3229.67 -2.98901 0.172744 0
M  V30 34359 H 3227.22 -1.43752 0.0845209 0
M  V30 34360 H 3229.17 -3.60291 -2.18559 0
M  V30 34361 H 3227.89 -2.3622 -2.25539 0
M  V30 34362 H 3226.55 -3.62632 -0.537947 0
M  V30 34363 H 3226.2 -4.05466 -2.97668 0
M  V30 34364 H 3225.9 -5.52122 -2.01084 0
M  V30 34365 H 3227.42 -5.35773 -2.92883 0
M  V30 34366 H 3228.84 -5.69227 -0.682162 0
M  V30 34367 H 3227.24 -6.00082 0.0463801 0
M  V30 34368 H 3228.31 -4.78727 0.771236 0
M  V30 34369 N 3229.65 -0.103603 -1.57259 0
M  V30 34370 C 3230.89 0.552747 -1.95745 0
M  V30 34371 C 3231.25 1.65262 -0.985204 0
M  V30 34372 O 3230.54 1.91596 -0.01261 0
M  V30 34373 C 3230.74 1.14532 -3.38551 0
M  V30 34374 C 3230.57 0.104388 -4.49579 0
M  V30 34375 C 3229.34 -0.322088 -5.04272 0
M  V30 34376 C 3231.53 -0.670712 -5.09908 0
M  V30 34377 N 3229.52 -1.3504 -5.98863 0
M  V30 34378 C 3230.89 -1.55063 -6.00296 0
M  V30 34379 C 3232.94 -0.723296 -4.92618 0
M  V30 34380 C 3231.64 -2.47852 -6.75249 0
M  V30 34381 C 3233.67 -1.63883 -5.6824 0
M  V30 34382 C 3233.03 -2.50636 -6.58302 0
M  V30 34383 H 3229.13 0.172345 -0.762772 0
M  V30 34384 H 3231.72 -0.188147 -1.93789 0
M  V30 34385 H 3229.89 1.856 -3.41185 0
M  V30 34386 H 3231.62 1.76473 -3.64197 0
M  V30 34387 H 3228.37 0.0673194 -4.73552 0
M  V30 34388 H 3228.8 -1.86302 -6.50861 0
M  V30 34389 H 3233.44 -0.0667368 -4.22747 0
M  V30 34390 H 3231.16 -3.14529 -7.44377 0
M  V30 34391 H 3234.74 -1.68476 -5.56873 0
M  V30 34392 H 3233.62 -3.20328 -7.15793 0
M  V30 34393 N 3231.13 1.56679 0.170126 0
M  V30 34394 C 3232.36 1.85928 0.900793 0
M  V30 34395 C 3232.76 0.687064 1.76284 0
M  V30 34396 O 3232.11 -0.352997 1.80277 0
M  V30 34397 C 3232.17 3.09604 1.82718 0
M  V30 34398 C 3231.83 4.42434 1.14462 0
M  V30 34399 C 3232.83 5.17397 0.509507 0
M  V30 34400 C 3230.52 4.89169 1.14102 0
M  V30 34401 C 3232.51 6.37287 -0.120088 0
M  V30 34402 C 3230.2 6.08988 0.507596 0
M  V30 34403 C 3231.19 6.82891 -0.121851 0
M  V30 34404 O 3230.88 8.00438 -0.745281 0
M  V30 34405 H 3230.61 0.621004 0.267076 0
M  V30 34406 H 3233.17 2.04656 0.174704 0
M  V30 34407 H 3231.4 2.86825 2.59362 0
M  V30 34408 H 3233.09 3.2529 2.42779 0
M  V30 34409 H 3233.85 4.82371 0.504256 0
M  V30 34410 H 3229.73 4.31585 1.62035 0
M  V30 34411 H 3233.28 6.9491 -0.611994 0
M  V30 34412 H 3229.17 6.43479 0.510435 0
M  V30 34413 H 3229.94 8.15957 -0.644649 0
M  V30 34414 N 3232.6 -0.43872 1.5137 0
M  V30 34415 C 3233.57 -1.51493 1.71996 0
M  V30 34416 C 3234.57 -1.49585 0.590005 0
M  V30 34417 O 3235.76 -1.51631 0.857532 0
M  V30 34418 C 3232.89 -2.91036 1.77513 0
M  V30 34419 H 3234.08 -1.34509 2.68043 0
M  V30 34420 H 3231.64 -0.667302 1.41339 0
M  V30 34421 H 3232.37 -3.13426 0.832754 0
M  V30 34422 H 3232.16 -2.93826 2.59632 0
M  V30 34423 H 3233.65 -3.6911 1.95314 0
M  V30 34424 N 3234.08 -1.41493 -0.694073 0
M  V30 34425 C 3235.01 -1.39392 -1.81941 0
M  V30 34426 C 3236.03 -0.295864 -1.60089 0
M  V30 34427 O 3237.22 -0.557688 -1.69564 0
M  V30 34428 C 3234.32 -1.15173 -3.18729 0
M  V30 34429 C 3233.49 -2.37047 -3.67597 0
M  V30 34430 C 3232.55 -2.08662 -4.8306 0
M  V30 34431 O 3231.57 -2.81712 -4.94598 0
M  V30 34432 N 3232.78 -1.0778 -5.70407 0
M  V30 34433 H 3235.54 -2.36384 -1.84235 0
M  V30 34434 H 3233.1 -1.36125 -0.876451 0
M  V30 34435 H 3235.09 -0.941333 -3.936 0
M  V30 34436 H 3233.66 -0.267727 -3.11451 0
M  V30 34437 H 3232.88 -2.73779 -2.83617 0
M  V30 34438 H 3234.17 -3.18246 -3.96985 0
M  V30 34439 H 3233.57 -0.473223 -5.63717 0
M  V30 34440 H 3232.13 -0.927291 -6.4517 0
M  V30 34441 N 3235.56 0.928479 -1.27346 0
M  V30 34442 C 3236.81 1.67059 -1.13022 0
M  V30 34443 C 3237.12 1.92905 0.32358 0
M  V30 34444 O 3238.33 2.65063 0.587705 0
M  V30 34445 C 3236.78 3.00884 -1.97477 0
M  V30 34446 C 3236.39 2.82739 -3.47509 0
M  V30 34447 C 3238.14 3.787 -1.91798 0
M  V30 34448 C 3236.04 4.12114 -4.24165 0
M  V30 34449 H 3234.97 0.62661 -0.419375 0
M  V30 34450 H 3237.62 1.03155 -1.5176 0
M  V30 34451 H 3236.01 3.6584 -1.51582 0
M  V30 34452 H 3237.18 2.26555 -4.0126 0
M  V30 34453 H 3235.5 2.18353 -3.54557 0
M  V30 34454 H 3238.09 4.7457 -2.46347 0
M  V30 34455 H 3238.44 4.06643 -0.891446 0
M  V30 34456 H 3238.97 3.20539 -2.35584 0
M  V30 34457 H 3235.71 3.8935 -5.27339 0
M  V30 34458 H 3235.23 4.67965 -3.75191 0
M  V30 34459 H 3236.91 4.80482 -4.33297 0
M  V30 34460 N 3237.04 1.09355 1.13486 0
M  V30 34461 C 3237.97 0.690159 2.18562 0
M  V30 34462 C 3238.98 -0.267623 1.60585 0
M  V30 34463 O 3240.17 -0.0537862 1.78419 0
M  V30 34464 C 3237.27 -0.00385298 3.389 0
M  V30 34465 C 3236.45 0.975283 4.26388 0
M  V30 34466 C 3235.5 0.314811 5.25257 0
M  V30 34467 O 3234.53 0.962218 5.61008 0
M  V30 34468 N 3235.73 -0.931357 5.7298 0
M  V30 34469 H 3238.5 1.59416 2.53785 0
M  V30 34470 H 3236.06 0.980909 1.28801 0
M  V30 34471 H 3238.05 -0.456889 4.02113 0
M  V30 34472 H 3236.62 -0.810087 3.01921 0
M  V30 34473 H 3235.84 1.6069 3.59962 0
M  V30 34474 H 3237.13 1.63844 4.81698 0
M  V30 34475 H 3236.53 -1.47691 5.46081 0
M  V30 34476 H 3235.08 -1.32772 6.38134 0
M  V30 34477 N 3238.52 -1.307 0.880644 0
M  V30 34478 C 3239.93 -1.78476 0.548024 0
M  V30 34479 C 3240.28 -1.72456 -0.935602 0
M  V30 34480 O 3239.4 -1.29877 -1.73092 0
M  V30 34481 C 3240 -3.24074 0.988007 0
M  V30 34482 C 3238.56 -3.69703 0.70687 0
M  V30 34483 C 3237.71 -2.5125 1.1734 0
M  V30 34484 H 3240.66 -1.17631 1.0653 0
M  V30 34485 H 3240.68 -3.79193 0.315147 0
M  V30 34486 H 3240.19 -3.28423 2.06784 0
M  V30 34487 H 3238.29 -3.70846 -0.361154 0
M  V30 34488 H 3238.4 -4.61368 1.29139 0
M  V30 34489 H 3236.77 -2.47704 0.592851 0
M  V30 34490 H 3237.55 -2.58339 2.26088 0
M  V30 34491 N 3240 -0.641156 -1.43969 0
M  V30 34492 C 3240.95 0.079839 -2.2786 0
M  V30 34493 C 3241.93 0.806485 -1.39229 0
M  V30 34494 O 3243.12 0.69094 -1.62957 0
M  V30 34495 C 3240.25 1.05388 -3.26723 0
M  V30 34496 C 3239.34 0.326337 -4.22843 0
M  V30 34497 N 3239.73 -0.650552 -5.01599 0
M  V30 34498 C 3238.03 0.56943 -4.4235 0
M  V30 34499 C 3238.73 -1.08131 -5.71561 0
M  V30 34500 N 3237.7 -0.418027 -5.4199 0
M  V30 34501 H 3241.5 -0.669957 -2.86162 0
M  V30 34502 H 3239.02 -0.46746 -1.55527 0
M  V30 34503 H 3241.02 1.5851 -3.85591 0
M  V30 34504 H 3239.68 1.80387 -2.69983 0
M  V30 34505 H 3240.69 -1.02879 -5.07579 0
M  V30 34506 H 3237.36 1.30152 -3.96695 0
M  V30 34507 H 3238.75 -1.88894 -6.44801 0
M  V30 34508 N 3241.47 1.52892 -0.382318 0
M  V30 34509 C 3242.72 2.02464 0.194899 0
M  V30 34510 C 3243.07 1.26406 1.45049 0
M  V30 34511 O 3242.37 0.354002 1.88301 0
M  V30 34512 C 3242.56 3.53547 0.523375 0
M  V30 34513 C 3242.39 4.44237 -0.698833 0
M  V30 34514 C 3241.16 4.90451 -1.21599 0
M  V30 34515 C 3243.36 4.8978 -1.56907 0
M  V30 34516 N 3241.34 5.65192 -2.39647 0
M  V30 34517 C 3242.71 5.63032 -2.59605 0
M  V30 34518 C 3244.77 4.7183 -1.58999 0
M  V30 34519 C 3243.47 6.20242 -3.6427 0
M  V30 34520 C 3245.5 5.29917 -2.62568 0
M  V30 34521 C 3244.86 6.03069 -3.63988 0
M  V30 34522 H 3240.96 0.781278 0.0335906 0
M  V30 34523 H 3243.54 1.8733 -0.530636 0
M  V30 34524 H 3241.71 3.68809 1.21797 0
M  V30 34525 H 3243.44 3.89825 1.08714 0
M  V30 34526 H 3240.2 4.67165 -0.778049 0
M  V30 34527 H 3240.62 6.07218 -2.99358 0
M  V30 34528 H 3245.26 4.14784 -0.819378 0
M  V30 34529 H 3242.98 6.76374 -4.42204 0
M  V30 34530 H 3246.57 5.17913 -2.65061 0
M  V30 34531 H 3245.45 6.47214 -4.42813 0
M  V30 34532 N 3242.95 0.111941 1.57202 0
M  V30 34533 C 3244.2 -0.547539 1.94126 0
M  V30 34534 C 3244.51 -1.6828 0.997055 0
M  V30 34535 O 3245.72 -2.40456 1.26067 0
M  V30 34536 C 3244.18 -1.02539 3.44984 0
M  V30 34537 C 3243.78 0.0810316 4.47927 0
M  V30 34538 C 3245.53 -1.65664 3.9084 0
M  V30 34539 C 3243.43 -0.41312 5.89955 0
M  V30 34540 H 3242.36 -0.208308 0.724654 0
M  V30 34541 H 3245.02 0.190658 1.82507 0
M  V30 34542 H 3243.4 -1.81779 3.51813 0
M  V30 34543 H 3244.57 0.857083 4.52759 0
M  V30 34544 H 3242.89 0.618507 4.11781 0
M  V30 34545 H 3245.48 -2.03737 4.94363 0
M  V30 34546 H 3245.83 -2.53234 3.30422 0
M  V30 34547 H 3246.36 -0.929776 3.86782 0
M  V30 34548 H 3243.1 0.426353 6.54112 0
M  V30 34549 H 3242.62 -1.15581 5.88559 0
M  V30 34550 H 3244.3 -0.876643 6.41034 0
M  V30 34551 N 3244.43 -1.56767 -0.161814 0
M  V30 34552 C 3245.39 -1.9625 -1.18401 0
M  V30 34553 C 3246.39 -0.847244 -1.36669 0
M  V30 34554 O 3247.58 -1.11413 -1.33913 0
M  V30 34555 C 3244.71 -2.26558 -2.54724 0
M  V30 34556 H 3245.91 -2.8773 -0.845652 0
M  V30 34557 H 3243.46 -1.50972 -0.404619 0
M  V30 34558 H 3244.2 -1.37821 -2.93557 0
M  V30 34559 H 3243.98 -3.07858 -2.42829 0
M  V30 34560 H 3245.47 -2.57993 -3.28374 0
M  V30 34561 N 3245.91 0.430686 -1.51601 0
M  V30 34562 C 3246.87 1.50579 -1.72797 0
M  V30 34563 C 3247.87 1.4927 -0.597929 0
M  V30 34564 O 3249.06 1.51174 -0.865561 0
M  V30 34565 C 3246.19 2.9009 -1.79054 0
M  V30 34566 H 3247.39 1.33086 -2.68753 0
M  V30 34567 H 3244.94 0.659797 -1.41691 0
M  V30 34568 H 3245.67 3.1298 -0.849364 0
M  V30 34569 H 3245.46 2.92445 -2.61187 0
M  V30 34570 H 3246.95 3.68069 -1.97269 0
M  V30 34571 N 3247.39 1.4186 0.686559 0
M  V30 34572 C 3248.61 1.45277 1.48018 0
M  V30 34573 C 3249.04 0.0621627 1.87997 0
M  V30 34574 O 3248.39 -0.936706 1.55227 0
M  V30 34575 C 3248.44 2.37517 2.71326 0
M  V30 34576 O 3247.55 1.83843 3.69155 0
M  V30 34577 H 3246.89 0.49269 0.445143 0
M  V30 34578 H 3249.42 1.8642 0.843129 0
M  V30 34579 H 3249.43 2.53699 3.19532 0
M  V30 34580 H 3248.1 3.38554 2.41565 0
M  V30 34581 H 3246.68 1.77157 3.28131 0
M  V30 34582 N 3248.86 -0.921712 1.27837 0
M  V30 34583 C 3250.11 -1.66458 1.13907 0
M  V30 34584 C 3250.43 -1.93074 -0.313345 0
M  V30 34585 O 3251.63 -2.65371 -0.57364 0
M  V30 34586 C 3250.09 -2.99832 1.9907 0
M  V30 34587 C 3249.7 -2.80893 3.49003 0
M  V30 34588 C 3251.44 -3.77677 1.93804 0
M  V30 34589 C 3249.35 -4.09859 4.26344 0
M  V30 34590 H 3248.28 -0.624377 0.422692 0
M  V30 34591 H 3250.93 -1.02349 1.52305 0
M  V30 34592 H 3249.31 -3.65031 1.5352 0
M  V30 34593 H 3250.48 -2.24424 4.02456 0
M  V30 34594 H 3248.8 -2.16469 3.5571 0
M  V30 34595 H 3251.4 -4.73257 2.48861 0
M  V30 34596 H 3251.74 -4.06165 0.912999 0
M  V30 34597 H 3252.27 -3.19285 2.3728 0
M  V30 34598 H 3249.01 -3.86548 5.29397 0
M  V30 34599 H 3248.53 -4.65969 3.77668 0
M  V30 34600 H 3250.21 -4.78177 4.35839 0
M  V30 34601 N 3250.34 -1.09956 -1.12905 0
M  V30 34602 C 3251.59 -0.833794 -1.83659 0
M  V30 34603 C 3251.9 0.642765 -1.84737 0
M  V30 34604 O 3253.11 1.02426 -2.51438 0
M  V30 34605 C 3251.57 -1.44174 -3.2976 0
M  V30 34606 C 3251.17 -2.95123 -3.37055 0
M  V30 34607 C 3252.92 -1.25516 -4.05519 0
M  V30 34608 C 3250.82 -3.48977 -4.77461 0
M  V30 34609 H 3249.75 -0.308254 -0.68811 0
M  V30 34610 H 3252.41 -1.32294 -1.27164 0
M  V30 34611 H 3250.79 -0.880283 -3.86092 0
M  V30 34612 H 3251.96 -3.57542 -2.90689 0
M  V30 34613 H 3250.28 -3.12879 -2.74765 0
M  V30 34614 H 3252.87 -1.632 -5.09186 0
M  V30 34615 H 3253.22 -0.196281 -4.15837 0
M  V30 34616 H 3253.75 -1.78442 -3.55533 0
M  V30 34617 H 3250.49 -4.54509 -4.72336 0
M  V30 34618 H 3250.01 -2.91324 -5.243 0
M  V30 34619 H 3251.69 -3.46505 -5.46391 0
M  V30 34620 N 3251.82 1.30231 -0.887563 0
M  V30 34621 C 3252.75 2.30509 -0.372521 0
M  V30 34622 C 3253.73 1.61099 0.546008 0
M  V30 34623 O 3254.92 1.8869 0.459312 0
M  V30 34624 C 3252.05 3.44853 0.411544 0
M  V30 34625 C 3251 4.25979 -0.415458 0
M  V30 34626 C 3250.33 5.324 0.495369 0
M  V30 34627 C 3251.63 4.95254 -1.65895 0
M  V30 34628 H 3253.32 2.73838 -1.2105 0
M  V30 34629 H 3250.87 1.31647 -0.583521 0
M  V30 34630 H 3252.82 4.14071 0.782511 0
M  V30 34631 H 3251.54 3.00336 1.28319 0
M  V30 34632 H 3250.2 3.58452 -0.768597 0
M  V30 34633 H 3249.85 4.8413 1.3648 0
M  V30 34634 H 3249.55 5.87575 -0.0541917 0
M  V30 34635 H 3251.07 6.04473 0.862795 0
M  V30 34636 H 3252.49 5.56974 -1.35842 0
M  V30 34637 H 3250.88 5.60305 -2.14891 0
M  V30 34638 H 3251.95 4.21233 -2.40189 0
M  V30 34639 N 3253.3 0.648782 1.43627 0
M  V30 34640 C 3254.21 -0.0462624 2.34554 0
M  V30 34641 C 3255.22 -0.816925 1.53631 0
M  V30 34642 O 3256.4 -0.76518 1.86298 0
M  V30 34643 C 3253.47 -1.00375 3.31852 0
M  V30 34644 C 3252.53 -0.230513 4.28681 0
M  V30 34645 C 3251.76 -1.14239 5.2133 0
M  V30 34646 O 3251.98 -2.38157 5.18302 0
M  V30 34647 O 3250.92 -0.617191 5.98727 0
M  V30 34648 H 3254.74 0.70206 2.95474 0
M  V30 34649 H 3252.33 0.408967 1.43693 0
M  V30 34650 H 3254.21 -1.55414 3.91694 0
M  V30 34651 H 3252.88 -1.73238 2.73442 0
M  V30 34652 H 3251.79 0.363347 3.72331 0
M  V30 34653 H 3253.12 0.458454 4.9006 0
M  V30 34654 N 3254.78 -1.52688 0.390421 0
M  V30 34655 C 3256.02 -2.01593 -0.19141 0
M  V30 34656 C 3256.35 -1.27684 -1.46721 0
M  V30 34657 O 3255.61 -0.366006 -1.92247 0
M  V30 34658 C 3255.91 -3.5382 -0.504618 0
M  V30 34659 C 3255.57 -4.45747 0.679769 0
M  V30 34660 C 3254.23 -4.70595 1.00469 0
M  V30 34661 C 3256.59 -4.9998 1.47207 0
M  V30 34662 C 3253.91 -5.46925 2.12343 0
M  V30 34663 C 3256.27 -5.77534 2.58143 0
M  V30 34664 C 3254.93 -6.0066 2.91142 0
M  V30 34665 H 3254.2 -0.737682 -0.0700418 0
M  V30 34666 H 3256.85 -1.84077 0.527998 0
M  V30 34667 H 3255.15 -3.69415 -1.30536 0
M  V30 34668 H 3256.85 -3.89155 -0.967455 0
M  V30 34669 H 3253.44 -4.26571 0.416521 0
M  V30 34670 H 3257.62 -4.80707 1.23429 0
M  V30 34671 H 3252.88 -5.63057 2.38279 0
M  V30 34672 H 3257.05 -6.18558 3.19936 0
M  V30 34673 H 3254.68 -6.59589 3.77949 0
M  V30 34674 N 3256.25 -0.120276 -1.5714 0
M  V30 34675 C 3257.5 0.537415 -1.95239 0
M  V30 34676 C 3257.83 1.66605 -1.00364 0
M  V30 34677 O 3257.08 1.9568 -0.027765 0
M  V30 34678 C 3257.38 1.10935 -3.39747 0
M  V30 34679 C 3257.05 0.101932 -4.50785 0
M  V30 34680 C 3255.71 -0.175078 -4.80881 0
M  V30 34681 C 3258.06 -0.584553 -5.17912 0
M  V30 34682 C 3255.39 -1.14484 -5.75422 0
M  V30 34683 C 3257.74 -1.54295 -6.13495 0
M  V30 34684 C 3256.41 -1.82794 -6.41983 0
M  V30 34685 H 3255.68 0.196654 -0.714429 0
M  V30 34686 H 3258.32 -0.201452 -1.90437 0
M  V30 34687 H 3256.63 1.925 -3.41249 0
M  V30 34688 H 3258.33 1.62636 -3.66539 0
M  V30 34689 H 3254.92 0.328022 -4.27343 0
M  V30 34690 H 3259.1 -0.383712 -4.94814 0
M  V30 34691 H 3254.36 -1.37237 -5.95799 0
M  V30 34692 H 3258.53 -2.08056 -6.64594 0
M  V30 34693 H 3256.16 -2.58092 -7.15047 0
M  V30 34694 N 3257.73 1.56851 0.153498 0
M  V30 34695 C 3258.66 2.00807 1.19159 0
M  V30 34696 C 3259.64 0.886544 1.4517 0
M  V30 34697 O 3260.83 1.1539 1.56201 0
M  V30 34698 C 3257.96 2.38315 2.52632 0
M  V30 34699 C 3256.91 3.53593 2.41155 0
M  V30 34700 C 3256.24 3.76896 3.79281 0
M  V30 34701 C 3257.54 4.86471 1.90114 0
M  V30 34702 H 3259.23 2.87777 0.82612 0
M  V30 34703 H 3256.78 1.38449 0.395948 0
M  V30 34704 H 3258.73 2.67666 3.25474 0
M  V30 34705 H 3257.46 1.48275 2.91002 0
M  V30 34706 H 3256.11 3.24398 1.70767 0
M  V30 34707 H 3255.76 2.84117 4.15074 0
M  V30 34708 H 3255.46 4.54471 3.72464 0
M  V30 34709 H 3256.99 4.08665 4.5368 0
M  V30 34710 H 3258.4 5.14581 2.52743 0
M  V30 34711 H 3256.8 5.67807 1.94204 0
M  V30 34712 H 3257.87 4.77277 0.856433 0
M  V30 34713 N 3259.21 -0.42264 1.51827 0
M  V30 34714 C 3260.46 -1.16783 1.64452 0
M  V30 34715 C 3260.77 -1.91995 0.373826 0
M  V30 34716 O 3261.98 -2.68832 0.379668 0
M  V30 34717 C 3260.43 -2.12468 2.90492 0
M  V30 34718 C 3260.04 -1.42836 4.2462 0
M  V30 34719 C 3261.79 -2.87329 3.12477 0
M  V30 34720 C 3259.69 -2.3709 5.41795 0
M  V30 34721 H 3258.62 -0.439631 0.612569 0
M  V30 34722 H 3261.27 -0.433503 1.78306 0
M  V30 34723 H 3259.66 -2.89397 2.70306 0
M  V30 34724 H 3260.83 -0.71364 4.5524 0
M  V30 34725 H 3259.15 -0.800698 4.08629 0
M  V30 34726 H 3261.74 -3.57966 3.97196 0
M  V30 34727 H 3262.09 -3.49514 2.26154 0
M  V30 34728 H 3262.62 -2.17503 3.33072 0
M  V30 34729 H 3259.36 -1.79573 6.30424 0
M  V30 34730 H 3258.88 -3.06574 5.15531 0
M  V30 34731 H 3260.56 -2.97907 5.74335 0
M  V30 34732 N 3260.69 -1.42222 -0.679027 0
M  V30 34733 C 3261.93 -1.42677 -1.44122 0
M  V30 34734 C 3262.27 -0.0414721 -1.94156 0
M  V30 34735 O 3261.54 0.93358 -1.7063 0
M  V30 34736 C 3261.83 -2.44761 -2.64129 0
M  V30 34737 C 3261.68 -3.92464 -2.19755 0
M  V30 34738 C 3263 -2.43887 -3.66343 0
M  V30 34739 H 3260.12 -0.51955 -0.52272 0
M  V30 34740 H 3262.76 -1.73608 -0.772036 0
M  V30 34741 H 3260.91 -2.18515 -3.21222 0
M  V30 34742 H 3262.58 -4.29674 -1.67862 0
M  V30 34743 H 3260.82 -4.06534 -1.5137 0
M  V30 34744 H 3261.49 -4.59464 -3.05936 0
M  V30 34745 H 3263.97 -2.67217 -3.18958 0
M  V30 34746 H 3262.85 -3.17301 -4.47897 0
M  V30 34747 H 3263.11 -1.46333 -4.1718 0
M  V30 34748 N 3262.17 0.91492 -1.28324 0
M  V30 34749 C 3263.1 2.03396 -1.14684 0
M  V30 34750 C 3264.08 1.70041 -0.0449238 0
M  V30 34751 O 3265.26 1.9293 -0.221706 0
M  V30 34752 C 3262.39 3.37802 -0.806682 0
M  V30 34753 C 3261.35 3.85314 -1.86325 0
M  V30 34754 C 3260.67 5.16672 -1.37675 0
M  V30 34755 C 3261.97 4.07302 -3.2696 0
M  V30 34756 H 3263.67 2.15065 -2.08297 0
M  V30 34757 H 3261.21 1.03338 -1.00286 0
M  V30 34758 H 3263.17 4.15578 -0.698033 0
M  V30 34759 H 3261.89 3.26182 0.165146 0
M  V30 34760 H 3260.55 3.09741 -1.96102 0
M  V30 34761 H 3260.2 5.01454 -0.394015 0
M  V30 34762 H 3259.9 5.49432 -2.08323 0
M  V30 34763 H 3261.42 5.97005 -1.28129 0
M  V30 34764 H 3262.83 4.75607 -3.2011 0
M  V30 34765 H 3261.23 4.51391 -3.95432 0
M  V30 34766 H 3262.3 3.12152 -3.71065 0
M  V30 34767 N 3263.64 1.10553 1.1232 0
M  V30 34768 C 3264.57 0.777525 2.20174 0
M  V30 34769 C 3265.56 -0.25004 1.68252 0
M  V30 34770 O 3266.74 -0.11554 1.93856 0
M  V30 34771 C 3263.87 0.209883 3.46665 0
M  V30 34772 C 3262.82 1.16827 4.11747 0
M  V30 34773 C 3262.15 0.461777 5.32702 0
M  V30 34774 C 3263.45 2.51535 4.57742 0
M  V30 34775 H 3265.14 1.67933 2.47869 0
M  V30 34776 H 3262.69 0.808884 1.19135 0
M  V30 34777 H 3264.64 -0.0317327 4.21388 0
M  V30 34778 H 3263.37 -0.72717 3.18402 0
M  V30 34779 H 3262.03 1.39536 3.39006 0
M  V30 34780 H 3261.67 -0.479787 5.00707 0
M  V30 34781 H 3261.37 1.1009 5.77195 0
M  V30 34782 H 3262.9 0.228736 6.10171 0
M  V30 34783 H 3264.31 2.32968 5.23831 0
M  V30 34784 H 3262.71 3.11344 5.13016 0
M  V30 34785 H 3263.78 3.11442 3.71661 0
M  V30 34786 N 3265.12 -1.29758 0.894457 0
M  V30 34787 C 3266.37 -1.95049 0.513707 0
M  V30 34788 C 3266.68 -1.71328 -0.943714 0
M  V30 34789 O 3267.89 -2.3068 -1.43174 0
M  V30 34790 C 3266.35 -3.49281 0.867813 0
M  V30 34791 C 3265.95 -3.81808 2.34365 0
M  V30 34792 C 3267.7 -4.20834 0.556719 0
M  V30 34793 C 3265.61 -5.29261 2.63889 0
M  V30 34794 H 3264.54 -0.730086 0.188387 0
M  V30 34795 H 3267.19 -1.47564 1.09073 0
M  V30 34796 H 3265.57 -3.9539 0.21977 0
M  V30 34797 H 3266.74 -3.46576 3.0368 0
M  V30 34798 H 3265.06 -3.23381 2.62323 0
M  V30 34799 H 3267.65 -5.29354 0.754216 0
M  V30 34800 H 3268 -4.13232 -0.504454 0
M  V30 34801 H 3268.53 -3.80439 1.16237 0
M  V30 34802 H 3265.27 -5.41922 3.68784 0
M  V30 34803 H 3264.79 -5.65758 1.99192 0
M  V30 34804 H 3266.47 -5.96798 2.49882 0
M  V30 34805 N 3266.6 -0.65639 -1.4328 0
M  V30 34806 C 3268.01 -0.250507 -1.85012 0
M  V30 34807 C 3268.36 1.20358 -1.54946 0
M  V30 34808 O 3267.49 1.91908 -1.00002 0
M  V30 34809 C 3268.08 -0.447874 -3.35827 0
M  V30 34810 C 3266.64 -0.0962812 -3.76277 0
M  V30 34811 C 3265.79 -0.749215 -2.66987 0
M  V30 34812 H 3268.74 -0.859843 -1.33388 0
M  V30 34813 H 3268.76 0.30566 -3.7927 0
M  V30 34814 H 3268.27 -1.50626 -3.57678 0
M  V30 34815 H 3266.37 0.959386 -3.60037 0
M  V30 34816 H 3266.49 -0.523959 -4.76226 0
M  V30 34817 H 3264.85 -0.182164 -2.54048 0
M  V30 34818 H 3265.63 -1.81069 -2.91665 0
M  V30 34819 N 3268.08 1.52478 -0.398513 0
M  V30 34820 C 3268.99 2.3045 0.439287 0
M  V30 34821 C 3270.01 1.3774 1.06319 0
M  V30 34822 O 3271.18 1.70812 1.06701 0
M  V30 34823 C 3268.25 3.10297 1.5465 0
M  V30 34824 C 3267.31 4.1873 0.94675 0
M  V30 34825 C 3266.54 4.9476 2.0012 0
M  V30 34826 O 3266.76 4.70977 3.21771 0
M  V30 34827 O 3265.7 5.79875 1.61335 0
M  V30 34828 H 3269.52 3.03066 -0.196171 0
M  V30 34829 H 3267.11 1.48519 -0.161987 0
M  V30 34830 H 3268.99 3.60053 2.18952 0
M  V30 34831 H 3267.67 2.40486 2.16675 0
M  V30 34832 H 3266.57 3.73148 0.266736 0
M  V30 34833 H 3267.91 4.90803 0.370578 0
M  V30 34834 N 3269.56 0.128608 1.57074 0
M  V30 34835 C 3270.97 -0.395227 1.82469 0
M  V30 34836 C 3271.32 -1.65971 1.04633 0
M  V30 34837 O 3270.44 -2.14503 0.285873 0
M  V30 34838 C 3271.04 -0.723831 3.30978 0
M  V30 34839 C 3269.6 -1.19226 3.57018 0
M  V30 34840 C 3268.75 -0.205858 2.76535 0
M  V30 34841 H 3271.7 0.353598 1.54711 0
M  V30 34842 H 3271.72 -1.58033 3.4613 0
M  V30 34843 H 3271.23 0.196663 3.87601 0
M  V30 34844 H 3269.33 -2.12932 3.05762 0
M  V30 34845 H 3269.44 -1.13094 4.6556 0
M  V30 34846 H 3267.81 -0.694829 2.45039 0
M  V30 34847 H 3268.59 0.707902 3.35922 0
M  V30 34848 N 3271.04 -1.5693 -0.145178 0
M  V30 34849 C 3271.95 -2.0167 -1.19861 0
M  V30 34850 C 3272.96 -0.932428 -1.46907 0
M  V30 34851 O 3274.14 -1.24204 -1.58541 0
M  V30 34852 C 3271.2 -2.38987 -2.5117 0
M  V30 34853 C 3270.26 -3.6137 -2.31754 0
M  V30 34854 C 3269.5 -3.96898 -3.56802 0
M  V30 34855 O 3269.72 -3.33067 -4.63058 0
M  V30 34856 O 3268.65 -4.90136 -3.49357 0
M  V30 34857 H 3272.48 -2.91598 -0.84877 0
M  V30 34858 H 3270.06 -1.45145 -0.354037 0
M  V30 34859 H 3271.95 -2.63841 -3.28582 0
M  V30 34860 H 3270.62 -1.52212 -2.8568 0
M  V30 34861 H 3269.53 -3.41701 -1.52287 0
M  V30 34862 H 3270.86 -4.48768 -2.02159 0
M  V30 34863 N 3272.51 0.414582 -1.52049 0
M  V30 34864 C 3273.46 1.50477 -1.75001 0
M  V30 34865 C 3274.43 1.55181 -0.592278 0
M  V30 34866 O 3275.62 1.71838 -0.829234 0
M  V30 34867 C 3272.76 2.8798 -1.90162 0
M  V30 34868 C 3271.87 2.92627 -3.17794 0
M  V30 34869 C 3271 4.21395 -3.23419 0
M  V30 34870 C 3270.04 4.19996 -4.45275 0
M  V30 34871 N 3269.18 5.40326 -4.48321 0
M  V30 34872 H 3274.02 1.30208 -2.68048 0
M  V30 34873 H 3271.56 0.632131 -1.32825 0
M  V30 34874 H 3273.51 3.67794 -1.96935 0
M  V30 34875 H 3272.14 3.06756 -1.00501 0
M  V30 34876 H 3271.2 2.05338 -3.2022 0
M  V30 34877 H 3272.51 2.87458 -4.07639 0
M  V30 34878 H 3271.66 5.09598 -3.29233 0
M  V30 34879 H 3270.4 4.29252 -2.31503 0
M  V30 34880 H 3269.41 3.30184 -4.39612 0
M  V30 34881 H 3270.63 4.13784 -5.38479 0
M  V30 34882 H 3268.58 5.48862 -3.59286 0
M  V30 34883 H 3268.49 5.37129 -5.32004 0
M  V30 34884 H 3269.76 6.30498 -4.58359 0
M  V30 34885 N 3273.99 1.4258 0.671475 0
M  V30 34886 C 3274.92 1.42269 1.797 0
M  V30 34887 C 3275.94 0.321296 1.59598 0
M  V30 34888 O 3277.13 0.584594 1.68656 0
M  V30 34889 C 3274.23 1.20229 3.16857 0
M  V30 34890 C 3273.4 2.42865 3.63779 0
M  V30 34891 C 3272.46 2.16321 4.79679 0
M  V30 34892 O 3271.48 2.89545 4.90053 0
M  V30 34893 N 3272.69 1.16841 5.6862 0
M  V30 34894 H 3275.45 2.39285 1.80451 0
M  V30 34895 H 3273.01 1.37502 0.854684 0
M  V30 34896 H 3275 1.00383 3.92053 0
M  V30 34897 H 3273.57 0.317243 3.10986 0
M  V30 34898 H 3272.79 2.78257 2.79226 0
M  V30 34899 H 3274.08 3.24521 3.91872 0
M  V30 34900 H 3273.48 0.562845 5.62893 0
M  V30 34901 H 3272.04 1.02981 6.43613 0
M  V30 34902 N 3275.47 -0.908102 1.28807 0
M  V30 34903 C 3276.89 -1.18747 1.06636 0
M  V30 34904 C 3277.09 -2.00624 -0.187694 0
M  V30 34905 O 3276.14 -2.36378 -0.887799 0
M  V30 34906 C 3277.45 -1.91657 2.31707 0
M  V30 34907 C 3279 -2.04517 2.36942 0
M  V30 34908 C 3279.48 -2.80836 3.61794 0
M  V30 34909 N 3280.97 -2.88395 3.62467 0
M  V30 34910 C 3281.7 -3.47962 4.55752 0
M  V30 34911 N 3281.2 -4.08764 5.5936 0
M  V30 34912 N 3282.99 -3.45556 4.43337 0
M  V30 34913 H 3275.14 -0.361603 2.09299 0
M  V30 34914 H 3277.41 -0.222652 0.921483 0
M  V30 34915 H 3277.11 -1.38925 3.23098 0
M  V30 34916 H 3276.99 -2.92178 2.38561 0
M  V30 34917 H 3279.37 -2.56428 1.46044 0
M  V30 34918 H 3279.45 -1.03155 2.34079 0
M  V30 34919 H 3279.1 -2.29604 4.53039 0
M  V30 34920 H 3279.03 -3.82526 3.61914 0
M  V30 34921 H 3281.52 -2.45203 2.87548 0
M  V30 34922 H 3281.83 -4.52213 6.26676 0
M  V30 34923 H 3280.18 -4.07251 5.6318 0
M  V30 34924 H 3283.37 -2.97269 3.61592 0
M  V30 34925 H 3283.54 -3.91686 5.16223 0
M  V30 34926 N 3276.95 -1.11147 -1.11732 0
M  V30 34927 C 3278.18 -0.880844 -1.87213 0
M  V30 34928 C 3278.59 0.569163 -1.80017 0
M  V30 34929 O 3277.95 1.39281 -1.17928 0
M  V30 34930 C 3278 -1.33004 -3.36143 0
M  V30 34931 O 3277.72 -2.72319 -3.43182 0
M  V30 34932 C 3279.22 -1.13438 -4.2854 0
M  V30 34933 H 3276.44 -0.315656 -0.592117 0
M  V30 34934 H 3278.98 -1.47802 -1.41332 0
M  V30 34935 H 3277.14 -0.776375 -3.79541 0
M  V30 34936 H 3277.55 -2.91712 -4.35895 0
M  V30 34937 H 3279.03 -1.49773 -5.31293 0
M  V30 34938 H 3279.5 -0.0736631 -4.39138 0
M  V30 34939 H 3280.11 -1.67487 -3.90932 0
M  V30 34940 N 3278.43 1.29282 -0.901326 0
M  V30 34941 C 3279.84 1.77581 -0.576349 0
M  V30 34942 C 3280.19 1.73922 0.908048 0
M  V30 34943 O 3279.31 1.32614 1.71004 0
M  V30 34944 C 3279.91 3.22461 -1.03944 0
M  V30 34945 C 3278.47 3.68532 -0.765597 0
M  V30 34946 C 3277.61 2.49352 -1.21322 0
M  V30 34947 H 3280.56 1.15921 -1.08388 0
M  V30 34948 H 3280.59 3.78643 -0.375433 0
M  V30 34949 H 3280.1 3.25092 -2.11983 0
M  V30 34950 H 3278.2 3.71373 0.30211 0
M  V30 34951 H 3278.31 4.59255 -1.36462 0
M  V30 34952 H 3276.68 2.4673 -0.632184 0
M  V30 34953 H 3277.46 2.5471 -2.30169 0
M  V30 34954 N 3279.9 0.663979 1.4293 0
M  V30 34955 C 3280.84 -0.0598475 2.29122 0
M  V30 34956 C 3281.85 -0.776379 1.43095 0
M  V30 34957 O 3283.04 -0.63234 1.66924 0
M  V30 34958 C 3280.14 -1.10816 3.2027 0
M  V30 34959 C 3279.31 -0.467623 4.34893 0
M  V30 34960 C 3278.37 -1.41426 5.06838 0
M  V30 34961 O 3277.4 -0.918719 5.61737 0
M  V30 34962 N 3278.6 -2.74792 5.11341 0
M  V30 34963 H 3281.36 0.679996 2.91884 0
M  V30 34964 H 3278.92 0.50757 1.53738 0
M  V30 34965 H 3280.92 -1.74248 3.65267 0
M  V30 34966 H 3279.49 -1.74986 2.59034 0
M  V30 34967 H 3278.71 0.345999 3.92679 0
M  V30 34968 H 3279.99 -0.0209343 5.08796 0
M  V30 34969 H 3279.39 -3.17602 4.6813 0
M  V30 34970 H 3277.95 -3.33499 5.60019 0
M  V30 34971 N 3281.38 -1.52265 0.406593 0
M  V30 34972 C 3282.66 -1.94261 -0.228443 0
M  V30 34973 C 3283.04 -1.3433 -1.62845 0
M  V30 34974 O 3282.39 -0.518121 -2.22548 0
M  V30 34975 C 3282.6 -3.48192 -0.23734 0
M  V30 34976 C 3283.94 -4.22123 -0.457922 0
M  V30 34977 O 3284.97 -3.54788 -0.316806 0
M  V30 34978 O 3283.83 -5.41523 -0.735851 0
M  V30 34979 H 3280.92 -0.813925 -0.146477 0
M  V30 34980 H 3283.47 -1.6328 0.462353 0
M  V30 34981 H 3282.24 -3.84188 0.742624 0
M  V30 34982 H 3281.86 -3.85527 -0.972341 0
M  V30 34983 N 3282.86 -0.136936 -1.57004 0
M  V30 34984 C 3283.81 0.823746 -2.17525 0
M  V30 34985 C 3284.8 1.26256 -1.12942 0
M  V30 34986 O 3286.01 1.23221 -1.31212 0
M  V30 34987 H 3282.38 0.283815 -0.696386 0
M  V30 34988 H 3284.35 0.289 -2.96997 0
M  V30 34989 C 3283.1 2.05688 -2.80335 0
M  V30 34990 H 3282.43 1.72819 -3.60519 0
M  V30 34991 H 3283.87 2.70872 -3.26197 0
M  V30 34992 C 3282.33 2.85834 -1.78327 0
M  V30 34993 O 3282.86 3.81836 -1.24757 0
M  V30 34994 N 3281.06 2.50172 -1.47858 0
M  V30 34995 H 3280.61 1.7217 -1.91613 0
M  V30 34996 H 3280.57 3.04091 -0.798518 0
M  V30 34997 N 3284.34 1.57005 0.136853 0
M  V30 34998 C 3285.27 1.95644 1.19398 0
M  V30 34999 C 3286.28 0.853502 1.38633 0
M  V30 35000 O 3287.47 1.13188 1.38025 0
M  V30 35001 C 3284.57 2.22406 2.55712 0
M  V30 35002 C 3283.75 3.53703 2.57319 0
M  V30 35003 C 3282.8 3.68886 3.75246 0
M  V30 35004 O 3281.83 4.41179 3.59652 0
M  V30 35005 N 3283.03 3.0631 4.93107 0
M  V30 35006 H 3285.8 2.86932 0.865454 0
M  V30 35007 H 3283.36 1.58577 0.326318 0
M  V30 35008 H 3285.35 2.29795 3.33131 0
M  V30 35009 H 3283.92 1.37334 2.80817 0
M  V30 35010 H 3283.14 3.57663 1.65743 0
M  V30 35011 H 3284.43 4.40036 2.55433 0
M  V30 35012 H 3283.83 2.47511 5.08679 0
M  V30 35013 H 3282.38 3.19246 5.68265 0
M  V30 35014 N 3285.82 -0.406513 1.52267 0
M  V30 35015 C 3286.75 -1.50226 1.78758 0
M  V30 35016 C 3287.73 -1.57654 0.63868 0
M  V30 35017 O 3288.91 -1.72886 0.884535 0
M  V30 35018 C 3286.04 -2.88023 1.94062 0
M  V30 35019 C 3285 -2.95444 3.09672 0
M  V30 35020 C 3284.32 -4.3552 3.10204 0
M  V30 35021 C 3285.62 -2.66689 4.49081 0
M  V30 35022 H 3287.32 -1.28308 2.70513 0
M  V30 35023 H 3284.86 -0.615813 1.30168 0
M  V30 35024 H 3286.82 -3.64667 2.11177 0
M  V30 35025 H 3285.54 -3.1124 0.98981 0
M  V30 35026 H 3284.2 -2.21245 2.92312 0
M  V30 35027 H 3283.85 -4.55751 2.12839 0
M  V30 35028 H 3283.55 -4.41409 3.87855 0
M  V30 35029 H 3285.07 -5.14095 3.29452 0
M  V30 35030 H 3286.48 -3.33056 4.66633 0
M  V30 35031 H 3284.88 -2.83951 5.2867 0
M  V30 35032 H 3285.95 -1.62114 4.56998 0
M  V30 35033 N 3287.29 -1.42934 -0.663904 0
M  V30 35034 C 3288.52 -1.47403 -1.45189 0
M  V30 35035 C 3288.94 -0.0886345 -1.88592 0
M  V30 35036 O 3288.29 0.898934 -1.58825 0
M  V30 35037 C 3288.35 -2.41064 -2.69389 0
M  V30 35038 O 3288.07 -3.74214 -2.27805 0
M  V30 35039 C 3289.57 -2.54665 -3.62851 0
M  V30 35040 H 3286.79 -0.500981 -0.446385 0
M  V30 35041 H 3289.33 -1.87565 -0.814843 0
M  V30 35042 H 3287.49 -2.04126 -3.29259 0
M  V30 35043 H 3287.9 -4.24479 -3.08087 0
M  V30 35044 H 3289.37 -3.24299 -4.46693 0
M  V30 35045 H 3289.85 -1.58807 -4.09484 0
M  V30 35046 H 3290.46 -2.9237 -3.08869 0
M  V30 35047 N 3288.77 0.901258 -1.29287 0
M  V30 35048 C 3290 1.68265 -1.19877 0
M  V30 35049 C 3290.41 1.87628 0.243354 0
M  V30 35050 O 3289.75 1.41211 1.17495 0
M  V30 35051 C 3289.82 3.08896 -1.83912 0
M  V30 35052 C 3289.48 3.12769 -3.33203 0
M  V30 35053 C 3290.48 2.93032 -4.29451 0
M  V30 35054 C 3288.16 3.34885 -3.74376 0
M  V30 35055 C 3290.16 2.95342 -5.64847 0
M  V30 35056 C 3287.84 3.36825 -5.09894 0
M  V30 35057 C 3288.84 3.17076 -6.0494 0
M  V30 35058 O 3288.53 3.18802 -7.37984 0
M  V30 35059 H 3288.26 0.532364 -0.41661 0
M  V30 35060 H 3290.81 1.13555 -1.71156 0
M  V30 35061 H 3289.04 3.65201 -1.27142 0
M  V30 35062 H 3290.73 3.69115 -1.68846 0
M  V30 35063 H 3291.5 2.7576 -3.98975 0
M  V30 35064 H 3287.38 3.49298 -3.00852 0
M  V30 35065 H 3290.92 2.79845 -6.39009 0
M  V30 35066 H 3286.82 3.53629 -5.40016 0
M  V30 35067 H 3287.59 3.35079 -7.46769 0
M  V30 35068 N 3290.25 1.11738 1.11141 0
M  V30 35069 C 3291.5 0.869445 1.83217 0
M  V30 35070 C 3291.83 -0.603369 1.84589 0
M  V30 35071 O 3291.1 -1.44563 1.30122 0
M  V30 35072 C 3291.39 1.43564 3.30244 0
M  V30 35073 C 3291.24 2.9763 3.37248 0
M  V30 35074 C 3292.56 1.08915 4.2641 0
M  V30 35075 H 3289.68 0.317298 0.6652 0
M  V30 35076 H 3292.32 1.38278 1.30304 0
M  V30 35077 H 3290.47 0.999044 3.75435 0
M  V30 35078 H 3292.14 3.49916 3.00593 0
M  V30 35079 H 3290.39 3.33537 2.77373 0
M  V30 35080 H 3291.06 3.32336 4.40746 0
M  V30 35081 H 3293.53 1.46611 3.89416 0
M  V30 35082 H 3292.41 1.51204 5.27663 0
M  V30 35083 H 3292.67 0.000336719 4.421 0
M  V30 35084 N 3291.73 -1.28802 0.90817 0
M  V30 35085 C 3292.98 -1.94493 0.534366 0
M  V30 35086 C 3293.29 -1.7232 -0.925489 0
M  V30 35087 O 3294.5 -2.32186 -1.4072 0
M  V30 35088 C 3292.95 -3.48341 0.90481 0
M  V30 35089 C 3292.56 -3.79301 2.38401 0
M  V30 35090 C 3294.3 -4.20219 0.601323 0
M  V30 35091 C 3292.21 -5.26432 2.69487 0
M  V30 35092 H 3291.14 -0.728047 0.19612 0
M  V30 35093 H 3293.79 -1.46399 1.10632 0
M  V30 35094 H 3292.17 -3.95134 0.261694 0
M  V30 35095 H 3293.35 -3.43336 3.07339 0
M  V30 35096 H 3291.66 -3.20581 2.65738 0
M  V30 35097 H 3294.26 -5.28524 0.810318 0
M  V30 35098 H 3294.6 -4.13744 -0.460597 0
M  V30 35099 H 3295.14 -3.79185 1.20266 0
M  V30 35100 H 3291.88 -5.3798 3.74511 0
M  V30 35101 H 3291.4 -5.63614 2.05181 0
M  V30 35102 H 3293.07 -5.94114 2.56198 0
M  V30 35103 N 3293.21 -0.67155 -1.42576 0
M  V30 35104 C 3294.46 -0.189698 -2.00806 0
M  V30 35105 C 3294.77 1.20975 -1.53702 0
M  V30 35106 O 3295.97 1.7878 -2.04328 0
M  V30 35107 C 3294.43 -0.28829 -3.58743 0
M  V30 35108 C 3294.04 -1.69159 -4.14836 0
M  V30 35109 C 3295.78 0.135016 -4.24285 0
M  V30 35110 C 3293.69 -1.74312 -5.65128 0
M  V30 35111 H 3292.62 -0.0671592 -0.751003 0
M  V30 35112 H 3295.27 -0.836259 -1.63337 0
M  V30 35113 H 3293.65 0.426106 -3.93701 0
M  V30 35114 H 3294.83 -2.43281 -3.91345 0
M  V30 35115 H 3293.14 -2.06246 -3.61734 0
M  V30 35116 H 3295.74 0.116615 -5.34573 0
M  V30 35117 H 3296.08 1.1697 -3.99529 0
M  V30 35118 H 3296.61 -0.52826 -3.94277 0
M  V30 35119 H 3293.35 -2.75752 -5.94677 0
M  V30 35120 H 3292.87 -1.04542 -5.90619 0
M  V30 35121 H 3294.55 -1.4951 -6.29489 0
M  V30 35122 N 3294.68 1.52047 -0.414663 0
M  V30 35123 C 3295.65 2.25749 0.396245 0
M  V30 35124 C 3296.65 1.28325 0.968981 0
M  V30 35125 O 3297.84 1.52223 0.846989 0
M  V30 35126 C 3294.97 3.03198 1.55832 0
M  V30 35127 H 3296.16 2.98861 -0.249364 0
M  V30 35128 H 3293.72 1.55402 -0.167303 0
M  V30 35129 H 3294.45 2.34448 2.24064 0
M  V30 35130 H 3294.24 3.74731 1.15407 0
M  V30 35131 H 3295.73 3.59087 2.13181 0
M  V30 35132 N 3296.16 0.145261 1.56929 0
M  V30 35133 C 3297.41 -0.506238 1.95244 0
M  V30 35134 C 3297.72 -1.66127 1.03253 0
M  V30 35135 O 3298.93 -2.37728 1.31139 0
M  V30 35136 C 3297.39 -0.951981 3.47081 0
M  V30 35137 C 3296.99 0.176025 4.47654 0
M  V30 35138 C 3298.74 -1.57337 3.94266 0
M  V30 35139 C 3296.65 -0.287889 5.90699 0
M  V30 35140 H 3295.58 -0.19289 0.72891 0
M  V30 35141 H 3298.23 0.229327 1.82061 0
M  V30 35142 H 3296.61 -1.74276 3.5559 0
M  V30 35143 H 3297.78 0.952927 4.50839 0
M  V30 35144 H 3296.1 0.705712 4.10376 0
M  V30 35145 H 3298.69 -1.93205 4.98574 0
M  V30 35146 H 3299.04 -2.46168 3.35719 0
M  V30 35147 H 3299.57 -0.847524 3.88667 0
M  V30 35148 H 3296.31 0.565004 6.5306 0
M  V30 35149 H 3295.83 -1.0307 5.90878 0
M  V30 35150 H 3297.51 -0.740473 6.42749 0
M  V30 35151 N 3297.64 -1.57075 -0.128525 0
M  V30 35152 C 3298.57 -2.02677 -1.15949 0
M  V30 35153 C 3299.55 -0.909527 -1.43742 0
M  V30 35154 O 3300.74 -1.1786 -1.54346 0
M  V30 35155 C 3297.87 -2.42304 -2.48809 0
M  V30 35156 C 3296.82 -3.57385 -2.35499 0
M  V30 35157 C 3296.15 -3.82882 -3.73236 0
M  V30 35158 C 3297.45 -4.89434 -1.8235 0
M  V30 35159 H 3299.14 -2.89055 -0.780232 0
M  V30 35160 H 3296.69 -1.39062 -0.373872 0
M  V30 35161 H 3298.64 -2.7281 -3.21174 0
M  V30 35162 H 3297.36 -1.52886 -2.88606 0
M  V30 35163 H 3296.02 -3.27074 -1.65584 0
M  V30 35164 H 3295.67 -2.90684 -4.10502 0
M  V30 35165 H 3295.37 -4.60339 -3.65187 0
M  V30 35166 H 3296.9 -4.15831 -4.47121 0
M  V30 35167 H 3298.31 -5.18537 -2.44524 0
M  V30 35168 H 3296.71 -5.70825 -1.85146 0
M  V30 35169 H 3297.78 -4.78579 -0.780394 0
M  V30 35170 N 3299.12 0.398432 -1.5248 0
M  V30 35171 C 3300.35 1.16583 -1.70927 0
M  V30 35172 C 3300.76 1.8399 -0.423452 0
M  V30 35173 O 3300.12 1.72307 0.601364 0
M  V30 35174 C 3300.17 2.22094 -2.8523 0
M  V30 35175 O 3299.89 1.57437 -4.08834 0
M  V30 35176 C 3301.39 3.11633 -3.15277 0
M  V30 35177 H 3298.61 0.349914 -0.572539 0
M  V30 35178 H 3301.16 0.467381 -1.99087 0
M  V30 35179 H 3299.31 2.8759 -2.59558 0
M  V30 35180 H 3299.73 2.27471 -4.72607 0
M  V30 35181 H 3301.2 3.81717 -3.98743 0
M  V30 35182 H 3301.68 3.7461 -2.29269 0
M  V30 35183 H 3302.28 2.51794 -3.42753 0
M  V30 35184 N 3300.6 1.43284 0.656314 0
M  V30 35185 C 3301.84 1.44951 1.41834 0
M  V30 35186 C 3302.18 0.0723553 1.94065 0
M  V30 35187 O 3301.45 -0.906316 1.72093 0
M  V30 35188 C 3301.73 2.48932 2.60202 0
M  V30 35189 C 3301.59 3.9591 2.13483 0
M  V30 35190 C 3302.91 2.49684 3.62416 0
M  V30 35191 H 3300.03 0.527801 0.514388 0
M  V30 35192 H 3302.67 1.74814 0.744319 0
M  V30 35193 H 3300.82 2.23598 3.17705 0
M  V30 35194 H 3302.49 4.32291 1.61005 0
M  V30 35195 H 3300.73 4.0889 1.44883 0
M  V30 35196 H 3301.4 4.64273 2.98587 0
M  V30 35197 H 3303.88 2.72257 3.14667 0
M  V30 35198 H 3302.76 3.24386 4.42792 0
M  V30 35199 H 3303.02 1.52951 4.14799 0
M  V30 35200 N 3302.08 -0.894389 1.29763 0
M  V30 35201 C 3303.32 -1.6478 1.18217 0
M  V30 35202 C 3303.65 -1.92389 -0.264601 0
M  V30 35203 O 3302.93 -1.53811 -1.19048 0
M  V30 35204 C 3303.21 -2.99357 2.00143 0
M  V30 35205 C 3303.07 -2.78781 3.52989 0
M  V30 35206 C 3304.38 -4.0016 1.83194 0
M  V30 35207 H 3301.5 -0.597972 0.430812 0
M  V30 35208 H 3304.15 -1.03563 1.59294 0
M  V30 35209 H 3302.3 -3.51608 1.6524 0
M  V30 35210 H 3303.97 -2.33391 3.97903 0
M  V30 35211 H 3302.21 -2.13463 3.77645 0
M  V30 35212 H 3302.88 -3.74432 4.05591 0
M  V30 35213 H 3305.36 -3.57037 2.1369 0
M  V30 35214 H 3304.23 -4.92251 2.42858 0
M  V30 35215 H 3304.49 -4.35011 0.788545 0
M  V30 35216 N 3303.55 -1.12326 -1.10547 0
M  V30 35217 C 3304.52 -0.793193 -2.15037 0
M  V30 35218 C 3305.52 0.191891 -1.59651 0
M  V30 35219 O 3306.71 -0.0337569 -1.74167 0
M  V30 35220 C 3303.84 -0.17848 -3.40432 0
M  V30 35221 H 3305.03 -1.71896 -2.45747 0
M  V30 35222 H 3302.58 -0.926355 -1.2589 0
M  V30 35223 H 3303.32 0.757067 -3.15339 0
M  V30 35224 H 3303.1 -0.887712 -3.81919 0
M  V30 35225 H 3304.59 0.035999 -4.17584 0
M  V30 35226 N 3305.03 1.28319 -0.914988 0
M  V30 35227 C 3305.99 2.2552 -0.409063 0
M  V30 35228 C 3306.99 1.53921 0.4653 0
M  V30 35229 O 3308.18 1.72123 0.26818 0
M  V30 35230 C 3305.32 3.38384 0.413393 0
M  V30 35231 H 3306.51 2.71789 -1.26771 0
M  V30 35232 H 3304.06 1.40023 -0.694501 0
M  V30 35233 H 3304.8 2.97479 1.29139 0
M  V30 35234 H 3304.58 3.91519 -0.213337 0
M  V30 35235 H 3306.07 4.1066 0.75816 0
M  V30 35236 N 3306.51 0.679102 1.42218 0
M  V30 35237 C 3307.74 0.211685 2.05814 0
M  V30 35238 C 3308.15 -1.13281 1.51039 0
M  V30 35239 O 3307.51 -1.70459 0.651924 0
M  V30 35240 C 3307.56 0.142727 3.61218 0
M  V30 35241 O 3307.28 1.4341 4.13963 0
M  V30 35242 C 3308.78 -0.347668 4.41935 0
M  V30 35243 H 3306 0.101926 0.663213 0
M  V30 35244 H 3308.55 0.92705 1.8228 0
M  V30 35245 H 3306.7 -0.523353 3.83849 0
M  V30 35246 H 3307.12 1.31029 5.0787 0
M  V30 35247 H 3308.59 -0.344819 5.50922 0
M  V30 35248 H 3309.07 -1.38369 4.16834 0
M  V30 35249 H 3309.67 0.286826 4.24332 0
M  V30 35250 N 3307.99 -1.51825 0.42272 0
M  V30 35251 C 3308.92 -2.23899 -0.440947 0
M  V30 35252 C 3309.9 -1.25254 -1.03683 0
M  V30 35253 O 3311.08 -1.54347 -1.0821 0
M  V30 35254 C 3308.21 -2.97812 -1.61326 0
M  V30 35255 C 3307.26 -4.10997 -1.13947 0
M  V30 35256 S 3308.09 -5.35418 -0.0934485 0
M  V30 35257 C 3309.24 -6.12864 -1.27077 0
M  V30 35258 H 3309.48 -2.96808 0.170997 0
M  V30 35259 H 3307.01 -1.53005 0.207117 0
M  V30 35260 H 3308.97 -3.40998 -2.2854 0
M  V30 35261 H 3307.63 -2.2452 -2.19658 0
M  V30 35262 H 3306.82 -4.61937 -2.0157 0
M  V30 35263 H 3306.42 -3.69996 -0.545773 0
M  V30 35264 H 3308.72 -6.41064 -2.19188 0
M  V30 35265 H 3309.66 -7.03548 -0.801628 0
M  V30 35266 H 3310.07 -5.44131 -1.50272 0
M  V30 35267 N 3309.47 -0.153581 -1.5685 0
M  V30 35268 C 3310.43 0.769526 -2.15896 0
M  V30 35269 C 3311.43 1.17062 -1.10241 0
M  V30 35270 O 3312.62 1.09047 -1.35847 0
M  V30 35271 C 3309.75 2.04511 -2.72742 0
M  V30 35272 H 3310.94 0.255789 -2.98807 0
M  V30 35273 H 3308.5 0.0959005 -1.56006 0
M  V30 35274 H 3309.23 2.60236 -1.93515 0
M  V30 35275 H 3309.02 1.76666 -3.50045 0
M  V30 35276 H 3310.51 2.70427 -3.18213 0
M  V30 35277 N 3310.94 1.57141 0.120193 0
M  V30 35278 C 3311.89 2.01235 1.1665 0
M  V30 35279 C 3312.89 0.909079 1.42941 0
M  V30 35280 O 3314.09 1.09428 1.42918 0
M  V30 35281 H 3310.47 0.640965 0.393278 0
M  V30 35282 H 3312.44 2.88345 0.768106 0
M  V30 35283 C 3311.19 2.43156 2.48536 0
M  V30 35284 H 3310.51 3.27618 2.29143 0
M  V30 35285 H 3311.95 2.77808 3.2031 0
M  V30 35286 C 3310.41 1.29473 3.11028 0
M  V30 35287 O 3310.94 0.610052 3.97041 0
M  V30 35288 N 3309.14 1.05209 2.70886 0
M  V30 35289 H 3308.69 1.61066 2.01036 0
M  V30 35290 H 3308.65 0.293402 3.13028 0
M  V30 35291 N 3312.42 -0.39034 1.5269 0
M  V30 35292 C 3313.33 -1.50105 1.80293 0
M  V30 35293 C 3314.35 -1.59751 0.689611 0
M  V30 35294 O 3315.52 -1.76112 0.977055 0
M  V30 35295 C 3312.59 -2.85651 1.9648 0
M  V30 35296 C 3311.65 -2.85737 3.20395 0
M  V30 35297 C 3310.88 -4.14818 3.358 0
M  V30 35298 O 3311.11 -5.09704 2.56042 0
M  V30 35299 O 3310.04 -4.2214 4.29048 0
M  V30 35300 H 3313.87 -1.2971 2.74607 0
M  V30 35301 H 3311.45 -0.57805 1.37764 0
M  V30 35302 H 3313.33 -3.6601 2.08842 0
M  V30 35303 H 3312.01 -3.06075 1.05356 0
M  V30 35304 H 3310.92 -2.04165 3.13477 0
M  V30 35305 H 3312.25 -2.70265 4.11361 0
M  V30 35306 N 3313.9 -1.4363 -0.648706 0
M  V30 35307 C 3314.83 -1.43592 -1.7736 0
M  V30 35308 C 3315.81 -0.296811 -1.59868 0
M  V30 35309 O 3317 -0.491097 -1.8199 0
M  V30 35310 C 3314.12 -1.25181 -3.14718 0
M  V30 35311 C 3313.17 -2.42426 -3.50901 0
M  V30 35312 S 3314 -4.04975 -3.50365 0
M  V30 35313 C 3315.16 -3.88955 -4.90372 0
M  V30 35314 H 3315.39 -2.38778 -1.77123 0
M  V30 35315 H 3312.92 -1.30716 -0.821755 0
M  V30 35316 H 3314.88 -1.15246 -3.93991 0
M  V30 35317 H 3313.54 -0.315358 -3.12513 0
M  V30 35318 H 3312.74 -2.25361 -4.50809 0
M  V30 35319 H 3312.34 -2.4901 -2.79052 0
M  V30 35320 H 3314.63 -3.51558 -5.79148 0
M  V30 35321 H 3315.57 -4.88631 -5.1249 0
M  V30 35322 H 3315.98 -3.21331 -4.64119 0
M  V30 35323 N 3315.38 0.887495 -1.30236 0
M  V30 35324 C 3316.63 1.63585 -1.18678 0
M  V30 35325 C 3316.95 1.93268 0.259308 0
M  V30 35326 O 3316.22 1.56735 1.1752 0
M  V30 35327 H 3314.8 0.606389 -0.436235 0
M  V30 35328 H 3317.46 1.06348 -1.63328 0
M  V30 35329 H 3316.56 2.58705 -1.7458 0
M  V30 35330 N 3316.86 1.12911 1.0995 0
M  V30 35331 C 3318.1 0.887514 1.82015 0
M  V30 35332 C 3318.43 -0.586514 1.85446 0
M  V30 35333 O 3317.69 -1.44982 1.31448 0
M  V30 35334 C 3317.99 1.41375 3.2825 0
M  V30 35335 C 3317.65 2.90368 3.44959 0
M  V30 35336 C 3316.31 3.31049 3.49227 0
M  V30 35337 C 3318.67 3.86253 3.4994 0
M  V30 35338 C 3315.99 4.66311 3.56049 0
M  V30 35339 C 3318.35 5.21351 3.58296 0
M  V30 35340 C 3317.01 5.61567 3.6083 0
M  V30 35341 H 3316.28 0.324764 0.66604 0
M  V30 35342 H 3318.93 1.41014 1.29566 0
M  V30 35343 H 3317.23 0.811697 3.833 0
M  V30 35344 H 3318.93 1.20296 3.82531 0
M  V30 35345 H 3315.52 2.57907 3.42318 0
M  V30 35346 H 3319.7 3.55914 3.45888 0
M  V30 35347 H 3314.96 4.96853 3.56296 0
M  V30 35348 H 3319.13 5.9547 3.61094 0
M  V30 35349 H 3316.76 6.66366 3.65869 0
M  V30 35350 N 3318.33 -1.27832 0.92178 0
M  V30 35351 C 3319.26 -2.29441 0.433506 0
M  V30 35352 C 3320.25 -1.6249 -0.503104 0
M  V30 35353 O 3321.43 -1.89842 -0.409122 0
M  V30 35354 C 3318.56 -3.45823 -0.319968 0
M  V30 35355 C 3317.51 -4.24728 0.528253 0
M  V30 35356 C 3316.84 -5.33527 -0.354038 0
M  V30 35357 C 3318.14 -4.90681 1.78967 0
M  V30 35358 H 3319.83 -2.70532 1.28268 0
M  V30 35359 H 3317.38 -1.30054 0.61822 0
M  V30 35360 H 3319.33 -4.16 -0.672453 0
M  V30 35361 H 3318.06 -3.03633 -1.20311 0
M  V30 35362 H 3316.72 -3.56289 0.863364 0
M  V30 35363 H 3316.36 -4.87579 -1.23596 0
M  V30 35364 H 3316.06 -5.87225 0.209958 0
M  V30 35365 H 3317.59 -6.06549 -0.702226 0
M  V30 35366 H 3319 -5.53176 1.50561 0
M  V30 35367 H 3317.4 -5.54411 2.2967 0
M  V30 35368 H 3318.47 -4.14717 2.51273 0
M  V30 35369 N 3319.81 -0.686634 -1.41856 0
M  V30 35370 C 3320.72 -0.0159418 -2.34595 0
M  V30 35371 C 3321.74 0.775905 -1.55742 0
M  V30 35372 O 3322.91 0.715517 -1.88261 0
M  V30 35373 C 3319.98 0.915414 -3.34397 0
M  V30 35374 C 3319.04 0.116775 -4.29141 0
M  V30 35375 C 3318.27 1.00377 -5.24176 0
M  V30 35376 O 3318.5 2.24331 -5.24435 0
M  V30 35377 O 3317.43 0.458232 -6.00153 0
M  V30 35378 H 3321.26 -0.780153 -2.93509 0
M  V30 35379 H 3318.84 -0.446921 -1.42559 0
M  V30 35380 H 3320.72 1.44974 -3.95677 0
M  V30 35381 H 3319.4 1.65927 -2.77939 0
M  V30 35382 H 3318.31 -0.461936 -3.71237 0
M  V30 35383 H 3319.64 -0.588223 -4.88672 0
M  V30 35384 N 3321.29 1.51599 -0.430766 0
M  V30 35385 C 3322.24 2.27583 0.383984 0
M  V30 35386 C 3323.21 1.30896 1.02251 0
M  V30 35387 O 3324.39 1.5979 1.04267 0
M  V30 35388 C 3321.53 3.11617 1.48286 0
M  V30 35389 C 3320.65 4.2329 0.863113 0
M  V30 35390 C 3319.78 4.94645 1.93648 0
M  V30 35391 C 3318.82 5.98248 1.29482 0
M  V30 35392 N 3317.96 6.63036 2.30927 0
M  V30 35393 H 3322.8 2.96771 -0.270366 0
M  V30 35394 H 3320.33 1.46382 -0.145174 0
M  V30 35395 H 3322.29 3.5866 2.13118 0
M  V30 35396 H 3320.92 2.44557 2.10693 0
M  V30 35397 H 3319.97 3.8026 0.10326 0
M  V30 35398 H 3321.29 4.97538 0.354588 0
M  V30 35399 H 3320.44 5.45202 2.66158 0
M  V30 35400 H 3319.18 4.20013 2.47872 0
M  V30 35401 H 3318.18 5.4699 0.555166 0
M  V30 35402 H 3319.41 6.74834 0.760004 0
M  V30 35403 H 3317.35 5.91221 2.84243 0
M  V30 35404 H 3317.27 7.33028 1.84948 0
M  V30 35405 H 3318.54 7.18225 3.0294 0
M  V30 35406 N 3322.77 0.161897 1.56766 0
M  V30 35407 C 3324 -0.491992 2.00965 0
M  V30 35408 C 3324.41 -1.57436 1.04209 0
M  V30 35409 O 3323.77 -1.82453 0.0414318 0
M  V30 35410 C 3323.82 -1.07898 3.45022 0
M  V30 35411 O 3323.54 -0.0398315 4.38082 0
M  V30 35412 C 3325.04 -1.81202 4.04575 0
M  V30 35413 H 3322.26 -0.126785 0.658913 0
M  V30 35414 H 3324.81 0.260859 2.02829 0
M  V30 35415 H 3322.96 -1.78237 3.43963 0
M  V30 35416 H 3323.37 -0.471894 5.22373 0
M  V30 35417 H 3324.85 -2.17545 5.07325 0
M  V30 35418 H 3325.33 -2.70352 3.4613 0
M  V30 35419 H 3325.93 -1.15527 4.09309 0
M  V30 35420 N 3324.25 -1.57203 -0.111858 0
M  V30 35421 C 3325.19 -2.0086 -1.13684 0
M  V30 35422 C 3326.16 -0.881963 -1.4075 0
M  V30 35423 O 3327.35 -1.14672 -1.52496 0
M  V30 35424 C 3324.49 -2.42397 -2.45637 0
M  V30 35425 C 3323.6 -3.68508 -2.25446 0
M  V30 35426 C 3322.74 -3.98996 -3.50679 0
M  V30 35427 C 3321.78 -5.18268 -3.25676 0
M  V30 35428 N 3320.91 -5.44591 -4.43131 0
M  V30 35429 H 3325.75 -2.8821 -0.75756 0
M  V30 35430 H 3323.29 -1.42562 -0.362557 0
M  V30 35431 H 3325.25 -2.6452 -3.22622 0
M  V30 35432 H 3323.88 -1.58079 -2.81444 0
M  V30 35433 H 3322.93 -3.5396 -1.39343 0
M  V30 35434 H 3324.24 -4.55645 -2.02952 0
M  V30 35435 H 3323.4 -4.21805 -4.36079 0
M  V30 35436 H 3322.13 -3.10349 -3.76211 0
M  V30 35437 H 3321.14 -4.95296 -2.38667 0
M  V30 35438 H 3322.36 -6.08498 -3.01507 0
M  V30 35439 H 3320.31 -4.58902 -4.6877 0
M  V30 35440 H 3320.23 -6.26065 -4.23767 0
M  V30 35441 H 3321.5 -5.71924 -5.29644 0
M  V30 35442 N 3325.72 0.382237 -1.52894 0
M  V30 35443 C 3326.67 1.46731 -1.78153 0
M  V30 35444 C 3327.64 1.5389 -0.625061 0
M  V30 35445 O 3328.83 1.70041 -0.865497 0
M  V30 35446 C 3325.97 2.83881 -1.96228 0
M  V30 35447 C 3325.08 2.85821 -3.2393 0
M  V30 35448 C 3324.21 4.1444 -3.32284 0
M  V30 35449 C 3323.25 4.10457 -4.54083 0
M  V30 35450 N 3322.39 5.30695 -4.59681 0
M  V30 35451 H 3327.23 1.24493 -2.7075 0
M  V30 35452 H 3324.77 0.603815 -1.34136 0
M  V30 35453 H 3326.73 3.63534 -2.04692 0
M  V30 35454 H 3325.36 3.04555 -1.06985 0
M  V30 35455 H 3324.41 1.98499 -3.24503 0
M  V30 35456 H 3325.72 2.78747 -4.13645 0
M  V30 35457 H 3324.87 5.025 -3.39969 0
M  V30 35458 H 3323.61 4.24245 -2.40556 0
M  V30 35459 H 3322.62 3.20785 -4.46517 0
M  V30 35460 H 3323.84 4.02269 -5.47135 0
M  V30 35461 H 3321.79 5.41117 -3.70848 0
M  V30 35462 H 3321.71 5.25724 -5.43277 0
M  V30 35463 H 3322.97 6.20634 -4.71629 0
M  V30 35464 N 3327.2 1.43972 0.64108 0
M  V30 35465 C 3328.48 1.36707 1.39895 0
M  V30 35466 C 3328.86 0.0208422 2.1109 0
M  V30 35467 O 3328.21 -0.996214 2.0564 0
M  V30 35468 C 3328.42 2.55853 2.37361 0
M  V30 35469 C 3329.77 2.99479 3.00995 0
M  V30 35470 O 3330.79 2.55987 2.47688 0
M  V30 35471 O 3329.65 3.74858 3.97673 0
M  V30 35472 H 3326.74 0.540866 0.625614 0
M  V30 35473 H 3329.29 1.56044 0.66697 0
M  V30 35474 H 3328.06 3.45455 1.83784 0
M  V30 35475 H 3327.68 2.38678 3.17991 0
M  V30 35476 N 3328.68 -0.880575 1.30704 0
M  V30 35477 C 3329.61 -2.00283 1.20037 0
M  V30 35478 C 3330.59 -1.69862 0.0899913 0
M  V30 35479 O 3331.78 -1.92275 0.27278 0
M  V30 35480 C 3328.91 -3.35544 0.89596 0
M  V30 35481 C 3327.86 -3.80239 1.96475 0
M  V30 35482 C 3327.19 -5.1284 1.51325 0
M  V30 35483 C 3328.49 -3.9849 3.37644 0
M  V30 35484 H 3330.18 -2.09466 2.13926 0
M  V30 35485 H 3327.73 -1.00642 1.02991 0
M  V30 35486 H 3329.68 -4.13582 0.807971 0
M  V30 35487 H 3328.4 -3.26505 -0.0786062 0
M  V30 35488 H 3327.06 -3.04433 2.04245 0
M  V30 35489 H 3326.71 -5.00233 0.526828 0
M  V30 35490 H 3326.41 -5.43715 2.22817 0
M  V30 35491 H 3327.94 -5.93398 1.43913 0
M  V30 35492 H 3329.35 -4.66953 3.32608 0
M  V30 35493 H 3327.75 -4.40748 4.07261 0
M  V30 35494 H 3328.82 -3.02204 3.7921 0
M  V30 35495 N 3330.16 -1.13492 -1.09349 0
M  V30 35496 C 3331.41 -0.895382 -1.81183 0
M  V30 35497 C 3331.73 0.580015 -1.86174 0
M  V30 35498 O 3331 1.4216 -1.34787 0
M  V30 35499 H 3329.58 -0.328269 -0.671006 0
M  V30 35500 H 3332.24 -1.43162 -1.32253 0
M  V30 35501 H 3331.34 -1.28681 -2.84337 0
M  V30 35502 N 3331.64 1.27341 -0.928546 0
M  V30 35503 C 3332.57 2.29207 -0.445668 0
M  V30 35504 C 3333.55 1.62754 0.49448 0
M  V30 35505 O 3334.73 1.90056 0.399049 0
M  V30 35506 C 3331.86 3.45988 0.301624 0
M  V30 35507 C 3330.82 4.24441 -0.550769 0
M  V30 35508 C 3330.14 5.33707 0.325739 0
M  V30 35509 C 3331.44 4.89725 -1.81567 0
M  V30 35510 H 3333.14 2.69848 -1.29701 0
M  V30 35511 H 3330.68 1.29724 -0.625108 0
M  V30 35512 H 3332.64 4.16351 0.650382 0
M  V30 35513 H 3331.36 3.04266 1.18699 0
M  V30 35514 H 3330.02 3.55826 -0.882247 0
M  V30 35515 H 3329.67 4.88227 1.21009 0
M  V30 35516 H 3329.37 5.87105 -0.241097 0
M  V30 35517 H 3330.89 6.06912 0.67005 0
M  V30 35518 H 3332.31 5.5237 -1.53493 0
M  V30 35519 H 3330.7 5.53185 -2.32607 0
M  V30 35520 H 3331.77 4.13378 -2.53469 0
M  V30 35521 N 3333.12 0.694147 1.4149 0
M  V30 35522 C 3334.36 0.224069 2.00854 0
M  V30 35523 C 3334.68 -1.17996 1.55248 0
M  V30 35524 O 3333.95 -1.79594 0.782483 0
M  V30 35525 H 3332.53 0.0798498 0.74272 0
M  V30 35526 H 3335.2 0.894988 1.73136 0
M  V30 35527 H 3334.29 0.240386 3.11173 0
M  V30 35528 N 3334.59 -1.51368 0.438799 0
M  V30 35529 C 3335.54 -2.2937 -0.386284 0
M  V30 35530 C 3336.54 -1.35281 -1.01957 0
M  V30 35531 O 3337.74 -1.52616 -0.954373 0
M  V30 35532 H 3334.12 -0.738204 -0.143384 0
M  V30 35533 H 3336.09 -2.96964 0.292424 0
M  V30 35534 C 3334.84 -3.14901 -1.47421 0
M  V30 35535 H 3334.16 -3.87188 -0.996267 0
M  V30 35536 H 3335.6 -3.72532 -2.02474 0
M  V30 35537 C 3334.06 -2.30371 -2.45827 0
M  V30 35538 O 3334.59 -1.96434 -3.50395 0
M  V30 35539 N 3332.79 -1.93565 -2.16751 0
M  V30 35540 H 3332.34 -2.21363 -1.31744 0
M  V30 35541 H 3332.3 -1.37305 -2.82833 0
M  V30 35542 N 3336.07 -0.170208 -1.56678 0
M  V30 35543 C 3337.32 0.475113 -1.96024 0
M  V30 35544 C 3337.63 1.64464 -1.05882 0
M  V30 35545 O 3338.84 2.35612 -1.34905 0
M  V30 35546 C 3337.3 0.896643 -3.48552 0
M  V30 35547 C 3336.9 -0.247221 -4.47317 0
M  V30 35548 C 3338.65 1.51045 -3.96719 0
M  V30 35549 C 3336.55 0.193878 -5.91082 0
M  V30 35550 H 3335.48 0.18127 -0.731886 0
M  V30 35551 H 3338.14 -0.258262 -1.81673 0
M  V30 35552 H 3336.52 1.68596 -3.58317 0
M  V30 35553 H 3337.69 -1.02453 -4.49266 0
M  V30 35554 H 3336.01 -0.77091 -4.09202 0
M  V30 35555 H 3338.6 1.85249 -5.01584 0
M  V30 35556 H 3338.95 2.40796 -3.39593 0
M  V30 35557 H 3339.48 0.785584 -3.89966 0
M  V30 35558 H 3336.22 -0.668829 -6.52079 0
M  V30 35559 H 3335.74 0.936571 -5.92443 0
M  V30 35560 H 3337.42 0.638124 -6.43845 0
M  V30 35561 N 3337.55 1.5726 0.10352 0
M  V30 35562 C 3338.51 2.00509 1.11036 0
M  V30 35563 C 3339.51 0.897384 1.3343 0
M  V30 35564 O 3340.7 1.16307 1.29686 0
M  V30 35565 C 3337.83 2.35856 2.4614 0
M  V30 35566 H 3339.03 2.90671 0.738281 0
M  V30 35567 H 3336.58 1.5237 0.348308 0
M  V30 35568 H 3337.32 1.48622 2.8824 0
M  V30 35569 H 3337.1 3.16658 2.31236 0
M  V30 35570 H 3338.59 2.70003 3.18572 0
M  V30 35571 N 3339.03 -0.374123 1.53095 0
M  V30 35572 C 3340.26 -1.13849 1.7276 0
M  V30 35573 C 3340.67 -1.83293 0.45267 0
M  V30 35574 O 3340.03 -1.73242 -0.573876 0
M  V30 35575 C 3340.08 -2.17528 2.88728 0
M  V30 35576 O 3339.8 -1.50913 4.11287 0
M  V30 35577 C 3341.3 -3.06578 3.20195 0
M  V30 35578 H 3338.52 -0.340761 0.578034 0
M  V30 35579 H 3341.06 -0.435648 1.99806 0
M  V30 35580 H 3339.22 -2.83425 2.64101 0
M  V30 35581 H 3339.63 -2.19924 4.76166 0
M  V30 35582 H 3341.11 -3.75325 4.04766 0
M  V30 35583 H 3341.58 -3.70915 2.35199 0
M  V30 35584 H 3342.19 -2.46309 3.46716 0
M  V30 35585 N 3340.51 -1.4431 -0.633436 0
M  V30 35586 C 3341.44 -1.46983 -1.75865 0
M  V30 35587 C 3342.45 -0.363497 -1.5869 0
M  V30 35588 O 3343.64 -0.629104 -1.67046 0
M  V30 35589 C 3340.74 -1.28588 -3.13558 0
M  V30 35590 C 3339.91 -2.52425 -3.57212 0
M  V30 35591 C 3338.97 -2.28963 -4.73775 0
M  V30 35592 O 3338 -3.02436 -4.82204 0
M  V30 35593 N 3339.2 -1.31876 -5.65322 0
M  V30 35594 H 3341.96 -2.43986 -1.74043 0
M  V30 35595 H 3339.53 -1.3972 -0.817927 0
M  V30 35596 H 3341.52 -1.10743 -3.89253 0
M  V30 35597 H 3340.09 -0.399584 -3.10036 0
M  V30 35598 H 3339.31 -2.85562 -2.7175 0
M  V30 35599 H 3340.6 -3.34797 -3.8313 0
M  V30 35600 H 3339.99 -0.711888 -5.61203 0
M  V30 35601 H 3338.55 -1.20009 -6.40657 0
M  V30 35602 N 3341.98 0.873632 -1.3117 0
M  V30 35603 C 3342.92 1.98649 -1.14329 0
M  V30 35604 C 3343.93 1.62586 -0.0833707 0
M  V30 35605 O 3345.12 1.75414 -0.330508 0
M  V30 35606 C 3342.22 3.3108 -0.723806 0
M  V30 35607 C 3341.39 3.95508 -1.86794 0
M  V30 35608 C 3340.45 5.06252 -1.43512 0
M  V30 35609 O 3339.48 5.2727 -2.14418 0
M  V30 35610 N 3340.68 5.79615 -0.320464 0
M  V30 35611 H 3343.44 2.13643 -2.10182 0
M  V30 35612 H 3341 1.04739 -1.23456 0
M  V30 35613 H 3343 4.02545 -0.417042 0
M  V30 35614 H 3341.57 3.12273 0.143018 0
M  V30 35615 H 3340.79 3.17071 -2.34222 0
M  V30 35616 H 3342.07 4.35291 -2.63437 0
M  V30 35617 H 3341.47 5.65055 0.270116 0
M  V30 35618 H 3340.03 6.51759 -0.0732146 0
M  V30 35619 N 3343.46 1.1407 1.08746 0
M  V30 35620 C 3344.87 0.918407 1.62549 0
M  V30 35621 C 3345.22 -0.54355 1.8852 0
M  V30 35622 O 3344.35 -1.41173 1.64009 0
M  V30 35623 C 3344.94 1.66071 2.95306 0
M  V30 35624 C 3343.5 1.48409 3.45907 0
M  V30 35625 C 3342.65 1.68543 2.20201 0
M  V30 35626 H 3345.6 1.293 0.920173 0
M  V30 35627 H 3345.62 1.12187 3.63585 0
M  V30 35628 H 3345.13 2.7247 2.76372 0
M  V30 35629 H 3343.24 0.443418 3.69952 0
M  V30 35630 H 3343.35 2.25176 4.22886 0
M  V30 35631 H 3341.71 1.11081 2.29201 0
M  V30 35632 H 3342.5 2.76278 2.03778 0
M  V30 35633 N 3344.94 -1.26847 0.935286 0
M  V30 35634 C 3345.85 -2.30318 0.446162 0
M  V30 35635 C 3346.87 -1.67336 -0.476935 0
M  V30 35636 O 3348.04 -1.98194 -0.357899 0
M  V30 35637 C 3345.11 -3.45516 -0.286237 0
M  V30 35638 C 3344.17 -4.23997 0.672701 0
M  V30 35639 C 3343.4 -5.33694 -0.0248406 0
M  V30 35640 O 3343.62 -5.56695 -1.24286 0
M  V30 35641 O 3342.56 -5.98371 0.650857 0
M  V30 35642 H 3346.38 -2.74208 1.30551 0
M  V30 35643 H 3343.97 -1.31937 0.700933 0
M  V30 35644 H 3345.85 -4.15562 -0.699035 0
M  V30 35645 H 3344.53 -3.03667 -1.12106 0
M  V30 35646 H 3343.43 -3.56456 1.13533 0
M  V30 35647 H 3344.77 -4.6958 1.47497 0
M  V30 35648 N 3346.42 -0.701641 -1.4112 0
M  V30 35649 C 3347.64 -0.242933 -2.05972 0
M  V30 35650 C 3348.07 1.10148 -1.52476 0
M  V30 35651 O 3347.43 1.69083 -0.654253 0
M  V30 35652 C 3347.47 -0.217677 -3.59942 0
M  V30 35653 O 3346.58 0.805558 -4.04456 0
M  V30 35654 H 3345.92 -0.117178 -0.653579 0
M  V30 35655 H 3348.45 -0.958207 -1.80775 0
M  V30 35656 H 3348.46 -0.0505984 -4.07969 0
M  V30 35657 H 3347.13 -1.19884 -3.98247 0
M  V30 35658 H 3345.71 0.60734 -3.67921 0
M  V30 35659 N 3347.9 1.51133 -0.446821 0
M  V30 35660 C 3348.84 2.29572 0.374114 0
M  V30 35661 C 3349.84 1.3582 1.01239 0
M  V30 35662 O 3351.04 1.5312 0.946266 0
M  V30 35663 H 3347.42 0.738954 0.139467 0
M  V30 35664 H 3349.39 2.96804 -0.308169 0
M  V30 35665 C 3348.14 3.15678 1.45749 0
M  V30 35666 H 3347.46 3.87711 0.975719 0
M  V30 35667 H 3348.9 3.73601 2.00496 0
M  V30 35668 C 3347.36 2.31671 2.44602 0
M  V30 35669 O 3347.89 1.9829 3.49348 0
M  V30 35670 N 3346.1 1.94712 2.15721 0
M  V30 35671 H 3345.64 2.22058 1.30568 0
M  V30 35672 H 3345.6 1.38803 2.82101 0
M  V30 35673 N 3349.37 0.178515 1.56586 0
M  V30 35674 C 3350.62 -0.46471 1.96274 0
M  V30 35675 C 3350.94 -1.639 1.06753 0
M  V30 35676 O 3352.14 -2.34893 1.36152 0
M  V30 35677 C 3350.6 -0.878146 3.49022 0
M  V30 35678 C 3350.21 0.27094 4.4718 0
M  V30 35679 C 3351.95 -1.48939 3.97514 0
M  V30 35680 C 3349.86 -0.162529 5.91177 0
M  V30 35681 H 3348.79 -0.177386 0.732837 0
M  V30 35682 H 3351.44 0.267893 1.81534 0
M  V30 35683 H 3349.82 -1.66694 3.59206 0
M  V30 35684 H 3350.99 1.04834 4.48716 0
M  V30 35685 H 3349.31 0.792601 4.08787 0
M  V30 35686 H 3351.91 -1.82587 5.0256 0
M  V30 35687 H 3352.25 -2.38991 3.40865 0
M  V30 35688 H 3352.78 -0.764892 3.90377 0
M  V30 35689 H 3349.52 0.703401 6.51715 0
M  V30 35690 H 3349.04 -0.905139 5.92931 0
M  V30 35691 H 3350.72 -0.60397 6.44175 0
M  V30 35692 N 3350.85 -1.57312 -0.0951784 0
M  V30 35693 C 3351.78 -2.05091 -1.11624 0
M  V30 35694 C 3352.76 -0.939812 -1.4178 0
M  V30 35695 O 3353.95 -1.21107 -1.51811 0
M  V30 35696 C 3351.08 -2.47527 -2.43613 0
M  V30 35697 C 3350.03 -3.623 -2.27866 0
M  V30 35698 C 3349.36 -3.90713 -3.65031 0
M  V30 35699 C 3350.66 -4.93192 -1.71928 0
M  V30 35700 H 3352.35 -2.90645 -0.718744 0
M  V30 35701 H 3349.9 -1.39824 -0.34429 0
M  V30 35702 H 3351.85 -2.79561 -3.15315 0
M  V30 35703 H 3350.58 -1.58973 -2.85298 0
M  V30 35704 H 3349.23 -3.30513 -1.58609 0
M  V30 35705 H 3348.88 -2.99326 -4.04244 0
M  V30 35706 H 3348.58 -4.67982 -3.5534 0
M  V30 35707 H 3350.11 -4.25221 -4.382 0
M  V30 35708 H 3351.52 -5.23607 -2.3347 0
M  V30 35709 H 3349.92 -5.74624 -1.72996 0
M  V30 35710 H 3350.99 -4.80127 -0.678705 0
M  V30 35711 N 3352.33 0.365999 -1.53291 0
M  V30 35712 C 3353.61 1.12433 -1.60057 0
M  V30 35713 C 3353.99 2.07123 -0.407847 0
M  V30 35714 O 3353.34 2.20429 0.601938 0
M  V30 35715 C 3353.55 1.8638 -2.95065 0
M  V30 35716 C 3354.89 2.40928 -3.49627 0
M  V30 35717 O 3355.92 1.96507 -2.97092 0
M  V30 35718 O 3354.78 3.22132 -4.41467 0
M  V30 35719 H 3351.87 0.515739 -0.646485 0
M  V30 35720 H 3354.42 0.369297 -1.65633 0
M  V30 35721 H 3353.19 1.17271 -3.73314 0
M  V30 35722 H 3352.81 2.68793 -2.92978 0
M  V30 35723 N 3353.81 1.44644 0.625774 0
M  V30 35724 C 3355.06 1.46987 1.38122 0
M  V30 35725 C 3355.37 0.108463 1.95299 0
M  V30 35726 O 3356.58 0.00944777 2.71498 0
M  V30 35727 C 3355.03 2.58797 2.50104 0
M  V30 35728 C 3354.64 4.01169 1.99417 0
M  V30 35729 C 3356.38 2.70367 3.27264 0
M  V30 35730 C 3354.29 5.04394 3.08773 0
M  V30 35731 H 3353.22 0.546881 0.519073 0
M  V30 35732 H 3355.87 1.70727 0.67265 0
M  V30 35733 H 3354.25 2.28307 3.23561 0
M  V30 35734 H 3355.43 4.41252 1.32789 0
M  V30 35735 H 3353.74 3.93889 1.35056 0
M  V30 35736 H 3356.34 3.44659 4.08796 0
M  V30 35737 H 3356.68 1.76369 3.77094 0
M  V30 35738 H 3357.22 3.00294 2.609 0
M  V30 35739 H 3353.96 6.00039 2.63881 0
M  V30 35740 H 3353.48 4.68898 3.74025 0
M  V30 35741 H 3355.15 5.28334 3.73459 0
M  V30 35742 N 3355.29 -0.866663 1.31631 0
M  V30 35743 C 3356.56 -1.60263 1.12139 0
M  V30 35744 C 3356.94 -2.08619 -0.322692 0
M  V30 35745 O 3356.29 -1.86703 -1.31735 0
M  V30 35746 C 3356.5 -2.75807 2.1385 0
M  V30 35747 C 3357.85 -3.45687 2.46547 0
M  V30 35748 O 3358.87 -2.86018 2.12303 0
M  V30 35749 O 3357.73 -4.53336 3.05202 0
M  V30 35750 H 3354.83 -0.705238 0.431935 0
M  V30 35751 H 3357.37 -0.911838 1.43121 0
M  V30 35752 H 3356.14 -2.37513 3.10972 0
M  V30 35753 H 3355.77 -3.52571 1.83792 0
M  V30 35754 N 3356.77 -1.14645 -1.0814 0
M  V30 35755 C 3357.7 -0.858705 -2.17137 0
M  V30 35756 C 3358.68 0.187422 -1.69064 0
M  V30 35757 O 3359.86 0.0435117 -1.94151 0
M  V30 35758 C 3356.99 -0.338401 -3.45647 0
M  V30 35759 C 3355.95 -1.32029 -4.07127 0
M  V30 35760 C 3355.27 -0.659168 -5.30621 0
M  V30 35761 C 3356.57 -2.68351 -4.48091 0
M  V30 35762 H 3358.27 -1.77017 -2.41465 0
M  V30 35763 H 3355.81 -0.852543 -1.1605 0
M  V30 35764 H 3357.76 -0.124685 -4.21216 0
M  V30 35765 H 3356.49 0.608496 -3.20881 0
M  V30 35766 H 3355.15 -1.52022 -3.33594 0
M  V30 35767 H 3354.8 0.293623 -5.02142 0
M  V30 35768 H 3354.5 -1.31437 -5.72711 0
M  V30 35769 H 3356.02 -0.45504 -6.08902 0
M  V30 35770 H 3357.43 -2.52249 -5.14824 0
M  V30 35771 H 3355.83 -3.30169 -5.01107 0
M  V30 35772 H 3356.9 -3.25021 -3.59846 0
M  V30 35773 N 3358.24 1.26349 -0.942 0
M  V30 35774 C 3359.66 1.46011 -0.644439 0
M  V30 35775 C 3359.86 1.84852 0.801999 0
M  V30 35776 O 3358.92 1.97073 1.57856 0
M  V30 35777 C 3360.23 2.54185 -1.60656 0
M  V30 35778 C 3361.78 2.68036 -1.61635 0
M  V30 35779 C 3362.25 3.79382 -2.5658 0
M  V30 35780 N 3363.74 3.86776 -2.5487 0
M  V30 35781 C 3364.48 4.72388 -3.25018 0
M  V30 35782 N 3363.97 5.62382 -4.04596 0
M  V30 35783 N 3365.77 4.66242 -3.13967 0
M  V30 35784 H 3357.92 0.99426 -1.87692 0
M  V30 35785 H 3360.18 0.498049 -0.80663 0
M  V30 35786 H 3359.89 2.32473 -2.63911 0
M  V30 35787 H 3359.76 3.51858 -1.35926 0
M  V30 35788 H 3362.15 2.89121 -0.591041 0
M  V30 35789 H 3362.23 1.70804 -1.9042 0
M  V30 35790 H 3361.87 3.59049 -3.5923 0
M  V30 35791 H 3361.8 4.76072 -2.25085 0
M  V30 35792 H 3364.29 3.22436 -1.97088 0
M  V30 35793 H 3364.61 6.24604 -4.55072 0
M  V30 35794 H 3362.95 5.62132 -4.08696 0
M  V30 35795 H 3366.14 3.94938 -2.5128 0
M  V30 35796 H 3366.32 5.32742 -3.68904 0
M  V30 35797 N 3359.72 0.709115 1.40746 0
M  V30 35798 C 3361.13 0.319001 1.83955 0
M  V30 35799 C 3361.48 -1.14525 1.59306 0
M  V30 35800 O 3360.61 -1.88064 1.07055 0
M  V30 35801 C 3361.2 0.572205 3.33933 0
M  V30 35802 C 3359.76 0.235868 3.7566 0
M  V30 35803 C 3358.91 0.84779 2.64022 0
M  V30 35804 H 3361.86 0.908757 1.30105 0
M  V30 35805 H 3361.88 -0.164685 3.80143 0
M  V30 35806 H 3361.39 1.63798 3.51841 0
M  V30 35807 H 3359.49 -0.8251 3.6335 0
M  V30 35808 H 3359.61 0.700346 4.73954 0
M  V30 35809 H 3357.97 0.276327 2.53197 0
M  V30 35810 H 3358.75 1.9177 2.84744 0
M  V30 35811 N 3361.2 -1.50894 0.454829 0
M  V30 35812 C 3362.16 -2.2672 -0.336253 0
M  V30 35813 C 3363.16 -1.30849 -0.934617 0
M  V30 35814 O 3364.35 -1.54415 -0.806332 0
M  V30 35815 C 3361.48 -3.07223 -1.47739 0
M  V30 35816 H 3362.68 -2.98095 0.328514 0
M  V30 35817 H 3360.23 -1.54904 0.208446 0
M  V30 35818 H 3360.97 -2.40306 -2.17769 0
M  V30 35819 H 3360.75 -3.7766 -1.05431 0
M  V30 35820 H 3362.24 -3.64613 -2.03585 0
M  V30 35821 N 3362.68 -0.186817 -1.56489 0
M  V30 35822 C 3363.9 0.463091 -2.02164 0
M  V30 35823 C 3364.33 1.54967 -1.06615 0
M  V30 35824 O 3363.69 1.81236 -0.0482457 0
M  V30 35825 C 3363.73 1.0041 -3.46338 0
M  V30 35826 O 3362.84 2.1174 -3.53892 0
M  V30 35827 H 3362.18 0.109183 -0.654962 0
M  V30 35828 H 3364.71 -0.295263 -2.02458 0
M  V30 35829 H 3364.72 1.3228 -3.85961 0
M  V30 35830 H 3363.39 0.20862 -4.15376 0
M  V30 35831 H 3361.97 1.80797 -3.26139 0
M  V30 35832 N 3364.16 1.57361 0.0868344 0
M  V30 35833 C 3365.12 2.01675 1.08903 0
M  V30 35834 C 3366.12 0.911486 1.32471 0
M  V30 35835 O 3367.31 1.17676 1.28445 0
M  V30 35836 C 3364.44 2.38453 2.43625 0
M  V30 35837 H 3365.63 2.91437 0.707409 0
M  V30 35838 H 3363.19 1.52731 0.332127 0
M  V30 35839 H 3363.92 1.5167 2.86647 0
M  V30 35840 H 3363.71 3.19093 2.27864 0
M  V30 35841 H 3365.2 2.73366 3.15691 0
M  V30 35842 N 3365.63 -0.357865 1.53483 0
M  V30 35843 C 3366.88 -1.09773 1.71235 0
M  V30 35844 C 3367.23 -1.8676 0.462434 0
M  V30 35845 O 3366.53 -1.83694 -0.544713 0
M  V30 35846 C 3366.72 -2.07973 2.90658 0
M  V30 35847 C 3366.55 -1.40636 4.27143 0
M  V30 35848 C 3365.32 -1.15723 4.9187 0
M  V30 35849 C 3367.52 -0.840029 5.07393 0
M  V30 35850 N 3365.5 -0.448175 6.12262 0
M  V30 35851 C 3366.87 -0.260754 6.19451 0
M  V30 35852 C 3368.93 -0.739471 4.92378 0
M  V30 35853 C 3367.63 0.40928 7.18135 0
M  V30 35854 C 3369.66 -0.0832045 5.91341 0
M  V30 35855 C 3369.02 0.485162 7.02727 0
M  V30 35856 H 3365.12 -0.38657 0.67977 0
M  V30 35857 H 3367.7 -0.383125 1.90893 0
M  V30 35858 H 3365.87 -2.76739 2.72525 0
M  V30 35859 H 3367.6 -2.74693 2.97196 0
M  V30 35860 H 3364.36 -1.44056 4.51159 0
M  V30 35861 H 3364.78 -0.108786 6.76913 0
M  V30 35862 H 3369.42 -1.16465 4.06443 0
M  V30 35863 H 3367.14 0.846388 8.03655 0
M  V30 35864 H 3370.73 -0.00622256 5.818 0
M  V30 35865 H 3369.61 0.984939 7.7799 0
M  V30 35866 N 3367.11 -1.44974 -0.618094 0
M  V30 35867 C 3368.34 -1.51947 -1.40426 0
M  V30 35868 C 3368.75 -0.148589 -1.88214 0
M  V30 35869 O 3368.11 0.84795 -1.61605 0
M  V30 35870 C 3368.16 -2.49512 -2.61584 0
M  V30 35871 O 3367.88 -3.81272 -2.15785 0
M  V30 35872 C 3369.38 -2.6608 -3.54565 0
M  V30 35873 H 3366.6 -0.514928 -0.430221 0
M  V30 35874 H 3369.15 -1.90062 -0.754758 0
M  V30 35875 H 3367.3 -2.14498 -3.22598 0
M  V30 35876 H 3367.72 -4.34066 -2.94427 0
M  V30 35877 H 3369.19 -3.38346 -4.36149 0
M  V30 35878 H 3369.67 -1.71754 -4.04224 0
M  V30 35879 H 3370.27 -3.02048 -2.99411 0
M  V30 35880 N 3368.59 0.85967 -1.32089 0
M  V30 35881 C 3369.52 1.98348 -1.23208 0
M  V30 35882 C 3370.5 1.69697 -0.117003 0
M  V30 35883 O 3371.69 1.91816 -0.303335 0
M  V30 35884 C 3368.82 3.34076 -0.949229 0
M  V30 35885 C 3367.77 3.77065 -2.02499 0
M  V30 35886 C 3367.1 5.10368 -1.59464 0
M  V30 35887 C 3368.4 3.93068 -3.43941 0
M  V30 35888 H 3370.09 2.06037 -2.17231 0
M  V30 35889 H 3367.64 0.989912 -1.04579 0
M  V30 35890 H 3369.59 4.12244 -0.873666 0
M  V30 35891 H 3368.31 3.26589 0.0266521 0
M  V30 35892 H 3366.97 3.01145 -2.09062 0
M  V30 35893 H 3366.62 4.99332 -0.606344 0
M  V30 35894 H 3366.32 5.40102 -2.31439 0
M  V30 35895 H 3367.84 5.91034 -1.53335 0
M  V30 35896 H 3369.26 4.61602 -3.39995 0
M  V30 35897 H 3367.65 4.34213 -4.14221 0
M  V30 35898 H 3368.72 2.96133 -3.8397 0
M  V30 35899 N 3370.07 1.15217 1.0753 0
M  V30 35900 C 3371.3 0.948343 1.83548 0
M  V30 35901 C 3371.71 -0.506669 1.8229 0
M  V30 35902 O 3371.05 -1.36312 1.23145 0
M  V30 35903 C 3371.11 1.38304 3.31832 0
M  V30 35904 C 3370.77 2.85541 3.56813 0
M  V30 35905 C 3371.77 3.83614 3.50908 0
M  V30 35906 C 3369.46 3.23166 3.84537 0
M  V30 35907 C 3371.45 5.17318 3.72372 0
M  V30 35908 C 3369.14 4.57043 4.05654 0
M  V30 35909 C 3370.14 5.53928 3.99566 0
M  V30 35910 O 3369.82 6.85386 4.2012 0
M  V30 35911 H 3369.56 0.337003 0.586008 0
M  V30 35912 H 3372.11 1.53346 1.36653 0
M  V30 35913 H 3370.34 0.741311 3.79528 0
M  V30 35914 H 3372.03 1.1486 3.8931 0
M  V30 35915 H 3372.79 3.55892 3.29493 0
M  V30 35916 H 3368.67 2.48342 3.88391 0
M  V30 35917 H 3372.22 5.92927 3.67537 0
M  V30 35918 H 3368.11 4.84481 4.26554 0
M  V30 35919 H 3368.88 6.91777 4.37478 0
M  V30 35920 N 3371.55 -1.25848 0.948687 0
M  V30 35921 C 3372.51 -2.24356 0.468712 0
M  V30 35922 C 3373.51 -1.551 -0.424327 0
M  V30 35923 O 3374.7 -1.72774 -0.22245 0
M  V30 35924 C 3371.83 -3.39361 -0.323531 0
M  V30 35925 H 3373.02 -2.68332 1.33933 0
M  V30 35926 H 3370.58 -1.38132 0.731382 0
M  V30 35927 H 3371.31 -3.00798 -1.21207 0
M  V30 35928 H 3371.1 -3.90816 0.317067 0
M  V30 35929 H 3372.59 -4.12526 -0.649015 0
M  V30 35930 N 3373.02 -0.716569 -1.40368 0
M  V30 35931 C 3374.27 -0.256881 -2.01167 0
M  V30 35932 C 3374.6 1.14724 -1.56691 0
M  V30 35933 O 3373.88 1.77848 -0.787415 0
M  V30 35934 C 3374.16 -0.338026 -3.5851 0
M  V30 35935 C 3374.01 -1.7806 -4.13055 0
M  V30 35936 C 3375.33 0.290218 -4.39142 0
M  V30 35937 H 3372.45 -0.0948157 -0.730875 0
M  V30 35938 H 3375.09 -0.909255 -1.66831 0
M  V30 35939 H 3373.24 0.217414 -3.87891 0
M  V30 35940 H 3374.92 -2.3915 -3.94468 0
M  V30 35941 H 3373.16 -2.30799 -3.67307 0
M  V30 35942 H 3373.83 -1.78876 -5.22214 0
M  V30 35943 H 3376.31 -0.18306 -4.15697 0
M  V30 35944 H 3375.18 0.203 -5.48524 0
M  V30 35945 H 3375.44 1.37387 -4.20211 0
M  V30 35946 N 3374.5 1.50651 -0.462825 0
M  V30 35947 C 3375.47 2.26895 0.324224 0
M  V30 35948 C 3376.47 1.31343 0.927664 0
M  V30 35949 O 3377.66 1.5484 0.798132 0
M  V30 35950 C 3374.79 3.08002 1.46107 0
M  V30 35951 H 3375.98 2.97917 -0.344318 0
M  V30 35952 H 3373.53 1.54791 -0.216658 0
M  V30 35953 H 3374.27 2.41458 2.16492 0
M  V30 35954 H 3374.05 3.78213 1.03427 0
M  V30 35955 H 3375.54 3.65688 2.01649 0
M  V30 35956 N 3375.98 0.195113 1.56388 0
M  V30 35957 C 3377.21 -0.449253 2.01964 0
M  V30 35958 C 3377.62 -1.5519 1.07525 0
M  V30 35959 O 3376.98 -1.82324 0.0801235 0
M  V30 35960 C 3377.03 -1.00555 3.47233 0
M  V30 35961 O 3376.75 0.0531011 4.38068 0
M  V30 35962 C 3378.25 -1.7258 4.08327 0
M  V30 35963 H 3375.47 -0.11278 0.661454 0
M  V30 35964 H 3378.02 0.303824 2.0223 0
M  V30 35965 H 3376.17 -1.70901 3.47666 0
M  V30 35966 H 3376.59 -0.360984 5.23256 0
M  V30 35967 H 3378.06 -2.06735 5.11825 0
M  V30 35968 H 3378.54 -2.6295 3.51787 0
M  V30 35969 H 3379.14 -1.06819 4.11667 0
M  V30 35970 N 3377.46 -1.57404 -0.0784879 0
M  V30 35971 C 3378.69 -1.91141 -0.792008 0
M  V30 35972 C 3379.1 -0.790438 -1.71457 0
M  V30 35973 O 3378.46 0.23663 -1.80959 0
M  V30 35974 C 3378.51 -3.24591 -1.59133 0
M  V30 35975 O 3378.23 -4.32376 -0.705855 0
M  V30 35976 C 3379.73 -3.72298 -2.40644 0
M  V30 35977 H 3376.95 -0.631954 -0.225554 0
M  V30 35978 H 3379.5 -2.04437 -0.050757 0
M  V30 35979 H 3377.65 -3.12842 -2.28492 0
M  V30 35980 H 3378.06 -5.09113 -1.26113 0
M  V30 35981 H 3379.54 -4.68322 -2.92196 0
M  V30 35982 H 3380.02 -3.0097 -3.19865 0
M  V30 35983 H 3380.62 -3.86968 -1.76453 0
M  V30 35984 N 3378.94 0.34972 -1.53671 0
M  V30 35985 C 3380.18 1.09065 -1.7062 0
M  V30 35986 C 3380.51 1.88831 -0.466166 0
M  V30 35987 O 3379.77 1.87752 0.552046 0
M  V30 35988 C 3380.07 2.06429 -2.91757 0
M  V30 35989 C 3379.73 1.43022 -4.27616 0
M  V30 35990 C 3378.39 1.25458 -4.64558 0
M  V30 35991 C 3380.75 0.972897 -5.12039 0
M  V30 35992 C 3378.07 0.607705 -5.83544 0
M  V30 35993 C 3380.43 0.339962 -6.31686 0
M  V30 35994 C 3379.09 0.151952 -6.67327 0
M  V30 35995 H 3378.36 0.399097 -0.624341 0
M  V30 35996 H 3381.01 0.370624 -1.87879 0
M  V30 35997 H 3379.31 2.84791 -2.69075 0
M  V30 35998 H 3381.01 2.63739 -3.02064 0
M  V30 35999 H 3377.6 1.57689 -3.98538 0
M  V30 36000 H 3381.78 1.09647 -4.84036 0
M  V30 36001 H 3377.04 0.450598 -6.09737 0
M  V30 36002 H 3381.21 -0.0225197 -6.96396 0
M  V30 36003 H 3378.84 -0.351344 -7.59388 0
M  V30 36004 N 3380.41 1.45299 0.610397 0
M  V30 36005 C 3381.66 1.48444 1.36556 0
M  V30 36006 C 3381.98 0.129171 1.95173 0
M  V30 36007 O 3383.18 0.0382433 2.71473 0
M  V30 36008 C 3381.64 2.61436 2.47345 0
M  V30 36009 C 3381.25 4.03262 1.95151 0
M  V30 36010 C 3382.99 2.73823 3.24378 0
M  V30 36011 C 3380.9 5.07641 3.03405 0
M  V30 36012 H 3379.83 0.552356 0.513243 0
M  V30 36013 H 3382.48 1.71431 0.654505 0
M  V30 36014 H 3380.86 2.31726 3.21121 0
M  V30 36015 H 3382.03 4.42636 1.28102 0
M  V30 36016 H 3380.35 3.953 1.30871 0
M  V30 36017 H 3382.95 3.48976 4.05117 0
M  V30 36018 H 3383.29 1.80358 3.75202 0
M  V30 36019 H 3383.82 3.03044 2.577 0
M  V30 36020 H 3380.56 6.02804 2.57502 0
M  V30 36021 H 3380.08 4.72839 3.6903 0
M  V30 36022 H 3381.76 5.32266 3.67835 0
M  V30 36023 N 3381.89 -0.852653 1.32543 0
M  V30 36024 C 3383.12 -1.63937 1.26222 0
M  V30 36025 C 3383.54 -1.88038 -0.169422 0
M  V30 36026 O 3382.89 -1.4508 -1.10716 0
M  V30 36027 C 3382.94 -2.99751 2.02068 0
M  V30 36028 O 3382.66 -2.76717 3.39646 0
M  V30 36029 C 3384.17 -3.94195 2.02794 0
M  V30 36030 H 3381.39 -0.510544 0.435414 0
M  V30 36031 H 3383.93 -1.06306 1.74698 0
M  V30 36032 H 3382.08 -3.54023 1.57309 0
M  V30 36033 H 3382.5 -3.63105 3.78491 0
M  V30 36034 H 3383.97 -4.86751 2.60342 0
M  V30 36035 H 3384.45 -4.27317 1.01471 0
M  V30 36036 H 3385.06 -3.4586 2.4751 0
M  V30 36037 N 3383.37 -1.15786 -1.06918 0
M  V30 36038 C 3384.78 -0.944151 -1.61067 0
M  V30 36039 C 3385.13 0.513489 -1.89361 0
M  V30 36040 O 3384.26 1.38546 -1.66234 0
M  V30 36041 C 3384.85 -1.70748 -2.92627 0
M  V30 36042 C 3383.41 -1.53893 -3.43502 0
M  V30 36043 C 3382.56 -1.72025 -2.17492 0
M  V30 36044 H 3385.51 -1.30748 -0.899487 0
M  V30 36045 H 3385.53 -1.17957 -3.61755 0
M  V30 36046 H 3385.04 -2.76833 -2.72002 0
M  V30 36047 H 3383.14 -0.502218 -3.692 0
M  V30 36048 H 3383.26 -2.31876 -4.1925 0
M  V30 36049 H 3381.62 -1.14714 -2.27405 0
M  V30 36050 H 3382.4 -2.79485 -1.99357 0
M  V30 36051 N 3384.85 1.25343 -0.955348 0
M  V30 36052 C 3385.78 2.24295 -0.420339 0
M  V30 36053 C 3386.76 1.54763 0.498726 0
M  V30 36054 O 3387.94 1.83461 0.432939 0
M  V30 36055 C 3385.07 3.36394 0.394516 0
M  V30 36056 C 3384.12 4.23957 -0.465048 0
M  V30 36057 S 3384.95 5.00746 -1.89773 0
M  V30 36058 C 3386.11 6.16312 -1.09132 0
M  V30 36059 H 3386.34 2.69329 -1.25893 0
M  V30 36060 H 3383.87 1.3443 -0.759473 0
M  V30 36061 H 3385.83 4.01418 0.858717 0
M  V30 36062 H 3384.49 2.89944 1.20794 0
M  V30 36063 H 3383.68 5.03746 0.159966 0
M  V30 36064 H 3383.29 3.63872 -0.864486 0
M  V30 36065 H 3385.58 6.76645 -0.340337 0
M  V30 36066 H 3386.52 6.83149 -1.86316 0
M  V30 36067 H 3386.93 5.61072 -0.621131 0
M  V30 36068 N 3386.33 0.724003 1.39986 0
M  V30 36069 C 3387.26 0.0917692 2.3332 0
M  V30 36070 C 3388.24 -0.736334 1.53337 0
M  V30 36071 O 3389.42 -0.68355 1.81772 0
M  V30 36072 C 3386.55 -0.82449 3.37371 0
M  V30 36073 C 3385.51 -0.101376 4.2788 0
M  V30 36074 C 3384.83 -1.13392 5.22538 0
M  V30 36075 C 3386.13 1.04948 5.11648 0
M  V30 36076 H 3387.83 0.871368 2.86439 0
M  V30 36077 H 3385.37 0.420472 1.37724 0
M  V30 36078 H 3387.33 -1.27624 4.01609 0
M  V30 36079 H 3386.05 -1.63608 2.82666 0
M  V30 36080 H 3384.71 0.330633 3.65106 0
M  V30 36081 H 3384.36 -1.93878 4.64134 0
M  V30 36082 H 3384.06 -0.654917 5.83939 0
M  V30 36083 H 3385.58 -1.58559 5.89654 0
M  V30 36084 H 3387 0.6767 5.69292 0
M  V30 36085 H 3385.39 1.4574 5.82134 0
M  V30 36086 H 3386.46 1.87628 4.47128 0
M  V30 36087 N 3387.81 -1.50403 0.470808 0
M  V30 36088 C 3389.22 -1.5911 0.124947 0
M  V30 36089 C 3389.42 -1.47897 -1.36853 0
M  V30 36090 O 3388.48 -1.33732 -2.14178 0
M  V30 36091 C 3389.79 -2.93029 0.67489 0
M  V30 36092 C 3391.34 -3.06423 0.638293 0
M  V30 36093 C 3391.81 -4.42915 1.16578 0
M  V30 36094 N 3393.3 -4.49326 1.12517 0
M  V30 36095 C 3394.04 -5.53329 1.50382 0
M  V30 36096 N 3393.54 -6.64586 1.95695 0
M  V30 36097 N 3395.33 -5.43871 1.41987 0
M  V30 36098 H 3387.48 -1.55936 1.44215 0
M  V30 36099 H 3389.74 -0.73692 0.596367 0
M  V30 36100 H 3389.45 -3.06709 1.72112 0
M  V30 36101 H 3389.32 -3.77014 0.118301 0
M  V30 36102 H 3391.71 -2.9239 -0.399024 0
M  V30 36103 H 3391.79 -2.24195 1.23168 0
M  V30 36104 H 3391.43 -4.57697 2.20172 0
M  V30 36105 H 3391.36 -5.23735 0.548605 0
M  V30 36106 H 3393.86 -3.6949 0.792825 0
M  V30 36107 H 3394.17 -7.40005 2.22737 0
M  V30 36108 H 3392.51 -6.65707 1.99648 0
M  V30 36109 H 3395.7 -4.55841 1.06428 0
M  V30 36110 H 3395.88 -6.24805 1.71823 0
M  V30 36111 N 3389.28 -0.203404 -1.56282 0
M  V30 36112 C 3390.23 0.727107 -2.16095 0
M  V30 36113 C 3391.22 1.17044 -1.10406 0
M  V30 36114 O 3392.41 1.12746 -1.36446 0
M  V30 36115 C 3389.54 1.94288 -2.83032 0
M  V30 36116 C 3388.62 1.52006 -3.95923 0
M  V30 36117 N 3389.02 0.808706 -4.99293 0
M  V30 36118 C 3387.31 1.80873 -4.07677 0
M  V30 36119 C 3388.01 0.595637 -5.78642 0
M  V30 36120 N 3386.99 1.14688 -5.31364 0
M  V30 36121 H 3390.79 0.174989 -2.93379 0
M  V30 36122 H 3388.31 -0.00393713 -1.624 0
M  V30 36123 H 3390.3 2.62006 -3.24281 0
M  V30 36124 H 3388.96 2.49964 -2.07239 0
M  V30 36125 H 3389.97 0.463292 -5.15824 0
M  V30 36126 H 3386.65 2.37999 -3.4302 0
M  V30 36127 H 3388.04 0.0307437 -6.71893 0
M  V30 36128 N 3390.76 1.57444 0.0701393 0
M  V30 36129 C 3391.99 1.91943 0.78567 0
M  V30 36130 C 3392.41 0.799961 1.70242 0
M  V30 36131 O 3391.77 -0.247107 1.79608 0
M  V30 36132 C 3391.82 3.25401 1.55392 0
M  V30 36133 O 3390.92 3.14751 2.66469 0
M  V30 36134 H 3390.26 0.62849 0.214234 0
M  V30 36135 H 3392.79 2.04565 0.0378884 0
M  V30 36136 H 3392.8 3.59314 1.93281 0
M  V30 36137 H 3391.48 4.06455 0.881295 0
M  V30 36138 H 3390.05 2.92398 2.31425 0
M  V30 36139 N 3392.24 -0.341566 1.53854 0
M  V30 36140 C 3393.49 -1.07902 1.70411 0
M  V30 36141 C 3393.8 -1.89743 0.475073 0
M  V30 36142 O 3395.01 -2.66442 0.521636 0
M  V30 36143 C 3393.46 -1.96771 3.01346 0
M  V30 36144 C 3393.07 -1.20127 4.31594 0
M  V30 36145 C 3394.82 -2.70362 3.27269 0
M  V30 36146 C 3392.72 -2.08038 5.53601 0
M  V30 36147 H 3391.65 -0.406542 0.635012 0
M  V30 36148 H 3394.3 -0.338377 1.80353 0
M  V30 36149 H 3392.69 -2.74662 2.85266 0
M  V30 36150 H 3393.86 -0.471324 4.58383 0
M  V30 36151 H 3392.17 -0.582967 4.12299 0
M  V30 36152 H 3394.77 -3.36408 4.15612 0
M  V30 36153 H 3395.11 -3.37035 2.44363 0
M  V30 36154 H 3395.65 -1.99542 3.44134 0
M  V30 36155 H 3392.39 -1.45903 6.39056 0
M  V30 36156 H 3391.91 -2.78816 5.31057 0
M  V30 36157 H 3393.59 -2.67044 5.89318 0
M  V30 36158 N 3393.72 -1.45621 -0.602683 0
M  V30 36159 C 3394.63 -1.57213 -1.74129 0
M  V30 36160 C 3395.64 -0.456376 -1.67908 0
M  V30 36161 O 3396.82 -0.717747 -1.88176 0
M  V30 36162 C 3393.88 -1.54038 -3.10601 0
M  V30 36163 C 3392.95 -2.76691 -3.28239 0
M  V30 36164 C 3392.18 -2.73657 -4.582 0
M  V30 36165 O 3392.4 -1.81263 -5.40833 0
M  V30 36166 O 3391.34 -3.64927 -4.78656 0
M  V30 36167 H 3395.16 -2.53465 -1.67299 0
M  V30 36168 H 3392.75 -1.28187 -0.767359 0
M  V30 36169 H 3394.63 -1.54892 -3.91901 0
M  V30 36170 H 3393.3 -0.609396 -3.17912 0
M  V30 36171 H 3392.21 -2.81397 -2.46509 0
M  V30 36172 H 3393.54 -3.68931 -3.25808 0
M  V30 36173 N 3395.2 0.845612 -1.32993 0
M  V30 36174 C 3396.14 1.97632 -1.22655 0
M  V30 36175 C 3397.14 1.68905 -0.129373 0
M  V30 36176 O 3398.34 1.77601 -0.292895 0
M  V30 36177 H 3394.72 0.648661 -0.38045 0
M  V30 36178 H 3396.69 2.03477 -2.18265 0
M  V30 36179 C 3395.44 3.33728 -0.975736 0
M  V30 36180 H 3394.76 3.56368 -1.81223 0
M  V30 36181 H 3396.2 4.13365 -0.943681 0
M  V30 36182 C 3394.66 3.35363 0.321432 0
M  V30 36183 O 3395.19 3.79031 1.33035 0
M  V30 36184 N 3393.4 2.88526 0.346597 0
M  V30 36185 H 3392.94 2.53183 -0.474975 0
M  V30 36186 H 3392.9 2.90002 1.21435 0
M  V30 36187 N 3396.67 1.16351 1.06302 0
M  V30 36188 C 3397.9 0.969672 1.83336 0
M  V30 36189 C 3398.32 -0.477199 1.81946 0
M  V30 36190 O 3397.68 -1.34092 1.2202 0
M  V30 36191 C 3397.73 1.5016 3.27848 0
M  V30 36192 O 3396.83 0.707877 4.06279 0
M  V30 36193 H 3396.17 0.345082 0.567287 0
M  V30 36194 H 3398.7 1.54587 1.3403 0
M  V30 36195 H 3398.71 1.51905 3.78667 0
M  V30 36196 H 3397.39 2.55489 3.28174 0
M  V30 36197 H 3395.97 0.760936 3.65054 0
M  V30 36198 N 3398.15 -1.24835 0.961982 0
M  V30 36199 C 3399.38 -1.97351 0.637743 0
M  V30 36200 C 3399.8 -1.70942 -0.784889 0
M  V30 36201 O 3399.16 -0.969721 -1.53186 0
M  V30 36202 C 3399.21 -3.48889 0.911546 0
M  V30 36203 O 3398.31 -4.124 -0.00594419 0
M  V30 36204 H 3397.65 -0.618449 0.241696 0
M  V30 36205 H 3400.18 -1.58762 1.29058 0
M  V30 36206 H 3400.19 -3.99243 0.840772 0
M  V30 36207 H 3398.87 -3.67439 1.94837 0
M  V30 36208 H 3397.44 -3.72714 0.117663 0
M  V30 36209 N 3399.63 -0.731417 -1.396 0
M  V30 36210 C 3400.88 -0.278203 -2.00883 0
M  V30 36211 C 3401.21 1.13056 -1.57899 0
M  V30 36212 O 3400.48 1.77003 -0.806234 0
M  V30 36213 C 3400.77 -0.376032 -3.58131 0
M  V30 36214 C 3400.62 -1.82431 -4.11144 0
M  V30 36215 C 3401.94 0.243625 -4.39425 0
M  V30 36216 H 3399.06 -0.102562 -0.729829 0
M  V30 36217 H 3401.7 -0.926898 -1.65857 0
M  V30 36218 H 3399.85 0.17626 -3.881 0
M  V30 36219 H 3401.52 -2.4332 -3.9191 0
M  V30 36220 H 3399.76 -2.34682 -3.64838 0
M  V30 36221 H 3400.44 -1.84405 -5.20287 0
M  V30 36222 H 3402.91 -0.22714 -4.1548 0
M  V30 36223 H 3401.79 0.144811 -5.48709 0
M  V30 36224 H 3402.05 1.32922 -4.21645 0
M  V30 36225 N 3401.11 1.50152 -0.478778 0
M  V30 36226 C 3402.06 2.30314 0.325334 0
M  V30 36227 C 3403.05 1.37937 0.983348 0
M  V30 36228 O 3404.26 1.55093 0.913574 0
M  V30 36229 H 3400.63 0.741746 0.123762 0
M  V30 36230 H 3402.6 2.96084 -0.371056 0
M  V30 36231 C 3401.35 3.18698 1.3902 0
M  V30 36232 H 3400.67 3.89693 0.89326 0
M  V30 36233 H 3402.11 3.77769 1.92526 0
M  V30 36234 C 3400.57 2.36807 2.39633 0
M  V30 36235 O 3401.1 2.05655 3.45063 0
M  V30 36236 N 3399.31 1.99244 2.11543 0
M  V30 36237 H 3398.86 2.24778 1.25828 0
M  V30 36238 H 3398.81 1.44756 2.79093 0
M  V30 36239 N 3402.59 0.211689 1.56172 0
M  V30 36240 C 3403.83 -0.423297 1.98333 0
M  V30 36241 C 3404.17 -1.60113 1.09898 0
M  V30 36242 O 3403.44 -1.93885 0.154511 0
M  V30 36243 C 3403.72 -0.867409 3.49497 0
M  V30 36244 C 3403.58 0.313381 4.48707 0
M  V30 36245 C 3404.9 -1.72709 4.04796 0
M  V30 36246 H 3402.01 -0.152389 0.721073 0
M  V30 36247 H 3404.66 0.305945 1.87521 0
M  V30 36248 H 3402.81 -1.48878 3.58842 0
M  V30 36249 H 3404.48 0.951371 4.51383 0
M  V30 36250 H 3402.72 0.962454 4.22988 0
M  V30 36251 H 3403.39 -0.0401432 5.51985 0
M  V30 36252 H 3405.87 -1.20289 3.98334 0
M  V30 36253 H 3404.74 -2.00675 5.10902 0
M  V30 36254 H 3405.01 -2.68703 3.51071 0
M  V30 36255 N 3404.06 -1.57479 -0.0617887 0
M  V30 36256 C 3405.29 -1.92357 -0.775479 0
M  V30 36257 C 3405.71 -0.808979 -1.69815 0
M  V30 36258 O 3405.07 0.237579 -1.79737 0
M  V30 36259 C 3405.12 -3.2622 -1.53664 0
M  V30 36260 O 3404.22 -3.16159 -2.64796 0
M  V30 36261 H 3403.57 -0.629617 -0.210898 0
M  V30 36262 H 3406.1 -2.04582 -0.0270393 0
M  V30 36263 H 3406.11 -3.60334 -1.91373 0
M  V30 36264 H 3404.78 -4.06917 -0.859727 0
M  V30 36265 H 3403.36 -2.93622 -2.29871 0
M  V30 36266 N 3405.54 0.333401 -1.54033 0
M  V30 36267 C 3406.47 1.41527 -1.85722 0
M  V30 36268 C 3407.45 1.54428 -0.713171 0
M  V30 36269 O 3408.64 1.68469 -0.966014 0
M  V30 36270 C 3405.77 2.78436 -2.07583 0
M  V30 36271 C 3404.72 2.80333 -3.23416 0
M  V30 36272 C 3404.05 4.20224 -3.3063 0
M  V30 36273 C 3405.35 2.44959 -4.61294 0
M  V30 36274 H 3407.04 1.15256 -2.76327 0
M  V30 36275 H 3404.59 0.553007 -1.32958 0
M  V30 36276 H 3406.54 3.54176 -2.28336 0
M  V30 36277 H 3405.27 3.06163 -1.13718 0
M  V30 36278 H 3403.92 2.07046 -3.02535 0
M  V30 36279 H 3403.57 4.45077 -2.34341 0
M  V30 36280 H 3403.27 4.22402 -4.08474 0
M  V30 36281 H 3404.8 4.97791 -3.53605 0
M  V30 36282 H 3406.21 3.10413 -4.81993 0
M  V30 36283 H 3404.61 2.58404 -5.41615 0
M  V30 36284 H 3405.68 1.40126 -4.64212 0
M  V30 36285 N 3407.02 1.45939 0.594952 0
M  V30 36286 C 3408.25 1.54162 1.37991 0
M  V30 36287 C 3408.66 0.178513 1.87954 0
M  V30 36288 O 3408.02 -0.822133 1.62933 0
M  V30 36289 C 3408.07 2.53642 2.57581 0
M  V30 36290 O 3407.79 3.84657 2.09692 0
M  V30 36291 C 3409.29 2.71687 3.50287 0
M  V30 36292 H 3406.51 0.521708 0.421974 0
M  V30 36293 H 3409.06 1.91239 0.724425 0
M  V30 36294 H 3407.21 2.19603 3.19145 0
M  V30 36295 H 3407.63 4.38695 2.87484 0
M  V30 36296 H 3409.1 3.45242 4.30711 0
M  V30 36297 H 3409.58 1.78163 4.01441 0
M  V30 36298 H 3410.18 3.06773 2.94568 0
M  V30 36299 N 3408.5 -0.838547 1.3344 0
M  V30 36300 C 3409.46 -1.92995 1.23635 0
M  V30 36301 C 3410.46 -1.60048 0.15533 0
M  V30 36302 O 3411.65 -1.69382 0.406882 0
M  V30 36303 C 3408.78 -3.28663 0.905177 0
M  V30 36304 H 3409.98 -2.03114 2.20647 0
M  V30 36305 H 3407.53 -1.03067 1.17502 0
M  V30 36306 H 3408.26 -3.2424 -0.0624263 0
M  V30 36307 H 3408.05 -3.53956 1.68694 0
M  V30 36308 H 3409.54 -4.08621 0.861334 0
M  V30 36309 N 3409.98 -1.16914 -1.05683 0
M  V30 36310 C 3411.23 -0.948906 -1.77985 0
M  V30 36311 C 3411.54 0.523978 -1.88451 0
M  V30 36312 O 3412.74 0.862276 -2.57443 0
M  V30 36313 C 3411.2 -1.64854 -3.19924 0
M  V30 36314 C 3410.81 -3.15961 -3.17604 0
M  V30 36315 C 3412.55 -1.51051 -3.96716 0
M  V30 36316 C 3410.46 -3.78636 -4.54301 0
M  V30 36317 H 3409.39 -0.351391 -0.667113 0
M  V30 36318 H 3412.04 -1.40113 -1.18493 0
M  V30 36319 H 3410.42 -1.12404 -3.79712 0
M  V30 36320 H 3411.6 -3.75305 -2.67362 0
M  V30 36321 H 3409.91 -3.2972 -2.54311 0
M  V30 36322 H 3412.51 -1.95252 -4.97776 0
M  V30 36323 H 3412.85 -0.46034 -4.13747 0
M  V30 36324 H 3413.38 -2.00691 -3.43465 0
M  V30 36325 H 3410.12 -4.83628 -4.42475 0
M  V30 36326 H 3409.64 -3.24078 -5.04711 0
M  V30 36327 H 3411.32 -3.80552 -5.23249 0
M  V30 36328 N 3411.45 1.24323 -0.968589 0
M  V30 36329 C 3412.42 2.23582 -0.504346 0
M  V30 36330 C 3413.42 1.55756 0.399598 0
M  V30 36331 O 3414.61 1.73106 0.194935 0
M  V30 36332 C 3411.74 3.39833 0.2695 0
M  V30 36333 H 3412.93 2.66167 -1.38185 0
M  V30 36334 H 3410.49 1.36951 -0.753265 0
M  V30 36335 H 3411.22 3.02688 1.16406 0
M  V30 36336 H 3411.01 3.90262 -0.379202 0
M  V30 36337 H 3412.5 4.13506 0.583303 0
M  V30 36338 N 3412.93 0.73881 1.3921 0
M  V30 36339 C 3413.88 0.090501 2.32424 0
M  V30 36340 C 3414.87 -0.721667 1.53259 0
M  V30 36341 O 3416.08 -0.622424 1.68896 0
M  V30 36342 H 3412.46 0.0104662 0.751927 0
M  V30 36343 H 3414.43 0.892995 2.84725 0
M  V30 36344 C 3413.18 -0.799724 3.38378 0
M  V30 36345 H 3412.5 -0.18417 3.99376 0
M  V30 36346 H 3413.94 -1.22089 4.06042 0
M  V30 36347 C 3412.4 -1.93573 2.75737 0
M  V30 36348 O 3412.93 -3.02869 2.63881 0
M  V30 36349 N 3411.13 -1.7263 2.33767 0
M  V30 36350 H 3410.68 -0.837371 2.4361 0
M  V30 36351 H 3410.64 -2.48813 1.92196 0
M  V30 36352 N 3414.41 -1.49895 0.486734 0
M  V30 36353 C 3415.34 -2.26727 -0.33577 0
M  V30 36354 C 3416.36 -1.32686 -0.943307 0
M  V30 36355 O 3417.54 -1.58078 -0.829062 0
M  V30 36356 C 3414.64 -3.04566 -1.48637 0
M  V30 36357 C 3413.82 -4.26078 -0.988762 0
M  V30 36358 C 3412.88 -4.8608 -2.01527 0
M  V30 36359 O 3411.9 -5.46554 -1.58956 0
M  V30 36360 N 3413.1 -4.74463 -3.34462 0
M  V30 36361 H 3415.87 -2.97955 0.322971 0
M  V30 36362 H 3413.43 -1.58738 0.318431 0
M  V30 36363 H 3415.42 -3.41583 -2.17033 0
M  V30 36364 H 3413.99 -2.36037 -2.04952 0
M  V30 36365 H 3413.21 -3.93985 -0.130163 0
M  V30 36366 H 3414.5 -5.04829 -0.634473 0
M  V30 36367 H 3413.9 -4.26404 -3.71747 0
M  V30 36368 H 3412.46 -5.15705 -3.98612 0
M  V30 36369 N 3415.89 -0.219968 -1.56057 0
M  V30 36370 C 3416.85 0.677265 -2.18965 0
M  V30 36371 C 3417.85 1.12281 -1.15107 0
M  V30 36372 O 3419.04 1.03187 -1.4035 0
M  V30 36373 C 3416.17 1.92759 -2.8117 0
M  V30 36374 H 3417.37 0.128825 -2.99623 0
M  V30 36375 H 3414.92 0.029647 -1.56272 0
M  V30 36376 H 3415.66 2.51794 -2.04378 0
M  V30 36377 H 3415.44 1.6166 -3.57223 0
M  V30 36378 H 3416.93 2.56687 -3.29396 0
M  V30 36379 N 3417.37 1.57509 0.0534363 0
M  V30 36380 C 3418.6 1.92377 0.761499 0
M  V30 36381 C 3419.01 0.817615 1.70178 0
M  V30 36382 O 3418.37 -0.207811 1.81313 0
M  V30 36383 C 3418.42 3.27081 1.53949 0
M  V30 36384 O 3418.14 4.33445 0.636978 0
M  V30 36385 C 3419.64 3.76079 2.3469 0
M  V30 36386 H 3416.86 0.635463 0.215472 0
M  V30 36387 H 3419.4 2.04492 0.0182264 0
M  V30 36388 H 3417.56 3.16438 2.23486 0
M  V30 36389 H 3417.97 5.11055 1.17997 0
M  V30 36390 H 3419.45 4.72911 2.84708 0
M  V30 36391 H 3419.92 3.06021 3.15036 0
M  V30 36392 H 3420.53 3.89726 1.70274 0
M  V30 36393 N 3418.85 -0.325228 1.54208 0
M  V30 36394 C 3420.09 -1.06494 1.72588 0
M  V30 36395 C 3420.42 -1.87726 0.497261 0
M  V30 36396 O 3419.7 -1.87809 -0.505771 0
M  V30 36397 C 3419.98 -1.99104 3.00049 0
M  V30 36398 C 3419.84 -1.21214 4.3316 0
M  V30 36399 C 3421.15 -2.98652 3.23257 0
M  V30 36400 H 3418.27 -0.385758 0.62798 0
M  V30 36401 H 3420.92 -0.341757 1.86901 0
M  V30 36402 H 3419.07 -2.6077 2.87978 0
M  V30 36403 H 3420.74 -0.620209 4.57112 0
M  V30 36404 H 3418.98 -0.514386 4.30739 0
M  V30 36405 H 3419.65 -1.89205 5.18561 0
M  V30 36406 H 3422.13 -2.47108 3.34779 0
M  V30 36407 H 3421 -3.60637 4.13802 0
M  V30 36408 H 3421.26 -3.71021 2.40407 0
M  V30 36409 N 3420.32 -1.46252 -0.587204 0
M  V30 36410 C 3421.25 -1.59333 -1.70691 0
M  V30 36411 C 3422.23 -0.44386 -1.64207 0
M  V30 36412 O 3423.42 -0.669548 -1.82293 0
M  V30 36413 C 3420.55 -1.57905 -3.09327 0
M  V30 36414 C 3419.5 -2.71776 -3.30639 0
M  V30 36415 C 3418.83 -2.55408 -4.69756 0
M  V30 36416 C 3420.13 -4.13636 -3.18909 0
M  V30 36417 H 3421.82 -2.53062 -1.6 0
M  V30 36418 H 3419.37 -1.2179 -0.768321 0
M  V30 36419 H 3421.32 -1.65651 -3.87476 0
M  V30 36420 H 3420.05 -0.607176 -3.20906 0
M  V30 36421 H 3418.71 -2.63492 -2.54887 0
M  V30 36422 H 3418.35 -1.56314 -4.78095 0
M  V30 36423 H 3418.05 -3.31782 -4.84968 0
M  V30 36424 H 3419.58 -2.65038 -5.50079 0
M  V30 36425 H 3420.99 -4.23055 -3.86908 0
M  V30 36426 H 3419.39 -4.90561 -3.45644 0
M  V30 36427 H 3420.46 -4.34108 -2.16052 0
M  V30 36428 N 3421.8 0.831459 -1.33883 0
M  V30 36429 C 3422.73 1.94659 -1.19093 0
M  V30 36430 C 3423.71 1.6238 -0.0845992 0
M  V30 36431 O 3424.9 1.86859 -0.248196 0
M  V30 36432 C 3422.02 3.28416 -0.828281 0
M  V30 36433 C 3421.07 3.79662 -1.94316 0
M  V30 36434 S 3421.9 4.00447 -3.55531 0
M  V30 36435 C 3423.06 5.37145 -3.21289 0
M  V30 36436 H 3423.29 2.06906 -2.13488 0
M  V30 36437 H 3420.82 0.986077 -1.1881 0
M  V30 36438 H 3422.78 4.05701 -0.625831 0
M  V30 36439 H 3421.44 3.1395 0.0971905 0
M  V30 36440 H 3420.64 4.76469 -1.64296 0
M  V30 36441 H 3420.24 3.09297 -2.10266 0
M  V30 36442 H 3422.53 6.2025 -2.72574 0
M  V30 36443 H 3423.47 5.72142 -4.17203 0
M  V30 36444 H 3423.88 5.0225 -2.57692 0
M  V30 36445 N 3423.28 1.17472 1.05062 0
M  V30 36446 C 3424.53 0.96201 1.77735 0
M  V30 36447 C 3424.85 -0.510518 1.88199 0
M  V30 36448 O 3424.12 -1.37059 1.3997 0
M  V30 36449 H 3422.7 0.352947 0.65836 0
M  V30 36450 H 3425.36 1.47971 1.26848 0
M  V30 36451 H 3424.46 1.39146 2.79365 0
M  V30 36452 N 3424.76 -1.23807 0.975168 0
M  V30 36453 C 3425.69 -2.27395 0.530429 0
M  V30 36454 C 3426.67 -1.64477 -0.433734 0
M  V30 36455 O 3427.85 -1.91406 -0.328236 0
M  V30 36456 C 3424.98 -3.46869 -0.173005 0
M  V30 36457 C 3423.94 -4.22105 0.707919 0
M  V30 36458 C 3423.26 -5.34548 -0.127433 0
M  V30 36459 C 3424.56 -4.82649 1.99618 0
M  V30 36460 H 3426.26 -2.64849 1.39627 0
M  V30 36461 H 3423.8 -1.27315 0.672824 0
M  V30 36462 H 3425.76 -4.18478 -0.495408 0
M  V30 36463 H 3424.48 -3.08462 -1.07325 0
M  V30 36464 H 3423.14 -3.52306 1.0137 0
M  V30 36465 H 3422.79 -4.92382 -1.02805 0
M  V30 36466 H 3422.49 -5.85806 0.458831 0
M  V30 36467 H 3424.01 -6.08981 -0.444336 0
M  V30 36468 H 3425.43 -5.46293 1.73888 0
M  V30 36469 H 3423.82 -5.44171 2.52978 0
M  V30 36470 H 3424.89 -4.03686 2.68636 0
M  V30 36471 N 3426.24 -0.746182 -1.38816 0
M  V30 36472 C 3427.48 -0.29846 -1.99884 0
M  V30 36473 C 3427.8 1.12153 -1.5952 0
M  V30 36474 O 3427.07 1.76566 -0.848599 0
M  V30 36475 H 3425.65 -0.10736 -0.739245 0
M  V30 36476 H 3428.32 -0.95863 -1.69695 0
M  V30 36477 H 3427.41 -0.355711 -3.10066 0
M  V30 36478 N 3427.71 1.49635 -0.494676 0
M  V30 36479 C 3428.66 2.29007 0.287113 0
M  V30 36480 C 3429.63 1.35115 0.966075 0
M  V30 36481 O 3430.82 1.64069 0.973962 0
M  V30 36482 C 3427.96 3.17626 1.34935 0
M  V30 36483 C 3427.07 4.2657 0.682804 0
M  V30 36484 C 3426.2 5.02413 1.72495 0
M  V30 36485 C 3425.24 6.03201 1.03992 0
M  V30 36486 N 3424.38 6.72234 2.02598 0
M  V30 36487 H 3429.22 2.95357 -0.395993 0
M  V30 36488 H 3426.76 1.45634 -0.207129 0
M  V30 36489 H 3428.71 3.67376 1.97714 0
M  V30 36490 H 3427.34 2.53274 2.00131 0
M  V30 36491 H 3426.4 3.80356 -0.0581146 0
M  V30 36492 H 3427.71 4.98594 0.143247 0
M  V30 36493 H 3426.86 5.56 2.42794 0
M  V30 36494 H 3425.6 4.30148 2.29835 0
M  V30 36495 H 3424.61 5.48852 0.322669 0
M  V30 36496 H 3425.83 6.7745 0.4731 0
M  V30 36497 H 3423.78 6.02744 2.58912 0
M  V30 36498 H 3423.69 7.40213 1.53691 0
M  V30 36499 H 3424.96 7.30428 2.72205 0
M  V30 36500 N 3429.19 0.228241 1.55939 0
M  V30 36501 C 3430.44 -0.400849 1.98085 0
M  V30 36502 C 3430.76 -1.59817 1.1173 0
M  V30 36503 O 3430.03 -1.94919 0.195828 0
M  V30 36504 H 3428.61 -0.151089 0.731561 0
M  V30 36505 H 3431.27 0.322692 1.9221 0
M  V30 36506 H 3430.37 -0.722653 3.03618 0
M  V30 36507 N 3430.67 -1.57536 -0.0450825 0
M  V30 36508 C 3431.92 -1.89664 -0.734785 0
M  V30 36509 C 3432.27 -0.825051 -1.73812 0
M  V30 36510 O 3431.56 0.168034 -1.90862 0
M  V30 36511 C 3431.76 -3.26249 -1.45932 0
M  V30 36512 C 3431.59 -4.46593 -0.527672 0
M  V30 36513 C 3430.36 -5.05063 -0.154646 0
M  V30 36514 C 3432.56 -5.1396 0.187115 0
M  V30 36515 N 3430.54 -6.08925 0.779937 0
M  V30 36516 C 3431.91 -6.12239 0.97792 0
M  V30 36517 C 3433.96 -4.97243 0.255761 0
M  V30 36518 C 3432.67 -6.95604 1.83103 0
M  V30 36519 C 3434.69 -5.81157 1.09594 0
M  V30 36520 C 3434.05 -6.78995 1.87472 0
M  V30 36521 H 3430.15 -0.743132 -0.243473 0
M  V30 36522 H 3432.74 -1.94699 0.00465425 0
M  V30 36523 H 3430.91 -3.22172 -2.16932 0
M  V30 36524 H 3432.64 -3.45942 -2.10015 0
M  V30 36525 H 3429.4 -4.70809 -0.513364 0
M  V30 36526 H 3429.82 -6.65524 1.24126 0
M  V30 36527 H 3434.46 -4.21494 -0.332019 0
M  V30 36528 H 3432.18 -7.70709 2.42968 0
M  V30 36529 H 3435.77 -5.70273 1.15238 0
M  V30 36530 H 3434.65 -7.42799 2.51435 0
M  V30 36531 N 3432.15 0.317045 -1.54378 0
M  V30 36532 C 3433.56 0.891076 -1.64063 0
M  V30 36533 C 3433.91 1.88654 -0.538896 0
M  V30 36534 O 3433.04 2.13913 0.327143 0
M  V30 36535 C 3433.63 1.62297 -2.97398 0
M  V30 36536 C 3432.19 2.14563 -3.09257 0
M  V30 36537 C 3431.34 0.973101 -2.59665 0
M  V30 36538 H 3434.29 0.0944551 -1.58419 0
M  V30 36539 H 3434.31 2.48759 -2.87923 0
M  V30 36540 H 3433.82 0.898202 -3.77563 0
M  V30 36541 H 3431.92 2.90135 -2.33779 0
M  V30 36542 H 3432.03 2.39116 -4.15163 0
M  V30 36543 H 3430.4 1.35412 -2.15721 0
M  V30 36544 H 3431.18 0.262551 -3.42295 0
M  V30 36545 N 3433.63 1.46561 0.57944 0
M  V30 36546 C 3434.56 1.60236 1.69843 0
M  V30 36547 C 3435.54 0.452562 1.63969 0
M  V30 36548 O 3436.72 0.679206 1.81935 0
M  V30 36549 C 3433.85 1.59543 3.08485 0
M  V30 36550 C 3432.81 2.73526 3.29193 0
M  V30 36551 C 3432.13 2.57896 4.68395 0
M  V30 36552 C 3433.43 4.15321 3.16711 0
M  V30 36553 H 3435.13 2.53907 1.58656 0
M  V30 36554 H 3432.67 1.22196 0.761852 0
M  V30 36555 H 3434.63 1.67703 3.86592 0
M  V30 36556 H 3433.35 0.624186 3.2058 0
M  V30 36557 H 3432.01 2.6484 2.53486 0
M  V30 36558 H 3431.66 1.58847 4.77259 0
M  V30 36559 H 3431.36 3.34349 4.83202 0
M  V30 36560 H 3432.88 2.67951 5.48666 0
M  V30 36561 H 3434.29 4.251 3.84659 0
M  V30 36562 H 3432.69 4.92387 3.43038 0
M  V30 36563 H 3433.76 4.35247 2.13747 0
M  V30 36564 N 3435.1 -0.824347 1.34322 0
M  V30 36565 C 3436.33 -1.61743 1.29823 0
M  V30 36566 C 3436.75 -1.87682 -0.125265 0
M  V30 36567 O 3436.11 -1.45133 -1.08656 0
M  V30 36568 C 3436.16 -2.93619 2.09332 0
M  V30 36569 O 3435.26 -3.85621 1.46187 0
M  V30 36570 H 3434.61 -0.491971 0.445937 0
M  V30 36571 H 3437.14 -1.02449 1.77103 0
M  V30 36572 H 3437.15 -3.43197 2.20635 0
M  V30 36573 H 3435.82 -2.74063 3.12829 0
M  V30 36574 H 3434.4 -3.44134 1.43617 0
M  V30 36575 N 3436.58 -1.18028 -1.04437 0
M  V30 36576 C 3437.53 -0.903903 -2.12363 0
M  V30 36577 C 3438.5 0.155223 -1.65373 0
M  V30 36578 O 3439.68 0.0163855 -1.90793 0
M  V30 36579 C 3436.82 -0.431664 -3.4239 0
M  V30 36580 C 3435.94 -1.55578 -4.03013 0
M  V30 36581 C 3435.07 -1.03665 -5.20987 0
M  V30 36582 C 3434.11 -2.1357 -5.73632 0
M  V30 36583 N 3433.25 -1.63078 -6.82898 0
M  V30 36584 H 3438.09 -1.82806 -2.35342 0
M  V30 36585 H 3435.63 -0.911638 -1.15445 0
M  V30 36586 H 3437.58 -0.139369 -4.16967 0
M  V30 36587 H 3436.21 0.45552 -3.1957 0
M  V30 36588 H 3435.27 -1.96364 -3.258 0
M  V30 36589 H 3436.58 -2.38442 -4.38117 0
M  V30 36590 H 3435.73 -0.698652 -6.02664 0
M  V30 36591 H 3434.47 -0.177543 -4.87377 0
M  V30 36592 H 3433.48 -2.48218 -4.90579 0
M  V30 36593 H 3434.7 -2.99909 -6.09287 0
M  V30 36594 H 3432.65 -0.794508 -6.51171 0
M  V30 36595 H 3432.56 -2.39543 -7.17046 0
M  V30 36596 H 3433.83 -1.32194 -7.68209 0
M  V30 36597 N 3438.06 1.23288 -0.98172 0
M  V30 36598 C 3438.99 2.23353 -0.467821 0
M  V30 36599 C 3439.97 1.55786 0.465786 0
M  V30 36600 O 3441.16 1.84338 0.393927 0
M  V30 36601 C 3438.28 3.37156 0.323073 0
M  V30 36602 C 3437.33 4.22875 -0.554871 0
M  V30 36603 S 3438.16 4.96608 -2.00352 0
M  V30 36604 C 3439.32 6.13859 -1.2218 0
M  V30 36605 H 3439.55 2.66598 -1.31578 0
M  V30 36606 H 3437.08 1.32789 -0.787817 0
M  V30 36607 H 3439.04 4.03149 0.773377 0
M  V30 36608 H 3437.7 2.92441 1.14617 0
M  V30 36609 H 3436.9 5.03972 0.0530781 0
M  V30 36610 H 3436.5 3.61956 -0.941474 0
M  V30 36611 H 3438.79 6.7577 -0.483787 0
M  V30 36612 H 3439.73 6.79043 -2.00764 0
M  V30 36613 H 3440.14 5.59629 -0.740003 0
M  V30 36614 N 3439.54 0.753533 1.38418 0
M  V30 36615 C 3440.82 0.235176 1.94181 0
M  V30 36616 C 3441.2 -1.26656 1.68883 0
M  V30 36617 O 3440.54 -2.04103 1.02734 0
M  V30 36618 C 3440.75 0.588812 3.43997 0
M  V30 36619 C 3442.1 0.548426 4.21043 0
M  V30 36620 O 3443.13 0.527102 3.52278 0
M  V30 36621 O 3441.98 0.559317 5.4363 0
M  V30 36622 H 3439.08 0.0491979 0.825535 0
M  V30 36623 H 3441.62 0.833652 1.47812 0
M  V30 36624 H 3440.4 1.62597 3.55919 0
M  V30 36625 H 3440.02 -0.037673 3.97582 0
M  V30 36626 N 3441.02 -1.49371 0.502605 0
M  V30 36627 C 3442.27 -2.01654 -0.0431986 0
M  V30 36628 C 3442.58 -1.38722 -1.37897 0
M  V30 36629 O 3443.78 -1.82342 -2.01156 0
M  V30 36630 C 3442.24 -3.59674 -0.127446 0
M  V30 36631 C 3441.85 -4.3158 1.20178 0
M  V30 36632 C 3443.59 -4.19896 -0.623529 0
M  V30 36633 C 3441.5 -5.81462 1.07961 0
M  V30 36634 H 3440.43 -0.753737 -0.0199175 0
M  V30 36635 H 3443.08 -1.71893 0.642267 0
M  V30 36636 H 3441.46 -3.86158 -0.877397 0
M  V30 36637 H 3442.64 -4.16795 1.96515 0
M  V30 36638 H 3440.95 -3.8311 1.63143 0
M  V30 36639 H 3443.55 -5.29659 -0.732468 0
M  V30 36640 H 3443.89 -3.8337 -1.62275 0
M  V30 36641 H 3444.42 -3.97739 0.069934 0
M  V30 36642 H 3441.16 -6.22516 2.05315 0
M  V30 36643 H 3440.68 -5.98736 0.357156 0
M  V30 36644 H 3442.36 -6.42533 0.758998 0
M  V30 36645 N 3442.49 -0.236508 -1.55815 0
M  V30 36646 C 3443.74 0.390338 -1.98295 0
M  V30 36647 C 3444.06 1.59222 -1.12576 0
M  V30 36648 O 3443.33 1.94812 -0.206162 0
M  V30 36649 H 3441.91 0.147207 -0.732352 0
M  V30 36650 H 3444.58 -0.332881 -1.92036 0
M  V30 36651 H 3443.67 0.706541 -3.03997 0
M  V30 36652 N 3443.97 1.57557 0.0367273 0
M  V30 36653 C 3445.22 1.892 0.730153 0
M  V30 36654 C 3445.55 0.833302 1.75413 0
M  V30 36655 O 3444.83 -0.152545 1.93901 0
M  V30 36656 C 3445.11 3.31491 1.40663 0
M  V30 36657 C 3444.96 4.48047 0.396686 0
M  V30 36658 C 3446.28 3.72571 2.34262 0
M  V30 36659 H 3443.4 0.688105 0.263971 0
M  V30 36660 H 3446.04 1.89999 -0.0070181 0
M  V30 36661 H 3444.19 3.3094 2.03496 0
M  V30 36662 H 3445.86 4.60731 -0.229143 0
M  V30 36663 H 3444.11 4.32864 -0.284775 0
M  V30 36664 H 3444.78 5.44475 0.90834 0
M  V30 36665 H 3447.25 3.74439 1.81478 0
M  V30 36666 H 3446.13 4.72954 2.78579 0
M  V30 36667 H 3446.39 3.04409 3.20605 0
M  V30 36668 N 3445.45 -0.308854 1.54544 0
M  V30 36669 C 3446.86 -0.882363 1.64533 0
M  V30 36670 C 3447.21 -1.88366 0.548893 0
M  V30 36671 O 3446.34 -2.14083 -0.315794 0
M  V30 36672 C 3446.93 -1.60717 2.98254 0
M  V30 36673 C 3445.49 -2.1292 3.1039 0
M  V30 36674 C 3444.64 -0.959316 2.60178 0
M  V30 36675 H 3447.59 -0.0860524 1.58467 0
M  V30 36676 H 3447.61 -2.47228 2.89238 0
M  V30 36677 H 3447.12 -0.878166 3.78034 0
M  V30 36678 H 3445.22 -2.88891 2.35314 0
M  V30 36679 H 3445.34 -2.36911 4.16425 0
M  V30 36680 H 3443.7 -1.34267 2.16436 0
M  V30 36681 H 3444.48 -0.244394 3.42429 0
M  V30 36682 N 3446.93 -1.46867 -0.571659 0
M  V30 36683 C 3447.86 -1.61134 -1.68991 0
M  V30 36684 C 3448.84 -0.461251 -1.63727 0
M  V30 36685 O 3450.03 -0.688845 -1.81572 0
M  V30 36686 C 3447.16 -1.61177 -3.07635 0
M  V30 36687 C 3446.11 -2.75267 -3.27737 0
M  V30 36688 C 3445.44 -2.60376 -4.67021 0
M  V30 36689 C 3446.74 -4.16995 -3.14504 0
M  V30 36690 H 3448.43 -2.54745 -1.57307 0
M  V30 36691 H 3445.98 -1.22598 -0.755361 0
M  V30 36692 H 3447.93 -1.69751 -3.85697 0
M  V30 36693 H 3446.65 -0.641179 -3.20244 0
M  V30 36694 H 3445.31 -2.66181 -2.52078 0
M  V30 36695 H 3444.96 -1.61376 -4.7641 0
M  V30 36696 H 3444.66 -3.36907 -4.81422 0
M  V30 36697 H 3446.18 -2.70857 -5.47237 0
M  V30 36698 H 3447.6 -4.27134 -3.82399 0
M  V30 36699 H 3445.99 -4.94199 -3.40422 0
M  V30 36700 H 3447.06 -4.36375 -2.11436 0
M  V30 36701 N 3448.41 0.817212 -1.34757 0
M  V30 36702 C 3449.34 1.94328 -1.29456 0
M  V30 36703 C 3450.32 1.69239 -0.170932 0
M  V30 36704 O 3451.5 1.90754 -0.364206 0
M  V30 36705 C 3448.63 3.30887 -1.05503 0
M  V30 36706 C 3447.59 3.70432 -2.14393 0
M  V30 36707 C 3446.91 5.05036 -1.75621 0
M  V30 36708 C 3448.21 3.81926 -3.56272 0
M  V30 36709 H 3449.91 1.99021 -2.23676 0
M  V30 36710 H 3447.45 0.95614 -1.07675 0
M  V30 36711 H 3449.41 4.09256 -1.00438 0
M  V30 36712 H 3448.13 3.26509 -0.0772633 0
M  V30 36713 H 3446.79 2.94342 -2.18537 0
M  V30 36714 H 3446.44 4.9715 -0.764896 0
M  V30 36715 H 3446.14 5.32465 -2.48504 0
M  V30 36716 H 3447.66 5.85856 -1.72061 0
M  V30 36717 H 3449.08 4.50552 -3.54508 0
M  V30 36718 H 3447.47 4.20815 -4.27826 0
M  V30 36719 H 3448.54 2.83768 -3.93197 0
M  V30 36720 N 3449.89 1.1858 1.0381 0
M  V30 36721 C 3450.85 0.917217 2.10047 0
M  V30 36722 C 3451.85 -0.098484 1.60498 0
M  V30 36723 O 3453.04 0.135244 1.73674 0
M  V30 36724 C 3450.17 0.376658 3.38813 0
M  V30 36725 H 3451.36 1.85932 2.35307 0
M  V30 36726 H 3448.92 0.998177 1.20275 0
M  V30 36727 H 3449.65 -0.571927 3.19217 0
M  V30 36728 H 3449.44 1.10887 3.76094 0
M  V30 36729 H 3450.93 0.207526 4.17084 0
M  V30 36730 N 3451.36 -1.22766 0.988245 0
M  V30 36731 C 3452.61 -1.90701 0.656974 0
M  V30 36732 C 3452.93 -1.77857 -0.814027 0
M  V30 36733 O 3454.13 -2.40665 -1.25669 0
M  V30 36734 C 3452.59 -3.41881 1.12451 0
M  V30 36735 C 3452.2 -3.63371 2.62041 0
M  V30 36736 C 3453.94 -4.15545 0.86735 0
M  V30 36737 C 3451.85 -5.08228 3.02421 0
M  V30 36738 H 3450.78 -0.714101 0.242024 0
M  V30 36739 H 3453.43 -1.39067 1.19719 0
M  V30 36740 H 3451.81 -3.9267 0.512455 0
M  V30 36741 H 3452.98 -3.23095 3.28552 0
M  V30 36742 H 3451.3 -3.03032 2.85588 0
M  V30 36743 H 3453.9 -5.22301 1.1448 0
M  V30 36744 H 3454.24 -4.15836 -0.196538 0
M  V30 36745 H 3454.77 -3.70769 1.44137 0
M  V30 36746 H 3451.51 -5.13073 4.07966 0
M  V30 36747 H 3451.03 -5.49424 2.4061 0
M  V30 36748 H 3452.71 -5.76618 2.93462 0
M  V30 36749 N 3452.84 -0.760864 -1.38017 0
M  V30 36750 C 3454.09 -0.319644 -1.99556 0
M  V30 36751 C 3454.41 1.10455 -1.60701 0
M  V30 36752 O 3453.68 1.75656 -0.867279 0
M  V30 36753 H 3452.26 -0.115195 -0.738064 0
M  V30 36754 H 3454.92 -0.976574 -1.68668 0
M  V30 36755 H 3454.02 -0.388577 -3.09672 0
M  V30 36756 N 3454.32 1.49102 -0.510519 0
M  V30 36757 C 3455.56 2.0438 0.0288514 0
M  V30 36758 C 3455.92 1.3809 1.33398 0
M  V30 36759 O 3457.12 1.84143 1.95818 0
M  V30 36760 C 3455.4 3.57003 0.168329 0
M  V30 36761 S 3456.95 4.33799 0.660575 0
M  V30 36762 H 3453.77 0.710995 -0.00276177 0
M  V30 36763 H 3456.37 1.83045 -0.686654 0
M  V30 36764 H 3455.08 4.02789 -0.786698 0
M  V30 36765 H 3454.61 3.82759 0.908793 0
M  V30 36766 H 3456.62 4.57201 1.92825 0
M  V30 36767 N 3455.8 0.244768 1.55688 0
M  V30 36768 C 3457.03 -0.384215 2.02996 0
M  V30 36769 C 3457.44 -1.52237 1.12341 0
M  V30 36770 O 3456.78 -1.83241 0.129836 0
M  V30 36771 C 3456.84 -0.95564 3.46566 0
M  V30 36772 C 3456.5 0.0499979 4.56973 0
M  V30 36773 C 3457.5 0.858772 5.12758 0
M  V30 36774 C 3455.19 0.175471 5.01993 0
M  V30 36775 C 3457.18 1.7795 6.12056 0
M  V30 36776 C 3454.87 1.0997 6.01124 0
M  V30 36777 C 3455.87 1.90024 6.56033 0
M  V30 36778 O 3455.55 2.8089 7.5323 0
M  V30 36779 H 3455.29 -0.0957094 0.66919 0
M  V30 36780 H 3457.84 0.365586 2.0212 0
M  V30 36781 H 3456.07 -1.75496 3.44584 0
M  V30 36782 H 3457.76 -1.49447 3.77386 0
M  V30 36783 H 3458.52 0.772409 4.7881 0
M  V30 36784 H 3454.4 -0.437564 4.58919 0
M  V30 36785 H 3457.95 2.40477 6.54841 0
M  V30 36786 H 3453.84 1.187 6.34492 0
M  V30 36787 H 3454.61 2.75227 7.70839 0
M  V30 36788 N 3457.28 -1.57574 -0.0283712 0
M  V30 36789 C 3458.5 -1.93958 -0.734503 0
M  V30 36790 C 3458.93 -0.844817 -1.68061 0
M  V30 36791 O 3458.28 0.1994 -1.802 0
M  V30 36792 C 3458.33 -3.29406 -1.4671 0
M  V30 36793 O 3457.44 -3.21705 -2.5803 0
M  V30 36794 H 3456.78 -0.633949 -0.197496 0
M  V30 36795 H 3459.31 -2.04593 0.0163617 0
M  V30 36796 H 3459.32 -3.64312 -1.83687 0
M  V30 36797 H 3457.99 -4.08649 -0.77322 0
M  V30 36798 H 3456.57 -2.98431 -2.23591 0
M  V30 36799 N 3458.75 0.300654 -1.54706 0
M  V30 36800 C 3459.69 1.39246 -1.82053 0
M  V30 36801 C 3460.7 1.46815 -0.703502 0
M  V30 36802 O 3461.89 1.49127 -0.980983 0
M  V30 36803 C 3458.99 2.77614 -1.94381 0
M  V30 36804 C 3458.16 2.92973 -3.24786 0
M  V30 36805 C 3457.22 4.11842 -3.27525 0
M  V30 36806 O 3456.25 4.03911 -4.01054 0
M  V30 36807 N 3457.45 5.22495 -2.52942 0
M  V30 36808 H 3460.21 1.16142 -2.76281 0
M  V30 36809 H 3457.77 0.490723 -1.54284 0
M  V30 36810 H 3459.77 3.55381 -1.93615 0
M  V30 36811 H 3458.34 2.93664 -1.07146 0
M  V30 36812 H 3457.56 2.02316 -3.38322 0
M  V30 36813 H 3458.84 3.00146 -4.1084 0
M  V30 36814 H 3458.24 5.31819 -1.92834 0
M  V30 36815 H 3456.8 5.98595 -2.57929 0
M  V30 36816 N 3460.23 1.47168 0.563863 0
M  V30 36817 C 3461.48 1.53678 1.32329 0
M  V30 36818 C 3461.81 0.195627 1.93212 0
M  V30 36819 O 3461.09 -0.795037 1.77509 0
M  V30 36820 C 3461.37 2.64976 2.43844 0
M  V30 36821 C 3461.22 4.08686 1.87872 0
M  V30 36822 C 3462.54 2.72227 3.45804 0
M  V30 36823 H 3459.66 0.559445 0.479781 0
M  V30 36824 H 3462.3 1.79194 0.631637 0
M  V30 36825 H 3460.45 2.4335 3.02841 0
M  V30 36826 H 3462.12 4.41655 1.33187 0
M  V30 36827 H 3460.37 4.17277 1.18586 0
M  V30 36828 H 3461.04 4.82322 2.68457 0
M  V30 36829 H 3463.51 2.91718 2.96715 0
M  V30 36830 H 3462.39 3.51889 4.21266 0
M  V30 36831 H 3462.65 1.79021 4.04232 0
M  V30 36832 N 3461.71 -0.810054 1.35188 0
M  V30 36833 C 3462.66 -1.94311 1.27852 0
M  V30 36834 C 3463.65 -1.68503 0.17411 0
M  V30 36835 O 3464.86 -1.76762 0.339879 0
M  V30 36836 H 3461.23 -0.638346 0.397515 0
M  V30 36837 H 3463.2 -1.97619 2.23583 0
M  V30 36838 C 3461.95 -3.31024 1.06387 0
M  V30 36839 H 3461.28 -3.51438 1.90608 0
M  V30 36840 H 3462.72 -4.10718 1.05295 0
M  V30 36841 C 3461.18 -3.36097 -0.232403 0
M  V30 36842 O 3461.71 -3.82425 -1.22939 0
M  V30 36843 N 3459.91 -2.89343 -0.269978 0
M  V30 36844 H 3459.46 -2.51835 0.541936 0
M  V30 36845 H 3459.42 -2.93119 -1.13703 0
M  V30 36846 N 3463.19 -1.19129 -1.0318 0
M  V30 36847 C 3464.6 -0.994916 -1.57982 0
M  V30 36848 C 3464.95 0.452985 -1.90899 0
M  V30 36849 O 3464.08 1.33188 -1.70558 0
M  V30 36850 C 3464.67 -1.79971 -2.87047 0
M  V30 36851 C 3463.23 -1.64743 -3.38433 0
M  V30 36852 C 3462.38 -1.78858 -2.11909 0
M  V30 36853 H 3465.33 -1.33543 -0.857435 0
M  V30 36854 H 3465.35 -1.29406 -3.57819 0
M  V30 36855 H 3464.86 -2.85346 -2.63057 0
M  V30 36856 H 3462.96 -0.619422 -3.67415 0
M  V30 36857 H 3463.07 -2.45096 -4.11661 0
M  V30 36858 H 3461.44 -1.2189 -2.2364 0
M  V30 36859 H 3462.22 -2.85686 -1.90364 0
M  V30 36860 N 3464.67 1.2224 -0.994741 0
M  V30 36861 C 3465.92 1.9035 -0.667079 0
M  V30 36862 C 3466.23 1.78286 0.804583 0
M  V30 36863 O 3467.43 2.41328 1.24391 0
M  V30 36864 C 3465.89 3.4128 -1.14262 0
M  V30 36865 C 3465.5 3.61977 -2.63964 0
M  V30 36866 C 3467.24 4.15079 -0.889375 0
M  V30 36867 C 3465.15 5.06617 -3.05112 0
M  V30 36868 H 3464.08 0.712807 -0.245808 0
M  V30 36869 H 3466.73 1.3843 -1.20455 0
M  V30 36870 H 3465.11 3.92393 -0.533272 0
M  V30 36871 H 3466.29 3.21348 -3.30261 0
M  V30 36872 H 3464.6 3.01513 -2.87191 0
M  V30 36873 H 3467.2 5.21687 -1.17248 0
M  V30 36874 H 3467.54 4.15934 0.174483 0
M  V30 36875 H 3468.07 3.69999 -1.46101 0
M  V30 36876 H 3464.81 5.10902 -4.10681 0
M  V30 36877 H 3464.33 5.48141 -2.4352 0
M  V30 36878 H 3466.01 5.75054 -2.96516 0
M  V30 36879 N 3466.14 0.768172 1.37611 0
M  V30 36880 C 3467.37 0.342147 2.04051 0
M  V30 36881 C 3467.79 -1.03446 1.57938 0
M  V30 36882 O 3467.14 -1.65968 0.75901 0
M  V30 36883 C 3467.2 0.372159 3.59579 0
M  V30 36884 O 3466.92 1.69446 4.04005 0
M  V30 36885 C 3468.42 -0.0659105 4.43251 0
M  V30 36886 H 3465.64 0.143898 0.655389 0
M  V30 36887 H 3468.18 1.0411 1.76015 0
M  V30 36888 H 3466.34 -0.27818 3.864 0
M  V30 36889 H 3466.75 1.63063 4.98509 0
M  V30 36890 H 3468.22 0.00624478 5.52 0
M  V30 36891 H 3468.7 -1.1158 4.2479 0
M  V30 36892 H 3469.31 0.556104 4.21649 0
M  V30 36893 N 3467.62 -1.48829 0.518419 0
M  V30 36894 C 3468.55 -2.32267 -0.239644 0
M  V30 36895 C 3469.53 -1.41361 -0.946105 0
M  V30 36896 O 3470.72 -1.70258 -0.934132 0
M  V30 36897 C 3467.85 -3.22291 -1.29405 0
M  V30 36898 C 3466.8 -4.2213 -0.706429 0
M  V30 36899 C 3466.13 -5.01208 -1.86264 0
M  V30 36900 C 3467.43 -5.21354 0.31417 0
M  V30 36901 H 3469.12 -2.95894 0.456852 0
M  V30 36902 H 3466.67 -1.42292 0.221151 0
M  V30 36903 H 3468.62 -3.79483 -1.83223 0
M  V30 36904 H 3467.35 -2.56641 -2.01997 0
M  V30 36905 H 3466 -3.66108 -0.189859 0
M  V30 36906 H 3465.65 -4.31992 -2.57666 0
M  V30 36907 H 3465.35 -5.68775 -1.47544 0
M  V30 36908 H 3466.88 -5.61249 -2.40483 0
M  V30 36909 H 3468.29 -5.73137 -0.136503 0
M  V30 36910 H 3466.69 -5.96908 0.618131 0
M  V30 36911 H 3467.76 -4.69197 1.22402 0
M  V30 36912 N 3469.1 -0.253021 -1.55556 0
M  V30 36913 C 3470.33 0.373986 -2.03492 0
M  V30 36914 C 3470.74 1.51092 -1.1321 0
M  V30 36915 O 3470.1 1.81901 -0.147737 0
M  V30 36916 C 3470.15 0.875986 -3.50726 0
M  V30 36917 O 3469.87 -0.215651 -4.37569 0
M  V30 36918 C 3471.37 1.57306 -4.14451 0
M  V30 36919 H 3468.59 0.0881527 -0.665184 0
M  V30 36920 H 3471.14 -0.378671 -2.00964 0
M  V30 36921 H 3469.29 1.5788 -3.53769 0
M  V30 36922 H 3469.71 0.166532 -5.24236 0
M  V30 36923 H 3471.18 1.87596 -5.19145 0
M  V30 36924 H 3471.66 2.49712 -3.61304 0
M  V30 36925 H 3472.26 0.914662 -4.15348 0
M  V30 36926 N 3470.58 1.57587 0.0200142 0
M  V30 36927 C 3471.54 2.06113 1.00251 0
M  V30 36928 C 3472.54 0.966851 1.28486 0
M  V30 36929 O 3473.73 1.23018 1.23338 0
M  V30 36930 C 3470.86 2.48571 2.33292 0
M  V30 36931 H 3472.06 2.94175 0.583164 0
M  V30 36932 H 3469.61 1.54002 0.26705 0
M  V30 36933 H 3470.34 1.63692 2.79956 0
M  V30 36934 H 3470.13 3.2847 2.14125 0
M  V30 36935 H 3471.62 2.8651 3.03812 0
M  V30 36936 N 3472.06 -0.292445 1.54863 0
M  V30 36937 C 3473.02 -1.3441 1.85652 0
M  V30 36938 C 3474.02 -1.4328 0.729894 0
M  V30 36939 O 3475.21 -1.42767 0.998153 0
M  V30 36940 C 3472.34 -2.72791 2.04445 0
M  V30 36941 H 3473.53 -1.08349 2.79644 0
M  V30 36942 H 3471.09 -0.529548 1.47056 0
M  V30 36943 H 3471.82 -3.04062 1.1277 0
M  V30 36944 H 3471.61 -2.67742 2.86456 0
M  V30 36945 H 3473.1 -3.48813 2.29606 0
M  V30 36946 N 3473.53 -1.47465 -0.55605 0
M  V30 36947 C 3474.46 -1.62918 -1.67273 0
M  V30 36948 C 3475.45 -0.47859 -1.63228 0
M  V30 36949 O 3476.63 -0.708064 -1.80832 0
M  V30 36950 C 3473.76 -1.64431 -3.05908 0
M  V30 36951 C 3472.71 -2.78728 -3.24799 0
M  V30 36952 C 3472.04 -2.65315 -4.64233 0
M  V30 36953 C 3473.34 -4.20307 -3.10063 0
M  V30 36954 H 3475.03 -2.56399 -1.54596 0
M  V30 36955 H 3472.58 -1.23392 -0.742315 0
M  V30 36956 H 3474.53 -1.73832 -3.83875 0
M  V30 36957 H 3473.26 -0.675109 -3.19546 0
M  V30 36958 H 3471.92 -2.68839 -2.49241 0
M  V30 36959 H 3471.56 -1.6642 -4.74672 0
M  V30 36960 H 3471.26 -3.41994 -4.77822 0
M  V30 36961 H 3472.79 -2.76646 -5.44334 0
M  V30 36962 H 3474.2 -4.31166 -3.77847 0
M  V30 36963 H 3472.6 -4.97782 -3.35161 0
M  V30 36964 H 3473.67 -4.38593 -2.06796 0
M  V30 36965 N 3475.01 0.802873 -1.35616 0
M  V30 36966 C 3475.94 1.92944 -1.3151 0
M  V30 36967 C 3476.92 1.69048 -0.188872 0
M  V30 36968 O 3478.11 1.90357 -0.384418 0
M  V30 36969 C 3475.24 3.2975 -1.09007 0
M  V30 36970 C 3474.19 3.68137 -2.1831 0
M  V30 36971 C 3473.52 5.03145 -1.80967 0
M  V30 36972 C 3474.82 3.78126 -3.60303 0
M  V30 36973 H 3476.51 1.96638 -2.25774 0
M  V30 36974 H 3474.06 0.944666 -1.08683 0
M  V30 36975 H 3476.01 4.08167 -1.04773 0
M  V30 36976 H 3474.74 3.26408 -0.11189 0
M  V30 36977 H 3473.4 2.92007 -2.21647 0
M  V30 36978 H 3473.04 4.96311 -0.817582 0
M  V30 36979 H 3472.74 5.298 -2.54138 0
M  V30 36980 H 3474.27 5.83998 -1.78265 0
M  V30 36981 H 3475.68 4.46766 -3.59267 0
M  V30 36982 H 3474.08 4.16254 -4.32265 0
M  V30 36983 H 3475.15 2.79581 -3.96185 0
M  V30 36984 N 3476.49 1.19674 1.02547 0
M  V30 36985 C 3477.42 0.961326 2.12793 0
M  V30 36986 C 3478.4 -0.106546 1.69766 0
M  V30 36987 O 3479.59 0.0491699 1.94138 0
M  V30 36988 C 3476.72 0.502928 3.43639 0
M  V30 36989 C 3475.67 1.51303 4.00364 0
M  V30 36990 C 3475 0.911584 5.26872 0
M  V30 36991 C 3476.3 2.89424 4.34777 0
M  V30 36992 H 3477.99 1.88336 2.32745 0
M  V30 36993 H 3475.54 0.906941 1.11851 0
M  V30 36994 H 3477.49 0.32551 4.20141 0
M  V30 36995 H 3476.21 -0.454707 3.23419 0
M  V30 36996 H 3474.87 1.67765 3.25961 0
M  V30 36997 H 3474.52 -0.0537097 5.02971 0
M  V30 36998 H 3474.22 1.58612 5.65788 0
M  V30 36999 H 3475.75 0.745036 6.06038 0
M  V30 37000 H 3477.16 2.76524 5.02202 0
M  V30 37001 H 3475.56 3.53702 4.84783 0
M  V30 37002 H 3476.63 3.4182 3.43929 0
M  V30 37003 N 3477.97 -1.21711 1.00121 0
M  V30 37004 C 3478.9 -2.26219 0.578544 0
M  V30 37005 C 3479.88 -1.6536 -0.398748 0
M  V30 37006 O 3481.07 -1.92059 -0.287562 0
M  V30 37007 C 3478.2 -3.47158 -0.0993898 0
M  V30 37008 C 3477.15 -4.20508 0.797294 0
M  V30 37009 C 3476.48 -5.34698 -0.0140185 0
M  V30 37010 C 3477.78 -4.78306 2.09811 0
M  V30 37011 H 3479.47 -2.61827 1.45213 0
M  V30 37012 H 3477.02 -1.25859 0.699678 0
M  V30 37013 H 3478.97 -4.19434 -0.406531 0
M  V30 37014 H 3477.69 -3.10669 -1.00758 0
M  V30 37015 H 3476.35 -3.50077 1.0882 0
M  V30 37016 H 3476 -4.94452 -0.923381 0
M  V30 37017 H 3475.7 -5.84701 0.582986 0
M  V30 37018 H 3477.22 -6.09787 -0.315062 0
M  V30 37019 H 3478.64 -5.42481 1.85437 0
M  V30 37020 H 3477.03 -5.38682 2.64464 0
M  V30 37021 H 3478.1 -3.97897 2.77139 0
M  V30 37022 N 3479.45 -0.775459 -1.37202 0
M  V30 37023 C 3480.69 -0.341972 -1.99896 0
M  V30 37024 C 3481.03 1.07975 -1.61416 0
M  V30 37025 O 3480.3 1.74349 -0.862138 0
M  V30 37026 C 3480.58 -0.489778 -3.56754 0
M  V30 37027 C 3480.44 -1.95418 -4.05132 0
M  V30 37028 C 3481.76 0.103702 -4.39978 0
M  V30 37029 H 3478.88 -0.125729 -0.726196 0
M  V30 37030 H 3481.52 -0.979195 -1.62824 0
M  V30 37031 H 3479.67 0.0527001 -3.88464 0
M  V30 37032 H 3481.34 -2.55665 -3.8397 0
M  V30 37033 H 3479.58 -2.4617 -3.57187 0
M  V30 37034 H 3480.25 -2.00864 -5.14157 0
M  V30 37035 H 3482.73 -0.359207 -4.14547 0
M  V30 37036 H 3481.61 -0.0298302 -5.48892 0
M  V30 37037 H 3481.87 1.1944 -4.2566 0
M  V30 37038 N 3480.93 1.48552 -0.526305 0
M  V30 37039 C 3481.89 2.28066 0.227699 0
M  V30 37040 C 3482.89 1.3516 0.871122 0
M  V30 37041 O 3484.08 1.58086 0.731741 0
M  V30 37042 C 3481.21 3.13922 1.32913 0
M  V30 37043 H 3482.4 2.96188 -0.470365 0
M  V30 37044 H 3479.96 1.53733 -0.282116 0
M  V30 37045 H 3480.69 2.50423 2.06056 0
M  V30 37046 H 3480.48 3.8226 0.872924 0
M  V30 37047 H 3481.97 3.73911 1.85957 0
M  V30 37048 N 3482.4 0.261267 1.55419 0
M  V30 37049 C 3483.35 -0.646404 2.18645 0
M  V30 37050 C 3484.34 -1.12866 1.14674 0
M  V30 37051 O 3485.53 -1.07604 1.40536 0
M  V30 37052 C 3482.66 -1.8365 2.90048 0
M  V30 37053 C 3481.74 -1.37207 4.01292 0
M  V30 37054 N 3482.14 -0.622839 5.01951 0
M  V30 37055 C 3480.43 -1.65618 4.14109 0
M  V30 37056 C 3481.13 -0.380467 5.80454 0
M  V30 37057 N 3480.11 -0.948875 5.35254 0
M  V30 37058 H 3483.91 -0.0659832 2.93826 0
M  V30 37059 H 3481.43 0.0642079 1.62273 0
M  V30 37060 H 3483.42 -2.4979 3.33782 0
M  V30 37061 H 3482.08 -2.421 2.16374 0
M  V30 37062 H 3483.09 -0.271528 5.17188 0
M  V30 37063 H 3479.77 -2.25104 3.51617 0
M  V30 37064 H 3481.16 0.218646 6.71544 0
M  V30 37065 N 3483.88 -1.57596 -0.0116567 0
M  V30 37066 C 3485.11 -1.94046 -0.709196 0
M  V30 37067 C 3485.52 -0.860907 -1.68479 0
M  V30 37068 O 3484.86 0.169863 -1.82913 0
M  V30 37069 C 3484.92 -3.26413 -1.50648 0
M  V30 37070 C 3484.59 -4.51703 -0.693759 0
M  V30 37071 C 3485.59 -5.19898 0.0135358 0
M  V30 37072 C 3483.27 -4.98165 -0.643165 0
M  V30 37073 C 3485.26 -6.32846 0.760537 0
M  V30 37074 C 3482.95 -6.11005 0.10757 0
M  V30 37075 C 3483.95 -6.78202 0.808164 0
M  V30 37076 O 3483.64 -7.88881 1.54667 0
M  V30 37077 H 3483.37 -0.64472 -0.203254 0
M  V30 37078 H 3485.92 -2.05375 0.0320484 0
M  V30 37079 H 3484.15 -3.1146 -2.29194 0
M  V30 37080 H 3485.84 -3.48061 -2.08826 0
M  V30 37081 H 3486.61 -4.84997 -0.0164728 0
M  V30 37082 H 3482.49 -4.45695 -1.178 0
M  V30 37083 H 3486.03 -6.85229 1.30791 0
M  V30 37084 H 3481.93 -6.45349 0.13944 0
M  V30 37085 H 3482.7 -8.05334 1.46216 0
M  V30 37086 N 3485.36 0.284228 -1.55016 0
M  V30 37087 C 3486.32 1.33423 -1.86362 0
M  V30 37088 C 3487.32 1.42891 -0.737482 0
M  V30 37089 O 3488.51 1.42236 -1.00571 0
M  V30 37090 C 3485.64 2.71703 -2.05889 0
M  V30 37091 H 3486.84 1.06864 -2.80214 0
M  V30 37092 H 3484.39 0.521741 -1.47335 0
M  V30 37093 H 3485.13 3.03459 -1.14381 0
M  V30 37094 H 3484.91 2.66219 -2.87871 0
M  V30 37095 H 3486.4 3.47591 -2.31453 0
M  V30 37096 N 3486.84 1.47758 0.548222 0
M  V30 37097 C 3488.09 1.54102 1.30137 0
M  V30 37098 C 3488.4 0.211834 1.9445 0
M  V30 37099 O 3489.61 0.15335 2.71067 0
M  V30 37100 C 3488.06 2.71691 2.36034 0
M  V30 37101 C 3487.67 4.11176 1.77872 0
M  V30 37102 C 3489.41 2.87335 3.12473 0
M  V30 37103 C 3487.32 5.20052 2.81602 0
M  V30 37104 H 3486.25 0.573627 0.489354 0
M  V30 37105 H 3488.9 1.74052 0.581206 0
M  V30 37106 H 3487.28 2.45138 3.11004 0
M  V30 37107 H 3488.46 4.47671 1.09213 0
M  V30 37108 H 3486.77 4.00495 1.13987 0
M  V30 37109 H 3489.37 3.65844 3.89951 0
M  V30 37110 H 3489.71 1.9611 3.67215 0
M  V30 37111 H 3490.25 3.13701 2.44615 0
M  V30 37112 H 3486.98 6.13183 2.31703 0
M  V30 37113 H 3486.5 4.88065 3.48643 0
M  V30 37114 H 3488.18 5.47388 3.44928 0
M  V30 37115 N 3488.32 -0.79567 1.3604 0
M  V30 37116 C 3489.56 -1.54843 1.29254 0
M  V30 37117 C 3489.88 -1.95181 -0.127892 0
M  V30 37118 O 3491.08 -2.6963 -0.318093 0
M  V30 37119 C 3489.54 -2.79493 2.26741 0
M  V30 37120 C 3489.15 -2.46349 3.74187 0
M  V30 37121 C 3490.89 -3.57486 2.2892 0
M  V30 37122 C 3488.8 -3.67357 4.63469 0
M  V30 37123 H 3487.73 -0.581246 0.48028 0
M  V30 37124 H 3490.38 -0.873664 1.61367 0
M  V30 37125 H 3488.76 -3.48736 1.87614 0
M  V30 37126 H 3489.94 -1.85042 4.22014 0
M  V30 37127 H 3488.25 -1.8158 3.74724 0
M  V30 37128 H 3490.85 -4.47383 2.92836 0
M  V30 37129 H 3491.19 -3.95614 1.29597 0
M  V30 37130 H 3491.72 -2.95215 2.66632 0
M  V30 37131 H 3488.46 -3.34329 5.6383 0
M  V30 37132 H 3487.98 -4.27851 4.20361 0
M  V30 37133 H 3489.66 -4.34459 4.79432 0
M  V30 37134 N 3489.79 -1.20217 -1.0191 0
M  V30 37135 C 3491.04 -1.0088 -1.75122 0
M  V30 37136 C 3491.36 0.460441 -1.89486 0
M  V30 37137 O 3490.63 1.333 -1.43555 0
M  V30 37138 H 3489.21 -0.370278 -0.648771 0
M  V30 37139 H 3491.88 -1.51282 -1.22881 0
M  V30 37140 H 3490.97 -1.46504 -2.75578 0
M  V30 37141 N 3491.27 1.21178 -1.00765 0
M  V30 37142 C 3492.68 1.72058 -0.724776 0
M  V30 37143 C 3493.03 1.80992 0.757381 0
M  V30 37144 O 3492.16 1.4663 1.5915 0
M  V30 37145 C 3492.75 3.12492 -1.30899 0
M  V30 37146 C 3491.31 3.60717 -1.07518 0
M  V30 37147 C 3490.46 2.38173 -1.42018 0
M  V30 37148 H 3493.41 1.06318 -1.17823 0
M  V30 37149 H 3493.43 3.74099 -0.694985 0
M  V30 37150 H 3492.94 3.05957 -2.38772 0
M  V30 37151 H 3491.05 3.72597 -0.0137173 0
M  V30 37152 H 3491.16 4.46037 -1.74893 0
M  V30 37153 H 3489.52 2.40484 -0.839014 0
M  V30 37154 H 3490.31 2.34286 -2.50928 0
M  V30 37155 N 3492.75 0.782725 1.36789 0
M  V30 37156 C 3494 0.351351 1.99022 0
M  V30 37157 C 3494.32 -1.07884 1.62438 0
M  V30 37158 O 3493.59 -1.74254 0.895114 0
M  V30 37159 H 3492.17 0.126922 0.736138 0
M  V30 37160 H 3494.83 1.00328 1.67093 0
M  V30 37161 H 3493.93 0.437794 3.09014 0
M  V30 37162 N 3494.23 -1.48271 0.534176 0
M  V30 37163 C 3495.16 -2.32508 -0.214996 0
M  V30 37164 C 3496.14 -1.42356 -0.931058 0
M  V30 37165 O 3497.32 -1.71239 -0.916021 0
M  V30 37166 C 3494.45 -3.23646 -1.25979 0
M  V30 37167 C 3493.41 -4.22855 -0.661617 0
M  V30 37168 C 3492.73 -5.03156 -1.80937 0
M  V30 37169 C 3494.03 -5.20992 0.369449 0
M  V30 37170 H 3495.73 -2.95393 0.48821 0
M  V30 37171 H 3493.27 -1.42049 0.236231 0
M  V30 37172 H 3495.23 -3.81405 -1.79188 0
M  V30 37173 H 3493.95 -2.58769 -1.99264 0
M  V30 37174 H 3492.61 -3.66289 -0.151018 0
M  V30 37175 H 3492.26 -4.34701 -2.5307 0
M  V30 37176 H 3491.96 -5.70307 -1.41503 0
M  V30 37177 H 3493.48 -5.63768 -2.34516 0
M  V30 37178 H 3494.9 -5.7325 -0.0757069 0
M  V30 37179 H 3493.29 -5.96219 0.681406 0
M  V30 37180 H 3494.36 -4.67872 1.27371 0
M  V30 37181 N 3495.71 -0.269505 -1.55279 0
M  V30 37182 C 3496.64 0.653534 -2.19685 0
M  V30 37183 C 3497.65 1.12174 -1.17987 0
M  V30 37184 O 3498.84 1.04462 -1.44741 0
M  V30 37185 C 3495.94 1.90279 -2.80441 0
M  V30 37186 C 3495.11 1.58232 -4.07776 0
M  V30 37187 C 3494.17 2.68346 -4.52633 0
M  V30 37188 O 3493.2 2.34771 -5.18528 0
M  V30 37189 N 3494.4 3.98296 -4.22304 0
M  V30 37190 H 3497.17 0.102326 -2.99525 0
M  V30 37191 H 3494.73 -0.0903749 -1.61648 0
M  V30 37192 H 3496.72 2.63229 -3.07397 0
M  V30 37193 H 3495.29 2.36319 -2.04626 0
M  V30 37194 H 3494.51 0.686915 -3.88169 0
M  V30 37195 H 3495.8 1.34315 -4.90751 0
M  V30 37196 H 3495.19 4.28397 -3.69448 0
M  V30 37197 H 3493.75 4.67641 -4.54044 0
M  V30 37198 N 3497.18 1.576 0.00329885 0
M  V30 37199 C 3498.15 2.07164 0.980592 0
M  V30 37200 C 3499.15 0.980424 1.27453 0
M  V30 37201 O 3500.34 1.24319 1.22027 0
M  V30 37202 C 3497.47 2.51032 2.30642 0
M  V30 37203 H 3498.66 2.94777 0.55193 0
M  V30 37204 H 3496.22 1.54276 0.250701 0
M  V30 37205 H 3496.95 1.66652 2.78204 0
M  V30 37206 H 3496.74 3.30723 2.10629 0
M  V30 37207 H 3498.23 2.89716 3.00756 0
M  V30 37208 N 3498.66 -0.276003 1.55164 0
M  V30 37209 C 3499.61 -1.3411 1.87838 0
M  V30 37210 C 3500.58 -1.49219 0.729588 0
M  V30 37211 O 3501.76 -1.63674 0.980578 0
M  V30 37212 C 3498.9 -2.69689 2.15318 0
M  V30 37213 C 3498.02 -2.62827 3.4285 0
M  V30 37214 C 3497.15 -3.90565 3.60045 0
M  V30 37215 C 3496.19 -3.78201 4.8128 0
M  V30 37216 N 3495.33 -4.97768 4.95148 0
M  V30 37217 H 3500.17 -1.05546 2.78683 0
M  V30 37218 H 3497.71 -0.509977 1.37977 0
M  V30 37219 H 3499.66 -3.48569 2.29249 0
M  V30 37220 H 3498.29 -2.96462 1.27711 0
M  V30 37221 H 3497.35 -1.75673 3.37406 0
M  V30 37222 H 3498.66 -2.49589 4.31864 0
M  V30 37223 H 3497.81 -4.77886 3.73777 0
M  V30 37224 H 3496.55 -4.06666 2.6921 0
M  V30 37225 H 3495.56 -2.89263 4.67554 0
M  V30 37226 H 3496.78 -3.63622 5.73547 0
M  V30 37227 H 3494.73 -5.14285 4.07243 0
M  V30 37228 H 3494.64 -4.8705 5.78203 0
M  V30 37229 H 3495.91 -5.8667 5.13263 0
M  V30 37230 N 3500.14 -1.48046 -0.540378 0
M  V30 37231 C 3501.1 -1.61325 -1.6281 0
M  V30 37232 C 3502.1 -0.487188 -1.53242 0
M  V30 37233 O 3503.29 -0.752711 -1.57098 0
M  V30 37234 C 3500.43 -1.57365 -3.02406 0
M  V30 37235 H 3501.62 -2.58303 -1.5238 0
M  V30 37236 H 3499.17 -1.36488 -0.76163 0
M  V30 37237 H 3499.91 -0.618251 -3.18352 0
M  V30 37238 H 3499.69 -2.39105 -3.10759 0
M  V30 37239 H 3501.18 -1.69829 -3.81507 0
M  V30 37240 N 3501.62 0.788444 -1.3646 0
M  V30 37241 C 3502.85 1.57729 -1.339 0
M  V30 37242 C 3503.26 1.88632 0.0795139 0
M  V30 37243 O 3502.62 1.50197 1.03668 0
M  V30 37244 C 3502.67 2.89769 -2.16139 0
M  V30 37245 O 3502.39 2.60197 -3.52462 0
M  V30 37246 C 3503.89 3.8407 -2.21371 0
M  V30 37247 H 3501.11 0.489189 -0.459277 0
M  V30 37248 H 3503.66 0.978494 -1.79571 0
M  V30 37249 H 3501.81 3.46115 -1.74021 0
M  V30 37250 H 3502.22 3.44633 -3.95384 0
M  V30 37251 H 3503.7 4.73775 -2.83269 0
M  V30 37252 H 3504.18 4.2199 -1.21743 0
M  V30 37253 H 3504.78 3.33657 -2.63729 0
M  V30 37254 N 3503.1 1.20755 1.01271 0
M  V30 37255 C 3504.51 0.963243 1.27255 0
M  V30 37256 C 3504.71 -0.354938 1.98349 0
M  V30 37257 O 3503.77 -1.08251 2.28118 0
M  V30 37258 C 3505.08 2.14854 2.10376 0
M  V30 37259 C 3506.63 2.18995 2.23629 0
M  V30 37260 C 3507.1 3.37022 3.1013 0
M  V30 37261 N 3508.6 3.3706 3.17718 0
M  V30 37262 C 3509.33 4.25032 3.84884 0
M  V30 37263 N 3508.83 5.23189 4.54143 0
M  V30 37264 N 3510.62 4.12862 3.81446 0
M  V30 37265 H 3502.77 2.05539 0.535498 0
M  V30 37266 H 3505.03 0.899616 0.29899 0
M  V30 37267 H 3504.74 3.10338 1.65478 0
M  V30 37268 H 3504.61 2.13272 3.11119 0
M  V30 37269 H 3507 1.24071 2.6775 0
M  V30 37270 H 3507.08 2.24624 1.22383 0
M  V30 37271 H 3506.73 4.32234 2.66714 0
M  V30 37272 H 3506.66 3.2863 4.11473 0
M  V30 37273 H 3509.15 2.66019 2.68407 0
M  V30 37274 H 3509.46 5.86632 5.03073 0
M  V30 37275 H 3507.8 5.27121 4.52955 0
M  V30 37276 H 3511 3.35445 3.26488 0
M  V30 37277 H 3511.17 4.81632 4.33515 0
M  V30 37278 N 3504.58 -1.20642 1.01406 0
M  V30 37279 C 3505.49 -2.27015 0.591733 0
M  V30 37280 C 3506.5 -1.7003 -0.36955 0
M  V30 37281 O 3507.68 -2.00069 -0.23113 0
M  V30 37282 C 3504.74 -3.46637 -0.0659218 0
M  V30 37283 C 3503.8 -4.1886 0.940985 0
M  V30 37284 C 3503.04 -5.32772 0.314619 0
M  V30 37285 O 3503.26 -5.63472 -0.886305 0
M  V30 37286 O 3502.19 -5.9302 1.03008 0
M  V30 37287 H 3506.02 -2.65351 1.47725 0
M  V30 37288 H 3503.6 -1.27212 0.783421 0
M  V30 37289 H 3505.49 -4.19166 -0.433339 0
M  V30 37290 H 3504.16 -3.10182 -0.925675 0
M  V30 37291 H 3503.07 -3.48514 1.35972 0
M  V30 37292 H 3504.4 -4.59249 1.77062 0
M  V30 37293 N 3506.05 -0.789968 -1.36372 0
M  V30 37294 C 3507.02 -0.194679 -2.28372 0
M  V30 37295 C 3508.02 0.608306 -1.4885 0
M  V30 37296 O 3509.21 0.42922 -1.68829 0
M  V30 37297 C 3506.34 0.730495 -3.32981 0
M  V30 37298 H 3507.53 -1.0059 -2.82527 0
M  V30 37299 H 3505.08 -0.559431 -1.45945 0
M  V30 37300 H 3505.82 1.56603 -2.83982 0
M  V30 37301 H 3505.6 0.156637 -3.91787 0
M  V30 37302 H 3507.09 1.14185 -4.01686 0
M  V30 37303 N 3507.53 1.47986 -0.542031 0
M  V30 37304 C 3508.46 2.27817 0.25139 0
M  V30 37305 C 3509.48 1.36096 0.893412 0
M  V30 37306 O 3510.67 1.61047 0.769821 0
M  V30 37307 C 3507.77 3.09872 1.37231 0
M  V30 37308 C 3506.94 4.29454 0.829945 0
M  V30 37309 C 3506 4.93224 1.83347 0
M  V30 37310 O 3505.02 5.52077 1.38561 0
M  V30 37311 N 3506.23 4.8655 3.16622 0
M  V30 37312 H 3508.99 2.96551 -0.433333 0
M  V30 37313 H 3506.55 1.57446 -0.377126 0
M  V30 37314 H 3508.54 3.49402 2.04206 0
M  V30 37315 H 3507.11 2.43481 1.9605 0
M  V30 37316 H 3506.33 3.94197 -0.016152 0
M  V30 37317 H 3507.62 5.06836 0.446673 0
M  V30 37318 H 3507.02 4.39908 3.55665 0
M  V30 37319 H 3505.58 5.30144 3.79197 0
M  V30 37320 N 3509.01 0.277736 1.55133 0
M  V30 37321 C 3509.96 -0.608598 2.22631 0
M  V30 37322 C 3510.93 -1.14772 1.20069 0
M  V30 37323 O 3512.11 -1.19654 1.48619 0
M  V30 37324 C 3509.25 -1.78565 2.95311 0
M  V30 37325 C 3508.36 -1.28014 4.12597 0
M  V30 37326 C 3507.5 -2.4192 4.72914 0
M  V30 37327 C 3506.54 -1.88385 5.8239 0
M  V30 37328 N 3505.68 -2.95774 6.36759 0
M  V30 37329 H 3510.52 -0.0263615 2.97988 0
M  V30 37330 H 3508.05 -0.00124482 1.471 0
M  V30 37331 H 3510.01 -2.47758 3.35666 0
M  V30 37332 H 3508.64 -2.33988 2.22372 0
M  V30 37333 H 3507.69 -0.48123 3.77344 0
M  V30 37334 H 3509 -0.848041 4.91538 0
M  V30 37335 H 3508.16 -3.19101 5.16003 0
M  V30 37336 H 3506.9 -2.88446 3.93256 0
M  V30 37337 H 3505.9 -1.09684 5.38748 0
M  V30 37338 H 3507.13 -1.42791 6.63918 0
M  V30 37339 H 3505.07 -3.41678 5.59993 0
M  V30 37340 H 3504.99 -2.5699 7.1098 0
M  V30 37341 H 3506.26 -3.72923 6.84506 0
M  V30 37342 N 3510.49 -1.57599 0.00505908 0
M  V30 37343 C 3511.9 -1.55691 -0.351082 0
M  V30 37344 C 3512.1 -1.00821 -1.74463 0
M  V30 37345 O 3511.16 -0.644262 -2.44142 0
M  V30 37346 C 3512.47 -2.99882 -0.221685 0
M  V30 37347 C 3514.02 -3.11595 -0.296248 0
M  V30 37348 C 3514.5 -4.57581 -0.195918 0
M  V30 37349 N 3515.99 -4.62505 -0.25366 0
M  V30 37350 C 3516.72 -5.73053 -0.199445 0
M  V30 37351 N 3516.22 -6.92734 -0.0955335 0
M  V30 37352 N 3518.01 -5.61536 -0.25168 0
M  V30 37353 H 3510.16 -1.91604 0.916612 0
M  V30 37354 H 3512.42 -0.8803 0.351818 0
M  V30 37355 H 3512.13 -3.43885 0.737315 0
M  V30 37356 H 3512 -3.63656 -1.00171 0
M  V30 37357 H 3514.39 -2.67519 -1.2457 0
M  V30 37358 H 3514.47 -2.50588 0.513736 0
M  V30 37359 H 3514.12 -5.02332 0.750006 0
M  V30 37360 H 3514.05 -5.16539 -1.02446 0
M  V30 37361 H 3516.54 -3.76411 -0.335096 0
M  V30 37362 H 3516.85 -7.72777 -0.0601999 0
M  V30 37363 H 3515.2 -6.94973 -0.0610891 0
M  V30 37364 H 3518.39 -4.66928 -0.331091 0
M  V30 37365 H 3518.56 -6.47673 -0.205964 0
M  V30 37366 N 3511.97 0.267771 -1.55309 0
M  V30 37367 C 3512.93 1.31439 -1.87767 0
M  V30 37368 C 3513.93 1.42101 -0.752596 0
M  V30 37369 O 3515.12 1.41161 -1.02074 0
M  V30 37370 C 3512.25 2.69504 -2.08759 0
M  V30 37371 H 3513.44 1.03886 -2.81332 0
M  V30 37372 H 3511 0.506085 -1.4788 0
M  V30 37373 H 3511.73 3.02229 -1.17593 0
M  V30 37374 H 3511.52 2.63151 -2.90679 0
M  V30 37375 H 3513.01 3.45116 -2.35127 0
M  V30 37376 N 3513.44 1.48331 0.532519 0
M  V30 37377 C 3514.41 1.62186 1.61952 0
M  V30 37378 C 3515.41 0.495308 1.52981 0
M  V30 37379 O 3516.6 0.761032 1.56697 0
M  V30 37380 C 3513.73 1.58966 3.01567 0
M  V30 37381 H 3514.92 2.59107 1.51008 0
M  V30 37382 H 3512.47 1.3689 0.754381 0
M  V30 37383 H 3513.21 0.635125 3.1802 0
M  V30 37384 H 3512.99 2.4075 3.09487 0
M  V30 37385 H 3514.48 1.7185 3.80601 0
M  V30 37386 N 3514.92 -0.781196 1.36876 0
M  V30 37387 C 3515.88 -1.87577 1.3171 0
M  V30 37388 C 3516.88 -1.59245 0.223072 0
M  V30 37389 O 3518.07 -1.67503 0.478356 0
M  V30 37390 C 3515.21 -3.24528 1.04376 0
M  V30 37391 H 3516.4 -1.93572 2.29063 0
M  V30 37392 H 3513.95 -0.979909 1.21768 0
M  V30 37393 H 3514.69 -3.24213 0.0751511 0
M  V30 37394 H 3514.47 -3.46483 1.83554 0
M  V30 37395 H 3515.96 -4.046 1.03387 0
M  V30 37396 N 3516.4 -1.21291 -1.0063 0
M  V30 37397 C 3517.65 -1.02731 -1.74042 0
M  V30 37398 C 3517.97 0.440318 -1.89964 0
M  V30 37399 O 3517.24 1.3177 -1.4496 0
M  V30 37400 H 3515.82 -0.377138 -0.644807 0
M  V30 37401 H 3518.48 -1.52577 -1.21269 0
M  V30 37402 H 3517.58 -1.49418 -2.74008 0
M  V30 37403 N 3517.88 1.20103 -1.02045 0
M  V30 37404 C 3519.13 1.88892 -0.707304 0
M  V30 37405 C 3519.44 1.79952 0.766585 0
M  V30 37406 O 3520.65 2.43912 1.19244 0
M  V30 37407 C 3519.1 3.3878 -1.21476 0
M  V30 37408 C 3518.71 3.56296 -2.71583 0
M  V30 37409 C 3520.45 4.13099 -0.977219 0
M  V30 37410 C 3518.36 5.00031 -3.15789 0
M  V30 37411 H 3517.29 0.707433 -0.260872 0
M  V30 37412 H 3519.94 1.35844 -1.23364 0
M  V30 37413 H 3518.32 3.91173 -0.616384 0
M  V30 37414 H 3519.5 3.1427 -3.37003 0
M  V30 37415 H 3517.81 2.95354 -2.93522 0
M  V30 37416 H 3520.41 5.19082 -1.28288 0
M  V30 37417 H 3520.75 4.16211 0.0862177 0
M  V30 37418 H 3521.29 3.66817 -1.53916 0
M  V30 37419 H 3518.02 5.02076 -4.21426 0
M  V30 37420 H 3517.54 5.42852 -2.55092 0
M  V30 37421 H 3519.22 5.68635 -3.08647 0
M  V30 37422 N 3519.36 0.797189 1.35951 0
M  V30 37423 C 3520.29 0.146733 2.27728 0
M  V30 37424 C 3521.27 -0.681754 1.47617 0
M  V30 37425 O 3522.45 -0.651062 1.76899 0
M  V30 37426 C 3519.58 -0.797384 3.2918 0
M  V30 37427 C 3518.62 -0.0497101 4.26471 0
M  V30 37428 S 3519.46 1.27989 5.1998 0
M  V30 37429 C 3520.61 0.339974 6.24976 0
M  V30 37430 H 3520.85 0.924884 2.82548 0
M  V30 37431 H 3518.38 0.591784 1.42609 0
M  V30 37432 H 3520.34 -1.33662 3.8813 0
M  V30 37433 H 3519 -1.54884 2.73257 0
M  V30 37434 H 3518.19 -0.7664 4.98139 0
M  V30 37435 H 3517.79 0.419285 3.71642 0
M  V30 37436 H 3520.09 -0.478294 6.7581 0
M  V30 37437 H 3521.03 1.02556 7.00634 0
M  V30 37438 H 3521.44 -0.0601499 5.64468 0
M  V30 37439 N 3520.83 -1.47696 0.549872 0
M  V30 37440 C 3521.78 -2.29915 -0.201921 0
M  V30 37441 C 3522.75 -1.38608 -0.915263 0
M  V30 37442 O 3523.94 -1.67571 -0.912398 0
M  V30 37443 C 3521.08 -3.22415 -1.23054 0
M  V30 37444 C 3520.19 -4.2881 -0.524015 0
M  V30 37445 C 3519.32 -5.08469 -1.53729 0
M  V30 37446 C 3518.36 -6.06646 -0.815331 0
M  V30 37447 N 3517.5 -6.7929 -1.77509 0
M  V30 37448 H 3522.34 -2.93684 0.50534 0
M  V30 37449 H 3519.88 -1.44765 0.261038 0
M  V30 37450 H 3521.84 -3.74461 -1.83943 0
M  V30 37451 H 3520.47 -2.60527 -1.90593 0
M  V30 37452 H 3519.52 -3.79878 0.199241 0
M  V30 37453 H 3520.83 -4.98782 0.0419022 0
M  V30 37454 H 3519.98 -5.64628 -2.21991 0
M  V30 37455 H 3518.72 -4.38382 -2.13712 0
M  V30 37456 H 3517.73 -5.49672 -0.118744 0
M  V30 37457 H 3518.95 -6.78739 -0.221343 0
M  V30 37458 H 3516.9 -6.11938 -2.36363 0
M  V30 37459 H 3516.82 -7.45407 -1.26113 0
M  V30 37460 H 3518.08 -7.40027 -2.44908 0
M  V30 37461 N 3522.31 -0.285959 -1.54984 0
M  V30 37462 C 3523.26 0.612664 -2.24386 0
M  V30 37463 C 3524.25 1.14916 -1.24462 0
M  V30 37464 O 3525.46 1.10154 -1.42359 0
M  V30 37465 H 3521.84 0.216148 -0.720267 0
M  V30 37466 H 3523.81 0.00460423 -2.984 0
M  V30 37467 C 3522.56 1.78032 -2.98664 0
M  V30 37468 H 3521.88 1.3767 -3.75349 0
M  V30 37469 H 3523.32 2.38548 -3.50529 0
M  V30 37470 C 3521.78 2.67536 -2.04759 0
M  V30 37471 O 3522.31 3.68206 -1.60583 0
M  V30 37472 N 3520.51 2.34941 -1.7103 0
M  V30 37473 H 3520.06 1.53122 -2.0715 0
M  V30 37474 H 3520.02 2.95095 -1.08472 0
M  V30 37475 N 3523.79 1.57594 -0.0134169 0
M  V30 37476 C 3525.2 1.79091 0.527584 0
M  V30 37477 C 3525.55 0.922173 1.73177 0
M  V30 37478 O 3524.68 0.128271 2.1602 0
M  V30 37479 C 3525.27 3.24799 0.963892 0
M  V30 37480 C 3523.83 3.47345 1.45011 0
M  V30 37481 C 3522.98 2.7429 0.407499 0
M  V30 37482 H 3525.93 1.56882 -0.239533 0
M  V30 37483 H 3525.95 3.33649 1.82918 0
M  V30 37484 H 3525.46 3.88002 0.0872633 0
M  V30 37485 H 3523.56 2.89375 2.34719 0
M  V30 37486 H 3523.68 4.56045 1.46832 0
M  V30 37487 H 3522.04 2.39303 0.872132 0
M  V30 37488 H 3522.82 3.40199 -0.460393 0
M  V30 37489 N 3525.27 -0.259531 1.55448 0
M  V30 37490 C 3526.5 -1.0072 1.80729 0
M  V30 37491 C 3526.91 -1.7943 0.587385 0
M  V30 37492 O 3526.27 -1.77022 -0.443788 0
M  V30 37493 C 3526.32 -1.95512 3.04068 0
M  V30 37494 O 3526.04 -1.19989 4.21348 0
M  V30 37495 C 3527.54 -2.81982 3.42054 0
M  V30 37496 H 3524.76 -0.296945 0.601718 0
M  V30 37497 H 3527.31 -0.286237 2.02487 0
M  V30 37498 H 3525.46 -2.63053 2.84397 0
M  V30 37499 H 3525.87 -1.83997 4.91167 0
M  V30 37500 H 3527.35 -3.44266 4.31491 0
M  V30 37501 H 3527.83 -3.52447 2.62065 0
M  V30 37502 H 3528.43 -2.19912 3.64031 0
M  V30 37503 N 3526.75 -1.48611 -0.524645 0
M  V30 37504 C 3527.99 -1.57132 -1.28208 0
M  V30 37505 C 3528.33 -0.246785 -1.92626 0
M  V30 37506 O 3527.6 0.747694 -1.79554 0
M  V30 37507 C 3527.88 -2.71348 -2.36733 0
M  V30 37508 C 3527.74 -4.13523 -1.76971 0
M  V30 37509 C 3529.06 -2.813 -3.38465 0
M  V30 37510 H 3526.17 -0.571969 -0.46478 0
M  V30 37511 H 3528.82 -1.80805 -0.583905 0
M  V30 37512 H 3526.97 -2.51294 -2.96283 0
M  V30 37513 H 3528.64 -4.45031 -1.2143 0
M  V30 37514 H 3526.88 -4.20274 -1.07481 0
M  V30 37515 H 3527.55 -4.89271 -2.55575 0
M  V30 37516 H 3530.03 -2.99482 -2.88876 0
M  V30 37517 H 3528.9 -3.62935 -4.11788 0
M  V30 37518 H 3529.17 -1.89676 -3.99344 0
M  V30 37519 N 3528.22 0.773926 -1.37289 0
M  V30 37520 C 3529.5 1.52157 -1.22913 0
M  V30 37521 C 3529.88 2.10346 0.178212 0
M  V30 37522 O 3529.23 1.95335 1.1856 0
M  V30 37523 C 3529.44 2.6042 -2.32342 0
M  V30 37524 C 3530.79 3.27882 -2.69775 0
M  V30 37525 O 3531.81 2.70713 -2.31501 0
M  V30 37526 O 3530.67 4.31235 -3.35706 0
M  V30 37527 H 3527.76 0.673808 -0.479492 0
M  V30 37528 H 3530.31 0.811079 -1.49062 0
M  V30 37529 H 3529.08 2.15526 -3.26595 0
M  V30 37530 H 3528.71 3.39072 -2.07644 0
M  V30 37531 N 3529.7 1.21823 0.99985 0
M  V30 37532 C 3530.95 1.03653 1.73495 0
M  V30 37533 C 3531.27 -0.430237 1.90195 0
M  V30 37534 O 3530.54 -1.30999 1.45657 0
M  V30 37535 H 3529.12 0.380552 0.642798 0
M  V30 37536 H 3531.78 1.53218 1.20458 0
M  V30 37537 H 3530.88 1.50869 2.73212 0
M  V30 37538 N 3531.18 -1.1956 1.0268 0
M  V30 37539 C 3532.43 -1.88514 0.717312 0
M  V30 37540 C 3532.74 -1.80356 -0.757031 0
M  V30 37541 O 3533.95 -2.44541 -1.17949 0
M  V30 37542 C 3532.4 -3.38131 1.23271 0
M  V30 37543 C 3532.01 -3.54851 2.73468 0
M  V30 37544 C 3533.76 -4.12575 0.999113 0
M  V30 37545 C 3531.66 -4.98349 3.18437 0
M  V30 37546 H 3530.59 -0.70604 0.26462 0
M  V30 37547 H 3533.24 -1.35188 1.24083 0
M  V30 37548 H 3531.63 -3.90841 0.63712 0
M  V30 37549 H 3532.8 -3.12479 3.38664 0
M  V30 37550 H 3531.12 -2.93793 2.95084 0
M  V30 37551 H 3533.71 -5.18395 1.31039 0
M  V30 37552 H 3534.06 -4.16251 -0.0641438 0
M  V30 37553 H 3534.59 -3.65995 1.5586 0
M  V30 37554 H 3531.33 -4.99834 4.24082 0
M  V30 37555 H 3530.85 -5.41491 2.57967 0
M  V30 37556 H 3532.53 -5.6699 3.11659 0
M  V30 37557 N 3532.66 -0.804387 -1.35526 0
M  V30 37558 C 3533.89 -0.396127 -2.03073 0
M  V30 37559 C 3534.3 0.992224 -1.60625 0
M  V30 37560 O 3533.66 1.63897 -0.802746 0
M  V30 37561 C 3533.71 -0.467364 -3.58466 0
M  V30 37562 O 3533.43 -1.80098 -3.9937 0
M  V30 37563 C 3534.93 -0.0516328 -4.4327 0
M  V30 37564 H 3532.15 -0.161224 -0.651343 0
M  V30 37565 H 3534.7 -1.0874 -1.73193 0
M  V30 37566 H 3532.85 0.175635 -3.87002 0
M  V30 37567 H 3533.26 -1.76223 -4.9401 0
M  V30 37568 H 3534.74 -0.152596 -5.51789 0
M  V30 37569 H 3535.22 1.00278 -4.27599 0
M  V30 37570 H 3535.82 -0.667702 -4.20026 0
M  V30 37571 N 3534.14 1.47403 -0.557697 0
M  V30 37572 C 3535.38 2.02772 -0.0338741 0
M  V30 37573 C 3535.72 1.4311 1.31276 0
M  V30 37574 O 3534.99 0.586853 1.85435 0
M  V30 37575 C 3535.27 3.60052 0.0586794 0
M  V30 37576 C 3535.13 4.30146 -1.31508 0
M  V30 37577 C 3536.45 4.33278 0.771866 0
M  V30 37578 H 3533.57 0.736871 -0.013784 0
M  V30 37579 H 3536.21 1.75826 -0.72008 0
M  V30 37580 H 3534.36 3.83141 0.643086 0
M  V30 37581 H 3536.03 4.18397 -1.94273 0
M  V30 37582 H 3534.27 3.90481 -1.88963 0
M  V30 37583 H 3534.94 5.38731 -1.20303 0
M  V30 37584 H 3537.42 4.15186 0.275656 0
M  V30 37585 H 3536.3 5.42956 0.805588 0
M  V30 37586 H 3536.56 4.02534 1.82809 0
M  V30 37587 N 3535.62 0.294175 1.5483 0
M  V30 37588 C 3536.86 -0.317839 1.9918 0
M  V30 37589 C 3537.18 -1.5553 1.18617 0
M  V30 37590 O 3538.38 -2.24147 1.53201 0
M  V30 37591 C 3536.84 -0.61683 3.54575 0
M  V30 37592 C 3536.45 0.6019 4.43938 0
M  V30 37593 C 3538.19 -1.19042 4.07467 0
M  V30 37594 C 3536.1 0.27644 5.90754 0
M  V30 37595 H 3535.03 -0.122537 0.743976 0
M  V30 37596 H 3537.68 0.401813 1.79047 0
M  V30 37597 H 3536.06 -1.39589 3.70582 0
M  V30 37598 H 3537.24 1.3783 4.39704 0
M  V30 37599 H 3535.55 1.09365 4.01781 0
M  V30 37600 H 3538.15 -1.44805 5.14719 0
M  V30 37601 H 3538.49 -2.13048 3.57654 0
M  V30 37602 H 3539.02 -0.473212 3.94975 0
M  V30 37603 H 3535.76 1.18489 6.44702 0
M  V30 37604 H 3535.28 -0.462823 5.98012 0
M  V30 37605 H 3536.96 -0.124473 6.4688 0
M  V30 37606 N 3537.09 -1.57585 0.0217743 0
M  V30 37607 C 3538.37 -1.82772 -0.696701 0
M  V30 37608 C 3538.75 -0.904146 -1.90757 0
M  V30 37609 O 3538.1 0.042012 -2.28461 0
M  V30 37610 C 3538.31 -3.31808 -1.08187 0
M  V30 37611 C 3539.66 -3.98098 -1.4766 0
M  V30 37612 O 3540.68 -3.3626 -1.17506 0
M  V30 37613 O 3539.54 -5.07071 -2.03816 0
M  V30 37614 H 3536.63 -0.753366 -0.341127 0
M  V30 37615 H 3539.18 -1.6963 0.048895 0
M  V30 37616 H 3537.95 -3.90683 -0.21973 0
M  V30 37617 H 3537.57 -3.5003 -1.88587 0
M  V30 37618 N 3538.57 0.251283 -1.55584 0
M  V30 37619 C 3539.5 1.31483 -1.92962 0
M  V30 37620 C 3540.48 1.5043 -0.794027 0
M  V30 37621 O 3541.67 1.63112 -1.05396 0
M  V30 37622 C 3538.8 2.67041 -2.22051 0
M  V30 37623 C 3537.75 2.62795 -3.37821 0
M  V30 37624 C 3537.08 4.02107 -3.5244 0
M  V30 37625 C 3538.38 2.20163 -4.7363 0
M  V30 37626 H 3540.07 1.00446 -2.82048 0
M  V30 37627 H 3537.62 0.481751 -1.35702 0
M  V30 37628 H 3539.57 3.41575 -2.46789 0
M  V30 37629 H 3538.29 2.99705 -1.29787 0
M  V30 37630 H 3536.95 1.90718 -3.13085 0
M  V30 37631 H 3536.6 4.32029 -2.57604 0
M  V30 37632 H 3536.3 4.00155 -4.3029 0
M  V30 37633 H 3537.83 4.78348 -3.79494 0
M  V30 37634 H 3539.24 2.84427 -4.97769 0
M  V30 37635 H 3537.64 2.29331 -5.54551 0
M  V30 37636 H 3538.71 1.15322 -4.70987 0
M  V30 37637 N 3540.05 1.48887 0.516757 0
M  V30 37638 C 3541.33 1.48071 1.27806 0
M  V30 37639 C 3541.71 0.199667 2.10154 0
M  V30 37640 O 3541.05 -0.818349 2.13343 0
M  V30 37641 C 3541.26 2.75049 2.14823 0
M  V30 37642 C 3542.61 3.23911 2.74531 0
M  V30 37643 O 3543.64 2.76057 2.25102 0
M  V30 37644 O 3542.5 4.07212 3.64473 0
M  V30 37645 H 3539.59 0.591941 0.577524 0
M  V30 37646 H 3542.14 1.61135 0.532322 0
M  V30 37647 H 3540.91 3.59788 1.53845 0
M  V30 37648 H 3540.53 2.6477 2.96619 0
M  V30 37649 N 3541.53 -0.766635 1.37697 0
M  V30 37650 C 3542.94 -1.34322 1.29671 0
M  V30 37651 C 3543.29 -1.96127 -0.0533953 0
M  V30 37652 O 3542.41 -1.94172 -0.955306 0
M  V30 37653 C 3543.01 -2.44221 2.34823 0
M  V30 37654 C 3541.57 -2.97634 2.30415 0
M  V30 37655 C 3540.72 -1.70895 2.18381 0
M  V30 37656 H 3543.67 -0.5665 1.48245 0
M  V30 37657 H 3543.69 -3.23831 1.99784 0
M  V30 37658 H 3543.2 -1.99208 3.33073 0
M  V30 37659 H 3541.3 -3.47009 1.35704 0
M  V30 37660 H 3541.41 -3.529 3.24034 0
M  V30 37661 H 3539.78 -1.94018 1.65012 0
M  V30 37662 H 3540.56 -1.27979 3.18553 0
M  V30 37663 N 3543.01 -1.22351 -0.993375 0
M  V30 37664 C 3544.25 -1.04192 -1.72705 0
M  V30 37665 C 3544.57 0.423347 -1.90964 0
M  V30 37666 O 3545.77 0.724599 -2.61652 0
M  V30 37667 C 3544.23 -1.81581 -3.10735 0
M  V30 37668 C 3543.84 -3.32353 -3.00409 0
M  V30 37669 C 3545.58 -1.71868 -3.88152 0
M  V30 37670 C 3543.49 -4.02185 -4.33591 0
M  V30 37671 H 3542.42 -0.38626 -0.647549 0
M  V30 37672 H 3545.07 -1.46197 -1.10899 0
M  V30 37673 H 3543.45 -1.32374 -3.7322 0
M  V30 37674 H 3544.63 -3.8895 -2.47092 0
M  V30 37675 H 3542.94 -3.42736 -2.36476 0
M  V30 37676 H 3545.54 -2.21363 -4.86726 0
M  V30 37677 H 3545.88 -0.679011 -4.10725 0
M  V30 37678 H 3546.41 -2.18615 -3.32344 0
M  V30 37679 H 3543.15 -5.06403 -4.16217 0
M  V30 37680 H 3542.67 -3.50376 -4.86823 0
M  V30 37681 H 3544.35 -4.07753 -5.02341 0
M  V30 37682 N 3544.48 1.19014 -1.03313 0
M  V30 37683 C 3545.89 1.70482 -0.761109 0
M  V30 37684 C 3546.25 1.82558 0.718819 0
M  V30 37685 O 3545.37 1.49973 1.56004 0
M  V30 37686 C 3545.97 3.09645 -1.37498 0
M  V30 37687 C 3544.52 3.58355 -1.15145 0
M  V30 37688 C 3543.67 2.35107 -1.47038 0
M  V30 37689 H 3546.62 1.03795 -1.20051 0
M  V30 37690 H 3546.64 3.72541 -0.77418 0
M  V30 37691 H 3546.16 3.00823 -2.45208 0
M  V30 37692 H 3544.26 3.72485 -0.0927476 0
M  V30 37693 H 3544.37 4.42227 -1.84315 0
M  V30 37694 H 3542.73 2.3865 -0.889836 0
M  V30 37695 H 3543.52 2.28911 -2.55841 0
M  V30 37696 N 3545.96 0.811563 1.35098 0
M  V30 37697 C 3547.19 0.406301 2.02565 0
M  V30 37698 C 3547.6 -0.989003 1.61293 0
M  V30 37699 O 3546.94 -1.6495 0.808525 0
M  V30 37700 C 3547 0.41591 3.57086 0
M  V30 37701 C 3546.67 1.76258 4.21642 0
M  V30 37702 C 3547.67 2.72166 4.42969 0
M  V30 37703 C 3545.35 2.04796 4.58655 0
M  V30 37704 C 3547.34 3.94792 5.00418 0
M  V30 37705 C 3545.03 3.27683 5.15817 0
M  V30 37706 C 3546.03 4.22499 5.36641 0
M  V30 37707 O 3545.72 5.43217 5.92596 0
M  V30 37708 H 3545.45 0.162624 0.656147 0
M  V30 37709 H 3548 1.09792 1.73594 0
M  V30 37710 H 3546.23 -0.332341 3.85269 0
M  V30 37711 H 3547.92 0.0322724 4.05887 0
M  V30 37712 H 3548.69 2.51412 4.14749 0
M  V30 37713 H 3544.57 1.31802 4.41757 0
M  V30 37714 H 3548.11 4.6881 5.16588 0
M  V30 37715 H 3544.01 3.48306 5.43464 0
M  V30 37716 H 3544.78 5.44582 6.11042 0
M  V30 37717 N 3547.44 -1.47105 0.565506 0
M  V30 37718 C 3548.72 -1.95588 -0.0215014 0
M  V30 37719 C 3549.1 -1.50815 -1.47709 0
M  V30 37720 O 3548.44 -0.750814 -2.15813 0
M  V30 37721 C 3548.65 -3.48748 0.132613 0
M  V30 37722 C 3550 -4.24599 -0.00846127 0
M  V30 37723 O 3551.03 -3.56148 0.0605769 0
M  V30 37724 O 3549.89 -5.4627 -0.158423 0
M  V30 37725 H 3546.98 -0.824858 -0.0594866 0
M  V30 37726 H 3549.53 -1.57468 0.632614 0
M  V30 37727 H 3548.3 -3.74168 1.14518 0
M  V30 37728 H 3547.92 -3.93655 -0.558732 0
M  V30 37729 N 3548.92 -0.302382 -1.54672 0
M  V30 37730 C 3550.33 0.189986 -1.85731 0
M  V30 37731 C 3550.68 1.53314 -1.2243 0
M  V30 37732 O 3549.81 2.09997 -0.522498 0
M  V30 37733 C 3550.4 0.351503 -3.36972 0
M  V30 37734 C 3548.96 0.78809 -3.68057 0
M  V30 37735 C 3548.11 -0.102754 -2.7711 0
M  V30 37736 H 3551.06 -0.52335 -1.49822 0
M  V30 37737 H 3551.08 1.18586 -3.61549 0
M  V30 37738 H 3550.59 -0.626219 -3.83015 0
M  V30 37739 H 3548.69 1.77631 -3.27533 0
M  V30 37740 H 3548.8 0.606521 -4.75245 0
M  V30 37741 H 3547.17 0.418191 -2.51243 0
M  V30 37742 H 3547.95 -1.07685 -3.25974 0
M  V30 37743 N 3550.4 1.57571 -0.0301311 0
M  V30 37744 C 3551.34 2.10279 0.951384 0
M  V30 37745 C 3552.31 1.0051 1.32238 0
M  V30 37746 O 3553.5 1.27936 1.41552 0
M  V30 37747 C 3550.64 2.63529 2.22815 0
M  V30 37748 C 3549.75 3.87309 1.91352 0
M  V30 37749 C 3548.89 4.28949 3.13331 0
M  V30 37750 C 3547.93 5.45485 2.77692 0
M  V30 37751 N 3547.06 5.82276 3.923 0
M  V30 37752 H 3551.9 2.9386 0.494998 0
M  V30 37753 H 3549.44 1.45247 0.232731 0
M  V30 37754 H 3551.4 2.92492 2.97497 0
M  V30 37755 H 3550.03 1.82777 2.66069 0
M  V30 37756 H 3549.08 3.65068 1.06909 0
M  V30 37757 H 3550.39 4.72067 1.61104 0
M  V30 37758 H 3549.55 4.59354 3.96332 0
M  V30 37759 H 3548.28 3.4296 3.46741 0
M  V30 37760 H 3547.29 5.14773 1.93104 0
M  V30 37761 H 3548.51 6.33173 2.45497 0
M  V30 37762 H 3546.46 4.99243 4.2555 0
M  V30 37763 H 3546.38 6.61676 3.65679 0
M  V30 37764 H 3547.65 6.17287 4.76001 0
M  V30 37765 N 3551.87 -0.243029 1.55715 0
M  V30 37766 C 3553.12 -0.970524 1.77728 0
M  V30 37767 C 3553.45 -1.85171 0.59514 0
M  V30 37768 O 3552.7 -1.91109 -0.421396 0
M  V30 37769 C 3553 -1.8584 3.05284 0
M  V30 37770 C 3552.67 -1.13224 4.36453 0
M  V30 37771 C 3551.33 -0.931573 4.72097 0
M  V30 37772 C 3553.68 -0.617853 5.17525 0
M  V30 37773 C 3551.01 -0.20427 5.86344 0
M  V30 37774 C 3553.36 0.0960011 6.32527 0
M  V30 37775 C 3552.03 0.308117 6.66788 0
M  V30 37776 H 3551.3 -0.35514 0.650351 0
M  V30 37777 H 3553.94 -0.240317 1.89986 0
M  V30 37778 H 3552.25 -2.65579 2.88054 0
M  V30 37779 H 3553.95 -2.42304 3.19515 0
M  V30 37780 H 3550.54 -1.2986 4.08454 0
M  V30 37781 H 3554.72 -0.76042 4.9044 0
M  V30 37782 H 3549.98 -0.0294925 6.11393 0
M  V30 37783 H 3554.15 0.502199 6.94587 0
M  V30 37784 H 3551.78 0.873635 7.55163 0
M  V30 37785 N 3553.35 -1.49159 -0.508854 0
M  V30 37786 C 3554.26 -1.67969 -1.63779 0
M  V30 37787 C 3555.28 -0.562236 -1.64666 0
M  V30 37788 O 3556.45 -0.835968 -1.83231 0
M  V30 37789 C 3553.52 -1.73479 -3.00176 0
M  V30 37790 C 3552.58 -2.97005 -3.09978 0
M  V30 37791 C 3551.81 -3.02243 -4.39869 0
M  V30 37792 O 3552.04 -2.15291 -5.2821 0
M  V30 37793 O 3550.97 -3.94629 -4.54479 0
M  V30 37794 H 3554.8 -2.63592 -1.50841 0
M  V30 37795 H 3552.38 -1.32808 -0.684283 0
M  V30 37796 H 3554.26 -1.79502 -3.81257 0
M  V30 37797 H 3552.94 -0.810343 -3.13393 0
M  V30 37798 H 3551.85 -2.96504 -2.28114 0
M  V30 37799 H 3553.18 -3.88904 -3.01686 0
M  V30 37800 N 3554.83 0.759322 -1.38102 0
M  V30 37801 C 3555.78 1.87294 -1.34869 0
M  V30 37802 C 3556.75 1.64739 -0.212168 0
M  V30 37803 O 3557.93 1.86485 -0.403497 0
M  V30 37804 C 3555.07 3.24521 -1.17389 0
M  V30 37805 C 3554.19 3.58946 -2.40379 0
M  V30 37806 C 3553.32 4.85447 -2.15673 0
M  V30 37807 C 3552.36 5.1264 -3.34464 0
M  V30 37808 N 3551.5 6.30334 -3.09231 0
M  V30 37809 H 3556.34 1.89392 -2.30076 0
M  V30 37810 H 3553.87 0.925768 -1.14315 0
M  V30 37811 H 3555.83 4.037 -1.05271 0
M  V30 37812 H 3554.46 3.21765 -0.258239 0
M  V30 37813 H 3553.51 2.74655 -2.6319 0
M  V30 37814 H 3554.83 3.74973 -3.28933 0
M  V30 37815 H 3553.98 5.72557 -2.00659 0
M  V30 37816 H 3552.72 4.71548 -1.24475 0
M  V30 37817 H 3551.72 4.24001 -3.50004 0
M  V30 37818 H 3552.95 5.2844 -4.2653 0
M  V30 37819 H 3550.89 6.17769 -2.20675 0
M  V30 37820 H 3550.81 6.46834 -3.91333 0
M  V30 37821 H 3552.08 7.20347 -2.9786 0
M  V30 37822 N 3556.31 1.22876 0.986873 0
M  V30 37823 C 3557.24 0.962008 2.08034 0
M  V30 37824 C 3558.25 -0.0616189 1.62683 0
M  V30 37825 O 3559.44 0.173125 1.77658 0
M  V30 37826 C 3556.54 0.426361 3.36207 0
M  V30 37827 C 3555.72 1.50863 4.10559 0
M  V30 37828 C 3554.77 0.979001 5.17013 0
M  V30 37829 O 3553.8 1.66655 5.44256 0
M  V30 37830 N 3555 -0.196511 5.80167 0
M  V30 37831 H 3557.77 1.9034 2.31497 0
M  V30 37832 H 3555.33 1.13647 1.15308 0
M  V30 37833 H 3557.32 0.0572288 4.0466 0
M  V30 37834 H 3555.89 -0.420291 3.09762 0
M  V30 37835 H 3555.11 2.05082 3.36653 0
M  V30 37836 H 3556.4 2.23663 4.57004 0
M  V30 37837 H 3555.8 -0.771794 5.6041 0
M  V30 37838 H 3554.35 -0.506969 6.49825 0
M  V30 37839 N 3557.79 -1.18464 1.03942 0
M  V30 37840 C 3558.72 -2.24264 0.650221 0
M  V30 37841 C 3559.7 -1.66545 -0.345938 0
M  V30 37842 O 3560.88 -1.92877 -0.226314 0
M  V30 37843 C 3558.01 -3.47298 0.0111061 0
M  V30 37844 C 3556.97 -4.17759 0.930672 0
M  V30 37845 C 3556.29 -5.34472 0.156099 0
M  V30 37846 C 3557.59 -4.71389 2.24921 0
M  V30 37847 H 3559.29 -2.57075 1.53469 0
M  V30 37848 H 3556.83 -1.23569 0.739365 0
M  V30 37849 H 3558.79 -4.20516 -0.272885 0
M  V30 37850 H 3557.51 -3.13718 -0.908233 0
M  V30 37851 H 3556.17 -3.46437 1.19903 0
M  V30 37852 H 3555.82 -4.97139 -0.765607 0
M  V30 37853 H 3555.52 -5.8255 0.768709 0
M  V30 37854 H 3557.04 -6.1048 -0.120904 0
M  V30 37855 H 3558.45 -5.36307 2.02601 0
M  V30 37856 H 3556.85 -5.29996 2.81468 0
M  V30 37857 H 3557.92 -3.88879 2.89657 0
M  V30 37858 N 3559.26 -0.818716 -1.34665 0
M  V30 37859 C 3560.51 -0.403995 -1.98021 0
M  V30 37860 C 3560.83 1.03539 -1.65241 0
M  V30 37861 O 3560.1 1.7182 -0.941 0
M  V30 37862 H 3558.68 -0.146395 -0.732514 0
M  V30 37863 H 3561.35 -1.04723 -1.64375 0
M  V30 37864 H 3560.44 -0.51957 -3.07745 0
M  V30 37865 N 3560.74 1.46803 -0.573299 0
M  V30 37866 C 3561.67 2.28299 0.20301 0
M  V30 37867 C 3562.69 1.3796 0.864343 0
M  V30 37868 O 3563.88 1.62643 0.735488 0
M  V30 37869 C 3560.98 3.12714 1.30627 0
M  V30 37870 C 3560.15 4.31118 0.738665 0
M  V30 37871 C 3559.21 4.97002 1.72844 0
M  V30 37872 O 3558.23 5.54892 1.2682 0
M  V30 37873 N 3559.44 4.93156 3.06231 0
M  V30 37874 H 3562.2 2.95565 -0.496138 0
M  V30 37875 H 3559.76 1.56611 -0.410438 0
M  V30 37876 H 3561.75 3.53655 1.96749 0
M  V30 37877 H 3560.32 2.47585 1.90842 0
M  V30 37878 H 3559.54 3.94074 -0.0997634 0
M  V30 37879 H 3560.83 5.07669 0.339065 0
M  V30 37880 H 3560.23 4.47353 3.46254 0
M  V30 37881 H 3558.79 5.38068 3.67867 0
M  V30 37882 N 3562.22 0.31058 1.54509 0
M  V30 37883 C 3563.47 -0.296308 2.00624 0
M  V30 37884 C 3563.8 -1.528 1.19858 0
M  V30 37885 O 3563.07 -1.9251 0.277502 0
M  V30 37886 C 3563.36 -0.643386 3.54306 0
M  V30 37887 C 3563.21 0.598107 4.45806 0
M  V30 37888 C 3564.53 -1.46615 4.1496 0
M  V30 37889 H 3561.65 -0.106223 0.729305 0
M  V30 37890 H 3564.29 0.424581 1.85195 0
M  V30 37891 H 3562.44 -1.25756 3.67584 0
M  V30 37892 H 3564.11 1.23651 4.44419 0
M  V30 37893 H 3562.36 1.22951 4.16011 0
M  V30 37894 H 3563.03 0.31098 5.51123 0
M  V30 37895 H 3565.5 -0.947128 4.05177 0
M  V30 37896 H 3564.38 -1.67778 5.2263 0
M  V30 37897 H 3564.64 -2.45832 3.67449 0
M  V30 37898 N 3563.7 -1.57553 0.0384871 0
M  V30 37899 C 3564.63 -2.06311 -0.975248 0
M  V30 37900 C 3565.61 -0.960863 -1.31172 0
M  V30 37901 O 3566.79 -1.23188 -1.42678 0
M  V30 37902 C 3563.92 -2.49301 -2.29274 0
M  V30 37903 C 3562.97 -3.70637 -2.11022 0
M  V30 37904 S 3563.8 -5.16866 -1.40034 0
M  V30 37905 C 3564.96 -5.6316 -2.73133 0
M  V30 37906 H 3565.19 -2.91974 -0.560242 0
M  V30 37907 H 3562.72 -1.53423 -0.173452 0
M  V30 37908 H 3564.68 -2.74733 -3.05011 0
M  V30 37909 H 3563.34 -1.63967 -2.67906 0
M  V30 37910 H 3562.53 -3.98595 -3.08444 0
M  V30 37911 H 3562.14 -3.45405 -1.43427 0
M  V30 37912 H 3564.43 -5.67971 -3.69344 0
M  V30 37913 H 3565.37 -6.62565 -2.49828 0
M  V30 37914 H 3565.78 -4.90841 -2.7881 0
M  V30 37915 N 3565.18 0.234767 -1.55842 0
M  V30 37916 C 3566.11 1.29429 -1.94346 0
M  V30 37917 C 3567.09 1.49579 -0.809938 0
M  V30 37918 O 3568.27 1.61985 -1.0712 0
M  V30 37919 C 3565.4 2.64671 -2.24871 0
M  V30 37920 C 3564.36 2.59197 -3.40589 0
M  V30 37921 C 3563.68 3.98346 -3.56685 0
M  V30 37922 C 3564.98 2.15127 -4.75939 0
M  V30 37923 H 3566.68 0.97449 -2.83097 0
M  V30 37924 H 3564.22 0.467331 -1.36206 0
M  V30 37925 H 3566.18 3.38938 -2.50398 0
M  V30 37926 H 3564.9 2.98311 -1.32959 0
M  V30 37927 H 3563.56 1.87387 -3.1509 0
M  V30 37928 H 3563.21 4.29273 -2.62172 0
M  V30 37929 H 3562.91 3.95569 -4.3451 0
M  V30 37930 H 3564.43 4.74296 -3.84546 0
M  V30 37931 H 3565.85 2.79131 -5.00758 0
M  V30 37932 H 3564.24 2.23436 -5.56953 0
M  V30 37933 H 3565.31 1.1032 -4.72184 0
M  V30 37934 N 3566.66 1.49427 0.500936 0
M  V30 37935 C 3567.59 1.69013 1.61111 0
M  V30 37936 C 3568.57 0.538842 1.6134 0
M  V30 37937 O 3569.75 0.774691 1.78079 0
M  V30 37938 C 3566.88 1.75671 2.99595 0
M  V30 37939 C 3565.84 2.90591 3.14231 0
M  V30 37940 C 3565.16 2.82362 4.54066 0
M  V30 37941 C 3566.46 4.31525 2.9425 0
M  V30 37942 H 3568.16 2.6196 1.44974 0
M  V30 37943 H 3565.7 1.26062 0.696007 0
M  V30 37944 H 3567.65 1.8796 3.77159 0
M  V30 37945 H 3566.38 0.793241 3.16821 0
M  V30 37946 H 3565.04 2.77905 2.39091 0
M  V30 37947 H 3564.69 1.83922 4.68168 0
M  V30 37948 H 3564.39 3.59493 4.648 0
M  V30 37949 H 3565.91 2.96658 5.33691 0
M  V30 37950 H 3567.32 4.44893 3.61584 0
M  V30 37951 H 3565.72 5.09878 3.16455 0
M  V30 37952 H 3566.79 4.45966 1.90375 0
M  V30 37953 N 3568.13 -0.751987 1.38502 0
M  V30 37954 C 3569.38 -1.51339 1.34997 0
M  V30 37955 C 3569.71 -1.94109 -0.0594383 0
M  V30 37956 O 3568.99 -1.6555 -1.02095 0
M  V30 37957 C 3569.27 -2.76487 2.3071 0
M  V30 37958 C 3569.12 -2.39844 3.80519 0
M  V30 37959 C 3570.44 -3.78517 2.24528 0
M  V30 37960 H 3567.56 -0.549003 0.491696 0
M  V30 37961 H 3570.2 -0.861175 1.69363 0
M  V30 37962 H 3568.35 -3.32139 2.01534 0
M  V30 37963 H 3570.03 -1.89955 4.20375 0
M  V30 37964 H 3568.27 -1.72283 3.98122 0
M  V30 37965 H 3568.94 -3.2939 4.42952 0
M  V30 37966 H 3571.42 -3.32408 2.50288 0
M  V30 37967 H 3570.29 -4.63774 2.93606 0
M  V30 37968 H 3570.55 -4.24218 1.24465 0
M  V30 37969 N 3569.61 -1.23398 -0.980343 0
M  V30 37970 C 3570.54 -1.03964 -2.09078 0
M  V30 37971 C 3571.52 0.0434647 -1.70044 0
M  V30 37972 O 3572.71 -0.121189 -1.93821 0
M  V30 37973 C 3569.84 -0.630121 -3.41536 0
M  V30 37974 C 3568.79 -1.66058 -3.94473 0
M  V30 37975 C 3568.12 -1.1065 -5.23126 0
M  V30 37976 C 3569.42 -3.05361 -4.23736 0
M  V30 37977 H 3571.11 -1.96844 -2.25594 0
M  V30 37978 H 3568.66 -0.947829 -1.08408 0
M  V30 37979 H 3570.61 -0.481218 -4.18643 0
M  V30 37980 H 3569.33 0.334358 -3.24884 0
M  V30 37981 H 3567.99 -1.79747 -3.1951 0
M  V30 37982 H 3567.64 -0.133002 -5.02824 0
M  V30 37983 H 3567.34 -1.79501 -5.59511 0
M  V30 37984 H 3568.87 -0.96945 -6.02855 0
M  V30 37985 H 3570.28 -2.94973 -4.91593 0
M  V30 37986 H 3568.68 -3.71451 -4.71322 0
M  V30 37987 H 3569.75 -3.54349 -3.31006 0
M  V30 37988 N 3571.09 1.17911 -1.04569 0
M  V30 37989 C 3572.33 1.89705 -0.76101 0
M  V30 37990 C 3572.69 1.78833 0.698773 0
M  V30 37991 O 3573.89 2.45384 1.09728 0
M  V30 37992 C 3572.17 3.35915 -1.22048 0
M  V30 37993 S 3573.72 4.25749 -1.06221 0
M  V30 37994 H 3570.54 0.655012 -0.27655 0
M  V30 37995 H 3573.14 1.42444 -1.33903 0
M  V30 37996 H 3571.85 3.4136 -2.27819 0
M  V30 37997 H 3571.38 3.88217 -0.63647 0
M  V30 37998 H 3573.39 4.96197 0.0173614 0
M  V30 37999 N 3572.57 0.825847 1.34229 0
M  V30 38000 C 3573.81 0.415926 1.98489 0
M  V30 38001 C 3574.15 -1.0191 1.65312 0
M  V30 38002 O 3573.42 -1.71029 0.926253 0
M  V30 38003 C 3573.7 0.621847 3.5469 0
M  V30 38004 C 3573.56 2.1032 3.976 0
M  V30 38005 C 3574.88 0.0596645 4.4006 0
M  V30 38006 H 3572 0.152595 0.72103 0
M  V30 38007 H 3574.64 1.03895 1.59078 0
M  V30 38008 H 3572.79 0.0915122 3.88392 0
M  V30 38009 H 3574.46 2.6974 3.74217 0
M  V30 38010 H 3572.7 2.59257 3.47805 0
M  V30 38011 H 3573.37 2.19808 5.06348 0
M  V30 38012 H 3575.85 0.512815 4.12928 0
M  V30 38013 H 3574.73 0.233527 5.48403 0
M  V30 38014 H 3574.99 -1.0356 4.298 0
M  V30 38015 N 3574.05 -1.46497 0.581077 0
M  V30 38016 C 3575.27 -2.06776 0.0716016 0
M  V30 38017 C 3575.69 -1.43008 -1.23265 0
M  V30 38018 O 3575.05 -0.534807 -1.74488 0
M  V30 38019 C 3575.1 -3.61354 -0.102602 0
M  V30 38020 O 3574.82 -4.22737 1.15002 0
M  V30 38021 C 3576.32 -4.38559 -0.646615 0
M  V30 38022 H 3573.54 -0.668599 0.0567081 0
M  V30 38023 H 3576.08 -1.88148 0.801281 0
M  V30 38024 H 3574.24 -3.79415 -0.782497 0
M  V30 38025 H 3574.65 -5.15587 0.962808 0
M  V30 38026 H 3576.13 -5.47314 -0.717694 0
M  V30 38027 H 3576.6 -4.06489 -1.66323 0
M  V30 38028 H 3577.21 -4.253 -0.00164263 0
M  V30 38029 N 3575.52 -0.31877 -1.54343 0
M  V30 38030 C 3576.46 0.583312 -2.21653 0
M  V30 38031 C 3577.47 1.08364 -1.21496 0
M  V30 38032 O 3578.66 0.998038 -1.47991 0
M  V30 38033 C 3575.76 1.81261 -2.86353 0
M  V30 38034 C 3574.93 1.45178 -4.12604 0
M  V30 38035 C 3573.99 2.5381 -4.60941 0
M  V30 38036 O 3573.02 2.18155 -5.25735 0
M  V30 38037 N 3574.22 3.84659 -4.34762 0
M  V30 38038 H 3576.98 0.00698271 -2.99699 0
M  V30 38039 H 3574.54 -0.141756 -1.61278 0
M  V30 38040 H 3576.54 2.53316 -3.15615 0
M  V30 38041 H 3575.11 2.2969 -2.12041 0
M  V30 38042 H 3574.33 0.563074 -3.90158 0
M  V30 38043 H 3575.61 1.18634 -4.94776 0
M  V30 38044 H 3575.01 4.16427 -3.8289 0
M  V30 38045 H 3573.57 4.52959 -4.68691 0
M  V30 38046 N 3577 1.5753 -0.0468419 0
M  V30 38047 C 3578.25 1.92804 0.628835 0
M  V30 38048 C 3578.58 0.925113 1.70749 0
M  V30 38049 O 3577.86 -0.0495479 1.94437 0
M  V30 38050 C 3578.14 3.38481 1.22893 0
M  V30 38051 C 3577.99 4.4952 0.158628 0
M  V30 38052 C 3579.31 3.84465 2.14183 0
M  V30 38053 H 3576.43 0.70113 0.227125 0
M  V30 38054 H 3579.07 1.89694 -0.107722 0
M  V30 38055 H 3577.22 3.41262 1.85668 0
M  V30 38056 H 3578.89 4.58868 -0.473044 0
M  V30 38057 H 3577.14 4.30746 -0.513826 0
M  V30 38058 H 3577.81 5.48525 0.618449 0
M  V30 38059 H 3580.28 3.83533 1.61375 0
M  V30 38060 H 3579.16 4.87056 2.53117 0
M  V30 38061 H 3579.42 3.20975 3.04018 0
M  V30 38062 N 3578.48 -0.226499 1.55964 0
M  V30 38063 C 3579.41 -1.28396 1.9503 0
M  V30 38064 C 3580.39 -1.49148 0.817859 0
M  V30 38065 O 3581.58 -1.61414 1.07977 0
M  V30 38066 C 3578.71 -2.63474 2.26271 0
M  V30 38067 C 3577.66 -2.57387 3.41959 0
M  V30 38068 C 3576.99 -3.96449 3.58793 0
M  V30 38069 C 3578.29 -2.126 4.77073 0
M  V30 38070 H 3579.98 -0.959463 2.8361 0
M  V30 38071 H 3577.53 -0.460101 1.36452 0
M  V30 38072 H 3579.48 -3.37605 2.52192 0
M  V30 38073 H 3578.2 -2.97602 1.34539 0
M  V30 38074 H 3576.86 -1.85713 3.16079 0
M  V30 38075 H 3576.51 -4.27876 2.64445 0
M  V30 38076 H 3576.21 -3.93259 4.36602 0
M  V30 38077 H 3577.73 -4.7225 3.87056 0
M  V30 38078 H 3579.15 -2.76472 5.02231 0
M  V30 38079 H 3577.55 -2.2048 5.5813 0
M  V30 38080 H 3578.62 -1.07814 4.72762 0
M  V30 38081 N 3579.96 -1.4969 -0.493005 0
M  V30 38082 C 3580.89 -1.61561 -1.61162 0
M  V30 38083 C 3581.87 -0.46439 -1.55827 0
M  V30 38084 O 3583.05 -0.681004 -1.75769 0
M  V30 38085 C 3580.18 -1.57796 -2.99697 0
M  V30 38086 C 3579.23 -2.78213 -3.23265 0
M  V30 38087 S 3580.06 -4.39791 -3.05523 0
M  V30 38088 C 3581.22 -4.38683 -4.46439 0
M  V30 38089 H 3581.45 -2.56187 -1.50849 0
M  V30 38090 H 3578.98 -1.38681 -0.678753 0
M  V30 38091 H 3580.94 -1.56309 -3.79576 0
M  V30 38092 H 3579.6 -0.644433 -3.07418 0
M  V30 38093 H 3578.79 -2.7182 -4.24417 0
M  V30 38094 H 3578.4 -2.77153 -2.51122 0
M  V30 38095 H 3580.69 -4.10895 -5.38676 0
M  V30 38096 H 3581.63 -5.4014 -4.5788 0
M  V30 38097 H 3582.04 -3.6866 -4.27493 0
M  V30 38098 N 3581.44 0.744631 -1.38899 0
M  V30 38099 C 3582.37 1.86691 -1.31231 0
M  V30 38100 C 3583.35 1.61513 -0.187695 0
M  V30 38101 O 3584.53 1.84902 -0.366529 0
M  V30 38102 C 3581.66 3.22484 -1.03546 0
M  V30 38103 C 3580.7 3.66536 -2.18068 0
M  V30 38104 S 3581.54 3.77026 -3.80278 0
M  V30 38105 C 3582.69 5.15624 -3.54799 0
M  V30 38106 H 3582.93 1.9291 -2.26214 0
M  V30 38107 H 3580.46 0.908522 -1.24841 0
M  V30 38108 H 3582.42 4.009 -0.882575 0
M  V30 38109 H 3581.08 3.13932 -0.102666 0
M  V30 38110 H 3580.27 4.65056 -1.94265 0
M  V30 38111 H 3579.87 2.95298 -2.2951 0
M  V30 38112 H 3582.17 6.0166 -3.11467 0
M  V30 38113 H 3583.11 5.44452 -4.52745 0
M  V30 38114 H 3583.52 4.84845 -2.89111 0
M  V30 38115 N 3582.91 1.23916 0.973785 0
M  V30 38116 C 3584.33 1.00324 1.24126 0
M  V30 38117 C 3584.53 -0.291655 1.99378 0
M  V30 38118 O 3583.59 -1.00939 2.31447 0
M  V30 38119 C 3584.9 2.21438 2.03434 0
M  V30 38120 C 3586.45 2.25999 2.16549 0
M  V30 38121 C 3586.92 3.46718 2.99251 0
M  V30 38122 N 3588.41 3.46997 3.06834 0
M  V30 38123 C 3589.15 4.37062 3.71167 0
M  V30 38124 N 3588.64 5.37372 4.37268 0
M  V30 38125 N 3590.44 4.24788 3.68118 0
M  V30 38126 H 3582.59 2.07138 0.469836 0
M  V30 38127 H 3584.85 0.908673 0.270218 0
M  V30 38128 H 3584.56 3.15446 1.55521 0
M  V30 38129 H 3584.43 2.23062 3.04176 0
M  V30 38130 H 3586.82 1.32527 2.63668 0
M  V30 38131 H 3586.9 2.28404 1.15175 0
M  V30 38132 H 3586.54 4.40501 2.52827 0
M  V30 38133 H 3586.47 3.41555 4.00809 0
M  V30 38134 H 3588.96 2.74423 2.59808 0
M  V30 38135 H 3589.28 6.0234 4.84155 0
M  V30 38136 H 3587.62 5.41265 4.35956 0
M  V30 38137 H 3590.81 3.45662 3.15651 0
M  V30 38138 H 3590.99 4.9518 4.17972 0
M  V30 38139 N 3584.39 -1.17355 1.05193 0
M  V30 38140 C 3585.62 -1.91536 0.782406 0
M  V30 38141 C 3586.04 -1.76817 -0.661904 0
M  V30 38142 O 3585.39 -1.10534 -1.45219 0
M  V30 38143 C 3585.44 -3.42598 1.15363 0
M  V30 38144 O 3585.16 -3.56864 2.54125 0
M  V30 38145 C 3586.67 -4.33854 0.910243 0
M  V30 38146 H 3583.89 -0.607714 0.284472 0
M  V30 38147 H 3586.43 -1.48819 1.40261 0
M  V30 38148 H 3584.58 -3.83061 0.578174 0
M  V30 38149 H 3585 -4.50459 2.68676 0
M  V30 38150 H 3586.47 -5.38355 1.21973 0
M  V30 38151 H 3586.95 -4.38928 -0.154547 0
M  V30 38152 H 3587.56 -3.99105 1.46954 0
M  V30 38153 N 3585.87 -0.832954 -1.3379 0
M  V30 38154 C 3587.1 -0.439113 -2.02187 0
M  V30 38155 C 3587.51 0.95793 -1.62693 0
M  V30 38156 O 3586.87 1.62157 -0.837331 0
M  V30 38157 C 3586.92 -0.543295 -3.57394 0
M  V30 38158 O 3586.64 -1.88529 -3.9546 0
M  V30 38159 C 3588.14 -0.145645 -4.43061 0
M  V30 38160 H 3585.36 -0.175003 -0.647777 0
M  V30 38161 H 3587.91 -1.12389 -1.70848 0
M  V30 38162 H 3586.06 0.0935065 -3.87287 0
M  V30 38163 H 3586.48 -1.86662 -4.90161 0
M  V30 38164 H 3587.95 -0.269604 -5.51341 0
M  V30 38165 H 3588.43 0.911858 -4.2963 0
M  V30 38166 H 3589.03 -0.756645 -4.18515 0
M  V30 38167 N 3587.35 1.46186 -0.588837 0
M  V30 38168 C 3588.59 2.03221 -0.0852343 0
M  V30 38169 C 3588.95 1.45143 1.26298 0
M  V30 38170 O 3588.24 0.609459 1.81648 0
M  V30 38171 C 3588.44 3.57385 0.0324621 0
M  V30 38172 C 3588.27 4.30415 -1.3028 0
M  V30 38173 C 3587.04 4.69082 -1.87856 0
M  V30 38174 C 3589.23 4.63565 -2.22738 0
M  V30 38175 N 3587.22 5.26889 -3.15058 0
M  V30 38176 C 3588.59 5.22006 -3.34529 0
M  V30 38177 C 3590.64 4.45498 -2.22342 0
M  V30 38178 C 3589.34 5.64286 -4.46064 0
M  V30 38179 C 3591.37 4.88798 -3.32912 0
M  V30 38180 C 3590.73 5.47316 -4.43424 0
M  V30 38181 H 3586.83 0.77848 -0.0741137 0
M  V30 38182 H 3589.42 1.78258 -0.783081 0
M  V30 38183 H 3587.59 3.82049 0.699489 0
M  V30 38184 H 3589.32 4.01068 0.541009 0
M  V30 38185 H 3586.07 4.52037 -1.41278 0
M  V30 38186 H 3586.5 5.60308 -3.79978 0
M  V30 38187 H 3591.14 3.99585 -1.38172 0
M  V30 38188 H 3588.86 6.09174 -5.30973 0
M  V30 38189 H 3592.44 4.76565 -3.33731 0
M  V30 38190 H 3591.32 5.80207 -5.27569 0
M  V30 38191 N 3588.83 0.32695 1.54171 0
M  V30 38192 C 3589.79 -0.524815 2.23111 0
M  V30 38193 C 3590.79 -1.04085 1.22569 0
M  V30 38194 O 3591.98 -0.932734 1.47125 0
M  V30 38195 C 3589.11 -1.72932 2.93781 0
M  V30 38196 H 3590.3 0.0778854 2.99799 0
M  V30 38197 H 3587.86 0.0780759 1.56105 0
M  V30 38198 H 3588.59 -2.37116 2.21238 0
M  V30 38199 H 3588.38 -1.36668 3.67511 0
M  V30 38200 H 3589.87 -2.33386 3.46296 0
M  V30 38201 N 3590.3 -1.57503 0.0551955 0
M  V30 38202 C 3591.23 -2.14797 -0.915676 0
M  V30 38203 C 3592.22 -1.07067 -1.32177 0
M  V30 38204 O 3593.4 -1.35026 -1.39577 0
M  V30 38205 C 3590.53 -2.6962 -2.18911 0
M  V30 38206 C 3589.48 -3.82369 -1.92296 0
M  V30 38207 C 3588.81 -4.23726 -3.26129 0
M  V30 38208 C 3590.11 -5.07334 -1.24137 0
M  V30 38209 H 3591.8 -2.96172 -0.438447 0
M  V30 38210 H 3589.35 -1.42469 -0.209452 0
M  V30 38211 H 3591.3 -3.08342 -2.87233 0
M  V30 38212 H 3590.03 -1.85442 -2.68847 0
M  V30 38213 H 3588.69 -3.44126 -1.26385 0
M  V30 38214 H 3588.33 -3.36493 -3.73873 0
M  V30 38215 H 3588.03 -4.9972 -3.09117 0
M  V30 38216 H 3589.56 -4.65052 -3.95676 0
M  V30 38217 H 3590.97 -5.43476 -1.825 0
M  V30 38218 H 3589.37 -5.88496 -1.17439 0
M  V30 38219 H 3590.44 -4.8441 -0.217988 0
M  V30 38220 N 3591.78 0.218225 -1.56082 0
M  V30 38221 C 3593.02 0.949156 -1.81026 0
M  V30 38222 C 3593.39 1.81397 -0.62921 0
M  V30 38223 O 3594.59 2.5789 -0.758027 0
M  V30 38224 C 3592.86 1.76316 -3.10882 0
M  V30 38225 S 3594.42 2.54928 -3.57152 0
M  V30 38226 H 3591.24 0.318774 -0.635535 0
M  V30 38227 H 3593.84 0.214449 -1.9432 0
M  V30 38228 H 3592.54 1.11804 -3.94877 0
M  V30 38229 H 3592.07 2.54011 -3.00403 0
M  V30 38230 H 3594.09 3.78592 -3.20753 0
M  V30 38231 N 3593.26 1.4995 0.485059 0
M  V30 38232 C 3594.17 1.70554 1.61086 0
M  V30 38233 C 3595.19 0.588362 1.63751 0
M  V30 38234 O 3596.36 0.865012 1.81878 0
M  V30 38235 C 3593.43 1.78233 2.97379 0
M  V30 38236 C 3592.49 3.01899 3.05214 0
M  V30 38237 C 3591.72 3.09202 4.35005 0
M  V30 38238 O 3591.95 2.23667 5.24718 0
M  V30 38239 O 3590.88 4.0181 4.48144 0
M  V30 38240 H 3594.71 2.65958 1.46629 0
M  V30 38241 H 3592.29 1.3388 0.663068 0
M  V30 38242 H 3594.17 1.85545 3.78353 0
M  V30 38243 H 3592.85 0.860098 3.12064 0
M  V30 38244 H 3591.75 3.00096 2.23368 0
M  V30 38245 H 3593.09 3.93655 2.9546 0
M  V30 38246 N 3594.74 -0.737255 1.39292 0
M  V30 38247 C 3595.7 -1.83292 1.37611 0
M  V30 38248 C 3596.7 -1.58455 0.273622 0
M  V30 38249 O 3597.89 -1.65897 0.531404 0
M  V30 38250 C 3595.02 -3.21043 1.14648 0
M  V30 38251 H 3596.22 -1.86187 2.35105 0
M  V30 38252 H 3593.77 -0.940674 1.24824 0
M  V30 38253 H 3594.51 -3.2381 0.178259 0
M  V30 38254 H 3594.29 -3.40468 1.94485 0
M  V30 38255 H 3595.78 -4.01106 1.16207 0
M  V30 38256 N 3596.22 -1.24431 -0.967199 0
M  V30 38257 C 3597.15 -1.06176 -2.07964 0
M  V30 38258 C 3598.13 0.0254267 -1.70081 0
M  V30 38259 O 3599.31 -0.14174 -1.93682 0
M  V30 38260 C 3596.44 -0.66631 -3.40848 0
M  V30 38261 C 3595.4 -1.70232 -3.92689 0
M  V30 38262 C 3594.72 -1.16192 -5.21923 0
M  V30 38263 C 3596.02 -3.09838 -4.20473 0
M  V30 38264 H 3597.72 -1.99226 -2.23494 0
M  V30 38265 H 3595.26 -0.959274 -1.07396 0
M  V30 38266 H 3597.22 -0.525594 -4.18109 0
M  V30 38267 H 3595.94 0.299881 -3.2522 0
M  V30 38268 H 3594.6 -1.83126 -3.17585 0
M  V30 38269 H 3594.25 -0.186326 -5.02655 0
M  V30 38270 H 3593.95 -1.85426 -5.57576 0
M  V30 38271 H 3595.47 -1.03334 -6.01793 0
M  V30 38272 H 3596.89 -3.0017 -4.88437 0
M  V30 38273 H 3595.28 -3.76429 -4.67356 0
M  V30 38274 H 3596.35 -3.5784 -3.27229 0
M  V30 38275 N 3597.7 1.16795 -1.05814 0
M  V30 38276 C 3598.92 1.91118 -0.792553 0
M  V30 38277 C 3599.34 1.77166 0.652518 0
M  V30 38278 O 3598.7 1.11302 1.44631 0
M  V30 38279 C 3598.75 3.41982 -1.17178 0
M  V30 38280 O 3598.47 3.55512 -2.56014 0
M  V30 38281 C 3599.97 4.33365 -0.933239 0
M  V30 38282 H 3597.19 0.606197 -0.287691 0
M  V30 38283 H 3599.73 1.48073 -1.41049 0
M  V30 38284 H 3597.89 3.82749 -0.598481 0
M  V30 38285 H 3598.3 4.49028 -2.71061 0
M  V30 38286 H 3599.78 5.37701 -1.24826 0
M  V30 38287 H 3600.25 4.39004 0.131268 0
M  V30 38288 H 3600.86 3.9832 -1.49069 0
M  V30 38289 N 3599.17 0.840037 1.33346 0
M  V30 38290 C 3600.1 0.289179 2.31702 0
M  V30 38291 C 3601.08 -0.603731 1.59025 0
M  V30 38292 O 3602.27 -0.527038 1.86912 0
M  V30 38293 C 3599.4 -0.535599 3.43145 0
M  V30 38294 C 3598.35 0.261619 4.272 0
M  V30 38295 C 3597.68 -0.686982 5.30268 0
M  V30 38296 C 3598.98 1.47933 5.00912 0
M  V30 38297 H 3600.67 1.11099 2.78024 0
M  V30 38298 H 3598.22 0.535682 1.33665 0
M  V30 38299 H 3600.17 -0.931279 4.10981 0
M  V30 38300 H 3598.9 -1.39063 2.95515 0
M  V30 38301 H 3597.56 0.638872 3.6099 0
M  V30 38302 H 3597.2 -1.53845 4.78895 0
M  V30 38303 H 3596.9 -0.15767 5.87388 0
M  V30 38304 H 3598.43 -1.08015 6.0097 0
M  V30 38305 H 3599.84 1.15674 5.61509 0
M  V30 38306 H 3598.24 1.94551 5.67688 0
M  V30 38307 H 3599.31 2.24847 4.29618 0
M  V30 38308 N 3600.65 -1.45872 0.596582 0
M  V30 38309 C 3601.61 -2.28893 -0.118626 0
M  V30 38310 C 3602.61 -1.39162 -0.805644 0
M  V30 38311 O 3603.8 -1.61397 -0.655483 0
M  V30 38312 C 3600.94 -3.19906 -1.17784 0
M  V30 38313 H 3602.13 -2.93607 0.611145 0
M  V30 38314 H 3599.68 -1.52212 0.355142 0
M  V30 38315 H 3600.42 -2.59969 -1.93873 0
M  V30 38316 H 3600.2 -3.85989 -0.689549 0
M  V30 38317 H 3601.69 -3.82358 -1.67906 0
M  V30 38318 N 3602.13 -0.335122 -1.53996 0
M  V30 38319 C 3603.36 0.265594 -2.05188 0
M  V30 38320 C 3603.77 1.44879 -1.2106 0
M  V30 38321 O 3603.13 1.80862 -0.243951 0
M  V30 38322 C 3603.18 0.688842 -3.54876 0
M  V30 38323 O 3602.9 -0.447293 -4.35811 0
M  V30 38324 C 3604.4 1.35116 -4.22207 0
M  V30 38325 H 3601.62 0.0527688 -0.668922 0
M  V30 38326 H 3604.17 -0.484665 -1.98674 0
M  V30 38327 H 3602.32 1.38906 -3.61641 0
M  V30 38328 H 3602.74 -0.111588 -5.24381 0
M  V30 38329 H 3604.21 1.59814 -5.28359 0
M  V30 38330 H 3604.69 2.30209 -3.74033 0
M  V30 38331 H 3605.29 0.693209 -4.19613 0
M  V30 38332 N 3603.61 1.57472 -0.0635475 0
M  V30 38333 C 3604.86 1.92793 0.606251 0
M  V30 38334 C 3605.18 0.943645 1.70647 0
M  V30 38335 O 3604.45 -0.00954169 1.95898 0
M  V30 38336 H 3603.03 0.711696 0.22693 0
M  V30 38337 H 3605.69 1.94534 -0.119463 0
M  V30 38338 H 3604.78 2.94372 1.03689 0
M  V30 38339 N 3605.09 -0.209945 1.56195 0
M  V30 38340 C 3606.5 -0.775939 1.69812 0
M  V30 38341 C 3606.85 -1.84494 0.667576 0
M  V30 38342 O 3605.97 -2.15658 -0.179006 0
M  V30 38343 C 3606.57 -1.41424 3.07871 0
M  V30 38344 C 3605.13 -1.92749 3.23303 0
M  V30 38345 C 3604.27 -0.791911 2.65752 0
M  V30 38346 H 3607.22 0.0149006 1.58693 0
M  V30 38347 H 3607.25 -2.28333 3.04375 0
M  V30 38348 H 3606.76 -0.635973 3.82854 0
M  V30 38349 H 3604.86 -2.73341 2.5321 0
M  V30 38350 H 3604.97 -2.09948 4.30649 0
M  V30 38351 H 3603.34 -1.2023 2.24537 0
M  V30 38352 H 3604.12 -0.0261273 3.4329 0
M  V30 38353 N 3606.56 -1.50205 -0.4771 0
M  V30 38354 C 3607.81 -1.61132 -1.23144 0
M  V30 38355 C 3608.14 -0.307943 -1.91743 0
M  V30 38356 O 3607.42 0.690191 -1.81842 0
M  V30 38357 C 3607.7 -2.78742 -2.2798 0
M  V30 38358 C 3607.55 -4.18944 -1.63725 0
M  V30 38359 C 3608.87 -2.91926 -3.29344 0
M  V30 38360 H 3605.99 -0.586466 -0.446348 0
M  V30 38361 H 3608.63 -1.82571 -0.526088 0
M  V30 38362 H 3606.78 -2.60593 -2.88138 0
M  V30 38363 H 3608.46 -4.48669 -1.07211 0
M  V30 38364 H 3606.7 -4.23481 -0.940559 0
M  V30 38365 H 3607.37 -4.97154 -2.39879 0
M  V30 38366 H 3609.85 -3.08521 -2.79202 0
M  V30 38367 H 3608.72 -3.75852 -4.00033 0
M  V30 38368 H 3608.98 -2.02284 -3.93107 0
M  V30 38369 N 3608.04 0.729857 -1.39681 0
M  V30 38370 C 3609.27 1.52415 -1.40657 0
M  V30 38371 C 3609.69 1.881 -0.00432304 0
M  V30 38372 O 3609.05 1.52273 0.983996 0
M  V30 38373 C 3609.1 2.78502 -2.29062 0
M  V30 38374 O 3608.2 3.74634 -1.72404 0
M  V30 38375 H 3607.54 0.460083 -0.478769 0
M  V30 38376 H 3610.07 0.900055 -1.83739 0
M  V30 38377 H 3610.08 3.27182 -2.43753 0
M  V30 38378 H 3608.76 2.51862 -3.30966 0
M  V30 38379 H 3607.34 3.33423 -1.66983 0
M  V30 38380 N 3609.52 1.24942 0.960587 0
M  V30 38381 C 3610.75 1.1206 1.73926 0
M  V30 38382 C 3611.16 -0.326197 1.85961 0
M  V30 38383 O 3610.52 -1.2247 1.35305 0
M  V30 38384 C 3610.57 1.76272 3.15611 0
M  V30 38385 O 3610.29 3.15296 3.04171 0
M  V30 38386 C 3611.79 1.69093 4.09784 0
M  V30 38387 H 3609.01 0.391159 0.545193 0
M  V30 38388 H 3611.56 1.65188 1.20553 0
M  V30 38389 H 3609.71 1.27129 3.65947 0
M  V30 38390 H 3610.13 3.46775 3.93507 0
M  V30 38391 H 3611.6 2.18692 5.06831 0
M  V30 38392 H 3612.08 0.653529 4.34311 0
M  V30 38393 H 3612.68 2.17696 3.65361 0
M  V30 38394 N 3611 -1.16233 1.06432 0
M  V30 38395 C 3611.93 -2.22834 0.697644 0
M  V30 38396 C 3612.91 -1.67241 -0.310534 0
M  V30 38397 O 3614.09 -1.93313 -0.185351 0
M  V30 38398 C 3611.22 -3.47197 0.0847707 0
M  V30 38399 C 3610.18 -4.15691 1.01908 0
M  V30 38400 C 3609.5 -5.34021 0.269433 0
M  V30 38401 C 3610.8 -4.66512 2.3487 0
M  V30 38402 H 3612.5 -2.53762 1.58888 0
M  V30 38403 H 3610.04 -1.21973 0.765409 0
M  V30 38404 H 3612 -4.21 -0.183626 0
M  V30 38405 H 3610.72 -3.15573 -0.841484 0
M  V30 38406 H 3609.38 -3.43816 1.27224 0
M  V30 38407 H 3609.03 -4.98651 -0.659985 0
M  V30 38408 H 3608.73 -5.80788 0.892103 0
M  V30 38409 H 3610.25 -6.10599 0.00861508 0
M  V30 38410 H 3611.67 -5.31889 2.13932 0
M  V30 38411 H 3610.06 -5.23906 2.92647 0
M  V30 38412 H 3611.13 -3.82647 2.97841 0
M  V30 38413 N 3612.48 -0.847097 -1.32899 0
M  V30 38414 C 3613.72 -0.456707 -1.98206 0
M  V30 38415 C 3614.08 0.975189 -1.65855 0
M  V30 38416 O 3613.37 1.6738 -0.932443 0
M  V30 38417 C 3613.56 -0.623907 -3.51912 0
M  V30 38418 C 3613.39 -2.0705 -3.99199 0
M  V30 38419 C 3612.16 -2.70745 -4.26644 0
M  V30 38420 C 3614.36 -3.04022 -4.1482 0
M  V30 38421 N 3612.34 -4.06394 -4.60127 0
M  V30 38422 C 3613.71 -4.24638 -4.51755 0
M  V30 38423 C 3615.77 -3.00317 -3.97132 0
M  V30 38424 C 3614.47 -5.42039 -4.72849 0
M  V30 38425 C 3616.5 -4.16955 -4.19407 0
M  V30 38426 C 3615.86 -5.36329 -4.56652 0
M  V30 38427 H 3611.96 -0.21571 -0.75166 0
M  V30 38428 H 3614.54 -1.09689 -1.60861 0
M  V30 38429 H 3612.71 -0.0134668 -3.88398 0
M  V30 38430 H 3614.45 -0.204154 -4.04185 0
M  V30 38431 H 3611.2 -2.21829 -4.18436 0
M  V30 38432 H 3611.63 -4.76345 -4.81066 0
M  V30 38433 H 3616.27 -2.09151 -3.67445 0
M  V30 38434 H 3613.99 -6.33743 -5.01394 0
M  V30 38435 H 3617.57 -4.15516 -4.07232 0
M  V30 38436 H 3616.45 -6.25081 -4.73543 0
M  V30 38437 N 3613.95 1.45554 -0.604309 0
M  V30 38438 C 3614.86 2.34301 0.118367 0
M  V30 38439 C 3615.88 1.51046 0.863781 0
M  V30 38440 O 3617.06 1.83857 0.822106 0
M  V30 38441 C 3614.12 3.28608 1.10532 0
M  V30 38442 C 3613.18 4.27769 0.362226 0
M  V30 38443 C 3612.42 5.17571 1.30217 0
M  V30 38444 O 3612.64 5.10734 2.53982 0
M  V30 38445 O 3611.57 5.96546 0.801011 0
M  V30 38446 H 3615.4 2.97493 -0.610868 0
M  V30 38447 H 3612.98 1.44883 -0.364587 0
M  V30 38448 H 3614.87 3.8673 1.67385 0
M  V30 38449 H 3613.54 2.67985 1.81564 0
M  V30 38450 H 3612.45 3.73273 -0.248681 0
M  V30 38451 H 3613.78 4.91238 -0.307541 0
M  V30 38452 N 3615.43 0.343284 1.53816 0
M  V30 38453 C 3616.68 -0.25281 2.00513 0
M  V30 38454 C 3617 -1.51089 1.23277 0
M  V30 38455 O 3616.27 -1.92929 0.339874 0
M  V30 38456 H 3614.85 -0.0964072 0.740753 0
M  V30 38457 H 3617.51 0.46438 1.89287 0
M  V30 38458 H 3616.61 -0.495445 3.08142 0
M  V30 38459 N 3616.91 -1.57436 0.0718977 0
M  V30 38460 C 3617.86 -2.13933 -0.912988 0
M  V30 38461 C 3618.85 -1.07624 -1.30818 0
M  V30 38462 O 3620.06 -1.26005 -1.28541 0
M  V30 38463 H 3616.43 -0.684054 -0.312368 0
M  V30 38464 H 3618.4 -2.95548 -0.411561 0
M  V30 38465 C 3617.15 -2.7159 -2.17104 0
M  V30 38466 H 3616.48 -3.53064 -1.87579 0
M  V30 38467 H 3617.92 -3.14717 -2.84129 0
M  V30 38468 C 3616.38 -1.66355 -2.92964 0
M  V30 38469 O 3616.91 -1.08861 -3.86668 0
M  V30 38470 N 3615.11 -1.37387 -2.56072 0
M  V30 38471 H 3614.66 -1.8433 -1.79945 0
M  V30 38472 H 3614.62 -0.672093 -3.07132 0
M  V30 38473 N 3618.39 0.201658 -1.56305 0
M  V30 38474 C 3619.8 0.766923 -1.70221 0
M  V30 38475 C 3620.15 1.84137 -0.677351 0
M  V30 38476 O 3619.28 2.1575 0.167566 0
M  V30 38477 C 3619.87 1.39789 -3.08617 0
M  V30 38478 C 3618.43 1.91032 -3.24321 0
M  V30 38479 C 3617.58 0.777806 -2.66168 0
M  V30 38480 H 3620.53 -0.0233162 -1.58683 0
M  V30 38481 H 3620.55 2.26716 -3.05582 0
M  V30 38482 H 3620.06 0.61566 -3.83186 0
M  V30 38483 H 3618.16 2.71994 -2.54656 0
M  V30 38484 H 3618.27 2.07662 -4.31756 0
M  V30 38485 H 3616.64 1.19038 -2.25171 0
M  V30 38486 H 3617.42 0.00792145 -3.43299 0
M  V30 38487 N 3619.87 1.50456 0.469128 0
M  V30 38488 C 3621.11 1.61224 1.21865 0
M  V30 38489 C 3621.44 0.315569 1.9243 0
M  V30 38490 O 3620.71 -0.667051 1.84193 0
M  V30 38491 H 3619.29 0.594109 0.452818 0
M  V30 38492 H 3621.95 1.87242 0.54096 0
M  V30 38493 H 3621.04 2.42435 1.9655 0
M  V30 38494 N 3621.34 -0.722439 1.40066 0
M  V30 38495 C 3622.76 -1.02963 1.21946 0
M  V30 38496 C 3622.96 -2.013 0.0898423 0
M  V30 38497 O 3622.02 -2.46337 -0.554475 0
M  V30 38498 C 3623.33 -1.5799 2.55851 0
M  V30 38499 C 3624.88 -1.70009 2.62804 0
M  V30 38500 C 3625.35 -2.28443 3.96961 0
M  V30 38501 N 3626.84 -2.35837 3.98666 0
M  V30 38502 C 3627.58 -2.82018 4.99253 0
M  V30 38503 N 3627.07 -3.28001 6.10235 0
M  V30 38504 N 3628.87 -2.8134 4.86625 0
M  V30 38505 H 3621.02 -0.0704928 2.12283 0
M  V30 38506 H 3623.28 -0.0938825 0.94334 0
M  V30 38507 H 3622.99 -0.931974 3.39127 0
M  V30 38508 H 3622.86 -2.56615 2.76457 0
M  V30 38509 H 3625.25 -2.3392 1.79904 0
M  V30 38510 H 3625.33 -0.700019 2.46035 0
M  V30 38511 H 3624.97 -1.65155 4.80298 0
M  V30 38512 H 3624.9 -3.29151 4.11056 0
M  V30 38513 H 3627.39 -2.03352 3.18522 0
M  V30 38514 H 3627.71 -3.61785 6.82884 0
M  V30 38515 H 3626.05 -3.25977 6.13811 0
M  V30 38516 H 3629.24 -2.44748 3.99019 0
M  V30 38517 H 3629.42 -3.17014 5.6516 0
M  V30 38518 N 3622.82 -1.2545 -0.953947 0
M  V30 38519 C 3624.07 -1.10238 -1.69864 0
M  V30 38520 C 3624.4 0.356518 -1.91205 0
M  V30 38521 O 3623.65 1.27911 -1.48112 0
M  V30 38522 C 3623.95 -1.80264 -3.08609 0
M  V30 38523 C 3623.62 -3.30183 -3.07067 0
M  V30 38524 C 3622.28 -3.71081 -3.06353 0
M  V30 38525 C 3624.63 -4.25961 -3.00344 0
M  V30 38526 C 3621.96 -5.06168 -2.96667 0
M  V30 38527 C 3624.31 -5.61073 -2.92199 0
M  V30 38528 C 3622.98 -6.01298 -2.89822 0
M  V30 38529 H 3622.25 -0.403391 -0.621576 0
M  V30 38530 H 3624.89 -1.55731 -1.11446 0
M  V30 38531 H 3623.2 -1.27204 -3.70576 0
M  V30 38532 H 3624.9 -1.65946 -3.65052 0
M  V30 38533 H 3621.49 -2.97642 -3.08394 0
M  V30 38534 H 3625.67 -3.95355 -3.00014 0
M  V30 38535 H 3620.93 -5.36513 -2.93195 0
M  V30 38536 H 3625.1 -6.34981 -2.85959 0
M  V30 38537 H 3622.73 -7.05932 -2.82071 0
M  V30 38538 N 3624.3 1.15667 -1.07047 0
M  V30 38539 C 3625.55 1.86888 -0.802769 0
M  V30 38540 C 3625.9 1.80584 0.663865 0
M  V30 38541 O 3625.2 1.21592 1.48074 0
M  V30 38542 C 3625.39 3.3515 -1.24133 0
M  V30 38543 C 3625.22 3.55889 -2.74906 0
M  V30 38544 C 3623.99 3.71538 -3.42473 0
M  V30 38545 C 3626.19 3.5397 -3.73108 0
M  V30 38546 N 3624.17 3.803 -4.81918 0
M  V30 38547 C 3625.54 3.68809 -4.98378 0
M  V30 38548 C 3627.59 3.37226 -3.6631 0
M  V30 38549 C 3626.3 3.68634 -6.17658 0
M  V30 38550 C 3628.32 3.38349 -4.85051 0
M  V30 38551 C 3627.69 3.53714 -6.09152 0
M  V30 38552 H 3623.78 0.701159 -0.346266 0
M  V30 38553 H 3626.37 1.38727 -1.36612 0
M  V30 38554 H 3624.54 3.81935 -0.70572 0
M  V30 38555 H 3626.27 3.94069 -0.921499 0
M  V30 38556 H 3623.03 3.72182 -2.92878 0
M  V30 38557 H 3623.45 3.88432 -5.54482 0
M  V30 38558 H 3628.09 3.24269 -2.71311 0
M  V30 38559 H 3625.81 3.80371 -7.12982 0
M  V30 38560 H 3629.4 3.26625 -4.81464 0
M  V30 38561 H 3628.28 3.54512 -6.99494 0
M  V30 38562 N 3625.78 0.854133 1.32447 0
M  V30 38563 C 3626.73 0.287156 2.30821 0
M  V30 38564 C 3627.72 -0.589183 1.58824 0
M  V30 38565 O 3628.93 -0.477044 1.73563 0
M  V30 38566 H 3625.3 0.0741547 0.748335 0
M  V30 38567 H 3627.27 1.13109 2.76132 0
M  V30 38568 C 3626.02 -0.510069 3.43938 0
M  V30 38569 H 3625.35 0.154966 3.995 0
M  V30 38570 H 3626.79 -0.872378 4.14928 0
M  V30 38571 C 3625.24 -1.69508 2.9115 0
M  V30 38572 O 3625.77 -2.79415 2.886 0
M  V30 38573 N 3623.98 -1.52197 2.47557 0
M  V30 38574 H 3623.53 -0.627897 2.4983 0
M  V30 38575 H 3623.49 -2.3163 2.12591 0
M  V30 38576 N 3627.26 -1.45231 0.61202 0
M  V30 38577 C 3628.49 -2.06578 0.115446 0
M  V30 38578 C 3628.9 -1.4559 -1.20203 0
M  V30 38579 O 3628.26 -0.571698 -1.73314 0
M  V30 38580 C 3628.31 -3.61491 -0.0259307 0
M  V30 38581 O 3628.03 -4.20202 1.23943 0
M  V30 38582 C 3629.53 -4.39832 -0.553445 0
M  V30 38583 H 3626.75 -0.667246 0.0708773 0
M  V30 38584 H 3629.29 -1.86406 0.84101 0
M  V30 38585 H 3627.45 -3.80989 -0.701842 0
M  V30 38586 H 3627.86 -5.13429 1.07196 0
M  V30 38587 H 3629.34 -5.48714 -0.601439 0
M  V30 38588 H 3629.81 -4.09925 -1.57663 0
M  V30 38589 H 3630.42 -4.25208 0.0885702 0
M  V30 38590 N 3628.74 -0.351436 -1.53632 0
M  V30 38591 C 3629.96 0.243816 -2.05458 0
M  V30 38592 C 3630.38 1.43587 -1.2259 0
M  V30 38593 O 3629.74 1.80593 -0.26312 0
M  V30 38594 C 3629.79 0.651164 -3.55587 0
M  V30 38595 O 3629.51 -0.493492 -4.35312 0
M  V30 38596 C 3631.01 1.3063 -4.23616 0
M  V30 38597 H 3628.23 0.0456711 -0.669444 0
M  V30 38598 H 3630.77 -0.50571 -1.98148 0
M  V30 38599 H 3628.93 1.35062 -3.63094 0
M  V30 38600 H 3629.34 -0.167199 -5.24233 0
M  V30 38601 H 3630.82 1.54201 -5.30025 0
M  V30 38602 H 3631.29 2.26229 -3.76453 0
M  V30 38603 H 3631.9 0.648664 -4.20324 0
M  V30 38604 N 3630.21 1.57396 -0.0802459 0
M  V30 38605 C 3631.46 1.92983 0.586539 0
M  V30 38606 C 3631.78 0.962948 1.70255 0
M  V30 38607 O 3632.98 1.21197 2.42948 0
M  V30 38608 C 3631.44 3.42848 1.09469 0
M  V30 38609 C 3631.05 4.47999 0.00923105 0
M  V30 38610 C 3632.79 3.87422 1.73505 0
M  V30 38611 C 3630.7 5.89003 0.531898 0
M  V30 38612 H 3629.63 0.72031 0.222866 0
M  V30 38613 H 3632.28 1.82854 -0.153848 0
M  V30 38614 H 3630.66 3.48079 1.8883 0
M  V30 38615 H 3631.83 4.54394 -0.765689 0
M  V30 38616 H 3630.15 4.12943 -0.535418 0
M  V30 38617 H 3632.75 4.90158 2.13656 0
M  V30 38618 H 3633.09 3.25253 2.59839 0
M  V30 38619 H 3633.62 3.8483 1.00751 0
M  V30 38620 H 3630.36 6.54838 -0.294479 0
M  V30 38621 H 3629.88 5.8611 1.27415 0
M  V30 38622 H 3631.56 6.39137 1.00562 0
M  V30 38623 N 3631.69 -0.193366 1.56409 0
M  V30 38624 C 3632.65 -1.22331 1.93824 0
M  V30 38625 C 3633.65 -1.38348 0.819537 0
M  V30 38626 O 3634.84 -1.36131 1.08693 0
M  V30 38627 C 3631.98 -2.59237 2.2138 0
M  V30 38628 H 3633.17 -0.903451 2.85968 0
M  V30 38629 H 3630.72 -0.434954 1.50126 0
M  V30 38630 H 3631.46 -2.96274 1.31879 0
M  V30 38631 H 3631.24 -2.48982 3.02903 0
M  V30 38632 H 3632.73 -3.33505 2.51325 0
M  V30 38633 N 3633.17 -1.50702 -0.461142 0
M  V30 38634 C 3634.42 -1.62429 -1.21428 0
M  V30 38635 C 3634.75 -0.328262 -1.91406 0
M  V30 38636 O 3634.02 0.670866 -1.82564 0
M  V30 38637 C 3634.31 -2.81144 -2.25011 0
M  V30 38638 C 3634.16 -4.20657 -1.59273 0
M  V30 38639 C 3635.48 -2.95402 -3.26229 0
M  V30 38640 H 3632.6 -0.591168 -0.440102 0
M  V30 38641 H 3635.24 -1.83119 -0.506694 0
M  V30 38642 H 3633.39 -2.63634 -2.85358 0
M  V30 38643 H 3635.06 -4.49781 -1.02446 0
M  V30 38644 H 3633.3 -4.24454 -0.89559 0
M  V30 38645 H 3633.98 -4.9967 -2.34593 0
M  V30 38646 H 3636.45 -3.11465 -2.75914 0
M  V30 38647 H 3635.33 -3.80074 -3.96024 0
M  V30 38648 H 3635.59 -2.06442 -3.9094 0
M  V30 38649 N 3634.65 0.715001 -1.40447 0
M  V30 38650 C 3635.87 1.50915 -1.42265 0
M  V30 38651 C 3636.3 1.88084 -0.0242733 0
M  V30 38652 O 3635.66 1.53309 0.96779 0
M  V30 38653 C 3635.7 2.76056 -2.32003 0
M  V30 38654 O 3634.81 3.72784 -1.76368 0
M  V30 38655 H 3634.15 0.454979 -0.483622 0
M  V30 38656 H 3636.68 0.880516 -1.84684 0
M  V30 38657 H 3636.69 3.24579 -2.4721 0
M  V30 38658 H 3635.36 2.48337 -3.33619 0
M  V30 38659 H 3633.94 3.31633 -1.7051 0
M  V30 38660 N 3636.13 1.25954 0.947281 0
M  V30 38661 C 3637.06 1.01301 2.04483 0
M  V30 38662 C 3638.04 -0.0602114 1.62488 0
M  V30 38663 O 3639.22 0.0809568 1.88326 0
M  V30 38664 C 3636.35 0.532792 3.34483 0
M  V30 38665 C 3635.39 1.59765 3.95446 0
M  V30 38666 S 3636.23 3.18491 4.30492 0
M  V30 38667 C 3637.38 2.72223 5.636 0
M  V30 38668 H 3637.62 1.94232 2.25081 0
M  V30 38669 H 3635.15 1.09566 1.08788 0
M  V30 38670 H 3637.11 0.262381 4.09661 0
M  V30 38671 H 3635.77 -0.376137 3.1184 0
M  V30 38672 H 3634.96 1.21251 4.89197 0
M  V30 38673 H 3634.56 1.81912 3.26778 0
M  V30 38674 H 3636.85 2.16307 6.42042 0
M  V30 38675 H 3637.8 3.64643 6.06993 0
M  V30 38676 H 3638.21 2.11983 5.23186 0
M  V30 38677 N 3637.6 -1.15097 1.07659 0
M  V30 38678 C 3638.57 -2.18133 0.703597 0
M  V30 38679 C 3639.57 -1.58721 -0.257743 0
M  V30 38680 O 3640.76 -1.74158 -0.0382905 0
M  V30 38681 C 3637.89 -3.40879 0.0375578 0
M  V30 38682 H 3639.08 -2.52645 1.61587 0
M  V30 38683 H 3636.64 -1.29613 0.873507 0
M  V30 38684 H 3637.37 -3.11939 -0.886813 0
M  V30 38685 H 3637.16 -3.85263 0.729028 0
M  V30 38686 H 3638.65 -4.17078 -0.20864 0
M  V30 38687 N 3639.08 -0.861145 -1.31993 0
M  V30 38688 C 3640.03 -0.299393 -2.30665 0
M  V30 38689 C 3641.02 0.580751 -1.59134 0
M  V30 38690 O 3642.23 0.467833 -1.73814 0
M  V30 38691 H 3638.61 -0.0781223 -0.747931 0
M  V30 38692 H 3640.58 -1.14572 -2.75528 0
M  V30 38693 C 3639.33 0.491822 -3.44204 0
M  V30 38694 H 3638.65 -0.17615 -3.99412 0
M  V30 38695 H 3640.09 0.850361 -4.15385 0
M  V30 38696 C 3638.55 1.67962 -2.92045 0
M  V30 38697 O 3639.08 2.77881 -2.90078 0
M  V30 38698 N 3637.28 1.50882 -2.4836 0
M  V30 38699 H 3636.83 0.614639 -2.5016 0
M  V30 38700 H 3636.79 2.30499 -2.13817 0
M  V30 38701 N 3640.56 1.44905 -0.619713 0
M  V30 38702 C 3641.81 2.01359 -0.117182 0
M  V30 38703 C 3642.12 1.49241 1.26438 0
M  V30 38704 O 3643.33 1.9775 1.8603 0
M  V30 38705 C 3641.78 3.5955 -0.158773 0
M  V30 38706 C 3641.39 4.20665 -1.54094 0
M  V30 38707 C 3643.14 4.23523 0.287887 0
M  V30 38708 C 3641.04 5.71044 -1.53826 0
M  V30 38709 H 3639.97 0.752936 -0.0400413 0
M  V30 38710 H 3642.62 1.66246 -0.776831 0
M  V30 38711 H 3641.01 3.91909 0.567761 0
M  V30 38712 H 3642.18 3.99861 -2.29014 0
M  V30 38713 H 3640.5 3.68934 -1.93071 0
M  V30 38714 H 3643.09 5.33805 0.309258 0
M  V30 38715 H 3643.44 3.95053 1.31298 0
M  V30 38716 H 3643.97 3.95925 -0.385776 0
M  V30 38717 H 3640.71 6.04232 -2.54134 0
M  V30 38718 H 3640.23 5.94004 -0.831813 0
M  V30 38719 H 3641.91 6.34469 -1.26719 0
M  V30 38720 N 3642.04 0.359579 1.53443 0
M  V30 38721 C 3643.29 -0.231987 2.01167 0
M  V30 38722 C 3643.61 -1.49264 1.24702 0
M  V30 38723 O 3642.87 -1.92945 0.327198 0
M  V30 38724 C 3643.17 -0.575801 3.52731 0
M  V30 38725 C 3642.83 0.589824 4.47026 0
M  V30 38726 C 3641.5 0.90967 4.72523 0
M  V30 38727 C 3643.85 1.37104 5.02844 0
M  V30 38728 C 3641.18 2.01281 5.51092 0
M  V30 38729 C 3643.53 2.46455 5.82617 0
M  V30 38730 C 3642.19 2.78981 6.06404 0
M  V30 38731 H 3641.46 -0.0848901 0.736121 0
M  V30 38732 H 3644.11 0.490803 1.85104 0
M  V30 38733 H 3642.41 -1.37953 3.6671 0
M  V30 38734 H 3644.11 -1.04566 3.87126 0
M  V30 38735 H 3640.7 0.330493 4.27324 0
M  V30 38736 H 3644.88 1.13718 4.83096 0
M  V30 38737 H 3640.14 2.26887 5.67743 0
M  V30 38738 H 3644.31 3.07409 6.24878 0
M  V30 38739 H 3641.94 3.64584 6.6707 0
M  V30 38740 N 3643.52 -1.57351 0.0885919 0
M  V30 38741 C 3644.93 -1.57333 -0.26806 0
M  V30 38742 C 3645.13 -1.09927 -1.68873 0
M  V30 38743 O 3644.19 -0.772771 -2.40384 0
M  V30 38744 C 3645.5 -3.00635 -0.0624125 0
M  V30 38745 C 3647.05 -3.12727 -0.130662 0
M  V30 38746 C 3647.52 -4.57976 0.046911 0
M  V30 38747 N 3649.02 -4.63199 -0.00813951 0
M  V30 38748 C 3649.75 -5.73305 0.104598 0
M  V30 38749 N 3649.25 -6.92267 0.271804 0
M  V30 38750 N 3651.04 -5.62081 0.0463321 0
M  V30 38751 H 3643.19 -1.86476 1.01689 0
M  V30 38752 H 3645.45 -0.860413 0.397986 0
M  V30 38753 H 3645.16 -3.39493 0.918564 0
M  V30 38754 H 3645.03 -3.68454 -0.807537 0
M  V30 38755 H 3647.42 -2.73746 -1.10214 0
M  V30 38756 H 3647.5 -2.47513 0.645845 0
M  V30 38757 H 3647.15 -4.9765 1.01523 0
M  V30 38758 H 3647.08 -5.21243 -0.749209 0
M  V30 38759 H 3649.57 -3.77658 -0.135098 0
M  V30 38760 H 3649.88 -7.72009 0.349517 0
M  V30 38761 H 3648.22 -6.9432 0.307387 0
M  V30 38762 H 3651.42 -4.68026 -0.0831173 0
M  V30 38763 H 3651.59 -6.47854 0.137643 0
M  V30 38764 N 3644.99 0.185069 -1.5651 0
M  V30 38765 C 3646.24 0.902107 -1.80849 0
M  V30 38766 C 3646.56 1.83371 -0.663327 0
M  V30 38767 O 3645.83 1.93306 0.31772 0
M  V30 38768 H 3644.41 0.336107 -0.667114 0
M  V30 38769 H 3647.08 0.188176 -1.93989 0
M  V30 38770 H 3646.17 1.48724 -2.74386 0
M  V30 38771 N 3646.47 1.50945 0.453144 0
M  V30 38772 C 3647.7 1.66893 1.23133 0
M  V30 38773 C 3648.12 0.359217 1.84638 0
M  V30 38774 O 3647.48 -0.678953 1.68107 0
M  V30 38775 C 3647.53 2.77503 2.3027 0
M  V30 38776 O 3646.63 2.40005 3.35367 0
M  V30 38777 H 3645.97 0.556991 0.361465 0
M  V30 38778 H 3648.5 1.97423 0.537139 0
M  V30 38779 H 3648.51 3.01118 2.75304 0
M  V30 38780 H 3647.19 3.72549 1.84878 0
M  V30 38781 H 3645.77 2.26905 2.9592 0
M  V30 38782 N 3647.95 -0.707543 1.40825 0
M  V30 38783 C 3649.18 -1.49436 1.42661 0
M  V30 38784 C 3649.59 -1.89181 0.0268808 0
M  V30 38785 O 3648.93 -1.56533 -0.961416 0
M  V30 38786 C 3648.99 -2.7949 2.26109 0
M  V30 38787 C 3648.66 -2.62021 3.74425 0
M  V30 38788 C 3649.65 -2.28751 4.66871 0
M  V30 38789 C 3647.34 -2.78035 4.18333 0
M  V30 38790 C 3649.33 -2.11716 6.01211 0
M  V30 38791 C 3647.02 -2.60617 5.52741 0
M  V30 38792 C 3648.02 -2.27507 6.43995 0
M  V30 38793 O 3647.71 -2.10229 7.75924 0
M  V30 38794 H 3647.44 -0.467466 0.488315 0
M  V30 38795 H 3649.99 -0.879687 1.85609 0
M  V30 38796 H 3648.22 -3.4332 1.77955 0
M  V30 38797 H 3649.91 -3.41243 2.19791 0
M  V30 38798 H 3650.68 -2.16005 4.34243 0
M  V30 38799 H 3646.56 -3.02792 3.47618 0
M  V30 38800 H 3650.1 -1.85795 6.72403 0
M  V30 38801 H 3646 -2.7295 5.84952 0
M  V30 38802 H 3646.77 -2.25086 7.86942 0
M  V30 38803 N 3649.43 -1.26454 -0.940588 0
M  V30 38804 C 3650.36 -1.10563 -2.05665 0
M  V30 38805 C 3651.34 -0.0106557 -1.70097 0
M  V30 38806 O 3652.52 -0.18279 -1.93338 0
M  V30 38807 C 3649.65 -0.738459 -3.39358 0
M  V30 38808 C 3648.61 -1.78524 -3.8899 0
M  V30 38809 C 3647.93 -1.27237 -5.19341 0
M  V30 38810 C 3649.23 -3.18687 -4.13806 0
M  V30 38811 H 3650.93 -2.03921 -2.19218 0
M  V30 38812 H 3648.47 -0.981838 -1.05337 0
M  V30 38813 H 3650.43 -0.614163 -4.169 0
M  V30 38814 H 3649.15 0.23083 -3.25783 0
M  V30 38815 H 3647.81 -1.89821 -3.13629 0
M  V30 38816 H 3647.46 -0.292904 -5.02146 0
M  V30 38817 H 3647.16 -1.97211 -5.53517 0
M  V30 38818 H 3648.68 -1.16075 -5.99465 0
M  V30 38819 H 3650.1 -3.10463 -4.8196 0
M  V30 38820 H 3648.49 -3.86257 -4.59266 0
M  V30 38821 H 3649.56 -3.647 -3.19565 0
M  V30 38822 N 3650.91 1.14525 -1.08268 0
M  V30 38823 C 3651.87 2.17757 -0.715155 0
M  V30 38824 C 3652.87 1.58855 0.249322 0
M  V30 38825 O 3654.06 1.74176 0.0290539 0
M  V30 38826 C 3651.19 3.40855 -0.0556349 0
M  V30 38827 H 3652.38 2.51785 -1.62925 0
M  V30 38828 H 3649.94 1.29148 -0.880369 0
M  V30 38829 H 3650.67 3.12405 0.870257 0
M  V30 38830 H 3650.46 3.84871 -0.74945 0
M  V30 38831 H 3651.95 4.17183 0.186519 0
M  V30 38832 N 3652.39 0.868133 1.31534 0
M  V30 38833 C 3653.63 0.47721 1.96385 0
M  V30 38834 C 3653.95 -0.973352 1.6897 0
M  V30 38835 O 3653.22 -1.68209 1.00412 0
M  V30 38836 H 3651.8 0.173481 0.726576 0
M  V30 38837 H 3654.47 1.10752 1.60375 0
M  V30 38838 H 3653.56 0.633429 3.05604 0
M  V30 38839 N 3653.86 -1.44574 0.627389 0
M  V30 38840 C 3654.83 -2.29093 -0.0700478 0
M  V30 38841 C 3655.83 -1.40839 -0.775944 0
M  V30 38842 O 3657.02 -1.62751 -0.6211 0
M  V30 38843 C 3654.15 -3.22332 -1.10971 0
M  V30 38844 H 3655.34 -2.92245 0.673286 0
M  V30 38845 H 3652.89 -1.51424 0.387349 0
M  V30 38846 H 3653.63 -2.64022 -1.88315 0
M  V30 38847 H 3653.41 -3.87365 -0.607519 0
M  V30 38848 H 3654.9 -3.85833 -1.59757 0
M  V30 38849 N 3655.34 -0.367711 -1.5325 0
M  V30 38850 C 3656.59 0.220878 -2.00889 0
M  V30 38851 C 3656.91 1.49108 -1.25665 0
M  V30 38852 O 3656.18 1.92364 -0.370525 0
M  V30 38853 H 3654.76 0.0846102 -0.742193 0
M  V30 38854 H 3657.42 -0.494435 -1.88524 0
M  V30 38855 H 3656.52 0.44636 -3.08892 0
M  V30 38856 N 3656.82 1.57302 -0.0969353 0
M  V30 38857 C 3657.75 2.17149 0.858405 0
M  V30 38858 C 3658.73 1.10534 1.29292 0
M  V30 38859 O 3659.92 1.38679 1.35948 0
M  V30 38860 C 3657.05 2.75329 2.11686 0
M  V30 38861 C 3656 3.87333 1.82091 0
M  V30 38862 C 3655.33 4.32224 3.1478 0
M  V30 38863 C 3656.63 5.10446 1.10642 0
M  V30 38864 H 3658.32 2.97231 0.359768 0
M  V30 38865 H 3655.87 1.42974 0.171605 0
M  V30 38866 H 3657.82 3.15849 2.78957 0
M  V30 38867 H 3656.54 1.92505 2.63836 0
M  V30 38868 H 3655.2 3.47356 1.17216 0
M  V30 38869 H 3654.85 3.46288 3.6482 0
M  V30 38870 H 3654.55 5.0774 2.9576 0
M  V30 38871 H 3656.07 4.75379 3.83207 0
M  V30 38872 H 3657.49 5.48124 1.68027 0
M  V30 38873 H 3655.88 5.91403 1.01795 0
M  V30 38874 H 3656.95 4.84817 0.0894782 0
M  V30 38875 N 3658.3 -0.176766 1.56606 0
M  V30 38876 C 3659.23 -1.22127 1.99016 0
M  V30 38877 C 3660.21 -1.4647 0.864895 0
M  V30 38878 O 3661.39 -1.57897 1.13058 0
M  V30 38879 C 3658.52 -2.56142 2.34539 0
M  V30 38880 C 3657.48 -2.46378 3.49974 0
M  V30 38881 C 3656.8 -3.84834 3.71224 0
M  V30 38882 C 3658.1 -1.97315 4.83595 0
M  V30 38883 H 3659.8 -0.868749 2.86519 0
M  V30 38884 H 3657.34 -0.416457 1.37846 0
M  V30 38885 H 3659.3 -3.29411 2.62805 0
M  V30 38886 H 3658.02 -2.93171 1.43939 0
M  V30 38887 H 3656.68 -1.75564 3.21828 0
M  V30 38888 H 3656.33 -4.19246 2.77923 0
M  V30 38889 H 3656.03 -3.7917 4.48892 0
M  V30 38890 H 3657.55 -4.59697 4.01885 0
M  V30 38891 H 3658.97 -2.60354 5.10773 0
M  V30 38892 H 3657.36 -2.02612 5.64862 0
M  V30 38893 H 3658.43 -0.927191 4.75953 0
M  V30 38894 N 3659.78 -1.51183 -0.445132 0
M  V30 38895 C 3661.02 -1.63465 -1.19521 0
M  V30 38896 C 3661.35 -0.34717 -1.91377 0
M  V30 38897 O 3660.61 0.668375 -1.83933 0
M  V30 38898 C 3660.9 -2.78277 -2.24269 0
M  V30 38899 C 3660.57 -4.17836 -1.69482 0
M  V30 38900 C 3659.23 -4.55803 -1.54263 0
M  V30 38901 C 3661.58 -5.04953 -1.29119 0
M  V30 38902 C 3658.91 -5.78602 -0.97143 0
M  V30 38903 C 3661.26 -6.28324 -0.734316 0
M  V30 38904 C 3659.93 -6.65071 -0.568962 0
M  V30 38905 H 3659.2 -0.598162 -0.437359 0
M  V30 38906 H 3661.85 -1.85194 -0.487387 0
M  V30 38907 H 3660.15 -2.50739 -3.0106 0
M  V30 38908 H 3661.85 -2.8498 -2.82112 0
M  V30 38909 H 3658.44 -3.87897 -1.82302 0
M  V30 38910 H 3662.62 -4.76232 -1.39701 0
M  V30 38911 H 3657.88 -6.05726 -0.831011 0
M  V30 38912 H 3662.05 -6.95174 -0.41301 0
M  V30 38913 H 3659.68 -7.60099 -0.124221 0
M  V30 38914 N 3661.25 0.700065 -1.41198 0
M  V30 38915 C 3662.48 1.49397 -1.43858 0
M  V30 38916 C 3662.9 1.88048 -0.0442208 0
M  V30 38917 O 3662.26 1.54326 0.951476 0
M  V30 38918 C 3662.31 2.7358 -2.34918 0
M  V30 38919 O 3661.41 3.70893 -1.80312 0
M  V30 38920 H 3660.75 0.449824 -0.48842 0
M  V30 38921 H 3663.28 0.860879 -1.85607 0
M  V30 38922 H 3663.29 3.21938 -2.50639 0
M  V30 38923 H 3661.97 2.44785 -3.36234 0
M  V30 38924 H 3660.55 3.29806 -1.74018 0
M  V30 38925 N 3662.73 1.26951 0.933869 0
M  V30 38926 C 3663.98 1.12313 1.67537 0
M  V30 38927 C 3664.29 -0.331754 1.92766 0
M  V30 38928 O 3665.5 -0.598936 2.64811 0
M  V30 38929 C 3663.96 1.96199 3.01718 0
M  V30 38930 C 3663.56 3.46307 2.8421 0
M  V30 38931 C 3665.31 1.90191 3.7951 0
M  V30 38932 C 3663.21 4.22414 4.13909 0
M  V30 38933 H 3662.14 0.416715 0.628382 0
M  V30 38934 H 3664.8 1.51322 1.03798 0
M  V30 38935 H 3663.18 1.5003 3.66479 0
M  V30 38936 H 3664.35 4.00296 2.28254 0
M  V30 38937 H 3662.67 3.53629 2.19854 0
M  V30 38938 H 3665.26 2.44333 4.7561 0
M  V30 38939 H 3665.61 0.8742 4.07018 0
M  V30 38940 H 3666.14 2.34223 3.21535 0
M  V30 38941 H 3662.88 5.25684 3.91582 0
M  V30 38942 H 3662.4 3.73204 4.69552 0
M  V30 38943 H 3664.08 4.31256 4.82314 0
M  V30 38944 N 3664.21 -1.13949 1.08873 0
M  V30 38945 C 3665.14 -2.18234 0.667013 0
M  V30 38946 C 3666.12 -1.59347 -0.323636 0
M  V30 38947 O 3667.3 -1.87136 -0.226361 0
M  V30 38948 C 3664.43 -3.38695 -0.0182084 0
M  V30 38949 C 3663.48 -4.16162 0.933346 0
M  V30 38950 S 3664.31 -4.76553 2.44249 0
M  V30 38951 C 3665.47 -6.00366 1.76952 0
M  V30 38952 H 3665.7 -2.53669 1.55046 0
M  V30 38953 H 3663.23 -1.25156 0.904171 0
M  V30 38954 H 3665.19 -4.08475 -0.407267 0
M  V30 38955 H 3663.85 -3.01573 -0.878219 0
M  V30 38956 H 3663.04 -5.02403 0.400881 0
M  V30 38957 H 3662.65 -3.5201 1.26353 0
M  V30 38958 H 3664.94 -6.6867 1.09024 0
M  V30 38959 H 3665.88 -6.5821 2.61086 0
M  V30 38960 H 3666.29 -5.50693 1.24085 0
M  V30 38961 N 3665.69 -0.875096 -1.31072 0
M  V30 38962 C 3666.63 -0.332758 -2.28389 0
M  V30 38963 C 3667.6 0.571612 -1.55955 0
M  V30 38964 O 3668.79 0.502153 -1.84074 0
M  V30 38965 C 3665.93 0.455304 -3.42083 0
M  V30 38966 C 3665.04 -0.477163 -4.29357 0
M  V30 38967 C 3664.18 0.325526 -5.30202 0
M  V30 38968 C 3663.22 -0.603042 -6.09122 0
M  V30 38969 N 3662.35 0.163713 -7.01909 0
M  V30 38970 H 3667.19 -1.16782 -2.74164 0
M  V30 38971 H 3664.73 -0.587272 -1.34869 0
M  V30 38972 H 3666.69 0.928033 -4.06747 0
M  V30 38973 H 3665.32 1.25502 -2.97404 0
M  V30 38974 H 3664.37 -1.06836 -3.65089 0
M  V30 38975 H 3665.68 -1.18896 -4.84423 0
M  V30 38976 H 3664.84 0.860542 -6.00566 0
M  V30 38977 H 3663.58 1.07059 -4.75804 0
M  V30 38978 H 3662.58 -1.14977 -5.37643 0
M  V30 38979 H 3663.81 -1.34704 -6.65606 0
M  V30 38980 H 3661.75 0.89149 -6.49914 0
M  V30 38981 H 3661.67 -0.488642 -7.54419 0
M  V30 38982 H 3662.94 0.679792 -7.7653 0
M  V30 38983 N 3667.17 1.44239 -0.635047 0
M  V30 38984 C 3668.11 2.32463 0.079681 0
M  V30 38985 C 3669.11 1.47572 0.831792 0
M  V30 38986 O 3670.31 1.63893 0.744249 0
M  V30 38987 H 3666.69 0.75068 0.04454 0
M  V30 38988 H 3668.66 2.90492 -0.682425 0
M  V30 38989 C 3667.41 3.31625 1.04499 0
M  V30 38990 H 3666.73 3.9696 0.475685 0
M  V30 38991 H 3668.17 3.96029 1.51451 0
M  V30 38992 C 3666.63 2.60846 2.13216 0
M  V30 38993 O 3667.16 2.4103 3.21352 0
M  V30 38994 N 3665.37 2.20519 1.89261 0
M  V30 38995 H 3664.91 2.36835 1.01325 0
M  V30 38996 H 3664.87 1.73489 2.622 0
M  V30 38997 N 3668.64 0.375833 1.53053 0
M  V30 38998 C 3669.87 -0.211098 2.0582 0
M  V30 38999 C 3670.29 -1.41618 1.24859 0
M  V30 39000 O 3669.64 -1.80152 0.291817 0
M  V30 39001 C 3669.7 -0.59451 3.56578 0
M  V30 39002 O 3669.42 0.562683 4.34471 0
M  V30 39003 C 3670.92 -1.23874 4.25641 0
M  V30 39004 H 3668.14 -0.035015 0.670086 0
M  V30 39005 H 3670.68 0.537169 1.97319 0
M  V30 39006 H 3668.84 -1.29269 3.65196 0
M  V30 39007 H 3669.25 0.250579 5.23901 0
M  V30 39008 H 3670.72 -1.45749 5.32411 0
M  V30 39009 H 3671.2 -2.20211 3.80005 0
M  V30 39010 H 3671.81 -0.581712 4.21303 0
M  V30 39011 N 3670.12 -1.57248 0.105276 0
M  V30 39012 C 3671.35 -1.99061 -0.564122 0
M  V30 39013 C 3671.77 -0.984653 -1.6109 0
M  V30 39014 O 3671.12 0.024371 -1.82484 0
M  V30 39015 C 3671.17 -3.40908 -1.20266 0
M  V30 39016 O 3670.89 -4.37654 -0.197738 0
M  V30 39017 C 3672.4 -3.97779 -1.9567 0
M  V30 39018 H 3669.62 -0.653914 -0.150457 0
M  V30 39019 H 3672.16 -2.03638 0.187568 0
M  V30 39020 H 3670.31 -3.37313 -1.90522 0
M  V30 39021 H 3670.73 -5.20332 -0.659907 0
M  V30 39022 H 3672.2 -4.99152 -2.35693 0
M  V30 39023 H 3672.68 -3.36159 -2.82655 0
M  V30 39024 H 3673.29 -4.04878 -1.30207 0
M  V30 39025 N 3671.6 0.168458 -1.56697 0
M  V30 39026 C 3672.83 0.904162 -1.86654 0
M  V30 39027 C 3673.25 1.74911 -0.691937 0
M  V30 39028 O 3672.61 1.77711 0.35894 0
M  V30 39029 C 3672.66 1.75437 -3.15047 0
M  V30 39030 O 3671.76 2.8563 -2.97471 0
M  V30 39031 H 3671.1 0.253117 -0.613863 0
M  V30 39032 H 3673.63 0.165737 -2.03928 0
M  V30 39033 H 3673.64 2.15372 -3.46524 0
M  V30 39034 H 3672.32 1.13374 -4.00149 0
M  V30 39035 H 3670.89 2.49257 -2.77354 0
M  V30 39036 N 3673.08 1.51417 0.437109 0
M  V30 39037 C 3674.31 1.67905 1.20895 0
M  V30 39038 C 3674.72 0.376491 1.85008 0
M  V30 39039 O 3674.08 -0.645021 1.70721 0
M  V30 39040 C 3674.13 2.79486 2.29281 0
M  V30 39041 O 3673.85 4.04695 1.67791 0
M  V30 39042 C 3675.35 3.07244 3.19556 0
M  V30 39043 H 3672.57 0.563449 0.364371 0
M  V30 39044 H 3675.12 1.97833 0.517896 0
M  V30 39045 H 3673.27 2.52155 2.94103 0
M  V30 39046 H 3673.68 4.66665 2.39425 0
M  V30 39047 H 3675.16 3.889 3.91741 0
M  V30 39048 H 3675.64 2.19661 3.80323 0
M  V30 39049 H 3676.24 3.36234 2.60435 0
M  V30 39050 N 3674.56 -0.692567 1.41567 0
M  V30 39051 C 3675.97 -1.00353 1.24102 0
M  V30 39052 C 3676.17 -2.01064 0.132521 0
M  V30 39053 O 3675.23 -2.47458 -0.502099 0
M  V30 39054 C 3676.54 -1.52528 2.59144 0
M  V30 39055 C 3678.09 -1.64396 2.66351 0
M  V30 39056 C 3678.56 -2.19971 4.01717 0
M  V30 39057 N 3680.06 -2.27328 4.03579 0
M  V30 39058 C 3680.79 -2.71364 5.05123 0
M  V30 39059 N 3680.29 -3.14983 6.17056 0
M  V30 39060 N 3682.08 -2.70955 4.92483 0
M  V30 39061 H 3674.23 -0.0254486 2.12385 0
M  V30 39062 H 3676.49 -0.0738518 0.945119 0
M  V30 39063 H 3676.2 -0.85983 3.41028 0
M  V30 39064 H 3676.07 -2.50694 2.81838 0
M  V30 39065 H 3678.46 -2.30052 1.84825 0
M  V30 39066 H 3678.54 -0.647673 2.47465 0
M  V30 39067 H 3678.19 -1.5493 4.83693 0
M  V30 39068 H 3678.12 -3.20358 4.17945 0
M  V30 39069 H 3680.61 -1.9655 3.22764 0
M  V30 39070 H 3680.92 -3.47219 6.90405 0
M  V30 39071 H 3679.26 -3.12884 6.20587 0
M  V30 39072 H 3682.46 -2.36229 4.04121 0
M  V30 39073 H 3682.63 -3.04955 5.71757 0
M  V30 39074 N 3676.03 -1.27445 -0.927123 0
M  V30 39075 C 3677.45 -1.04862 -1.20317 0
M  V30 39076 C 3677.65 0.217456 -2.00323 0
M  V30 39077 O 3676.71 0.922791 -2.35034 0
M  V30 39078 C 3678.02 -2.28836 -1.95076 0
M  V30 39079 C 3679.57 -2.3388 -2.08012 0
M  V30 39080 C 3680.04 -3.57585 -2.86176 0
M  V30 39081 N 3681.53 -3.58146 -2.93744 0
M  V30 39082 C 3682.27 -4.50536 -3.5469 0
M  V30 39083 N 3681.76 -5.53231 -4.17022 0
M  V30 39084 N 3683.56 -4.38158 -3.52099 0
M  V30 39085 H 3675.71 -2.08739 -0.392634 0
M  V30 39086 H 3677.97 -0.918076 -0.236307 0
M  V30 39087 H 3677.68 -3.21001 -1.43706 0
M  V30 39088 H 3677.55 -2.34198 -2.95688 0
M  V30 39089 H 3679.94 -1.42221 -2.58567 0
M  V30 39090 H 3680.02 -2.32521 -1.06618 0
M  V30 39091 H 3679.66 -4.49581 -2.36304 0
M  V30 39092 H 3679.59 -3.56195 -3.87857 0
M  V30 39093 H 3682.08 -2.83877 -2.49444 0
M  V30 39094 H 3682.4 -6.19894 -4.61466 0
M  V30 39095 H 3680.74 -5.57072 -4.15567 0
M  V30 39096 H 3683.93 -3.57139 -3.02604 0
M  V30 39097 H 3684.11 -5.10351 -3.99306 0
M  V30 39098 N 3677.51 1.1337 -1.09476 0
M  V30 39099 C 3678.76 1.84293 -0.829482 0
M  V30 39100 C 3679.08 1.83962 0.646756 0
M  V30 39101 O 3678.35 1.29574 1.46926 0
M  V30 39102 H 3676.93 0.682404 -0.303865 0
M  V30 39103 H 3679.59 1.37328 -1.38301 0
M  V30 39104 H 3678.69 2.88791 -1.18347 0
M  V30 39105 N 3678.99 0.882035 1.30606 0
M  V30 39106 C 3680.22 0.51385 2.00418 0
M  V30 39107 C 3680.63 -0.896887 1.66137 0
M  V30 39108 O 3679.99 -1.58938 0.896938 0
M  V30 39109 C 3680.04 0.675565 3.55131 0
M  V30 39110 O 3679.76 2.03076 3.8819 0
M  V30 39111 C 3681.26 0.309984 4.42215 0
M  V30 39112 H 3678.48 0.198924 0.640835 0
M  V30 39113 H 3681.03 1.18652 1.66559 0
M  V30 39114 H 3679.18 0.050297 3.87367 0
M  V30 39115 H 3679.6 2.04725 4.82895 0
M  V30 39116 H 3681.07 0.474045 5.49961 0
M  V30 39117 H 3681.55 -0.751776 4.32718 0
M  V30 39118 H 3682.15 0.911453 4.15419 0
M  V30 39119 N 3680.47 -1.439 0.642688 0
M  V30 39120 C 3681.72 -2.01531 0.151513 0
M  V30 39121 C 3682.04 -1.50893 -1.23516 0
M  V30 39122 O 3681.31 -0.717229 -1.82298 0
M  V30 39123 H 3679.89 -0.745116 0.0530222 0
M  V30 39124 H 3682.55 -1.7625 0.831989 0
M  V30 39125 H 3681.65 -3.11837 0.12805 0
M  V30 39126 N 3681.95 -0.383945 -1.52852 0
M  V30 39127 C 3682.9 0.468722 -2.27828 0
M  V30 39128 C 3683.89 1.06768 -1.31518 0
M  V30 39129 O 3685.1 1.00877 -1.49076 0
M  V30 39130 H 3681.47 0.169904 -0.732555 0
M  V30 39131 H 3683.44 -0.185176 -2.97825 0
M  V30 39132 C 3682.19 1.58678 -3.09381 0
M  V30 39133 H 3681.51 1.1352 -3.83345 0
M  V30 39134 H 3682.95 2.15773 -3.64991 0
M  V30 39135 C 3681.41 2.53972 -2.21359 0
M  V30 39136 O 3681.94 3.57249 -1.83674 0
M  V30 39137 N 3680.15 2.23588 -1.85625 0
M  V30 39138 H 3679.7 1.39638 -2.16469 0
M  V30 39139 H 3679.65 2.87599 -1.2702 0
M  V30 39140 N 3683.43 1.5719 -0.113614 0
M  V30 39141 C 3684.67 1.94184 0.545472 0
M  V30 39142 C 3684.99 0.998845 1.68174 0
M  V30 39143 O 3686.19 1.26323 2.40322 0
M  V30 39144 C 3684.65 3.45093 1.02172 0
M  V30 39145 C 3684.26 4.47918 -0.0857983 0
M  V30 39146 C 3686 3.91016 1.65248 0
M  V30 39147 C 3683.91 5.89999 0.406842 0
M  V30 39148 H 3682.84 0.724875 0.207537 0
M  V30 39149 H 3685.49 1.82486 -0.1926 0
M  V30 39150 H 3683.87 3.52006 1.81404 0
M  V30 39151 H 3685.05 4.52668 -0.861901 0
M  V30 39152 H 3683.36 4.11715 -0.622889 0
M  V30 39153 H 3685.96 4.9458 2.03211 0
M  V30 39154 H 3686.3 3.30691 2.52882 0
M  V30 39155 H 3686.83 3.8688 0.925659 0
M  V30 39156 H 3683.57 6.54066 -0.433314 0
M  V30 39157 H 3683.09 5.88681 1.14954 0
M  V30 39158 H 3684.77 6.41126 0.869821 0
M  V30 39159 N 3684.9 -0.160146 1.56784 0
M  V30 39160 C 3686.15 -0.873221 1.82262 0
M  V30 39161 C 3686.47 -1.82293 0.692416 0
M  V30 39162 O 3685.74 -1.93787 -0.286927 0
M  V30 39163 H 3684.32 -0.325451 0.672377 0
M  V30 39164 H 3686.98 -0.157291 1.94264 0
M  V30 39165 H 3686.08 -1.4434 2.76717 0
M  V30 39166 N 3686.38 -1.51647 -0.429072 0
M  V30 39167 C 3687.29 -1.76415 -1.54645 0
M  V30 39168 C 3688.31 -0.648731 -1.61454 0
M  V30 39169 O 3689.48 -0.931919 -1.78542 0
M  V30 39170 C 3686.55 -1.89147 -2.90559 0
M  V30 39171 C 3685.61 -3.13019 -2.93799 0
M  V30 39172 C 3684.84 -3.25134 -4.2323 0
M  V30 39173 O 3685.07 -2.42988 -5.16055 0
M  V30 39174 O 3684 -4.18165 -4.32922 0
M  V30 39175 H 3687.83 -2.71217 -1.36657 0
M  V30 39176 H 3685.41 -1.36248 -0.612922 0
M  V30 39177 H 3687.29 -1.99459 -3.71206 0
M  V30 39178 H 3685.97 -0.975326 -3.08657 0
M  V30 39179 H 3684.87 -3.08179 -2.12076 0
M  V30 39180 H 3686.21 -4.04349 -2.80647 0
M  V30 39181 N 3687.86 0.685049 -1.41932 0
M  V30 39182 C 3689.09 1.47362 -1.45231 0
M  V30 39183 C 3689.5 1.88703 -0.0606281 0
M  V30 39184 O 3688.86 1.57473 0.922413 0
M  V30 39185 C 3688.91 2.72938 -2.37038 0
M  V30 39186 O 3688.63 2.33335 -3.70791 0
M  V30 39187 C 3690.13 3.66591 -2.4925 0
M  V30 39188 H 3687.35 0.453773 -0.494299 0
M  V30 39189 H 3689.9 0.842597 -1.86335 0
M  V30 39190 H 3688.05 3.32253 -1.99215 0
M  V30 39191 H 3688.47 3.14355 -4.19859 0
M  V30 39192 H 3689.94 4.51458 -3.17632 0
M  V30 39193 H 3690.42 4.11796 -1.5271 0
M  V30 39194 H 3691.02 3.13175 -2.87752 0
M  V30 39195 N 3689.34 1.27935 0.920351 0
M  V30 39196 C 3690.27 1.13821 2.0388 0
M  V30 39197 C 3691.25 0.0377152 1.70058 0
M  V30 39198 O 3692.43 0.213526 1.93023 0
M  V30 39199 C 3689.56 0.792355 3.38141 0
M  V30 39200 C 3688.52 1.84689 3.86101 0
M  V30 39201 C 3687.84 1.35483 5.17251 0
M  V30 39202 C 3689.14 3.2523 4.08684 0
M  V30 39203 H 3690.84 2.07383 2.15946 0
M  V30 39204 H 3688.38 0.998472 1.03762 0
M  V30 39205 H 3690.34 0.68041 4.15871 0
M  V30 39206 H 3689.06 -0.178971 3.26109 0
M  V30 39207 H 3687.72 1.94787 3.1057 0
M  V30 39208 H 3687.37 0.372754 5.01617 0
M  V30 39209 H 3687.07 2.05992 5.5031 0
M  V30 39210 H 3688.59 1.25598 5.97543 0
M  V30 39211 H 3690.01 3.18091 4.7696 0
M  V30 39212 H 3688.4 3.93515 4.53063 0
M  V30 39213 H 3689.47 3.69738 3.13722 0
M  V30 39214 N 3690.82 -1.12788 1.10076 0
M  V30 39215 C 3692.06 -1.83851 0.839244 0
M  V30 39216 C 3692.38 -1.84303 -0.636991 0
M  V30 39217 O 3691.65 -1.30351 -1.46237 0
M  V30 39218 H 3690.23 -0.680783 0.30748 0
M  V30 39219 H 3692.9 -1.36593 1.39027 0
M  V30 39220 H 3691.99 -2.8816 1.19877 0
M  V30 39221 N 3692.29 -0.888949 -1.30136 0
M  V30 39222 C 3693.2 -0.362841 -2.31777 0
M  V30 39223 C 3694.22 0.536951 -1.65508 0
M  V30 39224 O 3695.4 0.429117 -1.96775 0
M  V30 39225 C 3692.46 0.410612 -3.4426 0
M  V30 39226 C 3691.52 -0.519409 -4.26146 0
M  V30 39227 C 3690.75 0.217226 -5.33258 0
M  V30 39228 O 3690.98 1.44274 -5.51852 0
M  V30 39229 O 3689.91 -0.434716 -6.00328 0
M  V30 39230 H 3693.74 -1.2058 -2.78737 0
M  V30 39231 H 3691.32 -0.652913 -1.34378 0
M  V30 39232 H 3693.2 0.848395 -4.12771 0
M  V30 39233 H 3691.88 1.22981 -2.99428 0
M  V30 39234 H 3690.79 -1.00608 -3.60318 0
M  V30 39235 H 3692.12 -1.30472 -4.74592 0
M  V30 39236 N 3693.77 1.43557 -0.65031 0
M  V30 39237 C 3694.72 2.3076 0.0430574 0
M  V30 39238 C 3695.69 1.44584 0.817604 0
M  V30 39239 O 3696.87 1.73458 0.794794 0
M  V30 39240 C 3694.01 3.30126 1.00551 0
M  V30 39241 C 3693.13 4.31401 0.227372 0
M  V30 39242 C 3692.26 5.17851 1.18336 0
M  V30 39243 C 3691.3 6.10821 0.395489 0
M  V30 39244 N 3690.44 6.89905 1.30292 0
M  V30 39245 H 3695.28 2.89505 -0.706452 0
M  V30 39246 H 3692.81 1.42623 -0.360143 0
M  V30 39247 H 3694.77 3.86243 1.5771 0
M  V30 39248 H 3693.4 2.73037 1.72193 0
M  V30 39249 H 3692.45 3.77603 -0.460458 0
M  V30 39250 H 3693.77 4.97309 -0.385403 0
M  V30 39251 H 3692.92 5.78579 1.82568 0
M  V30 39252 H 3691.66 4.52062 1.83005 0
M  V30 39253 H 3690.66 5.49184 -0.260196 0
M  V30 39254 H 3691.89 6.78652 -0.246752 0
M  V30 39255 H 3689.84 6.26767 1.93646 0
M  V30 39256 H 3689.75 7.52324 0.744636 0
M  V30 39257 H 3691.02 7.5514 1.93347 0
M  V30 39258 N 3695.25 0.392045 1.52646 0
M  V30 39259 C 3696.5 -0.182004 2.02584 0
M  V30 39260 C 3696.85 -1.44241 1.27327 0
M  V30 39261 O 3696.14 -1.88072 0.365984 0
M  V30 39262 C 3696.34 -0.500852 3.53873 0
M  V30 39263 C 3696.17 0.727105 4.43783 0
M  V30 39264 C 3694.94 1.24719 4.89666 0
M  V30 39265 C 3697.13 1.60023 4.88771 0
M  V30 39266 N 3695.12 2.43241 5.63655 0
M  V30 39267 C 3696.49 2.63184 5.61368 0
M  V30 39268 C 3698.54 1.62 4.70808 0
M  V30 39269 C 3697.25 3.68212 6.17909 0
M  V30 39270 C 3699.27 2.65937 5.28234 0
M  V30 39271 C 3698.63 3.6782 6.00739 0
M  V30 39272 H 3694.73 -0.0286152 0.781476 0
M  V30 39273 H 3697.32 0.542553 1.86988 0
M  V30 39274 H 3695.49 -1.19446 3.69577 0
M  V30 39275 H 3697.22 -1.06229 3.90509 0
M  V30 39276 H 3693.97 0.807779 4.6666 0
M  V30 39277 H 3694.4 3.03219 6.05299 0
M  V30 39278 H 3699.04 0.845772 4.14254 0
M  V30 39279 H 3696.76 4.46501 6.73544 0
M  V30 39280 H 3700.34 2.68353 5.16215 0
M  V30 39281 H 3699.22 4.46925 6.44381 0
M  V30 39282 N 3696.73 -1.57127 0.121948 0
M  V30 39283 C 3697.68 -2.15468 -0.827167 0
M  V30 39284 C 3698.65 -1.08049 -1.26153 0
M  V30 39285 O 3699.83 -1.35971 -1.33852 0
M  V30 39286 C 3696.97 -2.76071 -2.07072 0
M  V30 39287 C 3696.08 -3.97807 -1.68445 0
M  V30 39288 C 3695.22 -4.46487 -2.87789 0
M  V30 39289 C 3694.26 -5.60747 -2.45416 0
M  V30 39290 N 3693.39 -6.04158 -3.57684 0
M  V30 39291 H 3698.23 -2.96246 -0.322827 0
M  V30 39292 H 3695.77 -1.46357 -0.147651 0
M  V30 39293 H 3697.73 -3.0934 -2.79937 0
M  V30 39294 H 3696.36 -1.97978 -2.5496 0
M  V30 39295 H 3695.41 -3.7068 -0.854422 0
M  V30 39296 H 3696.72 -4.80656 -1.33307 0
M  V30 39297 H 3695.88 -4.8168 -3.68876 0
M  V30 39298 H 3694.62 -3.62593 -3.26156 0
M  V30 39299 H 3693.62 -5.25156 -1.62763 0
M  V30 39300 H 3694.85 -6.46409 -2.08164 0
M  V30 39301 H 3692.79 -5.23204 -3.95719 0
M  V30 39302 H 3692.71 -6.8187 -3.26479 0
M  V30 39303 H 3693.98 -6.43989 -4.39202 0
M  V30 39304 N 3698.21 0.151829 -1.56867 0
M  V30 39305 C 3699.43 0.884314 -1.87602 0
M  V30 39306 C 3699.86 1.74167 -0.710449 0
M  V30 39307 O 3699.21 1.78082 0.340071 0
M  V30 39308 C 3699.26 1.72085 -3.1689 0
M  V30 39309 O 3698.37 2.82459 -3.00484 0
M  V30 39310 H 3697.71 0.246592 -0.616513 0
M  V30 39311 H 3700.24 0.144099 -2.04092 0
M  V30 39312 H 3700.25 2.11685 -3.48789 0
M  V30 39313 H 3698.92 1.09124 -4.01329 0
M  V30 39314 H 3697.5 2.46301 -2.79982 0
M  V30 39315 N 3699.68 1.51872 0.421024 0
M  V30 39316 C 3701.1 1.4041 0.758756 0
M  V30 39317 C 3701.3 0.499231 1.95218 0
M  V30 39318 O 3700.36 -0.0394772 2.52469 0
M  V30 39319 C 3701.67 2.82733 1.02384 0
M  V30 39320 C 3703.22 2.91996 1.12728 0
M  V30 39321 C 3703.69 4.35261 1.42519 0
M  V30 39322 N 3705.18 4.38442 1.49409 0
M  V30 39323 C 3705.92 5.46342 1.74064 0
M  V30 39324 N 3705.41 6.64378 1.96402 0
M  V30 39325 N 3707.21 5.33842 1.75981 0
M  V30 39326 H 3699.36 2.09245 -0.364719 0
M  V30 39327 H 3701.62 0.942622 -0.100836 0
M  V30 39328 H 3701.33 3.51015 0.219429 0
M  V30 39329 H 3701.2 3.23055 1.94718 0
M  V30 39330 H 3703.59 2.23902 1.92229 0
M  V30 39331 H 3703.67 2.55148 0.182566 0
M  V30 39332 H 3703.31 5.0391 0.635397 0
M  V30 39333 H 3703.24 4.69635 2.38223 0
M  V30 39334 H 3705.73 3.53351 1.33984 0
M  V30 39335 H 3706.05 7.42397 2.14631 0
M  V30 39336 H 3704.39 6.67465 1.93691 0
M  V30 39337 H 3707.58 4.40607 1.58059 0
M  V30 39338 H 3707.76 6.18009 1.94857 0
M  V30 39339 N 3701.16 -0.677513 1.42294 0
M  V30 39340 C 3702.09 -1.8032 1.48347 0
M  V30 39341 C 3703.07 -1.66661 0.340305 0
M  V30 39342 O 3704.26 -1.86123 0.554242 0
M  V30 39343 C 3701.39 -3.18596 1.38253 0
M  V30 39344 C 3700.34 -3.46987 2.50568 0
M  V30 39345 C 3699.67 -4.84808 2.25532 0
M  V30 39346 C 3700.97 -3.44151 3.92883 0
M  V30 39347 H 3702.66 -1.75512 2.42561 0
M  V30 39348 H 3700.21 -0.842978 1.16747 0
M  V30 39349 H 3702.16 -3.97077 1.41096 0
M  V30 39350 H 3700.89 -3.24075 0.405312 0
M  V30 39351 H 3699.54 -2.70866 2.47037 0
M  V30 39352 H 3699.19 -4.86934 1.26111 0
M  V30 39353 H 3698.89 -5.04767 3.00806 0
M  V30 39354 H 3700.42 -5.65577 2.3012 0
M  V30 39355 H 3701.83 -4.12606 3.98032 0
M  V30 39356 H 3700.23 -3.75645 4.67986 0
M  V30 39357 H 3701.3 -2.42776 4.19747 0
M  V30 39358 N 3702.64 -1.28421 -0.913554 0
M  V30 39359 C 3703.59 -1.12224 -2.03737 0
M  V30 39360 C 3704.58 -0.0414607 -1.69349 0
M  V30 39361 O 3705.79 -0.200244 -1.78883 0
M  V30 39362 H 3702.16 -0.346242 -0.667548 0
M  V30 39363 H 3704.13 -2.074 -2.14541 0
M  V30 39364 C 3702.88 -0.801063 -3.38346 0
M  V30 39365 H 3702.21 -1.62467 -3.65301 0
M  V30 39366 H 3703.65 -0.727684 -4.17709 0
M  V30 39367 C 3702.11 0.495203 -3.33241 0
M  V30 39368 O 3702.64 1.52544 -3.71609 0
M  V30 39369 N 3700.84 0.496004 -2.86336 0
M  V30 39370 H 3700.39 -0.342818 -2.55309 0
M  V30 39371 H 3700.35 1.36335 -2.83302 0
M  V30 39372 N 3704.12 1.12202 -1.10672 0
M  V30 39373 C 3705.08 2.16191 -0.761183 0
M  V30 39374 C 3706.08 1.59348 0.215571 0
M  V30 39375 O 3707.27 1.74198 -0.00789785 0
M  V30 39376 C 3704.4 3.4066 -0.127923 0
M  V30 39377 H 3705.6 2.48272 -1.68229 0
M  V30 39378 H 3703.15 1.27252 -0.907565 0
M  V30 39379 H 3703.88 3.14181 0.803796 0
M  V30 39380 H 3703.67 3.83195 -0.830918 0
M  V30 39381 H 3705.16 4.17485 0.0979859 0
M  V30 39382 N 3705.6 0.895838 1.29663 0
M  V30 39383 C 3706.53 0.387191 2.30267 0
M  V30 39384 C 3707.51 -0.535739 1.61443 0
M  V30 39385 O 3708.69 -0.447288 1.88979 0
M  V30 39386 C 3705.82 -0.389578 3.45108 0
M  V30 39387 C 3704.78 0.442573 4.25706 0
M  V30 39388 C 3704.1 -0.461459 5.32705 0
M  V30 39389 C 3705.4 1.69045 4.94187 0
M  V30 39390 H 3707.1 1.22791 2.73062 0
M  V30 39391 H 3704.64 0.591892 1.31273 0
M  V30 39392 H 3706.6 -0.75613 4.14561 0
M  V30 39393 H 3705.32 -1.26404 3.01147 0
M  V30 39394 H 3703.98 0.791406 3.57956 0
M  V30 39395 H 3703.63 -1.33395 4.84989 0
M  V30 39396 H 3703.33 0.0916039 5.87529 0
M  V30 39397 H 3704.85 -0.824288 6.05011 0
M  V30 39398 H 3706.26 1.39386 5.56098 0
M  V30 39399 H 3704.66 2.18454 5.58926 0
M  V30 39400 H 3705.73 2.42866 4.19695 0
M  V30 39401 N 3707.07 -1.43211 0.657914 0
M  V30 39402 C 3708.32 -2.01359 0.17288 0
M  V30 39403 C 3708.64 -1.52195 -1.21909 0
M  V30 39404 O 3707.91 -0.736524 -1.81527 0
M  V30 39405 H 3706.49 -0.744512 0.0609222 0
M  V30 39406 H 3709.16 -1.75357 0.850636 0
M  V30 39407 H 3708.25 -3.11684 0.161117 0
M  V30 39408 N 3708.55 -0.400135 -1.52436 0
M  V30 39409 C 3709.5 0.429759 -2.26764 0
M  V30 39410 C 3710.47 1.04868 -1.2881 0
M  V30 39411 O 3711.65 1.07465 -1.57657 0
M  V30 39412 C 3708.79 1.54534 -3.08567 0
M  V30 39413 C 3707.91 0.94822 -4.21465 0
M  V30 39414 C 3707.04 2.03575 -4.90643 0
M  V30 39415 C 3706.08 1.41509 -5.95518 0
M  V30 39416 N 3705.22 2.44239 -6.58249 0
M  V30 39417 H 3710.06 -0.210519 -2.97255 0
M  V30 39418 H 3707.6 -0.115652 -1.46645 0
M  V30 39419 H 3709.55 2.20301 -3.54293 0
M  V30 39420 H 3708.18 2.15577 -2.40263 0
M  V30 39421 H 3707.24 0.179852 -3.79975 0
M  V30 39422 H 3708.55 0.454758 -4.96723 0
M  V30 39423 H 3707.7 2.77088 -5.39729 0
M  V30 39424 H 3706.44 2.56284 -4.14933 0
M  V30 39425 H 3705.45 0.665258 -5.4576 0
M  V30 39426 H 3706.67 0.895812 -6.73166 0
M  V30 39427 H 3704.62 2.96097 -5.85374 0
M  V30 39428 H 3704.53 1.99679 -7.29153 0
M  V30 39429 H 3705.8 3.17349 -7.11976 0
M  V30 39430 N 3710.03 1.57061 -0.13028 0
M  V30 39431 C 3711.26 2.00363 0.535672 0
M  V30 39432 C 3711.68 1.00959 1.5871 0
M  V30 39433 O 3711.04 -0.0171227 1.81292 0
M  V30 39434 C 3711.09 3.42493 1.1283 0
M  V30 39435 O 3710.19 3.46029 2.24361 0
M  V30 39436 H 3709.53 0.6506 0.132724 0
M  V30 39437 H 3712.06 2.03391 -0.222083 0
M  V30 39438 H 3712.07 3.80941 1.46108 0
M  V30 39439 H 3710.75 4.14354 0.358231 0
M  V30 39440 H 3709.32 3.19409 1.92438 0
M  V30 39441 N 3711.51 -0.143508 1.56945 0
M  V30 39442 C 3712.42 -1.19646 2.01797 0
M  V30 39443 C 3713.44 -1.46808 0.933991 0
M  V30 39444 O 3714.61 -1.58409 1.24373 0
M  V30 39445 C 3711.68 -2.50915 2.39254 0
M  V30 39446 C 3710.74 -2.31369 3.61617 0
M  V30 39447 C 3709.97 -3.56379 3.97278 0
M  V30 39448 O 3710.19 -4.62703 3.3356 0
M  V30 39449 O 3709.13 -3.48835 4.90508 0
M  V30 39450 H 3712.95 -0.845666 2.91688 0
M  V30 39451 H 3710.54 -0.352493 1.45182 0
M  V30 39452 H 3712.42 -3.28301 2.6419 0
M  V30 39453 H 3711.1 -2.85518 1.52516 0
M  V30 39454 H 3710 -1.51923 3.41863 0
M  V30 39455 H 3711.34 -2.01681 4.48983 0
M  V30 39456 N 3712.99 -1.52093 -0.412964 0
M  V30 39457 C 3714.23 -1.65964 -1.16027 0
M  V30 39458 C 3714.56 -0.387685 -1.90597 0
M  V30 39459 O 3713.82 0.62921 -1.85309 0
M  V30 39460 C 3714.12 -2.82971 -2.18316 0
M  V30 39461 C 3713.78 -4.21337 -1.60581 0
M  V30 39462 C 3712.44 -4.58973 -1.4456 0
M  V30 39463 C 3714.8 -5.07578 -1.18379 0
M  V30 39464 C 3712.12 -5.80532 -0.848482 0
M  V30 39465 C 3714.48 -6.2974 -0.600874 0
M  V30 39466 C 3713.14 -6.66128 -0.427763 0
M  V30 39467 H 3712.41 -0.607305 -0.424573 0
M  V30 39468 H 3715.06 -1.86186 -0.447995 0
M  V30 39469 H 3713.36 -2.57068 -2.95674 0
M  V30 39470 H 3715.06 -2.909 -2.76004 0
M  V30 39471 H 3711.65 -3.91676 -1.74033 0
M  V30 39472 H 3715.83 -4.79089 -1.29568 0
M  V30 39473 H 3711.09 -6.07353 -0.70234 0
M  V30 39474 H 3715.26 -6.95894 -0.265461 0
M  V30 39475 H 3712.89 -7.60191 0.037035 0
M  V30 39476 N 3714.47 0.669957 -1.42651 0
M  V30 39477 C 3715.4 1.79549 -1.4246 0
M  V30 39478 C 3716.41 1.59564 -0.322994 0
M  V30 39479 O 3717.6 1.68593 -0.586388 0
M  V30 39480 C 3714.7 3.16729 -1.20566 0
M  V30 39481 C 3713.87 3.63521 -2.43252 0
M  V30 39482 C 3712.93 4.79448 -2.16831 0
M  V30 39483 O 3711.96 4.89745 -2.90067 0
M  V30 39484 N 3713.16 5.68495 -1.17446 0
M  V30 39485 H 3715.92 1.80196 -2.39477 0
M  V30 39486 H 3713.49 0.85322 -1.37593 0
M  V30 39487 H 3715.48 3.91946 -1.008 0
M  V30 39488 H 3714.05 3.10952 -0.320552 0
M  V30 39489 H 3713.27 2.78929 -2.78554 0
M  V30 39490 H 3714.56 3.91526 -3.24938 0
M  V30 39491 H 3713.95 5.62833 -0.568835 0
M  V30 39492 H 3712.51 6.43503 -1.03666 0
M  V30 39493 N 3715.94 1.28904 0.90673 0
M  V30 39494 C 3717.19 1.15842 1.65117 0
M  V30 39495 C 3717.51 -0.290791 1.93426 0
M  V30 39496 O 3718.71 -0.542631 2.66022 0
M  V30 39497 C 3717.17 2.02555 2.97489 0
M  V30 39498 C 3716.78 3.52258 2.768 0
M  V30 39499 C 3718.52 1.98199 3.7539 0
M  V30 39500 C 3716.43 4.31099 4.04856 0
M  V30 39501 H 3715.36 0.42995 0.619402 0
M  V30 39502 H 3718.01 1.53489 1.00565 0
M  V30 39503 H 3716.39 1.5777 3.63214 0
M  V30 39504 H 3717.56 4.05048 2.19711 0
M  V30 39505 H 3715.88 3.58213 2.12303 0
M  V30 39506 H 3718.48 2.54367 4.70321 0
M  V30 39507 H 3718.82 0.960338 4.05072 0
M  V30 39508 H 3719.35 2.4099 3.16494 0
M  V30 39509 H 3716.09 5.33872 3.80343 0
M  V30 39510 H 3715.61 3.8308 4.6153 0
M  V30 39511 H 3717.29 4.4139 4.73058 0
M  V30 39512 N 3717.42 -1.11614 1.11266 0
M  V30 39513 C 3718.65 -1.86848 0.881555 0
M  V30 39514 C 3719.06 -1.80345 -0.572057 0
M  V30 39515 O 3718.4 -1.18151 -1.40663 0
M  V30 39516 C 3718.46 -3.36602 1.26251 0
M  V30 39517 C 3718.13 -3.66875 2.72492 0
M  V30 39518 C 3719.13 -3.64509 3.70714 0
M  V30 39519 C 3716.81 -3.95938 3.09093 0
M  V30 39520 C 3718.8 -3.9078 5.03557 0
M  V30 39521 C 3716.49 -4.21867 4.42122 0
M  V30 39522 C 3717.49 -4.19276 5.39163 0
M  V30 39523 O 3717.18 -4.44556 6.69795 0
M  V30 39524 H 3716.91 -0.597776 0.315657 0
M  V30 39525 H 3719.46 -1.42093 1.4832 0
M  V30 39526 H 3717.69 -3.81954 0.604006 0
M  V30 39527 H 3719.38 -3.93197 1.0075 0
M  V30 39528 H 3720.15 -3.42109 3.43782 0
M  V30 39529 H 3716.03 -3.97091 2.34178 0
M  V30 39530 H 3719.57 -3.88673 5.79292 0
M  V30 39531 H 3715.47 -4.43743 4.68788 0
M  V30 39532 H 3716.24 -4.62132 6.75556 0
M  V30 39533 N 3718.9 -0.902701 -1.29186 0
M  V30 39534 C 3719.85 -0.381128 -2.27631 0
M  V30 39535 C 3720.82 0.538403 -1.57132 0
M  V30 39536 O 3722 0.462995 -1.85097 0
M  V30 39537 C 3719.14 0.382641 -3.42972 0
M  V30 39538 C 3718.25 -0.568129 -4.28248 0
M  V30 39539 C 3717.39 0.212989 -5.30773 0
M  V30 39540 C 3716.43 -0.732111 -6.07706 0
M  V30 39541 N 3715.57 0.0147905 -7.02098 0
M  V30 39542 H 3720.41 -1.22571 -2.71625 0
M  V30 39543 H 3717.94 -0.615747 -1.33593 0
M  V30 39544 H 3719.9 0.841547 -4.08624 0
M  V30 39545 H 3718.53 1.19165 -2.99999 0
M  V30 39546 H 3717.58 -1.14556 -3.62741 0
M  V30 39547 H 3718.89 -1.29144 -4.81792 0
M  V30 39548 H 3718.05 0.732959 -6.02256 0
M  V30 39549 H 3716.79 0.96942 -4.77968 0
M  V30 39550 H 3715.79 -1.26355 -5.35084 0
M  V30 39551 H 3717.02 -1.48792 -6.62599 0
M  V30 39552 H 3714.96 0.753433 -6.51659 0
M  V30 39553 H 3714.88 -0.648556 -7.53213 0
M  V30 39554 H 3716.15 0.514926 -7.77797 0
M  V30 39555 N 3720.38 1.4286 -0.6655 0
M  V30 39556 C 3721.32 2.30793 0.0185798 0
M  V30 39557 C 3722.29 1.45443 0.802223 0
M  V30 39558 O 3723.48 1.74291 0.776352 0
M  V30 39559 C 3720.62 3.31174 0.970441 0
M  V30 39560 C 3719.73 4.31618 0.181604 0
M  V30 39561 C 3718.87 5.19077 1.12837 0
M  V30 39562 C 3717.91 6.11206 0.330681 0
M  V30 39563 N 3717.04 6.91248 1.22967 0
M  V30 39564 H 3721.88 2.8874 -0.737119 0
M  V30 39565 H 3719.42 1.42233 -0.37525 0
M  V30 39566 H 3721.38 3.87894 1.53605 0
M  V30 39567 H 3720.01 2.74848 1.69287 0
M  V30 39568 H 3719.06 3.77093 -0.500481 0
M  V30 39569 H 3720.37 4.96872 -0.438128 0
M  V30 39570 H 3719.53 5.80483 1.76421 0
M  V30 39571 H 3718.27 4.53978 1.782 0
M  V30 39572 H 3717.27 5.48877 -0.318429 0
M  V30 39573 H 3718.5 6.78352 -0.318718 0
M  V30 39574 H 3716.44 6.28786 1.86988 0
M  V30 39575 H 3716.36 7.53071 0.6648 0
M  V30 39576 H 3717.63 7.57149 1.85327 0
M  V30 39577 N 3721.86 0.408213 1.52221 0
M  V30 39578 C 3723.08 -0.169865 2.06703 0
M  V30 39579 C 3723.51 -1.38168 1.27637 0
M  V30 39580 O 3722.86 -1.78693 0.306374 0
M  V30 39581 C 3722.91 -0.4996 3.57122 0
M  V30 39582 O 3722.02 -1.59073 3.80486 0
M  V30 39583 H 3721.36 -0.0146028 0.663839 0
M  V30 39584 H 3723.89 0.581148 1.96173 0
M  V30 39585 H 3723.9 -0.758497 4.00888 0
M  V30 39586 H 3722.57 0.386255 4.14103 0
M  V30 39587 H 3721.15 -1.32407 3.48601 0
M  V30 39588 N 3723.33 -1.56989 0.138607 0
M  V30 39589 C 3724.58 -1.95466 -0.513576 0
M  V30 39590 C 3724.9 -1.02399 -1.6595 0
M  V30 39591 O 3724.17 -0.0839345 -1.9572 0
M  V30 39592 H 3722.75 -0.721713 -0.192716 0
M  V30 39593 H 3725.41 -1.93742 0.212141 0
M  V30 39594 H 3724.51 -2.98984 -0.895261 0
M  V30 39595 N 3724.81 0.135183 -1.57019 0
M  V30 39596 C 3726.06 0.844276 -1.8318 0
M  V30 39597 C 3726.37 1.81798 -0.721732 0
M  V30 39598 O 3727.58 2.57208 -0.869277 0
M  V30 39599 C 3726.04 1.55208 -3.24713 0
M  V30 39600 C 3725.64 0.62019 -4.43686 0
M  V30 39601 C 3727.39 2.24726 -3.60137 0
M  V30 39602 C 3725.29 1.33029 -5.76244 0
M  V30 39603 H 3724.22 0.319029 -0.683181 0
M  V30 39604 H 3726.88 0.096992 -1.83243 0
M  V30 39605 H 3725.26 2.34541 -3.19071 0
M  V30 39606 H 3726.43 -0.138766 -4.60591 0
M  V30 39607 H 3724.75 0.0328174 -4.16387 0
M  V30 39608 H 3727.34 2.78514 -4.56436 0
M  V30 39609 H 3727.69 3.01774 -2.86772 0
M  V30 39610 H 3728.22 1.52298 -3.67492 0
M  V30 39611 H 3724.96 0.601435 -6.52735 0
M  V30 39612 H 3724.48 2.06167 -5.63254 0
M  V30 39613 H 3726.16 1.86797 -6.19448 0
M  V30 39614 N 3726.29 1.5231 0.404892 0
M  V30 39615 C 3727.22 1.72189 1.51273 0
M  V30 39616 C 3728.24 0.602303 1.51249 0
M  V30 39617 O 3729.42 0.877576 1.55438 0
M  V30 39618 C 3726.52 1.75104 2.90158 0
M  V30 39619 C 3725.7 3.04166 3.14327 0
M  V30 39620 C 3724.76 2.98837 4.33108 0
M  V30 39621 O 3723.78 3.72735 4.30183 0
M  V30 39622 N 3724.98 2.1692 5.38448 0
M  V30 39623 H 3727.75 2.67767 1.34613 0
M  V30 39624 H 3725.31 1.506 0.594238 0
M  V30 39625 H 3727.3 1.69065 3.67694 0
M  V30 39626 H 3725.87 0.869809 3.00255 0
M  V30 39627 H 3725.09 3.23821 2.24797 0
M  V30 39628 H 3726.38 3.89537 3.2732 0
M  V30 39629 H 3725.78 1.56319 5.43674 0
M  V30 39630 H 3724.34 2.16735 6.14711 0
M  V30 39631 N 3727.77 -0.662382 1.43004 0
M  V30 39632 C 3728.68 -1.80481 1.49879 0
M  V30 39633 C 3729.69 -1.69652 0.386556 0
M  V30 39634 O 3730.87 -1.90983 0.639322 0
M  V30 39635 C 3727.94 -3.16705 1.41063 0
M  V30 39636 C 3727 -3.39399 2.62881 0
M  V30 39637 C 3726.23 -4.69124 2.54476 0
M  V30 39638 O 3726.45 -5.47865 1.58744 0
M  V30 39639 O 3725.39 -4.93337 3.44823 0
M  V30 39640 H 3729.21 -1.77637 2.46331 0
M  V30 39641 H 3726.8 -0.819708 1.24905 0
M  V30 39642 H 3728.68 -3.97971 1.38554 0
M  V30 39643 H 3727.35 -3.2016 0.477418 0
M  V30 39644 H 3726.26 -2.57934 2.70963 0
M  V30 39645 H 3727.59 -3.40785 3.55143 0
M  V30 39646 N 3729.25 -1.29383 -0.899882 0
M  V30 39647 C 3730.49 -1.17517 -1.6528 0
M  V30 39648 C 3730.83 0.272754 -1.92275 0
M  V30 39649 O 3730.1 1.19699 -1.53305 0
M  V30 39650 C 3730.38 -1.98872 -3.00203 0
M  V30 39651 C 3730.24 -3.51804 -2.80275 0
M  V30 39652 C 3731.56 -1.81496 -4.00933 0
M  V30 39653 H 3728.67 -0.428273 -0.599792 0
M  V30 39654 H 3731.32 -1.58854 -1.04238 0
M  V30 39655 H 3729.47 -1.63748 -3.52305 0
M  V30 39656 H 3731.14 -3.9691 -2.35075 0
M  V30 39657 H 3729.38 -3.76737 -2.15062 0
M  V30 39658 H 3730.05 -4.04 -3.76148 0
M  V30 39659 H 3732.53 -2.12175 -3.5794 0
M  V30 39660 H 3731.4 -2.40769 -4.93276 0
M  V30 39661 H 3731.67 -0.770098 -4.35341 0
M  V30 39662 N 3730.72 1.11022 -1.11856 0
M  V30 39663 C 3732 1.793 -0.781725 0
M  V30 39664 C 3732.38 1.98094 0.729525 0
M  V30 39665 O 3731.73 1.5691 1.66106 0
M  V30 39666 C 3731.94 3.12701 -1.54982 0
M  V30 39667 C 3733.29 3.87673 -1.73189 0
M  V30 39668 O 3734.31 3.22403 -1.51443 0
M  V30 39669 O 3733.17 5.04808 -2.09359 0
M  V30 39670 H 3730.26 0.776821 -0.283686 0
M  V30 39671 H 3732.81 1.17726 -1.22224 0
M  V30 39672 H 3731.58 2.94403 -2.57764 0
M  V30 39673 H 3731.21 3.8199 -1.10315 0
M  V30 39674 N 3732.2 0.90954 1.28706 0
M  V30 39675 C 3733.62 0.607071 1.47604 0
M  V30 39676 C 3733.82 -0.848783 1.82751 0
M  V30 39677 O 3732.87 -1.6282 1.92992 0
M  V30 39678 C 3734.19 1.54135 2.58191 0
M  V30 39679 C 3735.74 1.54761 2.72062 0
M  V30 39680 C 3736.21 2.46842 3.85789 0
M  V30 39681 N 3737.7 2.44944 3.93137 0
M  V30 39682 C 3738.44 3.12891 4.80507 0
M  V30 39683 N 3737.93 3.90153 5.72497 0
M  V30 39684 N 3739.73 3.01999 4.74081 0
M  V30 39685 H 3731.88 1.85101 1.0417 0
M  V30 39686 H 3734.14 0.793693 0.518416 0
M  V30 39687 H 3733.85 2.5791 2.39114 0
M  V30 39688 H 3733.72 1.26927 3.55203 0
M  V30 39689 H 3736.11 0.51727 2.90531 0
M  V30 39690 H 3736.19 1.86011 1.75595 0
M  V30 39691 H 3735.83 3.49976 3.68075 0
M  V30 39692 H 3735.76 2.12896 4.81646 0
M  V30 39693 H 3738.25 1.88818 3.27347 0
M  V30 39694 H 3738.57 4.39029 6.35983 0
M  V30 39695 H 3736.91 3.94258 5.72351 0
M  V30 39696 H 3740.1 2.41147 4.01205 0
M  V30 39697 H 3740.27 3.55226 5.41958 0
M  V30 39698 N 3733.68 -1.42505 0.673067 0
M  V30 39699 C 3734.91 -2.05902 0.202959 0
M  V30 39700 C 3735.32 -1.50558 -1.1392 0
M  V30 39701 O 3734.68 -0.644692 -1.70734 0
M  V30 39702 C 3734.73 -3.61275 0.127413 0
M  V30 39703 O 3734.45 -4.14567 1.41654 0
M  V30 39704 C 3735.95 -4.41783 -0.366399 0
M  V30 39705 H 3733.17 -0.66364 0.0991138 0
M  V30 39706 H 3735.72 -1.82671 0.919314 0
M  V30 39707 H 3733.87 -3.83623 -0.53962 0
M  V30 39708 H 3734.29 -5.0842 1.28875 0
M  V30 39709 H 3735.76 -5.50771 -0.36817 0
M  V30 39710 H 3736.24 -4.16244 -1.40135 0
M  V30 39711 H 3736.84 -4.24449 0.268836 0
M  V30 39712 N 3735.16 -0.41628 -1.52003 0
M  V30 39713 C 3736.09 0.39663 -2.30107 0
M  V30 39714 C 3737.07 1.03981 -1.34618 0
M  V30 39715 O 3738.25 1.04746 -1.6353 0
M  V30 39716 C 3735.38 1.50967 -3.12772 0
M  V30 39717 C 3734.34 0.991117 -4.16366 0
M  V30 39718 C 3733.66 2.1983 -4.87421 0
M  V30 39719 C 3734.96 0.0401681 -5.22285 0
M  V30 39720 H 3736.66 -0.255106 -2.98311 0
M  V30 39721 H 3734.2 -0.124131 -1.43464 0
M  V30 39722 H 3736.16 2.0854 -3.66182 0
M  V30 39723 H 3734.88 2.18939 -2.4235 0
M  V30 39724 H 3733.54 0.437739 -3.63977 0
M  V30 39725 H 3733.19 2.86373 -4.13521 0
M  V30 39726 H 3732.89 1.85782 -5.57457 0
M  V30 39727 H 3734.41 2.77996 -5.43646 0
M  V30 39728 H 3735.83 0.524926 -5.70892 0
M  V30 39729 H 3734.22 -0.211847 -5.99726 0
M  V30 39730 H 3735.29 -0.902961 -4.76419 0
M  V30 39731 N 3736.64 1.56914 -0.146931 0
M  V30 39732 C 3737.6 2.15568 0.778671 0
M  V30 39733 C 3738.6 1.09744 1.17528 0
M  V30 39734 O 3739.79 1.35384 1.09622 0
M  V30 39735 C 3736.92 2.71872 2.05665 0
M  V30 39736 H 3738.11 2.98696 0.268454 0
M  V30 39737 H 3735.67 1.55963 0.102513 0
M  V30 39738 H 3736.4 1.9241 2.61054 0
M  V30 39739 H 3736.19 3.49293 1.78148 0
M  V30 39740 H 3737.68 3.17063 2.71773 0
M  V30 39741 N 3738.11 -0.126854 1.57089 0
M  V30 39742 C 3739.06 -1.15596 1.99766 0
M  V30 39743 C 3740.03 -1.41585 0.868493 0
M  V30 39744 O 3741.22 -1.53583 1.13212 0
M  V30 39745 C 3738.36 -2.47939 2.40043 0
M  V30 39746 C 3737.47 -2.28952 3.6634 0
M  V30 39747 C 3736.6 -3.5447 3.95632 0
M  V30 39748 C 3735.64 -3.30607 5.15137 0
M  V30 39749 N 3734.78 -4.48307 5.40338 0
M  V30 39750 H 3739.62 -0.785027 2.87474 0
M  V30 39751 H 3737.16 -0.376144 1.4221 0
M  V30 39752 H 3739.12 -3.25132 2.61429 0
M  V30 39753 H 3737.75 -2.8294 1.55387 0
M  V30 39754 H 3736.8 -1.42714 3.52614 0
M  V30 39755 H 3738.11 -2.0729 4.53687 0
M  V30 39756 H 3737.26 -4.40085 4.17625 0
M  V30 39757 H 3736 -3.79155 3.06745 0
M  V30 39758 H 3735.01 -2.43382 4.92996 0
M  V30 39759 H 3736.23 -3.073 6.05594 0
M  V30 39760 H 3734.18 -4.73128 4.54408 0
M  V30 39761 H 3734.1 -4.29722 6.21993 0
M  V30 39762 H 3735.36 -5.35078 5.66844 0
M  V30 39763 N 3739.59 -1.52523 -0.396809 0
M  V30 39764 C 3740.5 -1.79655 -1.50868 0
M  V30 39765 C 3741.52 -0.682832 -1.60042 0
M  V30 39766 O 3742.69 -0.969581 -1.76525 0
M  V30 39767 C 3739.76 -1.95268 -2.86481 0
M  V30 39768 C 3738.82 -3.1918 -2.87093 0
M  V30 39769 C 3738.05 -3.34039 -4.16238 0
M  V30 39770 O 3738.28 -2.53879 -5.10785 0
M  V30 39771 O 3737.21 -4.27254 -4.23955 0
M  V30 39772 H 3741.04 -2.74055 -1.30873 0
M  V30 39773 H 3738.62 -1.37518 -0.583884 0
M  V30 39774 H 3740.5 -2.07288 -3.66892 0
M  V30 39775 H 3739.18 -1.04058 -3.06519 0
M  V30 39776 H 3738.09 -3.12608 -2.05492 0
M  V30 39777 H 3739.42 -4.10211 -2.72007 0
M  V30 39778 N 3741.07 0.654789 -1.43354 0
M  V30 39779 C 3742.32 1.41191 -1.44601 0
M  V30 39780 C 3742.64 1.94871 -0.0708298 0
M  V30 39781 O 3741.91 1.74332 0.893607 0
M  V30 39782 H 3740.49 0.524002 -0.532382 0
M  V30 39783 H 3743.15 0.772357 -1.78943 0
M  V30 39784 H 3742.25 2.25504 -2.15765 0
M  V30 39785 N 3742.55 1.29858 0.893007 0
M  V30 39786 C 3743.8 1.17586 1.63879 0
M  V30 39787 C 3744.11 -0.270259 1.93724 0
M  V30 39788 O 3745.32 -0.514385 2.66583 0
M  V30 39789 C 3743.77 2.05699 2.95323 0
M  V30 39790 C 3743.38 3.55174 2.73049 0
M  V30 39791 C 3745.13 2.02169 3.73267 0
M  V30 39792 C 3743.03 4.35368 4.0026 0
M  V30 39793 H 3741.96 0.436496 0.614807 0
M  V30 39794 H 3744.61 1.54547 0.989312 0
M  V30 39795 H 3743 1.61613 3.61521 0
M  V30 39796 H 3744.17 4.07355 2.15403 0
M  V30 39797 H 3742.48 3.60444 2.08492 0
M  V30 39798 H 3745.08 2.59341 4.67596 0
M  V30 39799 H 3745.42 1.00325 4.0403 0
M  V30 39800 H 3745.96 2.44334 3.1392 0
M  V30 39801 H 3742.7 5.37876 3.74659 0
M  V30 39802 H 3742.22 3.87953 4.57441 0
M  V30 39803 H 3743.9 4.46382 4.6835 0
M  V30 39804 N 3744.03 -1.10427 1.12443 0
M  V30 39805 C 3744.97 -2.16772 0.79237 0
M  V30 39806 C 3745.94 -1.64344 -0.240916 0
M  V30 39807 O 3747.13 -1.9045 -0.115471 0
M  V30 39808 C 3744.27 -3.4417 0.253226 0
M  V30 39809 C 3743.38 -4.1055 1.34434 0
M  V30 39810 C 3742.52 -5.25668 0.764619 0
M  V30 39811 C 3741.56 -5.83952 1.83485 0
M  V30 39812 N 3740.69 -6.90447 1.27384 0
M  V30 39813 H 3745.53 -2.44521 1.70334 0
M  V30 39814 H 3743.07 -1.20025 0.85044 0
M  V30 39815 H 3745.03 -4.17128 -0.0774129 0
M  V30 39816 H 3743.66 -3.16772 -0.620906 0
M  V30 39817 H 3742.71 -3.3556 1.79175 0
M  V30 39818 H 3744.02 -4.49912 2.15362 0
M  V30 39819 H 3743.18 -6.05479 0.384654 0
M  V30 39820 H 3741.92 -4.87641 -0.0758655 0
M  V30 39821 H 3740.92 -5.0281 2.224 0
M  V30 39822 H 3742.15 -6.24044 2.67855 0
M  V30 39823 H 3740.09 -6.54419 0.455184 0
M  V30 39824 H 3740.01 -7.28521 2.01972 0
M  V30 39825 H 3741.28 -7.74039 0.921111 0
M  V30 39826 N 3745.51 -0.916353 -1.28221 0
M  V30 39827 C 3746.92 -0.61489 -1.4728 0
M  V30 39828 C 3747.12 0.839079 -1.83199 0
M  V30 39829 O 3746.18 1.61794 -1.93853 0
M  V30 39830 C 3747.49 -1.55502 -2.5737 0
M  V30 39831 C 3749.04 -1.56202 -2.71238 0
M  V30 39832 C 3749.51 -2.48884 -3.84475 0
M  V30 39833 N 3751 -2.47026 -3.91832 0
M  V30 39834 C 3751.74 -3.15435 -4.78841 0
M  V30 39835 N 3751.24 -3.93183 -5.7042 0
M  V30 39836 N 3753.03 -3.04509 -4.72473 0
M  V30 39837 H 3745.18 -1.85651 -1.03187 0
M  V30 39838 H 3747.44 -0.796431 -0.514199 0
M  V30 39839 H 3747.15 -2.59174 -2.37743 0
M  V30 39840 H 3747.02 -1.28809 -3.54525 0
M  V30 39841 H 3749.41 -0.53267 -2.90253 0
M  V30 39842 H 3749.49 -1.8694 -1.74606 0
M  V30 39843 H 3749.13 -3.51923 -3.66214 0
M  V30 39844 H 3749.06 -2.15448 -4.8051 0
M  V30 39845 H 3751.56 -1.90552 -3.26341 0
M  V30 39846 H 3751.87 -4.42395 -6.33645 0
M  V30 39847 H 3750.21 -3.97288 -5.70252 0
M  V30 39848 H 3753.4 -2.43272 -3.99921 0
M  V30 39849 H 3753.58 -3.58095 -5.40066 0
M  V30 39850 N 3746.98 1.42146 -0.680615 0
M  V30 39851 C 3748.23 2.01059 -0.204893 0
M  V30 39852 C 3748.55 1.54115 1.19472 0
M  V30 39853 O 3747.82 0.76531 1.80332 0
M  V30 39854 H 3746.4 0.743448 -0.072759 0
M  V30 39855 H 3749.06 1.73982 -0.878426 0
M  V30 39856 H 3748.16 3.11388 -0.210683 0
M  V30 39857 N 3748.46 0.424336 1.5178 0
M  V30 39858 C 3749.37 -0.400109 2.31163 0
M  V30 39859 C 3750.39 -1.03966 1.39524 0
M  V30 39860 O 3751.56 -1.03787 1.72599 0
M  V30 39861 C 3748.63 -1.49361 3.12877 0
M  V30 39862 C 3747.69 -0.875542 4.20277 0
M  V30 39863 C 3746.92 -1.91694 4.98086 0
M  V30 39864 O 3747.15 -3.13731 4.76371 0
M  V30 39865 O 3746.08 -1.5147 5.82529 0
M  V30 39866 H 3749.91 0.247582 3.02689 0
M  V30 39867 H 3747.49 0.187172 1.48223 0
M  V30 39868 H 3749.37 -2.12809 3.63717 0
M  V30 39869 H 3748.05 -2.12562 2.44129 0
M  V30 39870 H 3746.95 -0.203363 3.73547 0
M  V30 39871 H 3748.29 -0.28722 4.91361 0
M  V30 39872 N 3749.94 -1.56833 0.15525 0
M  V30 39873 C 3751.17 -2.00755 -0.500506 0
M  V30 39874 C 3751.58 -1.0354 -1.57876 0
M  V30 39875 O 3750.94 -0.0336971 -1.82469 0
M  V30 39876 C 3750.99 -3.44562 -1.09359 0
M  V30 39877 O 3750.71 -4.38061 -0.0584018 0
M  V30 39878 C 3752.21 -4.03803 -1.82916 0
M  V30 39879 H 3749.43 -0.65837 -0.129577 0
M  V30 39880 H 3751.98 -2.02938 0.252259 0
M  V30 39881 H 3750.13 -3.43204 -1.79694 0
M  V30 39882 H 3750.55 -5.22168 -0.494033 0
M  V30 39883 H 3752.02 -5.06398 -2.19694 0
M  V30 39884 H 3752.5 -3.44981 -2.71817 0
M  V30 39885 H 3753.1 -4.08815 -1.17261 0
M  V30 39886 N 3751.42 0.118521 -1.57154 0
M  V30 39887 C 3752.69 0.856556 -1.75848 0
M  V30 39888 C 3753.07 1.98045 -0.730836 0
M  V30 39889 O 3752.42 2.27181 0.245116 0
M  V30 39890 C 3752.63 1.3728 -3.20866 0
M  V30 39891 C 3753.98 1.82494 -3.83381 0
M  V30 39892 O 3755 1.46958 -3.24472 0
M  V30 39893 O 3753.86 2.48123 -4.86926 0
M  V30 39894 H 3750.96 0.406804 -0.720027 0
M  V30 39895 H 3753.5 0.102224 -1.69392 0
M  V30 39896 H 3752.28 0.566463 -3.87178 0
M  V30 39897 H 3751.9 2.18982 -3.31862 0
M  V30 39898 N 3752.9 1.52731 0.388715 0
M  V30 39899 C 3753.85 1.7391 1.47442 0
M  V30 39900 C 3754.83 0.59319 1.49566 0
M  V30 39901 O 3756.02 0.851033 1.55198 0
M  V30 39902 C 3753.15 1.91164 2.85152 0
M  V30 39903 C 3752.24 3.11688 2.87596 0
M  V30 39904 N 3752.63 4.34032 2.59711 0
M  V30 39905 C 3750.93 3.11939 3.18763 0
M  V30 39906 C 3751.63 5.15637 2.69245 0
M  V30 39907 N 3750.6 4.51331 3.02988 0
M  V30 39908 H 3754.4 2.66129 1.2471 0
M  V30 39909 H 3751.92 1.51042 0.596667 0
M  V30 39910 H 3753.92 2.04458 3.63321 0
M  V30 39911 H 3752.58 1.00158 3.08866 0
M  V30 39912 H 3753.59 4.6216 2.33727 0
M  V30 39913 H 3750.26 2.30744 3.47942 0
M  V30 39914 H 3751.65 6.23164 2.51228 0
M  V30 39915 N 3754.37 -0.647178 1.43699 0
M  V30 39916 C 3755.32 -1.75315 1.45769 0
M  V30 39917 C 3756.31 -1.57576 0.325388 0
M  V30 39918 O 3757.5 -1.67585 0.569593 0
M  V30 39919 C 3754.63 -3.13933 1.38928 0
M  V30 39920 C 3753.71 -3.37199 2.57211 0
M  V30 39921 N 3754.11 -3.30909 3.82535 0
M  V30 39922 C 3752.4 -3.6794 2.52064 0
M  V30 39923 C 3753.1 -3.54423 4.61259 0
M  V30 39924 N 3752.08 -3.76527 3.92082 0
M  V30 39925 H 3755.88 -1.68886 2.4053 0
M  V30 39926 H 3753.4 -0.849068 1.38436 0
M  V30 39927 H 3755.39 -3.93224 1.38494 0
M  V30 39928 H 3754.05 -3.2154 0.45192 0
M  V30 39929 H 3755.06 -3.10185 4.14736 0
M  V30 39930 H 3751.74 -3.82625 1.67045 0
M  V30 39931 H 3753.13 -3.55287 5.70281 0
M  V30 39932 N 3755.85 -1.3033 -0.886108 0
M  V30 39933 C 3756.82 -1.16597 -1.97326 0
M  V30 39934 C 3757.82 -0.0975305 -1.60504 0
M  V30 39935 O 3759.01 -0.345554 -1.70738 0
M  V30 39936 C 3756.14 -0.786103 -3.31713 0
M  V30 39937 H 3757.33 -2.13181 -2.10936 0
M  V30 39938 H 3754.88 -1.1371 -1.07236 0
M  V30 39939 H 3755.62 0.179277 -3.23804 0
M  V30 39940 H 3755.4 -1.55824 -3.59807 0
M  V30 39941 H 3756.89 -0.713462 -4.1146 0
M  V30 39942 N 3757.33 1.0983 -1.13028 0
M  V30 39943 C 3758.58 1.8219 -0.890768 0
M  V30 39944 C 3758.91 1.85281 0.581786 0
M  V30 39945 O 3758.18 1.318 1.43035 0
M  V30 39946 C 3758.47 3.28546 -1.47409 0
M  V30 39947 C 3758.32 3.33752 -3.01546 0
M  V30 39948 C 3759.64 4.2511 -1.13884 0
M  V30 39949 H 3756.76 0.661452 -0.32504 0
M  V30 39950 H 3759.4 1.28682 -1.39789 0
M  V30 39951 H 3757.55 3.74243 -1.04279 0
M  V30 39952 H 3759.22 2.96489 -3.53401 0
M  V30 39953 H 3757.47 2.73461 -3.36751 0
M  V30 39954 H 3758.14 4.36837 -3.37457 0
M  V30 39955 H 3760.61 3.87678 -1.51146 0
M  V30 39956 H 3759.49 5.25863 -1.57352 0
M  V30 39957 H 3759.75 4.42069 -0.0519317 0
M  V30 39958 N 3758.81 0.92314 1.27734 0
M  V30 39959 C 3760.03 0.576755 1.99219 0
M  V30 39960 C 3760.46 -0.837083 1.68447 0
M  V30 39961 O 3759.82 -1.56096 0.922157 0
M  V30 39962 C 3759.86 0.80383 3.51527 0
M  V30 39963 O 3758.97 -0.132757 4.12186 0
M  V30 39964 H 3758.31 0.222564 0.625589 0
M  V30 39965 H 3760.84 1.24115 1.62655 0
M  V30 39966 H 3760.85 0.717605 4.0164 0
M  V30 39967 H 3759.52 1.83446 3.73257 0
M  V30 39968 H 3758.1 0.00299512 3.729 0
M  V30 39969 N 3760.29 -1.41783 0.688143 0
M  V30 39970 C 3761.7 -1.55511 0.35897 0
M  V30 39971 C 3761.9 -1.66516 -1.13466 0
M  V30 39972 O 3760.96 -1.63947 -1.92036 0
M  V30 39973 C 3762.27 -2.79819 1.10099 0
M  V30 39974 C 3763.82 -2.93607 1.08461 0
M  V30 39975 C 3764.29 -4.20794 1.80822 0
M  V30 39976 N 3765.79 -4.27735 1.77755 0
M  V30 39977 C 3766.52 -5.24991 2.30591 0
M  V30 39978 N 3766.02 -6.28321 2.91865 0
M  V30 39979 N 3767.81 -5.1688 2.20889 0
M  V30 39980 H 3759.96 -1.32883 1.65698 0
M  V30 39981 H 3762.22 -0.64058 0.698829 0
M  V30 39982 H 3761.93 -2.77871 2.15594 0
M  V30 39983 H 3761.8 -3.71115 0.674778 0
M  V30 39984 H 3764.19 -2.95076 0.0379474 0
M  V30 39985 H 3764.27 -2.03505 1.54982 0
M  V30 39986 H 3763.92 -4.20087 2.85464 0
M  V30 39987 H 3763.85 -5.09855 1.31741 0
M  V30 39988 H 3766.34 -3.53694 1.33075 0
M  V30 39989 H 3766.65 -6.98909 3.29767 0
M  V30 39990 H 3764.99 -6.28844 2.9594 0
M  V30 39991 H 3768.19 -4.35079 1.72697 0
M  V30 39992 H 3768.36 -5.92509 2.62369 0
M  V30 39993 N 3761.76 -0.432379 -1.51553 0
M  V30 39994 C 3763.01 0.135475 -2.01645 0
M  V30 39995 C 3763.33 1.43644 -1.31876 0
M  V30 39996 O 3762.6 1.90619 -0.45178 0
M  V30 39997 H 3761.18 0.0530552 -0.745114 0
M  V30 39998 H 3763.85 -0.57395 -1.86257 0
M  V30 39999 H 3762.94 0.314947 -3.10507 0
M  V30 40000 N 3763.24 1.56749 -0.163565 0
M  V30 40001 C 3764.47 2.01454 0.493051 0
M  V30 40002 C 3764.89 1.04302 1.56533 0
M  V30 40003 O 3764.25 0.0213358 1.81287 0
M  V30 40004 C 3764.3 3.4481 1.0554 0
M  V30 40005 O 3763.4 3.5071 2.16971 0
M  V30 40006 H 3762.74 0.653269 0.118894 0
M  V30 40007 H 3765.27 2.02874 -0.265175 0
M  V30 40008 H 3765.28 3.83955 1.37995 0
M  V30 40009 H 3763.96 4.15021 0.27026 0
M  V30 40010 H 3762.54 3.23419 1.85619 0
M  V30 40011 N 3764.72 -0.110185 1.57214 0
M  V30 40012 C 3765.68 -1.11885 2.00036 0
M  V30 40013 C 3766.68 -1.3381 0.89172 0
M  V30 40014 O 3767.87 -1.30178 1.15756 0
M  V30 40015 C 3765.01 -2.47138 2.3481 0
M  V30 40016 H 3766.2 -0.750596 2.90355 0
M  V30 40017 H 3763.75 -0.354763 1.52221 0
M  V30 40018 H 3764.49 -2.88867 1.47398 0
M  V30 40019 H 3764.27 -2.32576 3.15675 0
M  V30 40020 H 3765.76 -3.19714 2.6865 0
M  V30 40021 N 3766.2 -1.52935 -0.38061 0
M  V30 40022 C 3767.15 -1.78309 -1.46541 0
M  V30 40023 C 3768.12 -0.626698 -1.53824 0
M  V30 40024 O 3769.3 -0.867306 -1.69948 0
M  V30 40025 C 3766.44 -1.9653 -2.83672 0
M  V30 40026 C 3765.55 -3.24234 -2.85476 0
M  V30 40027 C 3764.69 -3.32725 -4.14086 0
M  V30 40028 C 3763.73 -4.5452 -4.09974 0
M  V30 40029 N 3762.86 -4.60246 -5.30206 0
M  V30 40030 H 3767.7 -2.70882 -1.24205 0
M  V30 40031 H 3765.24 -1.342 -0.602387 0
M  V30 40032 H 3767.2 -2.05079 -3.63316 0
M  V30 40033 H 3765.83 -1.07309 -3.04441 0
M  V30 40034 H 3764.88 -3.24714 -1.98154 0
M  V30 40035 H 3766.19 -4.13941 -2.78306 0
M  V30 40036 H 3765.35 -3.40503 -5.02138 0
M  V30 40037 H 3764.09 -2.41007 -4.23989 0
M  V30 40038 H 3763.09 -4.46858 -3.2031 0
M  V30 40039 H 3764.32 -5.47563 -4.01686 0
M  V30 40040 H 3762.26 -3.71423 -5.40722 0
M  V30 40041 H 3762.18 -5.43836 -5.25146 0
M  V30 40042 H 3763.45 -4.72289 -6.20131 0
M  V30 40043 N 3767.68 0.639548 -1.4404 0
M  V30 40044 C 3768.61 1.76324 -1.53076 0
M  V30 40045 C 3769.59 1.657 -0.384373 0
M  V30 40046 O 3770.77 1.84588 -0.603394 0
M  V30 40047 C 3767.9 3.14819 -1.46651 0
M  V30 40048 C 3766.86 3.40221 -2.59679 0
M  V30 40049 C 3766.18 4.78658 -2.38307 0
M  V30 40050 C 3767.48 3.33614 -4.0187 0
M  V30 40051 H 3769.18 1.69019 -2.47129 0
M  V30 40052 H 3766.72 0.811728 -1.18941 0
M  V30 40053 H 3768.68 3.93196 -1.51574 0
M  V30 40054 H 3767.4 3.22887 -0.491092 0
M  V30 40055 H 3766.06 2.64221 -2.54132 0
M  V30 40056 H 3765.71 4.8342 -1.38977 0
M  V30 40057 H 3765.41 4.96614 -3.14083 0
M  V30 40058 H 3766.93 5.59277 -2.45035 0
M  V30 40059 H 3768.34 4.01908 -4.08831 0
M  V30 40060 H 3766.74 3.63105 -4.77781 0
M  V30 40061 H 3767.81 2.31562 -4.26037 0
M  V30 40062 N 3769.15 1.30798 0.879184 0
M  V30 40063 C 3770.57 1.09255 1.16342 0
M  V30 40064 C 3770.77 -0.142957 2.00992 0
M  V30 40065 O 3769.83 -0.834925 2.38297 0
M  V30 40066 C 3771.14 2.35919 1.86448 0
M  V30 40067 C 3772.69 2.41439 1.99188 0
M  V30 40068 C 3773.16 3.6796 2.72708 0
M  V30 40069 N 3774.65 3.68801 2.8025 0
M  V30 40070 C 3775.39 4.6339 3.37724 0
M  V30 40071 N 3774.88 5.68327 3.96202 0
M  V30 40072 N 3776.68 4.50924 3.35595 0
M  V30 40073 H 3768.83 2.10053 0.314891 0
M  V30 40074 H 3771.09 0.926214 0.20207 0
M  V30 40075 H 3770.8 3.26113 1.31694 0
M  V30 40076 H 3770.67 2.45011 2.86792 0
M  V30 40077 H 3773.06 1.5172 2.53111 0
M  V30 40078 H 3773.14 2.36318 0.979149 0
M  V30 40079 H 3772.78 4.58041 2.19456 0
M  V30 40080 H 3772.71 3.70345 3.74369 0
M  V30 40081 H 3775.2 2.92939 2.38737 0
M  V30 40082 H 3775.52 6.36594 4.38141 0
M  V30 40083 H 3773.86 5.72112 3.94605 0
M  V30 40084 H 3777.05 3.68124 2.89141 0
M  V30 40085 H 3777.23 5.2482 3.8009 0
M  V30 40086 N 3770.63 -1.09229 1.13608 0
M  V30 40087 C 3771.88 -1.8189 0.910365 0
M  V30 40088 C 3772.23 -1.84147 -0.55745 0
M  V30 40089 O 3771.53 -1.30019 -1.40733 0
M  V30 40090 C 3771.72 -3.27343 1.43462 0
M  V30 40091 C 3771.55 -3.39256 2.95188 0
M  V30 40092 C 3770.32 -3.50939 3.63552 0
M  V30 40093 C 3772.52 -3.31615 3.93111 0
M  V30 40094 N 3770.5 -3.51556 5.03271 0
M  V30 40095 C 3771.87 -3.39124 5.19032 0
M  V30 40096 C 3773.93 -3.15296 3.85348 0
M  V30 40097 C 3772.63 -3.31996 6.381 0
M  V30 40098 C 3774.66 -3.09493 5.03952 0
M  V30 40099 C 3774.02 -3.17597 6.28738 0
M  V30 40100 H 3770.12 -0.679778 0.386557 0
M  V30 40101 H 3772.7 -1.30527 1.44468 0
M  V30 40102 H 3770.87 -3.77171 0.927198 0
M  V30 40103 H 3772.6 -3.88026 1.14968 0
M  V30 40104 H 3769.36 -3.54474 3.14079 0
M  V30 40105 H 3769.78 -3.55443 5.76185 0
M  V30 40106 H 3774.42 -3.07899 2.89755 0
M  V30 40107 H 3772.14 -3.38155 7.33946 0
M  V30 40108 H 3775.73 -2.97999 4.99688 0
M  V30 40109 H 3774.61 -3.13126 7.18973 0
M  V30 40110 N 3772.11 -0.929901 -1.27242 0
M  V30 40111 C 3773.36 -0.571494 -1.94268 0
M  V30 40112 C 3773.69 0.887609 -1.73066 0
M  V30 40113 O 3772.94 1.64876 -1.05425 0
M  V30 40114 C 3773.24 -0.846447 -3.47232 0
M  V30 40115 C 3772.91 -2.28764 -3.88559 0
M  V30 40116 C 3771.57 -2.68163 -3.99552 0
M  V30 40117 C 3773.92 -3.22474 -4.09463 0
M  V30 40118 C 3771.25 -4.00392 -4.28839 0
M  V30 40119 C 3773.6 -4.54287 -4.40234 0
M  V30 40120 C 3772.26 -4.93517 -4.49441 0
M  V30 40121 H 3771.53 -0.209124 -0.710878 0
M  V30 40122 H 3774.18 -1.17428 -1.51271 0
M  V30 40123 H 3772.49 -0.16101 -3.91469 0
M  V30 40124 H 3774.18 -0.548076 -3.97237 0
M  V30 40125 H 3770.77 -1.97198 -3.8054 0
M  V30 40126 H 3774.96 -2.93237 -4.00407 0
M  V30 40127 H 3770.21 -4.30466 -4.34177 0
M  V30 40128 H 3774.39 -5.269 -4.55356 0
M  V30 40129 H 3772.01 -5.96008 -4.71889 0
M  V30 40130 N 3773.59 1.41416 -0.695653 0
M  V30 40131 C 3774.84 2.01526 -0.226989 0
M  V30 40132 C 3775.17 1.5497 1.17038 0
M  V30 40133 O 3774.44 0.760927 1.78998 0
M  V30 40134 C 3774.73 3.58972 -0.284768 0
M  V30 40135 C 3774.58 4.15653 -1.71908 0
M  V30 40136 C 3775.9 4.38663 0.355377 0
M  V30 40137 H 3773.02 0.732203 -0.0839553 0
M  V30 40138 H 3775.66 1.68162 -0.884388 0
M  V30 40139 H 3773.81 3.87526 0.274972 0
M  V30 40140 H 3775.48 3.97975 -2.33267 0
M  V30 40141 H 3773.72 3.70692 -2.25321 0
M  V30 40142 H 3774.4 5.24812 -1.71104 0
M  V30 40143 H 3776.87 4.15923 -0.121329 0
M  V30 40144 H 3775.75 5.48163 0.284407 0
M  V30 40145 H 3776.01 4.18125 1.4361 0
M  V30 40146 N 3775.07 0.44041 1.51321 0
M  V30 40147 C 3775.98 -0.375569 2.31574 0
M  V30 40148 C 3776.99 -1.0248 1.40619 0
M  V30 40149 O 3778.17 -1.0195 1.7369 0
M  V30 40150 C 3775.23 -1.46034 3.14444 0
M  V30 40151 C 3774.3 -0.830917 4.21182 0
M  V30 40152 C 3773.53 -1.864 5.00091 0
M  V30 40153 O 3773.75 -3.08661 4.79671 0
M  V30 40154 O 3772.69 -1.45283 5.84103 0
M  V30 40155 H 3776.51 0.279673 3.0241 0
M  V30 40156 H 3774.1 0.202883 1.48016 0
M  V30 40157 H 3775.98 -2.08939 3.65954 0
M  V30 40158 H 3774.65 -2.09961 2.4637 0
M  V30 40159 H 3773.56 -0.163732 3.73742 0
M  V30 40160 H 3774.89 -0.235088 4.91638 0
M  V30 40161 N 3776.55 -1.5666 0.171876 0
M  V30 40162 C 3777.96 -1.58532 -0.184284 0
M  V30 40163 C 3778.16 -1.18724 -1.62809 0
M  V30 40164 O 3777.22 -0.899107 -2.3595 0
M  V30 40165 C 3778.53 -3.00543 0.0970354 0
M  V30 40166 C 3780.08 -3.1298 0.0352914 0
M  V30 40167 C 3780.55 -4.57083 0.289608 0
M  V30 40168 N 3782.04 -4.62591 0.237404 0
M  V30 40169 C 3782.78 -5.71944 0.408347 0
M  V30 40170 N 3782.28 -6.89853 0.638377 0
M  V30 40171 N 3784.07 -5.61045 0.344214 0
M  V30 40172 H 3776.22 -1.80823 1.11431 0
M  V30 40173 H 3778.48 -0.838107 0.443035 0
M  V30 40174 H 3778.19 -3.34146 1.09723 0
M  V30 40175 H 3778.06 -3.72217 -0.611092 0
M  V30 40176 H 3780.45 -2.79203 -0.955482 0
M  V30 40177 H 3780.53 -2.43741 0.776138 0
M  V30 40178 H 3780.17 -4.91569 1.27759 0
M  V30 40179 H 3780.1 -5.24482 -0.471856 0
M  V30 40180 H 3782.6 -3.77844 0.0652807 0
M  V30 40181 H 3782.91 -7.69071 0.758251 0
M  V30 40182 H 3781.25 -6.91714 0.674999 0
M  V30 40183 H 3784.44 -4.67809 0.16509 0
M  V30 40184 H 3784.62 -6.46213 0.480862 0
M  V30 40185 N 3778.02 0.101846 -1.57271 0
M  V30 40186 C 3778.97 1.14294 -2.02582 0
M  V30 40187 C 3779.97 1.4187 -0.925698 0
M  V30 40188 O 3781.17 1.41631 -1.11089 0
M  V30 40189 H 3777.55 0.385771 -0.645511 0
M  V30 40190 H 3779.52 0.734402 -2.89222 0
M  V30 40191 C 3778.27 2.45682 -2.4604 0
M  V30 40192 H 3777.59 2.25304 -3.3027 0
M  V30 40193 H 3779.03 3.17046 -2.81527 0
M  V30 40194 C 3777.49 3.09496 -1.33094 0
M  V30 40195 O 3778.02 3.96302 -0.656346 0
M  V30 40196 N 3776.22 2.6964 -1.08364 0
M  V30 40197 H 3775.77 1.99143 -1.63401 0
M  V30 40198 H 3775.73 3.12664 -0.329914 0
M  V30 40199 N 3779.5 1.53135 0.372494 0
M  V30 40200 C 3780.43 1.8206 1.46207 0
M  V30 40201 C 3781.41 0.673639 1.56193 0
M  V30 40202 O 3782.6 0.922827 1.70873 0
M  V30 40203 C 3779.73 2.0043 2.83628 0
M  V30 40204 C 3778.68 3.16177 2.88473 0
M  V30 40205 C 3778.01 3.19828 4.28502 0
M  V30 40206 C 3779.31 4.54911 2.5662 0
M  V30 40207 H 3781 2.73304 1.22251 0
M  V30 40208 H 3778.55 1.31508 0.586665 0
M  V30 40209 H 3780.5 2.19248 3.59873 0
M  V30 40210 H 3779.22 1.05889 3.08958 0
M  V30 40211 H 3777.88 2.97168 2.14679 0
M  V30 40212 H 3777.53 2.22938 4.50896 0
M  V30 40213 H 3777.23 3.97591 4.3266 0
M  V30 40214 H 3778.76 3.40822 5.06629 0
M  V30 40215 H 3780.17 4.73937 3.22579 0
M  V30 40216 H 3778.57 5.34864 2.72104 0
M  V30 40217 H 3779.64 4.60496 1.51894 0
M  V30 40218 N 3780.98 -0.6319 1.44377 0
M  V30 40219 C 3782.23 -1.39354 1.47338 0
M  V30 40220 C 3782.56 -1.93914 0.105284 0
M  V30 40221 O 3781.83 -1.73607 -0.876976 0
M  V30 40222 C 3782.12 -2.55939 2.53313 0
M  V30 40223 C 3781.97 -2.06732 3.99477 0
M  V30 40224 C 3783.29 -3.58126 2.558 0
M  V30 40225 H 3780.41 -0.505356 0.536455 0
M  V30 40226 H 3783.05 -0.714541 1.76052 0
M  V30 40227 H 3781.2 -3.13864 2.28958 0
M  V30 40228 H 3782.87 -1.53644 4.34961 0
M  V30 40229 H 3781.11 -1.37922 4.11291 0
M  V30 40230 H 3781.79 -2.90664 4.69274 0
M  V30 40231 H 3784.26 -3.1 2.77559 0
M  V30 40232 H 3783.14 -4.37222 3.31855 0
M  V30 40233 H 3783.4 -4.12143 1.59969 0
M  V30 40234 N 3782.46 -1.31262 -0.872235 0
M  V30 40235 C 3783.69 -1.23775 -1.65793 0
M  V30 40236 C 3784.1 0.197318 -1.87766 0
M  V30 40237 O 3783.46 1.12858 -1.4342 0
M  V30 40238 C 3783.51 -1.97595 -3.02718 0
M  V30 40239 O 3783.23 -3.35501 -2.81729 0
M  V30 40240 C 3784.73 -1.9692 -3.97162 0
M  V30 40241 H 3781.95 -0.427787 -0.516952 0
M  V30 40242 H 3784.49 -1.73101 -1.08887 0
M  V30 40243 H 3782.65 -1.52036 -3.5632 0
M  V30 40244 H 3783.06 -3.73059 -3.68683 0
M  V30 40245 H 3784.54 -2.53087 -4.90562 0
M  V30 40246 H 3785.01 -0.951164 -4.28777 0
M  V30 40247 H 3785.62 -2.42348 -3.49496 0
M  V30 40248 N 3783.94 1.08625 -1.14186 0
M  V30 40249 C 3785.35 1.62451 -0.920137 0
M  V30 40250 C 3785.7 1.88578 0.541543 0
M  V30 40251 O 3784.82 1.64159 1.40999 0
M  V30 40252 C 3785.42 2.9513 -1.66385 0
M  V30 40253 C 3783.98 3.45749 -1.48777 0
M  V30 40254 C 3783.12 2.20021 -1.68778 0
M  V30 40255 H 3786.07 0.918797 -1.29398 0
M  V30 40256 H 3786.1 3.63466 -1.12574 0
M  V30 40257 H 3785.61 2.76082 -2.72764 0
M  V30 40258 H 3783.71 3.69905 -0.447355 0
M  V30 40259 H 3783.82 4.22646 -2.25626 0
M  V30 40260 H 3782.19 2.29083 -1.11325 0
M  V30 40261 H 3782.97 2.03484 -2.76495 0
M  V30 40262 N 3785.41 0.936635 1.26747 0
M  V30 40263 C 3786.32 0.448613 2.30271 0
M  V30 40264 C 3787.34 -0.475154 1.67387 0
M  V30 40265 O 3788.52 -0.35579 1.98232 0
M  V30 40266 C 3785.58 -0.28256 3.45547 0
M  V30 40267 C 3784.64 0.677212 4.23925 0
M  V30 40268 C 3783.88 -0.0191612 5.33697 0
M  V30 40269 O 3784.1 -1.23693 5.56827 0
M  V30 40270 O 3783.03 0.657224 5.98301 0
M  V30 40271 H 3786.86 1.30842 2.74069 0
M  V30 40272 H 3784.44 0.702337 1.31862 0
M  V30 40273 H 3786.33 -0.694613 4.15636 0
M  V30 40274 H 3785 -1.11783 3.03786 0
M  V30 40275 H 3783.91 1.13912 3.56335 0
M  V30 40276 H 3785.24 1.47997 4.69423 0
M  V30 40277 N 3786.89 -1.41045 0.703143 0
M  V30 40278 C 3788.14 -2.00707 0.236853 0
M  V30 40279 C 3788.46 -1.55996 -1.17005 0
M  V30 40280 O 3787.73 -0.793903 -1.79092 0
M  V30 40281 H 3786.31 -0.742197 0.0845774 0
M  V30 40282 H 3788.97 -1.72562 0.905994 0
M  V30 40283 H 3788.07 -3.11013 0.260195 0
M  V30 40284 N 3788.37 -0.448429 -1.51086 0
M  V30 40285 C 3789.32 0.357398 -2.28016 0
M  V30 40286 C 3790.29 1.00717 -1.32081 0
M  V30 40287 O 3791.47 1.02395 -1.60996 0
M  V30 40288 C 3788.61 1.44639 -3.13327 0
M  V30 40289 C 3787.73 0.813654 -4.24268 0
M  V30 40290 C 3786.86 1.87862 -4.96871 0
M  V30 40291 C 3785.9 1.22492 -5.99718 0
M  V30 40292 N 3785.04 2.23174 -6.65686 0
M  V30 40293 H 3789.88 -0.304982 -2.96435 0
M  V30 40294 H 3787.41 -0.162248 -1.46202 0
M  V30 40295 H 3789.37 2.08917 -3.61122 0
M  V30 40296 H 3788 2.07824 -2.47 0
M  V30 40297 H 3787.05 0.0588745 -3.80354 0
M  V30 40298 H 3788.37 0.296499 -4.97918 0
M  V30 40299 H 3787.52 2.59777 -5.48271 0
M  V30 40300 H 3786.26 2.42954 -4.22877 0
M  V30 40301 H 3785.26 0.491292 -5.47601 0
M  V30 40302 H 3786.49 0.681196 -6.75675 0
M  V30 40303 H 3784.43 2.77324 -5.94498 0
M  V30 40304 H 3784.35 1.7638 -7.35137 0
M  V30 40305 H 3785.62 2.94537 -7.21712 0
M  V30 40306 N 3789.85 1.56567 -0.180181 0
M  V30 40307 C 3791.09 1.9744 0.46317 0
M  V30 40308 C 3791.43 1.0665 1.62295 0
M  V30 40309 O 3790.7 0.115417 1.94157 0
M  V30 40310 C 3790.99 3.47678 0.937648 0
M  V30 40311 C 3790.84 4.49247 -0.222914 0
M  V30 40312 C 3792.16 4.01234 1.80829 0
M  V30 40313 H 3789.28 0.717856 0.166886 0
M  V30 40314 H 3791.92 1.88099 -0.268102 0
M  V30 40315 H 3790.07 3.5577 1.56078 0
M  V30 40316 H 3791.74 4.53208 -0.860235 0
M  V30 40317 H 3789.98 4.24842 -0.877037 0
M  V30 40318 H 3790.65 5.51792 0.151347 0
M  V30 40319 H 3793.13 3.95829 1.2829 0
M  V30 40320 H 3792.01 5.06755 2.10928 0
M  V30 40321 H 3792.27 3.45586 2.75722 0
M  V30 40322 N 3791.33 -0.0935042 1.57322 0
M  V30 40323 C 3792.57 -0.797886 1.86445 0
M  V30 40324 C 3792.91 -1.78303 0.769522 0
M  V30 40325 O 3792.18 -1.93225 -0.222349 0
M  V30 40326 C 3792.46 -1.52522 3.26204 0
M  V30 40327 C 3792.32 -0.557953 4.46326 0
M  V30 40328 C 3793.64 -2.47541 3.63884 0
M  V30 40329 H 3790.75 -0.288606 0.678141 0
M  V30 40330 H 3793.4 -0.0614827 1.899 0
M  V30 40331 H 3791.55 -2.15295 3.23389 0
M  V30 40332 H 3793.22 0.0628965 4.61257 0
M  V30 40333 H 3791.46 0.128538 4.3361 0
M  V30 40334 H 3792.13 -1.10404 5.40847 0
M  V30 40335 H 3794.61 -1.94859 3.67653 0
M  V30 40336 H 3793.48 -2.95448 4.62603 0
M  V30 40337 H 3793.75 -3.31371 2.92653 0
M  V30 40338 N 3792.8 -1.5333 -0.364368 0
M  V30 40339 C 3794.08 -1.60176 -1.12263 0
M  V30 40340 C 3794.46 -0.410051 -2.07079 0
M  V30 40341 O 3793.81 0.599592 -2.20493 0
M  V30 40342 C 3794.02 -2.95263 -1.86066 0
M  V30 40343 C 3795.37 -3.49883 -2.40556 0
M  V30 40344 O 3796.39 -2.97301 -1.96191 0
M  V30 40345 O 3795.25 -4.4181 -3.21662 0
M  V30 40346 H 3792.34 -0.647033 -0.515051 0
M  V30 40347 H 3794.89 -1.65672 -0.367534 0
M  V30 40348 H 3793.66 -3.73439 -1.16873 0
M  V30 40349 H 3793.29 -2.93264 -2.68481 0
M  V30 40350 N 3794.28 0.624234 -1.4471 0
M  V30 40351 C 3795.21 1.7469 -1.54937 0
M  V30 40352 C 3796.19 1.65283 -0.401926 0
M  V30 40353 O 3797.38 1.83938 -0.622938 0
M  V30 40354 C 3794.51 3.13245 -1.49982 0
M  V30 40355 C 3793.46 3.37448 -2.63273 0
M  V30 40356 C 3792.79 4.76104 -2.4337 0
M  V30 40357 C 3794.09 3.29332 -4.05386 0
M  V30 40358 H 3795.78 1.66388 -2.48908 0
M  V30 40359 H 3793.33 0.799067 -1.19795 0
M  V30 40360 H 3795.28 3.91566 -1.55736 0
M  V30 40361 H 3794.01 3.22348 -0.525311 0
M  V30 40362 H 3792.66 2.6151 -2.5692 0
M  V30 40363 H 3792.31 4.81918 -1.44096 0
M  V30 40364 H 3792.01 4.93255 -3.19332 0
M  V30 40365 H 3793.54 5.56646 -2.50953 0
M  V30 40366 H 3794.95 3.97549 -4.13071 0
M  V30 40367 H 3793.35 3.58017 -4.81605 0
M  V30 40368 H 3794.42 2.2703 -4.28469 0
M  V30 40369 N 3795.76 1.31723 0.865262 0
M  V30 40370 C 3797.01 1.21438 1.61547 0
M  V30 40371 C 3797.33 -0.226467 1.9368 0
M  V30 40372 O 3796.6 -1.14843 1.58707 0
M  V30 40373 H 3795.18 0.446465 0.598898 0
M  V30 40374 H 3797.84 1.6511 1.03561 0
M  V30 40375 H 3796.94 1.78945 2.55705 0
M  V30 40376 N 3797.24 -1.08018 1.14761 0
M  V30 40377 C 3798.48 -1.82083 0.928717 0
M  V30 40378 C 3798.84 -1.84398 -0.534925 0
M  V30 40379 O 3800.04 -2.54266 -0.871901 0
M  V30 40380 C 3798.31 -3.23562 1.51796 0
M  V30 40381 S 3799.87 -4.14457 1.44122 0
M  V30 40382 H 3796.69 -0.627454 0.3344 0
M  V30 40383 H 3799.29 -1.2981 1.46184 0
M  V30 40384 H 3798 -3.19462 2.57628 0
M  V30 40385 H 3797.53 -3.8091 0.98341 0
M  V30 40386 H 3799.54 -4.94338 0.429452 0
M  V30 40387 N 3798.72 -0.943344 -1.26249 0
M  V30 40388 C 3799.96 -0.590897 -1.93269 0
M  V30 40389 C 3800.29 0.873182 -1.74358 0
M  V30 40390 O 3799.56 1.62068 -1.10048 0
M  V30 40391 H 3798.14 -0.215548 -0.715226 0
M  V30 40392 H 3800.8 -1.19914 -1.53645 0
M  V30 40393 H 3799.89 -0.810528 -3.01392 0
M  V30 40394 N 3800.2 1.4067 -0.710613 0
M  V30 40395 C 3801.61 1.5492 -0.383665 0
M  V30 40396 C 3801.81 1.683 1.10803 0
M  V30 40397 O 3800.87 1.66981 1.89403 0
M  V30 40398 C 3802.18 2.78032 -1.14537 0
M  V30 40399 C 3803.73 2.91845 -1.13118 0
M  V30 40400 C 3804.2 4.17864 -1.87494 0
M  V30 40401 N 3805.69 4.24853 -1.84538 0
M  V30 40402 C 3806.43 5.21256 -2.38913 0
M  V30 40403 N 3805.93 6.23598 -3.01824 0
M  V30 40404 N 3807.72 5.133 -2.29084 0
M  V30 40405 H 3799.87 1.30231 -1.67791 0
M  V30 40406 H 3802.13 0.629381 -0.708931 0
M  V30 40407 H 3801.84 2.74405 -2.19988 0
M  V30 40408 H 3801.71 3.69995 -0.733734 0
M  V30 40409 H 3804.1 2.94978 -0.0848866 0
M  V30 40410 H 3804.18 2.01014 -1.582 0
M  V30 40411 H 3803.82 4.15492 -2.92111 0
M  V30 40412 H 3803.75 5.07694 -1.39836 0
M  V30 40413 H 3806.25 3.51532 -1.38685 0
M  V30 40414 H 3806.56 6.93574 -3.40844 0
M  V30 40415 H 3804.9 6.24056 -3.05907 0
M  V30 40416 H 3808.09 4.32276 -1.79597 0
M  V30 40417 H 3808.27 5.88259 -2.71762 0
M  V30 40418 N 3801.67 0.456435 1.50846 0
M  V30 40419 C 3802.92 -0.103378 2.01835 0
M  V30 40420 C 3803.24 -1.41528 1.34145 0
M  V30 40421 O 3802.51 -1.89877 0.482048 0
M  V30 40422 H 3801.09 -0.0411943 0.745863 0
M  V30 40423 H 3803.75 0.603509 1.85321 0
M  V30 40424 H 3802.85 -0.265508 3.10969 0
M  V30 40425 N 3803.15 -1.56469 0.188482 0
M  V30 40426 C 3804.4 -1.97001 -0.45113 0
M  V30 40427 C 3804.72 -1.07627 -1.62608 0
M  V30 40428 O 3803.99 -0.146159 -1.95354 0
M  V30 40429 H 3802.57 -0.727479 -0.169658 0
M  V30 40430 H 3805.23 -1.92969 0.273672 0
M  V30 40431 H 3804.33 -3.01681 -0.799688 0
M  V30 40432 N 3804.63 0.0851597 -1.5737 0
M  V30 40433 C 3805.88 0.782816 -1.87733 0
M  V30 40434 C 3806.23 1.75856 -0.780549 0
M  V30 40435 O 3805.52 1.90372 0.216553 0
M  V30 40436 C 3805.72 1.54188 -3.2243 0
M  V30 40437 C 3805.55 0.641156 -4.45106 0
M  V30 40438 C 3804.32 0.283131 -5.04506 0
M  V30 40439 C 3806.51 -0.0562546 -5.14269 0
M  V30 40440 N 3804.5 -0.624716 -6.10713 0
M  V30 40441 C 3805.87 -0.821792 -6.1453 0
M  V30 40442 C 3807.92 -0.129132 -4.97733 0
M  V30 40443 C 3806.63 -1.65341 -7.00039 0
M  V30 40444 C 3808.65 -0.947686 -5.83758 0
M  V30 40445 C 3808.01 -1.70131 -6.83546 0
M  V30 40446 H 3804.11 0.262306 -0.736695 0
M  V30 40447 H 3806.7 0.0448971 -1.94648 0
M  V30 40448 H 3804.87 2.25061 -3.16547 0
M  V30 40449 H 3806.6 2.18751 -3.40485 0
M  V30 40450 H 3803.35 0.633016 -4.6935 0
M  V30 40451 H 3803.78 -1.07149 -6.68467 0
M  V30 40452 H 3808.42 0.439179 -4.20513 0
M  V30 40453 H 3806.14 -2.23275 -7.76643 0
M  V30 40454 H 3809.72 -1.00688 -5.73021 0
M  V30 40455 H 3808.6 -2.3245 -7.48957 0
M  V30 40456 N 3806.11 1.53521 0.356231 0
M  V30 40457 C 3807.33 1.74385 1.1227 0
M  V30 40458 C 3807.76 0.475913 1.8198 0
M  V30 40459 O 3807.12 -0.570669 1.72084 0
M  V30 40460 C 3807.16 2.91586 2.12156 0
M  V30 40461 O 3806.27 2.60848 3.19425 0
M  V30 40462 H 3805.61 0.578851 0.325311 0
M  V30 40463 H 3808.14 2.0044 0.410498 0
M  V30 40464 H 3808.15 3.18017 2.55596 0
M  V30 40465 H 3806.82 3.83553 1.60811 0
M  V30 40466 H 3805.4 2.45265 2.80891 0
M  V30 40467 N 3807.59 -0.616551 1.45039 0
M  V30 40468 C 3808.82 -1.40061 1.51876 0
M  V30 40469 C 3809.22 -1.88627 0.147138 0
M  V30 40470 O 3808.57 -1.6233 -0.859921 0
M  V30 40471 C 3808.63 -2.64545 2.43426 0
M  V30 40472 C 3808.29 -2.37678 3.90331 0
M  V30 40473 C 3809.29 -1.98597 4.80474 0
M  V30 40474 C 3806.97 -2.50867 4.35168 0
M  V30 40475 C 3808.97 -1.73053 6.13459 0
M  V30 40476 C 3806.66 -2.24937 5.68196 0
M  V30 40477 C 3807.65 -1.8609 6.5716 0
M  V30 40478 O 3807.34 -1.60458 7.87724 0
M  V30 40479 H 3807.07 -0.435465 0.517056 0
M  V30 40480 H 3809.63 -0.759866 1.90828 0
M  V30 40481 H 3807.86 -3.31308 1.99429 0
M  V30 40482 H 3809.55 -3.26574 2.41048 0
M  V30 40483 H 3810.31 -1.87951 4.47101 0
M  V30 40484 H 3806.19 -2.80072 3.6617 0
M  V30 40485 H 3809.74 -1.42657 6.82858 0
M  V30 40486 H 3805.63 -2.35197 6.01126 0
M  V30 40487 H 3806.4 -1.74584 7.99664 0
M  V30 40488 N 3809.06 -1.3218 -0.858264 0
M  V30 40489 C 3810.29 -1.25344 -1.64233 0
M  V30 40490 C 3810.7 0.181535 -1.88327 0
M  V30 40491 O 3810.04 1.12789 -1.44998 0
M  V30 40492 C 3810.11 -1.93969 -3.02682 0
M  V30 40493 C 3809.77 -3.43306 -3.01645 0
M  V30 40494 C 3810.77 -4.38853 -2.78755 0
M  V30 40495 C 3808.45 -3.85184 -3.22395 0
M  V30 40496 C 3810.45 -5.74252 -2.76611 0
M  V30 40497 C 3808.13 -5.20692 -3.19879 0
M  V30 40498 C 3809.13 -6.15037 -2.97015 0
M  V30 40499 O 3808.82 -7.48067 -2.94366 0
M  V30 40500 H 3808.55 -0.433888 -0.518379 0
M  V30 40501 H 3811.11 -1.74797 -1.07866 0
M  V30 40502 H 3809.34 -1.39081 -3.60823 0
M  V30 40503 H 3811.02 -1.80891 -3.63364 0
M  V30 40504 H 3811.79 -4.07826 -2.62494 0
M  V30 40505 H 3807.67 -3.12173 -3.39218 0
M  V30 40506 H 3811.21 -6.47864 -2.58685 0
M  V30 40507 H 3807.11 -5.5135 -3.35683 0
M  V30 40508 H 3807.88 -7.57382 -3.10346 0
M  V30 40509 N 3810.54 1.07407 -1.15332 0
M  V30 40510 C 3811.78 1.81588 -0.938361 0
M  V30 40511 C 3812.15 1.84679 0.525139 0
M  V30 40512 O 3813.35 2.54725 0.858404 0
M  V30 40513 C 3811.62 3.22753 -1.5351 0
M  V30 40514 S 3813.18 4.13687 -1.46318 0
M  V30 40515 H 3809.99 0.625671 -0.337722 0
M  V30 40516 H 3812.6 1.29033 -1.4687 0
M  V30 40517 H 3811.3 3.18091 -2.59318 0
M  V30 40518 H 3810.83 3.80383 -1.0036 0
M  V30 40519 H 3812.85 4.94103 -0.455662 0
M  V30 40520 N 3812.02 0.950026 1.25747 0
M  V30 40521 C 3813.27 0.601138 1.92953 0
M  V30 40522 C 3813.59 -0.863923 1.74818 0
M  V30 40523 O 3812.86 -1.61482 1.10906 0
M  V30 40524 H 3811.44 0.219337 0.714073 0
M  V30 40525 H 3814.1 1.20727 1.53007 0
M  V30 40526 H 3813.2 0.8265 3.00957 0
M  V30 40527 N 3813.5 -1.40291 0.718063 0
M  V30 40528 C 3814.75 -2.00445 0.258128 0
M  V30 40529 C 3815.07 -1.57228 -1.15344 0
M  V30 40530 O 3814.34 -0.812853 -1.7824 0
M  V30 40531 H 3812.92 -0.741258 0.0924446 0
M  V30 40532 H 3815.58 -1.71592 0.924246 0
M  V30 40533 H 3814.67 -3.1072 0.293168 0
M  V30 40534 N 3814.98 -0.464428 -1.50602 0
M  V30 40535 C 3815.91 0.323223 -2.31252 0
M  V30 40536 C 3816.89 0.996452 -1.37858 0
M  V30 40537 O 3818.07 0.994904 -1.66779 0
M  V30 40538 C 3815.2 1.4094 -3.17417 0
M  V30 40539 C 3814.16 0.858152 -4.19309 0
M  V30 40540 C 3813.48 2.04212 -4.94168 0
M  V30 40541 C 3814.78 -0.126013 -5.22148 0
M  V30 40542 H 3816.48 -0.349883 -2.97349 0
M  V30 40543 H 3814.02 -0.16971 -1.42996 0
M  V30 40544 H 3815.98 1.96785 -3.72631 0
M  V30 40545 H 3814.7 2.11118 -2.49192 0
M  V30 40546 H 3813.36 0.321721 -3.65186 0
M  V30 40547 H 3813.01 2.73072 -4.22422 0
M  V30 40548 H 3812.71 1.67953 -5.63086 0
M  V30 40549 H 3814.23 2.6056 -5.52215 0
M  V30 40550 H 3815.64 0.343036 -5.72273 0
M  V30 40551 H 3814.04 -0.402538 -5.98748 0
M  V30 40552 H 3815.11 -1.05407 -4.73305 0
M  V30 40553 N 3816.45 1.56367 -0.196777 0
M  V30 40554 C 3817.4 2.19169 0.723422 0
M  V30 40555 C 3818.37 1.13945 1.20854 0
M  V30 40556 O 3819.56 1.42203 1.27212 0
M  V30 40557 C 3816.7 2.85636 1.93664 0
M  V30 40558 C 3815.81 4.0539 1.49274 0
M  V30 40559 C 3814.94 4.59709 2.66159 0
M  V30 40560 C 3813.98 5.71818 2.18383 0
M  V30 40561 N 3813.12 6.20535 3.28452 0
M  V30 40562 H 3817.96 2.97449 0.181116 0
M  V30 40563 H 3815.5 1.46895 0.0776544 0
M  V30 40564 H 3817.46 3.22343 2.6486 0
M  V30 40565 H 3816.09 2.09917 2.45223 0
M  V30 40566 H 3815.14 3.74335 0.676592 0
M  V30 40567 H 3816.45 4.86469 1.10223 0
M  V30 40568 H 3815.6 4.98731 3.45474 0
M  V30 40569 H 3814.34 3.77741 3.08485 0
M  V30 40570 H 3813.35 5.32323 1.37522 0
M  V30 40571 H 3814.57 6.55605 1.77086 0
M  V30 40572 H 3812.52 5.41489 3.70305 0
M  V30 40573 H 3812.44 6.96671 2.93575 0
M  V30 40574 H 3813.7 6.64211 4.07976 0
M  V30 40575 N 3817.93 -0.0768128 1.57413 0
M  V30 40576 C 3818.88 -1.11057 2.04375 0
M  V30 40577 C 3819.87 -1.4038 0.948152 0
M  V30 40578 O 3821.08 -1.39846 1.13328 0
M  V30 40579 H 3817.46 -0.375453 0.651567 0
M  V30 40580 H 3819.43 -0.688297 2.90353 0
M  V30 40581 C 3818.18 -2.41736 2.49918 0
M  V30 40582 H 3817.5 -2.20022 3.33812 0
M  V30 40583 H 3818.94 -3.12527 2.86536 0
M  V30 40584 C 3817.4 -3.07339 1.38001 0
M  V30 40585 O 3817.93 -3.95207 0.719312 0
M  V30 40586 N 3816.13 -2.67882 1.1264 0
M  V30 40587 H 3815.68 -1.96518 1.66548 0
M  V30 40588 H 3815.64 -3.121 0.379615 0
M  V30 40589 N 3819.41 -1.53708 -0.348084 0
M  V30 40590 C 3820.66 -1.70989 -1.09045 0
M  V30 40591 C 3820.99 -0.469338 -1.88443 0
M  V30 40592 O 3820.26 0.533596 -1.87037 0
M  V30 40593 C 3820.55 -2.97061 -2.03536 0
M  V30 40594 C 3820.4 -4.31313 -1.27631 0
M  V30 40595 C 3821.72 -3.18787 -3.03418 0
M  V30 40596 H 3818.84 -0.622185 -0.395038 0
M  V30 40597 H 3821.48 -1.86373 -0.369465 0
M  V30 40598 H 3819.63 -2.84075 -2.65016 0
M  V30 40599 H 3821.3 -4.56141 -0.687999 0
M  V30 40600 H 3819.55 -4.29928 -0.578273 0
M  V30 40601 H 3820.22 -5.15695 -1.96882 0
M  V30 40602 H 3822.69 -3.31074 -2.52051 0
M  V30 40603 H 3821.57 -4.08403 -3.6674 0
M  V30 40604 H 3821.83 -2.34873 -3.74549 0
M  V30 40605 N 3820.89 0.608851 -1.45364 0
M  V30 40606 C 3822.3 0.929469 -1.29742 0
M  V30 40607 C 3822.5 1.99949 -0.249521 0
M  V30 40608 O 3821.56 2.49964 0.35697 0
M  V30 40609 C 3822.87 1.37159 -2.67596 0
M  V30 40610 C 3824.42 1.48587 -2.75483 0
M  V30 40611 C 3824.9 1.96176 -4.13859 0
M  V30 40612 N 3826.39 2.03412 -4.16147 0
M  V30 40613 C 3827.12 2.41453 -5.20085 0
M  V30 40614 N 3826.62 2.78471 -6.3437 0
M  V30 40615 N 3828.41 2.41781 -5.07443 0
M  V30 40616 H 3820.56 -0.0984211 -2.12172 0
M  V30 40617 H 3822.83 0.018623 -0.947817 0
M  V30 40618 H 3822.53 0.659539 -3.45461 0
M  V30 40619 H 3822.41 2.33835 -2.95974 0
M  V30 40620 H 3824.79 2.18884 -1.97923 0
M  V30 40621 H 3824.87 0.502293 -2.5082 0
M  V30 40622 H 3824.52 1.26466 -4.91903 0
M  V30 40623 H 3824.45 2.95445 -4.35912 0
M  V30 40624 H 3826.94 1.77398 -3.33674 0
M  V30 40625 H 3827.25 3.06376 -7.09474 0
M  V30 40626 H 3825.6 2.7617 -6.37774 0
M  V30 40627 H 3828.79 2.12266 -4.17206 0
M  V30 40628 H 3828.96 2.71101 -5.88564 0
M  V30 40629 N 3822.37 1.32633 0.851242 0
M  V30 40630 C 3823.28 1.23861 1.99237 0
M  V30 40631 C 3824.29 0.151548 1.73339 0
M  V30 40632 O 3825.47 0.372857 1.97919 0
M  V30 40633 C 3822.53 0.965476 3.32986 0
M  V30 40634 C 3821.59 2.14132 3.72083 0
M  V30 40635 C 3820.83 1.88112 4.99449 0
M  V30 40636 O 3821.05 0.825352 5.64397 0
M  V30 40637 O 3819.98 2.74312 5.35758 0
M  V30 40638 H 3823.81 2.198 2.09575 0
M  V30 40639 H 3821.4 1.12557 0.98241 0
M  V30 40640 H 3823.28 0.829786 4.1315 0
M  V30 40641 H 3821.95 0.0362759 3.2368 0
M  V30 40642 H 3820.86 2.3325 2.92481 0
M  V30 40643 H 3822.19 3.05343 3.86039 0
M  V30 40644 N 3823.84 -1.06794 1.159 0
M  V30 40645 C 3825.09 -1.79764 0.93876 0
M  V30 40646 C 3825.42 -1.86758 -0.532457 0
M  V30 40647 O 3824.7 -1.35546 -1.3949 0
M  V30 40648 C 3824.98 -3.24523 1.56068 0
M  V30 40649 C 3824.83 -3.2564 3.10288 0
M  V30 40650 C 3826.15 -4.21941 1.25115 0
M  V30 40651 H 3823.27 -0.652601 0.342463 0
M  V30 40652 H 3825.91 -1.2493 1.43152 0
M  V30 40653 H 3824.06 -3.71347 1.14165 0
M  V30 40654 H 3825.74 -2.87015 3.61137 0
M  V30 40655 H 3823.98 -2.64437 3.43883 0
M  V30 40656 H 3824.65 -4.27737 3.4892 0
M  V30 40657 H 3827.13 -3.83534 1.61371 0
M  V30 40658 H 3826 -5.21506 1.71239 0
M  V30 40659 H 3826.26 -4.41776 0.16912 0
M  V30 40660 N 3825.32 -0.956681 -1.25241 0
M  V30 40661 C 3826.27 -0.477331 -2.2581 0
M  V30 40662 C 3827.24 0.471273 -1.59274 0
M  V30 40663 O 3828.42 0.384072 -1.86894 0
M  V30 40664 C 3825.56 0.23683 -3.44286 0
M  V30 40665 C 3824.68 -0.749252 -4.25453 0
M  V30 40666 C 3823.81 -0.0123214 -5.31199 0
M  V30 40667 C 3822.85 -0.989201 -6.04054 0
M  V30 40668 N 3821.99 -0.283007 -7.01529 0
M  V30 40669 H 3826.83 -1.33981 -2.66182 0
M  V30 40670 H 3824.37 -0.671855 -1.30861 0
M  V30 40671 H 3826.32 0.667478 -4.11826 0
M  V30 40672 H 3824.95 1.06334 -3.04783 0
M  V30 40673 H 3824.01 -1.29838 -3.57556 0
M  V30 40674 H 3825.32 -1.49462 -4.75881 0
M  V30 40675 H 3824.47 0.476862 -6.04823 0
M  V30 40676 H 3823.21 0.765825 -4.8165 0
M  V30 40677 H 3822.22 -1.48936 -5.29243 0
M  V30 40678 H 3823.44 -1.76761 -6.55692 0
M  V30 40679 H 3821.39 0.476364 -6.54268 0
M  V30 40680 H 3821.3 -0.967436 -7.49784 0
M  V30 40681 H 3822.57 0.184572 -7.79281 0
M  V30 40682 N 3826.8 1.39908 -0.725493 0
M  V30 40683 C 3828.05 2.00305 -0.268754 0
M  V30 40684 C 3828.37 1.57838 1.14509 0
M  V30 40685 O 3827.64 0.822294 1.77806 0
M  V30 40686 H 3826.22 0.740757 -0.0963744 0
M  V30 40687 H 3828.88 1.71099 -0.933333 0
M  V30 40688 H 3827.98 3.1056 -0.309642 0
M  V30 40689 N 3828.28 0.472408 1.50353 0
M  V30 40690 C 3829.21 -0.310954 2.3142 0
M  V30 40691 C 3830.19 -0.989127 1.38385 0
M  V30 40692 O 3831.37 -0.986045 1.67304 0
M  V30 40693 C 3828.5 -1.39254 3.1816 0
M  V30 40694 C 3827.46 -0.835903 4.19758 0
M  V30 40695 C 3826.78 -2.01588 4.95244 0
M  V30 40696 C 3828.08 0.153702 5.22074 0
M  V30 40697 H 3829.78 0.365647 2.97159 0
M  V30 40698 H 3827.32 0.177291 1.42904 0
M  V30 40699 H 3829.28 -1.94806 3.73669 0
M  V30 40700 H 3828 -2.09793 2.50308 0
M  V30 40701 H 3826.66 -0.30235 3.65351 0
M  V30 40702 H 3826.31 -2.70828 4.23865 0
M  V30 40703 H 3826.01 -1.64964 5.63969 0
M  V30 40704 H 3827.53 -2.57628 5.53589 0
M  V30 40705 H 3828.95 -0.312682 5.72447 0
M  V30 40706 H 3827.34 0.434286 5.98526 0
M  V30 40707 H 3828.41 1.07916 4.72739 0
M  V30 40708 N 3829.76 -1.5626 0.205067 0
M  V30 40709 C 3830.99 -2.02246 -0.436384 0
M  V30 40710 C 3831.4 -1.08511 -1.54502 0
M  V30 40711 O 3830.76 -0.0917312 -1.82269 0
M  V30 40712 C 3830.81 -3.47866 -0.983422 0
M  V30 40713 O 3830.53 -4.38025 0.0809936 0
M  V30 40714 C 3832.03 -4.09418 -1.69976 0
M  V30 40715 H 3829.25 -0.662159 -0.108566 0
M  V30 40716 H 3831.79 -2.02033 0.316694 0
M  V30 40717 H 3829.95 -3.48747 -1.68684 0
M  V30 40718 H 3830.36 -5.23476 -0.327659 0
M  V30 40719 H 3831.84 -5.13131 -2.03472 0
M  V30 40720 H 3832.31 -3.53454 -2.60704 0
M  V30 40721 H 3832.92 -4.12339 -1.04195 0
M  V30 40722 N 3831.24 0.0684638 -1.57451 0
M  V30 40723 C 3832.18 1.08102 -2.03918 0
M  V30 40724 C 3833.15 1.38264 -0.920443 0
M  V30 40725 O 3834.34 1.49275 -1.18834 0
M  V30 40726 C 3831.48 2.38859 -2.49079 0
M  V30 40727 C 3830.59 2.15198 -3.74585 0
M  V30 40728 C 3829.73 3.39542 -4.08515 0
M  V30 40729 C 3828.76 3.1126 -5.27052 0
M  V30 40730 N 3827.9 4.27944 -5.56604 0
M  V30 40731 H 3832.74 0.677792 -2.9019 0
M  V30 40732 H 3830.28 0.323104 -1.43508 0
M  V30 40733 H 3832.24 3.15205 -2.73316 0
M  V30 40734 H 3830.87 2.76978 -1.65781 0
M  V30 40735 H 3829.92 1.29529 -3.57668 0
M  V30 40736 H 3831.23 1.90309 -4.61068 0
M  V30 40737 H 3830.38 4.24282 -4.3367 0
M  V30 40738 H 3829.12 3.67509 -3.20606 0
M  V30 40739 H 3828.13 2.24917 -5.0169 0
M  V30 40740 H 3829.35 2.84612 -6.16582 0
M  V30 40741 H 3827.3 4.55937 -4.71654 0
M  V30 40742 H 3827.22 4.06341 -6.37513 0
M  V30 40743 H 3828.48 5.13671 -5.86313 0
M  V30 40744 N 3832.71 1.5389 0.339928 0
M  V30 40745 C 3833.96 1.70972 1.07763 0
M  V30 40746 C 3834.28 0.477519 1.89063 0
M  V30 40747 O 3833.55 -0.508546 1.89184 0
M  V30 40748 H 3832.13 0.630348 0.400838 0
M  V30 40749 H 3834.79 1.91153 0.380325 0
M  V30 40750 H 3833.89 2.5822 1.75296 0
M  V30 40751 N 3834.19 -0.601133 1.45685 0
M  V30 40752 C 3835.44 -1.35727 1.49742 0
M  V30 40753 C 3835.76 -1.94474 0.143106 0
M  V30 40754 O 3835.03 -1.77528 -0.828289 0
M  V30 40755 H 3833.61 -0.503882 0.551463 0
M  V30 40756 H 3836.27 -0.705411 1.81686 0
M  V30 40757 H 3835.37 -2.17341 2.23985 0
M  V30 40758 N 3835.67 -1.33083 -0.844196 0
M  V30 40759 C 3837.08 -1.2177 -1.41524 0
M  V30 40760 C 3837.43 0.165572 -1.955 0
M  V30 40761 O 3836.56 1.06488 -1.88386 0
M  V30 40762 C 3837.15 -2.20458 -2.57262 0
M  V30 40763 C 3835.71 -2.13 -3.10335 0
M  V30 40764 C 3834.86 -2.0824 -1.83115 0
M  V30 40765 H 3837.81 -1.44759 -0.650427 0
M  V30 40766 H 3837.83 -1.8092 -3.34736 0
M  V30 40767 H 3837.34 -3.21124 -2.17947 0
M  V30 40768 H 3835.44 -1.15618 -3.54208 0
M  V30 40769 H 3835.56 -3.03303 -3.70869 0
M  V30 40770 H 3833.92 -1.53636 -2.03146 0
M  V30 40771 H 3834.7 -3.10706 -1.46003 0
M  V30 40772 N 3837.15 1.06178 -1.16464 0
M  V30 40773 C 3838.4 1.78645 -0.945007 0
M  V30 40774 C 3838.72 1.87703 0.528453 0
M  V30 40775 O 3837.99 1.38656 1.38389 0
M  V30 40776 H 3836.57 0.661698 -0.346648 0
M  V30 40777 H 3839.23 1.28254 -1.46754 0
M  V30 40778 H 3838.32 2.8068 -1.36474 0
M  V30 40779 N 3838.63 0.96331 1.24732 0
M  V30 40780 C 3839.58 0.461058 2.2329 0
M  V30 40781 C 3840.56 -0.454508 1.54347 0
M  V30 40782 O 3841.75 -0.286146 1.74672 0
M  V30 40783 C 3838.88 -0.251678 3.42376 0
M  V30 40784 C 3837.97 0.682462 4.18573 0
M  V30 40785 N 3838.36 1.81784 4.72005 0
M  V30 40786 C 3836.66 0.492372 4.43274 0
M  V30 40787 C 3837.36 2.40177 5.29802 0
M  V30 40788 N 3836.33 1.68738 5.16748 0
M  V30 40789 H 3840.13 1.32742 2.62215 0
M  V30 40790 H 3837.65 0.821859 1.40069 0
M  V30 40791 H 3839.65 -0.628684 4.12132 0
M  V30 40792 H 3838.31 -1.11454 3.04972 0
M  V30 40793 H 3839.32 2.19949 4.68874 0
M  V30 40794 H 3835.99 -0.32689 4.16218 0
M  V30 40795 H 3837.38 3.35964 5.81874 0
M  V30 40796 N 3840.1 -1.39522 0.732902 0
M  V30 40797 C 3841.01 -2.34415 0.0930628 0
M  V30 40798 C 3842.03 -1.58209 -0.724281 0
M  V30 40799 O 3843.21 -1.90512 -0.653234 0
M  V30 40800 C 3840.27 -3.37225 -0.804977 0
M  V30 40801 C 3839.33 -4.29293 0.0243804 0
M  V30 40802 C 3838.56 -5.27192 -0.830891 0
M  V30 40803 O 3838.79 -5.31527 -2.06968 0
M  V30 40804 O 3837.72 -6.01335 -0.260667 0
M  V30 40805 H 3841.55 -2.90785 0.876231 0
M  V30 40806 H 3839.13 -1.41012 0.49355 0
M  V30 40807 H 3841.01 -4.0023 -1.31886 0
M  V30 40808 H 3839.69 -2.83244 -1.56699 0
M  V30 40809 H 3838.6 -3.69518 0.583741 0
M  V30 40810 H 3839.93 -4.86474 0.74857 0
M  V30 40811 N 3841.58 -0.480375 -1.501 0
M  V30 40812 C 3842.49 0.314039 -2.32489 0
M  V30 40813 C 3843.51 0.987161 -1.43287 0
M  V30 40814 O 3844.68 0.973092 -1.76332 0
M  V30 40815 C 3841.75 1.37646 -3.18205 0
M  V30 40816 C 3840.81 0.718956 -4.23237 0
M  V30 40817 C 3840.04 1.73075 -5.04857 0
M  V30 40818 O 3840.27 2.95835 -4.87686 0
M  V30 40819 O 3839.2 1.29745 -5.8775 0
M  V30 40820 H 3843.03 -0.359753 -3.01562 0
M  V30 40821 H 3840.61 -0.242055 -1.47426 0
M  V30 40822 H 3842.49 1.99163 -3.71365 0
M  V30 40823 H 3841.17 2.03355 -2.5185 0
M  V30 40824 H 3840.07 0.0645834 -3.74044 0
M  V30 40825 H 3841.41 0.104656 -4.92089 0
M  V30 40826 N 3843.06 1.56149 -0.213351 0
M  V30 40827 C 3844.47 1.84339 0.295988 0
M  V30 40828 C 3844.82 1.13454 1.60071 0
M  V30 40829 O 3843.95 0.401438 2.12644 0
M  V30 40830 C 3844.54 3.34407 0.543811 0
M  V30 40831 C 3843.1 3.62943 0.997476 0
M  V30 40832 C 3842.25 2.77243 0.0560336 0
M  V30 40833 H 3845.2 1.52572 -0.436733 0
M  V30 40834 H 3845.22 3.54168 1.39086 0
M  V30 40835 H 3844.73 3.85971 -0.405953 0
M  V30 40836 H 3842.83 3.16828 1.96088 0
M  V30 40837 H 3842.95 4.70994 0.877559 0
M  V30 40838 H 3841.31 2.48438 0.561318 0
M  V30 40839 H 3842.09 3.31603 -0.888501 0
M  V30 40840 N 3844.54 -0.0601128 1.57485 0
M  V30 40841 C 3845.79 -0.755917 1.86999 0
M  V30 40842 C 3846.1 -1.78147 0.807648 0
M  V30 40843 O 3847.31 -2.52767 0.991004 0
M  V30 40844 C 3845.76 -1.39539 3.31748 0
M  V30 40845 C 3845.37 -0.407795 4.4614 0
M  V30 40846 C 3847.11 -2.07288 3.70449 0
M  V30 40847 C 3845.02 -1.05385 5.81935 0
M  V30 40848 H 3843.95 -0.286071 0.697624 0
M  V30 40849 H 3846.6 -0.00945368 1.83498 0
M  V30 40850 H 3844.98 -2.19051 3.29898 0
M  V30 40851 H 3846.16 0.358362 4.59404 0
M  V30 40852 H 3844.47 0.165884 4.16069 0
M  V30 40853 H 3847.07 -2.5642 4.69204 0
M  V30 40854 H 3847.41 -2.87748 3.00844 0
M  V30 40855 H 3847.95 -1.34591 3.74339 0
M  V30 40856 H 3844.69 -0.289322 6.54861 0
M  V30 40857 H 3844.21 -1.79058 5.72449 0
M  V30 40858 H 3845.88 -1.57029 6.27655 0
M  V30 40859 N 3846.02 -1.54068 -0.331762 0
M  V30 40860 C 3847.43 -1.63205 -0.906691 0
M  V30 40861 C 3847.78 -0.52087 -1.8916 0
M  V30 40862 O 3846.9 0.34754 -2.13591 0
M  V30 40863 C 3847.5 -2.95835 -1.65127 0
M  V30 40864 C 3846.06 -3.07195 -2.17504 0
M  V30 40865 C 3845.2 -2.58725 -0.997834 0
M  V30 40866 H 3848.16 -1.58321 -0.109567 0
M  V30 40867 H 3848.18 -2.85536 -2.51495 0
M  V30 40868 H 3847.69 -3.76689 -0.934189 0
M  V30 40869 H 3845.79 -2.31 -2.92352 0
M  V30 40870 H 3845.9 -4.12862 -2.43067 0
M  V30 40871 H 3844.27 -2.14419 -1.37465 0
M  V30 40872 H 3845.05 -3.42028 -0.295201 0
M  V30 40873 N 3847.49 0.593399 -1.46002 0
M  V30 40874 C 3848.43 1.71749 -1.50258 0
M  V30 40875 C 3849.41 1.58618 -0.357629 0
M  V30 40876 O 3850.59 1.79983 -0.560219 0
M  V30 40877 C 3847.72 3.09709 -1.37105 0
M  V30 40878 C 3846.76 3.4139 -2.55646 0
M  V30 40879 S 3847.6 3.34649 -4.18055 0
M  V30 40880 C 3848.75 4.75165 -4.07392 0
M  V30 40881 H 3848.98 1.67878 -2.45366 0
M  V30 40882 H 3846.52 0.771252 -1.33757 0
M  V30 40883 H 3848.48 3.89304 -1.30203 0
M  V30 40884 H 3847.14 3.11081 -0.434439 0
M  V30 40885 H 3846.33 4.41876 -2.42407 0
M  V30 40886 H 3845.93 2.69341 -2.59482 0
M  V30 40887 H 3848.22 5.65304 -3.73413 0
M  V30 40888 H 3849.17 4.93461 -5.0784 0
M  V30 40889 H 3849.57 4.51513 -3.38816 0
M  V30 40890 N 3848.97 1.33529 0.837127 0
M  V30 40891 C 3850.2 1.28274 1.62974 0
M  V30 40892 C 3850.62 -0.143168 1.87554 0
M  V30 40893 O 3849.98 -1.10036 1.4409 0
M  V30 40894 C 3850.03 2.06521 2.95604 0
M  V30 40895 O 3849.13 1.425 3.86998 0
M  V30 40896 H 3848.47 0.441222 0.496204 0
M  V30 40897 H 3851 1.76117 1.04134 0
M  V30 40898 H 3851.01 2.1735 3.45287 0
M  V30 40899 H 3849.69 3.102 2.77036 0
M  V30 40900 H 3848.27 1.40327 3.45489 0
M  V30 40901 N 3850.45 -1.05559 1.17026 0
M  V30 40902 C 3851.68 -1.82176 0.980782 0
M  V30 40903 C 3852.09 -1.82831 -0.470995 0
M  V30 40904 O 3851.45 -1.25286 -1.32701 0
M  V30 40905 C 3851.5 -3.2846 1.50985 0
M  V30 40906 O 3851.22 -3.27955 2.90477 0
M  V30 40907 C 3852.72 -4.2178 1.36443 0
M  V30 40908 H 3849.94 -0.574183 0.34721 0
M  V30 40909 H 3852.49 -1.33133 1.55228 0
M  V30 40910 H 3850.64 -3.74788 0.980459 0
M  V30 40911 H 3851.06 -4.19484 3.14855 0
M  V30 40912 H 3852.53 -5.22417 1.78281 0
M  V30 40913 H 3853.01 -4.38098 0.310999 0
M  V30 40914 H 3853.61 -3.81304 1.8838 0
M  V30 40915 N 3851.93 -0.969911 -1.2422 0
M  V30 40916 C 3853.16 -0.64975 -1.96117 0
M  V30 40917 C 3853.57 0.785406 -1.72128 0
M  V30 40918 O 3852.91 1.53887 -1.00322 0
M  V30 40919 C 3852.97 -0.847297 -3.49372 0
M  V30 40920 C 3852.64 -2.26251 -3.97063 0
M  V30 40921 C 3853.63 -3.24042 -4.06562 0
M  V30 40922 C 3851.32 -2.5908 -4.30329 0
M  V30 40923 C 3853.31 -4.52746 -4.48664 0
M  V30 40924 C 3851 -3.8801 -4.72114 0
M  V30 40925 C 3852 -4.84655 -4.81247 0
M  V30 40926 O 3851.68 -6.11284 -5.22099 0
M  V30 40927 H 3851.42 -0.241251 -0.631485 0
M  V30 40928 H 3853.97 -1.30098 -1.58945 0
M  V30 40929 H 3852.2 -0.138896 -3.8645 0
M  V30 40930 H 3853.89 -0.525887 -4.02479 0
M  V30 40931 H 3854.66 -3.00008 -3.81078 0
M  V30 40932 H 3850.53 -1.84573 -4.22438 0
M  V30 40933 H 3854.08 -5.28182 -4.55708 0
M  V30 40934 H 3849.98 -4.11843 -4.97047 0
M  V30 40935 H 3850.74 -6.14883 -5.40242 0
M  V30 40936 N 3853.41 1.39131 -0.740291 0
M  V30 40937 C 3854.65 2.00009 -0.289984 0
M  V30 40938 C 3854.98 1.59044 1.12828 0
M  V30 40939 O 3854.25 0.841107 1.76924 0
M  V30 40940 H 3852.83 0.739693 -0.104226 0
M  V30 40941 H 3855.49 1.701 -0.951428 0
M  V30 40942 H 3854.58 3.10214 -0.342563 0
M  V30 40943 N 3854.88 0.488329 1.49844 0
M  V30 40944 C 3856.13 -0.0527993 2.03331 0
M  V30 40945 C 3856.49 -1.35852 1.36243 0
M  V30 40946 O 3855.78 -1.85364 0.48485 0
M  V30 40947 C 3855.97 -0.274788 3.56342 0
M  V30 40948 C 3855.8 1.00786 4.3826 0
M  V30 40949 C 3854.57 1.55608 4.80744 0
M  V30 40950 C 3856.77 1.90783 4.77605 0
M  V30 40951 N 3854.75 2.78595 5.47045 0
M  V30 40952 C 3856.12 2.98352 5.43494 0
M  V30 40953 C 3858.18 1.91614 4.59553 0
M  V30 40954 C 3856.88 4.06764 5.93242 0
M  V30 40955 C 3858.91 2.98992 5.10253 0
M  V30 40956 C 3858.27 4.0528 5.76131 0
M  V30 40957 H 3854.37 0.0211417 0.781714 0
M  V30 40958 H 3856.95 0.660372 1.83159 0
M  V30 40959 H 3855.12 -0.957007 3.76425 0
M  V30 40960 H 3856.85 -0.811792 3.96474 0
M  V30 40961 H 3853.61 1.10292 4.60579 0
M  V30 40962 H 3854.03 3.411 5.84791 0
M  V30 40963 H 3858.68 1.10751 4.08037 0
M  V30 40964 H 3856.39 4.88433 6.43785 0
M  V30 40965 H 3859.98 3.00639 4.98104 0
M  V30 40966 H 3858.86 4.87001 6.14654 0
M  V30 40967 N 3856.36 -1.56034 0.221629 0
M  V30 40968 C 3857.31 -2.21661 -0.704924 0
M  V30 40969 C 3858.3 -1.19603 -1.19964 0
M  V30 40970 O 3859.51 -1.37683 -1.15946 0
M  V30 40971 H 3855.89 -0.710713 -0.245746 0
M  V30 40972 H 3857.86 -2.98125 -0.127989 0
M  V30 40973 C 3856.61 -2.91047 -1.90229 0
M  V30 40974 H 3855.93 -3.69336 -1.53073 0
M  V30 40975 H 3857.37 -3.40366 -2.52838 0
M  V30 40976 C 3855.83 -1.93521 -2.75774 0
M  V30 40977 O 3856.36 -1.4522 -3.74532 0
M  V30 40978 N 3854.56 -1.61169 -2.41812 0
M  V30 40979 H 3854.11 -2.00642 -1.61557 0
M  V30 40980 H 3854.07 -0.961773 -2.99328 0
M  V30 40981 N 3857.84 0.0517601 -1.57515 0
M  V30 40982 C 3858.77 1.05926 -2.08091 0
M  V30 40983 C 3859.75 1.39134 -0.978553 0
M  V30 40984 O 3860.94 1.48414 -1.25248 0
M  V30 40985 C 3858.07 2.36695 -2.54151 0
M  V30 40986 C 3857.02 2.17788 -3.68446 0
M  V30 40987 C 3856.35 3.54117 -4.00631 0
M  V30 40988 C 3857.65 1.58262 -4.97745 0
M  V30 40989 H 3859.34 0.638319 -2.92516 0
M  V30 40990 H 3856.89 0.3056 -1.4072 0
M  V30 40991 H 3858.84 3.07486 -2.8815 0
M  V30 40992 H 3857.56 2.80806 -1.6678 0
M  V30 40993 H 3856.22 1.49434 -3.34761 0
M  V30 40994 H 3855.87 3.95835 -3.1036 0
M  V30 40995 H 3855.57 3.423 -4.77603 0
M  V30 40996 H 3857.09 4.26307 -4.37144 0
M  V30 40997 H 3858.51 2.18942 -5.29847 0
M  V30 40998 H 3856.91 1.57084 -5.79176 0
M  V30 40999 H 3857.98 0.546042 -4.81816 0
M  V30 41000 N 3859.32 1.54242 0.323587 0
M  V30 41001 C 3860.57 1.72702 1.06311 0
M  V30 41002 C 3860.9 0.499258 1.87673 0
M  V30 41003 O 3860.17 -0.503772 1.87863 0
M  V30 41004 C 3860.46 3.00261 1.98785 0
M  V30 41005 C 3860.31 4.33288 1.20753 0
M  V30 41006 C 3861.63 3.23574 2.98308 0
M  V30 41007 H 3858.75 0.628391 0.38509 0
M  V30 41008 H 3861.39 1.86937 0.339768 0
M  V30 41009 H 3859.54 2.88255 2.60463 0
M  V30 41010 H 3861.21 4.57177 0.615344 0
M  V30 41011 H 3859.45 4.30794 0.509802 0
M  V30 41012 H 3860.13 5.18762 1.88653 0
M  V30 41013 H 3862.6 3.35042 2.46752 0
M  V30 41014 H 3861.48 4.14185 3.60197 0
M  V30 41015 H 3861.74 2.40802 3.70765 0
M  V30 41016 N 3860.8 -0.585648 1.46314 0
M  V30 41017 C 3862.21 -0.90871 1.31204 0
M  V30 41018 C 3862.41 -1.99527 0.2813 0
M  V30 41019 O 3861.47 -2.505 -0.317158 0
M  V30 41020 C 3862.78 -1.32885 2.69745 0
M  V30 41021 C 3864.33 -1.44186 2.77812 0
M  V30 41022 C 3864.81 -1.89567 4.16927 0
M  V30 41023 N 3866.3 -1.96765 4.1933 0
M  V30 41024 C 3867.03 -2.33148 5.2386 0
M  V30 41025 N 3866.53 -2.68344 6.3872 0
M  V30 41026 N 3868.32 -2.33677 5.11225 0
M  V30 41027 H 3860.47 0.132163 2.11988 0
M  V30 41028 H 3862.73 -0.00354169 0.947993 0
M  V30 41029 H 3862.44 -0.604496 3.46466 0
M  V30 41030 H 3862.31 -2.29097 2.99657 0
M  V30 41031 H 3864.7 -2.15708 2.0138 0
M  V30 41032 H 3864.78 -0.462326 2.51587 0
M  V30 41033 H 3864.43 -1.18624 4.93853 0
M  V30 41034 H 3864.36 -2.88473 4.40557 0
M  V30 41035 H 3866.85 -1.72067 3.36454 0
M  V30 41036 H 3867.16 -2.9505 7.14259 0
M  V30 41037 H 3865.51 -2.65989 6.42086 0
M  V30 41038 H 3868.7 -2.05601 4.2053 0
M  V30 41039 H 3868.87 -2.61703 5.92803 0
M  V30 41040 N 3862.28 -1.33971 -0.830033 0
M  V30 41041 C 3863.21 -1.27596 -1.95555 0
M  V30 41042 C 3864.19 -0.154775 -1.69394 0
M  V30 41043 O 3865.37 -0.345988 -1.91093 0
M  V30 41044 C 3862.5 -1.02341 -3.31879 0
M  V30 41045 C 3861.46 -2.10848 -3.72461 0
M  V30 41046 C 3860.78 -1.70794 -5.06689 0
M  V30 41047 C 3862.08 -3.52611 -3.85309 0
M  V30 41048 H 3863.78 -2.21767 -2.01147 0
M  V30 41049 H 3861.32 -1.06758 -0.966371 0
M  V30 41050 H 3863.27 -0.965278 -4.10195 0
M  V30 41051 H 3862 -0.0461036 -3.26567 0
M  V30 41052 H 3860.66 -2.15719 -2.96414 0
M  V30 41053 H 3860.31 -0.717422 -4.97857 0
M  V30 41054 H 3860.01 -2.43412 -5.34812 0
M  V30 41055 H 3861.53 -1.66463 -5.87471 0
M  V30 41056 H 3862.94 -3.50193 -4.53914 0
M  V30 41057 H 3861.34 -4.23791 -4.24878 0
M  V30 41058 H 3862.41 -3.90471 -2.87507 0
M  V30 41059 N 3863.75 1.04937 -1.17584 0
M  V30 41060 C 3864.69 2.1275 -0.852646 0
M  V30 41061 C 3865.7 1.62144 0.146042 0
M  V30 41062 O 3866.89 1.78318 -0.0806064 0
M  V30 41063 C 3863.99 3.37968 -0.251142 0
M  V30 41064 C 3863.16 4.17842 -1.29333 0
M  V30 41065 C 3862.22 5.214 -0.709116 0
M  V30 41066 O 3861.25 5.52178 -1.38159 0
M  V30 41067 N 3862.45 5.78363 0.497614 0
M  V30 41068 H 3865.21 2.41071 -1.78058 0
M  V30 41069 H 3862.77 1.21056 -1.07504 0
M  V30 41070 H 3864.77 4.0441 0.153049 0
M  V30 41071 H 3863.34 3.0716 0.58063 0
M  V30 41072 H 3862.56 3.46851 -1.87317 0
M  V30 41073 H 3863.84 4.68005 -1.99622 0
M  V30 41074 H 3863.24 5.55645 1.06186 0
M  V30 41075 H 3861.8 6.46315 0.843837 0
M  V30 41076 N 3865.23 0.976485 1.23703 0
M  V30 41077 C 3866.46 0.660732 1.96594 0
M  V30 41078 C 3866.88 -0.764885 1.71846 0
M  V30 41079 O 3866.24 -1.52044 0.987532 0
M  V30 41080 C 3866.29 0.952201 3.47801 0
M  V30 41081 O 3865.39 0.0421851 4.12378 0
M  V30 41082 H 3864.73 0.248897 0.615586 0
M  V30 41083 H 3867.26 1.30902 1.57245 0
M  V30 41084 H 3867.27 0.887308 3.98235 0
M  V30 41085 H 3865.95 1.99112 3.6514 0
M  V30 41086 H 3864.52 0.161152 3.72552 0
M  V30 41087 N 3866.71 -1.38737 0.747659 0
M  V30 41088 C 3867.96 -1.99852 0.300587 0
M  V30 41089 C 3868.28 -1.5964 -1.11983 0
M  V30 41090 O 3867.55 -0.850478 -1.76476 0
M  V30 41091 H 3866.13 -0.73913 0.108147 0
M  V30 41092 H 3868.79 -1.69593 0.960435 0
M  V30 41093 H 3867.89 -3.10028 0.35901 0
M  V30 41094 N 3868.19 -0.496268 -1.49583 0
M  V30 41095 C 3869.43 0.0500014 -2.02738 0
M  V30 41096 C 3869.77 1.37081 -1.37559 0
M  V30 41097 O 3869.04 1.87703 -0.509673 0
M  V30 41098 C 3869.32 0.207511 -3.59502 0
M  V30 41099 C 3869.18 -1.13609 -4.35216 0
M  V30 41100 C 3870.5 0.950367 -4.29716 0
M  V30 41101 H 3867.62 0.0166975 -0.736811 0
M  V30 41102 H 3870.26 -0.64676 -1.78653 0
M  V30 41103 H 3868.41 0.800966 -3.80154 0
M  V30 41104 H 3870.08 -1.76806 -4.26072 0
M  V30 41105 H 3868.32 -1.72655 -3.97961 0
M  V30 41106 H 3868.99 -0.979238 -5.43245 0
M  V30 41107 H 3871.47 0.4471 -4.13691 0
M  V30 41108 H 3870.35 1.02941 -5.39161 0
M  V30 41109 H 3870.61 1.99297 -3.9463 0
M  V30 41110 N 3869.67 1.55914 -0.2299 0
M  V30 41111 C 3870.94 1.90377 0.448974 0
M  V30 41112 C 3871.32 1.14838 1.77131 0
M  V30 41113 O 3870.67 0.260368 2.27012 0
M  V30 41114 C 3870.88 3.43198 0.633744 0
M  V30 41115 C 3872.23 4.14124 0.93738 0
M  V30 41116 O 3873.25 3.48843 0.720229 0
M  V30 41117 O 3872.11 5.29564 1.34995 0
M  V30 41118 H 3869.21 0.79185 0.238543 0
M  V30 41119 H 3871.75 1.67495 -0.272705 0
M  V30 41120 H 3870.52 3.90159 -0.298656 0
M  V30 41121 H 3870.15 3.71888 1.4066 0
M  V30 41122 N 3871.14 -0.043406 1.5754 0
M  V30 41123 C 3872.39 -0.738166 1.88889 0
M  V30 41124 C 3872.72 -1.75765 0.825858 0
M  V30 41125 O 3872 -1.93834 -0.160763 0
M  V30 41126 C 3872.28 -1.42067 3.30891 0
M  V30 41127 C 3872.13 -0.415675 4.47875 0
M  V30 41128 C 3873.45 -2.35839 3.71575 0
M  V30 41129 H 3870.57 -0.266885 0.68698 0
M  V30 41130 H 3873.21 -0.00103617 1.9 0
M  V30 41131 H 3871.36 -2.04898 3.30075 0
M  V30 41132 H 3873.04 0.20961 4.60824 0
M  V30 41133 H 3871.28 0.266422 4.32981 0
M  V30 41134 H 3871.95 -0.931413 5.44085 0
M  V30 41135 H 3874.43 -1.83064 3.73667 0
M  V30 41136 H 3873.3 -2.80581 4.71768 0
M  V30 41137 H 3873.56 -3.21893 3.03047 0
M  V30 41138 N 3872.62 -1.54412 -0.315402 0
M  V30 41139 C 3873.87 -1.73007 -1.05237 0
M  V30 41140 C 3874.2 -0.508113 -1.87746 0
M  V30 41141 O 3873.45 0.510087 -1.88935 0
M  V30 41142 C 3873.75 -2.96283 -1.99878 0
M  V30 41143 C 3873.42 -4.30696 -1.33461 0
M  V30 41144 C 3872.08 -4.67237 -1.15078 0
M  V30 41145 C 3874.43 -5.14079 -0.858597 0
M  V30 41146 C 3871.76 -5.84753 -0.477567 0
M  V30 41147 C 3874.11 -6.32286 -0.199167 0
M  V30 41148 C 3872.77 -6.675 -0.00326426 0
M  V30 41149 H 3872.04 -0.633077 -0.385091 0
M  V30 41150 H 3874.69 -1.88658 -0.328681 0
M  V30 41151 H 3873 -2.75352 -2.78727 0
M  V30 41152 H 3874.69 -3.07864 -2.56945 0
M  V30 41153 H 3871.28 -4.01951 -1.48772 0
M  V30 41154 H 3875.47 -4.86359 -0.988374 0
M  V30 41155 H 3870.72 -6.1059 -0.314665 0
M  V30 41156 H 3874.9 -6.96173 0.177639 0
M  V30 41157 H 3872.52 -7.58417 0.520413 0
M  V30 41158 N 3874.1 0.57788 -1.46623 0
M  V30 41159 C 3875.35 1.33591 -1.52183 0
M  V30 41160 C 3875.68 1.93706 -0.175518 0
M  V30 41161 O 3874.93 1.77256 0.829376 0
M  V30 41162 C 3875.23 2.48139 -2.57219 0
M  V30 41163 C 3874.9 2.05986 -4.01099 0
M  V30 41164 C 3873.56 1.94206 -4.4027 0
M  V30 41165 C 3875.91 1.73535 -4.91462 0
M  V30 41166 C 3873.24 1.48238 -5.67664 0
M  V30 41167 C 3875.59 1.29045 -6.19298 0
M  V30 41168 C 3874.25 1.15844 -6.57371 0
M  V30 41169 H 3873.52 0.488845 -0.556877 0
M  V30 41170 H 3876.17 0.650228 -1.80123 0
M  V30 41171 H 3874.48 3.22175 -2.22958 0
M  V30 41172 H 3876.17 3.06349 -2.58749 0
M  V30 41173 H 3872.76 2.16092 -3.70138 0
M  V30 41174 H 3876.95 1.81519 -4.61914 0
M  V30 41175 H 3872.2 1.36665 -5.9593 0
M  V30 41176 H 3876.38 1.02989 -6.88742 0
M  V30 41177 H 3874 0.800015 -7.55979 0
M  V30 41178 N 3875.58 1.34409 0.822917 0
M  V30 41179 C 3876.82 1.26954 1.58147 0
M  V30 41180 C 3877.16 -0.160188 1.93538 0
M  V30 41181 O 3876.43 -1.10557 1.60023 0
M  V30 41182 C 3876.72 2.16037 2.88098 0
M  V30 41183 C 3876.57 3.67546 2.59287 0
M  V30 41184 C 3877.89 2.04563 3.89669 0
M  V30 41185 H 3875.01 0.462514 0.573803 0
M  V30 41186 H 3877.65 1.64661 0.947988 0
M  V30 41187 H 3875.8 1.84009 3.42159 0
M  V30 41188 H 3877.47 4.0994 2.11535 0
M  V30 41189 H 3875.71 3.88635 1.92731 0
M  V30 41190 H 3876.38 4.25244 3.51954 0
M  V30 41191 H 3878.86 2.32683 3.44961 0
M  V30 41192 H 3877.74 2.69119 4.784 0
M  V30 41193 H 3878 1.0226 4.30111 0
M  V30 41194 N 3877.06 -1.04312 1.18139 0
M  V30 41195 C 3878.47 -1.58924 0.979795 0
M  V30 41196 C 3878.82 -1.90458 -0.471181 0
M  V30 41197 O 3877.94 -1.69279 -1.34809 0
M  V30 41198 C 3878.54 -2.88751 1.77224 0
M  V30 41199 C 3877.1 -3.39989 1.61506 0
M  V30 41200 C 3876.24 -2.13606 1.76827 0
M  V30 41201 H 3879.2 -0.870139 1.32719 0
M  V30 41202 H 3879.22 -3.59037 1.25986 0
M  V30 41203 H 3878.73 -2.65768 2.82823 0
M  V30 41204 H 3876.83 -3.6799 0.584334 0
M  V30 41205 H 3876.94 -4.13981 2.41157 0
M  V30 41206 H 3875.31 -2.24793 1.19751 0
M  V30 41207 H 3876.09 -1.93082 2.83856 0
M  V30 41208 N 3878.53 -0.983032 -1.23184 0
M  V30 41209 C 3879.95 -0.689964 -1.73483 0
M  V30 41210 C 3880.3 0.793692 -1.7943 0
M  V30 41211 O 3879.42 1.62072 -1.43394 0
M  V30 41212 C 3880.02 -1.24576 -3.15065 0
M  V30 41213 C 3878.58 -1.00228 -3.6281 0
M  V30 41214 C 3877.72 -1.37191 -2.40985 0
M  V30 41215 H 3880.67 -1.15657 -1.0867 0
M  V30 41216 H 3880.69 -0.619472 -3.75423 0
M  V30 41217 H 3880.21 -2.32559 -3.10705 0
M  V30 41218 H 3878.31 0.0613547 -3.72549 0
M  V30 41219 H 3878.42 -1.65871 -4.4947 0
M  V30 41220 H 3876.78 -0.790392 -2.42126 0
M  V30 41221 H 3877.57 -2.46157 -2.39294 0
M  V30 41222 N 3880.01 1.38338 -0.755006 0
M  V30 41223 C 3880.92 2.34238 -0.130344 0
M  V30 41224 C 3881.94 1.59342 0.69902 0
M  V30 41225 O 3883.11 1.91527 0.622843 0
M  V30 41226 C 3880.18 3.38463 0.751225 0
M  V30 41227 C 3879.24 4.292 -0.0926741 0
M  V30 41228 C 3878.47 5.28448 0.746914 0
M  V30 41229 O 3878.7 5.34752 1.98485 0
M  V30 41230 O 3877.63 6.01674 0.164967 0
M  V30 41231 H 3881.46 2.89354 -0.922381 0
M  V30 41232 H 3879.04 1.40209 -0.515921 0
M  V30 41233 H 3880.92 4.02277 1.25502 0
M  V30 41234 H 3879.6 2.85701 1.52173 0
M  V30 41235 H 3878.51 3.68542 -0.642455 0
M  V30 41236 H 3879.84 4.85222 -0.82587 0
M  V30 41237 N 3881.49 0.504194 1.49317 0
M  V30 41238 C 3882.44 -0.272525 2.29185 0
M  V30 41239 C 3883.41 -0.957453 1.35728 0
M  V30 41240 O 3884.59 -0.963495 1.64686 0
M  V30 41241 C 3881.73 -1.3291 3.18479 0
M  V30 41242 C 3880.85 -0.655629 4.26996 0
M  V30 41243 C 3879.98 -1.69292 5.03501 0
M  V30 41244 C 3879.02 -1.00149 6.03851 0
M  V30 41245 N 3878.16 -1.98313 6.7351 0
M  V30 41246 H 3883 0.414792 2.95099 0
M  V30 41247 H 3880.53 0.216398 1.455 0
M  V30 41248 H 3882.49 -1.95371 3.68627 0
M  V30 41249 H 3881.12 -1.98514 2.54543 0
M  V30 41250 H 3880.17 0.0823321 3.80311 0
M  V30 41251 H 3881.49 -0.111496 4.98675 0
M  V30 41252 H 3880.64 -2.39249 5.57535 0
M  V30 41253 H 3879.38 -2.27091 4.31603 0
M  V30 41254 H 3878.38 -0.287715 5.49047 0
M  V30 41255 H 3879.61 -0.429954 6.77738 0
M  V30 41256 H 3877.55 -2.55069 6.04381 0
M  V30 41257 H 3877.47 -1.48975 7.41176 0
M  V30 41258 H 3878.74 -2.67549 7.32146 0
M  V30 41259 N 3882.97 -1.5579 0.238166 0
M  V30 41260 C 3884.21 -2.00632 -0.39064 0
M  V30 41261 C 3884.57 -1.1226 -1.55761 0
M  V30 41262 O 3885.77 -1.46521 -2.25356 0
M  V30 41263 C 3884.04 -3.48368 -0.798422 0
M  V30 41264 S 3885.6 -4.15223 -1.41899 0
M  V30 41265 H 3882.42 -0.700227 -0.1233 0
M  V30 41266 H 3885.02 -1.92317 0.351352 0
M  V30 41267 H 3883.73 -4.10356 0.0603331 0
M  V30 41268 H 3883.26 -3.60591 -1.57281 0
M  V30 41269 H 3885.27 -4.15786 -2.70807 0
M  V30 41270 N 3884.45 0.0350506 -1.57561 0
M  V30 41271 C 3885.72 0.762138 -1.80141 0
M  V30 41272 C 3886.1 1.93893 -0.834788 0
M  V30 41273 O 3885.45 2.28161 0.124347 0
M  V30 41274 C 3885.66 1.20078 -3.27692 0
M  V30 41275 C 3887.01 1.61916 -3.92516 0
M  V30 41276 O 3888.03 1.29552 -3.31805 0
M  V30 41277 O 3886.89 2.21964 -4.99394 0
M  V30 41278 H 3883.99 0.368065 -0.740579 0
M  V30 41279 H 3886.53 0.0122897 -1.69696 0
M  V30 41280 H 3885.3 0.360432 -3.89636 0
M  V30 41281 H 3884.93 2.01083 -3.43003 0
M  V30 41282 N 3885.92 1.54577 0.307209 0
M  V30 41283 C 3887.15 1.77546 1.0623 0
M  V30 41284 C 3887.57 0.531931 1.81152 0
M  V30 41285 O 3886.92 -0.498013 1.75574 0
M  V30 41286 C 3886.98 2.97912 2.0477 0
M  V30 41287 O 3886.7 4.17459 1.32889 0
M  V30 41288 C 3888.2 3.33221 2.92367 0
M  V30 41289 H 3885.42 0.592302 0.315308 0
M  V30 41290 H 3887.96 2.01511 0.348368 0
M  V30 41291 H 3886.12 2.76174 2.71674 0
M  V30 41292 H 3886.53 4.85277 1.99014 0
M  V30 41293 H 3888 4.20701 3.57372 0
M  V30 41294 H 3888.48 2.51103 3.60339 0
M  V30 41295 H 3889.09 3.57097 2.31002 0
M  V30 41296 N 3887.4 -0.570096 1.46927 0
M  V30 41297 C 3888.33 -1.6882 1.61314 0
M  V30 41298 C 3889.31 -1.63678 0.462993 0
M  V30 41299 O 3890.5 -1.81499 0.690777 0
M  V30 41300 C 3887.63 -3.07463 1.61504 0
M  V30 41301 C 3886.58 -3.27444 2.75616 0
M  V30 41302 C 3885.91 -4.66743 2.60873 0
M  V30 41303 C 3887.21 -3.1406 4.17329 0
M  V30 41304 H 3888.9 -1.57036 2.54912 0
M  V30 41305 H 3886.45 -0.754056 1.22678 0
M  V30 41306 H 3888.4 -3.85517 1.70161 0
M  V30 41307 H 3887.13 -3.20176 0.644586 0
M  V30 41308 H 3885.78 -2.51795 2.66449 0
M  V30 41309 H 3885.43 -4.76238 1.61883 0
M  V30 41310 H 3885.13 -4.81063 3.37419 0
M  V30 41311 H 3886.66 -5.46949 2.7144 0
M  V30 41312 H 3888.07 -3.81944 4.27541 0
M  V30 41313 H 3886.47 -3.39896 4.94561 0
M  V30 41314 H 3887.54 -2.10971 4.36599 0
M  V30 41315 N 3888.88 -1.34844 -0.815777 0
M  V30 41316 C 3889.81 -1.29662 -1.9419 0
M  V30 41317 C 3890.79 -0.172733 -1.69221 0
M  V30 41318 O 3891.98 -0.366236 -1.90715 0
M  V30 41319 C 3889.11 -1.05855 -3.30775 0
M  V30 41320 C 3888.06 -2.14787 -3.70203 0
M  V30 41321 C 3887.39 -1.76158 -5.04849 0
M  V30 41322 C 3888.69 -3.56678 -3.81547 0
M  V30 41323 H 3890.38 -2.23888 -1.98783 0
M  V30 41324 H 3887.93 -1.07777 -0.954994 0
M  V30 41325 H 3889.88 -1.00873 -4.09149 0
M  V30 41326 H 3888.6 -0.0807378 -3.265 0
M  V30 41327 H 3887.26 -2.1885 -2.94109 0
M  V30 41328 H 3886.91 -0.770186 -4.97069 0
M  V30 41329 H 3886.61 -2.49071 -5.32201 0
M  V30 41330 H 3888.14 -1.72684 -5.85673 0
M  V30 41331 H 3889.55 -3.54987 -4.50174 0
M  V30 41332 H 3887.95 -4.28273 -4.20359 0
M  V30 41333 H 3889.02 -3.93499 -2.83349 0
M  V30 41334 N 3890.36 1.03684 -1.1869 0
M  V30 41335 C 3891.6 1.78511 -0.995656 0
M  V30 41336 C 3891.96 1.86256 0.466119 0
M  V30 41337 O 3893.16 2.57327 0.776931 0
M  V30 41338 C 3891.44 3.17706 -1.637 0
M  V30 41339 S 3892.99 4.08822 -1.59405 0
M  V30 41340 H 3889.81 0.61461 -0.357457 0
M  V30 41341 H 3892.41 1.24295 -1.50901 0
M  V30 41342 H 3891.12 3.0968 -2.69307 0
M  V30 41343 H 3890.65 3.76998 -1.1241 0
M  V30 41344 H 3892.66 4.92404 -0.612627 0
M  V30 41345 N 3891.84 0.989551 1.22661 0
M  V30 41346 C 3893.11 0.579599 1.86815 0
M  V30 41347 C 3893.49 -0.943155 1.88859 0
M  V30 41348 O 3892.84 -1.8237 1.37672 0
M  V30 41349 C 3893.05 1.19618 3.27861 0
M  V30 41350 C 3894.4 1.29462 4.04382 0
M  V30 41351 O 3895.42 1.15032 3.37114 0
M  V30 41352 O 3894.28 1.52517 5.24786 0
M  V30 41353 H 3891.38 0.196448 0.803329 0
M  V30 41354 H 3893.92 1.08522 1.30465 0
M  V30 41355 H 3892.7 2.2379 3.20989 0
M  V30 41356 H 3892.32 0.675944 3.91812 0
M  V30 41357 N 3893.32 -1.37936 0.762332 0
M  V30 41358 C 3894.56 -1.99159 0.319139 0
M  V30 41359 C 3894.88 -1.61202 -1.10784 0
M  V30 41360 O 3896.08 -2.1546 -1.65195 0
M  V30 41361 C 3894.54 -3.56129 0.519644 0
M  V30 41362 C 3894.15 -4.03031 1.95628 0
M  V30 41363 C 3895.89 -4.2427 0.139602 0
M  V30 41364 C 3893.8 -5.52674 2.10488 0
M  V30 41365 H 3892.73 -0.745089 0.115577 0
M  V30 41366 H 3895.38 -1.57588 0.94012 0
M  V30 41367 H 3893.76 -3.95632 -0.170654 0
M  V30 41368 H 3894.94 -3.74796 2.68076 0
M  V30 41369 H 3893.25 -3.47642 2.29204 0
M  V30 41370 H 3895.85 -5.34208 0.229274 0
M  V30 41371 H 3896.19 -4.06256 -0.908928 0
M  V30 41372 H 3896.72 -3.90036 0.782087 0
M  V30 41373 H 3893.46 -5.75603 3.13626 0
M  V30 41374 H 3892.98 -5.82624 1.42511 0
M  V30 41375 H 3894.66 -6.18504 1.89898 0
M  V30 41376 N 3894.79 -0.512106 -1.49048 0
M  V30 41377 C 3896.04 0.0283971 -2.0208 0
M  V30 41378 C 3896.36 1.36452 -1.39305 0
M  V30 41379 O 3895.63 1.87957 -0.552188 0
M  V30 41380 H 3894.21 0.0134837 -0.746878 0
M  V30 41381 H 3896.87 -0.671874 -1.82953 0
M  V30 41382 H 3895.97 0.149911 -3.1174 0
M  V30 41383 N 3896.27 1.55662 -0.246424 0
M  V30 41384 C 3897.18 2.25005 0.664086 0
M  V30 41385 C 3898.2 1.26601 1.19366 0
M  V30 41386 O 3899.37 1.59475 1.23003 0
M  V30 41387 C 3896.44 2.9356 1.84454 0
M  V30 41388 C 3895.5 4.07372 1.35449 0
M  V30 41389 C 3894.73 4.72649 2.47868 0
M  V30 41390 O 3894.96 4.37002 3.66586 0
M  V30 41391 O 3893.89 5.61169 2.17654 0
M  V30 41392 H 3897.72 3.03525 0.103223 0
M  V30 41393 H 3895.3 1.49393 -0.014947 0
M  V30 41394 H 3897.18 3.36742 2.53343 0
M  V30 41395 H 3895.86 2.1798 2.39304 0
M  V30 41396 H 3894.76 3.68708 0.632893 0
M  V30 41397 H 3896.1 4.84768 0.852089 0
M  V30 41398 N 3897.75 -0.0266943 1.57577 0
M  V30 41399 C 3898.97 -0.732439 1.94036 0
M  V30 41400 C 3899.4 -1.67971 0.846605 0
M  V30 41401 O 3898.76 -1.80221 -0.197483 0
M  V30 41402 C 3898.81 -1.46359 3.29562 0
M  V30 41403 O 3897.91 -2.57688 3.21979 0
M  V30 41404 H 3897.25 -0.196821 0.634159 0
M  V30 41405 H 3899.78 0.0185389 2.04592 0
M  V30 41406 H 3899.79 -1.83299 3.64507 0
M  V30 41407 H 3898.47 -0.768871 4.08731 0
M  V30 41408 H 3897.04 -2.23274 2.98669 0
M  V30 41409 N 3899.23 -1.54738 -0.299007 0
M  V30 41410 C 3900.45 -1.78432 -1.0572 0
M  V30 41411 C 3900.88 -0.543126 -1.80088 0
M  V30 41412 O 3900.24 0.506408 -1.74084 0
M  V30 41413 C 3900.28 -2.99259 -2.01187 0
M  V30 41414 O 3899.39 -2.72523 -3.09524 0
M  V30 41415 H 3898.73 -0.590526 -0.303603 0
M  V30 41416 H 3901.26 -2.01825 -0.335823 0
M  V30 41417 H 3901.27 -3.27284 -2.43617 0
M  V30 41418 H 3899.94 -3.89257 -1.46465 0
M  V30 41419 H 3898.52 -2.55521 -2.71594 0
M  V30 41420 N 3900.71 0.562296 -1.47228 0
M  V30 41421 C 3902.12 1.14443 -1.47511 0
M  V30 41422 C 3902.47 1.94882 -0.227024 0
M  V30 41423 O 3901.59 2.05817 0.668446 0
M  V30 41424 C 3902.19 2.08212 -2.6727 0
M  V30 41425 C 3900.75 2.61708 -2.70529 0
M  V30 41426 C 3899.89 1.37984 -2.40532 0
M  V30 41427 H 3902.84 0.349158 -1.54811 0
M  V30 41428 H 3902.87 2.92008 -2.4395 0
M  V30 41429 H 3902.38 1.4964 -3.58091 0
M  V30 41430 H 3900.48 3.24093 -1.83833 0
M  V30 41431 H 3900.59 3.03049 -3.71077 0
M  V30 41432 H 3898.96 1.68486 -1.9101 0
M  V30 41433 H 3899.74 0.812118 -3.33556 0
M  V30 41434 N 3902.18 1.35274 0.808615 0
M  V30 41435 C 3903.13 1.28059 1.94175 0
M  V30 41436 C 3904.13 0.175903 1.68484 0
M  V30 41437 O 3905.33 0.34176 1.76726 0
M  V30 41438 H 3901.71 0.398194 0.637923 0
M  V30 41439 H 3903.68 2.23793 1.97381 0
M  V30 41440 C 3902.43 1.0674 3.30911 0
M  V30 41441 H 3901.75 1.90982 3.51235 0
M  V30 41442 H 3903.19 1.05732 4.10605 0
M  V30 41443 C 3901.65 -0.228826 3.36122 0
M  V30 41444 O 3902.18 -1.22532 3.82556 0
M  V30 41445 N 3900.38 -0.266898 2.89372 0
M  V30 41446 H 3899.93 0.544615 2.51777 0
M  V30 41447 H 3899.89 -1.13391 2.9324 0
M  V30 41448 N 3903.66 -1.03053 1.19239 0
M  V30 41449 C 3905.07 -1.57876 0.996596 0
M  V30 41450 C 3905.42 -1.90947 -0.450954 0
M  V30 41451 O 3904.55 -1.707 -1.33006 0
M  V30 41452 C 3905.14 -2.86855 1.80277 0
M  V30 41453 C 3903.7 -3.38257 1.65103 0
M  V30 41454 C 3902.85 -2.11718 1.79083 0
M  V30 41455 H 3905.8 -0.856013 1.33634 0
M  V30 41456 H 3905.82 -3.57681 1.29787 0
M  V30 41457 H 3905.33 -2.62754 2.85626 0
M  V30 41458 H 3903.44 -3.67349 0.623332 0
M  V30 41459 H 3903.55 -4.114 2.45534 0
M  V30 41460 H 3901.91 -2.2351 1.22128 0
M  V30 41461 H 3902.7 -1.9006 2.85888 0
M  V30 41462 N 3905.14 -0.996042 -1.22134 0
M  V30 41463 C 3906.37 -0.692206 -1.94977 0
M  V30 41464 C 3906.78 0.743666 -1.73537 0
M  V30 41465 O 3906.14 1.50217 -1.03639 0
M  V30 41466 C 3906.19 -0.992559 -3.47607 0
M  V30 41467 O 3905.91 -2.37201 -3.6833 0
M  V30 41468 C 3907.41 -0.706867 -4.37628 0
M  V30 41469 H 3904.63 -0.255813 -0.620323 0
M  V30 41470 H 3907.18 -1.33166 -1.552 0
M  V30 41471 H 3905.33 -0.398853 -3.85341 0
M  V30 41472 H 3905.75 -2.4737 -4.62502 0
M  V30 41473 H 3907.22 -0.967268 -5.43459 0
M  V30 41474 H 3907.7 0.359131 -4.37729 0
M  V30 41475 H 3908.3 -1.28177 -4.05525 0
M  V30 41476 N 3906.62 1.37529 -0.769636 0
M  V30 41477 C 3907.86 2.00039 -0.333495 0
M  V30 41478 C 3908.2 1.60956 1.08658 0
M  V30 41479 O 3907.47 0.85474 1.74712 0
M  V30 41480 C 3907.76 3.56958 -0.474651 0
M  V30 41481 C 3907.61 4.05956 -1.93699 0
M  V30 41482 C 3908.93 4.3993 0.122352 0
M  V30 41483 H 3906.05 0.726723 -0.12265 0
M  V30 41484 H 3908.69 1.63238 -0.972284 0
M  V30 41485 H 3906.84 3.88438 0.0691669 0
M  V30 41486 H 3908.51 3.8505 -2.54035 0
M  V30 41487 H 3906.75 3.58228 -2.44654 0
M  V30 41488 H 3907.42 5.15004 -1.98683 0
M  V30 41489 H 3909.9 4.14695 -0.34163 0
M  V30 41490 H 3908.78 5.489 -0.00656193 0
M  V30 41491 H 3909.04 4.2515 1.21244 0
M  V30 41492 N 3908.1 0.520003 1.48774 0
M  V30 41493 C 3909.01 -0.252288 2.3324 0
M  V30 41494 C 3910.02 -0.948824 1.45854 0
M  V30 41495 O 3911.2 -0.925998 1.7885 0
M  V30 41496 C 3908.26 -1.29161 3.21743 0
M  V30 41497 C 3907.32 -0.606489 4.24994 0
M  V30 41498 C 3906.56 -1.59629 5.09268 0
M  V30 41499 O 3906.78 -2.82801 4.95358 0
M  V30 41500 O 3905.71 -1.14116 5.90983 0
M  V30 41501 H 3909.54 0.43958 3.00502 0
M  V30 41502 H 3907.13 0.281057 1.46733 0
M  V30 41503 H 3909.01 -1.89247 3.76515 0
M  V30 41504 H 3907.68 -1.96606 2.57153 0
M  V30 41505 H 3906.59 0.0346105 3.74084 0
M  V30 41506 H 3907.92 0.0258492 4.92193 0
M  V30 41507 N 3909.57 -1.55529 0.254676 0
M  V30 41508 C 3910.54 -2.2042 -0.628321 0
M  V30 41509 C 3911.54 -1.1758 -1.09689 0
M  V30 41510 O 3912.73 -1.42614 -1.00035 0
M  V30 41511 C 3909.86 -2.85394 -1.86448 0
M  V30 41512 H 3911.05 -2.99836 -0.0620505 0
M  V30 41513 H 3908.61 -1.56299 0.00517059 0
M  V30 41514 H 3909.34 -2.09936 -2.47179 0
M  V30 41515 H 3909.13 -3.60736 -1.53663 0
M  V30 41516 H 3910.62 -3.35032 -2.49286 0
M  V30 41517 N 3911.05 0.0183372 -1.57589 0
M  V30 41518 C 3912.3 0.705579 -1.89383 0
M  V30 41519 C 3912.62 1.75318 -0.853728 0
M  V30 41520 O 3911.89 1.95584 0.111288 0
M  V30 41521 H 3910.47 0.263593 -0.698948 0
M  V30 41522 H 3913.13 -0.018251 -1.94891 0
M  V30 41523 H 3912.23 1.1884 -2.88589 0
M  V30 41524 N 3912.53 1.54894 0.290797 0
M  V30 41525 C 3913.95 1.46336 0.637028 0
M  V30 41526 C 3914.15 0.662883 1.90284 0
M  V30 41527 O 3913.2 0.174634 2.51895 0
M  V30 41528 C 3914.52 2.90393 0.780534 0
M  V30 41529 C 3916.06 3.00499 0.875754 0
M  V30 41530 C 3916.54 4.45774 1.05118 0
M  V30 41531 N 3918.03 4.49527 1.11714 0
M  V30 41532 C 3918.76 5.59128 1.27135 0
M  V30 41533 N 3918.26 6.78633 1.39389 0
M  V30 41534 N 3920.05 5.46836 1.30104 0
M  V30 41535 H 3912.2 2.05401 -0.540743 0
M  V30 41536 H 3914.47 0.930685 -0.180361 0
M  V30 41537 H 3914.17 3.51612 -0.0788473 0
M  V30 41538 H 3914.05 3.38395 1.66639 0
M  V30 41539 H 3916.43 2.39388 1.72561 0
M  V30 41540 H 3916.52 2.55777 -0.0343293 0
M  V30 41541 H 3916.16 5.07482 0.206045 0
M  V30 41542 H 3916.09 4.88135 1.97564 0
M  V30 41543 H 3918.58 3.63435 1.03555 0
M  V30 41544 H 3918.89 7.57916 1.5094 0
M  V30 41545 H 3917.24 6.81479 1.36426 0
M  V30 41546 H 3920.43 4.52418 1.20149 0
M  V30 41547 H 3920.6 6.323 1.41779 0
M  V30 41548 N 3914.01 -0.55448 1.47524 0
M  V30 41549 C 3915.24 -1.33687 1.57909 0
M  V30 41550 C 3915.65 -1.8739 0.230277 0
M  V30 41551 O 3915.01 -1.65138 -0.776888 0
M  V30 41552 C 3915.06 -2.50488 2.60649 0
M  V30 41553 O 3914.78 -1.99004 3.90293 0
M  V30 41554 C 3916.28 -3.42661 2.81244 0
M  V30 41555 H 3913.5 -0.407426 0.533146 0
M  V30 41556 H 3916.05 -0.671411 1.93164 0
M  V30 41557 H 3914.2 -3.12967 2.2832 0
M  V30 41558 H 3914.61 -2.75277 4.46456 0
M  V30 41559 H 3916.09 -4.21027 3.56988 0
M  V30 41560 H 3916.57 -3.96375 1.89165 0
M  V30 41561 H 3917.17 -2.85996 3.1478 0
M  V30 41562 N 3915.49 -1.35701 -0.80143 0
M  V30 41563 C 3916.42 -1.31715 -1.92804 0
M  V30 41564 C 3917.4 -0.190671 -1.69028 0
M  V30 41565 O 3918.58 -0.386443 -1.90316 0
M  V30 41566 C 3915.71 -1.09358 -3.29633 0
M  V30 41567 C 3914.67 -2.18701 -3.67904 0
M  V30 41568 C 3913.99 -1.81503 -5.02952 0
M  V30 41569 C 3915.29 -3.60705 -3.77743 0
M  V30 41570 H 3916.99 -2.25983 -1.96397 0
M  V30 41571 H 3914.53 -1.08784 -0.943509 0
M  V30 41572 H 3916.49 -1.05207 -4.08056 0
M  V30 41573 H 3915.21 -0.115363 -3.26396 0
M  V30 41574 H 3913.87 -2.21958 -2.91771 0
M  V30 41575 H 3913.52 -0.822864 -4.96224 0
M  V30 41576 H 3913.22 -2.54702 -5.29529 0
M  V30 41577 H 3914.74 -1.78886 -5.83808 0
M  V30 41578 H 3916.15 -3.59742 -4.46384 0
M  V30 41579 H 3914.55 -4.32708 -4.15793 0
M  V30 41580 H 3915.62 -3.96482 -2.7916 0
M  V30 41581 N 3916.96 1.02419 -1.19783 0
M  V30 41582 C 3918.38 1.28168 -0.951057 0
M  V30 41583 C 3918.58 1.98002 0.373848 0
M  V30 41584 O 3917.64 2.27075 1.10423 0
M  V30 41585 C 3918.95 2.12417 -2.12837 0
M  V30 41586 C 3920.5 2.25709 -2.16851 0
M  V30 41587 C 3920.97 3.13332 -3.34047 0
M  V30 41588 N 3922.46 3.2092 -3.34013 0
M  V30 41589 C 3923.2 3.88922 -4.2134 0
M  V30 41590 N 3922.69 4.59114 -5.18831 0
M  V30 41591 N 3924.49 3.85369 -4.09203 0
M  V30 41592 H 3916.64 0.555086 -2.05018 0
M  V30 41593 H 3918.9 0.307561 -0.896722 0
M  V30 41594 H 3918.61 1.68432 -3.08745 0
M  V30 41595 H 3918.48 3.1314 -2.10294 0
M  V30 41596 H 3920.87 2.68922 -1.21511 0
M  V30 41597 H 3920.95 1.24521 -2.23446 0
M  V30 41598 H 3920.59 2.70826 -4.29669 0
M  V30 41599 H 3920.52 4.1459 -3.24689 0
M  V30 41600 H 3923.01 2.70934 -2.63445 0
M  V30 41601 H 3923.33 5.08648 -5.81805 0
M  V30 41602 H 3921.67 4.57964 -5.22775 0
M  V30 41603 H 3924.86 3.29674 -3.32314 0
M  V30 41604 H 3925.04 4.38091 -4.77473 0
M  V30 41605 N 3918.44 1.0025 1.21604 0
M  V30 41606 C 3919.69 0.684799 1.90888 0
M  V30 41607 C 3920.02 -0.782209 1.7775 0
M  V30 41608 O 3919.3 -1.56674 1.15254 0
M  V30 41609 C 3919.58 1.10346 3.42777 0
M  V30 41610 C 3919.43 2.62973 3.64918 0
M  V30 41611 C 3920.75 0.663953 4.35063 0
M  V30 41612 H 3917.87 0.250251 0.693212 0
M  V30 41613 H 3920.51 1.24774 1.43288 0
M  V30 41614 H 3918.66 0.624483 3.83448 0
M  V30 41615 H 3920.34 3.18615 3.3359 0
M  V30 41616 H 3918.58 3.04602 3.08869 0
M  V30 41617 H 3919.25 2.87319 4.7133 0
M  V30 41618 H 3921.73 1.07551 4.0196 0
M  V30 41619 H 3920.6 0.985082 5.39988 0
M  V30 41620 H 3920.86 -0.435018 4.39955 0
M  V30 41621 N 3919.92 -1.37119 0.776919 0
M  V30 41622 C 3920.85 -2.32799 0.180778 0
M  V30 41623 C 3921.83 -1.56036 -0.677256 0
M  V30 41624 O 3923.02 -1.8425 -0.613655 0
M  V30 41625 C 3920.15 -3.40273 -0.695088 0
M  V30 41626 C 3919.1 -4.27955 0.0620524 0
M  V30 41627 C 3918.43 -5.26487 -0.933595 0
M  V30 41628 C 3919.73 -5.07268 1.24405 0
M  V30 41629 H 3921.42 -2.82904 0.980089 0
M  V30 41630 H 3918.97 -1.36019 0.472746 0
M  V30 41631 H 3920.92 -4.06189 -1.12198 0
M  V30 41632 H 3919.64 -2.88706 -1.52697 0
M  V30 41633 H 3918.3 -3.63578 0.469781 0
M  V30 41634 H 3917.95 -4.71197 -1.76017 0
M  V30 41635 H 3917.65 -5.86013 -0.431505 0
M  V30 41636 H 3919.18 -5.95277 -1.35932 0
M  V30 41637 H 3920.59 -5.66294 0.893549 0
M  V30 41638 H 3918.99 -5.76146 1.67858 0
M  V30 41639 H 3920.06 -4.39639 2.04561 0
M  V30 41640 N 3921.4 -0.527886 -1.48496 0
M  V30 41641 C 3922.35 0.249436 -2.31259 0
M  V30 41642 C 3923.34 0.937465 -1.41096 0
M  V30 41643 O 3924.55 0.862089 -1.58013 0
M  V30 41644 H 3920.92 0.0993077 -0.745414 0
M  V30 41645 H 3922.89 -0.468202 -2.94704 0
M  V30 41646 C 3921.64 1.28467 -3.23097 0
M  V30 41647 H 3920.97 0.764655 -3.9242 0
M  V30 41648 H 3922.41 1.80002 -3.83895 0
M  V30 41649 C 3920.86 2.31718 -2.44558 0
M  V30 41650 O 3921.39 3.38115 -2.16889 0
M  V30 41651 N 3919.6 2.04877 -2.06091 0
M  V30 41652 H 3919.15 1.1837 -2.28793 0
M  V30 41653 H 3919.11 2.74183 -1.53854 0
M  V30 41654 N 3922.88 1.55391 -0.26292 0
M  V30 41655 C 3923.81 2.25016 0.623692 0
M  V30 41656 C 3924.79 1.236 1.16863 0
M  V30 41657 O 3925.97 1.52292 1.20502 0
M  V30 41658 C 3923.1 2.96193 1.81348 0
M  V30 41659 C 3922.06 4.04434 1.40062 0
M  V30 41660 C 3921.38 4.6312 2.67253 0
M  V30 41661 C 3922.68 5.19291 0.559813 0
M  V30 41662 H 3924.38 2.99369 0.043078 0
M  V30 41663 H 3921.92 1.43987 0.019279 0
M  V30 41664 H 3923.88 3.43607 2.43952 0
M  V30 41665 H 3922.6 2.19355 2.41973 0
M  V30 41666 H 3921.26 3.57813 0.797842 0
M  V30 41667 H 3920.91 3.82964 3.2611 0
M  V30 41668 H 3920.61 5.36198 2.40345 0
M  V30 41669 H 3922.13 5.13276 3.30726 0
M  V30 41670 H 3923.55 5.62832 1.09054 0
M  V30 41671 H 3921.94 5.98856 0.386129 0
M  V30 41672 H 3923.01 4.8304 -0.424284 0
M  V30 41673 N 3924.36 -0.00997961 1.57597 0
M  V30 41674 C 3925.6 -0.697934 1.90412 0
M  V30 41675 C 3925.93 -1.73973 0.862955 0
M  V30 41676 O 3925.21 -1.94132 -0.119612 0
M  V30 41677 C 3925.49 -1.35016 3.3383 0
M  V30 41678 C 3925.35 -0.320581 4.48656 0
M  V30 41679 C 3926.66 -2.27904 3.76494 0
M  V30 41680 H 3923.78 -0.252253 0.692486 0
M  V30 41681 H 3926.43 0.0392659 1.89959 0
M  V30 41682 H 3924.58 -1.9785 3.34347 0
M  V30 41683 H 3926.25 0.30731 4.60275 0
M  V30 41684 H 3924.49 0.358204 4.32319 0
M  V30 41685 H 3925.16 -0.815795 5.45938 0
M  V30 41686 H 3927.64 -1.75097 3.77466 0
M  V30 41687 H 3926.51 -2.70511 4.77614 0
M  V30 41688 H 3926.77 -3.15392 3.09807 0
M  V30 41689 N 3925.83 -1.55046 -0.282578 0
M  V30 41690 C 3926.74 -1.90351 -1.37126 0
M  V30 41691 C 3927.76 -0.799666 -1.54536 0
M  V30 41692 O 3928.94 -1.09785 -1.68847 0
M  V30 41693 C 3926 -2.1598 -2.71207 0
M  V30 41694 C 3925.06 -3.39597 -2.62626 0
M  V30 41695 C 3924.29 -3.63994 -3.90313 0
M  V30 41696 O 3924.52 -2.91069 -4.90546 0
M  V30 41697 O 3923.45 -4.57525 -3.91094 0
M  V30 41698 H 3927.28 -2.83007 -1.10184 0
M  V30 41699 H 3924.86 -1.4147 -0.480268 0
M  V30 41700 H 3926.74 -2.33932 -3.50505 0
M  V30 41701 H 3925.42 -1.26508 -2.97955 0
M  V30 41702 H 3924.33 -3.2699 -1.81737 0
M  V30 41703 H 3925.66 -4.29258 -2.40829 0
M  V30 41704 N 3927.31 0.546649 -1.47816 0
M  V30 41705 C 3928.26 1.67378 -1.61516 0
M  V30 41706 C 3929.25 1.62395 -0.482092 0
M  V30 41707 O 3930.46 1.67453 -0.660256 0
M  V30 41708 H 3926.83 0.55402 -0.508494 0
M  V30 41709 H 3928.81 1.52962 -2.56213 0
M  V30 41710 C 3927.55 3.05704 -1.65651 0
M  V30 41711 H 3926.88 3.10225 -2.52192 0
M  V30 41712 H 3928.32 3.84231 -1.79284 0
M  V30 41713 C 3926.78 3.34613 -0.391858 0
M  V30 41714 O 3927.31 3.98545 0.502505 0
M  V30 41715 N 3925.51 2.89356 -0.268644 0
M  V30 41716 H 3925.06 2.37508 -0.997389 0
M  V30 41717 H 3925.02 3.09068 0.576546 0
M  V30 41718 N 3928.79 1.36124 0.794222 0
M  V30 41719 C 3930.04 1.31288 1.55355 0
M  V30 41720 C 3930.39 -0.108393 1.92094 0
M  V30 41721 O 3929.68 -1.06179 1.59488 0
M  V30 41722 C 3929.88 2.16474 2.84383 0
M  V30 41723 C 3929.71 3.66741 2.60252 0
M  V30 41724 C 3928.48 4.35935 2.55517 0
M  V30 41725 C 3930.67 4.60115 2.29779 0
M  V30 41726 N 3928.66 5.71874 2.23233 0
M  V30 41727 C 3930.03 5.84267 2.07442 0
M  V30 41728 C 3932.08 4.4873 2.15746 0
M  V30 41729 C 3930.79 6.98312 1.72491 0
M  V30 41730 C 3932.81 5.62637 1.82192 0
M  V30 41731 C 3932.17 6.85824 1.60699 0
M  V30 41732 H 3928.27 0.535687 0.569705 0
M  V30 41733 H 3930.86 1.71129 0.928591 0
M  V30 41734 H 3929.03 1.78884 3.44754 0
M  V30 41735 H 3930.76 2.03063 3.50068 0
M  V30 41736 H 3927.51 3.88683 2.70597 0
M  V30 41737 H 3927.94 6.43655 2.09851 0
M  V30 41738 H 3932.58 3.54081 2.31055 0
M  V30 41739 H 3930.3 7.92915 1.55919 0
M  V30 41740 H 3933.88 5.55787 1.72024 0
M  V30 41741 H 3932.76 7.72472 1.35117 0
M  V30 41742 N 3930.27 -1.01782 1.20325 0
M  V30 41743 C 3931.2 -2.12176 0.974856 0
M  V30 41744 C 3932.18 -1.6983 -0.0957338 0
M  V30 41745 O 3933.36 -1.94102 0.0615304 0
M  V30 41746 C 3930.49 -3.43312 0.524799 0
M  V30 41747 C 3929.45 -3.99393 1.53849 0
M  V30 41748 C 3928.77 -5.26281 0.945113 0
M  V30 41749 C 3930.07 -4.32925 2.92187 0
M  V30 41750 H 3931.77 -2.31541 1.89814 0
M  V30 41751 H 3929.31 -1.11271 0.914045 0
M  V30 41752 H 3931.27 -4.19925 0.352255 0
M  V30 41753 H 3929.99 -3.23702 -0.434104 0
M  V30 41754 H 3928.65 -3.24886 1.69837 0
M  V30 41755 H 3928.3 -5.02995 -0.0216825 0
M  V30 41756 H 3928 -5.64767 1.62211 0
M  V30 41757 H 3929.52 -6.05551 0.78361 0
M  V30 41758 H 3930.94 -5.00431 2.79717 0
M  V30 41759 H 3929.33 -4.82521 3.56781 0
M  V30 41760 H 3930.4 -3.41746 3.44003 0
M  V30 41761 N 3931.75 -1.00894 -1.21071 0
M  V30 41762 C 3932.69 -0.565869 -2.25612 0
M  V30 41763 C 3933.69 0.39156 -1.64813 0
M  V30 41764 O 3934.89 0.26232 -1.78078 0
M  V30 41765 H 3931.27 -0.164656 -0.733752 0
M  V30 41766 H 3933.24 -1.45866 -2.60318 0
M  V30 41767 C 3931.99 0.0877999 -3.47589 0
M  V30 41768 H 3931.31 -0.639897 -3.94646 0
M  V30 41769 H 3932.75 0.361041 -4.2246 0
M  V30 41770 C 3931.21 1.32824 -3.09612 0
M  V30 41771 O 3931.74 2.42224 -3.20453 0
M  V30 41772 N 3929.95 1.20946 -2.64236 0
M  V30 41773 H 3929.49 0.319256 -2.55614 0
M  V30 41774 H 3929.45 2.04042 -2.39195 0
M  V30 41775 N 3933.22 1.36705 -0.78418 0
M  V30 41776 C 3934.17 2.32001 -0.166868 0
M  V30 41777 C 3935.17 1.55549 0.670888 0
M  V30 41778 O 3936.37 1.70851 0.566558 0
M  V30 41779 H 3932.75 0.751177 -0.0351823 0
M  V30 41780 H 3934.72 2.81635 -0.986124 0
M  V30 41781 C 3933.47 3.40824 0.68804 0
M  V30 41782 H 3932.79 3.99765 0.0527641 0
M  V30 41783 H 3934.23 4.09837 1.08673 0
M  V30 41784 C 3932.69 2.81952 1.84403 0
M  V30 41785 O 3933.22 2.73696 2.94029 0
M  V30 41786 N 3931.43 2.39317 1.64851 0
M  V30 41787 H 3930.97 2.46231 0.756824 0
M  V30 41788 H 3930.93 2.00272 2.4236 0
M  V30 41789 N 3934.7 0.535753 1.48214 0
M  V30 41790 C 3935.65 -0.237169 2.31388 0
M  V30 41791 C 3936.64 -0.92997 1.41591 0
M  V30 41792 O 3937.85 -0.853697 1.58468 0
M  V30 41793 H 3934.23 -0.0953532 0.74593 0
M  V30 41794 H 3936.2 0.483824 2.94452 0
M  V30 41795 C 3934.95 -1.26751 3.23774 0
M  V30 41796 H 3934.27 -0.743833 3.9282 0
M  V30 41797 H 3935.71 -1.77963 3.84844 0
M  V30 41798 C 3934.17 -2.30417 2.45783 0
M  V30 41799 O 3934.7 -3.3696 2.18679 0
M  V30 41800 N 3932.9 -2.03782 2.07175 0
M  V30 41801 H 3932.45 -1.17155 2.29418 0
M  V30 41802 H 3932.41 -2.73363 1.55305 0
M  V30 41803 N 3936.18 -1.5525 0.271158 0
M  V30 41804 C 3937.41 -2.03915 -0.350212 0
M  V30 41805 C 3937.82 -1.14966 -1.49761 0
M  V30 41806 O 3937.18 -0.168955 -1.81716 0
M  V30 41807 C 3937.23 -3.51724 -0.834995 0
M  V30 41808 O 3936.95 -4.37287 0.266702 0
M  V30 41809 C 3938.45 -4.16259 -1.52458 0
M  V30 41810 H 3935.67 -0.666168 -0.0803837 0
M  V30 41811 H 3938.22 -2.00508 0.402098 0
M  V30 41812 H 3936.37 -3.55588 -1.53741 0
M  V30 41813 H 3936.79 -5.24394 -0.105341 0
M  V30 41814 H 3938.26 -5.21299 -1.81525 0
M  V30 41815 H 3938.74 -3.64193 -2.45479 0
M  V30 41816 H 3939.34 -4.16387 -0.866126 0
M  V30 41817 N 3937.66 0.00162173 -1.576 0
M  V30 41818 C 3938.59 1.02169 -2.05168 0
M  V30 41819 C 3939.6 1.30798 -0.969316 0
M  V30 41820 O 3940.79 1.27803 -1.24614 0
M  V30 41821 C 3937.89 2.35684 -2.43529 0
M  V30 41822 C 3937.07 2.26018 -3.74479 0
M  V30 41823 C 3936.12 3.42208 -3.99725 0
M  V30 41824 O 3935.15 3.20468 -4.70414 0
M  V30 41825 N 3936.35 4.65003 -3.47494 0
M  V30 41826 H 3939.12 0.616043 -2.933 0
M  V30 41827 H 3936.68 0.189038 -1.60793 0
M  V30 41828 H 3938.67 3.12183 -2.57534 0
M  V30 41829 H 3937.24 2.67996 -1.60925 0
M  V30 41830 H 3936.46 1.3444 -3.70566 0
M  V30 41831 H 3937.75 2.16731 -4.60331 0
M  V30 41832 H 3937.15 4.85564 -2.90248 0
M  V30 41833 H 3935.7 5.38774 -3.66832 0
M  V30 41834 N 3939.14 1.55194 0.274352 0
M  V30 41835 C 3940.38 1.75736 1.00613 0
M  V30 41836 C 3940.71 0.557712 1.86333 0
M  V30 41837 O 3939.97 -0.459815 1.90221 0
M  V30 41838 C 3940.27 3.01478 1.91953 0
M  V30 41839 C 3939.93 4.34083 1.21995 0
M  V30 41840 C 3938.59 4.70124 1.0265 0
M  V30 41841 C 3940.95 5.16175 0.721996 0
M  V30 41842 C 3938.27 5.85814 0.322362 0
M  V30 41843 C 3940.63 6.32592 0.0314571 0
M  V30 41844 C 3939.29 6.67274 -0.173713 0
M  V30 41845 H 3938.56 0.643064 0.368171 0
M  V30 41846 H 3941.21 1.89463 0.278546 0
M  V30 41847 H 3939.51 2.82645 2.71328 0
M  V30 41848 H 3941.21 3.14568 2.48692 0
M  V30 41849 H 3937.8 4.05754 1.38063 0
M  V30 41850 H 3941.98 4.88808 0.859078 0
M  V30 41851 H 3937.24 6.11209 0.152667 0
M  V30 41852 H 3941.41 6.95458 -0.362155 0
M  V30 41853 H 3939.04 7.5677 -0.721311 0
M  V30 41854 N 3940.61 -0.538802 1.48104 0
M  V30 41855 C 3941.85 -1.30567 1.57263 0
M  V30 41856 C 3942.22 -1.90529 0.237242 0
M  V30 41857 O 3943.42 -2.68027 0.20377 0
M  V30 41858 C 3941.69 -2.3725 2.67296 0
M  V30 41859 S 3943.25 -3.2378 2.96163 0
M  V30 41860 H 3940.07 -0.444256 0.55512 0
M  V30 41861 H 3942.67 -0.614822 1.85581 0
M  V30 41862 H 3941.37 -1.91665 3.62895 0
M  V30 41863 H 3940.9 -3.11053 2.40852 0
M  V30 41864 H 3942.92 -4.37139 2.34784 0
M  V30 41865 N 3942.09 -1.36544 -0.786992 0
M  V30 41866 C 3943.34 -1.31102 -1.54726 0
M  V30 41867 C 3943.67 0.108819 -1.93895 0
M  V30 41868 O 3942.95 1.06275 -1.62898 0
M  V30 41869 C 3943.23 -2.23599 -2.82268 0
M  V30 41870 C 3943.08 -3.74292 -2.49451 0
M  V30 41871 C 3944.4 -2.14822 -3.84109 0
M  V30 41872 H 3941.52 -0.477565 -0.561338 0
M  V30 41873 H 3944.16 -1.67116 -0.903998 0
M  V30 41874 H 3942.31 -1.93016 -3.3716 0
M  V30 41875 H 3943.98 -4.15404 -2.00591 0
M  V30 41876 H 3942.23 -3.93608 -1.82359 0
M  V30 41877 H 3942.9 -4.34426 -3.40556 0
M  V30 41878 H 3945.37 -2.41747 -3.3867 0
M  V30 41879 H 3944.25 -2.81708 -4.71096 0
M  V30 41880 H 3944.51 -1.13628 -4.27248 0
M  V30 41881 N 3943.57 1.01143 -1.20863 0
M  V30 41882 C 3944.52 2.0979 -0.962122 0
M  V30 41883 C 3945.49 1.65738 0.109559 0
M  V30 41884 O 3946.67 1.90766 -0.0362357 0
M  V30 41885 C 3943.81 3.41069 -0.52592 0
M  V30 41886 C 3942.93 3.98569 -1.66633 0
M  V30 41887 C 3942.06 5.1793 -1.17992 0
M  V30 41888 C 3941.1 5.67525 -2.29308 0
M  V30 41889 N 3940.24 6.78141 -1.81848 0
M  V30 41890 H 3945.08 2.30212 -1.89226 0
M  V30 41891 H 3942.61 1.12887 -0.943128 0
M  V30 41892 H 3944.57 4.16424 -0.254303 0
M  V30 41893 H 3943.2 3.20704 0.367219 0
M  V30 41894 H 3942.25 3.20261 -2.05274 0
M  V30 41895 H 3943.57 4.31375 -2.50433 0
M  V30 41896 H 3942.72 6.00508 -0.864583 0
M  V30 41897 H 3941.46 4.86702 -0.311879 0
M  V30 41898 H 3940.46 4.83547 -2.61653 0
M  V30 41899 H 3941.69 6.00785 -3.16598 0
M  V30 41900 H 3939.63 6.48732 -0.973779 0
M  V30 41901 H 3939.55 7.10168 -2.59226 0
M  V30 41902 H 3940.82 7.64271 -1.53329 0
M  V30 41903 N 3945.05 1.01535 1.20534 0
M  V30 41904 C 3946.29 0.705006 1.90151 0
M  V30 41905 C 3946.63 -0.763312 1.7857 0
M  V30 41906 O 3945.9 -1.55443 1.16909 0
M  V30 41907 C 3946.19 1.13976 3.41587 0
M  V30 41908 C 3946.04 2.66829 3.62108 0
M  V30 41909 C 3947.36 0.71006 4.34334 0
M  V30 41910 H 3944.48 0.257589 0.690519 0
M  V30 41911 H 3947.12 1.26287 1.41956 0
M  V30 41912 H 3945.27 0.665117 3.82764 0
M  V30 41913 H 3946.94 3.22135 3.30192 0
M  V30 41914 H 3945.18 3.07861 3.05621 0
M  V30 41915 H 3945.85 2.92302 4.68256 0
M  V30 41916 H 3948.33 1.11808 4.00797 0
M  V30 41917 H 3947.21 1.0423 5.38913 0
M  V30 41918 H 3947.47 -0.388331 4.40391 0
M  V30 41919 N 3946.53 -1.36288 0.791419 0
M  V30 41920 C 3947.46 -2.32594 0.20546 0
M  V30 41921 C 3948.44 -1.56746 -0.660669 0
M  V30 41922 O 3949.62 -1.8489 -0.594078 0
M  V30 41923 C 3946.75 -3.40991 -0.658958 0
M  V30 41924 C 3945.71 -4.27865 0.107439 0
M  V30 41925 C 3945.03 -5.27447 -0.877702 0
M  V30 41926 C 3946.33 -5.0592 1.29778 0
M  V30 41927 H 3948.03 -2.81848 1.01004 0
M  V30 41928 H 3945.57 -1.3551 0.487146 0
M  V30 41929 H 3947.53 -4.07356 -1.07884 0
M  V30 41930 H 3946.25 -2.90309 -1.49627 0
M  V30 41931 H 3944.91 -3.63059 0.508317 0
M  V30 41932 H 3944.56 -4.73038 -1.7101 0
M  V30 41933 H 3944.26 -5.86438 -0.369326 0
M  V30 41934 H 3945.78 -5.96685 -1.29611 0
M  V30 41935 H 3947.19 -5.65314 0.953562 0
M  V30 41936 H 3945.59 -5.74333 1.73959 0
M  V30 41937 H 3946.66 -4.37445 2.09213 0
M  V30 41938 N 3948.01 -0.543606 -1.47928 0
M  V30 41939 C 3948.95 0.224894 -2.3151 0
M  V30 41940 C 3949.95 0.922448 -1.42082 0
M  V30 41941 O 3951.15 0.845281 -1.58918 0
M  V30 41942 H 3947.53 0.091396 -0.746425 0
M  V30 41943 H 3949.5 -0.499433 -2.94191 0
M  V30 41944 C 3948.25 1.25033 -3.24441 0
M  V30 41945 H 3947.57 0.72299 -3.93208 0
M  V30 41946 H 3949.01 1.7592 -3.85783 0
M  V30 41947 C 3947.47 2.29111 -2.47002 0
M  V30 41948 O 3948 3.35796 -2.20463 0
M  V30 41949 N 3946.21 2.0268 -2.08253 0
M  V30 41950 H 3945.75 1.15937 -2.30036 0
M  V30 41951 H 3945.71 2.72536 -1.56753 0
M  V30 41952 N 3949.48 1.55104 -0.279387 0
M  V30 41953 C 3950.89 1.85428 0.217537 0
M  V30 41954 C 3951.25 1.20141 1.55115 0
M  V30 41955 O 3950.37 0.491266 2.1075 0
M  V30 41956 C 3950.97 3.36413 0.401488 0
M  V30 41957 C 3949.52 3.66847 0.842642 0
M  V30 41958 C 3948.67 2.77232 -0.0616052 0
M  V30 41959 H 3951.62 1.50583 -0.501051 0
M  V30 41960 H 3951.64 3.59749 1.2394 0
M  V30 41961 H 3951.16 3.83902 -0.569291 0
M  V30 41962 H 3949.26 3.2486 1.82474 0
M  V30 41963 H 3949.37 4.74293 0.677004 0
M  V30 41964 H 3947.73 2.50595 0.455442 0
M  V30 41965 H 3948.52 3.27536 -1.02835 0
M  V30 41966 N 3950.96 0.0067362 1.57599 0
M  V30 41967 C 3952.19 -0.686502 1.94861 0
M  V30 41968 C 3952.6 -1.67462 0.88051 0
M  V30 41969 O 3951.94 -1.83099 -0.148505 0
M  V30 41970 C 3952 -1.46828 3.28149 0
M  V30 41971 C 3951.67 -0.640996 4.52482 0
M  V30 41972 C 3952.67 0.0742093 5.19847 0
M  V30 41973 C 3950.35 -0.584983 4.98882 0
M  V30 41974 C 3952.34 0.834341 6.31916 0
M  V30 41975 C 3950.03 0.178869 6.10838 0
M  V30 41976 C 3951.03 0.887259 6.77212 0
M  V30 41977 O 3950.72 1.63863 7.87022 0
M  V30 41978 H 3950.45 -0.195716 0.647048 0
M  V30 41979 H 3953 0.0560144 2.05324 0
M  V30 41980 H 3951.23 -2.25543 3.14113 0
M  V30 41981 H 3952.92 -2.0475 3.50475 0
M  V30 41982 H 3953.69 0.0401297 4.84983 0
M  V30 41983 H 3949.57 -1.1259 4.4704 0
M  V30 41984 H 3953.11 1.38779 6.83656 0
M  V30 41985 H 3949.01 0.214746 6.45143 0
M  V30 41986 H 3949.78 1.55605 8.03573 0
M  V30 41987 N 3952.44 -1.55337 -0.266118 0
M  V30 41988 C 3953.37 -1.83627 -1.35486 0
M  V30 41989 C 3954.35 -0.689821 -1.47242 0
M  V30 41990 O 3955.53 -0.933553 -1.63759 0
M  V30 41991 C 3952.66 -2.00398 -2.73054 0
M  V30 41992 C 3951.71 -3.22977 -2.78547 0
M  V30 41993 S 3952.54 -4.80152 -2.37096 0
M  V30 41994 C 3953.7 -4.99905 -3.76625 0
M  V30 41995 H 3953.93 -2.75685 -1.11287 0
M  V30 41996 H 3951.46 -1.47196 -0.466111 0
M  V30 41997 H 3953.42 -2.10745 -3.52274 0
M  V30 41998 H 3952.08 -1.09216 -2.94501 0
M  V30 41999 H 3951.27 -3.3162 -3.79532 0
M  V30 42000 H 3950.88 -3.11256 -2.07354 0
M  V30 42001 H 3953.17 -4.86069 -4.71957 0
M  V30 42002 H 3954.11 -6.01938 -3.7293 0
M  V30 42003 H 3954.52 -4.27849 -3.68247 0
M  V30 42004 N 3953.92 0.53094 -1.48387 0
M  V30 42005 C 3955.33 1.11289 -1.49906 0
M  V30 42006 C 3955.68 1.94357 -0.26831 0
M  V30 42007 O 3954.8 2.07189 0.624639 0
M  V30 42008 C 3955.4 2.02496 -2.71626 0
M  V30 42009 C 3953.96 2.55911 -2.76019 0
M  V30 42010 C 3953.11 1.32851 -2.43405 0
M  V30 42011 H 3956.06 0.316242 -1.55517 0
M  V30 42012 H 3956.08 2.86768 -2.50089 0
M  V30 42013 H 3955.59 1.42011 -3.61185 0
M  V30 42014 H 3953.69 3.20121 -1.90666 0
M  V30 42015 H 3953.8 2.9511 -3.77421 0
M  V30 42016 H 3952.17 1.64396 -1.9454 0
M  V30 42017 H 3952.95 0.741183 -3.35203 0
M  V30 42018 N 3955.4 1.36959 0.779739 0
M  V30 42019 C 3956.62 1.35071 1.57387 0
M  V30 42020 C 3957.05 -0.0634913 1.87993 0
M  V30 42021 O 3956.4 -1.03825 1.48627 0
M  V30 42022 C 3956.45 2.18873 2.86578 0
M  V30 42023 O 3955.56 1.58786 3.80606 0
M  V30 42024 H 3954.9 0.461871 0.477044 0
M  V30 42025 H 3957.43 1.80375 0.96571 0
M  V30 42026 H 3957.44 2.318 3.35757 0
M  V30 42027 H 3956.11 3.21671 2.6363 0
M  V30 42028 H 3954.69 1.54854 3.39226 0
M  V30 42029 N 3956.87 -1.00501 1.21398 0
M  V30 42030 C 3958.12 -1.74535 1.03273 0
M  V30 42031 C 3958.45 -1.89318 -0.432712 0
M  V30 42032 O 3957.73 -1.4275 -1.32109 0
M  V30 42033 C 3958.01 -3.15793 1.73051 0
M  V30 42034 C 3957.86 -3.08734 3.27114 0
M  V30 42035 C 3959.18 -4.14716 1.47305 0
M  V30 42036 H 3956.3 -0.633531 0.376574 0
M  V30 42037 H 3958.94 -1.17167 1.49573 0
M  V30 42038 H 3957.09 -3.64773 1.33689 0
M  V30 42039 H 3958.77 -2.67468 3.75844 0
M  V30 42040 H 3957.01 -2.45836 3.57417 0
M  V30 42041 H 3957.68 -4.0864 3.71103 0
M  V30 42042 H 3960.16 -3.74441 1.81475 0
M  V30 42043 H 3959.03 -5.11696 1.98642 0
M  V30 42044 H 3959.29 -4.40259 0.403059 0
M  V30 42045 N 3958.35 -1.02172 -1.19994 0
M  V30 42046 C 3959.6 -0.709314 -1.88816 0
M  V30 42047 C 3959.91 0.76467 -1.80034 0
M  V30 42048 O 3961.12 1.18984 -2.44039 0
M  V30 42049 C 3959.58 -1.21836 -3.3865 0
M  V30 42050 C 3959.18 -2.71962 -3.56007 0
M  V30 42051 C 3960.93 -0.981615 -4.12995 0
M  V30 42052 C 3958.83 -3.16321 -4.99695 0
M  V30 42053 H 3957.76 -0.261625 -0.707155 0
M  V30 42054 H 3960.42 -1.23508 -1.35713 0
M  V30 42055 H 3958.8 -0.620547 -3.91108 0
M  V30 42056 H 3959.97 -3.37337 -3.13912 0
M  V30 42057 H 3958.29 -2.93836 -2.95041 0
M  V30 42058 H 3960.88 -1.2884 -5.18945 0
M  V30 42059 H 3961.23 0.0817885 -4.1622 0
M  V30 42060 H 3961.76 -1.54307 -3.66653 0
M  V30 42061 H 3958.5 -4.2196 -5.01627 0
M  V30 42062 H 3958.02 -2.5567 -5.4258 0
M  V30 42063 H 3959.7 -3.09252 -5.68306 0
M  V30 42064 N 3959.83 1.35866 -0.798635 0
M  V30 42065 C 3960.74 2.33704 -0.204799 0
M  V30 42066 C 3961.76 1.61485 0.647972 0
M  V30 42067 O 3962.93 1.93412 0.561594 0
M  V30 42068 C 3960 3.40682 0.643165 0
M  V30 42069 C 3959.06 4.28688 -0.229174 0
M  V30 42070 C 3958.29 5.30556 0.578414 0
M  V30 42071 O 3958.51 5.40796 1.81372 0
M  V30 42072 O 3957.45 6.01894 -0.0265349 0
M  V30 42073 H 3961.27 2.86273 -1.01397 0
M  V30 42074 H 3958.86 1.38497 -0.560266 0
M  V30 42075 H 3960.74 4.06067 1.12641 0
M  V30 42076 H 3959.42 2.90397 1.43007 0
M  V30 42077 H 3958.32 3.66312 -0.759378 0
M  V30 42078 H 3959.66 4.82349 -0.979821 0
M  V30 42079 N 3961.31 0.551443 1.47638 0
M  V30 42080 C 3962.72 0.210796 1.58202 0
M  V30 42081 C 3962.92 -1.28656 1.5508 0
M  V30 42082 O 3961.98 -2.06634 1.45117 0
M  V30 42083 C 3963.29 0.832345 2.88951 0
M  V30 42084 C 3964.84 0.803043 3.02523 0
M  V30 42085 C 3965.32 1.40356 4.35964 0
M  V30 42086 N 3966.81 1.36648 4.42585 0
M  V30 42087 C 3967.54 1.80081 5.44388 0
M  V30 42088 N 3967.04 2.31343 6.53033 0
M  V30 42089 N 3968.83 1.71187 5.35398 0
M  V30 42090 H 3960.98 1.52435 1.4791 0
M  V30 42091 H 3963.24 0.63534 0.703596 0
M  V30 42092 H 3962.95 1.88444 2.96954 0
M  V30 42093 H 3962.82 0.321981 3.75823 0
M  V30 42094 H 3965.21 -0.240344 2.9412 0
M  V30 42095 H 3965.29 1.3511 2.17207 0
M  V30 42096 H 3964.94 2.44598 4.45123 0
M  V30 42097 H 3964.87 0.830988 5.20002 0
M  V30 42098 H 3967.36 0.99145 3.64662 0
M  V30 42099 H 3967.67 2.62423 7.26879 0
M  V30 42100 H 3966.02 2.35351 6.53938 0
M  V30 42101 H 3969.21 1.3092 4.49419 0
M  V30 42102 H 3969.38 2.05355 6.146 0
M  V30 42103 N 3962.79 -1.54953 0.287609 0
M  V30 42104 C 3963.72 -2.19156 -0.636078 0
M  V30 42105 C 3964.7 -1.15654 -1.14293 0
M  V30 42106 O 3965.88 -1.44236 -1.2136 0
M  V30 42107 C 3963.01 -2.82476 -1.86883 0
M  V30 42108 C 3962.05 -3.99388 -1.49638 0
M  V30 42109 S 3962.89 -5.32524 -0.563792 0
M  V30 42110 C 3964.04 -5.99319 -1.80464 0
M  V30 42111 H 3964.28 -2.97162 -0.0905995 0
M  V30 42112 H 3961.81 -1.54233 0.0718028 0
M  V30 42113 H 3963.77 -3.19586 -2.57634 0
M  V30 42114 H 3962.43 -2.0434 -2.38546 0
M  V30 42115 H 3961.62 -4.42427 -2.414 0
M  V30 42116 H 3961.22 -3.63766 -0.868937 0
M  V30 42117 H 3963.52 -6.19312 -2.74697 0
M  V30 42118 H 3964.46 -6.93776 -1.41704 0
M  V30 42119 H 3964.87 -5.28813 -1.97526 0
M  V30 42120 N 3964.26 -0.0150939 -1.57593 0
M  V30 42121 C 3965.17 0.9874 -2.12809 0
M  V30 42122 C 3966.19 1.36668 -1.07693 0
M  V30 42123 O 3967.37 1.45095 -1.39676 0
M  V30 42124 C 3964.43 2.25576 -2.6328 0
M  V30 42125 C 3963.49 1.9382 -3.83056 0
M  V30 42126 C 3962.73 3.14609 -4.31111 0
M  V30 42127 O 3962.95 4.26803 -3.78412 0
M  V30 42128 O 3961.88 2.97725 -5.23109 0
M  V30 42129 H 3965.71 0.547963 -2.98716 0
M  V30 42130 H 3963.29 0.204664 -1.47992 0
M  V30 42131 H 3965.18 3.0006 -2.95874 0
M  V30 42132 H 3963.85 2.68728 -1.80463 0
M  V30 42133 H 3962.76 1.16764 -3.55411 0
M  V30 42134 H 3964.09 1.55494 -4.66993 0
M  V30 42135 N 3965.74 1.55476 0.257876 0
M  V30 42136 C 3966.97 1.80836 1.00528 0
M  V30 42137 C 3967.39 0.589294 1.79368 0
M  V30 42138 O 3966.74 -0.441904 1.77069 0
M  V30 42139 C 3966.79 3.04276 1.95188 0
M  V30 42140 O 3966.51 4.21476 1.19541 0
M  V30 42141 C 3968.02 3.42354 2.81618 0
M  V30 42142 H 3965.24 0.602034 0.296305 0
M  V30 42143 H 3967.78 2.02517 0.284082 0
M  V30 42144 H 3965.93 2.84677 2.62751 0
M  V30 42145 H 3966.35 4.91363 1.83474 0
M  V30 42146 H 3967.82 4.31857 3.43807 0
M  V30 42147 H 3968.3 2.6244 3.52168 0
M  V30 42148 H 3968.91 3.64265 2.19525 0
M  V30 42149 N 3967.22 -0.523064 1.48667 0
M  V30 42150 C 3968.15 -1.63602 1.66603 0
M  V30 42151 C 3969.13 -1.62122 0.514831 0
M  V30 42152 O 3970.32 -1.7921 0.748169 0
M  V30 42153 C 3967.45 -3.02169 1.71204 0
M  V30 42154 C 3966.4 -3.1851 2.85894 0
M  V30 42155 C 3965.73 -4.58208 2.7559 0
M  V30 42156 C 3967.03 -3.00624 4.27109 0
M  V30 42157 H 3968.72 -1.48846 2.59779 0
M  V30 42158 H 3966.27 -0.714645 1.25015 0
M  V30 42159 H 3968.22 -3.79908 1.8234 0
M  V30 42160 H 3966.94 -3.17963 0.746122 0
M  V30 42161 H 3965.6 -2.4319 2.74325 0
M  V30 42162 H 3965.25 -4.70847 1.76952 0
M  V30 42163 H 3964.95 -4.70085 3.52553 0
M  V30 42164 H 3966.47 -5.38036 2.88703 0
M  V30 42165 H 3967.89 -3.68149 4.39476 0
M  V30 42166 H 3966.29 -3.2399 5.05124 0
M  V30 42167 H 3967.36 -1.96974 4.4309 0
M  V30 42168 N 3968.7 -1.37371 -0.772465 0
M  V30 42169 C 3969.63 -1.28951 -1.89484 0
M  V30 42170 C 3970.64 -0.205462 -1.61498 0
M  V30 42171 O 3971.83 -0.46155 -1.7243 0
M  V30 42172 C 3968.93 -0.970855 -3.24696 0
M  V30 42173 C 3968.11 -2.16022 -3.80333 0
M  V30 42174 C 3967.16 -1.81195 -4.94019 0
M  V30 42175 O 3966.19 -2.53482 -5.09643 0
M  V30 42176 N 3967.39 -0.755651 -5.75561 0
M  V30 42177 H 3970.16 -2.25661 -1.97224 0
M  V30 42178 H 3967.72 -1.30986 -0.951539 0
M  V30 42179 H 3969.71 -0.71873 -3.98267 0
M  V30 42180 H 3968.28 -0.0923375 -3.12464 0
M  V30 42181 H 3967.5 -2.57414 -2.98549 0
M  V30 42182 H 3968.79 -2.95441 -4.14236 0
M  V30 42183 H 3968.19 -0.15579 -5.65485 0
M  V30 42184 H 3966.74 -0.563382 -6.49361 0
M  V30 42185 N 3970.18 0.998553 -1.21929 0
M  V30 42186 C 3971.59 1.26122 -0.978029 0
M  V30 42187 C 3971.79 1.9875 0.331765 0
M  V30 42188 O 3970.85 2.29366 1.05581 0
M  V30 42189 C 3972.16 2.07854 -2.17295 0
M  V30 42190 C 3973.71 2.21058 -2.2159 0
M  V30 42191 C 3974.18 3.06175 -3.40618 0
M  V30 42192 N 3975.68 3.13763 -3.40745 0
M  V30 42193 C 3976.41 3.79897 -4.29495 0
M  V30 42194 N 3975.91 4.48006 -5.28453 0
M  V30 42195 N 3977.7 3.76602 -4.17286 0
M  V30 42196 H 3969.85 0.511474 -2.0615 0
M  V30 42197 H 3972.11 0.288471 -0.903044 0
M  V30 42198 H 3971.82 1.61845 -3.12248 0
M  V30 42199 H 3971.69 3.08609 -2.16888 0
M  V30 42200 H 3974.08 2.66284 -1.27188 0
M  V30 42201 H 3974.16 1.19753 -2.26037 0
M  V30 42202 H 3973.81 2.61651 -4.35317 0
M  V30 42203 H 3973.74 4.07609 -3.3341 0
M  V30 42204 H 3976.23 2.65285 -2.69133 0
M  V30 42205 H 3976.54 4.96193 -5.92463 0
M  V30 42206 H 3974.88 4.46772 -5.32372 0
M  V30 42207 H 3978.08 3.22551 -3.39232 0
M  V30 42208 H 3978.25 4.27864 -4.86658 0
M  V30 42209 N 3971.65 1.02807 1.1945 0
M  V30 42210 C 3972.6 0.608173 2.22643 0
M  V30 42211 C 3973.57 -0.37761 1.61751 0
M  V30 42212 O 3974.76 -0.274454 1.88816 0
M  V30 42213 C 3971.9 -0.0356983 3.45082 0
M  V30 42214 C 3971.01 0.996029 4.20361 0
M  V30 42215 C 3970.14 0.322004 5.30223 0
M  V30 42216 C 3969.18 1.3397 5.97259 0
M  V30 42217 N 3968.32 0.691537 6.98686 0
M  V30 42218 H 3973.16 1.49273 2.57918 0
M  V30 42219 H 3970.7 0.747007 1.26721 0
M  V30 42220 H 3972.66 -0.426236 4.15017 0
M  V30 42221 H 3971.29 -0.883835 3.10464 0
M  V30 42222 H 3970.34 1.50463 3.49378 0
M  V30 42223 H 3971.65 1.76953 4.66357 0
M  V30 42224 H 3970.8 -0.123422 6.06574 0
M  V30 42225 H 3969.54 -0.483707 4.85295 0
M  V30 42226 H 3968.55 1.79539 5.19659 0
M  V30 42227 H 3969.77 2.14689 6.44271 0
M  V30 42228 H 3967.72 -0.0940968 6.55933 0
M  V30 42229 H 3967.64 1.40294 7.42869 0
M  V30 42230 H 3968.9 0.270085 7.79032 0
M  V30 42231 N 3973.13 -1.35441 0.805829 0
M  V30 42232 C 3974.36 -2.02736 0.39771 0
M  V30 42233 C 3974.77 -1.60872 -0.995832 0
M  V30 42234 O 3974.11 -0.801525 -1.65291 0
M  V30 42235 C 3974.18 -3.57259 0.400769 0
M  V30 42236 C 3973.84 -4.22385 1.74469 0
M  V30 42237 C 3974.84 -4.44119 2.70286 0
M  V30 42238 C 3972.52 -4.59519 2.02849 0
M  V30 42239 C 3974.52 -5.02087 3.92667 0
M  V30 42240 C 3972.2 -5.17201 3.25494 0
M  V30 42241 C 3973.2 -5.38427 4.2022 0
M  V30 42242 O 3972.89 -5.94894 5.407 0
M  V30 42243 H 3972.62 -0.656831 0.159841 0
M  V30 42244 H 3975.17 -1.74058 1.09055 0
M  V30 42245 H 3973.4 -3.85125 -0.34867 0
M  V30 42246 H 3975.09 -4.05897 0.0150662 0
M  V30 42247 H 3975.86 -4.15811 2.49652 0
M  V30 42248 H 3971.74 -4.42312 1.29928 0
M  V30 42249 H 3975.28 -5.1857 4.66616 0
M  V30 42250 H 3971.18 -5.44936 3.45999 0
M  V30 42251 H 3971.95 -6.13345 5.41987 0
M  V30 42252 N 3974.61 -0.559265 -1.47343 0
M  V30 42253 C 3975.86 -0.0359075 -2.02068 0
M  V30 42254 C 3976.18 1.31951 -1.43576 0
M  V30 42255 O 3975.45 1.86105 -0.611705 0
M  V30 42256 H 3974.03 -0.0102845 -0.746929 0
M  V30 42257 H 3976.69 -0.729739 -1.80723 0
M  V30 42258 H 3975.79 0.0506574 -3.12059 0
M  V30 42259 N 3976.09 1.54799 -0.295822 0
M  V30 42260 C 3977.34 1.9964 0.314349 0
M  V30 42261 C 3977.66 1.18573 1.54808 0
M  V30 42262 O 3976.93 0.280387 1.93883 0
M  V30 42263 H 3975.51 0.737438 0.11914 0
M  V30 42264 H 3978.17 1.90625 -0.405954 0
M  V30 42265 H 3977.27 3.06473 0.589967 0
M  V30 42266 N 3977.57 0.0234513 1.57583 0
M  V30 42267 C 3978.53 -0.945288 2.08799 0
M  V30 42268 C 3979.53 -1.25771 1.00192 0
M  V30 42269 O 3980.72 -1.19899 1.26372 0
M  V30 42270 C 3977.85 -2.26348 2.5491 0
M  V30 42271 H 3979.05 -0.501818 2.95672 0
M  V30 42272 H 3976.6 -0.224479 1.5468 0
M  V30 42273 H 3977.33 -2.75336 1.7135 0
M  V30 42274 H 3977.12 -2.04986 3.3425 0
M  V30 42275 H 3978.61 -2.95796 2.94779 0
M  V30 42276 N 3979.05 -1.5561 -0.249627 0
M  V30 42277 C 3979.98 -1.93102 -1.31277 0
M  V30 42278 C 3980.96 -0.795628 -1.50346 0
M  V30 42279 O 3982.14 -1.05569 -1.62999 0
M  V30 42280 C 3979.27 -2.22335 -2.66804 0
M  V30 42281 C 3978.23 -3.381 -2.62435 0
M  V30 42282 C 3977.55 -3.52868 -4.01732 0
M  V30 42283 C 3978.85 -4.73864 -2.19659 0
M  V30 42284 H 3980.55 -2.82154 -1.00146 0
M  V30 42285 H 3978.09 -1.35754 -0.480307 0
M  V30 42286 H 3980.04 -2.47152 -3.41312 0
M  V30 42287 H 3978.77 -1.30106 -2.99566 0
M  V30 42288 H 3977.43 -3.13287 -1.90385 0
M  V30 42289 H 3977.08 -2.58064 -4.31755 0
M  V30 42290 H 3976.78 -4.30715 -3.99697 0
M  V30 42291 H 3978.3 -3.80003 -4.77944 0
M  V30 42292 H 3979.71 -4.98072 -2.83897 0
M  V30 42293 H 3978.11 -5.54795 -2.28741 0
M  V30 42294 H 3979.18 -4.7111 -1.14821 0
M  V30 42295 N 3980.52 0.515172 -1.48942 0
M  V30 42296 C 3981.77 1.27205 -1.57946 0
M  V30 42297 C 3982.1 1.92465 -0.259045 0
M  V30 42298 O 3981.38 1.80027 0.736246 0
M  V30 42299 C 3981.66 2.35 -2.7285 0
M  V30 42300 C 3981.51 1.74334 -4.14642 0
M  V30 42301 C 3982.83 3.36667 -2.83449 0
M  V30 42302 H 3979.95 0.461128 -0.574917 0
M  V30 42303 H 3982.59 0.572381 -1.81173 0
M  V30 42304 H 3980.74 2.94677 -2.53175 0
M  V30 42305 H 3982.42 1.18594 -4.45795 0
M  V30 42306 H 3980.66 1.04803 -4.2095 0
M  V30 42307 H 3981.33 2.52454 -4.90888 0
M  V30 42308 H 3983.81 2.86964 -3.01316 0
M  V30 42309 H 3982.68 4.09469 -3.65549 0
M  V30 42310 H 3982.94 3.98128 -1.92215 0
M  V30 42311 N 3982 1.37779 0.765169 0
M  V30 42312 C 3983.42 1.18722 1.06664 0
M  V30 42313 C 3983.62 0.027899 2.01481 0
M  V30 42314 O 3982.67 -0.629963 2.44515 0
M  V30 42315 C 3983.99 2.50871 1.65783 0
M  V30 42316 C 3985.53 2.57452 1.7801 0
M  V30 42317 C 3986.01 3.89748 2.40542 0
M  V30 42318 N 3987.5 3.91226 2.47985 0
M  V30 42319 C 3988.24 4.90345 2.97237 0
M  V30 42320 N 3987.73 5.99861 3.46611 0
M  V30 42321 N 3989.52 4.77744 2.96171 0
M  V30 42322 H 3981.68 2.11966 0.135738 0
M  V30 42323 H 3983.94 0.940007 0.122846 0
M  V30 42324 H 3983.64 3.36101 1.03582 0
M  V30 42325 H 3983.52 2.68435 2.64995 0
M  V30 42326 H 3985.91 1.72625 2.39342 0
M  V30 42327 H 3985.99 2.43766 0.775345 0
M  V30 42328 H 3985.63 4.74992 1.79847 0
M  V30 42329 H 3985.56 4.0074 3.41636 0
M  V30 42330 H 3988.05 3.12118 2.13051 0
M  V30 42331 H 3988.36 6.71436 3.82613 0
M  V30 42332 H 3986.71 6.03497 3.44698 0
M  V30 42333 H 3989.9 3.91304 2.56902 0
M  V30 42334 H 3990.07 5.55144 3.34243 0
M  V30 42335 N 3983.48 -0.992073 1.22457 0
M  V30 42336 C 3984.43 -2.10356 0.992634 0
M  V30 42337 C 3985.42 -1.69277 -0.0645217 0
M  V30 42338 O 3986.63 -1.79785 0.0879893 0
M  V30 42339 H 3983 -0.687894 0.30382 0
M  V30 42340 H 3984.97 -2.2709 1.93578 0
M  V30 42341 C 3983.72 -3.42694 0.587913 0
M  V30 42342 H 3983.05 -3.74746 1.39305 0
M  V30 42343 H 3984.49 -4.21442 0.465049 0
M  V30 42344 C 3982.94 -3.29492 -0.702623 0
M  V30 42345 O 3983.47 -3.61342 -1.75484 0
M  V30 42346 N 3981.68 -2.82674 -0.674091 0
M  V30 42347 H 3981.23 -2.56953 0.182492 0
M  V30 42348 H 3981.19 -2.74222 -1.53784 0
M  V30 42349 N 3984.96 -1.03439 -1.18904 0
M  V30 42350 C 3986.37 -0.762923 -1.70401 0
M  V30 42351 C 3986.72 0.716876 -1.82634 0
M  V30 42352 O 3985.84 1.55844 -1.50139 0
M  V30 42353 C 3986.44 -1.37827 -3.09498 0
M  V30 42354 C 3985 -1.15526 -3.58233 0
M  V30 42355 C 3984.15 -1.47288 -2.3495 0
M  V30 42356 H 3987.1 -1.20162 -1.03667 0
M  V30 42357 H 3987.12 -0.778144 -3.72458 0
M  V30 42358 H 3986.63 -2.45528 -3.00562 0
M  V30 42359 H 3984.73 -0.0967114 -3.72474 0
M  V30 42360 H 3984.84 -1.84785 -4.42031 0
M  V30 42361 H 3983.21 -0.892375 -2.38556 0
M  V30 42362 H 3983.99 -2.56084 -2.28639 0
M  V30 42363 N 3986.44 1.35011 -0.813001 0
M  V30 42364 C 3987.37 2.32238 -0.242437 0
M  V30 42365 C 3988.35 1.57777 0.635648 0
M  V30 42366 O 3989.53 1.85812 0.564589 0
M  V30 42367 C 3986.66 3.41996 0.604626 0
M  V30 42368 C 3985.62 4.2764 -0.175495 0
M  V30 42369 C 3984.94 5.28777 0.793679 0
M  V30 42370 C 3986.24 5.03791 -1.37811 0
M  V30 42371 H 3987.94 2.80206 -1.05475 0
M  V30 42372 H 3985.48 1.34718 -0.508643 0
M  V30 42373 H 3987.43 4.09021 1.01389 0
M  V30 42374 H 3986.16 2.92653 1.44989 0
M  V30 42375 H 3984.82 3.62204 -0.566012 0
M  V30 42376 H 3984.47 4.75699 1.63462 0
M  V30 42377 H 3984.17 5.86952 0.275982 0
M  V30 42378 H 3985.69 5.98672 1.20101 0
M  V30 42379 H 3987.1 5.63726 -1.04338 0
M  V30 42380 H 3985.5 5.71493 -1.83074 0
M  V30 42381 H 3986.57 4.34061 -2.16146 0
M  V30 42382 N 3987.91 0.567071 1.47044 0
M  V30 42383 C 3989.14 0.0499193 2.0734 0
M  V30 42384 C 3989.56 -1.23879 1.41547 0
M  V30 42385 O 3988.92 -1.74445 0.493828 0
M  V30 42386 C 3988.97 -0.118719 3.60405 0
M  V30 42387 O 3988.07 -1.17898 3.95188 0
M  V30 42388 H 3987.41 0.0557577 0.661655 0
M  V30 42389 H 3989.94 0.785564 1.88918 0
M  V30 42390 H 3989.95 -0.329828 4.06665 0
M  V30 42391 H 3988.63 0.82248 4.07686 0
M  V30 42392 H 3987.21 -0.947581 3.6066 0
M  V30 42393 N 3989.39 -1.5464 0.304027 0
M  V30 42394 C 3990.81 -1.59524 -0.0492643 0
M  V30 42395 C 3991.01 -1.32095 -1.52161 0
M  V30 42396 O 3990.06 -1.09584 -2.27481 0
M  V30 42397 C 3991.38 -2.9864 0.351398 0
M  V30 42398 C 3992.92 -3.11555 0.300417 0
M  V30 42399 C 3993.4 -4.52985 0.675947 0
M  V30 42400 N 3994.89 -4.58915 0.628598 0
M  V30 42401 C 3995.63 -5.66426 0.891604 0
M  V30 42402 N 3995.12 -6.8196 1.22073 0
M  V30 42403 N 3996.91 -5.56109 0.818464 0
M  V30 42404 H 3989.07 -1.70729 1.26354 0
M  V30 42405 H 3991.33 -0.797545 0.512471 0
M  V30 42406 H 3991.03 -3.23645 1.37647 0
M  V30 42407 H 3990.91 -3.76057 -0.293437 0
M  V30 42408 H 3993.3 -2.86297 -0.715418 0
M  V30 42409 H 3993.38 -2.36286 0.979917 0
M  V30 42410 H 3993.02 -4.78973 1.6896 0
M  V30 42411 H 3992.95 -5.26594 -0.0256573 0
M  V30 42412 H 3995.44 -3.75931 0.38527 0
M  V30 42413 H 3995.75 -7.59878 1.40731 0
M  V30 42414 H 3994.1 -6.83505 1.2588 0
M  V30 42415 H 3997.29 -4.64727 0.560966 0
M  V30 42416 H 3997.46 -6.39813 1.0268 0
M  V30 42417 N 3990.87 -0.0318079 -1.57568 0
M  V30 42418 C 3991.82 0.967137 -2.1154 0
M  V30 42419 C 3992.81 1.33515 -1.0426 0
M  V30 42420 O 3994.02 1.31706 -1.22692 0
M  V30 42421 H 3990.39 0.329676 -0.675883 0
M  V30 42422 H 3992.36 0.486643 -2.94405 0
M  V30 42423 C 3991.11 2.23946 -2.65977 0
M  V30 42424 H 3990.44 1.96503 -3.48176 0
M  V30 42425 H 3991.88 2.92046 -3.07384 0
M  V30 42426 C 3990.33 2.97102 -1.58845 0
M  V30 42427 O 3990.86 3.89313 -0.989853 0
M  V30 42428 N 3989.07 2.59486 -1.30826 0
M  V30 42429 H 3988.62 1.84578 -1.7969 0
M  V30 42430 H 3988.58 3.08743 -0.593712 0
M  V30 42431 N 3992.35 1.55741 0.241371 0
M  V30 42432 C 3993.57 1.82233 0.990248 0
M  V30 42433 C 3994 0.60959 1.77948 0
M  V30 42434 O 3993.36 -0.441449 1.75843 0
M  V30 42435 C 3993.4 3.0652 1.89942 0
M  V30 42436 O 3992.51 2.83823 2.99196 0
M  V30 42437 H 3991.85 0.601387 0.281477 0
M  V30 42438 H 3994.38 2.02932 0.260686 0
M  V30 42439 H 3994.39 3.361 2.31303 0
M  V30 42440 H 3993.06 3.94424 1.31917 0
M  V30 42441 H 3991.64 2.65425 2.61924 0
M  V30 42442 N 3993.83 -0.507266 1.49213 0
M  V30 42443 C 3995.05 -1.28596 1.62082 0
M  V30 42444 C 3995.47 -1.86563 0.289778 0
M  V30 42445 O 3994.83 -1.67526 -0.723957 0
M  V30 42446 C 3994.88 -2.42069 2.68486 0
M  V30 42447 O 3994.6 -1.86486 3.96427 0
M  V30 42448 C 3996.1 -3.3354 2.92003 0
M  V30 42449 H 3993.32 -0.390259 0.545838 0
M  V30 42450 H 3995.86 -0.609618 1.95202 0
M  V30 42451 H 3994.02 -3.05545 2.38162 0
M  V30 42452 H 3994.43 -2.60934 4.54988 0
M  V30 42453 H 3995.91 -4.09456 3.70202 0
M  V30 42454 H 3996.38 -3.90156 2.0168 0
M  V30 42455 H 3996.99 -2.75837 3.23719 0
M  V30 42456 N 3995.3 -1.38182 -0.757851 0
M  V30 42457 C 3996.25 -1.31574 -1.86205 0
M  V30 42458 C 3997.24 -0.20084 -1.59642 0
M  V30 42459 O 3998.43 -0.436446 -1.71535 0
M  V30 42460 C 3995.56 -1.13887 -3.23859 0
M  V30 42461 C 3994.65 -2.29981 -3.56328 0
M  V30 42462 N 3995.04 -3.55413 -3.59883 0
M  V30 42463 C 3993.33 -2.2244 -3.8657 0
M  V30 42464 C 3994.04 -4.3205 -3.89496 0
M  V30 42465 N 3993.01 -3.61354 -4.06109 0
M  V30 42466 H 3996.81 -2.26548 -1.87225 0
M  V30 42467 H 3994.33 -1.31353 -0.954995 0
M  V30 42468 H 3996.32 -1.07237 -4.02872 0
M  V30 42469 H 3994.98 -0.198428 -3.24093 0
M  V30 42470 H 3996 -3.89139 -3.41747 0
M  V30 42471 H 3992.67 -1.36531 -3.94545 0
M  V30 42472 H 3994.06 -5.4067 -3.98906 0
M  V30 42473 N 3996.78 0.985565 -1.22981 0
M  V30 42474 C 3997.69 2.11122 -1.02298 0
M  V30 42475 C 3998.71 1.73972 0.0309605 0
M  V30 42476 O 3999.88 2.00736 -0.163369 0
M  V30 42477 C 3996.95 3.41271 -0.611162 0
M  V30 42478 C 3996.01 3.92477 -1.73956 0
M  V30 42479 C 3995.24 5.16414 -1.3473 0
M  V30 42480 O 3995.47 5.69939 -0.229271 0
M  V30 42481 O 3994.4 5.61557 -2.16649 0
M  V30 42482 H 3998.23 2.31458 -1.96624 0
M  V30 42483 H 3995.81 1.09497 -1.01641 0
M  V30 42484 H 3997.69 4.19571 -0.3922 0
M  V30 42485 H 3996.37 3.22277 0.303167 0
M  V30 42486 H 3995.28 3.15317 -2.01311 0
M  V30 42487 H 3996.61 4.15916 -2.63201 0
M  V30 42488 N 3998.26 1.04068 1.18353 0
M  V30 42489 C 3999.19 0.576203 2.20806 0
M  V30 42490 C 4000.17 -0.389249 1.57872 0
M  V30 42491 O 4001.36 -0.303549 1.8604 0
M  V30 42492 C 3998.48 -0.158244 3.3833 0
M  V30 42493 C 3997.53 0.760464 4.19666 0
M  V30 42494 S 3998.36 2.24335 4.86245 0
M  V30 42495 C 3999.52 1.51975 6.07169 0
M  V30 42496 H 3999.75 1.44424 2.59863 0
M  V30 42497 H 3997.28 0.851646 1.28788 0
M  V30 42498 H 3999.24 -0.575824 4.06441 0
M  V30 42499 H 3997.9 -1.00217 2.97683 0
M  V30 42500 H 3997.1 0.192794 5.03631 0
M  V30 42501 H 3996.7 1.11689 3.56933 0
M  V30 42502 H 3998.99 0.812813 6.72607 0
M  V30 42503 H 3999.93 2.33645 6.68443 0
M  V30 42504 H 4000.34 1.01208 5.55353 0
M  V30 42505 N 3999.74 -1.34578 0.820149 0
M  V30 42506 C 4000.97 -2.02303 0.419191 0
M  V30 42507 C 4001.38 -1.61919 -0.978713 0
M  V30 42508 O 4000.72 -0.819012 -1.64432 0
M  V30 42509 C 4000.78 -3.56814 0.438639 0
M  V30 42510 C 4000.45 -4.20511 1.7894 0
M  V30 42511 C 4001.44 -4.41227 2.74981 0
M  V30 42512 C 3999.13 -4.57341 2.07712 0
M  V30 42513 C 4001.12 -4.97894 3.9797 0
M  V30 42514 C 3998.81 -5.1372 3.30961 0
M  V30 42515 C 3999.81 -5.3394 4.25908 0
M  V30 42516 O 3999.49 -5.89125 5.46979 0
M  V30 42517 H 3999.23 -0.655099 0.166799 0
M  V30 42518 H 4001.78 -1.72891 1.10895 0
M  V30 42519 H 4000.01 -3.85473 -0.307803 0
M  V30 42520 H 4001.7 -4.05858 0.0581162 0
M  V30 42521 H 4002.47 -4.1314 2.54048 0
M  V30 42522 H 3998.34 -4.40909 1.34612 0
M  V30 42523 H 4001.89 -5.13592 4.7209 0
M  V30 42524 H 3997.79 -5.41235 3.51759 0
M  V30 42525 H 3998.55 -6.07562 5.48462 0
M  V30 42526 N 4001.22 -0.574861 -1.46742 0
M  V30 42527 C 4002.46 -0.0658386 -2.03293 0
M  V30 42528 C 4002.82 1.27677 -1.43931 0
M  V30 42529 O 4002.11 1.82222 -0.592098 0
M  V30 42530 C 4002.3 0.0665631 -3.57338 0
M  V30 42531 C 4002.13 -1.26167 -4.31639 0
M  V30 42532 C 4000.9 -1.83372 -4.70853 0
M  V30 42533 C 4003.1 -2.18304 -4.65669 0
M  V30 42534 N 4001.08 -3.10016 -5.29871 0
M  V30 42535 C 4002.45 -3.29532 -5.25175 0
M  V30 42536 C 4004.51 -2.18081 -4.47599 0
M  V30 42537 C 4003.21 -4.4066 -5.68517 0
M  V30 42538 C 4005.24 -3.28233 -4.91952 0
M  V30 42539 C 4004.6 -4.38181 -5.51522 0
M  V30 42540 H 4000.7 -0.0666819 -0.779152 0
M  V30 42541 H 4003.28 -0.766035 -1.78997 0
M  V30 42542 H 4001.45 0.735913 -3.81365 0
M  V30 42543 H 4003.19 0.579255 -4.00533 0
M  V30 42544 H 3999.94 -1.36958 -4.53365 0
M  V30 42545 H 4000.37 -3.74615 -5.63909 0
M  V30 42546 H 4005.01 -1.34352 -4.00886 0
M  V30 42547 H 4002.73 -5.25136 -6.14213 0
M  V30 42548 H 4006.31 -3.29169 -4.79728 0
M  V30 42549 H 4005.19 -5.22009 -5.85215 0
M  V30 42550 N 4002.69 1.54476 -0.312224 0
M  V30 42551 C 4003.94 2.00655 0.294172 0
M  V30 42552 C 4004.27 1.2002 1.52672 0
M  V30 42553 O 4003.55 0.279551 1.92481 0
M  V30 42554 C 4003.83 3.54374 0.639615 0
M  V30 42555 C 4003.68 4.45742 -0.602851 0
M  V30 42556 C 4005 4.15116 1.46174 0
M  V30 42557 H 4002.12 0.729417 0.105447 0
M  V30 42558 H 4004.76 1.8515 -0.426552 0
M  V30 42559 H 4002.91 3.67717 1.25365 0
M  V30 42560 H 4004.59 4.44287 -1.24124 0
M  V30 42561 H 4002.83 4.1588 -1.23394 0
M  V30 42562 H 4003.5 5.5109 -0.316845 0
M  V30 42563 H 4005.98 4.05278 0.942816 0
M  V30 42564 H 4004.85 5.22808 1.67221 0
M  V30 42565 H 4005.11 3.6771 2.45441 0
M  V30 42566 N 4004.17 0.0401637 1.57549 0
M  V30 42567 C 4005.4 -0.649482 1.96968 0
M  V30 42568 C 4005.82 -1.64229 0.917085 0
M  V30 42569 O 4005.18 -1.80897 -0.120867 0
M  V30 42570 C 4005.23 -1.3225 3.35473 0
M  V30 42571 O 4004.33 -2.438 3.32619 0
M  V30 42572 H 4003.67 -0.169747 0.641936 0
M  V30 42573 H 4006.2 0.105297 2.04329 0
M  V30 42574 H 4006.21 -1.67674 3.71954 0
M  V30 42575 H 4004.89 -0.594822 4.11624 0
M  V30 42576 H 4003.47 -2.10405 3.0787 0
M  V30 42577 N 4005.65 -1.55866 -0.233109 0
M  V30 42578 C 4006.6 -1.92307 -1.30847 0
M  V30 42579 C 4007.59 -0.80372 -1.4912 0
M  V30 42580 O 4008.8 -0.98846 -1.50431 0
M  V30 42581 H 4005.17 -0.610961 -0.43844 0
M  V30 42582 H 4007.14 -2.82061 -0.973876 0
M  V30 42583 C 4005.89 -2.24616 -2.65411 0
M  V30 42584 H 4005.22 -3.10255 -2.52154 0
M  V30 42585 H 4006.66 -2.54006 -3.39495 0
M  V30 42586 C 4005.12 -1.06726 -3.19549 0
M  V30 42587 O 4005.65 -0.322379 -4.00404 0
M  V30 42588 N 4003.85 -0.854172 -2.77763 0
M  V30 42589 H 4003.4 -1.46161 -2.12119 0
M  V30 42590 H 4003.36 -0.0670878 -3.14328 0
M  V30 42591 N 4007.13 0.499346 -1.4948 0
M  V30 42592 C 4008.09 1.58299 -1.65753 0
M  V30 42593 C 4009.09 1.5184 -0.529263 0
M  V30 42594 O 4010.28 1.54963 -0.795748 0
M  V30 42595 C 4007.41 2.97951 -1.65644 0
M  V30 42596 H 4008.61 1.45199 -2.62407 0
M  V30 42597 H 4006.16 0.723701 -1.38536 0
M  V30 42598 H 4006.9 3.16526 -0.705808 0
M  V30 42599 H 4006.68 3.04047 -2.47584 0
M  V30 42600 H 4008.17 3.76679 -1.80285 0
M  V30 42601 N 4008.61 1.38582 0.750513 0
M  V30 42602 C 4009.83 1.38379 1.54487 0
M  V30 42603 C 4010.26 -0.023601 1.88085 0
M  V30 42604 O 4009.62 -1.00649 1.50796 0
M  V30 42605 C 4009.66 2.24902 2.81871 0
M  V30 42606 O 4008.77 1.66824 3.77152 0
M  V30 42607 H 4008.11 0.471886 0.46714 0
M  V30 42608 H 4010.64 1.82383 0.927232 0
M  V30 42609 H 4010.65 2.38869 3.30765 0
M  V30 42610 H 4009.32 3.2719 2.56747 0
M  V30 42611 H 4007.9 1.62015 3.35865 0
M  V30 42612 N 4010.09 -0.979029 1.23502 0
M  V30 42613 C 4011.33 -1.71711 1.06583 0
M  V30 42614 C 4011.65 -1.90897 -0.397893 0
M  V30 42615 O 4010.92 -1.4786 -1.28508 0
M  V30 42616 H 4009.5 -0.636246 0.391408 0
M  V30 42617 H 4012.17 -1.1784 1.55241 0
M  V30 42618 H 4011.26 -2.70612 1.55485 0
M  V30 42619 N 4011.56 -1.04695 -1.178 0
M  V30 42620 C 4012.51 -0.637359 -2.23697 0
M  V30 42621 C 4013.51 0.338927 -1.65975 0
M  V30 42622 O 4014.71 0.205533 -1.78823 0
M  V30 42623 H 4011.09 -0.187916 -0.728142 0
M  V30 42624 H 4013.06 -1.54074 -2.55546 0
M  V30 42625 C 4011.81 -0.0228273 -3.47693 0
M  V30 42626 H 4011.13 -0.765127 -3.9241 0
M  V30 42627 H 4012.57 0.226455 -4.23395 0
M  V30 42628 C 4011.03 1.22906 -3.13681 0
M  V30 42629 O 4011.56 2.31907 -3.27997 0
M  V30 42630 N 4009.76 1.12478 -2.6795 0
M  V30 42631 H 4009.31 0.237773 -2.565 0
M  V30 42632 H 4009.27 1.96329 -2.45565 0
M  V30 42633 N 4013.04 1.34141 -0.827275 0
M  V30 42634 C 4014.29 1.9741 -0.413797 0
M  V30 42635 C 4014.6 1.66305 1.02967 0
M  V30 42636 O 4015.81 2.23096 1.54727 0
M  V30 42637 C 4014.27 3.53244 -0.688966 0
M  V30 42638 C 4013.87 3.93238 -2.14634 0
M  V30 42639 C 4015.62 4.23121 -0.341868 0
M  V30 42640 C 4013.52 5.42002 -2.36617 0
M  V30 42641 H 4012.45 0.738726 -0.150995 0
M  V30 42642 H 4015.11 1.52923 -1.01424 0
M  V30 42643 H 4013.49 3.95996 -0.0183015 0
M  V30 42644 H 4014.66 3.61579 -2.85652 0
M  V30 42645 H 4012.98 3.3631 -2.45529 0
M  V30 42646 H 4015.57 5.32506 -0.483891 0
M  V30 42647 H 4015.92 4.1013 0.714063 0
M  V30 42648 H 4016.45 3.85861 -0.967288 0
M  V30 42649 H 4013.19 5.59984 -3.40732 0
M  V30 42650 H 4012.71 5.75161 -1.70147 0
M  V30 42651 H 4014.39 6.0874 -2.19192 0
M  V30 42652 N 4014.52 0.582635 1.46435 0
M  V30 42653 C 4015.77 0.068286 2.02685 0
M  V30 42654 C 4016.1 -1.28828 1.45317 0
M  V30 42655 O 4015.37 -1.84413 0.618243 0
M  V30 42656 C 4015.66 0.00244126 3.601 0
M  V30 42657 C 4015.51 1.3879 4.27852 0
M  V30 42658 C 4016.83 -0.698214 4.34526 0
M  V30 42659 H 4013.95 0.0262891 0.736531 0
M  V30 42660 H 4016.59 0.749819 1.74579 0
M  V30 42661 H 4014.74 -0.577963 3.84177 0
M  V30 42662 H 4016.41 2.01346 4.15039 0
M  V30 42663 H 4014.65 1.95563 3.87217 0
M  V30 42664 H 4015.33 1.2943 5.36611 0
M  V30 42665 H 4017.8 -0.205146 4.15594 0
M  V30 42666 H 4016.68 -0.713315 5.44245 0
M  V30 42667 H 4016.94 -1.7595 4.05578 0
M  V30 42668 N 4016 -1.54309 0.320412 0
M  V30 42669 C 4017.22 -2.05392 -0.287904 0
M  V30 42670 C 4017.65 -1.19519 -1.45247 0
M  V30 42671 O 4017.01 -0.203588 -1.80153 0
M  V30 42672 C 4017.05 -3.53677 -0.703199 0
M  V30 42673 O 4016.16 -3.70757 -1.80592 0
M  V30 42674 H 4015.5 -0.661915 -0.0525773 0
M  V30 42675 H 4018.03 -1.99178 0.467905 0
M  V30 42676 H 4018.04 -3.95889 -0.986723 0
M  V30 42677 H 4016.71 -4.15634 0.148587 0
M  V30 42678 H 4015.29 -3.4045 -1.52144 0
M  V30 42679 N 4017.48 -0.0485183 -1.57525 0
M  V30 42680 C 4018.7 0.639027 -1.9731 0
M  V30 42681 C 4019.13 1.6374 -0.925782 0
M  V30 42682 O 4018.48 1.80958 0.111272 0
M  V30 42683 C 4018.53 1.30469 -3.3617 0
M  V30 42684 O 4017.64 2.42032 -3.33907 0
M  V30 42685 H 4016.98 0.16634 -0.642827 0
M  V30 42686 H 4019.51 -0.116131 -2.0427 0
M  V30 42687 H 4019.52 1.65699 -3.72838 0
M  V30 42688 H 4018.19 0.572985 -4.11934 0
M  V30 42689 H 4016.77 2.0877 -3.08982 0
M  V30 42690 N 4018.95 1.55988 0.224839 0
M  V30 42691 C 4020.2 1.79113 0.951123 0
M  V30 42692 C 4020.53 0.6176 1.84118 0
M  V30 42693 O 4019.81 -0.383279 1.90686 0
M  V30 42694 C 4020.09 3.12295 1.79287 0
M  V30 42695 C 4019.94 4.40091 0.929526 0
M  V30 42696 C 4021.26 3.4189 2.77126 0
M  V30 42697 H 4018.38 0.651609 0.344347 0
M  V30 42698 H 4021.02 1.8872 0.220195 0
M  V30 42699 H 4019.17 3.04236 2.41604 0
M  V30 42700 H 4020.85 4.60165 0.323351 0
M  V30 42701 H 4019.09 4.33164 0.234801 0
M  V30 42702 H 4019.76 5.29709 1.5528 0
M  V30 42703 H 4022.24 3.50056 2.24945 0
M  V30 42704 H 4021.11 4.36254 3.33127 0
M  V30 42705 H 4021.37 2.63894 3.54701 0
M  V30 42706 N 4020.43 -0.491412 1.49743 0
M  V30 42707 C 4021.38 -1.61268 1.67617 0
M  V30 42708 C 4022.37 -1.60494 0.542032 0
M  V30 42709 O 4023.58 -1.64887 0.721951 0
M  V30 42710 H 4019.95 -0.534766 0.528705 0
M  V30 42711 H 4021.93 -1.43348 2.61714 0
M  V30 42712 C 4020.67 -2.99346 1.76883 0
M  V30 42713 H 4020 -3.00651 2.63532 0
M  V30 42714 H 4021.44 -3.77312 1.93421 0
M  V30 42715 C 4019.9 -3.32928 0.515778 0
M  V30 42716 O 4020.43 -4.00135 -0.354242 0
M  V30 42717 N 4018.63 -2.88159 0.375851 0
M  V30 42718 H 4018.18 -2.33642 1.08485 0
M  V30 42719 H 4018.14 -3.10995 -0.46144 0
M  V30 42720 N 4021.91 -1.38978 -0.743153 0
M  V30 42721 C 4022.84 -1.3143 -1.86551 0
M  V30 42722 C 4023.82 -0.189414 -1.61493 0
M  V30 42723 O 4025.01 -0.368496 -1.84863 0
M  V30 42724 C 4022.13 -1.0389 -3.22373 0
M  V30 42725 C 4021.18 -2.18458 -3.66304 0
M  V30 42726 S 4022.01 -3.80679 -3.76622 0
M  V30 42727 C 4023.17 -3.55347 -5.15247 0
M  V30 42728 H 4023.4 -2.26419 -1.9267 0
M  V30 42729 H 4020.93 -1.24937 -0.907193 0
M  V30 42730 H 4022.89 -0.88684 -4.00806 0
M  V30 42731 H 4021.55 -0.106007 -3.13921 0
M  V30 42732 H 4020.75 -1.9476 -4.64849 0
M  V30 42733 H 4020.35 -2.29824 -2.95054 0
M  V30 42734 H 4022.64 -3.12108 -6.01328 0
M  V30 42735 H 4023.58 -4.53324 -5.43969 0
M  V30 42736 H 4023.99 -2.89627 -4.84537 0
M  V30 42737 N 4023.39 0.972465 -1.2402 0
M  V30 42738 C 4024.64 1.70911 -1.07108 0
M  V30 42739 C 4024.95 1.91655 0.390874 0
M  V30 42740 O 4026.16 2.62844 0.680084 0
M  V30 42741 C 4024.61 3.07609 -1.86829 0
M  V30 42742 C 4024.22 2.94725 -3.37404 0
M  V30 42743 C 4025.96 3.85179 -1.78431 0
M  V30 42744 C 4023.87 4.26702 -4.09486 0
M  V30 42745 H 4022.8 0.6409 -0.397195 0
M  V30 42746 H 4025.45 1.08402 -1.48058 0
M  V30 42747 H 4023.83 3.70919 -1.38689 0
M  V30 42748 H 4025.01 2.40455 -3.93088 0
M  V30 42749 H 4023.32 2.30624 -3.46701 0
M  V30 42750 H 4025.92 4.82899 -2.29592 0
M  V30 42751 H 4026.26 4.09513 -0.748627 0
M  V30 42752 H 4026.8 3.28585 -2.24225 0
M  V30 42753 H 4023.54 4.07562 -5.13394 0
M  V30 42754 H 4023.06 4.80806 -3.58588 0
M  V30 42755 H 4024.73 4.95348 -4.16221 0
M  V30 42756 N 4024.87 1.05318 1.17243 0
M  V30 42757 C 4026.09 0.78442 1.91994 0
M  V30 42758 C 4026.52 -0.654049 1.76363 0
M  V30 42759 O 4025.87 -1.45456 1.08223 0
M  V30 42760 C 4025.92 1.17146 3.41041 0
M  V30 42761 O 4025.03 0.304357 4.11275 0
M  V30 42762 H 4024.37 0.287542 0.598511 0
M  V30 42763 H 4026.9 1.40637 1.48602 0
M  V30 42764 H 4026.91 1.13877 3.91786 0
M  V30 42765 H 4025.58 2.2193 3.51738 0
M  V30 42766 H 4024.16 0.397755 3.70773 0
M  V30 42767 N 4026.34 -1.33701 0.834377 0
M  V30 42768 C 4027.76 -1.50836 0.521587 0
M  V30 42769 C 4027.96 -1.77593 -0.951998 0
M  V30 42770 O 4027.02 -1.83356 -1.736 0
M  V30 42771 C 4028.33 -2.66591 1.39104 0
M  V30 42772 C 4029.88 -2.80475 1.38935 0
M  V30 42773 C 4030.35 -3.99286 2.24354 0
M  V30 42774 N 4031.84 -4.06513 2.22039 0
M  V30 42775 C 4032.58 -4.97629 2.84874 0
M  V30 42776 N 4032.07 -5.93891 3.56743 0
M  V30 42777 N 4033.87 -4.9059 2.74368 0
M  V30 42778 H 4026.02 -1.14595 1.78835 0
M  V30 42779 H 4028.28 -0.562997 0.762718 0
M  V30 42780 H 4027.99 -2.53485 2.438 0
M  V30 42781 H 4027.86 -3.61886 1.06387 0
M  V30 42782 H 4030.25 -2.93016 0.350121 0
M  V30 42783 H 4030.33 -1.85954 1.75655 0
M  V30 42784 H 4029.97 -3.87505 3.28333 0
M  V30 42785 H 4029.9 -4.93042 1.84978 0
M  V30 42786 H 4032.39 -3.37618 1.69771 0
M  V30 42787 H 4032.71 -6.6007 4.01905 0
M  V30 42788 H 4031.05 -5.9398 3.6085 0
M  V30 42789 H 4034.24 -4.14351 2.17787 0
M  V30 42790 H 4034.42 -5.61403 3.23622 0
M  V30 42791 N 4027.82 -0.590393 -1.46124 0
M  V30 42792 C 4028.76 0.186957 -2.27433 0
M  V30 42793 C 4029.73 0.889752 -1.36096 0
M  V30 42794 O 4030.92 0.902094 -1.65513 0
M  V30 42795 C 4028.04 1.26894 -3.14031 0
M  V30 42796 C 4027.09 0.671149 -4.21186 0
M  V30 42797 S 4027.92 -0.50786 -5.33086 0
M  V30 42798 C 4029.08 0.575133 -6.23252 0
M  V30 42799 H 4029.31 -0.502924 -2.93015 0
M  V30 42800 H 4026.85 -0.377474 -1.49715 0
M  V30 42801 H 4028.8 1.88839 -3.64486 0
M  V30 42802 H 4027.46 1.93081 -2.47747 0
M  V30 42803 H 4026.66 1.4847 -4.81636 0
M  V30 42804 H 4026.26 0.127206 -3.73784 0
M  V30 42805 H 4028.55 1.45879 -6.61608 0
M  V30 42806 H 4029.49 0.00721407 -7.081 0
M  V30 42807 H 4029.9 0.882733 -5.57555 0
M  V30 42808 N 4029.3 1.54136 -0.328591 0
M  V30 42809 C 4030.23 2.27459 0.527694 0
M  V30 42810 C 4031.21 1.28446 1.11516 0
M  V30 42811 O 4032.4 1.57266 1.13935 0
M  V30 42812 C 4029.53 3.03618 1.68622 0
M  V30 42813 C 4028.48 4.1001 1.22782 0
M  V30 42814 C 4027.81 4.74038 2.4737 0
M  V30 42815 C 4029.11 5.21198 0.33906 0
M  V30 42816 H 4030.8 2.99282 -0.0839334 0
M  V30 42817 H 4028.35 1.43939 -0.0418082 0
M  V30 42818 H 4030.3 3.53644 2.29159 0
M  V30 42819 H 4029.02 2.2942 2.32452 0
M  V30 42820 H 4027.68 3.60875 0.645364 0
M  V30 42821 H 4027.33 3.96451 3.09574 0
M  V30 42822 H 4027.03 5.45909 2.17387 0
M  V30 42823 H 4028.55 5.26842 3.08659 0
M  V30 42824 H 4029.97 5.66951 0.850847 0
M  V30 42825 H 4028.37 5.99955 0.131786 0
M  V30 42826 H 4029.44 4.80806 -0.628776 0
M  V30 42827 N 4030.78 0.0568716 1.57497 0
M  V30 42828 C 4032.03 -0.615123 1.92091 0
M  V30 42829 C 4032.34 -1.71665 0.937568 0
M  V30 42830 O 4033.55 -2.4472 1.17577 0
M  V30 42831 C 4032 -1.14546 3.41185 0
M  V30 42832 C 4031.61 -0.0757359 4.47936 0
M  V30 42833 C 4033.35 -1.79237 3.84804 0
M  V30 42834 C 4031.26 -0.619278 5.88149 0
M  V30 42835 H 4030.19 -0.233534 0.716922 0
M  V30 42836 H 4032.84 0.126686 1.83062 0
M  V30 42837 H 4031.22 -1.93977 3.45238 0
M  V30 42838 H 4032.4 0.69815 4.55481 0
M  V30 42839 H 4030.71 0.474057 4.13693 0
M  V30 42840 H 4033.31 -2.20909 4.86932 0
M  V30 42841 H 4033.65 -2.64639 3.21359 0
M  V30 42842 H 4034.19 -1.06453 3.83292 0
M  V30 42843 H 4030.93 0.197235 6.55203 0
M  V30 42844 H 4030.45 -1.36102 5.84154 0
M  V30 42845 H 4032.12 -1.10039 6.37574 0
M  V30 42846 N 4032.26 -1.56105 -0.216564 0
M  V30 42847 C 4033.2 -1.93684 -1.288 0
M  V30 42848 C 4034.2 -0.819491 -1.48259 0
M  V30 42849 O 4035.4 -1.00436 -1.49374 0
M  V30 42850 H 4031.78 -0.615577 -0.431936 0
M  V30 42851 H 4033.75 -2.83078 -0.943905 0
M  V30 42852 C 4032.5 -2.27419 -2.63013 0
M  V30 42853 H 4031.82 -3.12912 -2.48849 0
M  V30 42854 H 4033.26 -2.57592 -3.36782 0
M  V30 42855 C 4031.72 -1.10109 -3.18399 0
M  V30 42856 O 4032.25 -0.364829 -4.0004 0
M  V30 42857 N 4030.46 -0.883584 -2.76841 0
M  V30 42858 H 4030 -1.48403 -2.10557 0
M  V30 42859 H 4029.96 -0.100423 -3.1424 0
M  V30 42860 N 4033.73 0.483463 -1.50001 0
M  V30 42861 C 4035.15 0.816167 -1.37153 0
M  V30 42862 C 4035.35 1.97115 -0.418081 0
M  V30 42863 O 4034.41 2.5209 0.14384 0
M  V30 42864 C 4035.72 1.13987 -2.78258 0
M  V30 42865 C 4037.27 1.24705 -2.87085 0
M  V30 42866 C 4037.74 1.60395 -4.28996 0
M  V30 42867 N 4039.23 1.67411 -4.31889 0
M  V30 42868 C 4039.97 1.96506 -5.38677 0
M  V30 42869 N 4039.46 2.23706 -6.55689 0
M  V30 42870 N 4041.26 1.97905 -5.26108 0
M  V30 42871 H 4033.41 -0.277884 -2.10574 0
M  V30 42872 H 4035.67 -0.061772 -0.945985 0
M  V30 42873 H 4035.38 0.364387 -3.49807 0
M  V30 42874 H 4035.25 2.0791 -3.14727 0
M  V30 42875 H 4037.64 2.01323 -2.15762 0
M  V30 42876 H 4037.72 0.287914 -2.54175 0
M  V30 42877 H 4037.36 0.843222 -5.00851 0
M  V30 42878 H 4037.29 2.57439 -4.59383 0
M  V30 42879 H 4039.78 1.48481 -3.47508 0
M  V30 42880 H 4040.1 2.45145 -7.32887 0
M  V30 42881 H 4038.44 2.21125 -6.58885 0
M  V30 42882 H 4041.63 1.76143 -4.33695 0
M  V30 42883 H 4041.81 2.20245 -6.09423 0
M  V30 42884 N 4035.21 1.39371 0.735772 0
M  V30 42885 C 4036.46 1.36552 1.49532 0
M  V30 42886 C 4036.79 -0.0387823 1.94461 0
M  V30 42887 O 4036.04 -1.01946 1.67049 0
M  V30 42888 C 4036.34 2.28341 2.74946 0
M  V30 42889 C 4036.01 3.75986 2.48888 0
M  V30 42890 C 4034.67 4.16216 2.41491 0
M  V30 42891 C 4037.02 4.69373 2.26581 0
M  V30 42892 C 4034.35 5.47896 2.09826 0
M  V30 42893 C 4036.7 6.01329 1.96433 0
M  V30 42894 C 4035.37 6.40623 1.87504 0
M  V30 42895 H 4034.64 0.49968 0.547176 0
M  V30 42896 H 4037.28 1.71871 0.844557 0
M  V30 42897 H 4035.59 1.86138 3.44761 0
M  V30 42898 H 4037.28 2.23454 3.32971 0
M  V30 42899 H 4033.87 3.44101 2.55524 0
M  V30 42900 H 4038.06 4.39125 2.31264 0
M  V30 42901 H 4033.31 5.77264 2.01435 0
M  V30 42902 H 4037.49 6.7322 1.78181 0
M  V30 42903 H 4035.12 7.42578 1.62734 0
M  V30 42904 N 4036.69 -0.965875 1.24534 0
M  V30 42905 C 4037.92 -1.74399 1.11321 0
M  V30 42906 C 4038.33 -1.85821 -0.334078 0
M  V30 42907 O 4037.69 -1.34785 -1.23042 0
M  V30 42908 C 4037.74 -3.16355 1.74933 0
M  V30 42909 O 4037.46 -3.05505 3.14004 0
M  V30 42910 C 4038.96 -4.10497 1.67354 0
M  V30 42911 H 4036.18 -0.546846 0.388845 0
M  V30 42912 H 4038.73 -1.21252 1.64676 0
M  V30 42913 H 4036.88 -3.66482 1.25577 0
M  V30 42914 H 4037.3 -3.94973 3.45104 0
M  V30 42915 H 4038.77 -5.07753 2.16542 0
M  V30 42916 H 4039.25 -4.34584 0.635113 0
M  V30 42917 H 4039.85 -3.6628 2.16146 0
M  V30 42918 N 4038.17 -1.05938 -1.16683 0
M  V30 42919 C 4039.1 -0.611258 -2.19861 0
M  V30 42920 C 4040.08 0.364083 -1.58471 0
M  V30 42921 O 4041.26 0.273913 -1.86499 0
M  V30 42922 C 4038.39 0.104398 -3.38539 0
M  V30 42923 C 4037.44 -0.827133 -4.18403 0
M  V30 42924 S 4038.27 -2.32042 -4.82614 0
M  V30 42925 C 4039.43 -1.61615 -6.04675 0
M  V30 42926 H 4039.66 -1.4854 -2.57533 0
M  V30 42927 H 4037.19 -0.872027 -1.27417 0
M  V30 42928 H 4039.15 0.51109 -4.07306 0
M  V30 42929 H 4037.81 0.954683 -2.9924 0
M  V30 42930 H 4037 -0.272892 -5.03261 0
M  V30 42931 H 4036.61 -1.17354 -3.55111 0
M  V30 42932 H 4038.9 -0.919716 -6.71228 0
M  V30 42933 H 4039.84 -2.4425 -6.64641 0
M  V30 42934 H 4040.25 -1.1003 -5.53673 0
M  V30 42935 N 4039.65 1.33256 -0.841456 0
M  V30 42936 C 4041.06 1.50558 -0.529579 0
M  V30 42937 C 4041.26 1.78095 0.942567 0
M  V30 42938 O 4040.32 1.84274 1.72625 0
M  V30 42939 C 4041.63 2.65849 -1.40515 0
M  V30 42940 C 4043.18 2.79734 -1.4042 0
M  V30 42941 C 4043.66 3.9809 -2.26469 0
M  V30 42942 N 4045.15 4.0533 -2.24192 0
M  V30 42943 C 4045.88 4.96111 -2.87509 0
M  V30 42944 N 4045.38 5.91991 -3.59887 0
M  V30 42945 N 4047.17 4.89128 -2.76965 0
M  V30 42946 H 4039.32 1.13645 -1.7944 0
M  V30 42947 H 4041.58 0.558944 -0.765693 0
M  V30 42948 H 4041.29 2.52188 -2.45141 0
M  V30 42949 H 4041.16 3.61317 -1.08305 0
M  V30 42950 H 4043.55 2.92826 -0.365655 0
M  V30 42951 H 4043.63 1.8502 -1.76639 0
M  V30 42952 H 4043.28 3.85758 -3.30383 0
M  V30 42953 H 4043.21 4.92055 -1.8759 0
M  V30 42954 H 4045.7 3.36713 -1.71559 0
M  V30 42955 H 4046.01 6.57929 -4.054 0
M  V30 42956 H 4044.36 5.92058 -3.63995 0
M  V30 42957 H 4047.55 4.1319 -2.19981 0
M  V30 42958 H 4047.72 5.59679 -3.26594 0
M  V30 42959 N 4041.13 0.598134 1.45809 0
M  V30 42960 C 4042.08 -0.147448 2.27523 0
M  V30 42961 C 4043.06 -0.847463 1.36773 0
M  V30 42962 O 4044.25 -0.739012 1.60834 0
M  V30 42963 C 4041.38 -1.15041 3.23451 0
M  V30 42964 C 4040.47 -0.451722 4.21687 0
M  V30 42965 N 4040.86 0.501356 5.03309 0
M  V30 42966 C 4039.16 -0.700499 4.40465 0
M  V30 42967 C 4039.86 0.911156 5.7452 0
M  V30 42968 N 4038.83 0.256943 5.42992 0
M  V30 42969 H 4042.63 0.584709 2.88025 0
M  V30 42970 H 4040.15 0.421083 1.56846 0
M  V30 42971 H 4042.15 -1.69887 3.80715 0
M  V30 42972 H 4040.81 -1.88323 2.64508 0
M  V30 42973 H 4041.82 0.877647 5.10409 0
M  V30 42974 H 4038.49 -1.41871 3.92656 0
M  V30 42975 H 4039.88 1.69669 6.50125 0
M  V30 42976 N 4042.6 -1.5396 0.33676 0
M  V30 42977 C 4043.55 -2.24793 -0.523159 0
M  V30 42978 C 4044.52 -1.24363 -1.10104 0
M  V30 42979 O 4045.71 -1.53079 -1.13893 0
M  V30 42980 C 4042.85 -3.01913 -1.67161 0
M  V30 42981 C 4041.96 -4.17184 -1.12169 0
M  V30 42982 C 4041.09 -4.81806 -2.23689 0
M  V30 42983 C 4040.13 -5.89157 -1.66013 0
M  V30 42984 N 4039.27 -6.47587 -2.71249 0
M  V30 42985 H 4044.11 -2.97872 0.087423 0
M  V30 42986 H 4041.65 -1.46997 0.0549156 0
M  V30 42987 H 4043.6 -3.4488 -2.34762 0
M  V30 42988 H 4042.23 -2.31143 -2.25328 0
M  V30 42989 H 4041.29 -3.78906 -0.336818 0
M  V30 42990 H 4042.6 -4.94417 -0.659765 0
M  V30 42991 H 4041.75 -5.27809 -2.99169 0
M  V30 42992 H 4040.49 -4.03981 -2.73222 0
M  V30 42993 H 4039.5 -5.42543 -0.890362 0
M  V30 42994 H 4040.72 -6.68886 -1.1734 0
M  V30 42995 H 4038.67 -5.7263 -3.20049 0
M  V30 42996 H 4038.58 -7.20273 -2.29659 0
M  V30 42997 H 4039.85 -6.98245 -3.46518 0
M  V30 42998 N 4044.08 -0.0652232 -1.57465 0
M  V30 42999 C 4045.03 0.904308 -2.12346 0
M  V30 43000 C 4046 1.29966 -1.03431 0
M  V30 43001 O 4047.18 1.38667 -1.31058 0
M  V30 43002 C 4044.32 2.1689 -2.68426 0
M  V30 43003 C 4043.44 1.82677 -3.91476 0
M  V30 43004 C 4042.57 3.03699 -4.35822 0
M  V30 43005 C 4041.61 2.65472 -5.51535 0
M  V30 43006 N 4040.75 3.79232 -5.9087 0
M  V30 43007 H 4045.59 0.429416 -2.9489 0
M  V30 43008 H 4043.12 0.200318 -1.4573 0
M  V30 43009 H 4045.08 2.90907 -2.99046 0
M  V30 43010 H 4043.71 2.61931 -1.88658 0
M  V30 43011 H 4042.76 0.9875 -3.67359 0
M  V30 43012 H 4044.08 1.50549 -4.75538 0
M  V30 43013 H 4043.23 3.86001 -4.68068 0
M  V30 43014 H 4041.97 3.39016 -3.50599 0
M  V30 43015 H 4040.97 1.81589 -5.18946 0
M  V30 43016 H 4042.2 2.31332 -6.38484 0
M  V30 43017 H 4040.15 4.14323 -5.08598 0
M  V30 43018 H 4040.06 3.50849 -6.69657 0
M  V30 43019 H 4041.33 4.62133 -6.27737 0
M  V30 43020 N 4045.56 1.56218 0.208282 0
M  V30 43021 C 4046.52 1.92648 1.24175 0
M  V30 43022 C 4047.52 0.806298 1.39124 0
M  V30 43023 O 4048.71 1.07389 1.37162 0
M  V30 43024 C 4045.84 2.18896 2.61338 0
M  V30 43025 H 4047.04 2.85093 0.930698 0
M  V30 43026 H 4044.59 1.49704 0.449259 0
M  V30 43027 H 4045.33 1.29046 2.97519 0
M  V30 43028 H 4045.11 3.00513 2.51861 0
M  V30 43029 H 4046.6 2.48131 3.35888 0
M  V30 43030 N 4047.04 -0.475502 1.50256 0
M  V30 43031 C 4048.27 -1.25129 1.64774 0
M  V30 43032 C 4048.68 -1.85906 0.329285 0
M  V30 43033 O 4048.04 -1.69024 -0.688259 0
M  V30 43034 C 4048.09 -2.3632 2.7356 0
M  V30 43035 O 4047.81 -1.78036 4.00294 0
M  V30 43036 C 4049.31 -3.27272 2.99012 0
M  V30 43037 H 4046.53 -0.378593 0.553993 0
M  V30 43038 H 4049.07 -0.568075 1.96451 0
M  V30 43039 H 4047.23 -3.00425 2.44589 0
M  V30 43040 H 4047.64 -2.51224 4.6042 0
M  V30 43041 H 4049.12 -4.01511 3.78804 0
M  V30 43042 H 4049.59 -3.8579 2.09911 0
M  V30 43043 H 4050.2 -2.68908 3.29498 0
M  V30 43044 N 4048.52 -1.39759 -0.72837 0
M  V30 43045 C 4049.75 -1.40427 -1.51538 0
M  V30 43046 C 4050.15 0.00120627 -1.892 0
M  V30 43047 O 4049.5 0.984548 -1.55088 0
M  V30 43048 C 4049.56 -2.21935 -2.82816 0
M  V30 43049 C 4049.22 -3.70494 -2.6755 0
M  V30 43050 C 4050.22 -4.63424 -2.35657 0
M  V30 43051 C 4047.9 -4.14159 -2.84214 0
M  V30 43052 C 4049.9 -5.98002 -2.20618 0
M  V30 43053 C 4047.59 -5.48811 -2.68794 0
M  V30 43054 C 4048.58 -6.40547 -2.37042 0
M  V30 43055 O 4048.27 -7.72718 -2.21725 0
M  V30 43056 H 4048 -0.481322 -0.474664 0
M  V30 43057 H 4050.56 -1.84283 -0.907144 0
M  V30 43058 H 4048.79 -1.72839 -3.45924 0
M  V30 43059 H 4050.48 -2.14701 -3.44468 0
M  V30 43060 H 4051.24 -4.30988 -2.22427 0
M  V30 43061 H 4047.12 -3.43084 -3.07919 0
M  V30 43062 H 4050.67 -6.69571 -1.95756 0
M  V30 43063 H 4046.56 -5.80835 -2.81603 0
M  V30 43064 H 4047.33 -7.83514 -2.36744 0
M  V30 43065 N 4049.99 0.959257 -1.25044 0
M  V30 43066 C 4050.9 2.08904 -1.06753 0
M  V30 43067 C 4051.92 1.73999 -0.00594864 0
M  V30 43068 O 4053.1 2.00345 -0.205911 0
M  V30 43069 C 4050.16 3.39898 -0.683413 0
M  V30 43070 C 4049.22 3.88699 -1.82241 0
M  V30 43071 C 4048.45 5.1344 -1.45653 0
M  V30 43072 O 4048.68 5.69324 -0.350112 0
M  V30 43073 O 4047.61 5.56836 -2.28512 0
M  V30 43074 H 4051.44 2.27235 -2.01489 0
M  V30 43075 H 4049.02 1.07316 -1.0394 0
M  V30 43076 H 4050.9 4.18645 -0.481109 0
M  V30 43077 H 4049.58 3.22848 0.234739 0
M  V30 43078 H 4048.49 3.10976 -2.07954 0
M  V30 43079 H 4049.82 4.10239 -2.71964 0
M  V30 43080 N 4051.47 1.06556 1.16119 0
M  V30 43081 C 4052.88 0.807833 1.68318 0
M  V30 43082 C 4053.23 -0.668202 1.84471 0
M  V30 43083 O 4052.36 -1.51808 1.54218 0
M  V30 43084 C 4052.95 1.45984 3.05735 0
M  V30 43085 C 4051.51 1.24983 3.55044 0
M  V30 43086 C 4050.66 1.53466 2.30962 0
M  V30 43087 H 4053.61 1.22868 1.00445 0
M  V30 43088 H 4053.63 0.876622 3.70264 0
M  V30 43089 H 4053.14 2.53411 2.93947 0
M  V30 43090 H 4051.25 0.195432 3.72087 0
M  V30 43091 H 4051.36 1.9644 4.36976 0
M  V30 43092 H 4049.72 0.95531 2.36106 0
M  V30 43093 H 4050.51 2.62056 2.21769 0
M  V30 43094 N 4052.95 -1.32808 0.848511 0
M  V30 43095 C 4054.23 -1.9206 0.370429 0
M  V30 43096 C 4054.61 -1.77329 -1.14532 0
M  V30 43097 O 4053.96 -1.1676 -1.96417 0
M  V30 43098 C 4054.17 -3.39036 0.827994 0
M  V30 43099 C 4055.51 -4.16176 0.8416 0
M  V30 43100 O 4056.54 -3.47728 0.772228 0
M  V30 43101 O 4055.4 -5.38386 0.938213 0
M  V30 43102 H 4052.49 -0.820072 0.106823 0
M  V30 43103 H 4055.04 -1.41618 0.935004 0
M  V30 43104 H 4053.81 -3.43673 1.87095 0
M  V30 43105 H 4053.43 -3.96872 0.240526 0
M  V30 43106 N 4054.43 -0.605858 -1.45489 0
M  V30 43107 C 4055.67 -0.100523 -2.02551 0
M  V30 43108 C 4056.01 1.265 -1.47348 0
M  V30 43109 O 4055.28 1.83406 -0.647503 0
M  V30 43110 C 4055.57 -0.0597297 -3.6005 0
M  V30 43111 C 4055.42 -1.45579 -4.2559 0
M  V30 43112 C 4056.74 0.628996 -4.35582 0
M  V30 43113 H 4053.86 -0.0380033 -0.73602 0
M  V30 43114 H 4056.5 -0.777498 -1.73364 0
M  V30 43115 H 4054.65 0.51677 -3.85048 0
M  V30 43116 H 4056.32 -2.07924 -4.11783 0
M  V30 43117 H 4054.56 -2.01699 -3.84057 0
M  V30 43118 H 4055.23 -1.37951 -5.34484 0
M  V30 43119 H 4057.71 0.139003 -4.15868 0
M  V30 43120 H 4056.59 0.62664 -5.45311 0
M  V30 43121 H 4056.85 1.69476 -4.08326 0
M  V30 43122 N 4055.91 1.53779 -0.34492 0
M  V30 43123 C 4057.18 1.93183 0.30652 0
M  V30 43124 C 4057.56 1.27661 1.68125 0
M  V30 43125 O 4056.91 0.428042 2.24455 0
M  V30 43126 C 4057.12 3.46953 0.377423 0
M  V30 43127 C 4058.47 4.19936 0.627611 0
M  V30 43128 O 4059.49 3.53224 0.459482 0
M  V30 43129 O 4058.35 5.38119 0.953416 0
M  V30 43130 H 4055.45 0.807363 0.179149 0
M  V30 43131 H 4057.99 1.6501 -0.396197 0
M  V30 43132 H 4056.76 3.86868 -0.587243 0
M  V30 43133 H 4056.39 3.81297 1.12687 0
M  V30 43134 N 4057.38 0.0735731 1.57428 0
M  V30 43135 C 4058.31 -0.890546 2.15851 0
M  V30 43136 C 4059.3 -1.30918 1.08602 0
M  V30 43137 O 4060.48 -1.37992 1.36645 0
M  V30 43138 C 4057.61 -2.1575 2.72157 0
M  V30 43139 C 4056.56 -1.87821 3.84587 0
M  V30 43140 C 4055.89 -3.21161 4.27504 0
M  V30 43141 C 4057.19 -1.18208 5.08748 0
M  V30 43142 H 4058.88 -0.403852 2.96664 0
M  V30 43143 H 4056.43 -0.192811 1.42703 0
M  V30 43144 H 4058.38 -2.83615 3.11673 0
M  V30 43145 H 4057.11 -2.66665 1.88567 0
M  V30 43146 H 4055.77 -1.2236 3.45577 0
M  V30 43147 H 4055.41 -3.69921 3.40834 0
M  V30 43148 H 4055.11 -3.03264 5.03294 0
M  V30 43149 H 4056.64 -3.90221 4.69638 0
M  V30 43150 H 4058.05 -1.76145 5.45569 0
M  V30 43151 H 4056.45 -1.10563 5.89827 0
M  V30 43152 H 4057.52 -0.16144 4.84631 0
M  V30 43153 N 4058.86 -1.56326 -0.199995 0
M  V30 43154 C 4060.11 -1.7998 -0.919323 0
M  V30 43155 C 4060.43 -0.645799 -1.83996 0
M  V30 43156 O 4059.7 0.336152 -1.92994 0
M  V30 43157 H 4058.28 -0.663876 -0.342457 0
M  V30 43158 H 4060.94 -1.93801 -0.206679 0
M  V30 43159 H 4060.04 -2.72954 -1.51336 0
M  V30 43160 N 4060.34 0.467527 -1.50506 0
M  V30 43161 C 4061.57 1.2472 -1.6571 0
M  V30 43162 C 4061.99 1.84972 -0.341582 0
M  V30 43163 O 4061.35 1.67451 0.694963 0
M  V30 43164 C 4061.4 2.32908 -2.75293 0
M  V30 43165 O 4060.5 3.37642 -2.36794 0
M  V30 43166 H 4059.84 0.366764 -0.553516 0
M  V30 43167 H 4062.37 0.555953 -1.96902 0
M  V30 43168 H 4062.38 2.78164 -2.98477 0
M  V30 43169 H 4061.06 1.88425 -3.70768 0
M  V30 43170 H 4059.63 2.98072 -2.2407 0
M  V30 43171 N 4061.82 1.40143 0.720948 0
M  V30 43172 C 4063.07 1.37858 1.47783 0
M  V30 43173 C 4063.39 -0.0201515 1.9499 0
M  V30 43174 O 4062.66 -0.973956 1.69973 0
M  V30 43175 H 4061.24 0.507359 0.548266 0
M  V30 43176 H 4063.9 1.75145 0.85499 0
M  V30 43177 H 4063 2.0501 2.35323 0
M  V30 43178 N 4063.3 -0.952612 1.25551 0
M  V30 43179 C 4064.52 -1.73209 1.13165 0
M  V30 43180 C 4064.94 -1.86165 -0.31435 0
M  V30 43181 O 4064.3 -1.36082 -1.21605 0
M  V30 43182 C 4064.35 -3.14482 1.78278 0
M  V30 43183 O 4064.07 -3.02157 3.17226 0
M  V30 43184 C 4065.57 -4.08699 1.71699 0
M  V30 43185 H 4062.79 -0.542691 0.394623 0
M  V30 43186 H 4065.33 -1.19499 1.65953 0
M  V30 43187 H 4063.49 -3.6513 1.29457 0
M  V30 43188 H 4063.9 -3.91291 3.49273 0
M  V30 43189 H 4065.38 -5.05428 2.21915 0
M  V30 43190 H 4065.85 -4.33886 0.68117 0
M  V30 43191 H 4066.46 -3.63967 2.20018 0
M  V30 43192 N 4064.77 -1.0717 -1.15553 0
M  V30 43193 C 4066.19 -0.796866 -1.38283 0
M  V30 43194 C 4066.39 0.599748 -1.92368 0
M  V30 43195 O 4065.45 1.35879 -2.12822 0
M  V30 43196 C 4066.76 -1.86914 -2.3555 0
M  V30 43197 C 4068.31 -1.89368 -2.49216 0
M  V30 43198 C 4068.78 -2.95674 -3.49772 0
M  V30 43199 N 4070.27 -2.94765 -3.57306 0
M  V30 43200 C 4071.01 -3.73665 -4.34928 0
M  V30 43201 N 4070.5 -4.62409 -5.15897 0
M  V30 43202 N 4072.3 -3.62019 -4.29998 0
M  V30 43203 H 4064.45 -1.97247 -0.787871 0
M  V30 43204 H 4066.71 -0.855259 -0.408945 0
M  V30 43205 H 4066.42 -2.87256 -2.02921 0
M  V30 43206 H 4066.29 -1.72769 -3.35307 0
M  V30 43207 H 4068.68 -0.896794 -2.81143 0
M  V30 43208 H 4068.76 -2.07591 -1.49464 0
M  V30 43209 H 4068.4 -3.95561 -3.18581 0
M  V30 43210 H 4068.33 -2.74698 -4.49275 0
M  V30 43211 H 4070.82 -2.30434 -2.99514 0
M  V30 43212 H 4071.14 -5.19248 -5.72364 0
M  V30 43213 H 4069.48 -4.66459 -5.15209 0
M  V30 43214 H 4072.67 -2.92068 -3.65806 0
M  V30 43215 H 4072.85 -4.23752 -4.90243 0
M  V30 43216 N 4066.25 1.32356 -0.855542 0
M  V30 43217 C 4067.2 2.3079 -0.289612 0
M  V30 43218 C 4068.2 1.58886 0.587492 0
M  V30 43219 O 4069.4 1.73614 0.475197 0
M  V30 43220 H 4065.78 0.748256 -0.074951 0
M  V30 43221 H 4067.75 2.76012 -1.13403 0
M  V30 43222 C 4066.5 3.43992 0.506409 0
M  V30 43223 H 4065.82 3.99483 -0.159217 0
M  V30 43224 H 4067.26 4.15021 0.867962 0
M  V30 43225 C 4065.72 2.91331 1.69198 0
M  V30 43226 O 4066.25 2.88897 2.79108 0
M  V30 43227 N 4064.45 2.47719 1.51934 0
M  V30 43228 H 4064 2.49897 0.625238 0
M  V30 43229 H 4063.96 2.12838 2.31403 0
M  V30 43230 N 4067.73 0.613565 1.45166 0
M  V30 43231 C 4068.98 0.108646 2.01407 0
M  V30 43232 C 4069.29 -1.27069 1.48704 0
M  V30 43233 O 4070.5 -1.86867 1.9696 0
M  V30 43234 C 4068.96 0.14353 3.59614 0
M  V30 43235 C 4068.56 1.52309 4.21315 0
M  V30 43236 C 4070.31 -0.305837 4.23397 0
M  V30 43237 C 4068.21 1.51404 5.71691 0
M  V30 43238 H 4067.14 0.0368491 0.753099 0
M  V30 43239 H 4069.8 0.769777 1.66573 0
M  V30 43240 H 4068.18 -0.58437 3.91665 0
M  V30 43241 H 4069.35 2.27317 4.00829 0
M  V30 43242 H 4067.67 1.91505 3.69749 0
M  V30 43243 H 4070.26 -0.331883 5.33669 0
M  V30 43244 H 4070.61 -1.32971 3.94493 0
M  V30 43245 H 4071.14 0.368989 3.96085 0
M  V30 43246 H 4067.88 2.51571 6.05304 0
M  V30 43247 H 4067.4 0.806625 5.94351 0
M  V30 43248 H 4069.08 1.24028 6.35001 0
M  V30 43249 N 4069.21 -1.53594 0.353071 0
M  V30 43250 C 4070.46 -2.00669 -0.240037 0
M  V30 43251 C 4070.78 -1.24237 -1.50301 0
M  V30 43252 O 4070.05 -0.352152 -1.92709 0
M  V30 43253 H 4068.63 -0.741352 -0.0916885 0
M  V30 43254 H 4071.29 -1.88987 0.476423 0
M  V30 43255 H 4070.39 -3.08452 -0.475815 0
M  V30 43256 N 4070.69 -0.0819208 -1.57387 0
M  V30 43257 C 4071.94 0.584485 -1.93046 0
M  V30 43258 C 4072.25 1.70152 -0.96476 0
M  V30 43259 O 4073.46 2.42818 -1.21455 0
M  V30 43260 C 4071.91 1.09104 -3.42964 0
M  V30 43261 C 4071.52 0.00446358 -4.48 0
M  V30 43262 C 4073.26 1.73093 -3.87607 0
M  V30 43263 C 4071.17 0.52563 -5.89059 0
M  V30 43264 H 4070.1 0.222099 -0.720547 0
M  V30 43265 H 4072.75 -0.155794 -1.82837 0
M  V30 43266 H 4071.13 1.8846 -3.4828 0
M  V30 43267 H 4072.31 -0.770524 -4.54312 0
M  V30 43268 H 4070.62 -0.539812 -4.12886 0
M  V30 43269 H 4073.22 2.13135 -4.90385 0
M  V30 43270 H 4073.56 2.59493 -3.25529 0
M  V30 43271 H 4074.1 1.00342 -3.84937 0
M  V30 43272 H 4070.83 -0.301448 -6.54806 0
M  V30 43273 H 4070.35 1.26791 -5.86246 0
M  V30 43274 H 4072.03 0.998816 -6.39244 0
M  V30 43275 N 4072.17 1.5643 0.191702 0
M  V30 43276 C 4073.08 1.98022 1.25795 0
M  V30 43277 C 4074.09 0.888405 1.49611 0
M  V30 43278 O 4075.27 1.19443 1.62159 0
M  V30 43279 C 4072.33 2.31425 2.58154 0
M  V30 43280 C 4071.39 3.54331 2.4238 0
M  V30 43281 C 4070.63 3.86131 3.68427 0
M  V30 43282 O 4070.85 3.19174 4.72741 0
M  V30 43283 O 4069.78 4.79549 3.63754 0
M  V30 43284 H 4073.61 2.8895 0.934962 0
M  V30 43285 H 4071.19 1.4403 0.39697 0
M  V30 43286 H 4073.08 2.5397 3.3627 0
M  V30 43287 H 4071.75 1.43664 2.90073 0
M  V30 43288 H 4070.66 3.3703 1.62363 0
M  V30 43289 H 4071.99 4.42569 2.15392 0
M  V30 43290 N 4073.64 -0.459538 1.50751 0
M  V30 43291 C 4074.87 -1.23839 1.66369 0
M  V30 43292 C 4075.29 -1.84789 0.351387 0
M  V30 43293 O 4074.65 -1.67818 -0.686073 0
M  V30 43294 C 4074.7 -2.31444 2.76525 0
M  V30 43295 O 4073.8 -3.36382 2.38582 0
M  V30 43296 H 4073.14 -0.363823 0.555454 0
M  V30 43297 H 4075.67 -0.545503 1.97194 0
M  V30 43298 H 4075.68 -2.76578 2.99948 0
M  V30 43299 H 4074.36 -1.86456 3.71762 0
M  V30 43300 H 4072.94 -2.96879 2.25648 0
M  V30 43301 N 4075.12 -1.40523 -0.713506 0
M  V30 43302 C 4076.03 -1.43275 -1.85767 0
M  V30 43303 C 4077.05 -0.325143 -1.70935 0
M  V30 43304 O 4078.22 -0.570056 -1.93164 0
M  V30 43305 C 4075.29 -1.29553 -3.21585 0
M  V30 43306 C 4074.35 -2.50475 -3.48656 0
M  V30 43307 C 4073.58 -2.37398 -4.77993 0
M  V30 43308 O 4073.81 -1.3889 -5.53232 0
M  V30 43309 O 4072.74 -3.26813 -5.05447 0
M  V30 43310 H 4076.57 -2.39767 -1.86402 0
M  V30 43311 H 4074.15 -1.21868 -0.864204 0
M  V30 43312 H 4076.03 -1.24117 -4.02707 0
M  V30 43313 H 4074.71 -0.361687 -3.21673 0
M  V30 43314 H 4073.61 -2.61488 -2.67535 0
M  V30 43315 H 4074.95 -3.42627 -3.53366 0
M  V30 43316 N 4076.6 0.94594 -1.26054 0
M  V30 43317 C 4077.83 1.72606 -1.14082 0
M  V30 43318 C 4078.24 1.86329 0.304473 0
M  V30 43319 O 4077.6 1.36725 1.20882 0
M  V30 43320 C 4077.65 3.13532 -1.79944 0
M  V30 43321 O 4077.37 3.00471 -3.18824 0
M  V30 43322 C 4078.87 4.07782 -1.73864 0
M  V30 43323 H 4076.09 0.540591 -0.397495 0
M  V30 43324 H 4078.64 1.18617 -1.66584 0
M  V30 43325 H 4076.79 3.64438 -1.31391 0
M  V30 43326 H 4077.21 3.89433 -3.51344 0
M  V30 43327 H 4078.68 5.04244 -2.24592 0
M  V30 43328 H 4079.16 4.33518 -0.704171 0
M  V30 43329 H 4079.76 3.62795 -2.21945 0
M  V30 43330 N 4078.08 1.07781 1.14983 0
M  V30 43331 C 4079.49 0.82564 1.67452 0
M  V30 43332 C 4079.84 -0.648599 1.85169 0
M  V30 43333 O 4078.96 -1.50164 1.55819 0
M  V30 43334 C 4079.56 1.49219 3.0417 0
M  V30 43335 C 4078.12 1.28742 3.53698 0
M  V30 43336 C 4077.27 1.55907 2.29322 0
M  V30 43337 H 4080.22 1.23926 0.991359 0
M  V30 43338 H 4080.24 0.915844 3.69314 0
M  V30 43339 H 4079.75 2.56514 2.91242 0
M  V30 43340 H 4077.85 0.234886 3.71859 0
M  V30 43341 H 4077.96 2.01064 4.34868 0
M  V30 43342 H 4076.33 0.980298 2.35079 0
M  V30 43343 H 4077.11 2.64394 2.18977 0
M  V30 43344 N 4079.56 -1.31901 0.862549 0
M  V30 43345 C 4080.5 -2.30633 0.301847 0
M  V30 43346 C 4081.5 -1.59196 -0.579058 0
M  V30 43347 O 4082.7 -1.73864 -0.465983 0
M  V30 43348 H 4079.08 -0.747848 0.0789182 0
M  V30 43349 H 4081.05 -2.75406 1.14865 0
M  V30 43350 C 4079.8 -3.44256 -0.488159 0
M  V30 43351 H 4079.12 -3.99393 0.1804 0
M  V30 43352 H 4080.56 -4.15475 -0.84594 0
M  V30 43353 C 4079.02 -2.92224 -1.67651 0
M  V30 43354 O 4079.55 -2.90373 -2.77572 0
M  V30 43355 N 4077.76 -2.48521 -1.50618 0
M  V30 43356 H 4077.3 -2.50225 -0.611977 0
M  V30 43357 H 4077.26 -2.14062 -2.30271 0
M  V30 43358 N 4081.03 -0.621255 -1.44838 0
M  V30 43359 C 4081.96 0.0765876 -2.33374 0
M  V30 43360 C 4082.95 0.844906 -1.47632 0
M  V30 43361 O 4084.13 0.812749 -1.76375 0
M  V30 43362 C 4081.26 1.06544 -3.30554 0
M  V30 43363 C 4080.21 0.409421 -4.26037 0
M  V30 43364 C 4079.54 1.50748 -5.1301 0
M  V30 43365 C 4080.84 -0.678085 -5.1788 0
M  V30 43366 H 4082.53 -0.662709 -2.91973 0
M  V30 43367 H 4080.08 -0.320142 -1.40396 0
M  V30 43368 H 4082.03 1.5623 -3.9137 0
M  V30 43369 H 4080.76 1.8355 -2.70142 0
M  V30 43370 H 4079.42 -0.0666965 -3.66539 0
M  V30 43371 H 4079.06 2.26817 -4.48958 0
M  V30 43372 H 4078.76 1.07397 -5.77702 0
M  V30 43373 H 4080.29 2.00634 -5.76696 0
M  V30 43374 H 4081.7 -0.264738 -5.72688 0
M  V30 43375 H 4080.1 -1.03415 -5.91122 0
M  V30 43376 H 4081.17 -1.54922 -4.59486 0
M  V30 43377 N 4082.51 1.53405 -0.361211 0
M  V30 43378 C 4083.79 1.93498 0.286013 0
M  V30 43379 C 4084.17 1.29437 1.66761 0
M  V30 43380 O 4083.52 0.451825 2.23988 0
M  V30 43381 C 4083.73 3.47334 0.340602 0
M  V30 43382 C 4085.08 4.20578 0.583036 0
M  V30 43383 O 4086.1 3.53691 0.421992 0
M  V30 43384 O 4084.96 5.391 0.896288 0
M  V30 43385 H 4082.05 0.809218 0.170576 0
M  V30 43386 H 4084.6 1.64581 -0.413677 0
M  V30 43387 H 4083.37 3.86224 -0.628243 0
M  V30 43388 H 4082.99 3.82471 1.08636 0
M  V30 43389 N 4083.99 0.0902663 1.57341 0
M  V30 43390 C 4085.24 -0.574239 1.93353 0
M  V30 43391 C 4085.55 -1.69638 0.97377 0
M  V30 43392 O 4086.76 -2.42171 1.22742 0
M  V30 43393 C 4085.21 -1.07283 3.43538 0
M  V30 43394 C 4084.82 0.019295 4.47996 0
M  V30 43395 C 4086.57 -1.71035 3.88519 0
M  V30 43396 C 4084.47 -0.494383 5.8933 0
M  V30 43397 H 4083.4 -0.218275 0.721715 0
M  V30 43398 H 4086.05 0.165488 1.82752 0
M  V30 43399 H 4084.44 -1.8661 3.49275 0
M  V30 43400 H 4085.61 0.794607 4.53897 0
M  V30 43401 H 4083.93 0.5617 4.12594 0
M  V30 43402 H 4086.52 -2.10531 4.91509 0
M  V30 43403 H 4086.87 -2.57763 3.269 0
M  V30 43404 H 4087.4 -0.98299 3.85464 0
M  V30 43405 H 4084.14 0.336169 6.54637 0
M  V30 43406 H 4083.66 -1.23681 5.8691 0
M  V30 43407 H 4085.34 -0.964901 6.39765 0
M  V30 43408 N 4085.47 -1.56529 -0.183403 0
M  V30 43409 C 4086.72 -1.80497 -0.900206 0
M  V30 43410 C 4087.03 -0.665486 -1.83931 0
M  V30 43411 O 4088.24 -0.789773 -2.59759 0
M  V30 43412 C 4086.69 -3.19787 -1.6512 0
M  V30 43413 C 4086.3 -4.41569 -0.756333 0
M  V30 43414 C 4088.04 -3.53056 -2.35694 0
M  V30 43415 C 4085.95 -5.71881 -1.50686 0
M  V30 43416 H 4084.88 -0.673048 -0.339887 0
M  V30 43417 H 4087.53 -1.82859 -0.153295 0
M  V30 43418 H 4085.91 -3.11708 -2.44242 0
M  V30 43419 H 4087.09 -4.608 -0.0029341 0
M  V30 43420 H 4085.4 -4.16089 -0.160843 0
M  V30 43421 H 4088 -4.47656 -2.92418 0
M  V30 43422 H 4088.34 -2.77357 -3.10449 0
M  V30 43423 H 4088.88 -3.62634 -1.63527 0
M  V30 43424 H 4085.62 -6.50577 -0.80187 0
M  V30 43425 H 4085.14 -5.56648 -2.23389 0
M  V30 43426 H 4086.81 -6.13411 -2.05757 0
M  V30 43427 N 4086.95 0.451537 -1.50993 0
M  V30 43428 C 4088.19 1.19976 -1.62635 0
M  V30 43429 C 4088.52 1.92048 -0.338005 0
M  V30 43430 O 4087.79 1.84959 0.645509 0
M  V30 43431 H 4086.37 0.445854 -0.599353 0
M  V30 43432 H 4089.03 0.519071 -1.87861 0
M  V30 43433 H 4088.12 1.93707 -2.44712 0
M  V30 43434 N 4088.42 1.409 0.706044 0
M  V30 43435 C 4089.37 1.41921 1.82008 0
M  V30 43436 C 4090.34 0.274907 1.63809 0
M  V30 43437 O 4091.53 0.474398 1.84808 0
M  V30 43438 C 4088.67 1.29693 3.19803 0
M  V30 43439 C 4087.78 2.53907 3.49507 0
M  V30 43440 C 4086.91 2.34049 4.76859 0
M  V30 43441 C 4085.95 3.53792 4.99497 0
M  V30 43442 N 4085.09 3.3307 6.18069 0
M  V30 43443 H 4089.93 2.37138 1.8047 0
M  V30 43444 H 4087.47 1.17766 0.88145 0
M  V30 43445 H 4089.43 1.20607 3.99387 0
M  V30 43446 H 4088.06 0.380893 3.20545 0
M  V30 43447 H 4087.11 2.73484 2.64406 0
M  V30 43448 H 4088.42 3.43009 3.62141 0
M  V30 43449 H 4087.57 2.22371 5.64478 0
M  V30 43450 H 4086.31 1.42387 4.66452 0
M  V30 43451 H 4085.32 3.65937 4.1033 0
M  V30 43452 H 4086.54 4.46394 5.11771 0
M  V30 43453 H 4084.49 2.44099 6.08894 0
M  V30 43454 H 4084.41 4.15742 6.31423 0
M  V30 43455 H 4085.67 3.25144 7.0845 0
M  V30 43456 N 4089.9 -0.939242 1.26554 0
M  V30 43457 C 4091.32 -1.21312 1.03709 0
M  V30 43458 C 4091.52 -2.00107 -0.236561 0
M  V30 43459 O 4090.57 -2.34142 -0.945177 0
M  V30 43460 C 4091.89 -1.9725 2.26964 0
M  V30 43461 C 4093.44 -2.10234 2.31885 0
M  V30 43462 C 4093.91 -2.89575 3.54838 0
M  V30 43463 N 4095.4 -2.97148 3.55327 0
M  V30 43464 C 4096.14 -3.58973 4.47131 0
M  V30 43465 N 4095.63 -4.22282 5.49226 0
M  V30 43466 N 4097.43 -3.56264 4.34779 0
M  V30 43467 H 4089.58 -0.412535 2.08355 0
M  V30 43468 H 4091.84 -0.245057 0.915779 0
M  V30 43469 H 4091.55 -1.46763 3.19615 0
M  V30 43470 H 4091.42 -2.97909 2.31366 0
M  V30 43471 H 4093.81 -2.59913 1.39748 0
M  V30 43472 H 4093.89 -1.08832 2.31493 0
M  V30 43473 H 4093.53 -2.40583 4.47305 0
M  V30 43474 H 4093.46 -3.91238 3.52478 0
M  V30 43475 H 4095.95 -2.52142 2.81483 0
M  V30 43476 H 4096.27 -4.67361 6.15462 0
M  V30 43477 H 4094.61 -4.20863 5.53081 0
M  V30 43478 H 4097.8 -3.05998 3.54235 0
M  V30 43479 H 4097.97 -4.04158 5.06518 0
M  V30 43480 N 4091.38 -1.08389 -1.14409 0
M  V30 43481 C 4092.63 -0.808404 -1.84791 0
M  V30 43482 C 4092.94 0.668163 -1.83834 0
M  V30 43483 O 4094.15 1.05881 -2.50003 0
M  V30 43484 C 4092.6 -1.39616 -3.31716 0
M  V30 43485 C 4092.21 -2.9045 -3.4109 0
M  V30 43486 C 4093.96 -1.19915 -4.07211 0
M  V30 43487 C 4091.86 -3.42364 -4.82225 0
M  V30 43488 H 4090.79 -0.298742 -0.692293 0
M  V30 43489 H 4093.44 -1.30529 -1.28975 0
M  V30 43490 H 4091.83 -0.826992 -3.87268 0
M  V30 43491 H 4093 -3.53502 -2.95589 0
M  V30 43492 H 4091.32 -3.09063 -2.79051 0
M  V30 43493 H 4093.91 -1.56167 -5.11386 0
M  V30 43494 H 4094.26 -0.138955 -4.16068 0
M  V30 43495 H 4094.79 -1.73525 -3.57958 0
M  V30 43496 H 4091.53 -4.47957 -4.78555 0
M  V30 43497 H 4091.05 -2.84071 -5.28265 0
M  V30 43498 H 4092.73 -3.38942 -5.51114 0
M  V30 43499 N 4092.86 1.31442 -0.869532 0
M  V30 43500 C 4093.77 2.3229 -0.328393 0
M  V30 43501 C 4094.78 1.64692 0.561462 0
M  V30 43502 O 4095.96 1.96117 0.458281 0
M  V30 43503 C 4093.03 3.43612 0.461673 0
M  V30 43504 C 4092.09 4.2687 -0.45609 0
M  V30 43505 C 4091.32 5.32877 0.296365 0
M  V30 43506 O 4091.54 5.4965 1.52451 0
M  V30 43507 O 4090.48 6.00907 -0.345549 0
M  V30 43508 H 4094.3 2.80496 -1.16429 0
M  V30 43509 H 4091.89 1.35332 -0.632893 0
M  V30 43510 H 4093.77 4.11466 0.909578 0
M  V30 43511 H 4092.44 2.9757 1.27413 0
M  V30 43512 H 4091.35 3.61771 -0.952485 0
M  V30 43513 H 4092.68 4.76477 -1.23413 0
M  V30 43514 N 4094.34 0.628927 1.44507 0
M  V30 43515 C 4095.28 -0.0773092 2.3067 0
M  V30 43516 C 4096.25 -0.838978 1.43354 0
M  V30 43517 O 4097.44 -0.820457 1.72259 0
M  V30 43518 C 4094.58 -1.05441 3.28597 0
M  V30 43519 C 4093.69 -0.291389 4.31016 0
M  V30 43520 C 4092.83 -1.26011 5.16037 0
M  V30 43521 C 4091.87 -0.486122 6.10167 0
M  V30 43522 N 4091 -1.40519 6.87894 0
M  V30 43523 H 4095.84 0.663397 2.90522 0
M  V30 43524 H 4093.38 0.338931 1.43142 0
M  V30 43525 H 4095.34 -1.63426 3.83859 0
M  V30 43526 H 4093.97 -1.76227 2.70451 0
M  V30 43527 H 4093.02 0.404351 3.78245 0
M  V30 43528 H 4094.33 0.311535 4.97826 0
M  V30 43529 H 4093.49 -1.91137 5.75805 0
M  V30 43530 H 4092.22 -1.89696 4.49296 0
M  V30 43531 H 4091.23 0.17864 5.4951 0
M  V30 43532 H 4092.45 0.145979 6.78943 0
M  V30 43533 H 4090.4 -2.02929 6.23823 0
M  V30 43534 H 4090.32 -0.856237 7.51136 0
M  V30 43535 H 4091.59 -2.04536 7.52187 0
M  V30 43536 N 4095.82 -1.53211 0.369342 0
M  V30 43537 C 4097.06 -2.00493 -0.220312 0
M  V30 43538 C 4097.38 -1.26061 -1.49559 0
M  V30 43539 O 4098.58 -1.63951 -2.16408 0
M  V30 43540 C 4097.04 -3.57161 -0.443155 0
M  V30 43541 C 4096.65 -4.40474 0.817712 0
M  V30 43542 C 4098.39 -4.12788 -0.99026 0
M  V30 43543 C 4096.3 -5.88702 0.564246 0
M  V30 43544 H 4095.23 -0.749067 -0.0861041 0
M  V30 43545 H 4097.88 -1.76874 0.488663 0
M  V30 43546 H 4096.26 -3.76949 -1.21348 0
M  V30 43547 H 4097.44 -4.32458 1.59112 0
M  V30 43548 H 4095.75 -3.95969 1.28831 0
M  V30 43549 H 4098.35 -5.21169 -1.19527 0
M  V30 43550 H 4098.69 -3.67619 -1.95351 0
M  V30 43551 H 4099.22 -3.96813 -0.280003 0
M  V30 43552 H 4095.96 -6.38155 1.49793 0
M  V30 43553 H 4095.48 -5.99557 -0.170597 0
M  V30 43554 H 4097.16 -6.46717 0.191186 0
M  V30 43555 N 4097.29 -0.0986092 -1.57291 0
M  V30 43556 C 4098.24 0.859062 -2.14217 0
M  V30 43557 C 4099.21 1.27743 -1.06165 0
M  V30 43558 O 4100.4 1.35856 -1.33969 0
M  V30 43559 C 4097.54 2.11147 -2.72967 0
M  V30 43560 C 4096.65 1.74332 -3.95262 0
M  V30 43561 C 4095.78 2.94386 -4.42166 0
M  V30 43562 C 4094.82 2.53713 -5.57042 0
M  V30 43563 N 4093.96 3.66613 -5.98781 0
M  V30 43564 H 4098.8 0.366769 -2.95734 0
M  V30 43565 H 4096.34 0.169362 -1.46122 0
M  V30 43566 H 4098.29 2.84499 -3.0515 0
M  V30 43567 H 4096.92 2.5787 -1.94172 0
M  V30 43568 H 4095.98 0.909355 -3.69371 0
M  V30 43569 H 4097.29 1.40428 -4.78625 0
M  V30 43570 H 4096.44 3.75986 -4.76151 0
M  V30 43571 H 4095.18 3.31503 -3.57711 0
M  V30 43572 H 4094.19 1.70541 -5.22681 0
M  V30 43573 H 4095.41 2.17737 -6.43248 0
M  V30 43574 H 4093.36 4.03442 -5.17272 0
M  V30 43575 H 4093.27 3.36566 -6.76949 0
M  V30 43576 H 4094.54 4.48713 -6.37398 0
M  V30 43577 N 4098.77 1.56624 0.175099 0
M  V30 43578 C 4099.7 1.92675 1.24134 0
M  V30 43579 C 4100.72 0.819442 1.40673 0
M  V30 43580 O 4101.91 1.09788 1.40744 0
M  V30 43581 C 4099.01 2.16105 2.61059 0
M  V30 43582 C 4098.18 3.47323 2.65868 0
M  V30 43583 C 4097.24 3.59625 3.8413 0
M  V30 43584 O 4096.26 4.32277 3.70304 0
M  V30 43585 N 4097.47 2.94194 5.0043 0
M  V30 43586 H 4100.23 2.84736 0.935167 0
M  V30 43587 H 4097.79 1.57734 0.364891 0
M  V30 43588 H 4099.78 2.21603 3.38636 0
M  V30 43589 H 4098.35 1.30445 2.84082 0
M  V30 43590 H 4097.57 3.53515 1.74415 0
M  V30 43591 H 4098.86 4.33676 2.66088 0
M  V30 43592 H 4098.26 2.35033 5.14564 0
M  V30 43593 H 4096.82 3.05294 5.75881 0
M  V30 43594 N 4100.25 -0.443523 1.5123 0
M  V30 43595 C 4101.16 -1.56321 1.74931 0
M  V30 43596 C 4102.18 -1.62066 0.633296 0
M  V30 43597 O 4103.35 -1.79423 0.91484 0
M  V30 43598 C 4100.42 -2.9235 1.86366 0
M  V30 43599 C 4099.48 -2.96772 3.10201 0
M  V30 43600 C 4098.71 -4.26313 3.21081 0
M  V30 43601 O 4098.93 -5.18351 2.38052 0
M  V30 43602 O 4097.87 -4.36892 4.14015 0
M  V30 43603 H 4101.69 -1.39239 2.69901 0
M  V30 43604 H 4099.28 -0.625896 1.35657 0
M  V30 43605 H 4101.16 -3.73093 1.95908 0
M  V30 43606 H 4099.84 -3.09574 0.945829 0
M  V30 43607 H 4098.74 -2.15007 3.06142 0
M  V30 43608 H 4100.08 -2.84492 4.01653 0
M  V30 43609 N 4101.73 -1.41272 -0.698562 0
M  V30 43610 C 4102.68 -1.39354 -1.80457 0
M  V30 43611 C 4103.66 -0.268369 -1.58646 0
M  V30 43612 O 4104.85 -0.508807 -1.69529 0
M  V30 43613 C 4101.98 -1.2752 -3.18737 0
M  V30 43614 C 4101.07 -2.44887 -3.46253 0
M  V30 43615 N 4101.46 -3.70357 -3.44484 0
M  V30 43616 C 4099.76 -2.38636 -3.76788 0
M  V30 43617 C 4100.46 -4.48181 -3.70821 0
M  V30 43618 N 4099.43 -3.78253 -3.90417 0
M  V30 43619 H 4103.24 -2.34285 -1.77448 0
M  V30 43620 H 4100.75 -1.35285 -0.898424 0
M  V30 43621 H 4102.75 -1.24228 -3.97961 0
M  V30 43622 H 4101.41 -0.335709 -3.2296 0
M  V30 43623 H 4102.42 -4.03284 -3.24935 0
M  V30 43624 H 4099.1 -1.53142 -3.88399 0
M  V30 43625 H 4100.49 -5.57102 -3.75615 0
M  V30 43626 N 4103.21 0.932517 -1.27051 0
M  V30 43627 C 4104.12 2.06593 -1.1116 0
M  V30 43628 C 4105.13 1.73947 -0.0428551 0
M  V30 43629 O 4106.31 1.99863 -0.248361 0
M  V30 43630 C 4103.37 3.38371 -0.755356 0
M  V30 43631 C 4102.43 3.84745 -1.90445 0
M  V30 43632 C 4101.67 5.10235 -1.56511 0
M  V30 43633 O 4101.89 5.68454 -0.470796 0
M  V30 43634 O 4100.82 5.51863 -2.40272 0
M  V30 43635 H 4104.65 2.2291 -2.06264 0
M  V30 43636 H 4102.23 1.05087 -1.06193 0
M  V30 43637 H 4104.12 4.1753 -0.569802 0
M  V30 43638 H 4102.79 3.23273 0.166206 0
M  V30 43639 H 4101.7 3.06495 -2.14503 0
M  V30 43640 H 4103.03 4.04378 -2.80605 0
M  V30 43641 N 4104.68 1.08995 1.13833 0
M  V30 43642 C 4105.91 0.844956 1.8886 0
M  V30 43643 C 4106.33 -0.603413 1.78898 0
M  V30 43644 O 4105.68 -1.41506 1.15249 0
M  V30 43645 C 4105.73 1.26565 3.3862 0
M  V30 43646 O 4105.46 2.65721 3.48316 0
M  V30 43647 C 4106.96 1.05239 4.30627 0
M  V30 43648 H 4104.18 0.304298 0.598033 0
M  V30 43649 H 4106.72 1.45078 1.44127 0
M  V30 43650 H 4104.88 0.703804 3.80953 0
M  V30 43651 H 4105.29 2.83341 4.41382 0
M  V30 43652 H 4106.76 1.39607 5.34054 0
M  V30 43653 H 4107.24 -0.0101536 4.39199 0
M  V30 43654 H 4107.85 1.59997 3.94057 0
M  V30 43655 N 4106.16 -1.30979 0.87649 0
M  V30 43656 C 4107.39 -2.01169 0.50456 0
M  V30 43657 C 4107.81 -1.6532 -0.897266 0
M  V30 43658 O 4107.17 -0.865283 -1.59319 0
M  V30 43659 C 4107.22 -3.54196 0.676579 0
M  V30 43660 O 4106.32 -4.1144 -0.281267 0
M  V30 43661 H 4105.66 -0.633206 0.199866 0
M  V30 43662 H 4108.19 -1.67024 1.1817 0
M  V30 43663 H 4108.2 -4.03966 0.572344 0
M  V30 43664 H 4106.88 -3.79627 1.6987 0
M  V30 43665 H 4105.45 -3.72668 -0.131441 0
M  V30 43666 N 4107.64 -0.636582 -1.44171 0
M  V30 43667 C 4108.89 -0.152003 -2.02831 0
M  V30 43668 C 4109.24 1.21458 -1.49217 0
M  V30 43669 O 4108.53 1.79546 -0.668852 0
M  V30 43670 C 4108.73 -0.0850561 -3.57299 0
M  V30 43671 C 4108.56 -1.4436 -4.25899 0
M  V30 43672 C 4107.33 -2.03177 -4.62652 0
M  V30 43673 C 4109.52 -2.37858 -4.55991 0
M  V30 43674 N 4107.51 -3.3221 -5.16246 0
M  V30 43675 C 4108.88 -3.5151 -5.10726 0
M  V30 43676 C 4110.93 -2.36869 -4.37947 0
M  V30 43677 C 4109.64 -4.64376 -5.49316 0
M  V30 43678 C 4111.66 -3.48803 -4.77588 0
M  V30 43679 C 4111.02 -4.61179 -5.32441 0
M  V30 43680 H 4107.12 -0.0996684 -0.775622 0
M  V30 43681 H 4109.71 -0.841265 -1.75587 0
M  V30 43682 H 4107.88 0.573501 -3.84143 0
M  V30 43683 H 4109.61 0.408854 -4.02629 0
M  V30 43684 H 4106.36 -1.56063 -4.47148 0
M  V30 43685 H 4106.79 -3.98195 -5.47513 0
M  V30 43686 H 4111.43 -1.51234 -3.94827 0
M  V30 43687 H 4109.15 -5.50714 -5.91387 0
M  V30 43688 H 4112.73 -3.49219 -4.65335 0
M  V30 43689 H 4111.61 -5.4636 -5.62548 0
M  V30 43690 N 4109.12 1.53013 -0.377462 0
M  V30 43691 C 4110.07 2.22889 0.480066 0
M  V30 43692 C 4111.05 1.22841 1.03918 0
M  V30 43693 O 4112.24 1.48234 0.967251 0
M  V30 43694 C 4109.37 3.03043 1.61306 0
M  V30 43695 C 4108.46 4.10478 1.06625 0
M  V30 43696 N 4108.85 5.05214 0.243413 0
M  V30 43697 C 4107.15 4.25397 1.33992 0
M  V30 43698 C 4107.85 5.81672 -0.0573381 0
M  V30 43699 N 4106.82 5.40877 0.543467 0
M  V30 43700 H 4110.63 2.9349 -0.155275 0
M  V30 43701 H 4108.14 1.6133 -0.186118 0
M  V30 43702 H 4110.14 3.5163 2.23969 0
M  V30 43703 H 4108.8 2.33976 2.25134 0
M  V30 43704 H 4109.81 5.17765 -0.118367 0
M  V30 43705 H 4106.49 3.67557 1.98011 0
M  V30 43706 H 4107.88 6.67996 -0.723288 0
M  V30 43707 N 4110.6 0.106949 1.57237 0
M  V30 43708 C 4111.83 -0.561188 1.98832 0
M  V30 43709 C 4112.23 -1.61524 0.985228 0
M  V30 43710 O 4111.58 -1.83673 -0.0317605 0
M  V30 43711 C 4111.64 -1.25662 3.36822 0
M  V30 43712 C 4111.3 -0.351937 4.55643 0
M  V30 43713 C 4112.3 0.404662 5.18323 0
M  V30 43714 C 4109.99 -0.266528 5.01592 0
M  V30 43715 C 4111.98 1.23453 6.2533 0
M  V30 43716 C 4109.67 0.566978 6.08464 0
M  V30 43717 C 4110.66 1.31614 6.70199 0
M  V30 43718 O 4110.35 2.13583 7.75008 0
M  V30 43719 H 4110.08 -0.15417 0.658185 0
M  V30 43720 H 4112.64 0.186479 2.04552 0
M  V30 43721 H 4110.87 -2.0511 3.27821 0
M  V30 43722 H 4112.56 -1.82046 3.62786 0
M  V30 43723 H 4113.32 0.34848 4.83746 0
M  V30 43724 H 4109.2 -0.839321 4.53295 0
M  V30 43725 H 4112.75 1.81976 6.73447 0
M  V30 43726 H 4108.64 0.624598 6.42471 0
M  V30 43727 H 4109.41 2.06394 7.9205 0
M  V30 43728 N 4112.07 -1.56715 -0.166791 0
M  V30 43729 C 4113.35 -1.73131 -0.910225 0
M  V30 43730 C 4113.73 -0.66959 -2.00199 0
M  V30 43731 O 4113.08 0.314859 -2.2632 0
M  V30 43732 C 4113.29 -3.16493 -1.47082 0
M  V30 43733 C 4114.64 -3.77588 -1.94197 0
M  V30 43734 O 4115.66 -3.19799 -1.56866 0
M  V30 43735 O 4114.52 -4.79066 -2.62979 0
M  V30 43736 H 4111.61 -0.707177 -0.428753 0
M  V30 43737 H 4114.16 -1.68997 -0.154265 0
M  V30 43738 H 4112.93 -3.85253 -0.685254 0
M  V30 43739 H 4112.56 -3.24971 -2.29084 0
M  V30 43740 N 4113.55 0.435497 -1.51463 0
M  V30 43741 C 4114.48 1.54712 -1.69106 0
M  V30 43742 C 4115.5 1.52431 -0.571708 0
M  V30 43743 O 4116.69 1.57174 -0.846081 0
M  V30 43744 C 4113.79 2.93627 -1.69222 0
M  V30 43745 C 4112.96 3.20392 -2.97772 0
M  V30 43746 C 4112.02 4.39041 -2.90051 0
M  V30 43747 O 4111.04 4.37605 -3.63992 0
M  V30 43748 N 4112.25 5.42709 -2.06028 0
M  V30 43749 H 4115.01 1.39981 -2.65001 0
M  V30 43750 H 4112.57 0.624459 -1.49372 0
M  V30 43751 H 4114.56 3.71026 -1.61622 0
M  V30 43752 H 4113.13 3.01947 -0.809138 0
M  V30 43753 H 4112.35 2.31276 -3.19226 0
M  V30 43754 H 4113.64 3.35102 -3.82863 0
M  V30 43755 H 4113.04 5.46713 -1.45333 0
M  V30 43756 H 4111.6 6.18953 -2.04306 0
M  V30 43757 N 4115.03 1.41641 0.69106 0
M  V30 43758 C 4116.31 1.31729 1.44592 0
M  V30 43759 C 4116.69 -0.0530253 2.11033 0
M  V30 43760 O 4116.04 -1.06755 2.02029 0
M  V30 43761 C 4116.25 2.47392 2.46167 0
M  V30 43762 C 4117.59 2.88764 3.11288 0
M  V30 43763 O 4118.62 2.47164 2.56492 0
M  V30 43764 O 4117.48 3.60715 4.10545 0
M  V30 43765 H 4114.57 0.518647 0.644154 0
M  V30 43766 H 4117.12 1.53615 0.721157 0
M  V30 43767 H 4115.89 3.38813 1.95758 0
M  V30 43768 H 4115.51 2.27407 3.26147 0
M  V30 43769 N 4116.51 -0.925766 1.27543 0
M  V30 43770 C 4117.46 -2.01286 1.07088 0
M  V30 43771 C 4118.44 -1.609 -0.00171342 0
M  V30 43772 O 4119.63 -1.75664 0.217047 0
M  V30 43773 C 4116.76 -3.35619 0.722139 0
M  V30 43774 C 4115.85 -3.82443 1.83298 0
M  V30 43775 N 4116.24 -4.01759 3.07284 0
M  V30 43776 C 4114.54 -4.11496 1.72009 0
M  V30 43777 C 4115.24 -4.40784 3.79584 0
M  V30 43778 N 4114.22 -4.48365 3.07359 0
M  V30 43779 H 4118.02 -2.14253 2.01178 0
M  V30 43780 H 4115.53 -1.11274 1.18287 0
M  V30 43781 H 4117.53 -4.13166 0.556708 0
M  V30 43782 H 4116.19 -3.24013 -0.211117 0
M  V30 43783 H 4117.2 -3.88013 3.43025 0
M  V30 43784 H 4113.88 -4.08593 0.857801 0
M  V30 43785 H 4115.27 -4.63792 4.86155 0
M  V30 43786 N 4117.99 -1.09597 -1.13253 0
M  V30 43787 C 4119.4 -0.852176 -1.66117 0
M  V30 43788 C 4119.75 0.619058 -1.86178 0
M  V30 43789 O 4118.87 1.47666 -1.58189 0
M  V30 43790 C 4119.47 -1.54039 -3.01757 0
M  V30 43791 C 4118.03 -1.34353 -3.51605 0
M  V30 43792 C 4117.17 -1.59535 -2.26812 0
M  V30 43793 H 4120.13 -1.25488 -0.971517 0
M  V30 43794 H 4120.15 -0.974482 -3.6781 0
M  V30 43795 H 4119.66 -2.61115 -2.87125 0
M  V30 43796 H 4117.76 -0.294016 -3.71438 0
M  V30 43797 H 4117.87 -2.07957 -4.31614 0
M  V30 43798 H 4116.24 -1.01757 -2.3349 0
M  V30 43799 H 4117.02 -2.67844 -2.14743 0
M  V30 43800 N 4119.46 1.30512 -0.883424 0
M  V30 43801 C 4120.69 2.00072 -0.515235 0
M  V30 43802 C 4121.1 1.66404 0.900345 0
M  V30 43803 O 4120.45 0.896532 1.60337 0
M  V30 43804 C 4120.51 3.54315 -0.60838 0
M  V30 43805 C 4120.17 4.11495 -1.98799 0
M  V30 43806 C 4121.17 4.27605 -2.9572 0
M  V30 43807 C 4118.85 4.4691 -2.29296 0
M  V30 43808 C 4120.85 4.78339 -4.21272 0
M  V30 43809 C 4118.53 4.97344 -3.55094 0
M  V30 43810 C 4119.53 5.13011 -4.50897 0
M  V30 43811 O 4119.22 5.62357 -5.74464 0
M  V30 43812 H 4118.95 0.646394 -0.197864 0
M  V30 43813 H 4121.51 1.67403 -1.19018 0
M  V30 43814 H 4119.74 3.86503 0.123538 0
M  V30 43815 H 4121.43 4.05119 -0.25169 0
M  V30 43816 H 4122.19 4.00548 -2.7347 0
M  V30 43817 H 4118.07 4.33984 -1.55495 0
M  V30 43818 H 4121.61 4.90483 -4.96057 0
M  V30 43819 H 4117.51 5.23836 -3.77182 0
M  V30 43820 H 4118.28 5.80703 -5.76825 0
M  V30 43821 N 4120.94 0.644219 1.43832 0
M  V30 43822 C 4121.89 -0.0528392 2.3074 0
M  V30 43823 C 4122.86 -0.823726 1.44236 0
M  V30 43824 O 4124.04 -0.80214 1.73119 0
M  V30 43825 C 4121.18 -1.0195 3.29697 0
M  V30 43826 C 4120.3 -0.245658 4.31301 0
M  V30 43827 C 4119.43 -1.20531 5.17345 0
M  V30 43828 C 4118.47 -0.421378 6.10648 0
M  V30 43829 N 4117.61 -1.33215 6.89346 0
M  V30 43830 H 4122.45 0.694174 2.89802 0
M  V30 43831 H 4119.99 0.354094 1.42775 0
M  V30 43832 H 4121.94 -1.59346 3.85571 0
M  V30 43833 H 4120.57 -1.73349 2.72305 0
M  V30 43834 H 4119.63 0.444446 3.77795 0
M  V30 43835 H 4120.94 0.364318 4.97468 0
M  V30 43836 H 4120.09 -1.85019 5.778 0
M  V30 43837 H 4118.83 -1.8492 4.51283 0
M  V30 43838 H 4117.84 0.236913 5.49289 0
M  V30 43839 H 4119.06 0.217981 6.7875 0
M  V30 43840 H 4117.01 -1.96301 6.25941 0
M  V30 43841 H 4116.92 -0.776521 7.52001 0
M  V30 43842 H 4118.19 -1.96547 7.54314 0
M  V30 43843 N 4122.42 -1.52811 0.385571 0
M  V30 43844 C 4123.65 -2.05951 -0.197989 0
M  V30 43845 C 4124.06 -1.25758 -1.4082 0
M  V30 43846 O 4123.42 -0.303282 -1.79962 0
M  V30 43847 C 4123.47 -3.56949 -0.571794 0
M  V30 43848 O 4123.19 -4.34104 0.590337 0
M  V30 43849 C 4124.69 -4.26421 -1.21161 0
M  V30 43850 H 4121.91 -0.670295 -0.0307476 0
M  V30 43851 H 4124.46 -1.96973 0.549722 0
M  V30 43852 H 4122.61 -3.66012 -1.26941 0
M  V30 43853 H 4123.03 -5.23731 0.283932 0
M  V30 43854 H 4124.5 -5.33328 -1.42356 0
M  V30 43855 H 4124.98 -3.81399 -2.17787 0
M  V30 43856 H 4125.58 -4.21665 -0.554874 0
M  V30 43857 N 4123.9 -0.115287 -1.57178 0
M  V30 43858 C 4125.14 0.538185 -1.96151 0
M  V30 43859 C 4125.5 1.64525 -0.997458 0
M  V30 43860 O 4124.79 1.91581 -0.0268482 0
M  V30 43861 C 4124.99 1.12013 -3.39393 0
M  V30 43862 C 4124.82 0.0709744 -4.49644 0
M  V30 43863 C 4123.59 -0.359554 -5.04019 0
M  V30 43864 C 4125.78 -0.708588 -5.09395 0
M  V30 43865 N 4123.77 -1.39487 -5.97843 0
M  V30 43866 C 4125.14 -1.5952 -5.99127 0
M  V30 43867 C 4127.19 -0.759885 -4.92067 0
M  V30 43868 C 4125.89 -2.52863 -6.73389 0
M  V30 43869 C 4127.92 -1.68101 -5.67006 0
M  V30 43870 C 4127.28 -2.55521 -6.56421 0
M  V30 43871 H 4123.38 0.166672 -0.764032 0
M  V30 43872 H 4125.97 -0.202543 -1.93644 0
M  V30 43873 H 4124.14 1.83059 -3.42555 0
M  V30 43874 H 4125.87 1.73762 -3.65498 0
M  V30 43875 H 4122.62 0.0321253 -4.73589 0
M  V30 43876 H 4123.05 -1.91134 -6.49459 0
M  V30 43877 H 4127.69 -0.0981515 -4.22686 0
M  V30 43878 H 4125.41 -3.20052 -7.42019 0
M  V30 43879 H 4128.99 -1.7261 -5.55605 0
M  V30 43880 H 4127.87 -3.25638 -7.13393 0
M  V30 43881 N 4125.38 1.56801 0.158477 0
M  V30 43882 C 4126.34 1.96501 1.17983 0
M  V30 43883 C 4127.34 0.850151 1.36488 0
M  V30 43884 O 4128.53 1.11698 1.33676 0
M  V30 43885 C 4125.66 2.27099 2.54241 0
M  V30 43886 H 4126.86 2.8791 0.839527 0
M  V30 43887 H 4124.41 1.51058 0.401404 0
M  V30 43888 H 4125.14 1.38446 2.93263 0
M  V30 43889 H 4124.93 3.08374 2.42173 0
M  V30 43890 H 4126.42 2.58691 3.27824 0
M  V30 43891 N 4126.86 -0.427458 1.51692 0
M  V30 43892 C 4128.09 -1.1965 1.68426 0
M  V30 43893 C 4128.49 -1.85233 0.385382 0
M  V30 43894 O 4127.84 -1.71932 -0.646912 0
M  V30 43895 C 4127.9 -2.31506 2.75037 0
M  V30 43896 C 4127.56 -1.86209 4.17343 0
M  V30 43897 C 4128.56 -1.36001 5.01796 0
M  V30 43898 C 4126.24 -1.936 4.63491 0
M  V30 43899 C 4128.24 -0.937835 6.30463 0
M  V30 43900 C 4125.93 -1.50994 5.92152 0
M  V30 43901 C 4126.92 -1.01168 6.75466 0
M  V30 43902 O 4126.61 -0.591702 8.01719 0
M  V30 43903 H 4126.34 -0.36631 0.568149 0
M  V30 43904 H 4128.9 -0.511492 1.98929 0
M  V30 43905 H 4127.13 -3.03314 2.3987 0
M  V30 43906 H 4128.82 -2.93335 2.80551 0
M  V30 43907 H 4129.58 -1.29678 4.67342 0
M  V30 43908 H 4125.46 -2.31327 3.98759 0
M  V30 43909 H 4129.01 -0.54824 6.95442 0
M  V30 43910 H 4124.9 -1.5699 6.26119 0
M  V30 43911 H 4125.67 -0.716665 8.15356 0
M  V30 43912 N 4128.33 -1.42005 -0.683539 0
M  V30 43913 C 4129.28 -1.4126 -1.78968 0
M  V30 43914 C 4130.27 -0.28518 -1.58353 0
M  V30 43915 O 4131.46 -0.526759 -1.6898 0
M  V30 43916 C 4128.59 -1.30894 -3.17367 0
M  V30 43917 C 4127.67 -2.48546 -3.43636 0
M  V30 43918 N 4128.07 -3.7399 -3.40537 0
M  V30 43919 C 4126.36 -2.42618 -3.74236 0
M  V30 43920 C 4127.06 -4.52089 -3.66047 0
M  V30 43921 N 4126.04 -3.82373 -3.86383 0
M  V30 43922 H 4129.84 -2.36154 -1.74953 0
M  V30 43923 H 4127.36 -1.36231 -0.884025 0
M  V30 43924 H 4129.35 -1.28442 -3.96621 0
M  V30 43925 H 4128.01 -0.369944 -3.22586 0
M  V30 43926 H 4129.02 -4.06707 -3.20639 0
M  V30 43927 H 4125.7 -1.57253 -3.86753 0
M  V30 43928 H 4127.09 -5.61055 -3.69685 0
M  V30 43929 N 4129.81 0.918989 -1.28033 0
M  V30 43930 C 4131.06 1.6643 -1.14654 0
M  V30 43931 C 4131.38 1.92578 0.306361 0
M  V30 43932 O 4130.65 1.53823 1.21307 0
M  V30 43933 H 4129.23 0.616847 -0.421318 0
M  V30 43934 H 4131.89 1.10299 -1.60686 0
M  V30 43935 H 4130.99 2.62885 -1.68219 0
M  V30 43936 N 4131.29 1.10196 1.12671 0
M  V30 43937 C 4132.51 0.865146 1.88494 0
M  V30 43938 C 4132.94 -0.578659 1.78978 0
M  V30 43939 O 4132.3 -1.40735 1.14295 0
M  V30 43940 C 4132.35 1.31505 3.35766 0
M  V30 43941 O 4131.45 0.478519 4.09614 0
M  V30 43942 H 4130.79 0.312668 0.585777 0
M  V30 43943 H 4133.32 1.46813 1.42503 0
M  V30 43944 H 4133.33 1.30392 3.86603 0
M  V30 43945 H 4132.01 2.36649 3.42009 0
M  V30 43946 H 4130.58 0.554654 3.68752 0
M  V30 43947 N 4132.77 -1.30042 0.890333 0
M  V30 43948 C 4134 -1.99796 0.525838 0
M  V30 43949 C 4134.41 -1.6688 -0.891507 0
M  V30 43950 O 4133.75 -0.905022 -1.59859 0
M  V30 43951 C 4133.81 -3.53987 0.627161 0
M  V30 43952 C 4133.47 -4.10435 2.00978 0
M  V30 43953 C 4134.47 -4.2603 2.97983 0
M  V30 43954 C 4132.16 -4.45688 2.31662 0
M  V30 43955 C 4134.15 -4.76098 4.23803 0
M  V30 43956 C 4131.84 -4.95454 3.57727 0
M  V30 43957 C 4132.84 -5.10613 4.53612 0
M  V30 43958 O 4132.52 -5.59303 5.77439 0
M  V30 43959 H 4132.26 -0.645336 0.201289 0
M  V30 43960 H 4134.81 -1.6677 1.19904 0
M  V30 43961 H 4133.04 -3.86563 -0.103039 0
M  V30 43962 H 4134.73 -4.0498 0.273171 0
M  V30 43963 H 4135.49 -3.99092 2.75591 0
M  V30 43964 H 4131.37 -4.33153 1.57795 0
M  V30 43965 H 4134.92 -4.87845 4.98651 0
M  V30 43966 H 4130.81 -5.21828 3.79954 0
M  V30 43967 H 4131.58 -5.77636 5.79896 0
M  V30 43968 N 4134.25 -0.651838 -1.43488 0
M  V30 43969 C 4135.16 0.0412702 -2.34564 0
M  V30 43970 C 4136.17 0.813653 -1.53804 0
M  V30 43971 O 4137.35 0.761213 -1.8646 0
M  V30 43972 C 4134.41 0.996686 -3.32065 0
M  V30 43973 C 4133.47 0.221389 -4.28729 0
M  V30 43974 C 4132.71 1.1313 -5.21572 0
M  V30 43975 O 4132.93 2.37053 -5.18808 0
M  V30 43976 O 4131.86 0.604447 -5.98857 0
M  V30 43977 H 4135.69 -0.708347 -2.95324 0
M  V30 43978 H 4133.27 -0.412024 -1.43606 0
M  V30 43979 H 4135.16 1.5458 -3.92024 0
M  V30 43980 H 4133.83 1.72655 -2.7381 0
M  V30 43981 H 4132.74 -0.371271 -3.72253 0
M  V30 43982 H 4134.07 -0.468883 -4.89962 0
M  V30 43983 N 4135.72 1.52604 -0.39367 0
M  V30 43984 C 4136.95 2.06053 0.187064 0
M  V30 43985 C 4137.37 1.26503 1.40151 0
M  V30 43986 O 4136.72 0.312822 1.79799 0
M  V30 43987 C 4136.77 3.57247 0.552856 0
M  V30 43988 O 4136.5 4.33785 -0.61335 0
M  V30 43989 C 4138 4.27057 1.18898 0
M  V30 43990 H 4135.22 0.670449 0.0271924 0
M  V30 43991 H 4137.76 1.96679 -0.560161 0
M  V30 43992 H 4135.92 3.6668 1.24998 0
M  V30 43993 H 4136.33 5.23573 -0.311703 0
M  V30 43994 H 4137.8 5.34075 1.39526 0
M  V30 43995 H 4138.28 3.82549 2.15762 0
M  V30 43996 H 4138.89 4.21953 0.532505 0
M  V30 43997 N 4137.2 0.12362 1.57114 0
M  V30 43998 C 4138.15 -0.824874 2.15556 0
M  V30 43999 C 4139.12 -1.26038 1.08183 0
M  V30 44000 O 4140.3 -1.33707 1.36114 0
M  V30 44001 C 4137.44 -2.06778 2.76291 0
M  V30 44002 C 4136.56 -1.68022 3.97986 0
M  V30 44003 C 4135.69 -2.87314 4.46793 0
M  V30 44004 C 4134.73 -2.44819 5.61008 0
M  V30 44005 N 4133.87 -3.57041 6.04538 0
M  V30 44006 H 4138.71 -0.319674 2.9628 0
M  V30 44007 H 4136.24 -0.146094 1.46373 0
M  V30 44008 H 4138.2 -2.79608 3.09637 0
M  V30 44009 H 4136.83 -2.54749 1.9825 0
M  V30 44010 H 4135.88 -0.850476 3.70771 0
M  V30 44011 H 4137.2 -1.32796 4.80798 0
M  V30 44012 H 4136.35 -3.68363 4.82072 0
M  V30 44013 H 4135.09 -3.2577 3.6294 0
M  V30 44014 H 4134.09 -1.62204 5.25328 0
M  V30 44015 H 4135.32 -2.07476 6.4663 0
M  V30 44016 H 4133.27 -3.95162 5.23625 0
M  V30 44017 H 4133.18 -3.25754 6.82217 0
M  V30 44018 H 4134.45 -4.38516 6.44456 0
M  V30 44019 N 4138.68 -1.56883 -0.15016 0
M  V30 44020 C 4139.61 -1.94625 -1.21053 0
M  V30 44021 C 4140.62 -0.841718 -1.39352 0
M  V30 44022 O 4141.81 -1.12014 -1.38979 0
M  V30 44023 C 4138.91 -2.2023 -2.57588 0
M  V30 44024 C 4138.09 -3.51508 -2.60309 0
M  V30 44025 C 4137.15 -3.65691 -3.7836 0
M  V30 44026 O 4136.17 -4.38114 -3.6338 0
M  V30 44027 N 4137.37 -3.02119 -4.95686 0
M  V30 44028 H 4140.14 -2.86188 -0.889749 0
M  V30 44029 H 4137.7 -1.58295 -0.339751 0
M  V30 44030 H 4139.69 -2.26963 -3.35067 0
M  V30 44031 H 4138.26 -1.34948 -2.81971 0
M  V30 44032 H 4137.48 -3.56245 -1.68769 0
M  V30 44033 H 4138.77 -4.37854 -2.59155 0
M  V30 44034 H 4138.17 -2.4319 -5.1076 0
M  V30 44035 H 4136.72 -3.14417 -5.70951 0
M  V30 44036 N 4140.16 0.419408 -1.51917 0
M  V30 44037 C 4141.39 1.18927 -1.69304 0
M  V30 44038 C 4141.8 1.84556 -0.398056 0
M  V30 44039 O 4141.16 1.71462 0.625053 0
M  V30 44040 C 4141.21 2.26004 -2.82143 0
M  V30 44041 O 4140.93 1.63056 -4.06625 0
M  V30 44042 C 4142.43 3.15948 -3.10952 0
M  V30 44043 H 4139.65 0.357771 -0.567663 0
M  V30 44044 H 4142.2 0.494772 -1.98424 0
M  V30 44045 H 4140.35 2.9114 -2.55571 0
M  V30 44046 H 4140.76 2.33963 -4.69427 0
M  V30 44047 H 4142.24 3.87176 -3.93445 0
M  V30 44048 H 4142.72 3.77734 -2.24084 0
M  V30 44049 H 4143.32 2.56494 -3.39251 0
M  V30 44050 N 4141.64 1.42366 0.675998 0
M  V30 44051 C 4142.88 1.42489 1.43322 0
M  V30 44052 C 4143.21 0.0418931 1.94955 0
M  V30 44053 O 4142.48 -0.919388 1.72986 0
M  V30 44054 H 4141.06 0.524545 0.531848 0
M  V30 44055 H 4143.72 1.77777 0.798836 0
M  V30 44056 H 4142.81 2.12393 2.28682 0
M  V30 44057 N 4143.11 -0.912187 1.28518 0
M  V30 44058 C 4144.34 -1.70049 1.18735 0
M  V30 44059 C 4144.76 -1.86427 -0.250291 0
M  V30 44060 O 4144.12 -1.37555 -1.18103 0
M  V30 44061 C 4144.17 -3.0694 1.89262 0
M  V30 44062 O 4143.27 -3.9452 1.20115 0
M  V30 44063 H 4142.62 -0.520647 0.412096 0
M  V30 44064 H 4145.15 -1.14045 1.69868 0
M  V30 44065 H 4145.16 -3.57162 1.9723 0
M  V30 44066 H 4143.83 -2.94337 2.93834 0
M  V30 44067 H 4142.41 -3.52955 1.20321 0
M  V30 44068 N 4144.59 -1.10792 -1.12085 0
M  V30 44069 C 4145.56 -0.763484 -2.1611 0
M  V30 44070 C 4146.56 0.213875 -1.59371 0
M  V30 44071 O 4147.75 -0.00975161 -1.74197 0
M  V30 44072 C 4144.88 -0.131548 -3.40646 0
M  V30 44073 H 4146.07 -1.68493 -2.48093 0
M  V30 44074 H 4143.62 -0.908918 -1.27155 0
M  V30 44075 H 4144.36 0.800452 -3.14266 0
M  V30 44076 H 4144.14 -0.834995 -3.83106 0
M  V30 44077 H 4145.63 0.0935431 -4.17495 0
M  V30 44078 N 4146.07 1.29568 -0.897217 0
M  V30 44079 C 4147.3 2.00341 -0.5365 0
M  V30 44080 C 4147.72 1.66727 0.870851 0
M  V30 44081 O 4147.08 0.89052 1.57922 0
M  V30 44082 C 4147.13 3.53075 -0.732843 0
M  V30 44083 O 4146.23 4.11835 0.215775 0
M  V30 44084 H 4145.57 0.629946 -0.209915 0
M  V30 44085 H 4148.1 1.65123 -1.20812 0
M  V30 44086 H 4148.11 4.03004 -0.636539 0
M  V30 44087 H 4146.79 3.76877 -1.75888 0
M  V30 44088 H 4145.36 3.7283 0.0721356 0
M  V30 44089 N 4147.55 0.659438 1.4314 0
M  V30 44090 C 4148.77 0.181679 2.06603 0
M  V30 44091 C 4149.2 -1.14626 1.49139 0
M  V30 44092 O 4148.56 -1.70951 0.603769 0
M  V30 44093 C 4148.6 0.110725 3.6043 0
M  V30 44094 O 4147.71 -0.925273 4.01886 0
M  V30 44095 H 4147.05 0.0977236 0.656769 0
M  V30 44096 H 4149.58 0.904118 1.8354 0
M  V30 44097 H 4149.59 -0.0705372 4.07939 0
M  V30 44098 H 4148.26 1.08009 4.0163 0
M  V30 44099 H 4146.84 -0.716296 3.65956 0
M  V30 44100 N 4149.03 -1.52393 0.401757 0
M  V30 44101 C 4149.96 -2.2327 -0.471761 0
M  V30 44102 C 4150.94 -1.23813 -1.05399 0
M  V30 44103 O 4152.12 -1.52841 -1.10326 0
M  V30 44104 C 4149.25 -2.9556 -1.65415 0
M  V30 44105 C 4148.29 -4.09388 -1.196 0
M  V30 44106 S 4149.13 -5.35239 -0.167226 0
M  V30 44107 C 4150.28 -6.11055 -1.3551 0
M  V30 44108 H 4150.52 -2.97015 0.130078 0
M  V30 44109 H 4148.05 -1.53275 0.186011 0
M  V30 44110 H 4150.01 -3.37816 -2.33218 0
M  V30 44111 H 4148.67 -2.21472 -2.22731 0
M  V30 44112 H 4147.86 -4.59115 -2.07917 0
M  V30 44113 H 4147.46 -3.69209 -0.596711 0
M  V30 44114 H 4149.76 -6.37982 -2.28001 0
M  V30 44115 H 4150.7 -7.02376 -0.898508 0
M  V30 44116 H 4151.11 -5.42009 -1.57756 0
M  V30 44117 N 4150.5 -0.131951 -1.57047 0
M  V30 44118 C 4151.75 0.523665 -1.95922 0
M  V30 44119 C 4152.08 1.65497 -1.01608 0
M  V30 44120 O 4151.36 1.9442 -0.0556575 0
M  V30 44121 C 4151.64 1.04412 -3.44631 0
M  V30 44122 C 4151.49 -0.0846621 -4.4972 0
M  V30 44123 C 4152.81 1.93082 -3.95484 0
M  V30 44124 H 4149.93 0.188882 -0.712385 0
M  V30 44125 H 4152.57 -0.210133 -1.88834 0
M  V30 44126 H 4150.72 1.66944 -3.50802 0
M  V30 44127 H 4152.4 -0.720464 -4.55639 0
M  V30 44128 H 4150.64 -0.745981 -4.27338 0
M  V30 44129 H 4151.31 0.320954 -5.51066 0
M  V30 44130 H 4153.79 1.40401 -3.91697 0
M  V30 44131 H 4152.66 2.26411 -5.00029 0
M  V30 44132 H 4152.92 2.86218 -3.36944 0
M  V30 44133 N 4151.98 1.5696 0.141838 0
M  V30 44134 C 4152.93 1.99608 1.19413 0
M  V30 44135 C 4153.92 0.889294 1.4418 0
M  V30 44136 O 4155.13 1.07448 1.44412 0
M  V30 44137 H 4151.51 0.635485 0.402074 0
M  V30 44138 H 4153.48 2.87259 0.80777 0
M  V30 44139 C 4152.23 2.39708 2.51864 0
M  V30 44140 H 4151.55 3.24429 2.33637 0
M  V30 44141 H 4152.99 2.73367 3.24108 0
M  V30 44142 C 4151.45 1.25175 3.12783 0
M  V30 44143 O 4151.98 0.555277 3.97844 0
M  V30 44144 N 4150.18 1.01466 2.7231 0
M  V30 44145 H 4149.73 1.5828 2.03237 0
M  V30 44146 H 4149.69 0.250236 3.13403 0
M  V30 44147 N 4153.46 -0.411345 1.52137 0
M  V30 44148 C 4154.71 -1.15621 1.65759 0
M  V30 44149 C 4155.03 -1.91085 0.388805 0
M  V30 44150 O 4154.3 -1.86606 -0.596244 0
M  V30 44151 H 4152.88 -0.429806 0.610963 0
M  V30 44152 H 4155.54 -0.469081 1.89171 0
M  V30 44153 H 4154.64 -1.87151 2.49762 0
M  V30 44154 N 4154.94 -1.42722 -0.668439 0
M  V30 44155 C 4156.19 -1.43744 -1.43058 0
M  V30 44156 C 4156.52 -0.0558997 -1.9412 0
M  V30 44157 O 4155.79 0.920874 -1.71319 0
M  V30 44158 C 4156.08 -2.46717 -2.62303 0
M  V30 44159 C 4155.93 -3.94086 -2.16832 0
M  V30 44160 C 4157.25 -2.46603 -3.6452 0
M  V30 44161 H 4154.37 -0.523421 -0.518845 0
M  V30 44162 H 4157.01 -1.74177 -0.759113 0
M  V30 44163 H 4155.16 -2.20897 -3.19589 0
M  V30 44164 H 4156.83 -4.3091 -1.64664 0
M  V30 44165 H 4155.07 -4.07647 -1.48345 0
M  V30 44166 H 4155.75 -4.61725 -3.02513 0
M  V30 44167 H 4158.22 -2.6958 -3.16964 0
M  V30 44168 H 4157.1 -3.2062 -4.45526 0
M  V30 44169 H 4157.36 -1.49429 -4.16081 0
M  V30 44170 N 4156.42 0.905358 -1.29 0
M  V30 44171 C 4157.66 1.65777 -1.16816 0
M  V30 44172 C 4158 1.92158 0.280902 0
M  V30 44173 O 4157.27 1.52796 1.20348 0
M  V30 44174 C 4157.55 3.01043 -1.97598 0
M  V30 44175 C 4157.41 2.81764 -3.50613 0
M  V30 44176 C 4158.73 4.01699 -1.79795 0
M  V30 44177 H 4155.85 0.601603 -0.425727 0
M  V30 44178 H 4158.49 1.0491 -1.5841 0
M  V30 44179 H 4156.64 3.52996 -1.62253 0
M  V30 44180 H 4158.31 2.36756 -3.95909 0
M  V30 44181 H 4156.55 2.16657 -3.75822 0
M  V30 44182 H 4157.22 3.77858 -4.02402 0
M  V30 44183 H 4159.7 3.58836 -2.10656 0
M  V30 44184 H 4158.58 4.94292 -2.38676 0
M  V30 44185 H 4158.84 4.35664 -0.751636 0
M  V30 44186 N 4157.9 1.11385 1.11495 0
M  V30 44187 C 4159.31 0.84764 1.3523 0
M  V30 44188 C 4159.51 -0.527939 1.94461 0
M  V30 44189 O 4158.57 -1.27886 2.17718 0
M  V30 44190 C 4159.88 1.95527 2.2845 0
M  V30 44191 C 4161.43 1.98487 2.42016 0
M  V30 44192 C 4161.9 3.08452 3.38558 0
M  V30 44193 N 4163.39 3.07823 3.4612 0
M  V30 44194 C 4164.13 3.8955 4.2076 0
M  V30 44195 N 4163.63 4.81238 4.9838 0
M  V30 44196 N 4165.42 3.77729 4.16266 0
M  V30 44197 H 4157.57 2.00035 0.714121 0
M  V30 44198 H 4159.83 0.869848 0.376921 0
M  V30 44199 H 4159.54 2.94589 1.9212 0
M  V30 44200 H 4159.41 1.85095 3.28664 0
M  V30 44201 H 4161.8 1.00052 2.77621 0
M  V30 44202 H 4161.88 2.12995 1.41657 0
M  V30 44203 H 4161.52 4.07113 3.0368 0
M  V30 44204 H 4161.45 2.91184 4.38771 0
M  V30 44205 H 4163.95 2.41392 2.90755 0
M  V30 44206 H 4164.26 5.40134 5.52698 0
M  V30 44207 H 4162.6 4.8526 4.97542 0
M  V30 44208 H 4165.79 3.05443 3.54714 0
M  V30 44209 H 4165.97 4.41655 4.74178 0
M  V30 44210 N 4159.37 -1.2909 0.904076 0
M  V30 44211 C 4160.3 -2.30016 0.401845 0
M  V30 44212 C 4161.28 -1.61781 -0.525449 0
M  V30 44213 O 4162.47 -1.8926 -0.435246 0
M  V30 44214 C 4159.6 -3.45349 -0.367596 0
M  V30 44215 C 4158.55 -4.25415 0.469671 0
M  V30 44216 C 4157.88 -5.32988 -0.42753 0
M  V30 44217 C 4159.18 -4.93101 1.72188 0
M  V30 44218 H 4160.87 -2.72274 1.24527 0
M  V30 44219 H 4158.42 -1.30894 0.600238 0
M  V30 44220 H 4160.37 -4.15034 -0.729718 0
M  V30 44221 H 4159.1 -3.01946 -1.24484 0
M  V30 44222 H 4157.76 -3.57445 0.814182 0
M  V30 44223 H 4157.4 -4.85829 -1.30304 0
M  V30 44224 H 4157.1 -5.87458 0.129012 0
M  V30 44225 H 4158.63 -6.05523 -0.785748 0
M  V30 44226 H 4160.04 -5.55199 1.42924 0
M  V30 44227 H 4158.44 -5.57523 2.22008 0
M  V30 44228 H 4159.51 -4.1814 2.45534 0
M  V30 44229 N 4160.85 -0.66702 -1.42789 0
M  V30 44230 C 4161.78 0.00230257 -2.335 0
M  V30 44231 C 4162.76 0.79751 -1.50246 0
M  V30 44232 O 4163.95 0.756226 -1.78871 0
M  V30 44233 C 4161.08 0.959737 -3.33776 0
M  V30 44234 C 4160.03 0.273674 -4.27124 0
M  V30 44235 C 4159.36 1.34351 -5.17546 0
M  V30 44236 C 4160.66 -0.842501 -5.1546 0
M  V30 44237 H 4162.35 -0.755263 -2.89717 0
M  V30 44238 H 4159.9 -0.364646 -1.39307 0
M  V30 44239 H 4161.85 1.437 -3.96142 0
M  V30 44240 H 4160.57 1.74863 -2.75845 0
M  V30 44241 H 4159.23 -0.183274 -3.66142 0
M  V30 44242 H 4158.88 2.12419 -4.55946 0
M  V30 44243 H 4158.58 0.889636 -5.80826 0
M  V30 44244 H 4160.11 1.82186 -5.82787 0
M  V30 44245 H 4161.52 -0.4468 -5.71556 0
M  V30 44246 H 4159.92 -1.22169 -5.87533 0
M  V30 44247 H 4160.99 -1.69462 -4.54324 0
M  V30 44248 N 4162.33 1.52178 -0.409833 0
M  V30 44249 C 4163.56 2.06239 0.165199 0
M  V30 44250 C 4163.97 1.27983 1.38802 0
M  V30 44251 O 4163.33 0.331875 1.79457 0
M  V30 44252 C 4163.38 3.57814 0.514934 0
M  V30 44253 O 4163.1 4.3311 -0.659324 0
M  V30 44254 C 4164.6 4.28295 1.14362 0
M  V30 44255 H 4161.82 0.670699 0.0200799 0
M  V30 44256 H 4164.37 1.96073 -0.58099 0
M  V30 44257 H 4162.52 3.67985 1.21102 0
M  V30 44258 H 4162.94 5.23213 -0.367218 0
M  V30 44259 H 4164.41 5.35525 1.33853 0
M  V30 44260 H 4164.89 3.84816 2.11692 0
M  V30 44261 H 4165.49 4.22494 0.487721 0
M  V30 44262 N 4163.81 0.140278 1.56974 0
M  V30 44263 C 4164.75 -0.801965 2.16419 0
M  V30 44264 C 4165.72 -1.24883 1.09514 0
M  V30 44265 O 4166.91 -1.32256 1.37524 0
M  V30 44266 C 4164.05 -2.03836 2.78469 0
M  V30 44267 C 4163.16 -1.63791 3.99745 0
M  V30 44268 C 4162.3 -2.82559 4.49815 0
M  V30 44269 C 4161.34 -2.38855 5.63573 0
M  V30 44270 N 4160.47 -3.50609 6.08291 0
M  V30 44271 H 4165.31 -0.288232 2.96603 0
M  V30 44272 H 4162.85 -0.130561 1.46519 0
M  V30 44273 H 4164.81 -2.76308 3.12585 0
M  V30 44274 H 4163.44 -2.52632 2.0094 0
M  V30 44275 H 4162.49 -0.811103 3.71652 0
M  V30 44276 H 4163.8 -1.27689 4.82179 0
M  V30 44277 H 4162.96 -3.6323 4.85952 0
M  V30 44278 H 4161.7 -3.21902 3.66375 0
M  V30 44279 H 4160.7 -1.56623 5.27019 0
M  V30 44280 H 4161.93 -2.00606 6.48794 0
M  V30 44281 H 4159.87 -3.89586 5.27787 0
M  V30 44282 H 4159.79 -3.185 6.85634 0
M  V30 44283 H 4161.06 -4.31656 6.49071 0
M  V30 44284 N 4165.29 -1.57033 -0.133512 0
M  V30 44285 C 4166.7 -1.73394 -0.692191 0
M  V30 44286 C 4167.05 -0.756767 -1.81018 0
M  V30 44287 O 4166.17 0.0736068 -2.16275 0
M  V30 44288 C 4166.77 -3.14403 -1.26239 0
M  V30 44289 C 4165.33 -3.32319 -1.76751 0
M  V30 44290 C 4164.47 -2.69298 -0.66135 0
M  V30 44291 H 4167.42 -1.58431 0.0922841 0
M  V30 44292 H 4167.45 -3.15149 -2.13216 0
M  V30 44293 H 4166.96 -3.855 -0.448482 0
M  V30 44294 H 4165.06 -2.66241 -2.60666 0
M  V30 44295 H 4165.17 -4.40376 -1.88694 0
M  V30 44296 H 4163.54 -2.30134 -1.09136 0
M  V30 44297 H 4164.32 -3.43009 0.141341 0
M  V30 44298 N 4166.76 0.403271 -1.52353 0
M  V30 44299 C 4168.01 1.14808 -1.67901 0
M  V30 44300 C 4168.36 1.88051 -0.406787 0
M  V30 44301 O 4167.66 1.81996 0.599006 0
M  V30 44302 C 4167.85 2.1651 -2.84356 0
M  V30 44303 C 4167.68 1.53255 -4.2278 0
M  V30 44304 C 4166.45 1.30274 -4.88218 0
M  V30 44305 C 4168.65 0.990288 -5.04676 0
M  V30 44306 N 4166.63 0.629739 -6.10662 0
M  V30 44307 C 4168 0.444535 -6.18404 0
M  V30 44308 C 4170.06 0.885317 -4.89966 0
M  V30 44309 C 4168.76 -0.195907 -7.19033 0
M  V30 44310 C 4170.79 0.258719 -5.90834 0
M  V30 44311 C 4170.15 -0.27633 -7.03858 0
M  V30 44312 H 4166.25 0.40658 -0.667995 0
M  V30 44313 H 4168.83 0.439626 -1.89672 0
M  V30 44314 H 4167 2.84708 -2.6419 0
M  V30 44315 H 4168.73 2.83395 -2.88911 0
M  V30 44316 H 4165.49 1.57386 -4.46684 0
M  V30 44317 H 4165.91 0.309693 -6.76291 0
M  V30 44318 H 4170.55 1.2848 -4.02806 0
M  V30 44319 H 4168.27 -0.607434 -8.05814 0
M  V30 44320 H 4171.86 0.178938 -5.81525 0
M  V30 44321 H 4170.74 -0.753543 -7.80571 0
M  V30 44322 N 4168.24 1.43075 0.66086 0
M  V30 44323 C 4169.52 1.34766 1.41766 0
M  V30 44324 C 4169.9 -0.00825009 2.11098 0
M  V30 44325 O 4169.25 -1.02446 2.04248 0
M  V30 44326 C 4169.46 2.52558 2.40864 0
M  V30 44327 C 4170.8 2.95302 3.05093 0
M  V30 44328 O 4171.83 2.52549 2.51192 0
M  V30 44329 O 4170.69 3.69342 4.02801 0
M  V30 44330 H 4167.78 0.532193 0.633008 0
M  V30 44331 H 4170.33 1.5511 0.688411 0
M  V30 44332 H 4169.1 3.42889 1.88527 0
M  V30 44333 H 4168.72 2.34273 3.2125 0
M  V30 44334 N 4169.72 -0.898504 1.29478 0
M  V30 44335 C 4170.97 -1.65155 1.17693 0
M  V30 44336 C 4171.3 -1.92304 -0.270708 0
M  V30 44337 O 4170.57 -1.53432 -1.19536 0
M  V30 44338 C 4170.86 -2.99991 1.99192 0
M  V30 44339 C 4170.71 -2.799 3.52102 0
M  V30 44340 C 4172.03 -4.0074 1.81923 0
M  V30 44341 H 4169.15 -0.599336 0.428911 0
M  V30 44342 H 4171.79 -1.04069 1.58965 0
M  V30 44343 H 4169.94 -3.52131 1.64122 0
M  V30 44344 H 4171.61 -2.34653 3.97159 0
M  V30 44345 H 4169.86 -2.14661 3.76966 0
M  V30 44346 H 4170.53 -3.75718 4.04401 0
M  V30 44347 H 4173 -3.57714 2.12556 0
M  V30 44348 H 4171.88 -4.9302 2.41294 0
M  V30 44349 H 4172.14 -4.35259 0.77473 0
M  V30 44350 N 4171.2 -1.11974 -1.10903 0
M  V30 44351 C 4172.44 -0.873343 -1.83032 0
M  V30 44352 C 4172.78 0.599439 -1.84717 0
M  V30 44353 O 4172.05 1.44286 -1.30429 0
M  V30 44354 C 4172.34 -1.44267 -3.29938 0
M  V30 44355 C 4172.19 -2.98347 -3.36614 0
M  V30 44356 C 4173.51 -1.09822 -4.26177 0
M  V30 44357 H 4170.63 -0.318713 -0.664523 0
M  V30 44358 H 4173.27 -1.38555 -1.3001 0
M  V30 44359 H 4171.42 -1.00703 -3.75221 0
M  V30 44360 H 4173.09 -3.50555 -2.99848 0
M  V30 44361 H 4171.33 -3.34127 -2.76662 0
M  V30 44362 H 4172 -3.33273 -4.40037 0
M  V30 44363 H 4174.48 -1.47439 -3.89103 0
M  V30 44364 H 4173.36 -1.52327 -5.2734 0
M  V30 44365 H 4173.62 -0.00974609 -4.42099 0
M  V30 44366 N 4172.68 1.28609 -0.910909 0
M  V30 44367 C 4174.09 1.77148 -0.58953 0
M  V30 44368 C 4174.44 1.74592 0.895097 0
M  V30 44369 O 4173.56 1.33882 1.70014 0
M  V30 44370 C 4174.16 3.2168 -1.06337 0
M  V30 44371 C 4172.72 3.67953 -0.792964 0
M  V30 44372 C 4171.86 2.48443 -1.23172 0
M  V30 44373 H 4174.82 1.15112 -1.09247 0
M  V30 44374 H 4174.84 3.78354 -0.403562 0
M  V30 44375 H 4174.35 3.23508 -2.14393 0
M  V30 44376 H 4172.45 3.71587 0.274503 0
M  V30 44377 H 4172.56 4.58228 -1.39871 0
M  V30 44378 H 4170.93 2.46253 -0.650502 0
M  V30 44379 H 4171.71 2.52992 -2.32056 0
M  V30 44380 N 4174.15 0.674583 1.42433 0
M  V30 44381 C 4175.09 -0.0540392 2.28136 0
M  V30 44382 C 4176.07 -0.80889 1.41052 0
M  V30 44383 O 4177.25 -0.80406 1.70491 0
M  V30 44384 C 4174.38 -1.08369 3.20895 0
M  V30 44385 C 4173.42 -0.424444 4.24383 0
M  V30 44386 S 4174.26 0.817801 5.29219 0
M  V30 44387 C 4175.41 -0.210781 6.25545 0
M  V30 44388 H 4175.64 0.672905 2.89585 0
M  V30 44389 H 4173.18 0.46412 1.47259 0
M  V30 44390 H 4175.14 -1.67267 3.74876 0
M  V30 44391 H 4173.8 -1.78308 2.58583 0
M  V30 44392 H 4172.99 -1.20136 4.89472 0
M  V30 44393 H 4172.59 0.0909372 3.73889 0
M  V30 44394 H 4174.88 -1.07057 6.68988 0
M  V30 44395 H 4175.83 0.405641 7.06937 0
M  V30 44396 H 4176.23 -0.556161 5.61754 0
M  V30 44397 N 4175.63 -1.51958 0.417898 0
M  V30 44398 C 4176.88 -2.02205 -0.155247 0
M  V30 44399 C 4177.21 -1.30252 -1.44041 0
M  V30 44400 O 4176.49 -0.411482 -1.90098 0
M  V30 44401 C 4176.77 -3.57938 -0.393975 0
M  V30 44402 C 4176.62 -4.4053 0.908481 0
M  V30 44403 C 4177.94 -4.24199 -1.1723 0
M  V30 44404 H 4175.06 -0.734949 -0.0549487 0
M  V30 44405 H 4177.7 -1.81772 0.553085 0
M  V30 44406 H 4175.85 -3.7548 -0.997356 0
M  V30 44407 H 4177.52 -4.34681 1.54435 0
M  V30 44408 H 4175.77 -4.06392 1.5175 0
M  V30 44409 H 4176.44 -5.47598 0.695726 0
M  V30 44410 H 4178.91 -4.1081 -0.661389 0
M  V30 44411 H 4177.79 -5.33086 -1.30809 0
M  V30 44412 H 4178.05 -3.83745 -2.19527 0
M  V30 44413 N 4177.11 -0.1486 -1.56898 0
M  V30 44414 C 4178.34 0.509012 -2.00541 0
M  V30 44415 C 4178.75 1.58313 -1.0287 0
M  V30 44416 O 4178.11 1.82482 -0.0259618 0
M  V30 44417 C 4178.16 1.10819 -3.44095 0
M  V30 44418 O 4177.88 0.076971 -4.38032 0
M  V30 44419 C 4179.38 1.84626 -4.03024 0
M  V30 44420 H 4176.6 0.132367 -0.657815 0
M  V30 44421 H 4179.15 -0.243654 -2.03043 0
M  V30 44422 H 4177.3 1.81147 -3.42439 0
M  V30 44423 H 4177.72 0.516164 -5.21954 0
M  V30 44424 H 4179.19 2.21838 -5.05462 0
M  V30 44425 H 4179.67 2.73277 -3.43826 0
M  V30 44426 H 4180.27 1.18993 -4.08315 0
M  V30 44427 N 4178.59 1.57102 0.125182 0
M  V30 44428 C 4179.52 1.96526 1.17941 0
M  V30 44429 C 4180.53 0.863781 1.37995 0
M  V30 44430 O 4181.72 1.1421 1.3718 0
M  V30 44431 C 4178.82 2.24301 2.54052 0
M  V30 44432 C 4178 3.55605 2.54683 0
M  V30 44433 C 4177.05 3.71664 3.72494 0
M  V30 44434 O 4176.08 4.43839 3.56364 0
M  V30 44435 N 4177.28 3.09966 4.90817 0
M  V30 44436 H 4180.05 2.87567 0.844107 0
M  V30 44437 H 4177.61 1.58815 0.314524 0
M  V30 44438 H 4179.6 2.32265 3.31414 0
M  V30 44439 H 4178.17 1.39417 2.79789 0
M  V30 44440 H 4177.39 3.58885 1.6308 0
M  V30 44441 H 4178.68 4.41922 2.52156 0
M  V30 44442 H 4178.08 2.51285 5.06826 0
M  V30 44443 H 4176.63 3.23461 5.65877 0
M  V30 44444 N 4180.07 -0.395186 1.52565 0
M  V30 44445 C 4181 -1.50378 1.71644 0
M  V30 44446 C 4181.98 -1.52499 0.564174 0
M  V30 44447 O 4183.16 -1.70997 0.793228 0
M  V30 44448 C 4180.29 -2.88867 1.76843 0
M  V30 44449 C 4179.33 -3.04599 2.98532 0
M  V30 44450 S 4180.17 -2.76448 4.58625 0
M  V30 44451 C 4181.32 -4.17141 4.66631 0
M  V30 44452 H 4181.56 -1.33969 2.65405 0
M  V30 44453 H 4179.09 -0.587664 1.42779 0
M  V30 44454 H 4181.05 -3.68675 1.80524 0
M  V30 44455 H 4179.71 -3.02608 0.841855 0
M  V30 44456 H 4178.9 -4.05954 2.98693 0
M  V30 44457 H 4178.5 -2.32676 2.9281 0
M  V30 44458 H 4180.8 -5.10981 4.44865 0
M  V30 44459 H 4181.74 -4.21998 5.68616 0
M  V30 44460 H 4182.15 -4.02762 3.95529 0
M  V30 44461 N 4181.54 -1.43423 -0.653263 0
M  V30 44462 C 4182.51 -1.48249 -1.748 0
M  V30 44463 C 4183.51 -0.367206 -1.56551 0
M  V30 44464 O 4184.7 -0.628952 -1.62449 0
M  V30 44465 C 4181.83 -1.33504 -3.13671 0
M  V30 44466 H 4183.02 -2.45743 -1.71902 0
M  V30 44467 H 4180.58 -1.30188 -0.864913 0
M  V30 44468 H 4181.31 -0.370175 -3.2218 0
M  V30 44469 H 4181.1 -2.14354 -3.28321 0
M  V30 44470 H 4182.59 -1.39813 -3.935 0
M  V30 44471 N 4183.02 0.891625 -1.29953 0
M  V30 44472 C 4183.96 1.99886 -1.10095 0
M  V30 44473 C 4184.93 1.62597 -0.01049 0
M  V30 44474 O 4186.12 1.87796 -0.162758 0
M  V30 44475 C 4183.24 3.31851 -0.67771 0
M  V30 44476 C 4182.29 3.88126 -1.76807 0
M  V30 44477 S 4183.12 4.16238 -3.36907 0
M  V30 44478 C 4184.28 5.51232 -2.96469 0
M  V30 44479 H 4184.51 2.16423 -2.03834 0
M  V30 44480 H 4182.05 1.03921 -1.14192 0
M  V30 44481 H 4184 4.08133 -0.44024 0
M  V30 44482 H 4182.66 3.1318 0.240204 0
M  V30 44483 H 4181.86 4.83463 -1.42405 0
M  V30 44484 H 4181.46 3.1856 -1.95948 0
M  V30 44485 H 4183.75 6.3203 -2.44016 0
M  V30 44486 H 4184.69 5.90566 -3.90688 0
M  V30 44487 H 4185.1 5.13475 -2.34529 0
M  V30 44488 N 4184.5 1.12561 1.10308 0
M  V30 44489 C 4185.73 0.904613 1.86076 0
M  V30 44490 C 4186.14 -0.546193 1.80727 0
M  V30 44491 O 4185.5 -1.37768 1.19692 0
M  V30 44492 C 4185.55 1.37274 3.34422 0
M  V30 44493 O 4185.27 2.76667 3.39686 0
M  V30 44494 C 4186.77 1.18886 4.27061 0
M  V30 44495 H 4183.99 0.32317 0.588049 0
M  V30 44496 H 4186.54 1.4959 1.39438 0
M  V30 44497 H 4184.69 0.824645 3.78521 0
M  V30 44498 H 4185.11 2.9724 4.32144 0
M  V30 44499 H 4186.58 1.56527 5.29342 0
M  V30 44500 H 4187.06 0.129579 4.39009 0
M  V30 44501 H 4187.66 1.72452 3.88768 0
M  V30 44502 N 4185.98 -1.28124 0.917717 0
M  V30 44503 C 4187.26 -1.89827 0.471715 0
M  V30 44504 C 4187.64 -1.83151 -1.04971 0
M  V30 44505 O 4186.98 -1.27007 -1.89951 0
M  V30 44506 C 4187.19 -3.3417 1.00655 0
M  V30 44507 C 4188.54 -4.1113 1.06102 0
M  V30 44508 O 4189.57 -3.43146 0.955466 0
M  V30 44509 O 4188.43 -5.32656 1.22228 0
M  V30 44510 H 4185.52 -0.813256 0.150143 0
M  V30 44511 H 4188.07 -1.36463 1.00876 0
M  V30 44512 H 4186.84 -3.33273 2.05049 0
M  V30 44513 H 4186.46 -3.95039 0.450561 0
M  V30 44514 N 4187.46 -0.682127 -1.42073 0
M  V30 44515 C 4188.69 -0.216065 -2.05769 0
M  V30 44516 C 4189.1 1.12959 -1.5128 0
M  V30 44517 O 4188.46 1.7032 -0.655551 0
M  V30 44518 C 4188.51 -0.150414 -3.61187 0
M  V30 44519 O 4188.23 -1.4429 -4.13657 0
M  V30 44520 C 4189.73 0.338262 -4.42008 0
M  V30 44521 H 4186.95 -0.103337 -0.662995 0
M  V30 44522 H 4189.49 -0.930927 -1.82082 0
M  V30 44523 H 4187.65 0.515182 -3.83959 0
M  V30 44524 H 4188.06 -1.3211 -5.0759 0
M  V30 44525 H 4189.54 0.333093 -5.50994 0
M  V30 44526 H 4190.01 1.37482 -4.17128 0
M  V30 44527 H 4190.62 -0.295857 -4.2427 0
M  V30 44528 N 4188.94 1.51735 -0.425951 0
M  V30 44529 C 4190.16 2.06403 0.143315 0
M  V30 44530 C 4190.58 1.29448 1.37436 0
M  V30 44531 O 4189.94 0.35089 1.79095 0
M  V30 44532 C 4189.99 3.5834 0.476954 0
M  V30 44533 O 4189.71 4.32387 -0.705224 0
M  V30 44534 C 4191.21 4.29483 1.09813 0
M  V30 44535 H 4188.43 0.670875 0.0129651 0
M  V30 44536 H 4190.97 1.95446 -0.601753 0
M  V30 44537 H 4189.13 3.69249 1.17192 0
M  V30 44538 H 4189.54 5.22794 -0.422691 0
M  V30 44539 H 4191.02 5.36915 1.28166 0
M  V30 44540 H 4191.49 3.87039 2.07599 0
M  V30 44541 H 4192.1 4.22988 0.442882 0
M  V30 44542 N 4190.41 0.156919 1.56817 0
M  V30 44543 C 4191.82 -0.362251 1.83152 0
M  V30 44544 C 4192.18 -1.64057 1.07609 0
M  V30 44545 O 4191.3 -2.13953 0.324517 0
M  V30 44546 C 4191.9 -0.664014 3.32229 0
M  V30 44547 C 4190.45 -1.12767 3.59111 0
M  V30 44548 C 4189.6 -0.155946 2.76861 0
M  V30 44549 H 4192.55 0.381446 1.54048 0
M  V30 44550 H 4192.57 -1.51764 3.48924 0
M  V30 44551 H 4192.09 0.266543 3.87184 0
M  V30 44552 H 4190.19 -2.07383 3.09553 0
M  V30 44553 H 4190.3 -1.04679 4.67525 0
M  V30 44554 H 4188.66 -0.650517 2.46253 0
M  V30 44555 H 4189.45 0.768377 3.34591 0
M  V30 44556 N 4191.89 -1.57166 -0.116849 0
M  V30 44557 C 4193.14 -1.84966 -0.824255 0
M  V30 44558 C 4193.47 -0.742318 -1.79777 0
M  V30 44559 O 4192.72 0.266136 -1.93882 0
M  V30 44560 C 4193.02 -3.19258 -1.60653 0
M  V30 44561 C 4192.69 -4.44153 -0.777107 0
M  V30 44562 C 4191.35 -4.78065 -0.548387 0
M  V30 44563 C 4193.7 -5.2082 -0.199105 0
M  V30 44564 C 4191.03 -5.86085 0.268553 0
M  V30 44565 C 4193.38 -6.297 0.605038 0
M  V30 44566 C 4192.04 -6.62142 0.844054 0
M  V30 44567 H 4191.31 -0.676837 -0.301616 0
M  V30 44568 H 4193.96 -1.91304 -0.0865488 0
M  V30 44569 H 4192.27 -3.08505 -2.4152 0
M  V30 44570 H 4193.96 -3.37989 -2.15788 0
M  V30 44571 H 4190.55 -4.17584 -0.965467 0
M  V30 44572 H 4194.74 -4.94971 -0.36302 0
M  V30 44573 H 4189.99 -6.09645 0.462933 0
M  V30 44574 H 4194.17 -6.88287 1.05989 0
M  V30 44575 H 4191.79 -7.45676 1.4789 0
M  V30 44576 N 4193.37 0.38709 -1.52772 0
M  V30 44577 C 4194.62 1.1297 -1.67578 0
M  V30 44578 C 4194.94 1.90442 -0.419155 0
M  V30 44579 O 4194.21 1.87531 0.566481 0
M  V30 44580 H 4192.79 0.420032 -0.617724 0
M  V30 44581 H 4195.45 0.438926 -1.89893 0
M  V30 44582 H 4194.55 1.83154 -2.52708 0
M  V30 44583 N 4194.85 1.43768 0.645648 0
M  V30 44584 C 4195.78 1.45487 1.77105 0
M  V30 44585 C 4196.79 0.35003 1.58993 0
M  V30 44586 O 4197.98 0.61492 1.67574 0
M  V30 44587 C 4195.08 1.25925 3.14637 0
M  V30 44588 C 4194.25 2.49387 3.59339 0
M  V30 44589 C 4193.31 2.24938 4.75699 0
M  V30 44590 O 4192.34 2.98337 4.84751 0
M  V30 44591 N 4193.54 1.27078 5.6642 0
M  V30 44592 H 4196.31 2.42501 1.76106 0
M  V30 44593 H 4193.87 1.39021 0.829743 0
M  V30 44594 H 4195.86 1.07438 3.90178 0
M  V30 44595 H 4194.43 0.373284 3.10363 0
M  V30 44596 H 4193.65 2.83248 2.74161 0
M  V30 44597 H 4194.94 3.31537 3.85955 0
M  V30 44598 H 4194.34 0.664284 5.61786 0
M  V30 44599 H 4192.89 1.14574 6.41651 0
M  V30 44600 N 4196.33 -0.884721 1.30424 0
M  V30 44601 C 4197.26 -1.99612 1.12641 0
M  V30 44602 C 4198.27 -1.62651 0.0695835 0
M  V30 44603 O 4199.46 -1.75687 0.315624 0
M  V30 44604 C 4196.56 -3.31682 0.69571 0
M  V30 44605 C 4195.73 -3.97078 1.83434 0
M  V30 44606 C 4194.79 -5.0745 1.39215 0
M  V30 44607 O 4193.82 -5.29069 2.09941 0
M  V30 44608 N 4195.02 -5.79866 0.271312 0
M  V30 44609 H 4197.78 -2.15417 2.08364 0
M  V30 44610 H 4195.35 -1.05782 1.22563 0
M  V30 44611 H 4197.34 -4.02885 0.382899 0
M  V30 44612 H 4195.91 -3.1214 -0.169488 0
M  V30 44613 H 4195.13 -3.19045 2.31525 0
M  V30 44614 H 4196.42 -4.37509 2.59737 0
M  V30 44615 H 4195.81 -5.64805 -0.318012 0
M  V30 44616 H 4194.37 -6.51798 0.0179552 0
M  V30 44617 N 4197.8 -1.13144 -1.09709 0
M  V30 44618 C 4199.22 -0.869046 -1.33865 0
M  V30 44619 C 4199.42 0.496935 -1.95276 0
M  V30 44620 O 4198.48 1.24407 -2.19725 0
M  V30 44621 C 4199.79 -1.99137 -2.25311 0
M  V30 44622 C 4201.34 -2.02312 -2.38828 0
M  V30 44623 C 4201.81 -3.13799 -3.33608 0
M  V30 44624 N 4203.3 -3.1329 -3.41179 0
M  V30 44625 C 4204.04 -3.96194 -4.14509 0
M  V30 44626 N 4203.53 -4.89105 -4.9066 0
M  V30 44627 N 4205.33 -3.84304 -4.10204 0
M  V30 44628 H 4197.48 -2.01146 -0.682207 0
M  V30 44629 H 4199.74 -0.875734 -0.363035 0
M  V30 44630 H 4199.45 -2.97608 -1.87409 0
M  V30 44631 H 4199.32 -1.903 -3.25677 0
M  V30 44632 H 4201.71 -1.04456 -2.75994 0
M  V30 44633 H 4201.79 -2.15222 -1.3825 0
M  V30 44634 H 4201.43 -4.11893 -2.97165 0
M  V30 44635 H 4201.36 -2.98127 -4.34083 0
M  V30 44636 H 4203.85 -2.45987 -2.86878 0
M  V30 44637 H 4204.17 -5.48858 -5.44035 0
M  V30 44638 H 4202.51 -4.93114 -4.89759 0
M  V30 44639 H 4205.7 -3.11048 -3.4981 0
M  V30 44640 H 4205.88 -4.49143 -4.67092 0
M  V30 44641 N 4199.28 1.27635 -0.924498 0
M  V30 44642 C 4200.53 1.94797 -0.564088 0
M  V30 44643 C 4200.86 1.72511 0.891832 0
M  V30 44644 O 4200.14 1.05231 1.63575 0
M  V30 44645 C 4200.42 3.49006 -0.886949 0
M  V30 44646 C 4200.27 3.80649 -2.39639 0
M  V30 44647 C 4201.59 4.38363 -0.390591 0
M  V30 44648 H 4198.71 0.707505 -0.206412 0
M  V30 44649 H 4201.35 1.5081 -1.1557 0
M  V30 44650 H 4199.5 3.86603 -0.383474 0
M  V30 44651 H 4201.17 3.52861 -2.97131 0
M  V30 44652 H 4199.42 3.27313 -2.84691 0
M  V30 44653 H 4200.09 4.88375 -2.57282 0
M  V30 44654 H 4202.56 4.07899 -0.822044 0
M  V30 44655 H 4201.44 5.45092 -0.645477 0
M  V30 44656 H 4201.7 4.36373 0.709289 0
M  V30 44657 N 4200.76 0.689652 1.41709 0
M  V30 44658 C 4202.01 0.218121 2.01322 0
M  V30 44659 C 4202.34 -1.1803 1.54594 0
M  V30 44660 O 4201.59 -1.80951 0.745332 0
M  V30 44661 C 4201.89 0.217607 3.56737 0
M  V30 44662 C 4201.56 1.56273 4.22953 0
M  V30 44663 C 4200.22 1.931 4.40756 0
M  V30 44664 C 4202.57 2.44795 4.60136 0
M  V30 44665 C 4199.9 3.18045 4.93016 0
M  V30 44666 C 4202.25 3.69067 5.13783 0
M  V30 44667 C 4200.91 4.06044 5.29797 0
M  V30 44668 H 4200.18 0.0798163 0.736689 0
M  V30 44669 H 4202.83 0.887573 1.69689 0
M  V30 44670 H 4201.14 -0.535385 3.88125 0
M  V30 44671 H 4202.83 -0.16467 4.00662 0
M  V30 44672 H 4199.42 1.26629 4.09467 0
M  V30 44673 H 4203.61 2.17625 4.46041 0
M  V30 44674 H 4198.86 3.46696 5.03599 0
M  V30 44675 H 4203.04 4.3785 5.41535 0
M  V30 44676 H 4200.66 5.02933 5.70055 0
M  V30 44677 N 4202.24 -1.51507 0.433991 0
M  V30 44678 C 4203.19 -2.27665 -0.37914 0
M  V30 44679 C 4204.16 -1.31114 -1.01972 0
M  V30 44680 O 4205.34 -1.60012 -1.03927 0
M  V30 44681 C 4202.48 -3.11932 -1.47622 0
M  V30 44682 C 4201.59 -4.23473 -0.854102 0
M  V30 44683 C 4200.73 -4.95056 -1.92595 0
M  V30 44684 C 4199.77 -5.98522 -1.28209 0
M  V30 44685 N 4198.9 -6.63526 -2.29515 0
M  V30 44686 H 4203.74 -2.96713 0.276681 0
M  V30 44687 H 4201.28 -1.46351 0.148289 0
M  V30 44688 H 4203.24 -3.59112 -2.12354 0
M  V30 44689 H 4201.87 -2.45005 -2.10172 0
M  V30 44690 H 4200.92 -3.80281 -0.0951661 0
M  V30 44691 H 4202.23 -4.97612 -0.343998 0
M  V30 44692 H 4201.39 -5.45767 -2.64997 0
M  V30 44693 H 4200.13 -4.20539 -2.46978 0
M  V30 44694 H 4199.13 -5.47107 -0.543523 0
M  V30 44695 H 4200.36 -6.74994 -0.745639 0
M  V30 44696 H 4198.3 -5.91824 -2.82984 0
M  V30 44697 H 4198.22 -7.3342 -1.83387 0
M  V30 44698 H 4199.49 -7.18868 -3.01411 0
M  V30 44699 N 4203.72 -0.165233 -1.56731 0
M  V30 44700 C 4204.63 0.780068 -2.21251 0
M  V30 44701 C 4205.64 1.25781 -1.20229 0
M  V30 44702 O 4206.82 1.31121 -1.5287 0
M  V30 44703 C 4203.88 1.99454 -2.83582 0
M  V30 44704 C 4202.94 1.56427 -3.99786 0
M  V30 44705 C 4202.18 2.72085 -4.59135 0
M  V30 44706 O 4202.4 3.88792 -4.17369 0
M  V30 44707 O 4201.33 2.4651 -5.49105 0
M  V30 44708 H 4205.16 0.26075 -3.02579 0
M  V30 44709 H 4202.75 0.0626753 -1.49268 0
M  V30 44710 H 4204.63 2.70493 -3.23127 0
M  V30 44711 H 4203.3 2.50304 -2.05255 0
M  V30 44712 H 4202.21 0.823564 -3.64922 0
M  V30 44713 H 4203.54 1.10275 -4.79688 0
M  V30 44714 N 4205.19 1.57226 0.108512 0
M  V30 44715 C 4206.14 2.01101 1.13256 0
M  V30 44716 C 4207.11 0.884957 1.40562 0
M  V30 44717 O 4208.3 1.14996 1.52251 0
M  V30 44718 C 4205.44 2.4292 2.4512 0
M  V30 44719 C 4204.55 3.68987 2.24661 0
M  V30 44720 C 4203.68 3.99742 3.49829 0
M  V30 44721 C 4202.72 5.1896 3.24572 0
M  V30 44722 N 4201.86 5.45533 4.41971 0
M  V30 44723 H 4206.7 2.88371 0.751424 0
M  V30 44724 H 4204.24 1.42639 0.359522 0
M  V30 44725 H 4206.2 2.65206 3.22059 0
M  V30 44726 H 4204.83 1.58678 2.81107 0
M  V30 44727 H 4203.88 3.54256 1.38589 0
M  V30 44728 H 4205.19 4.56076 2.01981 0
M  V30 44729 H 4204.34 4.22732 4.35181 0
M  V30 44730 H 4203.08 3.11149 3.7555 0
M  V30 44731 H 4202.09 4.95803 2.37612 0
M  V30 44732 H 4203.31 6.09139 3.00211 0
M  V30 44733 H 4201.26 4.59898 4.67792 0
M  V30 44734 H 4201.18 6.26966 4.22434 0
M  V30 44735 H 4202.44 5.7305 5.28426 0
M  V30 44736 N 4206.67 -0.378982 1.52975 0
M  V30 44737 C 4207.92 -1.12468 1.68757 0
M  V30 44738 C 4208.25 -1.89351 0.431276 0
M  V30 44739 O 4207.53 -1.85924 -0.571171 0
M  V30 44740 C 4207.81 -2.0948 2.92899 0
M  V30 44741 C 4207.66 -1.36295 4.28654 0
M  V30 44742 C 4208.98 -3.09779 3.1261 0
M  V30 44743 H 4206.1 -0.407494 0.614099 0
M  V30 44744 H 4208.74 -0.40694 1.85591 0
M  V30 44745 H 4206.89 -2.70686 2.78678 0
M  V30 44746 H 4208.56 -0.779761 4.54662 0
M  V30 44747 H 4206.81 -0.664776 4.28676 0
M  V30 44748 H 4207.48 -2.07232 5.11624 0
M  V30 44749 H 4209.95 -2.5867 3.25928 0
M  V30 44750 H 4208.83 -3.74894 4.00931 0
M  V30 44751 H 4209.09 -3.79205 2.27279 0
M  V30 44752 N 4208.15 -1.44108 -0.638015 0
M  V30 44753 C 4209.43 -1.37004 -1.39604 0
M  V30 44754 C 4209.81 -0.0253349 -2.11085 0
M  V30 44755 O 4209.16 0.991835 -2.05852 0
M  V30 44756 C 4209.37 -2.56358 -2.36816 0
M  V30 44757 C 4210.71 -3.00118 -3.00357 0
M  V30 44758 O 4211.74 -2.56513 -2.47142 0
M  V30 44759 O 4210.6 -3.75703 -3.96874 0
M  V30 44760 H 4207.69 -0.542197 -0.624461 0
M  V30 44761 H 4210.24 -1.56185 -0.663647 0
M  V30 44762 H 4209.01 -3.45845 -1.83048 0
M  V30 44763 H 4208.63 -2.39355 -3.17482 0
M  V30 44764 N 4209.63 0.877792 -1.30891 0
M  V30 44765 C 4210.86 1.66316 -1.23071 0
M  V30 44766 C 4211.27 1.87681 0.205276 0
M  V30 44767 O 4210.63 1.42941 1.13465 0
M  V30 44768 C 4210.68 3.03553 -1.9631 0
M  V30 44769 O 4210.4 2.83148 -3.34303 0
M  V30 44770 C 4211.9 3.97993 -1.95235 0
M  V30 44771 H 4209.12 0.51876 -0.425592 0
M  V30 44772 H 4211.67 1.0962 -1.72637 0
M  V30 44773 H 4209.82 3.56961 -1.50524 0
M  V30 44774 H 4210.23 3.70261 -3.71493 0
M  V30 44775 H 4211.71 4.9163 -2.51006 0
M  V30 44776 H 4212.19 4.29176 -0.932979 0
M  V30 44777 H 4212.79 3.5052 -2.40864 0
M  V30 44778 N 4211.11 1.13725 1.09108 0
M  V30 44779 C 4212.52 0.876133 1.33402 0
M  V30 44780 C 4212.72 -0.486572 1.95537 0
M  V30 44781 O 4211.78 -1.2324 2.20382 0
M  V30 44782 C 4213.09 2.00329 2.24251 0
M  V30 44783 C 4214.64 2.03576 2.37752 0
M  V30 44784 C 4215.11 3.15564 3.31939 0
M  V30 44785 N 4216.61 3.15095 3.39513 0
M  V30 44786 C 4217.34 3.98387 4.12402 0
M  V30 44787 N 4216.84 4.91701 4.8806 0
M  V30 44788 N 4218.63 3.86474 4.0816 0
M  V30 44789 H 4210.78 2.01505 0.67153 0
M  V30 44790 H 4213.04 0.877647 0.358385 0
M  V30 44791 H 4212.75 2.98598 1.85828 0
M  V30 44792 H 4212.62 1.92025 3.24664 0
M  V30 44793 H 4215.01 1.05918 2.75437 0
M  V30 44794 H 4215.09 2.15952 1.37107 0
M  V30 44795 H 4214.74 4.13463 2.94976 0
M  V30 44796 H 4214.67 3.00425 4.32495 0
M  V30 44797 H 4217.16 2.47505 2.85569 0
M  V30 44798 H 4217.47 5.51736 5.41117 0
M  V30 44799 H 4215.81 4.95704 4.87137 0
M  V30 44800 H 4219.01 3.12898 3.48155 0
M  V30 44801 H 4219.18 4.51614 4.64703 0
M  V30 44802 N 4212.58 -1.27143 0.931254 0
M  V30 44803 C 4213.81 -1.9831 0.589991 0
M  V30 44804 C 4214.23 -1.6944 -0.832806 0
M  V30 44805 O 4213.58 -0.956963 -1.55398 0
M  V30 44806 C 4213.64 -3.52293 0.810654 0
M  V30 44807 O 4213.36 -3.80154 2.17748 0
M  V30 44808 C 4214.86 -4.40709 0.478586 0
M  V30 44809 H 4212.08 -0.632774 0.223245 0
M  V30 44810 H 4214.62 -1.61908 1.24925 0
M  V30 44811 H 4212.78 -3.86893 0.198149 0
M  V30 44812 H 4213.19 -4.74727 2.23012 0
M  V30 44813 H 4214.66 -5.4775 0.683662 0
M  V30 44814 H 4215.14 -4.35273 -0.586026 0
M  V30 44815 H 4215.75 -4.11636 1.06939 0
M  V30 44816 N 4214.06 -0.697157 -1.41342 0
M  V30 44817 C 4215 0.0063558 -2.29199 0
M  V30 44818 C 4216.01 0.74277 -1.44868 0
M  V30 44819 O 4217.2 0.593209 -1.68355 0
M  V30 44820 C 4214.3 1.03311 -3.22769 0
M  V30 44821 C 4213.47 0.365995 -4.35866 0
M  V30 44822 C 4212.53 1.29558 -5.10001 0
M  V30 44823 O 4211.56 0.787363 -5.63728 0
M  V30 44824 N 4212.76 2.62783 -5.17615 0
M  V30 44825 H 4215.52 -0.747935 -2.90217 0
M  V30 44826 H 4213.08 -0.543313 -1.52511 0
M  V30 44827 H 4215.08 1.65676 -3.69234 0
M  V30 44828 H 4213.65 1.68892 -2.63048 0
M  V30 44829 H 4212.87 -0.437553 -3.91764 0
M  V30 44830 H 4214.15 -0.0978207 -5.08706 0
M  V30 44831 H 4213.55 3.06589 -4.75415 0
M  V30 44832 H 4212.11 3.20338 -5.6765 0
M  V30 44833 N 4215.54 1.51274 -0.44202 0
M  V30 44834 C 4216.45 2.31614 0.373104 0
M  V30 44835 C 4217.47 1.40728 1.02331 0
M  V30 44836 O 4218.64 1.73798 1.01765 0
M  V30 44837 C 4215.71 3.14599 1.45699 0
M  V30 44838 C 4214.77 4.2127 0.826434 0
M  V30 44839 C 4214 5.00289 1.85868 0
M  V30 44840 O 4214.23 4.8 3.0815 0
M  V30 44841 O 4213.16 5.84257 1.44661 0
M  V30 44842 H 4216.99 3.0238 -0.282891 0
M  V30 44843 H 4214.57 1.47994 -0.204458 0
M  V30 44844 H 4216.45 3.66176 2.0855 0
M  V30 44845 H 4215.13 2.46593 2.09699 0
M  V30 44846 H 4214.03 3.73759 0.159755 0
M  V30 44847 H 4215.37 4.91663 0.229856 0
M  V30 44848 N 4217.02 0.173543 1.56642 0
M  V30 44849 C 4218.43 -0.342805 1.83526 0
M  V30 44850 C 4218.78 -1.62906 1.09343 0
M  V30 44851 O 4217.91 -2.13597 0.347191 0
M  V30 44852 C 4218.5 -0.628739 3.32915 0
M  V30 44853 C 4217.06 -1.08952 3.60287 0
M  V30 44854 C 4216.21 -0.126572 2.77011 0
M  V30 44855 H 4219.16 0.397763 1.53634 0
M  V30 44856 H 4219.18 -1.48055 3.50514 0
M  V30 44857 H 4218.69 0.307594 3.86879 0
M  V30 44858 H 4216.79 -2.04088 3.11735 0
M  V30 44859 H 4216.91 -0.99714 4.68609 0
M  V30 44860 H 4215.27 -0.624362 2.46929 0
M  V30 44861 H 4216.05 0.803822 3.33757 0
M  V30 44862 N 4218.5 -1.57281 -0.100172 0
M  V30 44863 C 4219.44 -2.01699 -1.12188 0
M  V30 44864 C 4220.41 -0.892399 -1.40091 0
M  V30 44865 O 4221.6 -1.15802 -1.51639 0
M  V30 44866 C 4218.74 -2.44216 -2.43829 0
M  V30 44867 C 4217.85 -3.70173 -2.22701 0
M  V30 44868 C 4216.99 -4.01591 -3.47704 0
M  V30 44869 C 4216.03 -5.20674 -3.21815 0
M  V30 44870 N 4215.16 -5.47869 -4.39071 0
M  V30 44871 H 4220 -2.88765 -0.736121 0
M  V30 44872 H 4217.54 -1.42828 -0.351952 0
M  V30 44873 H 4219.5 -2.6691 -3.20648 0
M  V30 44874 H 4218.13 -1.60167 -2.80261 0
M  V30 44875 H 4217.18 -3.54986 -1.36708 0
M  V30 44876 H 4218.49 -4.5714 -1.9956 0
M  V30 44877 H 4217.65 -4.25034 -4.32933 0
M  V30 44878 H 4216.39 -3.13136 -3.73894 0
M  V30 44879 H 4215.39 -4.97056 -2.34979 0
M  V30 44880 H 4216.62 -6.10722 -2.96976 0
M  V30 44881 H 4214.56 -4.62373 -4.65347 0
M  V30 44882 H 4214.48 -6.29197 -4.19103 0
M  V30 44883 H 4215.75 -5.75844 -5.25379 0
M  V30 44884 N 4219.98 0.370864 -1.53174 0
M  V30 44885 C 4220.89 1.47797 -1.8219 0
M  V30 44886 C 4221.9 1.5886 -0.709898 0
M  V30 44887 O 4223.08 1.74854 -0.999403 0
M  V30 44888 C 4220.14 2.83126 -2.00102 0
M  V30 44889 C 4219.2 2.81634 -3.24007 0
M  V30 44890 C 4218.44 4.10508 -3.41055 0
M  V30 44891 O 4218.66 5.06402 -2.62512 0
M  V30 44892 O 4217.59 4.16642 -4.34389 0
M  V30 44893 H 4221.42 1.26203 -2.76236 0
M  V30 44894 H 4219 0.560459 -1.38489 0
M  V30 44895 H 4220.89 3.63321 -2.13486 0
M  V30 44896 H 4219.56 3.04708 -1.09245 0
M  V30 44897 H 4218.47 2.00156 -3.16051 0
M  V30 44898 H 4219.8 2.65005 -4.14769 0
M  V30 44899 N 4221.45 1.44444 0.630363 0
M  V30 44900 C 4222.7 1.46977 1.38716 0
M  V30 44901 C 4223.02 0.103895 1.94723 0
M  V30 44902 O 4222.29 -0.863888 1.75823 0
M  V30 44903 H 4220.87 0.5412 0.51489 0
M  V30 44904 H 4223.53 1.80228 0.741873 0
M  V30 44905 H 4222.63 2.19561 2.21809 0
M  V30 44906 N 4222.93 -0.870838 1.31355 0
M  V30 44907 C 4224.16 -1.65661 1.23951 0
M  V30 44908 C 4224.57 -1.87787 -0.19532 0
M  V30 44909 O 4223.93 -1.4354 -1.12705 0
M  V30 44910 C 4223.98 -3.02508 1.97917 0
M  V30 44911 O 4223.7 -2.81371 3.358 0
M  V30 44912 C 4225.2 -3.96952 1.97343 0
M  V30 44913 H 4222.42 -0.516496 0.428337 0
M  V30 44914 H 4224.97 -1.08703 1.73216 0
M  V30 44915 H 4223.12 -3.56158 1.52415 0
M  V30 44916 H 4223.54 -3.68286 3.73451 0
M  V30 44917 H 4225.01 -4.90292 2.53609 0
M  V30 44918 H 4225.49 -4.28675 0.955727 0
M  V30 44919 H 4226.09 -3.49238 2.4272 0
M  V30 44920 N 4224.41 -1.14302 -1.08503 0
M  V30 44921 C 4225.36 -0.829049 -2.15396 0
M  V30 44922 C 4226.33 0.212987 -1.64729 0
M  V30 44923 O 4227.51 0.0831289 -1.90619 0
M  V30 44924 C 4224.65 -0.311606 -3.4369 0
M  V30 44925 C 4223.76 -1.41382 -4.08209 0
M  V30 44926 C 4222.9 -0.853731 -5.24295 0
M  V30 44927 C 4221.94 -1.9337 -5.80753 0
M  V30 44928 N 4221.08 -1.39085 -6.88186 0
M  V30 44929 H 4225.92 -1.7446 -2.41594 0
M  V30 44930 H 4223.45 -0.870689 -1.18564 0
M  V30 44931 H 4225.41 0.00660188 -4.17199 0
M  V30 44932 H 4224.04 0.56705 -3.1778 0
M  V30 44933 H 4223.09 -1.84845 -3.3247 0
M  V30 44934 H 4224.4 -2.22968 -4.46192 0
M  V30 44935 H 4223.56 -0.487368 -6.04739 0
M  V30 44936 H 4222.3 -0.0069135 -4.877 0
M  V30 44937 H 4221.3 -2.30902 -4.98963 0
M  V30 44938 H 4222.53 -2.78408 -6.19407 0
M  V30 44939 H 4220.47 -0.566194 -6.53552 0
M  V30 44940 H 4220.39 -2.14308 -7.24988 0
M  V30 44941 H 4221.66 -1.05236 -7.72364 0
M  V30 44942 N 4225.89 1.26648 -0.937984 0
M  V30 44943 C 4226.83 2.26494 -0.443757 0
M  V30 44944 C 4227.8 1.58557 0.494866 0
M  V30 44945 O 4228.99 1.86304 0.411774 0
M  V30 44946 C 4226.13 3.43897 0.287914 0
M  V30 44947 C 4225.24 4.26518 -0.686011 0
M  V30 44948 C 4224.38 5.31158 0.0665369 0
M  V30 44949 C 4223.42 6.05456 -0.899419 0
M  V30 44950 N 4222.55 7.01872 -0.178833 0
M  V30 44951 H 4227.39 2.68142 -1.30015 0
M  V30 44952 H 4224.93 1.31844 -0.652354 0
M  V30 44953 H 4226.89 4.1079 0.72854 0
M  V30 44954 H 4225.52 3.03171 1.10847 0
M  V30 44955 H 4224.57 3.59444 -1.24515 0
M  V30 44956 H 4225.88 4.78047 -1.42381 0
M  V30 44957 H 4225.04 6.04048 0.566596 0
M  V30 44958 H 4223.78 4.8046 0.837242 0
M  V30 44959 H 4222.78 5.31395 -1.41063 0
M  V30 44960 H 4224.01 6.58244 -1.67008 0
M  V30 44961 H 4221.95 6.53489 0.573438 0
M  V30 44962 H 4221.87 7.51138 -0.856023 0
M  V30 44963 H 4223.14 7.78922 0.300237 0
M  V30 44964 N 4227.37 0.704643 1.4097 0
M  V30 44965 C 4228.3 0.0596066 2.33424 0
M  V30 44966 C 4229.28 -0.757395 1.52307 0
M  V30 44967 O 4230.46 -0.708535 1.80813 0
M  V30 44968 C 4227.59 -0.870905 3.36203 0
M  V30 44969 C 4226.55 -0.160333 4.277 0
M  V30 44970 C 4225.87 -1.20582 5.20926 0
M  V30 44971 C 4227.17 0.97887 5.13045 0
M  V30 44972 H 4228.87 0.831811 2.87613 0
M  V30 44973 H 4226.41 0.401452 1.38291 0
M  V30 44974 H 4228.36 -1.33146 3.99813 0
M  V30 44975 H 4227.09 -1.67488 2.80384 0
M  V30 44976 H 4225.75 0.280286 3.65527 0
M  V30 44977 H 4225.4 -2.00256 4.61418 0
M  V30 44978 H 4225.1 -0.735328 5.82981 0
M  V30 44979 H 4226.62 -1.6667 5.87412 0
M  V30 44980 H 4228.03 0.598181 5.70171 0
M  V30 44981 H 4226.43 1.37703 5.84087 0
M  V30 44982 H 4227.5 1.81448 4.49672 0
M  V30 44983 N 4228.84 -1.51038 0.450036 0
M  V30 44984 C 4229.78 -2.24658 -0.400491 0
M  V30 44985 C 4230.76 -1.27104 -1.01407 0
M  V30 44986 O 4231.94 -1.56273 -1.05408 0
M  V30 44987 C 4229.07 -3.00673 -1.55928 0
M  V30 44988 C 4228.11 -4.12985 -1.06515 0
M  V30 44989 S 4228.95 -5.355 0.003141 0
M  V30 44990 C 4230.1 -6.15056 -1.16002 0
M  V30 44991 H 4230.33 -2.96451 0.224505 0
M  V30 44992 H 4227.87 -1.52606 0.23468 0
M  V30 44993 H 4229.83 -3.45065 -2.22352 0
M  V30 44994 H 4228.49 -2.28446 -2.15572 0
M  V30 44995 H 4227.68 -4.65497 -1.93205 0
M  V30 44996 H 4227.28 -3.70921 -0.478947 0
M  V30 44997 H 4229.57 -6.44913 -2.07589 0
M  V30 44998 H 4230.52 -7.04879 -0.674598 0
M  V30 44999 H 4230.92 -5.46753 -1.40432 0
M  V30 45000 N 4230.32 -0.181847 -1.56547 0
M  V30 45001 C 4231.27 0.744303 -2.18469 0
M  V30 45002 C 4232.24 1.21936 -1.12787 0
M  V30 45003 O 4233.42 1.28564 -1.40982 0
M  V30 45004 C 4230.56 1.96381 -2.83775 0
M  V30 45005 C 4229.68 1.53135 -4.03948 0
M  V30 45006 C 4228.81 2.70534 -4.57149 0
M  V30 45007 C 4227.85 2.23829 -5.69708 0
M  V30 45008 N 4226.99 3.34358 -6.17373 0
M  V30 45009 H 4231.83 0.209491 -2.97263 0
M  V30 45010 H 4229.37 0.0916679 -1.46814 0
M  V30 45011 H 4231.32 2.67923 -3.19801 0
M  V30 45012 H 4229.95 2.47215 -2.07568 0
M  V30 45013 H 4229.01 0.712281 -3.73672 0
M  V30 45014 H 4230.32 1.1486 -4.85395 0
M  V30 45015 H 4229.47 3.50218 -4.95411 0
M  V30 45016 H 4228.21 3.12075 -3.7478 0
M  V30 45017 H 4227.22 1.42595 -5.30987 0
M  V30 45018 H 4228.44 1.83334 -6.53885 0
M  V30 45019 H 4226.39 3.75455 -5.37931 0
M  V30 45020 H 4226.3 3.00209 -6.93837 0
M  V30 45021 H 4227.57 4.14295 -6.60287 0
M  V30 45022 N 4231.8 1.57332 0.09183 0
M  V30 45023 C 4233.05 1.85438 0.793439 0
M  V30 45024 C 4233.36 0.771591 1.79738 0
M  V30 45025 O 4234.57 0.939877 2.54713 0
M  V30 45026 C 4233.02 3.2887 1.46194 0
M  V30 45027 C 4232.63 4.45228 0.497599 0
M  V30 45028 C 4234.38 3.66197 2.14709 0
M  V30 45029 C 4232.28 5.79693 1.17088 0
M  V30 45030 H 4231.21 0.691719 0.300068 0
M  V30 45031 H 4233.86 1.83441 0.046422 0
M  V30 45032 H 4232.25 3.25418 2.25653 0
M  V30 45033 H 4233.42 4.60033 -0.26573 0
M  V30 45034 H 4231.74 4.16319 -0.0820222 0
M  V30 45035 H 4234.33 4.63943 2.65821 0
M  V30 45036 H 4234.68 2.94985 2.93751 0
M  V30 45037 H 4235.21 3.71552 1.42106 0
M  V30 45038 H 4231.95 6.54145 0.421201 0
M  V30 45039 H 4231.47 5.68726 1.90555 0
M  V30 45040 H 4233.15 6.24364 1.69643 0
M  V30 45041 N 4233.28 -0.362736 1.53369 0
M  V30 45042 C 4234.51 -1.12562 1.73601 0
M  V30 45043 C 4234.92 -1.82952 0.466279 0
M  V30 45044 O 4234.28 -1.73664 -0.560985 0
M  V30 45045 C 4234.33 -2.15377 2.90336 0
M  V30 45046 O 4234.05 -1.47852 4.12397 0
M  V30 45047 C 4235.55 -3.0419 3.22464 0
M  V30 45048 H 4232.77 -0.336456 0.58055 0
M  V30 45049 H 4235.32 -0.420788 2.00124 0
M  V30 45050 H 4233.47 -2.81454 2.662 0
M  V30 45051 H 4233.88 -2.16379 4.77787 0
M  V30 45052 H 4235.36 -3.72307 4.07544 0
M  V30 45053 H 4235.84 -3.69157 2.37949 0
M  V30 45054 H 4236.44 -2.43726 3.48537 0
M  V30 45055 N 4234.76 -1.44777 -0.622694 0
M  V30 45056 C 4235.72 -1.51923 -1.71616 0
M  V30 45057 C 4236.72 -0.400331 -1.55737 0
M  V30 45058 O 4237.91 -0.663268 -1.61079 0
M  V30 45059 C 4235.04 -1.40128 -3.10768 0
M  V30 45060 H 4236.23 -2.49334 -1.6665 0
M  V30 45061 H 4233.79 -1.31993 -0.837103 0
M  V30 45062 H 4234.52 -0.438431 -3.21323 0
M  V30 45063 H 4234.31 -2.2127 -3.23701 0
M  V30 45064 H 4235.8 -1.48129 -3.90445 0
M  V30 45065 N 4236.23 0.863859 -1.31815 0
M  V30 45066 C 4237.14 2.0041 -1.21955 0
M  V30 45067 C 4238.16 1.73475 -0.135 0
M  V30 45068 O 4239.34 1.98265 -0.353954 0
M  V30 45069 C 4236.4 3.33892 -0.933658 0
M  V30 45070 C 4235.46 3.74109 -2.10572 0
M  V30 45071 C 4234.7 5.01221 -1.83338 0
M  V30 45072 O 4234.92 5.65159 -0.771459 0
M  V30 45073 O 4233.85 5.38351 -2.69187 0
M  V30 45074 H 4237.68 2.11663 -2.1779 0
M  V30 45075 H 4235.26 0.993106 -1.11614 0
M  V30 45076 H 4237.15 4.13923 -0.790324 0
M  V30 45077 H 4235.82 3.237 -0.00538803 0
M  V30 45078 H 4234.73 2.94694 -2.30448 0
M  V30 45079 H 4236.06 3.88935 -3.01646 0
M  V30 45080 N 4237.71 1.14875 1.07895 0
M  V30 45081 C 4238.96 0.93153 1.80815 0
M  V30 45082 C 4239.31 -0.535921 1.84785 0
M  V30 45083 O 4238.61 -1.39206 1.31652 0
M  V30 45084 C 4238.8 1.47273 3.25646 0
M  V30 45085 C 4238.63 2.99127 3.35788 0
M  V30 45086 C 4237.4 3.67623 3.46672 0
M  V30 45087 C 4239.6 3.96954 3.27004 0
M  V30 45088 N 4237.58 5.0734 3.45658 0
M  V30 45089 C 4238.95 5.22955 3.33044 0
M  V30 45090 C 4241.01 3.89001 3.10777 0
M  V30 45091 C 4239.71 6.41931 3.24526 0
M  V30 45092 C 4241.73 5.0753 3.03591 0
M  V30 45093 C 4241.1 6.32402 3.10238 0
M  V30 45094 H 4237.2 0.394464 0.67522 0
M  V30 45095 H 4239.78 1.45981 1.28832 0
M  V30 45096 H 4237.95 0.971153 3.76063 0
M  V30 45097 H 4239.68 1.19489 3.86658 0
M  V30 45098 H 4236.44 3.18194 3.50784 0
M  V30 45099 H 4236.86 5.80294 3.48694 0
M  V30 45100 H 4241.5 2.93329 3.04496 0
M  V30 45101 H 4239.22 7.37842 3.29567 0
M  V30 45102 H 4242.81 5.03132 2.92147 0
M  V30 45103 H 4241.69 7.22578 3.04714 0
M  V30 45104 N 4239.19 -1.26148 0.944687 0
M  V30 45105 C 4240.12 -2.28621 0.47482 0
M  V30 45106 C 4241.1 -1.63371 -0.473714 0
M  V30 45107 O 4242.29 -1.90549 -0.374814 0
M  V30 45108 C 4239.42 -3.46344 -0.257539 0
M  V30 45109 C 4238.37 -4.23706 0.604775 0
M  V30 45110 C 4237.7 -5.34078 -0.257748 0
M  V30 45111 C 4239 -4.87373 1.87789 0
M  V30 45112 H 4240.69 -2.68175 1.33127 0
M  V30 45113 H 4238.24 -1.28918 0.641577 0
M  V30 45114 H 4240.19 -4.17145 -0.597309 0
M  V30 45115 H 4238.91 -3.05753 -1.14815 0
M  V30 45116 H 4237.57 -3.54673 0.927488 0
M  V30 45117 H 4237.22 -4.89729 -1.14782 0
M  V30 45118 H 4236.92 -5.86751 0.315842 0
M  V30 45119 H 4238.44 -6.07716 -0.592708 0
M  V30 45120 H 4239.86 -5.50371 1.60515 0
M  V30 45121 H 4238.26 -5.50178 2.39633 0
M  V30 45122 H 4239.33 -4.10117 2.58712 0
M  V30 45123 N 4240.67 -0.712109 -1.40594 0
M  V30 45124 C 4241.91 -0.259306 -2.0174 0
M  V30 45125 C 4242.27 1.13377 -1.55446 0
M  V30 45126 O 4241.56 1.75749 -0.763085 0
M  V30 45127 C 4241.76 -0.274333 -3.56346 0
M  V30 45128 C 4241.59 -1.66733 -4.17648 0
M  V30 45129 C 4240.36 -2.27416 -4.51232 0
M  V30 45130 C 4242.55 -2.61695 -4.42742 0
M  V30 45131 N 4240.54 -3.59108 -4.9791 0
M  V30 45132 C 4241.91 -3.78088 -4.91375 0
M  V30 45133 C 4243.96 -2.59751 -4.24775 0
M  V30 45134 C 4242.66 -4.92841 -5.23928 0
M  V30 45135 C 4244.69 -3.73628 -4.58428 0
M  V30 45136 C 4244.05 -4.88754 -5.07246 0
M  V30 45137 H 4240.15 -0.140642 -0.769249 0
M  V30 45138 H 4242.74 -0.933157 -1.70881 0
M  V30 45139 H 4240.91 0.369069 -3.86643 0
M  V30 45140 H 4242.64 0.194854 -4.04231 0
M  V30 45141 H 4239.39 -1.79546 -4.38247 0
M  V30 45142 H 4239.82 -4.26657 -5.25635 0
M  V30 45143 H 4244.46 -1.71951 -3.86255 0
M  V30 45144 H 4242.18 -5.81288 -5.61364 0
M  V30 45145 H 4245.76 -3.73395 -4.4617 0
M  V30 45146 H 4244.64 -5.75411 -5.32796 0
M  V30 45147 N 4242.15 1.50797 -0.45804 0
M  V30 45148 C 4243.09 2.28239 0.342872 0
M  V30 45149 C 4244.06 1.32719 0.998737 0
M  V30 45150 O 4245.25 1.61645 1.01368 0
M  V30 45151 C 4242.39 3.14241 1.42641 0
M  V30 45152 C 4241.5 4.24778 0.786623 0
M  V30 45153 C 4240.64 4.98057 1.84695 0
M  V30 45154 C 4239.68 6.00486 1.18671 0
M  V30 45155 N 4238.81 6.67094 2.1893 0
M  V30 45156 H 4243.65 2.96235 -0.323851 0
M  V30 45157 H 4241.19 1.46096 -0.171554 0
M  V30 45158 H 4243.15 3.62445 2.06614 0
M  V30 45159 H 4241.78 2.48318 2.06248 0
M  V30 45160 H 4240.83 3.80384 0.0346546 0
M  V30 45161 H 4242.14 4.98097 0.264789 0
M  V30 45162 H 4241.3 5.49914 2.5628 0
M  V30 45163 H 4240.03 4.24415 2.40256 0
M  V30 45164 H 4239.04 5.47902 0.456414 0
M  V30 45165 H 4240.26 6.76095 0.638159 0
M  V30 45166 H 4238.21 5.96251 2.73533 0
M  V30 45167 H 4238.13 7.36245 1.71696 0
M  V30 45168 H 4239.4 7.23573 2.89936 0
M  V30 45169 N 4243.63 0.190147 1.56449 0
M  V30 45170 C 4244.54 -0.74477 2.22464 0
M  V30 45171 C 4245.55 -1.23853 1.22215 0
M  V30 45172 O 4246.73 -1.28672 1.54937 0
M  V30 45173 C 4243.79 -1.94918 2.86719 0
M  V30 45174 C 4242.85 -1.50047 4.02224 0
M  V30 45175 C 4242.09 -2.64747 4.63406 0
M  V30 45176 O 4242.31 -3.82102 4.23502 0
M  V30 45177 O 4241.24 -2.37743 5.52957 0
M  V30 45178 H 4245.07 -0.21258 3.02955 0
M  V30 45179 H 4242.65 -0.0389201 1.49349 0
M  V30 45180 H 4244.54 -2.65319 3.2739 0
M  V30 45181 H 4243.21 -2.47007 2.09211 0
M  V30 45182 H 4242.12 -0.765404 3.66186 0
M  V30 45183 H 4243.45 -1.0263 4.81381 0
M  V30 45184 N 4245.1 -1.57379 -0.083485 0
M  V30 45185 C 4246.03 -2.05915 -1.10097 0
M  V30 45186 C 4247.01 -0.950322 -1.41078 0
M  V30 45187 O 4248.2 -1.22232 -1.50907 0
M  V30 45188 C 4245.33 -2.49331 -2.41767 0
M  V30 45189 C 4244.28 -3.63983 -2.25167 0
M  V30 45190 C 4243.61 -3.93415 -3.62117 0
M  V30 45191 C 4244.91 -4.94456 -1.68258 0
M  V30 45192 H 4246.6 -2.91171 -0.697125 0
M  V30 45193 H 4244.15 -1.40076 -0.33389 0
M  V30 45194 H 4246.1 -2.81897 -3.13229 0
M  V30 45195 H 4244.83 -1.61089 -2.84109 0
M  V30 45196 H 4243.49 -3.31682 -1.56149 0
M  V30 45197 H 4243.13 -3.02322 -4.02008 0
M  V30 45198 H 4242.83 -4.7061 -3.51853 0
M  V30 45199 H 4244.36 -4.28466 -4.35028 0
M  V30 45200 H 4245.77 -5.25328 -2.29573 0
M  V30 45201 H 4244.17 -5.75893 -1.68721 0
M  V30 45202 H 4245.24 -4.80618 -0.643005 0
M  V30 45203 N 4246.58 0.354597 -1.53559 0
M  V30 45204 C 4247.83 1.0939 -1.69936 0
M  V30 45205 C 4248.15 1.8951 -0.459456 0
M  V30 45206 O 4247.42 1.8869 0.526575 0
M  V30 45207 H 4246 0.406834 -0.626494 0
M  V30 45208 H 4248.66 0.398548 -1.90782 0
M  V30 45209 H 4247.76 1.77752 -2.56536 0
M  V30 45210 N 4248.06 1.45105 0.615008 0
M  V30 45211 C 4249.01 1.53209 1.72614 0
M  V30 45212 C 4249.98 0.378527 1.61729 0
M  V30 45213 O 4251.16 0.590969 1.81417 0
M  V30 45214 C 4248.3 1.49768 3.10908 0
M  V30 45215 C 4247.41 2.7562 3.32652 0
M  V30 45216 C 4246.55 2.63902 4.61009 0
M  V30 45217 C 4245.59 3.84842 4.75986 0
M  V30 45218 N 4244.73 3.71703 5.95635 0
M  V30 45219 H 4249.57 2.48136 1.65023 0
M  V30 45220 H 4247.1 1.23133 0.804771 0
M  V30 45221 H 4249.06 1.45762 3.90908 0
M  V30 45222 H 4247.69 0.583977 3.17474 0
M  V30 45223 H 4246.74 2.89745 2.46479 0
M  V30 45224 H 4248.05 3.65345 3.39594 0
M  V30 45225 H 4247.21 2.5782 5.49194 0
M  V30 45226 H 4245.95 1.71764 4.56452 0
M  V30 45227 H 4244.95 3.91291 3.86227 0
M  V30 45228 H 4246.18 4.78037 4.82346 0
M  V30 45229 H 4244.12 2.82328 5.92138 0
M  V30 45230 H 4244.04 4.55056 6.03705 0
M  V30 45231 H 4245.31 3.6954 6.86338 0
M  V30 45232 N 4249.54 -0.856857 1.32271 0
M  V30 45233 C 4250.48 -1.96525 1.21023 0
M  V30 45234 C 4251.45 -1.6584 0.092914 0
M  V30 45235 O 4252.64 -1.88907 0.268077 0
M  V30 45236 C 4249.78 -3.32136 0.937001 0
M  V30 45237 C 4248.89 -3.75333 2.1389 0
M  V30 45238 C 4248.03 -4.99725 1.80134 0
M  V30 45239 C 4247.07 -5.35407 2.96657 0
M  V30 45240 N 4246.2 -6.50977 2.63008 0
M  V30 45241 H 4251.04 -2.05477 2.15831 0
M  V30 45242 H 4248.58 -1.00573 1.07347 0
M  V30 45243 H 4250.54 -4.10236 0.75909 0
M  V30 45244 H 4249.17 -3.2279 0.0257197 0
M  V30 45245 H 4248.22 -2.92905 2.42716 0
M  V30 45246 H 4249.53 -3.97699 3.01059 0
M  V30 45247 H 4248.69 -5.85527 1.58881 0
M  V30 45248 H 4247.43 -4.79291 0.901746 0
M  V30 45249 H 4246.43 -4.48119 3.18543 0
M  V30 45250 H 4247.66 -5.578 3.87345 0
M  V30 45251 H 4245.6 -6.32064 1.75588 0
M  V30 45252 H 4245.52 -6.73351 3.43708 0
M  V30 45253 H 4246.79 -7.39937 2.45181 0
M  V30 45254 N 4251.02 -1.15446 -1.07285 0
M  V30 45255 C 4251.96 -0.851848 -2.14505 0
M  V30 45256 C 4252.93 0.195504 -1.64945 0
M  V30 45257 O 4254.12 0.0629066 -1.90696 0
M  V30 45258 C 4251.26 -0.348041 -3.4334 0
M  V30 45259 C 4250.37 -1.45704 -4.06687 0
M  V30 45260 C 4249.51 -0.909292 -5.2336 0
M  V30 45261 C 4248.54 -1.99518 -5.7867 0
M  V30 45262 N 4247.68 -1.46376 -6.86672 0
M  V30 45263 H 4252.52 -1.77013 -2.3973 0
M  V30 45264 H 4250.06 -0.883215 -1.17634 0
M  V30 45265 H 4252.02 -0.0376481 -4.17183 0
M  V30 45266 H 4250.65 0.533314 -3.18364 0
M  V30 45267 H 4249.7 -1.88361 -3.30491 0
M  V30 45268 H 4251.01 -2.27687 -4.43802 0
M  V30 45269 H 4250.16 -0.551481 -6.04188 0
M  V30 45270 H 4248.9 -0.0586402 -4.87665 0
M  V30 45271 H 4247.91 -2.36181 -4.96486 0
M  V30 45272 H 4249.13 -2.84962 -6.1642 0
M  V30 45273 H 4247.08 -0.63548 -6.52915 0
M  V30 45274 H 4247 -2.21986 -7.22674 0
M  V30 45275 H 4248.26 -1.13422 -7.71204 0
M  V30 45276 N 4252.49 1.25646 -0.951364 0
M  V30 45277 C 4253.72 1.97346 -0.621465 0
M  V30 45278 C 4254.14 1.70743 0.805744 0
M  V30 45279 O 4253.49 0.981564 1.53856 0
M  V30 45280 C 4253.54 3.50959 -0.866598 0
M  V30 45281 O 4253.27 3.76642 -2.23768 0
M  V30 45282 C 4254.77 4.39892 -0.548638 0
M  V30 45283 H 4251.99 0.629142 -0.233284 0
M  V30 45284 H 4254.53 1.599 -1.27485 0
M  V30 45285 H 4252.69 3.86529 -0.259675 0
M  V30 45286 H 4253.1 4.71119 -2.30536 0
M  V30 45287 H 4254.57 5.46593 -0.770718 0
M  V30 45288 H 4255.05 4.3615 0.516703 0
M  V30 45289 H 4255.66 4.09883 -1.13474 0
M  V30 45290 N 4253.97 0.719555 1.40215 0
M  V30 45291 C 4255.38 0.332662 1.83712 0
M  V30 45292 C 4255.73 -1.13338 1.60153 0
M  V30 45293 O 4254.86 -1.87263 1.0845 0
M  V30 45294 C 4255.45 0.597006 3.33499 0
M  V30 45295 C 4254.01 0.263778 3.75475 0
M  V30 45296 C 4253.16 0.867387 2.63385 0
M  V30 45297 H 4256.11 0.918401 1.29426 0
M  V30 45298 H 4256.13 -0.13643 3.80255 0
M  V30 45299 H 4255.64 1.66408 3.50614 0
M  V30 45300 H 4253.74 -0.798075 3.63953 0
M  V30 45301 H 4253.86 0.735549 4.7342 0
M  V30 45302 H 4252.22 0.295136 2.52984 0
M  V30 45303 H 4253 1.93881 2.83311 0
M  V30 45304 N 4255.45 -1.50552 0.466031 0
M  V30 45305 C 4256.87 -1.59149 0.119895 0
M  V30 45306 C 4257.07 -1.47462 -1.37322 0
M  V30 45307 O 4256.12 -1.33051 -2.14601 0
M  V30 45308 C 4257.43 -2.93241 0.665583 0
M  V30 45309 C 4258.98 -3.06624 0.628561 0
M  V30 45310 C 4259.46 -4.43283 1.15171 0
M  V30 45311 N 4260.95 -4.49681 1.1109 0
M  V30 45312 C 4261.68 -5.53803 1.48625 0
M  V30 45313 N 4261.18 -6.65204 1.93584 0
M  V30 45314 N 4262.97 -5.44319 1.4026 0
M  V30 45315 H 4255.12 -1.56393 1.43719 0
M  V30 45316 H 4257.39 -0.738809 0.594024 0
M  V30 45317 H 4257.09 -3.07254 1.71137 0
M  V30 45318 H 4256.97 -3.7705 0.10633 0
M  V30 45319 H 4259.35 -2.92262 -0.408305 0
M  V30 45320 H 4259.43 -2.24585 1.22456 0
M  V30 45321 H 4259.08 -4.58394 2.18718 0
M  V30 45322 H 4259.01 -5.23906 0.531974 0
M  V30 45323 H 4261.5 -3.6974 0.78109 0
M  V30 45324 H 4261.81 -7.40709 2.20386 0
M  V30 45325 H 4260.16 -6.66338 1.97533 0
M  V30 45326 H 4263.35 -4.56176 1.0498 0
M  V30 45327 H 4263.52 -6.25347 1.69838 0
M  V30 45328 N 4256.93 -0.198441 -1.56346 0
M  V30 45329 C 4257.86 0.760481 -2.15156 0
M  V30 45330 C 4258.84 1.20726 -1.08922 0
M  V30 45331 O 4260.02 1.29417 -1.37053 0
M  V30 45332 C 4257.15 2.02745 -2.71315 0
M  V30 45333 C 4256.2 1.72253 -3.90168 0
M  V30 45334 S 4257.03 0.867687 -5.28424 0
M  V30 45335 C 4258.18 2.14473 -5.88007 0
M  V30 45336 H 4258.42 0.260548 -2.96156 0
M  V30 45337 H 4255.95 0.0165986 -1.54391 0
M  V30 45338 H 4257.91 2.75505 -3.04315 0
M  V30 45339 H 4256.57 2.49851 -1.9035 0
M  V30 45340 H 4255.76 2.66329 -4.27884 0
M  V30 45341 H 4255.36 1.07573 -3.58195 0
M  V30 45342 H 4257.66 3.09697 -6.02573 0
M  V30 45343 H 4258.6 1.81184 -6.84528 0
M  V30 45344 H 4259.01 2.27472 -5.1664 0
M  V30 45345 N 4258.41 1.57421 0.0751377 0
M  V30 45346 C 4259.65 1.88919 0.780307 0
M  V30 45347 C 4260.01 0.791834 1.74911 0
M  V30 45348 O 4261.21 0.989796 2.49913 0
M  V30 45349 C 4259.48 3.2565 1.47264 0
M  V30 45350 S 4261.04 3.78889 2.21333 0
M  V30 45351 H 4257.86 0.66193 0.259556 0
M  V30 45352 H 4260.46 1.95466 0.0365451 0
M  V30 45353 H 4259.17 4.0342 0.753683 0
M  V30 45354 H 4258.7 3.22293 2.2559 0
M  V30 45355 H 4260.71 3.53907 3.47799 0
M  V30 45356 N 4259.88 -0.346449 1.53745 0
M  V30 45357 C 4261.11 -1.10714 1.74785 0
M  V30 45358 C 4261.53 -1.82447 0.485657 0
M  V30 45359 O 4260.88 -1.74249 -0.542534 0
M  V30 45360 C 4260.94 -2.12285 2.92604 0
M  V30 45361 O 4260.66 -1.4347 4.13942 0
M  V30 45362 C 4262.16 -3.00753 3.25673 0
M  V30 45363 H 4259.38 -0.330279 0.584086 0
M  V30 45364 H 4261.92 -0.399538 2.00559 0
M  V30 45365 H 4260.08 -2.78615 2.6917 0
M  V30 45366 H 4260.49 -2.11299 4.80055 0
M  V30 45367 H 4261.96 -3.67963 4.1147 0
M  V30 45368 H 4262.44 -3.66612 2.41851 0
M  V30 45369 H 4263.05 -2.40015 3.51102 0
M  V30 45370 N 4261.36 -1.45429 -0.607304 0
M  V30 45371 C 4262.78 -1.29841 -0.928087 0
M  V30 45372 C 4262.98 -0.251649 -1.99922 0
M  V30 45373 O 4262.03 0.35431 -2.50002 0
M  V30 45374 C 4263.35 -2.67742 -1.36875 0
M  V30 45375 C 4264.9 -2.75641 -1.48294 0
M  V30 45376 C 4265.37 -4.14067 -1.95735 0
M  V30 45377 N 4266.86 -4.16363 -2.02969 0
M  V30 45378 C 4267.6 -5.20341 -2.40899 0
M  V30 45379 N 4267.09 -6.34666 -2.77796 0
M  V30 45380 N 4268.89 -5.077 -2.4124 0
M  V30 45381 H 4261.04 -2.12161 0.100679 0
M  V30 45382 H 4263.3 -0.947836 -0.0176143 0
M  V30 45383 H 4263.01 -3.45531 -0.655862 0
M  V30 45384 H 4262.88 -2.96223 -2.3352 0
M  V30 45385 H 4265.27 -1.98156 -2.18674 0
M  V30 45386 H 4265.35 -2.50873 -0.499623 0
M  V30 45387 H 4264.99 -4.92037 -1.25943 0
M  V30 45388 H 4264.92 -4.36226 -2.94981 0
M  V30 45389 H 4267.41 -3.33863 -1.77043 0
M  V30 45390 H 4267.73 -7.098 -3.05621 0
M  V30 45391 H 4266.07 -6.38067 -2.75491 0
M  V30 45392 H 4269.26 -4.17432 -2.11821 0
M  V30 45393 H 4269.43 -5.88853 -2.70475 0
M  V30 45394 N 4262.84 0.84983 -1.32724 0
M  V30 45395 C 4263.75 1.99105 -1.24073 0
M  V30 45396 C 4264.77 1.73323 -0.153392 0
M  V30 45397 O 4265.94 1.97879 -0.374963 0
M  V30 45398 C 4263.01 3.32883 -0.969019 0
M  V30 45399 C 4262.07 3.71855 -2.14528 0
M  V30 45400 C 4261.3 4.99249 -1.88643 0
M  V30 45401 O 4261.52 5.64309 -0.831358 0
M  V30 45402 O 4260.46 5.35466 -2.74882 0
M  V30 45403 H 4264.28 2.09341 -2.20023 0
M  V30 45404 H 4261.87 0.981212 -1.12661 0
M  V30 45405 H 4263.75 4.13061 -0.834182 0
M  V30 45406 H 4262.43 3.23676 -0.0397204 0
M  V30 45407 H 4261.33 2.92233 -2.33561 0
M  V30 45408 H 4262.67 3.85714 -3.05754 0
M  V30 45409 N 4264.32 1.16013 1.06671 0
M  V30 45410 C 4265.23 0.877424 2.17574 0
M  V30 45411 C 4266.24 -0.148888 1.73362 0
M  V30 45412 O 4267.42 0.0268405 2.01382 0
M  V30 45413 C 4264.49 0.378283 3.4463 0
M  V30 45414 C 4263.55 1.46935 4.03372 0
M  V30 45415 C 4262.78 0.993929 5.24363 0
M  V30 45416 O 4263 -0.157824 5.70182 0
M  V30 45417 O 4261.94 1.78062 5.74959 0
M  V30 45418 H 4265.76 1.80472 2.44261 0
M  V30 45419 H 4263.35 0.939797 1.16139 0
M  V30 45420 H 4265.23 0.106718 4.21265 0
M  V30 45421 H 4263.9 -0.521057 3.19479 0
M  V30 45422 H 4262.81 1.79461 3.28245 0
M  V30 45423 H 4264.14 2.34385 4.3281 0
M  V30 45424 N 4265.8 -1.25139 0.958014 0
M  V30 45425 C 4267.04 -1.92947 0.614626 0
M  V30 45426 C 4267.37 -1.75 -0.848838 0
M  V30 45427 O 4266.63 -1.09072 -1.62486 0
M  V30 45428 C 4266.93 -3.4526 0.923584 0
M  V30 45429 C 4266.59 -3.83366 2.37363 0
M  V30 45430 C 4265.25 -3.9348 2.76997 0
M  V30 45431 C 4267.61 -4.02178 3.31515 0
M  V30 45432 C 4264.93 -4.19814 4.09845 0
M  V30 45433 C 4267.29 -4.30006 4.63981 0
M  V30 45434 C 4265.95 -4.38336 5.03406 0
M  V30 45435 H 4265.22 -0.706044 0.224908 0
M  V30 45436 H 4267.87 -1.48618 1.20768 0
M  V30 45437 H 4266.17 -3.91013 0.248171 0
M  V30 45438 H 4267.87 -3.95917 0.636426 0
M  V30 45439 H 4264.46 -3.76053 2.05626 0
M  V30 45440 H 4268.64 -3.93776 3.02083 0
M  V30 45441 H 4263.9 -4.2448 4.4003 0
M  V30 45442 H 4268.07 -4.43506 5.36913 0
M  V30 45443 H 4265.7 -4.58495 6.06371 0
M  V30 45444 N 4267.27 -0.726981 -1.39831 0
M  V30 45445 C 4268.5 -0.281419 -2.04977 0
M  V30 45446 C 4268.92 1.08089 -1.54797 0
M  V30 45447 O 4268.27 1.68148 -0.709405 0
M  V30 45448 C 4268.33 -0.265247 -3.60526 0
M  V30 45449 O 4268.05 -1.57378 -4.08857 0
M  V30 45450 C 4269.55 0.197469 -4.4286 0
M  V30 45451 H 4266.77 -0.124378 -0.659372 0
M  V30 45452 H 4269.31 -0.988384 -1.79029 0
M  V30 45453 H 4267.47 0.392767 -3.85404 0
M  V30 45454 H 4267.88 -1.48192 -5.0313 0
M  V30 45455 H 4269.35 0.15763 -5.51775 0
M  V30 45456 H 4269.83 1.24142 -4.2129 0
M  V30 45457 H 4270.44 -0.430685 -4.23114 0
M  V30 45458 N 4268.75 1.50303 -0.474008 0
M  V30 45459 C 4269.7 2.2859 0.318645 0
M  V30 45460 C 4270.67 1.33771 0.984604 0
M  V30 45461 O 4271.85 1.62711 0.99648 0
M  V30 45462 C 4268.99 3.15737 1.393 0
M  V30 45463 C 4268.11 4.25588 0.741525 0
M  V30 45464 C 4267.24 4.99988 1.79402 0
M  V30 45465 C 4266.28 6.01711 1.12295 0
M  V30 45466 N 4265.42 6.69378 2.11843 0
M  V30 45467 H 4270.26 2.95875 -0.355252 0
M  V30 45468 H 4267.8 1.45906 -0.187039 0
M  V30 45469 H 4269.75 3.64616 2.02758 0
M  V30 45470 H 4268.38 2.50492 2.03602 0
M  V30 45471 H 4267.44 3.804 -0.00569214 0
M  V30 45472 H 4268.75 4.9835 0.211944 0
M  V30 45473 H 4267.9 5.52601 2.50433 0
M  V30 45474 H 4266.64 4.2694 2.35741 0
M  V30 45475 H 4265.65 5.48356 0.398276 0
M  V30 45476 H 4266.87 6.76734 0.566414 0
M  V30 45477 H 4264.82 5.99119 2.67194 0
M  V30 45478 H 4264.73 7.38025 1.63877 0
M  V30 45479 H 4266 7.26607 2.82245 0
M  V30 45480 N 4270.23 0.20673 1.56238 0
M  V30 45481 C 4271.18 -0.709452 2.19626 0
M  V30 45482 C 4272.15 -1.20126 1.14712 0
M  V30 45483 O 4273.33 -1.26304 1.4301 0
M  V30 45484 C 4270.47 -1.91842 2.86864 0
M  V30 45485 C 4269.59 -1.46689 4.06333 0
M  V30 45486 C 4268.72 -2.63227 4.61395 0
M  V30 45487 C 4267.76 -2.14737 5.73197 0
M  V30 45488 N 4266.9 -3.24494 6.22614 0
M  V30 45489 H 4271.74 -0.162173 2.97558 0
M  V30 45490 H 4269.27 -0.0682994 1.46941 0
M  V30 45491 H 4271.23 -2.62802 3.24023 0
M  V30 45492 H 4269.86 -2.43882 2.11475 0
M  V30 45493 H 4268.91 -0.652743 3.74758 0
M  V30 45494 H 4270.23 -1.07123 4.87161 0
M  V30 45495 H 4269.38 -3.42292 5.0092 0
M  V30 45496 H 4268.12 -3.06073 3.79698 0
M  V30 45497 H 4267.12 -1.34129 5.33188 0
M  V30 45498 H 4268.35 -1.72908 6.56719 0
M  V30 45499 H 4266.29 -3.6685 5.43836 0
M  V30 45500 H 4266.21 -2.89133 6.98526 0
M  V30 45501 H 4267.48 -4.03738 6.66795 0
M  V30 45502 N 4271.71 -1.57458 -0.0667882 0
M  V30 45503 C 4272.95 -1.87772 -0.766126 0
M  V30 45504 C 4273.29 -0.799675 -1.76971 0
M  V30 45505 O 4272.56 0.18952 -1.93574 0
M  V30 45506 C 4272.85 -3.28746 -1.46963 0
M  V30 45507 C 4272.7 -4.47209 -0.482117 0
M  V30 45508 C 4274.02 -3.68033 -2.41329 0
M  V30 45509 H 4271.14 -0.682942 -0.277054 0
M  V30 45510 H 4273.78 -1.89977 -0.0292417 0
M  V30 45511 H 4271.93 -3.26997 -2.09775 0
M  V30 45512 H 4273.6 -4.61084 0.141177 0
M  V30 45513 H 4271.84 -4.33329 0.202117 0
M  V30 45514 H 4272.51 -5.42643 -1.01208 0
M  V30 45515 H 4274.99 -3.70908 -1.88591 0
M  V30 45516 H 4273.87 -4.67551 -2.87554 0
M  V30 45517 H 4274.13 -2.98235 -3.26356 0
M  V30 45518 N 4273.19 0.33829 -1.53926 0
M  V30 45519 C 4274.6 0.681726 -1.44308 0
M  V30 45520 C 4274.8 1.92233 -0.604056 0
M  V30 45521 O 4273.86 2.52313 -0.0970918 0
M  V30 45522 C 4275.17 0.869462 -2.87856 0
M  V30 45523 C 4276.72 0.967745 -2.97664 0
M  V30 45524 C 4277.2 1.18776 -4.42331 0
M  V30 45525 N 4278.69 1.25484 -4.45879 0
M  V30 45526 C 4279.42 1.44268 -5.54954 0
M  V30 45527 N 4278.92 1.60191 -6.74026 0
M  V30 45528 N 4280.71 1.46858 -5.42576 0
M  V30 45529 H 4272.86 -0.477325 -2.06967 0
M  V30 45530 H 4275.12 -0.151656 -0.935791 0
M  V30 45531 H 4274.83 0.0293127 -3.51688 0
M  V30 45532 H 4274.7 1.76966 -3.33111 0
M  V30 45533 H 4277.09 1.79841 -2.33968 0
M  V30 45534 H 4277.17 0.0443398 -2.55762 0
M  V30 45535 H 4276.82 0.362002 -5.06608 0
M  V30 45536 H 4276.75 2.12481 -4.81829 0
M  V30 45537 H 4279.24 1.14682 -3.60078 0
M  V30 45538 H 4279.55 1.74175 -7.52916 0
M  V30 45539 H 4277.9 1.57317 -6.76961 0
M  V30 45540 H 4281.09 1.34004 -4.48509 0
M  V30 45541 H 4281.26 1.61156 -6.27641 0
M  V30 45542 N 4274.67 1.45749 0.599583 0
M  V30 45543 C 4275.89 1.53956 1.38969 0
M  V30 45544 C 4276.32 0.175651 1.87278 0
M  V30 45545 O 4275.67 -0.841194 1.60604 0
M  V30 45546 C 4275.72 2.53479 2.56478 0
M  V30 45547 O 4274.83 2.05814 3.57372 0
M  V30 45548 H 4274.17 0.518689 0.414558 0
M  V30 45549 H 4276.7 1.91174 0.728939 0
M  V30 45550 H 4276.71 2.72544 3.03618 0
M  V30 45551 H 4275.38 3.52533 2.20666 0
M  V30 45552 H 4273.96 1.96661 3.16826 0
M  V30 45553 N 4276.14 -0.84278 1.33173 0
M  V30 45554 C 4277.09 -1.97371 1.23076 0
M  V30 45555 C 4278.09 -1.68877 0.132968 0
M  V30 45556 O 4279.29 -1.77538 0.296674 0
M  V30 45557 H 4275.67 -0.64785 0.38183 0
M  V30 45558 H 4277.64 -2.03012 2.18697 0
M  V30 45559 C 4276.39 -3.3352 0.982836 0
M  V30 45560 H 4275.71 -3.55982 1.81981 0
M  V30 45561 H 4277.15 -4.13163 0.952477 0
M  V30 45562 C 4275.61 -3.35431 -0.314293 0
M  V30 45563 O 4276.14 -3.79313 -1.32228 0
M  V30 45564 N 4274.34 -2.88599 -0.340455 0
M  V30 45565 H 4273.89 -2.53082 0.480363 0
M  V30 45566 H 4273.85 -2.9026 -1.20817 0
M  V30 45567 N 4277.62 -1.16577 -1.06054 0
M  V30 45568 C 4278.58 -0.876966 -2.11759 0
M  V30 45569 C 4279.58 0.129095 -1.60281 0
M  V30 45570 O 4280.77 -0.102076 -1.73901 0
M  V30 45571 C 4277.91 -0.311932 -3.3947 0
M  V30 45572 H 4279.1 -1.81407 -2.38813 0
M  V30 45573 H 4276.65 -0.975043 -1.22158 0
M  V30 45574 H 4277.39 0.632741 -3.18067 0
M  V30 45575 H 4277.17 -1.0369 -3.78141 0
M  V30 45576 H 4278.66 -0.127894 -4.17404 0
M  V30 45577 N 4279.1 1.2463 -0.964637 0
M  V30 45578 C 4280.06 2.23741 -0.497245 0
M  V30 45579 C 4281.06 1.55628 0.404542 0
M  V30 45580 O 4282.25 1.73043 0.20043 0
M  V30 45581 C 4279.38 3.39746 0.280288 0
M  V30 45582 H 4280.58 2.66605 -1.37339 0
M  V30 45583 H 4278.13 1.3719 -0.748913 0
M  V30 45584 H 4278.87 3.02317 1.17367 0
M  V30 45585 H 4278.65 3.9038 -0.366809 0
M  V30 45586 H 4280.14 4.13319 0.596429 0
M  V30 45587 N 4280.58 0.734386 1.39444 0
M  V30 45588 C 4281.51 0.109106 2.33245 0
M  V30 45589 C 4282.49 -0.724918 1.5388 0
M  V30 45590 O 4283.67 -0.670023 1.82275 0
M  V30 45591 C 4280.8 -0.799395 3.37975 0
M  V30 45592 C 4279.76 -0.0695756 4.27943 0
M  V30 45593 C 4279.08 -1.09505 5.23367 0
M  V30 45594 C 4280.38 1.08747 5.10853 0
M  V30 45595 H 4282.08 0.892631 2.85784 0
M  V30 45596 H 4279.62 0.430696 1.37408 0
M  V30 45597 H 4281.58 -1.24636 4.02547 0
M  V30 45598 H 4280.3 -1.61503 2.83874 0
M  V30 45599 H 4278.96 0.357757 3.6485 0
M  V30 45600 H 4278.61 -1.90423 4.65562 0
M  V30 45601 H 4278.31 -0.611503 5.84409 0
M  V30 45602 H 4279.83 -1.54173 5.90816 0
M  V30 45603 H 4281.25 0.718988 5.68774 0
M  V30 45604 H 4279.64 1.50062 5.81035 0
M  V30 45605 H 4280.71 1.90945 4.45722 0
M  V30 45606 N 4282.06 -1.50049 0.481972 0
M  V30 45607 C 4283.3 -2.01982 -0.0691055 0
M  V30 45608 C 4283.62 -1.36528 -1.39231 0
M  V30 45609 O 4282.89 -0.514207 -1.89031 0
M  V30 45610 H 4281.47 -0.746455 -0.0285287 0
M  V30 45611 H 4284.14 -1.8427 0.634877 0
M  V30 45612 H 4283.23 -3.11374 -0.212688 0
M  V30 45613 N 4283.53 -0.215012 -1.56126 0
M  V30 45614 C 4284.5 0.684213 -2.18749 0
M  V30 45615 C 4285.5 1.12646 -1.1475 0
M  V30 45616 O 4286.69 1.03632 -1.40022 0
M  V30 45617 C 4283.82 1.93651 -2.80557 0
M  V30 45618 H 4285.01 0.138337 -2.99581 0
M  V30 45619 H 4282.56 0.0346083 -1.56262 0
M  V30 45620 H 4283.3 2.52441 -2.03578 0
M  V30 45621 H 4283.08 1.62793 -3.56708 0
M  V30 45622 H 4284.57 2.57731 -3.28579 0
M  V30 45623 N 4285.01 1.57492 0.0584368 0
M  V30 45624 C 4286.26 1.8708 0.753927 0
M  V30 45625 C 4286.57 0.809543 1.78061 0
M  V30 45626 O 4287.78 0.993694 2.52662 0
M  V30 45627 C 4286.24 3.31897 1.39186 0
M  V30 45628 C 4285.84 4.46183 0.403047 0
M  V30 45629 C 4287.59 3.70669 2.06893 0
M  V30 45630 C 4285.49 5.82047 1.04765 0
M  V30 45631 H 4284.42 0.697928 0.285328 0
M  V30 45632 H 4287.08 1.83498 0.00750095 0
M  V30 45633 H 4285.46 3.30131 2.187 0
M  V30 45634 H 4286.63 4.59366 -0.363251 0
M  V30 45635 H 4284.95 4.16052 -0.170311 0
M  V30 45636 H 4287.54 4.69477 2.55921 0
M  V30 45637 H 4287.89 3.0115 2.87427 0
M  V30 45638 H 4288.42 3.74482 1.34193 0
M  V30 45639 H 4285.16 6.54892 0.282353 0
M  V30 45640 H 4284.68 5.7264 1.78449 0
M  V30 45641 H 4286.36 6.27822 1.56361 0
M  V30 45642 N 4286.49 -0.330122 1.54104 0
M  V30 45643 C 4287.74 -1.06883 1.71995 0
M  V30 45644 C 4288.06 -1.88222 0.490175 0
M  V30 45645 O 4287.32 -1.8844 -0.528092 0
M  V30 45646 C 4287.62 -2.02696 2.94362 0
M  V30 45647 C 4287.28 -1.37564 4.29403 0
M  V30 45648 C 4285.95 -1.19532 4.66118 0
M  V30 45649 C 4288.3 -0.907613 5.13237 0
M  V30 45650 C 4285.63 -0.533344 5.84271 0
M  V30 45651 C 4287.98 -0.259492 6.32068 0
M  V30 45652 C 4286.64 -0.0669584 6.67466 0
M  V30 45653 H 4285.91 -0.391114 0.629373 0
M  V30 45654 H 4288.56 -0.346668 1.88336 0
M  V30 45655 H 4286.86 -2.81342 2.7268 0
M  V30 45656 H 4288.56 -2.59871 3.05398 0
M  V30 45657 H 4285.15 -1.52601 4.00513 0
M  V30 45658 H 4289.34 -1.03474 4.85393 0
M  V30 45659 H 4284.59 -0.372914 6.10262 0
M  V30 45660 H 4288.77 0.111201 6.96311 0
M  V30 45661 H 4286.39 0.44802 7.58879 0
M  V30 45662 N 4287.97 -1.46065 -0.591845 0
M  V30 45663 C 4289.2 -1.54456 -1.37663 0
M  V30 45664 C 4289.61 -0.182513 -1.87916 0
M  V30 45665 O 4288.97 0.818663 -1.63108 0
M  V30 45666 C 4289.02 -2.5419 -2.57041 0
M  V30 45667 O 4288.74 -3.85103 -2.08872 0
M  V30 45668 C 4290.24 -2.72432 -3.49708 0
M  V30 45669 H 4287.46 -0.522605 -0.420863 0
M  V30 45670 H 4290.01 -1.91393 -0.720353 0
M  V30 45671 H 4288.16 -2.20281 -3.18677 0
M  V30 45672 H 4288.57 -4.39306 -2.8655 0
M  V30 45673 H 4290.05 -3.46158 -4.29975 0
M  V30 45674 H 4290.53 -1.79017 -4.01061 0
M  V30 45675 H 4291.13 -3.074 -2.93914 0
M  V30 45676 N 4289.45 0.835705 -1.33618 0
M  V30 45677 C 4290.72 1.57602 -1.15849 0
M  V30 45678 C 4291.1 2.09315 0.273914 0
M  V30 45679 O 4290.45 1.89727 1.27342 0
M  V30 45680 C 4290.66 2.7074 -2.20229 0
M  V30 45681 C 4292.01 3.39839 -2.54548 0
M  V30 45682 O 4293.03 2.80985 -2.1892 0
M  V30 45683 O 4291.89 4.4609 -3.15699 0
M  V30 45684 H 4288.99 0.694965 -0.448277 0
M  V30 45685 H 4291.53 0.878186 -1.4521 0
M  V30 45686 H 4290.3 2.3019 -3.1643 0
M  V30 45687 H 4289.93 3.48185 -1.91971 0
M  V30 45688 N 4290.92 1.17138 1.05434 0
M  V30 45689 C 4291.83 0.900451 2.16631 0
M  V30 45690 C 4292.85 -0.130492 1.7351 0
M  V30 45691 O 4294.03 0.0481983 2.01342 0
M  V30 45692 C 4291.09 0.414815 3.44209 0
M  V30 45693 C 4290.15 1.51205 4.0179 0
M  V30 45694 C 4289.39 1.04949 5.23279 0
M  V30 45695 O 4289.61 -0.0973402 5.70317 0
M  V30 45696 O 4288.54 1.8415 5.73038 0
M  V30 45697 H 4292.37 1.83053 2.42333 0
M  V30 45698 H 4289.95 0.952062 1.15135 0
M  V30 45699 H 4291.84 0.151393 4.21128 0
M  V30 45700 H 4290.51 -0.487143 3.20013 0
M  V30 45701 H 4289.42 1.82932 3.26323 0
M  V30 45702 H 4290.75 2.38963 4.303 0
M  V30 45703 N 4292.4 -1.24116 0.971232 0
M  V30 45704 C 4293.35 -2.27245 0.496224 0
M  V30 45705 C 4294.34 -1.63531 -0.442055 0
M  V30 45706 O 4295.55 -1.77187 -0.316956 0
M  V30 45707 H 4291.93 -0.738469 0.142015 0
M  V30 45708 H 4293.9 -2.64681 1.37792 0
M  V30 45709 C 4292.65 -3.47155 -0.194644 0
M  V30 45710 H 4291.97 -3.96427 0.518239 0
M  V30 45711 H 4293.41 -4.2115 -0.490779 0
M  V30 45712 C 4291.87 -3.05381 -1.42282 0
M  V30 45713 O 4292.4 -3.12853 -2.51964 0
M  V30 45714 N 4290.6 -2.60392 -1.29014 0
M  V30 45715 H 4290.15 -2.54511 -0.397708 0
M  V30 45716 H 4290.11 -2.32807 -2.11301 0
M  V30 45717 N 4293.88 -0.741771 -1.39052 0
M  V30 45718 C 4294.83 -0.106238 -2.30555 0
M  V30 45719 C 4295.8 0.722408 -1.49568 0
M  V30 45720 O 4296.98 0.680976 -1.78234 0
M  V30 45721 C 4294.12 0.789954 -3.35937 0
M  V30 45722 C 4293.24 -0.0520399 -4.31969 0
M  V30 45723 C 4292.37 0.846054 -5.24419 0
M  V30 45724 C 4291.41 -0.000285036 -6.121 0
M  V30 45725 N 4290.55 0.854114 -6.96885 0
M  V30 45726 H 4295.39 -0.892163 -2.84332 0
M  V30 45727 H 4292.92 -0.451607 -1.39996 0
M  V30 45728 H 4294.88 1.32406 -3.95632 0
M  V30 45729 H 4293.51 1.54178 -2.836 0
M  V30 45730 H 4292.56 -0.703645 -3.73836 0
M  V30 45731 H 4293.88 -0.706148 -4.93776 0
M  V30 45732 H 4293.03 1.44776 -5.89173 0
M  V30 45733 H 4291.77 1.53393 -4.62949 0
M  V30 45734 H 4290.77 -0.614744 -5.46352 0
M  V30 45735 H 4292 -0.68504 -6.75636 0
M  V30 45736 H 4289.94 1.52715 -6.37977 0
M  V30 45737 H 4289.86 0.256639 -7.55564 0
M  V30 45738 H 4291.13 1.44117 -7.66062 0
M  V30 45739 N 4295.36 1.49792 -0.489923 0
M  V30 45740 C 4296.6 2.03337 0.0506355 0
M  V30 45741 C 4296.96 1.36387 1.35707 0
M  V30 45742 O 4296.25 0.486823 1.85312 0
M  V30 45743 C 4296.45 3.56371 0.270996 0
M  V30 45744 C 4296.28 4.38153 -1.01253 0
M  V30 45745 C 4295.05 4.80578 -1.56119 0
M  V30 45746 C 4297.24 4.77402 -1.91291 0
M  V30 45747 N 4295.23 5.46748 -2.79177 0
M  V30 45748 C 4296.6 5.43176 -2.98931 0
M  V30 45749 C 4298.65 4.59348 -1.92103 0
M  V30 45750 C 4297.35 5.92809 -4.07395 0
M  V30 45751 C 4299.38 5.09934 -2.99535 0
M  V30 45752 C 4298.74 5.757 -4.05893 0
M  V30 45753 H 4294.84 0.781691 -0.0219736 0
M  V30 45754 H 4297.43 1.83089 -0.662321 0
M  V30 45755 H 4295.6 3.76527 0.953001 0
M  V30 45756 H 4297.33 3.96561 0.807573 0
M  V30 45757 H 4294.08 4.60461 -1.10782 0
M  V30 45758 H 4294.51 5.84427 -3.41722 0
M  V30 45759 H 4299.15 4.07919 -1.11185 0
M  V30 45760 H 4296.87 6.43265 -4.89117 0
M  V30 45761 H 4300.45 4.97783 -3.01169 0
M  V30 45762 H 4299.33 6.14135 -4.87655 0
M  V30 45763 N 4296.84 0.223289 1.5601 0
M  V30 45764 C 4297.78 -0.686118 2.20366 0
M  V30 45765 C 4298.75 -1.18903 1.1598 0
M  V30 45766 O 4299.94 -1.2478 1.44342 0
M  V30 45767 C 4297.08 -1.88788 2.88882 0
M  V30 45768 C 4296.19 -1.42371 4.07866 0
M  V30 45769 C 4295.33 -2.58318 4.64161 0
M  V30 45770 C 4294.37 -2.08646 5.75442 0
M  V30 45771 N 4293.5 -3.17872 6.26021 0
M  V30 45772 H 4298.34 -0.130604 2.97714 0
M  V30 45773 H 4295.88 -0.0527105 1.47006 0
M  V30 45774 H 4297.84 -2.5935 3.26792 0
M  V30 45775 H 4296.47 -2.41625 2.14049 0
M  V30 45776 H 4295.52 -0.612958 3.75429 0
M  V30 45777 H 4296.83 -1.0195 4.8827 0
M  V30 45778 H 4295.99 -3.3696 5.04523 0
M  V30 45779 H 4294.72 -3.02029 3.82923 0
M  V30 45780 H 4293.73 -1.28467 5.34581 0
M  V30 45781 H 4294.95 -1.65932 6.58516 0
M  V30 45782 H 4292.9 -3.61061 5.47696 0
M  V30 45783 H 4292.82 -2.81708 7.01553 0
M  V30 45784 H 4294.09 -3.96643 6.7104 0
M  V30 45785 N 4298.31 -1.5752 -0.0500839 0
M  V30 45786 C 4299.54 -1.92928 -0.761163 0
M  V30 45787 C 4299.96 -0.821576 -1.69209 0
M  V30 45788 O 4299.32 0.224215 -1.79908 0
M  V30 45789 C 4299.37 -3.27353 -1.51236 0
M  V30 45790 O 4298.47 -3.18118 -2.62439 0
M  V30 45791 H 4297.82 -0.631167 -0.206213 0
M  V30 45792 H 4300.35 -2.04597 -0.0118349 0
M  V30 45793 H 4300.36 -3.61746 -1.8869 0
M  V30 45794 H 4299.03 -4.07545 -0.829463 0
M  V30 45795 H 4297.61 -2.95322 -2.27683 0
M  V30 45796 N 4299.79 0.321945 -1.54277 0
M  V30 45797 C 4300.76 1.37928 -1.83053 0
M  V30 45798 C 4301.76 1.44647 -0.702418 0
M  V30 45799 O 4302.95 1.44646 -0.970727 0
M  V30 45800 C 4300.08 2.76643 -1.99202 0
M  V30 45801 H 4301.27 1.13666 -2.77525 0
M  V30 45802 H 4298.82 0.557515 -1.46019 0
M  V30 45803 H 4299.56 3.06158 -1.06947 0
M  V30 45804 H 4299.34 2.7316 -2.81294 0
M  V30 45805 H 4300.83 3.53131 -2.22908 0
M  V30 45806 N 4301.27 1.46377 0.58409 0
M  V30 45807 C 4302.69 1.31301 0.907313 0
M  V30 45808 C 4302.89 0.283423 1.99497 0
M  V30 45809 O 4301.94 -0.314492 2.50534 0
M  V30 45810 C 4303.26 2.69886 1.32598 0
M  V30 45811 C 4304.8 2.77965 1.4389 0
M  V30 45812 C 4305.28 4.17129 1.89123 0
M  V30 45813 N 4306.77 4.19539 1.96319 0
M  V30 45814 C 4307.5 5.24108 2.3259 0
M  V30 45815 N 4307 6.39005 2.67664 0
M  V30 45816 N 4308.79 5.11474 2.33133 0
M  V30 45817 H 4300.94 2.11974 -0.134419 0
M  V30 45818 H 4303.21 0.947997 0.00253286 0
M  V30 45819 H 4302.91 3.4653 0.600808 0
M  V30 45820 H 4302.79 2.99901 2.28778 0
M  V30 45821 H 4305.17 2.0161 2.15494 0
M  V30 45822 H 4305.26 2.51636 0.459648 0
M  V30 45823 H 4304.9 4.93979 1.18099 0
M  V30 45824 H 4304.83 4.40864 2.88004 0
M  V30 45825 H 4307.32 3.36637 1.71709 0
M  V30 45826 H 4307.63 7.14572 2.9429 0
M  V30 45827 H 4305.98 6.42369 2.65305 0
M  V30 45828 H 4309.17 4.20749 2.05154 0
M  V30 45829 H 4309.34 5.93081 2.61072 0
M  V30 45830 N 4302.75 -0.828607 1.34059 0
M  V30 45831 C 4303.66 -1.97106 1.27225 0
M  V30 45832 C 4304.68 -1.73057 0.180947 0
M  V30 45833 O 4305.85 -1.97257 0.406397 0
M  V30 45834 C 4302.92 -3.31299 1.02186 0
M  V30 45835 C 4301.98 -3.68395 2.20417 0
M  V30 45836 C 4301.21 -4.96184 1.96562 0
M  V30 45837 O 4301.43 -5.62915 0.92103 0
M  V30 45838 O 4300.37 -5.31025 2.83366 0
M  V30 45839 H 4304.19 -2.05814 2.23325 0
M  V30 45840 H 4301.78 -0.963164 1.14208 0
M  V30 45841 H 4303.66 -4.11682 0.899791 0
M  V30 45842 H 4302.34 -3.23571 0.0912094 0
M  V30 45843 H 4301.24 -2.8848 2.38181 0
M  V30 45844 H 4302.58 -3.80801 3.11852 0
M  V30 45845 N 4304.23 -1.17696 -1.04812 0
M  V30 45846 C 4305.19 -0.899376 -2.10817 0
M  V30 45847 C 4306.19 0.112088 -1.60409 0
M  V30 45848 O 4307.38 -0.120515 -1.73783 0
M  V30 45849 C 4304.51 -0.34792 -3.3912 0
M  V30 45850 H 4305.71 -1.8393 -2.36875 0
M  V30 45851 H 4303.26 -0.987944 -1.21117 0
M  V30 45852 H 4303.99 0.59897 -3.18721 0
M  V30 45853 H 4303.78 -1.07695 -3.7702 0
M  V30 45854 H 4305.27 -0.172158 -4.17245 0
M  V30 45855 N 4305.71 1.23599 -0.977801 0
M  V30 45856 C 4306.95 1.92229 -0.6462 0
M  V30 45857 C 4307.28 1.76138 0.817862 0
M  V30 45858 O 4306.56 1.12074 1.58965 0
M  V30 45859 C 4306.84 3.4493 -1.03418 0
M  V30 45860 C 4306.7 3.70142 -2.55568 0
M  V30 45861 C 4308.01 4.36312 -0.576164 0
M  V30 45862 H 4305.13 0.698114 -0.236234 0
M  V30 45863 H 4307.78 1.45773 -1.21862 0
M  V30 45864 H 4305.93 3.84628 -0.547101 0
M  V30 45865 H 4307.6 3.39941 -3.11829 0
M  V30 45866 H 4305.84 3.14943 -2.98317 0
M  V30 45867 H 4306.51 4.77023 -2.77764 0
M  V30 45868 H 4308.99 4.04045 -0.994308 0
M  V30 45869 H 4307.86 5.41863 -0.876088 0
M  V30 45870 H 4308.12 4.38989 0.52357 0
M  V30 45871 N 4307.18 0.749135 1.38657 0
M  V30 45872 C 4308.09 0.120414 2.34291 0
M  V30 45873 C 4309.11 -0.705768 1.59044 0
M  V30 45874 O 4310.29 -0.630956 1.91261 0
M  V30 45875 C 4307.35 -0.765566 3.38142 0
M  V30 45876 C 4306.41 0.0744791 4.29235 0
M  V30 45877 C 4305.64 -0.769309 5.28126 0
M  V30 45878 O 4305.87 -2.0075 5.33906 0
M  V30 45879 O 4304.8 -0.190471 6.01599 0
M  V30 45880 H 4308.63 0.910107 2.89743 0
M  V30 45881 H 4306.21 0.509973 1.40427 0
M  V30 45882 H 4308.09 -1.27207 4.01742 0
M  V30 45883 H 4306.77 -1.53383 2.85053 0
M  V30 45884 H 4305.68 0.626826 3.68811 0
M  V30 45885 H 4307.01 0.805293 4.85568 0
M  V30 45886 N 4308.66 -1.4953 0.49786 0
M  V30 45887 C 4309.94 -1.95287 -0.110638 0
M  V30 45888 C 4310.32 -1.43925 -1.5443 0
M  V30 45889 O 4309.67 -0.651654 -2.19011 0
M  V30 45890 C 4309.88 -3.4899 -0.0265022 0
M  V30 45891 C 4311.22 -4.24119 -0.202007 0
M  V30 45892 O 4312.25 -3.56054 -0.101837 0
M  V30 45893 O 4311.11 -5.4498 -0.407277 0
M  V30 45894 H 4308.2 -0.821289 -0.0970261 0
M  V30 45895 H 4310.75 -1.60188 0.560174 0
M  V30 45896 H 4309.52 -3.78999 0.973422 0
M  V30 45897 H 4309.14 -3.90698 -0.737599 0
M  V30 45898 N 4310.14 -0.23156 -1.5589 0
M  V30 45899 C 4311.36 0.405 -2.03407 0
M  V30 45900 C 4311.79 1.5185 -1.11009 0
M  V30 45901 O 4311.15 1.81023 -0.100133 0
M  V30 45902 C 4311.2 0.904493 -3.49072 0
M  V30 45903 O 4310.3 2.01518 -3.59812 0
M  V30 45904 H 4309.64 0.0903795 -0.65782 0
M  V30 45905 H 4312.17 -0.353127 -2.0153 0
M  V30 45906 H 4312.18 1.21171 -3.89591 0
M  V30 45907 H 4310.86 0.0895676 -4.15804 0
M  V30 45908 H 4309.43 1.71382 -3.31183 0
M  V30 45909 N 4311.62 1.57545 0.0417295 0
M  V30 45910 C 4313.03 1.5458 0.397147 0
M  V30 45911 C 4313.23 0.955974 1.77379 0
M  V30 45912 O 4312.29 0.5715 2.45947 0
M  V30 45913 C 4313.6 2.99091 0.310613 0
M  V30 45914 C 4315.15 3.10578 0.388621 0
M  V30 45915 C 4315.63 4.56797 0.331673 0
M  V30 45916 N 4317.12 4.61548 0.390852 0
M  V30 45917 C 4317.85 5.72208 0.369479 0
M  V30 45918 N 4317.35 6.92145 0.301143 0
M  V30 45919 N 4319.14 5.60542 0.418272 0
M  V30 45920 H 4311.29 1.9424 -0.859327 0
M  V30 45921 H 4313.55 0.890357 -0.325529 0
M  V30 45922 H 4313.26 3.45922 -0.634902 0
M  V30 45923 H 4313.13 3.60522 1.10923 0
M  V30 45924 H 4315.52 2.63703 1.32456 0
M  V30 45925 H 4315.6 2.52003 -0.439117 0
M  V30 45926 H 4315.25 5.04337 -0.600549 0
M  V30 45927 H 4315.18 5.1327 1.17735 0
M  V30 45928 H 4317.67 3.75251 0.446694 0
M  V30 45929 H 4317.98 7.72257 0.289587 0
M  V30 45930 H 4316.33 6.94485 0.267378 0
M  V30 45931 H 4319.52 4.65739 0.469561 0
M  V30 45932 H 4319.69 6.46776 0.398147 0
M  V30 45933 N 4313.1 -0.313759 1.54445 0
M  V30 45934 C 4314.34 -1.05053 1.73119 0
M  V30 45935 C 4314.67 -1.87692 0.510111 0
M  V30 45936 O 4313.93 -1.8899 -0.508076 0
M  V30 45937 C 4314.22 -1.99563 2.96495 0
M  V30 45938 C 4313.89 -1.33002 4.30838 0
M  V30 45939 C 4312.55 -1.14581 4.67359 0
M  V30 45940 C 4314.9 -0.853126 5.1417 0
M  V30 45941 C 4312.23 -0.471344 5.84804 0
M  V30 45942 C 4314.58 -0.192438 6.32307 0
M  V30 45943 C 4313.25 0.00383907 6.675 0
M  V30 45944 H 4312.52 -0.384417 0.633486 0
M  V30 45945 H 4315.17 -0.326673 1.88693 0
M  V30 45946 H 4313.47 -2.78434 2.75648 0
M  V30 45947 H 4315.17 -2.56617 3.08137 0
M  V30 45948 H 4311.76 -1.48344 4.02109 0
M  V30 45949 H 4315.94 -0.983198 4.86464 0
M  V30 45950 H 4311.2 -0.308167 6.10623 0
M  V30 45951 H 4315.37 0.185048 6.96154 0
M  V30 45952 H 4313 0.528484 7.58361 0
M  V30 45953 N 4314.57 -1.46684 -0.576319 0
M  V30 45954 C 4315.82 -1.53537 -1.33409 0
M  V30 45955 C 4316.17 -0.187155 -1.91488 0
M  V30 45956 O 4315.47 0.804941 -1.73871 0
M  V30 45957 C 4315.66 -2.57483 -2.47865 0
M  V30 45958 C 4315.49 -4.0228 -2.01 0
M  V30 45959 C 4314.26 -4.69932 -1.85721 0
M  V30 45960 C 4316.46 -4.89884 -1.56582 0
M  V30 45961 N 4314.44 -5.99321 -1.32994 0
M  V30 45962 C 4315.81 -6.09149 -1.1549 0
M  V30 45963 C 4317.87 -4.76483 -1.44459 0
M  V30 45964 C 4316.57 -7.16493 -0.634808 0
M  V30 45965 C 4318.6 -5.83906 -0.938521 0
M  V30 45966 C 4317.96 -7.02347 -0.537417 0
M  V30 45967 H 4314.06 -0.616637 -0.480919 0
M  V30 45968 H 4316.64 -1.83335 -0.655479 0
M  V30 45969 H 4314.81 -2.29585 -3.13281 0
M  V30 45970 H 4316.54 -2.54292 -3.14829 0
M  V30 45971 H 4313.3 -4.25548 -2.07861 0
M  V30 45972 H 4313.72 -6.68205 -1.08773 0
M  V30 45973 H 4318.36 -3.85297 -1.74086 0
M  V30 45974 H 4316.08 -8.07442 -0.32613 0
M  V30 45975 H 4319.67 -5.75579 -0.848535 0
M  V30 45976 H 4318.55 -7.84053 -0.151879 0
M  V30 45977 N 4316.05 0.821486 -1.34497 0
M  V30 45978 C 4316.96 1.96429 -1.28269 0
M  V30 45979 C 4317.98 1.72958 -0.190122 0
M  V30 45980 O 4319.15 1.97039 -0.416852 0
M  V30 45981 C 4316.22 3.30752 -1.03941 0
M  V30 45982 C 4315.28 3.67221 -2.22367 0
M  V30 45983 C 4314.51 4.95135 -1.99191 0
M  V30 45984 O 4314.74 5.62419 -0.950869 0
M  V30 45985 O 4313.67 5.29515 -2.86178 0
M  V30 45986 H 4317.5 2.04627 -2.24414 0
M  V30 45987 H 4315.08 0.957094 -1.14717 0
M  V30 45988 H 4316.96 4.11199 -0.92161 0
M  V30 45989 H 4315.64 3.23519 -0.108368 0
M  V30 45990 H 4314.54 2.87213 -2.39707 0
M  V30 45991 H 4315.88 3.79142 -3.13867 0
M  V30 45992 N 4317.53 1.1825 1.04186 0
M  V30 45993 C 4318.46 0.93191 2.14097 0
M  V30 45994 C 4319.44 -0.129931 1.69603 0
M  V30 45995 O 4320.63 0.0224111 1.94187 0
M  V30 45996 C 4317.76 0.455524 3.443 0
M  V30 45997 C 4316.71 1.45771 4.02411 0
M  V30 45998 C 4316.04 0.838889 5.28078 0
M  V30 45999 C 4317.34 2.83405 4.38724 0
M  V30 46000 H 4319.03 1.8511 2.35318 0
M  V30 46001 H 4316.58 0.891441 1.1309 0
M  V30 46002 H 4318.53 0.267579 4.2055 0
M  V30 46003 H 4317.25 -0.499234 3.22762 0
M  V30 46004 H 4315.91 1.63257 3.28242 0
M  V30 46005 H 4315.56 -0.123019 5.0285 0
M  V30 46006 H 4315.26 1.508 5.6792 0
M  V30 46007 H 4316.78 0.661447 6.07007 0
M  V30 46008 H 4318.2 2.69577 5.05965 0
M  V30 46009 H 4316.6 3.46987 4.89612 0
M  V30 46010 H 4317.67 3.37048 3.48607 0
M  V30 46011 N 4319.01 -1.23079 0.984342 0
M  V30 46012 C 4320.25 -1.91884 0.656386 0
M  V30 46013 C 4320.59 -1.76569 -0.80851 0
M  V30 46014 O 4319.86 -1.12915 -1.58368 0
M  V30 46015 C 4320.15 -3.44377 1.05245 0
M  V30 46016 C 4320 -3.68782 2.57527 0
M  V30 46017 C 4321.32 -4.36001 0.599295 0
M  V30 46018 H 4318.44 -0.696851 0.239933 0
M  V30 46019 H 4321.08 -1.45124 1.22633 0
M  V30 46020 H 4319.23 -3.84333 0.567491 0
M  V30 46021 H 4320.9 -3.38283 3.13628 0
M  V30 46022 H 4319.14 -3.13357 2.99983 0
M  V30 46023 H 4319.81 -4.75543 2.8029 0
M  V30 46024 H 4322.29 -4.03512 1.01572 0
M  V30 46025 H 4321.17 -5.41391 0.904812 0
M  V30 46026 H 4321.43 -4.3926 -0.500282 0
M  V30 46027 N 4320.49 -0.756478 -1.38258 0
M  V30 46028 C 4321.76 -0.239308 -1.94131 0
M  V30 46029 C 4322.14 1.26296 -1.69152 0
M  V30 46030 O 4321.49 2.03884 -1.03169 0
M  V30 46031 C 4321.7 -0.596132 -3.43871 0
M  V30 46032 C 4323.05 -0.557386 -4.20926 0
M  V30 46033 O 4324.07 -0.534599 -3.52165 0
M  V30 46034 O 4322.93 -0.570886 -5.4351 0
M  V30 46035 H 4320.03 -0.0509548 -0.825429 0
M  V30 46036 H 4322.57 -0.836796 -1.47634 0
M  V30 46037 H 4321.34 -1.63354 -3.55572 0
M  V30 46038 H 4320.97 0.029211 -3.97589 0
M  V30 46039 N 4321.96 1.49264 -0.505783 0
M  V30 46040 C 4322.91 2.29214 0.270086 0
M  V30 46041 C 4323.88 1.3583 0.956008 0
M  V30 46042 O 4325.07 1.64788 0.961742 0
M  V30 46043 C 4322.21 3.1862 1.32571 0
M  V30 46044 C 4321.32 4.27065 0.651085 0
M  V30 46045 C 4320.45 5.03681 1.68756 0
M  V30 46046 C 4319.49 6.03958 0.995066 0
M  V30 46047 N 4318.63 6.73721 1.97596 0
M  V30 46048 H 4323.47 2.95055 -0.417932 0
M  V30 46049 H 4321.01 1.45476 -0.217946 0
M  V30 46050 H 4322.97 3.68835 1.94978 0
M  V30 46051 H 4321.6 2.54754 1.98243 0
M  V30 46052 H 4320.65 3.80302 -0.0863792 0
M  V30 46053 H 4321.96 4.98687 0.106189 0
M  V30 46054 H 4321.11 5.57789 2.38656 0
M  V30 46055 H 4319.85 4.31844 2.26632 0
M  V30 46056 H 4318.86 5.49077 0.281872 0
M  V30 46057 H 4320.08 6.77783 0.422742 0
M  V30 46058 H 4318.03 6.04652 2.54425 0
M  V30 46059 H 4317.95 7.41335 1.48186 0
M  V30 46060 H 4319.21 7.3243 2.66769 0
M  V30 46061 N 4323.44 0.239823 1.55765 0
M  V30 46062 C 4324.35 -0.673618 2.24721 0
M  V30 46063 C 4325.37 -1.19902 1.26093 0
M  V30 46064 O 4326.54 -1.23678 1.58952 0
M  V30 46065 C 4323.61 -1.85697 2.92775 0
M  V30 46066 C 4322.67 -1.37175 4.06794 0
M  V30 46067 C 4321.9 -2.4987 4.71594 0
M  V30 46068 O 4322.13 -3.68436 4.35444 0
M  V30 46069 O 4321.06 -2.2003 5.60241 0
M  V30 46070 H 4324.89 -0.116089 3.03478 0
M  V30 46071 H 4322.47 0.00861399 1.49398 0
M  V30 46072 H 4324.35 -2.54769 3.35665 0
M  V30 46073 H 4323.03 -2.40226 2.16964 0
M  V30 46074 H 4321.94 -0.648517 3.68436 0
M  V30 46075 H 4323.27 -0.872632 4.84403 0
M  V30 46076 N 4324.92 -1.57565 -0.0333739 0
M  V30 46077 C 4326.34 -1.54788 -0.388943 0
M  V30 46078 C 4326.54 -0.965368 -1.7687 0
M  V30 46079 O 4325.59 -0.584535 -2.45641 0
M  V30 46080 C 4326.91 -2.99252 -0.294747 0
M  V30 46081 C 4328.45 -3.1078 -0.372144 0
M  V30 46082 C 4328.93 -4.56967 -0.307443 0
M  V30 46083 N 4330.42 -4.61749 -0.366369 0
M  V30 46084 C 4331.15 -5.72396 -0.339128 0
M  V30 46085 N 4330.65 -6.92295 -0.264432 0
M  V30 46086 N 4332.44 -5.60756 -0.388539 0
M  V30 46087 H 4324.59 -1.93782 0.869616 0
M  V30 46088 H 4326.86 -0.888618 0.330246 0
M  V30 46089 H 4326.56 -3.4558 0.653238 0
M  V30 46090 H 4326.44 -3.61105 -1.09009 0
M  V30 46091 H 4328.82 -2.64402 -1.31056 0
M  V30 46092 H 4328.91 -2.51766 0.452475 0
M  V30 46093 H 4328.55 -5.04011 0.627287 0
M  V30 46094 H 4328.48 -5.13887 -1.15011 0
M  V30 46095 H 4330.97 -3.75482 -0.426787 0
M  V30 46096 H 4331.28 -7.724 -0.248628 0
M  V30 46097 H 4329.63 -6.94618 -0.230544 0
M  V30 46098 H 4332.82 -4.65981 -0.444855 0
M  V30 46099 H 4332.99 -6.46978 -0.363841 0
M  V30 46100 N 4326.4 0.305564 -1.54609 0
M  V30 46101 C 4327.35 1.39675 -1.85993 0
M  V30 46102 C 4328.34 1.52707 -0.733283 0
M  V30 46103 O 4329.55 1.54878 -0.91721 0
M  V30 46104 H 4325.92 0.466464 -0.589844 0
M  V30 46105 H 4327.89 1.10439 -2.77211 0
M  V30 46106 C 4326.64 2.756 -2.11991 0
M  V30 46107 H 4325.96 2.66353 -2.98155 0
M  V30 46108 H 4327.4 3.50975 -2.37893 0
M  V30 46109 C 4325.86 3.24179 -0.917029 0
M  V30 46110 O 4326.39 4.01472 -0.135246 0
M  V30 46111 N 4324.6 2.81445 -0.72367 0
M  V30 46112 H 4324.15 2.18707 -1.36107 0
M  V30 46113 H 4324.1 3.14299 0.0796141 0
M  V30 46114 N 4327.88 1.46988 0.568532 0
M  V30 46115 C 4328.81 1.61494 1.68648 0
M  V30 46116 C 4329.79 0.464735 1.63628 0
M  V30 46117 O 4330.97 0.692708 1.81425 0
M  V30 46118 C 4328.1 1.61832 3.07291 0
M  V30 46119 C 4327.06 2.75964 3.27151 0
M  V30 46120 C 4326.38 2.61369 4.66466 0
M  V30 46121 C 4327.68 4.17663 3.13616 0
M  V30 46122 H 4329.38 2.55079 1.56764 0
M  V30 46123 H 4326.92 1.22759 0.75275 0
M  V30 46124 H 4328.88 1.70572 3.85335 0
M  V30 46125 H 4327.6 0.647993 3.20107 0
M  V30 46126 H 4326.26 2.66717 2.51511 0
M  V30 46127 H 4325.91 1.6239 4.76066 0
M  V30 46128 H 4325.61 3.37931 4.80704 0
M  V30 46129 H 4327.13 2.72021 5.4666 0
M  V30 46130 H 4328.54 4.27947 3.81489 0
M  V30 46131 H 4326.94 4.94923 3.39369 0
M  V30 46132 H 4328.01 4.36824 2.10507 0
M  V30 46133 N 4329.35 -0.814342 1.3493 0
M  V30 46134 C 4330.3 -1.91486 1.23762 0
M  V30 46135 C 4331.29 -1.60336 0.134656 0
M  V30 46136 O 4332.48 -1.73193 0.365143 0
M  V30 46137 C 4329.61 -3.28291 1.00398 0
M  V30 46138 C 4328.7 -3.65533 2.1505 0
M  V30 46139 N 4329.09 -3.74271 3.40228 0
M  V30 46140 C 4327.38 -3.95437 2.06265 0
M  V30 46141 C 4328.09 -4.07029 4.15575 0
M  V30 46142 N 4327.06 -4.20703 3.44252 0
M  V30 46143 H 4330.86 -1.96433 2.18613 0
M  V30 46144 H 4328.38 -1.00849 1.27292 0
M  V30 46145 H 4330.37 -4.06962 0.904865 0
M  V30 46146 H 4329.03 -3.24636 0.0642455 0
M  V30 46147 H 4330.05 -3.57546 3.74675 0
M  V30 46148 H 4326.72 -3.99853 1.201 0
M  V30 46149 H 4328.11 -4.20921 5.23712 0
M  V30 46150 N 4330.83 -1.18801 -1.03557 0
M  V30 46151 C 4331.76 -0.943251 -2.136 0
M  V30 46152 C 4332.74 0.120935 -1.6967 0
M  V30 46153 O 4333.93 -0.032709 -1.94172 0
M  V30 46154 C 4331.06 -0.473776 -3.44053 0
M  V30 46155 C 4330.01 -1.47903 -4.01633 0
M  V30 46156 C 4329.34 -0.866882 -5.27626 0
M  V30 46157 C 4330.64 -2.85728 -4.37215 0
M  V30 46158 H 4332.33 -1.86356 -2.34333 0
M  V30 46159 H 4329.88 -0.897426 -1.12616 0
M  V30 46160 H 4331.83 -0.289878 -4.20402 0
M  V30 46161 H 4330.56 0.48211 -3.23022 0
M  V30 46162 H 4329.21 -1.64996 -3.27371 0
M  V30 46163 H 4328.86 0.0963502 -5.02908 0
M  V30 46164 H 4328.56 -1.53809 -5.67112 0
M  V30 46165 H 4330.09 -0.693629 -6.06647 0
M  V30 46166 H 4331.5 -2.72257 -5.04529 0
M  V30 46167 H 4329.9 -3.49579 -4.87765 0
M  V30 46168 H 4330.97 -3.38892 -3.46815 0
M  V30 46169 N 4332.31 1.22555 -0.990855 0
M  V30 46170 C 4333.22 2.28103 -0.548303 0
M  V30 46171 C 4334.24 1.69294 0.401931 0
M  V30 46172 O 4335.41 1.99592 0.269269 0
M  V30 46173 C 4332.48 3.46448 0.132061 0
M  V30 46174 C 4331.54 4.2058 -0.86088 0
M  V30 46175 C 4330.77 5.33275 -0.21289 0
M  V30 46176 O 4331 5.61678 0.993674 0
M  V30 46177 O 4329.93 5.94878 -0.916724 0
M  V30 46178 H 4333.76 2.68122 -1.42634 0
M  V30 46179 H 4331.34 1.28684 -0.759002 0
M  V30 46180 H 4333.22 4.18263 0.513252 0
M  V30 46181 H 4331.9 3.08359 0.9847 0
M  V30 46182 H 4330.8 3.51046 -1.29297 0
M  V30 46183 H 4332.14 4.62545 -1.68266 0
M  V30 46184 N 4333.79 0.763799 1.37855 0
M  V30 46185 C 4335.04 0.32389 1.99488 0
M  V30 46186 C 4335.36 -1.10112 1.60936 0
M  V30 46187 O 4334.63 -1.75471 0.871015 0
M  V30 46188 H 4333.21 0.116766 0.737818 0
M  V30 46189 H 4335.87 0.980162 1.6846 0
M  V30 46190 H 4334.97 0.395167 3.09588 0
M  V30 46191 N 4335.27 -1.48993 0.513692 0
M  V30 46192 C 4336.21 -2.29354 -0.257927 0
M  V30 46193 C 4337.18 -1.36335 -0.948791 0
M  V30 46194 O 4338.37 -1.65296 -0.952989 0
M  V30 46195 C 4335.51 -3.19319 -1.3088 0
M  V30 46196 C 4334.62 -4.27405 -0.628427 0
M  V30 46197 C 4333.76 -5.04569 -1.66083 0
M  V30 46198 C 4332.8 -6.04477 -0.963022 0
M  V30 46199 N 4331.93 -6.74759 -1.94021 0
M  V30 46200 H 4336.77 -2.94829 0.433573 0
M  V30 46201 H 4334.31 -1.45359 0.225658 0
M  V30 46202 H 4336.27 -3.69864 -1.9302 0
M  V30 46203 H 4334.9 -2.55802 -1.96889 0
M  V30 46204 H 4333.95 -3.80251 0.106546 0
M  V30 46205 H 4335.26 -4.98736 -0.0797413 0
M  V30 46206 H 4334.42 -5.59047 -2.35694 0
M  V30 46207 H 4333.16 -4.3304 -2.24339 0
M  V30 46208 H 4332.16 -5.49219 -0.252749 0
M  V30 46209 H 4333.39 -6.77998 -0.386791 0
M  V30 46210 H 4331.33 -6.05993 -2.51215 0
M  V30 46211 H 4331.25 -7.4211 -1.44252 0
M  V30 46212 H 4332.52 -7.33835 -2.62881 0
M  V30 46213 N 4336.75 -0.248081 -1.55635 0
M  V30 46214 C 4337.99 0.377857 -2.00877 0
M  V30 46215 C 4338.35 1.55043 -1.1325 0
M  V30 46216 O 4339.55 2.24418 -1.47952 0
M  V30 46217 C 4337.82 0.776224 -3.48869 0
M  V30 46218 S 4339.38 1.39252 -4.16118 0
M  V30 46219 H 4336.2 0.118839 -0.700998 0
M  V30 46220 H 4338.8 -0.363591 -1.92089 0
M  V30 46221 H 4337.5 -0.0864609 -4.10309 0
M  V30 46222 H 4337.04 1.54982 -3.61586 0
M  V30 46223 H 4339.05 2.68154 -4.17502 0
M  V30 46224 N 4338.22 1.5758 0.0250174 0
M  V30 46225 C 4339.13 2.10227 1.04124 0
M  V30 46226 C 4340.15 1.0418 1.39365 0
M  V30 46227 O 4341.33 1.35939 1.48602 0
M  V30 46228 C 4338.39 2.57454 2.32203 0
M  V30 46229 C 4337.45 3.78 2.03506 0
M  V30 46230 C 4336.68 4.22965 3.25478 0
M  V30 46231 O 4336.91 3.67428 4.36295 0
M  V30 46232 O 4335.84 5.15363 3.10941 0
M  V30 46233 H 4339.67 2.97224 0.623806 0
M  V30 46234 H 4337.25 1.47423 0.24226 0
M  V30 46235 H 4339.13 2.88142 3.07493 0
M  V30 46236 H 4337.81 1.73566 2.73233 0
M  V30 46237 H 4336.72 3.52324 1.25771 0
M  V30 46238 H 4338.05 4.62884 1.67328 0
M  V30 46239 N 4339.7 -0.29736 1.54769 0
M  V30 46240 C 4340.93 -1.05098 1.78219 0
M  V30 46241 C 4341.34 -1.80809 0.543455 0
M  V30 46242 O 4340.7 -1.75887 -0.486824 0
M  V30 46243 C 4340.75 -2.02869 2.9921 0
M  V30 46244 O 4340.47 -1.30228 4.18297 0
M  V30 46245 C 4341.97 -2.90239 3.35076 0
M  V30 46246 H 4339.19 -0.31153 0.594298 0
M  V30 46247 H 4341.74 -0.33553 2.01729 0
M  V30 46248 H 4339.89 -2.6991 2.77898 0
M  V30 46249 H 4340.31 -1.9592 4.86534 0
M  V30 46250 H 4341.78 -3.54686 4.22968 0
M  V30 46251 H 4342.26 -3.58732 2.53392 0
M  V30 46252 H 4342.86 -2.28724 3.5856 0
M  V30 46253 N 4341.18 -1.47287 -0.560729 0
M  V30 46254 C 4342.42 -1.55307 -1.32888 0
M  V30 46255 C 4342.78 -0.208931 -1.9086 0
M  V30 46256 O 4343.98 -0.163958 -2.68299 0
M  V30 46257 C 4342.26 -2.63745 -2.41192 0
M  V30 46258 S 4343.81 -2.91323 -3.2814 0
M  V30 46259 H 4340.63 -0.548464 -0.452447 0
M  V30 46260 H 4343.23 -1.84648 -0.642304 0
M  V30 46261 H 4341.94 -3.6001 -1.97031 0
M  V30 46262 H 4341.47 -2.36208 -3.14594 0
M  V30 46263 H 4343.48 -2.28269 -4.40576 0
M  V30 46264 N 4342.66 0.807175 -1.3536 0
M  V30 46265 C 4343.9 1.56655 -1.28791 0
M  V30 46266 C 4344.24 1.93712 0.137591 0
M  V30 46267 O 4343.51 1.61302 1.08682 0
M  V30 46268 C 4343.79 2.85557 -2.19384 0
M  V30 46269 C 4343.65 2.5498 -3.70547 0
M  V30 46270 C 4344.97 3.87255 -2.09097 0
M  V30 46271 H 4342.09 0.568366 -0.469179 0
M  V30 46272 H 4344.73 0.928707 -1.65756 0
M  V30 46273 H 4342.88 3.39988 -1.8799 0
M  V30 46274 H 4344.55 2.06736 -4.12381 0
M  V30 46275 H 4342.79 1.88182 -3.90858 0
M  V30 46276 H 4343.46 3.46967 -4.29322 0
M  V30 46277 H 4345.94 3.42222 -2.36693 0
M  V30 46278 H 4344.82 4.75226 -2.74684 0
M  V30 46279 H 4345.08 4.28888 -1.07273 0
M  V30 46280 N 4344.14 1.19348 1.02926 0
M  V30 46281 C 4345.37 1.01964 1.79686 0
M  V30 46282 C 4345.77 -0.434746 1.84137 0
M  V30 46283 O 4345.12 -1.31375 1.28399 0
M  V30 46284 C 4345.18 1.51219 3.26149 0
M  V30 46285 C 4344.84 2.99323 3.45333 0
M  V30 46286 C 4345.84 3.97089 3.35584 0
M  V30 46287 C 4343.52 3.38007 3.7156 0
M  V30 46288 C 4345.52 5.31531 3.51786 0
M  V30 46289 C 4343.21 4.72609 3.87406 0
M  V30 46290 C 4344.2 5.6918 3.77522 0
M  V30 46291 O 4343.89 7.01344 3.92901 0
M  V30 46292 H 4343.62 0.359739 0.572332 0
M  V30 46293 H 4346.18 1.5859 1.30531 0
M  V30 46294 H 4344.41 0.889671 3.76327 0
M  V30 46295 H 4346.1 1.30049 3.84503 0
M  V30 46296 H 4346.86 3.68548 3.15274 0
M  V30 46297 H 4342.74 2.63391 3.78346 0
M  V30 46298 H 4346.29 6.06893 3.43986 0
M  V30 46299 H 4342.18 5.00846 4.07214 0
M  V30 46300 H 4342.95 7.08411 4.09994 0
M  V30 46301 N 4345.61 -1.22028 0.997341 0
M  V30 46302 C 4346.56 -2.26142 0.544314 0
M  V30 46303 C 4347.56 -1.64431 -0.407268 0
M  V30 46304 O 4348.76 -1.7782 -0.279301 0
M  V30 46305 H 4345.14 -0.73529 0.157647 0
M  V30 46306 H 4347.11 -2.61698 1.43376 0
M  V30 46307 C 4345.86 -3.4749 -0.120964 0
M  V30 46308 H 4345.18 -3.95238 0.60221 0
M  V30 46309 H 4346.62 -4.22096 -0.401336 0
M  V30 46310 C 4345.08 -3.0833 -1.35772 0
M  V30 46311 O 4345.61 -3.18127 -2.45271 0
M  V30 46312 N 4343.81 -2.6307 -1.23462 0
M  V30 46313 H 4343.36 -2.55298 -0.343633 0
M  V30 46314 H 4343.32 -2.37237 -2.06315 0
M  V30 46315 N 4347.09 -0.771099 -1.37448 0
M  V30 46316 C 4348.03 -0.103247 -2.27966 0
M  V30 46317 C 4349 0.709801 -1.46289 0
M  V30 46318 O 4350.19 0.684703 -1.75625 0
M  V30 46319 C 4347.31 0.860058 -3.27598 0
M  V30 46320 C 4346.36 0.131087 -4.26299 0
M  V30 46321 S 4347.19 -1.18043 -5.22328 0
M  V30 46322 C 4348.35 -0.220644 -6.25511 0
M  V30 46323 H 4348.58 -0.870795 -2.84261 0
M  V30 46324 H 4346.12 -0.564461 -1.43712 0
M  V30 46325 H 4348.07 1.41045 -3.85508 0
M  V30 46326 H 4346.73 1.60071 -2.70252 0
M  V30 46327 H 4345.93 0.861323 -4.96586 0
M  V30 46328 H 4345.53 -0.348286 -3.72375 0
M  V30 46329 H 4347.82 0.607175 -6.74774 0
M  V30 46330 H 4348.76 -0.891671 -7.02463 0
M  V30 46331 H 4349.17 0.16786 -5.6425 0
M  V30 46332 N 4348.57 1.48719 -0.521586 0
M  V30 46333 C 4349.5 2.26313 0.292847 0
M  V30 46334 C 4350.48 1.31797 0.95227 0
M  V30 46335 O 4351.67 1.61125 0.97832 0
M  V30 46336 C 4348.79 3.0777 1.41405 0
M  V30 46337 C 4347.84 4.17597 0.866895 0
M  V30 46338 S 4348.67 5.34875 -0.258631 0
M  V30 46339 C 4349.83 6.19891 0.865244 0
M  V30 46340 H 4350.06 2.95042 -0.36569 0
M  V30 46341 H 4347.59 1.51313 -0.307224 0
M  V30 46342 H 4349.55 3.5528 2.05636 0
M  V30 46343 H 4348.21 2.38471 2.04427 0
M  V30 46344 H 4347.41 4.74185 1.70776 0
M  V30 46345 H 4347.01 3.72783 0.301431 0
M  V30 46346 H 4349.3 6.54083 1.76583 0
M  V30 46347 H 4350.24 7.07295 0.337523 0
M  V30 46348 H 4350.65 5.52831 1.14186 0
M  V30 46349 N 4350.05 0.256331 1.55501 0
M  V30 46350 C 4351.3 -0.365055 1.98776 0
M  V30 46351 C 4351.62 -1.57775 1.14594 0
M  V30 46352 O 4350.89 -1.94534 0.230954 0
M  V30 46353 H 4349.47 -0.137869 0.734167 0
M  V30 46354 H 4352.13 0.357309 1.91597 0
M  V30 46355 H 4351.23 -0.667771 3.04872 0
M  V30 46356 N 4351.53 -1.57591 -0.0166602 0
M  V30 46357 C 4352.47 -2.07362 -1.01339 0
M  V30 46358 C 4353.44 -0.965403 -1.35163 0
M  V30 46359 O 4354.63 -1.23678 -1.45288 0
M  V30 46360 C 4351.77 -2.56798 -2.30541 0
M  V30 46361 C 4350.88 -3.81458 -2.02766 0
M  V30 46362 C 4350.02 -4.19458 -3.25927 0
M  V30 46363 C 4349.06 -5.37001 -2.93763 0
M  V30 46364 N 4348.19 -5.70373 -4.09413 0
M  V30 46365 H 4353.03 -2.92261 -0.582018 0
M  V30 46366 H 4350.57 -1.44492 -0.275747 0
M  V30 46367 H 4352.53 -2.83531 -3.06049 0
M  V30 46368 H 4351.16 -1.74797 -2.71377 0
M  V30 46369 H 4350.21 -3.61733 -1.17699 0
M  V30 46370 H 4351.52 -4.67076 -1.75047 0
M  V30 46371 H 4350.68 -4.47385 -4.09794 0
M  V30 46372 H 4349.41 -3.32515 -3.5677 0
M  V30 46373 H 4348.42 -5.08813 -2.08301 0
M  V30 46374 H 4349.64 -6.25606 -2.64186 0
M  V30 46375 H 4347.59 -4.8639 -4.40183 0
M  V30 46376 H 4347.51 -6.50528 -3.85161 0
M  V30 46377 H 4348.78 -6.02884 -4.94117 0
M  V30 46378 N 4353 0.289148 -1.54925 0
M  V30 46379 C 4354.42 0.635471 -1.46403 0
M  V30 46380 C 4354.62 1.90214 -0.664908 0
M  V30 46381 O 4353.68 2.51877 -0.177314 0
M  V30 46382 C 4354.99 0.777443 -2.90476 0
M  V30 46383 C 4356.54 0.872556 -3.00592 0
M  V30 46384 C 4357.01 1.04643 -4.45885 0
M  V30 46385 N 4358.5 1.11235 -4.49645 0
M  V30 46386 C 4359.24 1.2654 -5.59263 0
M  V30 46387 N 4358.73 1.38667 -6.78781 0
M  V30 46388 N 4360.53 1.29522 -5.46974 0
M  V30 46389 H 4352.68 -0.542929 -2.05344 0
M  V30 46390 H 4354.94 -0.181351 -0.930492 0
M  V30 46391 H 4354.65 -0.082589 -3.51603 0
M  V30 46392 H 4354.52 1.66278 -3.38573 0
M  V30 46393 H 4356.91 1.72307 -2.39571 0
M  V30 46394 H 4356.99 -0.0370512 -2.55773 0
M  V30 46395 H 4356.63 0.200645 -5.07504 0
M  V30 46396 H 4356.56 1.97044 -4.88345 0
M  V30 46397 H 4359.05 1.03168 -3.63545 0
M  V30 46398 H 4359.37 1.50133 -7.58076 0
M  V30 46399 H 4357.71 1.35701 -6.81623 0
M  V30 46400 H 4360.9 1.19668 -4.52545 0
M  V30 46401 H 4361.08 1.41106 -6.3245 0
M  V30 46402 N 4354.48 1.47583 0.55291 0
M  V30 46403 C 4355.39 1.63033 1.68693 0
M  V30 46404 C 4356.41 0.513104 1.66263 0
M  V30 46405 O 4357.58 0.781204 1.85632 0
M  V30 46406 C 4354.65 1.64491 3.05194 0
M  V30 46407 C 4353.71 2.87672 3.18659 0
M  V30 46408 C 4352.94 2.89051 4.48648 0
M  V30 46409 O 4353.17 1.99515 5.34369 0
M  V30 46410 O 4352.1 3.80963 4.65994 0
M  V30 46411 H 4355.93 2.58998 1.586 0
M  V30 46412 H 4353.51 1.30718 0.723408 0
M  V30 46413 H 4355.39 1.68104 3.86418 0
M  V30 46414 H 4354.07 0.716949 3.1566 0
M  V30 46415 H 4352.98 2.89602 2.36816 0
M  V30 46416 H 4354.31 3.79777 3.13098 0
M  V30 46417 N 4355.96 -0.799985 1.35787 0
M  V30 46418 C 4356.91 -1.91215 1.2925 0
M  V30 46419 C 4357.88 -1.65297 0.163169 0
M  V30 46420 O 4359.06 -1.876 0.347957 0
M  V30 46421 C 4356.2 -3.27863 1.07703 0
M  V30 46422 C 4355.32 -3.65924 2.29617 0
M  V30 46423 C 4354.45 -4.91635 2.01167 0
M  V30 46424 C 4353.49 -5.22343 3.19098 0
M  V30 46425 N 4352.63 -6.39236 2.90382 0
M  V30 46426 H 4357.47 -1.96138 2.24352 0
M  V30 46427 H 4355 -0.959296 1.11516 0
M  V30 46428 H 4356.96 -4.06647 0.932402 0
M  V30 46429 H 4355.59 -3.2239 0.162603 0
M  V30 46430 H 4354.64 -2.82347 2.5492 0
M  V30 46431 H 4355.96 -3.84572 3.17656 0
M  V30 46432 H 4355.11 -5.78261 1.83573 0
M  V30 46433 H 4353.85 -4.75035 1.10422 0
M  V30 46434 H 4352.85 -4.34205 3.37263 0
M  V30 46435 H 4354.08 -5.40869 4.10654 0
M  V30 46436 H 4352.02 -6.24048 2.02238 0
M  V30 46437 H 4351.94 -6.58167 3.71958 0
M  V30 46438 H 4353.21 -7.28872 2.76343 0
M  V30 46439 N 4357.44 -1.19892 -1.02292 0
M  V30 46440 C 4358.39 -0.94206 -2.10699 0
M  V30 46441 C 4359.36 0.125369 -1.65626 0
M  V30 46442 O 4360.54 -0.0180308 -1.90791 0
M  V30 46443 C 4357.68 -0.493351 -3.41555 0
M  V30 46444 C 4356.79 -1.62822 -4.00141 0
M  V30 46445 C 4355.93 -1.13045 -5.19032 0
M  V30 46446 C 4354.97 -2.23882 -5.69687 0
M  V30 46447 N 4354.1 -1.75369 -6.79846 0
M  V30 46448 H 4358.94 -1.87021 -2.32007 0
M  V30 46449 H 4356.48 -0.932313 -1.13782 0
M  V30 46450 H 4358.44 -0.214556 -4.16648 0
M  V30 46451 H 4357.07 0.397805 -3.20339 0
M  V30 46452 H 4356.12 -2.02208 -3.22205 0
M  V30 46453 H 4357.43 -2.46306 -4.33745 0
M  V30 46454 H 4356.59 -0.807242 -6.01306 0
M  V30 46455 H 4355.33 -0.265423 -4.86977 0
M  V30 46456 H 4354.33 -2.57026 -4.86022 0
M  V30 46457 H 4355.56 -3.1085 -6.03779 0
M  V30 46458 H 4353.5 -0.911832 -6.49632 0
M  V30 46459 H 4353.42 -2.52437 -7.12609 0
M  V30 46460 H 4354.69 -1.46029 -7.657 0
M  V30 46461 N 4358.92 1.21498 -1.0038 0
M  V30 46462 C 4359.85 2.26096 -0.583357 0
M  V30 46463 C 4360.83 1.65445 0.395228 0
M  V30 46464 O 4362.01 1.9212 0.283474 0
M  V30 46465 C 4359.14 3.47178 0.0920009 0
M  V30 46466 C 4358.1 4.20338 -0.806242 0
M  V30 46467 C 4357.42 5.347 0.00263832 0
M  V30 46468 C 4358.72 4.77859 -2.10828 0
M  V30 46469 H 4360.42 2.61518 -1.4577 0
M  V30 46470 H 4357.96 1.2571 -0.702355 0
M  V30 46471 H 4359.92 4.1952 0.397603 0
M  V30 46472 H 4358.64 3.10883 1.00097 0
M  V30 46473 H 4357.3 3.49844 -1.09565 0
M  V30 46474 H 4356.95 4.94647 0.912855 0
M  V30 46475 H 4356.65 5.84575 -0.595429 0
M  V30 46476 H 4358.17 6.09852 0.302083 0
M  V30 46477 H 4359.58 5.42086 -1.86591 0
M  V30 46478 H 4357.98 5.38118 -2.6561 0
M  V30 46479 H 4359.05 3.97307 -2.77985 0
M  V30 46480 N 4360.39 0.778378 1.37037 0
M  V30 46481 C 4361.64 0.34503 1.99133 0
M  V30 46482 C 4361.96 -1.08399 1.62094 0
M  V30 46483 O 4361.23 -1.74537 0.889577 0
M  V30 46484 H 4359.81 0.124585 0.736538 0
M  V30 46485 H 4362.48 0.997974 1.67411 0
M  V30 46486 H 4361.57 0.427981 3.09152 0
M  V30 46487 N 4361.87 -1.4844 0.529465 0
M  V30 46488 C 4362.78 -2.33395 -0.237432 0
M  V30 46489 C 4363.8 -1.46455 -0.939517 0
M  V30 46490 O 4364.98 -1.79436 -0.914591 0
M  V30 46491 C 4362.04 -3.22559 -1.2711 0
M  V30 46492 C 4361.1 -4.25372 -0.579416 0
M  V30 46493 C 4360.33 -5.10274 -1.56383 0
M  V30 46494 O 4360.56 -4.97149 -2.79641 0
M  V30 46495 O 4359.49 -5.91698 -1.10351 0
M  V30 46496 H 4363.32 -3.00216 0.458705 0
M  V30 46497 H 4360.9 -1.46551 0.290395 0
M  V30 46498 H 4362.78 -3.77712 -1.86846 0
M  V30 46499 H 4361.46 -2.584 -1.94965 0
M  V30 46500 H 4360.37 -3.74054 0.0584292 0
M  V30 46501 H 4361.7 -4.92167 0.0571886 0
M  V30 46502 N 4363.35 -0.264574 -1.55363 0
M  V30 46503 C 4364.6 0.35521 -1.9936 0
M  V30 46504 C 4364.93 1.56647 -1.1529 0
M  V30 46505 O 4364.18 1.94592 -0.207972 0
M  V30 46506 C 4364.48 0.791544 -3.48525 0
M  V30 46507 C 4364.15 -0.313913 -4.49806 0
M  V30 46508 C 4362.81 -0.61748 -4.77222 0
M  V30 46509 C 4365.16 -1.05934 -5.10321 0
M  V30 46510 C 4362.49 -1.67023 -5.62423 0
M  V30 46511 C 4364.84 -2.10174 -5.96665 0
M  V30 46512 C 4363.5 -2.41176 -6.22407 0
M  V30 46513 H 4362.77 0.12998 -0.729511 0
M  V30 46514 H 4365.42 -0.376088 -1.87771 0
M  V30 46515 H 4363.73 1.60234 -3.57536 0
M  V30 46516 H 4365.42 1.28166 -3.79966 0
M  V30 46517 H 4362.01 -0.0671827 -4.28547 0
M  V30 46518 H 4366.2 -0.838065 -4.89173 0
M  V30 46519 H 4361.45 -1.91557 -5.80617 0
M  V30 46520 H 4365.63 -2.68415 -6.42594 0
M  V30 46521 H 4363.25 -3.22888 -6.8822 0
M  V30 46522 N 4364.83 1.57598 0.00830251 0
M  V30 46523 C 4366.08 1.89829 0.693505 0
M  V30 46524 C 4366.4 0.864874 1.74771 0
M  V30 46525 O 4365.67 -0.0988323 1.95651 0
M  V30 46526 H 4364.25 0.700612 0.259137 0
M  V30 46527 H 4366.91 1.94876 -0.0306602 0
M  V30 46528 H 4366.01 2.89339 1.17 0
M  V30 46529 N 4366.31 -0.280928 1.55076 0
M  V30 46530 C 4367.25 -1.34706 1.87411 0
M  V30 46531 C 4368.22 -1.4945 0.724847 0
M  V30 46532 O 4369.41 -1.63985 0.975376 0
M  V30 46533 C 4366.55 -2.70372 2.1446 0
M  V30 46534 C 4365.66 -2.63914 3.42014 0
M  V30 46535 C 4364.8 -3.91706 3.58803 0
M  V30 46536 C 4363.84 -3.79727 4.80077 0
M  V30 46537 N 4362.97 -4.99337 4.93565 0
M  V30 46538 H 4367.81 -1.0643 2.78346 0
M  V30 46539 H 4365.35 -0.514355 1.37814 0
M  V30 46540 H 4367.31 -3.49295 2.28141 0
M  V30 46541 H 4365.94 -2.96866 1.26769 0
M  V30 46542 H 4364.99 -1.76744 3.36847 0
M  V30 46543 H 4366.3 -2.50959 4.3107 0
M  V30 46544 H 4365.46 -4.79071 3.72258 0
M  V30 46545 H 4364.2 -4.07519 2.67917 0
M  V30 46546 H 4363.2 -2.90746 4.66633 0
M  V30 46547 H 4364.43 -3.65441 5.72389 0
M  V30 46548 H 4362.37 -5.15575 4.05608 0
M  V30 46549 H 4362.29 -4.88883 5.76653 0
M  V30 46550 H 4363.56 -5.88296 5.11398 0
M  V30 46551 N 4367.79 -1.47874 -0.545076 0
M  V30 46552 C 4368.75 -1.60807 -1.63321 0
M  V30 46553 C 4369.75 -0.482321 -1.53396 0
M  V30 46554 O 4370.94 -0.74772 -1.57337 0
M  V30 46555 C 4368.07 -1.56404 -3.02904 0
M  V30 46556 H 4369.26 -2.57818 -1.53199 0
M  V30 46557 H 4366.82 -1.36245 -0.76596 0
M  V30 46558 H 4367.55 -0.60814 -3.18547 0
M  V30 46559 H 4367.34 -2.38117 -3.11517 0
M  V30 46560 H 4368.83 -1.68617 -3.82045 0
M  V30 46561 N 4369.26 0.792773 -1.36209 0
M  V30 46562 C 4370.21 1.90527 -1.30262 0
M  V30 46563 C 4371.18 1.65208 -0.171933 0
M  V30 46564 O 4372.37 1.87413 -0.357901 0
M  V30 46565 C 4369.51 3.27287 -1.0944 0
M  V30 46566 C 4368.62 3.64701 -2.31554 0
M  V30 46567 C 4367.75 4.90562 -2.03771 0
M  V30 46568 C 4366.79 5.20644 -3.21864 0
M  V30 46569 N 4365.93 6.37687 -2.93768 0
M  V30 46570 H 4370.77 1.94946 -2.25389 0
M  V30 46571 H 4368.31 0.953369 -1.12024 0
M  V30 46572 H 4370.26 4.06147 -0.953954 0
M  V30 46573 H 4368.89 3.22299 -0.179698 0
M  V30 46574 H 4367.95 2.80991 -2.56414 0
M  V30 46575 H 4369.26 3.82882 -3.19691 0
M  V30 46576 H 4368.41 5.77279 -1.86637 0
M  V30 46577 H 4367.15 4.74443 -1.1294 0
M  V30 46578 H 4366.16 4.3241 -3.39561 0
M  V30 46579 H 4367.38 5.38684 -4.13517 0
M  V30 46580 H 4365.33 6.22967 -2.05544 0
M  V30 46581 H 4365.24 6.56185 -3.75443 0
M  V30 46582 H 4366.51 7.27396 -2.80205 0
M  V30 46583 N 4370.74 1.20433 1.01654 0
M  V30 46584 C 4371.99 1.01252 1.74907 0
M  V30 46585 C 4372.31 -0.456407 1.89584 0
M  V30 46586 O 4371.58 -1.32994 1.43838 0
M  V30 46587 H 4370.16 0.371658 0.647981 0
M  V30 46588 H 4372.82 1.51544 1.22558 0
M  V30 46589 H 4371.92 1.4709 2.75265 0
M  V30 46590 N 4372.22 -1.20963 1.01023 0
M  V30 46591 C 4373.44 -1.94697 0.714695 0
M  V30 46592 C 4373.87 -1.7389 -0.717204 0
M  V30 46593 O 4373.23 -1.02909 -1.49263 0
M  V30 46594 C 4373.28 -3.45043 1.04775 0
M  V30 46595 O 4372.38 -4.12105 0.155891 0
M  V30 46596 H 4371.72 -0.608488 0.265778 0
M  V30 46597 H 4374.25 -1.53575 1.35188 0
M  V30 46598 H 4374.26 -3.95636 0.996792 0
M  V30 46599 H 4372.94 -3.5951 2.09105 0
M  V30 46600 H 4371.51 -3.71966 0.263829 0
M  V30 46601 N 4373.7 -0.785634 -1.36622 0
M  V30 46602 C 4375.11 -0.46687 -1.52619 0
M  V30 46603 C 4375.31 1.0154 -1.74045 0
M  V30 46604 O 4374.37 1.80097 -1.76978 0
M  V30 46605 C 4375.68 -1.29402 -2.71432 0
M  V30 46606 C 4377.23 -1.28733 -2.85301 0
M  V30 46607 C 4377.71 -2.09814 -4.07114 0
M  V30 46608 N 4379.2 -2.0724 -4.14253 0
M  V30 46609 C 4379.93 -2.66749 -5.07575 0
M  V30 46610 N 4379.43 -3.35101 -6.06366 0
M  V30 46611 N 4381.22 -2.56503 -5.00163 0
M  V30 46612 H 4373.37 -1.74587 -1.20968 0
M  V30 46613 H 4375.63 -0.741925 -0.590128 0
M  V30 46614 H 4375.34 -2.34503 -2.62109 0
M  V30 46615 H 4375.21 -0.932719 -3.65486 0
M  V30 46616 H 4377.6 -0.244258 -2.94087 0
M  V30 46617 H 4377.68 -1.68837 -1.92166 0
M  V30 46618 H 4377.33 -3.1415 -3.99089 0
M  V30 46619 H 4377.26 -1.67083 -4.99391 0
M  V30 46620 H 4379.75 -1.5749 -3.43519 0
M  V30 46621 H 4380.06 -3.77847 -6.7413 0
M  V30 46622 H 4378.41 -3.39202 -6.06603 0
M  V30 46623 H 4381.6 -2.02707 -4.21933 0
M  V30 46624 H 4381.77 -3.03172 -5.72705 0
M  V30 46625 N 4375.18 1.48157 -0.53733 0
M  V30 46626 C 4376.14 2.28229 0.210744 0
M  V30 46627 C 4377.14 1.35803 0.861054 0
M  V30 46628 O 4378.33 1.58625 0.719972 0
M  V30 46629 C 4375.46 3.14901 1.30576 0
M  V30 46630 H 4376.65 2.95831 -0.492363 0
M  V30 46631 H 4374.21 1.53519 -0.293532 0
M  V30 46632 H 4374.94 2.51947 2.04189 0
M  V30 46633 H 4374.73 3.82898 0.844492 0
M  V30 46634 H 4376.22 3.75283 1.83173 0
M  V30 46635 N 4376.65 0.272809 1.55221 0
M  V30 46636 C 4377.9 -0.345258 1.98723 0
M  V30 46637 C 4378.22 -1.57149 1.16462 0
M  V30 46638 O 4379.42 -2.26237 1.50098 0
M  V30 46639 C 4377.88 -0.665636 3.53691 0
M  V30 46640 C 4377.49 0.540664 4.44726 0
M  V30 46641 C 4379.23 -1.24646 4.05788 0
M  V30 46642 C 4377.14 0.195001 5.91078 0
M  V30 46643 H 4376.07 -0.132778 0.742217 0
M  V30 46644 H 4378.72 0.3771 1.79583 0
M  V30 46645 H 4377.1 -1.44683 3.68623 0
M  V30 46646 H 4378.27 1.31757 4.41562 0
M  V30 46647 H 4376.59 1.03817 4.0325 0
M  V30 46648 H 4379.19 -1.51884 5.12675 0
M  V30 46649 H 4379.53 -2.17957 3.54684 0
M  V30 46650 H 4380.06 -0.527599 3.94286 0
M  V30 46651 H 4376.8 1.09593 6.46274 0
M  V30 46652 H 4376.32 -0.545191 5.97317 0
M  V30 46653 H 4378 -0.213608 6.46647 0
M  V30 46654 N 4378.13 -1.576 5.54043e-05 0
M  V30 46655 C 4379.38 -1.91691 -0.680163 0
M  V30 46656 C 4379.73 -0.874493 -1.71378 0
M  V30 46657 O 4379.03 0.113301 -1.91265 0
M  V30 46658 C 4379.22 -3.30295 -1.36529 0
M  V30 46659 C 4379.05 -4.47922 -0.399547 0
M  V30 46660 C 4377.82 -5.05299 -0.00992836 0
M  V30 46661 C 4380.02 -5.13213 0.33424 0
M  V30 46662 N 4378 -6.06442 0.954018 0
M  V30 46663 C 4379.37 -6.09187 1.15287 0
M  V30 46664 C 4381.43 -4.96306 0.39807 0
M  V30 46665 C 4380.13 -6.90075 2.02951 0
M  V30 46666 C 4382.15 -5.77779 1.26194 0
M  V30 46667 C 4381.52 -6.73347 2.06842 0
M  V30 46668 H 4377.62 -0.7498 -0.222089 0
M  V30 46669 H 4380.2 -1.94606 0.0604157 0
M  V30 46670 H 4378.37 -3.28253 -2.07616 0
M  V30 46671 H 4380.1 -3.51815 -2.00021 0
M  V30 46672 H 4376.86 -4.72087 -0.37831 0
M  V30 46673 H 4377.28 -6.61696 1.43136 0
M  V30 46674 H 4381.92 -4.22272 -0.211163 0
M  V30 46675 H 4379.64 -7.63434 2.64942 0
M  V30 46676 H 4383.23 -5.66739 1.31524 0
M  V30 46677 H 4382.11 -7.35293 2.72606 0
M  V30 46678 N 4379.61 0.2727 -1.55223 0
M  V30 46679 C 4380.84 1.02101 -1.79608 0
M  V30 46680 C 4381.25 1.80417 -0.569757 0
M  V30 46681 O 4380.59 1.77568 0.470681 0
M  V30 46682 C 4380.65 2.02665 -2.9693 0
M  V30 46683 C 4380.32 1.43283 -4.33957 0
M  V30 46684 C 4381.31 0.84835 -5.12932 0
M  V30 46685 C 4379 1.45995 -4.80615 0
M  V30 46686 C 4380.99 0.298885 -6.36699 0
M  V30 46687 C 4378.68 0.906621 -6.04337 0
M  V30 46688 C 4379.68 0.32709 -6.82216 0
M  V30 46689 O 4379.37 -0.217762 -8.03605 0
M  V30 46690 H 4379.1 0.307301 -0.602115 0
M  V30 46691 H 4381.65 0.308791 -2.03066 0
M  V30 46692 H 4379.88 2.77646 -2.69164 0
M  V30 46693 H 4381.57 2.63626 -3.08636 0
M  V30 46694 H 4382.34 0.820097 -4.78016 0
M  V30 46695 H 4378.22 1.90041 -4.20006 0
M  V30 46696 H 4381.76 -0.154098 -6.9743 0
M  V30 46697 H 4377.66 0.932114 -6.38735 0
M  V30 46698 H 4378.43 -0.107151 -8.1843 0
M  V30 46699 N 4381.09 1.48161 0.537226 0
M  V30 46700 C 4382.02 1.56706 1.65887 0
M  V30 46701 C 4383 0.417925 1.57137 0
M  V30 46702 O 4384.18 0.628524 1.77713 0
M  V30 46703 C 4381.31 1.48829 3.04249 0
M  V30 46704 C 4380.36 2.68493 3.31381 0
M  V30 46705 S 4381.19 4.30527 3.18445 0
M  V30 46706 C 4382.35 4.25236 4.59266 0
M  V30 46707 H 4382.58 2.51596 1.58388 0
M  V30 46708 H 4380.11 1.36604 0.719624 0
M  V30 46709 H 4382.07 1.44971 3.84049 0
M  V30 46710 H 4380.73 0.552886 3.09196 0
M  V30 46711 H 4379.92 2.591 4.323 0
M  V30 46712 H 4379.53 2.69576 2.59239 0
M  V30 46713 H 4381.82 3.94723 5.50636 0
M  V30 46714 H 4382.76 5.26309 4.73713 0
M  V30 46715 H 4383.17 3.55806 4.38249 0
M  V30 46716 N 4382.57 -0.785538 1.36627 0
M  V30 46717 C 4383.81 -1.54516 1.32274 0
M  V30 46718 C 4384.17 -1.9216 -0.096159 0
M  V30 46719 O 4383.46 -1.60161 -1.05162 0
M  V30 46720 C 4383.65 -2.82999 2.1828 0
M  V30 46721 C 4383.48 -2.57912 3.68391 0
M  V30 46722 C 4382.25 -2.52736 4.37553 0
M  V30 46723 C 4384.45 -2.26845 4.61569 0
M  V30 46724 N 4382.43 -2.19587 5.73284 0
M  V30 46725 C 4383.8 -2.03717 5.85576 0
M  V30 46726 C 4385.86 -2.12884 4.50094 0
M  V30 46727 C 4384.56 -1.68041 6.99396 0
M  V30 46728 C 4386.59 -1.78606 5.63785 0
M  V30 46729 C 4385.95 -1.56329 6.86834 0
M  V30 46730 H 4382.05 -0.566282 0.539303 0
M  V30 46731 H 4384.63 -0.917676 1.71717 0
M  V30 46732 H 4382.8 -3.43608 1.81075 0
M  V30 46733 H 4384.54 -3.48768 2.05287 0
M  V30 46734 H 4381.29 -2.68116 3.90398 0
M  V30 46735 H 4381.72 -2.05748 6.44978 0
M  V30 46736 H 4386.36 -2.28795 3.55545 0
M  V30 46737 H 4384.08 -1.50867 7.93892 0
M  V30 46738 H 4387.66 -1.68482 5.56871 0
M  V30 46739 H 4386.54 -1.30196 7.73317 0
M  V30 46740 N 4384.04 -1.20971 -1.01014 0
M  V30 46741 C 4384.97 -0.988347 -2.11551 0
M  V30 46742 C 4385.96 0.0849181 -1.69888 0
M  V30 46743 O 4387.14 -0.0738884 -1.94059 0
M  V30 46744 C 4384.27 -0.546649 -3.42971 0
M  V30 46745 C 4383.22 -1.56389 -3.98405 0
M  V30 46746 C 4382.55 -0.978604 -5.25669 0
M  V30 46747 C 4383.85 -2.94937 -4.31056 0
M  V30 46748 H 4385.54 -1.91284 -2.30327 0
M  V30 46749 H 4383.09 -0.921111 -1.10687 0
M  V30 46750 H 4385.04 -0.378987 -4.19692 0
M  V30 46751 H 4383.77 0.413484 -3.23972 0
M  V30 46752 H 4382.43 -1.71903 -3.23798 0
M  V30 46753 H 4382.07 -0.0103456 -5.02999 0
M  V30 46754 H 4381.77 -1.65804 -5.63722 0
M  V30 46755 H 4383.3 -0.822152 -6.0504 0
M  V30 46756 H 4384.71 -2.82897 -4.9864 0
M  V30 46757 H 4383.11 -3.59847 -4.8024 0
M  V30 46758 H 4384.18 -3.46172 -3.39548 0
M  V30 46759 N 4385.52 1.20426 -1.01663 0
M  V30 46760 C 4386.77 1.8942 -0.704589 0
M  V30 46761 C 4387.09 1.79234 0.768134 0
M  V30 46762 O 4386.36 1.19476 1.55249 0
M  V30 46763 H 4384.94 0.701169 -0.257627 0
M  V30 46764 H 4387.6 1.46255 -1.28823 0
M  V30 46765 H 4386.7 2.96048 -0.98802 0
M  V30 46766 N 4387 0.792868 1.36203 0
M  V30 46767 C 4387.96 0.199539 2.2833 0
M  V30 46768 C 4388.96 -0.605137 1.48979 0
M  V30 46769 O 4390.15 -0.425626 1.6892 0
M  V30 46770 C 4387.29 -0.723406 3.33136 0
M  V30 46771 H 4388.48 1.01191 2.82313 0
M  V30 46772 H 4386.03 0.562536 1.45826 0
M  V30 46773 H 4386.77 -1.55998 2.84315 0
M  V30 46774 H 4386.55 -0.148298 3.91819 0
M  V30 46775 H 4388.04 -1.1333 4.01928 0
M  V30 46776 N 4388.48 -1.4787 0.54518 0
M  V30 46777 C 4389.89 -1.5829 0.204088 0
M  V30 46778 C 4390.09 -1.54534 -1.29312 0
M  V30 46779 O 4389.15 -1.44239 -2.07247 0
M  V30 46780 C 4390.46 -2.89301 0.820088 0
M  V30 46781 C 4392.01 -3.02861 0.790212 0
M  V30 46782 C 4392.49 -4.36555 1.38506 0
M  V30 46783 N 4393.98 -4.4316 1.34771 0
M  V30 46784 C 4394.71 -5.45147 1.77772 0
M  V30 46785 N 4394.21 -6.54008 2.28573 0
M  V30 46786 N 4396 -5.36119 1.68916 0
M  V30 46787 H 4388.15 -1.48555 1.51807 0
M  V30 46788 H 4390.42 -0.706283 0.632352 0
M  V30 46789 H 4390.12 -2.9775 1.87183 0
M  V30 46790 H 4390 -3.75956 0.306047 0
M  V30 46791 H 4392.38 -2.94015 -0.252809 0
M  V30 46792 H 4392.46 -2.17778 1.34188 0
M  V30 46793 H 4392.11 -4.46156 2.42709 0
M  V30 46794 H 4392.04 -5.2035 0.808937 0
M  V30 46795 H 4394.53 -3.65079 0.975983 0
M  V30 46796 H 4394.84 -7.27985 2.5934 0
M  V30 46797 H 4393.19 -6.5493 2.32576 0
M  V30 46798 H 4396.38 -4.4997 1.29014 0
M  V30 46799 H 4396.55 -6.15465 2.02747 0
M  V30 46800 N 4389.96 -0.281037 -1.55074 0
M  V30 46801 C 4391.2 0.334045 -1.99726 0
M  V30 46802 C 4391.53 1.55416 -1.16945 0
M  V30 46803 O 4390.79 1.9436 -0.228599 0
M  V30 46804 C 4391.09 0.754533 -3.49344 0
M  V30 46805 C 4390.75 -0.361603 -4.49448 0
M  V30 46806 C 4389.41 -0.668061 -4.7654 0
M  V30 46807 C 4391.77 -1.1134 -5.09169 0
M  V30 46808 C 4389.09 -1.72979 -5.6062 0
M  V30 46809 C 4391.45 -2.1649 -5.94403 0
M  V30 46810 C 4390.11 -2.47764 -6.19814 0
M  V30 46811 H 4389.38 0.122236 -0.730848 0
M  V30 46812 H 4392.03 -0.395983 -1.87361 0
M  V30 46813 H 4390.33 1.56433 -3.59216 0
M  V30 46814 H 4392.03 1.24129 -3.81304 0
M  V30 46815 H 4388.62 -0.112632 -4.28452 0
M  V30 46816 H 4392.8 -0.889901 -4.88257 0
M  V30 46817 H 4388.06 -1.97705 -5.78552 0
M  V30 46818 H 4392.23 -2.75215 -6.39711 0
M  V30 46819 H 4389.86 -3.30169 -6.84757 0
M  V30 46820 N 4391.44 1.57598 -0.00841331 0
M  V30 46821 C 4392.37 2.11984 0.979039 0
M  V30 46822 C 4393.35 1.03096 1.35297 0
M  V30 46823 O 4394.53 1.30823 1.43524 0
M  V30 46824 C 4391.66 2.63003 2.26819 0
M  V30 46825 C 4390.62 3.76492 2.03563 0
M  V30 46826 C 4389.94 4.13858 3.38564 0
M  V30 46827 C 4391.24 5.03425 1.39143 0
M  V30 46828 H 4392.94 2.9474 0.526178 0
M  V30 46829 H 4390.48 1.41784 0.251654 0
M  V30 46830 H 4392.43 2.99679 2.96261 0
M  V30 46831 H 4391.16 1.77379 2.74234 0
M  V30 46832 H 4389.82 3.40222 1.36545 0
M  V30 46833 H 4389.47 3.25246 3.83698 0
M  V30 46834 H 4389.17 4.90323 3.23816 0
M  V30 46835 H 4390.69 4.531 4.09307 0
M  V30 46836 H 4392.1 5.37819 1.98554 0
M  V30 46837 H 4390.5 5.84751 1.34858 0
M  V30 46838 H 4391.57 4.83549 0.361698 0
M  V30 46839 N 4392.91 -0.264465 1.55365 0
M  V30 46840 C 4393.82 -1.34895 1.91939 0
M  V30 46841 C 4394.84 -1.53592 0.817647 0
M  V30 46842 O 4396.02 -1.67554 1.11748 0
M  V30 46843 C 4393.08 -2.68668 2.1913 0
M  V30 46844 C 4392.14 -2.58645 3.42639 0
M  V30 46845 C 4391.37 -3.86038 3.68524 0
M  V30 46846 O 4391.6 -4.87116 2.96774 0
M  V30 46847 O 4390.53 -3.85728 4.62058 0
M  V30 46848 H 4394.36 -1.06873 2.84274 0
M  V30 46849 H 4391.94 -0.463725 1.42021 0
M  V30 46850 H 4393.82 -3.47751 2.38007 0
M  V30 46851 H 4392.5 -2.96459 1.29977 0
M  V30 46852 H 4391.41 -1.77909 3.29089 0
M  V30 46853 H 4392.74 -2.35803 4.32039 0
M  V30 46854 N 4394.39 -1.48444 -0.529361 0
M  V30 46855 C 4395.64 -1.56493 -1.28516 0
M  V30 46856 C 4395.97 -0.23911 -1.93025 0
M  V30 46857 O 4395.22 0.77065 -1.79887 0
M  V30 46858 C 4395.52 -2.65238 -2.39548 0
M  V30 46859 C 4395.19 -4.07655 -1.92688 0
M  V30 46860 C 4393.85 -4.46417 -1.79625 0
M  V30 46861 C 4396.2 -4.96902 -1.57283 0
M  V30 46862 C 4393.53 -5.72231 -1.29494 0
M  V30 46863 C 4395.88 -6.23206 -1.08614 0
M  V30 46864 C 4394.54 -6.60824 -0.941687 0
M  V30 46865 H 4393.81 -0.572648 -0.470272 0
M  V30 46866 H 4396.46 -1.82163 -0.590656 0
M  V30 46867 H 4394.77 -2.3343 -3.14671 0
M  V30 46868 H 4396.46 -2.68681 -2.97676 0
M  V30 46869 H 4393.05 -3.77043 -2.03806 0
M  V30 46870 H 4397.24 -4.67632 -1.66234 0
M  V30 46871 H 4392.49 -6.00101 -1.16998 0
M  V30 46872 H 4396.67 -6.91756 -0.802893 0
M  V30 46873 H 4394.29 -7.582 -0.551033 0
M  V30 46874 N 4395.87 0.778281 -1.37042 0
M  V30 46875 C 4396.78 1.92249 -1.34453 0
M  V30 46876 C 4397.8 1.72266 -0.245051 0
M  V30 46877 O 4398.97 1.95613 -0.479327 0
M  V30 46878 C 4396.04 3.27278 -1.14411 0
M  V30 46879 C 4395.1 3.59961 -2.33938 0
M  V30 46880 C 4394.33 4.88547 -2.14842 0
M  V30 46881 O 4394.55 5.59109 -1.12932 0
M  V30 46882 O 4393.49 5.20142 -3.02879 0
M  V30 46883 H 4397.31 1.97384 -2.3081 0
M  V30 46884 H 4394.9 0.920113 -1.17704 0
M  V30 46885 H 4396.78 4.08058 -1.05196 0
M  V30 46886 H 4395.46 3.2301 -0.211238 0
M  V30 46887 H 4394.36 2.79441 -2.48723 0
M  V30 46888 H 4395.7 3.68965 -3.2577 0
M  V30 46889 N 4397.35 1.21505 1.00371 0
M  V30 46890 C 4398.31 0.977 2.07334 0
M  V30 46891 C 4399.31 -0.0524757 1.60714 0
M  V30 46892 O 4400.5 0.18493 1.73216 0
M  V30 46893 C 4397.63 0.473542 3.37595 0
M  V30 46894 H 4398.83 1.92595 2.29885 0
M  V30 46895 H 4396.38 1.03222 1.17367 0
M  V30 46896 H 4397.11 -0.480266 3.20724 0
M  V30 46897 H 4396.9 1.21613 3.72763 0
M  V30 46898 H 4398.39 0.326897 4.16319 0
M  V30 46899 N 4398.83 -1.19885 1.023 0
M  V30 46900 C 4399.76 -2.25139 0.619253 0
M  V30 46901 C 4400.74 -1.66053 -0.368857 0
M  V30 46902 O 4401.92 -1.92547 -0.252873 0
M  V30 46903 C 4399.05 -3.47281 -0.0367562 0
M  V30 46904 C 4398.01 -4.19002 0.873012 0
M  V30 46905 C 4397.33 -5.34636 0.0824281 0
M  V30 46906 C 4398.63 -4.74444 2.18404 0
M  V30 46907 H 4400.33 -2.59166 1.49912 0
M  V30 46908 H 4397.87 -1.24577 0.722266 0
M  V30 46909 H 4399.82 -4.201 -0.330811 0
M  V30 46910 H 4398.55 -3.12436 -0.95138 0
M  V30 46911 H 4397.21 -3.48057 1.15117 0
M  V30 46912 H 4396.86 -4.96037 -0.834046 0
M  V30 46913 H 4396.56 -5.83554 0.688354 0
M  V30 46914 H 4398.08 -6.10256 -0.205023 0
M  V30 46915 H 4399.49 -5.39048 1.95191 0
M  V30 46916 H 4397.89 -5.33825 2.74137 0
M  V30 46917 H 4398.96 -3.92834 2.8427 0
M  V30 46918 N 4400.3 -0.80008 -1.35781 0
M  V30 46919 C 4401.55 -0.376667 -1.98559 0
M  V30 46920 C 4401.87 1.05807 -1.63798 0
M  V30 46921 O 4401.14 1.731 -0.917232 0
M  V30 46922 H 4399.72 -0.136286 -0.734462 0
M  V30 46923 H 4402.38 -1.02448 -1.65802 0
M  V30 46924 H 4401.48 -0.47711 -3.08432 0
M  V30 46925 N 4401.78 1.47579 -0.553014 0
M  V30 46926 C 4403.03 2.02481 -0.0273955 0
M  V30 46927 C 4403.36 1.4278 1.32076 0
M  V30 46928 O 4402.61 0.571459 1.87171 0
M  V30 46929 C 4402.91 3.572 0.119603 0
M  V30 46930 C 4402.58 4.358 -1.15712 0
M  V30 46931 C 4401.24 4.56994 -1.50697 0
M  V30 46932 C 4403.59 4.8116 -2.00335 0
M  V30 46933 C 4400.92 5.20798 -2.7016 0
M  V30 46934 C 4403.27 5.46282 -3.18997 0
M  V30 46935 C 4401.93 5.6571 -3.543 0
M  V30 46936 H 4401.2 0.740932 -0.0100247 0
M  V30 46937 H 4403.85 1.77299 -0.723682 0
M  V30 46938 H 4402.16 3.81351 0.898826 0
M  V30 46939 H 4403.85 3.97326 0.541578 0
M  V30 46940 H 4400.44 4.19579 -0.874709 0
M  V30 46941 H 4404.63 4.64568 -1.74615 0
M  V30 46942 H 4399.88 5.34034 -2.97686 0
M  V30 46943 H 4404.06 5.80394 -3.84859 0
M  V30 46944 H 4401.68 6.14921 -4.46964 0
M  V30 46945 N 4403.26 0.289257 1.54923 0
M  V30 46946 C 4404.19 -0.58541 2.26042 0
M  V30 46947 C 4405.17 -1.14748 1.25566 0
M  V30 46948 O 4406.36 -1.179 1.54315 0
M  V30 46949 C 4403.49 -1.76295 2.99228 0
M  V30 46950 C 4402.44 -1.33177 4.06753 0
M  V30 46951 C 4401.77 -2.59354 4.67589 0
M  V30 46952 C 4403.07 -0.471593 5.20167 0
M  V30 46953 H 4404.76 0.00774057 2.99399 0
M  V30 46954 H 4402.31 0.00516291 1.43999 0
M  V30 46955 H 4404.26 -2.38085 3.47698 0
M  V30 46956 H 4402.98 -2.38215 2.2343 0
M  V30 46957 H 4401.64 -0.736995 3.59115 0
M  V30 46958 H 4401.29 -3.19563 3.88444 0
M  V30 46959 H 4400.99 -2.31209 5.402 0
M  V30 46960 H 4402.51 -3.21967 5.18816 0
M  V30 46961 H 4403.93 -0.994857 5.64602 0
M  V30 46962 H 4402.32 -0.284429 5.99426 0
M  V30 46963 H 4403.39 0.50621 4.8225 0
M  V30 46964 N 4404.74 -1.57591 0.016771 0
M  V30 46965 C 4405.69 -2.10608 -0.987279 0
M  V30 46966 C 4406.68 -1.02982 -1.34503 0
M  V30 46967 O 4407.89 -1.2143 -1.32871 0
M  V30 46968 H 4404.26 -0.672707 -0.33611 0
M  V30 46969 H 4406.23 -2.93927 -0.514714 0
M  V30 46970 C 4404.98 -2.63828 -2.26473 0
M  V30 46971 H 4404.3 -3.46285 -1.99817 0
M  V30 46972 H 4405.74 -3.04583 -2.94966 0
M  V30 46973 C 4404.2 -1.56003 -2.98605 0
M  V30 46974 O 4404.73 -0.952659 -3.9024 0
M  V30 46975 N 4402.94 -1.28344 -2.60723 0
M  V30 46976 H 4402.49 -1.77921 -1.86285 0
M  V30 46977 H 4402.44 -0.564224 -3.09296 0
M  V30 46978 N 4406.22 0.256222 -1.55503 0
M  V30 46979 C 4407.13 1.33875 -1.92651 0
M  V30 46980 C 4408.14 1.53156 -0.825781 0
M  V30 46981 O 4409.32 1.66959 -1.12635 0
M  V30 46982 C 4406.38 2.67503 -2.20552 0
M  V30 46983 C 4405.44 2.56824 -3.44006 0
M  V30 46984 C 4404.68 3.84079 -3.70566 0
M  V30 46985 O 4404.9 4.85535 -2.99353 0
M  V30 46986 O 4403.83 3.83272 -4.64097 0
M  V30 46987 H 4407.66 1.05364 -2.84837 0
M  V30 46988 H 4405.25 0.456187 -1.42265 0
M  V30 46989 H 4407.13 3.46484 -2.39848 0
M  V30 46990 H 4405.8 2.95765 -1.31547 0
M  V30 46991 H 4404.71 1.76161 -3.30028 0
M  V30 46992 H 4406.04 2.33508 -4.33284 0
M  V30 46993 N 4407.69 1.48722 0.521481 0
M  V30 46994 C 4408.97 1.47665 1.28275 0
M  V30 46995 C 4409.35 0.192994 2.10216 0
M  V30 46996 O 4408.7 -0.825118 2.13082 0
M  V30 46997 C 4408.91 2.74365 2.15696 0
M  V30 46998 C 4410.26 3.23037 2.75558 0
M  V30 46999 O 4411.28 2.75341 2.25977 0
M  V30 47000 O 4410.14 4.06053 3.65764 0
M  V30 47001 H 4407.23 0.590105 0.579401 0
M  V30 47002 H 4409.78 1.60965 0.537436 0
M  V30 47003 H 4408.55 3.59298 1.54987 0
M  V30 47004 H 4408.18 2.63826 2.97458 0
M  V30 47005 N 4409.17 -0.771003 1.37453 0
M  V30 47006 C 4410.12 -1.87452 1.29792 0
M  V30 47007 C 4411.11 -1.59826 0.185598 0
M  V30 47008 O 4412.3 -1.71943 0.420058 0
M  V30 47009 C 4409.43 -3.24931 1.10791 0
M  V30 47010 C 4408.51 -3.58506 2.26571 0
M  V30 47011 N 4408.9 -3.63258 3.51962 0
M  V30 47012 C 4407.2 -3.88675 2.18741 0
M  V30 47013 C 4407.9 -3.93601 4.28314 0
M  V30 47014 N 4406.88 -4.09538 3.57463 0
M  V30 47015 H 4410.68 -1.89378 2.24751 0
M  V30 47016 H 4408.2 -0.967485 1.30436 0
M  V30 47017 H 4410.19 -4.03877 1.03388 0
M  V30 47018 H 4408.85 -3.24268 0.167494 0
M  V30 47019 H 4409.86 -3.45445 3.8586 0
M  V30 47020 H 4406.54 -3.95829 1.3276 0
M  V30 47021 H 4407.93 -4.04047 5.36839 0
M  V30 47022 N 4410.65 -1.22035 -0.997255 0
M  V30 47023 C 4411.9 -1.05388 -1.73968 0
M  V30 47024 C 4412.25 0.407353 -1.88038 0
M  V30 47025 O 4411.54 1.29806 -1.40929 0
M  V30 47026 C 4411.74 -1.69356 -3.14727 0
M  V30 47027 C 4411.57 -3.21548 -3.14384 0
M  V30 47028 C 4410.34 -3.90631 -3.20524 0
M  V30 47029 C 4412.54 -4.18538 -2.98882 0
M  V30 47030 N 4410.52 -5.29946 -3.09888 0
M  V30 47031 C 4411.89 -5.44655 -2.96227 0
M  V30 47032 C 4413.94 -4.09486 -2.83241 0
M  V30 47033 C 4412.65 -6.62762 -2.79534 0
M  V30 47034 C 4414.67 -5.27238 -2.67907 0
M  V30 47035 C 4414.03 -6.52271 -2.65936 0
M  V30 47036 H 4410.13 -0.440041 -0.646442 0
M  V30 47037 H 4412.72 -1.54509 -1.18469 0
M  V30 47038 H 4410.89 -1.22791 -3.68479 0
M  V30 47039 H 4412.62 -1.45841 -3.77508 0
M  V30 47040 H 4409.38 -3.41603 -3.28031 0
M  V30 47041 H 4409.8 -6.02936 -3.07891 0
M  V30 47042 H 4414.44 -3.13608 -2.83566 0
M  V30 47043 H 4412.16 -7.58793 -2.77956 0
M  V30 47044 H 4415.75 -5.22062 -2.56793 0
M  V30 47045 H 4414.63 -7.41853 -2.54213 0
M  V30 47046 N 4412.13 1.19341 -1.02934 0
M  V30 47047 C 4413.38 1.89035 -0.726074 0
M  V30 47048 C 4413.7 1.79651 0.745364 0
M  V30 47049 O 4412.96 1.1836 1.55851 0
M  V30 47050 C 4413.26 3.39288 -1.12331 0
M  V30 47051 C 4412.92 3.68875 -2.5931 0
M  V30 47052 C 4411.59 3.76661 -2.99467 0
M  V30 47053 C 4413.94 3.82165 -3.544 0
M  V30 47054 C 4411.27 3.95205 -4.33625 0
M  V30 47055 C 4413.62 4.02223 -4.88262 0
M  V30 47056 C 4412.28 4.08241 -5.28106 0
M  V30 47057 H 4411.55 0.69173 -0.265689 0
M  V30 47058 H 4414.2 1.41324 -1.29228 0
M  V30 47059 H 4412.5 3.88901 -0.475721 0
M  V30 47060 H 4414.2 3.91533 -0.866175 0
M  V30 47061 H 4410.79 3.63425 -2.27201 0
M  V30 47062 H 4414.97 3.75494 -3.24528 0
M  V30 47063 H 4410.23 3.98103 -4.6403 0
M  V30 47064 H 4414.4 4.11448 -5.61857 0
M  V30 47065 H 4412.03 4.22362 -6.32071 0
M  V30 47066 N 4413.61 0.80727 1.35355 0
M  V30 47067 C 4414.83 0.399381 2.03518 0
M  V30 47068 C 4415.26 -0.98193 1.60436 0
M  V30 47069 O 4414.61 -1.63599 0.781357 0
M  V30 47070 C 4414.66 0.491678 3.57232 0
M  V30 47071 O 4413.77 -0.49461 4.09423 0
M  V30 47072 H 4413.11 0.166704 0.642733 0
M  V30 47073 H 4415.64 1.09334 1.72937 0
M  V30 47074 H 4415.65 0.36173 4.06393 0
M  V30 47075 H 4414.32 1.49921 3.87939 0
M  V30 47076 H 4412.9 -0.324846 3.71482 0
M  V30 47077 N 4415.08 -1.47283 0.560833 0
M  V30 47078 C 4416.5 -1.58064 0.220865 0
M  V30 47079 C 4416.7 -1.55896 -1.27666 0
M  V30 47080 O 4415.76 -1.46429 -2.05705 0
M  V30 47081 C 4417.07 -2.88415 0.850727 0
M  V30 47082 C 4418.62 -3.02006 0.82229 0
M  V30 47083 C 4419.09 -4.35061 1.43129 0
M  V30 47084 N 4420.58 -4.41706 1.39463 0
M  V30 47085 C 4421.32 -5.4323 1.83544 0
M  V30 47086 N 4420.81 -6.51547 2.35497 0
M  V30 47087 N 4422.61 -5.34298 1.74593 0
M  V30 47088 H 4414.76 -1.46936 1.53374 0
M  V30 47089 H 4417.02 -0.699536 0.639807 0
M  V30 47090 H 4416.73 -2.95748 1.90331 0
M  V30 47091 H 4416.6 -3.75611 0.345905 0
M  V30 47092 H 4418.99 -2.94267 -0.221611 0
M  V30 47093 H 4419.07 -2.16342 1.36491 0
M  V30 47094 H 4418.71 -4.43556 2.47427 0
M  V30 47095 H 4418.64 -5.19462 0.864082 0
M  V30 47096 H 4421.13 -3.64024 1.01465 0
M  V30 47097 H 4421.45 -7.25194 2.67046 0
M  V30 47098 H 4419.79 -6.52426 2.3951 0
M  V30 47099 H 4422.98 -4.48576 1.33779 0
M  V30 47100 H 4423.16 -6.1328 2.09264 0
M  V30 47101 N 4416.56 -0.297469 -1.54767 0
M  V30 47102 C 4417.47 0.58975 -2.27066 0
M  V30 47103 C 4418.49 1.15139 -1.30457 0
M  V30 47104 O 4419.66 1.17693 -1.63433 0
M  V30 47105 C 4416.73 1.74703 -2.99466 0
M  V30 47106 C 4415.79 1.21982 -4.11605 0
M  V30 47107 C 4415.02 2.32195 -4.80543 0
M  V30 47108 O 4415.25 3.52021 -4.48818 0
M  V30 47109 O 4414.18 1.99086 -5.68021 0
M  V30 47110 H 4418.01 0.00337522 -3.037 0
M  V30 47111 H 4415.59 -0.064056 -1.49263 0
M  V30 47112 H 4417.47 2.42135 -3.44889 0
M  V30 47113 H 4416.15 2.32008 -2.2573 0
M  V30 47114 H 4415.06 0.511328 -3.70589 0
M  V30 47115 H 4416.39 0.692247 -4.87308 0
M  V30 47116 N 4418.04 1.5758 -0.0251282 0
M  V30 47117 C 4418.99 2.11128 0.976096 0
M  V30 47118 C 4419.98 1.03693 1.33955 0
M  V30 47119 O 4421.19 1.22133 1.32225 0
M  V30 47120 H 4417.56 0.67448 0.332538 0
M  V30 47121 H 4419.53 2.94196 0.499119 0
M  V30 47122 C 4418.28 2.65025 2.25071 0
M  V30 47123 H 4417.61 3.4734 1.97977 0
M  V30 47124 H 4419.05 3.06143 2.93347 0
M  V30 47125 C 4417.51 1.57584 2.97773 0
M  V30 47126 O 4418.04 0.973341 3.89729 0
M  V30 47127 N 4416.24 1.29725 2.60038 0
M  V30 47128 H 4415.79 1.78906 1.85338 0
M  V30 47129 H 4415.75 0.580619 3.08992 0
M  V30 47130 N 4419.52 -0.247971 1.55637 0
M  V30 47131 C 4420.74 -0.997964 1.81812 0
M  V30 47132 C 4421.17 -1.78205 0.602041 0
M  V30 47133 O 4420.53 -1.75655 -0.448899 0
M  V30 47134 C 4420.57 -1.9124 3.05712 0
M  V30 47135 O 4419.68 -3.00396 2.82552 0
M  V30 47136 H 4419.02 -0.284024 0.600189 0
M  V30 47137 H 4421.55 -0.269286 2.0282 0
M  V30 47138 H 4421.56 -2.32725 3.35116 0
M  V30 47139 H 4420.23 -1.33588 3.93862 0
M  V30 47140 H 4418.81 -2.63047 2.64312 0
M  V30 47141 N 4421 -1.48997 -0.513587 0
M  V30 47142 C 4421.93 -1.67642 -1.62538 0
M  V30 47143 C 4422.91 -0.525144 -1.61791 0
M  V30 47144 O 4424.09 -0.759565 -1.7873 0
M  V30 47145 C 4421.22 -1.73125 -3.01073 0
M  V30 47146 C 4420.18 -2.87916 -3.16683 0
M  V30 47147 C 4419.5 -2.78502 -4.56444 0
M  V30 47148 C 4420.8 -4.29015 -2.97898 0
M  V30 47149 H 4422.5 -2.60721 -1.47189 0
M  V30 47150 H 4420.04 -1.25468 -0.70667 0
M  V30 47151 H 4422 -1.84755 -3.78739 0
M  V30 47152 H 4420.72 -0.766352 -3.17482 0
M  V30 47153 H 4419.38 -2.75867 -2.41439 0
M  V30 47154 H 4419.03 -1.79947 -4.69711 0
M  V30 47155 H 4418.73 -3.55539 -4.67831 0
M  V30 47156 H 4420.25 -2.92123 -5.36187 0
M  V30 47157 H 4421.67 -4.41811 -3.65343 0
M  V30 47158 H 4420.06 -5.07177 -3.20767 0
M  V30 47159 H 4421.13 -4.44336 -1.94149 0
M  V30 47160 N 4422.48 0.763702 -1.3786 0
M  V30 47161 C 4423.7 1.558 -1.36898 0
M  V30 47162 C 4424.13 1.88054 0.0415474 0
M  V30 47163 O 4423.48 1.49829 1.02084 0
M  V30 47164 C 4423.53 2.84005 -2.22202 0
M  V30 47165 O 4422.64 3.78727 -1.63217 0
M  V30 47166 H 4421.98 0.471621 -0.467407 0
M  V30 47167 H 4424.51 0.944593 -1.8149 0
M  V30 47168 H 4424.52 3.33029 -2.35702 0
M  V30 47169 H 4423.19 2.59858 -3.24726 0
M  V30 47170 H 4421.77 3.37396 -1.58803 0
M  V30 47171 N 4423.95 1.22562 0.990769 0
M  V30 47172 C 4425.2 1.04939 1.7272 0
M  V30 47173 C 4425.52 -0.416091 1.90509 0
M  V30 47174 O 4424.79 -1.29913 1.46627 0
M  V30 47175 H 4423.37 0.385319 0.639952 0
M  V30 47176 H 4426.03 1.54109 1.19316 0
M  V30 47177 H 4425.13 1.52895 2.72083 0
M  V30 47178 N 4425.43 -1.18793 1.03566 0
M  V30 47179 C 4426.68 -1.88927 0.737179 0
M  V30 47180 C 4427.01 -1.7984 -0.732893 0
M  V30 47181 O 4426.29 -1.19531 -1.53436 0
M  V30 47182 C 4426.57 -3.39603 1.19757 0
M  V30 47183 C 4426.42 -3.57527 2.72937 0
M  V30 47184 C 4427.74 -4.33066 0.783678 0
M  V30 47185 H 4424.86 -0.686048 0.269273 0
M  V30 47186 H 4427.5 -1.39792 1.28678 0
M  V30 47187 H 4425.65 -3.8158 0.729989 0
M  V30 47188 H 4427.32 -3.24676 3.27693 0
M  V30 47189 H 4425.57 -3.00352 3.13004 0
M  V30 47190 H 4426.24 -4.63227 3.00207 0
M  V30 47191 H 4428.71 -3.98841 1.18595 0
M  V30 47192 H 4427.59 -5.37066 1.13362 0
M  V30 47193 H 4427.85 -4.40987 -0.313526 0
M  V30 47194 N 4426.91 -0.814437 -1.34925 0
M  V30 47195 C 4427.82 -0.23206 -2.33449 0
M  V30 47196 C 4428.84 0.629082 -1.6223 0
M  V30 47197 O 4430.01 0.538984 -1.94054 0
M  V30 47198 C 4427.08 0.603362 -3.41409 0
M  V30 47199 C 4426.14 -0.279188 -4.28391 0
M  V30 47200 C 4425.37 0.516457 -5.31195 0
M  V30 47201 O 4425.59 1.75048 -5.42876 0
M  V30 47202 O 4424.53 -0.0967768 -6.01822 0
M  V30 47203 H 4428.35 -1.04731 -2.8507 0
M  V30 47204 H 4425.94 -0.576391 -1.37834 0
M  V30 47205 H 4427.82 1.07894 -4.07353 0
M  V30 47206 H 4426.5 1.39608 -2.92047 0
M  V30 47207 H 4425.4 -0.802077 -3.65401 0
M  V30 47208 H 4426.74 -1.03605 -4.81172 0
M  V30 47209 N 4428.39 1.46984 -0.568636 0
M  V30 47210 C 4429.64 2.02041 -0.0487733 0
M  V30 47211 C 4429.96 1.44413 1.31034 0
M  V30 47212 O 4429.23 0.623543 1.85711 0
M  V30 47213 H 4427.81 0.746849 -0.0150403 0
M  V30 47214 H 4430.47 1.80255 -0.741232 0
M  V30 47215 H 4429.56 3.12085 0.0307864 0
M  V30 47216 N 4429.87 0.305673 1.54607 0
M  V30 47217 C 4430.78 -0.5777 2.27376 0
M  V30 47218 C 4431.79 -1.14446 1.31065 0
M  V30 47219 O 4432.97 -1.16825 1.64054 0
M  V30 47220 C 4430.03 -1.73113 3.00388 0
M  V30 47221 C 4429.09 -1.19798 4.12246 0
M  V30 47222 C 4428.33 -2.29643 4.81767 0
M  V30 47223 O 4428.55 -3.49635 4.50679 0
M  V30 47224 O 4427.48 -1.96071 5.69069 0
M  V30 47225 H 4431.31 0.0127308 3.03697 0
M  V30 47226 H 4428.89 0.0719708 1.49227 0
M  V30 47227 H 4430.78 -2.40303 3.46168 0
M  V30 47228 H 4429.45 -2.30807 2.26957 0
M  V30 47229 H 4428.36 -0.491668 3.70855 0
M  V30 47230 H 4429.69 -0.666395 4.87668 0
M  V30 47231 N 4431.34 -1.57564 0.0334847 0
M  V30 47232 C 4432.59 -1.91601 -0.642932 0
M  V30 47233 C 4432.91 -0.910908 -1.72417 0
M  V30 47234 O 4432.18 0.0469242 -1.95844 0
M  V30 47235 H 4430.76 -0.707236 -0.240471 0
M  V30 47236 H 4433.42 -1.94726 0.0823173 0
M  V30 47237 H 4432.52 -2.9234 -1.09288 0
M  V30 47238 N 4432.82 0.239714 -1.55766 0
M  V30 47239 C 4433.75 1.30045 -1.93934 0
M  V30 47240 C 4434.73 1.49836 -0.805185 0
M  V30 47241 O 4435.92 1.62324 -1.06605 0
M  V30 47242 C 4433.05 2.65383 -2.24029 0
M  V30 47243 C 4432 2.60277 -3.39764 0
M  V30 47244 C 4431.33 3.99477 -3.55419 0
M  V30 47245 C 4432.63 2.16637 -4.75253 0
M  V30 47246 H 4434.32 0.983474 -2.82786 0
M  V30 47247 H 4431.87 0.471653 -1.36057 0
M  V30 47248 H 4433.82 3.39731 -2.4932 0
M  V30 47249 H 4432.54 2.98732 -1.32011 0
M  V30 47250 H 4431.2 1.88386 -3.14493 0
M  V30 47251 H 4430.85 4.30103 -2.60808 0
M  V30 47252 H 4430.55 3.96947 -4.33252 0
M  V30 47253 H 4432.08 4.75514 -3.83039 0
M  V30 47254 H 4433.49 2.8072 -4.99869 0
M  V30 47255 H 4431.89 2.25204 -5.5624 0
M  V30 47256 H 4432.96 1.11819 -4.71831 0
M  V30 47257 N 4434.3 1.49267 0.505678 0
M  V30 47258 C 4435.25 1.61986 1.60451 0
M  V30 47259 C 4436.23 0.475734 1.53706 0
M  V30 47260 O 4437.43 0.728448 1.61315 0
M  V30 47261 C 4434.55 1.68536 2.99083 0
M  V30 47262 C 4433.64 2.88511 3.10841 0
M  V30 47263 N 4434.03 4.12645 2.92502 0
M  V30 47264 C 4432.33 2.8635 3.41935 0
M  V30 47265 C 4433.03 4.93268 3.0832 0
M  V30 47266 N 4432.01 4.26544 3.36988 0
M  V30 47267 H 4435.81 2.55686 1.44919 0
M  V30 47268 H 4433.32 1.45975 0.711701 0
M  V30 47269 H 4435.32 1.75745 3.78046 0
M  V30 47270 H 4433.98 0.759695 3.15688 0
M  V30 47271 H 4434.99 4.42699 2.68772 0
M  V30 47272 H 4431.67 2.03142 3.64746 0
M  V30 47273 H 4433.06 6.01867 2.98673 0
M  V30 47274 N 4435.78 -0.756381 1.38263 0
M  V30 47275 C 4436.73 -1.87006 1.35267 0
M  V30 47276 C 4437.7 -1.64694 0.215674 0
M  V30 47277 O 4438.88 -1.86398 0.407465 0
M  V30 47278 C 4436.02 -3.2427 1.18079 0
M  V30 47279 C 4435.13 -3.58433 2.41142 0
M  V30 47280 C 4434.27 -4.84987 2.16706 0
M  V30 47281 C 4433.31 -5.11927 3.35555 0
M  V30 47282 N 4432.44 -6.29674 3.10572 0
M  V30 47283 H 4437.28 -1.88902 2.30478 0
M  V30 47284 H 4434.82 -0.923333 1.14512 0
M  V30 47285 H 4436.78 -4.03475 1.0613 0
M  V30 47286 H 4435.41 -3.2171 0.265086 0
M  V30 47287 H 4434.46 -2.74094 2.63774 0
M  V30 47288 H 4435.77 -3.74272 3.2973 0
M  V30 47289 H 4434.93 -5.72128 2.01877 0
M  V30 47290 H 4433.67 -4.71282 1.25479 0
M  V30 47291 H 4432.67 -4.23255 3.50906 0
M  V30 47292 H 4433.9 -5.27531 4.27654 0
M  V30 47293 H 4431.84 -6.17298 2.21989 0
M  V30 47294 H 4431.76 -6.46 3.92708 0
M  V30 47295 H 4433.03 -7.19712 2.99392 0
M  V30 47296 N 4437.26 -1.23086 -0.984255 0
M  V30 47297 C 4438.19 -1.033 -2.09407 0
M  V30 47298 C 4439.17 0.0488632 -1.7003 0
M  V30 47299 O 4440.35 -0.115035 -1.93859 0
M  V30 47300 C 4437.48 -0.619275 -3.41734 0
M  V30 47301 C 4436.44 -1.64805 -3.94998 0
M  V30 47302 C 4435.76 -1.08989 -5.23475 0
M  V30 47303 C 4437.06 -3.04014 -4.24703 0
M  V30 47304 H 4438.76 -1.96127 -2.26218 0
M  V30 47305 H 4436.3 -0.944382 -1.08708 0
M  V30 47306 H 4438.26 -0.467924 -4.18794 0
M  V30 47307 H 4436.98 0.344672 -3.24776 0
M  V30 47308 H 4435.64 -1.78732 -3.20079 0
M  V30 47309 H 4435.29 -0.117037 -5.02864 0
M  V30 47310 H 4434.99 -1.77724 -5.60079 0
M  V30 47311 H 4436.51 -0.950305 -6.0316 0
M  V30 47312 H 4437.92 -2.93411 -4.92527 0
M  V30 47313 H 4436.32 -3.69952 -4.72499 0
M  V30 47314 H 4437.39 -3.53296 -3.32129 0
M  V30 47315 N 4438.73 1.18243 -1.04194 0
M  V30 47316 C 4439.98 1.87883 -0.744609 0
M  V30 47317 C 4440.3 1.80823 0.729943 0
M  V30 47318 O 4439.57 1.22742 1.5268 0
M  V30 47319 H 4438.15 0.695546 -0.272442 0
M  V30 47320 H 4440.82 1.4349 -1.31897 0
M  V30 47321 H 4439.91 2.93886 -1.05059 0
M  V30 47322 N 4440.21 0.821581 1.34491 0
M  V30 47323 C 4441.44 0.421343 2.02258 0
M  V30 47324 C 4441.85 -0.97699 1.62023 0
M  V30 47325 O 4441.19 -1.64345 0.820761 0
M  V30 47326 C 4441.26 0.442436 3.56767 0
M  V30 47327 C 4440.92 1.79387 4.20321 0
M  V30 47328 C 4441.92 2.75451 4.40934 0
M  V30 47329 C 4439.6 2.08198 4.5712 0
M  V30 47330 C 4441.6 3.985 4.9747 0
M  V30 47331 C 4439.28 3.31508 5.13367 0
M  V30 47332 C 4440.28 4.26476 5.33486 0
M  V30 47333 O 4439.97 5.47606 5.88543 0
M  V30 47334 H 4439.7 0.167496 0.654921 0
M  V30 47335 H 4442.25 1.11079 1.72773 0
M  V30 47336 H 4440.48 -0.303701 3.85506 0
M  V30 47337 H 4442.17 0.0624352 4.05852 0
M  V30 47338 H 4442.94 2.54488 4.12869 0
M  V30 47339 H 4438.82 1.35082 4.40765 0
M  V30 47340 H 4442.36 4.72636 5.13089 0
M  V30 47341 H 4438.26 3.52335 5.40861 0
M  V30 47342 H 4439.03 5.49108 6.06978 0
M  V30 47343 N 4441.69 -1.4668 0.576422 0
M  V30 47344 C 4442.94 -2.01618 0.0573534 0
M  V30 47345 C 4443.25 -1.45422 -1.30813 0
M  V30 47346 O 4444.46 -1.9214 -1.91819 0
M  V30 47347 C 4442.91 -3.59862 0.0519636 0
M  V30 47348 C 4442.52 -4.25054 1.41538 0
M  V30 47349 C 4444.27 -4.22481 -0.41349 0
M  V30 47350 C 4442.17 -5.75359 1.36805 0
M  V30 47351 H 4441.1 -0.753793 0.0176713 0
M  V30 47352 H 4443.75 -1.68478 0.727136 0
M  V30 47353 H 4442.14 -3.90051 -0.683857 0
M  V30 47354 H 4443.31 -4.06484 2.17043 0
M  V30 47355 H 4441.63 -3.74503 1.82034 0
M  V30 47356 H 4444.22 -5.32652 -0.467591 0
M  V30 47357 H 4444.57 -3.90981 -1.42968 0
M  V30 47358 H 4445.1 -3.96896 0.268068 0
M  V30 47359 H 4441.84 -6.1151 2.36085 0
M  V30 47360 H 4441.36 -5.96212 0.655105 0
M  V30 47361 H 4443.04 -6.37952 1.07827 0
M  V30 47362 N 4443.17 -0.313868 -1.54443 0
M  V30 47363 C 4444.1 0.549375 -2.26945 0
M  V30 47364 C 4445.08 1.12736 -1.27376 0
M  V30 47365 O 4446.26 1.1543 -1.56171 0
M  V30 47366 C 4443.39 1.71512 -3.01995 0
M  V30 47367 C 4442.35 1.26689 -4.0882 0
M  V30 47368 C 4441.67 2.51882 -4.71656 0
M  V30 47369 C 4442.97 0.388779 -5.20851 0
M  V30 47370 H 4444.67 -0.0553714 -2.99349 0
M  V30 47371 H 4442.21 -0.0280713 -1.43973 0
M  V30 47372 H 4444.17 2.32523 -3.51441 0
M  V30 47373 H 4442.89 2.34631 -2.27192 0
M  V30 47374 H 4441.55 0.67977 -3.60243 0
M  V30 47375 H 4441.2 3.13343 -3.93479 0
M  V30 47376 H 4440.9 2.22586 -5.4381 0
M  V30 47377 H 4442.42 3.13672 -5.23872 0
M  V30 47378 H 4443.84 0.904908 -5.66113 0
M  V30 47379 H 4442.23 0.189029 -5.99802 0
M  V30 47380 H 4443.3 -0.582868 -4.81384 0
M  V30 47381 N 4444.65 1.57544 -0.0418402 0
M  V30 47382 C 4446.06 1.56468 0.314649 0
M  V30 47383 C 4446.26 1.04866 1.72062 0
M  V30 47384 O 4445.32 0.701068 2.42572 0
M  V30 47385 C 4446.63 3.00317 0.151634 0
M  V30 47386 C 4448.18 3.12201 0.223444 0
M  V30 47387 C 4448.65 4.57913 0.0890685 0
M  V30 47388 N 4450.15 4.62971 0.145645 0
M  V30 47389 C 4450.88 5.73362 0.0656443 0
M  V30 47390 N 4450.38 6.92768 -0.0661717 0
M  V30 47391 N 4452.17 5.61971 0.120553 0
M  V30 47392 H 4444.32 1.89412 -0.961081 0
M  V30 47393 H 4446.58 0.871849 -0.372267 0
M  V30 47394 H 4446.29 3.4207 -0.817375 0
M  V30 47395 H 4446.16 3.65895 0.916564 0
M  V30 47396 H 4448.55 2.70354 1.18292 0
M  V30 47397 H 4448.63 2.49321 -0.572081 0
M  V30 47398 H 4448.28 5.00445 -0.867043 0
M  V30 47399 H 4448.21 5.18789 0.90362 0
M  V30 47400 H 4450.7 3.77091 0.247153 0
M  V30 47401 H 4451.01 7.72707 -0.120177 0
M  V30 47402 H 4449.35 6.94926 -0.101129 0
M  V30 47403 H 4452.55 4.67573 0.222023 0
M  V30 47404 H 4452.72 6.47977 0.0547457 0
M  V30 47405 N 4446.12 -0.23145 1.55891 0
M  V30 47406 C 4447.03 -1.30794 1.94757 0
M  V30 47407 C 4448.05 -1.51823 0.850042 0
M  V30 47408 O 4449.23 -1.65146 1.15277 0
M  V30 47409 C 4446.29 -2.6396 2.2478 0
M  V30 47410 C 4445.35 -2.51319 3.48048 0
M  V30 47411 C 4444.59 -3.78135 3.7663 0
M  V30 47412 O 4444.81 -4.80711 3.07039 0
M  V30 47413 O 4443.74 -3.7584 4.70136 0
M  V30 47414 H 4447.57 -1.0082 2.86477 0
M  V30 47415 H 4445.15 -0.433496 1.42973 0
M  V30 47416 H 4447.04 -3.42624 2.4533 0
M  V30 47417 H 4445.71 -2.93635 1.36236 0
M  V30 47418 H 4444.62 -1.70888 3.32788 0
M  V30 47419 H 4445.95 -2.26585 4.36944 0
M  V30 47420 N 4447.6 -1.49533 -0.497755 0
M  V30 47421 C 4448.85 -1.59419 -1.25353 0
M  V30 47422 C 4449.18 -0.281489 -1.92149 0
M  V30 47423 O 4448.46 0.715186 -1.80874 0
M  V30 47424 C 4448.74 -2.75574 -2.318 0
M  V30 47425 C 4448.59 -4.16648 -1.69483 0
M  V30 47426 C 4449.91 -2.87359 -3.33336 0
M  V30 47427 H 4447.03 -0.58026 -0.454387 0
M  V30 47428 H 4449.67 -1.81829 -0.551198 0
M  V30 47429 H 4447.82 -2.56597 -2.91702 0
M  V30 47430 H 4449.49 -4.47149 -1.13383 0
M  V30 47431 H 4447.74 -4.22144 -0.99883 0
M  V30 47432 H 4448.41 -4.93801 -2.46708 0
M  V30 47433 H 4450.88 -3.04644 -2.83428 0
M  V30 47434 H 4449.76 -3.70303 -4.05175 0
M  V30 47435 H 4450.02 -1.96848 -3.95858 0
M  V30 47436 N 4449.08 0.749038 -1.38662 0
M  V30 47437 C 4450.31 1.54339 -1.38543 0
M  V30 47438 C 4450.73 1.88088 0.0215994 0
M  V30 47439 O 4450.09 1.50903 1.00489 0
M  V30 47440 C 4450.14 2.81632 -2.25202 0
M  V30 47441 O 4449.24 3.76974 -1.67225 0
M  V30 47442 H 4448.58 0.466637 -0.472383 0
M  V30 47443 H 4451.11 0.925291 -1.82482 0
M  V30 47444 H 4451.12 3.3051 -2.39221 0
M  V30 47445 H 4449.8 2.56399 -3.27464 0
M  V30 47446 H 4448.37 3.35693 -1.62372 0
M  V30 47447 N 4450.56 1.23606 0.977714 0
M  V30 47448 C 4451.51 1.01961 2.07057 0
M  V30 47449 C 4452.48 -0.0638113 1.65977 0
M  V30 47450 O 4453.66 0.0888294 1.90593 0
M  V30 47451 C 4450.8 0.619777 3.39489 0
M  V30 47452 C 4449.91 1.77561 3.93822 0
M  V30 47453 C 4449.05 1.3223 5.14479 0
M  V30 47454 C 4448.09 2.44872 5.60985 0
M  V30 47455 N 4447.23 2.0048 6.72869 0
M  V30 47456 H 4452.07 1.95503 2.24906 0
M  V30 47457 H 4449.6 0.9739 1.10243 0
M  V30 47458 H 4451.56 0.369044 4.15565 0
M  V30 47459 H 4450.19 -0.278639 3.21595 0
M  V30 47460 H 4449.24 2.14027 3.14478 0
M  V30 47461 H 4450.55 2.62234 4.24305 0
M  V30 47462 H 4449.71 1.02986 5.97895 0
M  V30 47463 H 4448.45 0.445978 4.85657 0
M  V30 47464 H 4447.45 2.74888 4.76148 0
M  V30 47465 H 4448.68 3.33045 5.91826 0
M  V30 47466 H 4446.62 1.15231 6.458 0
M  V30 47467 H 4446.54 2.78711 7.02749 0
M  V30 47468 H 4447.81 1.74347 7.59752 0
M  V30 47469 N 4452.04 -1.17688 1.0482 0
M  V30 47470 C 4452.98 -2.21579 0.645875 0
M  V30 47471 C 4453.95 -1.62368 -0.350102 0
M  V30 47472 O 4455.14 -1.89254 -0.242366 0
M  V30 47473 C 4452.28 -3.45092 0.0228781 0
M  V30 47474 C 4451.39 -4.1861 1.06723 0
M  V30 47475 C 4450.53 -5.296 0.411954 0
M  V30 47476 C 4449.57 -5.94899 1.44088 0
M  V30 47477 N 4448.7 -6.97412 0.810027 0
M  V30 47478 H 4453.54 -2.55347 1.53629 0
M  V30 47479 H 4451.08 -1.25435 0.768408 0
M  V30 47480 H 4453.04 -4.15681 -0.355733 0
M  V30 47481 H 4451.67 -3.1192 -0.831012 0
M  V30 47482 H 4450.72 -3.46774 1.56372 0
M  V30 47483 H 4452.03 -4.63286 1.84843 0
M  V30 47484 H 4451.19 -6.06697 -0.0204491 0
M  V30 47485 H 4449.93 -4.86046 -0.401267 0
M  V30 47486 H 4448.93 -5.16537 1.88334 0
M  V30 47487 H 4450.16 -6.40534 2.25593 0
M  V30 47488 H 4448.1 -6.55998 0.0172492 0
M  V30 47489 H 4448.02 -7.4038 1.52882 0
M  V30 47490 H 4449.29 -7.78461 0.402273 0
M  V30 47491 N 4453.52 -0.828702 -1.34053 0
M  V30 47492 C 4454.43 -0.256807 -2.3319 0
M  V30 47493 C 4455.44 0.61184 -1.62888 0
M  V30 47494 O 4456.62 0.518372 -1.94615 0
M  V30 47495 C 4453.68 0.567117 -3.4203 0
M  V30 47496 C 4452.74 -0.324609 -4.28071 0
M  V30 47497 C 4451.98 0.460087 -5.31713 0
M  V30 47498 O 4452.2 1.69281 -5.44702 0
M  V30 47499 O 4451.13 -0.160603 -6.01686 0
M  V30 47500 H 4454.96 -1.07749 -2.83944 0
M  V30 47501 H 4452.54 -0.590978 -1.37214 0
M  V30 47502 H 4454.43 1.03568 -4.08475 0
M  V30 47503 H 4453.1 1.36503 -2.93511 0
M  V30 47504 H 4452.01 -0.840787 -3.64529 0
M  V30 47505 H 4453.34 -1.08702 -4.80047 0
M  V30 47506 N 4454.99 1.46373 -0.584193 0
M  V30 47507 C 4456.24 2.01978 -0.0701997 0
M  V30 47508 C 4456.56 1.45795 1.29495 0
M  V30 47509 O 4455.83 0.643205 1.8504 0
M  V30 47510 H 4454.41 0.746647 -0.0229607 0
M  V30 47511 H 4457.07 1.79458 -0.760308 0
M  V30 47512 H 4456.17 3.121 -0.00231612 0
M  V30 47513 N 4456.47 0.322054 1.54274 0
M  V30 47514 C 4457.72 -0.280419 2.00145 0
M  V30 47515 C 4458.04 -1.52773 1.21183 0
M  V30 47516 O 4457.31 -1.93379 0.313255 0
M  V30 47517 H 4455.89 -0.106606 0.739354 0
M  V30 47518 H 4458.55 0.43825 1.89909 0
M  V30 47519 H 4457.65 -0.537863 3.0743 0
M  V30 47520 N 4457.95 -1.5752 0.0501946 0
M  V30 47521 C 4458.91 -2.10373 -0.909712 0
M  V30 47522 C 4459.91 -1.02312 -1.24052 0
M  V30 47523 O 4461.1 -1.28389 -1.17737 0
M  V30 47524 C 4458.23 -2.58715 -2.21989 0
M  V30 47525 H 4459.43 -2.96481 -0.451561 0
M  V30 47526 H 4456.98 -1.55038 -0.198193 0
M  V30 47527 H 4457.72 -1.75998 -2.72388 0
M  V30 47528 H 4457.5 -3.37682 -1.99283 0
M  V30 47529 H 4458.99 -2.99757 -2.9075 0
M  V30 47530 N 4459.43 0.223179 -1.56012 0
M  V30 47531 C 4460.36 1.30371 -1.87293 0
M  V30 47532 C 4461.34 1.45284 -0.730163 0
M  V30 47533 O 4462.52 1.61122 -0.978358 0
M  V30 47534 C 4459.65 2.67423 -2.07852 0
M  V30 47535 C 4458.7 2.69534 -3.30535 0
M  V30 47536 S 4459.53 2.23764 -4.86508 0
M  V30 47537 C 4460.68 3.62696 -5.10101 0
M  V30 47538 H 4460.92 1.03642 -2.7865 0
M  V30 47539 H 4458.45 0.425341 -1.48426 0
M  V30 47540 H 4460.41 3.46328 -2.2038 0
M  V30 47541 H 4459.07 2.91377 -1.17295 0
M  V30 47542 H 4458.26 3.70242 -3.4196 0
M  V30 47543 H 4457.86 1.98692 -3.16856 0
M  V30 47544 H 4460.16 4.58373 -4.98899 0
M  V30 47545 H 4461.1 3.56188 -6.11993 0
M  V30 47546 H 4461.51 3.56308 -4.37841 0
M  V30 47547 N 4460.91 1.49795 0.489818 0
M  V30 47548 C 4462.14 1.63335 1.26512 0
M  V30 47549 C 4462.54 0.308458 1.86669 0
M  V30 47550 O 4461.89 -0.717453 1.6911 0
M  V30 47551 C 4461.95 2.65229 2.42681 0
M  V30 47552 C 4461.61 4.09286 2.03307 0
M  V30 47553 C 4462.61 4.95744 1.56634 0
M  V30 47554 C 4460.29 4.5509 2.126 0
M  V30 47555 C 4462.29 6.26046 1.19773 0
M  V30 47556 C 4459.98 5.85402 1.7535 0
M  V30 47557 C 4460.97 6.70705 1.29012 0
M  V30 47558 O 4460.66 7.98587 0.922709 0
M  V30 47559 H 4460.39 0.552516 0.38949 0
M  V30 47560 H 4462.95 1.96644 0.593312 0
M  V30 47561 H 4461.18 2.27123 3.12973 0
M  V30 47562 H 4462.87 2.68182 3.04685 0
M  V30 47563 H 4463.63 4.6158 1.48892 0
M  V30 47564 H 4459.51 3.88853 2.47618 0
M  V30 47565 H 4463.06 6.92581 0.835338 0
M  V30 47566 H 4458.95 6.19091 1.82746 0
M  V30 47567 H 4459.72 8.11696 1.0532 0
M  V30 47568 N 4462.38 -0.741673 1.39057 0
M  V30 47569 C 4463.35 -1.83728 1.37028 0
M  V30 47570 C 4464.35 -1.58541 0.26859 0
M  V30 47571 O 4465.54 -1.66065 0.526134 0
M  V30 47572 C 4462.67 -3.21406 1.13628 0
M  V30 47573 H 4463.86 -1.86932 2.34513 0
M  V30 47574 H 4461.41 -0.944632 1.24525 0
M  V30 47575 H 4462.15 -3.23865 0.167977 0
M  V30 47576 H 4461.93 -3.41083 1.93403 0
M  V30 47577 H 4463.42 -4.01473 1.14932 0
M  V30 47578 N 4463.86 -1.24123 -0.971145 0
M  V30 47579 C 4465.14 -0.986926 -1.68876 0
M  V30 47580 C 4465.52 0.491785 -2.05292 0
M  V30 47581 O 4464.87 1.46525 -1.75336 0
M  V30 47582 C 4465.08 -1.9064 -2.92331 0
M  V30 47583 C 4466.42 -2.17528 -3.64646 0
M  V30 47584 O 4467.45 -1.88265 -3.02382 0
M  V30 47585 O 4466.31 -2.67207 -4.76721 0
M  V30 47586 H 4463.4 -0.37297 -0.738121 0
M  V30 47587 H 4465.95 -1.35206 -1.02554 0
M  V30 47588 H 4464.72 -2.90562 -2.62087 0
M  V30 47589 H 4464.34 -1.54421 -3.66388 0
M  V30 47590 N 4465.34 1.17131 -1.05443 0
M  V30 47591 C 4466.62 1.83408 -0.679763 0
M  V30 47592 C 4467 1.93683 0.839658 0
M  V30 47593 O 4466.35 1.47331 1.74659 0
M  V30 47594 C 4466.56 3.20913 -1.3717 0
M  V30 47595 C 4467.9 3.9679 -1.51137 0
M  V30 47596 O 4468.93 3.30401 -1.33091 0
M  V30 47597 O 4467.79 5.15772 -1.8067 0
M  V30 47598 H 4464.88 0.791532 -0.239597 0
M  V30 47599 H 4467.43 1.24406 -1.15417 0
M  V30 47600 H 4466.2 3.08419 -2.40818 0
M  V30 47601 H 4465.82 3.87584 -0.88681 0
M  V30 47602 N 4466.82 0.835799 1.33612 0
M  V30 47603 C 4468.05 0.443415 2.02093 0
M  V30 47604 C 4468.46 -0.954465 1.62897 0
M  V30 47605 O 4467.82 -1.61979 0.84078 0
M  V30 47606 C 4467.87 0.550901 3.57278 0
M  V30 47607 O 4467.59 1.8937 3.95058 0
M  V30 47608 C 4469.09 0.155075 4.43029 0
M  V30 47609 H 4466.31 0.176382 0.647403 0
M  V30 47610 H 4468.86 1.12752 1.70608 0
M  V30 47611 H 4467.01 -0.0852635 3.87306 0
M  V30 47612 H 4467.42 1.87704 4.89763 0
M  V30 47613 H 4468.9 0.281338 5.51283 0
M  V30 47614 H 4469.38 -0.902712 4.29823 0
M  V30 47615 H 4469.98 0.765551 4.18353 0
M  V30 47616 N 4468.3 -1.46061 0.591947 0
M  V30 47617 C 4469.26 -2.28854 -0.125893 0
M  V30 47618 C 4470.26 -1.38905 -0.810058 0
M  V30 47619 O 4471.45 -1.61188 -0.660604 0
M  V30 47620 C 4468.58 -3.1953 -1.18799 0
M  V30 47621 H 4469.77 -2.93799 0.60182 0
M  V30 47622 H 4467.33 -1.52324 0.350308 0
M  V30 47623 H 4468.06 -2.59352 -1.94698 0
M  V30 47624 H 4467.85 -3.85768 -0.7018 0
M  V30 47625 H 4469.34 -3.81823 -1.69119 0
M  V30 47626 N 4469.77 -0.330231 -1.54101 0
M  V30 47627 C 4471.02 0.269801 -2.00291 0
M  V30 47628 C 4471.34 1.52128 -1.21992 0
M  V30 47629 O 4470.61 1.9321 -0.323506 0
M  V30 47630 H 4469.19 0.102684 -0.739909 0
M  V30 47631 H 4471.86 -0.448316 -1.89674 0
M  V30 47632 H 4470.95 0.521552 -3.07711 0
M  V30 47633 N 4471.25 1.57491 -0.0585476 0
M  V30 47634 C 4472.5 1.94083 0.608549 0
M  V30 47635 C 4472.85 0.937497 1.68014 0
M  V30 47636 O 4472.15 -0.042236 1.91553 0
M  V30 47637 C 4472.34 3.35134 1.24176 0
M  V30 47638 C 4472.17 4.49096 0.233029 0
M  V30 47639 C 4470.94 5.04988 -0.177617 0
M  V30 47640 C 4473.14 5.11619 -0.524485 0
M  V30 47641 N 4471.12 6.02483 -1.17844 0
M  V30 47642 C 4472.49 6.04489 -1.37817 0
M  V30 47643 C 4474.55 4.94487 -0.581996 0
M  V30 47644 C 4473.25 6.82067 -2.28423 0
M  V30 47645 C 4475.27 5.72698 -1.47551 0
M  V30 47646 C 4474.64 6.65206 -2.3169 0
M  V30 47647 H 4470.74 0.757526 0.194108 0
M  V30 47648 H 4473.32 1.94248 -0.132601 0
M  V30 47649 H 4471.49 3.35733 1.9529 0
M  V30 47650 H 4473.22 3.58996 1.86825 0
M  V30 47651 H 4469.98 4.73165 0.202838 0
M  V30 47652 H 4470.4 6.55927 -1.67596 0
M  V30 47653 H 4475.04 4.22765 0.0542944 0
M  V30 47654 H 4472.76 7.53075 -2.93094 0
M  V30 47655 H 4476.35 5.61467 -1.52468 0
M  V30 47656 H 4475.23 7.24669 -2.99708 0
M  V30 47657 N 4472.73 -0.214903 1.56128 0
M  V30 47658 C 4474.01 -0.963033 1.7025 0
M  V30 47659 C 4474.39 -2.02163 0.607711 0
M  V30 47660 O 4473.74 -2.25245 -0.384305 0
M  V30 47661 C 4473.95 -1.56745 3.11821 0
M  V30 47662 C 4475.29 -2.05717 3.71438 0
M  V30 47663 O 4476.32 -1.66626 3.14824 0
M  V30 47664 O 4475.18 -2.77586 4.70753 0
M  V30 47665 H 4472.27 -0.450296 0.693658 0
M  V30 47666 H 4474.82 -0.20616 1.68443 0
M  V30 47667 H 4473.59 -0.803398 3.82964 0
M  V30 47668 H 4473.21 -2.38968 3.17773 0
M  V30 47669 N 4474.21 -1.50053 -0.481867 0
M  V30 47670 C 4475.44 -1.64242 -1.25826 0
M  V30 47671 C 4475.85 -0.321402 -1.86044 0
M  V30 47672 O 4475.21 0.695418 -1.68731 0
M  V30 47673 C 4475.26 -2.72556 -2.37477 0
M  V30 47674 O 4474.98 -3.99535 -1.79731 0
M  V30 47675 C 4476.48 -2.97622 -3.28536 0
M  V30 47676 H 4473.7 -0.552383 -0.380938 0
M  V30 47677 H 4476.25 -1.96209 -0.576398 0
M  V30 47678 H 4474.4 -2.43313 -3.01459 0
M  V30 47679 H 4474.81 -4.59351 -2.53174 0
M  V30 47680 H 4476.29 -3.77099 -4.03114 0
M  V30 47681 H 4476.77 -2.08273 -3.86677 0
M  V30 47682 H 4477.37 -3.28355 -2.70302 0
M  V30 47683 N 4475.69 0.734288 -1.39449 0
M  V30 47684 C 4477.1 1.03993 -1.21069 0
M  V30 47685 C 4477.3 2.01369 -0.0727727 0
M  V30 47686 O 4476.36 2.45858 0.57534 0
M  V30 47687 C 4477.67 1.60154 -2.54502 0
M  V30 47688 C 4479.22 1.72231 -2.61353 0
M  V30 47689 C 4479.69 2.318 -3.9501 0
M  V30 47690 N 4481.19 2.39209 -3.96653 0
M  V30 47691 C 4481.92 2.8624 -4.96844 0
M  V30 47692 N 4481.42 3.33163 -6.07433 0
M  V30 47693 N 4483.21 2.85456 -4.84223 0
M  V30 47694 H 4475.36 0.0884878 -2.12216 0
M  V30 47695 H 4477.62 0.101877 -0.94251 0
M  V30 47696 H 4477.33 0.960692 -3.38325 0
M  V30 47697 H 4477.2 2.5895 -2.74271 0
M  V30 47698 H 4479.59 2.35437 -1.77914 0
M  V30 47699 H 4479.67 0.720853 -2.45433 0
M  V30 47700 H 4479.32 1.69222 -4.7888 0
M  V30 47701 H 4479.25 3.32624 -4.08251 0
M  V30 47702 H 4481.74 2.06045 -3.16787 0
M  V30 47703 H 4482.05 3.67562 -6.79793 0
M  V30 47704 H 4480.39 3.3117 -6.11025 0
M  V30 47705 H 4483.59 2.48122 -3.9693 0
M  V30 47706 H 4483.76 3.21794 -5.62452 0
M  V30 47707 N 4477.16 1.24636 0.964549 0
M  V30 47708 C 4478.41 1.08194 1.70226 0
M  V30 47709 C 4478.73 -0.378663 1.919 0
M  V30 47710 O 4479.93 -0.663334 2.63272 0
M  V30 47711 C 4478.39 1.88783 3.06413 0
M  V30 47712 C 4478 3.39274 2.9257 0
M  V30 47713 C 4479.74 1.8088 3.84035 0
M  V30 47714 C 4477.65 4.12195 4.24086 0
M  V30 47715 H 4476.58 0.401268 0.638357 0
M  V30 47716 H 4479.23 1.48745 1.07457 0
M  V30 47717 H 4477.61 1.41048 3.70029 0
M  V30 47718 H 4478.78 3.94611 2.37947 0
M  V30 47719 H 4477.1 3.48162 2.28412 0
M  V30 47720 H 4479.7 2.32663 4.81427 0
M  V30 47721 H 4480.04 0.774687 4.09028 0
M  V30 47722 H 4480.57 2.26312 3.27151 0
M  V30 47723 H 4477.31 5.15979 4.04284 0
M  V30 47724 H 4476.83 3.61643 4.78513 0
M  V30 47725 H 4478.51 4.19366 4.92687 0
M  V30 47726 N 4478.64 -1.1657 1.06062 0
M  V30 47727 C 4479.87 -1.90949 0.796619 0
M  V30 47728 C 4480.29 -1.77304 -0.648746 0
M  V30 47729 O 4479.64 -1.1161 -1.44393 0
M  V30 47730 C 4479.69 -3.41732 1.17906 0
M  V30 47731 O 4479.41 -3.54966 2.5677 0
M  V30 47732 C 4480.92 -4.33166 0.94246 0
M  V30 47733 H 4478.14 -0.605584 0.28898 0
M  V30 47734 H 4480.68 -1.47772 1.41363 0
M  V30 47735 H 4478.83 -3.82621 0.606625 0
M  V30 47736 H 4479.25 -4.4845 2.72016 0
M  V30 47737 H 4480.72 -5.37434 1.2597 0
M  V30 47738 H 4481.2 -4.39031 -0.121924 0
M  V30 47739 H 4481.81 -3.98002 1.49916 0
M  V30 47740 N 4480.12 -0.842873 -1.33167 0
M  V30 47741 C 4481.37 -0.436807 -1.96913 0
M  V30 47742 C 4481.68 1.01019 -1.67495 0
M  V30 47743 O 4482.89 1.52112 -2.24887 0
M  V30 47744 C 4481.35 -0.730144 -3.52416 0
M  V30 47745 C 4480.95 -2.19209 -3.90707 0
M  V30 47746 C 4482.7 -0.391225 -4.22693 0
M  V30 47747 C 4480.6 -2.42926 -5.39204 0
M  V30 47748 H 4479.53 -0.159606 -0.736914 0
M  V30 47749 H 4482.19 -1.03201 -1.51729 0
M  V30 47750 H 4480.57 -0.0645147 -3.95947 0
M  V30 47751 H 4481.74 -2.89853 -3.58221 0
M  V30 47752 H 4480.06 -2.49437 -3.33422 0
M  V30 47753 H 4482.65 -0.546004 -5.31905 0
M  V30 47754 H 4483 0.66615 -4.10936 0
M  V30 47755 H 4483.53 -1.01225 -3.84705 0
M  V30 47756 H 4480.27 -3.47244 -5.5597 0
M  V30 47757 H 4479.79 -1.76847 -5.73136 0
M  V30 47758 H 4481.47 -2.26281 -6.0614 0
M  V30 47759 N 4481.6 1.45745 -0.599685 0
M  V30 47760 C 4482.51 2.34262 0.125806 0
M  V30 47761 C 4483.53 1.50771 0.868572 0
M  V30 47762 O 4484.7 1.83595 0.827939 0
M  V30 47763 C 4481.77 3.28256 1.11575 0
M  V30 47764 C 4480.83 4.27652 0.375806 0
M  V30 47765 C 4480.06 5.17155 1.31859 0
M  V30 47766 O 4480.28 5.09925 2.55603 0
M  V30 47767 O 4479.22 5.96289 0.819947 0
M  V30 47768 H 4483.04 2.97685 -0.60142 0
M  V30 47769 H 4480.63 1.44998 -0.359985 0
M  V30 47770 H 4482.51 3.86197 1.68612 0
M  V30 47771 H 4481.19 2.67407 1.82414 0
M  V30 47772 H 4480.09 3.7335 -0.236829 0
M  V30 47773 H 4481.43 4.91333 -0.291943 0
M  V30 47774 N 4483.08 0.338398 1.53924 0
M  V30 47775 C 4484.35 -0.314706 1.93052 0
M  V30 47776 C 4484.73 -1.68664 1.26947 0
M  V30 47777 O 4484.08 -2.24634 0.418524 0
M  V30 47778 C 4484.29 -0.392127 3.4679 0
M  V30 47779 C 4485.64 -0.645407 4.19666 0
M  V30 47780 O 4486.66 -0.474451 3.53026 0
M  V30 47781 O 4485.52 -0.976219 5.3771 0
M  V30 47782 H 4482.62 -0.18257 0.806596 0
M  V30 47783 H 4485.16 0.389199 1.65177 0
M  V30 47784 H 4483.94 0.570838 3.87114 0
M  V30 47785 H 4483.56 -1.14302 3.80816 0
M  V30 47786 N 4484.56 -1.57458 0.0668989 0
M  V30 47787 C 4485.49 -2.15471 -0.899688 0
M  V30 47788 C 4486.47 -1.08046 -1.31377 0
M  V30 47789 O 4487.65 -1.36059 -1.3857 0
M  V30 47790 C 4484.78 -2.7124 -2.16902 0
M  V30 47791 C 4483.74 -3.83788 -1.89449 0
M  V30 47792 C 4483.06 -4.26138 -3.22971 0
M  V30 47793 C 4484.36 -5.08242 -1.20363 0
M  V30 47794 H 4486.06 -2.9649 -0.416424 0
M  V30 47795 H 4483.6 -1.4262 -0.198858 0
M  V30 47796 H 4485.55 -3.10468 -2.84934 0
M  V30 47797 H 4484.28 -1.87435 -2.67462 0
M  V30 47798 H 4482.94 -3.45055 -1.23824 0
M  V30 47799 H 4482.59 -3.39263 -3.71362 0
M  V30 47800 H 4482.29 -5.02003 -3.05395 0
M  V30 47801 H 4483.81 -4.67979 -3.92209 0
M  V30 47802 H 4485.22 -5.44818 -1.78456 0
M  V30 47803 H 4483.62 -5.89353 -1.13062 0
M  V30 47804 H 4484.69 -4.84558 -0.181982 0
M  V30 47805 N 4486.03 0.20662 -1.5624 0
M  V30 47806 C 4486.98 1.2561 -1.93625 0
M  V30 47807 C 4487.95 1.45821 -0.795326 0
M  V30 47808 O 4489.14 1.59145 -1.0525 0
M  V30 47809 C 4486.28 2.59831 -2.27116 0
M  V30 47810 C 4485.39 2.47295 -3.54216 0
M  V30 47811 C 4484.52 3.74141 -3.77083 0
M  V30 47812 C 4483.56 3.5639 -4.97647 0
M  V30 47813 N 4482.7 4.7522 -5.16827 0
M  V30 47814 H 4487.54 0.930284 -2.83107 0
M  V30 47815 H 4485.08 0.448016 -1.40111 0
M  V30 47816 H 4487.03 3.38013 -2.44547 0
M  V30 47817 H 4485.66 2.9048 -1.40789 0
M  V30 47818 H 4484.72 1.60471 -3.44896 0
M  V30 47819 H 4486.03 2.30106 -4.42552 0
M  V30 47820 H 4485.18 4.60764 -3.94691 0
M  V30 47821 H 4483.92 3.94272 -2.87055 0
M  V30 47822 H 4482.93 2.68151 -4.79974 0
M  V30 47823 H 4484.15 3.37716 -5.89173 0
M  V30 47824 H 4482.1 4.95636 -4.29745 0
M  V30 47825 H 4482.01 4.60814 -5.99322 0
M  V30 47826 H 4483.28 5.63227 -5.38884 0
M  V30 47827 N 4487.51 1.50306 0.473902 0
M  V30 47828 C 4488.46 1.69487 1.59301 0
M  V30 47829 C 4489.45 0.560725 1.59851 0
M  V30 47830 O 4490.66 0.741145 1.64034 0
M  V30 47831 H 4487.03 0.53491 0.528559 0
M  V30 47832 H 4489.01 2.63369 1.40284 0
M  V30 47833 C 4487.75 1.80364 2.97261 0
M  V30 47834 H 4487.08 2.67022 2.97555 0
M  V30 47835 H 4488.52 1.97811 3.75029 0
M  V30 47836 C 4486.98 0.554597 3.32304 0
M  V30 47837 O 4487.51 -0.30752 4.00521 0
M  V30 47838 N 4485.71 0.409455 2.87701 0
M  V30 47839 H 4485.26 1.11204 2.3236 0
M  V30 47840 H 4485.22 -0.425114 3.11513 0
M  V30 47841 N 4488.99 -0.726883 1.39836 0
M  V30 47842 C 4489.9 -1.87126 1.41496 0
M  V30 47843 C 4490.92 -1.71238 0.308818 0
M  V30 47844 O 4492.09 -1.93699 0.551597 0
M  V30 47845 C 4489.16 -3.22806 1.26479 0
M  V30 47846 C 4488.22 -3.5103 2.47136 0
M  V30 47847 C 4487.45 -4.80237 2.32826 0
M  V30 47848 O 4487.67 -5.54532 1.33605 0
M  V30 47849 O 4486.61 -5.08543 3.21975 0
M  V30 47850 H 4490.43 -1.88681 2.37977 0
M  V30 47851 H 4488.02 -0.875794 1.21038 0
M  V30 47852 H 4489.9 -4.03873 1.20269 0
M  V30 47853 H 4488.58 -3.22003 0.330975 0
M  V30 47854 H 4487.48 -2.70018 2.58923 0
M  V30 47855 H 4488.82 -3.5662 3.39239 0
M  V30 47856 N 4490.47 -1.25146 -0.957926 0
M  V30 47857 C 4491.38 -1.06975 -2.08791 0
M  V30 47858 C 4492.39 -0.00780028 -1.73998 0
M  V30 47859 O 4493.57 -0.208043 -2.00323 0
M  V30 47860 C 4490.63 -0.68703 -3.39825 0
M  V30 47861 C 4489.7 -1.82655 -3.88504 0
M  V30 47862 C 4488.93 -1.462 -5.13285 0
M  V30 47863 O 4489.15 -0.356171 -5.69287 0
M  V30 47864 O 4488.09 -2.29104 -5.56592 0
M  V30 47865 H 4491.91 -2.01731 -2.2702 0
M  V30 47866 H 4489.5 -1.04054 -1.07206 0
M  V30 47867 H 4491.38 -0.485564 -4.18593 0
M  V30 47868 H 4490.05 0.231303 -3.22873 0
M  V30 47869 H 4488.96 -2.08285 -3.10754 0
M  V30 47870 H 4490.29 -2.72401 -4.0995 0
M  V30 47871 N 4491.95 1.16006 -1.06679 0
M  V30 47872 C 4492.88 2.19467 -0.625245 0
M  V30 47873 C 4493.86 1.587 0.353986 0
M  V30 47874 O 4495.04 1.8667 0.262032 0
M  V30 47875 C 4492.17 3.38599 0.0828403 0
M  V30 47876 C 4491.21 4.17867 -0.853758 0
M  V30 47877 S 4492.05 4.81127 -2.3511 0
M  V30 47878 C 4493.2 6.03633 -1.65462 0
M  V30 47879 H 4493.44 2.56582 -1.50177 0
M  V30 47880 H 4490.97 1.26859 -0.880122 0
M  V30 47881 H 4492.93 4.07623 0.485145 0
M  V30 47882 H 4491.59 2.99842 0.93561 0
M  V30 47883 H 4490.78 5.03077 -0.304932 0
M  V30 47884 H 4490.38 3.54357 -1.19613 0
M  V30 47885 H 4492.67 6.70629 -0.962437 0
M  V30 47886 H 4493.62 6.63072 -2.48477 0
M  V30 47887 H 4494.03 5.52961 -1.13553 0
M  V30 47888 N 4493.42 0.849923 1.32718 0
M  V30 47889 C 4494.67 0.447244 1.96679 0
M  V30 47890 C 4494.99 -1.00129 1.68028 0
M  V30 47891 O 4496.19 -1.50918 2.2569 0
M  V30 47892 C 4494.65 0.748824 3.52024 0
M  V30 47893 C 4494.26 2.21277 3.89539 0
M  V30 47894 C 4496 0.413636 4.2248 0
M  V30 47895 C 4493.91 2.45782 5.37908 0
M  V30 47896 H 4492.84 0.163512 0.736057 0
M  V30 47897 H 4495.49 1.04005 1.5118 0
M  V30 47898 H 4493.87 0.0855119 3.95908 0
M  V30 47899 H 4495.04 2.91748 3.56679 0
M  V30 47900 H 4493.36 2.51202 3.32094 0
M  V30 47901 H 4495.96 0.574204 5.31608 0
M  V30 47902 H 4496.3 -0.644348 4.11283 0
M  V30 47903 H 4496.83 1.03264 3.84163 0
M  V30 47904 H 4493.57 3.50187 5.5412 0
M  V30 47905 H 4493.09 1.79884 5.7219 0
M  V30 47906 H 4494.77 2.29492 6.04932 0
M  V30 47907 N 4494.9 -1.45425 0.607406 0
M  V30 47908 C 4496.13 -2.06613 0.108886 0
M  V30 47909 C 4496.55 -1.45208 -1.20665 0
M  V30 47910 O 4495.9 -0.566193 -1.73495 0
M  V30 47911 C 4495.95 -3.61481 -0.0374077 0
M  V30 47912 O 4495.67 -4.20593 1.22608 0
M  V30 47913 C 4497.18 -4.39654 -0.567406 0
M  V30 47914 H 4494.4 -0.667468 0.0687585 0
M  V30 47915 H 4496.94 -1.86672 0.835087 0
M  V30 47916 H 4495.09 -3.80765 -0.713934 0
M  V30 47917 H 4495.51 -5.13767 1.05565 0
M  V30 47918 H 4496.98 -5.4852 -0.618858 0
M  V30 47919 H 4497.46 -4.09423 -1.58964 0
M  V30 47920 H 4498.07 -4.25234 0.0750697 0
M  V30 47921 N 4496.38 -0.346557 -1.53742 0
M  V30 47922 C 4497.33 0.52414 -2.26618 0
M  V30 47923 C 4498.32 1.09943 -1.28875 0
M  V30 47924 O 4499.53 1.04483 -1.46572 0
M  V30 47925 H 4495.9 0.187717 -0.728194 0
M  V30 47926 H 4497.87 -0.112495 -2.98188 0
M  V30 47927 C 4496.62 1.66175 -3.0542 0
M  V30 47928 H 4495.95 1.22835 -3.80462 0
M  V30 47929 H 4497.39 2.24609 -3.5962 0
M  V30 47930 C 4495.85 2.59295 -2.15099 0
M  V30 47931 O 4496.38 3.61621 -1.74908 0
M  V30 47932 N 4494.58 2.28048 -1.80118 0
M  V30 47933 H 4494.13 1.44876 -2.13 0
M  V30 47934 H 4494.09 2.90611 -1.19969 0
M  V30 47935 N 4497.86 1.5742 -0.0752483 0
M  V30 47936 C 4498.81 2.09444 0.900951 0
M  V30 47937 C 4499.79 1.00491 1.2566 0
M  V30 47938 O 4500.98 1.26794 1.235 0
M  V30 47939 C 4498.11 2.66241 2.16727 0
M  V30 47940 C 4497.2 3.82205 1.83795 0
M  V30 47941 N 4497.59 4.91033 1.21328 0
M  V30 47942 C 4495.89 3.91565 2.13524 0
M  V30 47943 C 4496.59 5.71856 1.06565 0
M  V30 47944 N 4495.57 5.20238 1.57648 0
M  V30 47945 H 4499.37 2.90974 0.413712 0
M  V30 47946 H 4496.88 1.6189 0.128544 0
M  V30 47947 H 4498.88 3.01829 2.87584 0
M  V30 47948 H 4497.54 1.86159 2.66035 0
M  V30 47949 H 4498.55 5.10326 0.882501 0
M  V30 47950 H 4495.23 3.22464 2.65186 0
M  V30 47951 H 4496.62 6.69403 0.578698 0
M  V30 47952 N 4499.34 -0.198331 1.56347 0
M  V30 47953 C 4500.27 -1.27374 1.89344 0
M  V30 47954 C 4501.25 -1.44104 0.753184 0
M  V30 47955 O 4502.43 -1.59545 1.00387 0
M  V30 47956 C 4499.56 -2.64083 2.1208 0
M  V30 47957 C 4498.6 -2.64241 3.34782 0
M  V30 47958 S 4499.44 -2.15996 4.90006 0
M  V30 47959 C 4500.59 -3.54535 5.15806 0
M  V30 47960 H 4500.83 -0.991959 2.80263 0
M  V30 47961 H 4498.36 -0.401674 1.49084 0
M  V30 47962 H 4500.32 -3.42778 2.25862 0
M  V30 47963 H 4498.98 -2.89474 1.21916 0
M  V30 47964 H 4498.17 -3.64755 3.47807 0
M  V30 47965 H 4497.77 -1.93626 3.19977 0
M  V30 47966 H 4500.07 -4.50378 5.06128 0
M  V30 47967 H 4501.01 -3.46407 6.17582 0
M  V30 47968 H 4501.42 -3.49297 4.43454 0
M  V30 47969 N 4500.81 -1.50555 -0.465925 0
M  V30 47970 C 4501.78 -1.69238 -1.54568 0
M  V30 47971 C 4502.78 -0.562954 -1.50624 0
M  V30 47972 O 4503.97 -0.830069 -1.53152 0
M  V30 47973 C 4501.1 -1.7224 -2.94187 0
M  V30 47974 H 4502.29 -2.65576 -1.39318 0
M  V30 47975 H 4499.85 -1.40114 -0.692662 0
M  V30 47976 H 4500.58 -0.77614 -3.14875 0
M  V30 47977 H 4500.37 -2.54295 -2.98457 0
M  V30 47978 H 4501.86 -1.88631 -3.72569 0
M  V30 47979 N 4502.29 0.719457 -1.4022 0
M  V30 47980 C 4503.54 1.47636 -1.38015 0
M  V30 47981 C 4503.86 1.94992 0.0180765 0
M  V30 47982 O 4503.13 1.70077 0.972147 0
M  V30 47983 H 4501.71 0.547726 -0.507942 0
M  V30 47984 H 4504.37 0.853125 -1.75236 0
M  V30 47985 H 4503.47 2.35105 -2.05261 0
M  V30 47986 N 4503.77 1.25652 0.951275 0
M  V30 47987 C 4504.68 1.08081 2.0822 0
M  V30 47988 C 4505.7 0.0170277 1.73992 0
M  V30 47989 O 4506.87 0.218664 2.00209 0
M  V30 47990 C 4503.94 0.705042 3.39456 0
M  V30 47991 C 4503 1.84713 3.8753 0
M  V30 47992 C 4502.23 1.4892 5.12502 0
M  V30 47993 O 4502.45 0.386356 5.6909 0
M  V30 47994 O 4501.39 2.32053 5.55369 0
M  V30 47995 H 4505.21 2.02932 2.25947 0
M  V30 47996 H 4502.8 1.04621 1.06652 0
M  V30 47997 H 4504.68 0.507756 4.1833 0
M  V30 47998 H 4503.36 -0.214177 3.22991 0
M  V30 47999 H 4502.26 2.0993 3.09645 0
M  V30 48000 H 4503.6 2.74571 4.08499 0
M  V30 48001 N 4505.25 -1.15438 1.07293 0
M  V30 48002 C 4506.2 -2.18161 0.662543 0
M  V30 48003 C 4507.18 -1.57846 -0.312019 0
M  V30 48004 O 4508.37 -1.76552 -0.125842 0
M  V30 48005 C 4505.5 -3.43245 0.0612501 0
M  V30 48006 C 4504.59 -4.10616 1.06092 0
M  V30 48007 N 4504.98 -4.53483 2.24024 0
M  V30 48008 C 4503.28 -4.36946 0.894118 0
M  V30 48009 C 4503.98 -5.05721 2.8744 0
M  V30 48010 N 4502.96 -4.99229 2.15109 0
M  V30 48011 H 4506.76 -2.49033 1.56076 0
M  V30 48012 H 4504.27 -1.32 0.946035 0
M  V30 48013 H 4506.27 -4.16146 -0.250645 0
M  V30 48014 H 4504.93 -3.13857 -0.832097 0
M  V30 48015 H 4505.94 -4.46889 2.61745 0
M  V30 48016 H 4502.62 -4.17466 0.0536161 0
M  V30 48017 H 4504.01 -5.48851 3.87572 0
M  V30 48018 N 4506.73 -0.85695 -1.32265 0
M  V30 48019 C 4507.67 -0.301253 -2.28825 0
M  V30 48020 C 4508.64 0.59305 -1.55152 0
M  V30 48021 O 4509.83 0.527472 -1.83364 0
M  V30 48022 C 4506.97 0.502403 -3.41423 0
M  V30 48023 C 4506.08 -0.417948 -4.29973 0
M  V30 48024 C 4505.22 0.398562 -5.29703 0
M  V30 48025 C 4504.26 -0.519042 -6.09895 0
M  V30 48026 N 4503.39 0.260427 -7.01617 0
M  V30 48027 H 4508.23 -1.12993 -2.75747 0
M  V30 48028 H 4505.77 -0.56863 -1.35665 0
M  V30 48029 H 4507.73 0.983999 -4.0543 0
M  V30 48030 H 4506.36 1.29589 -2.95646 0
M  V30 48031 H 4505.41 -1.01794 -3.66527 0
M  V30 48032 H 4506.72 -1.12209 -4.86015 0
M  V30 48033 H 4505.88 0.943224 -5.99323 0
M  V30 48034 H 4504.61 1.13605 -4.74284 0
M  V30 48035 H 4503.62 -1.07557 -5.39177 0
M  V30 48036 H 4504.84 -1.25518 -6.67399 0
M  V30 48037 H 4502.79 0.98097 -6.48624 0
M  V30 48038 H 4502.71 -0.384629 -7.55021 0
M  V30 48039 H 4503.98 0.786742 -7.7552 0
M  V30 48040 N 4508.2 1.45101 -0.61511 0
M  V30 48041 C 4509.15 2.30586 0.0993168 0
M  V30 48042 C 4510.12 1.42547 0.852619 0
M  V30 48043 O 4511.31 1.71468 0.836857 0
M  V30 48044 C 4508.45 3.27576 1.08572 0
M  V30 48045 C 4507.56 4.30718 0.332504 0
M  V30 48046 C 4506.69 5.14812 1.30929 0
M  V30 48047 C 4505.73 6.09675 0.544323 0
M  V30 48048 N 4504.87 6.86522 1.47077 0
M  V30 48049 H 4509.71 2.91142 -0.635645 0
M  V30 48050 H 4507.25 1.43459 -0.325257 0
M  V30 48051 H 4509.21 3.82282 1.67082 0
M  V30 48052 H 4507.84 2.68757 1.788 0
M  V30 48053 H 4506.89 3.78613 -0.36824 0
M  V30 48054 H 4508.2 4.98101 -0.264017 0
M  V30 48055 H 4507.35 5.73955 1.96623 0
M  V30 48056 H 4506.09 4.47465 1.93974 0
M  V30 48057 H 4505.1 5.49655 -0.126197 0
M  V30 48058 H 4506.32 6.79051 -0.0811857 0
M  V30 48059 H 4504.27 6.21859 2.08873 0
M  V30 48060 H 4504.19 7.50284 0.927873 0
M  V30 48061 H 4505.45 7.50201 2.11704 0
M  V30 48062 N 4509.68 0.354705 1.53557 0
M  V30 48063 C 4510.61 -0.489011 2.28322 0
M  V30 48064 C 4511.59 -1.0932 1.3032 0
M  V30 48065 O 4512.78 -1.11249 1.59177 0
M  V30 48066 C 4509.91 -1.63445 3.06436 0
M  V30 48067 C 4508.86 -1.15805 4.12035 0
M  V30 48068 C 4508.19 -2.39288 4.78169 0
M  V30 48069 C 4509.49 -0.250548 5.21699 0
M  V30 48070 H 4511.18 0.134719 2.99097 0
M  V30 48071 H 4508.73 0.0662332 1.43848 0
M  V30 48072 H 4510.68 -2.23123 3.57483 0
M  V30 48073 H 4509.41 -2.28525 2.33333 0
M  V30 48074 H 4508.07 -0.584019 3.61918 0
M  V30 48075 H 4507.71 -3.028 4.01648 0
M  V30 48076 H 4507.41 -2.08089 5.4952 0
M  V30 48077 H 4508.94 -2.99672 5.32005 0
M  V30 48078 H 4510.35 -0.754495 5.68314 0
M  V30 48079 H 4508.75 -0.0299358 6.00093 0
M  V30 48080 H 4509.82 0.710294 4.7967 0
M  V30 48081 N 4511.16 -1.57378 0.0835957 0
M  V30 48082 C 4512.12 -2.12255 -0.864884 0
M  V30 48083 C 4513.12 -1.0492 -1.21854 0
M  V30 48084 O 4514.31 -1.30857 -1.14987 0
M  V30 48085 C 4511.45 -2.63366 -2.16451 0
M  V30 48086 H 4512.64 -2.97372 -0.388571 0
M  V30 48087 H 4510.19 -1.55424 -0.165262 0
M  V30 48088 H 4510.93 -1.81737 -2.68593 0
M  V30 48089 H 4510.71 -3.41833 -1.92075 0
M  V30 48090 H 4512.2 -3.05857 -2.84326 0
M  V30 48091 N 4512.64 0.190037 -1.5645 0
M  V30 48092 C 4513.55 1.25584 -1.98156 0
M  V30 48093 C 4514.57 1.49516 -0.889996 0
M  V30 48094 O 4515.74 1.62031 -1.19615 0
M  V30 48095 C 4512.81 2.57907 -2.31699 0
M  V30 48096 C 4511.87 2.42003 -3.54589 0
M  V30 48097 C 4511.1 3.68016 -3.86523 0
M  V30 48098 O 4511.32 4.72401 -3.19677 0
M  V30 48099 O 4510.26 3.63243 -4.79936 0
M  V30 48100 H 4514.08 0.931887 -2.89049 0
M  V30 48101 H 4511.67 0.395437 -1.44072 0
M  V30 48102 H 4513.55 3.35999 -2.54327 0
M  V30 48103 H 4512.23 2.8992 -1.43973 0
M  V30 48104 H 4511.13 1.62005 -3.37202 0
M  V30 48105 H 4512.47 2.14921 -4.42798 0
M  V30 48106 N 4514.12 1.508 0.457934 0
M  V30 48107 C 4515.08 1.70055 1.53668 0
M  V30 48108 C 4516.08 0.570934 1.50323 0
M  V30 48109 O 4517.27 0.83818 1.52709 0
M  V30 48110 C 4514.4 1.73798 2.9327 0
M  V30 48111 H 4515.6 2.66311 1.37907 0
M  V30 48112 H 4513.15 1.40479 0.685222 0
M  V30 48113 H 4513.88 0.792828 3.14459 0
M  V30 48114 H 4513.67 2.55874 2.97104 0
M  V30 48115 H 4515.16 1.90604 3.71564 0
M  V30 48116 N 4515.6 -0.71201 1.40599 0
M  V30 48117 C 4516.84 -1.46749 1.38374 0
M  V30 48118 C 4517.16 -1.95598 -0.00971513 0
M  V30 48119 O 4518.36 -2.7106 -0.154581 0
M  V30 48120 C 4516.82 -2.65281 2.43216 0
M  V30 48121 C 4516.43 -2.23287 3.8839 0
M  V30 48122 C 4518.17 -3.42999 2.50103 0
M  V30 48123 C 4516.08 -3.38679 4.8482 0
M  V30 48124 H 4515.01 -0.551162 0.514525 0
M  V30 48125 H 4517.66 -0.774558 1.66352 0
M  V30 48126 H 4516.04 -3.36762 2.08344 0
M  V30 48127 H 4517.22 -1.59203 4.32425 0
M  V30 48128 H 4515.53 -1.58604 3.85011 0
M  V30 48129 H 4518.13 -4.2887 3.19335 0
M  V30 48130 H 4518.47 -3.8706 1.53267 0
M  V30 48131 H 4519 -2.78564 2.83984 0
M  V30 48132 H 4515.74 -2.99647 5.83002 0
M  V30 48133 H 4515.26 -4.01668 4.45447 0
M  V30 48134 H 4516.94 -4.04694 5.04809 0
M  V30 48135 N 4517.07 -1.26155 -0.944598 0
M  V30 48136 C 4518.32 -1.11498 -1.6904 0
M  V30 48137 C 4518.65 0.342299 -1.91464 0
M  V30 48138 O 4517.9 1.26807 -1.49059 0
M  V30 48139 C 4518.2 -1.82552 -3.07261 0
M  V30 48140 C 4517.87 -3.32456 -3.04604 0
M  V30 48141 C 4516.53 -3.73348 -3.03587 0
M  V30 48142 C 4518.88 -4.28181 -2.9717 0
M  V30 48143 C 4516.21 -5.08359 -2.92897 0
M  V30 48144 C 4518.56 -5.63229 -2.88021 0
M  V30 48145 C 4517.23 -6.03436 -2.85345 0
M  V30 48146 H 4516.5 -0.407999 -0.618561 0
M  V30 48147 H 4519.14 -1.56555 -1.10285 0
M  V30 48148 H 4517.45 -1.29954 -3.6962 0
M  V30 48149 H 4519.15 -1.68654 -3.63809 0
M  V30 48150 H 4515.74 -2.99926 -3.06174 0
M  V30 48151 H 4519.92 -3.97574 -2.97067 0
M  V30 48152 H 4515.18 -5.38677 -2.892 0
M  V30 48153 H 4519.35 -6.37088 -2.81232 0
M  V30 48154 H 4516.98 -7.08009 -2.76818 0
M  V30 48155 N 4518.55 1.14868 -1.07903 0
M  V30 48156 C 4519.5 2.19788 -0.704396 0
M  V30 48157 C 4520.47 1.6324 0.30693 0
M  V30 48158 O 4521.65 1.8983 0.192104 0
M  V30 48159 C 4518.79 3.4491 -0.114365 0
M  V30 48160 C 4517.91 4.15633 -1.17785 0
M  V30 48161 C 4517.04 5.28322 -0.552223 0
M  V30 48162 C 4516.08 5.9087 -1.5981 0
M  V30 48163 N 4515.22 6.95019 -0.994648 0
M  V30 48164 H 4520.06 2.51184 -1.60345 0
M  V30 48165 H 4517.59 1.23353 -0.801395 0
M  V30 48166 H 4519.55 4.16478 0.245398 0
M  V30 48167 H 4518.18 3.14014 0.74802 0
M  V30 48168 H 4517.23 3.42506 -1.65511 0
M  V30 48169 H 4518.55 4.58223 -1.97062 0
M  V30 48170 H 4517.7 6.06537 -0.140413 0
M  V30 48171 H 4516.44 4.86939 0.272259 0
M  V30 48172 H 4515.44 5.11362 -2.01963 0
M  V30 48173 H 4516.67 6.34328 -2.42497 0
M  V30 48174 H 4514.62 6.55721 -0.191169 0
M  V30 48175 H 4514.53 7.36067 -1.72458 0
M  V30 48176 H 4515.8 7.77121 -0.608527 0
M  V30 48177 N 4520.03 0.863952 1.31809 0
M  V30 48178 C 4520.96 0.330924 2.31143 0
M  V30 48179 C 4521.94 -0.574949 1.60089 0
M  V30 48180 O 4523.13 -0.493238 1.87832 0
M  V30 48181 C 4520.26 -0.473619 3.44055 0
M  V30 48182 C 4519.21 0.338631 4.26658 0
M  V30 48183 C 4518.54 -0.591225 5.31421 0
M  V30 48184 C 4519.84 1.56944 4.98163 0
M  V30 48185 H 4521.53 1.16096 2.75975 0
M  V30 48186 H 4519.08 0.559704 1.32677 0
M  V30 48187 H 4521.03 -0.856998 4.12594 0
M  V30 48188 H 4519.75 -1.33711 2.97975 0
M  V30 48189 H 4518.41 0.703881 3.59779 0
M  V30 48190 H 4518.06 -1.45182 4.81592 0
M  V30 48191 H 4517.76 -0.0516957 5.87577 0
M  V30 48192 H 4519.28 -0.971579 6.02821 0
M  V30 48193 H 4520.7 1.25784 5.59331 0
M  V30 48194 H 4519.09 2.04759 5.64087 0
M  V30 48195 H 4520.16 2.32559 4.25493 0
M  V30 48196 N 4521.51 -1.44772 0.622796 0
M  V30 48197 C 4522.74 -2.06486 0.130794 0
M  V30 48198 C 4523.15 -1.4648 -1.19118 0
M  V30 48199 O 4522.51 -0.584562 -1.72885 0
M  V30 48200 C 4522.56 -3.615 0.000934293 0
M  V30 48201 O 4522.28 -4.19269 1.27062 0
M  V30 48202 C 4523.78 -4.40231 -0.520743 0
M  V30 48203 H 4521 -0.666701 0.075834 0
M  V30 48204 H 4523.54 -1.85776 0.854839 0
M  V30 48205 H 4521.7 -3.815 -0.673509 0
M  V30 48206 H 4522.11 -5.12618 1.11008 0
M  V30 48207 H 4523.59 -5.49145 -0.560645 0
M  V30 48208 H 4524.06 -4.11086 -1.54613 0
M  V30 48209 H 4524.67 -4.2513 0.120167 0
M  V30 48210 N 4522.99 -0.362844 -1.53366 0
M  V30 48211 C 4524.22 0.228209 -2.05336 0
M  V30 48212 C 4524.62 1.43221 -1.2363 0
M  V30 48213 O 4523.97 1.81716 -0.269269 0
M  V30 48214 C 4524.03 0.688425 -3.52847 0
M  V30 48215 C 4523.69 -0.398522 -4.55259 0
M  V30 48216 C 4524.69 -1.2475 -5.04711 0
M  V30 48217 C 4522.37 -0.55798 -4.99191 0
M  V30 48218 C 4524.37 -2.24131 -5.96694 0
M  V30 48219 C 4522.06 -1.55516 -5.90981 0
M  V30 48220 C 4523.05 -2.39526 -6.39622 0
M  V30 48221 O 4522.74 -3.37543 -7.29603 0
M  V30 48222 H 4522.47 0.0443713 -0.674542 0
M  V30 48223 H 4525.03 -0.518738 -1.98742 0
M  V30 48224 H 4523.26 1.48693 -3.5697 0
M  V30 48225 H 4524.95 1.20217 -3.87689 0
M  V30 48226 H 4525.71 -1.13549 -4.71521 0
M  V30 48227 H 4521.59 0.0861339 -4.6092 0
M  V30 48228 H 4525.14 -2.8974 -6.34584 0
M  V30 48229 H 4521.03 -1.66766 -6.23586 0
M  V30 48230 H 4521.8 -3.3324 -7.47592 0
M  V30 48231 N 4524.46 1.57332 -0.0919406 0
M  V30 48232 C 4525.4 2.10872 0.898094 0
M  V30 48233 C 4526.41 1.04526 1.24813 0
M  V30 48234 O 4527.6 1.31982 1.2018 0
M  V30 48235 C 4524.7 2.57091 2.20811 0
M  V30 48236 C 4523.87 3.87236 2.03389 0
M  V30 48237 C 4522.93 4.19336 3.17874 0
M  V30 48238 O 4521.96 4.88609 2.91977 0
M  V30 48239 N 4523.16 3.74486 4.43554 0
M  V30 48240 H 4525.92 2.9644 0.440838 0
M  V30 48241 H 4523.48 1.61631 0.0932496 0
M  V30 48242 H 4525.48 2.75613 2.96344 0
M  V30 48243 H 4524.05 1.7655 2.5797 0
M  V30 48244 H 4523.27 3.77894 1.12204 0
M  V30 48245 H 4524.55 4.72386 1.89021 0
M  V30 48246 H 4523.95 3.18562 4.67477 0
M  V30 48247 H 4522.51 3.98169 5.16047 0
M  V30 48248 N 4525.94 -0.181737 1.56549 0
M  V30 48249 C 4526.89 -1.24454 1.96505 0
M  V30 48250 C 4527.88 -1.46397 0.852312 0
M  V30 48251 O 4529.09 -1.471 1.03738 0
M  V30 48252 H 4525.47 -0.418116 0.625046 0
M  V30 48253 H 4527.44 -0.880614 2.8511 0
M  V30 48254 C 4526.19 -2.57882 2.33221 0
M  V30 48255 H 4525.51 -2.41817 3.18378 0
M  V30 48256 H 4526.95 -3.3096 2.65031 0
M  V30 48257 C 4525.41 -3.15867 1.17174 0
M  V30 48258 O 4525.94 -3.99128 0.453849 0
M  V30 48259 N 4524.14 -2.74804 0.945033 0
M  V30 48260 H 4523.69 -2.07199 1.53056 0
M  V30 48261 H 4523.65 -3.13938 0.170396 0
M  V30 48262 N 4527.42 -1.51041 -0.44993 0
M  V30 48263 C 4528.37 -1.71444 -1.54517 0
M  V30 48264 C 4529.34 -0.555926 -1.56521 0
M  V30 48265 O 4530.52 -0.788933 -1.73725 0
M  V30 48266 C 4527.66 -1.83394 -2.92336 0
M  V30 48267 C 4526.78 -3.10883 -2.99959 0
M  V30 48268 C 4525.91 -3.13503 -4.28823 0
M  V30 48269 C 4524.95 -4.35358 -4.30267 0
M  V30 48270 N 4524.09 -4.35598 -5.50635 0
M  V30 48271 H 4528.93 -2.64939 -1.36424 0
M  V30 48272 H 4526.46 -1.31315 -0.662936 0
M  V30 48273 H 4528.42 -1.88304 -3.72287 0
M  V30 48274 H 4527.05 -0.933195 -3.09017 0
M  V30 48275 H 4526.1 -3.15344 -2.1275 0
M  V30 48276 H 4527.42 -4.00824 -2.96886 0
M  V30 48277 H 4526.57 -3.17259 -5.17138 0
M  V30 48278 H 4525.31 -2.21429 -4.34535 0
M  V30 48279 H 4524.31 -4.31792 -3.40347 0
M  V30 48280 H 4525.54 -5.28683 -4.26229 0
M  V30 48281 H 4523.48 -3.46388 -5.57092 0
M  V30 48282 H 4523.4 -5.19332 -5.49391 0
M  V30 48283 H 4524.67 -4.4353 -6.41016 0
M  V30 48284 N 4528.9 0.704544 -1.40975 0
M  V30 48285 C 4530.14 1.4667 -1.40056 0
M  V30 48286 C 4530.48 1.94199 -0.0064793 0
M  V30 48287 O 4529.75 1.6892 0.964175 0
M  V30 48288 C 4530.04 2.68497 -2.39962 0
M  V30 48289 C 4529.89 2.26791 -3.8844 0
M  V30 48290 C 4531.21 3.70678 -2.37246 0
M  V30 48291 H 4528.33 0.531997 -0.510047 0
M  V30 48292 H 4530.97 0.803194 -1.72188 0
M  V30 48293 H 4529.12 3.25107 -2.12692 0
M  V30 48294 H 4530.79 1.75577 -4.2658 0
M  V30 48295 H 4529.03 1.58671 -4.0374 0
M  V30 48296 H 4529.7 3.14165 -4.53877 0
M  V30 48297 H 4532.18 3.23722 -2.61426 0
M  V30 48298 H 4531.06 4.53542 -3.09178 0
M  V30 48299 H 4531.32 4.19749 -1.38791 0
M  V30 48300 N 4530.38 1.26654 0.937895 0
M  V30 48301 C 4531.62 1.12559 1.68696 0
M  V30 48302 C 4531.96 -0.329714 1.91381 0
M  V30 48303 O 4531.23 -1.24197 1.49684 0
M  V30 48304 C 4531.51 1.89872 3.05975 0
M  V30 48305 C 4531.37 3.43329 2.90595 0
M  V30 48306 C 4532.69 1.69514 4.06144 0
M  V30 48307 H 4529.8 0.410279 0.612242 0
M  V30 48308 H 4532.45 1.55689 1.08908 0
M  V30 48309 H 4530.6 1.53217 3.57011 0
M  V30 48310 H 4532.27 3.89756 2.46755 0
M  V30 48311 H 4530.51 3.70187 2.26151 0
M  V30 48312 H 4531.18 3.92656 3.87976 0
M  V30 48313 H 4533.66 2.01455 3.64081 0
M  V30 48314 H 4532.53 2.26019 5.00207 0
M  V30 48315 H 4532.8 0.640519 4.37435 0
M  V30 48316 N 4531.85 -1.14294 1.08511 0
M  V30 48317 C 4533.27 -1.37344 0.81295 0
M  V30 48318 C 4533.47 -1.93054 -0.577257 0
M  V30 48319 O 4532.53 -2.14393 -1.33386 0
M  V30 48320 C 4533.84 -2.33352 1.8965 0
M  V30 48321 C 4535.39 -2.46989 1.92264 0
M  V30 48322 C 4535.86 -3.46298 2.99736 0
M  V30 48323 N 4537.35 -3.53842 2.98915 0
M  V30 48324 C 4538.09 -4.30537 3.78715 0
M  V30 48325 N 4537.58 -5.10465 4.68398 0
M  V30 48326 N 4539.38 -4.25744 3.67013 0
M  V30 48327 H 4531.53 -0.764797 1.98153 0
M  V30 48328 H 4533.79 -0.398936 0.859973 0
M  V30 48329 H 4533.5 -1.99555 2.89604 0
M  V30 48330 H 4533.37 -3.33268 1.76671 0
M  V30 48331 H 4535.76 -2.80078 0.929544 0
M  V30 48332 H 4535.84 -1.47031 2.09321 0
M  V30 48333 H 4535.48 -3.13943 3.99252 0
M  V30 48334 H 4535.41 -4.46039 2.79923 0
M  V30 48335 H 4537.9 -2.96804 2.33914 0
M  V30 48336 H 4538.22 -5.66265 5.25893 0
M  V30 48337 H 4536.56 -5.09731 4.7244 0
M  V30 48338 H 4539.75 -3.62373 2.96317 0
M  V30 48339 H 4539.93 -4.85264 4.29444 0
M  V30 48340 N 4533.33 -0.87093 -1.31349 0
M  V30 48341 C 4534.58 -0.483056 -1.96963 0
M  V30 48342 C 4534.91 0.962403 -1.68676 0
M  V30 48343 O 4534.19 1.67786 -0.983769 0
M  V30 48344 C 4534.47 -0.741876 -3.52375 0
M  V30 48345 C 4534.32 -2.23694 -3.90232 0
M  V30 48346 C 4535.64 -0.208993 -4.39603 0
M  V30 48347 H 4532.76 -0.17698 -0.715435 0
M  V30 48348 H 4535.4 -1.09235 -1.5546 0
M  V30 48349 H 4533.55 -0.223285 -3.87858 0
M  V30 48350 H 4535.22 -2.82286 -3.64846 0
M  V30 48351 H 4533.47 -2.70913 -3.38805 0
M  V30 48352 H 4534.14 -2.36868 -4.98596 0
M  V30 48353 H 4536.61 -0.652674 -4.10949 0
M  V30 48354 H 4535.49 -0.419529 -5.47294 0
M  V30 48355 H 4535.75 0.889123 -4.33067 0
M  V30 48356 N 4534.81 1.4444 -0.630465 0
M  V30 48357 C 4535.74 2.2892 0.113266 0
M  V30 48358 C 4536.76 1.41245 0.80954 0
M  V30 48359 O 4537.94 1.65404 0.671098 0
M  V30 48360 C 4535.04 3.17599 1.18255 0
M  V30 48361 C 4534.22 4.33684 0.568921 0
M  V30 48362 C 4533.28 5.03402 1.53208 0
M  V30 48363 O 4532.3 5.59441 1.04948 0
M  V30 48364 N 4533.5 5.04793 2.86643 0
M  V30 48365 H 4536.27 2.9339 -0.611739 0
M  V30 48366 H 4533.83 1.5488 -0.471578 0
M  V30 48367 H 4535.82 3.61103 1.82719 0
M  V30 48368 H 4534.39 2.54883 1.80979 0
M  V30 48369 H 4533.61 3.93379 -0.254326 0
M  V30 48370 H 4534.9 5.08608 0.139588 0
M  V30 48371 H 4534.3 4.60596 3.28433 0
M  V30 48372 H 4532.86 5.52089 3.46469 0
M  V30 48373 N 4536.29 0.370972 1.53172 0
M  V30 48374 C 4537.7 0.0201379 1.59587 0
M  V30 48375 C 4537.9 -1.46274 1.38586 0
M  V30 48376 O 4536.96 -2.22501 1.19371 0
M  V30 48377 C 4538.27 0.480904 2.9683 0
M  V30 48378 C 4539.82 0.435586 3.09954 0
M  V30 48379 C 4540.3 0.87225 4.49617 0
M  V30 48380 N 4541.79 0.827524 4.55748 0
M  V30 48381 C 4542.52 1.13702 5.62014 0
M  V30 48382 N 4542.02 1.51607 6.76008 0
M  V30 48383 N 4543.81 1.05947 5.52025 0
M  V30 48384 H 4535.96 1.33658 1.65074 0
M  V30 48385 H 4538.23 0.546661 0.77451 0
M  V30 48386 H 4537.93 1.51588 3.17355 0
M  V30 48387 H 4537.81 -0.129663 3.76977 0
M  V30 48388 H 4540.19 -0.590269 2.89136 0
M  V30 48389 H 4540.27 1.08172 2.31803 0
M  V30 48390 H 4539.92 1.89625 4.71174 0
M  V30 48391 H 4539.85 0.203312 5.26207 0
M  V30 48392 H 4542.34 0.548348 3.739 0
M  V30 48393 H 4542.65 1.73635 7.53041 0
M  V30 48394 H 4541 1.55478 6.77386 0
M  V30 48395 H 4544.19 0.762483 4.61848 0
M  V30 48396 H 4544.36 1.304 6.34744 0
M  V30 48397 N 4537.77 -1.57281 0.100283 0
M  V30 48398 C 4539.18 -1.81727 -0.428043 0
M  V30 48399 C 4539.53 -1.01625 -1.6783 0
M  V30 48400 O 4538.65 -0.247174 -2.14984 0
M  V30 48401 C 4539.25 -3.29619 -0.783354 0
M  V30 48402 C 4537.81 -3.54812 -1.2564 0
M  V30 48403 C 4536.95 -2.76119 -0.255655 0
M  V30 48404 H 4539.91 -1.55323 0.325662 0
M  V30 48405 H 4539.93 -3.43226 -1.64244 0
M  V30 48406 H 4539.44 -3.87893 0.126787 0
M  V30 48407 H 4537.54 -3.01876 -2.18408 0
M  V30 48408 H 4537.65 -4.63447 -1.21465 0
M  V30 48409 H 4536.02 -2.43747 -0.738871 0
M  V30 48410 H 4536.8 -3.37143 0.647255 0
M  V30 48411 N 4539.25 0.173432 -1.56643 0
M  V30 48412 C 4540.47 0.90603 -1.86007 0
M  V30 48413 C 4540.89 1.75919 -0.685417 0
M  V30 48414 O 4540.25 1.79199 0.345515 0
M  V30 48415 C 4540.3 1.78451 -3.14385 0
M  V30 48416 O 4540.02 0.965764 -4.27323 0
M  V30 48417 C 4541.52 2.62695 -3.5708 0
M  V30 48418 H 4538.74 0.263319 -0.617174 0
M  V30 48419 H 4541.28 0.174164 -2.03757 0
M  V30 48420 H 4539.44 2.46974 -2.98467 0
M  V30 48421 H 4539.85 1.56638 -5.00565 0
M  V30 48422 H 4541.33 3.19953 -4.49815 0
M  V30 48423 H 4541.8 3.37462 -2.81098 0
M  V30 48424 H 4542.41 1.99507 -3.75602 0
M  V30 48425 N 4540.72 1.51278 0.441914 0
M  V30 48426 C 4542.13 1.56248 1.02193 0
M  V30 48427 C 4542.49 0.383217 1.92421 0
M  V30 48428 O 4541.61 -0.500539 2.10532 0
M  V30 48429 C 4542.21 2.83168 1.86014 0
M  V30 48430 C 4540.76 2.90725 2.39073 0
M  V30 48431 C 4539.91 2.50862 1.18166 0
M  V30 48432 H 4542.86 1.5712 0.223361 0
M  V30 48433 H 4542.88 2.66672 2.71415 0
M  V30 48434 H 4542.4 3.68978 1.20318 0
M  V30 48435 H 4540.5 2.09334 3.08237 0
M  V30 48436 H 4540.61 3.94275 2.72184 0
M  V30 48437 H 4538.97 2.03957 1.52557 0
M  V30 48438 H 4539.76 3.39012 0.540882 0
M  V30 48439 N 4542.2 -0.697058 1.41347 0
M  V30 48440 C 4543.62 -1.00747 1.23783 0
M  V30 48441 C 4543.82 -2.01105 0.126136 0
M  V30 48442 O 4542.87 -2.47297 -0.509953 0
M  V30 48443 C 4544.19 -1.5335 2.58659 0
M  V30 48444 C 4545.73 -1.65241 2.65828 0
M  V30 48445 C 4546.21 -2.21246 4.01017 0
M  V30 48446 N 4547.7 -2.28608 4.02855 0
M  V30 48447 C 4548.44 -2.72967 5.04259 0
M  V30 48448 N 4547.93 -3.16941 6.16052 0
M  V30 48449 N 4549.72 -2.72517 4.91621 0
M  V30 48450 H 4541.88 -0.0321915 2.12376 0
M  V30 48451 H 4544.14 -0.0768521 0.94488 0
M  V30 48452 H 4543.84 -0.870654 3.40753 0
M  V30 48453 H 4543.72 -2.51587 2.8104 0
M  V30 48454 H 4546.11 -2.30637 1.84094 0
M  V30 48455 H 4546.19 -0.655527 2.47258 0
M  V30 48456 H 4545.83 -1.56465 4.83199 0
M  V30 48457 H 4545.76 -3.21683 4.16926 0
M  V30 48458 H 4548.25 -1.97574 3.22138 0
M  V30 48459 H 4548.56 -3.49409 6.89299 0
M  V30 48460 H 4546.91 -3.14853 6.19591 0
M  V30 48461 H 4550.1 -2.37511 4.03369 0
M  V30 48462 H 4550.27 -3.06769 5.70786 0
M  V30 48463 N 4543.68 -1.2715 -0.931165 0
M  V30 48464 C 4544.93 -1.1306 -1.67516 0
M  V30 48465 C 4545.25 0.324723 -1.92277 0
M  V30 48466 O 4544.52 1.22769 -1.52658 0
M  V30 48467 H 4543.1 -0.415413 -0.620839 0
M  V30 48468 H 4545.76 -1.59626 -1.11828 0
M  V30 48469 H 4544.86 -1.65703 -2.64479 0
M  V30 48470 N 4545.16 1.13717 -1.09116 0
M  V30 48471 C 4546.39 1.8877 -0.846966 0
M  V30 48472 C 4546.8 1.78962 0.601509 0
M  V30 48473 O 4546.16 1.15399 1.41384 0
M  V30 48474 C 4546.21 3.38485 -1.26925 0
M  V30 48475 O 4545.93 3.48033 -2.66091 0
M  V30 48476 C 4547.43 4.30515 -1.05697 0
M  V30 48477 H 4544.65 0.597709 -0.304935 0
M  V30 48478 H 4547.19 1.43972 -1.45232 0
M  V30 48479 H 4545.35 3.80878 -0.707857 0
M  V30 48480 H 4545.76 4.4108 -2.8381 0
M  V30 48481 H 4547.24 5.33905 -1.40175 0
M  V30 48482 H 4547.71 4.392 0.00547976 0
M  V30 48483 H 4548.32 3.93887 -1.60416 0
M  V30 48484 N 4546.64 0.877884 1.30885 0
M  V30 48485 C 4547.88 0.493495 1.96704 0
M  V30 48486 C 4548.21 -0.953444 1.69184 0
M  V30 48487 O 4547.49 -1.67262 0.992653 0
M  V30 48488 C 4547.77 0.760553 3.51977 0
M  V30 48489 C 4547.63 2.2576 3.8904 0
M  V30 48490 C 4548.94 0.232303 4.39486 0
M  V30 48491 H 4546.06 0.180771 0.714486 0
M  V30 48492 H 4548.71 1.10058 1.54878 0
M  V30 48493 H 4546.86 0.243851 3.87734 0
M  V30 48494 H 4548.53 2.84217 3.63344 0
M  V30 48495 H 4546.77 2.72706 3.37363 0
M  V30 48496 H 4547.44 2.39509 4.97332 0
M  V30 48497 H 4549.92 0.674458 4.10597 0
M  V30 48498 H 4548.79 0.448547 5.47064 0
M  V30 48499 H 4549.05 -0.866144 4.33532 0
M  V30 48500 N 4548.11 -1.44104 0.638116 0
M  V30 48501 C 4549.05 -2.27925 -0.112081 0
M  V30 48502 C 4550.02 -1.38948 -0.844525 0
M  V30 48503 O 4551.21 -1.68389 -0.847189 0
M  V30 48504 C 4548.34 -3.18034 -1.16501 0
M  V30 48505 C 4547.38 -4.23165 -0.532309 0
M  V30 48506 S 4548.21 -5.31128 0.682853 0
M  V30 48507 C 4549.37 -6.24806 -0.36991 0
M  V30 48508 H 4549.6 -2.91203 0.598989 0
M  V30 48509 H 4547.14 -1.48393 0.426493 0
M  V30 48510 H 4549.09 -3.70498 -1.76753 0
M  V30 48511 H 4547.76 -2.53961 -1.84831 0
M  V30 48512 H 4546.95 -4.86256 -1.32554 0
M  V30 48513 H 4546.55 -3.74 -0.00424496 0
M  V30 48514 H 4548.84 -6.66047 -1.24048 0
M  V30 48515 H 4549.79 -7.07741 0.225598 0
M  V30 48516 H 4550.19 -5.60156 -0.698944 0
M  V30 48517 N 4549.59 -0.37909 -1.52973 0
M  V30 48518 C 4550.87 0.263411 -1.93818 0
M  V30 48519 C 4551.25 1.65239 -1.31374 0
M  V30 48520 O 4550.6 2.23446 -0.477935 0
M  V30 48521 C 4550.81 0.300044 -3.47708 0
M  V30 48522 C 4552.15 0.533913 -4.2123 0
M  V30 48523 O 4553.18 0.380686 -3.5416 0
M  V30 48524 O 4552.04 0.833312 -5.40109 0
M  V30 48525 H 4549.13 0.16112 -0.811153 0
M  V30 48526 H 4551.68 -0.432856 -1.64087 0
M  V30 48527 H 4550.45 -0.673274 -3.85464 0
M  V30 48528 H 4550.07 1.04165 -3.83713 0
M  V30 48529 N 4551.07 1.57225 -0.108623 0
M  V30 48530 C 4552.32 1.9401 0.551635 0
M  V30 48531 C 4552.63 0.993501 1.6849 0
M  V30 48532 O 4553.84 1.25559 2.40722 0
M  V30 48533 C 4552.29 3.44767 1.03267 0
M  V30 48534 C 4551.9 4.47943 -0.0715768 0
M  V30 48535 C 4553.65 3.90489 1.66489 0
M  V30 48536 C 4551.55 5.89867 0.425572 0
M  V30 48537 H 4550.48 0.724213 0.209837 0
M  V30 48538 H 4553.13 1.82547 -0.186805 0
M  V30 48539 H 4551.52 3.51429 1.82521 0
M  V30 48540 H 4552.69 4.52939 -0.847524 0
M  V30 48541 H 4551 4.1191 -0.609814 0
M  V30 48542 H 4553.6 4.93932 2.04781 0
M  V30 48543 H 4553.94 3.29886 2.5393 0
M  V30 48544 H 4554.48 3.86584 0.937938 0
M  V30 48545 H 4551.22 6.54201 -0.412546 0
M  V30 48546 H 4550.74 5.88313 1.16823 0
M  V30 48547 H 4552.42 6.40847 0.890172 0
M  V30 48548 N 4552.55 -0.165123 1.56733 0
M  V30 48549 C 4553.8 -0.87908 1.81535 0
M  V30 48550 C 4554.11 -1.83142 0.686907 0
M  V30 48551 O 4555.32 -2.5882 0.820034 0
M  V30 48552 C 4553.77 -1.61376 3.21692 0
M  V30 48553 C 4553.38 -0.704748 4.42422 0
M  V30 48554 C 4555.12 -2.31558 3.55783 0
M  V30 48555 C 4553.03 -1.44002 5.736 0
M  V30 48556 H 4551.96 -0.332009 0.676968 0
M  V30 48557 H 4554.61 -0.131944 1.83025 0
M  V30 48558 H 4552.99 -2.40588 3.14537 0
M  V30 48559 H 4554.17 0.0508435 4.60772 0
M  V30 48560 H 4552.48 -0.112273 4.16249 0
M  V30 48561 H 4555.08 -2.87174 4.51038 0
M  V30 48562 H 4555.42 -3.07191 2.80961 0
M  V30 48563 H 4555.96 -1.59284 3.64518 0
M  V30 48564 H 4552.69 -0.725891 6.51468 0
M  V30 48565 H 4552.21 -2.16878 5.59217 0
M  V30 48566 H 4553.89 -1.98584 6.15771 0
M  V30 48567 N 4554.03 -1.5151 -0.433885 0
M  V30 48568 C 4555.25 -1.68447 -1.20997 0
M  V30 48569 C 4555.68 -0.382701 -1.84166 0
M  V30 48570 O 4555.03 0.65749 -1.68958 0
M  V30 48571 C 4555.08 -2.80413 -2.26717 0
M  V30 48572 O 4554.19 -2.44257 -3.32284 0
M  V30 48573 H 4553.53 -0.561549 -0.354343 0
M  V30 48574 H 4556.06 -1.98091 -0.511955 0
M  V30 48575 H 4556.07 -3.04599 -2.71447 0
M  V30 48576 H 4554.74 -3.74873 -1.80119 0
M  V30 48577 H 4553.32 -2.30655 -2.93007 0
M  V30 48578 N 4555.5 0.689552 -1.41714 0
M  V30 48579 C 4556.92 1.00089 -1.24316 0
M  V30 48580 C 4557.12 2.01035 -0.1368 0
M  V30 48581 O 4556.18 2.47564 0.496831 0
M  V30 48582 C 4557.49 1.51976 -2.59468 0
M  V30 48583 C 4559.04 1.63829 -2.667 0
M  V30 48584 C 4559.51 2.19116 -4.02184 0
M  V30 48585 N 4561 2.26469 -4.04062 0
M  V30 48586 C 4561.74 2.70289 -5.05699 0
M  V30 48587 N 4561.23 3.13669 -6.17725 0
M  V30 48588 N 4563.03 2.69906 -4.93059 0
M  V30 48589 H 4555.18 0.0209282 -2.1239 0
M  V30 48590 H 4557.44 0.0718401 -0.945274 0
M  V30 48591 H 4557.15 0.85257 -3.4121 0
M  V30 48592 H 4557.02 2.50093 -2.82371 0
M  V30 48593 H 4559.41 2.29658 -1.85314 0
M  V30 48594 H 4559.49 0.642405 -2.47602 0
M  V30 48595 H 4559.13 1.53901 -4.84022 0
M  V30 48596 H 4559.06 3.19468 -4.18626 0
M  V30 48597 H 4561.55 1.95863 -3.23181 0
M  V30 48598 H 4561.87 3.45749 -6.91142 0
M  V30 48599 H 4560.21 3.11563 -6.21252 0
M  V30 48600 H 4563.4 2.35368 -4.04623 0
M  V30 48601 H 4563.58 3.03738 -5.72405 0
M  V30 48602 N 4556.98 1.27642 0.924409 0
M  V30 48603 C 4558.4 1.05118 1.20093 0
M  V30 48604 C 4558.6 -0.213192 2.00369 0
M  V30 48605 O 4557.65 -0.917787 2.3523 0
M  V30 48606 C 4558.97 2.29251 1.94588 0
M  V30 48607 C 4560.52 2.34322 2.07514 0
M  V30 48608 C 4560.99 3.58193 2.85415 0
M  V30 48609 N 4562.48 3.5877 2.92981 0
M  V30 48610 C 4563.22 4.5129 3.5373 0
M  V30 48611 N 4562.71 5.54117 4.15844 0
M  V30 48612 N 4564.51 4.38907 3.51166 0
M  V30 48613 H 4556.66 2.08823 0.388191 0
M  V30 48614 H 4558.92 0.918577 0.234353 0
M  V30 48615 H 4558.63 3.21306 1.43023 0
M  V30 48616 H 4558.5 2.34827 2.95189 0
M  V30 48617 H 4560.89 1.42771 2.58264 0
M  V30 48618 H 4560.97 2.32748 1.06123 0
M  V30 48619 H 4560.61 4.50083 2.35347 0
M  V30 48620 H 4560.54 3.5702 3.87098 0
M  V30 48621 H 4563.03 2.84407 2.4884 0
M  V30 48622 H 4563.35 6.20875 4.60146 0
M  V30 48623 H 4561.69 5.57955 4.1438 0
M  V30 48624 H 4564.88 3.57782 3.01844 0
M  V30 48625 H 4565.05 5.112 3.98219 0
M  V30 48626 N 4558.46 -1.13137 1.09717 0
M  V30 48627 C 4559.74 -1.80759 0.747366 0
M  V30 48628 C 4560.12 -1.96666 -0.767196 0
M  V30 48629 O 4559.47 -1.53712 -1.69071 0
M  V30 48630 C 4559.68 -3.15601 1.48986 0
M  V30 48631 C 4561.02 -3.90908 1.6576 0
M  V30 48632 O 4562.05 -3.25234 1.45262 0
M  V30 48633 O 4560.91 -5.08711 1.99688 0
M  V30 48634 H 4558 -0.782094 0.268809 0
M  V30 48635 H 4560.55 -1.20037 1.19955 0
M  V30 48636 H 4559.32 -2.99269 2.52099 0
M  V30 48637 H 4558.94 -3.84026 1.03005 0
M  V30 48638 N 4559.94 -0.884812 -1.30418 0
M  V30 48639 C 4560.87 -0.308735 -2.27111 0
M  V30 48640 C 4561.88 0.536601 -1.53702 0
M  V30 48641 O 4563.07 0.356178 -1.7491 0
M  V30 48642 C 4560.17 0.579664 -3.33906 0
M  V30 48643 C 4559.35 -0.23657 -4.3676 0
M  V30 48644 C 4558.4 0.582298 -5.22968 0
M  V30 48645 O 4557.43 0.00505492 -5.692 0
M  V30 48646 N 4558.63 1.89144 -5.48821 0
M  V30 48647 H 4561.4 -1.13973 -2.77182 0
M  V30 48648 H 4558.96 -0.747781 -1.43596 0
M  V30 48649 H 4560.95 1.13353 -3.88501 0
M  V30 48650 H 4559.52 1.31134 -2.83765 0
M  V30 48651 H 4558.74 -0.971874 -3.82032 0
M  V30 48652 H 4560.03 -0.796101 -5.02533 0
M  V30 48653 H 4559.43 2.38334 -5.13043 0
M  V30 48654 H 4557.98 2.39275 -6.06293 0
M  V30 48655 N 4561.42 1.43763 -0.645749 0
M  V30 48656 C 4562.83 1.56508 -0.312646 0
M  V30 48657 C 4563.03 1.63075 1.18359 0
M  V30 48658 O 4562.09 1.58174 1.96818 0
M  V30 48659 C 4563.4 2.82964 -1.01743 0
M  V30 48660 C 4564.95 2.96698 -0.996969 0
M  V30 48661 C 4565.42 4.25976 -1.68251 0
M  V30 48662 N 4566.92 4.32823 -1.64979 0
M  V30 48663 C 4567.65 5.31605 -2.14904 0
M  V30 48664 N 4567.15 6.36708 -2.73083 0
M  V30 48665 N 4568.94 5.23209 -2.05447 0
M  V30 48666 H 4561.09 1.37744 -1.6168 0
M  V30 48667 H 4563.35 0.661043 -0.679504 0
M  V30 48668 H 4563.06 2.84148 -2.0725 0
M  V30 48669 H 4562.93 3.72955 -0.564308 0
M  V30 48670 H 4565.32 2.95058 0.0496681 0
M  V30 48671 H 4565.4 2.08016 -1.48872 0
M  V30 48672 H 4565.05 4.28376 -2.72867 0
M  V30 48673 H 4564.98 5.13541 -1.16547 0
M  V30 48674 H 4567.47 3.57489 -1.22516 0
M  V30 48675 H 4567.78 7.08391 -3.08873 0
M  V30 48676 H 4566.12 6.37352 -2.77141 0
M  V30 48677 H 4569.32 4.40014 -1.59705 0
M  V30 48678 H 4569.49 6.00036 -2.44664 0
M  V30 48679 N 4562.89 0.387197 1.5277 0
M  V30 48680 C 4564.14 -0.195278 2.01154 0
M  V30 48681 C 4564.46 -1.47496 1.27554 0
M  V30 48682 O 4563.73 -1.91877 0.394991 0
M  V30 48683 H 4562.31 -0.0751519 0.74321 0
M  V30 48684 H 4564.98 0.518403 1.87879 0
M  V30 48685 H 4564.07 -0.406988 3.09435 0
M  V30 48686 N 4564.37 -1.57165 0.116959 0
M  V30 48687 C 4565.6 -1.99902 -0.552639 0
M  V30 48688 C 4566.02 -0.996095 -1.59561 0
M  V30 48689 O 4565.38 0.0324922 -1.81271 0
M  V30 48690 C 4565.43 -3.41524 -1.1573 0
M  V30 48691 O 4564.53 -3.44114 -2.27286 0
M  V30 48692 H 4563.87 -0.649451 -0.138235 0
M  V30 48693 H 4566.4 -2.03572 0.204831 0
M  V30 48694 H 4566.41 -3.79689 -1.49333 0
M  V30 48695 H 4565.09 -4.14036 -0.393348 0
M  V30 48696 H 4563.67 -3.17766 -1.95139 0
M  V30 48697 N 4565.85 0.156809 -1.56818 0
M  V30 48698 C 4567.1 0.86934 -1.82447 0
M  V30 48699 C 4567.42 1.82145 -0.696294 0
M  V30 48700 O 4566.69 1.93848 0.282802 0
M  V30 48701 H 4565.27 0.324019 -0.673068 0
M  V30 48702 H 4567.93 0.153156 -1.94297 0
M  V30 48703 H 4567.03 1.43751 -2.77024 0
M  V30 48704 N 4567.33 1.51738 0.425844 0
M  V30 48705 C 4568.26 1.70088 1.53632 0
M  V30 48706 C 4569.27 0.581402 1.52064 0
M  V30 48707 O 4570.46 0.856072 1.56632 0
M  V30 48708 C 4567.56 1.71088 2.92544 0
M  V30 48709 C 4566.74 2.99806 3.18489 0
M  V30 48710 C 4565.79 2.9284 4.37185 0
M  V30 48711 O 4564.82 3.66771 4.35279 0
M  V30 48712 N 4566.02 2.09479 5.41386 0
M  V30 48713 H 4568.79 2.65887 1.38291 0
M  V30 48714 H 4566.35 1.49767 0.614936 0
M  V30 48715 H 4568.34 1.63982 3.69989 0
M  V30 48716 H 4566.91 0.828348 3.01425 0
M  V30 48717 H 4566.13 3.20692 2.29239 0
M  V30 48718 H 4567.42 3.84989 3.32658 0
M  V30 48719 H 4566.82 1.48812 5.45776 0
M  V30 48720 H 4565.37 2.08243 6.17639 0
M  V30 48721 N 4568.81 -0.682027 1.42078 0
M  V30 48722 C 4570.05 -1.44423 1.42372 0
M  V30 48723 C 4570.39 -1.94164 0.0373738 0
M  V30 48724 O 4569.66 -1.70432 -0.93718 0
M  V30 48725 C 4569.94 -2.64645 2.44203 0
M  V30 48726 C 4569.8 -2.20582 3.91999 0
M  V30 48727 C 4571.12 -3.66857 2.43113 0
M  V30 48728 H 4568.24 -0.523816 0.518446 0
M  V30 48729 H 4570.88 -0.775699 1.73444 0
M  V30 48730 H 4569.03 -3.21682 2.17837 0
M  V30 48731 H 4570.7 -1.68768 4.29319 0
M  V30 48732 H 4568.94 -1.52228 4.06213 0
M  V30 48733 H 4569.61 -3.06905 4.58817 0
M  V30 48734 H 4572.09 -3.19522 2.66543 0
M  V30 48735 H 4570.97 -4.48566 3.16355 0
M  V30 48736 H 4571.23 -4.17488 1.45452 0
M  V30 48737 N 4570.29 -1.2813 -0.917626 0
M  V30 48738 C 4571.53 -1.14831 -1.66308 0
M  V30 48739 C 4571.85 0.304311 -1.92611 0
M  V30 48740 O 4571.12 1.21143 -1.53952 0
M  V30 48741 H 4569.7 -0.421974 -0.616398 0
M  V30 48742 H 4572.37 -1.60804 -1.10128 0
M  V30 48743 H 4571.46 -1.68499 -2.62706 0
M  V30 48744 N 4571.76 1.12553 -1.10316 0
M  V30 48745 C 4572.99 1.87861 -0.866939 0
M  V30 48746 C 4573.41 1.7959 0.582494 0
M  V30 48747 O 4572.76 1.16892 1.40152 0
M  V30 48748 C 4572.81 3.3712 -1.30508 0
M  V30 48749 O 4572.54 3.45191 -2.69767 0
M  V30 48750 C 4574.04 4.29369 -1.10258 0
M  V30 48751 H 4571.26 0.594441 -0.311257 0
M  V30 48752 H 4573.8 1.42424 -1.4675 0
M  V30 48753 H 4571.96 3.80106 -0.748215 0
M  V30 48754 H 4572.37 4.38045 -2.88473 0
M  V30 48755 H 4573.84 5.32389 -1.4583 0
M  V30 48756 H 4574.32 4.39181 -0.0411035 0
M  V30 48757 H 4574.93 3.92163 -1.64584 0
M  V30 48758 N 4573.24 0.891716 1.29947 0
M  V30 48759 C 4574.47 0.527964 1.9974 0
M  V30 48760 C 4574.88 -0.889731 1.66974 0
M  V30 48761 O 4574.22 -1.59763 0.906723 0
M  V30 48762 C 4574.28 0.630928 3.5392 0
M  V30 48763 C 4573.95 2.01415 4.10221 0
M  V30 48764 C 4574.95 2.98437 4.25713 0
M  V30 48765 C 4572.63 2.32137 4.45441 0
M  V30 48766 C 4574.62 4.24309 4.75647 0
M  V30 48767 C 4572.31 3.58254 4.95073 0
M  V30 48768 C 4573.31 4.54155 5.1013 0
M  V30 48769 O 4573 5.78034 5.58688 0
M  V30 48770 H 4572.73 0.201976 0.645121 0
M  V30 48771 H 4575.28 1.20082 1.66642 0
M  V30 48772 H 4573.51 -0.0989257 3.86573 0
M  V30 48773 H 4575.2 0.277481 4.0495 0
M  V30 48774 H 4575.97 2.76015 3.98799 0
M  V30 48775 H 4571.85 1.58256 4.32985 0
M  V30 48776 H 4575.39 4.9917 4.87314 0
M  V30 48777 H 4571.29 3.80509 5.21424 0
M  V30 48778 H 4572.06 5.8051 5.77018 0
M  V30 48779 N 4574.72 -1.43419 0.653364 0
M  V30 48780 C 4575.97 -2.01413 0.166486 0
M  V30 48781 C 4576.29 -1.51807 -1.22391 0
M  V30 48782 O 4575.56 -0.730757 -1.8176 0
M  V30 48783 H 4574.14 -0.744701 0.0585581 0
M  V30 48784 H 4576.8 -1.75627 0.845064 0
M  V30 48785 H 4575.9 -3.11733 0.15122 0
M  V30 48786 N 4576.2 -0.395293 -1.52562 0
M  V30 48787 C 4577.13 0.428304 -2.29538 0
M  V30 48788 C 4578.11 1.05826 -1.33172 0
M  V30 48789 O 4579.29 1.0699 -1.62071 0
M  V30 48790 C 4576.42 1.55263 -3.10662 0
M  V30 48791 C 4575.38 1.0484 -4.14961 0
M  V30 48792 C 4574.7 2.26526 -4.84345 0
M  V30 48793 C 4576 0.11214 -5.2218 0
M  V30 48794 H 4577.7 -0.213972 -2.98634 0
M  V30 48795 H 4575.24 -0.104349 -1.43621 0
M  V30 48796 H 4577.2 2.13567 -3.63273 0
M  V30 48797 H 4575.92 2.22258 -2.39309 0
M  V30 48798 H 4574.58 0.487857 -3.63339 0
M  V30 48799 H 4574.23 2.92045 -4.09535 0
M  V30 48800 H 4573.93 1.93447 -5.54844 0
M  V30 48801 H 4575.45 2.85462 -5.39763 0
M  V30 48802 H 4576.87 0.603551 -5.70114 0
M  V30 48803 H 4575.26 -0.129179 -5.99961 0
M  V30 48804 H 4576.33 -0.83722 -4.77618 0
M  V30 48805 N 4577.68 1.57101 -0.125292 0
M  V30 48806 C 4578.62 2.16908 0.839851 0
M  V30 48807 C 4579.62 1.12003 1.2709 0
M  V30 48808 O 4580.82 1.30295 1.2419 0
M  V30 48809 H 4577.2 0.694262 0.28897 0
M  V30 48810 H 4579.17 2.96775 0.311011 0
M  V30 48811 C 4577.92 2.78802 2.07761 0
M  V30 48812 H 4577.24 3.59227 1.75487 0
M  V30 48813 H 4578.68 3.24179 2.73283 0
M  V30 48814 C 4577.14 1.76203 2.87148 0
M  V30 48815 O 4577.67 1.21922 3.8275 0
M  V30 48816 N 4575.88 1.46 2.51262 0
M  V30 48817 H 4575.42 1.90331 1.73585 0
M  V30 48818 H 4575.38 0.775951 3.04674 0
M  V30 48819 N 4579.15 -0.14849 1.56899 0
M  V30 48820 C 4580.38 -0.876323 1.87425 0
M  V30 48821 C 4580.8 -1.74806 0.713317 0
M  V30 48822 O 4580.15 -1.79726 -0.316962 0
M  V30 48823 C 4580.2 -1.73426 3.17184 0
M  V30 48824 O 4579.93 -0.897658 4.28805 0
M  V30 48825 C 4581.43 -2.56981 3.61214 0
M  V30 48826 H 4578.65 -0.253467 0.621285 0
M  V30 48827 H 4581.19 -0.141726 2.04008 0
M  V30 48828 H 4579.35 -2.42194 3.02359 0
M  V30 48829 H 4579.76 -1.48654 5.02993 0
M  V30 48830 H 4581.23 -3.12757 4.54849 0
M  V30 48831 H 4581.71 -3.32947 2.86431 0
M  V30 48832 H 4582.32 -1.93507 3.78728 0
M  V30 48833 N 4580.63 -1.51961 -0.417791 0
M  V30 48834 C 4581.88 -1.65595 -1.16553 0
M  V30 48835 C 4582.21 -0.381632 -1.90719 0
M  V30 48836 O 4581.46 0.635091 -1.85108 0
M  V30 48837 C 4581.76 -2.82277 -2.19214 0
M  V30 48838 C 4581.43 -4.20825 -1.61918 0
M  V30 48839 C 4580.09 -4.58511 -1.46016 0
M  V30 48840 C 4582.44 -5.072 -1.1999 0
M  V30 48841 C 4579.77 -5.8026 -0.866909 0
M  V30 48842 C 4582.12 -6.29546 -0.620865 0
M  V30 48843 C 4580.78 -6.65989 -0.44891 0
M  V30 48844 H 4580.05 -0.605954 -0.426499 0
M  V30 48845 H 4582.7 -1.86043 -0.453904 0
M  V30 48846 H 4581.01 -2.56128 -2.96489 0
M  V30 48847 H 4582.7 -2.90022 -2.76926 0
M  V30 48848 H 4579.29 -3.91122 -1.75276 0
M  V30 48849 H 4583.48 -4.78675 -1.31088 0
M  V30 48850 H 4578.73 -6.07127 -0.72162 0
M  V30 48851 H 4582.91 -6.95806 -0.287554 0
M  V30 48852 H 4580.53 -7.60199 0.0128993 0
M  V30 48853 N 4582.11 0.674483 -1.42438 0
M  V30 48854 C 4583.34 1.46278 -1.46323 0
M  V30 48855 C 4583.75 1.88652 -0.07465 0
M  V30 48856 O 4583.11 1.58154 0.910685 0
M  V30 48857 C 4583.16 2.71169 -2.3906 0
M  V30 48858 O 4582.88 2.30573 -3.72515 0
M  V30 48859 C 4584.38 3.64729 -2.51968 0
M  V30 48860 H 4581.6 0.450087 -0.497657 0
M  V30 48861 H 4584.15 0.828726 -1.86956 0
M  V30 48862 H 4582.3 3.30763 -2.01679 0
M  V30 48863 H 4582.72 3.11226 -4.22183 0
M  V30 48864 H 4584.19 4.49085 -3.20978 0
M  V30 48865 H 4584.67 4.1065 -1.55766 0
M  V30 48866 H 4585.27 3.11028 -2.90072 0
M  V30 48867 N 4583.59 1.28615 0.910818 0
M  V30 48868 C 4584.54 1.12657 2.03497 0
M  V30 48869 C 4585.53 0.0450649 1.6934 0
M  V30 48870 O 4586.74 0.204051 1.7884 0
M  V30 48871 H 4583.11 0.347662 0.66681 0
M  V30 48872 H 4585.08 2.07856 2.14099 0
M  V30 48873 C 4583.83 0.808262 3.38175 0
M  V30 48874 H 4583.15 1.63244 3.64954 0
M  V30 48875 H 4584.59 0.736573 4.17553 0
M  V30 48876 C 4583.05 -0.488109 3.33345 0
M  V30 48877 O 4583.58 -1.51753 3.71933 0
M  V30 48878 N 4581.79 -0.489909 2.86441 0
M  V30 48879 H 4581.34 0.348251 2.55235 0
M  V30 48880 H 4581.29 -1.35731 2.83592 0
M  V30 48881 N 4585.07 -1.11967 1.10911 0
M  V30 48882 C 4586 -2.16996 0.706268 0
M  V30 48883 C 4586.98 -1.59904 -0.294841 0
M  V30 48884 O 4588.16 -1.87514 -0.19257 0
M  V30 48885 C 4585.29 -3.38673 0.0428855 0
M  V30 48886 C 4584.33 -4.14411 1.00826 0
M  V30 48887 S 4585.17 -4.7207 2.52805 0
M  V30 48888 C 4586.32 -5.97076 1.87752 0
M  V30 48889 H 4586.56 -2.50831 1.59596 0
M  V30 48890 H 4584.09 -1.23505 0.926599 0
M  V30 48891 H 4586.05 -4.09143 -0.333524 0
M  V30 48892 H 4584.71 -3.03108 -0.823681 0
M  V30 48893 H 4583.9 -5.01598 0.491435 0
M  V30 48894 H 4583.5 -3.49673 1.32682 0
M  V30 48895 H 4585.8 -6.66595 1.21067 0
M  V30 48896 H 4586.74 -6.53393 2.72915 0
M  V30 48897 H 4587.15 -5.48366 1.33998 0
M  V30 48898 N 4586.54 -0.898595 -1.29472 0
M  V30 48899 C 4587.45 -0.380055 -2.31501 0
M  V30 48900 C 4588.47 0.524637 -1.65902 0
M  V30 48901 O 4589.65 0.414482 -1.97089 0
M  V30 48902 C 4586.71 0.385017 -3.44556 0
M  V30 48903 C 4585.77 -0.551064 -4.25748 0
M  V30 48904 C 4585.01 0.177591 -5.33404 0
M  V30 48905 O 4585.23 1.40169 -5.52909 0
M  V30 48906 O 4584.16 -0.479317 -5.99988 0
M  V30 48907 H 4587.99 -1.22648 -2.77833 0
M  V30 48908 H 4585.57 -0.662882 -1.33889 0
M  V30 48909 H 4587.46 0.817696 -4.1339 0
M  V30 48910 H 4586.13 1.20752 -3.00334 0
M  V30 48911 H 4585.04 -1.03283 -3.5956 0
M  V30 48912 H 4586.37 -1.33996 -4.7361 0
M  V30 48913 N 4588.02 1.4307 -0.660961 0
M  V30 48914 C 4588.99 2.29194 0.01656 0
M  V30 48915 C 4589.99 1.42612 0.742862 0
M  V30 48916 O 4591.18 1.64157 0.582946 0
M  V30 48917 C 4588.31 3.24835 1.03418 0
M  V30 48918 H 4589.5 2.90594 -0.74131 0
M  V30 48919 H 4587.05 1.50479 -0.422584 0
M  V30 48920 H 4587.79 2.68346 1.82102 0
M  V30 48921 H 4587.57 3.88677 0.516946 0
M  V30 48922 H 4589.06 3.89457 1.50709 0
M  V30 48923 N 4589.5 0.403378 1.5235 0
M  V30 48924 C 4590.43 -0.460221 2.24532 0
M  V30 48925 C 4591.45 -1.015 1.27285 0
M  V30 48926 O 4592.63 -0.914928 1.53269 0
M  V30 48927 C 4589.73 -1.65197 2.95911 0
M  V30 48928 C 4588.91 -1.22209 4.1998 0
M  V30 48929 C 4587.97 -2.28011 4.74234 0
M  V30 48930 O 4586.99 -1.88838 5.36963 0
M  V30 48931 N 4588.19 -3.60104 4.55308 0
M  V30 48932 H 4590.96 0.158261 2.99282 0
M  V30 48933 H 4588.52 0.230458 1.60251 0
M  V30 48934 H 4590.51 -2.3553 3.29102 0
M  V30 48935 H 4589.08 -2.1765 2.24382 0
M  V30 48936 H 4588.3 -0.347112 3.92669 0
M  V30 48937 H 4589.59 -0.911748 5.00564 0
M  V30 48938 H 4588.99 -3.94684 4.05267 0
M  V30 48939 H 4587.55 -4.26429 4.92951 0
M  V30 48940 N 4590.98 -1.57033 0.133622 0
M  V30 48941 C 4591.91 -2.19093 -0.80749 0
M  V30 48942 C 4592.89 -1.13521 -1.26677 0
M  V30 48943 O 4594.07 -1.41814 -1.32674 0
M  V30 48944 C 4591.2 -2.80195 -2.05202 0
M  V30 48945 C 4590.16 -3.91478 -1.73001 0
M  V30 48946 C 4589.48 -4.39453 -3.04606 0
M  V30 48947 C 4590.78 -5.1289 -0.986987 0
M  V30 48948 H 4592.48 -2.97989 -0.290298 0
M  V30 48949 H 4590.02 -1.43335 -0.138189 0
M  V30 48950 H 4591.98 -3.22274 -2.7151 0
M  V30 48951 H 4590.7 -1.9861 -2.59271 0
M  V30 48952 H 4589.36 -3.49997 -1.09077 0
M  V30 48953 H 4589.01 -3.54708 -3.56639 0
M  V30 48954 H 4588.71 -5.14505 -2.83829 0
M  V30 48955 H 4590.23 -4.84193 -3.72007 0
M  V30 48956 H 4591.65 -5.51896 -1.55188 0
M  V30 48957 H 4590.04 -5.93618 -0.879642 0
M  V30 48958 H 4591.11 -4.84894 0.0236991 0
M  V30 48959 N 4592.46 0.140167 -1.56975 0
M  V30 48960 C 4593.71 0.850088 -1.82911 0
M  V30 48961 C 4594.02 1.82026 -0.715956 0
M  V30 48962 O 4595.22 2.57482 -0.861107 0
M  V30 48963 C 4593.68 1.56238 -3.24219 0
M  V30 48964 C 4593.29 0.634274 -4.43487 0
M  V30 48965 C 4595.03 2.25868 -3.59421 0
M  V30 48966 C 4592.94 1.34858 -5.75819 0
M  V30 48967 H 4591.87 0.321197 -0.682165 0
M  V30 48968 H 4594.52 0.102809 -1.83212 0
M  V30 48969 H 4592.9 2.35553 -3.18325 0
M  V30 48970 H 4594.08 -0.124142 -4.60633 0
M  V30 48971 H 4592.39 0.0460372 -4.16375 0
M  V30 48972 H 4594.99 2.79962 -4.55549 0
M  V30 48973 H 4595.33 3.02683 -2.85813 0
M  V30 48974 H 4595.86 1.53464 -3.67006 0
M  V30 48975 H 4592.6 0.622156 -6.52541 0
M  V30 48976 H 4592.12 2.07954 -5.62597 0
M  V30 48977 H 4593.8 1.88762 -6.18852 0
M  V30 48978 N 4593.93 1.52181 0.409726 0
M  V30 48979 C 4595.35 1.4097 0.748301 0
M  V30 48980 C 4595.55 0.513725 1.94841 0
M  V30 48981 O 4594.61 -0.0207138 2.52492 0
M  V30 48982 C 4595.92 2.83486 1.0028 0
M  V30 48983 C 4597.47 2.92825 1.10555 0
M  V30 48984 C 4597.94 4.36308 1.39281 0
M  V30 48985 N 4599.43 4.3954 1.46147 0
M  V30 48986 C 4600.17 5.4762 1.69999 0
M  V30 48987 N 4599.66 6.65819 1.91459 0
M  V30 48988 N 4601.46 5.35135 1.72009 0
M  V30 48989 H 4593.61 2.08968 -0.380259 0
M  V30 48990 H 4595.87 0.941847 -0.107838 0
M  V30 48991 H 4595.58 3.51168 0.193337 0
M  V30 48992 H 4595.45 3.24493 1.92312 0
M  V30 48993 H 4597.84 2.25324 1.9056 0
M  V30 48994 H 4597.92 2.55276 0.1636 0
M  V30 48995 H 4597.56 5.04368 0.597932 0
M  V30 48996 H 4597.49 4.71393 2.34726 0
M  V30 48997 H 4599.98 3.54337 1.31354 0
M  V30 48998 H 4600.3 7.43972 2.09108 0
M  V30 48999 H 4598.64 6.68886 1.88725 0
M  V30 49000 H 4601.83 4.4177 1.54781 0
M  V30 49001 H 4602.01 6.1944 1.90259 0
M  V30 49002 N 4595.41 -0.666919 1.42793 0
M  V30 49003 C 4596.34 -1.79245 1.42842 0
M  V30 49004 C 4597.36 -1.59495 0.326389 0
M  V30 49005 O 4598.55 -1.68468 0.589975 0
M  V30 49006 C 4595.65 -3.16471 1.2124 0
M  V30 49007 C 4594.82 -3.63002 2.44025 0
M  V30 49008 C 4593.88 -4.78986 2.17851 0
M  V30 49009 O 4592.9 -4.89126 2.91108 0
M  V30 49010 N 4594.11 -5.68244 1.18655 0
M  V30 49011 H 4596.87 -1.79686 2.3986 0
M  V30 49012 H 4594.43 -0.85029 1.37774 0
M  V30 49013 H 4596.42 -3.9173 1.01634 0
M  V30 49014 H 4594.99 -3.10883 0.327169 0
M  V30 49015 H 4594.21 -2.78336 2.79147 0
M  V30 49016 H 4595.5 -3.90834 3.25771 0
M  V30 49017 H 4594.9 -5.6271 0.580813 0
M  V30 49018 H 4593.46 -6.43281 1.05036 0
M  V30 49019 N 4596.89 -1.29096 -0.903985 0
M  V30 49020 C 4597.82 -1.08183 -2.00927 0
M  V30 49021 C 4598.8 0.00502583 -1.62599 0
M  V30 49022 O 4599.99 -0.144831 -1.87943 0
M  V30 49023 C 4597.11 -0.646014 -3.32482 0
M  V30 49024 C 4596.16 -1.73095 -3.89795 0
M  V30 49025 S 4596.99 -3.32919 -4.19434 0
M  V30 49026 C 4598.15 -2.91196 -5.54036 0
M  V30 49027 H 4598.38 -2.0176 -2.18358 0
M  V30 49028 H 4595.91 -1.13195 -1.05006 0
M  V30 49029 H 4597.87 -0.401275 -4.08534 0
M  V30 49030 H 4596.53 0.270078 -3.12937 0
M  V30 49031 H 4595.73 -1.37785 -4.848 0
M  V30 49032 H 4595.33 -1.92899 -3.20415 0
M  V30 49033 H 4597.62 -2.37974 -6.3433 0
M  V30 49034 H 4598.56 -3.85035 -5.94267 0
M  V30 49035 H 4598.97 -2.29618 -5.1569 0
M  V30 49036 N 4598.37 1.11377 -1.11503 0
M  V30 49037 C 4599.28 2.21016 -0.786706 0
M  V30 49038 C 4600.3 1.72598 0.220446 0
M  V30 49039 O 4601.47 2.01321 0.0564543 0
M  V30 49040 C 4598.54 3.459 -0.235455 0
M  V30 49041 C 4597.6 4.09102 -1.3013 0
M  V30 49042 C 4596.83 5.28025 -0.776254 0
M  V30 49043 O 4597.05 5.69041 0.393461 0
M  V30 49044 O 4595.99 5.8183 -1.54135 0
M  V30 49045 H 4599.81 2.51515 -1.70218 0
M  V30 49046 H 4597.4 1.19925 -0.89097 0
M  V30 49047 H 4599.28 4.21346 0.0675669 0
M  V30 49048 H 4597.96 3.17051 0.652717 0
M  V30 49049 H 4596.86 3.35385 -1.65734 0
M  V30 49050 H 4598.2 4.42132 -2.16288 0
M  V30 49051 N 4599.85 0.905449 1.28994 0
M  V30 49052 C 4601.1 0.533261 1.94938 0
M  V30 49053 C 4601.42 -0.924558 1.71688 0
M  V30 49054 O 4600.69 -1.65264 1.05189 0
M  V30 49055 H 4599.27 0.19422 0.72131 0
M  V30 49056 H 4601.93 1.153 1.57137 0
M  V30 49057 H 4601.02 0.720697 3.03665 0
M  V30 49058 N 4601.33 -1.42718 0.668539 0
M  V30 49059 C 4602.24 -2.34596 -0.0138928 0
M  V30 49060 C 4603.25 -1.54743 -0.795648 0
M  V30 49061 O 4604.43 -1.87336 -0.7394 0
M  V30 49062 C 4601.49 -3.33205 -0.957865 0
M  V30 49063 C 4600.55 -4.28958 -0.171339 0
M  V30 49064 C 4599.79 -5.22857 -1.07035 0
M  V30 49065 O 4600.01 -5.21539 -2.30982 0
M  V30 49066 O 4598.94 -5.99522 -0.534516 0
M  V30 49067 H 4602.77 -2.94477 0.742765 0
M  V30 49068 H 4600.35 -1.43115 0.428756 0
M  V30 49069 H 4602.24 -3.93802 -1.49994 0
M  V30 49070 H 4600.91 -2.75806 -1.69448 0
M  V30 49071 H 4599.82 -3.71794 0.414689 0
M  V30 49072 H 4601.15 -4.89381 0.526032 0
M  V30 49073 N 4602.8 -0.411452 -1.52134 0
M  V30 49074 C 4604.05 0.163251 -2.0144 0
M  V30 49075 C 4604.37 1.45448 -1.29884 0
M  V30 49076 O 4603.64 1.91224 -0.425467 0
M  V30 49077 H 4602.22 0.0633185 -0.744312 0
M  V30 49078 H 4604.88 -0.548227 -1.87031 0
M  V30 49079 H 4603.98 0.357708 -3.10043 0
M  V30 49080 N 4604.28 1.56959 -0.141948 0
M  V30 49081 C 4605.53 1.95136 0.510358 0
M  V30 49082 C 4605.84 1.02902 1.66345 0
M  V30 49083 O 4607.05 1.30637 2.38005 0
M  V30 49084 C 4605.51 3.46879 0.959305 0
M  V30 49085 C 4605.11 4.4769 -0.166576 0
M  V30 49086 C 4606.86 3.93933 1.58169 0
M  V30 49087 C 4604.76 5.90637 0.300357 0
M  V30 49088 H 4603.69 0.728501 0.194428 0
M  V30 49089 H 4606.35 1.82109 -0.225484 0
M  V30 49090 H 4604.73 3.55221 1.75026 0
M  V30 49091 H 4605.9 4.51039 -0.943409 0
M  V30 49092 H 4604.22 4.10524 -0.697049 0
M  V30 49093 H 4606.81 4.98165 1.94257 0
M  V30 49094 H 4607.16 3.35198 2.46876 0
M  V30 49095 H 4607.69 3.88487 0.855726 0
M  V30 49096 H 4604.43 6.53178 -0.551218 0
M  V30 49097 H 4603.95 5.90659 1.04317 0
M  V30 49098 H 4605.63 6.42591 0.754039 0
M  V30 49099 N 4605.76 -0.13184 1.57048 0
M  V30 49100 C 4607.01 -0.841867 1.84171 0
M  V30 49101 C 4607.33 -1.80477 0.72513 0
M  V30 49102 O 4606.59 -1.93619 -0.284624 0
M  V30 49103 C 4606.89 -1.63692 3.1771 0
M  V30 49104 C 4606.55 -0.819454 4.43391 0
M  V30 49105 C 4605.22 -0.59398 4.7752 0
M  V30 49106 C 4607.57 -0.248794 5.20606 0
M  V30 49107 C 4604.9 0.212615 5.86315 0
M  V30 49108 C 4607.25 0.544923 6.30249 0
M  V30 49109 C 4605.91 0.780832 6.62917 0
M  V30 49110 H 4605.18 -0.308061 0.673928 0
M  V30 49111 H 4607.83 -0.1048 1.91213 0
M  V30 49112 H 4606.13 -2.44453 3.06186 0
M  V30 49113 H 4607.83 -2.19003 3.35914 0
M  V30 49114 H 4604.42 -1.00527 4.16644 0
M  V30 49115 H 4608.61 -0.410234 4.94602 0
M  V30 49116 H 4603.86 0.404738 6.10059 0
M  V30 49117 H 4608.04 0.994164 6.89267 0
M  V30 49118 H 4605.66 1.40768 7.47053 0
M  V30 49119 N 4607.24 -1.52396 -0.40165 0
M  V30 49120 C 4608.18 -1.76273 -1.48985 0
M  V30 49121 C 4609.15 -0.605441 -1.54673 0
M  V30 49122 O 4610.34 -0.843803 -1.71127 0
M  V30 49123 C 4607.48 -1.92602 -2.86354 0
M  V30 49124 C 4606.59 -3.20269 -2.89917 0
M  V30 49125 C 4605.73 -3.26987 -4.18632 0
M  V30 49126 C 4604.77 -4.48827 -4.16198 0
M  V30 49127 N 4603.9 -4.52895 -5.36498 0
M  V30 49128 H 4608.74 -2.69145 -1.27926 0
M  V30 49129 H 4606.28 -1.33357 -0.620824 0
M  V30 49130 H 4608.24 -2.00053 -3.66108 0
M  V30 49131 H 4606.87 -1.03103 -3.05891 0
M  V30 49132 H 4605.92 -3.21953 -2.0261 0
M  V30 49133 H 4607.23 -4.10066 -2.83984 0
M  V30 49134 H 4606.39 -3.33551 -5.06783 0
M  V30 49135 H 4605.13 -2.35141 -4.2727 0
M  V30 49136 H 4604.13 -4.42401 -3.26437 0
M  V30 49137 H 4605.36 -5.41975 -4.09194 0
M  V30 49138 H 4603.3 -3.63936 -5.4579 0
M  V30 49139 H 4603.22 -5.36548 -5.3259 0
M  V30 49140 H 4604.49 -4.63699 -6.26581 0
M  V30 49141 N 4608.72 0.659337 -1.43145 0
M  V30 49142 C 4609.94 1.45216 -1.48078 0
M  V30 49143 C 4610.37 1.87844 -0.098061 0
M  V30 49144 O 4609.72 1.56988 0.906885 0
M  V30 49145 C 4609.77 2.6674 -2.42657 0
M  V30 49146 O 4608.88 3.65576 -1.9086 0
M  V30 49147 H 4608.22 0.435651 -0.501103 0
M  V30 49148 H 4610.75 0.807366 -1.87997 0
M  V30 49149 H 4610.76 3.14628 -2.59756 0
M  V30 49150 H 4609.43 2.35055 -3.43107 0
M  V30 49151 H 4608.01 3.24687 -1.83392 0
M  V30 49152 N 4610.19 1.29574 0.897126 0
M  V30 49153 C 4611.44 1.17065 1.64252 0
M  V30 49154 C 4611.76 -0.276408 1.93637 0
M  V30 49155 O 4612.96 -0.522847 2.66418 0
M  V30 49156 C 4611.42 2.0476 2.95975 0
M  V30 49157 C 4611.03 3.54305 2.74175 0
M  V30 49158 C 4612.77 2.00983 3.73907 0
M  V30 49159 C 4610.68 4.34095 4.01641 0
M  V30 49160 H 4609.61 0.434542 0.61619 0
M  V30 49161 H 4612.26 1.54232 0.994213 0
M  V30 49162 H 4610.64 1.60465 3.62032 0
M  V30 49163 H 4611.81 4.06669 2.16695 0
M  V30 49164 H 4610.13 3.5978 2.09635 0
M  V30 49165 H 4612.73 2.57855 4.68417 0
M  V30 49166 H 4613.07 0.990415 4.04347 0
M  V30 49167 H 4613.6 2.43336 3.14694 0
M  V30 49168 H 4610.34 5.36684 3.76365 0
M  V30 49169 H 4609.86 3.86499 4.5867 0
M  V30 49170 H 4611.54 4.44893 4.69765 0
M  V30 49171 N 4611.67 -1.10784 1.12092 0
M  V30 49172 C 4612.6 -2.16813 0.743289 0
M  V30 49173 C 4613.62 -1.61191 -0.228355 0
M  V30 49174 O 4614.81 -1.78497 -0.0102304 0
M  V30 49175 C 4611.91 -3.38808 0.0788504 0
M  V30 49176 C 4611.08 -4.23881 1.07905 0
M  V30 49177 C 4610.14 -5.24333 0.442897 0
M  V30 49178 O 4609.16 -5.58493 1.09883 0
M  V30 49179 N 4610.37 -5.75082 -0.791255 0
M  V30 49180 H 4613.13 -2.49819 1.65561 0
M  V30 49181 H 4610.69 -1.26369 1.01205 0
M  V30 49182 H 4612.68 -4.03108 -0.358625 0
M  V30 49183 H 4611.25 -3.03808 -0.736168 0
M  V30 49184 H 4610.47 -3.55933 1.69426 0
M  V30 49185 H 4611.76 -4.77556 1.7555 0
M  V30 49186 H 4611.16 -5.49522 -1.34321 0
M  V30 49187 H 4609.72 -6.41184 -1.1716 0
M  V30 49188 N 4613.15 -0.912277 -1.28512 0
M  V30 49189 C 4614.1 -0.370728 -2.24966 0
M  V30 49190 C 4615.08 0.516321 -1.52391 0
M  V30 49191 O 4616.28 0.356284 -1.73377 0
M  V30 49192 C 4613.41 0.389406 -3.41084 0
M  V30 49193 C 4612.49 -0.513278 -4.20983 0
M  V30 49194 N 4612.88 -1.6262 -4.78945 0
M  V30 49195 C 4611.18 -0.313391 -4.44898 0
M  V30 49196 C 4611.88 -2.18638 -5.39048 0
M  V30 49197 N 4610.86 -1.47783 -5.23126 0
M  V30 49198 H 4614.66 -1.22071 -2.6735 0
M  V30 49199 H 4612.17 -0.764762 -1.43266 0
M  V30 49200 H 4614.17 0.794209 -4.09265 0
M  V30 49201 H 4612.83 1.2365 -3.00235 0
M  V30 49202 H 4613.84 -2.0088 -4.77355 0
M  V30 49203 H 4610.52 0.494306 -4.14563 0
M  V30 49204 H 4611.91 -3.12249 -5.94937 0
M  V30 49205 N 4614.63 1.42361 -0.676098 0
M  V30 49206 C 4615.56 2.33497 -0.0125653 0
M  V30 49207 C 4616.54 1.5075 0.787928 0
M  V30 49208 O 4617.72 1.79349 0.744821 0
M  V30 49209 C 4614.85 3.3438 0.938465 0
M  V30 49210 C 4613.81 4.2729 0.246472 0
M  V30 49211 C 4613.13 5.18391 1.31053 0
M  V30 49212 C 4614.43 5.14913 -0.875306 0
M  V30 49213 H 4616.13 2.89231 -0.773695 0
M  V30 49214 H 4613.67 1.39072 -0.373509 0
M  V30 49215 H 4615.63 3.97049 1.41174 0
M  V30 49216 H 4614.35 2.76953 1.73103 0
M  V30 49217 H 4613.01 3.66017 -0.206584 0
M  V30 49218 H 4612.66 4.5729 2.09512 0
M  V30 49219 H 4612.36 5.81381 0.852635 0
M  V30 49220 H 4613.88 5.83935 1.78471 0
M  V30 49221 H 4615.3 5.7126 -0.483184 0
M  V30 49222 H 4613.69 5.86743 -1.25907 0
M  V30 49223 H 4614.76 4.53236 -1.72351 0
M  V30 49224 N 4616.11 0.419515 1.51914 0
M  V30 49225 C 4617.33 -0.152063 2.0634 0
M  V30 49226 C 4617.75 -1.37984 1.28864 0
M  V30 49227 O 4617.11 -1.79242 0.343295 0
M  V30 49228 C 4617.16 -0.49214 3.58134 0
M  V30 49229 O 4616.88 0.686889 4.32682 0
M  V30 49230 C 4618.38 -1.11633 4.29014 0
M  V30 49231 H 4615.6 -0.0158089 0.670814 0
M  V30 49232 H 4618.14 0.593463 1.95699 0
M  V30 49233 H 4616.3 -1.18756 3.68749 0
M  V30 49234 H 4616.71 0.400525 5.22968 0
M  V30 49235 H 4618.19 -1.30441 5.36367 0
M  V30 49236 H 4618.66 -2.09237 3.86156 0
M  V30 49237 H 4619.27 -0.460809 4.22796 0
M  V30 49238 N 4617.58 -1.56882 0.15027 0
M  V30 49239 C 4618.55 -2.15733 -0.774081 0
M  V30 49240 C 4619.55 -1.09994 -1.17294 0
M  V30 49241 O 4620.74 -1.35617 -1.09333 0
M  V30 49242 C 4617.87 -2.72309 -2.05086 0
M  V30 49243 H 4619.06 -2.98753 -0.262096 0
M  V30 49244 H 4616.62 -1.55985 -0.0991932 0
M  V30 49245 H 4617.35 -1.92965 -2.60643 0
M  V30 49246 H 4617.14 -3.49672 -1.77404 0
M  V30 49247 H 4618.63 -3.17641 -2.71098 0
M  V30 49248 N 4619.06 0.12351 -1.57115 0
M  V30 49249 C 4620.29 0.850332 -1.89167 0
M  V30 49250 C 4620.71 1.72857 -0.741749 0
M  V30 49251 O 4620.07 1.78666 0.307895 0
M  V30 49252 C 4620.12 1.66342 -3.19942 0
M  V30 49253 O 4619.22 2.76993 -3.0553 0
M  V30 49254 H 4618.56 0.235432 -0.620861 0
M  V30 49255 H 4621.09 0.107263 -2.04319 0
M  V30 49256 H 4621.1 2.05359 -3.5255 0
M  V30 49257 H 4619.78 1.01867 -4.03232 0
M  V30 49258 H 4618.36 2.41211 -2.84379 0
M  V30 49259 N 4620.54 1.52607 0.393562 0
M  V30 49260 C 4621.45 1.79976 1.50485 0
M  V30 49261 C 4622.47 0.686237 1.59896 0
M  V30 49262 O 4623.64 0.973336 1.76318 0
M  V30 49263 C 4620.71 1.95877 2.86065 0
M  V30 49264 C 4619.77 3.19791 2.86413 0
M  V30 49265 C 4619 3.34924 4.15526 0
M  V30 49266 O 4619.22 2.54966 5.10244 0
M  V30 49267 O 4618.16 4.28156 4.23044 0
M  V30 49268 H 4621.98 2.74333 1.30289 0
M  V30 49269 H 4619.57 1.37642 0.580956 0
M  V30 49270 H 4621.45 2.08069 3.6645 0
M  V30 49271 H 4620.13 1.0471 3.06296 0
M  V30 49272 H 4619.03 3.13045 2.04826 0
M  V30 49273 H 4620.37 4.10789 2.71133 0
M  V30 49274 N 4622.02 -0.651737 1.43493 0
M  V30 49275 C 4622.93 -1.79363 1.51216 0
M  V30 49276 C 4623.94 -1.6936 0.399153 0
M  V30 49277 O 4625.12 -1.90503 0.653498 0
M  V30 49278 C 4622.19 -3.15648 1.43412 0
M  V30 49279 C 4621.25 -3.37436 2.65396 0
M  V30 49280 C 4620.48 -4.6722 2.57955 0
M  V30 49281 O 4620.7 -5.4667 1.62812 0
M  V30 49282 O 4619.64 -4.9076 3.48479 0
M  V30 49283 H 4623.46 -1.75802 2.47644 0
M  V30 49284 H 4621.05 -0.810403 1.2551 0
M  V30 49285 H 4622.93 -3.9693 1.41508 0
M  V30 49286 H 4621.6 -3.19796 0.501197 0
M  V30 49287 H 4620.51 -2.55913 2.72872 0
M  V30 49288 H 4621.84 -3.38136 3.57666 0
M  V30 49289 N 4623.5 -1.30048 -0.890242 0
M  V30 49290 C 4624.75 -1.17935 -1.63628 0
M  V30 49291 C 4625.06 0.266135 -1.93781 0
M  V30 49292 O 4626.26 0.50871 -2.66692 0
M  V30 49293 C 4624.72 -2.06327 -2.94885 0
M  V30 49294 C 4624.33 -3.55754 -2.72292 0
M  V30 49295 C 4626.07 -2.02963 -3.72835 0
M  V30 49296 C 4623.98 -4.36219 -3.99333 0
M  V30 49297 H 4622.91 -0.437803 -0.613876 0
M  V30 49298 H 4625.56 -1.54758 -0.98602 0
M  V30 49299 H 4623.94 -1.62382 -3.61176 0
M  V30 49300 H 4625.12 -4.07813 -2.14536 0
M  V30 49301 H 4623.43 -3.60887 -2.07725 0
M  V30 49302 H 4626.03 -2.60335 -4.67043 0
M  V30 49303 H 4626.37 -1.01184 -4.03816 0
M  V30 49304 H 4626.9 -2.45001 -3.134 0
M  V30 49305 H 4623.64 -5.38672 -3.73514 0
M  V30 49306 H 4623.16 -3.88926 -4.56614 0
M  V30 49307 H 4624.84 -4.47378 -4.67399 0
M  V30 49308 N 4624.97 1.10188 -1.12678 0
M  V30 49309 C 4625.94 2.14783 -0.800054 0
M  V30 49310 C 4626.94 1.59711 0.186794 0
M  V30 49311 O 4628.13 1.74156 -0.039317 0
M  V30 49312 C 4625.26 3.40374 -0.189347 0
M  V30 49313 H 4626.45 2.45197 -1.7268 0
M  V30 49314 H 4624.01 1.25594 -0.93037 0
M  V30 49315 H 4624.74 3.1558 0.746996 0
M  V30 49316 H 4624.53 3.81634 -0.8999 0
M  V30 49317 H 4626.02 4.17594 0.0226675 0
M  V30 49318 N 4626.45 0.919079 1.28026 0
M  V30 49319 C 4627.7 0.555825 1.95034 0
M  V30 49320 C 4628.03 -0.899137 1.72131 0
M  V30 49321 O 4627.31 -1.6402 1.04536 0
M  V30 49322 C 4627.59 0.872147 3.49379 0
M  V30 49323 C 4627.44 2.38023 3.81661 0
M  V30 49324 C 4628.76 0.372005 4.38525 0
M  V30 49325 H 4625.88 0.203411 0.708374 0
M  V30 49326 H 4628.52 1.14929 1.51299 0
M  V30 49327 H 4626.67 0.367082 3.86762 0
M  V30 49328 H 4628.34 2.95632 3.54118 0
M  V30 49329 H 4626.59 2.83301 3.28517 0
M  V30 49330 H 4627.26 2.5521 4.89461 0
M  V30 49331 H 4629.73 0.804745 4.08244 0
M  V30 49332 H 4628.61 0.622364 5.4536 0
M  V30 49333 H 4628.87 -0.727781 4.36069 0
M  V30 49334 N 4627.93 -1.42001 0.683638 0
M  V30 49335 C 4628.86 -2.29183 -0.0282262 0
M  V30 49336 C 4629.88 -1.44153 -0.75656 0
M  V30 49337 O 4631.07 -1.67781 -0.609247 0
M  V30 49338 C 4628.17 -3.21769 -1.06386 0
M  V30 49339 C 4627.34 -4.35497 -0.407569 0
M  V30 49340 C 4626.4 -5.08742 -1.34419 0
M  V30 49341 O 4625.42 -5.62951 -0.84112 0
M  V30 49342 N 4626.63 -5.15084 -2.6771 0
M  V30 49343 H 4629.39 -2.90918 0.720207 0
M  V30 49344 H 4626.95 -1.53023 0.528736 0
M  V30 49345 H 4628.94 -3.67636 -1.69191 0
M  V30 49346 H 4627.51 -2.61424 -1.71395 0
M  V30 49347 H 4626.73 -3.92164 0.40015 0
M  V30 49348 H 4628.02 -5.08776 0.0492744 0
M  V30 49349 H 4627.42 -4.72468 -3.11112 0
M  V30 49350 H 4625.98 -5.64568 -3.2574 0
M  V30 49351 N 4629.41 -0.427565 -1.51689 0
M  V30 49352 C 4630.69 0.201616 -1.94558 0
M  V30 49353 C 4631.07 1.60976 -1.36565 0
M  V30 49354 O 4630.41 2.21812 -0.54878 0
M  V30 49355 C 4630.62 0.189271 -3.48486 0
M  V30 49356 C 4631.97 0.399632 -4.22715 0
M  V30 49357 O 4633 0.26782 -3.55192 0
M  V30 49358 O 4631.86 0.661058 -5.42487 0
M  V30 49359 H 4628.95 0.135232 -0.815868 0
M  V30 49360 H 4631.5 -0.48484 -1.62627 0
M  V30 49361 H 4630.27 -0.795566 -3.83127 0
M  V30 49362 H 4629.89 0.919051 -3.86832 0
M  V30 49363 N 4630.89 1.568 -0.158588 0
M  V30 49364 C 4632.13 1.9756 0.483888 0
M  V30 49365 C 4632.49 1.04245 1.61712 0
M  V30 49366 O 4631.78 0.0796703 1.91434 0
M  V30 49367 C 4631.98 3.42353 1.02611 0
M  V30 49368 C 4631.8 4.49669 -0.053051 0
M  V30 49369 C 4630.57 5.02836 -0.498411 0
M  V30 49370 C 4632.77 5.07247 -0.848794 0
M  V30 49371 N 4630.75 5.93769 -1.55921 0
M  V30 49372 C 4632.13 5.945 -1.75981 0
M  V30 49373 C 4634.18 4.89785 -0.895293 0
M  V30 49374 C 4632.88 6.6616 -2.71337 0
M  V30 49375 C 4634.91 5.62155 -1.83674 0
M  V30 49376 C 4634.27 6.49125 -2.73526 0
M  V30 49377 H 4630.37 0.768337 0.145539 0
M  V30 49378 H 4632.95 1.93011 -0.255867 0
M  V30 49379 H 4631.13 3.47473 1.73543 0
M  V30 49380 H 4632.86 3.70151 1.63616 0
M  V30 49381 H 4629.61 4.73498 -0.0984887 0
M  V30 49382 H 4630.04 6.43941 -2.08971 0
M  V30 49383 H 4634.68 4.22255 -0.214678 0
M  V30 49384 H 4632.4 7.32911 -3.40393 0
M  V30 49385 H 4635.98 5.50634 -1.87866 0
M  V30 49386 H 4634.86 7.04141 -3.45188 0
M  V30 49387 N 4632.37 -0.115176 1.57179 0
M  V30 49388 C 4633.3 -1.14223 2.03655 0
M  V30 49389 C 4634.28 -1.42964 0.921706 0
M  V30 49390 O 4635.46 -1.53339 1.19167 0
M  V30 49391 C 4632.59 -2.46741 2.44409 0
M  V30 49392 C 4631.55 -2.32455 3.59373 0
M  V30 49393 C 4630.87 -3.6997 3.86039 0
M  V30 49394 C 4632.17 -1.78186 4.90965 0
M  V30 49395 H 4633.87 -0.755647 2.89707 0
M  V30 49396 H 4631.41 -0.362044 1.39374 0
M  V30 49397 H 4633.36 -3.18845 2.75529 0
M  V30 49398 H 4632.09 -2.87297 1.55332 0
M  V30 49399 H 4630.75 -1.62799 3.28469 0
M  V30 49400 H 4630.4 -4.08017 2.94161 0
M  V30 49401 H 4630.1 -3.61263 4.63425 0
M  V30 49402 H 4631.62 -4.43572 4.19614 0
M  V30 49403 H 4633.03 -2.4011 5.20596 0
M  V30 49404 H 4631.43 -1.8029 5.72377 0
M  V30 49405 H 4632.5 -0.739708 4.79225 0
M  V30 49406 N 4633.84 -1.52813 -0.385464 0
M  V30 49407 C 4634.81 -1.77193 -1.45379 0
M  V30 49408 C 4635.81 -0.642005 -1.47428 0
M  V30 49409 O 4637 -0.910085 -1.48537 0
M  V30 49410 C 4634.13 -1.87592 -2.84643 0
M  V30 49411 H 4635.32 -2.72588 -1.25044 0
M  V30 49412 H 4632.87 -1.43588 -0.617417 0
M  V30 49413 H 4633.61 -0.941958 -3.10319 0
M  V30 49414 H 4633.39 -2.69758 -2.84557 0
M  V30 49415 H 4634.88 -2.08115 -3.62047 0
M  V30 49416 N 4635.32 0.644118 -1.43836 0
M  V30 49417 C 4636.74 0.960831 -1.27437 0
M  V30 49418 C 4636.94 2.00498 -0.200688 0
M  V30 49419 O 4635.99 2.49019 0.417819 0
M  V30 49420 C 4637.31 1.43644 -2.64172 0
M  V30 49421 C 4638.85 1.55261 -2.71778 0
M  V30 49422 C 4639.33 2.0621 -4.08952 0
M  V30 49423 N 4640.82 2.13499 -4.11063 0
M  V30 49424 C 4641.56 2.54063 -5.14042 0
M  V30 49425 N 4641.05 2.93858 -6.27391 0
M  V30 49426 N 4642.84 2.54083 -5.01396 0
M  V30 49427 H 4635 -0.0466525 -2.12349 0
M  V30 49428 H 4637.26 0.0417305 -0.947081 0
M  V30 49429 H 4636.96 0.743585 -3.43749 0
M  V30 49430 H 4636.84 2.40983 -2.90184 0
M  V30 49431 H 4639.23 2.23646 -1.92527 0
M  V30 49432 H 4639.31 0.563307 -2.49521 0
M  V30 49433 H 4638.95 1.38424 -4.88673 0
M  V30 49434 H 4638.88 3.05988 -4.28578 0
M  V30 49435 H 4641.37 1.85482 -3.29249 0
M  V30 49436 H 4641.68 3.23586 -7.01792 0
M  V30 49437 H 4640.03 2.9164 -6.30849 0
M  V30 49438 H 4643.22 2.22376 -4.11906 0
M  V30 49439 H 4643.39 2.85373 -5.81778 0
M  V30 49440 N 4636.8 1.30518 0.883332 0
M  V30 49441 C 4638.05 1.19613 1.6377 0
M  V30 49442 C 4638.38 -0.248247 1.92607 0
M  V30 49443 O 4637.65 -1.17737 1.54817 0
M  V30 49444 C 4637.94 2.02679 2.97646 0
M  V30 49445 C 4637.79 3.55345 2.75772 0
M  V30 49446 C 4639.11 1.86587 3.98589 0
M  V30 49447 H 4636.23 0.435877 0.59429 0
M  V30 49448 H 4638.87 1.60168 1.02206 0
M  V30 49449 H 4637.02 1.68221 3.50191 0
M  V30 49450 H 4638.69 3.99871 2.30002 0
M  V30 49451 H 4636.93 3.79445 2.10247 0
M  V30 49452 H 4637.61 4.08758 3.70973 0
M  V30 49453 H 4640.08 2.16716 3.55209 0
M  V30 49454 H 4638.96 2.47031 4.9017 0
M  V30 49455 H 4639.22 0.825474 4.34325 0
M  V30 49456 N 4638.28 -1.09589 1.13261 0
M  V30 49457 C 4639.53 -1.81372 0.891556 0
M  V30 49458 C 4639.85 -1.86051 -0.583944 0
M  V30 49459 O 4639.12 -1.34486 -1.42444 0
M  V30 49460 H 4637.7 -0.671697 0.326852 0
M  V30 49461 H 4640.36 -1.32555 1.42882 0
M  V30 49462 H 4639.45 -2.84608 1.28081 0
M  V30 49463 N 4639.76 -0.925856 -1.27537 0
M  V30 49464 C 4641.17 -0.625818 -1.46819 0
M  V30 49465 C 4641.37 0.825441 -1.83817 0
M  V30 49466 O 4640.43 1.60349 -1.9505 0
M  V30 49467 C 4641.74 -1.57411 -2.56208 0
M  V30 49468 C 4643.29 -1.58213 -2.70069 0
M  V30 49469 C 4643.76 -2.51734 -3.82614 0
M  V30 49470 N 4645.25 -2.49931 -3.89986 0
M  V30 49471 C 4645.99 -3.18985 -4.76483 0
M  V30 49472 N 4645.49 -3.97411 -5.67482 0
M  V30 49473 N 4647.28 -3.08012 -4.70197 0
M  V30 49474 H 4639.43 -1.86412 -1.01805 0
M  V30 49475 H 4641.69 -0.800231 -0.508266 0
M  V30 49476 H 4641.4 -2.60934 -2.3581 0
M  V30 49477 H 4641.27 -1.3144 -3.53558 0
M  V30 49478 H 4643.66 -0.554226 -2.89849 0
M  V30 49479 H 4643.74 -1.88232 -1.73212 0
M  V30 49480 H 4643.38 -3.54634 -3.63589 0
M  V30 49481 H 4643.31 -2.19013 -4.78896 0
M  V30 49482 H 4645.81 -1.92972 -3.24916 0
M  V30 49483 H 4646.12 -4.47092 -6.3034 0
M  V30 49484 H 4644.46 -4.01515 -5.67284 0
M  V30 49485 H 4647.65 -2.46237 -3.98102 0
M  V30 49486 H 4647.83 -3.62099 -5.3739 0
M  V30 49487 N 4641.23 1.41636 -0.691159 0
M  V30 49488 C 4642.14 2.34588 -0.0234311 0
M  V30 49489 C 4643.16 1.55989 0.770929 0
M  V30 49490 O 4644.34 1.88489 0.709503 0
M  V30 49491 C 4641.4 3.34687 0.904734 0
M  V30 49492 C 4640.46 4.29176 0.103074 0
M  V30 49493 C 4639.69 5.24493 0.987032 0
M  V30 49494 O 4639.92 5.25148 2.22656 0
M  V30 49495 O 4638.85 6.00296 0.43907 0
M  V30 49496 H 4642.68 2.93258 -0.789519 0
M  V30 49497 H 4640.26 1.42415 -0.45147 0
M  V30 49498 H 4642.14 3.96138 1.4371 0
M  V30 49499 H 4640.82 2.78467 1.65039 0
M  V30 49500 H 4639.73 3.71088 -0.473786 0
M  V30 49501 H 4641.06 4.88482 -0.603821 0
M  V30 49502 N 4642.71 0.435603 1.5146 0
M  V30 49503 C 4644.13 0.0878062 1.59358 0
M  V30 49504 C 4644.33 -1.40265 1.44665 0
M  V30 49505 O 4643.38 -2.17238 1.287 0
M  V30 49506 C 4644.7 0.606367 2.94523 0
M  V30 49507 C 4646.25 0.566656 3.07828 0
M  V30 49508 C 4646.72 1.06216 4.45513 0
M  V30 49509 N 4648.21 1.02008 4.51828 0
M  V30 49510 C 4648.95 1.37437 5.56685 0
M  V30 49511 N 4648.44 1.80143 6.6897 0
M  V30 49512 N 4650.24 1.29265 5.47035 0
M  V30 49513 H 4642.39 1.40539 1.59256 0
M  V30 49514 H 4644.65 0.579019 0.750627 0
M  V30 49515 H 4644.36 1.64912 3.1064 0
M  V30 49516 H 4644.23 0.0303423 3.77188 0
M  V30 49517 H 4646.62 -0.467106 2.9138 0
M  V30 49518 H 4646.7 1.17906 2.27006 0
M  V30 49519 H 4646.34 2.09438 4.62707 0
M  V30 49520 H 4646.27 0.426312 5.24872 0
M  V30 49521 H 4648.76 0.706438 3.71238 0
M  V30 49522 H 4649.08 2.05418 7.44999 0
M  V30 49523 H 4647.42 1.84068 6.70182 0
M  V30 49524 H 4650.61 0.957683 4.58199 0
M  V30 49525 H 4650.78 1.57204 6.28642 0
M  V30 49526 N 4644.19 -1.56714 0.166901 0
M  V30 49527 C 4645.12 -2.20757 -0.760835 0
M  V30 49528 C 4646.1 -1.16183 -1.2424 0
M  V30 49529 O 4647.29 -1.44596 -1.29636 0
M  V30 49530 C 4644.42 -2.84485 -1.99213 0
M  V30 49531 C 4643.37 -3.95059 -1.64658 0
M  V30 49532 C 4642.7 -4.45816 -2.95216 0
M  V30 49533 C 4644 -5.14868 -0.877974 0
M  V30 49534 H 4645.69 -2.98538 -0.227025 0
M  V30 49535 H 4643.24 -1.43596 -0.107754 0
M  V30 49536 H 4645.19 -3.27961 -2.64613 0
M  V30 49537 H 4643.91 -2.04065 -2.55 0
M  V30 49538 H 4642.57 -3.52232 -1.01629 0
M  V30 49539 H 4642.22 -3.62193 -3.49035 0
M  V30 49540 H 4641.92 -5.20409 -2.72852 0
M  V30 49541 H 4643.44 -4.91975 -3.61653 0
M  V30 49542 H 4644.86 -5.55064 -1.43447 0
M  V30 49543 H 4643.26 -5.9535 -0.753528 0
M  V30 49544 H 4644.33 -4.84735 0.126547 0
M  V30 49545 N 4645.67 0.106839 -1.57237 0
M  V30 49546 C 4646.89 0.83022 -1.90058 0
M  V30 49547 C 4647.32 1.72061 -0.760041 0
M  V30 49548 O 4646.68 1.78983 0.288928 0
M  V30 49549 C 4646.72 1.62939 -3.21688 0
M  V30 49550 O 4645.83 2.73737 -3.0845 0
M  V30 49551 H 4645.17 0.228833 -0.623323 0
M  V30 49552 H 4647.7 0.0855861 -2.04421 0
M  V30 49553 H 4647.71 2.01608 -3.54708 0
M  V30 49554 H 4646.38 0.975847 -4.0429 0
M  V30 49555 H 4644.96 2.38181 -2.86922 0
M  V30 49556 N 4647.15 1.53016 0.377354 0
M  V30 49557 C 4648.56 1.42526 0.718231 0
M  V30 49558 C 4648.76 0.554938 1.93708 0
M  V30 49559 O 4647.82 0.032848 2.52479 0
M  V30 49560 C 4649.13 2.8555 0.942438 0
M  V30 49561 C 4650.68 2.95104 1.04319 0
M  V30 49562 C 4651.15 4.39164 1.29994 0
M  V30 49563 N 4652.65 4.42541 1.36791 0
M  V30 49564 C 4653.38 5.51103 1.58345 0
M  V30 49565 N 4652.88 6.69731 1.77293 0
M  V30 49566 N 4654.67 5.38663 1.60619 0
M  V30 49567 H 4646.82 2.08115 -0.424499 0
M  V30 49568 H 4649.08 0.939347 -0.127792 0
M  V30 49569 H 4648.79 3.51499 0.118806 0
M  V30 49570 H 4648.66 3.285 1.85386 0
M  V30 49571 H 4651.05 2.29316 1.85737 0
M  V30 49572 H 4651.13 2.55566 0.109415 0
M  V30 49573 H 4650.78 5.05523 0.490813 0
M  V30 49574 H 4650.71 4.76266 2.24675 0
M  V30 49575 H 4653.2 3.57043 1.23809 0
M  V30 49576 H 4653.51 7.4824 1.9328 0
M  V30 49577 H 4651.85 6.72738 1.74495 0
M  V30 49578 H 4655.05 4.44954 1.45375 0
M  V30 49579 H 4655.22 6.23336 1.77076 0
M  V30 49580 N 4648.62 -0.636481 1.44176 0
M  V30 49581 C 4649.56 -1.76134 1.45093 0
M  V30 49582 C 4650.54 -1.5961 0.310382 0
M  V30 49583 O 4651.72 -1.81567 0.506541 0
M  V30 49584 C 4648.85 -3.13643 1.2785 0
M  V30 49585 C 4647.89 -3.48829 2.45399 0
M  V30 49586 S 4648.73 -3.46912 4.07936 0
M  V30 49587 C 4649.88 -4.8705 3.93107 0
M  V30 49588 H 4650.11 -1.75088 2.40274 0
M  V30 49589 H 4647.65 -0.81062 1.31409 0
M  V30 49590 H 4649.61 -3.92997 1.18589 0
M  V30 49591 H 4648.27 -3.12234 0.341897 0
M  V30 49592 H 4647.46 -4.48878 2.29182 0
M  V30 49593 H 4647.06 -2.76926 2.51372 0
M  V30 49594 H 4649.35 -5.76141 3.56466 0
M  V30 49595 H 4650.3 -5.0832 4.92967 0
M  V30 49596 H 4650.7 -4.61373 3.25262 0
M  V30 49597 N 4650.1 -1.30985 -0.876398 0
M  V30 49598 C 4651.07 -1.1806 -1.96454 0
M  V30 49599 C 4652.07 -0.109456 -1.60427 0
M  V30 49600 O 4653.26 -0.358233 -1.70477 0
M  V30 49601 C 4650.39 -0.810733 -3.31119 0
M  V30 49602 H 4651.58 -2.14742 -2.09346 0
M  V30 49603 H 4649.13 -1.14504 -1.06388 0
M  V30 49604 H 4649.87 0.155209 -3.23928 0
M  V30 49605 H 4649.65 -1.58493 -3.58639 0
M  V30 49606 H 4651.14 -0.744021 -4.10919 0
M  V30 49607 N 4651.58 1.08987 -1.13841 0
M  V30 49608 C 4652.83 1.80628 -0.897573 0
M  V30 49609 C 4653.14 1.86874 0.577704 0
M  V30 49610 O 4654.35 2.5487 0.935612 0
M  V30 49611 C 4652.8 3.24511 -1.55629 0
M  V30 49612 C 4652.41 3.26518 -3.06741 0
M  V30 49613 C 4654.16 4.00877 -1.39634 0
M  V30 49614 C 4652.06 4.64952 -3.65477 0
M  V30 49615 H 4650.99 0.676898 -0.332153 0
M  V30 49616 H 4653.64 1.22455 -1.36664 0
M  V30 49617 H 4652.03 3.82774 -1.01489 0
M  V30 49618 H 4653.2 2.77995 -3.67499 0
M  V30 49619 H 4651.52 2.63644 -3.22305 0
M  V30 49620 H 4654.11 5.03161 -1.80924 0
M  V30 49621 H 4654.46 4.14895 -0.341724 0
M  V30 49622 H 4654.99 3.49068 -1.90778 0
M  V30 49623 H 4651.73 4.56137 -4.70765 0
M  V30 49624 H 4651.25 5.13781 -3.09499 0
M  V30 49625 H 4652.93 5.33927 -3.65419 0
M  V30 49626 N 4653.06 0.932607 1.27044 0
M  V30 49627 C 4654.28 0.591544 1.98785 0
M  V30 49628 C 4654.71 -0.824542 1.69065 0
M  V30 49629 O 4654.07 -1.55406 0.933731 0
M  V30 49630 C 4654.11 0.829931 3.5092 0
M  V30 49631 O 4653.22 -0.102121 4.12274 0
M  V30 49632 H 4652.56 0.227207 0.623918 0
M  V30 49633 H 4655.09 1.2532 1.61728 0
M  V30 49634 H 4655.1 0.747433 4.01095 0
M  V30 49635 H 4653.77 1.86215 3.71883 0
M  V30 49636 H 4652.35 0.0307072 3.72887 0
M  V30 49637 N 4654.54 -1.41267 0.698661 0
M  V30 49638 C 4655.78 -2.00781 0.23048 0
M  V30 49639 C 4656.11 -1.55624 -1.175 0
M  V30 49640 O 4655.38 -0.788213 -1.79343 0
M  V30 49641 H 4653.96 -0.742461 0.0822205 0
M  V30 49642 H 4656.62 -1.72849 0.900511 0
M  V30 49643 H 4655.71 -3.11095 0.250319 0
M  V30 49644 N 4656.01 -0.44363 -1.51227 0
M  V30 49645 C 4657.29 0.180969 -1.94761 0
M  V30 49646 C 4657.67 1.59519 -1.38264 0
M  V30 49647 O 4657.02 2.21218 -0.572275 0
M  V30 49648 C 4657.23 0.152299 -3.48668 0
M  V30 49649 C 4658.58 0.354775 -4.23115 0
M  V30 49650 O 4659.6 0.230132 -3.55456 0
M  V30 49651 O 4658.46 0.603483 -5.43158 0
M  V30 49652 H 4655.55 0.126571 -0.817257 0
M  V30 49653 H 4658.1 -0.502061 -1.62103 0
M  V30 49654 H 4656.87 -0.836157 -3.82262 0
M  V30 49655 H 4656.5 0.87797 -3.87785 0
M  V30 49656 N 4657.49 1.56623 -0.175209 0
M  V30 49657 C 4658.77 1.8869 0.515307 0
M  V30 49658 C 4659.15 1.0857 1.81041 0
M  V30 49659 O 4658.5 0.180783 2.27784 0
M  V30 49660 C 4658.71 3.4077 0.753432 0
M  V30 49661 C 4660.06 4.1059 1.0817 0
M  V30 49662 O 4661.08 3.46109 0.841839 0
M  V30 49663 O 4659.94 5.24517 1.53441 0
M  V30 49664 H 4657.03 0.783019 0.266102 0
M  V30 49665 H 4659.58 1.68346 -0.213936 0
M  V30 49666 H 4658.35 3.90965 -0.161967 0
M  V30 49667 H 4657.97 3.66739 1.53585 0
M  V30 49668 N 4658.97 -0.0984986 1.57292 0
M  V30 49669 C 4660.21 -0.808266 1.8774 0
M  V30 49670 C 4660.58 -1.76068 0.765781 0
M  V30 49671 O 4661.78 -2.51355 0.952587 0
M  V30 49672 C 4660.05 -1.52082 3.23428 0
M  V30 49673 S 4661.61 -2.26934 3.75562 0
M  V30 49674 H 4658.42 -0.269353 0.658004 0
M  V30 49675 H 4661.03 -0.0655582 1.9539 0
M  V30 49676 H 4659.73 -0.813488 4.02257 0
M  V30 49677 H 4659.26 -2.30349 3.18909 0
M  V30 49678 H 4661.28 -3.53015 3.48705 0
M  V30 49679 N 4660.45 -1.53214 -0.369234 0
M  V30 49680 C 4661.7 -1.6947 -1.11391 0
M  V30 49681 C 4662.03 -0.443324 -1.89072 0
M  V30 49682 O 4661.3 0.559321 -1.86284 0
M  V30 49683 C 4661.59 -2.94227 -2.07611 0
M  V30 49684 C 4661.44 -4.29513 -1.33562 0
M  V30 49685 C 4662.76 -3.14576 -3.07783 0
M  V30 49686 H 4659.88 -0.616681 -0.403575 0
M  V30 49687 H 4662.52 -1.85846 -0.395114 0
M  V30 49688 H 4660.67 -2.80396 -2.68906 0
M  V30 49689 H 4662.34 -4.55149 -0.750795 0
M  V30 49690 H 4660.58 -4.29091 -0.637467 0
M  V30 49691 H 4661.26 -5.12933 -2.03971 0
M  V30 49692 H 4663.73 -3.27569 -2.56589 0
M  V30 49693 H 4662.61 -4.0331 -3.72334 0
M  V30 49694 H 4662.87 -2.29689 -3.77751 0
M  V30 49695 N 4661.93 0.628826 -1.44511 0
M  V30 49696 C 4663.17 1.3904 -1.47634 0
M  V30 49697 C 4663.51 1.93892 -0.109411 0
M  V30 49698 O 4662.78 1.73793 0.873279 0
M  V30 49699 C 4663.06 2.55399 -2.53857 0
M  V30 49700 C 4662.92 2.05882 -3.99916 0
M  V30 49701 C 4664.24 3.57581 -2.56561 0
M  V30 49702 H 4661.36 0.504213 -0.53753 0
M  V30 49703 H 4664 0.710792 -1.76204 0
M  V30 49704 H 4662.15 3.13376 -2.29626 0
M  V30 49705 H 4663.82 1.52718 -4.35287 0
M  V30 49706 H 4662.06 1.37047 -4.11583 0
M  V30 49707 H 4662.73 2.89665 -4.69892 0
M  V30 49708 H 4665.21 3.09409 -2.78218 0
M  V30 49709 H 4664.09 4.36515 -3.32785 0
M  V30 49710 H 4664.35 4.11802 -1.60846 0
M  V30 49711 N 4663.41 1.31448 0.869439 0
M  V30 49712 C 4664.35 1.19142 1.97671 0
M  V30 49713 C 4665.32 0.0770849 1.65921 0
M  V30 49714 O 4666.51 0.250038 1.89155 0
M  V30 49715 C 4663.65 0.905266 3.33015 0
M  V30 49716 C 4662.76 2.10299 3.77357 0
M  V30 49717 C 4661.9 1.75357 5.01421 0
M  V30 49718 C 4660.93 2.91534 5.38214 0
M  V30 49719 N 4660.07 2.56785 6.53457 0
M  V30 49720 H 4664.91 2.1386 2.07528 0
M  V30 49721 H 4662.45 1.06383 1.01593 0
M  V30 49722 H 4664.41 0.719909 4.10942 0
M  V30 49723 H 4663.04 -0.00508276 3.228 0
M  V30 49724 H 4662.09 2.3991 2.95208 0
M  V30 49725 H 4663.4 2.97251 4.00554 0
M  V30 49726 H 4662.55 1.53287 5.87016 0
M  V30 49727 H 4661.29 0.85597 4.8013 0
M  V30 49728 H 4660.3 3.14253 4.51138 0
M  V30 49729 H 4661.52 3.82004 5.61471 0
M  V30 49730 H 4659.47 1.69548 6.33711 0
M  V30 49731 H 4659.39 3.37267 6.766 0
M  V30 49732 H 4660.65 2.38109 7.42243 0
M  V30 49733 N 4664.88 -1.08381 1.14417 0
M  V30 49734 C 4666.29 -1.62255 0.923592 0
M  V30 49735 C 4666.65 -1.88693 -0.537529 0
M  V30 49736 O 4665.77 -1.64459 -1.40649 0
M  V30 49737 C 4666.37 -2.94775 1.67013 0
M  V30 49738 C 4664.92 -3.45432 1.49512 0
M  V30 49739 C 4664.07 -2.19662 1.69246 0
M  V30 49740 H 4667.02 -0.916041 1.29593 0
M  V30 49741 H 4667.04 -3.63225 1.13347 0
M  V30 49742 H 4666.56 -2.75501 2.73351 0
M  V30 49743 H 4664.66 -3.69809 0.455227 0
M  V30 49744 H 4664.77 -4.22165 2.26525 0
M  V30 49745 H 4663.13 -2.28845 1.11812 0
M  V30 49746 H 4663.92 -2.02895 2.76927 0
M  V30 49747 N 4666.36 -0.939331 -1.26548 0
M  V30 49748 C 4667.29 -0.465124 -2.28821 0
M  V30 49749 C 4668.27 0.480635 -1.63168 0
M  V30 49750 O 4669.46 0.382888 -1.90388 0
M  V30 49751 C 4666.59 0.272219 -3.46232 0
M  V30 49752 C 4665.54 -0.586809 -4.23958 0
M  V30 49753 C 4664.87 0.280385 -5.33964 0
M  V30 49754 C 4666.17 -1.85721 -4.88165 0
M  V30 49755 H 4667.86 -1.31989 -2.68737 0
M  V30 49756 H 4665.41 -0.636107 -1.29189 0
M  V30 49757 H 4667.36 0.614986 -4.16888 0
M  V30 49758 H 4666.08 1.1611 -3.05264 0
M  V30 49759 H 4664.74 -0.912445 -3.55063 0
M  V30 49760 H 4664.39 1.16857 -4.89238 0
M  V30 49761 H 4664.09 -0.290967 -5.86879 0
M  V30 49762 H 4665.62 0.618464 -6.0746 0
M  V30 49763 H 4667.03 -1.5818 -5.51046 0
M  V30 49764 H 4665.43 -2.37299 -5.51189 0
M  V30 49765 H 4666.5 -2.56971 -4.1121 0
M  V30 49766 N 4667.84 1.40895 -0.706143 0
M  V30 49767 C 4669.12 1.94867 -0.169167 0
M  V30 49768 C 4669.5 1.64489 1.32312 0
M  V30 49769 O 4668.84 0.957513 2.0747 0
M  V30 49770 C 4669.05 3.45797 -0.471776 0
M  V30 49771 C 4670.4 4.22661 -0.405276 0
M  V30 49772 O 4671.43 3.53864 -0.407292 0
M  V30 49773 O 4670.29 5.45215 -0.374574 0
M  V30 49774 H 4667.38 0.826729 -0.0211643 0
M  V30 49775 H 4669.93 1.50555 -0.783029 0
M  V30 49776 H 4668.7 3.6123 -1.50429 0
M  V30 49777 H 4668.32 3.97226 0.172526 0
M  V30 49778 N 4669.32 0.451643 1.5099 0
M  V30 49779 C 4670.59 -0.170638 1.94854 0
M  V30 49780 C 4670.97 -1.58783 1.39108 0
M  V30 49781 O 4670.32 -2.20911 0.583999 0
M  V30 49782 C 4670.53 -0.133806 3.48743 0
M  V30 49783 C 4671.88 -0.332331 4.23297 0
M  V30 49784 O 4672.9 -0.211278 3.55573 0
M  V30 49785 O 4671.76 -0.574669 5.4347 0
M  V30 49786 H 4668.86 -0.122235 0.817917 0
M  V30 49787 H 4671.4 0.510651 1.61835 0
M  V30 49788 H 4670.18 0.856417 3.81813 0
M  V30 49789 H 4669.8 -0.857393 3.88245 0
M  V30 49790 N 4670.8 -1.56528 0.183513 0
M  V30 49791 C 4672.21 -1.58665 -0.172498 0
M  V30 49792 C 4672.41 -1.19931 -1.61922 0
M  V30 49793 O 4671.47 -0.916617 -2.35275 0
M  V30 49794 C 4672.78 -3.00463 0.119368 0
M  V30 49795 C 4674.33 -3.12945 0.0585497 0
M  V30 49796 C 4674.8 -4.56856 0.323569 0
M  V30 49797 N 4676.29 -4.62402 0.271775 0
M  V30 49798 C 4677.03 -5.71625 0.45084 0
M  V30 49799 N 4676.53 -6.89359 0.689626 0
M  V30 49800 N 4678.32 -5.60774 0.385899 0
M  V30 49801 H 4670.47 -1.7999 1.12771 0
M  V30 49802 H 4672.73 -0.834792 0.449251 0
M  V30 49803 H 4672.44 -3.33322 1.12203 0
M  V30 49804 H 4672.31 -3.72661 -0.583413 0
M  V30 49805 H 4674.7 -2.79906 -0.934706 0
M  V30 49806 H 4674.78 -2.43158 0.79423 0
M  V30 49807 H 4674.42 -4.90606 1.31409 0
M  V30 49808 H 4674.35 -5.24818 -0.432866 0
M  V30 49809 H 4676.85 -3.77785 0.0933584 0
M  V30 49810 H 4677.16 -7.68486 0.815384 0
M  V30 49811 H 4675.5 -6.91194 0.726385 0
M  V30 49812 H 4678.69 -4.67673 0.199851 0
M  V30 49813 H 4678.87 -6.45838 0.528873 0
M  V30 49814 N 4672.27 0.0901557 -1.57342 0
M  V30 49815 C 4673.52 0.792742 -1.86338 0
M  V30 49816 C 4673.85 1.78491 -0.772725 0
M  V30 49817 O 4673.1 1.94306 0.233189 0
M  V30 49818 C 4673.4 1.55211 -3.21938 0
M  V30 49819 C 4673.07 0.701608 -4.45408 0
M  V30 49820 C 4671.73 0.467166 -4.78927 0
M  V30 49821 C 4674.08 0.110677 -5.21082 0
M  V30 49822 C 4671.41 -0.367991 -5.85545 0
M  V30 49823 C 4673.76 -0.71183 -6.28582 0
M  V30 49824 C 4672.43 -0.956318 -6.60614 0
M  V30 49825 H 4671.7 0.290085 -0.681859 0
M  V30 49826 H 4674.34 0.0540659 -1.91424 0
M  V30 49827 H 4672.65 2.36249 -3.1256 0
M  V30 49828 H 4674.35 2.1002 -3.41603 0
M  V30 49829 H 4670.94 0.894451 -4.19163 0
M  V30 49830 H 4675.12 0.278955 -4.95515 0
M  V30 49831 H 4670.38 -0.566342 -6.08771 0
M  V30 49832 H 4674.55 -1.17656 -6.86389 0
M  V30 49833 H 4672.18 -1.60525 -7.43058 0
M  V30 49834 N 4673.75 1.53407 0.361103 0
M  V30 49835 C 4674.72 1.79484 1.42542 0
M  V30 49836 C 4675.72 0.665378 1.46388 0
M  V30 49837 O 4676.91 0.933601 1.4707 0
M  V30 49838 C 4674.04 1.92097 2.81623 0
M  V30 49839 H 4675.23 2.74542 1.20692 0
M  V30 49840 H 4672.78 1.44553 0.594495 0
M  V30 49841 H 4673.52 0.991208 3.08781 0
M  V30 49842 H 4673.3 2.74251 2.8023 0
M  V30 49843 H 4674.79 2.13849 3.5869 0
M  V30 49844 N 4675.23 -0.621153 1.44843 0
M  V30 49845 C 4676.65 -0.940435 1.2895 0
M  V30 49846 C 4676.85 -2.00153 0.23256 0
M  V30 49847 O 4675.9 -2.49652 -0.378149 0
M  V30 49848 C 4677.22 -1.39423 2.66424 0
M  V30 49849 C 4678.76 -1.50918 2.74213 0
M  V30 49850 C 4679.24 -1.99678 4.12181 0
M  V30 49851 N 4680.73 -2.06932 4.14407 0
M  V30 49852 C 4681.46 -2.45853 5.18019 0
M  V30 49853 N 4680.96 -2.83839 6.31987 0
M  V30 49854 N 4682.75 -2.46074 5.05375 0
M  V30 49855 H 4674.9 0.0804295 2.12248 0
M  V30 49856 H 4677.17 -0.026658 0.947625 0
M  V30 49857 H 4676.87 -0.688804 3.44889 0
M  V30 49858 H 4676.75 -2.36336 2.93981 0
M  V30 49859 H 4679.13 -2.20555 1.9606 0
M  V30 49860 H 4679.22 -0.523539 2.50385 0
M  V30 49861 H 4678.86 -1.30632 4.90813 0
M  V30 49862 H 4678.79 -2.99131 4.33392 0
M  V30 49863 H 4681.28 -1.8022 3.32158 0
M  V30 49864 H 4681.59 -3.1238 7.06851 0
M  V30 49865 H 4679.94 -2.81567 6.35409 0
M  V30 49866 H 4683.13 -2.15795 4.15392 0
M  V30 49867 H 4683.3 -2.76081 5.86245 0
M  V30 49868 N 4676.71 -1.31907 -0.862456 0
M  V30 49869 C 4677.67 -1.20138 -1.95191 0
M  V30 49870 C 4678.67 -0.126465 -1.60302 0
M  V30 49871 O 4679.86 -0.376294 -1.70087 0
M  V30 49872 C 4676.99 -0.845807 -3.30241 0
M  V30 49873 H 4678.19 -2.16951 -2.07057 0
M  V30 49874 H 4675.74 -1.15626 -1.05168 0
M  V30 49875 H 4676.47 0.120843 -3.24075 0
M  V30 49876 H 4676.26 -1.62288 -3.56938 0
M  V30 49877 H 4677.75 -0.787562 -4.10106 0
M  V30 49878 N 4678.19 1.07773 -1.1499 0
M  V30 49879 C 4679.12 2.16862 -0.865633 0
M  V30 49880 C 4680.1 1.69123 0.182024 0
M  V30 49881 O 4681.28 1.94164 0.0373132 0
M  V30 49882 C 4678.41 3.45538 -0.349434 0
M  V30 49883 C 4677.37 4.06704 -1.33328 0
M  V30 49884 C 4676.69 5.30408 -0.676105 0
M  V30 49885 C 4677.99 4.47232 -2.6978 0
M  V30 49886 H 4679.69 2.40899 -1.77787 0
M  V30 49887 H 4677.23 1.15778 -0.856244 0
M  V30 49888 H 4679.19 4.21174 -0.138131 0
M  V30 49889 H 4677.91 3.21074 0.598249 0
M  V30 49890 H 4676.57 3.33107 -1.53086 0
M  V30 49891 H 4676.22 5.02233 0.27759 0
M  V30 49892 H 4675.92 5.72289 -1.33264 0
M  V30 49893 H 4677.44 6.08754 -0.474476 0
M  V30 49894 H 4678.85 5.14016 -2.53891 0
M  V30 49895 H 4677.25 5.0005 -3.31767 0
M  V30 49896 H 4678.32 3.58807 -3.26168 0
M  V30 49897 N 4679.66 0.946029 1.26048 0
M  V30 49898 C 4680.89 0.613094 1.97608 0
M  V30 49899 C 4681.31 -0.812975 1.704 0
M  V30 49900 O 4680.66 -1.5427 0.975033 0
M  V30 49901 C 4680.72 0.851713 3.51323 0
M  V30 49902 O 4680.44 2.2217 3.77587 0
M  V30 49903 C 4681.94 0.529986 4.4012 0
M  V30 49904 H 4679.16 0.230615 0.630125 0
M  V30 49905 H 4681.7 1.26806 1.60439 0
M  V30 49906 H 4679.86 0.243287 3.86635 0
M  V30 49907 H 4680.27 2.28537 4.72092 0
M  V30 49908 H 4681.74 0.74754 5.46915 0
M  V30 49909 H 4682.22 -0.535187 4.35927 0
M  V30 49910 H 4682.83 1.11735 4.1036 0
M  V30 49911 N 4681.14 -1.40518 0.713605 0
M  V30 49912 C 4682.11 -2.29098 0.0685152 0
M  V30 49913 C 4683.11 -1.45271 -0.689421 0
M  V30 49914 O 4684.3 -1.66207 -0.521619 0
M  V30 49915 C 4681.43 -3.28449 -0.912909 0
M  V30 49916 H 4682.62 -2.87642 0.848651 0
M  V30 49917 H 4680.17 -1.48807 0.478143 0
M  V30 49918 H 4680.91 -2.74919 -1.72017 0
M  V30 49919 H 4680.69 -3.90328 -0.372334 0
M  V30 49920 H 4682.18 -3.94782 -1.36151 0
M  V30 49921 N 4682.62 -0.459644 -1.50748 0
M  V30 49922 C 4683.55 0.330563 -2.31148 0
M  V30 49923 C 4684.53 1.00082 -1.37541 0
M  V30 49924 O 4685.72 1.00019 -1.66462 0
M  V30 49925 C 4682.85 1.41947 -3.16967 0
M  V30 49926 C 4681.8 0.87146 -4.19034 0
M  V30 49927 C 4681.13 2.0578 -4.93517 0
M  V30 49928 C 4682.43 -0.109435 -5.22185 0
M  V30 49929 H 4684.12 -0.34044 -2.97458 0
M  V30 49930 H 4681.67 -0.165169 -1.4305 0
M  V30 49931 H 4683.62 1.97967 -3.72004 0
M  V30 49932 H 4682.34 2.11908 -2.48521 0
M  V30 49933 H 4681 0.333314 -3.65082 0
M  V30 49934 H 4680.65 2.74412 -4.21553 0
M  V30 49935 H 4680.35 1.6974 -5.6255 0
M  V30 49936 H 4681.87 2.62312 -5.51385 0
M  V30 49937 H 4683.29 0.361203 -5.72161 0
M  V30 49938 H 4681.69 -0.383526 -5.98873 0
M  V30 49939 H 4682.76 -1.03904 -4.73637 0
M  V30 49940 N 4684.1 1.56428 -0.191812 0
M  V30 49941 C 4685.05 2.20275 0.747096 0
M  V30 49942 C 4686.04 1.17292 1.22225 0
M  V30 49943 O 4687.25 1.35445 1.18552 0
M  V30 49944 H 4683.62 0.705894 0.259264 0
M  V30 49945 H 4685.59 2.97827 0.184859 0
M  V30 49946 C 4684.34 2.87363 1.95749 0
M  V30 49947 H 4683.66 3.66347 1.60093 0
M  V30 49948 H 4685.1 3.35479 2.59288 0
M  V30 49949 C 4683.56 1.88223 2.79417 0
M  V30 49950 O 4684.09 1.38046 3.77235 0
M  V30 49951 N 4682.3 1.56525 2.44843 0
M  V30 49952 H 4681.85 1.97522 1.65357 0
M  V30 49953 H 4681.8 0.904475 3.01109 0
M  V30 49954 N 4685.58 -0.0818102 1.57388 0
M  V30 49955 C 4686.85 -0.815281 1.77799 0
M  V30 49956 C 4687.23 -1.96286 0.776859 0
M  V30 49957 O 4686.58 -2.27692 -0.192026 0
M  V30 49958 C 4686.79 -1.29754 3.23983 0
M  V30 49959 C 4688.14 -1.73497 3.87536 0
M  V30 49960 O 4689.16 -1.39345 3.27813 0
M  V30 49961 O 4688.02 -2.36691 4.92585 0
M  V30 49962 H 4685.12 -0.389888 0.729326 0
M  V30 49963 H 4687.66 -0.0626617 1.69584 0
M  V30 49964 H 4686.43 -0.475944 3.88395 0
M  V30 49965 H 4686.06 -2.11177 3.36883 0
M  V30 49966 N 4687.06 -1.53597 -0.352963 0
M  V30 49967 C 4687.99 -1.75725 -1.45588 0
M  V30 49968 C 4688.97 -0.606014 -1.50885 0
M  V30 49969 O 4690.15 -0.840082 -1.68745 0
M  V30 49970 C 4687.28 -1.84742 -2.8388 0
M  V30 49971 C 4686.32 -3.06819 -2.96251 0
M  V30 49972 S 4687.16 -4.66074 -2.63695 0
M  V30 49973 C 4688.31 -4.77957 -4.04114 0
M  V30 49974 H 4688.55 -2.68998 -1.26599 0
M  V30 49975 H 4686.08 -1.44345 -0.548067 0
M  V30 49976 H 4688.04 -1.90622 -3.63556 0
M  V30 49977 H 4686.7 -0.924986 -3.00171 0
M  V30 49978 H 4685.89 -3.09775 -3.97562 0
M  V30 49979 H 4685.49 -2.99116 -2.24512 0
M  V30 49980 H 4687.78 -4.58787 -4.98518 0
M  V30 49981 H 4688.73 -5.80037 -4.06156 0
M  V30 49982 H 4689.14 -4.06486 -3.91701 0
M  V30 49983 N 4688.53 0.613463 -1.4517 0
M  V30 49984 C 4689.78 1.36991 -1.48586 0
M  V30 49985 C 4690.1 1.94589 -0.126613 0
M  V30 49986 O 4689.37 1.76819 0.84331 0
M  V30 49987 H 4687.95 0.508539 -0.547172 0
M  V30 49988 H 4690.61 0.720789 -1.81082 0
M  V30 49989 H 4689.71 2.19232 -2.22135 0
M  V30 49990 N 4690.01 1.32363 0.855449 0
M  V30 49991 C 4690.96 1.21232 1.96396 0
M  V30 49992 C 4691.93 0.0946787 1.6583 0
M  V30 49993 O 4693.11 0.270087 1.88879 0
M  V30 49994 C 4690.25 0.940535 3.32036 0
M  V30 49995 C 4689.37 2.14289 3.75106 0
M  V30 49996 C 4688.5 1.80665 4.99533 0
M  V30 49997 C 4687.54 2.97226 5.35091 0
M  V30 49998 N 4686.68 2.63701 6.50697 0
M  V30 49999 H 4691.52 2.16049 2.05248 0
M  V30 50000 H 4689.05 1.07454 1.00459 0
M  V30 50001 H 4691.01 0.763455 4.10155 0
M  V30 50002 H 4689.64 0.0291547 3.22787 0
M  V30 50003 H 4688.69 2.43027 2.92646 0
M  V30 50004 H 4690.01 3.01482 3.97379 0
M  V30 50005 H 4689.16 1.59504 5.85357 0
M  V30 50006 H 4687.9 0.906846 4.79195 0
M  V30 50007 H 4686.9 3.1902 4.47779 0
M  V30 50008 H 4688.13 3.87938 5.57388 0
M  V30 50009 H 4686.08 1.7626 6.31877 0
M  V30 50010 H 4685.99 3.44424 6.72984 0
M  V30 50011 H 4687.26 2.45968 7.39676 0
M  V30 50012 N 4691.49 -1.07162 1.1556 0
M  V30 50013 C 4692.74 -1.80061 0.933048 0
M  V30 50014 C 4693.07 -1.86588 -0.538384 0
M  V30 50015 O 4692.34 -1.35103 -1.3992 0
M  V30 50016 C 4692.63 -3.25016 1.55037 0
M  V30 50017 C 4692.48 -3.26623 3.09253 0
M  V30 50018 C 4693.8 -4.22336 1.23775 0
M  V30 50019 H 4690.92 -0.653685 0.340389 0
M  V30 50020 H 4693.56 -1.25384 1.42754 0
M  V30 50021 H 4691.71 -3.71708 1.12985 0
M  V30 50022 H 4693.38 -2.8816 3.60224 0
M  V30 50023 H 4691.62 -2.65527 3.43042 0
M  V30 50024 H 4692.3 -4.28842 3.47561 0
M  V30 50025 H 4694.77 -3.84045 1.60153 0
M  V30 50026 H 4693.65 -5.22047 1.69582 0
M  V30 50027 H 4693.91 -4.41828 0.155093 0
M  V30 50028 N 4692.97 -0.9527 -1.25544 0
M  V30 50029 C 4694.38 -0.65682 -1.45458 0
M  V30 50030 C 4694.58 0.786265 -1.85527 0
M  V30 50031 O 4693.64 1.56176 -1.98407 0
M  V30 50032 C 4694.95 -1.6281 -2.52811 0
M  V30 50033 C 4696.5 -1.63906 -2.66653 0
M  V30 50034 C 4696.98 -2.59794 -3.77189 0
M  V30 50035 N 4698.47 -2.58147 -3.84596 0
M  V30 50036 C 4699.2 -3.2902 -4.6961 0
M  V30 50037 N 4698.7 -4.09359 -5.58925 0
M  V30 50038 N 4700.49 -3.17916 -4.63558 0
M  V30 50039 H 4692.64 -1.8853 -0.978278 0
M  V30 50040 H 4694.9 -0.810832 -0.491178 0
M  V30 50041 H 4694.61 -2.65877 -2.30222 0
M  V30 50042 H 4694.48 -1.3891 -3.5069 0
M  V30 50043 H 4696.87 -0.615583 -2.88608 0
M  V30 50044 H 4696.95 -1.91864 -1.6918 0
M  V30 50045 H 4696.6 -3.62267 -3.55985 0
M  V30 50046 H 4696.53 -2.29121 -4.74142 0
M  V30 50047 H 4699.02 -1.9982 -3.2075 0
M  V30 50048 H 4699.33 -4.60362 -6.20715 0
M  V30 50049 H 4697.68 -4.13457 -5.58639 0
M  V30 50050 H 4700.87 -2.54626 -3.92789 0
M  V30 50051 H 4701.04 -3.73416 -5.29589 0
M  V30 50052 N 4694.45 1.40138 -0.721047 0
M  V30 50053 C 4695.39 2.30688 -0.0720001 0
M  V30 50054 C 4696.36 1.48479 0.744532 0
M  V30 50055 O 4697.55 1.77203 0.70736 0
M  V30 50056 C 4694.69 3.34727 0.839737 0
M  V30 50057 C 4693.8 4.31998 0.012092 0
M  V30 50058 C 4692.94 5.23105 0.923811 0
M  V30 50059 C 4691.97 6.12033 0.0905818 0
M  V30 50060 N 4691.11 6.95541 0.957473 0
M  V30 50061 H 4695.95 2.85625 -0.849856 0
M  V30 50062 H 4693.49 1.40651 -0.430775 0
M  V30 50063 H 4695.45 3.93623 1.38265 0
M  V30 50064 H 4694.08 2.8128 1.58372 0
M  V30 50065 H 4693.13 3.74839 -0.648072 0
M  V30 50066 H 4694.44 4.9477 -0.632769 0
M  V30 50067 H 4693.59 5.86959 1.53506 0
M  V30 50068 H 4692.33 4.60621 1.60248 0
M  V30 50069 H 4691.34 5.47205 -0.53357 0
M  V30 50070 H 4692.56 6.76579 -0.584666 0
M  V30 50071 H 4690.51 6.35639 1.62169 0
M  V30 50072 H 4690.43 7.551 0.368775 0
M  V30 50073 H 4691.69 7.63838 1.55473 0
M  V30 50074 N 4695.92 0.467632 1.50502 0
M  V30 50075 C 4697.2 -0.149962 1.95024 0
M  V30 50076 C 4697.58 -1.57299 1.40785 0
M  V30 50077 O 4696.93 -2.20279 0.607397 0
M  V30 50078 C 4697.14 -0.0968097 3.48866 0
M  V30 50079 C 4698.49 -0.287416 4.23626 0
M  V30 50080 O 4699.51 -0.173553 3.55777 0
M  V30 50081 O 4698.37 -0.516995 5.44049 0
M  V30 50082 H 4695.46 -0.113553 0.819167 0
M  V30 50083 H 4698.01 0.527787 1.61284 0
M  V30 50084 H 4696.78 0.896865 3.80883 0
M  V30 50085 H 4696.4 -0.816166 3.89133 0
M  V30 50086 N 4697.4 -1.56324 0.200105 0
M  V30 50087 C 4698.65 -1.96896 -0.437583 0
M  V30 50088 C 4698.96 -1.09005 -1.62411 0
M  V30 50089 O 4700.17 -1.39381 -2.32992 0
M  V30 50090 C 4698.63 -3.50201 -0.829902 0
M  V30 50091 C 4698.23 -4.46764 0.332619 0
M  V30 50092 C 4699.98 -3.99532 -1.43439 0
M  V30 50093 C 4697.88 -5.91345 -0.0809389 0
M  V30 50094 H 4696.81 -0.735215 -0.167257 0
M  V30 50095 H 4699.47 -1.81147 0.292917 0
M  V30 50096 H 4697.85 -3.61472 -1.61721 0
M  V30 50097 H 4699.02 -4.47227 1.11016 0
M  V30 50098 H 4697.34 -4.07654 0.848932 0
M  V30 50099 H 4699.93 -5.05031 -1.75635 0
M  V30 50100 H 4700.28 -3.4413 -2.34265 0
M  V30 50101 H 4700.81 -3.91395 -0.710952 0
M  V30 50102 H 4697.55 -6.50682 0.793261 0
M  V30 50103 H 4697.07 -5.94124 -0.823236 0
M  V30 50104 H 4698.75 -6.44947 -0.515026 0
M  V30 50105 N 4698.88 0.0734624 -1.57429 0
M  V30 50106 C 4699.81 1.11416 -2.00298 0
M  V30 50107 C 4700.82 1.35081 -0.908684 0
M  V30 50108 O 4702.01 1.3335 -1.18659 0
M  V30 50109 C 4699.11 2.4654 -2.32532 0
M  V30 50110 C 4698.29 2.42854 -3.63786 0
M  V30 50111 C 4697.35 3.60074 -3.8371 0
M  V30 50112 O 4696.37 3.41579 -4.55316 0
M  V30 50113 N 4697.57 4.8036 -3.25936 0
M  V30 50114 H 4700.34 0.749104 -2.90187 0
M  V30 50115 H 4697.9 0.262139 -1.59764 0
M  V30 50116 H 4699.89 3.23598 -2.43035 0
M  V30 50117 H 4698.46 2.75054 -1.48541 0
M  V30 50118 H 4697.68 1.51193 -3.64053 0
M  V30 50119 H 4698.97 2.3749 -4.49973 0
M  V30 50120 H 4698.37 4.9829 -2.67812 0
M  V30 50121 H 4696.92 5.54936 -3.4189 0
M  V30 50122 N 4700.36 1.53782 0.344812 0
M  V30 50123 C 4701.29 1.77993 1.444 0
M  V30 50124 C 4702.3 0.661191 1.48769 0
M  V30 50125 O 4703.49 0.937896 1.51874 0
M  V30 50126 C 4700.59 1.86355 2.83064 0
M  V30 50127 C 4699.76 3.16267 3.02149 0
M  V30 50128 C 4698.82 3.15603 4.21048 0
M  V30 50129 O 4697.85 3.89329 4.15225 0
M  V30 50130 N 4699.05 2.37882 5.29521 0
M  V30 50131 H 4701.82 2.72843 1.24002 0
M  V30 50132 H 4699.38 1.52816 0.534683 0
M  V30 50133 H 4701.37 1.83363 3.60777 0
M  V30 50134 H 4699.94 0.986962 2.96611 0
M  V30 50135 H 4699.16 3.32393 2.11917 0
M  V30 50136 H 4700.45 4.02081 3.11782 0
M  V30 50137 H 4699.85 1.77533 5.37121 0
M  V30 50138 H 4698.4 2.4069 6.05732 0
M  V30 50139 N 4701.84 -0.605756 1.45494 0
M  V30 50140 C 4703.08 -1.36475 1.50818 0
M  V30 50141 C 4703.44 -1.91826 0.148537 0
M  V30 50142 O 4702.73 -1.72214 -0.839808 0
M  V30 50143 C 4702.92 -2.53003 2.52437 0
M  V30 50144 C 4702.75 -2.09064 3.98149 0
M  V30 50145 C 4701.52 -1.95151 4.66095 0
M  V30 50146 C 4703.72 -1.66421 4.8663 0
M  V30 50147 N 4701.7 -1.45041 5.9652 0
M  V30 50148 C 4703.07 -1.27739 6.06698 0
M  V30 50149 C 4705.13 -1.54029 4.73476 0
M  V30 50150 C 4703.83 -0.779035 7.15069 0
M  V30 50151 C 4705.86 -1.05597 5.81896 0
M  V30 50152 C 4705.22 -0.678814 7.01122 0
M  V30 50153 H 4701.32 -0.493245 0.606822 0
M  V30 50154 H 4703.9 -0.692283 1.81977 0
M  V30 50155 H 4702.07 -3.17843 2.23227 0
M  V30 50156 H 4703.81 -3.19889 2.47898 0
M  V30 50157 H 4700.56 -2.16392 4.21274 0
M  V30 50158 H 4700.99 -1.22214 6.65877 0
M  V30 50159 H 4705.63 -1.81813 3.81712 0
M  V30 50160 H 4703.35 -0.488743 8.06621 0
M  V30 50161 H 4706.93 -0.964327 5.73753 0
M  V30 50162 H 4705.81 -0.309815 7.83588 0
M  V30 50163 N 4703.31 -1.32814 -0.848417 0
M  V30 50164 C 4704.22 -1.24285 -1.98973 0
M  V30 50165 C 4705.24 -0.155237 -1.73306 0
M  V30 50166 O 4706.42 -0.377069 -1.97839 0
M  V30 50167 C 4703.48 -0.972561 -3.32779 0
M  V30 50168 C 4702.54 -2.14924 -3.71627 0
M  V30 50169 C 4701.78 -1.89175 -4.99048 0
M  V30 50170 O 4702 -0.837363 -5.6422 0
M  V30 50171 O 4700.93 -2.75451 -5.35173 0
M  V30 50172 H 4704.76 -2.20245 -2.09107 0
M  V30 50173 H 4702.34 -1.12766 -0.980012 0
M  V30 50174 H 4704.23 -0.838577 -4.12972 0
M  V30 50175 H 4702.9 -0.0431648 -3.23671 0
M  V30 50176 H 4701.81 -2.33872 -2.91984 0
M  V30 50177 H 4703.14 -3.06164 -3.85389 0
M  V30 50178 N 4704.79 1.06547 -1.16127 0
M  V30 50179 C 4706.2 1.60765 -0.949289 0
M  V30 50180 C 4706.55 1.89524 0.507441 0
M  V30 50181 O 4705.68 1.66676 1.38015 0
M  V30 50182 C 4706.27 2.9208 -1.71681 0
M  V30 50183 C 4704.83 3.43009 -1.54989 0
M  V30 50184 C 4703.98 2.16941 -1.72719 0
M  V30 50185 H 4706.93 0.895308 -1.31034 0
M  V30 50186 H 4706.95 3.61376 -1.19111 0
M  V30 50187 H 4706.46 2.71117 -2.777 0
M  V30 50188 H 4704.57 3.69038 -0.514003 0
M  V30 50189 H 4704.68 4.18508 -2.33213 0
M  V30 50190 H 4703.04 2.27037 -1.15439 0
M  V30 50191 H 4703.83 1.98464 -2.8012 0
M  V30 50192 N 4706.27 0.959345 1.25037 0
M  V30 50193 C 4707.5 0.633576 1.97486 0
M  V30 50194 C 4707.92 -0.788495 1.70776 0
M  V30 50195 O 4707.28 -1.53391 0.966485 0
M  V30 50196 C 4707.33 0.90418 3.4908 0
M  V30 50197 O 4706.43 -0.0146489 4.12397 0
M  V30 50198 H 4705.77 0.24039 0.618958 0
M  V30 50199 H 4708.3 1.28722 1.59034 0
M  V30 50200 H 4708.31 0.832343 3.9942 0
M  V30 50201 H 4706.99 1.94061 3.67849 0
M  V30 50202 H 4705.56 0.109795 3.72738 0
M  V30 50203 N 4707.75 -1.39754 0.728469 0
M  V30 50204 C 4709.16 -1.54419 0.403362 0
M  V30 50205 C 4709.36 -1.69698 -1.0865 0
M  V30 50206 O 4708.42 -1.6938 -1.87261 0
M  V30 50207 C 4709.73 -2.76551 1.18068 0
M  V30 50208 C 4711.28 -2.9038 1.16826 0
M  V30 50209 C 4711.76 -4.15442 1.928 0
M  V30 50210 N 4713.25 -4.22468 1.89933 0
M  V30 50211 C 4713.98 -5.18171 2.45532 0
M  V30 50212 N 4713.48 -6.19704 3.09741 0
M  V30 50213 N 4715.27 -5.10341 2.35602 0
M  V30 50214 H 4707.42 -1.28083 1.69436 0
M  V30 50215 H 4709.69 -0.620302 0.716889 0
M  V30 50216 H 4709.39 -2.71582 2.23464 0
M  V30 50217 H 4709.27 -3.6903 0.780792 0
M  V30 50218 H 4711.65 -2.94846 0.122444 0
M  V30 50219 H 4711.73 -1.98983 1.60747 0
M  V30 50220 H 4711.38 -4.11738 2.97379 0
M  V30 50221 H 4711.31 -5.05872 1.4629 0
M  V30 50222 H 4713.8 -3.49738 1.4315 0
M  V30 50223 H 4714.11 -6.89177 3.49649 0
M  V30 50224 H 4712.46 -6.2011 3.13829 0
M  V30 50225 H 4715.65 -4.29954 1.85087 0
M  V30 50226 H 4715.82 -5.84751 2.79232 0
M  V30 50227 N 4709.23 -0.475607 -1.50252 0
M  V30 50228 C 4710.47 0.077667 -2.01951 0
M  V30 50229 C 4710.8 1.39808 -1.35936 0
M  V30 50230 O 4710.07 1.89247 -0.506189 0
M  V30 50231 H 4708.65 0.0316928 -0.746327 0
M  V30 50232 H 4711.31 -0.62706 -1.84537 0
M  V30 50233 H 4710.4 0.225886 -3.11281 0
M  V30 50234 N 4710.7 1.56216 -0.208392 0
M  V30 50235 C 4711.95 1.99 0.42079 0
M  V30 50236 C 4712.31 1.09337 1.58314 0
M  V30 50237 O 4711.6 0.140533 1.91084 0
M  V30 50238 C 4711.79 3.45444 0.916675 0
M  V30 50239 C 4711.62 4.49272 -0.196083 0
M  V30 50240 C 4710.39 5.00996 -0.658132 0
M  V30 50241 C 4712.59 5.0429 -1.00974 0
M  V30 50242 N 4710.57 5.88508 -1.74732 0
M  V30 50243 C 4711.94 5.88601 -1.94806 0
M  V30 50244 C 4714 4.86688 -1.05066 0
M  V30 50245 C 4712.7 6.5719 -2.92393 0
M  V30 50246 C 4714.73 5.56027 -2.01465 0
M  V30 50247 C 4714.09 6.40094 -2.94039 0
M  V30 50248 H 4710.19 0.772579 0.121021 0
M  V30 50249 H 4712.77 1.921 -0.317143 0
M  V30 50250 H 4710.94 3.52818 1.62401 0
M  V30 50251 H 4712.67 3.75169 1.51757 0
M  V30 50252 H 4709.43 4.72945 -0.249078 0
M  V30 50253 H 4709.85 6.36967 -2.29352 0
M  V30 50254 H 4714.5 4.21358 -0.348907 0
M  V30 50255 H 4712.21 7.2171 -3.63538 0
M  V30 50256 H 4715.8 5.44378 -2.05289 0
M  V30 50257 H 4714.68 6.92803 -3.67415 0
M  V30 50258 N 4712.18 -0.0651125 1.57465 0
M  V30 50259 C 4713.13 -1.09535 2.05195 0
M  V30 50260 C 4714.12 -1.39671 0.958558 0
M  V30 50261 O 4715.33 -1.38999 1.14364 0
M  V30 50262 H 4711.71 -0.3706 0.654339 0
M  V30 50263 H 4713.68 -0.6667 2.90857 0
M  V30 50264 C 4712.43 -2.39872 2.51707 0
M  V30 50265 H 4711.75 -2.17535 3.35438 0
M  V30 50266 H 4713.19 -3.10389 2.8885 0
M  V30 50267 C 4711.65 -3.06305 1.40281 0
M  V30 50268 O 4712.18 -3.94662 0.748662 0
M  V30 50269 N 4710.38 -2.67037 1.14627 0
M  V30 50270 H 4709.93 -1.95275 1.68004 0
M  V30 50271 H 4709.89 -3.11809 0.402798 0
M  V30 50272 N 4713.66 -1.53962 -0.336652 0
M  V30 50273 C 4714.94 -1.62175 -1.09355 0
M  V30 50274 C 4715.32 -0.447336 -2.06306 0
M  V30 50275 O 4714.67 0.559724 -2.21539 0
M  V30 50276 C 4714.88 -2.98571 -1.8071 0
M  V30 50277 C 4716.22 -3.54165 -2.34206 0
M  V30 50278 O 4717.25 -3.00791 -1.90796 0
M  V30 50279 O 4716.11 -4.4754 -3.13641 0
M  V30 50280 H 4713.2 -0.656218 -0.503296 0
M  V30 50281 H 4715.75 -1.66308 -0.337592 0
M  V30 50282 H 4714.52 -3.75486 -1.10118 0
M  V30 50283 H 4714.14 -2.98059 -2.63148 0
M  V30 50284 N 4715.14 0.598031 -1.45813 0
M  V30 50285 C 4716.38 1.35674 -1.51539 0
M  V30 50286 C 4716.74 1.91744 -0.158708 0
M  V30 50287 O 4716.03 1.72657 0.830663 0
M  V30 50288 C 4716.23 2.5166 -2.53775 0
M  V30 50289 C 4716.06 2.06949 -3.99252 0
M  V30 50290 C 4714.83 1.92677 -4.67123 0
M  V30 50291 C 4717.02 1.63837 -4.87506 0
M  V30 50292 N 4715.01 1.41876 -5.97281 0
M  V30 50293 C 4716.38 1.2452 -6.07367 0
M  V30 50294 C 4718.43 1.51516 -4.74286 0
M  V30 50295 C 4717.13 0.741102 -7.15472 0
M  V30 50296 C 4719.16 1.0251 -5.82448 0
M  V30 50297 C 4718.52 0.641622 -7.01472 0
M  V30 50298 H 4714.62 0.49002 -0.609429 0
M  V30 50299 H 4717.21 0.682623 -1.82341 0
M  V30 50300 H 4715.38 3.16655 -2.24909 0
M  V30 50301 H 4717.11 3.1857 -2.49591 0
M  V30 50302 H 4713.86 2.14155 -4.22415 0
M  V30 50303 H 4714.29 1.18681 -6.66516 0
M  V30 50304 H 4718.93 1.79787 -3.8267 0
M  V30 50305 H 4716.65 0.445959 -8.06869 0
M  V30 50306 H 4720.23 0.933886 -5.74256 0
M  V30 50307 H 4719.11 0.268255 -7.83741 0
M  V30 50308 N 4716.62 1.33262 0.841362 0
M  V30 50309 C 4717.85 1.27611 1.62859 0
M  V30 50310 C 4718.26 -0.153441 1.88175 0
M  V30 50311 O 4717.62 -1.0948 1.46015 0
M  V30 50312 C 4717.67 2.04607 2.98024 0
M  V30 50313 O 4717.39 3.41984 2.73821 0
M  V30 50314 C 4718.89 2.06136 3.92457 0
M  V30 50315 H 4716.11 0.439736 0.506827 0
M  V30 50316 H 4718.65 1.75595 1.04818 0
M  V30 50317 H 4716.81 1.60311 3.52674 0
M  V30 50318 H 4717.22 3.81562 3.59876 0
M  V30 50319 H 4718.7 2.64468 4.84521 0
M  V30 50320 H 4719.17 1.05098 4.2644 0
M  V30 50321 H 4719.78 2.50439 3.43745 0
M  V30 50322 N 4718.1 -1.0593 1.1669 0
M  V30 50323 C 4719.03 -2.13465 0.834578 0
M  V30 50324 C 4720.04 -1.62014 -0.159783 0
M  V30 50325 O 4721.23 -1.7838 0.0654855 0
M  V30 50326 C 4718.33 -3.38169 0.22248 0
M  V30 50327 C 4717.5 -4.18923 1.25786 0
M  V30 50328 C 4716.56 -5.21982 0.664886 0
M  V30 50329 O 4715.59 -5.5333 1.33472 0
M  V30 50330 N 4716.79 -5.77921 -0.546631 0
M  V30 50331 H 4719.55 -2.42572 1.76008 0
M  V30 50332 H 4717.12 -1.21963 1.06474 0
M  V30 50333 H 4719.11 -4.04266 -0.18733 0
M  V30 50334 H 4717.68 -3.06657 -0.60665 0
M  V30 50335 H 4716.9 -3.48427 1.8437 0
M  V30 50336 H 4718.19 -4.6968 1.95647 0
M  V30 50337 H 4717.58 -5.54725 -1.10893 0
M  V30 50338 H 4716.14 -6.45576 -0.898602 0
M  V30 50339 N 4719.57 -0.965962 -1.24527 0
M  V30 50340 C 4720.82 -0.627828 -1.92837 0
M  V30 50341 C 4721.15 0.834632 -1.7535 0
M  V30 50342 O 4720.43 1.60027 -1.10552 0
M  V30 50343 C 4720.71 -1.00122 -3.45901 0
M  V30 50344 C 4720.56 -2.52024 -3.72564 0
M  V30 50345 C 4721.88 -0.534504 -4.36842 0
M  V30 50346 H 4719 -0.229561 -0.700336 0
M  V30 50347 H 4721.64 -1.20465 -1.46929 0
M  V30 50348 H 4719.79 -0.510374 -3.85133 0
M  V30 50349 H 4721.47 -3.08571 -3.42901 0
M  V30 50350 H 4719.71 -2.95298 -3.17776 0
M  V30 50351 H 4720.38 -2.732 -4.79652 0
M  V30 50352 H 4722.86 -0.955708 -4.04976 0
M  V30 50353 H 4721.73 -0.824342 -5.42675 0
M  V30 50354 H 4721.99 0.565435 -4.38469 0
M  V30 50355 N 4721.05 1.39365 -0.73587 0
M  V30 50356 C 4722.46 1.83312 -0.35408 0
M  V30 50357 C 4722.81 1.61465 1.11461 0
M  V30 50358 O 4721.94 1.10628 1.85985 0
M  V30 50359 C 4722.53 3.32779 -0.635886 0
M  V30 50360 C 4721.09 3.75141 -0.30758 0
M  V30 50361 C 4720.24 2.62355 -0.898066 0
M  V30 50362 H 4723.19 1.28345 -0.933443 0
M  V30 50363 H 4723.21 3.80389 0.0920436 0
M  V30 50364 H 4722.72 3.48648 -1.70488 0
M  V30 50365 H 4720.82 3.64859 0.755545 0
M  V30 50366 H 4720.94 4.72529 -0.790749 0
M  V30 50367 H 4719.3 2.52623 -0.32464 0
M  V30 50368 H 4720.08 2.81029 -1.97174 0
M  V30 50369 N 4722.53 0.483569 1.49998 0
M  V30 50370 C 4723.78 -0.0670885 2.02389 0
M  V30 50371 C 4724.1 -1.38592 1.36464 0
M  V30 50372 O 4723.36 -1.89633 0.483525 0
M  V30 50373 C 4723.66 -0.2861 3.56253 0
M  V30 50374 C 4723.32 0.952571 4.40723 0
M  V30 50375 C 4721.99 1.29215 4.63527 0
M  V30 50376 C 4724.34 1.77672 4.89982 0
M  V30 50377 C 4721.67 2.45572 5.32833 0
M  V30 50378 C 4724.02 2.93167 5.60568 0
M  V30 50379 C 4722.68 3.27525 5.81621 0
M  V30 50380 H 4721.95 -0.0245494 0.740593 0
M  V30 50381 H 4724.6 0.640187 1.80482 0
M  V30 50382 H 4722.9 -1.07574 3.76743 0
M  V30 50383 H 4724.6 -0.726335 3.94367 0
M  V30 50384 H 4721.19 0.67803 4.23203 0
M  V30 50385 H 4725.38 1.52754 4.72208 0
M  V30 50386 H 4720.63 2.7245 5.4734 0
M  V30 50387 H 4724.81 3.57365 5.97715 0
M  V30 50388 H 4722.43 4.17792 6.35101 0
M  V30 50389 N 4724.01 -1.56103 0.216674 0
M  V30 50390 C 4725.25 -2.00075 -0.418252 0
M  V30 50391 C 4725.61 -1.10103 -1.57294 0
M  V30 50392 O 4726.81 -1.43401 -2.27353 0
M  V30 50393 C 4725.08 -3.47234 -0.846355 0
M  V30 50394 S 4726.64 -4.13228 -1.47608 0
M  V30 50395 H 4723.46 -0.698462 -0.132938 0
M  V30 50396 H 4726.06 -1.92783 0.324816 0
M  V30 50397 H 4724.77 -4.104 0.00377618 0
M  V30 50398 H 4724.3 -3.5839 -1.62236 0
M  V30 50399 H 4726.31 -4.12014 -2.76511 0
M  V30 50400 N 4725.49 0.0567608 -1.57498 0
M  V30 50401 C 4726.71 0.769334 -1.92603 0
M  V30 50402 C 4727.14 1.69556 -0.814396 0
M  V30 50403 O 4726.49 1.79812 0.231839 0
M  V30 50404 C 4726.54 1.52622 -3.26709 0
M  V30 50405 O 4725.65 2.63786 -3.17003 0
M  V30 50406 H 4724.99 0.208887 -0.630287 0
M  V30 50407 H 4727.52 0.0205078 -2.0459 0
M  V30 50408 H 4727.53 1.90222 -3.60943 0
M  V30 50409 H 4726.2 0.846732 -4.07189 0
M  V30 50410 H 4724.78 2.28933 -2.94354 0
M  V30 50411 N 4726.96 1.54139 0.328482 0
M  V30 50412 C 4727.91 1.79562 1.40504 0
M  V30 50413 C 4728.9 0.651425 1.47123 0
M  V30 50414 O 4730.09 0.911279 1.51739 0
M  V30 50415 C 4727.22 2.02206 2.7743 0
M  V30 50416 C 4726.3 3.22733 2.75143 0
M  V30 50417 N 4726.7 4.43889 2.42479 0
M  V30 50418 C 4724.99 3.24207 3.06277 0
M  V30 50419 C 4725.69 5.25806 2.48804 0
M  V30 50420 N 4724.67 4.62872 2.85044 0
M  V30 50421 H 4728.47 2.70818 1.1417 0
M  V30 50422 H 4725.99 1.53267 0.536937 0
M  V30 50423 H 4727.98 2.18558 3.55018 0
M  V30 50424 H 4726.64 1.12201 3.04698 0
M  V30 50425 H 4727.65 4.70976 2.15411 0
M  V30 50426 H 4724.33 2.4422 3.38619 0
M  V30 50427 H 4725.72 6.32543 2.26581 0
M  V30 50428 N 4728.44 -0.59029 1.46128 0
M  V30 50429 C 4729.39 -1.6946 1.52536 0
M  V30 50430 C 4730.38 -1.56177 0.386972 0
M  V30 50431 O 4731.57 -1.6522 0.634916 0
M  V30 50432 C 4728.7 -3.08239 1.5114 0
M  V30 50433 C 4727.78 -3.26846 2.70245 0
M  V30 50434 N 4728.17 -3.15643 3.95226 0
M  V30 50435 C 4726.47 -3.57765 2.66308 0
M  V30 50436 C 4727.17 -3.36049 4.74811 0
M  V30 50437 N 4726.15 -3.60851 4.06556 0
M  V30 50438 H 4729.95 -1.59317 2.46972 0
M  V30 50439 H 4727.46 -0.794091 1.41661 0
M  V30 50440 H 4729.46 -3.87486 1.53818 0
M  V30 50441 H 4728.12 -3.19519 0.577748 0
M  V30 50442 H 4729.13 -2.93671 4.26588 0
M  V30 50443 H 4725.81 -3.75776 1.81931 0
M  V30 50444 H 4727.2 -3.32635 5.83784 0
M  V30 50445 N 4729.92 -1.33707 -0.834283 0
M  V30 50446 C 4731.17 -1.25423 -1.58982 0
M  V30 50447 C 4731.49 0.1788 -1.93676 0
M  V30 50448 O 4730.75 1.13718 -1.59269 0
M  V30 50449 C 4731.05 -2.07936 -2.90684 0
M  V30 50450 C 4730.71 -3.57075 -2.75333 0
M  V30 50451 C 4729.38 -3.97734 -2.70853 0
M  V30 50452 C 4731.73 -4.51826 -2.59812 0
M  V30 50453 C 4729.06 -5.31353 -2.48759 0
M  V30 50454 C 4731.41 -5.85612 -2.39251 0
M  V30 50455 C 4730.07 -6.25448 -2.33177 0
M  V30 50456 H 4729.34 -0.458954 -0.581758 0
M  V30 50457 H 4731.99 -1.65338 -0.966203 0
M  V30 50458 H 4730.29 -1.60812 -3.57277 0
M  V30 50459 H 4731.99 -1.98881 -3.48206 0
M  V30 50460 H 4728.58 -3.24795 -2.79654 0
M  V30 50461 H 4732.77 -4.2132 -2.62304 0
M  V30 50462 H 4728.02 -5.61249 -2.42506 0
M  V30 50463 H 4732.2 -6.58631 -2.26226 0
M  V30 50464 H 4729.82 -7.28922 -2.15818 0
M  V30 50465 N 4731.4 1.0531 -1.1725 0
M  V30 50466 C 4732.35 2.1131 -0.856271 0
M  V30 50467 C 4733.33 1.60014 0.168638 0
M  V30 50468 O 4734.52 1.76968 -0.0336246 0
M  V30 50469 C 4731.65 3.413 -0.370037 0
M  V30 50470 C 4730.74 3.99396 -1.4263 0
M  V30 50471 N 4731.13 4.31472 -2.63943 0
M  V30 50472 C 4729.43 4.27121 -1.28388 0
M  V30 50473 C 4730.13 4.77787 -3.31804 0
M  V30 50474 N 4729.11 4.77834 -2.59182 0
M  V30 50475 H 4732.91 2.33969 -1.77864 0
M  V30 50476 H 4730.42 1.22946 -1.06104 0
M  V30 50477 H 4732.42 4.16712 -0.125043 0
M  V30 50478 H 4731.08 3.20074 0.546141 0
M  V30 50479 H 4732.09 4.21508 -3.00917 0
M  V30 50480 H 4728.77 4.15287 -0.429257 0
M  V30 50481 H 4730.16 5.11728 -4.35413 0
M  V30 50482 N 4732.88 0.972553 1.24013 0
M  V30 50483 C 4733.79 0.51438 2.28891 0
M  V30 50484 C 4734.8 -0.427018 1.68679 0
M  V30 50485 O 4735.98 -0.298868 1.9917 0
M  V30 50486 C 4733.04 -0.183477 3.46214 0
M  V30 50487 C 4732.1 0.79835 4.21811 0
M  V30 50488 C 4731.34 0.133701 5.33533 0
M  V30 50489 O 4731.56 -1.07695 5.60141 0
M  V30 50490 O 4730.49 0.828312 5.96173 0
M  V30 50491 H 4734.32 1.38638 2.70209 0
M  V30 50492 H 4731.91 0.739815 1.29796 0
M  V30 50493 H 4733.79 -0.575287 4.17455 0
M  V30 50494 H 4732.46 -1.03037 3.06863 0
M  V30 50495 H 4731.37 1.24071 3.52927 0
M  V30 50496 H 4732.7 1.61381 4.64992 0
M  V30 50497 N 4734.35 -1.38973 0.74325 0
M  V30 50498 C 4735.28 -2.33171 0.123955 0
M  V30 50499 C 4736.27 -1.54338 -0.715105 0
M  V30 50500 O 4737.45 -1.82698 -0.658403 0
M  V30 50501 C 4734.58 -3.38477 -0.777859 0
M  V30 50502 C 4733.53 -4.27979 -0.0423254 0
M  V30 50503 C 4732.86 -5.24053 -1.0617 0
M  V30 50504 C 4734.16 -5.10151 1.11998 0
M  V30 50505 H 4735.85 -2.8521 0.91081 0
M  V30 50506 H 4733.4 -1.37131 0.439436 0
M  V30 50507 H 4735.35 -4.03332 -1.2207 0
M  V30 50508 H 4734.08 -2.84896 -1.59692 0
M  V30 50509 H 4732.74 -3.64615 0.380981 0
M  V30 50510 H 4732.38 -4.66765 -1.87455 0
M  V30 50511 H 4732.08 -5.84787 -0.574279 0
M  V30 50512 H 4733.61 -5.91785 -1.50408 0
M  V30 50513 H 4735.02 -5.68304 0.75519 0
M  V30 50514 H 4733.42 -5.80068 1.53758 0
M  V30 50515 H 4734.49 -4.44497 1.9378 0
M  V30 50516 N 4735.83 -0.491517 -1.49739 0
M  V30 50517 C 4737.08 0.058148 -2.01616 0
M  V30 50518 C 4737.39 1.38922 -1.37695 0
M  V30 50519 O 4738.6 2.02502 -1.80845 0
M  V30 50520 C 4737.06 0.154109 -3.5957 0
M  V30 50521 C 4736.66 -1.16975 -4.32459 0
M  V30 50522 C 4738.41 0.654643 -4.19422 0
M  V30 50523 C 4736.32 -1.03647 -5.82247 0
M  V30 50524 H 4735.25 0.0255052 -0.753569 0
M  V30 50525 H 4737.9 -0.629505 -1.72364 0
M  V30 50526 H 4736.28 0.906002 -3.85497 0
M  V30 50527 H 4737.45 -1.9342 -4.18241 0
M  V30 50528 H 4735.77 -1.60298 -3.84309 0
M  V30 50529 H 4738.36 0.771717 -5.29102 0
M  V30 50530 H 4738.71 1.65113 -3.82156 0
M  V30 50531 H 4739.24 -0.0404439 -3.97779 0
M  V30 50532 H 4735.98 -2.00694 -6.24021 0
M  V30 50533 H 4735.5 -0.312756 -5.98984 0
M  V30 50534 H 4737.18 -0.71134 -6.43078 0
M  V30 50535 N 4737.31 1.55986 -0.224949 0
M  V30 50536 C 4738.24 2.16415 0.723853 0
M  V30 50537 C 4739.22 1.10956 1.1886 0
M  V30 50538 O 4740.41 1.3923 1.27072 0
M  V30 50539 C 4737.53 2.74717 1.98111 0
M  V30 50540 C 4736.58 3.93035 1.65606 0
M  V30 50541 S 4737.41 5.2982 0.777872 0
M  V30 50542 C 4738.57 5.91562 2.04462 0
M  V30 50543 H 4738.8 2.96556 0.210243 0
M  V30 50544 H 4736.33 1.54397 -0.00960885 0
M  V30 50545 H 4738.29 3.08947 2.703 0
M  V30 50546 H 4736.95 1.94564 2.46584 0
M  V30 50547 H 4736.15 4.32343 2.59028 0
M  V30 50548 H 4735.75 3.5997 1.01478 0
M  V30 50549 H 4738.04 6.07743 2.99424 0
M  V30 50550 H 4738.98 6.87504 1.69539 0
M  V30 50551 H 4739.39 5.20426 2.1867 0
M  V30 50552 N 4738.79 -0.0484076 1.57526 0
M  V30 50553 C 4739.74 -1.05496 2.05278 0
M  V30 50554 C 4740.71 -1.37081 0.937975 0
M  V30 50555 O 4741.89 -1.4775 1.20725 0
M  V30 50556 C 4739.03 -2.35668 2.52101 0
M  V30 50557 C 4738.14 -2.1041 3.77295 0
M  V30 50558 C 4737.28 -3.34312 4.12806 0
M  V30 50559 C 4736.32 -3.04523 5.30973 0
M  V30 50560 N 4735.45 -4.20821 5.62009 0
M  V30 50561 H 4740.29 -0.640783 2.91029 0
M  V30 50562 H 4737.83 -0.304803 1.43907 0
M  V30 50563 H 4739.79 -3.11699 2.77308 0
M  V30 50564 H 4738.42 -2.74844 1.69294 0
M  V30 50565 H 4737.47 -1.24963 3.59289 0
M  V30 50566 H 4738.78 -1.84422 4.63454 0
M  V30 50567 H 4737.94 -4.18725 4.39038 0
M  V30 50568 H 4736.68 -3.63397 3.2526 0
M  V30 50569 H 4735.68 -2.1851 5.04513 0
M  V30 50570 H 4736.91 -2.76737 6.20156 0
M  V30 50571 H 4734.85 -4.49893 4.77422 0
M  V30 50572 H 4734.77 -3.98189 6.42636 0
M  V30 50573 H 4736.04 -5.06163 5.92806 0
M  V30 50574 N 4740.27 -1.54311 -0.320303 0
M  V30 50575 C 4741.54 -1.63326 -1.07629 0
M  V30 50576 C 4741.92 -0.469192 -2.0582 0
M  V30 50577 O 4741.27 0.536196 -2.2212 0
M  V30 50578 C 4741.48 -3.00471 -1.77533 0
M  V30 50579 C 4742.83 -3.56629 -2.30436 0
M  V30 50580 O 4743.85 -3.02798 -1.87595 0
M  V30 50581 O 4742.71 -4.50841 -3.08877 0
M  V30 50582 H 4739.81 -0.661519 -0.496308 0
M  V30 50583 H 4742.35 -1.66657 -0.319934 0
M  V30 50584 H 4741.12 -3.76633 -1.0613 0
M  V30 50585 H 4740.75 -3.00833 -2.59971 0
M  V30 50586 N 4741.74 0.582532 -1.46439 0
M  V30 50587 C 4742.99 1.33809 -1.51458 0
M  V30 50588 C 4743.31 1.94276 -0.16786 0
M  V30 50589 O 4742.58 1.78568 0.805614 0
M  V30 50590 H 4741.16 0.496818 -0.557835 0
M  V30 50591 H 4743.83 0.682217 -1.8257 0
M  V30 50592 H 4742.92 2.14471 -2.26735 0
M  V30 50593 N 4743.22 1.34147 0.82718 0
M  V30 50594 C 4744.64 1.13736 1.11965 0
M  V30 50595 C 4744.84 -0.0639755 2.01398 0
M  V30 50596 O 4743.89 -0.740771 2.41389 0
M  V30 50597 C 4745.21 2.43053 1.77047 0
M  V30 50598 C 4746.76 2.4907 1.89561 0
M  V30 50599 C 4747.23 3.78378 2.58058 0
M  V30 50600 N 4748.72 3.79515 2.65561 0
M  V30 50601 C 4749.46 4.76285 3.1928 0
M  V30 50602 N 4748.95 5.83437 3.73595 0
M  V30 50603 N 4750.75 4.63746 3.17641 0
M  V30 50604 H 4742.9 2.11127 0.232222 0
M  V30 50605 H 4745.16 0.93343 0.165569 0
M  V30 50606 H 4744.87 3.3103 1.18795 0
M  V30 50607 H 4744.74 2.56076 2.76957 0
M  V30 50608 H 4747.13 1.61535 2.46962 0
M  V30 50609 H 4747.21 2.39979 0.885661 0
M  V30 50610 H 4746.85 4.663 2.01312 0
M  V30 50611 H 4746.78 3.8475 3.59548 0
M  V30 50612 H 4749.27 3.02082 2.27057 0
M  V30 50613 H 4749.59 6.53297 4.12823 0
M  V30 50614 H 4747.93 5.87156 3.71851 0
M  V30 50615 H 4751.12 3.79187 2.74473 0
M  V30 50616 H 4751.29 5.39331 3.59202 0
M  V30 50617 N 4744.7 -1.04686 1.17807 0
M  V30 50618 C 4745.93 -1.81443 0.994293 0
M  V30 50619 C 4746.34 -1.83176 -0.457394 0
M  V30 50620 O 4745.7 -1.26269 -1.31766 0
M  V30 50621 C 4745.75 -3.27329 1.53421 0
M  V30 50622 O 4745.47 -3.25788 2.92906 0
M  V30 50623 C 4746.97 -4.20754 1.39574 0
M  V30 50624 H 4744.19 -0.571587 0.351467 0
M  V30 50625 H 4746.74 -1.31976 1.56213 0
M  V30 50626 H 4744.89 -3.74049 1.00828 0
M  V30 50627 H 4745.31 -4.17133 3.17963 0
M  V30 50628 H 4746.78 -5.21078 1.82159 0
M  V30 50629 H 4747.26 -4.37854 0.343548 0
M  V30 50630 H 4747.86 -3.79894 1.91209 0
M  V30 50631 N 4746.18 -0.979116 -1.23495 0
M  V30 50632 C 4747.11 -0.537686 -2.27225 0
M  V30 50633 C 4748.09 0.428481 -1.64615 0
M  V30 50634 O 4749.28 0.322124 -1.9151 0
M  V30 50635 C 4746.41 0.16193 -3.46922 0
M  V30 50636 C 4745.36 -0.721391 -4.21877 0
M  V30 50637 C 4744.69 0.110367 -5.34586 0
M  V30 50638 C 4745.99 -2.01158 -4.82009 0
M  V30 50639 H 4747.68 -1.40471 -2.64402 0
M  V30 50640 H 4745.23 -0.676885 -1.27099 0
M  V30 50641 H 4747.18 0.482045 -4.18634 0
M  V30 50642 H 4745.9 1.0634 -3.08803 0
M  V30 50643 H 4744.56 -1.02494 -3.51981 0
M  V30 50644 H 4744.21 1.01233 -4.92708 0
M  V30 50645 H 4743.91 -0.477531 -5.85656 0
M  V30 50646 H 4745.43 0.424892 -6.0912 0
M  V30 50647 H 4746.85 -1.75631 -5.45735 0
M  V30 50648 H 4745.24 -2.54714 -5.43361 0
M  V30 50649 H 4746.31 -2.69924 -4.02827 0
M  V30 50650 N 4747.66 1.38577 -0.75061 0
M  V30 50651 C 4748.9 2.0048 -0.305896 0
M  V30 50652 C 4749.24 1.59444 1.10866 0
M  V30 50653 O 4748.51 0.830582 1.75874 0
M  V30 50654 C 4748.79 3.57578 -0.425413 0
M  V30 50655 C 4748.65 4.08587 -1.88086 0
M  V30 50656 C 4749.97 4.3972 0.182967 0
M  V30 50657 H 4747.09 0.728344 -0.112623 0
M  V30 50658 H 4749.73 1.64562 -0.949696 0
M  V30 50659 H 4747.88 3.88306 0.122691 0
M  V30 50660 H 4749.55 3.88515 -2.48705 0
M  V30 50661 H 4747.79 3.61565 -2.39694 0
M  V30 50662 H 4748.46 5.17693 -1.91567 0
M  V30 50663 H 4750.94 4.15127 -0.284449 0
M  V30 50664 H 4749.82 5.48857 0.0690827 0
M  V30 50665 H 4750.08 4.23439 1.27091 0
M  V30 50666 N 4749.14 0.499451 1.49477 0
M  V30 50667 C 4750.38 -0.0456863 2.02749 0
M  V30 50668 C 4750.71 -1.36788 1.3785 0
M  V30 50669 O 4749.99 -1.87595 0.513667 0
M  V30 50670 C 4750.27 -0.19986 3.59545 0
M  V30 50671 C 4750.13 1.14535 4.34973 0
M  V30 50672 C 4751.44 -0.941219 4.29918 0
M  V30 50673 H 4748.56 -0.0151293 0.736845 0
M  V30 50674 H 4751.21 0.65056 1.78515 0
M  V30 50675 H 4749.36 -0.792873 3.80323 0
M  V30 50676 H 4751.03 1.77712 4.25695 0
M  V30 50677 H 4749.27 1.73502 3.97592 0
M  V30 50678 H 4749.94 0.990797 5.43035 0
M  V30 50679 H 4752.42 -0.438294 4.13785 0
M  V30 50680 H 4751.29 -1.01793 5.39379 0
M  V30 50681 H 4751.55 -1.98457 3.95053 0
M  V30 50682 N 4750.61 -1.55865 0.233218 0
M  V30 50683 C 4752.02 -1.84701 -0.272489 0
M  V30 50684 C 4752.38 -1.15483 -1.58613 0
M  V30 50685 O 4751.5 -0.428484 -2.12115 0
M  V30 50686 C 4752.1 -3.35073 -0.501182 0
M  V30 50687 C 4750.65 -3.64183 -0.951176 0
M  V30 50688 C 4749.8 -2.77292 -0.0207234 0
M  V30 50689 H 4752.75 -1.52004 0.456127 0
M  V30 50690 H 4752.77 -3.55911 -1.34565 0
M  V30 50691 H 4752.29 -3.85423 0.455072 0
M  V30 50692 H 4750.39 -3.193 -1.92038 0
M  V30 50693 H 4750.5 -4.72074 -0.817509 0
M  V30 50694 H 4748.86 -2.49132 -0.529635 0
M  V30 50695 H 4749.65 -3.30445 0.930657 0
M  V30 50696 N 4752.09 0.0400529 -1.57549 0
M  V30 50697 C 4753.33 0.738031 -1.90611 0
M  V30 50698 C 4753.7 1.73104 -0.8306 0
M  V30 50699 O 4754.9 2.47646 -1.04522 0
M  V30 50700 C 4753.17 1.39973 -3.2885 0
M  V30 50701 S 4754.73 2.12839 -3.83725 0
M  V30 50702 H 4751.54 0.244747 -0.667548 0
M  V30 50703 H 4754.15 -0.00700472 -1.95499 0
M  V30 50704 H 4752.85 0.663633 -4.04999 0
M  V30 50705 H 4752.38 2.18355 -3.27238 0
M  V30 50706 H 4754.4 3.3983 -3.61567 0
M  V30 50707 N 4753.57 1.54478 0.312115 0
M  V30 50708 C 4754.99 1.45444 0.657134 0
M  V30 50709 C 4755.19 0.636597 1.9118 0
M  V30 50710 O 4754.24 0.139903 2.52112 0
M  V30 50711 C 4755.55 2.8929 0.820479 0
M  V30 50712 C 4757.1 2.99263 0.917083 0
M  V30 50713 C 4757.58 4.44283 1.11251 0
M  V30 50714 N 4759.07 4.47945 1.17898 0
M  V30 50715 C 4759.8 5.57323 1.34828 0
M  V30 50716 N 4759.3 6.76647 1.48728 0
M  V30 50717 N 4761.09 5.44991 1.37628 0
M  V30 50718 H 4753.24 2.06127 -0.512385 0
M  V30 50719 H 4755.51 0.933082 -0.167518 0
M  V30 50720 H 4755.21 3.51687 -0.0303841 0
M  V30 50721 H 4755.09 3.36067 1.71286 0
M  V30 50722 H 4757.47 2.36987 1.75844 0
M  V30 50723 H 4757.55 2.558 0.000922642 0
M  V30 50724 H 4757.2 5.0715 0.275962 0
M  V30 50725 H 4757.13 4.85366 2.04272 0
M  V30 50726 H 4759.62 3.61973 1.08554 0
M  V30 50727 H 4759.93 7.55764 1.6137 0
M  V30 50728 H 4758.28 6.79534 1.45804 0
M  V30 50729 H 4761.47 4.50719 1.26372 0
M  V30 50730 H 4761.64 6.30286 1.50479 0
M  V30 50731 N 4755.05 -0.574758 1.46746 0
M  V30 50732 C 4756 -1.7043 1.58292 0
M  V30 50733 C 4756.99 -1.63286 0.451014 0
M  V30 50734 O 4758.2 -1.68683 0.62818 0
M  V30 50735 H 4754.57 -0.563623 0.497828 0
M  V30 50736 H 4756.54 -1.57824 2.53247 0
M  V30 50737 C 4755.29 -3.0881 1.59787 0
M  V30 50738 H 4754.61 -3.14981 2.46226 0
M  V30 50739 H 4756.05 -3.87582 1.71919 0
M  V30 50740 C 4754.51 -3.353 0.32793 0
M  V30 50741 O 4755.04 -3.97513 -0.578471 0
M  V30 50742 N 4753.25 -2.89816 0.213375 0
M  V30 50743 H 4752.8 -2.39368 0.951882 0
M  V30 50744 H 4752.75 -3.07912 -0.635422 0
M  V30 50745 N 4756.53 -1.34584 -0.820054 0
M  V30 50746 C 4757.46 -1.22242 -1.9388 0
M  V30 50747 C 4758.47 -0.148833 -1.62118 0
M  V30 50748 O 4759.66 -0.400938 -1.73939 0
M  V30 50749 C 4756.76 -0.856658 -3.27894 0
M  V30 50750 C 4755.93 -2.02583 -3.87658 0
M  V30 50751 C 4754.99 -1.638 -5.00056 0
M  V30 50752 O 4754.02 -2.35496 -5.18199 0
M  V30 50753 N 4755.22 -0.553814 -5.77852 0
M  V30 50754 H 4757.98 -2.18622 -2.04998 0
M  V30 50755 H 4755.55 -1.27577 -0.996785 0
M  V30 50756 H 4757.54 -0.578947 -4.00538 0
M  V30 50757 H 4756.11 0.017042 -3.12595 0
M  V30 50758 H 4755.33 -2.46811 -3.07373 0
M  V30 50759 H 4756.62 -2.80767 -4.2432 0
M  V30 50760 H 4756.01 0.0421539 -5.65684 0
M  V30 50761 H 4754.57 -0.335843 -6.50934 0
M  V30 50762 N 4758 1.0406 -1.18361 0
M  V30 50763 C 4759.28 1.74248 -0.888643 0
M  V30 50764 C 4759.66 2.0214 0.608489 0
M  V30 50765 O 4759.01 1.66661 1.56321 0
M  V30 50766 C 4759.22 3.02764 -1.73594 0
M  V30 50767 C 4760.57 3.76499 -1.96299 0
M  V30 50768 O 4761.59 3.12662 -1.70648 0
M  V30 50769 O 4760.45 4.91234 -2.39481 0
M  V30 50770 H 4757.54 0.758259 -0.330108 0
M  V30 50771 H 4760.09 1.10125 -1.29114 0
M  V30 50772 H 4758.86 2.78289 -2.75083 0
M  V30 50773 H 4758.48 3.74626 -1.33196 0
M  V30 50774 N 4759.48 0.985651 1.22974 0
M  V30 50775 C 4760.39 0.538628 2.28333 0
M  V30 50776 C 4761.41 -0.409104 1.69122 0
M  V30 50777 O 4762.58 -0.277727 1.99476 0
M  V30 50778 C 4759.65 -0.146746 3.46389 0
M  V30 50779 C 4758.71 0.843044 4.20941 0
M  V30 50780 C 4757.94 0.190282 5.33361 0
M  V30 50781 O 4758.17 -1.01748 5.61252 0
M  V30 50782 O 4757.1 0.891498 5.95261 0
M  V30 50783 H 4760.93 1.41496 2.68724 0
M  V30 50784 H 4758.51 0.75354 1.29004 0
M  V30 50785 H 4760.39 -0.530978 4.18041 0
M  V30 50786 H 4759.07 -0.997763 3.07939 0
M  V30 50787 H 4757.97 1.27807 3.51591 0
M  V30 50788 H 4759.31 1.66303 4.63254 0
M  V30 50789 N 4760.96 -1.38177 0.757949 0
M  V30 50790 C 4761.89 -2.33026 0.148679 0
M  V30 50791 C 4762.87 -1.55088 -0.698695 0
M  V30 50792 O 4764.06 -1.83386 -0.638988 0
M  V30 50793 C 4761.19 -3.39283 -0.741915 0
M  V30 50794 C 4760.14 -4.28 0.00306992 0
M  V30 50795 C 4759.47 -5.2515 -1.00606 0
M  V30 50796 C 4760.77 -5.08934 1.17403 0
M  V30 50797 H 4762.46 -2.84228 0.941009 0
M  V30 50798 H 4760.01 -1.36657 0.453956 0
M  V30 50799 H 4761.96 -4.04604 -1.17785 0
M  V30 50800 H 4760.68 -2.86574 -1.56661 0
M  V30 50801 H 4759.34 -3.6419 0.419632 0
M  V30 50802 H 4758.99 -4.68727 -1.82494 0
M  V30 50803 H 4758.69 -5.85363 -0.512222 0
M  V30 50804 H 4760.21 -5.93347 -1.44122 0
M  V30 50805 H 4761.63 -5.67471 0.815423 0
M  V30 50806 H 4760.03 -5.78404 1.59902 0
M  V30 50807 H 4761.1 -4.42417 1.98483 0
M  V30 50808 N 4762.44 -0.507371 -1.4921 0
M  V30 50809 C 4763.69 0.0367606 -2.01666 0
M  V30 50810 C 4764 1.37454 -1.39161 0
M  V30 50811 O 4765.21 2.00573 -1.82983 0
M  V30 50812 C 4763.66 0.115963 -3.59713 0
M  V30 50813 C 4763.27 -1.21555 -4.31194 0
M  V30 50814 C 4765.01 0.610121 -4.20093 0
M  V30 50815 C 4762.92 -1.09817 -5.81115 0
M  V30 50816 H 4761.85 0.0175111 -0.753797 0
M  V30 50817 H 4764.5 -0.647752 -1.71687 0
M  V30 50818 H 4762.88 0.865064 -3.86436 0
M  V30 50819 H 4764.06 -1.97845 -4.16166 0
M  V30 50820 H 4762.37 -1.64365 -3.82587 0
M  V30 50821 H 4764.97 0.715555 -5.2989 0
M  V30 50822 H 4765.31 1.61051 -3.83886 0
M  V30 50823 H 4765.85 -0.0826314 -3.97714 0
M  V30 50824 H 4762.59 -2.07302 -6.21857 0
M  V30 50825 H 4762.11 -0.376269 -5.98619 0
M  V30 50826 H 4763.78 -0.779507 -6.42287 0
M  V30 50827 N 4763.92 1.55739 -0.241481 0
M  V30 50828 C 4765.16 1.98418 0.384006 0
M  V30 50829 C 4765.49 1.13084 1.58862 0
M  V30 50830 O 4764.76 0.212381 1.94745 0
M  V30 50831 H 4763.34 0.732818 0.144868 0
M  V30 50832 H 4766 1.91929 -0.33901 0
M  V30 50833 H 4765.09 3.04221 0.696832 0
M  V30 50834 N 4765.39 -0.0316971 1.57568 0
M  V30 50835 C 4766.81 -0.387296 1.5483 0
M  V30 50836 C 4767.01 -1.76767 0.967249 0
M  V30 50837 O 4766.07 -2.45579 0.587149 0
M  V30 50838 C 4767.38 -0.291562 2.99283 0
M  V30 50839 C 4768.93 -0.368837 3.10819 0
M  V30 50840 C 4769.4 -0.30258 4.56999 0
M  V30 50841 N 4770.89 -0.361455 4.61788 0
M  V30 50842 C 4771.63 -0.333037 5.72432 0
M  V30 50843 N 4771.12 -0.257065 6.92323 0
M  V30 50844 N 4772.92 -0.382571 5.60797 0
M  V30 50845 H 4765.07 0.871677 1.93689 0
M  V30 50846 H 4767.33 0.331192 0.888266 0
M  V30 50847 H 4767.04 0.656915 3.45511 0
M  V30 50848 H 4766.91 -1.08625 3.61221 0
M  V30 50849 H 4769.3 -1.30775 2.64541 0
M  V30 50850 H 4769.38 0.455154 2.51718 0
M  V30 50851 H 4769.02 0.63265 5.03944 0
M  V30 50852 H 4768.95 -1.14464 5.14009 0
M  V30 50853 H 4771.44 -0.422791 3.75527 0
M  V30 50854 H 4771.76 -0.240408 7.72426 0
M  V30 50855 H 4770.1 -0.223152 6.94642 0
M  V30 50856 H 4773.29 -0.439896 4.66028 0
M  V30 50857 H 4773.47 -0.356956 6.47016 0
M  V30 50858 N 4766.87 -1.54642 -0.303919 0
M  V30 50859 C 4767.84 -1.84651 -1.35782 0
M  V30 50860 C 4768.84 -0.719251 -1.43817 0
M  V30 50861 O 4770.03 -0.987541 -1.43504 0
M  V30 50862 C 4767.16 -2.02417 -2.74299 0
M  V30 50863 H 4768.35 -2.78833 -1.10419 0
M  V30 50864 H 4765.9 -1.46659 -0.540436 0
M  V30 50865 H 4766.64 -1.10513 -3.04889 0
M  V30 50866 H 4766.42 -2.84463 -2.69858 0
M  V30 50867 H 4767.91 -2.27014 -3.50506 0
M  V30 50868 N 4768.35 0.566968 -1.47048 0
M  V30 50869 C 4769.77 0.891928 -1.32351 0
M  V30 50870 C 4769.97 1.99152 -0.306686 0
M  V30 50871 O 4769.02 2.50884 0.285232 0
M  V30 50872 C 4770.34 1.29439 -2.71415 0
M  V30 50873 C 4771.88 1.40636 -2.79625 0
M  V30 50874 C 4772.36 1.84242 -4.19308 0
M  V30 50875 N 4773.85 1.91409 -4.21802 0
M  V30 50876 C 4774.58 2.26458 -5.26787 0
M  V30 50877 N 4774.08 2.60188 -6.42086 0
M  V30 50878 N 4775.87 2.27148 -5.1416 0
M  V30 50879 H 4768.02 -0.159148 -2.11803 0
M  V30 50880 H 4770.29 -0.00853085 -0.947962 0
M  V30 50881 H 4769.99 0.560326 -3.47208 0
M  V30 50882 H 4769.87 2.25262 -3.0255 0
M  V30 50883 H 4772.25 2.13126 -2.04111 0
M  V30 50884 H 4772.34 0.43025 -2.52156 0
M  V30 50885 H 4771.98 1.12326 -4.95323 0
M  V30 50886 H 4771.91 2.82839 -4.44195 0
M  V30 50887 H 4774.4 1.67768 -3.38618 0
M  V30 50888 H 4774.71 2.8593 -7.17958 0
M  V30 50889 H 4773.06 2.5779 -6.45422 0
M  V30 50890 H 4776.25 2.00229 -4.23114 0
M  V30 50891 H 4776.42 2.54133 -5.96088 0
M  V30 50892 N 4769.83 1.35017 0.812906 0
M  V30 50893 C 4771.08 1.27274 1.56474 0
M  V30 50894 C 4771.39 -0.152703 1.95003 0
M  V30 50895 O 4772.6 -0.352356 2.69204 0
M  V30 50896 C 4771.05 2.23169 2.82354 0
M  V30 50897 C 4770.66 3.71024 2.51087 0
M  V30 50898 C 4772.4 2.24355 3.60368 0
M  V30 50899 C 4770.31 4.58759 3.73221 0
M  V30 50900 H 4769.24 0.472849 0.587307 0
M  V30 50901 H 4771.89 1.60243 0.894115 0
M  V30 50902 H 4770.27 1.83164 3.51094 0
M  V30 50903 H 4771.45 4.19627 1.90394 0
M  V30 50904 H 4769.76 3.72384 1.8633 0
M  V30 50905 H 4772.36 2.87123 4.51071 0
M  V30 50906 H 4772.7 1.24556 3.9723 0
M  V30 50907 H 4773.24 2.62857 2.98582 0
M  V30 50908 H 4769.98 5.59533 3.41472 0
M  V30 50909 H 4769.5 4.14887 4.33162 0
M  V30 50910 H 4771.17 4.73868 4.4052 0
M  V30 50911 N 4771.31 -1.03431 1.18911 0
M  V30 50912 C 4772.53 -1.80915 1.01412 0
M  V30 50913 C 4772.96 -1.83057 -0.432656 0
M  V30 50914 O 4772.31 -1.25256 -1.31075 0
M  V30 50915 C 4772.36 -3.24086 1.58116 0
M  V30 50916 O 4771.47 -4.04431 0.806811 0
M  V30 50917 H 4770.81 -0.558697 0.358823 0
M  V30 50918 H 4773.34 -1.30218 1.57811 0
M  V30 50919 H 4773.35 -3.74848 1.611 0
M  V30 50920 H 4772.02 -3.21842 2.63421 0
M  V30 50921 H 4770.6 -3.63088 0.849794 0
M  V30 50922 N 4772.78 -0.992159 -1.2245 0
M  V30 50923 C 4773.72 -0.500102 -2.23677 0
M  V30 50924 C 4774.73 0.404407 -1.57697 0
M  V30 50925 O 4775.92 0.206659 -1.773 0
M  V30 50926 C 4773.02 0.294592 -3.37617 0
M  V30 50927 C 4772.19 -0.605875 -4.33183 0
M  V30 50928 C 4771.25 0.136985 -5.26022 0
M  V30 50929 O 4770.28 -0.477363 -5.67195 0
M  V30 50930 N 4771.48 1.4195 -5.62877 0
M  V30 50931 H 4774.24 -1.37055 -2.66526 0
M  V30 50932 H 4771.8 -0.866789 -1.36742 0
M  V30 50933 H 4773.8 0.80019 -3.9671 0
M  V30 50934 H 4772.37 1.06613 -2.93858 0
M  V30 50935 H 4771.59 -1.29215 -3.72421 0
M  V30 50936 H 4772.87 -1.21914 -4.93978 0
M  V30 50937 H 4772.27 1.93996 -5.31396 0
M  V30 50938 H 4770.83 1.8703 -6.2439 0
M  V30 50939 N 4774.26 1.37773 -0.765266 0
M  V30 50940 C 4775.51 1.99453 -0.326013 0
M  V30 50941 C 4775.83 1.61053 1.09941 0
M  V30 50942 O 4775.1 0.872882 1.75378 0
M  V30 50943 H 4773.68 0.737693 -0.117551 0
M  V30 50944 H 4776.34 1.68356 -0.981954 0
M  V30 50945 H 4775.44 3.09546 -0.398462 0
M  V30 50946 N 4775.74 0.515277 1.48938 0
M  V30 50947 C 4776.7 -0.244601 2.27891 0
M  V30 50948 C 4777.7 -0.881119 1.3451 0
M  V30 50949 O 4778.89 -0.743441 1.57539 0
M  V30 50950 C 4776.03 -1.35236 3.12928 0
M  V30 50951 H 4777.22 0.448393 2.96529 0
M  V30 50952 H 4774.77 0.27071 1.53938 0
M  V30 50953 H 4775.51 -2.07907 2.48888 0
M  V30 50954 H 4775.29 -0.90124 3.81602 0
M  V30 50955 H 4776.78 -1.88724 3.72522 0
M  V30 50956 N 4777.22 -1.55609 0.249737 0
M  V30 50957 C 4778.47 -1.98619 -0.373478 0
M  V30 50958 C 4778.79 -1.13925 -1.5826 0
M  V30 50959 O 4778.06 -0.222705 -1.9463 0
M  V30 50960 H 4776.64 -0.733576 -0.14098 0
M  V30 50961 H 4779.3 -1.91746 0.349184 0
M  V30 50962 H 4778.4 -3.04587 -0.680689 0
M  V30 50963 N 4778.7 0.0233405 -1.57583 0
M  V30 50964 C 4779.94 0.708544 -1.9066 0
M  V30 50965 C 4780.3 1.72657 -0.848956 0
M  V30 50966 O 4779.59 1.91075 0.141682 0
M  V30 50967 C 4779.79 1.41417 -3.28232 0
M  V30 50968 C 4779.61 0.465998 -4.47279 0
M  V30 50969 C 4778.38 0.0849394 -5.05229 0
M  V30 50970 C 4780.58 -0.258016 -5.13652 0
M  V30 50971 N 4778.56 -0.863886 -6.07791 0
M  V30 50972 C 4779.94 -1.06231 -6.10831 0
M  V30 50973 C 4781.99 -0.324349 -4.96842 0
M  V30 50974 C 4780.69 -1.92684 -6.93012 0
M  V30 50975 C 4782.72 -1.17603 -5.79589 0
M  V30 50976 C 4782.08 -1.96823 -6.76343 0
M  V30 50977 H 4778.18 0.233196 -0.746421 0
M  V30 50978 H 4780.76 -0.0315196 -1.94674 0
M  V30 50979 H 4778.94 2.12466 -3.25135 0
M  V30 50980 H 4780.67 2.05221 -3.48807 0
M  V30 50981 H 4777.42 0.44835 -4.71473 0
M  V30 50982 H 4777.85 -1.33298 -6.63747 0
M  V30 50983 H 4782.49 0.273827 -4.21912 0
M  V30 50984 H 4780.21 -2.53579 -7.67283 0
M  V30 50985 H 4783.79 -1.23096 -5.68629 0
M  V30 50986 H 4782.67 -2.61661 -7.39259 0
M  V30 50987 N 4780.18 1.54801 0.295713 0
M  V30 50988 C 4781.4 1.78657 1.0534 0
M  V30 50989 C 4781.83 0.546958 1.79972 0
M  V30 50990 O 4781.18 -0.502701 1.74191 0
M  V30 50991 C 4781.23 2.99687 2.0055 0
M  V30 50992 O 4780.34 2.73181 3.08943 0
M  V30 50993 H 4779.68 0.591171 0.302346 0
M  V30 50994 H 4782.21 2.01896 0.331527 0
M  V30 50995 H 4782.22 3.27801 2.4292 0
M  V30 50996 H 4780.89 3.89568 1.45636 0
M  V30 50997 H 4779.47 2.56098 2.7105 0
M  V30 50998 N 4781.65 -0.559161 1.47347 0
M  V30 50999 C 4782.58 -1.67616 1.62564 0
M  V30 51000 C 4783.56 -1.63329 0.475144 0
M  V30 51001 O 4784.75 -1.80981 0.704246 0
M  V30 51002 C 4781.88 -3.06254 1.63785 0
M  V30 51003 C 4780.83 -3.25387 2.78042 0
M  V30 51004 C 4780.16 -4.64792 2.64334 0
M  V30 51005 C 4781.46 -3.1095 4.19652 0
M  V30 51006 H 4783.15 -1.55137 2.56072 0
M  V30 51007 H 4780.7 -0.744918 1.23235 0
M  V30 51008 H 4782.65 -3.84241 1.73022 0
M  V30 51009 H 4781.38 -3.19688 0.668363 0
M  V30 51010 H 4780.04 -2.49808 2.68313 0
M  V30 51011 H 4779.68 -4.75022 1.65418 0
M  V30 51012 H 4779.38 -4.78543 3.40985 0
M  V30 51013 H 4780.91 -5.44916 2.75497 0
M  V30 51014 H 4782.32 -3.78756 4.30368 0
M  V30 51015 H 4780.72 -3.36211 4.97074 0
M  V30 51016 H 4781.79 -2.07721 4.38155 0
M  V30 51017 N 4783.13 -1.35446 -0.805734 0
M  V30 51018 C 4784.55 -1.15503 -1.10142 0
M  V30 51019 C 4784.75 0.0319267 -2.01475 0
M  V30 51020 O 4783.8 0.702274 -2.42537 0
M  V30 51021 C 4785.12 -2.45839 -1.73158 0
M  V30 51022 C 4786.66 -2.52054 -1.85574 0
M  V30 51023 C 4787.14 -3.82436 -2.52006 0
M  V30 51024 N 4788.63 -3.83691 -2.5949 0
M  V30 51025 C 4789.37 -4.81305 -3.11662 0
M  V30 51026 N 4788.86 -5.89306 -3.64266 0
M  V30 51027 N 4790.65 -4.68741 -3.10223 0
M  V30 51028 H 4782.81 -2.11469 -0.198604 0
M  V30 51029 H 4785.07 -0.935946 -0.150698 0
M  V30 51030 H 4784.77 -3.32878 -1.13514 0
M  V30 51031 H 4784.65 -2.6045 -2.72848 0
M  V30 51032 H 4787.04 -1.65444 -2.44361 0
M  V30 51033 H 4787.12 -2.41357 -0.84737 0
M  V30 51034 H 4786.76 -4.69444 -1.93869 0
M  V30 51035 H 4786.69 -3.90421 -3.53382 0
M  V30 51036 H 4789.18 -3.05656 -2.22223 0
M  V30 51037 H 4789.49 -6.59782 -4.02378 0
M  V30 51038 H 4787.84 -5.92997 -3.62462 0
M  V30 51039 H 4791.03 -3.83505 -2.68405 0
M  V30 51040 H 4791.2 -5.44977 -3.50577 0
M  V30 51041 N 4784.61 1.02799 -1.19458 0
M  V30 51042 C 4785.52 2.14572 -0.948483 0
M  V30 51043 C 4786.54 1.73758 0.0918099 0
M  V30 51044 O 4787.71 2.01185 -0.0930361 0
M  V30 51045 C 4784.78 3.432 -0.491386 0
M  V30 51046 C 4783.84 3.98323 -1.60117 0
M  V30 51047 C 4783.07 5.20812 -1.16579 0
M  V30 51048 O 4783.29 5.70392 -0.0297243 0
M  V30 51049 O 4782.23 5.68794 -1.96869 0
M  V30 51050 H 4786.05 2.38195 -1.88406 0
M  V30 51051 H 4783.64 1.12986 -0.977473 0
M  V30 51052 H 4785.52 4.20686 -0.245163 0
M  V30 51053 H 4784.2 3.21019 0.415738 0
M  V30 51054 H 4783.1 3.22167 -1.90156 0
M  V30 51055 H 4784.44 4.2487 -2.48488 0
M  V30 51056 N 4786.09 0.998639 1.21922 0
M  V30 51057 C 4787.32 0.696355 1.94829 0
M  V30 51058 C 4787.73 -0.739971 1.73695 0
M  V30 51059 O 4787.09 -1.49996 1.03959 0
M  V30 51060 C 4787.14 0.999955 3.47395 0
M  V30 51061 O 4786.86 2.37985 3.67825 0
M  V30 51062 C 4788.36 0.716179 4.37477 0
M  V30 51063 H 4785.58 0.257133 0.619777 0
M  V30 51064 H 4788.12 1.33496 1.54916 0
M  V30 51065 H 4786.28 0.407053 3.85256 0
M  V30 51066 H 4786.69 2.48354 4.61975 0
M  V30 51067 H 4788.17 0.978833 5.43252 0
M  V30 51068 H 4788.64 -0.349814 4.37805 0
M  V30 51069 H 4789.25 1.2904 4.05252 0
M  V30 51070 N 4787.57 -1.37365 0.772562 0
M  V30 51071 C 4788.53 -2.28601 0.165622 0
M  V30 51072 C 4789.53 -1.48064 -0.627186 0
M  V30 51073 O 4790.72 -1.6827 -0.450655 0
M  V30 51074 C 4787.85 -3.32025 -0.772781 0
M  V30 51075 H 4789.04 -2.83784 0.969886 0
M  V30 51076 H 4786.6 -1.46645 0.540826 0
M  V30 51077 H 4787.33 -2.81968 -1.60202 0
M  V30 51078 H 4787.12 -3.91556 -0.206448 0
M  V30 51079 H 4788.61 -4.00201 -1.19284 0
M  V30 51080 N 4789.04 -0.523168 -1.48663 0
M  V30 51081 C 4790.28 0.0114869 -2.04397 0
M  V30 51082 C 4790.65 1.3222 -1.39219 0
M  V30 51083 O 4791.85 1.94247 -1.858 0
M  V30 51084 C 4790.12 0.137993 -3.57134 0
M  V30 51085 S 4791.68 0.623697 -4.34345 0
M  V30 51086 H 4788.5 -0.00880205 -0.710946 0
M  V30 51087 H 4791.1 -0.702181 -1.82455 0
M  V30 51088 H 4789.8 -0.820889 -4.02106 0
M  V30 51089 H 4789.33 0.876243 -3.83517 0
M  V30 51090 H 4791.35 1.88934 -4.58823 0
M  V30 51091 N 4790.52 1.55474 -0.257986 0
M  V30 51092 C 4791.45 2.24817 0.630833 0
M  V30 51093 C 4792.43 1.23229 1.17255 0
M  V30 51094 O 4793.62 1.51909 1.20985 0
M  V30 51095 C 4790.75 2.95615 1.82288 0
M  V30 51096 C 4789.7 4.03987 1.41345 0
M  V30 51097 C 4789.03 4.62269 2.68722 0
M  V30 51098 C 4790.33 5.19111 0.576298 0
M  V30 51099 H 4792.02 2.99354 0.0525825 0
M  V30 51100 H 4789.57 1.4398 0.0238504 0
M  V30 51101 H 4791.52 3.4283 2.45041 0
M  V30 51102 H 4790.25 2.18585 2.42669 0
M  V30 51103 H 4788.9 3.57558 0.809199 0
M  V30 51104 H 4788.55 3.81927 3.27324 0
M  V30 51105 H 4788.25 5.35432 2.42046 0
M  V30 51106 H 4789.78 5.12224 3.32354 0
M  V30 51107 H 4791.19 5.62483 1.10841 0
M  V30 51108 H 4789.59 5.98731 0.40514 0
M  V30 51109 H 4790.66 4.83172 -0.408946 0
M  V30 51110 N 4792 -0.0149831 1.57593 0
M  V30 51111 C 4793.25 -0.701546 1.89533 0
M  V30 51112 C 4793.57 -1.75136 0.857458 0
M  V30 51113 O 4792.84 -1.95607 -0.107125 0
M  V30 51114 H 4791.42 -0.262105 0.699507 0
M  V30 51115 H 4794.08 0.022399 1.94887 0
M  V30 51116 H 4793.18 -1.18226 2.88841 0
M  V30 51117 N 4793.48 -1.54955 -0.2875 0
M  V30 51118 C 4794.43 -1.86839 -1.35499 0
M  V30 51119 C 4795.4 -0.718505 -1.49756 0
M  V30 51120 O 4796.58 -0.968416 -1.64397 0
M  V30 51121 C 4793.72 -2.13312 -2.71278 0
M  V30 51122 C 4792.83 -3.40892 -2.65361 0
M  V30 51123 C 4791.97 -3.57139 -3.93224 0
M  V30 51124 C 4791.01 -4.78463 -3.81759 0
M  V30 51125 N 4790.14 -4.91444 -5.01425 0
M  V30 51126 H 4794.98 -2.77893 -1.07609 0
M  V30 51127 H 4792.52 -1.37595 -0.520192 0
M  V30 51128 H 4794.48 -2.26659 -3.50259 0
M  V30 51129 H 4793.11 -1.2551 -2.97401 0
M  V30 51130 H 4792.16 -3.36095 -1.7817 0
M  V30 51131 H 4793.47 -4.30002 -2.52784 0
M  V30 51132 H 4792.63 -3.70224 -4.80644 0
M  V30 51133 H 4791.37 -2.66187 -4.08651 0
M  V30 51134 H 4790.37 -4.65397 -2.92722 0
M  V30 51135 H 4791.6 -5.70835 -3.67864 0
M  V30 51136 H 4789.54 -4.03419 -5.1729 0
M  V30 51137 H 4789.46 -5.74576 -4.91323 0
M  V30 51138 H 4790.73 -5.08899 -5.90459 0
M  V30 51139 N 4794.96 0.551339 -1.47641 0
M  V30 51140 C 4796.18 1.33832 -1.58442 0
M  V30 51141 C 4796.61 1.86599 -0.237129 0
M  V30 51142 O 4795.96 1.63283 0.787937 0
M  V30 51143 C 4796.01 2.48005 -2.61774 0
M  V30 51144 O 4795.12 3.50412 -2.17452 0
M  V30 51145 H 4794.46 0.39728 -0.532038 0
M  V30 51146 H 4796.99 0.665691 -1.93468 0
M  V30 51147 H 4797 2.94493 -2.82379 0
M  V30 51148 H 4795.67 2.08956 -3.59597 0
M  V30 51149 H 4794.25 3.10189 -2.06972 0
M  V30 51150 N 4796.43 1.35872 0.79854 0
M  V30 51151 C 4797.66 1.32535 1.58487 0
M  V30 51152 C 4798.07 -0.0974741 1.88949 0
M  V30 51153 O 4797.42 -1.06219 1.49878 0
M  V30 51154 C 4797.48 2.07257 2.93742 0
M  V30 51155 C 4797.14 3.56401 2.86055 0
M  V30 51156 C 4798.14 4.50833 2.58932 0
M  V30 51157 C 4795.82 3.99161 3.04919 0
M  V30 51158 C 4797.82 5.86002 2.5076 0
M  V30 51159 C 4795.5 5.34423 2.9637 0
M  V30 51160 C 4796.5 6.27656 2.69327 0
M  V30 51161 O 4796.19 7.60435 2.60755 0
M  V30 51162 H 4795.92 0.456546 0.49854 0
M  V30 51163 H 4798.48 1.79428 0.999736 0
M  V30 51164 H 4796.71 1.55014 3.54271 0
M  V30 51165 H 4798.4 1.96895 3.54947 0
M  V30 51166 H 4799.16 4.19113 2.44069 0
M  V30 51167 H 4795.04 3.26972 3.24977 0
M  V30 51168 H 4798.58 6.58743 2.29572 0
M  V30 51169 H 4794.48 5.65754 3.10793 0
M  V30 51170 H 4795.25 7.70453 2.76304 0
M  V30 51171 N 4797.91 -1.02164 1.20001 0
M  V30 51172 C 4798.88 -2.08761 0.946113 0
M  V30 51173 C 4799.88 -1.60619 -0.0763281 0
M  V30 51174 O 4801.07 -1.73471 0.159196 0
M  V30 51175 C 4798.2 -3.38261 0.423374 0
M  V30 51176 H 4799.39 -2.32719 1.89161 0
M  V30 51177 H 4796.94 -1.18886 1.01468 0
M  V30 51178 H 4797.68 -3.19976 -0.527825 0
M  V30 51179 H 4797.46 -3.74528 1.16066 0
M  V30 51180 H 4798.95 -4.16758 0.265058 0
M  V30 51181 N 4799.39 -1.00509 -1.21391 0
M  V30 51182 C 4800.32 -0.523798 -2.23134 0
M  V30 51183 C 4801.34 0.387659 -1.58117 0
M  V30 51184 O 4802.52 0.187843 -1.77509 0
M  V30 51185 C 4799.62 0.258767 -3.37911 0
M  V30 51186 C 4798.8 -0.651786 -4.32516 0
M  V30 51187 C 4797.86 0.0811855 -5.26137 0
M  V30 51188 O 4796.88 -0.537495 -5.66657 0
M  V30 51189 N 4798.08 1.35972 -5.64351 0
M  V30 51190 H 4800.85 -1.39874 -2.65057 0
M  V30 51191 H 4798.41 -0.881244 -1.35815 0
M  V30 51192 H 4800.4 0.758069 -3.97537 0
M  V30 51193 H 4798.97 1.0349 -2.94972 0
M  V30 51194 H 4798.19 -1.33158 -3.71029 0
M  V30 51195 H 4799.48 -1.27146 -4.92657 0
M  V30 51196 H 4798.88 1.88349 -5.33424 0
M  V30 51197 H 4797.44 1.80397 -6.26339 0
M  V30 51198 N 4800.87 1.36954 -0.779835 0
M  V30 51199 C 4801.8 2.27896 -0.117761 0
M  V30 51200 C 4802.78 1.46738 0.700472 0
M  V30 51201 O 4803.96 1.76057 0.673506 0
M  V30 51202 C 4801.09 3.28139 0.839181 0
M  V30 51203 C 4800.14 4.26373 0.10394 0
M  V30 51204 S 4800.97 5.21565 -1.21366 0
M  V30 51205 C 4802.13 6.25358 -0.260469 0
M  V30 51206 H 4802.36 2.83701 -0.888877 0
M  V30 51207 H 4799.89 1.4335 -0.5736 0
M  V30 51208 H 4801.85 3.86398 1.38587 0
M  V30 51209 H 4800.51 2.71266 1.58347 0
M  V30 51210 H 4799.7 4.97124 0.829686 0
M  V30 51211 H 4799.31 3.72145 -0.371989 0
M  V30 51212 H 4801.6 6.75147 0.564197 0
M  V30 51213 H 4802.54 7.01881 -0.936382 0
M  V30 51214 H 4802.95 5.64346 0.131928 0
M  V30 51215 N 4802.35 0.531045 1.48384 0
M  V30 51216 C 4803.59 0.00545803 2.03399 0
M  V30 51217 C 4803.95 -1.31894 1.40078 0
M  V30 51218 O 4803.24 -1.83899 0.537741 0
M  V30 51219 C 4803.43 -0.172616 3.56983 0
M  V30 51220 C 4803.26 1.13297 4.35194 0
M  V30 51221 C 4802.03 1.69313 4.7609 0
M  V30 51222 C 4804.23 2.04384 4.71945 0
M  V30 51223 N 4802.21 2.94149 5.38841 0
M  V30 51224 C 4803.58 3.13796 5.34726 0
M  V30 51225 C 4805.64 2.04697 4.53876 0
M  V30 51226 C 4804.34 4.23588 5.81348 0
M  V30 51227 C 4806.37 3.13484 5.0148 0
M  V30 51228 C 4805.73 4.21615 5.64287 0
M  V30 51229 H 4801.83 0.0435219 0.780788 0
M  V30 51230 H 4804.41 0.712559 1.81192 0
M  V30 51231 H 4802.58 -0.848804 3.79012 0
M  V30 51232 H 4804.32 -0.697906 3.98637 0
M  V30 51233 H 4801.07 1.23438 4.57231 0
M  V30 51234 H 4801.5 3.57709 5.74781 0
M  V30 51235 H 4806.14 1.22392 4.04697 0
M  V30 51236 H 4803.86 5.06671 6.29532 0
M  V30 51237 H 4807.44 3.14782 4.89289 0
M  V30 51238 H 4806.32 5.04405 6.00454 0
M  V30 51239 N 4803.82 -1.55335 0.266227 0
M  V30 51240 C 4805.05 -2.04259 -0.359589 0
M  V30 51241 C 4805.47 -1.14364 -1.4934 0
M  V30 51242 O 4804.83 -0.140432 -1.80755 0
M  V30 51243 C 4804.88 -3.51 -0.826511 0
M  V30 51244 O 4803.98 -3.64211 -1.93453 0
M  V30 51245 H 4803.33 -0.65967 -0.0757038 0
M  V30 51246 H 4805.86 -2.00693 0.397931 0
M  V30 51247 H 4805.87 -3.92194 -1.12463 0
M  V30 51248 H 4804.54 -4.159 0.00307653 0
M  V30 51249 H 4803.12 -3.34919 -1.63963 0
M  V30 51250 N 4805.3 0.0066254 -1.57599 0
M  V30 51251 C 4806.23 0.999222 -2.1104 0
M  V30 51252 C 4807.21 1.36275 -1.018 0
M  V30 51253 O 4808.4 1.44766 -1.29447 0
M  V30 51254 C 4805.53 2.29318 -2.60826 0
M  V30 51255 C 4804.48 2.07146 -3.74532 0
M  V30 51256 C 4803.81 3.42498 -4.10608 0
M  V30 51257 C 4805.11 1.43941 -5.02074 0
M  V30 51258 H 4806.8 0.554279 -2.94225 0
M  V30 51259 H 4804.35 0.265172 -1.41537 0
M  V30 51260 H 4806.3 2.99107 -2.96839 0
M  V30 51261 H 4805.03 2.75914 -1.74754 0
M  V30 51262 H 4803.69 1.39785 -3.38904 0
M  V30 51263 H 4803.33 3.86784 -3.2157 0
M  V30 51264 H 4803.03 3.2848 -4.87211 0
M  V30 51265 H 4804.56 4.13612 -4.49174 0
M  V30 51266 H 4805.97 2.03677 -5.359 0
M  V30 51267 H 4804.37 1.40432 -5.83437 0
M  V30 51268 H 4805.44 0.407823 -4.83182 0
M  V30 51269 N 4806.78 1.55106 0.279278 0
M  V30 51270 C 4807.71 1.82471 1.37038 0
M  V30 51271 C 4808.69 0.677313 1.47822 0
M  V30 51272 O 4809.88 0.919636 1.64545 0
M  V30 51273 C 4807 1.98076 2.74743 0
M  V30 51274 C 4806.05 3.20604 2.81275 0
M  V30 51275 S 4806.88 4.78125 2.41158 0
M  V30 51276 C 4808.04 4.96694 3.8085 0
M  V30 51277 H 4808.27 2.74732 1.1362 0
M  V30 51278 H 4805.8 1.46796 0.478573 0
M  V30 51279 H 4807.76 2.07751 3.54048 0
M  V30 51280 H 4806.42 1.06715 2.95416 0
M  V30 51281 H 4805.62 3.2839 3.8233 0
M  V30 51282 H 4805.22 3.09487 2.09986 0
M  V30 51283 H 4807.51 4.8205 4.76061 0
M  V30 51284 H 4808.45 5.98754 3.78019 0
M  V30 51285 H 4808.86 4.24711 3.71861 0
M  V30 51286 N 4808.26 -0.543502 1.47932 0
M  V30 51287 C 4809.49 -1.32318 1.58668 0
M  V30 51288 C 4809.9 -1.87659 0.240962 0
M  V30 51289 O 4809.24 -1.66414 -0.777952 0
M  V30 51290 C 4809.3 -2.52084 2.56308 0
M  V30 51291 C 4808.97 -2.1793 4.01691 0
M  V30 51292 C 4809.96 -1.74405 4.89774 0
M  V30 51293 C 4807.65 -2.28868 4.47129 0
M  V30 51294 C 4809.64 -1.42265 6.21321 0
M  V30 51295 C 4807.33 -1.9634 5.787 0
M  V30 51296 C 4808.33 -1.53108 6.65618 0
M  V30 51297 O 4808.02 -1.21001 7.94741 0
M  V30 51298 H 4807.75 -0.409155 0.538115 0
M  V30 51299 H 4810.3 -0.663818 1.94377 0
M  V30 51300 H 4808.53 -3.20957 2.15692 0
M  V30 51301 H 4810.22 -3.14156 2.57024 0
M  V30 51302 H 4810.99 -1.65436 4.55912 0
M  V30 51303 H 4806.87 -2.61475 3.79673 0
M  V30 51304 H 4810.41 -1.08448 6.89119 0
M  V30 51305 H 4806.31 -2.04946 6.12101 0
M  V30 51306 H 4807.07 -1.34514 8.07371 0
M  V30 51307 N 4809.74 -1.36293 -0.791323 0
M  V30 51308 C 4810.98 -1.30417 -1.54912 0
M  V30 51309 C 4811.31 0.117093 -1.94147 0
M  V30 51310 O 4810.57 1.08593 -1.62807 0
M  V30 51311 C 4810.87 -2.17078 -2.83922 0
M  V30 51312 C 4810.53 -3.65654 -2.63833 0
M  V30 51313 C 4809.19 -4.06149 -2.58063 0
M  V30 51314 C 4811.55 -4.59863 -2.45306 0
M  V30 51315 C 4808.87 -5.38998 -2.31729 0
M  V30 51316 C 4811.23 -5.92927 -2.20499 0
M  V30 51317 C 4809.89 -6.32549 -2.13161 0
M  V30 51318 H 4809.16 -0.47723 -0.566862 0
M  V30 51319 H 4811.81 -1.68329 -0.913113 0
M  V30 51320 H 4810.11 -1.72097 -3.5198 0
M  V30 51321 H 4811.81 -2.09858 -3.41703 0
M  V30 51322 H 4808.4 -3.33528 -2.69179 0
M  V30 51323 H 4812.58 -4.29452 -2.48767 0
M  V30 51324 H 4807.84 -5.6868 -2.24528 0
M  V30 51325 H 4812.01 -6.65495 -2.05158 0
M  V30 51326 H 4809.64 -7.35419 -1.92518 0
M  V30 51327 N 4811.22 1.01526 -1.20541 0
M  V30 51328 C 4812.17 2.08479 -0.923064 0
M  V30 51329 C 4813.15 1.60469 0.117645 0
M  V30 51330 O 4814.34 1.76772 -0.0899086 0
M  V30 51331 C 4811.47 3.3995 -0.478432 0
M  V30 51332 C 4810.56 3.94657 -1.55264 0
M  V30 51333 N 4810.95 4.22856 -2.77536 0
M  V30 51334 C 4809.25 4.2282 -1.41912 0
M  V30 51335 C 4809.95 4.66989 -3.46837 0
M  V30 51336 N 4808.92 4.69347 -2.74253 0
M  V30 51337 H 4812.72 2.28192 -1.85217 0
M  V30 51338 H 4810.24 1.19508 -1.09961 0
M  V30 51339 H 4812.24 4.16104 -0.257554 0
M  V30 51340 H 4810.9 3.2165 0.444035 0
M  V30 51341 H 4811.91 4.11721 -3.14175 0
M  V30 51342 H 4808.58 4.13712 -0.56116 0
M  V30 51343 H 4809.97 4.97616 -4.51473 0
M  V30 51344 N 4812.69 1.01151 1.20856 0
M  V30 51345 C 4814.11 0.725472 1.42159 0
M  V30 51346 C 4814.31 -0.696853 1.89067 0
M  V30 51347 O 4813.37 -1.46532 2.05632 0
M  V30 51348 C 4814.68 1.74686 2.44755 0
M  V30 51349 C 4816.23 1.76442 2.58529 0
M  V30 51350 C 4816.7 2.77494 3.64364 0
M  V30 51351 N 4818.19 2.76202 3.71842 0
M  V30 51352 C 4818.93 3.51051 4.53377 0
M  V30 51353 N 4818.42 4.3556 5.38757 0
M  V30 51354 N 4820.22 3.39671 4.47861 0
M  V30 51355 H 4812.37 1.92983 0.887214 0
M  V30 51356 H 4814.63 0.833343 0.451933 0
M  V30 51357 H 4814.34 2.76558 2.17275 0
M  V30 51358 H 4814.21 1.55484 3.43663 0
M  V30 51359 H 4816.6 0.75258 2.85342 0
M  V30 51360 H 4816.68 1.99717 1.59833 0
M  V30 51361 H 4816.32 3.78839 3.38295 0
M  V30 51362 H 4816.25 2.51482 4.62671 0
M  V30 51363 H 4818.74 2.14896 3.10851 0
M  V30 51364 H 4819.06 4.89453 5.98043 0
M  V30 51365 H 4817.4 4.3964 5.38277 0
M  V30 51366 H 4820.59 2.73076 3.80193 0
M  V30 51367 H 4820.77 3.98258 5.1117 0
M  V30 51368 N 4814.17 -1.36538 0.787088 0
M  V30 51369 C 4815.59 -1.52569 0.468494 0
M  V30 51370 C 4815.79 -1.74153 -1.01355 0
M  V30 51371 O 4814.84 -1.7717 -1.79909 0
M  V30 51372 C 4816.16 -2.71294 1.29691 0
M  V30 51373 C 4817.7 -2.85164 1.29037 0
M  V30 51374 C 4818.18 -4.06891 2.10247 0
M  V30 51375 N 4819.67 -4.14033 2.07681 0
M  V30 51376 C 4820.41 -5.07291 2.67289 0
M  V30 51377 N 4819.9 -6.06009 3.35746 0
M  V30 51378 N 4821.69 -4.99889 2.57035 0
M  V30 51379 H 4813.85 -1.20782 1.74716 0
M  V30 51380 H 4816.11 -0.589338 0.742553 0
M  V30 51381 H 4815.81 -2.6186 2.34782 0
M  V30 51382 H 4815.69 -3.65387 0.936607 0
M  V30 51383 H 4818.08 -2.94061 0.247388 0
M  V30 51384 H 4818.16 -1.91986 1.69042 0
M  V30 51385 H 4817.8 -3.98755 3.14574 0
M  V30 51386 H 4817.73 -4.99212 1.67614 0
M  V30 51387 H 4820.22 -3.43351 1.57855 0
M  V30 51388 H 4820.53 -6.73727 3.78565 0
M  V30 51389 H 4818.88 -6.06242 3.39847 0
M  V30 51390 H 4822.07 -4.21717 2.03156 0
M  V30 51391 H 4822.24 -5.72382 3.03782 0
M  V30 51392 N 4815.65 -0.538906 -1.481 0
M  V30 51393 C 4816.93 0.0567421 -1.95518 0
M  V30 51394 C 4817.31 1.50403 -1.48129 0
M  V30 51395 O 4816.65 2.1713 -0.711803 0
M  V30 51396 C 4816.86 -0.0697488 -3.4893 0
M  V30 51397 C 4818.21 0.0849709 -4.24515 0
M  V30 51398 O 4819.24 0.00360948 -3.562 0
M  V30 51399 O 4818.1 0.256833 -5.45896 0
M  V30 51400 H 4815.19 0.0743405 -0.823652 0
M  V30 51401 H 4817.74 -0.604136 -1.58582 0
M  V30 51402 H 4816.51 -1.07757 -3.7617 0
M  V30 51403 H 4816.13 0.629576 -3.92584 0
M  V30 51404 N 4817.13 1.55192 -0.274461 0
M  V30 51405 C 4818.06 2.25474 0.606953 0
M  V30 51406 C 4819.04 1.24465 1.15941 0
M  V30 51407 O 4820.22 1.53183 1.19367 0
M  V30 51408 C 4817.35 2.97532 1.79142 0
M  V30 51409 C 4816.31 4.05464 1.37052 0
M  V30 51410 C 4815.63 4.65093 2.63804 0
M  V30 51411 C 4816.93 5.19693 0.521206 0
M  V30 51412 H 4818.63 2.99393 0.0208291 0
M  V30 51413 H 4816.17 1.43997 0.00857803 0
M  V30 51414 H 4818.13 3.4541 2.41391 0
M  V30 51415 H 4816.85 2.21147 2.40337 0
M  V30 51416 H 4815.51 3.58396 0.771229 0
M  V30 51417 H 4815.16 3.85377 3.23255 0
M  V30 51418 H 4814.86 5.37969 2.36353 0
M  V30 51419 H 4816.38 5.1572 3.26903 0
M  V30 51420 H 4817.8 5.63627 1.04869 0
M  V30 51421 H 4816.19 5.99127 0.341614 0
M  V30 51422 H 4817.26 4.82712 -0.46017 0
M  V30 51423 N 4818.61 0.00173253 1.576 0
M  V30 51424 C 4820.02 -0.354367 1.55616 0
M  V30 51425 C 4820.22 -1.74675 1.00453 0
M  V30 51426 O 4819.28 -2.44278 0.639108 0
M  V30 51427 C 4820.59 -0.228014 2.99834 0
M  V30 51428 C 4822.14 -0.302825 3.11532 0
M  V30 51429 C 4822.61 -0.205576 4.57538 0
M  V30 51430 N 4824.1 -0.263422 4.6245 0
M  V30 51431 C 4824.84 -0.21154 5.7301 0
M  V30 51432 N 4824.34 -0.110155 6.92712 0
M  V30 51433 N 4826.13 -0.263532 5.61482 0
M  V30 51434 H 4818.28 0.912565 1.91797 0
M  V30 51435 H 4820.54 0.349959 0.881041 0
M  V30 51436 H 4820.25 0.730055 3.44039 0
M  V30 51437 H 4820.12 -1.00938 3.63444 0
M  V30 51438 H 4822.51 -1.25134 2.67256 0
M  V30 51439 H 4822.59 0.508445 2.50696 0
M  V30 51440 H 4822.23 0.739401 5.02489 0
M  V30 51441 H 4822.16 -1.03536 5.16322 0
M  V30 51442 H 4824.66 -0.343041 3.7634 0
M  V30 51443 H 4824.97 -0.0765112 7.72762 0
M  V30 51444 H 4823.31 -0.0757582 6.94959 0
M  V30 51445 H 4826.5 -0.340946 4.66857 0
M  V30 51446 H 4826.68 -0.219634 6.47628 0
M  V30 51447 N 4820.08 -1.55252 -0.271048 0
M  V30 51448 C 4821.01 -1.91275 -1.33926 0
M  V30 51449 C 4822 -0.774833 -1.51428 0
M  V30 51450 O 4823.18 -1.03313 -1.64439 0
M  V30 51451 C 4820.31 -2.18637 -2.69843 0
M  V30 51452 C 4819.26 -3.34451 -2.6707 0
M  V30 51453 C 4818.59 -3.47298 -4.06557 0
M  V30 51454 C 4819.89 -4.70792 -2.26168 0
M  V30 51455 H 4821.58 -2.80748 -1.04025 0
M  V30 51456 H 4819.13 -1.35079 -0.498969 0
M  V30 51457 H 4821.08 -2.42425 -3.44686 0
M  V30 51458 H 4819.81 -1.25965 -3.01331 0
M  V30 51459 H 4818.47 -3.10634 -1.94685 0
M  V30 51460 H 4818.11 -2.52089 -4.3527 0
M  V30 51461 H 4817.81 -4.25166 -4.05595 0
M  V30 51462 H 4819.34 -3.7338 -4.83135 0
M  V30 51463 H 4820.75 -4.94112 -2.90734 0
M  V30 51464 H 4819.15 -5.5159 -2.36365 0
M  V30 51465 H 4820.22 -4.69483 -1.21302 0
M  V30 51466 N 4821.56 0.535649 -1.48218 0
M  V30 51467 C 4822.53 1.62294 -1.61843 0
M  V30 51468 C 4823.53 1.53086 -0.492078 0
M  V30 51469 O 4824.72 1.56857 -0.757723 0
M  V30 51470 C 4821.85 3.01902 -1.58329 0
M  V30 51471 H 4823.04 1.51555 -2.58788 0
M  V30 51472 H 4820.59 0.757269 -1.3673 0
M  V30 51473 H 4821.33 3.18153 -0.628411 0
M  V30 51474 H 4821.11 3.09994 -2.40096 0
M  V30 51475 H 4822.6 3.80963 -1.71046 0
M  V30 51476 N 4823.04 1.36711 0.784084 0
M  V30 51477 C 4824 1.31313 1.87855 0
M  V30 51478 C 4825 0.21971 1.59292 0
M  V30 51479 O 4826.19 0.474819 1.67604 0
M  V30 51480 C 4823.33 1.03691 3.24748 0
M  V30 51481 H 4824.52 2.28654 1.94055 0
M  V30 51482 H 4822.07 1.21561 0.982477 0
M  V30 51483 H 4822.81 0.0683075 3.24228 0
M  V30 51484 H 4822.59 1.82823 3.46869 0
M  V30 51485 H 4824.08 1.02533 4.04817 0
M  V30 51486 N 4824.52 -1.00885 1.21078 0
M  V30 51487 C 4825.47 -2.11704 0.96355 0
M  V30 51488 C 4826.46 -1.69172 -0.0878437 0
M  V30 51489 O 4827.67 -1.79889 0.0632047 0
M  V30 51490 H 4824.04 -0.692015 0.294311 0
M  V30 51491 H 4826.01 -2.29736 1.9043 0
M  V30 51492 C 4824.76 -3.43471 0.54063 0
M  V30 51493 H 4824.08 -3.7663 1.34127 0
M  V30 51494 H 4825.52 -4.22043 0.406926 0
M  V30 51495 C 4823.98 -3.28492 -0.747964 0
M  V30 51496 O 4824.51 -3.5889 -1.80447 0
M  V30 51497 N 4822.72 -2.81718 -0.712982 0
M  V30 51498 H 4822.27 -2.5718 0.147064 0
M  V30 51499 H 4822.22 -2.72077 -1.57548 0
M  V30 51500 N 4826 -1.01791 -1.20318 0
M  V30 51501 C 4826.96 -0.59405 -2.21368 0
M  V30 51502 C 4827.96 0.336497 -1.5724 0
M  V30 51503 O 4829.15 0.125008 -1.73751 0
M  V30 51504 C 4826.28 0.132313 -3.40643 0
M  V30 51505 H 4827.47 -1.488 -2.60381 0
M  V30 51506 H 4825.03 -0.80785 -1.33804 0
M  V30 51507 H 4825.76 1.04112 -3.07134 0
M  V30 51508 H 4825.55 -0.536187 -3.88417 0
M  V30 51509 H 4827.04 0.416168 -4.15521 0
M  V30 51510 N 4827.47 1.36119 -0.794317 0
M  V30 51511 C 4828.72 1.9836 -0.365534 0
M  V30 51512 C 4829.04 1.63744 1.06992 0
M  V30 51513 O 4830.24 2.19257 1.60121 0
M  V30 51514 C 4828.7 3.54819 -0.602621 0
M  V30 51515 C 4828.31 3.98355 -2.04981 0
M  V30 51516 C 4830.05 4.23829 -0.238586 0
M  V30 51517 C 4827.96 5.47611 -2.23329 0
M  V30 51518 H 4826.89 0.742189 -0.132936 0
M  V30 51519 H 4829.54 1.55351 -0.976644 0
M  V30 51520 H 4827.92 3.95923 0.0782698 0
M  V30 51521 H 4829.09 3.68437 -2.7675 0
M  V30 51522 H 4827.41 3.42197 -2.37255 0
M  V30 51523 H 4830.01 5.33528 -0.353892 0
M  V30 51524 H 4830.35 4.08267 0.813863 0
M  V30 51525 H 4830.88 3.88105 -0.872906 0
M  V30 51526 H 4827.62 5.68127 -3.26975 0
M  V30 51527 H 4827.14 5.79139 -1.5607 0
M  V30 51528 H 4828.82 6.13904 -2.04282 0
M  V30 51529 N 4828.95 0.546753 1.47812 0
M  V30 51530 C 4830.19 0.0210323 2.04389 0
M  V30 51531 C 4830.56 -1.29988 1.41305 0
M  V30 51532 O 4831.76 -1.91266 1.88867 0
M  V30 51533 C 4830.03 -0.0811588 3.57308 0
M  V30 51534 S 4831.59 -0.554517 4.35282 0
M  V30 51535 H 4828.41 0.0201115 0.710716 0
M  V30 51536 H 4831.01 0.731119 1.81314 0
M  V30 51537 H 4829.71 0.884757 4.0075 0
M  V30 51538 H 4829.24 -0.815117 3.84863 0
M  V30 51539 H 4831.26 -1.81611 4.61771 0
M  V30 51540 N 4830.43 -1.55044 0.282687 0
M  V30 51541 C 4831.66 -2.04629 -0.337905 0
M  V30 51542 C 4832.08 -1.15942 -1.48119 0
M  V30 51543 O 4831.44 -0.159596 -1.80596 0
M  V30 51544 C 4831.49 -3.51857 -0.789236 0
M  V30 51545 O 4830.59 -3.66243 -1.89579 0
M  V30 51546 H 4829.93 -0.660436 -0.0687029 0
M  V30 51547 H 4832.46 -2.0026 0.419195 0
M  V30 51548 H 4832.47 -3.93365 -1.08297 0
M  V30 51549 H 4831.15 -4.15873 0.0471881 0
M  V30 51550 H 4829.72 -3.36639 -1.60401 0
M  V30 51551 N 4831.91 -0.0100904 -1.57597 0
M  V30 51552 C 4832.87 0.962956 -2.0799 0
M  V30 51553 C 4833.87 1.26616 -0.991217 0
M  V30 51554 O 4835.06 1.20966 -1.25351 0
M  V30 51555 C 4832.19 2.28501 -2.52982 0
M  V30 51556 H 4833.39 0.526867 -2.95236 0
M  V30 51557 H 4830.94 0.237585 -1.54484 0
M  V30 51558 H 4831.67 2.76779 -1.69009 0
M  V30 51559 H 4831.46 2.07812 -3.32501 0
M  V30 51560 H 4832.95 2.98284 -2.92261 0
M  V30 51561 N 4833.39 1.55393 0.262811 0
M  V30 51562 C 4834.63 1.7674 0.994518 0
M  V30 51563 C 4834.97 0.572518 1.85569 0
M  V30 51564 O 4834.24 -0.429665 1.89695 0
M  V30 51565 C 4834.52 3.0783 1.86849 0
M  V30 51566 C 4834.38 4.37693 1.03657 0
M  V30 51567 C 4835.7 3.35031 2.85381 0
M  V30 51568 H 4832.81 0.643018 0.360135 0
M  V30 51569 H 4835.46 1.88127 0.26615 0
M  V30 51570 H 4833.61 2.98254 2.48951 0
M  V30 51571 H 4835.28 4.5924 0.435469 0
M  V30 51572 H 4833.52 4.32463 0.340361 0
M  V30 51573 H 4834.19 5.25765 1.68151 0
M  V30 51574 H 4836.67 3.44466 2.33414 0
M  V30 51575 H 4835.54 4.28001 3.43666 0
M  V30 51576 H 4835.81 2.55166 3.6103 0
M  V30 51577 N 4834.87 -0.527781 1.485 0
M  V30 51578 C 4836.28 -1.10969 1.50142 0
M  V30 51579 C 4836.63 -1.94299 0.272446 0
M  V30 51580 O 4835.75 -2.07321 -0.620228 0
M  V30 51581 C 4836.35 -2.01918 2.72056 0
M  V30 51582 C 4834.91 -2.55323 2.76563 0
M  V30 51583 C 4834.05 -1.32332 2.43687 0
M  V30 51584 H 4837 -0.312931 1.55584 0
M  V30 51585 H 4837.03 -2.86235 2.50699 0
M  V30 51586 H 4836.54 -1.41242 3.61486 0
M  V30 51587 H 4834.64 -3.19714 1.91347 0
M  V30 51588 H 4834.75 -2.94306 3.78049 0
M  V30 51589 H 4833.12 -1.63982 1.9489 0
M  V30 51590 H 4833.9 -0.734047 3.3536 0
M  V30 51591 N 4836.34 -1.37125 -0.776822 0
M  V30 51592 C 4837.57 -1.35405 -1.57099 0
M  V30 51593 C 4837.99 0.0594901 -1.88006 0
M  V30 51594 O 4837.35 1.03509 -1.48848 0
M  V30 51595 C 4837.4 -2.19482 -2.86112 0
M  V30 51596 O 4836.5 -1.59596 -3.80267 0
M  V30 51597 H 4835.84 -0.462885 -0.47606 0
M  V30 51598 H 4838.37 -1.8058 -0.961869 0
M  V30 51599 H 4838.38 -2.32514 -3.35263 0
M  V30 51600 H 4837.06 -3.22231 -2.62945 0
M  V30 51601 H 4835.64 -1.55576 -3.38896 0
M  V30 51602 N 4837.82 1.00242 -1.21611 0
M  V30 51603 C 4838.77 2.07488 -0.945124 0
M  V30 51604 C 4839.76 1.60585 0.100619 0
M  V30 51605 O 4840.95 1.76666 -0.108653 0
M  V30 51606 C 4838.08 3.39423 -0.514461 0
M  V30 51607 C 4837.16 3.92988 -1.59441 0
M  V30 51608 N 4837.55 4.19889 -2.82006 0
M  V30 51609 C 4835.85 4.21291 -1.46389 0
M  V30 51610 C 4836.55 4.63285 -3.5177 0
M  V30 51611 N 4835.53 4.66411 -2.79216 0
M  V30 51612 H 4839.33 2.26215 -1.87627 0
M  V30 51613 H 4836.84 1.18335 -1.11223 0
M  V30 51614 H 4838.84 4.15807 -0.301673 0
M  V30 51615 H 4837.5 3.22102 0.409895 0
M  V30 51616 H 4838.51 4.08366 -3.18524 0
M  V30 51617 H 4835.19 4.13093 -0.605008 0
M  V30 51618 H 4836.58 4.928 -4.56725 0
M  V30 51619 N 4839.3 1.02428 1.19776 0
M  V30 51620 C 4840.55 0.728847 1.89893 0
M  V30 51621 C 4840.9 -0.734186 1.77841 0
M  V30 51622 O 4840.19 -1.52729 1.15691 0
M  V30 51623 C 4840.39 1.10892 3.39761 0
M  V30 51624 C 4840.22 2.60735 3.66398 0
M  V30 51625 C 4838.99 3.27636 3.84685 0
M  V30 51626 C 4841.18 3.58937 3.68332 0
M  V30 51627 N 4839.17 4.66631 3.9891 0
M  V30 51628 C 4840.54 4.83528 3.88073 0
M  V30 51629 C 4842.59 3.52801 3.51335 0
M  V30 51630 C 4841.3 6.02724 3.92577 0
M  V30 51631 C 4843.32 4.71406 3.57114 0
M  V30 51632 C 4842.68 5.94809 3.77335 0
M  V30 51633 H 4838.78 0.318498 0.714201 0
M  V30 51634 H 4841.37 1.31065 1.43979 0
M  V30 51635 H 4839.54 0.555368 3.84409 0
M  V30 51636 H 4841.27 0.766222 3.9738 0
M  V30 51637 H 4838.02 2.78054 3.83384 0
M  V30 51638 H 4838.45 5.38819 4.09881 0
M  V30 51639 H 4843.09 2.58383 3.34661 0
M  V30 51640 H 4840.81 6.97514 4.08044 0
M  V30 51641 H 4844.39 4.68282 3.45259 0
M  V30 51642 H 4843.27 6.8505 3.81675 0
M  V30 51643 N 4840.78 -1.35696 0.801525 0
M  V30 51644 C 4842.02 -1.99206 0.380092 0
M  V30 51645 C 4842.36 -1.63449 -1.04872 0
M  V30 51646 O 4841.63 -0.895284 -1.7267 0
M  V30 51647 C 4841.91 -3.55753 0.557833 0
M  V30 51648 C 4841.77 -4.01325 2.03121 0
M  V30 51649 C 4843.09 -4.40096 -0.0196421 0
M  V30 51650 H 4840.21 -0.723662 0.139578 0
M  V30 51651 H 4842.85 -1.60924 1.01012 0
M  V30 51652 H 4841 -3.88494 0.0215107 0
M  V30 51653 H 4842.67 -3.79017 2.62953 0
M  V30 51654 H 4840.91 -3.5242 2.52948 0
M  V30 51655 H 4841.58 -5.10227 2.10648 0
M  V30 51656 H 4844.06 -4.13785 0.438324 0
M  V30 51657 H 4842.94 -5.48735 0.134669 0
M  V30 51658 H 4843.2 -4.27864 -1.11288 0
M  V30 51659 N 4842.26 -0.554584 -1.4752 0
M  V30 51660 C 4843.67 -0.120512 -1.86311 0
M  V30 51661 C 4844.02 1.30899 -1.4615 0
M  V30 51662 O 4843.14 1.98431 -0.863364 0
M  V30 51663 C 4843.74 -0.211927 -3.38137 0
M  V30 51664 C 4842.3 0.167092 -3.76029 0
M  V30 51665 C 4841.44 -0.560672 -2.71573 0
M  V30 51666 H 4844.39 -0.764457 -1.39075 0
M  V30 51667 H 4844.42 0.570143 -3.76204 0
M  V30 51668 H 4843.93 -1.25244 -3.67336 0
M  V30 51669 H 4842.03 1.20882 -3.52446 0
M  V30 51670 H 4842.14 -0.189641 -4.78725 0
M  V30 51671 H 4840.51 -0.00405789 -2.547 0
M  V30 51672 H 4841.29 -1.60229 -3.03614 0
M  V30 51673 N 4843.73 1.54892 -0.290906 0
M  V30 51674 C 4844.96 2.04344 0.324216 0
M  V30 51675 C 4845.38 1.16864 1.48285 0
M  V30 51676 O 4844.73 0.192082 1.81486 0
M  V30 51677 C 4844.78 3.52759 0.790136 0
M  V30 51678 O 4844.51 4.36912 -0.322367 0
M  V30 51679 C 4846.01 4.18166 1.47145 0
M  V30 51680 H 4843.23 0.667137 0.0718939 0
M  V30 51681 H 4845.77 1.9998 -0.4276 0
M  V30 51682 H 4843.93 3.57517 1.492 0
M  V30 51683 H 4844.34 5.24486 0.0385529 0
M  V30 51684 H 4845.81 5.23568 1.74872 0
M  V30 51685 H 4846.29 3.6729 2.40821 0
M  V30 51686 H 4846.9 4.17456 0.813031 0
M  V30 51687 N 4845.21 0.018448 1.57589 0
M  V30 51688 C 4846.44 -0.676565 1.96054 0
M  V30 51689 C 4846.86 -1.65477 0.894366 0
M  V30 51690 O 4846.22 -1.80713 -0.145785 0
M  V30 51691 C 4846.27 -1.3686 3.33619 0
M  V30 51692 O 4845.37 -2.48361 3.29228 0
M  V30 51693 H 4844.71 -0.178577 0.639536 0
M  V30 51694 H 4847.24 0.0771279 2.04455 0
M  V30 51695 H 4847.25 -1.72784 3.69608 0
M  V30 51696 H 4845.93 -0.651492 4.10766 0
M  V30 51697 H 4844.5 -2.14628 3.04941 0
M  V30 51698 N 4846.69 -1.5553 -0.254567 0
M  V30 51699 C 4848.11 -1.47783 -0.602701 0
M  V30 51700 C 4848.31 -0.707113 -1.88685 0
M  V30 51701 O 4847.36 -0.233377 -2.51419 0
M  V30 51702 C 4848.67 -2.92136 -0.712545 0
M  V30 51703 C 4850.22 -3.02461 -0.805381 0
M  V30 51704 C 4850.7 -4.48106 -0.946851 0
M  V30 51705 N 4852.19 -4.52012 -1.01191 0
M  V30 51706 C 4852.92 -5.61943 -1.14051 0
M  V30 51707 N 4852.42 -6.81701 -1.23512 0
M  V30 51708 N 4854.21 -5.49723 -1.17306 0
M  V30 51709 H 4846.36 -2.04083 0.588535 0
M  V30 51710 H 4848.63 -0.926222 0.202033 0
M  V30 51711 H 4848.33 -3.51332 0.160889 0
M  V30 51712 H 4848.21 -3.42192 -1.58695 0
M  V30 51713 H 4850.59 -2.4335 -1.66927 0
M  V30 51714 H 4850.67 -2.55627 0.0940165 0
M  V30 51715 H 4850.32 -5.07825 -0.0875465 0
M  V30 51716 H 4850.25 -4.92613 -1.86118 0
M  V30 51717 H 4852.74 -3.65753 -0.950448 0
M  V30 51718 H 4853.05 -7.61233 -1.3321 0
M  V30 51719 H 4851.4 -6.84477 -1.20483 0
M  V30 51720 H 4854.59 -4.55099 -1.09557 0
M  V30 51721 H 4854.76 -6.35436 -1.26983 0
M  V30 51722 N 4848.17 0.519898 -1.48778 0
M  V30 51723 C 4849.4 1.29966 -1.60986 0
M  V30 51724 C 4849.81 1.86802 -0.27395 0
M  V30 51725 O 4849.17 1.66907 0.738134 0
M  V30 51726 C 4849.22 2.44337 -2.66424 0
M  V30 51727 O 4848.94 1.89841 -3.94832 0
M  V30 51728 C 4850.44 3.36004 -2.89165 0
M  V30 51729 H 4847.66 0.394872 -0.54251 0
M  V30 51730 H 4850.2 0.626145 -1.94678 0
M  V30 51731 H 4848.36 3.07553 -2.35563 0
M  V30 51732 H 4848.77 2.64782 -4.52759 0
M  V30 51733 H 4850.25 4.1258 -3.66717 0
M  V30 51734 H 4850.72 3.91852 -1.98365 0
M  V30 51735 H 4851.33 2.78571 -3.21369 0
M  V30 51736 N 4849.65 1.37535 0.769539 0
M  V30 51737 C 4850.87 1.36064 1.55866 0
M  V30 51738 C 4851.29 -0.0534777 1.88724 0
M  V30 51739 O 4850.65 -1.01586 1.51613 0
M  V30 51740 C 4850.7 2.20117 2.86759 0
M  V30 51741 O 4850.42 3.56018 2.55309 0
M  V30 51742 C 4851.92 2.2665 3.80979 0
M  V30 51743 H 4849.14 0.465984 0.482805 0
M  V30 51744 H 4851.68 1.80904 0.953623 0
M  V30 51745 H 4849.84 1.7878 3.43681 0
M  V30 51746 H 4850.25 4.00102 3.39144 0
M  V30 51747 H 4851.73 2.89779 4.69821 0
M  V30 51748 H 4852.2 1.27555 4.20269 0
M  V30 51749 H 4852.81 2.68308 3.29986 0
M  V30 51750 N 4851.12 -0.995956 1.22141 0
M  V30 51751 C 4852.37 -1.73856 1.05573 0
M  V30 51752 C 4852.73 -1.88082 -0.405352 0
M  V30 51753 O 4852.02 -1.41067 -1.29656 0
M  V30 51754 C 4852.21 -3.14547 1.69691 0
M  V30 51755 C 4852.04 -3.14041 3.21882 0
M  V30 51756 C 4850.81 -3.20108 3.90972 0
M  V30 51757 C 4853.01 -2.98436 4.18856 0
M  V30 51758 N 4850.99 -3.09323 5.30276 0
M  V30 51759 C 4852.36 -2.95648 5.4497 0
M  V30 51760 C 4854.42 -2.82805 4.09787 0
M  V30 51761 C 4853.12 -2.78829 6.63059 0
M  V30 51762 C 4855.15 -2.67346 5.27523 0
M  V30 51763 C 4854.51 -2.65241 6.52554 0
M  V30 51764 H 4850.61 -0.645974 0.440729 0
M  V30 51765 H 4853.19 -1.18305 1.54635 0
M  V30 51766 H 4851.36 -3.68348 1.23183 0
M  V30 51767 H 4853.09 -3.77353 1.46243 0
M  V30 51768 H 4849.85 -3.27667 3.41952 0
M  V30 51769 H 4850.27 -3.07249 6.03264 0
M  V30 51770 H 4854.92 -2.83232 3.1391 0
M  V30 51771 H 4852.63 -2.77148 7.59088 0
M  V30 51772 H 4856.22 -2.56238 5.22335 0
M  V30 51773 H 4855.1 -2.53424 7.42123 0
M  V30 51774 N 4852.6 -1.03061 -1.19231 0
M  V30 51775 C 4853.83 -0.747638 -1.93456 0
M  V30 51776 C 4854.25 0.687587 -1.75082 0
M  V30 51777 O 4853.61 1.47495 -1.05427 0
M  V30 51778 C 4853.66 -1.10617 -3.43215 0
M  V30 51779 O 4852.76 -0.225815 -4.11781 0
M  V30 51780 H 4852.1 -0.276068 -0.603889 0
M  V30 51781 H 4854.63 -1.37775 -1.51258 0
M  V30 51782 H 4854.64 -1.0638 -3.93887 0
M  V30 51783 H 4853.32 -2.15177 -3.55909 0
M  V30 51784 H 4851.9 -0.326926 -3.71464 0
M  V30 51785 N 4854.08 1.35269 -0.80871 0
M  V30 51786 C 4855.33 1.97961 -0.386552 0
M  V30 51787 C 4855.64 1.6487 1.05249 0
M  V30 51788 O 4856.85 2.20943 1.57786 0
M  V30 51789 C 4855.3 3.5416 -0.64022 0
M  V30 51790 C 4854.91 3.96159 -2.09194 0
M  V30 51791 C 4856.66 4.23552 -0.283525 0
M  V30 51792 C 4854.56 5.45212 -2.29125 0
M  V30 51793 H 4853.49 0.740737 -0.1408 0
M  V30 51794 H 4856.14 1.54306 -0.993066 0
M  V30 51795 H 4854.53 3.95983 0.0362725 0
M  V30 51796 H 4855.7 3.65481 -2.80642 0
M  V30 51797 H 4854.02 3.39662 -2.40871 0
M  V30 51798 H 4856.61 5.33122 -0.41046 0
M  V30 51799 H 4856.96 4.09107 0.770515 0
M  V30 51800 H 4857.49 3.87157 -0.91402 0
M  V30 51801 H 4854.23 5.64627 -3.32982 0
M  V30 51802 H 4853.75 5.77451 -1.62204 0
M  V30 51803 H 4855.43 6.11703 -2.10782 0
M  V30 51804 N 4855.56 0.5624 1.47224 0
M  V30 51805 C 4856.51 -0.202887 2.27096 0
M  V30 51806 C 4857.49 -0.880564 1.34666 0
M  V30 51807 O 4858.68 -0.778013 1.58984 0
M  V30 51808 C 4855.81 -1.22895 3.20549 0
M  V30 51809 C 4854.9 -0.554419 4.2046 0
M  V30 51810 N 4855.29 0.378472 5.04382 0
M  V30 51811 C 4853.59 -0.8077 4.38625 0
M  V30 51812 C 4854.29 0.770785 5.76571 0
M  V30 51813 N 4853.27 0.124454 5.43458 0
M  V30 51814 H 4857.07 0.514298 2.89365 0
M  V30 51815 H 4854.58 0.38271 1.57826 0
M  V30 51816 H 4856.58 -1.7912 3.76459 0
M  V30 51817 H 4855.24 -1.94717 2.59837 0
M  V30 51818 H 4856.25 0.75292 5.12398 0
M  V30 51819 H 4852.93 -1.51404 3.8908 0
M  V30 51820 H 4854.32 1.53765 6.54069 0
M  V30 51821 N 4857.04 -1.54735 0.299116 0
M  V30 51822 C 4858 -2.22129 -0.564934 0
M  V30 51823 C 4859 -1.20673 -1.06276 0
M  V30 51824 O 4860.19 -1.4542 -0.959093 0
M  V30 51825 C 4857.32 -2.90617 -1.78198 0
M  V30 51826 H 4858.51 -2.99891 0.0238502 0
M  V30 51827 H 4856.07 -1.5622 0.0499337 0
M  V30 51828 H 4856.8 -2.16929 -2.41065 0
M  V30 51829 H 4856.59 -3.64989 -1.43268 0
M  V30 51830 H 4858.08 -3.42034 -2.39588 0
M  V30 51831 N 4858.51 -0.0268051 -1.57577 0
M  V30 51832 C 4859.74 0.666158 -1.96411 0
M  V30 51833 C 4860.16 1.65001 -0.903129 0
M  V30 51834 O 4859.52 1.80788 0.136199 0
M  V30 51835 C 4859.57 1.35089 -3.3434 0
M  V30 51836 O 4858.67 2.46611 -3.3054 0
M  V30 51837 H 4858.02 0.175183 -0.640474 0
M  V30 51838 H 4860.55 -0.0879695 -2.04411 0
M  V30 51839 H 4860.56 1.70821 -3.70519 0
M  V30 51840 H 4859.23 0.629699 -4.11105 0
M  V30 51841 H 4857.81 2.13008 -3.06075 0
M  V30 51842 N 4859.99 1.55663 0.246315 0
M  V30 51843 C 4860.94 1.86758 1.30788 0
M  V30 51844 C 4861.93 0.728496 1.43463 0
M  V30 51845 O 4863.12 0.990431 1.46695 0
M  V30 51846 C 4860.25 2.16628 2.66322 0
M  V30 51847 C 4859.33 3.36865 2.57649 0
M  V30 51848 N 4859.72 4.56118 2.18608 0
M  V30 51849 C 4858.02 3.39987 2.88661 0
M  V30 51850 C 4858.72 5.38255 2.20582 0
M  V30 51851 N 4857.7 4.77331 2.60107 0
M  V30 51852 H 4861.5 2.76489 0.996544 0
M  V30 51853 H 4859.02 1.55898 0.454939 0
M  V30 51854 H 4861.01 2.3707 3.42934 0
M  V30 51855 H 4859.67 1.28195 2.98322 0
M  V30 51856 H 4860.68 4.81732 1.90143 0
M  V30 51857 H 4857.36 2.61826 3.25197 0
M  V30 51858 H 4858.75 6.43664 1.92733 0
M  V30 51859 N 4861.47 -0.512001 1.49051 0
M  V30 51860 C 4862.38 -1.64133 1.67623 0
M  V30 51861 C 4863.4 -1.64784 0.558759 0
M  V30 51862 O 4864.57 -1.83407 0.832098 0
M  V30 51863 C 4861.64 -3.00542 1.72845 0
M  V30 51864 C 4860.7 -3.10604 2.9635 0
M  V30 51865 C 4859.93 -4.40506 3.01314 0
M  V30 51866 O 4860.15 -5.28663 2.14176 0
M  V30 51867 O 4859.09 -4.55311 3.93669 0
M  V30 51868 H 4862.91 -1.51397 2.63273 0
M  V30 51869 H 4860.5 -0.687085 1.32663 0
M  V30 51870 H 4862.38 -3.81635 1.78697 0
M  V30 51871 H 4861.06 -3.13563 0.803726 0
M  V30 51872 H 4859.96 -2.28739 2.96022 0
M  V30 51873 H 4861.3 -3.02506 3.88267 0
M  V30 51874 N 4862.95 -1.37941 -0.762235 0
M  V30 51875 C 4864.19 -1.34878 -1.52248 0
M  V30 51876 C 4864.55 0.0635296 -1.92295 0
M  V30 51877 O 4863.84 1.02428 -1.61923 0
M  V30 51878 C 4864.04 -2.23052 -2.79254 0
M  V30 51879 C 4863.87 -3.72715 -2.51622 0
M  V30 51880 C 4862.64 -4.4178 -2.45273 0
M  V30 51881 C 4864.83 -4.65353 -2.18978 0
M  V30 51882 N 4862.82 -5.76929 -2.09825 0
M  V30 51883 C 4864.19 -5.88949 -1.93749 0
M  V30 51884 C 4866.24 -4.53643 -2.05214 0
M  V30 51885 C 4864.94 -7.02147 -1.56145 0
M  V30 51886 C 4866.97 -5.66736 -1.69011 0
M  V30 51887 C 4866.33 -6.89388 -1.44649 0
M  V30 51888 H 4862.43 -0.548837 -0.557047 0
M  V30 51889 H 4865.02 -1.7325 -0.888398 0
M  V30 51890 H 4863.19 -1.86882 -3.40485 0
M  V30 51891 H 4864.92 -2.11178 -3.45233 0
M  V30 51892 H 4861.67 -3.94893 -2.61451 0
M  V30 51893 H 4862.1 -6.48377 -1.94771 0
M  V30 51894 H 4866.74 -3.59378 -2.22728 0
M  V30 51895 H 4864.46 -7.96338 -1.37371 0
M  V30 51896 H 4868.04 -5.5965 -1.59006 0
M  V30 51897 H 4866.92 -7.75415 -1.17051 0
M  V30 51898 N 4864.43 0.989464 -1.22668 0
M  V30 51899 C 4865.36 2.07802 -0.943058 0
M  V30 51900 C 4866.34 1.62191 0.115299 0
M  V30 51901 O 4867.52 1.88492 -0.0170228 0
M  V30 51902 C 4864.65 3.36098 -0.419016 0
M  V30 51903 C 4863.7 4.00638 -1.46258 0
M  V30 51904 S 4864.53 4.41049 -3.03704 0
M  V30 51905 C 4865.68 5.72511 -2.52947 0
M  V30 51906 H 4865.92 2.3154 -1.86485 0
M  V30 51907 H 4863.45 1.12442 -1.05812 0
M  V30 51908 H 4865.41 4.10315 -0.123258 0
M  V30 51909 H 4864.07 3.10384 0.481709 0
M  V30 51910 H 4863.26 4.93029 -1.04586 0
M  V30 51911 H 4862.86 3.32761 -1.70722 0
M  V30 51912 H 4865.16 6.4901 -1.94402 0
M  V30 51913 H 4866.1 6.19014 -3.43842 0
M  V30 51914 H 4866.51 5.30076 -1.94112 0
M  V30 51915 N 4865.91 1.03692 1.18683 0
M  V30 51916 C 4867.13 0.757986 1.92515 0
M  V30 51917 C 4867.55 -0.684337 1.75961 0
M  V30 51918 O 4866.91 -1.46613 1.08678 0
M  V30 51919 C 4866.96 1.10997 3.44038 0
M  V30 51920 O 4866.68 2.49566 3.60067 0
M  V30 51921 C 4868.18 0.854996 4.34977 0
M  V30 51922 H 4865.4 0.27672 0.611283 0
M  V30 51923 H 4867.94 1.38357 1.5059 0
M  V30 51924 H 4866.1 0.529414 3.83766 0
M  V30 51925 H 4866.51 2.62926 4.5384 0
M  V30 51926 H 4867.99 1.15117 5.39863 0
M  V30 51927 H 4868.46 -0.210353 4.38696 0
M  V30 51928 H 4869.07 1.41867 4.00941 0
M  V30 51929 N 4867.38 -1.34838 0.815872 0
M  V30 51930 C 4868.61 -2.02729 0.413365 0
M  V30 51931 C 4869.03 -1.61462 -0.978542 0
M  V30 51932 O 4868.38 -0.816642 -1.63209 0
M  V30 51933 C 4868.43 -3.58056 0.497802 0
M  V30 51934 O 4868.16 -3.97826 1.83484 0
M  V30 51935 C 4869.66 -4.4321 0.0892897 0
M  V30 51936 H 4866.88 -0.64995 0.166751 0
M  V30 51937 H 4869.42 -1.72263 1.10207 0
M  V30 51938 H 4867.58 -3.87137 -0.14275 0
M  V30 51939 H 4867.99 -4.92495 1.80413 0
M  V30 51940 H 4869.46 -5.51639 0.199468 0
M  V30 51941 H 4869.94 -4.28435 -0.96642 0
M  V30 51942 H 4870.55 -4.19444 0.703362 0
M  V30 51943 N 4868.86 -0.570199 -1.46923 0
M  V30 51944 C 4869.77 0.172978 -2.33961 0
M  V30 51945 C 4870.79 0.898772 -1.4899 0
M  V30 51946 O 4871.96 0.864761 -1.8189 0
M  V30 51947 C 4869.03 1.18166 -3.25941 0
M  V30 51948 C 4868.09 0.461891 -4.26808 0
M  V30 51949 C 4867.32 1.42252 -5.14393 0
M  V30 51950 O 4867.55 2.65824 -5.04672 0
M  V30 51951 O 4866.48 0.939918 -5.94516 0
M  V30 51952 H 4870.31 -0.541322 -2.98837 0
M  V30 51953 H 4867.89 -0.330699 -1.45694 0
M  V30 51954 H 4869.77 1.76359 -3.82721 0
M  V30 51955 H 4868.45 1.87765 -2.63678 0
M  V30 51956 H 4867.35 -0.16156 -3.73751 0
M  V30 51957 H 4868.69 -0.192892 -4.91822 0
M  V30 51958 N 4870.34 1.54575 -0.307318 0
M  V30 51959 C 4871.62 1.92378 0.353537 0
M  V30 51960 C 4872 1.23523 1.71188 0
M  V30 51961 O 4871.34 0.373181 2.25432 0
M  V30 51962 C 4871.55 3.4593 0.461917 0
M  V30 51963 C 4872.9 4.18281 0.729828 0
M  V30 51964 O 4873.93 3.51999 0.545481 0
M  V30 51965 O 4872.79 5.35634 1.08436 0
M  V30 51966 H 4869.88 0.802754 0.198784 0
M  V30 51967 H 4872.43 1.65927 -0.355841 0
M  V30 51968 H 4871.2 3.88185 -0.492728 0
M  V30 51969 H 4870.82 3.78436 1.21951 0
M  V30 51970 N 4871.82 0.0351614 1.57561 0
M  V30 51971 C 4872.75 -0.979601 2.06104 0
M  V30 51972 C 4873.73 -1.31375 0.958092 0
M  V30 51973 O 4874.91 -1.42938 1.22886 0
M  V30 51974 C 4872.04 -2.298 2.48816 0
M  V30 51975 C 4871.09 -2.11804 3.70191 0
M  V30 51976 S 4871.92 -1.41124 5.1657 0
M  V30 51977 C 4873.07 -2.74321 5.62582 0
M  V30 51978 H 4873.31 -0.566404 2.91855 0
M  V30 51979 H 4870.84 -0.17669 1.53386 0
M  V30 51980 H 4872.8 -3.0559 2.74089 0
M  V30 51981 H 4871.46 -2.68252 1.63401 0
M  V30 51982 H 4870.65 -3.09285 3.97944 0
M  V30 51983 H 4870.25 -1.44156 3.45102 0
M  V30 51984 H 4872.55 -3.70542 5.6719 0
M  V30 51985 H 4873.49 -2.51226 6.62036 0
M  V30 51986 H 4873.9 -2.79846 4.90252 0
M  V30 51987 N 4873.3 -1.55792 -0.238056 0
M  V30 51988 C 4874.23 -1.94073 -1.29839 0
M  V30 51989 C 4875.21 -0.806779 -1.4975 0
M  V30 51990 O 4876.39 -1.06778 -1.6221 0
M  V30 51991 C 4873.52 -2.24311 -2.65145 0
M  V30 51992 C 4872.48 -3.40041 -2.59915 0
M  V30 51993 C 4871.8 -3.55843 -3.99098 0
M  V30 51994 C 4873.1 -4.75484 -2.16131 0
M  V30 51995 H 4874.8 -2.82891 -0.980464 0
M  V30 51996 H 4872.34 -1.36107 -0.470205 0
M  V30 51997 H 4874.29 -2.49682 -3.39466 0
M  V30 51998 H 4873.02 -1.32329 -2.98591 0
M  V30 51999 H 4871.68 -3.14694 -1.88052 0
M  V30 52000 H 4871.33 -2.61265 -4.29825 0
M  V30 52001 H 4871.03 -4.33674 -3.96485 0
M  V30 52002 H 4872.55 -3.83544 -4.75106 0
M  V30 52003 H 4873.96 -5.00168 -2.80188 0
M  V30 52004 H 4872.36 -5.5648 -2.24612 0
M  V30 52005 H 4873.43 -4.7195 -1.11316 0
M  V30 52006 N 4874.77 0.504089 -1.49321 0
M  V30 52007 C 4876 1.28251 -1.62356 0
M  V30 52008 C 4876.42 1.86501 -0.293748 0
M  V30 52009 O 4875.77 1.6768 0.72039 0
M  V30 52010 C 4875.82 2.41497 -2.69001 0
M  V30 52011 O 4875.55 1.85642 -3.96823 0
M  V30 52012 C 4877.05 3.32918 -2.92712 0
M  V30 52013 H 4874.27 0.389096 -0.546667 0
M  V30 52014 H 4876.81 0.605462 -1.95332 0
M  V30 52015 H 4874.97 3.05038 -2.38811 0
M  V30 52016 H 4875.38 2.59965 -4.55542 0
M  V30 52017 H 4876.85 4.08667 -3.71073 0
M  V30 52018 H 4877.33 3.89726 -2.0251 0
M  V30 52019 H 4877.94 2.75147 -3.24306 0
M  V30 52020 N 4876.25 1.38343 0.754909 0
M  V30 52021 C 4877.5 1.34678 1.51624 0
M  V30 52022 C 4877.83 -0.0635354 1.94096 0
M  V30 52023 O 4877.11 -1.02445 1.65334 0
M  V30 52024 C 4877.39 2.30126 2.76973 0
M  V30 52025 C 4877.24 3.80012 2.40647 0
M  V30 52026 C 4878.56 2.23729 3.7899 0
M  V30 52027 H 4875.68 0.490536 0.550039 0
M  V30 52028 H 4878.32 1.69181 0.864748 0
M  V30 52029 H 4876.47 2.00833 3.32563 0
M  V30 52030 H 4878.14 4.19973 1.90842 0
M  V30 52031 H 4876.39 3.97757 1.73123 0
M  V30 52032 H 4877.06 4.42256 3.30324 0
M  V30 52033 H 4879.53 2.49586 3.32936 0
M  V30 52034 H 4878.41 2.92627 4.64393 0
M  V30 52035 H 4878.67 1.23569 4.2448 0
M  V30 52036 N 4877.73 -0.982945 1.23191 0
M  V30 52037 C 4878.98 -1.72727 1.07411 0
M  V30 52038 C 4879.33 -1.88501 -0.385381 0
M  V30 52039 O 4878.62 -1.42434 -1.28152 0
M  V30 52040 C 4878.82 -3.1273 1.73017 0
M  V30 52041 C 4878.65 -3.1061 3.25195 0
M  V30 52042 C 4877.42 -3.15943 3.94345 0
M  V30 52043 C 4879.61 -2.93977 4.21998 0
M  V30 52044 N 4877.6 -3.03682 5.33527 0
M  V30 52045 C 4878.97 -2.89851 5.48075 0
M  V30 52046 C 4881.02 -2.78443 4.12764 0
M  V30 52047 C 4879.73 -2.7178 6.65979 0
M  V30 52048 C 4881.75 -2.61736 5.30329 0
M  V30 52049 C 4881.11 -2.58305 6.5533 0
M  V30 52050 H 4877.21 -0.641263 0.447555 0
M  V30 52051 H 4879.8 -1.16658 1.55881 0
M  V30 52052 H 4877.97 -3.67021 1.27083 0
M  V30 52053 H 4879.7 -3.7578 1.50237 0
M  V30 52054 H 4876.45 -3.24022 3.45408 0
M  V30 52055 H 4876.88 -3.00833 6.06489 0
M  V30 52056 H 4881.52 -2.79887 3.16896 0
M  V30 52057 H 4879.24 -2.69081 7.61985 0
M  V30 52058 H 4882.82 -2.50683 5.25023 0
M  V30 52059 H 4881.7 -2.45538 7.44769 0
M  V30 52060 N 4879.21 -1.0432 -1.18132 0
M  V30 52061 C 4880.16 -0.630253 -2.23899 0
M  V30 52062 C 4881.15 0.344195 -1.65866 0
M  V30 52063 O 4882.36 0.21121 -1.78757 0
M  V30 52064 H 4878.73 -0.185604 -0.728735 0
M  V30 52065 H 4880.7 -1.53262 -2.56034 0
M  V30 52066 C 4879.45 -0.0117882 -3.47698 0
M  V30 52067 H 4878.77 -0.752664 -3.92651 0
M  V30 52068 H 4880.21 0.239897 -4.23321 0
M  V30 52069 C 4878.67 1.23902 -3.13289 0
M  V30 52070 O 4879.2 2.32947 -3.27259 0
M  V30 52071 N 4877.41 1.13328 -2.67591 0
M  V30 52072 H 4876.96 0.245915 -2.56424 0
M  V30 52073 H 4876.91 1.97108 -2.44941 0
M  V30 52074 N 4880.69 1.34403 -0.823012 0
M  V30 52075 C 4881.63 2.29518 -0.24292 0
M  V30 52076 C 4882.6 1.53592 0.632343 0
M  V30 52077 O 4883.79 1.81962 0.573966 0
M  V30 52078 C 4880.93 3.40034 0.589131 0
M  V30 52079 C 4880.04 4.30898 -0.308387 0
M  V30 52080 C 4879.18 5.28517 0.53324 0
M  V30 52081 C 4878.22 6.11019 -0.363659 0
M  V30 52082 N 4877.35 7.00727 0.4389 0
M  V30 52083 H 4882.19 2.78534 -1.05938 0
M  V30 52084 H 4879.73 1.37068 -0.53392 0
M  V30 52085 H 4881.69 4.02794 1.08686 0
M  V30 52086 H 4880.32 2.92252 1.37071 0
M  V30 52087 H 4879.37 3.68999 -0.924333 0
M  V30 52088 H 4880.68 4.88713 -0.998034 0
M  V30 52089 H 4879.84 5.96729 1.09544 0
M  V30 52090 H 4878.57 4.71239 1.25639 0
M  V30 52091 H 4877.58 5.41739 -0.938003 0
M  V30 52092 H 4878.8 6.70378 -1.08492 0
M  V30 52093 H 4876.75 6.45917 1.14572 0
M  V30 52094 H 4876.67 7.55755 -0.192356 0
M  V30 52095 H 4877.94 7.73266 0.983852 0
M  V30 52096 N 4882.16 0.577983 1.46619 0
M  V30 52097 C 4883.41 0.0618505 2.02706 0
M  V30 52098 C 4883.74 -1.29288 1.44907 0
M  V30 52099 O 4883.02 -1.84608 0.612385 0
M  V30 52100 C 4883.3 -0.00899165 3.60099 0
M  V30 52101 C 4883.15 1.37431 4.28291 0
M  V30 52102 C 4884.47 -0.712006 4.34302 0
M  V30 52103 H 4881.59 0.0239505 0.736611 0
M  V30 52104 H 4884.23 0.744273 1.74816 0
M  V30 52105 H 4882.38 -0.590157 3.83991 0
M  V30 52106 H 4884.06 2.00028 4.15676 0
M  V30 52107 H 4882.3 1.94333 3.87836 0
M  V30 52108 H 4882.97 1.27726 5.3702 0
M  V30 52109 H 4885.45 -0.21834 4.15527 0
M  V30 52110 H 4884.32 -0.73059 5.44016 0
M  V30 52111 H 4884.58 -1.77237 4.05018 0
M  V30 52112 N 4883.64 -1.54409 0.315511 0
M  V30 52113 C 4884.89 -2.01426 -0.282704 0
M  V30 52114 C 4885.24 -1.19983 -1.50406 0
M  V30 52115 O 4884.54 -0.271833 -1.89662 0
M  V30 52116 C 4884.73 -3.50939 -0.676528 0
M  V30 52117 C 4884.56 -4.46854 0.505111 0
M  V30 52118 C 4883.33 -4.95272 1.00169 0
M  V30 52119 C 4885.53 -4.96136 1.35474 0
M  V30 52120 N 4883.51 -5.75073 2.14858 0
M  V30 52121 C 4884.88 -5.73783 2.3489 0
M  V30 52122 C 4886.94 -4.78294 1.38343 0
M  V30 52123 C 4885.64 -6.35486 3.36971 0
M  V30 52124 C 4887.66 -5.40827 2.3929 0
M  V30 52125 C 4887.03 -6.18318 3.37435 0
M  V30 52126 H 4883.13 -0.77908 -0.0675124 0
M  V30 52127 H 4885.71 -1.89459 0.448723 0
M  V30 52128 H 4883.88 -3.63167 -1.3771 0
M  V30 52129 H 4885.61 -3.84732 -1.25552 0
M  V30 52130 H 4882.37 -4.70105 0.574288 0
M  V30 52131 H 4882.79 -6.19654 2.72687 0
M  V30 52132 H 4887.43 -4.17953 0.638342 0
M  V30 52133 H 4885.15 -6.94953 4.12391 0
M  V30 52134 H 4888.74 -5.28943 2.42302 0
M  V30 52135 H 4887.62 -6.65847 4.14268 0
M  V30 52136 N 4885.12 -0.0435168 -1.5754 0
M  V30 52137 C 4886.37 0.631387 -1.91563 0
M  V30 52138 C 4886.68 1.72454 -0.92298 0
M  V30 52139 O 4887.89 2.45708 -1.15498 0
M  V30 52140 C 4886.34 1.17435 -3.40202 0
M  V30 52141 C 4885.95 0.11371 -4.47856 0
M  V30 52142 C 4887.7 1.82493 -3.83271 0
M  V30 52143 C 4885.6 0.669119 -5.87603 0
M  V30 52144 H 4884.53 0.239604 -0.714917 0
M  V30 52145 H 4887.18 -0.111162 -1.83163 0
M  V30 52146 H 4885.57 1.96897 -3.43581 0
M  V30 52147 H 4886.74 -0.659508 -4.56056 0
M  V30 52148 H 4885.06 -0.438966 -4.1408 0
M  V30 52149 H 4887.65 2.2503 -4.85042 0
M  V30 52150 H 4888 2.67354 -3.19104 0
M  V30 52151 H 4888.53 1.09699 -3.82375 0
M  V30 52152 H 4885.27 -0.14168 -6.55347 0
M  V30 52153 H 4884.79 1.4105 -5.82979 0
M  V30 52154 H 4886.47 1.1544 -6.36618 0
M  V30 52155 N 4886.6 1.55916 0.229791 0
M  V30 52156 C 4887.53 1.94758 1.28808 0
M  V30 52157 C 4888.51 0.814709 1.4932 0
M  V30 52158 O 4889.69 1.07636 1.61642 0
M  V30 52159 C 4886.82 2.25714 2.63951 0
M  V30 52160 C 4885.78 3.41415 2.58108 0
M  V30 52161 C 4885.1 3.57955 3.97206 0
M  V30 52162 C 4886.4 4.76623 2.13606 0
M  V30 52163 H 4888.1 2.83407 0.965448 0
M  V30 52164 H 4885.64 1.36354 0.46298 0
M  V30 52165 H 4887.6 2.51478 3.38137 0
M  V30 52166 H 4886.32 1.3391 2.97885 0
M  V30 52167 H 4884.98 3.15687 1.8638 0
M  V30 52168 H 4884.63 2.63541 4.28433 0
M  V30 52169 H 4884.33 4.3577 3.9418 0
M  V30 52170 H 4885.85 3.86059 4.73066 0
M  V30 52171 H 4887.27 5.01647 2.77531 0
M  V30 52172 H 4885.66 5.57663 2.21657 0
M  V30 52173 H 4886.73 4.72534 1.08812 0
M  V30 52174 N 4888.08 -0.496163 1.49586 0
M  V30 52175 C 4888.99 -1.62346 1.69355 0
M  V30 52176 C 4890 -1.64182 0.576205 0
M  V30 52177 O 4891.18 -1.82514 0.851504 0
M  V30 52178 C 4888.24 -2.98692 1.76023 0
M  V30 52179 C 4887.3 -3.07444 2.99628 0
M  V30 52180 C 4886.54 -4.37286 3.05969 0
M  V30 52181 O 4886.76 -5.26362 2.19771 0
M  V30 52182 O 4885.69 -4.5111 3.98476 0
M  V30 52183 H 4889.52 -1.48596 2.64864 0
M  V30 52184 H 4887.11 -0.672975 1.33384 0
M  V30 52185 H 4888.99 -3.79718 1.82734 0
M  V30 52186 H 4887.66 -3.12693 0.836938 0
M  V30 52187 H 4886.57 -2.25587 2.98432 0
M  V30 52188 H 4887.9 -2.98371 3.91453 0
M  V30 52189 N 4889.55 -1.38742 -0.747561 0
M  V30 52190 C 4890.5 -1.3658 -1.88278 0
M  V30 52191 C 4891.5 -0.250771 -1.67534 0
M  V30 52192 O 4892.7 -0.420134 -1.75028 0
M  V30 52193 H 4889.08 -0.426212 -0.619554 0
M  V30 52194 H 4891.05 -2.32362 -1.87217 0
M  V30 52195 C 4889.8 -1.21372 -3.25828 0
M  V30 52196 H 4889.12 -2.06436 -3.4238 0
M  V30 52197 H 4890.56 -1.23915 -4.05489 0
M  V30 52198 C 4889.02 0.0788915 -3.36808 0
M  V30 52199 O 4889.55 1.05371 -3.87634 0
M  V30 52200 N 4887.76 0.137748 -2.90273 0
M  V30 52201 H 4887.3 -0.656216 -2.49102 0
M  V30 52202 H 4887.26 1.00218 -2.98 0
M  V30 52203 N 4891.03 0.976398 -1.2371 0
M  V30 52204 C 4892.44 1.53281 -1.06592 0
M  V30 52205 C 4892.79 1.92766 0.365459 0
M  V30 52206 O 4891.92 1.76454 1.25271 0
M  V30 52207 C 4892.51 2.78541 -1.92874 0
M  V30 52208 C 4891.07 3.30568 -1.80005 0
M  V30 52209 C 4890.22 2.03532 -1.88335 0
M  V30 52210 H 4893.17 0.795643 -1.37314 0
M  V30 52211 H 4893.19 3.51545 -1.45589 0
M  V30 52212 H 4892.7 2.49771 -2.97045 0
M  V30 52213 H 4890.81 3.64208 -0.78633 0
M  V30 52214 H 4890.92 4.00055 -2.63614 0
M  V30 52215 H 4889.28 2.17849 -1.31962 0
M  V30 52216 H 4890.07 1.77138 -2.9407 0
M  V30 52217 N 4892.51 1.04945 1.17577 0
M  V30 52218 C 4893.76 0.768962 1.88304 0
M  V30 52219 C 4894.11 -0.696298 1.79358 0
M  V30 52220 O 4893.4 -1.50241 1.18904 0
M  V30 52221 C 4893.6 1.18074 3.37333 0
M  V30 52222 C 4893.43 2.68448 3.60785 0
M  V30 52223 C 4892.2 3.35722 3.77649 0
M  V30 52224 C 4894.4 3.66669 3.60636 0
M  V30 52225 N 4892.38 4.74987 3.88922 0
M  V30 52226 C 4893.75 4.91651 3.77729 0
M  V30 52227 C 4895.8 3.60174 3.43772 0
M  V30 52228 C 4894.51 6.10915 3.79704 0
M  V30 52229 C 4896.53 4.78875 3.47034 0
M  V30 52230 C 4895.89 6.02679 3.64633 0
M  V30 52231 H 4891.99 0.333575 0.707285 0
M  V30 52232 H 4894.58 1.3409 1.41167 0
M  V30 52233 H 4892.75 0.636782 3.83144 0
M  V30 52234 H 4894.48 0.85034 3.95666 0
M  V30 52235 H 4891.24 2.86124 3.77399 0
M  V30 52236 H 4891.66 5.47392 3.9836 0
M  V30 52237 H 4896.3 2.65424 3.29105 0
M  V30 52238 H 4894.02 7.06012 3.93157 0
M  V30 52239 H 4897.61 4.755 3.35248 0
M  V30 52240 H 4896.49 6.92992 3.67059 0
M  V30 52241 N 4893.99 -1.33965 0.830128 0
M  V30 52242 C 4894.92 -2.27302 0.202262 0
M  V30 52243 C 4895.9 -1.49237 -0.645528 0
M  V30 52244 O 4897.08 -1.78436 -0.6077 0
M  V30 52245 C 4894.21 -3.31028 -0.716816 0
M  V30 52246 C 4893.26 -4.26465 0.0543771 0
M  V30 52247 S 4894.09 -5.16702 1.4064 0
M  V30 52248 C 4895.25 -6.2396 0.492387 0
M  V30 52249 H 4895.48 -2.80207 0.993559 0
M  V30 52250 H 4893.01 -1.41122 0.626408 0
M  V30 52251 H 4894.97 -3.91276 -1.24151 0
M  V30 52252 H 4893.63 -2.76956 -1.4817 0
M  V30 52253 H 4892.82 -4.99861 -0.64461 0
M  V30 52254 H 4892.43 -3.70508 0.509852 0
M  V30 52255 H 4894.72 -6.76776 -0.313232 0
M  V30 52256 H 4895.66 -6.97923 1.19624 0
M  V30 52257 H 4896.07 -5.64447 0.077616 0
M  V30 52258 N 4895.47 -0.585751 -1.4631 0
M  V30 52259 C 4896.38 0.148154 -2.34132 0
M  V30 52260 C 4897.39 0.882919 -1.49935 0
M  V30 52261 O 4898.57 0.84542 -1.82797 0
M  V30 52262 C 4895.63 1.14702 -3.27176 0
M  V30 52263 C 4894.7 0.416596 -4.27274 0
M  V30 52264 C 4893.93 1.36788 -5.15873 0
M  V30 52265 O 4894.15 2.60457 -5.07463 0
M  V30 52266 O 4893.09 0.876809 -5.95479 0
M  V30 52267 H 4896.91 -0.572987 -2.98246 0
M  V30 52268 H 4894.5 -0.346133 -1.45335 0
M  V30 52269 H 4896.38 1.72289 -3.8457 0
M  V30 52270 H 4895.05 1.84958 -2.65655 0
M  V30 52271 H 4893.96 -0.201192 -3.73559 0
M  V30 52272 H 4895.29 -0.245045 -4.9159 0
M  V30 52273 N 4896.95 1.5424 -0.323695 0
M  V30 52274 C 4898.22 1.92743 0.333113 0
M  V30 52275 C 4898.6 1.25332 1.69868 0
M  V30 52276 O 4897.95 0.39707 2.25024 0
M  V30 52277 C 4898.16 3.464 0.425201 0
M  V30 52278 C 4899.51 4.19031 0.685423 0
M  V30 52279 O 4900.53 3.52557 0.508116 0
M  V30 52280 O 4899.39 5.36754 1.02748 0
M  V30 52281 H 4896.49 0.804817 0.190258 0
M  V30 52282 H 4899.03 1.65541 -0.37342 0
M  V30 52283 H 4897.8 3.87641 -0.533873 0
M  V30 52284 H 4897.43 3.79708 1.17931 0
M  V30 52285 N 4898.42 0.0518709 1.57515 0
M  V30 52286 C 4899.37 -0.922278 2.11572 0
M  V30 52287 C 4900.34 -1.30838 1.02326 0
M  V30 52288 O 4901.53 -1.39773 1.29877 0
M  V30 52289 C 4898.67 -2.19158 2.66578 0
M  V30 52290 C 4897.78 -1.85989 3.89913 0
M  V30 52291 C 4896.91 -3.07383 4.33231 0
M  V30 52292 C 4895.95 -2.70139 5.49265 0
M  V30 52293 N 4895.09 -3.84228 5.87634 0
M  V30 52294 H 4899.93 -0.454402 2.94515 0
M  V30 52295 H 4897.47 -0.212666 1.45555 0
M  V30 52296 H 4899.42 -2.93432 2.96569 0
M  V30 52297 H 4898.05 -2.63521 1.86431 0
M  V30 52298 H 4897.11 -1.01861 3.66509 0
M  V30 52299 H 4898.42 -1.54575 4.74245 0
M  V30 52300 H 4897.57 -3.89956 4.64779 0
M  V30 52301 H 4896.31 -3.41976 3.47712 0
M  V30 52302 H 4895.32 -1.85982 5.17388 0
M  V30 52303 H 4896.54 -2.36737 6.365 0
M  V30 52304 H 4894.49 -4.1862 5.05067 0
M  V30 52305 H 4894.4 -3.56514 6.66659 0
M  V30 52306 H 4895.67 -4.67438 6.23796 0
M  V30 52307 N 4899.9 -1.56035 -0.221519 0
M  V30 52308 C 4901.13 -1.83133 -0.9628 0
M  V30 52309 C 4901.54 -0.630997 -1.77943 0
M  V30 52310 O 4900.9 0.400457 -1.78052 0
M  V30 52311 C 4900.95 -3.08748 -1.88034 0
M  V30 52312 O 4900.67 -4.24151 -1.09671 0
M  V30 52313 C 4902.17 -3.48833 -2.73551 0
M  V30 52314 H 4899.39 -0.608785 -0.282173 0
M  V30 52315 H 4901.94 -2.03125 -0.236739 0
M  V30 52316 H 4900.09 -2.90732 -2.56035 0
M  V30 52317 H 4900.51 -4.95511 -1.71956 0
M  V30 52318 H 4901.98 -4.39764 -3.33634 0
M  V30 52319 H 4902.46 -2.70588 -3.45947 0
M  V30 52320 H 4903.06 -3.69289 -2.10963 0
M  V30 52321 N 4901.38 0.488223 -1.49847 0
M  V30 52322 C 4902.79 1.0695 -1.53032 0
M  V30 52323 C 4903.14 1.93509 -0.323865 0
M  V30 52324 O 4902.27 2.08893 0.565042 0
M  V30 52325 C 4902.86 1.94634 -2.77314 0
M  V30 52326 C 4901.42 2.479 -2.83236 0
M  V30 52327 C 4900.57 1.25825 -2.4711 0
M  V30 52328 H 4903.52 0.271571 -1.56359 0
M  V30 52329 H 4903.54 2.79487 -2.582 0
M  V30 52330 H 4903.05 1.31608 -3.65104 0
M  V30 52331 H 4901.15 3.14528 -1.99756 0
M  V30 52332 H 4901.27 2.84179 -3.85719 0
M  V30 52333 H 4899.63 1.58757 -1.99169 0
M  V30 52334 H 4900.41 0.644875 -3.37189 0
M  V30 52335 N 4902.86 1.39136 0.740193 0
M  V30 52336 C 4904.1 1.36278 1.50187 0
M  V30 52337 C 4904.44 -0.0429453 1.94153 0
M  V30 52338 O 4903.71 -1.00685 1.66411 0
M  V30 52339 C 4903.99 2.33051 2.74517 0
M  V30 52340 C 4903.85 3.82543 2.36603 0
M  V30 52341 C 4905.17 2.27736 3.76596 0
M  V30 52342 H 4902.29 0.496343 0.544805 0
M  V30 52343 H 4904.93 1.70088 0.846755 0
M  V30 52344 H 4903.08 2.04349 3.30415 0
M  V30 52345 H 4904.75 4.21973 1.86376 0
M  V30 52346 H 4902.99 3.99571 1.68895 0
M  V30 52347 H 4903.66 4.45734 3.25615 0
M  V30 52348 H 4906.14 2.53103 3.3027 0
M  V30 52349 H 4905.02 2.97536 4.61263 0
M  V30 52350 H 4905.28 1.28064 4.23145 0
M  V30 52351 N 4904.34 -0.969824 1.24226 0
M  V30 52352 C 4905.25 -2.09802 1.04978 0
M  V30 52353 C 4906.26 -1.73998 -0.00880338 0
M  V30 52354 O 4907.44 -2.00512 0.188918 0
M  V30 52355 C 4904.5 -3.40465 0.654571 0
M  V30 52356 C 4903.56 -3.9023 1.78939 0
M  V30 52357 C 4902.8 -5.14657 1.41295 0
M  V30 52358 O 4903.02 -5.69601 0.301832 0
M  V30 52359 O 4901.95 -5.58753 2.23783 0
M  V30 52360 H 4905.78 -2.28935 1.99556 0
M  V30 52361 H 4903.36 -1.08194 1.03027 0
M  V30 52362 H 4905.25 -4.19037 0.445599 0
M  V30 52363 H 4903.92 -3.22637 -0.262102 0
M  V30 52364 H 4902.83 -3.12728 2.0531 0
M  V30 52365 H 4904.16 -4.1253 2.68477 0
M  V30 52366 N 4905.81 -1.05567 -1.17018 0
M  V30 52367 C 4907.04 -0.788505 -1.91826 0
M  V30 52368 C 4907.46 0.650294 -1.76502 0
M  V30 52369 O 4906.82 1.45226 -1.08532 0
M  V30 52370 C 4906.87 -1.17872 -3.40791 0
M  V30 52371 O 4905.97 -0.31311 -4.1121 0
M  V30 52372 H 4905.31 -0.288815 -0.597898 0
M  V30 52373 H 4907.84 -1.40953 -1.48302 0
M  V30 52374 H 4907.85 -1.14711 -3.91542 0
M  V30 52375 H 4906.53 -2.22678 -3.51265 0
M  V30 52376 H 4905.11 -0.405645 -3.70687 0
M  V30 52377 N 4907.29 1.33523 -0.837221 0
M  V30 52378 C 4908.54 1.98539 -0.442 0
M  V30 52379 C 4908.89 1.65127 0.987459 0
M  V30 52380 O 4908.19 0.920007 1.68067 0
M  V30 52381 C 4908.38 3.52365 -0.597799 0
M  V30 52382 C 4908.21 4.00724 -2.04085 0
M  V30 52383 C 4906.98 4.2864 -2.67574 0
M  V30 52384 C 4909.18 4.17062 -3.00938 0
M  V30 52385 N 4907.16 4.63128 -4.02972 0
M  V30 52386 C 4908.53 4.5489 -4.21277 0
M  V30 52387 C 4910.58 3.99348 -2.97365 0
M  V30 52388 C 4909.29 4.76855 -5.38518 0
M  V30 52389 C 4911.31 4.22487 -4.13835 0
M  V30 52390 C 4910.68 4.60615 -5.32929 0
M  V30 52391 H 4906.77 0.753239 -0.210131 0
M  V30 52392 H 4909.36 1.6167 -1.08494 0
M  V30 52393 H 4907.53 3.88397 0.0153293 0
M  V30 52394 H 4909.26 4.04325 -0.174183 0
M  V30 52395 H 4906.02 4.20069 -2.18721 0
M  V30 52396 H 4906.44 4.84584 -4.72765 0
M  V30 52397 H 4911.08 3.68985 -2.06421 0
M  V30 52398 H 4908.8 5.06078 -6.30008 0
M  V30 52399 H 4912.39 4.10301 -4.12486 0
M  V30 52400 H 4911.27 4.78165 -6.21553 0
M  V30 52401 N 4908.77 0.593501 1.45998 0
M  V30 52402 C 4909.68 -0.135735 2.34207 0
M  V30 52403 C 4910.7 -0.874955 1.50401 0
M  V30 52404 O 4911.87 -0.835714 1.83242 0
M  V30 52405 C 4908.94 -1.12966 3.2778 0
M  V30 52406 C 4908 -0.393931 4.27489 0
M  V30 52407 C 4907.23 -1.3405 5.16591 0
M  V30 52408 O 4907.45 -2.57762 5.08837 0
M  V30 52409 O 4906.39 -0.845217 5.95936 0
M  V30 52410 H 4910.21 0.588795 2.97938 0
M  V30 52411 H 4907.8 0.353835 1.45149 0
M  V30 52412 H 4909.68 -1.70248 3.85479 0
M  V30 52413 H 4908.36 -1.83546 2.66632 0
M  V30 52414 H 4907.26 0.221 3.73447 0
M  V30 52415 H 4908.6 0.271112 4.91453 0
M  V30 52416 N 4910.25 -1.54066 0.33187 0
M  V30 52417 C 4911.16 -2.28324 -0.539024 0
M  V30 52418 C 4912.17 -1.32989 -1.12205 0
M  V30 52419 O 4913.35 -1.66014 -1.14024 0
M  V30 52420 C 4910.42 -3.03283 -1.67989 0
M  V30 52421 C 4909.48 -4.1422 -1.12783 0
M  V30 52422 C 4908.71 -4.85596 -2.21433 0
M  V30 52423 O 4908.93 -4.56548 -3.41936 0
M  V30 52424 O 4907.87 -5.72315 -1.86384 0
M  V30 52425 H 4911.69 -3.03632 0.064276 0
M  V30 52426 H 4909.28 -1.49083 0.0972889 0
M  V30 52427 H 4911.16 -3.50197 -2.34392 0
M  V30 52428 H 4909.83 -2.30842 -2.26922 0
M  V30 52429 H 4908.74 -3.71636 -0.428651 0
M  V30 52430 H 4910.07 -4.88729 -0.583526 0
M  V30 52431 N 4911.73 -0.0602235 -1.57485 0
M  V30 52432 C 4912.98 0.611033 -1.92222 0
M  V30 52433 C 4913.29 1.71466 -0.941219 0
M  V30 52434 O 4914.49 2.44469 -1.18098 0
M  V30 52435 C 4912.95 1.1382 -3.41428 0
M  V30 52436 C 4912.56 0.0662021 -4.47951 0
M  V30 52437 C 4914.3 1.78418 -3.85185 0
M  V30 52438 C 4912.21 0.606758 -5.88279 0
M  V30 52439 H 4911.14 0.232008 -0.717418 0
M  V30 52440 H 4913.79 -0.130582 -1.83035 0
M  V30 52441 H 4912.17 1.93241 -3.4565 0
M  V30 52442 H 4913.35 -0.707842 -4.55331 0
M  V30 52443 H 4911.66 -0.48286 -4.13591 0
M  V30 52444 H 4914.26 2.19872 -4.87402 0
M  V30 52445 H 4914.6 2.63955 -3.21922 0
M  V30 52446 H 4915.13 1.05637 -3.83517 0
M  V30 52447 H 4911.87 -0.21118 -6.5516 0
M  V30 52448 H 4911.39 1.34858 -5.84443 0
M  V30 52449 H 4913.07 1.08682 -6.37807 0
M  V30 52450 N 4913.2 1.56151 0.213241 0
M  V30 52451 C 4914.62 1.69648 0.779522 0
M  V30 52452 C 4914.97 0.66368 1.84634 0
M  V30 52453 O 4914.09 -0.183557 2.1562 0
M  V30 52454 C 4914.69 3.07572 1.42073 0
M  V30 52455 C 4913.25 3.22895 1.93431 0
M  V30 52456 C 4912.39 2.65584 0.797519 0
M  V30 52457 H 4915.34 1.58696 -0.0115509 0
M  V30 52458 H 4915.36 3.03892 2.28975 0
M  V30 52459 H 4914.88 3.82719 0.644053 0
M  V30 52460 H 4912.98 2.52633 2.73875 0
M  V30 52461 H 4913.09 4.30205 2.10857 0
M  V30 52462 H 4911.45 2.24283 1.20704 0
M  V30 52463 H 4912.24 3.43284 0.0333733 0
M  V30 52464 N 4914.68 -0.48027 1.50104 0
M  V30 52465 C 4915.91 -1.25469 1.64137 0
M  V30 52466 C 4916.32 -1.86468 0.320338 0
M  V30 52467 O 4915.66 -1.69564 -0.70667 0
M  V30 52468 C 4915.73 -2.40987 2.66769 0
M  V30 52469 C 4915.39 -2.00697 4.10573 0
M  V30 52470 C 4916.39 -1.53475 4.96731 0
M  V30 52471 C 4914.07 -2.09698 4.56434 0
M  V30 52472 C 4916.07 -1.15784 6.26796 0
M  V30 52473 C 4913.75 -1.71619 5.86507 0
M  V30 52474 C 4914.75 -1.24739 6.71513 0
M  V30 52475 O 4914.44 -0.871841 7.99158 0
M  V30 52476 H 4914.17 -0.385964 0.554985 0
M  V30 52477 H 4916.72 -0.580779 1.97018 0
M  V30 52478 H 4914.95 -3.1152 2.29111 0
M  V30 52479 H 4916.64 -3.02972 2.70117 0
M  V30 52480 H 4917.41 -1.4595 4.62519 0
M  V30 52481 H 4913.29 -2.45137 3.90422 0
M  V30 52482 H 4916.83 -0.791222 6.93098 0
M  V30 52483 H 4912.73 -1.788 6.20242 0
M  V30 52484 H 4913.5 -1.0015 8.1235 0
M  V30 52485 N 4916.16 -1.39527 -0.732804 0
M  V30 52486 C 4917.09 -1.4116 -1.86 0
M  V30 52487 C 4918.07 -0.274673 -1.67868 0
M  V30 52488 O 4919.26 -0.480811 -1.88154 0
M  V30 52489 C 4916.39 -1.2565 -3.23774 0
M  V30 52490 C 4915.34 -2.36765 -3.56548 0
M  V30 52491 C 4914.67 -2.06343 -4.93282 0
M  V30 52492 C 4915.97 -3.79082 -3.59297 0
M  V30 52493 H 4917.66 -2.3549 -1.84891 0
M  V30 52494 H 4915.21 -1.13351 -0.888122 0
M  V30 52495 H 4917.16 -1.25413 -4.02305 0
M  V30 52496 H 4915.88 -0.277886 -3.25416 0
M  V30 52497 H 4914.54 -2.36223 -2.80347 0
M  V30 52498 H 4914.19 -1.06914 -4.91506 0
M  V30 52499 H 4913.89 -2.80775 -5.16177 0
M  V30 52500 H 4915.41 -2.07759 -5.74168 0
M  V30 52501 H 4916.83 -3.81541 -4.27901 0
M  V30 52502 H 4915.23 -4.52892 -3.93712 0
M  V30 52503 H 4916.3 -4.09902 -2.59053 0
M  V30 52504 N 4917.64 0.963222 -1.24739 0
M  V30 52505 C 4918.89 1.70339 -1.08761 0
M  V30 52506 C 4919.21 1.91389 0.373551 0
M  V30 52507 O 4918.48 1.49484 1.26615 0
M  V30 52508 H 4917.06 0.63121 -0.399478 0
M  V30 52509 H 4919.72 1.15854 -1.56729 0
M  V30 52510 H 4918.82 2.6861 -1.58918 0
M  V30 52511 N 4919.12 1.06186 1.16457 0
M  V30 52512 C 4920.06 0.67169 2.2081 0
M  V30 52513 C 4921.03 -0.331129 1.62766 0
M  V30 52514 O 4922.22 -0.220263 1.89524 0
M  V30 52515 C 4919.36 0.0631503 3.45042 0
M  V30 52516 C 4918.47 1.11601 4.17336 0
M  V30 52517 C 4917.61 0.473732 5.29083 0
M  V30 52518 C 4916.65 1.51021 5.93177 0
M  V30 52519 N 4915.78 0.891362 6.96419 0
M  V30 52520 H 4920.62 1.56598 2.53537 0
M  V30 52521 H 4918.16 0.782995 1.2453 0
M  V30 52522 H 4920.12 -0.307197 4.16067 0
M  V30 52523 H 4918.75 -0.794553 3.12868 0
M  V30 52524 H 4917.8 1.60408 3.44925 0
M  V30 52525 H 4919.11 1.90238 4.61098 0
M  V30 52526 H 4918.27 0.0503565 6.06679 0
M  V30 52527 H 4917 -0.344516 4.86482 0
M  V30 52528 H 4916.01 1.94349 5.14304 0
M  V30 52529 H 4917.23 2.33053 6.37858 0
M  V30 52530 H 4915.18 0.0938059 6.55933 0
M  V30 52531 H 4915.1 1.61512 7.38546 0
M  V30 52532 H 4916.37 0.493095 7.77939 0
M  V30 52533 N 4920.59 -1.33077 0.84429 0
M  V30 52534 C 4922.01 -1.50445 0.532782 0
M  V30 52535 C 4922.21 -1.78295 -0.938774 0
M  V30 52536 O 4921.27 -1.84641 -1.72233 0
M  V30 52537 C 4922.58 -2.6555 1.41081 0
M  V30 52538 C 4924.13 -2.79435 1.41015 0
M  V30 52539 C 4924.6 -3.97608 2.27315 0
M  V30 52540 N 4926.09 -4.04852 2.25054 0
M  V30 52541 C 4926.83 -4.95498 2.88564 0
M  V30 52542 N 4926.32 -5.91223 3.61147 0
M  V30 52543 N 4928.12 -4.88538 2.78006 0
M  V30 52544 H 4920.27 -1.13263 1.79681 0
M  V30 52545 H 4922.53 -0.557313 0.766881 0
M  V30 52546 H 4922.24 -2.51666 2.45677 0
M  V30 52547 H 4922.11 -3.61086 1.09074 0
M  V30 52548 H 4924.5 -2.92747 0.371887 0
M  V30 52549 H 4924.58 -1.84644 1.77032 0
M  V30 52550 H 4924.22 -3.85054 3.31204 0
M  V30 52551 H 4924.15 -4.91654 1.88637 0
M  V30 52552 H 4926.64 -3.36347 1.72276 0
M  V30 52553 H 4926.96 -6.57065 4.06799 0
M  V30 52554 H 4925.3 -5.91282 3.65254 0
M  V30 52555 H 4928.49 -4.12721 2.2086 0
M  V30 52556 H 4928.67 -5.58982 3.27785 0
M  V30 52557 N 4922.07 -0.601236 -1.45681 0
M  V30 52558 C 4922.98 0.123313 -2.34276 0
M  V30 52559 C 4924 0.866967 -1.50863 0
M  V30 52560 O 4925.17 0.825985 -1.83683 0
M  V30 52561 C 4922.24 1.11226 -3.28374 0
M  V30 52562 C 4921.3 0.371254 -4.27692 0
M  V30 52563 C 4920.53 1.31309 -5.17295 0
M  V30 52564 O 4920.76 2.5506 -5.10197 0
M  V30 52565 O 4919.69 0.813601 -5.96376 0
M  V30 52566 H 4923.52 -0.604587 -2.97621 0
M  V30 52567 H 4921.1 -0.361528 -1.4496 0
M  V30 52568 H 4922.98 1.68201 -3.86376 0
M  V30 52569 H 4921.66 1.8213 -2.67601 0
M  V30 52570 H 4920.57 -0.240802 -3.73324 0
M  V30 52571 H 4921.9 -0.297171 -4.91302 0
M  V30 52572 N 4923.55 1.53888 -0.340036 0
M  V30 52573 C 4924.83 1.93085 0.312651 0
M  V30 52574 C 4925.21 1.27126 1.68529 0
M  V30 52575 O 4924.56 0.420914 2.2459 0
M  V30 52576 C 4924.77 3.46832 0.388436 0
M  V30 52577 C 4926.11 4.19735 0.640941 0
M  V30 52578 O 4927.14 3.53076 0.470694 0
M  V30 52579 O 4926 5.37814 0.970496 0
M  V30 52580 H 4923.09 0.80679 0.181711 0
M  V30 52581 H 4925.64 1.65135 -0.390956 0
M  V30 52582 H 4924.41 3.87053 -0.574958 0
M  V30 52583 H 4924.03 3.80937 1.13897 0
M  V30 52584 N 4925.03 0.0685745 1.57451 0
M  V30 52585 C 4925.96 -0.929299 2.09515 0
M  V30 52586 C 4926.97 -1.26351 1.02661 0
M  V30 52587 O 4928.16 -1.22126 1.30183 0
M  V30 52588 C 4925.26 -2.24603 2.53785 0
M  V30 52589 C 4924.44 -2.09115 3.84174 0
M  V30 52590 C 4923.5 -3.24064 4.1457 0
M  V30 52591 O 4922.52 -2.99198 4.8422 0
M  V30 52592 N 4923.72 -4.49064 3.67861 0
M  V30 52593 H 4926.49 -0.484797 2.95753 0
M  V30 52594 H 4924.05 -0.117234 1.61475 0
M  V30 52595 H 4926.04 -3.00403 2.71183 0
M  V30 52596 H 4924.61 -2.60563 1.72701 0
M  V30 52597 H 4923.83 -1.17802 3.76187 0
M  V30 52598 H 4925.12 -1.96013 4.69528 0
M  V30 52599 H 4924.52 -4.72154 3.11587 0
M  V30 52600 H 4923.07 -5.21901 3.90465 0
M  V30 52601 N 4926.51 -1.56262 -0.204957 0
M  V30 52602 C 4927.75 -1.81214 -0.923742 0
M  V30 52603 C 4928.11 -0.644128 -1.81297 0
M  V30 52604 O 4927.4 0.361142 -1.88166 0
M  V30 52605 C 4927.6 -3.09728 -1.78334 0
M  V30 52606 C 4927.42 -4.38918 -0.978825 0
M  V30 52607 C 4926.19 -5.00876 -0.667155 0
M  V30 52608 C 4928.39 -5.132 -0.336206 0
M  V30 52609 N 4926.37 -6.13699 0.15703 0
M  V30 52610 C 4927.75 -6.19008 0.35062 0
M  V30 52611 C 4929.8 -4.97267 -0.250926 0
M  V30 52612 C 4928.5 -7.10612 1.11459 0
M  V30 52613 C 4930.53 -5.89286 0.499621 0
M  V30 52614 C 4929.89 -6.94532 1.17493 0
M  V30 52615 H 4925.99 -0.714539 -0.317739 0
M  V30 52616 H 4928.57 -1.93739 -0.193249 0
M  V30 52617 H 4926.75 -2.98457 -2.48552 0
M  V30 52618 H 4928.48 -3.22806 -2.44086 0
M  V30 52619 H 4925.23 -4.63154 -0.989203 0
M  V30 52620 H 4925.66 -6.74693 0.558444 0
M  V30 52621 H 4930.3 -4.15937 -0.758677 0
M  V30 52622 H 4928.02 -7.91412 1.6338 0
M  V30 52623 H 4931.6 -5.79032 0.56683 0
M  V30 52624 H 4930.48 -7.64507 1.7464 0
M  V30 52625 N 4927.99 0.472303 -1.50356 0
M  V30 52626 C 4929.23 1.23433 -1.62922 0
M  V30 52627 C 4929.59 1.89283 -0.321867 0
M  V30 52628 O 4930.79 2.66853 -0.322946 0
M  V30 52629 C 4929.06 2.25109 -2.77598 0
M  V30 52630 S 4930.62 3.10267 -3.1029 0
M  V30 52631 H 4927.44 0.41909 -0.574356 0
M  V30 52632 H 4930.04 0.531555 -1.88135 0
M  V30 52633 H 4928.74 1.75311 -3.71072 0
M  V30 52634 H 4928.28 3.00017 -2.54467 0
M  V30 52635 H 4930.29 4.26248 -2.54022 0
M  V30 52636 N 4929.46 1.39914 0.725394 0
M  V30 52637 C 4930.71 1.37388 1.4822 0
M  V30 52638 C 4931.03 -0.0263422 1.94982 0
M  V30 52639 O 4930.3 -0.979348 1.69663 0
M  V30 52640 H 4928.88 0.505616 0.549874 0
M  V30 52641 H 4931.54 1.74873 0.860546 0
M  V30 52642 H 4930.64 2.04262 2.35973 0
M  V30 52643 N 4930.94 -0.956593 1.25248 0
M  V30 52644 C 4932.17 -1.741 1.12712 0
M  V30 52645 C 4932.59 -1.85438 -0.315363 0
M  V30 52646 O 4931.95 -1.33339 -1.22843 0
M  V30 52647 C 4932 -3.13374 1.78407 0
M  V30 52648 O 4931.1 -3.98481 1.06238 0
M  V30 52649 H 4930.44 -0.534746 0.393628 0
M  V30 52650 H 4932.97 -1.19918 1.65773 0
M  V30 52651 H 4932.98 -3.63844 1.84613 0
M  V30 52652 H 4931.66 -3.04438 2.83356 0
M  V30 52653 H 4930.23 -3.56949 1.07898 0
M  V30 52654 N 4932.42 -1.06802 -1.15892 0
M  V30 52655 C 4933.35 -0.704755 -2.22611 0
M  V30 52656 C 4934.33 0.305193 -1.6734 0
M  V30 52657 O 4935.52 0.179179 -1.93372 0
M  V30 52658 C 4932.65 -0.0958545 -3.47168 0
M  V30 52659 C 4931.6 -1.03234 -4.15363 0
M  V30 52660 C 4930.93 -0.28648 -5.33932 0
M  V30 52661 C 4932.23 -2.36358 -4.6576 0
M  V30 52662 H 4933.92 -1.59697 -2.53253 0
M  V30 52663 H 4931.47 -0.7693 -1.21728 0
M  V30 52664 H 4933.42 0.170185 -4.21056 0
M  V30 52665 H 4932.14 0.831405 -3.1584 0
M  V30 52666 H 4930.8 -1.28321 -3.43408 0
M  V30 52667 H 4930.45 0.644062 -4.9886 0
M  V30 52668 H 4930.15 -0.910641 -5.80501 0
M  V30 52669 H 4931.67 -0.0281084 -6.10594 0
M  V30 52670 H 4933.09 -2.15629 -5.31204 0
M  V30 52671 H 4931.48 -2.94318 -5.2297 0
M  V30 52672 H 4932.55 -2.99061 -3.81695 0
M  V30 52673 N 4933.9 1.32627 -0.851335 0
M  V30 52674 C 4935.15 1.96631 -0.449337 0
M  V30 52675 C 4935.46 1.68135 0.999503 0
M  V30 52676 O 4936.67 2.25851 1.50677 0
M  V30 52677 C 4935.12 3.51944 -0.752569 0
M  V30 52678 C 4934.73 3.89303 -2.21692 0
M  V30 52679 C 4936.47 4.22436 -0.418132 0
M  V30 52680 C 4934.38 5.37646 -2.46354 0
M  V30 52681 H 4933.31 0.735883 -0.164295 0
M  V30 52682 H 4935.96 1.51069 -1.04165 0
M  V30 52683 H 4934.34 3.95898 -0.089725 0
M  V30 52684 H 4935.52 3.56368 -2.92128 0
M  V30 52685 H 4933.83 3.31827 -2.51555 0
M  V30 52686 H 4936.43 5.31547 -0.579861 0
M  V30 52687 H 4936.77 4.11352 0.639971 0
M  V30 52688 H 4937.31 3.84053 -1.03673 0
M  V30 52689 H 4934.04 5.53747 -3.50777 0
M  V30 52690 H 4933.56 5.71998 -1.80493 0
M  V30 52691 H 4935.24 6.04687 -2.30136 0
M  V30 52692 N 4935.38 0.608953 1.4536 0
M  V30 52693 C 4936.62 0.104472 2.0183 0
M  V30 52694 C 4936.94 -1.27002 1.47972 0
M  V30 52695 O 4936.21 -1.83921 0.674519 0
M  V30 52696 H 4934.79 0.0356304 0.74615 0
M  V30 52697 H 4937.46 0.790659 1.78142 0
M  V30 52698 H 4936.55 0.055289 3.12051 0
M  V30 52699 N 4936.85 -1.53705 0.348193 0
M  V30 52700 C 4937.78 -2.28113 -0.498685 0
M  V30 52701 C 4938.76 -1.29855 -1.09871 0
M  V30 52702 O 4939.95 -1.58704 -1.11923 0
M  V30 52703 C 4937.08 -3.0574 -1.64742 0
M  V30 52704 C 4936.03 -4.11541 -1.17551 0
M  V30 52705 C 4935.36 -4.7715 -2.41313 0
M  V30 52706 C 4936.66 -5.21588 -0.272661 0
M  V30 52707 H 4938.35 -2.99151 0.122039 0
M  V30 52708 H 4935.9 -1.43874 0.0601348 0
M  V30 52709 H 4937.85 -3.56534 -2.24637 0
M  V30 52710 H 4936.58 -2.32362 -2.29512 0
M  V30 52711 H 4935.24 -3.61667 -0.599356 0
M  V30 52712 H 4934.88 -4.00361 -3.045 0
M  V30 52713 H 4934.58 -5.48633 -2.10417 0
M  V30 52714 H 4936.11 -5.30729 -3.01925 0
M  V30 52715 H 4937.52 -5.67989 -0.778579 0
M  V30 52716 H 4935.92 -6.00074 -0.055374 0
M  V30 52717 H 4936.99 -4.79966 0.689954 0
M  V30 52718 N 4938.33 -0.0769235 -1.57412 0
M  V30 52719 C 4939.56 0.5999 -1.98012 0
M  V30 52720 C 4939.98 1.62838 -0.955465 0
M  V30 52721 O 4939.33 1.8241 0.0572499 0
M  V30 52722 C 4939.38 1.2639 -3.38686 0
M  V30 52723 O 4939.1 0.276569 -4.37226 0
M  V30 52724 C 4940.61 2.02806 -3.94189 0
M  V30 52725 H 4937.83 0.162216 -0.651097 0
M  V30 52726 H 4940.37 -0.150843 -2.03943 0
M  V30 52727 H 4938.52 1.96569 -3.33825 0
M  V30 52728 H 4938.94 0.753561 -5.19058 0
M  V30 52729 H 4940.41 2.44649 -4.94824 0
M  V30 52730 H 4940.89 2.88667 -3.31011 0
M  V30 52731 H 4941.5 1.37482 -4.02466 0
M  V30 52732 N 4939.81 1.56368 0.196667 0
M  V30 52733 C 4941.04 1.84994 0.937649 0
M  V30 52734 C 4941.46 0.660306 1.76129 0
M  V30 52735 O 4940.82 -0.390905 1.77036 0
M  V30 52736 C 4940.87 3.11834 1.81085 0
M  V30 52737 O 4939.97 2.92276 2.90944 0
M  V30 52738 H 4939.31 0.609202 0.264138 0
M  V30 52739 H 4941.84 2.03596 0.202457 0
M  V30 52740 H 4941.85 3.42587 2.21581 0
M  V30 52741 H 4940.53 3.98041 1.20566 0
M  V30 52742 H 4939.1 2.72818 2.54214 0
M  V30 52743 N 4941.29 -0.464322 1.50605 0
M  V30 52744 C 4942.7 -0.798635 1.38181 0
M  V30 52745 C 4942.9 -1.96567 0.443149 0
M  V30 52746 O 4941.96 -2.52253 -0.111726 0
M  V30 52747 C 4943.27 -1.10434 2.79687 0
M  V30 52748 C 4944.82 -1.21039 2.88649 0
M  V30 52749 C 4945.3 -1.54919 4.31003 0
M  V30 52750 N 4946.79 -1.61898 4.33985 0
M  V30 52751 C 4947.52 -1.89631 5.41136 0
M  V30 52752 N 4947.02 -2.15338 6.58484 0
M  V30 52753 N 4948.81 -1.91189 5.28586 0
M  V30 52754 H 4940.96 0.304677 2.10203 0
M  V30 52755 H 4943.23 0.0738136 0.945122 0
M  V30 52756 H 4942.93 -0.319811 3.50243 0
M  V30 52757 H 4942.81 -2.03885 3.17349 0
M  V30 52758 H 4945.19 -1.98559 2.18308 0
M  V30 52759 H 4945.27 -0.255523 2.54521 0
M  V30 52760 H 4944.92 -0.779372 5.01885 0
M  V30 52761 H 4944.85 -2.51568 4.62624 0
M  V30 52762 H 4947.34 -1.44043 3.49371 0
M  V30 52763 H 4947.65 -2.35792 7.3595 0
M  V30 52764 H 4946 -2.12716 6.61647 0
M  V30 52765 H 4949.19 -1.70606 4.35903 0
M  V30 52766 H 4949.36 -2.12466 6.12178 0
M  V30 52767 N 4942.77 -1.40296 -0.717964 0
M  V30 52768 C 4943.73 -1.40127 -1.81376 0
M  V30 52769 C 4944.73 -0.29546 -1.58062 0
M  V30 52770 O 4945.92 -0.554245 -1.65148 0
M  V30 52771 C 4943.05 -1.19067 -3.19431 0
M  V30 52772 H 4944.24 -2.37652 -1.82925 0
M  V30 52773 H 4941.8 -1.2611 -0.92336 0
M  V30 52774 H 4942.53 -0.222923 -3.23533 0
M  V30 52775 H 4942.32 -1.99164 -3.37751 0
M  V30 52776 H 4943.81 -1.2173 -3.99464 0
M  V30 52777 N 4944.24 0.949938 -1.25754 0
M  V30 52778 C 4945.47 1.72968 -1.13533 0
M  V30 52779 C 4945.89 1.86231 0.310387 0
M  V30 52780 O 4945.24 1.36341 1.21316 0
M  V30 52781 C 4945.3 3.14102 -1.78947 0
M  V30 52782 O 4945.02 3.01482 -3.17869 0
M  V30 52783 C 4946.52 4.08332 -1.72568 0
M  V30 52784 H 4943.74 0.54185 -0.395777 0
M  V30 52785 H 4946.28 1.19145 -1.66207 0
M  V30 52786 H 4944.44 3.64853 -1.30233 0
M  V30 52787 H 4944.85 3.90546 -3.50105 0
M  V30 52788 H 4946.32 5.04955 -2.2299 0
M  V30 52789 H 4946.8 4.3374 -0.690403 0
M  V30 52790 H 4947.41 3.63498 -2.20792 0
M  V30 52791 N 4945.72 1.07416 1.15324 0
M  V30 52792 C 4946.97 0.808731 1.86631 0
M  V30 52793 C 4947.32 -0.658096 1.80795 0
M  V30 52794 O 4946.62 -1.47685 1.22064 0
M  V30 52795 C 4946.81 1.25202 3.34752 0
M  V30 52796 C 4946.64 2.76041 3.55009 0
M  V30 52797 C 4945.41 3.43657 3.70443 0
M  V30 52798 C 4947.61 3.74236 3.52777 0
M  V30 52799 N 4945.59 4.8313 3.78759 0
M  V30 52800 C 4946.96 4.99553 3.67216 0
M  V30 52801 C 4949.02 3.67385 3.36055 0
M  V30 52802 C 4947.72 6.18832 3.6666 0
M  V30 52803 C 4949.74 4.86128 3.36798 0
M  V30 52804 C 4949.11 6.10278 3.51767 0
M  V30 52805 H 4945.21 0.348503 0.70005 0
M  V30 52806 H 4947.79 1.37054 1.38291 0
M  V30 52807 H 4945.96 0.71791 3.81708 0
M  V30 52808 H 4947.69 0.934075 3.93773 0
M  V30 52809 H 4944.45 2.94064 3.71245 0
M  V30 52810 H 4944.87 5.55719 3.86659 0
M  V30 52811 H 4949.51 2.72345 3.23401 0
M  V30 52812 H 4947.23 7.14193 3.78093 0
M  V30 52813 H 4950.82 4.82504 3.25086 0
M  V30 52814 H 4949.7 7.00622 3.52277 0
M  V30 52815 N 4947.2 -1.32174 0.858357 0
M  V30 52816 C 4948.16 -2.27085 0.310668 0
M  V30 52817 C 4949.16 -1.51753 -0.531753 0
M  V30 52818 O 4950.35 -1.70795 -0.34273 0
M  V30 52819 C 4947.49 -3.36268 -0.560061 0
M  V30 52820 H 4948.68 -2.77041 1.1484 0
M  V30 52821 H 4946.23 -1.42909 0.632992 0
M  V30 52822 H 4946.97 -2.91585 -1.41946 0
M  V30 52823 H 4946.75 -3.92076 0.0429852 0
M  V30 52824 H 4948.24 -4.06977 -0.935913 0
M  V30 52825 N 4948.68 -0.616653 -1.45035 0
M  V30 52826 C 4949.63 0.0968629 -2.30597 0
M  V30 52827 C 4950.6 0.851101 -1.42638 0
M  V30 52828 O 4951.78 0.835031 -1.71557 0
M  V30 52829 C 4948.92 1.08223 -3.27692 0
M  V30 52830 C 4948.03 0.327921 -4.30754 0
M  V30 52831 C 4947.17 1.30381 -5.14951 0
M  V30 52832 C 4946.21 0.537835 -6.09733 0
M  V30 52833 N 4945.34 1.46346 -6.86678 0
M  V30 52834 H 4950.18 -0.638743 -2.91074 0
M  V30 52835 H 4947.72 -0.326783 -1.43424 0
M  V30 52836 H 4949.68 1.66675 -3.8246 0
M  V30 52837 H 4948.31 1.78514 -2.68947 0
M  V30 52838 H 4947.36 -0.372269 -3.78574 0
M  V30 52839 H 4948.67 -0.269317 -4.98072 0
M  V30 52840 H 4947.83 1.96012 -5.74164 0
M  V30 52841 H 4946.57 1.93498 -4.47671 0
M  V30 52842 H 4945.57 -0.132046 -5.49641 0
M  V30 52843 H 4946.8 -0.0884119 -6.79042 0
M  V30 52844 H 4944.74 2.08211 -6.22081 0
M  V30 52845 H 4944.66 0.919889 -7.50383 0
M  V30 52846 H 4945.93 2.10906 -7.50426 0
M  V30 52847 N 4950.16 1.53519 -0.356339 0
M  V30 52848 C 4951.1 2.26947 0.5097 0
M  V30 52849 C 4952.1 1.29573 1.09121 0
M  V30 52850 O 4953.3 1.47234 1.03547 0
M  V30 52851 H 4949.68 0.729374 0.183077 0
M  V30 52852 H 4951.65 2.9811 -0.131479 0
M  V30 52853 C 4950.4 3.06472 1.64227 0
M  V30 52854 H 4949.72 3.81237 1.2041 0
M  V30 52855 H 4951.16 3.61043 2.22315 0
M  V30 52856 C 4949.62 2.16746 2.5792 0
M  V30 52857 O 4950.15 1.77207 3.605 0
M  V30 52858 N 4948.36 1.81566 2.26897 0
M  V30 52859 H 4947.9 2.13918 1.43516 0
M  V30 52860 H 4947.86 1.21817 2.89841 0
M  V30 52861 N 4951.63 0.0852704 1.57369 0
M  V30 52862 C 4952.88 -0.580375 1.9317 0
M  V30 52863 C 4953.2 -1.69946 0.968379 0
M  V30 52864 O 4954.4 -2.42559 1.21972 0
M  V30 52865 C 4952.86 -1.08373 3.43196 0
M  V30 52866 C 4952.47 0.00507137 4.48 0
M  V30 52867 C 4954.21 -1.72268 3.87974 0
M  V30 52868 C 4952.12 -0.513091 5.8917 0
M  V30 52869 H 4951.05 -0.220565 0.721018 0
M  V30 52870 H 4953.7 0.159685 1.82804 0
M  V30 52871 H 4952.08 -1.87718 3.4868 0
M  V30 52872 H 4953.25 0.780192 4.54147 0
M  V30 52873 H 4951.57 0.548598 4.1277 0
M  V30 52874 H 4954.17 -2.1209 4.90838 0
M  V30 52875 H 4954.51 -2.588 3.2608 0
M  V30 52876 H 4955.04 -0.995223 3.8515 0
M  V30 52877 H 4951.78 0.315383 6.54741 0
M  V30 52878 H 4951.3 -1.25543 5.86514 0
M  V30 52879 H 4952.98 -0.985208 6.39455 0
M  V30 52880 N 4953.11 -1.5647 -0.188372 0
M  V30 52881 C 4954.05 -1.91615 -1.25763 0
M  V30 52882 C 4955.06 -0.807486 -1.41363 0
M  V30 52883 O 4956.25 -1.08591 -1.41669 0
M  V30 52884 C 4953.35 -2.13884 -2.62882 0
M  V30 52885 C 4952.52 -3.45056 -2.68803 0
M  V30 52886 C 4951.58 -3.56356 -3.87165 0
M  V30 52887 O 4950.61 -4.29122 -3.73955 0
M  V30 52888 N 4951.81 -2.89941 -5.02906 0
M  V30 52889 H 4954.57 -2.83933 -0.959273 0
M  V30 52890 H 4952.13 -1.57419 -0.378251 0
M  V30 52891 H 4954.13 -2.18724 -3.40502 0
M  V30 52892 H 4952.7 -1.28032 -2.85178 0
M  V30 52893 H 4951.92 -3.52024 -1.77406 0
M  V30 52894 H 4953.2 -4.31404 -2.69755 0
M  V30 52895 H 4952.6 -2.30662 -5.16538 0
M  V30 52896 H 4951.16 -3.004 -5.78449 0
M  V30 52897 N 4954.59 0.456329 -1.50849 0
M  V30 52898 C 4955.82 1.23021 -1.66354 0
M  V30 52899 C 4956.23 1.85472 -0.352933 0
M  V30 52900 O 4955.59 1.69887 0.666679 0
M  V30 52901 C 4955.64 2.32817 -2.76547 0
M  V30 52902 O 4955.36 1.72924 -4.02528 0
M  V30 52903 C 4956.86 3.23437 -3.03155 0
M  V30 52904 H 4954.08 0.371507 -0.55877 0
M  V30 52905 H 4956.63 0.543012 -1.97159 0
M  V30 52906 H 4954.78 2.97286 -2.48395 0
M  V30 52907 H 4955.2 2.4534 -4.63582 0
M  V30 52908 H 4956.67 3.96655 -3.83886 0
M  V30 52909 H 4957.15 3.83086 -2.14806 0
M  V30 52910 H 4957.75 2.6469 -3.32895 0
M  V30 52911 N 4956.07 1.40675 0.710514 0
M  V30 52912 C 4957.03 1.41087 1.8063 0
M  V30 52913 C 4958.03 0.303839 1.57903 0
M  V30 52914 O 4959.22 0.562995 1.64851 0
M  V30 52915 C 4956.35 1.20759 3.18795 0
M  V30 52916 H 4957.55 2.38619 1.81662 0
M  V30 52917 H 4955.1 1.26598 0.916659 0
M  V30 52918 H 4955.84 0.240078 3.2341 0
M  V30 52919 H 4955.62 2.00952 3.36691 0
M  V30 52920 H 4957.11 1.23847 3.98813 0
M  V30 52921 N 4957.55 -0.943255 1.26256 0
M  V30 52922 C 4958.8 -1.68365 1.11068 0
M  V30 52923 C 4959.11 -1.92515 -0.346037 0
M  V30 52924 O 4960.32 -2.6436 -0.618553 0
M  V30 52925 C 4958.77 -3.03164 1.93957 0
M  V30 52926 C 4958.38 -2.8677 3.44191 0
M  V30 52927 C 4960.12 -3.80909 1.87373 0
M  V30 52928 C 4958.03 -4.17029 4.19334 0
M  V30 52929 H 4956.96 -0.631455 0.412045 0
M  V30 52930 H 4959.61 -1.04917 1.50548 0
M  V30 52931 H 4957.99 -3.67581 1.47309 0
M  V30 52932 H 4959.17 -2.31215 3.98593 0
M  V30 52933 H 4957.48 -2.2247 3.51989 0
M  V30 52934 H 4960.08 -4.77409 2.408 0
M  V30 52935 H 4960.42 -4.07655 0.844 0
M  V30 52936 H 4960.96 -3.23262 2.31833 0
M  V30 52937 H 4957.69 -3.95468 5.22767 0
M  V30 52938 H 4957.21 -4.72306 3.69712 0
M  V30 52939 H 4958.89 -4.85498 4.27668 0
M  V30 52940 N 4959.03 -1.08026 -1.14753 0
M  V30 52941 C 4959.97 -0.701166 -2.2178 0
M  V30 52942 C 4960.97 0.291252 -1.66877 0
M  V30 52943 O 4962.17 0.154233 -1.79338 0
M  V30 52944 H 4958.55 -0.208694 -0.722462 0
M  V30 52945 H 4960.52 -1.6133 -2.51028 0
M  V30 52946 C 4959.27 -0.1224 -3.47484 0
M  V30 52947 H 4958.59 -0.877202 -3.90058 0
M  V30 52948 H 4960.03 0.105099 -4.2387 0
M  V30 52949 C 4958.49 1.13872 -3.17072 0
M  V30 52950 O 4959.02 2.22418 -3.34505 0
M  V30 52951 N 4957.23 1.04758 -2.71061 0
M  V30 52952 H 4956.77 0.164212 -2.57076 0
M  V30 52953 H 4956.73 1.89215 -2.51088 0
M  V30 52954 N 4960.5 1.31717 -0.865354 0
M  V30 52955 C 4961.44 2.27544 -0.274986 0
M  V30 52956 C 4962.45 1.52889 0.55936 0
M  V30 52957 O 4963.64 1.74362 0.382105 0
M  V30 52958 C 4960.74 3.33009 0.629169 0
M  V30 52959 C 4959.91 4.37063 -0.171707 0
M  V30 52960 C 4958.97 5.22046 0.659869 0
M  V30 52961 O 4958 5.6913 0.0895526 0
M  V30 52962 N 4959.2 5.45953 1.9727 0
M  V30 52963 H 4961.96 2.78844 -1.09846 0
M  V30 52964 H 4959.52 1.4469 -0.726382 0
M  V30 52965 H 4961.52 3.86776 1.19107 0
M  V30 52966 H 4960.09 2.81787 1.35332 0
M  V30 52967 H 4959.31 3.83432 -0.915054 0
M  V30 52968 H 4960.59 5.0366 -0.721412 0
M  V30 52969 H 4959.99 5.09448 2.45924 0
M  V30 52970 H 4958.55 6.02674 2.48249 0
M  V30 52971 N 4961.98 0.624336 1.44706 0
M  V30 52972 C 4963.23 0.126308 2.02406 0
M  V30 52973 C 4963.56 -1.24613 1.48947 0
M  V30 52974 O 4962.84 -1.82566 0.670806 0
M  V30 52975 C 4963.12 0.105576 3.59945 0
M  V30 52976 C 4962.97 1.50987 4.23702 0
M  V30 52977 C 4964.29 -0.573476 4.36348 0
M  V30 52978 H 4961.41 0.0473731 0.735476 0
M  V30 52979 H 4964.05 0.799512 1.7236 0
M  V30 52980 H 4962.2 -0.467695 3.85675 0
M  V30 52981 H 4963.87 2.13151 4.09102 0
M  V30 52982 H 4962.12 2.06573 3.81458 0
M  V30 52983 H 4962.79 1.44746 5.32684 0
M  V30 52984 H 4965.26 -0.0860325 4.16011 0
M  V30 52985 H 4964.14 -0.557146 5.46065 0
M  V30 52986 H 4964.4 -1.64262 4.10451 0
M  V30 52987 N 4963.46 -1.53328 0.364476 0
M  V30 52988 C 4964.88 -1.59594 0.0133726 0
M  V30 52989 C 4965.08 -1.37965 -1.46861 0
M  V30 52990 O 4964.13 -1.18426 -2.23006 0
M  V30 52991 C 4965.44 -2.97031 0.468317 0
M  V30 52992 C 4966.99 -3.10136 0.422443 0
M  V30 52993 C 4967.47 -4.49983 0.853182 0
M  V30 52994 N 4968.96 -4.56095 0.808197 0
M  V30 52995 C 4969.69 -5.62491 1.11319 0
M  V30 52996 N 4969.19 -6.76645 1.4874 0
M  V30 52997 N 4970.98 -5.52469 1.03606 0
M  V30 52998 H 4963.13 -1.65639 1.32957 0
M  V30 52999 H 4965.4 -0.77682 0.543373 0
M  V30 53000 H 4965.1 -3.17994 1.50242 0
M  V30 53001 H 4964.98 -3.76919 -0.145642 0
M  V30 53002 H 4967.36 -2.88884 -0.602521 0
M  V30 53003 H 4967.44 -2.32259 1.07188 0
M  V30 53004 H 4967.09 -4.71974 1.87626 0
M  V30 53005 H 4967.02 -5.26289 0.181004 0
M  V30 53006 H 4969.51 -3.7413 0.532493 0
M  V30 53007 H 4969.82 -7.5377 1.70442 0
M  V30 53008 H 4968.17 -6.78039 1.52605 0
M  V30 53009 H 4971.36 -4.62167 0.742898 0
M  V30 53010 H 4971.53 -6.35291 1.27708 0
M  V30 53011 N 4964.94 -0.0936148 -1.57322 0
M  V30 53012 C 4966.16 0.582254 -1.99059 0
M  V30 53013 C 4966.59 1.61022 -0.972298 0
M  V30 53014 O 4965.95 1.81203 0.0593985 0
M  V30 53015 C 4965.99 1.20787 -3.39769 0
M  V30 53016 O 4965.1 2.3237 -3.40702 0
M  V30 53017 H 4964.44 0.147861 -0.647328 0
M  V30 53018 H 4966.97 -0.174588 -2.03854 0
M  V30 53019 H 4966.98 1.54953 -3.7743 0
M  V30 53020 H 4965.65 0.454769 -4.13406 0
M  V30 53021 H 4964.23 1.99834 -3.14834 0
M  V30 53022 N 4966.42 1.56568 0.180071 0
M  V30 53023 C 4967.35 1.98758 1.22546 0
M  V30 53024 C 4968.33 0.861802 1.46653 0
M  V30 53025 O 4969.51 1.12724 1.58136 0
M  V30 53026 C 4966.64 2.33998 2.56637 0
M  V30 53027 C 4965.6 3.49453 2.47116 0
M  V30 53028 C 4964.92 3.70411 3.85617 0
M  V30 53029 C 4966.22 4.83178 1.98335 0
M  V30 53030 H 4967.92 2.86335 0.874795 0
M  V30 53031 H 4965.46 1.37758 0.419366 0
M  V30 53032 H 4967.41 2.62109 3.29965 0
M  V30 53033 H 4966.14 1.43319 2.93474 0
M  V30 53034 H 4964.8 3.21456 1.76242 0
M  V30 53035 H 4964.45 2.77038 4.19832 0
M  V30 53036 H 4964.15 4.4809 3.80117 0
M  V30 53037 H 4965.67 4.00913 4.60544 0
M  V30 53038 H 4967.08 5.10222 2.61431 0
M  V30 53039 H 4965.48 5.64433 2.03803 0
M  V30 53040 H 4966.55 4.75756 0.937235 0
M  V30 53041 N 4967.89 -0.448323 1.51089 0
M  V30 53042 C 4969.14 -1.19555 1.62448 0
M  V30 53043 C 4969.46 -1.92601 0.341219 0
M  V30 53044 O 4970.66 -2.69437 0.334031 0
M  V30 53045 C 4969.12 -2.17363 2.86847 0
M  V30 53046 C 4968.73 -1.50015 4.22137 0
M  V30 53047 C 4970.47 -2.92586 3.07561 0
M  V30 53048 C 4968.38 -2.46243 5.37697 0
M  V30 53049 H 4967.31 -0.449954 0.605027 0
M  V30 53050 H 4969.96 -0.463673 1.77545 0
M  V30 53051 H 4968.34 -2.93939 2.6536 0
M  V30 53052 H 4969.51 -0.790726 4.53965 0
M  V30 53053 H 4967.83 -0.869868 4.07213 0
M  V30 53054 H 4970.43 -3.64649 3.91069 0
M  V30 53055 H 4970.77 -3.53298 2.20195 0
M  V30 53056 H 4971.3 -2.23119 3.29337 0
M  V30 53057 H 4968.04 -1.90236 6.27288 0
M  V30 53058 H 4967.56 -3.15271 5.10259 0
M  V30 53059 H 4969.24 -3.07603 5.69201 0
M  V30 53060 N 4969.37 -1.4105 -0.703043 0
M  V30 53061 C 4970.62 -1.39728 -1.46015 0
M  V30 53062 C 4970.94 -0.00468112 -1.94999 0
M  V30 53063 O 4970.21 0.952232 -1.712 0
M  V30 53064 H 4968.79 -0.5143 -0.541761 0
M  V30 53065 H 4971.45 -1.7622 -0.832616 0
M  V30 53066 H 4970.55 -2.07991 -2.32694 0
M  V30 53067 N 4970.85 0.936546 -1.26754 0
M  V30 53068 C 4971.8 2.05726 -1.08534 0
M  V30 53069 C 4972.79 1.69396 -0.0109379 0
M  V30 53070 O 4974 1.79214 -0.167978 0
M  V30 53071 H 4970.37 0.673679 -0.334157 0
M  V30 53072 H 4972.34 2.18243 -2.03501 0
M  V30 53073 C 4971.09 3.39735 -0.739964 0
M  V30 53074 H 4970.42 3.68169 -1.55858 0
M  V30 53075 H 4971.86 4.18952 -0.652296 0
M  V30 53076 C 4970.32 3.32294 0.555171 0
M  V30 53077 O 4970.85 3.688 1.59216 0
M  V30 53078 N 4969.05 2.85395 0.54752 0
M  V30 53079 H 4968.6 2.55885 -0.296757 0
M  V30 53080 H 4968.56 2.808 1.41418 0
M  V30 53081 N 4972.33 1.08633 1.14178 0
M  V30 53082 C 4973.24 0.730204 2.22947 0
M  V30 53083 C 4974.25 -0.2643 1.71981 0
M  V30 53084 O 4975.43 -0.107671 2.01112 0
M  V30 53085 C 4972.5 0.147349 3.46387 0
M  V30 53086 C 4971.56 1.19676 4.12282 0
M  V30 53087 C 4970.79 0.641623 5.29829 0
M  V30 53088 O 4971.01 -0.538151 5.67856 0
M  V30 53089 O 4969.95 1.39278 5.85564 0
M  V30 53090 H 4973.77 1.63762 2.55765 0
M  V30 53091 H 4971.36 0.860161 1.22154 0
M  V30 53092 H 4973.24 -0.174775 4.21037 0
M  V30 53093 H 4971.91 -0.733193 3.15287 0
M  V30 53094 H 4970.82 1.57145 3.39494 0
M  V30 53095 H 4972.15 2.04966 4.47493 0
M  V30 53096 N 4973.81 -1.31256 0.872327 0
M  V30 53097 C 4974.72 -2.3222 0.333336 0
M  V30 53098 C 4975.73 -1.64812 -0.557955 0
M  V30 53099 O 4976.91 -1.96214 -0.454106 0
M  V30 53100 C 4973.97 -3.4371 -0.454359 0
M  V30 53101 C 4973.03 -4.26772 0.465174 0
M  V30 53102 C 4972.27 -5.32938 -0.285023 0
M  V30 53103 O 4972.49 -5.49973 -1.51281 0
M  V30 53104 O 4971.42 -6.00832 0.358337 0
M  V30 53105 H 4975.25 -2.80247 1.17026 0
M  V30 53106 H 4972.84 -1.35197 0.635772 0
M  V30 53107 H 4974.72 -4.11659 -0.900818 0
M  V30 53108 H 4973.39 -2.9784 -1.26779 0
M  V30 53109 H 4972.3 -3.61568 0.960182 0
M  V30 53110 H 4973.63 -4.76213 1.24426 0
M  V30 53111 N 4975.28 -0.632002 -1.44373 0
M  V30 53112 C 4976.51 -0.143731 -2.06099 0
M  V30 53113 C 4976.92 1.18728 -1.4731 0
M  V30 53114 O 4976.27 1.73941 -0.590785 0
M  V30 53115 C 4976.33 0.0444838 -3.59472 0
M  V30 53116 C 4975.99 -1.2085 -4.40731 0
M  V30 53117 C 4976.99 -2.1324 -4.74157 0
M  V30 53118 C 4974.67 -1.44416 -4.81092 0
M  V30 53119 C 4976.67 -3.27506 -5.46826 0
M  V30 53120 C 4974.35 -2.58978 -5.5351 0
M  V30 53121 C 4975.35 -3.5035 -5.86297 0
M  V30 53122 O 4975.04 -4.62914 -6.57241 0
M  V30 53123 H 4974.77 -0.0773175 -0.671564 0
M  V30 53124 H 4977.33 -0.866743 -1.86217 0
M  V30 53125 H 4975.56 0.82265 -3.77848 0
M  V30 53126 H 4977.25 0.487419 -4.02963 0
M  V30 53127 H 4978.01 -1.96268 -4.43513 0
M  V30 53128 H 4973.89 -0.741856 -4.54992 0
M  V30 53129 H 4977.43 -3.98846 -5.72335 0
M  V30 53130 H 4973.33 -2.75893 -5.83569 0
M  V30 53131 H 4974.1 -4.61907 -6.7571 0
M  V30 53132 N 4976.76 1.53132 -0.372602 0
M  V30 53133 C 4977.99 2.05775 0.215442 0
M  V30 53134 C 4978.41 1.2456 1.41881 0
M  V30 53135 O 4977.76 0.288014 1.80213 0
M  V30 53136 C 4977.81 3.56452 0.602036 0
M  V30 53137 O 4977.53 4.34589 -0.553512 0
M  V30 53138 C 4979.04 4.25378 1.24772 0
M  V30 53139 H 4976.26 0.67001 0.0364293 0
M  V30 53140 H 4978.8 1.97432 -0.533003 0
M  V30 53141 H 4976.95 3.64923 1.30039 0
M  V30 53142 H 4977.37 5.23953 -0.23952 0
M  V30 53143 H 4978.84 5.32102 1.46873 0
M  V30 53144 H 4979.32 3.79539 2.21013 0
M  V30 53145 H 4979.93 4.21179 0.590604 0
M  V30 53146 N 4978.24 0.101957 1.5727 0
M  V30 53147 C 4979.52 -0.602767 1.86081 0
M  V30 53148 C 4979.9 -1.85908 1.00007 0
M  V30 53149 O 4979.25 -2.28379 0.0743291 0
M  V30 53150 C 4979.46 -0.911576 3.36885 0
M  V30 53151 C 4980.8 -1.27205 4.05097 0
M  V30 53152 O 4981.83 -1.00238 3.41805 0
M  V30 53153 O 4980.69 -1.77742 5.16788 0
M  V30 53154 H 4977.78 -0.302339 0.769753 0
M  V30 53155 H 4980.33 0.135173 1.69161 0
M  V30 53156 H 4979.1 -0.020588 3.91295 0
M  V30 53157 H 4978.72 -1.70526 3.59175 0
M  V30 53158 N 4979.72 -1.56661 -0.171765 0
M  V30 53159 C 4980.95 -1.85834 -0.902739 0
M  V30 53160 C 4981.36 -0.685219 -1.76356 0
M  V30 53161 O 4980.7 0.354884 -1.80239 0
M  V30 53162 C 4980.76 -3.09412 -1.83042 0
M  V30 53163 C 4980.43 -4.42314 -1.14925 0
M  V30 53164 C 4981.42 -5.17344 -0.514922 0
M  V30 53165 C 4979.11 -4.89049 -1.14613 0
M  V30 53166 C 4981.1 -6.37299 0.113418 0
M  V30 53167 C 4978.79 -6.08935 -0.51397 0
M  V30 53168 C 4979.79 -6.82904 0.114704 0
M  V30 53169 O 4979.47 -8.00515 0.736903 0
M  V30 53170 H 4979.21 -0.620724 -0.267726 0
M  V30 53171 H 4981.76 -2.04637 -0.176846 0
M  V30 53172 H 4979.99 -2.86553 -2.59662 0
M  V30 53173 H 4981.68 -3.25035 -2.43119 0
M  V30 53174 H 4982.45 -4.82318 -0.509304 0
M  V30 53175 H 4978.32 -4.31415 -1.62487 0
M  V30 53176 H 4981.87 -6.94974 0.604721 0
M  V30 53177 H 4977.77 -6.43425 -0.517169 0
M  V30 53178 H 4978.53 -8.16024 0.636109 0
M  V30 53179 N 4981.2 0.440304 -1.51324 0
M  V30 53180 C 4982.13 1.55408 -1.67104 0
M  V30 53181 C 4983.11 1.54106 -0.518653 0
M  V30 53182 O 4984.29 1.73277 -0.742115 0
M  V30 53183 C 4981.42 2.9399 -1.6819 0
M  V30 53184 C 4980.46 3.13328 -2.89358 0
M  V30 53185 S 4981.3 2.89941 -4.50216 0
M  V30 53186 C 4982.45 4.3081 -4.54042 0
M  V30 53187 H 4982.69 1.41789 -2.61311 0
M  V30 53188 H 4980.22 0.629792 -1.40972 0
M  V30 53189 H 4982.18 3.73872 -1.695 0
M  V30 53190 H 4980.84 3.04974 -0.751649 0
M  V30 53191 H 4980.03 4.14642 -2.8651 0
M  V30 53192 H 4979.63 2.41266 -2.85774 0
M  V30 53193 H 4981.93 5.23962 -4.295 0
M  V30 53194 H 4982.87 4.38692 -5.55837 0
M  V30 53195 H 4983.28 4.14326 -3.83398 0
M  V30 53196 N 4982.68 1.41421 0.695553 0
M  V30 53197 C 4984.09 1.3634 1.27548 0
M  V30 53198 C 4984.44 0.0465026 1.96145 0
M  V30 53199 O 4983.56 -0.855234 1.98783 0
M  V30 53200 C 4984.16 2.46949 2.31952 0
M  V30 53201 C 4982.72 2.45266 2.8552 0
M  V30 53202 C 4981.86 2.26796 1.59558 0
M  V30 53203 H 4984.81 1.50936 0.490309 0
M  V30 53204 H 4984.84 2.16008 3.13242 0
M  V30 53205 H 4984.35 3.42781 1.81996 0
M  V30 53206 H 4982.45 1.53191 3.39652 0
M  V30 53207 H 4982.56 3.41577 3.35949 0
M  V30 53208 H 4980.93 1.74674 1.85368 0
M  V30 53209 H 4981.71 3.24655 1.11599 0
M  V30 53210 N 4984.15 -0.929811 1.27249 0
M  V30 53211 C 4985.38 -1.7167 1.1638 0
M  V30 53212 C 4985.8 -1.86065 -0.275958 0
M  V30 53213 O 4985.16 -1.35914 -1.19987 0
M  V30 53214 C 4985.21 -3.09519 1.85014 0
M  V30 53215 O 4984.31 -3.96138 1.14667 0
M  V30 53216 H 4983.65 -0.526276 0.404882 0
M  V30 53217 H 4986.18 -1.16375 1.6828 0
M  V30 53218 H 4986.19 -3.59846 1.92289 0
M  V30 53219 H 4984.87 -2.98359 2.8975 0
M  V30 53220 H 4983.45 -3.5458 1.15446 0
M  V30 53221 N 4985.63 -1.09237 -1.13601 0
M  V30 53222 C 4986.56 -0.673977 -2.1802 0
M  V30 53223 C 4987.54 0.318547 -1.59449 0
M  V30 53224 O 4988.73 0.220386 -1.87207 0
M  V30 53225 C 4985.85 0.00739551 -3.38699 0
M  V30 53226 C 4984.9 -0.946628 -4.15862 0
M  V30 53227 S 4985.73 -2.45769 -4.75771 0
M  V30 53228 C 4986.89 -1.78867 -5.99798 0
M  V30 53229 H 4987.12 -1.55855 -2.53173 0
M  V30 53230 H 4984.65 -0.908162 -1.24867 0
M  V30 53231 H 4986.61 0.394225 -4.08603 0
M  V30 53232 H 4985.27 0.868587 -3.01852 0
M  V30 53233 H 4984.47 -0.416918 -5.02273 0
M  V30 53234 H 4984.07 -1.27476 -3.51605 0
M  V30 53235 H 4986.36 -1.11158 -6.68319 0
M  V30 53236 H 4987.3 -2.63186 -6.57373 0
M  V30 53237 H 4987.71 -1.25843 -5.50294 0
M  V30 53238 N 4987.11 1.30792 -0.879276 0
M  V30 53239 C 4988.06 2.28281 -0.340048 0
M  V30 53240 C 4989.03 1.56136 0.56663 0
M  V30 53241 O 4990.21 1.84233 0.496273 0
M  V30 53242 C 4987.35 3.42227 0.444381 0
M  V30 53243 C 4986.46 4.29202 -0.490868 0
M  V30 53244 C 4985.6 5.30303 0.308598 0
M  V30 53245 C 4984.64 6.08927 -0.622486 0
M  V30 53246 N 4983.78 7.01958 0.141303 0
M  V30 53247 H 4988.62 2.7379 -1.17657 0
M  V30 53248 H 4986.15 1.3468 -0.591575 0
M  V30 53249 H 4988.11 4.07042 0.915043 0
M  V30 53250 H 4986.74 2.97803 1.24552 0
M  V30 53251 H 4985.79 3.64747 -1.08001 0
M  V30 53252 H 4987.1 4.84041 -1.20442 0
M  V30 53253 H 4986.26 6.00838 0.841364 0
M  V30 53254 H 4985 4.76144 1.05539 0
M  V30 53255 H 4984 5.37273 -1.16693 0
M  V30 53256 H 4985.23 6.65173 -1.36828 0
M  V30 53257 H 4983.17 6.50195 0.870737 0
M  V30 53258 H 4983.09 7.54259 -0.512725 0
M  V30 53259 H 4984.36 7.76743 0.654998 0
M  V30 53260 N 4988.59 0.639649 1.44036 0
M  V30 53261 C 4990 0.306008 1.56639 0
M  V30 53262 C 4990.2 -1.1905 1.62571 0
M  V30 53263 O 4989.26 -1.97487 1.57338 0
M  V30 53264 C 4990.57 1.00543 2.83393 0
M  V30 53265 C 4992.12 0.984383 2.97118 0
M  V30 53266 C 4992.6 1.66443 4.26686 0
M  V30 53267 N 4994.09 1.63143 4.33519 0
M  V30 53268 C 4994.82 2.12648 5.32511 0
M  V30 53269 N 4994.32 2.70382 6.3786 0
M  V30 53270 N 4996.11 2.03227 5.24076 0
M  V30 53271 H 4988.26 1.61094 1.38428 0
M  V30 53272 H 4990.52 0.676696 0.663918 0
M  V30 53273 H 4990.23 2.06044 2.85024 0
M  V30 53274 H 4990.1 0.548493 3.73191 0
M  V30 53275 H 4992.49 -0.0621755 2.95034 0
M  V30 53276 H 4992.57 1.47989 2.08646 0
M  V30 53277 H 4992.22 2.71049 4.29529 0
M  V30 53278 H 4992.15 1.14369 5.1403 0
M  V30 53279 H 4994.64 1.20999 3.58005 0
M  V30 53280 H 4994.95 3.05867 7.09694 0
M  V30 53281 H 4993.3 2.74436 6.38521 0
M  V30 53282 H 4996.49 1.57838 4.40687 0
M  V30 53283 H 4996.66 2.42118 6.01068 0
M  V30 53284 N 4990.07 -1.52932 0.380717 0
M  V30 53285 C 4991.31 -2.01468 -0.204207 0
M  V30 53286 C 4991.64 -1.26749 -1.47529 0
M  V30 53287 O 4990.9 -0.353791 -1.92475 0
M  V30 53288 C 4991.19 -3.53492 -0.527074 0
M  V30 53289 C 4990.86 -4.46169 0.651452 0
M  V30 53290 C 4989.52 -4.71223 0.974785 0
M  V30 53291 C 4991.87 -5.00904 1.44029 0
M  V30 53292 C 4989.2 -5.48263 2.08866 0
M  V30 53293 C 4991.55 -5.79161 2.54471 0
M  V30 53294 C 4990.22 -6.02497 2.87322 0
M  V30 53295 H 4989.49 -0.737223 -0.0747245 0
M  V30 53296 H 4992.14 -1.84409 0.516298 0
M  V30 53297 H 4990.44 -3.68579 -1.32879 0
M  V30 53298 H 4992.14 -3.88532 -0.992146 0
M  V30 53299 H 4988.73 -4.26827 0.389426 0
M  V30 53300 H 4992.91 -4.81481 1.20374 0
M  V30 53301 H 4988.17 -5.64558 2.34699 0
M  V30 53302 H 4992.34 -6.20577 3.16002 0
M  V30 53303 H 4989.97 -6.61976 3.73754 0
M  V30 53304 N 4991.54 -0.110296 -1.57214 0
M  V30 53305 C 4992.96 0.246325 -1.57688 0
M  V30 53306 C 4993.16 1.67341 -1.12247 0
M  V30 53307 O 4992.22 2.39295 -0.805867 0
M  V30 53308 C 4993.53 0.0209231 -3.00693 0
M  V30 53309 C 4995.08 0.0874977 -3.12878 0
M  V30 53310 C 4995.55 -0.110101 -4.57868 0
M  V30 53311 N 4997.04 -0.0557763 -4.63166 0
M  V30 53312 C 4997.78 -0.183696 -5.73106 0
M  V30 53313 N 4997.27 -0.367301 -6.91826 0
M  V30 53314 N 4999.07 -0.123887 -5.61963 0
M  V30 53315 H 4991.22 -1.04252 -1.85055 0
M  V30 53316 H 4993.48 -0.40982 -0.85484 0
M  V30 53317 H 4993.19 -0.965322 -3.38193 0
M  V30 53318 H 4993.06 0.756618 -3.69534 0
M  V30 53319 H 4995.45 1.06426 -2.75241 0
M  V30 53320 H 4995.53 -0.679936 -2.46598 0
M  V30 53321 H 4995.17 -1.0838 -4.96202 0
M  V30 53322 H 4995.1 0.677213 -5.22227 0
M  V30 53323 H 4997.59 0.0829733 -3.77809 0
M  V30 53324 H 4997.91 -0.45601 -7.71453 0
M  V30 53325 H 4996.25 -0.403164 -6.9383 0
M  V30 53326 H 4999.44 0.0185283 -4.68096 0
M  V30 53327 H 4999.62 -0.227024 -6.47602 0
M  V30 53328 N 4993.02 1.5675 0.163455 0
M  V30 53329 C 4994.44 1.51045 0.515514 0
M  V30 53330 C 4994.64 0.81592 1.84242 0
M  V30 53331 O 4993.69 0.379564 2.49631 0
M  V30 53332 C 4995.01 2.95793 0.54101 0
M  V30 53333 C 4996.55 3.06642 0.627668 0
M  V30 53334 C 4997.03 4.52864 0.683982 0
M  V30 53335 N 4998.52 4.57143 0.746658 0
M  V30 53336 C 4999.26 5.67637 0.810937 0
M  V30 53337 N 4998.75 6.87743 0.835569 0
M  V30 53338 N 5000.54 5.55627 0.850561 0
M  V30 53339 H 4992.7 2.00305 -0.70652 0
M  V30 53340 H 4994.96 0.912867 -0.255691 0
M  V30 53341 H 4994.66 3.49796 -0.365452 0
M  V30 53342 H 4994.54 3.50863 1.38474 0
M  V30 53343 H 4996.93 2.52668 1.52455 0
M  V30 53344 H 4997.01 2.54644 -0.242895 0
M  V30 53345 H 4996.65 5.07471 -0.208679 0
M  V30 53346 H 4996.58 5.02626 1.5708 0
M  V30 53347 H 4999.07 3.70672 0.735587 0
M  V30 53348 H 4999.38 7.67704 0.886009 0
M  V30 53349 H 4997.73 6.90337 0.803716 0
M  V30 53350 H 5000.92 4.60712 0.828373 0
M  V30 53351 H 5001.09 6.41759 0.897193 0
M  V30 53352 N 4994.5 -0.432272 1.51556 0
M  V30 53353 C 4995.41 -1.55017 1.76088 0
M  V30 53354 C 4996.43 -1.61591 0.645322 0
M  V30 53355 O 4997.6 -1.78738 0.928148 0
M  V30 53356 C 4994.67 -2.90957 1.88533 0
M  V30 53357 C 4993.73 -2.94459 3.12398 0
M  V30 53358 C 4992.96 -4.23915 3.2424 0
M  V30 53359 O 4993.18 -5.16567 2.41898 0
M  V30 53360 O 4992.12 -4.33804 4.17251 0
M  V30 53361 H 4995.94 -1.37229 2.70928 0
M  V30 53362 H 4993.53 -0.615797 1.36119 0
M  V30 53363 H 4995.41 -3.71626 1.98675 0
M  V30 53364 H 4994.09 -3.08862 0.968809 0
M  V30 53365 H 4992.99 -2.12726 3.07731 0
M  V30 53366 H 4994.33 -2.81499 4.03756 0
M  V30 53367 N 4995.98 -1.41788 -0.688044 0
M  V30 53368 C 4996.89 -1.46602 -1.83153 0
M  V30 53369 C 4997.9 -0.355922 -1.70321 0
M  V30 53370 O 4999.08 -0.604804 -1.92104 0
M  V30 53371 C 4996.14 -1.35333 -3.19196 0
M  V30 53372 C 4995.21 -2.56723 -3.44081 0
M  V30 53373 C 4994.44 -2.45981 -4.73634 0
M  V30 53374 O 4994.66 -1.48846 -5.50637 0
M  V30 53375 O 4993.6 -3.35877 -4.9947 0
M  V30 53376 H 4997.42 -2.4309 -1.82047 0
M  V30 53377 H 4995.01 -1.23407 -0.842082 0
M  V30 53378 H 4996.89 -1.31361 -4.00403 0
M  V30 53379 H 4995.56 -0.419649 -3.20968 0
M  V30 53380 H 4994.47 -2.66271 -2.62775 0
M  V30 53381 H 4995.8 -3.48945 -3.47129 0
M  V30 53382 N 4997.46 0.92305 -1.2774 0
M  V30 53383 C 4998.37 2.05761 -1.12692 0
M  V30 53384 C 4999.38 1.73911 -0.0557808 0
M  V30 53385 O 5000.56 1.99673 -0.263207 0
M  V30 53386 C 4997.62 3.37801 -0.780482 0
M  V30 53387 C 4996.68 3.8332 -1.93299 0
M  V30 53388 C 4995.92 5.09058 -1.60299 0
M  V30 53389 O 4996.14 5.68088 -0.513028 0
M  V30 53390 O 4995.07 5.50062 -2.44366 0
M  V30 53391 H 4998.9 2.21371 -2.07915 0
M  V30 53392 H 4996.49 1.04295 -1.06971 0
M  V30 53393 H 4998.37 4.17095 -0.600815 0
M  V30 53394 H 4997.04 3.23388 0.142177 0
M  V30 53395 H 4995.95 3.04892 -2.16775 0
M  V30 53396 H 4997.28 4.02282 -2.83602 0
M  V30 53397 N 4998.93 1.09838 1.1302 0
M  V30 53398 C 4999.84 0.753809 2.2216 0
M  V30 53399 C 5000.86 -0.246044 1.72252 0
M  V30 53400 O 5002.04 -0.0863343 2.01215 0
M  V30 53401 C 4999.1 0.18408 3.46211 0
M  V30 53402 C 4998.16 1.24042 4.10989 0
M  V30 53403 C 4997.4 0.697783 5.29119 0
M  V30 53404 O 4997.62 -0.477892 5.68395 0
M  V30 53405 O 4996.55 1.45481 5.84054 0
M  V30 53406 H 5000.38 1.66465 2.54014 0
M  V30 53407 H 4997.96 0.873069 1.21235 0
M  V30 53408 H 4999.85 -0.130109 4.21199 0
M  V30 53409 H 4998.52 -0.699711 3.16047 0
M  V30 53410 H 4997.43 1.60737 3.37808 0
M  V30 53411 H 4998.76 2.09701 4.45294 0
M  V30 53412 N 5000.41 -1.30324 0.8862 0
M  V30 53413 C 5001.38 -2.26375 0.358766 0
M  V30 53414 C 5002.38 -1.52847 -0.499444 0
M  V30 53415 O 5003.57 -1.71484 -0.306425 0
M  V30 53416 C 5000.7 -3.3738 -0.488607 0
M  V30 53417 H 5001.89 -2.74543 1.20691 0
M  V30 53418 H 4999.44 -1.41534 0.663163 0
M  V30 53419 H 5000.18 -2.94531 -1.35729 0
M  V30 53420 H 4999.96 -3.91897 0.126141 0
M  V30 53421 H 5001.45 -4.08871 -0.849376 0
M  V30 53422 N 5001.89 -0.647279 -1.43694 0
M  V30 53423 C 5003.14 -0.157946 -2.01482 0
M  V30 53424 C 5003.46 1.23034 -1.51287 0
M  V30 53425 O 5002.73 1.82068 -0.723046 0
M  V30 53426 H 5001.31 -0.0554007 -0.744943 0
M  V30 53427 H 5003.97 -0.837612 -1.75983 0
M  V30 53428 H 5003.07 -0.138004 -3.11795 0
M  V30 53429 N 5003.37 1.52728 -0.388822 0
M  V30 53430 C 5004.61 2.01872 0.193806 0
M  V30 53431 C 5004.95 1.2748 1.46501 0
M  V30 53432 O 5004.22 0.37513 1.90848 0
M  V30 53433 C 5004.51 3.57121 0.462211 0
M  V30 53434 C 5004.36 4.42183 -0.824247 0
M  V30 53435 C 5005.68 4.21885 1.25304 0
M  V30 53436 H 5002.8 0.733766 0.0689642 0
M  V30 53437 H 5005.44 1.82794 -0.518295 0
M  V30 53438 H 5003.59 3.73508 1.06883 0
M  V30 53439 H 5005.26 4.37549 -1.46111 0
M  V30 53440 H 5003.5 4.09214 -1.43967 0
M  V30 53441 H 5004.17 5.48826 -0.591098 0
M  V30 53442 H 5006.65 4.09473 0.739666 0
M  V30 53443 H 5005.53 5.30492 1.40958 0
M  V30 53444 H 5005.79 3.79486 2.26811 0
M  V30 53445 N 5004.85 0.118632 1.57153 0
M  V30 53446 C 5005.78 -0.828359 2.18313 0
M  V30 53447 C 5006.76 -1.27754 1.12307 0
M  V30 53448 O 5007.94 -1.34021 1.40542 0
M  V30 53449 C 5005.07 -2.07867 2.78224 0
M  V30 53450 C 5004.03 -1.76729 3.89809 0
M  V30 53451 C 5003.35 -3.08786 4.36527 0
M  V30 53452 C 5004.65 -1.03588 5.11925 0
M  V30 53453 H 5006.35 -0.31872 2.97699 0
M  V30 53454 H 5003.89 -0.15186 1.43197 0
M  V30 53455 H 5005.85 -2.74572 3.19668 0
M  V30 53456 H 5004.57 -2.61154 1.96127 0
M  V30 53457 H 5003.23 -1.12412 3.4894 0
M  V30 53458 H 5002.88 -3.60007 3.51289 0
M  V30 53459 H 5002.58 -2.88725 5.11773 0
M  V30 53460 H 5004.1 -3.7661 4.80621 0
M  V30 53461 H 5005.51 -1.60447 5.5039 0
M  V30 53462 H 5003.91 -0.936246 5.92752 0
M  V30 53463 H 5004.98 -0.0225716 4.84895 0
M  V30 53464 N 5006.32 -1.56835 -0.15514 0
M  V30 53465 C 5007.57 -1.84061 -0.865622 0
M  V30 53466 C 5007.93 -0.701481 -1.79156 0
M  V30 53467 O 5007.22 0.301096 -1.89219 0
M  V30 53468 C 5007.41 -3.15245 -1.6839 0
M  V30 53469 C 5007.24 -4.4181 -0.838691 0
M  V30 53470 C 5006.01 -5.02745 -0.507468 0
M  V30 53471 C 5008.21 -5.1401 -0.172765 0
M  V30 53472 N 5006.19 -6.12889 0.352194 0
M  V30 53473 C 5007.56 -6.17579 0.547375 0
M  V30 53474 C 5009.62 -4.97814 -0.0925971 0
M  V30 53475 C 5008.32 -7.06706 1.3401 0
M  V30 53476 C 5010.35 -5.87398 0.686844 0
M  V30 53477 C 5009.71 -6.90443 1.39529 0
M  V30 53478 H 5005.81 -0.724286 -0.294845 0
M  V30 53479 H 5008.39 -1.94255 -0.131514 0
M  V30 53480 H 5006.56 -3.06213 -2.38931 0
M  V30 53481 H 5008.29 -3.30408 -2.33693 0
M  V30 53482 H 5005.05 -4.66067 -0.841353 0
M  V30 53483 H 5005.47 -6.72575 0.772809 0
M  V30 53484 H 5010.12 -4.18141 -0.625965 0
M  V30 53485 H 5007.83 -7.85813 1.88476 0
M  V30 53486 H 5011.42 -5.76936 0.750758 0
M  V30 53487 H 5010.3 -7.58564 1.98874 0
M  V30 53488 O 5007.84 0.299934 -1.5869 0
M  V30 53489 H 5008.53 0.946955 -1.68975 0
M  V30 END ATOM
M  V30 BEGIN BOND
M  V30 END BOND
M  V30 END CTAB
M  END
$$$$
