drugbank_target|P0AES2 Glucarate dehydratase (DB03212; DB03237; DB03603; DB03734)
 OpenBabel12092120033D

  0  0  0     0  0            999 V3000
M  V30 BEGIN CTAB
M  V30 COUNTS 6845 6924 0 0 0
M  V30 BEGIN ATOM
M  V30 1 H -0.908 1.98254 -0.117106 0
M  V30 2 N 0 1.576 0 0
M  V30 3 C 0.933 2.03868 1.02534 0
M  V30 4 C 1.911 0.928543 1.3348 0
M  V30 5 O 3.095 1.19667 1.45644 0
M  V30 6 C 0.222 2.43627 2.35294 0
M  V30 7 C -0.732 3.65373 2.2001 0
M  V30 8 S 0.101 5.13292 1.52614 0
M  V30 9 C 1.257 5.56322 2.86805 0
M  V30 10 H 1.49 2.90518 0.631377 0
M  V30 11 H -0.977 1.52953 0.210867 0
M  V30 12 H 0.981 2.67203 3.11629 0
M  V30 13 H -0.358 1.57376 2.7183 0
M  V30 14 H -1.165 3.90944 3.18086 0
M  V30 15 H -1.563 3.418 1.51819 0
M  V30 16 H 0.729 5.58782 3.83104 0
M  V30 17 H 1.672 6.56266 2.65933 0
M  V30 18 H 2.08 4.83886 2.90714 0
M  V30 19 N 1.4781 -0.272755 1.55222 0
M  V30 20 C 2.7031 -1.02683 1.80197 0
M  V30 21 C 3.1281 -1.79142 0.573551 0
M  V30 22 O 2.4861 -1.74917 -0.476849 0
M  V30 23 C 2.5341 -1.9609 3.02624 0
M  V30 24 O 1.6381 -3.04863 2.77727 0
M  V30 25 H 0.9791 -0.293557 0.595584 0
M  V30 26 H 3.5091 -0.30159 2.02365 0
M  V30 27 H 3.5191 -2.38039 3.31363 0
M  V30 28 H 2.1941 -1.39851 3.91682 0
M  V30 29 H 0.7711 -2.67228 2.60084 0
M  V30 30 N 2.9562 -1.48159 -0.537278 0
M  V30 31 C 4.1812 -1.59707 -1.32319 0
M  V30 32 C 4.6062 -0.254859 -1.86365 0
M  V30 33 O 3.9642 0.772378 -1.64024 0
M  V30 34 C 4.0122 -2.6412 -2.45505 0
M  V30 35 O 3.1162 -2.20774 -3.48328 0
M  V30 36 H 2.4572 -0.535791 -0.392204 0
M  V30 37 H 4.9872 -1.94092 -0.647268 0
M  V30 38 H 4.9972 -2.85166 -2.91795 0
M  V30 39 H 3.6722 -3.61567 -2.05528 0
M  V30 40 H 2.2492 -2.09911 -3.08207 0
M  V30 41 N 4.4343 0.785586 -1.36625 0
M  V30 42 C 5.3663 1.90711 -1.2713 0
M  V30 43 C 6.3793 1.61688 -0.189986 0
M  V30 44 O 7.5683 1.72864 -0.445014 0
M  V30 45 C 4.6683 3.25611 -0.939713 0
M  V30 46 C 3.8413 3.82385 -2.12369 0
M  V30 47 C 2.9003 4.95732 -1.76456 0
M  V30 48 O 1.9263 5.12047 -2.48589 0
M  V30 49 N 3.1283 5.76258 -0.700492 0
M  V30 50 H 5.8933 1.99376 -2.23762 0
M  V30 51 H 3.4543 0.964041 -1.30069 0
M  V30 52 H 5.4463 3.98937 -0.680554 0
M  V30 53 H 4.0163 3.12538 -0.0624074 0
M  V30 54 H 3.2363 3.01001 -2.54543 0
M  V30 55 H 4.5243 4.17047 -2.9146 0
M  V30 56 H 3.9223 5.65609 -0.101624 0
M  V30 57 H 2.4793 6.4987 -0.501165 0
M  V30 58 N 5.9124 1.20967 1.01018 0
M  V30 59 C 7.1594 1.02374 1.74716 0
M  V30 60 C 7.4874 -0.443375 1.89379 0
M  V30 61 O 6.7424 -1.34535 1.42123 0
M  V30 62 C 7.0414 1.65997 3.16512 0
M  V30 63 C 6.7074 3.15831 3.2181 0
M  V30 64 C 5.3694 3.56719 3.22963 0
M  V30 65 C 7.7214 4.11816 3.19464 0
M  V30 66 C 5.0494 4.92107 3.19449 0
M  V30 67 C 7.4014 5.47158 3.17491 0
M  V30 68 C 6.0654 5.87451 3.16951 0
M  V30 69 H 5.3354 0.374614 0.639332 0
M  V30 70 H 7.9824 1.50485 1.18434 0
M  V30 71 H 6.2874 1.10166 3.75993 0
M  V30 72 H 7.9844 1.49119 3.72242 0
M  V30 73 H 4.5744 2.83263 3.21652 0
M  V30 74 H 8.7584 3.81257 3.17737 0
M  V30 75 H 4.0144 5.22579 3.17366 0
M  V30 76 H 8.1884 6.21274 3.14629 0
M  V30 77 H 5.8154 6.92329 3.13983 0
M  V30 78 N 7.3905 -1.2043 1.01659 0
M  V30 79 C 8.6185 -1.93777 0.725132 0
M  V30 80 C 9.0335 -1.74772 -0.714166 0
M  V30 81 O 8.3905 -1.06169 -1.4844 0
M  V30 82 C 8.4415 -3.45876 1.05129 0
M  V30 83 O 8.1625 -3.6426 2.43406 0
M  V30 84 C 9.6635 -4.36368 0.780891 0
M  V30 85 H 6.8835 -0.615901 0.266284 0
M  V30 86 H 9.4275 -1.52922 1.35776 0
M  V30 87 H 7.5825 -3.8461 0.464065 0
M  V30 88 H 7.9965 -4.58246 2.55169 0
M  V30 89 H 9.4705 -5.41743 1.05918 0
M  V30 90 H 9.9475 -4.38275 -0.284937 0
M  V30 91 H 10.5535 -4.03296 1.35027 0
M  V30 92 N 8.8686 -0.792821 -1.36206 0
M  V30 93 C 10.0966 -0.378825 -2.03402 0
M  V30 94 C 10.5116 1.00586 -1.59774 0
M  V30 95 O 9.8686 1.64574 -0.788764 0
M  V30 96 C 9.9196 -0.43683 -3.58851 0
M  V30 97 O 9.6406 -1.76691 -4.00889 0
M  V30 98 C 11.1416 -0.0138943 -4.43298 0
M  V30 99 H 8.3616 -0.155673 -0.652692 0
M  V30 100 H 10.9056 -1.07261 -1.74113 0
M  V30 101 H 9.0606 0.208575 -3.86838 0
M  V30 102 H 9.4746 -1.72011 -4.95492 0
M  V30 103 H 10.9486 -0.105615 -5.51899 0
M  V30 104 H 11.4256 1.03915 -4.2673 0
M  V30 105 H 12.0316 -0.63192 -4.20579 0
M  V30 106 N 10.3467 1.47872 -0.545128 0
M  V30 107 C 11.7577 1.86384 -0.108581 0
M  V30 108 C 12.1087 1.45309 1.31832 0
M  V30 109 O 11.2337 0.850641 1.9898 0
M  V30 110 C 11.8287 3.38265 -0.190274 0
M  V30 111 C 10.3877 3.75914 0.191164 0
M  V30 112 C 9.5347 2.71926 -0.543273 0
M  V30 113 H 12.4857 1.39561 -0.755537 0
M  V30 114 H 12.5067 3.75831 0.594217 0
M  V30 115 H 12.0187 3.6813 -1.2289 0
M  V30 116 H 10.1197 3.51665 1.23136 0
M  V30 117 H 10.2327 4.78836 -0.158987 0
M  V30 118 H 8.5967 2.54697 0.0122495 0
M  V30 119 H 9.3797 3.04634 -1.58282 0
M  V30 120 N 11.8248 0.280983 1.55075 0
M  V30 121 C 13.0708 -0.33461 2.00021 0
M  V30 122 C 13.4038 -1.55063 1.16915 0
M  V30 123 O 12.6788 -1.93006 0.240646 0
M  V30 124 C 12.9618 -0.711007 3.53011 0
M  V30 125 C 12.8148 0.512766 4.46868 0
M  V30 126 C 14.1338 -1.54522 4.12081 0
M  V30 127 H 11.2528 -0.120147 0.727141 0
M  V30 128 H 13.8948 0.389097 1.85973 0
M  V30 129 H 12.0448 -1.32761 3.65112 0
M  V30 130 H 13.7168 1.15131 4.46702 0
M  V30 131 H 11.9598 1.14975 4.18286 0
M  V30 132 H 12.6308 0.205556 5.51617 0
M  V30 133 H 15.1068 -1.02442 4.03293 0
M  V30 134 H 13.9828 -1.77739 5.19327 0
M  V30 135 H 14.2438 -2.52813 3.62682 0
M  V30 136 N 13.3029 -1.57598 0.00835791 0
M  V30 137 C 14.5489 -1.91211 -0.675732 0
M  V30 138 C 14.8819 -0.883139 -1.72958 0
M  V30 139 O 14.1569 0.097016 -1.94258 0
M  V30 140 C 14.4399 -3.35379 -1.31123 0
M  V30 141 C 14.2929 -4.48999 -0.268356 0
M  V30 142 C 15.6119 -3.7912 -2.23508 0
M  V30 143 H 12.7309 -0.695374 -0.244179 0
M  V30 144 H 15.3729 -1.89901 0.0613655 0
M  V30 145 H 13.5229 -3.36626 -1.93946 0
M  V30 146 H 15.1949 -4.59887 0.360844 0
M  V30 147 H 13.4379 -4.31873 0.408482 0
M  V30 148 H 14.1089 -5.46851 -0.752218 0
M  V30 149 H 16.5849 -3.79477 -1.70693 0
M  V30 150 H 15.4609 -4.80729 -2.64936 0
M  V30 151 H 15.7219 -3.13455 -3.11766 0
M  V30 152 N 14.781 0.264519 -1.55364 0
M  V30 153 C 16.009 1.013 -1.80405 0
M  V30 154 C 16.424 1.79618 -0.581622 0
M  V30 155 O 15.781 1.76879 0.449468 0
M  V30 156 C 15.832 1.96487 -3.03439 0
M  V30 157 O 15.553 1.21341 -4.20961 0
M  V30 158 C 17.054 2.83079 -3.41147 0
M  V30 159 H 14.274 0.298875 -0.600762 0
M  V30 160 H 16.818 0.292736 -2.02394 0
M  V30 161 H 14.973 2.63965 -2.83551 0
M  V30 162 H 15.387 1.85573 -4.90574 0
M  V30 163 H 16.861 3.4565 -4.30384 0
M  V30 164 H 17.338 3.53286 -2.60932 0
M  V30 165 H 17.944 2.2108 -3.63323 0
M  V30 166 N 16.2591 1.48442 0.529413 0
M  V30 167 C 17.1691 1.6569 1.66084 0
M  V30 168 C 18.1851 0.539432 1.65427 0
M  V30 169 O 19.3611 0.810572 1.84368 0
M  V30 170 C 16.4261 1.69315 3.02545 0
M  V30 171 C 15.4871 2.92694 3.14052 0
M  V30 172 C 14.7201 2.96137 4.44003 0
M  V30 173 O 14.9431 2.07973 5.31134 0
M  V30 174 O 13.8771 3.88312 4.59888 0
M  V30 175 H 17.7031 2.61483 1.54469 0
M  V30 176 H 15.2881 1.3185 0.702567 0
M  V30 177 H 17.1701 1.74217 3.83701 0
M  V30 178 H 15.8451 0.766966 3.14483 0
M  V30 179 H 14.7521 2.93324 2.32189 0
M  V30 180 H 16.0851 3.84699 3.0703 0
M  V30 181 N 17.7372 -0.778329 1.37039 0
M  V30 182 C 18.6702 -1.8984 1.26633 0
M  V30 183 C 19.6482 -1.61923 0.148197 0
M  V30 184 O 20.8322 -1.85742 0.321265 0
M  V30 185 C 17.9592 -3.24916 0.956403 0
M  V30 186 C 17.0052 -3.71752 2.09051 0
M  V30 187 S 17.8382 -3.86201 3.70957 0
M  V30 188 C 18.9942 -5.24135 3.42101 0
M  V30 189 H 19.2272 -1.98377 2.21436 0
M  V30 190 H 16.7602 -0.938738 1.22585 0
M  V30 191 H 18.7182 -4.02936 0.784409 0
M  V30 192 H 17.3792 -3.14089 0.0259713 0
M  V30 193 H 16.5722 -4.69661 1.8285 0
M  V30 194 H 16.1742 -3.00815 2.2223 0
M  V30 195 H 18.4662 -6.09086 2.96682 0
M  V30 196 H 19.4092 -5.55346 4.39314 0
M  V30 197 H 19.8172 -4.91761 2.77185 0
M  V30 198 N 19.2153 -1.21501 -1.00376 0
M  V30 199 C 20.1473 -0.933174 -2.09343 0
M  V30 200 C 21.1603 0.0840896 -1.62583 0
M  V30 201 O 22.3493 -0.148563 -1.77881 0
M  V30 202 C 19.4493 -0.379869 -3.36764 0
M  V30 203 C 18.6223 -1.45176 -4.12605 0
M  V30 204 C 17.6813 -0.907476 -5.18316 0
M  V30 205 O 16.7073 -1.5912 -5.46507 0
M  V30 206 N 17.9093 0.276649 -5.7984 0
M  V30 207 H 20.6743 -1.87124 -2.34104 0
M  V30 208 H 18.2353 -1.12043 -1.16867 0
M  V30 209 H 20.2273 -0.00131488 -4.047 0
M  V30 210 H 18.7973 0.463048 -3.09151 0
M  V30 211 H 18.0173 -2.00411 -3.39454 0
M  V30 212 H 19.3053 -2.17328 -4.6005 0
M  V30 213 H 18.7033 0.849147 -5.59291 0
M  V30 214 H 17.2603 0.596702 -6.49063 0
M  V30 215 N 20.6934 1.19889 -1.02296 0
M  V30 216 C 21.9394 1.89701 -0.717033 0
M  V30 217 C 22.2724 1.7905 0.751989 0
M  V30 218 O 21.5474 1.17891 1.547 0
M  V30 219 C 21.8304 3.40858 -1.16136 0
M  V30 220 C 21.6834 3.60411 -2.69117 0
M  V30 221 C 23.0024 4.33876 -0.737549 0
M  V30 222 H 20.1214 0.688874 -0.261957 0
M  V30 223 H 22.7634 1.41154 -1.27183 0
M  V30 224 H 20.9134 3.82335 -0.689342 0
M  V30 225 H 22.5854 3.28145 -3.2422 0
M  V30 226 H 20.8284 3.03665 -3.0979 0
M  V30 227 H 21.4994 4.66396 -2.95261 0
M  V30 228 H 23.9754 4.00081 -1.14344 0
M  V30 229 H 22.8514 5.38242 -1.0764 0
M  V30 230 H 23.1124 4.40628 0.360436 0
M  V30 231 N 22.1715 0.800033 1.35784 0
M  V30 232 C 23.4205 0.37387 1.98205 0
M  V30 233 C 23.7335 -1.06302 1.64193 0
M  V30 234 O 24.9395 -1.59198 2.19928 0
M  V30 235 C 23.3955 0.617532 3.54562 0
M  V30 236 C 23.0035 2.06654 3.9749 0
M  V30 237 C 24.7475 0.256401 4.23725 0
M  V30 238 C 22.6545 2.2563 5.46667 0
M  V30 239 H 21.5845 0.136055 0.741623 0
M  V30 240 H 24.2355 0.983166 1.54939 0
M  V30 241 H 22.6175 -0.0616248 3.95952 0
M  V30 242 H 23.7915 2.78296 3.67271 0
M  V30 243 H 22.1065 2.38691 3.41197 0
M  V30 244 H 24.7035 0.376318 5.33374 0
M  V30 245 H 25.0465 -0.796692 4.08606 0
M  V30 246 H 25.5795 0.889214 3.87734 0
M  V30 247 H 22.3185 3.2936 5.66747 0
M  V30 248 H 21.8385 1.58504 5.78478 0
M  V30 249 H 23.5175 2.06861 6.1304 0
M  V30 250 N 23.6496 -1.47581 0.552962 0
M  V30 251 C 25.0606 -1.86324 0.118463 0
M  V30 252 C 25.4116 -1.46006 -1.3106 0
M  V30 253 O 24.5366 -0.861182 -1.98526 0
M  V30 254 C 25.1316 -3.3816 0.20821 0
M  V30 255 C 23.6906 -3.7601 -0.171226 0
M  V30 256 C 22.8376 -2.71634 0.557686 0
M  V30 257 H 25.7886 -1.39159 0.762928 0
M  V30 258 H 25.8096 -3.76141 -0.574278 0
M  V30 259 H 25.3216 -3.67473 1.24841 0
M  V30 260 H 23.4226 -3.52313 -1.21269 0
M  V30 261 H 23.5356 -4.78745 0.184379 0
M  V30 262 H 21.8996 -2.547 0.00125792 0
M  V30 263 H 22.6826 -3.0379 1.59896 0
M  V30 264 N 25.1277 -0.289203 -1.54924 0
M  V30 265 C 26.3737 0.323998 -2.00195 0
M  V30 266 C 26.7067 1.54441 -1.17735 0
M  V30 267 O 25.9817 1.92875 -0.250878 0
M  V30 268 C 26.2647 0.692276 -3.53383 0
M  V30 269 C 26.1177 -0.536457 -4.46589 0
M  V30 270 C 27.4367 1.52335 -4.12895 0
M  V30 271 H 24.5557 0.116289 -0.727768 0
M  V30 272 H 27.1977 -0.398954 -1.85764 0
M  V30 273 H 25.3477 1.30822 -3.65811 0
M  V30 274 H 27.0197 -1.17499 -4.46085 0
M  V30 275 H 25.2627 -1.17192 -4.1767 0
M  V30 276 H 25.9337 -0.234806 -5.515 0
M  V30 277 H 28.4097 1.00302 -4.0383 0
M  V30 278 H 27.2857 1.74982 -5.20262 0
M  V30 279 H 27.5467 2.50886 -3.64018 0
M  V30 280 N 26.6058 1.57591 -0.0167156 0
M  V30 281 C 27.5688 2.08393 0.954204 0
M  V30 282 C 28.5688 0.996531 1.26198 0
M  V30 283 O 29.7588 1.25858 1.20438 0
M  V30 284 C 26.8908 2.5394 2.27436 0
M  V30 285 H 28.0838 2.95455 0.514451 0
M  V30 286 H 25.6368 1.54582 0.231089 0
M  V30 287 H 26.3718 1.70171 2.76066 0
M  V30 288 H 26.1568 3.33371 2.06412 0
M  V30 289 H 27.6468 2.93512 2.97053 0
M  V30 290 N 28.0839 -0.256276 1.55502 0
M  V30 291 C 29.3319 -0.983672 1.76545 0
M  V30 292 C 29.6529 -1.86206 0.578982 0
M  V30 293 O 28.9229 -1.91656 -0.405577 0
M  V30 294 H 27.5029 -0.366191 0.651086 0
M  V30 295 H 30.1649 -0.276479 1.92929 0
M  V30 296 H 29.2609 -1.61087 2.67315 0
M  V30 297 N 29.562 -1.4872 -0.521534 0
M  V30 298 C 30.512 -1.60269 -1.62166 0
M  V30 299 C 31.496 -0.45935 -1.54204 0
M  V30 300 O 32.688 -0.711241 -1.62081 0
M  V30 301 C 29.817 -1.65344 -3.00859 0
M  V30 302 C 28.903 -2.85187 -3.13894 0
M  V30 303 N 29.294 -4.09509 -2.96877 0
M  V30 304 C 27.592 -2.82695 -3.44963 0
M  V30 305 C 28.293 -4.89959 -3.13552 0
M  V30 306 N 27.269 -4.22934 -3.41508 0
M  V30 307 H 31.071 -2.5413 -1.47632 0
M  V30 308 H 28.585 -1.45209 -0.727194 0
M  V30 309 H 30.582 -1.71713 -3.79895 0
M  V30 310 H 29.242 -0.726058 -3.16478 0
M  V30 311 H 30.253 -4.39814 -2.73467 0
M  V30 312 H 26.93 -1.99249 -3.66887 0
M  V30 313 H 28.32 -5.98654 -3.05061 0
M  V30 314 N 31.0401 0.771051 -1.3745 0
M  V30 315 C 32.3171 1.519 -1.23231 0
M  V30 316 C 32.6971 2.10383 0.173809 0
M  V30 317 O 32.0451 1.95583 1.18151 0
M  V30 318 C 32.2551 2.59933 -2.32886 0
M  V30 319 C 33.6031 3.27316 -2.70461 0
M  V30 320 O 34.6271 2.70228 -2.32068 0
M  V30 321 O 33.4861 4.30531 -3.36608 0
M  V30 322 H 30.5801 0.672803 -0.480901 0
M  V30 323 H 33.1261 0.807957 -1.49232 0
M  V30 324 H 31.8981 2.14842 -3.27045 0
M  V30 325 H 31.5211 3.38637 -2.08353 0
M  V30 326 N 32.5182 1.22032 0.997298 0
M  V30 327 C 33.7432 1.06921 1.77715 0
M  V30 328 C 34.1682 -0.376226 1.84299 0
M  V30 329 O 33.5262 -1.27165 1.29223 0
M  V30 330 C 33.5742 1.67996 3.19076 0
M  V30 331 O 32.6782 0.930653 4.01762 0
M  V30 332 H 32.0192 0.375814 0.547412 0
M  V30 333 H 34.5492 1.61737 1.25309 0
M  V30 334 H 34.5592 1.72538 3.69723 0
M  V30 335 H 33.2342 2.73182 3.13599 0
M  V30 336 H 31.8112 0.960917 3.60307 0
M  V30 337 N 33.9963 -1.19345 1.0293 0
M  V30 338 C 34.9293 -2.21347 0.555029 0
M  V30 339 C 35.9073 -1.57492 -0.404351 0
M  V30 340 O 37.0913 -1.85741 -0.321352 0
M  V30 341 C 34.2183 -3.38163 -0.19064 0
M  V30 342 C 33.2643 -4.20375 0.720236 0
M  V30 343 S 34.0973 -4.88371 2.19668 0
M  V30 344 C 35.2533 -6.08597 1.46153 0
M  V30 345 H 35.4863 -2.61235 1.41929 0
M  V30 346 H 33.0193 -1.29598 0.839272 0
M  V30 347 H 34.9773 -4.05871 -0.614724 0
M  V30 348 H 33.6383 -2.9671 -1.03063 0
M  V30 349 H 32.8313 -5.03793 0.14455 0
M  V30 350 H 32.4333 -3.57987 1.08266 0
M  V30 351 H 34.7253 -6.73354 0.748357 0
M  V30 352 H 35.6683 -6.7065 2.27233 0
M  V30 353 H 36.0763 -5.56297 0.958842 0
M  V30 354 N 35.4744 -0.807222 -1.35358 0
M  V30 355 C 36.4044 -0.232509 -2.3234 0
M  V30 356 C 37.3854 0.642386 -1.57504 0
M  V30 357 O 38.5704 0.572526 -1.85569 0
M  V30 358 C 35.7004 0.619238 -3.41735 0
M  V30 359 C 34.6544 -0.157215 -4.27711 0
M  V30 360 C 33.9804 0.816273 -5.28433 0
M  V30 361 C 35.2804 -1.35656 -5.04376 0
M  V30 362 H 36.9744 -1.04276 -2.80654 0
M  V30 363 H 34.5204 -0.50288 -1.34934 0
M  V30 364 H 36.4734 1.03137 -4.08584 0
M  V30 365 H 35.1974 1.46239 -2.92031 0
M  V30 366 H 33.8564 -0.550525 -3.62443 0
M  V30 367 H 33.5044 1.65494 -4.74996 0
M  V30 368 H 33.2044 0.301067 -5.86828 0
M  V30 369 H 34.7284 1.22659 -5.98153 0
M  V30 370 H 36.1424 -1.01927 -5.64166 0
M  V30 371 H 34.5394 -1.8063 -5.7227 0
M  V30 372 H 35.6094 -2.14288 -4.34981 0
M  V30 373 N 36.9525 1.47285 -0.560781 0
M  V30 374 C 37.8855 2.27009 0.232821 0
M  V30 375 C 38.8635 1.34273 0.917039 0
M  V30 376 O 40.0475 1.63659 0.935315 0
M  V30 377 C 37.1745 3.11406 1.33206 0
M  V30 378 C 36.2205 4.19746 0.756019 0
M  V30 379 S 37.0535 5.34003 -0.400165 0
M  V30 380 C 38.2095 6.21964 0.700805 0
M  V30 381 H 38.4425 2.93971 -0.443683 0
M  V30 382 H 35.9755 1.50446 -0.347181 0
M  V30 383 H 37.9335 3.60601 1.96156 0
M  V30 384 H 36.5945 2.438 1.98041 0
M  V30 385 H 35.7875 4.78541 1.5816 0
M  V30 386 H 35.3895 3.73451 0.202619 0
M  V30 387 H 37.6815 6.58529 1.59202 0
M  V30 388 H 38.6245 7.07941 0.150126 0
M  V30 389 H 39.0325 5.5566 0.995083 0
M  V30 390 N 38.4306 0.297415 1.54768 0
M  V30 391 C 39.3786 -0.596051 2.24833 0
M  V30 392 C 40.3726 -1.13992 1.25308 0
M  V30 393 O 41.5786 -1.09098 1.4317 0
M  V30 394 H 37.9536 -0.210814 0.721846 0
M  V30 395 H 39.9246 0.0174667 2.98395 0
M  V30 396 C 38.6736 -1.75818 2.99972 0
M  V30 397 H 37.9966 -1.3489 3.76357 0
M  V30 398 H 39.4366 -2.35949 3.52284 0
M  V30 399 C 37.8956 -2.66014 2.06732 0
M  V30 400 O 38.4256 -3.67009 1.63302 0
M  V30 401 N 36.6316 -2.33669 1.72763 0
M  V30 402 H 36.1786 -1.51586 2.08277 0
M  V30 403 H 36.1366 -2.94285 1.10652 0
M  V30 404 N 39.9087 -1.5758 0.0250728 0
M  V30 405 C 40.8387 -2.13007 -0.956575 0
M  V30 406 C 41.8197 -1.0452 -1.342 0
M  V30 407 O 43.0047 -1.32332 -1.42133 0
M  V30 408 C 40.1347 -2.65386 -2.24026 0
M  V30 409 C 39.0887 -3.78623 -1.99571 0
M  V30 410 C 38.4147 -4.17414 -3.3417 0
M  V30 411 C 39.7147 -5.04867 -1.33814 0
M  V30 412 H 41.4087 -2.9528 -0.494991 0
M  V30 413 H 38.9547 -1.42042 -0.236651 0
M  V30 414 H 40.9077 -3.02794 -2.93076 0
M  V30 415 H 39.6317 -1.80268 -2.72343 0
M  V30 416 H 38.2907 -3.41646 -1.32941 0
M  V30 417 H 37.9387 -3.29284 -3.80238 0
M  V30 418 H 37.6387 -4.93719 -3.18615 0
M  V30 419 H 39.1627 -4.57402 -4.04495 0
M  V30 420 H 40.5767 -5.39888 -1.92857 0
M  V30 421 H 38.9737 -5.86144 -1.28669 0
M  V30 422 H 40.0437 -4.83904 -0.310561 0
M  V30 423 N 41.3868 0.248026 -1.55636 0
M  V30 424 C 42.6118 0.998028 -1.81808 0
M  V30 425 C 43.0368 1.78207 -0.601979 0
M  V30 426 O 42.3948 1.75653 0.448961 0
M  V30 427 C 42.4428 1.9125 -3.05705 0
M  V30 428 O 41.5468 3.00406 -2.82542 0
M  V30 429 H 40.8878 0.284045 -0.600179 0
M  V30 430 H 43.4178 0.269357 -2.02819 0
M  V30 431 H 43.4278 2.32737 -3.35108 0
M  V30 432 H 42.1028 1.33602 -3.93857 0
M  V30 433 H 40.6798 2.63056 -2.64303 0
M  V30 434 N 42.8649 1.48995 0.513639 0
M  V30 435 C 44.1129 1.57531 1.26604 0
M  V30 436 C 44.4339 0.258236 1.93283 0
M  V30 437 O 43.7039 -0.721502 1.8213 0
M  V30 438 H 42.2839 0.580387 0.470276 0
M  V30 439 H 44.9459 1.85552 0.596373 0
M  V30 440 H 44.0419 2.36486 2.03669 0
M  V30 441 N 44.343 -0.763751 1.37857 0
M  V30 442 C 45.306 -1.85889 1.34081 0
M  V30 443 C 46.306 -1.58949 0.243277 0
M  V30 444 O 47.496 -1.66882 0.499589 0
M  V30 445 C 44.628 -3.23176 1.08489 0
M  V30 446 H 45.821 -1.90648 2.31502 0
M  V30 447 H 43.374 -0.964367 1.23003 0
M  V30 448 H 44.109 -3.24091 0.116318 0
M  V30 449 H 43.894 -3.44124 1.8794 0
M  V30 450 H 45.384 -4.03254 1.08517 0
M  V30 451 N 45.8211 -1.22559 -0.990812 0
M  V30 452 C 46.7711 -0.964807 -2.0658 0
M  V30 453 C 47.7551 0.0853472 -1.60673 0
M  V30 454 O 48.9471 -0.125443 -1.76555 0
M  V30 455 C 46.0761 -0.546707 -3.38919 0
M  V30 456 C 45.1621 -1.6317 -3.91454 0
M  V30 457 N 45.5531 -2.85985 -4.17189 0
M  V30 458 C 43.8511 -1.50387 -4.19881 0
M  V30 459 C 44.5521 -3.56159 -4.59919 0
M  V30 460 N 43.5281 -2.83637 -4.63736 0
M  V30 461 H 47.3301 -1.89769 -2.24421 0
M  V30 462 H 44.8441 -1.12343 -1.17273 0
M  V30 463 H 46.8411 -0.34119 -4.15502 0
M  V30 464 H 45.5011 0.379254 -3.22478 0
M  V30 465 H 46.5121 -3.22392 -4.05319 0
M  V30 466 H 43.1891 -0.644254 -4.12499 0
M  V30 467 H 44.5791 -4.6139 -4.88435 0
M  V30 468 N 47.2992 1.18797 -1.03562 0
M  V30 469 C 48.2622 2.20464 -0.626769 0
M  V30 470 C 49.2622 1.57721 0.313173 0
M  V30 471 O 50.4522 1.73917 0.0992615 0
M  V30 472 C 47.5842 3.40802 0.0818498 0
M  V30 473 H 48.7772 2.58149 -1.5264 0
M  V30 474 H 46.3302 1.32593 -0.827578 0
M  V30 475 H 47.0652 3.08642 0.995518 0
M  V30 476 H 46.8502 3.8758 -0.593652 0
M  V30 477 H 48.3402 4.16092 0.354584 0
M  V30 478 N 48.7773 0.814389 1.34928 0
M  V30 479 C 50.1883 0.458364 1.80986 0
M  V30 480 C 50.5393 -1.02042 1.67577 0
M  V30 481 O 49.6643 -1.79352 1.21086 0
M  V30 482 C 50.2593 0.825212 3.28597 0
M  V30 483 C 48.8183 0.521677 3.72767 0
M  V30 484 C 47.9653 1.04668 2.56788 0
M  V30 485 H 50.9163 1.00533 1.22795 0
M  V30 486 H 50.9373 0.12571 3.80292 0
M  V30 487 H 50.4493 1.90154 3.38324 0
M  V30 488 H 48.5503 -0.545589 3.68584 0
M  V30 489 H 48.6633 1.05977 4.67232 0
M  V30 490 H 47.0273 0.468622 2.50352 0
M  V30 491 H 47.8103 2.12927 2.6929 0
M  V30 492 N 50.2554 -1.46986 0.568584 0
M  V30 493 C 51.5024 -2.02441 0.0487986 0
M  V30 494 C 51.8304 -1.44169 -1.30559 0
M  V30 495 O 51.0854 -0.591213 -1.86556 0
M  V30 496 C 51.3844 -3.57306 -0.081836 0
M  V30 497 C 51.0504 -4.34552 1.20313 0
M  V30 498 C 49.7124 -4.55376 1.5552 0
M  V30 499 C 52.0644 -4.79016 2.05411 0
M  V30 500 C 49.3924 -5.17913 2.7565 0
M  V30 501 C 51.7444 -5.42879 3.24754 0
M  V30 502 C 50.4084 -5.61933 3.60261 0
M  V30 503 H 49.6784 -0.740785 0.0178567 0
M  V30 504 H 52.3254 -1.76525 0.742384 0
M  V30 505 H 50.6304 -3.8228 -0.858463 0
M  V30 506 H 52.3274 -3.97876 -0.499546 0
M  V30 507 H 48.9174 -4.18631 0.919014 0
M  V30 508 H 53.1014 -4.62696 1.79516 0
M  V30 509 H 48.3574 -5.30858 3.03315 0
M  V30 510 H 52.5314 -5.76293 3.90973 0
M  V30 511 H 50.1584 -6.10161 4.53439 0
M  V30 512 N 51.7335 -0.305618 -1.54608 0
M  V30 513 C 52.9805 0.302298 -2.00231 0
M  V30 514 C 53.3085 1.5354 -1.19398 0
M  V30 515 O 52.5635 1.93973 -0.259423 0
M  V30 516 C 52.8625 0.698983 -3.50498 0
M  V30 517 C 52.5285 -0.432903 -4.48817 0
M  V30 518 C 51.1905 -0.743622 -4.75419 0
M  V30 519 C 53.5425 -1.19409 -5.07337 0
M  V30 520 C 50.8705 -1.81857 -5.57804 0
M  V30 521 C 53.2225 -2.25899 -5.90891 0
M  V30 522 C 51.8865 -2.57572 -6.15803 0
M  V30 523 H 51.1565 0.110619 -0.732697 0
M  V30 524 H 53.8035 -0.425674 -1.86709 0
M  V30 525 H 52.1085 1.50711 -3.61654 0
M  V30 526 H 53.8055 1.1806 -3.83227 0
M  V30 527 H 50.3955 -0.18063 -4.28219 0
M  V30 528 H 54.5795 -0.967295 -4.86782 0
M  V30 529 H 49.8355 -2.06864 -5.75341 0
M  V30 530 H 54.0095 -2.85335 -6.35261 0
M  V30 531 H 51.6365 -3.40998 -6.7943 0
M  V30 532 N 53.2116 1.57565 -0.0334293 0
M  V30 533 C 54.4396 1.9628 0.654347 0
M  V30 534 C 54.8546 0.910138 1.65414 0
M  V30 535 O 54.2116 -0.107595 1.82183 0
M  V30 536 C 54.2626 3.35067 1.35693 0
M  V30 537 O 53.9836 4.36296 0.397191 0
M  V30 538 C 55.4846 3.88439 2.13613 0
M  V30 539 H 52.7046 0.646369 0.180132 0
M  V30 540 H 55.2486 2.04282 -0.0944721 0
M  V30 541 H 53.4036 3.2827 2.05712 0
M  V30 542 H 53.8176 5.1678 0.896597 0
M  V30 543 H 55.2916 4.8788 2.58219 0
M  V30 544 H 55.7686 3.22914 2.97696 0
M  V30 545 H 56.3746 3.98516 1.48543 0
M  V30 546 N 54.6897 -0.239769 1.55765 0
M  V30 547 C 56.1057 -0.588624 1.48349 0
M  V30 548 C 56.3057 -1.88005 0.72502 0
M  V30 549 O 55.3617 -2.51186 0.257269 0
M  V30 550 C 56.6747 -0.68474 2.928 0
M  V30 551 C 58.2227 -0.77659 3.03213 0
M  V30 552 C 58.6977 -0.904207 4.48986 0
M  V30 553 N 60.1887 -0.968896 4.52953 0
M  V30 554 C 60.9237 -1.08703 5.63002 0
M  V30 555 N 60.4197 -1.17026 6.82845 0
M  V30 556 N 62.2127 -1.12074 5.50814 0
M  V30 557 H 54.3637 0.607911 2.03515 0
M  V30 558 H 56.6267 0.21083 0.924259 0
M  V30 559 H 56.3327 0.194284 3.51163 0
M  V30 560 H 56.2067 -1.55435 3.43686 0
M  V30 561 H 58.5937 -1.64606 2.44926 0
M  V30 562 H 58.6747 0.118315 2.55526 0
M  V30 563 H 58.3187 -0.0392633 5.07885 0
M  V30 564 H 58.2487 -1.81426 4.9436 0
M  V30 565 H 60.7397 -0.915633 3.6664 0
M  V30 566 H 61.0527 -1.25966 7.62465 0
M  V30 567 H 59.3977 -1.13971 6.85591 0
M  V30 568 H 62.5887 -1.05226 4.5612 0
M  V30 569 H 62.7617 -1.20936 6.36615 0
M  V30 570 N 56.1678 -1.49265 -0.50573 0
M  V30 571 C 57.1158 -1.66065 -1.62866 0
M  V30 572 C 58.1098 -0.526636 -1.61006 0
M  V30 573 O 59.3158 -0.706126 -1.65571 0
M  V30 574 H 55.6908 -0.52356 -0.539805 0
M  V30 575 H 57.6618 -2.60329 -1.45848 0
M  V30 576 C 56.4108 -1.74008 -3.01026 0
M  V30 577 H 55.7338 -2.6064 -3.03161 0
M  V30 578 H 57.1738 -1.89798 -3.79147 0
M  V30 579 C 55.6328 -0.483868 -3.33407 0
M  V30 580 O 56.1628 0.392548 -3.99777 0
M  V30 581 N 54.3688 -0.348236 -2.88506 0
M  V30 582 H 53.9158 -1.06242 -2.34671 0
M  V30 583 H 53.8738 0.491204 -3.10539 0
M  V30 584 N 57.6459 0.756429 -1.3826 0
M  V30 585 C 58.8949 1.51082 -1.3363 0
M  V30 586 C 59.2079 1.95467 0.0720068 0
M  V30 587 O 60.4139 2.7043 0.240834 0
M  V30 588 C 58.8699 2.72893 -2.34644 0
M  V30 589 C 58.4779 2.35544 -3.81081 0
M  V30 590 C 60.2219 3.50791 -2.39052 0
M  V30 591 C 58.1289 3.53948 -4.73787 0
M  V30 592 H 57.0589 0.56727 -0.49671 0
M  V30 593 H 59.7099 0.827147 -1.638 0
M  V30 594 H 58.0919 3.43227 -1.97513 0
M  V30 595 H 59.2659 1.72894 -4.27135 0
M  V30 596 H 57.5809 1.70786 -3.79764 0
M  V30 597 H 60.1779 4.38823 -3.05513 0
M  V30 598 H 60.5209 3.91745 -1.40861 0
M  V30 599 H 61.0539 2.87467 -2.74968 0
M  V30 600 H 57.7929 3.18064 -5.73163 0
M  V30 601 H 57.3129 4.15651 -4.32428 0
M  V30 602 H 58.9919 4.20566 -4.91663 0
M  V30 603 N 59.124 1.23083 0.984299 0
M  V30 604 C 60.37 1.06214 1.72761 0
M  V30 605 C 60.703 -0.400584 1.90024 0
M  V30 606 O 59.978 -1.29672 1.44967 0
M  V30 607 C 60.261 1.78375 3.12817 0
M  V30 608 C 60.114 3.32296 3.03149 0
M  V30 609 C 61.433 1.54309 4.12161 0
M  V30 610 H 58.552 0.387251 0.627061 0
M  V30 611 H 61.194 1.51536 1.14616 0
M  V30 612 H 59.344 1.39848 3.62457 0
M  V30 613 H 61.016 3.8032 2.61064 0
M  V30 614 H 59.259 3.6153 2.39747 0
M  V30 615 H 59.93 3.77972 4.02295 0
M  V30 616 H 62.406 1.87791 3.71314 0
M  V30 617 H 61.282 2.07281 5.08258 0
M  V30 618 H 61.543 0.477572 4.39513 0
M  V30 619 N 60.6021 -1.18246 1.0419 0
M  V30 620 C 61.8511 -1.87588 0.741194 0
M  V30 621 C 62.1641 -1.81303 -0.734066 0
M  V30 622 O 63.3701 -2.46019 -1.14834 0
M  V30 623 C 61.8261 -3.36538 1.27555 0
M  V30 624 C 61.4341 -3.51349 2.77953 0
M  V30 625 C 63.1781 -4.11273 1.05143 0
M  V30 626 C 61.0851 -4.94265 3.2474 0
M  V30 627 H 60.0151 -0.702622 0.273565 0
M  V30 628 H 62.6661 -1.33601 1.25789 0
M  V30 629 H 61.0481 -3.9 0.686703 0
M  V30 630 H 62.2221 -3.08153 3.42605 0
M  V30 631 H 60.5371 -2.90022 2.98791 0
M  V30 632 H 63.1341 -5.16689 1.37611 0
M  V30 633 H 63.4771 -4.16298 -0.0112774 0
M  V30 634 H 64.0101 -3.63987 1.60495 0
M  V30 635 H 60.7491 -4.94408 4.30396 0
M  V30 636 H 60.2691 -5.38172 2.64823 0
M  V30 637 H 61.9481 -5.62987 3.18834 0
M  V30 638 N 62.0802 -0.821533 -1.34494 0
M  V30 639 C 63.3292 -0.405355 -1.97585 0
M  V30 640 C 63.6422 1.03677 -1.65863 0
M  V30 641 O 64.8482 1.55679 -2.22433 0
M  V30 642 C 63.3042 -0.673861 -3.53535 0
M  V30 643 C 62.9122 -2.12951 -3.94152 0
M  V30 644 C 64.6562 -0.32378 -4.23263 0
M  V30 645 C 62.5632 -2.34298 -5.43009 0
M  V30 646 H 61.4932 -0.147836 -0.739365 0
M  V30 647 H 64.1442 -1.00769 -1.53355 0
M  V30 648 H 62.5262 -0.00137554 -3.96 0
M  V30 649 H 63.7002 -2.84104 -3.62797 0
M  V30 650 H 62.0152 -2.44089 -3.37356 0
M  V30 651 H 64.6122 -0.461126 -5.32708 0
M  V30 652 H 64.9552 0.731586 -4.09821 0
M  V30 653 H 65.4882 -0.950786 -3.8627 0
M  V30 654 H 62.2272 -3.38335 -5.61435 0
M  V30 655 H 61.7472 -1.67687 -5.75883 0
M  V30 656 H 63.4262 -2.16588 -6.09671 0
M  V30 657 N 63.5583 1.46682 -0.576371 0
M  V30 658 C 64.5053 2.30241 0.160499 0
M  V30 659 C 65.4753 1.40233 0.890162 0
M  V30 660 O 66.6603 1.69186 0.882084 0
M  V30 661 C 63.8003 3.24578 1.1723 0
M  V30 662 C 62.9133 4.29684 0.446736 0
M  V30 663 C 62.0483 5.11154 1.44551 0
M  V30 664 C 61.0873 6.08015 0.70599 0
M  V30 665 N 60.2243 6.82376 1.65251 0
M  V30 666 H 65.0643 2.92727 -0.558127 0
M  V30 667 H 62.6013 1.44272 -0.287056 0
M  V30 668 H 64.5593 3.77711 1.77172 0
M  V30 669 H 63.1893 2.63916 1.85872 0
M  V30 670 H 62.2413 3.79458 -0.267594 0
M  V30 671 H 63.5533 4.98626 -0.131686 0
M  V30 672 H 62.7073 5.68533 2.11791 0
M  V30 673 H 61.4463 4.42158 2.05786 0
M  V30 674 H 60.4513 5.49796 0.0197725 0
M  V30 675 H 61.6763 6.79028 0.09912 0
M  V30 676 H 59.6223 6.16094 2.25308 0
M  V30 677 H 59.5393 7.47556 1.12673 0
M  V30 678 H 60.8073 7.44316 2.31546 0
M  V30 679 N 65.0364 0.313813 1.54444 0
M  V30 680 C 66.3134 -0.345447 1.92525 0
M  V30 681 C 66.6934 -1.70667 1.24242 0
M  V30 682 O 66.0414 -2.25273 0.382654 0
M  V30 683 C 66.2514 -0.44737 3.46121 0
M  V30 684 C 67.5994 -0.712238 4.18584 0
M  V30 685 O 68.6234 -0.530678 3.52225 0
M  V30 686 O 67.4824 -1.06183 5.36085 0
M  V30 687 H 64.5764 -0.195407 0.803583 0
M  V30 688 H 67.1224 0.362813 1.65776 0
M  V30 689 H 65.8944 0.509043 3.87975 0
M  V30 690 H 65.5174 -1.20359 3.78945 0
M  V30 691 N 66.5145 -1.57545 0.0417849 0
M  V30 692 C 67.4625 -2.12148 -0.953723 0
M  V30 693 C 68.4565 -1.05104 -1.32852 0
M  V30 694 O 69.6625 -1.23524 -1.30927 0
M  V30 695 H 66.0375 -0.677957 -0.325389 0
M  V30 696 H 68.0085 -2.94707 -0.467991 0
M  V30 697 C 66.7575 -2.6739 -2.22257 0
M  V30 698 H 66.0805 -3.49413 -1.94295 0
M  V30 699 H 67.5205 -3.09227 -2.90094 0
M  V30 700 C 65.9795 -1.60723 -2.96091 0
M  V30 701 O 66.5095 -1.01449 -3.88679 0
M  V30 702 N 64.7155 -1.32466 -2.58652 0
M  V30 703 H 64.2625 -1.80856 -1.83437 0
M  V30 704 H 64.2205 -0.61325 -3.08361 0
M  V30 705 N 67.9926 0.231505 -1.5589 0
M  V30 706 C 69.2176 0.978689 -1.82856 0
M  V30 707 C 69.6426 1.77559 -0.620846 0
M  V30 708 O 69.0006 1.76119 0.430305 0
M  V30 709 C 69.0486 1.87997 -3.07716 0
M  V30 710 O 68.1526 2.97393 -2.85712 0
M  V30 711 H 67.4936 0.277663 -0.603158 0
M  V30 712 H 70.0236 0.24783 -2.03093 0
M  V30 713 H 70.0336 2.2917 -3.37558 0
M  V30 714 H 68.7086 1.29417 -3.95252 0
M  V30 715 H 67.2856 2.60238 -2.67078 0
M  V30 716 N 69.4707 1.49531 0.497807 0
M  V30 717 C 70.7187 1.58865 1.24926 0
M  V30 718 C 71.0397 0.278721 1.92998 0
M  V30 719 O 70.3097 -0.702144 1.82885 0
M  V30 720 H 68.8897 0.585343 0.464094 0
M  V30 721 H 71.5517 1.86174 0.57666 0
M  V30 722 H 70.6477 2.38633 2.01149 0
M  V30 723 N 70.9488 -0.749086 1.3866 0
M  V30 724 C 71.8988 -1.85368 1.32751 0
M  V30 725 C 72.8828 -1.59511 0.210945 0
M  V30 726 O 74.0748 -1.71255 0.447299 0
M  V30 727 C 71.2038 -3.23131 1.15935 0
M  V30 728 C 70.2898 -3.54864 2.32233 0
M  V30 729 N 70.6808 -3.57625 3.57684 0
M  V30 730 C 68.9788 -3.85154 2.24883 0
M  V30 731 C 69.6798 -3.86753 4.34508 0
M  V30 732 N 68.6558 -4.03812 3.63918 0
M  V30 733 H 72.4578 -1.85787 2.27729 0
M  V30 734 H 69.9718 -0.946658 1.31955 0
M  V30 735 H 71.9688 -4.02185 1.09786 0
M  V30 736 H 70.6288 -3.23961 0.218947 0
M  V30 737 H 71.6398 -3.39276 3.91295 0
M  V30 738 H 68.3168 -3.93672 1.39027 0
M  V30 739 H 69.7068 -3.95474 5.43185 0
M  V30 740 N 72.4269 -1.23603 -0.977757 0
M  V30 741 C 73.6549 -1.09646 -1.75458 0
M  V30 742 C 74.0699 0.351859 -1.85492 0
M  V30 743 O 73.4269 1.24327 -1.336 0
M  V30 744 C 73.4779 -1.71895 -3.18016 0
M  V30 745 O 73.1989 -3.11063 -3.08498 0
M  V30 746 C 74.6999 -1.63415 -4.12081 0
M  V30 747 H 71.9199 -0.38359 -0.550545 0
M  V30 748 H 74.4639 -1.63507 -1.22824 0
M  V30 749 H 72.6189 -1.22061 -3.67668 0
M  V30 750 H 73.0329 -3.41305 -3.9826 0
M  V30 751 H 74.5069 -2.11669 -5.09804 0
M  V30 752 H 74.9839 -0.593462 -4.35172 0
M  V30 753 H 75.5899 -2.12628 -3.68334 0
M  V30 754 N 73.905 1.17692 -1.04816 0
M  V30 755 C 75.153 1.87488 -0.754497 0
M  V30 756 C 75.474 1.81205 0.720407 0
M  V30 757 O 74.744 1.23544 1.52032 0
M  V30 758 H 73.324 0.694101 -0.276102 0
M  V30 759 H 75.986 1.42793 -1.32651 0
M  V30 760 H 75.082 2.93328 -1.06606 0
M  V30 761 N 75.3831 0.828654 1.34056 0
M  V30 762 C 76.6291 0.42008 1.98402 0
M  V30 763 C 76.9621 -1.01564 1.65525 0
M  V30 764 O 76.2371 -1.70834 0.929831 0
M  V30 765 C 76.5201 0.62927 3.54559 0
M  V30 766 C 76.3731 2.11152 3.97159 0
M  V30 767 C 77.6921 0.0688756 4.40046 0
M  V30 768 H 74.8111 0.154104 0.720709 0
M  V30 769 H 77.4531 1.04228 1.5886 0
M  V30 770 H 75.6031 0.0996418 3.88372 0
M  V30 771 H 77.2751 2.70522 3.73651 0
M  V30 772 H 75.5181 2.59985 3.47261 0
M  V30 773 H 76.1891 2.20868 5.05887 0
M  V30 774 H 78.6651 0.521458 4.1282 0
M  V30 775 H 77.5411 0.245006 5.48353 0
M  V30 776 H 77.8021 -1.0266 4.30015 0
M  V30 777 N 76.8612 -1.46375 0.584142 0
M  V30 778 C 78.1092 -2.01978 0.0701287 0
M  V30 779 C 78.4302 -1.4579 -1.295 0
M  V30 780 O 77.7002 -0.64314 -1.85042 0
M  V30 781 H 76.2802 -0.746648 0.0229345 0
M  V30 782 H 78.9422 -1.79461 0.760245 0
M  V30 783 H 78.0382 -3.121 0.0022064 0
M  V30 784 N 78.3393 -0.321999 -1.54275 0
M  V30 785 C 79.2493 0.553631 -2.27974 0
M  V30 786 C 80.2653 1.13054 -1.32268 0
M  V30 787 O 81.4413 1.15084 -1.6528 0
M  V30 788 C 78.5063 1.69927 -3.02201 0
M  V30 789 C 77.5673 1.15433 -4.1349 0
M  V30 790 C 76.8003 2.24537 -4.84168 0
M  V30 791 O 77.0233 3.44852 -4.5435 0
M  V30 792 O 75.9573 1.90044 -5.7111 0
M  V30 793 H 79.7833 -0.0448345 -3.03667 0
M  V30 794 H 77.3683 -0.0877418 -1.49142 0
M  V30 795 H 79.2503 2.3663 -3.48689 0
M  V30 796 H 77.9253 2.28395 -2.29385 0
M  V30 797 H 76.8323 0.452436 -3.71354 0
M  V30 798 H 78.1653 0.614805 -4.88345 0
M  V30 799 N 79.8174 1.5752 -0.0501392 0
M  V30 800 C 81.0664 1.91827 0.623328 0
M  V30 801 C 81.3794 0.930222 1.72065 0
M  V30 802 O 82.5854 1.1653 2.4522 0
M  V30 803 C 81.0414 3.40692 1.16003 0
M  V30 804 C 80.6494 4.479 0.0948811 0
M  V30 805 C 82.3934 3.84034 1.80881 0
M  V30 806 C 80.3004 5.87879 0.644411 0
M  V30 807 H 79.2304 0.715918 0.236596 0
M  V30 808 H 81.8814 1.83115 -0.118861 0
M  V30 809 H 80.2634 3.44405 1.9545 0
M  V30 810 H 81.4374 4.55775 -0.678675 0
M  V30 811 H 79.7524 4.13892 -0.45637 0
M  V30 812 H 82.3494 4.85984 2.22988 0
M  V30 813 H 82.6924 3.20225 2.6601 0
M  V30 814 H 83.2254 3.82833 1.0809 0
M  V30 815 H 79.9644 6.55282 -0.169229 0
M  V30 816 H 79.4844 5.83567 1.38598 0
M  V30 817 H 81.1634 6.37098 1.12763 0
M  V30 818 N 81.2955 -0.223234 1.56011 0
M  V30 819 C 82.7065 -0.790368 1.69145 0
M  V30 820 C 83.0575 -1.85055 0.651845 0
M  V30 821 O 82.1825 -2.15498 -0.197359 0
M  V30 822 C 82.7775 -1.4404 3.06656 0
M  V30 823 C 81.3365 -1.95494 3.2165 0
M  V30 824 C 80.4835 -0.814506 2.65068 0
M  V30 825 H 83.4345 0.00139011 1.587 0
M  V30 826 H 83.4555 -2.30916 3.0242 0
M  V30 827 H 82.9675 -0.668543 3.82298 0
M  V30 828 H 81.0685 -2.75487 2.50874 0
M  V30 829 H 81.1815 -2.13607 4.28846 0
M  V30 830 H 79.5455 -1.22137 2.23505 0
M  V30 831 H 80.3285 -0.0553515 3.43255 0
M  V30 832 N 82.7736 -1.49793 -0.48987 0
M  V30 833 C 84.0216 -1.59525 -1.24081 0
M  V30 834 C 84.3426 -0.288953 -1.92847 0
M  V30 835 O 83.6126 0.692436 -1.83254 0
M  V30 836 H 82.1926 -0.587796 -0.460983 0
M  V30 837 H 84.8546 -1.86477 -0.566778 0
M  V30 838 H 83.9506 -2.39696 -1.99881 0
M  V30 839 N 84.2517 0.741722 -1.39055 0
M  V30 840 C 85.4997 1.49818 -1.35643 0
M  V30 841 C 85.8207 1.94938 0.0491642 0
M  V30 842 O 85.0907 1.68505 0.999141 0
M  V30 843 H 83.6707 0.555755 -0.499144 0
M  V30 844 H 86.3327 0.880957 -1.73854 0
M  V30 845 H 85.4287 2.38348 -2.01486 0
M  V30 846 N 85.7298 1.2412 0.971189 0
M  V30 847 C 86.6398 1.04747 2.09917 0
M  V30 848 C 87.6558 -0.0107162 1.73997 0
M  V30 849 O 88.8318 0.186714 2.00533 0
M  V30 850 C 85.8968 0.650828 3.40537 0
M  V30 851 C 84.9578 1.7851 3.90426 0
M  V30 852 C 84.1908 1.40729 5.14812 0
M  V30 853 O 84.4138 0.29557 5.69634 0
M  V30 854 O 83.3478 2.23168 5.58999 0
M  V30 855 H 87.1738 1.99304 2.29154 0
M  V30 856 H 84.7588 1.02908 1.08307 0
M  V30 857 H 86.6408 0.440992 4.19086 0
M  V30 858 H 85.3158 -0.265649 3.22608 0
M  V30 859 H 84.2228 2.04966 3.12953 0
M  V30 860 H 85.5558 2.68023 4.12825 0
M  V30 861 N 87.2079 -1.17134 1.05439 0
M  V30 862 C 88.1549 -2.21235 0.657539 0
M  V30 863 C 89.1249 -1.62551 -0.341543 0
M  V30 864 O 90.3099 -1.89379 -0.232393 0
M  V30 865 C 87.4499 -3.45076 0.0410575 0
M  V30 866 C 86.5629 -4.18042 1.08927 0
M  V30 867 C 85.6979 -5.29376 0.439848 0
M  V30 868 C 84.7369 -5.94132 1.4722 0
M  V30 869 N 83.8739 -6.96975 0.846756 0
M  V30 870 H 88.7139 -2.54534 1.54972 0
M  V30 871 H 86.2509 -1.25028 0.775006 0
M  V30 872 H 88.2089 -4.15862 -0.33383 0
M  V30 873 H 86.8389 -3.12353 -0.814568 0
M  V30 874 H 85.8909 -3.45945 1.58196 0
M  V30 875 H 87.2029 -4.62306 1.87282 0
M  V30 876 H 86.3569 -6.06699 0.0115125 0
M  V30 877 H 85.0959 -4.86251 -0.375656 0
M  V30 878 H 84.1009 -5.15538 1.91052 0
M  V30 879 H 85.3259 -6.39337 2.28965 0
M  V30 880 H 83.2719 -6.5598 0.0518075 0
M  V30 881 H 83.1889 -7.39565 1.5678 0
M  V30 882 H 84.4569 -7.78239 0.443277 0
M  V30 883 N 88.686 -0.835752 -1.33615 0
M  V30 884 C 89.935 -0.426289 -1.97144 0
M  V30 885 C 90.248 1.01912 -1.66953 0
M  V30 886 O 91.454 1.53311 -2.24072 0
M  V30 887 C 89.91 -0.711321 -3.52801 0
M  V30 888 C 89.518 -2.1712 -3.91871 0
M  V30 889 C 91.262 -0.368654 -4.22896 0
M  V30 890 C 89.169 -2.40044 -5.40493 0
M  V30 891 H 88.099 -0.15567 -0.737755 0
M  V30 892 H 90.75 -1.0239 -1.52278 0
M  V30 893 H 89.132 -0.0433766 -3.95976 0
M  V30 894 H 90.306 -2.87936 -3.59763 0
M  V30 895 H 88.621 -2.47654 -3.34749 0
M  V30 896 H 91.218 -0.517601 -5.32189 0
M  V30 897 H 91.561 0.688078 -4.10574 0
M  V30 898 H 92.094 -0.991702 -3.8524 0
M  V30 899 H 88.833 -3.44271 -5.57815 0
M  V30 900 H 88.353 -1.73785 -5.74072 0
M  V30 901 H 90.032 -2.23042 -6.0734 0
M  V30 902 N 90.1641 1.46063 -0.591896 0
M  V30 903 C 91.5801 1.57561 -0.254288 0
M  V30 904 C 91.7801 1.58565 1.24336 0
M  V30 905 O 90.8361 1.50753 2.02558 0
M  V30 906 C 92.1491 2.86549 -0.911611 0
M  V30 907 C 93.6971 3.00197 -0.886059 0
M  V30 908 C 94.1721 4.31933 -1.5231 0
M  V30 909 N 95.6631 4.38654 -1.48786 0
M  V30 910 C 96.3981 5.39222 -1.95006 0
M  V30 911 N 95.8941 6.46414 -2.49241 0
M  V30 912 N 97.6871 5.3048 -1.85868 0
M  V30 913 H 89.8381 1.43655 -1.56451 0
M  V30 914 H 92.1011 0.68583 -0.654478 0
M  V30 915 H 91.8071 2.91651 -1.96551 0
M  V30 916 H 91.6811 3.74794 -0.425368 0
M  V30 917 H 94.0681 2.9467 0.159246 0
M  V30 918 H 94.1491 2.13403 -1.41041 0
M  V30 919 H 93.7931 4.38217 -2.56765 0
M  V30 920 H 93.7231 5.17516 -0.973891 0
M  V30 921 H 96.2141 3.61793 -1.09151 0
M  V30 922 H 96.5271 7.19376 -2.82344 0
M  V30 923 H 94.8721 6.47208 -2.53272 0
M  V30 924 H 98.0631 4.45643 -1.43248 0
M  V30 925 H 98.2361 6.08711 -2.22204 0
M  V30 926 N 91.6422 0.330177 1.54103 0
M  V30 927 C 92.5892 -0.532762 2.24567 0
M  V30 928 C 93.5592 -1.10635 1.23892 0
M  V30 929 O 94.7442 -1.14546 1.5259 0
M  V30 930 C 91.8842 -1.6845 3.01195 0
M  V30 931 C 90.9972 -1.13951 4.167 0
M  V30 932 C 90.1322 -2.25746 4.80845 0
M  V30 933 C 89.1712 -1.6853 5.88442 0
M  V30 934 N 88.3082 -2.74014 6.46421 0
M  V30 935 H 93.1482 0.0746905 2.97906 0
M  V30 936 H 90.6852 0.048632 1.4702 0
M  V30 937 H 92.6432 -2.36234 3.43874 0
M  V30 938 H 91.2732 -2.26314 2.30178 0
M  V30 939 H 90.3252 -0.35301 3.78758 0
M  V30 940 H 91.6372 -0.680892 4.94131 0
M  V30 941 H 90.7912 -3.01422 5.26526 0
M  V30 942 H 89.5302 -2.74947 4.0281 0
M  V30 943 H 88.5352 -0.913543 5.42157 0
M  V30 944 H 89.7602 -1.20198 6.68378 0
M  V30 945 H 87.7062 -3.22494 5.71256 0
M  V30 946 H 87.6232 -2.32735 7.19285 0
M  V30 947 H 88.8912 -3.49499 6.96757 0
M  V30 948 N 93.1203 -1.57491 0.0584922 0
M  V30 949 C 94.3483 -1.97296 -0.623037 0
M  V30 950 C 94.7633 -0.936338 -1.63946 0
M  V30 951 O 94.1203 0.0785981 -1.82331 0
M  V30 952 C 94.1713 -3.37183 -1.30345 0
M  V30 953 O 93.8923 -4.36872 -0.32773 0
M  V30 954 C 95.3933 -3.91788 -2.07406 0
M  V30 955 H 92.6133 -0.649153 -0.169826 0
M  V30 956 H 95.1573 -2.04106 0.12696 0
M  V30 957 H 93.3123 -3.31502 -2.00463 0
M  V30 958 H 93.7263 -5.18141 -0.814269 0
M  V30 959 H 95.2003 -4.91926 -2.50425 0
M  V30 960 H 95.6773 -3.27609 -2.92521 0
M  V30 961 H 96.2833 -4.00829 -1.42184 0
M  V30 962 N 94.5984 0.214957 -1.56127 0
M  V30 963 C 95.5284 1.2695 -1.95974 0
M  V30 964 C 96.5094 1.48539 -0.828868 0
M  V30 965 O 97.6944 1.60611 -1.09168 0
M  V30 966 C 94.8244 2.61794 -2.28214 0
M  V30 967 C 93.7784 2.54851 -3.43853 0
M  V30 968 C 93.1044 3.93785 -3.61715 0
M  V30 969 C 94.4044 2.09065 -4.78632 0
M  V30 970 H 96.0984 0.93846 -2.84312 0
M  V30 971 H 93.6444 0.449996 -1.36788 0
M  V30 972 H 95.5974 3.35731 -2.54682 0
M  V30 973 H 94.3214 2.96599 -1.36736 0
M  V30 974 H 92.9804 1.8337 -3.17444 0
M  V30 975 H 92.6284 4.25908 -2.67602 0
M  V30 976 H 92.3284 3.90019 -4.39498 0
M  V30 977 H 93.8524 4.69374 -3.90539 0
M  V30 978 H 95.2664 2.7275 -5.04262 0
M  V30 979 H 93.6634 2.16346 -5.59745 0
M  V30 980 H 94.7334 1.04315 -4.73547 0
M  V30 981 N 96.0765 1.50051 0.48192 0
M  V30 982 C 96.9865 1.7089 1.60728 0
M  V30 983 C 98.0025 0.591788 1.63627 0
M  V30 984 O 99.1785 0.868817 1.81696 0
M  V30 985 C 96.2435 1.78855 2.97005 0
M  V30 986 C 95.3045 3.02537 3.04581 0
M  V30 987 C 94.5375 3.10112 4.34357 0
M  V30 988 O 94.7605 2.24765 5.24249 0
M  V30 989 O 93.6945 4.02747 4.47301 0
M  V30 990 H 97.5205 2.66264 1.46072 0
M  V30 991 H 95.1055 1.34018 0.660264 0
M  V30 992 H 96.9875 1.86336 3.77964 0
M  V30 993 H 95.6625 0.866628 3.11883 0
M  V30 994 H 94.5695 3.00563 2.22739 0
M  V30 995 H 95.9025 3.94272 2.94636 0
M  V30 996 N 97.5546 -0.734337 1.39446 0
M  V30 997 C 98.8316 -1.48579 1.27215 0
M  V30 998 C 99.2116 -2.1077 -0.117968 0
M  V30 999 O 98.5596 -1.98646 -1.12924 0
M  V30 1000 C 98.7696 -2.53667 2.39696 0
M  V30 1001 C 100.118 -3.20031 2.79044 0
M  V30 1002 O 101.142 -2.6398 2.39151 0
M  V30 1003 O 100.001 -4.21455 3.47905 0
M  V30 1004 H 97.0946 -0.659816 0.49857 0
M  V30 1005 H 99.6406 -0.768106 1.51322 0
M  V30 1006 H 98.4126 -2.06096 3.32626 0
M  V30 1007 H 98.0356 -3.32994 2.17258 0
M  V30 1008 N 99.0327 -1.24633 -0.964593 0
M  V30 1009 C 99.9957 -1.0424 -2.04124 0
M  V30 1010 C 100.996 0.00137563 -1.608 0
M  V30 1011 O 102.186 -0.239883 -1.7254 0
M  V30 1012 C 99.3177 -0.580588 -3.3592 0
M  V30 1013 H 100.511 -1.99803 -2.23649 0
M  V30 1014 H 98.0637 -1.06899 -1.14027 0
M  V30 1015 H 98.7987 0.3781 -3.22088 0
M  V30 1016 H 98.5837 -1.33398 -3.6871 0
M  V30 1017 H 100.074 -0.459034 -4.15069 0
M  V30 1018 N 100.511 1.16574 -1.06058 0
M  V30 1019 C 101.76 1.86385 -0.770944 0
M  V30 1020 C 102.073 1.82448 0.705129 0
M  V30 1021 O 103.279 2.47815 1.10905 0
M  V30 1022 C 101.735 3.34466 -1.32893 0
M  V30 1023 C 101.343 3.46883 -2.83507 0
M  V30 1024 C 103.087 4.09548 -1.11672 0
M  V30 1025 C 100.994 4.89036 -3.32562 0
M  V30 1026 H 99.9238 0.698181 -0.284709 0
M  V30 1027 H 102.575 1.31583 -1.27899 0
M  V30 1028 H 100.957 3.88859 -0.748662 0
M  V30 1029 H 102.131 3.02663 -3.47465 0
M  V30 1030 H 100.446 2.85232 -3.03368 0
M  V30 1031 H 103.043 5.14434 -1.45814 0
M  V30 1032 H 103.386 4.16264 -0.0549535 0
M  V30 1033 H 103.919 3.61387 -1.66265 0
M  V30 1034 H 100.658 4.87499 -4.38207 0
M  V30 1035 H 100.178 5.3389 -2.73351 0
M  V30 1036 H 101.857 5.57843 -3.2775 0
M  V30 1037 N 101.989 0.842826 1.3317 0
M  V30 1038 C 103.4 0.496651 1.79973 0
M  V30 1039 C 103.751 -0.984641 1.69703 0
M  V30 1040 O 102.876 -1.76743 1.24863 0
M  V30 1041 C 103.471 0.894727 3.26772 0
M  V30 1042 C 102.03 0.600629 3.71577 0
M  V30 1043 C 101.177 1.10091 2.5451 0
M  V30 1044 H 104.128 1.03116 1.20635 0
M  V30 1045 H 104.149 0.206347 3.7994 0
M  V30 1046 H 103.661 1.97287 3.34215 0
M  V30 1047 H 101.762 -0.467284 3.69658 0
M  V30 1048 H 101.875 1.15863 4.64879 0
M  V30 1049 H 100.239 0.52162 2.49301 0
M  V30 1050 H 101.022 2.18591 2.64713 0
M  V30 1051 N 103.467 -1.45747 0.599634 0
M  V30 1052 C 104.397 -2.33235 -0.111306 0
M  V30 1053 C 105.378 -1.46359 -0.866781 0
M  V30 1054 O 106.563 -1.75146 -0.838904 0
M  V30 1055 C 103.693 -3.28932 -1.11451 0
M  V30 1056 C 102.647 -4.25381 -0.472772 0
M  V30 1057 C 101.973 -5.1071 -1.58365 0
M  V30 1058 C 103.273 -5.18831 0.600948 0
M  V30 1059 H 104.967 -2.92927 0.61919 0
M  V30 1060 H 102.513 -1.40857 0.299215 0
M  V30 1061 H 104.466 -3.89002 -1.62036 0
M  V30 1062 H 103.19 -2.67381 -1.8755 0
M  V30 1063 H 101.849 -3.66598 0.0121472 0
M  V30 1064 H 101.497 -4.45533 -2.33473 0
M  V30 1065 H 101.197 -5.7604 -1.15982 0
M  V30 1066 H 102.721 -5.73647 -2.09194 0
M  V30 1067 H 104.135 -5.73019 0.179491 0
M  V30 1068 H 102.532 -5.92595 0.946076 0
M  V30 1069 H 103.602 -4.6174 1.48068 0
M  V30 1070 N 104.945 -0.338344 -1.53925 0
M  V30 1071 C 106.191 0.260143 -2.01125 0
M  V30 1072 C 106.524 1.50617 -1.22589 0
M  V30 1073 O 105.799 1.91979 -0.312113 0
M  V30 1074 C 106.082 0.579499 -3.55407 0
M  V30 1075 C 105.935 -0.678264 -4.44657 0
M  V30 1076 C 107.254 1.39122 -4.17532 0
M  V30 1077 H 104.373 0.0930772 -0.731099 0
M  V30 1078 H 107.015 -0.457852 -1.84401 0
M  V30 1079 H 105.165 1.19118 -3.69788 0
M  V30 1080 H 106.837 -1.31631 -4.42121 0
M  V30 1081 H 105.08 -1.3042 -4.13731 0
M  V30 1082 H 105.751 -0.410143 -5.50474 0
M  V30 1083 H 108.227 0.874035 -4.06817 0
M  V30 1084 H 107.103 1.58342 -5.25565 0
M  V30 1085 H 107.364 2.39178 -3.71815 0
M  V30 1086 N 106.423 1.57458 -0.0668435 0
M  V30 1087 C 107.669 1.93587 0.6043 0
M  V30 1088 C 108.002 0.946722 1.69561 0
M  V30 1089 O 107.277 -0.0248516 1.94484 0
M  V30 1090 C 107.56 3.40014 1.18585 0
M  V30 1091 C 107.413 4.49685 0.101529 0
M  V30 1092 C 108.732 3.87154 2.09284 0
M  V30 1093 H 105.851 0.703958 0.218202 0
M  V30 1094 H 108.493 1.89542 -0.131804 0
M  V30 1095 H 106.643 3.43592 1.81319 0
M  V30 1096 H 108.315 4.5823 -0.531279 0
M  V30 1097 H 106.558 4.30059 -0.568487 0
M  V30 1098 H 107.229 5.49266 0.54874 0
M  V30 1099 H 109.705 3.85551 1.56491 0
M  V30 1100 H 108.581 4.90231 2.46911 0
M  V30 1101 H 108.842 3.2481 2.99918 0
M  V30 1102 N 107.901 -0.206675 1.56239 0
M  V30 1103 C 109.149 -0.927007 1.79586 0
M  V30 1104 C 109.47 -1.8427 0.637929 0
M  V30 1105 O 108.74 -1.92849 -0.344398 0
M  V30 1106 H 107.32 -0.345292 0.662407 0
M  V30 1107 H 109.982 -0.21496 1.93711 0
M  V30 1108 H 109.078 -1.52501 2.72305 0
M  V30 1109 N 109.379 -1.50304 -0.473955 0
M  V30 1110 C 110.326 -1.68959 -1.57231 0
M  V30 1111 C 111.296 -0.530899 -1.57387 0
M  V30 1112 O 112.481 -0.761133 -1.74961 0
M  V30 1113 C 109.621 -1.7871 -2.95223 0
M  V30 1114 C 108.734 -3.06061 -3.04878 0
M  V30 1115 C 107.869 -3.06626 -4.33767 0
M  V30 1116 C 106.908 -4.28443 -4.37154 0
M  V30 1117 N 106.045 -4.26763 -5.5751 0
M  V30 1118 H 110.885 -2.6273 -1.40631 0
M  V30 1119 H 108.422 -1.30241 -0.683789 0
M  V30 1120 H 110.38 -1.82344 -3.75242 0
M  V30 1121 H 109.01 -0.883806 -3.10465 0
M  V30 1122 H 108.062 -3.11911 -2.17751 0
M  V30 1123 H 109.374 -3.96039 -3.0324 0
M  V30 1124 H 108.528 -3.08973 -5.22131 0
M  V30 1125 H 107.267 -2.14473 -4.3801 0
M  V30 1126 H 106.272 -4.2631 -3.47188 0
M  V30 1127 H 107.497 -5.2182 -4.34605 0
M  V30 1128 H 105.443 -3.37462 -5.62544 0
M  V30 1129 H 105.36 -5.10507 -5.57601 0
M  V30 1130 H 106.628 -4.33253 -6.48006 0
M  V30 1131 N 110.857 0.726932 -1.39834 0
M  V30 1132 C 112.085 1.51613 -1.40787 0
M  V30 1133 C 112.5 1.88799 -0.00451505 0
M  V30 1134 O 111.857 1.54662 0.968809 0
M  V30 1135 C 111.908 2.79863 -2.28821 0
M  V30 1136 O 111.629 2.44253 -3.63692 0
M  V30 1137 C 113.13 3.73837 -2.38245 0
M  V30 1138 H 110.35 0.468264 -0.480593 0
M  V30 1139 H 112.894 0.897607 -1.83748 0
M  V30 1140 H 111.049 3.38027 -1.89252 0
M  V30 1141 H 111.463 3.26695 -4.1033 0
M  V30 1142 H 112.937 4.60699 -3.04073 0
M  V30 1143 H 113.414 4.16153 -1.40403 0
M  V30 1144 H 114.02 3.21589 -2.78317 0
M  V30 1145 N 112.336 1.25143 0.95797 0
M  V30 1146 C 113.266 1.07711 2.07173 0
M  V30 1147 C 114.247 -0.0128462 1.70095 0
M  V30 1148 O 115.432 0.156061 1.93572 0
M  V30 1149 C 112.562 0.691503 3.40346 0
M  V30 1150 C 111.516 1.73132 3.9142 0
M  V30 1151 C 110.842 1.20049 5.21049 0
M  V30 1152 C 112.142 3.1294 4.1817 0
M  V30 1153 H 113.836 2.00873 2.22014 0
M  V30 1154 H 111.382 0.967191 1.06684 0
M  V30 1155 H 113.335 0.556505 4.17709 0
M  V30 1156 H 112.059 -0.275819 3.25433 0
M  V30 1157 H 110.718 1.8547 3.16222 0
M  V30 1158 H 110.366 0.223499 5.02503 0
M  V30 1159 H 110.066 1.89545 5.56189 0
M  V30 1160 H 111.59 1.07782 6.01012 0
M  V30 1161 H 113.004 3.03775 4.86203 0
M  V30 1162 H 111.401 3.79875 4.64559 0
M  V30 1163 H 112.471 3.6025 3.24573 0
M  V30 1164 N 113.814 -1.1601 1.06675 0
M  V30 1165 C 115.062 -1.86264 0.784229 0
M  V30 1166 C 115.383 -1.82328 -0.691488 0
M  V30 1167 O 114.653 -1.25947 -1.50047 0
M  V30 1168 H 113.233 -0.689621 0.28711 0
M  V30 1169 H 115.895 -1.40664 1.34906 0
M  V30 1170 H 114.991 -2.91595 1.11259 0
M  V30 1171 N 115.292 -0.849877 -1.32721 0
M  V30 1172 C 116.202 -0.293791 -2.32753 0
M  V30 1173 C 117.218 0.585906 -1.63839 0
M  V30 1174 O 118.394 0.487413 -1.95413 0
M  V30 1175 C 115.459 0.512752 -3.42887 0
M  V30 1176 C 114.52 -0.39252 -4.27502 0
M  V30 1177 C 113.753 0.375625 -5.32377 0
M  V30 1178 O 113.976 1.60613 -5.4732 0
M  V30 1179 O 112.91 -0.256094 -6.01355 0
M  V30 1180 H 116.736 -1.12242 -2.82197 0
M  V30 1181 H 114.321 -0.612685 -1.36259 0
M  V30 1182 H 116.203 0.970704 -4.10067 0
M  V30 1183 H 114.878 1.31826 -2.95641 0
M  V30 1184 H 113.785 -0.898547 -3.63149 0
M  V30 1185 H 115.118 -1.16309 -4.7826 0
M  V30 1186 N 116.77 1.45427 -0.607355 0
M  V30 1187 C 118 2.06314 -0.108656 0
M  V30 1188 C 118.408 1.45269 1.21217 0
M  V30 1189 O 117.751 0.561115 1.74921 0
M  V30 1190 C 117.813 3.59345 0.105618 0
M  V30 1191 C 117.477 4.42723 -1.13337 0
M  V30 1192 C 118.474 4.77715 -2.05145 0
M  V30 1193 C 116.159 4.83478 -1.36213 0
M  V30 1194 C 118.153 5.52317 -3.18158 0
M  V30 1195 C 115.84 5.57835 -2.49527 0
M  V30 1196 C 116.838 5.92171 -3.40327 0
M  V30 1197 O 116.526 6.65019 -4.51669 0
M  V30 1198 H 116.258 0.672782 -0.0658842 0
M  V30 1199 H 118.812 1.87664 -0.834945 0
M  V30 1200 H 117.042 3.76394 0.886796 0
M  V30 1201 H 118.731 4.02076 0.555886 0
M  V30 1202 H 119.497 4.46787 -1.88697 0
M  V30 1203 H 115.376 4.56188 -0.664362 0
M  V30 1204 H 118.92 5.79036 -3.89054 0
M  V30 1205 H 114.817 5.88177 -2.65928 0
M  V30 1206 H 115.585 6.83469 -4.50348 0
M  V30 1207 N 118.248 0.346503 1.53744 0
M  V30 1208 C 119.195 -0.508914 2.25119 0
M  V30 1209 C 120.165 -1.09315 1.25058 0
M  V30 1210 O 121.35 -1.12921 1.53797 0
M  V30 1211 C 118.49 -1.65246 3.02965 0
M  V30 1212 C 117.603 -1.09525 4.17886 0
M  V30 1213 C 116.738 -2.20634 4.83212 0
M  V30 1214 C 115.777 -1.62279 5.90196 0
M  V30 1215 N 114.914 -2.67143 6.49291 0
M  V30 1216 H 119.754 0.106283 2.9781 0
M  V30 1217 H 117.291 0.0642227 1.4696 0
M  V30 1218 H 119.249 -2.32574 3.4636 0
M  V30 1219 H 117.879 -2.2386 2.32565 0
M  V30 1220 H 116.931 -0.312818 3.79112 0
M  V30 1221 H 118.243 -0.628444 4.94825 0
M  V30 1222 H 117.397 -2.95821 5.29693 0
M  V30 1223 H 116.136 -2.70659 4.05703 0
M  V30 1224 H 115.141 -0.855989 5.43096 0
M  V30 1225 H 116.366 -1.13102 6.69615 0
M  V30 1226 H 114.312 -3.16417 5.74645 0
M  V30 1227 H 114.229 -2.25093 7.21713 0
M  V30 1228 H 115.497 -3.4209 7.00425 0
M  V30 1229 N 119.726 -1.57421 0.075193 0
M  V30 1230 C 120.674 -2.14124 -0.908508 0
M  V30 1231 C 121.668 -1.07898 -1.30592 0
M  V30 1232 O 122.874 -1.26273 -1.28277 0
M  V30 1233 H 119.249 -0.684707 -0.310935 0
M  V30 1234 H 121.22 -2.95634 -0.405374 0
M  V30 1235 C 119.969 -2.72044 -2.16535 0
M  V30 1236 H 119.292 -3.53456 -1.86839 0
M  V30 1237 H 120.732 -3.15311 -2.83469 0
M  V30 1238 C 119.191 -1.66968 -2.92615 0
M  V30 1239 O 119.721 -1.0967 -3.86439 0
M  V30 1240 N 117.927 -1.37923 -2.55784 0
M  V30 1241 H 117.474 -1.84706 -1.79559 0
M  V30 1242 H 117.432 -0.67852 -3.06991 0
M  V30 1243 N 121.204 0.198386 -1.56346 0
M  V30 1244 C 122.45 0.920648 -1.80698 0
M  V30 1245 C 122.783 1.83045 -0.648697 0
M  V30 1246 O 122.058 1.91308 0.350925 0
M  V30 1247 C 122.341 1.73971 -3.15287 0
M  V30 1248 C 122.194 0.85485 -4.41602 0
M  V30 1249 C 123.513 2.71296 -3.46535 0
M  V30 1250 H 120.632 0.333261 -0.657348 0
M  V30 1251 H 123.274 0.188198 -1.89066 0
M  V30 1252 H 121.424 2.36416 -3.08285 0
M  V30 1253 H 123.096 0.245362 -4.60647 0
M  V30 1254 H 121.339 0.161398 -4.335 0
M  V30 1255 H 122.01 1.46286 -5.32264 0
M  V30 1256 H 124.486 2.18983 -3.53816 0
M  V30 1257 H 123.362 3.2569 -4.41834 0
M  V30 1258 H 123.623 3.5018 -2.69864 0
M  V30 1259 N 122.682 1.50554 0.465978 0
M  V30 1260 C 123.612 1.72722 1.57128 0
M  V30 1261 C 124.593 0.576294 1.6004 0
M  V30 1262 O 125.778 0.81598 1.76225 0
M  V30 1263 C 122.908 1.82605 2.95419 0
M  V30 1264 C 121.862 2.97835 3.07373 0
M  V30 1265 C 121.188 2.92867 4.47363 0
M  V30 1266 C 122.488 4.38265 2.84114 0
M  V30 1267 H 124.182 2.65267 1.38829 0
M  V30 1268 H 121.728 1.2765 0.666441 0
M  V30 1269 H 123.681 1.96698 3.72677 0
M  V30 1270 H 122.405 0.866858 3.14886 0
M  V30 1271 H 121.064 2.83401 2.3255 0
M  V30 1272 H 120.712 1.94783 4.63755 0
M  V30 1273 H 120.412 3.70227 4.56296 0
M  V30 1274 H 121.936 3.09015 5.26633 0
M  V30 1275 H 123.35 4.53198 3.51118 0
M  V30 1276 H 121.747 5.17115 3.04487 0
M  V30 1277 H 122.817 4.50281 1.7993 0
M  V30 1278 N 124.16 -0.719506 1.40217 0
M  V30 1279 C 125.388 -1.50864 1.41589 0
M  V30 1280 C 125.803 -1.88794 0.0145275 0
M  V30 1281 O 125.16 -1.55174 -0.960594 0
M  V30 1282 C 125.211 -2.78646 2.30302 0
M  V30 1283 O 124.932 -2.42321 3.64983 0
M  V30 1284 C 126.433 -3.72569 2.40224 0
M  V30 1285 H 123.653 -0.465709 0.48307 0
M  V30 1286 H 126.197 -0.88785 1.84221 0
M  V30 1287 H 124.352 -3.37019 1.91042 0
M  V30 1288 H 124.766 -3.24514 4.12057 0
M  V30 1289 H 126.24 -4.5908 3.06512 0
M  V30 1290 H 126.717 -4.15403 1.42608 0
M  V30 1291 H 127.323 -3.20109 2.80019 0
M  V30 1292 N 125.638 -1.25649 -0.95132 0
M  V30 1293 C 126.568 -1.08808 -2.06599 0
M  V30 1294 C 127.549 0.00382547 -1.701 0
M  V30 1295 O 128.734 -0.166325 -1.93486 0
M  V30 1296 C 125.864 -0.709542 -3.39975 0
M  V30 1297 C 124.818 -1.75206 -3.90496 0
M  V30 1298 C 124.144 -1.22811 -5.20405 0
M  V30 1299 C 125.444 -3.15153 -4.16504 0
M  V30 1300 H 127.138 -2.02048 -2.20946 0
M  V30 1301 H 124.684 -0.972835 -1.06169 0
M  V30 1302 H 126.637 -0.578649 -4.17408 0
M  V30 1303 H 125.361 0.258556 -3.25575 0
M  V30 1304 H 124.02 -1.87145 -3.15234 0
M  V30 1305 H 123.668 -0.250145 -5.02378 0
M  V30 1306 H 123.368 -1.92492 -5.55176 0
M  V30 1307 H 124.892 -1.10968 -6.00432 0
M  V30 1308 H 126.306 -3.06349 -4.84586 0
M  V30 1309 H 124.703 -3.82333 -4.62538 0
M  V30 1310 H 125.773 -3.61966 -3.22658 0
M  V30 1311 N 127.117 1.15442 -1.07289 0
M  V30 1312 C 128.363 1.86489 -0.796846 0
M  V30 1313 C 128.696 1.82078 0.675371 0
M  V30 1314 O 127.971 1.24346 1.4956 0
M  V30 1315 C 128.254 3.35626 -1.30489 0
M  V30 1316 C 128.107 3.48673 -2.84161 0
M  V30 1317 C 129.426 4.30357 -0.920907 0
M  V30 1318 H 126.545 0.677144 -0.290939 0
M  V30 1319 H 129.187 1.35633 -1.33056 0
M  V30 1320 H 127.337 3.79068 -0.850883 0
M  V30 1321 H 129.009 3.14099 -3.37846 0
M  V30 1322 H 127.252 2.90253 -3.22391 0
M  V30 1323 H 127.923 4.53453 -3.14777 0
M  V30 1324 H 130.399 3.94871 -1.3121 0
M  V30 1325 H 129.275 5.33193 -1.30372 0
M  V30 1326 H 129.536 4.4176 0.173226 0
M  V30 1327 N 128.595 0.856903 1.32268 0
M  V30 1328 C 130.011 0.547061 1.49931 0
M  V30 1329 C 130.211 -0.921781 1.7918 0
M  V30 1330 O 129.267 -1.70469 1.8627 0
M  V30 1331 C 130.58 1.43599 2.64196 0
M  V30 1332 C 132.128 1.43665 2.78081 0
M  V30 1333 C 132.603 2.31085 3.95428 0
M  V30 1334 N 134.094 2.28893 4.02694 0
M  V30 1335 C 134.829 2.93262 4.92732 0
M  V30 1336 N 134.325 3.66751 5.87763 0
M  V30 1337 N 136.118 2.82638 4.85873 0
M  V30 1338 H 128.269 1.8075 1.11549 0
M  V30 1339 H 130.532 0.772144 0.549997 0
M  V30 1340 H 130.238 2.48058 2.49319 0
M  V30 1341 H 130.112 1.12502 3.60032 0
M  V30 1342 H 132.499 0.399701 2.92381 0
M  V30 1343 H 132.58 1.7878 1.82952 0
M  V30 1344 H 132.224 3.34849 3.81888 0
M  V30 1345 H 132.154 1.93302 4.89839 0
M  V30 1346 H 134.645 1.75466 3.34694 0
M  V30 1347 H 134.958 4.13027 6.53168 0
M  V30 1348 H 133.303 3.70859 5.87783 0
M  V30 1349 H 136.494 2.24774 4.10602 0
M  V30 1350 H 136.667 3.33084 5.55841 0
M  V30 1351 N 130.073 -1.45103 0.615059 0
M  V30 1352 C 131.021 -2.32331 -0.111791 0
M  V30 1353 C 132.015 -1.46409 -0.852102 0
M  V30 1354 O 133.221 -1.62849 -0.766821 0
M  V30 1355 H 129.596 -0.749993 -0.0549072 0
M  V30 1356 H 131.567 -2.91407 0.642225 0
M  V30 1357 C 130.316 -3.3015 -1.09071 0
M  V30 1358 H 129.639 -3.96265 -0.530485 0
M  V30 1359 H 131.079 -3.93898 -1.56908 0
M  V30 1360 C 129.538 -2.57875 -2.168 0
M  V30 1361 O 130.068 -2.36567 -3.24652 0
M  V30 1362 N 128.274 -2.17884 -1.92289 0
M  V30 1363 H 127.821 -2.35413 -1.04587 0
M  V30 1364 H 127.779 -1.6985 -2.64572 0
M  V30 1365 N 131.551 -0.354651 -1.53558 0
M  V30 1366 C 132.779 0.239515 -2.05509 0
M  V30 1367 C 133.194 1.4333 -1.2289 0
M  V30 1368 O 132.551 1.80538 -0.266899 0
M  V30 1369 C 132.602 0.643719 -3.55723 0
M  V30 1370 O 132.323 -0.502602 -4.35207 0
M  V30 1371 C 133.824 1.29743 -4.23889 0
M  V30 1372 H 131.044 0.0442697 -0.669538 0
M  V30 1373 H 133.588 -0.509856 -1.98042 0
M  V30 1374 H 131.743 1.34302 -3.63376 0
M  V30 1375 H 132.157 -0.178172 -5.24197 0
M  V30 1376 H 133.631 1.53091 -5.30346 0
M  V30 1377 H 134.108 2.25441 -3.76926 0
M  V30 1378 H 134.714 0.639865 -4.20459 0
M  V30 1379 N 133.029 1.57378 -0.0835403 0
M  V30 1380 C 134.276 1.9393 0.58287 0
M  V30 1381 C 134.604 0.964455 1.68904 0
M  V30 1382 O 133.859 -0.0179474 1.95692 0
M  V30 1383 C 134.158 3.37063 1.1884 0
M  V30 1384 C 133.824 4.50424 0.207194 0
M  V30 1385 C 132.486 4.81159 -0.0627115 0
M  V30 1386 C 134.838 5.19136 -0.463426 0
M  V30 1387 C 132.166 5.77939 -1.01012 0
M  V30 1388 C 134.518 6.16931 -1.39924 0
M  V30 1389 C 133.182 6.46078 -1.67749 0
M  V30 1390 H 132.452 0.70964 0.213287 0
M  V30 1391 H 135.099 1.90856 -0.156916 0
M  V30 1392 H 133.404 3.3666 2.00418 0
M  V30 1393 H 135.101 3.6264 1.71153 0
M  V30 1394 H 131.691 4.2646 0.427747 0
M  V30 1395 H 135.875 4.95576 -0.268034 0
M  V30 1396 H 131.131 5.98842 -1.23283 0
M  V30 1397 H 135.305 6.69273 -1.92476 0
M  V30 1398 H 132.932 7.2088 -2.41321 0
M  V30 1399 N 134.507 -0.190092 1.56449 0
M  V30 1400 C 135.47 -1.21925 1.9408 0
M  V30 1401 C 136.47 -1.38176 0.822431 0
M  V30 1402 O 137.66 -1.35903 1.08977 0
M  V30 1403 C 134.792 -2.58773 2.21922 0
M  V30 1404 H 135.985 -0.897464 2.86157 0
M  V30 1405 H 133.538 -0.43181 1.50217 0
M  V30 1406 H 134.273 -2.95998 1.32499 0
M  V30 1407 H 134.058 -2.48348 3.03424 0
M  V30 1408 H 135.548 -3.32978 2.52022 0
M  V30 1409 N 135.985 -1.50799 -0.457987 0
M  V30 1410 C 137.262 -1.52968 -1.21902 0
M  V30 1411 C 137.642 -0.281906 -2.09209 0
M  V30 1412 O 136.99 0.734076 -2.16388 0
M  V30 1413 C 137.2 -2.8326 -2.03875 0
M  V30 1414 C 138.548 -3.34425 -2.6162 0
M  V30 1415 O 139.572 -2.8467 -2.14106 0
M  V30 1416 O 138.431 -4.21188 -3.48228 0
M  V30 1417 H 135.525 -0.614129 -0.553873 0
M  V30 1418 H 138.071 -1.63098 -0.468739 0
M  V30 1419 H 136.843 -3.65543 -1.39621 0
M  V30 1420 H 136.466 -2.76195 -2.8601 0
M  V30 1421 N 137.463 0.71206 -1.40597 0
M  V30 1422 C 138.879 1.02058 -1.22704 0
M  V30 1423 C 139.079 2.01228 -0.104729 0
M  V30 1424 O 138.135 2.4674 0.53624 0
M  V30 1425 C 139.448 1.56094 -2.57012 0
M  V30 1426 C 140.996 1.6806 -2.64054 0
M  V30 1427 C 141.471 2.25501 -3.9864 0
M  V30 1428 N 142.962 2.32882 -4.004 0
M  V30 1429 C 143.697 2.78317 -5.01325 0
M  V30 1430 N 143.193 3.23478 -6.12645 0
M  V30 1431 N 144.986 2.77733 -4.88693 0
M  V30 1432 H 137.137 0.0547896 -2.12329 0
M  V30 1433 H 139.4 0.0869027 -0.944008 0
M  V30 1434 H 139.106 0.906865 -3.39807 0
M  V30 1435 H 138.98 2.54564 -2.78347 0
M  V30 1436 H 141.367 2.32583 -1.81629 0
M  V30 1437 H 141.448 0.681802 -2.46546 0
M  V30 1438 H 141.092 1.61598 -4.81506 0
M  V30 1439 H 141.022 3.26102 -4.13479 0
M  V30 1440 H 143.513 2.00991 -3.20017 0
M  V30 1441 H 143.826 3.56725 -6.85542 0
M  V30 1442 H 142.171 3.21429 -6.16205 0
M  V30 1443 H 145.362 2.4179 -4.00818 0
M  V30 1444 H 145.535 3.12826 -5.67489 0
M  V30 1445 N 138.941 1.26152 0.944643 0
M  V30 1446 C 140.218 1.02247 1.66748 0
M  V30 1447 C 140.598 -0.448202 2.06287 0
M  V30 1448 O 139.946 -1.42779 1.78399 0
M  V30 1449 C 140.156 1.96788 2.88228 0
M  V30 1450 C 141.504 2.25201 3.59958 0
M  V30 1451 O 142.528 1.94626 2.98327 0
M  V30 1452 O 141.387 2.77242 4.70956 0
M  V30 1453 H 138.481 0.388517 0.730057 0
M  V30 1454 H 141.027 1.37348 0.99668 0
M  V30 1455 H 139.799 2.96047 2.55875 0
M  V30 1456 H 139.422 1.62145 3.63035 0
M  V30 1457 N 140.419 -1.14872 1.07899 0
M  V30 1458 C 141.382 -2.17986 0.708161 0
M  V30 1459 C 142.382 -1.58775 -0.25442 0
M  V30 1460 O 143.572 -1.74166 -0.034645 0
M  V30 1461 C 140.704 -3.40871 0.0446929 0
M  V30 1462 H 141.897 -2.52306 1.62116 0
M  V30 1463 H 139.45 -1.2943 0.876218 0
M  V30 1464 H 140.185 -3.12124 -0.880281 0
M  V30 1465 H 139.97 -3.8511 0.737091 0
M  V30 1466 H 141.46 -4.17121 -0.19991 0
M  V30 1467 N 141.898 -0.863906 -1.31812 0
M  V30 1468 C 143.146 -0.470904 -1.96537 0
M  V30 1469 C 143.467 0.978771 -1.68657 0
M  V30 1470 O 142.737 1.6853 -0.998717 0
M  V30 1471 H 141.317 -0.171148 -0.72713 0
M  V30 1472 H 143.979 -1.10236 -1.60729 0
M  V30 1473 H 143.075 -0.623616 -3.05806 0
M  V30 1474 N 143.376 1.44774 -0.622745 0
M  V30 1475 C 144.624 2.01721 -0.123655 0
M  V30 1476 C 144.945 1.49172 1.25589 0
M  V30 1477 O 144.215 0.691974 1.83272 0
M  V30 1478 H 142.795 0.745777 -0.0427225 0
M  V30 1479 H 145.457 1.77382 -0.807559 0
M  V30 1480 H 144.553 3.11984 -0.0849534 0
M  V30 1481 N 144.854 0.36279 1.53368 0
M  V30 1482 C 146.27 0.0116182 1.59596 0
M  V30 1483 C 146.47 -1.47012 1.37803 0
M  V30 1484 O 145.526 -2.23136 1.18181 0
M  V30 1485 C 146.839 0.465052 2.97082 0
M  V30 1486 C 148.387 0.419033 3.10182 0
M  V30 1487 C 148.862 0.848235 4.50077 0
M  V30 1488 N 150.353 0.803183 4.56183 0
M  V30 1489 C 151.088 1.107 5.62613 0
M  V30 1490 N 150.584 1.47996 6.76808 0
M  V30 1491 N 152.377 1.02998 5.52583 0
M  V30 1492 H 144.528 1.32775 1.65785 0
M  V30 1493 H 146.791 0.542518 0.777417 0
M  V30 1494 H 146.497 1.49892 3.18159 0
M  V30 1495 H 146.371 -0.149786 3.76902 0
M  V30 1496 H 148.758 -0.605696 2.88817 0
M  V30 1497 H 148.839 1.06933 2.32377 0
M  V30 1498 H 148.483 1.87107 4.7218 0
M  V30 1499 H 148.413 0.175218 5.26308 0
M  V30 1500 H 150.904 0.52838 3.74188 0
M  V30 1501 H 151.217 1.69613 7.53957 0
M  V30 1502 H 149.562 1.51859 6.78206 0
M  V30 1503 H 152.753 0.737817 4.62249 0
M  V30 1504 H 152.926 1.2701 6.35431 0
M  V30 1505 N 146.332 -1.57332 0.0918853 0
M  V30 1506 C 147.58 -1.93853 -0.571446 0
M  V30 1507 C 147.901 -0.974212 -1.6892 0
M  V30 1508 O 147.171 -0.0257254 -1.95883 0
M  V30 1509 H 145.751 -0.715666 -0.214082 0
M  V30 1510 H 148.413 -1.94287 0.154464 0
M  V30 1511 H 147.509 -2.96191 -0.983729 0
M  V30 1512 N 147.81 0.181792 -1.56548 0
M  V30 1513 C 148.74 1.22765 -1.98623 0
M  V30 1514 C 149.721 1.46747 -0.860189 0
M  V30 1515 O 150.906 1.58259 -1.12551 0
M  V30 1516 C 148.036 2.56894 -2.33715 0
M  V30 1517 C 146.99 2.475 -3.49182 0
M  V30 1518 C 146.316 3.86023 -3.69986 0
M  V30 1519 C 147.616 1.98866 -4.82959 0
M  V30 1520 H 149.31 0.877942 -2.86239 0
M  V30 1521 H 146.856 0.42088 -1.37712 0
M  V30 1522 H 148.809 3.30253 -2.61746 0
M  V30 1523 H 147.533 2.93632 -1.42997 0
M  V30 1524 H 146.192 1.76596 -3.21262 0
M  V30 1525 H 145.84 4.20136 -2.76576 0
M  V30 1526 H 145.54 3.80609 -4.47672 0
M  V30 1527 H 147.064 4.60984 -4.00407 0
M  V30 1528 H 148.478 2.61992 -5.09934 0
M  V30 1529 H 146.875 2.04424 -5.64208 0
M  V30 1530 H 147.945 0.942465 -4.75653 0
M  V30 1531 N 149.288 1.51039 0.449983 0
M  V30 1532 C 150.22 1.67617 1.56324 0
M  V30 1533 C 151.233 0.557083 1.52972 0
M  V30 1534 O 152.422 0.830989 1.57977 0
M  V30 1535 C 149.522 1.66402 2.95235 0
M  V30 1536 C 148.695 2.9469 3.23229 0
M  V30 1537 C 147.754 2.85832 4.41799 0
M  V30 1538 O 146.78 3.59785 4.41071 0
M  V30 1539 N 147.982 2.00821 5.44657 0
M  V30 1540 H 150.747 2.63648 1.42512 0
M  V30 1541 H 148.308 1.48767 0.638737 0
M  V30 1542 H 150.3 1.58062 3.72557 0
M  V30 1543 H 148.87 0.780182 3.02708 0
M  V30 1544 H 148.09 3.16996 2.34323 0
M  V30 1545 H 149.378 3.79636 3.38754 0
M  V30 1546 H 148.776 1.40091 5.48079 0
M  V30 1547 H 147.333 1.98368 6.20881 0
M  V30 1548 N 150.766 -0.704594 1.40972 0
M  V30 1549 C 151.994 -1.49354 1.43182 0
M  V30 1550 C 152.409 -1.88768 0.0345508 0
M  V30 1551 O 151.766 -1.56184 -0.944081 0
M  V30 1552 C 151.817 -2.76187 2.33244 0
M  V30 1553 O 151.538 -2.38436 3.67532 0
M  V30 1554 C 153.039 -3.7 2.44162 0
M  V30 1555 H 150.259 -0.460559 0.487982 0
M  V30 1556 H 152.803 -0.868261 1.85153 0
M  V30 1557 H 150.958 -3.34974 1.94606 0
M  V30 1558 H 151.372 -3.20126 4.15475 0
M  V30 1559 H 152.846 -4.55803 3.11364 0
M  V30 1560 H 153.323 -4.13867 1.47006 0
M  V30 1561 H 153.929 -3.17121 2.83398 0
M  V30 1562 N 152.244 -1.26651 -0.937939 0
M  V30 1563 C 153.491 -1.12387 -1.6845 0
M  V30 1564 C 153.819 0.332208 -1.91642 0
M  V30 1565 O 153.074 1.2602 -1.49725 0
M  V30 1566 C 153.373 -1.84168 -3.06295 0
M  V30 1567 C 153.039 -3.34056 -3.02849 0
M  V30 1568 C 151.701 -3.74942 -3.01616 0
M  V30 1569 C 154.053 -4.29741 -2.9491 0
M  V30 1570 C 151.381 -5.09894 -2.90215 0
M  V30 1571 C 153.733 -5.64738 -2.8505 0
M  V30 1572 C 152.397 -6.0493 -2.82162 0
M  V30 1573 H 151.667 -0.411252 -0.616403 0
M  V30 1574 H 154.314 -1.57134 -1.09459 0
M  V30 1575 H 152.619 -1.319 -3.6893 0
M  V30 1576 H 154.316 -1.70569 -3.62915 0
M  V30 1577 H 150.906 -3.01534 -3.0459 0
M  V30 1578 H 155.09 -3.99133 -2.94969 0
M  V30 1579 H 150.346 -5.40194 -2.86358 0
M  V30 1580 H 154.52 -6.38561 -2.77872 0
M  V30 1581 H 152.147 -7.09457 -2.73084 0
M  V30 1582 N 153.722 1.14298 -1.08507 0
M  V30 1583 C 154.999 1.81544 -0.728088 0
M  V30 1584 C 155.379 1.95838 0.78808 0
M  V30 1585 O 154.727 1.51904 1.70697 0
M  V30 1586 C 154.937 3.17169 -1.45619 0
M  V30 1587 C 156.285 3.9265 -1.61591 0
M  V30 1588 O 157.309 3.26762 -1.41793 0
M  V30 1589 O 156.168 5.10807 -1.94263 0
M  V30 1590 H 153.262 0.78491 -0.260471 0
M  V30 1591 H 155.808 1.21307 -1.18671 0
M  V30 1592 H 154.58 3.01934 -2.489 0
M  V30 1593 H 154.203 3.851 -0.989124 0
M  V30 1594 N 155.201 0.870884 1.31352 0
M  V30 1595 C 156.131 0.343096 2.30966 0
M  V30 1596 C 157.112 -0.566507 1.60389 0
M  V30 1597 O 158.297 -0.483336 1.88089 0
M  V30 1598 C 155.427 -0.455487 3.443 0
M  V30 1599 C 154.381 0.361103 4.26474 0
M  V30 1600 C 153.707 -0.563221 5.31725 0
M  V30 1601 C 155.007 1.59566 4.97329 0
M  V30 1602 H 156.701 1.17548 2.75359 0
M  V30 1603 H 154.247 0.566686 1.32381 0
M  V30 1604 H 156.2 -0.83525 4.13039 0
M  V30 1605 H 154.924 -1.32139 2.98675 0
M  V30 1606 H 153.583 0.722825 3.59403 0
M  V30 1607 H 153.231 -1.42643 4.82351 0
M  V30 1608 H 152.931 -0.0207409 5.87596 0
M  V30 1609 H 154.455 -0.939808 6.03324 0
M  V30 1610 H 155.869 1.28728 5.58661 0
M  V30 1611 H 154.266 2.07728 5.63 0
M  V30 1612 H 155.336 2.34798 4.24262 0
M  V30 1613 N 156.679 -1.44442 0.630414 0
M  V30 1614 C 158.095 -1.56832 0.295973 0
M  V30 1615 C 158.295 -1.61806 -1.20088 0
M  V30 1616 O 157.351 -1.5607 -1.9849 0
M  V30 1617 C 158.664 -2.84031 0.987264 0
M  V30 1618 C 160.212 -2.97742 0.96534 0
M  V30 1619 C 160.687 -4.27743 1.63708 0
M  V30 1620 N 162.178 -4.34555 1.60364 0
M  V30 1621 C 162.913 -5.33862 2.09234 0
M  V30 1622 N 162.409 -6.39578 2.66292 0
M  V30 1623 N 164.202 -5.25366 1.99867 0
M  V30 1624 H 156.353 -1.39457 1.60205 0
M  V30 1625 H 158.616 -0.668237 0.672431 0
M  V30 1626 H 158.322 -2.86338 2.04215 0
M  V30 1627 H 158.196 -3.73534 0.524588 0
M  V30 1628 H 160.583 -2.94989 -0.0810639 0
M  V30 1629 H 160.664 -2.09589 1.4665 0
M  V30 1630 H 160.308 -4.31255 2.68293 0
M  V30 1631 H 160.238 -5.14752 1.11076 0
M  V30 1632 H 162.729 -3.58772 1.18705 0
M  V30 1633 H 163.042 -7.11637 3.01317 0
M  V30 1634 H 161.387 -6.40265 2.70343 0
M  V30 1635 H 164.578 -4.41688 1.55013 0
M  V30 1636 H 164.751 -6.02606 2.38265 0
M  V30 1637 N 158.157 -0.370918 -1.53173 0
M  V30 1638 C 159.385 0.217704 -2.05751 0
M  V30 1639 C 159.8 1.42018 -1.24404 0
M  V30 1640 O 159.157 1.80245 -0.286033 0
M  V30 1641 C 159.208 0.605954 -3.56385 0
M  V30 1642 O 158.929 -0.548734 -4.3465 0
M  V30 1643 C 160.43 1.2524 -4.25241 0
M  V30 1644 H 157.65 0.0371659 -0.66997 0
M  V30 1645 H 160.194 -0.530832 -1.9749 0
M  V30 1646 H 158.349 1.3044 -3.6478 0
M  V30 1647 H 158.763 -0.23376 -5.23979 0
M  V30 1648 H 160.237 1.47458 -5.3194 0
M  V30 1649 H 160.714 2.2143 -3.79296 0
M  V30 1650 H 161.32 0.595233 -4.21114 0
M  V30 1651 N 159.635 1.57281 -0.100228 0
M  V30 1652 C 160.863 1.98879 0.570509 0
M  V30 1653 C 161.278 0.979476 1.61405 0
M  V30 1654 O 160.635 -0.0302288 1.82475 0
M  V30 1655 C 160.686 3.4052 1.2136 0
M  V30 1656 O 160.407 4.37588 0.211786 0
M  V30 1657 C 161.908 3.97149 1.96945 0
M  V30 1658 H 159.128 0.653428 0.152555 0
M  V30 1659 H 161.672 2.03697 -0.18103 0
M  V30 1660 H 159.827 3.367 1.91603 0
M  V30 1661 H 160.241 5.20118 0.676607 0
M  V30 1662 H 161.715 4.98393 2.37294 0
M  V30 1663 H 162.192 3.3525 2.83733 0
M  V30 1664 H 162.798 4.04458 1.31506 0
M  V30 1665 N 161.113 -0.173488 1.56642 0
M  V30 1666 C 162.362 -0.888758 1.81063 0
M  V30 1667 C 162.675 -1.83506 0.67712 0
M  V30 1668 O 163.881 -2.59254 0.806206 0
M  V30 1669 C 162.337 -1.63091 3.20826 0
M  V30 1670 C 161.945 -0.728357 4.4204 0
M  V30 1671 C 163.689 -2.33454 3.54541 0
M  V30 1672 C 161.596 -1.47062 5.72823 0
M  V30 1673 H 160.526 -0.335618 0.675186 0
M  V30 1674 H 163.177 -0.141712 1.82952 0
M  V30 1675 H 161.559 -2.42263 3.13248 0
M  V30 1676 H 162.733 0.0262449 4.60793 0
M  V30 1677 H 161.048 -0.134492 4.16183 0
M  V30 1678 H 163.645 -2.89578 4.49498 0
M  V30 1679 H 163.988 -3.08687 2.79317 0
M  V30 1680 H 164.521 -1.61227 3.63663 0
M  V30 1681 H 161.26 -0.760658 6.51072 0
M  V30 1682 H 160.78 -2.1986 5.58052 0
M  V30 1683 H 162.459 -2.01868 6.14702 0
M  V30 1684 N 162.591 -1.51276 -0.441967 0
M  V30 1685 C 163.541 -1.6864 -1.53442 0
M  V30 1686 C 164.525 -0.540444 -1.51552 0
M  V30 1687 O 165.717 -0.796157 -1.58083 0
M  V30 1688 C 162.846 -1.8106 -2.91672 0
M  V30 1689 C 161.932 -3.01424 -2.98336 0
M  V30 1690 N 162.323 -4.2467 -2.74752 0
M  V30 1691 C 160.621 -3.00584 -3.29493 0
M  V30 1692 C 161.322 -5.05891 -2.87139 0
M  V30 1693 N 160.298 -4.40442 -3.18609 0
M  V30 1694 H 164.1 -2.61598 -1.33954 0
M  V30 1695 H 161.614 -1.4886 -0.6492 0
M  V30 1696 H 163.611 -1.91609 -3.70259 0
M  V30 1697 H 162.271 -0.892795 -3.12185 0
M  V30 1698 H 163.282 -4.53691 -2.49769 0
M  V30 1699 H 159.959 -2.18417 -3.55809 0
M  V30 1700 H 161.349 -6.13983 -2.72899 0
M  V30 1701 N 164.069 0.697108 -1.41344 0
M  V30 1702 C 165.315 1.4593 -1.40827 0
M  V30 1703 C 165.648 1.94193 -0.0167098 0
M  V30 1704 O 164.923 1.69425 0.955263 0
M  V30 1705 C 165.206 2.67229 -2.41373 0
M  V30 1706 C 165.059 2.24741 -3.8963 0
M  V30 1707 C 166.378 3.69423 -2.39196 0
M  V30 1708 H 163.497 0.529303 -0.512842 0
M  V30 1709 H 166.139 0.794112 -1.72609 0
M  V30 1710 H 164.289 3.23982 -2.14401 0
M  V30 1711 H 165.961 1.73327 -4.27499 0
M  V30 1712 H 164.204 1.56542 -4.0457 0
M  V30 1713 H 164.875 3.1177 -4.55525 0
M  V30 1714 H 167.351 3.2234 -2.63128 0
M  V30 1715 H 166.227 4.51907 -3.11563 0
M  V30 1716 H 166.488 4.19012 -1.41001 0
M  V30 1717 N 165.547 1.27147 0.931209 0
M  V30 1718 C 166.793 1.13446 1.68101 0
M  V30 1719 C 167.126 -0.319628 1.91552 0
M  V30 1720 O 166.401 -1.23407 1.50336 0
M  V30 1721 C 166.684 1.91482 3.0497 0
M  V30 1722 C 166.537 3.44855 2.88782 0
M  V30 1723 C 167.856 1.71651 4.05246 0
M  V30 1724 H 164.975 0.413498 0.610072 0
M  V30 1725 H 167.617 1.56261 1.08086 0
M  V30 1726 H 165.767 1.55095 3.56199 0
M  V30 1727 H 167.439 3.9105 2.44698 0
M  V30 1728 H 165.682 3.71373 2.24198 0
M  V30 1729 H 166.353 3.94694 3.85902 0
M  V30 1730 H 168.829 2.0337 3.63015 0
M  V30 1731 H 167.705 2.28651 4.99009 0
M  V30 1732 H 167.966 0.663555 4.37092 0
M  V30 1733 N 167.025 -1.13721 1.09112 0
M  V30 1734 C 168.253 -1.88773 0.846899 0
M  V30 1735 C 168.668 -1.7896 -0.601572 0
M  V30 1736 O 168.025 -1.15394 -1.41388 0
M  V30 1737 C 168.076 -3.3849 1.26913 0
M  V30 1738 O 167.797 -3.48043 2.66079 0
M  V30 1739 C 169.298 -4.30518 1.05682 0
M  V30 1740 H 166.518 -0.59772 0.304914 0
M  V30 1741 H 169.062 -1.43977 1.45227 0
M  V30 1742 H 167.217 -3.80881 0.707723 0
M  V30 1743 H 167.631 -4.4109 2.83795 0
M  V30 1744 H 169.105 -5.3391 1.40156 0
M  V30 1745 H 169.582 -4.392 -0.00563416 0
M  V30 1746 H 170.188 -3.93893 1.60402 0
M  V30 1747 N 168.503 -0.877838 -1.30888 0
M  V30 1748 C 169.751 -0.491723 -1.96027 0
M  V30 1749 C 170.072 0.960827 -1.69685 0
M  V30 1750 O 169.342 1.67462 -1.01654 0
M  V30 1751 H 167.922 -0.17885 -0.725273 0
M  V30 1752 H 170.584 -1.11935 -1.59551 0
M  V30 1753 H 169.68 -0.656016 -3.05128 0
M  V30 1754 N 169.982 1.44106 -0.638065 0
M  V30 1755 C 171.231 2.01194 -0.142744 0
M  V30 1756 C 171.544 1.50835 1.24532 0
M  V30 1757 O 172.75 2.00096 1.83504 0
M  V30 1758 C 171.206 3.59319 -0.20442 0
M  V30 1759 C 170.814 4.18674 -1.59423 0
M  V30 1760 C 172.558 4.23854 0.234079 0
M  V30 1761 C 170.465 5.69045 -1.61065 0
M  V30 1762 H 169.395 0.752367 -0.0495998 0
M  V30 1763 H 172.046 1.65246 -0.797881 0
M  V30 1764 H 170.428 3.92598 0.517946 0
M  V30 1765 H 171.602 3.96921 -2.34074 0
M  V30 1766 H 169.917 3.66453 -1.97741 0
M  V30 1767 H 172.514 5.34155 0.241443 0
M  V30 1768 H 172.857 3.96688 1.2627 0
M  V30 1769 H 173.39 3.95403 -0.436025 0
M  V30 1770 H 170.129 6.00956 -2.61787 0
M  V30 1771 H 169.649 5.929 -0.90718 0
M  V30 1772 H 171.328 6.32809 -1.34766 0
M  V30 1773 N 171.46 0.379036 1.52974 0
M  V30 1774 C 172.37 -0.468639 2.29872 0
M  V30 1775 C 173.386 -1.08067 1.36373 0
M  V30 1776 O 174.562 -1.08871 1.69438 0
M  V30 1777 C 171.627 -1.58594 3.083 0
M  V30 1778 C 170.688 -1.00007 4.17489 0
M  V30 1779 C 169.921 -2.06413 4.92168 0
M  V30 1780 O 170.144 -3.27751 4.66835 0
M  V30 1781 O 169.078 -1.68717 5.7777 0
M  V30 1782 H 172.904 0.157508 3.03291 0
M  V30 1783 H 170.489 0.143035 1.48714 0
M  V30 1784 H 172.371 -2.23525 3.57232 0
M  V30 1785 H 171.046 -2.19724 2.37703 0
M  V30 1786 H 169.953 -0.314299 3.72777 0
M  V30 1787 H 171.286 -0.433135 4.90291 0
M  V30 1788 N 172.938 -1.57226 0.108567 0
M  V30 1789 C 173.901 -2.13602 -0.831082 0
M  V30 1790 C 174.901 -1.06841 -1.20173 0
M  V30 1791 O 176.091 -1.32666 -1.12895 0
M  V30 1792 C 173.223 -2.66769 -2.12243 0
M  V30 1793 H 174.416 -2.97951 -0.341317 0
M  V30 1794 H 171.969 -1.55667 -0.14057 0
M  V30 1795 H 172.704 -1.85977 -2.65675 0
M  V30 1796 H 172.489 -3.44839 -1.86625 0
M  V30 1797 H 173.979 -3.10332 -2.79435 0
M  V30 1798 N 174.416 0.165178 -1.56732 0
M  V30 1799 C 175.379 1.18822 -1.95995 0
M  V30 1800 C 176.379 1.3685 -0.84431 0
M  V30 1801 O 177.569 1.34152 -1.11126 0
M  V30 1802 C 174.701 2.5521 -2.26011 0
M  V30 1803 H 175.894 0.851825 -2.87548 0
M  V30 1804 H 173.447 0.407857 -1.50885 0
M  V30 1805 H 174.182 2.93852 -1.37191 0
M  V30 1806 H 173.967 2.43489 -3.07336 0
M  V30 1807 H 175.457 3.28927 -2.57288 0
M  V30 1808 N 175.894 1.51508 0.433938 0
M  V30 1809 C 176.827 1.67756 1.54704 0
M  V30 1810 C 177.805 0.525127 1.53887 0
M  V30 1811 O 178.989 0.749393 1.72963 0
M  V30 1812 C 176.116 1.69424 2.9328 0
M  V30 1813 C 175.162 2.90673 3.12108 0
M  V30 1814 S 175.995 4.51431 2.88046 0
M  V30 1815 C 177.151 4.55849 4.28897 0
M  V30 1816 H 177.384 2.61904 1.40689 0
M  V30 1817 H 174.917 1.41235 0.62386 0
M  V30 1818 H 176.875 1.7107 3.73156 0
M  V30 1819 H 175.536 0.764464 3.04655 0
M  V30 1820 H 174.729 2.88251 4.13434 0
M  V30 1821 H 174.331 2.86786 2.40062 0
M  V30 1822 H 176.623 4.31699 5.22152 0
M  V30 1823 H 177.566 5.57676 4.36351 0
M  V30 1824 H 177.974 3.85137 4.12711 0
M  V30 1825 N 177.372 -0.689602 1.41712 0
M  V30 1826 C 178.302 -1.81577 1.46806 0
M  V30 1827 C 179.283 -1.66945 0.326105 0
M  V30 1828 O 180.468 -1.86588 0.538377 0
M  V30 1829 C 177.598 -3.19762 1.35535 0
M  V30 1830 C 176.552 -3.49107 2.47605 0
M  V30 1831 C 175.878 -4.86711 2.21397 0
M  V30 1832 C 177.178 -3.47483 3.89939 0
M  V30 1833 H 178.872 -1.7757 2.41058 0
M  V30 1834 H 176.418 -0.852887 1.16025 0
M  V30 1835 H 178.371 -3.98263 1.3771 0
M  V30 1836 H 177.095 -3.24409 0.377708 0
M  V30 1837 H 175.754 -2.72959 2.44722 0
M  V30 1838 H 175.402 -4.8799 1.21961 0
M  V30 1839 H 175.102 -5.0731 2.96497 0
M  V30 1840 H 176.626 -5.67515 2.25297 0
M  V30 1841 H 178.04 -4.1598 3.94505 0
M  V30 1842 H 176.437 -3.79615 4.64771 0
M  V30 1843 H 177.507 -2.46341 4.17665 0
M  V30 1844 N 178.85 -1.27639 -0.924453 0
M  V30 1845 C 180.127 -1.04887 -1.651 0
M  V30 1846 C 180.507 0.415327 -2.06974 0
M  V30 1847 O 179.855 1.39923 -1.80648 0
M  V30 1848 C 180.065 -2.01348 -2.85061 0
M  V30 1849 C 181.413 -2.30899 -3.56329 0
M  V30 1850 O 182.437 -1.99348 -2.95193 0
M  V30 1851 O 181.296 -2.84699 -4.66485 0
M  V30 1852 H 178.39 -0.400083 -0.723784 0
M  V30 1853 H 180.936 -1.38916 -0.974703 0
M  V30 1854 H 179.708 -3.0008 -2.51133 0
M  V30 1855 H 179.331 -1.679 -3.6041 0
M  V30 1856 N 180.328 1.1314 -1.09713 0
M  V30 1857 C 181.258 2.20748 -0.761102 0
M  V30 1858 C 182.239 1.68061 0.262566 0
M  V30 1859 O 183.424 1.93765 0.129977 0
M  V30 1860 C 180.554 3.46812 -0.184054 0
M  V30 1861 C 179.508 4.12606 -1.13757 0
M  V30 1862 C 178.834 5.33031 -0.422083 0
M  V30 1863 C 180.134 4.59603 -2.48118 0
M  V30 1864 H 181.828 2.49113 -1.66082 0
M  V30 1865 H 179.374 1.19734 -0.799987 0
M  V30 1866 H 181.327 4.21353 0.0631215 0
M  V30 1867 H 180.051 3.17851 0.750868 0
M  V30 1868 H 178.71 3.40036 -1.37007 0
M  V30 1869 H 178.358 5.00335 0.517072 0
M  V30 1870 H 178.058 5.77999 -1.05788 0
M  V30 1871 H 179.582 6.10325 -0.183277 0
M  V30 1872 H 180.996 5.25552 -2.29059 0
M  V30 1873 H 179.393 5.15321 -3.07514 0
M  V30 1874 H 180.463 3.73971 -3.08665 0
M  V30 1875 N 181.806 0.884767 1.30421 0
M  V30 1876 C 182.736 0.367574 2.30589 0
M  V30 1877 C 183.717 -0.549464 1.60981 0
M  V30 1878 O 184.902 -0.46336 1.88591 0
M  V30 1879 C 182.032 -0.418944 3.44764 0
M  V30 1880 C 180.986 0.406316 4.26067 0
M  V30 1881 C 180.312 -0.506793 5.32293 0
M  V30 1882 C 181.612 1.64832 4.95608 0
M  V30 1883 H 183.306 1.20462 2.74097 0
M  V30 1884 H 180.852 0.580695 1.31772 0
M  V30 1885 H 182.805 -0.791395 4.13902 0
M  V30 1886 H 181.529 -1.28964 3.0006 0
M  V30 1887 H 180.188 0.760903 3.58617 0
M  V30 1888 H 179.836 -1.37519 4.83836 0
M  V30 1889 H 179.536 0.0415828 5.87585 0
M  V30 1890 H 181.06 -0.875764 6.04287 0
M  V30 1891 H 182.474 1.34646 5.57264 0
M  V30 1892 H 180.871 2.13688 5.60765 0
M  V30 1893 H 181.941 2.39284 4.21748 0
M  V30 1894 N 183.284 -1.43765 0.645699 0
M  V30 1895 C 184.532 -2.01499 0.155731 0
M  V30 1896 C 184.853 -1.51151 -1.232 0
M  V30 1897 O 184.123 -0.721044 -1.82148 0
M  V30 1898 H 182.703 -0.745003 0.0545817 0
M  V30 1899 H 185.365 -1.76075 0.835677 0
M  V30 1900 H 184.461 -3.1181 0.134577 0
M  V30 1901 N 184.763 -0.387143 -1.52771 0
M  V30 1902 C 185.695 0.484089 -2.2403 0
M  V30 1903 C 186.708 1.02849 -1.26198 0
M  V30 1904 O 187.897 0.931186 -1.52286 0
M  V30 1905 C 184.997 1.68337 -2.94136 0
M  V30 1906 C 184.17 1.26672 -4.18656 0
M  V30 1907 C 183.229 2.33045 -4.7178 0
M  V30 1908 O 182.255 1.94541 -5.34923 0
M  V30 1909 N 183.457 3.64929 -4.5145 0
M  V30 1910 H 186.222 -0.126404 -2.99433 0
M  V30 1911 H 183.783 -0.213392 -1.60488 0
M  V30 1912 H 185.775 2.39019 -3.26577 0
M  V30 1913 H 184.345 2.20025 -2.22053 0
M  V30 1914 H 183.565 0.388878 -3.92277 0
M  V30 1915 H 184.853 0.964964 -4.99566 0
M  V30 1916 H 184.251 3.98974 -4.01044 0
M  V30 1917 H 182.808 4.31651 -4.88386 0
M  V30 1918 N 186.241 1.57166 -0.116904 0
M  V30 1919 C 187.191 2.11756 0.845178 0
M  V30 1920 C 188.175 1.03783 1.22955 0
M  V30 1921 O 189.367 1.3002 1.20099 0
M  V30 1922 C 186.496 2.71886 2.09602 0
M  V30 1923 C 185.582 3.86937 1.7361 0
M  V30 1924 N 185.973 4.94073 1.08284 0
M  V30 1925 C 184.271 3.97082 2.03082 0
M  V30 1926 C 184.972 5.74477 0.913855 0
M  V30 1927 N 183.948 5.2423 1.43818 0
M  V30 1928 H 187.75 2.91967 0.336523 0
M  V30 1929 H 185.264 1.62174 0.0856332 0
M  V30 1930 H 187.261 3.09338 2.79492 0
M  V30 1931 H 185.921 1.93138 2.61013 0
M  V30 1932 H 186.932 5.12483 0.747067 0
M  V30 1933 H 183.609 3.29372 2.56554 0
M  V30 1934 H 184.999 6.70701 0.40125 0
M  V30 1935 N 187.719 -0.156864 1.56817 0
M  V30 1936 C 188.649 -1.19589 2.00551 0
M  V30 1937 C 189.63 -1.4536 0.883426 0
M  V30 1938 O 190.815 -1.56449 1.15054 0
M  V30 1939 C 187.945 -2.53143 2.37773 0
M  V30 1940 C 186.899 -2.41913 3.53075 0
M  V30 1941 C 186.225 -3.80088 3.76081 0
M  V30 1942 C 187.525 -1.91157 4.86062 0
M  V30 1943 H 189.219 -0.832293 2.87599 0
M  V30 1944 H 186.765 -0.398918 1.38364 0
M  V30 1945 H 188.718 -3.26047 2.66967 0
M  V30 1946 H 187.442 -2.91319 1.4765 0
M  V30 1947 H 186.101 -1.71462 3.24031 0
M  V30 1948 H 185.749 -4.15683 2.83225 0
M  V30 1949 H 185.449 -3.73439 4.53671 0
M  V30 1950 H 186.973 -4.54556 4.0769 0
M  V30 1951 H 188.387 -2.53846 5.14038 0
M  V30 1952 H 186.784 -1.95422 5.67389 0
M  V30 1953 H 187.854 -0.866673 4.77092 0
M  V30 1954 N 189.197 -1.51736 -0.425897 0
M  V30 1955 C 190.445 -1.64644 -1.17204 0
M  V30 1956 C 190.766 -0.370486 -1.91448 0
M  V30 1957 O 190.036 0.614088 -1.86026 0
M  V30 1958 H 188.616 -0.606819 -0.435638 0
M  V30 1959 H 191.278 -1.88713 -0.487177 0
M  V30 1960 H 190.374 -2.47958 -1.89534 0
M  V30 1961 N 190.675 0.682077 -1.42076 0
M  V30 1962 C 191.921 1.44428 -1.42367 0
M  V30 1963 C 192.254 1.94164 -0.0373056 0
M  V30 1964 O 191.529 1.70429 0.937239 0
M  V30 1965 C 191.812 2.64654 -2.44194 0
M  V30 1966 C 191.665 2.20596 -3.91991 0
M  V30 1967 C 192.984 3.66865 -2.431 0
M  V30 1968 H 190.103 0.523834 -0.518428 0
M  V30 1969 H 192.745 0.77576 -1.73442 0
M  V30 1970 H 190.895 3.2169 -2.17826 0
M  V30 1971 H 192.567 1.68783 -4.29313 0
M  V30 1972 H 190.81 1.52242 -4.06208 0
M  V30 1973 H 191.481 3.06921 -4.58807 0
M  V30 1974 H 193.957 3.19531 -2.66532 0
M  V30 1975 H 192.833 4.48577 -3.16339 0
M  V30 1976 H 193.094 4.17493 -1.45437 0
M  V30 1977 N 192.153 1.28127 0.917671 0
M  V30 1978 C 193.101 1.11569 2.04096 0
M  V30 1979 C 194.095 0.0360242 1.69362 0
M  V30 1980 O 195.301 0.194501 1.78946 0
M  V30 1981 H 191.676 0.344097 0.668656 0
M  V30 1982 H 193.647 2.06711 2.15205 0
M  V30 1983 C 192.396 0.790197 3.38602 0
M  V30 1984 H 191.719 1.61293 3.6582 0
M  V30 1985 H 193.159 0.714271 4.1794 0
M  V30 1986 C 191.618 -0.505897 3.3308 0
M  V30 1987 O 192.148 -1.53736 3.71117 0
M  V30 1988 N 190.354 -0.505193 2.86175 0
M  V30 1989 H 189.901 0.334621 2.55417 0
M  V30 1990 H 189.859 -1.37243 2.82863 0
M  V30 1991 N 193.631 -1.12557 1.10312 0
M  V30 1992 C 194.877 -1.84311 0.846011 0
M  V30 1993 C 195.21 -1.83805 -0.626859 0
M  V30 1994 O 194.485 -1.28268 -1.46211 0
M  V30 1995 C 194.768 -3.32048 1.39341 0
M  V30 1996 C 194.621 -3.41016 2.93305 0
M  V30 1997 C 195.94 -4.27764 1.03468 0
M  V30 1998 H 193.059 -0.669192 0.30879 0
M  V30 1999 H 195.701 -1.32057 1.36605 0
M  V30 2000 H 193.851 -3.76678 0.951087 0
M  V30 2001 H 195.523 -3.05031 3.46055 0
M  V30 2002 H 193.766 -2.81603 3.29973 0
M  V30 2003 H 194.437 -4.44948 3.26689 0
M  V30 2004 H 196.913 -3.91253 1.41633 0
M  V30 2005 H 195.789 -5.29549 1.44463 0
M  V30 2006 H 196.05 -4.42064 -0.0560404 0
M  V30 2007 N 195.109 -0.891671 -1.2995 0
M  V30 2008 C 196.072 -0.36828 -2.26222 0
M  V30 2009 C 197.072 0.493014 -1.53056 0
M  V30 2010 O 198.262 0.299213 -1.71611 0
M  V30 2011 C 195.394 0.47442 -3.37583 0
M  V30 2012 H 196.587 -1.21844 -2.74033 0
M  V30 2013 H 194.14 -0.669107 -1.41254 0
M  V30 2014 H 194.875 1.34489 -2.95099 0
M  V30 2015 H 194.66 -0.142615 -3.91841 0
M  V30 2016 H 196.15 0.83218 -4.09224 0
M  V30 2017 N 196.587 1.43421 -0.653314 0
M  V30 2018 C 197.812 2.06678 -0.172846 0
M  V30 2019 C 198.237 1.48648 1.15262 0
M  V30 2020 O 197.595 0.596457 1.71208 0
M  V30 2021 C 197.643 3.60474 -0.0953184 0
M  V30 2022 O 196.747 4.01487 0.942442 0
M  V30 2023 H 196.088 0.657181 -0.0949155 0
M  V30 2024 H 198.618 1.83925 -0.896265 0
M  V30 2025 H 198.628 4.07905 0.0879728 0
M  V30 2026 H 197.303 4.02088 -1.06291 0
M  V30 2027 H 195.88 3.65646 0.731932 0
M  V30 2028 N 198.065 0.39524 1.52563 0
M  V30 2029 C 198.995 -0.428384 2.29537 0
M  V30 2030 C 199.976 -1.05831 1.33169 0
M  V30 2031 O 201.161 -1.06995 1.62067 0
M  V30 2032 C 198.291 -1.55274 3.10656 0
M  V30 2033 C 197.245 -1.04855 4.14957 0
M  V30 2034 C 196.571 -2.26543 4.84337 0
M  V30 2035 C 197.871 -0.112324 5.22179 0
M  V30 2036 H 199.565 0.213867 2.98635 0
M  V30 2037 H 197.111 0.104298 1.43622 0
M  V30 2038 H 199.064 -2.1358 3.63265 0
M  V30 2039 H 197.788 -2.22266 2.39302 0
M  V30 2040 H 196.447 -0.487985 3.63338 0
M  V30 2041 H 196.095 -2.92059 4.09525 0
M  V30 2042 H 195.795 -1.93466 5.54837 0
M  V30 2043 H 197.319 -2.85481 5.39753 0
M  V30 2044 H 198.733 -0.603752 5.70112 0
M  V30 2045 H 197.13 0.128968 5.99961 0
M  V30 2046 H 198.2 0.837052 4.77621 0
M  V30 2047 N 199.544 -1.57102 0.125237 0
M  V30 2048 C 200.474 -2.18659 -0.819174 0
M  V30 2049 C 201.455 -1.12843 -1.27281 0
M  V30 2050 O 202.64 -1.41104 -1.33429 0
M  V30 2051 C 199.77 -2.79096 -2.06695 0
M  V30 2052 C 198.724 -3.90548 -1.75088 0
M  V30 2053 C 198.05 -4.37821 -3.06948 0
M  V30 2054 C 199.35 -5.12356 -1.01435 0
M  V30 2055 H 201.044 -2.9783 -0.306202 0
M  V30 2056 H 198.59 -1.4326 -0.145839 0
M  V30 2057 H 200.543 -3.2082 -2.73226 0
M  V30 2058 H 199.267 -1.97223 -2.60328 0
M  V30 2059 H 197.926 -3.49409 -1.10944 0
M  V30 2060 H 197.574 -3.52799 -3.58527 0
M  V30 2061 H 197.274 -5.12982 -2.86571 0
M  V30 2062 H 198.798 -4.822 -3.74587 0
M  V30 2063 H 200.212 -5.5106 -1.58132 0
M  V30 2064 H 198.609 -5.9314 -0.911319 0
M  V30 2065 H 199.679 -4.849 -0.00218681 0
M  V30 2066 N 201.022 0.148545 -1.56898 0
M  V30 2067 C 202.27 0.859717 -1.82902 0
M  V30 2068 C 202.591 1.81775 -0.70588 0
M  V30 2069 O 201.861 1.93994 0.272586 0
M  V30 2070 H 200.441 0.320469 -0.674766 0
M  V30 2071 H 203.103 0.142918 -1.94375 0
M  V30 2072 H 202.199 1.4229 -2.77777 0
M  V30 2073 N 202.5 1.5196 0.417844 0
M  V30 2074 C 203.777 1.56146 1.17803 0
M  V30 2075 C 204.157 0.337275 2.08388 0
M  V30 2076 O 203.505 -0.676447 2.18258 0
M  V30 2077 C 203.715 2.88566 1.96293 0
M  V30 2078 C 205.063 3.41244 2.52662 0
M  V30 2079 O 206.087 2.90247 2.06483 0
M  V30 2080 O 204.946 4.30273 3.36938 0
M  V30 2081 H 202.04 0.628598 0.537395 0
M  V30 2082 H 204.586 1.64283 0.425331 0
M  V30 2083 H 203.358 3.69116 1.2988 0
M  V30 2084 H 202.981 2.83681 2.78587 0
M  V30 2085 N 203.978 -0.674533 1.42435 0
M  V30 2086 C 205.226 -1.43175 1.42637 0
M  V30 2087 C 205.547 -1.94951 0.0438992 0
M  V30 2088 O 204.817 -1.7308 -0.917607 0
M  V30 2089 H 203.397 -0.531307 0.525092 0
M  V30 2090 H 206.059 -0.797006 1.77859 0
M  V30 2091 H 205.155 -2.28463 2.12629 0
M  V30 2092 N 205.456 -1.28612 -0.910864 0
M  V30 2093 C 206.388 -1.08589 -2.01844 0
M  V30 2094 C 207.401 -0.0367419 -1.62759 0
M  V30 2095 O 208.59 -0.280101 -1.76289 0
M  V30 2096 C 205.69 -0.628626 -3.33019 0
M  V30 2097 C 204.863 -1.75382 -4.00699 0
M  V30 2098 C 203.922 -1.28945 -5.10156 0
M  V30 2099 O 202.948 -1.9922 -5.33198 0
M  V30 2100 N 204.15 -0.154224 -5.80295 0
M  V30 2101 H 206.915 -2.03973 -2.19579 0
M  V30 2102 H 204.476 -1.20403 -1.08234 0
M  V30 2103 H 206.468 -0.301508 -4.03575 0
M  V30 2104 H 205.038 0.232451 -3.11735 0
M  V30 2105 H 204.258 -2.25039 -3.23653 0
M  V30 2106 H 205.546 -2.50854 -4.42662 0
M  V30 2107 H 204.944 0.43194 -5.64049 0
M  V30 2108 H 203.501 0.113599 -6.51701 0
M  V30 2109 N 206.934 1.1197 -1.10907 0
M  V30 2110 C 207.866 2.17592 -0.720175 0
M  V30 2111 C 208.879 1.60938 0.245495 0
M  V30 2112 O 210.068 1.78476 0.0292245 0
M  V30 2113 C 207.168 3.38873 -0.0427917 0
M  V30 2114 C 206.341 4.25006 -1.03388 0
M  V30 2115 C 205.4 5.24774 -0.387075 0
M  V30 2116 O 204.426 5.59631 -1.03934 0
M  V30 2117 N 205.628 5.74208 0.852407 0
M  V30 2118 H 208.393 2.51567 -1.62893 0
M  V30 2119 H 205.954 1.27439 -0.998543 0
M  V30 2120 H 207.946 4.02703 0.401501 0
M  V30 2121 H 206.516 3.03007 0.768456 0
M  V30 2122 H 205.736 3.57716 -1.65629 0
M  V30 2123 H 207.024 4.79397 -1.70458 0
M  V30 2124 H 206.422 5.48062 1.40161 0
M  V30 2125 H 204.979 6.39901 1.23977 0
M  V30 2126 N 208.412 0.89855 1.29475 0
M  V30 2127 C 209.828 0.594483 1.48115 0
M  V30 2128 C 210.028 -0.86431 1.82022 0
M  V30 2129 O 209.084 -1.64457 1.91599 0
M  V30 2130 C 210.397 1.51932 2.59494 0
M  V30 2131 C 211.945 1.5244 2.7337 0
M  V30 2132 C 212.42 2.43548 3.87877 0
M  V30 2133 N 213.911 2.41589 3.95208 0
M  V30 2134 C 214.646 3.08789 4.83153 0
M  V30 2135 N 214.142 3.85265 5.75798 0
M  V30 2136 N 215.935 2.97952 4.76635 0
M  V30 2137 H 208.086 1.84207 1.05742 0
M  V30 2138 H 210.349 0.789251 0.525154 0
M  V30 2139 H 210.055 2.55865 2.41301 0
M  V30 2140 H 209.929 1.23899 3.56271 0
M  V30 2141 H 212.316 0.492518 2.90961 0
M  V30 2142 H 212.397 1.8451 1.77172 0
M  V30 2143 H 212.041 3.46829 3.71041 0
M  V30 2144 H 211.971 2.08788 4.83441 0
M  V30 2145 H 214.462 1.86025 3.28943 0
M  V30 2146 H 214.775 4.33598 6.39697 0
M  V30 2147 H 213.12 3.89371 5.75687 0
M  V30 2148 H 216.311 2.37723 4.03244 0
M  V30 2149 H 216.484 3.50599 5.44962 0
M  V30 2150 N 209.89 -1.43072 0.660911 0
M  V30 2151 C 211.115 -2.06584 0.183805 0
M  V30 2152 C 211.54 -1.49257 -1.14472 0
M  V30 2153 O 210.898 -0.605528 -1.70889 0
M  V30 2154 C 210.946 -3.60418 0.114434 0
M  V30 2155 O 210.05 -4.01981 -0.921137 0
M  V30 2156 H 209.391 -0.656669 0.0983994 0
M  V30 2157 H 211.921 -1.83447 0.906006 0
M  V30 2158 H 211.931 -4.07946 -0.0663394 0
M  V30 2159 H 210.606 -4.01519 1.08422 0
M  V30 2160 H 209.183 -3.66029 -0.71253 0
M  V30 2161 N 211.368 -0.403325 -1.52352 0
M  V30 2162 C 212.278 0.432009 -2.30588 0
M  V30 2163 C 213.294 1.05884 -1.38075 0
M  V30 2164 O 214.47 1.06161 -1.71148 0
M  V30 2165 C 211.535 1.53669 -3.10784 0
M  V30 2166 C 210.596 0.933525 -4.19027 0
M  V30 2167 C 209.829 1.98557 -4.9539 0
M  V30 2168 O 210.052 3.20283 -4.71991 0
M  V30 2169 O 208.986 1.59504 -5.80381 0
M  V30 2170 H 212.812 -0.205739 -3.03002 0
M  V30 2171 H 210.397 -0.166675 -1.48467 0
M  V30 2172 H 212.279 2.17814 -3.60742 0
M  V30 2173 H 210.954 2.15915 -2.41169 0
M  V30 2174 H 209.861 0.254954 -3.7323 0
M  V30 2175 H 211.194 0.35508 -4.90918 0
M  V30 2176 N 212.846 1.57033 -0.133567 0
M  V30 2177 C 214.092 1.95976 0.521649 0
M  V30 2178 C 214.425 1.01779 1.65393 0
M  V30 2179 O 213.7 0.0576581 1.94415 0
M  V30 2180 C 213.983 3.44738 1.04057 0
M  V30 2181 C 213.836 4.49711 -0.0892897 0
M  V30 2182 C 215.155 3.95682 1.92675 0
M  V30 2183 H 212.274 0.712579 0.188149 0
M  V30 2184 H 214.916 1.88813 -0.212076 0
M  V30 2185 H 213.066 3.50973 1.66583 0
M  V30 2186 H 214.738 4.55565 -0.725152 0
M  V30 2187 H 212.981 4.27261 -0.750378 0
M  V30 2188 H 213.652 5.51099 0.315284 0
M  V30 2189 H 216.128 3.91841 1.39998 0
M  V30 2190 H 215.004 5.00262 2.25897 0
M  V30 2191 H 215.265 3.37239 2.85872 0
M  V30 2192 N 214.325 -0.140222 1.56975 0
M  V30 2193 C 215.235 -1.19223 2.02047 0
M  V30 2194 C 216.251 -1.46612 0.937062 0
M  V30 2195 O 217.427 -1.58148 1.24704 0
M  V30 2196 C 214.492 -2.50414 2.39778 0
M  V30 2197 C 213.553 -2.30612 3.621 0
M  V30 2198 C 212.786 -3.55547 3.98023 0
M  V30 2199 O 213.009 -4.62004 3.34528 0
M  V30 2200 O 211.943 -3.47808 4.91237 0
M  V30 2201 H 215.769 -0.839559 2.91865 0
M  V30 2202 H 213.354 -0.349453 1.45256 0
M  V30 2203 H 215.236 -3.27747 2.64877 0
M  V30 2204 H 213.911 -2.85198 1.53114 0
M  V30 2205 H 212.818 -1.51207 3.4218 0
M  V30 2206 H 214.151 -2.00741 4.49404 0
M  V30 2207 N 215.803 -1.52179 -0.40978 0
M  V30 2208 C 216.736 -1.70196 -1.52015 0
M  V30 2209 C 217.714 -0.549542 -1.53032 0
M  V30 2210 O 218.898 -0.776815 -1.71749 0
M  V30 2211 C 216.025 -1.74069 -2.90547 0
M  V30 2212 C 215.071 -2.95601 -3.07445 0
M  V30 2213 S 215.904 -4.55956 -2.80827 0
M  V30 2214 C 217.06 -4.62614 -4.21591 0
M  V30 2215 H 217.293 -2.64109 -1.36504 0
M  V30 2216 H 214.826 -1.4221 -0.601312 0
M  V30 2217 H 216.784 -1.76985 -3.70387 0
M  V30 2218 H 215.445 -0.812835 -3.034 0
M  V30 2219 H 214.638 -2.94791 -4.08796 0
M  V30 2220 H 214.24 -2.90569 -2.35469 0
M  V30 2221 H 216.532 -4.39951 -5.15218 0
M  V30 2222 H 217.475 -5.64548 -4.27424 0
M  V30 2223 H 217.883 -3.91654 -4.06531 0
M  V30 2224 N 217.281 0.66697 -1.42791 0
M  V30 2225 C 218.211 1.79218 -1.49677 0
M  V30 2226 C 219.192 1.66405 -0.352623 0
M  V30 2227 O 220.377 1.85708 -0.567993 0
M  V30 2228 C 217.507 3.17565 -1.40605 0
M  V30 2229 C 216.461 3.45124 -2.53127 0
M  V30 2230 C 215.787 4.83127 -2.29112 0
M  V30 2231 C 217.087 3.41236 -3.95418 0
M  V30 2232 H 218.781 1.73713 -2.43853 0
M  V30 2233 H 216.327 0.83432 -1.17367 0
M  V30 2234 H 218.28 3.96022 -1.44029 0
M  V30 2235 H 217.004 3.23767 -0.429271 0
M  V30 2236 H 215.663 2.69031 -2.49034 0
M  V30 2237 H 215.311 4.85988 -1.29709 0
M  V30 2238 H 215.011 5.02528 -3.04531 0
M  V30 2239 H 216.535 5.63859 -2.34297 0
M  V30 2240 H 217.949 4.09651 -4.01073 0
M  V30 2241 H 216.346 3.72173 -4.70752 0
M  V30 2242 H 217.416 2.39665 -4.21532 0
M  V30 2243 N 218.759 1.29093 0.90403 0
M  V30 2244 C 220.007 1.16583 1.65085 0
M  V30 2245 C 220.328 -0.283933 1.92922 0
M  V30 2246 O 219.598 -1.19509 1.55224 0
M  V30 2247 H 218.178 0.428467 0.611903 0
M  V30 2248 H 220.84 1.61959 1.08422 0
M  V30 2249 H 219.936 1.71266 2.6091 0
M  V30 2250 N 220.237 -1.11381 1.11499 0
M  V30 2251 C 221.467 -1.86663 0.885464 0
M  V30 2252 C 221.875 -1.80464 -0.568281 0
M  V30 2253 O 221.218 -1.18445 -1.40415 0
M  V30 2254 C 221.28 -3.36337 1.26956 0
M  V30 2255 C 220.944 -3.66304 2.73259 0
M  V30 2256 C 221.941 -3.63733 3.71476 0
M  V30 2257 C 219.626 -3.9529 3.09921 0
M  V30 2258 C 221.62 -3.89725 5.04374 0
M  V30 2259 C 219.307 -4.20941 4.43004 0
M  V30 2260 C 220.305 -4.18147 5.40039 0
M  V30 2261 O 219.993 -4.43153 6.70724 0
M  V30 2262 H 219.725 -0.597114 0.316908 0
M  V30 2263 H 222.279 -1.41782 1.48617 0
M  V30 2264 H 220.509 -3.81826 0.611999 0
M  V30 2265 H 222.198 -3.92986 1.01573 0
M  V30 2266 H 222.964 -3.41389 3.44498 0
M  V30 2267 H 218.843 -3.966 2.35009 0
M  V30 2268 H 222.387 -3.8746 5.80104 0
M  V30 2269 H 218.284 -4.42761 4.69716 0
M  V30 2270 H 219.052 -4.60717 6.76522 0
M  V30 2271 N 221.715 -0.905404 -1.28997 0
M  V30 2272 C 222.645 -0.404212 -2.29975 0
M  V30 2273 C 223.626 0.523784 -1.61835 0
M  V30 2274 O 224.811 0.433298 -1.89304 0
M  V30 2275 C 221.941 0.364042 -3.45387 0
M  V30 2276 C 220.895 -0.474048 -4.25367 0
M  V30 2277 C 220.221 0.422045 -5.33032 0
M  V30 2278 C 221.521 -1.72696 -4.92923 0
M  V30 2279 H 223.215 -1.24807 -2.72146 0
M  V30 2280 H 220.761 -0.601585 -1.30832 0
M  V30 2281 H 222.714 0.725447 -4.15109 0
M  V30 2282 H 221.438 1.24174 -3.02074 0
M  V30 2283 H 220.097 -0.81786 -3.57361 0
M  V30 2284 H 219.745 1.29804 -4.85963 0
M  V30 2285 H 219.445 -0.135057 -5.87445 0
M  V30 2286 H 220.969 0.779517 -6.05604 0
M  V30 2287 H 222.383 -1.43495 -5.55051 0
M  V30 2288 H 220.78 -2.22582 -5.57295 0
M  V30 2289 H 221.85 -2.45964 -4.17887 0
M  V30 2290 N 223.193 1.4272 -0.668489 0
M  V30 2291 C 224.44 2.01624 -0.18814 0
M  V30 2292 C 224.768 1.5282 1.20317 0
M  V30 2293 O 224.023 0.718323 1.8204 0
M  V30 2294 C 224.322 3.57021 -0.164499 0
M  V30 2295 C 223.988 4.25232 -1.49962 0
M  V30 2296 C 222.65 4.4358 -1.8652 0
M  V30 2297 C 225.002 4.63727 -2.37921 0
M  V30 2298 C 222.33 4.97694 -3.10674 0
M  V30 2299 C 224.682 5.19218 -3.6138 0
M  V30 2300 C 223.346 5.3578 -3.98115 0
M  V30 2301 H 222.616 0.737795 -0.0688454 0
M  V30 2302 H 225.263 1.70991 -0.862225 0
M  V30 2303 H 223.568 3.87285 0.593079 0
M  V30 2304 H 225.265 4.00372 0.224271 0
M  V30 2305 H 221.855 4.11306 -1.20522 0
M  V30 2306 H 226.039 4.4923 -2.10964 0
M  V30 2307 H 221.295 5.08702 -3.39164 0
M  V30 2308 H 225.469 5.4799 -4.29743 0
M  V30 2309 H 223.096 5.77475 -4.94395 0
M  V30 2310 N 224.671 0.411399 1.52136 0
M  V30 2311 C 225.918 -0.163645 2.01838 0
M  V30 2312 C 226.246 -1.4495 1.29691 0
M  V30 2313 O 225.501 -1.91725 0.392431 0
M  V30 2314 C 225.8 -0.455872 3.54481 0
M  V30 2315 C 225.466 0.741055 4.44769 0
M  V30 2316 C 224.128 1.06936 4.69167 0
M  V30 2317 C 226.48 1.54075 4.97906 0
M  V30 2318 C 223.808 2.19851 5.43951 0
M  V30 2319 C 226.16 2.66067 5.73926 0
M  V30 2320 C 224.824 2.99381 5.96596 0
M  V30 2321 H 224.094 -0.0598821 0.738576 0
M  V30 2322 H 226.741 0.553283 1.83333 0
M  V30 2323 H 225.046 -1.2544 3.71177 0
M  V30 2324 H 226.743 -0.913802 3.90449 0
M  V30 2325 H 223.333 0.475192 4.25958 0
M  V30 2326 H 227.517 1.30033 4.78963 0
M  V30 2327 H 222.773 2.46006 5.59724 0
M  V30 2328 H 226.947 3.28419 6.14096 0
M  V30 2329 H 224.574 3.86992 6.54325 0
M  V30 2330 N 226.149 -1.5696 0.141893 0
M  V30 2331 C 227.395 -1.9625 -0.511248 0
M  V30 2332 C 227.728 -1.02654 -1.64851 0
M  V30 2333 O 227.003 -0.0679676 -1.94381 0
M  V30 2334 C 227.286 -3.45285 -1.02227 0
M  V30 2335 C 227.139 -4.49658 0.113138 0
M  V30 2336 C 228.458 -3.96698 -1.90574 0
M  V30 2337 H 225.577 -0.713567 -0.184367 0
M  V30 2338 H 228.219 -1.88698 0.222087 0
M  V30 2339 H 226.369 -3.51852 -1.64719 0
M  V30 2340 H 228.041 -4.55174 0.749302 0
M  V30 2341 H 226.284 -4.26857 0.773026 0
M  V30 2342 H 226.955 -5.51258 -0.286053 0
M  V30 2343 H 229.431 -3.92578 -1.37918 0
M  V30 2344 H 228.307 -5.01453 -2.2324 0
M  V30 2345 H 228.568 -3.3875 -2.84079 0
M  V30 2346 N 227.627 0.131896 -1.57047 0
M  V30 2347 C 228.875 0.840269 -1.83804 0
M  V30 2348 C 229.196 1.81017 -0.72512 0
M  V30 2349 O 228.466 1.94272 0.251995 0
M  V30 2350 H 227.046 0.313294 -0.678127 0
M  V30 2351 H 229.708 0.122294 -1.94516 0
M  V30 2352 H 228.804 1.39335 -2.79271 0
M  V30 2353 N 229.106 1.52395 0.401703 0
M  V30 2354 C 230.054 1.7689 1.51039 0
M  V30 2355 C 231.048 0.636298 1.56996 0
M  V30 2356 O 232.254 0.818507 1.60314 0
M  V30 2357 H 228.629 0.559502 0.502456 0
M  V30 2358 H 230.6 2.69757 1.27568 0
M  V30 2359 C 229.349 1.94331 2.88324 0
M  V30 2360 H 228.672 2.80905 2.84486 0
M  V30 2361 H 230.112 2.15466 3.65172 0
M  V30 2362 C 228.571 0.712396 3.29282 0
M  V30 2363 O 229.101 -0.116218 4.01532 0
M  V30 2364 N 227.307 0.546154 2.85422 0
M  V30 2365 H 226.854 1.22156 2.26794 0
M  V30 2366 H 226.812 -0.276113 3.13185 0
M  V30 2367 N 230.584 -0.659388 1.43143 0
M  V30 2368 C 232 -0.974337 1.26407 0
M  V30 2369 C 232.2 -2.007 0.179341 0
M  V30 2370 O 231.256 -2.4856 -0.444295 0
M  V30 2371 C 232.569 -1.46447 2.62628 0
M  V30 2372 C 234.117 -1.58144 2.7011 0
M  V30 2373 C 234.592 -2.1055 4.06734 0
M  V30 2374 N 236.083 -2.17861 4.08767 0
M  V30 2375 C 236.818 -2.59519 5.1131 0
M  V30 2376 N 236.314 -3.00518 6.24228 0
M  V30 2377 N 238.107 -2.59404 4.98664 0
M  V30 2378 H 230.258 0.0240528 2.12386 0
M  V30 2379 H 232.521 -0.0518065 0.946583 0
M  V30 2380 H 232.227 -0.780123 3.42939 0
M  V30 2381 H 232.101 -2.44058 2.87603 0
M  V30 2382 H 234.488 -2.25682 1.90136 0
M  V30 2383 H 234.569 -0.589828 2.48907 0
M  V30 2384 H 234.213 -1.43616 4.87172 0
M  V30 2385 H 234.143 -3.10531 4.25298 0
M  V30 2386 H 236.634 -1.88975 3.27257 0
M  V30 2387 H 236.947 -3.31036 6.98309 0
M  V30 2388 H 235.292 -2.98337 6.2771 0
M  V30 2389 H 238.483 -2.26747 4.09516 0
M  V30 2390 H 238.656 -2.91548 5.78709 0
M  V30 2391 N 232.062 -1.29571 -0.897171 0
M  V30 2392 C 233.009 -1.14916 -2.00158 0
M  V30 2393 C 233.979 -0.0418149 -1.66047 0
M  V30 2394 O 235.164 -0.209793 -1.89643 0
M  V30 2395 C 232.304 -0.834307 -3.34863 0
M  V30 2396 C 231.417 -2.02234 -3.8174 0
M  V30 2397 C 230.552 -1.64664 -5.05034 0
M  V30 2398 C 229.591 -2.80033 -5.44286 0
M  V30 2399 N 228.728 -2.42843 -6.58765 0
M  V30 2400 H 233.568 -2.09403 -2.12025 0
M  V30 2401 H 231.105 -1.042 -1.0383 0
M  V30 2402 H 233.063 -0.632436 -4.12379 0
M  V30 2403 H 231.693 0.0736656 -3.22716 0
M  V30 2404 H 230.745 -2.33583 -3.00238 0
M  V30 2405 H 232.057 -2.88673 -4.06779 0
M  V30 2406 H 231.211 -1.4078 -5.9014 0
M  V30 2407 H 229.95 -0.753766 -4.8184 0
M  V30 2408 H 228.955 -3.04596 -4.57713 0
M  V30 2409 H 230.18 -3.69989 -5.6946 0
M  V30 2410 H 228.126 -1.56046 -6.3717 0
M  V30 2411 H 228.043 -3.22815 -6.83613 0
M  V30 2412 H 229.311 -2.22285 -7.47134 0
M  V30 2413 N 233.54 1.10788 -1.12088 0
M  V30 2414 C 234.503 2.15207 -0.788577 0
M  V30 2415 C 235.503 1.59609 0.195317 0
M  V30 2416 O 236.693 1.74174 -0.0300193 0
M  V30 2417 C 233.825 3.4047 -0.171174 0
M  V30 2418 H 235.018 2.46116 -1.71368 0
M  V30 2419 H 232.571 1.26089 -0.923652 0
M  V30 2420 H 233.306 3.15176 0.763832 0
M  V30 2421 H 233.091 3.82109 -0.879514 0
M  V30 2422 H 234.581 4.17576 0.04496 0
M  V30 2423 N 235.018 0.912232 1.28515 0
M  V30 2424 C 236.246 0.560416 1.99166 0
M  V30 2425 C 236.661 -0.857927 1.68182 0
M  V30 2426 O 236.018 -1.56805 0.933733 0
M  V30 2427 C 236.069 0.758142 3.53461 0
M  V30 2428 O 235.79 2.12067 3.83352 0
M  V30 2429 C 237.291 0.412954 4.41372 0
M  V30 2430 H 234.511 0.213805 0.636026 0
M  V30 2431 H 237.055 1.22502 1.63749 0
M  V30 2432 H 235.21 0.140556 3.87145 0
M  V30 2433 H 235.624 2.15923 4.77993 0
M  V30 2434 H 237.098 0.60208 5.48707 0
M  V30 2435 H 237.575 -0.65073 4.34353 0
M  V30 2436 H 238.181 1.00802 4.13182 0
M  V30 2437 N 236.496 -1.42363 0.676048 0
M  V30 2438 C 237.907 -1.84649 0.275948 0
M  V30 2439 C 238.258 -1.56588 -1.18214 0
M  V30 2440 O 237.383 -1.02634 -1.90513 0
M  V30 2441 C 237.978 -3.35178 0.494053 0
M  V30 2442 C 236.537 -3.76109 0.148061 0
M  V30 2443 C 235.684 -2.65931 0.785891 0
M  V30 2444 H 238.635 -1.32192 0.878121 0
M  V30 2445 H 238.656 -3.79655 -0.25343 0
M  V30 2446 H 238.168 -3.55571 1.55535 0
M  V30 2447 H 236.269 -3.61323 -0.909742 0
M  V30 2448 H 236.382 -4.7546 0.589454 0
M  V30 2449 H 234.746 -2.53773 0.217113 0
M  V30 2450 H 235.529 -2.89146 1.85067 0
M  V30 2451 N 237.974 -0.419461 -1.51915 0
M  V30 2452 C 238.904 0.391813 -2.30189 0
M  V30 2453 C 239.885 1.03699 -1.34836 0
M  V30 2454 O 241.07 1.04403 -1.63748 0
M  V30 2455 C 238.2 1.50312 -3.13087 0
M  V30 2456 C 237.154 0.9824 -4.16573 0
M  V30 2457 C 236.48 2.18809 -4.8788 0
M  V30 2458 C 237.78 0.0292356 -5.22292 0
M  V30 2459 H 239.474 -0.26135 -2.98257 0
M  V30 2460 H 237.02 -0.127134 -1.43438 0
M  V30 2461 H 238.973 2.07773 -3.66617 0
M  V30 2462 H 237.697 2.18431 -2.42807 0
M  V30 2463 H 236.356 0.430119 -3.64068 0
M  V30 2464 H 236.004 2.85507 -4.14119 0
M  V30 2465 H 235.704 1.84615 -5.57845 0
M  V30 2466 H 237.228 2.76858 -5.44226 0
M  V30 2467 H 238.642 0.512976 -5.71 0
M  V30 2468 H 237.039 -0.2244 -5.9968 0
M  V30 2469 H 238.109 -0.912931 -4.76228 0
M  V30 2470 N 239.452 1.56882 -0.150215 0
M  V30 2471 C 240.863 1.82995 0.370076 0
M  V30 2472 C 241.214 1.06907 1.64515 0
M  V30 2473 O 240.339 0.315369 2.1409 0
M  V30 2474 C 240.934 3.31942 0.678208 0
M  V30 2475 C 239.493 3.58625 1.14301 0
M  V30 2476 C 238.64 2.76792 0.167778 0
M  V30 2477 H 241.591 1.54209 -0.374858 0
M  V30 2478 H 241.612 3.48272 1.53254 0
M  V30 2479 H 241.124 3.87294 -0.249991 0
M  V30 2480 H 239.225 3.08664 2.08704 0
M  V30 2481 H 239.338 4.67073 1.06676 0
M  V30 2482 H 237.702 2.45972 0.661037 0
M  V30 2483 H 238.485 3.34916 -0.754069 0
M  V30 2484 N 240.93 -0.123565 1.57115 0
M  V30 2485 C 242.16 -0.845233 1.88519 0
M  V30 2486 C 242.568 -1.74168 0.739064 0
M  V30 2487 O 241.911 -1.81244 -0.299355 0
M  V30 2488 C 241.973 -1.73452 3.14888 0
M  V30 2489 C 241.637 -1.01285 4.45635 0
M  V30 2490 C 242.634 -0.355774 5.18681 0
M  V30 2491 C 240.319 -0.99538 4.92339 0
M  V30 2492 C 242.313 0.309114 6.3665 0
M  V30 2493 C 240 -0.32669 6.10226 0
M  V30 2494 C 240.998 0.324406 6.82229 0
M  V30 2495 O 240.686 0.982437 7.97874 0
M  V30 2496 H 240.418 -0.248534 0.628655 0
M  V30 2497 H 242.972 -0.113907 2.05084 0
M  V30 2498 H 241.202 -2.50737 2.94394 0
M  V30 2499 H 242.891 -2.33021 3.32349 0
M  V30 2500 H 243.657 -0.360918 4.83655 0
M  V30 2501 H 239.536 -1.49159 4.36202 0
M  V30 2502 H 243.08 0.8179 6.92789 0
M  V30 2503 H 238.977 -0.319294 6.4471 0
M  V30 2504 H 239.745 0.886454 8.13686 0
M  V30 2505 N 242.408 -1.52605 -0.393616 0
M  V30 2506 C 243.34 -1.73303 -1.49995 0
M  V30 2507 C 244.353 -0.613473 -1.50799 0
M  V30 2508 O 245.542 -0.889049 -1.54784 0
M  V30 2509 C 242.642 -1.77245 -2.88855 0
M  V30 2510 C 241.815 -3.06483 -3.12069 0
M  V30 2511 C 240.874 -3.02033 -4.30886 0
M  V30 2512 O 239.9 -3.75907 -4.27414 0
M  V30 2513 N 241.102 -2.20897 -5.36828 0
M  V30 2514 H 243.867 -2.68756 -1.32629 0
M  V30 2515 H 241.428 -1.51036 -0.583083 0
M  V30 2516 H 243.42 -1.7178 -3.66434 0
M  V30 2517 H 241.99 -0.891993 -2.99603 0
M  V30 2518 H 241.21 -3.25474 -2.22396 0
M  V30 2519 H 242.498 -3.91947 -3.2443 0
M  V30 2520 H 241.896 -1.60336 -5.42502 0
M  V30 2521 H 240.453 -2.21275 -6.13091 0
M  V30 2522 N 243.887 0.651787 -1.4349 0
M  V30 2523 C 245.112 1.44434 -1.48841 0
M  V30 2524 C 245.537 1.8779 -0.107955 0
M  V30 2525 O 244.895 1.57464 0.898602 0
M  V30 2526 C 244.943 2.65458 -2.44059 0
M  V30 2527 O 244.047 3.64566 -1.92784 0
M  V30 2528 H 243.388 0.433005 -0.503391 0
M  V30 2529 H 245.918 0.797451 -1.88419 0
M  V30 2530 H 245.928 3.13255 -2.6141 0
M  V30 2531 H 244.603 2.33244 -3.4434 0
M  V30 2532 H 243.18 3.23716 -1.851 0
M  V30 2533 N 245.365 1.30045 0.890287 0
M  V30 2534 C 246.297 1.11786 2.00091 0
M  V30 2535 C 247.31 0.0626307 1.62679 0
M  V30 2536 O 248.499 0.308112 1.75821 0
M  V30 2537 C 245.599 0.681527 3.31977 0
M  V30 2538 C 244.772 1.81735 3.97858 0
M  V30 2539 C 243.831 1.37045 5.08041 0
M  V30 2540 O 242.857 2.07677 5.29961 0
M  V30 2541 N 244.059 0.246525 5.79976 0
M  V30 2542 H 246.824 2.07441 2.16306 0
M  V30 2543 H 244.385 1.2211 1.06305 0
M  V30 2544 H 246.377 0.365675 4.03045 0
M  V30 2545 H 244.947 -0.182828 3.12065 0
M  V30 2546 H 244.167 2.30159 3.20032 0
M  V30 2547 H 245.455 2.57865 4.38615 0
M  V30 2548 H 244.853 -0.34215 5.64664 0
M  V30 2549 H 243.41 -0.00990438 6.51799 0
M  V30 2550 N 246.843 -1.10192 1.12674 0
M  V30 2551 C 248.254 -1.63707 0.897604 0
M  V30 2552 C 248.605 -1.87812 -0.567546 0
M  V30 2553 O 247.73 -1.62196 -1.43253 0
M  V30 2554 C 248.325 -2.974 1.62292 0
M  V30 2555 C 246.884 -3.47772 1.43986 0
M  V30 2556 C 246.031 -2.22332 1.65722 0
M  V30 2557 H 248.982 -0.936587 1.28116 0
M  V30 2558 H 249.003 -3.64986 1.07541 0
M  V30 2559 H 248.515 -2.79824 2.68924 0
M  V30 2560 H 246.616 -3.70487 0.396206 0
M  V30 2561 H 246.729 -4.25723 2.19765 0
M  V30 2562 H 245.093 -2.30599 1.08149 0
M  V30 2563 H 245.876 -2.07285 2.73657 0
M  V30 2564 N 248.321 -0.919034 -1.28029 0
M  V30 2565 C 249.598 -0.473668 -1.89778 0
M  V30 2566 C 249.978 1.04783 -1.83259 0
M  V30 2567 O 249.326 1.8982 -1.27202 0
M  V30 2568 C 249.536 -1.00998 -3.34066 0
M  V30 2569 C 250.884 -1.06525 -4.1102 0
M  V30 2570 O 251.908 -0.958996 -3.43048 0
M  V30 2571 O 250.767 -1.22776 -5.3253 0
M  V30 2572 H 247.861 -0.15098 -0.813101 0
M  V30 2573 H 250.407 -1.01016 -1.36359 0
M  V30 2574 H 249.179 -2.05392 -3.33061 0
M  V30 2575 H 248.802 -0.454626 -3.94992 0
M  V30 2576 N 249.799 1.42003 -0.683588 0
M  V30 2577 C 251.076 1.95112 -0.138075 0
M  V30 2578 C 251.456 1.62359 1.34918 0
M  V30 2579 O 250.804 0.924311 2.08971 0
M  V30 2580 C 251.014 3.46505 -0.416581 0
M  V30 2581 C 252.362 4.23254 -0.337834 0
M  V30 2582 O 253.386 3.54468 -0.35082 0
M  V30 2583 O 252.245 5.45743 -0.287596 0
M  V30 2584 H 249.339 0.826961 -0.00797996 0
M  V30 2585 H 251.885 1.51784 -0.758924 0
M  V30 2586 H 250.657 3.63582 -1.4465 0
M  V30 2587 H 250.28 3.969 0.235839 0
M  V30 2588 N 251.277 0.427512 1.51691 0
M  V30 2589 C 252.502 -0.143601 2.06902 0
M  V30 2590 C 252.927 -1.36536 1.29382 0
M  V30 2591 O 252.285 -1.78289 0.329043 0
M  V30 2592 C 252.333 -0.454207 3.57728 0
M  V30 2593 O 251.437 -1.54228 3.82475 0
M  V30 2594 H 250.778 -0.00617128 0.663971 0
M  V30 2595 H 253.308 0.606014 1.95419 0
M  V30 2596 H 253.318 -0.707525 4.01818 0
M  V30 2597 H 251.993 0.438812 4.13579 0
M  V30 2598 H 250.57 -1.2797 3.50254 0
M  V30 2599 N 252.755 -1.56801 0.158532 0
M  V30 2600 C 253.995 -1.98383 -0.49229 0
M  V30 2601 C 254.359 -1.04184 -1.61275 0
M  V30 2602 O 255.56 -1.34856 -2.32524 0
M  V30 2603 C 253.831 -3.4385 -0.974766 0
M  V30 2604 S 255.39 -4.07459 -1.62857 0
M  V30 2605 H 252.208 -0.693041 -0.158794 0
M  V30 2606 H 254.81 -1.93856 0.252974 0
M  V30 2607 H 253.514 -4.10131 -0.148688 0
M  V30 2608 H 253.045 -3.52115 -1.75438 0
M  V30 2609 H 255.06 -4.01458 -2.91627 0
M  V30 2610 N 254.233 0.115231 -1.57178 0
M  V30 2611 C 255.51 0.852873 -1.76027 0
M  V30 2612 C 255.89 1.97892 -0.73498 0
M  V30 2613 O 255.238 2.27232 0.24036 0
M  V30 2614 C 255.448 1.36608 -3.21153 0
M  V30 2615 C 256.796 1.81692 -3.83762 0
M  V30 2616 O 257.82 1.46278 -3.24779 0
M  V30 2617 O 256.679 2.47104 -4.87444 0
M  V30 2618 H 253.773 0.405296 -0.720877 0
M  V30 2619 H 256.319 0.0986785 -1.69413 0
M  V30 2620 H 255.091 0.558357 -3.87296 0
M  V30 2621 H 254.714 2.18287 -3.3232 0
M  V30 2622 N 255.711 1.52812 0.385517 0
M  V30 2623 C 256.957 1.69225 1.12847 0
M  V30 2624 C 257.312 0.42864 1.87564 0
M  V30 2625 O 256.605 -0.57779 1.8268 0
M  V30 2626 C 256.799 2.86856 2.13187 0
M  V30 2627 C 256.628 4.24535 1.48325 0
M  V30 2628 C 255.398 4.89701 1.24585 0
M  V30 2629 C 257.596 5.05794 0.931501 0
M  V30 2630 N 255.578 6.11353 0.558644 0
M  V30 2631 C 256.949 6.1888 0.372552 0
M  V30 2632 C 259.004 4.90963 0.828248 0
M  V30 2633 C 257.707 7.18757 -0.279556 0
M  V30 2634 C 259.733 5.91095 0.189956 0
M  V30 2635 C 259.095 7.03489 -0.358207 0
M  V30 2636 H 255.194 0.67268 0.39878 0
M  V30 2637 H 257.778 1.9017 0.417528 0
M  V30 2638 H 255.949 2.67484 2.81614 0
M  V30 2639 H 257.681 2.92188 2.80014 0
M  V30 2640 H 254.436 4.48485 1.52178 0
M  V30 2641 H 254.86 6.76606 0.230983 0
M  V30 2642 H 259.502 4.04274 1.23784 0
M  V30 2643 H 257.22 8.05052 -0.701152 0
M  V30 2644 H 260.806 5.81694 0.111264 0
M  V30 2645 H 259.686 7.79642 -0.844314 0
M  V30 2646 N 257.189 -0.644168 1.43834 0
M  V30 2647 C 258.419 -1.42939 1.49171 0
M  V30 2648 C 258.827 -1.88874 0.111048 0
M  V30 2649 O 258.17 -1.60656 -0.8908 0
M  V30 2650 C 258.232 -2.69151 2.38324 0
M  V30 2651 C 257.896 -2.45097 3.85715 0
M  V30 2652 C 258.893 -2.07747 4.76589 0
M  V30 2653 C 256.578 -2.59141 4.30292 0
M  V30 2654 C 258.572 -1.8475 6.10038 0
M  V30 2655 C 256.259 -2.35759 5.63792 0
M  V30 2656 C 257.257 -1.9862 6.53482 0
M  V30 2657 O 256.945 -1.75489 7.84512 0
M  V30 2658 H 256.677 -0.445271 0.508635 0
M  V30 2659 H 259.231 -0.79621 1.8934 0
M  V30 2660 H 257.461 -3.3506 1.93058 0
M  V30 2661 H 259.15 -3.31123 2.3476 0
M  V30 2662 H 259.916 -1.96465 4.43426 0
M  V30 2663 H 255.795 -2.87022 3.60749 0
M  V30 2664 H 259.339 -1.55686 6.80006 0
M  V30 2665 H 255.236 -2.46646 5.9652 0
M  V30 2666 H 256.004 -1.89841 7.9618 0
M  V30 2667 N 258.668 -1.30515 -0.883378 0
M  V30 2668 C 260.084 -1.08881 -1.16692 0
M  V30 2669 C 260.284 0.149409 -2.00945 0
M  V30 2670 O 259.34 0.84257 -2.38027 0
M  V30 2671 C 260.653 -2.35319 -1.87204 0
M  V30 2672 C 262.201 -2.40799 -1.99962 0
M  V30 2673 C 262.676 -3.67083 -2.73887 0
M  V30 2674 N 264.167 -3.679 -2.81432 0
M  V30 2675 C 264.902 -4.62303 -3.3921 0
M  V30 2676 N 264.398 -5.67052 -3.98025 0
M  V30 2677 N 266.191 -4.49845 -3.3704 0
M  V30 2678 H 258.342 -2.09951 -0.321633 0
M  V30 2679 H 260.605 -0.92556 -0.205043 0
M  V30 2680 H 260.311 -3.25689 -1.3274 0
M  V30 2681 H 260.185 -2.44089 -2.87577 0
M  V30 2682 H 262.572 -1.50907 -2.53597 0
M  V30 2683 H 262.653 -2.36003 -0.98673 0
M  V30 2684 H 262.297 -4.57334 -2.20925 0
M  V30 2685 H 262.227 -3.69141 -3.75556 0
M  V30 2686 H 264.718 -2.92171 -2.39676 0
M  V30 2687 H 265.031 -6.35184 -4.40183 0
M  V30 2688 H 263.376 -5.70842 -3.96439 0
M  V30 2689 H 266.567 -3.67194 -2.90321 0
M  V30 2690 H 266.74 -5.23597 -3.81772 0
M  V30 2691 N 260.146 1.09593 -1.13257 0
M  V30 2692 C 261.076 2.18214 -0.830946 0
M  V30 2693 C 262.057 1.68812 0.208966 0
M  V30 2694 O 263.242 1.9408 0.0682666 0
M  V30 2695 C 260.372 3.46051 -0.294296 0
M  V30 2696 C 259.326 4.08778 -1.26826 0
M  V30 2697 C 258.652 5.31419 -0.591449 0
M  V30 2698 C 259.952 4.51476 -2.62615 0
M  V30 2699 H 261.646 2.43703 -1.73923 0
M  V30 2700 H 259.192 1.17128 -0.837675 0
M  V30 2701 H 261.145 4.2134 -0.0709606 0
M  V30 2702 H 259.869 3.20079 0.649366 0
M  V30 2703 H 258.528 3.35505 -1.47756 0
M  V30 2704 H 258.176 5.01727 0.357633 0
M  V30 2705 H 257.876 5.74341 -1.24123 0
M  V30 2706 H 259.4 6.09433 -0.377355 0
M  V30 2707 H 260.814 5.17999 -2.45663 0
M  V30 2708 H 259.211 5.05277 -3.23752 0
M  V30 2709 H 260.281 3.63962 -3.20406 0
M  V30 2710 N 261.624 0.925811 1.2754 0
M  V30 2711 C 263.04 0.625767 1.46821 0
M  V30 2712 C 263.24 -0.825506 1.83814 0
M  V30 2713 O 262.296 -1.60356 1.95044 0
M  V30 2714 C 263.609 1.57402 2.56213 0
M  V30 2715 C 265.157 1.58204 2.70075 0
M  V30 2716 C 265.632 2.51721 3.82623 0
M  V30 2717 N 267.123 2.49917 3.89994 0
M  V30 2718 C 267.858 3.18968 4.76494 0
M  V30 2719 N 267.354 3.97391 5.67496 0
M  V30 2720 N 269.147 3.07996 4.70208 0
M  V30 2721 H 261.298 1.86409 1.01811 0
M  V30 2722 H 263.561 0.800213 0.508295 0
M  V30 2723 H 263.267 2.60925 2.35819 0
M  V30 2724 H 263.141 1.31428 3.53563 0
M  V30 2725 H 265.528 0.554124 2.89851 0
M  V30 2726 H 265.609 1.88226 1.73218 0
M  V30 2727 H 265.253 3.54622 3.63601 0
M  V30 2728 H 265.183 2.18996 4.78903 0
M  V30 2729 H 267.674 1.9296 3.24923 0
M  V30 2730 H 267.987 4.4707 6.30356 0
M  V30 2731 H 266.332 4.01495 5.67298 0
M  V30 2732 H 269.523 2.46223 3.9811 0
M  V30 2733 H 269.696 3.6208 5.37403 0
M  V30 2734 N 263.102 -1.41638 0.69111 0
M  V30 2735 C 264.052 -2.28 -0.000107832 0
M  V30 2736 C 265.036 -1.41964 -0.757304 0
M  V30 2737 O 266.228 -1.65274 -0.633532 0
M  V30 2738 C 263.357 -3.30209 -0.938983 0
M  V30 2739 C 262.443 -4.23725 -0.17827 0
M  V30 2740 N 262.834 -4.99017 0.825563 0
M  V30 2741 C 261.132 -4.44071 -0.414392 0
M  V30 2742 C 261.833 -5.67431 1.28052 0
M  V30 2743 N 260.809 -5.40197 0.607304 0
M  V30 2744 H 264.611 -2.83644 0.769617 0
M  V30 2745 H 262.125 -1.53797 0.521562 0
M  V30 2746 H 264.122 -3.90898 -1.44929 0
M  V30 2747 H 262.782 -2.76126 -1.70836 0
M  V30 2748 H 263.793 -5.03671 1.20566 0
M  V30 2749 H 260.47 -4.01004 -1.162 0
M  V30 2750 H 261.86 -6.37801 2.11327 0
M  V30 2751 N 264.58 -0.43555 -1.51462 0
M  V30 2752 C 265.49 0.383001 -2.31453 0
M  V30 2753 C 266.506 1.02931 -1.4029 0
M  V30 2754 O 267.682 1.02507 -1.73362 0
M  V30 2755 C 264.747 1.47043 -3.13973 0
M  V30 2756 C 263.808 0.844433 -4.20913 0
M  V30 2757 C 263.041 1.88004 -4.9949 0
M  V30 2758 O 263.264 3.10199 -4.78678 0
M  V30 2759 O 262.198 1.47157 -5.83634 0
M  V30 2760 H 266.024 -0.269964 -3.02498 0
M  V30 2761 H 263.609 -0.19813 -1.4808 0
M  V30 2762 H 265.491 2.10113 -3.65281 0
M  V30 2763 H 264.166 2.10751 -2.45695 0
M  V30 2764 H 263.073 0.175729 -3.73687 0
M  V30 2765 H 264.406 0.250869 -4.9156 0
M  V30 2766 N 266.058 1.56714 -0.166846 0
M  V30 2767 C 266.968 2.21331 0.777791 0
M  V30 2768 C 267.984 1.20358 1.25658 0
M  V30 2769 O 269.16 1.53005 1.30964 0
M  V30 2770 C 266.225 2.83787 1.99163 0
M  V30 2771 C 265.286 3.99947 1.56016 0
M  V30 2772 C 264.519 4.59415 2.71613 0
M  V30 2773 O 264.742 4.17769 3.88362 0
M  V30 2774 O 263.676 5.49359 2.45945 0
M  V30 2775 H 267.502 3.02605 0.257636 0
M  V30 2776 H 265.087 1.49275 0.0611393 0
M  V30 2777 H 266.969 3.23405 2.70161 0
M  V30 2778 H 265.644 2.05513 2.50092 0
M  V30 2779 H 264.551 3.65007 0.819809 0
M  V30 2780 H 265.884 4.79801 1.09782 0
M  V30 2781 N 267.536 -0.106894 1.57237 0
M  V30 2782 C 268.499 -1.11466 2.0027 0
M  V30 2783 C 269.499 -1.33623 0.894519 0
M  V30 2784 O 270.689 -1.29935 1.16028 0
M  V30 2785 C 267.821 -2.46646 2.35327 0
M  V30 2786 H 269.014 -0.744516 2.90512 0
M  V30 2787 H 266.567 -0.351576 1.52295 0
M  V30 2788 H 267.302 -2.88558 1.48003 0
M  V30 2789 H 267.087 -2.31915 3.16161 0
M  V30 2790 H 268.577 -3.19151 2.69318 0
M  V30 2791 N 269.014 -1.53014 -0.377408 0
M  V30 2792 C 269.947 -1.73382 -1.48371 0
M  V30 2793 C 270.925 -0.581879 -1.51832 0
M  V30 2794 O 272.109 -0.81307 -1.70063 0
M  V30 2795 C 269.236 -1.80192 -2.8679 0
M  V30 2796 C 268.282 -3.02056 -3.01105 0
M  V30 2797 S 269.115 -4.61811 -2.71093 0
M  V30 2798 C 270.271 -4.71453 -4.11683 0
M  V30 2799 H 270.504 -2.66946 -1.30872 0
M  V30 2800 H 268.037 -1.43453 -0.571012 0
M  V30 2801 H 269.995 -1.84802 -3.6655 0
M  V30 2802 H 268.656 -0.877008 -3.01608 0
M  V30 2803 H 267.849 -3.03396 -4.02451 0
M  V30 2804 H 267.451 -2.95498 -2.29253 0
M  V30 2805 H 269.743 -4.50781 -5.0577 0
M  V30 2806 H 270.686 -5.73487 -4.15353 0
M  V30 2807 H 271.094 -4.00189 -3.98132 0
M  V30 2808 N 270.492 0.636531 -1.44174 0
M  V30 2809 C 271.72 1.42353 -1.50144 0
M  V30 2810 C 272.135 1.88389 -0.124575 0
M  V30 2811 O 271.492 1.6051 0.868489 0
M  V30 2812 C 271.543 2.64744 -2.46156 0
M  V30 2813 O 271.264 2.20629 -3.7849 0
M  V30 2814 C 272.765 3.57929 -2.61537 0
M  V30 2815 H 269.985 0.436752 -0.5094 0
M  V30 2816 H 272.529 0.778933 -1.89084 0
M  V30 2817 H 270.684 3.25307 -2.10366 0
M  V30 2818 H 271.098 2.99938 -4.30276 0
M  V30 2819 H 272.572 4.40428 -3.32757 0
M  V30 2820 H 273.049 4.06382 -1.66585 0
M  V30 2821 H 273.655 3.03238 -2.98206 0
M  V30 2822 N 271.97 1.30982 0.876444 0
M  V30 2823 C 273.381 1.18277 1.44456 0
M  V30 2824 C 273.732 -0.213265 1.95037 0
M  V30 2825 O 272.857 -1.11057 1.85729 0
M  V30 2826 C 273.452 2.1411 2.62569 0
M  V30 2827 C 272.011 2.05358 3.15444 0
M  V30 2828 C 271.158 2.03706 1.88146 0
M  V30 2829 H 274.109 1.43127 0.685584 0
M  V30 2830 H 274.13 1.72692 3.39054 0
M  V30 2831 H 273.642 3.15706 2.25724 0
M  V30 2832 H 271.743 1.06934 3.56926 0
M  V30 2833 H 271.856 2.94156 3.78166 0
M  V30 2834 H 270.22 1.48629 2.06837 0
M  V30 2835 H 271.003 3.07047 1.53547 0
M  V30 2836 N 273.449 -1.08991 1.13837 0
M  V30 2837 C 274.726 -1.77863 0.813876 0
M  V30 2838 C 275.106 -1.99375 -0.693746 0
M  V30 2839 O 274.454 -1.59875 -1.63255 0
M  V30 2840 C 274.664 -3.0986 1.60586 0
M  V30 2841 C 276.012 -3.84493 1.8014 0
M  V30 2842 O 277.036 -3.19624 1.57222 0
M  V30 2843 O 275.895 -5.00957 2.18413 0
M  V30 2844 H 272.989 -0.771589 0.297624 0
M  V30 2845 H 275.535 -1.15507 1.24323 0
M  V30 2846 H 274.307 -2.89715 2.63022 0
M  V30 2847 H 273.93 -3.79942 1.17173 0
M  V30 2848 N 274.927 -0.932562 -1.27047 0
M  V30 2849 C 275.89 -0.440064 -2.24936 0
M  V30 2850 C 276.89 0.444071 -1.54547 0
M  V30 2851 O 278.08 0.244465 -1.72476 0
M  V30 2852 C 275.212 0.36678 -3.38921 0
M  V30 2853 H 276.405 -1.305 -2.70018 0
M  V30 2854 H 273.958 -0.713707 -1.39054 0
M  V30 2855 H 274.693 1.25033 -2.99228 0
M  V30 2856 H 274.478 -0.267204 -3.91188 0
M  V30 2857 H 275.968 0.701567 -4.11665 0
M  V30 2858 N 276.405 1.4127 -0.698611 0
M  V30 2859 C 277.651 2.01478 -0.231207 0
M  V30 2860 C 277.984 1.55215 1.16713 0
M  V30 2861 O 277.259 0.764672 1.78838 0
M  V30 2862 C 277.542 3.58912 -0.292281 0
M  V30 2863 C 277.395 4.15293 -1.72778 0
M  V30 2864 C 278.714 4.38736 0.346194 0
M  V30 2865 H 275.833 0.732025 -0.0854878 0
M  V30 2866 H 278.475 1.67977 -0.887906 0
M  V30 2867 H 276.625 3.87582 0.26686 0
M  V30 2868 H 278.297 3.97486 -2.341 0
M  V30 2869 H 276.54 3.7022 -2.26096 0
M  V30 2870 H 277.211 5.24452 -1.72202 0
M  V30 2871 H 279.687 4.15897 -0.130035 0
M  V30 2872 H 278.563 5.48221 0.272932 0
M  V30 2873 H 278.824 4.18425 1.42734 0
M  V30 2874 N 277.883 0.443576 1.51229 0
M  V30 2875 C 279.129 -0.120975 2.02439 0
M  V30 2876 C 279.462 -1.41815 1.32674 0
M  V30 2877 O 278.737 -1.89373 0.443622 0
M  V30 2878 C 279.02 -0.333291 3.58554 0
M  V30 2879 C 278.873 0.982968 4.38928 0
M  V30 2880 C 280.192 -1.10028 4.26124 0
M  V30 2881 H 277.311 -0.0424923 0.735774 0
M  V30 2882 H 279.953 0.583794 1.80809 0
M  V30 2883 H 278.103 -0.933614 3.77115 0
M  V30 2884 H 279.775 1.61775 4.32003 0
M  V30 2885 H 278.018 1.58611 4.03763 0
M  V30 2886 H 278.689 0.788379 5.46341 0
M  V30 2887 H 281.165 -0.591711 4.11871 0
M  V30 2888 H 280.041 -1.21761 5.35225 0
M  V30 2889 H 280.302 -2.12996 3.87408 0
M  V30 2890 N 279.361 -1.56624 0.175154 0
M  V30 2891 C 280.777 -1.58571 -0.180966 0
M  V30 2892 C 280.977 -1.19065 -1.6256 0
M  V30 2893 O 280.033 -0.904044 -2.35761 0
M  V30 2894 C 281.346 -3.00522 0.103326 0
M  V30 2895 C 282.894 -3.12972 0.0418426 0
M  V30 2896 C 283.369 -4.57022 0.299175 0
M  V30 2897 N 284.86 -4.62541 0.247086 0
M  V30 2898 C 285.595 -5.71857 0.420318 0
M  V30 2899 N 285.091 -6.89717 0.652816 0
M  V30 2900 N 286.884 -5.60972 0.355957 0
M  V30 2901 H 279.035 -1.80589 1.11809 0
M  V30 2902 H 281.298 -0.837178 0.444788 0
M  V30 2903 H 281.004 -3.33916 1.10422 0
M  V30 2904 H 280.878 -3.72344 -0.603299 0
M  V30 2905 H 283.265 -2.79403 -0.949636 0
M  V30 2906 H 283.346 -2.43578 0.781238 0
M  V30 2907 H 282.99 -4.913 1.28788 0
M  V30 2908 H 282.92 -5.24579 -0.460876 0
M  V30 2909 H 285.411 -3.77829 0.0731895 0
M  V30 2910 H 285.724 -7.68911 0.774347 0
M  V30 2911 H 284.069 -6.91572 0.689476 0
M  V30 2912 H 287.26 -4.67773 0.174882 0
M  V30 2913 H 287.433 -6.46111 0.494388 0
M  V30 2914 N 280.839 0.0985539 -1.57292 0
M  V30 2915 C 281.769 1.12064 -2.04851 0
M  V30 2916 C 282.75 1.41981 -0.936767 0
M  V30 2917 O 283.935 1.52071 -1.20781 0
M  V30 2918 C 281.065 2.44144 -2.47004 0
M  V30 2919 C 280.019 2.28643 -3.6181 0
M  V30 2920 C 279.345 3.65869 -3.89929 0
M  V30 2921 C 280.645 1.72986 -4.92822 0
M  V30 2922 H 282.339 0.724979 -2.9049 0
M  V30 2923 H 279.885 0.34729 -1.39749 0
M  V30 2924 H 281.838 3.15914 -2.78884 0
M  V30 2925 H 280.562 2.85639 -1.5836 0
M  V30 2926 H 279.221 1.59318 -3.30172 0
M  V30 2927 H 278.869 4.04885 -2.98458 0
M  V30 2928 H 278.569 3.56344 -4.67218 0
M  V30 2929 H 280.093 4.39112 -4.2428 0
M  V30 2930 H 281.507 2.34593 -5.23105 0
M  V30 2931 H 279.904 1.74229 -5.74251 0
M  V30 2932 H 280.974 0.689007 -4.7998 0
M  V30 2933 N 282.317 1.53212 0.369288 0
M  V30 2934 C 283.28 1.7872 1.43498 0
M  V30 2935 C 284.28 0.657554 1.46741 0
M  V30 2936 O 285.47 0.925736 1.47566 0
M  V30 2937 C 282.602 1.90591 2.82645 0
M  V30 2938 H 283.795 2.73894 1.22156 0
M  V30 2939 H 281.348 1.44233 0.602203 0
M  V30 2940 H 282.083 0.974709 3.09306 0
M  V30 2941 H 281.868 2.72751 2.8169 0
M  V30 2942 H 283.358 2.11931 3.59826 0
M  V30 2943 N 283.795 -0.628877 1.44509 0
M  V30 2944 C 284.705 -1.7694 1.54044 0
M  V30 2945 C 285.721 -1.68705 0.425987 0
M  V30 2946 O 286.897 -1.89442 0.683656 0
M  V30 2947 C 283.962 -3.13332 1.48405 0
M  V30 2948 C 283.023 -3.33181 2.70719 0
M  V30 2949 C 282.256 -4.63067 2.6534 0
M  V30 2950 O 282.479 -5.44017 1.71469 0
M  V30 2951 O 281.413 -4.85167 3.56226 0
M  V30 2952 H 285.239 -1.71848 2.50403 0
M  V30 2953 H 282.824 -0.790378 1.26781 0
M  V30 2954 H 284.706 -3.94634 1.47791 0
M  V30 2955 H 283.381 -3.1896 0.551898 0
M  V30 2956 H 282.288 -2.51549 2.769 0
M  V30 2957 H 283.621 -3.32416 3.62988 0
M  V30 2958 N 285.273 -1.31445 -0.869486 0
M  V30 2959 C 286.236 -1.19094 -1.9583 0
M  V30 2960 C 287.236 -0.117906 -1.60367 0
M  V30 2961 O 288.426 -0.367208 -1.70286 0
M  V30 2962 C 285.558 -0.828165 -3.30688 0
M  V30 2963 H 286.751 -2.15842 -2.08212 0
M  V30 2964 H 284.304 -1.15063 -1.05784 0
M  V30 2965 H 285.039 0.138142 -3.24006 0
M  V30 2966 H 284.824 -1.6038 -3.578 0
M  V30 2967 H 286.314 -0.765658 -4.10521 0
M  V30 2968 N 286.751 1.08385 -1.14413 0
M  V30 2969 C 287.714 2.13486 -0.834048 0
M  V30 2970 C 288.714 1.59988 0.161418 0
M  V30 2971 O 289.904 1.74071 -0.0669575 0
M  V30 2972 C 287.036 3.4003 -0.243354 0
M  V30 2973 H 288.229 2.42425 -1.7655 0
M  V30 2974 H 285.782 1.24101 -0.950189 0
M  V30 2975 H 286.517 3.16726 0.696807 0
M  V30 2976 H 286.302 3.80157 -0.960367 0
M  V30 2977 H 287.792 4.17577 -0.0436242 0
M  V30 2978 N 288.23 0.939286 1.26551 0
M  V30 2979 C 289.46 0.601663 1.97645 0
M  V30 2980 C 289.868 -0.827206 1.70159 0
M  V30 2981 O 289.211 -1.56291 0.965338 0
M  V30 2982 C 289.273 0.761725 3.51337 0
M  V30 2983 C 288.937 2.16487 4.0247 0
M  V30 2984 C 289.934 3.14016 4.14355 0
M  V30 2985 C 287.619 2.48494 4.36527 0
M  V30 2986 C 289.613 4.41654 4.59587 0
M  V30 2987 C 287.3 3.76364 4.81449 0
M  V30 2988 C 288.298 4.72758 4.92939 0
M  V30 2989 O 287.986 5.98352 5.36871 0
M  V30 2990 H 287.718 0.225758 0.637189 0
M  V30 2991 H 290.272 1.26178 1.62075 0
M  V30 2992 H 288.502 0.0444808 3.86674 0
M  V30 2993 H 290.191 0.427442 4.03643 0
M  V30 2994 H 290.957 2.90613 3.8829 0
M  V30 2995 H 286.836 1.74202 4.26819 0
M  V30 2996 H 290.38 5.16896 4.68471 0
M  V30 2997 H 286.277 3.99582 5.06956 0
M  V30 2998 H 287.045 6.01507 5.55096 0
M  V30 2999 N 289.708 -1.40897 0.706093 0
M  V30 3000 C 290.618 -2.3455 0.0482286 0
M  V30 3001 C 291.634 -1.56796 -0.754396 0
M  V30 3002 O 292.81 -1.89228 -0.689538 0
M  V30 3003 C 289.875 -3.35625 -0.869303 0
M  V30 3004 C 288.936 -4.29261 -0.0576994 0
M  V30 3005 C 288.169 -5.25508 -0.931531 0
M  V30 3006 O 288.392 -5.27472 -2.17092 0
M  V30 3007 O 287.326 -6.00727 -0.375587 0
M  V30 3008 H 291.152 -2.92407 0.820476 0
M  V30 3009 H 288.737 -1.4193 0.4665 0
M  V30 3010 H 290.619 -3.97635 -1.39514 0
M  V30 3011 H 289.294 -2.80196 -1.62086 0
M  V30 3012 H 288.201 -3.70566 0.512988 0
M  V30 3013 H 289.534 -4.87817 0.655426 0
M  V30 3014 N 291.186 -0.45159 -1.50991 0
M  V30 3015 C 292.133 0.352625 -2.2809 0
M  V30 3016 C 293.103 1.0044 -1.32291 0
M  V30 3017 O 294.288 1.02058 -1.6121 0
M  V30 3018 C 291.428 1.43983 -3.13629 0
M  V30 3019 C 290.541 0.804772 -4.24438 0
M  V30 3020 C 289.676 1.86822 -4.97263 0
M  V30 3021 C 288.715 1.21236 -5.99973 0
M  V30 3022 N 287.852 2.2178 -6.66152 0
M  V30 3023 H 292.692 -0.311186 -2.96371 0
M  V30 3024 H 290.229 -0.165308 -1.46168 0
M  V30 3025 H 292.187 2.08161 -3.61559 0
M  V30 3026 H 290.817 2.07307 -2.47434 0
M  V30 3027 H 289.869 0.0509129 -3.80366 0
M  V30 3028 H 291.181 0.286076 -4.97979 0
M  V30 3029 H 290.335 2.58628 -5.48813 0
M  V30 3030 H 289.074 2.42068 -4.23385 0
M  V30 3031 H 288.079 0.479828 -5.47702 0
M  V30 3032 H 289.304 0.667051 -6.75816 0
M  V30 3033 H 287.25 2.76079 -5.95077 0
M  V30 3034 H 287.167 1.74841 -7.35504 0
M  V30 3035 H 288.435 2.93026 -7.22327 0
M  V30 3036 N 292.664 1.56529 -0.183458 0
M  V30 3037 C 293.894 2.01331 0.463612 0
M  V30 3038 C 294.302 1.06278 1.5653 0
M  V30 3039 O 293.645 0.0577976 1.83609 0
M  V30 3040 C 293.707 3.42547 1.09096 0
M  V30 3041 C 293.371 4.56817 0.129442 0
M  V30 3042 C 294.368 5.15734 -0.656807 0
M  V30 3043 C 292.053 5.02295 0.02174 0
M  V30 3044 C 294.047 6.1857 -1.53784 0
M  V30 3045 C 291.734 6.04978 -0.862864 0
M  V30 3046 C 292.732 6.62988 -1.64123 0
M  V30 3047 O 292.42 7.63677 -2.51103 0
M  V30 3048 H 292.152 0.664917 0.121907 0
M  V30 3049 H 294.706 2.034 -0.285954 0
M  V30 3050 H 292.936 3.37428 1.88889 0
M  V30 3051 H 294.625 3.71228 1.64148 0
M  V30 3052 H 295.391 4.81473 -0.583839 0
M  V30 3053 H 291.27 4.56847 0.617392 0
M  V30 3054 H 294.814 6.63777 -2.14583 0
M  V30 3055 H 290.711 6.38663 -0.93699 0
M  V30 3056 H 291.479 7.81049 -2.44753 0
M  V30 3057 N 294.142 -0.090211 1.57342 0
M  V30 3058 C 295.39 -0.791241 1.85967 0
M  V30 3059 C 295.711 -1.7903 0.772859 0
M  V30 3060 O 294.981 -1.94872 -0.200398 0
M  V30 3061 H 293.561 -0.295205 0.686195 0
M  V30 3062 H 296.223 -0.0706782 1.94772 0
M  V30 3063 H 295.319 -1.31882 2.82867 0
M  V30 3064 N 295.62 -1.53406 -0.361157 0
M  V30 3065 C 296.867 -1.69802 -1.10333 0
M  V30 3066 C 297.195 -0.452087 -1.89173 0
M  V30 3067 O 296.45 0.566017 -1.87336 0
M  V30 3068 C 296.749 -2.90211 -2.08596 0
M  V30 3069 C 296.415 -4.26539 -1.46203 0
M  V30 3070 C 295.077 -4.6361 -1.28915 0
M  V30 3071 C 297.429 -5.113 -1.01101 0
M  V30 3072 C 294.757 -5.83075 -0.651157 0
M  V30 3073 C 297.109 -6.31415 -0.387007 0
M  V30 3074 C 295.773 -6.67195 -0.201657 0
M  V30 3075 H 295.043 -0.621351 -0.403737 0
M  V30 3076 H 297.69 -1.87598 -0.384609 0
M  V30 3077 H 295.995 -2.66946 -2.86788 0
M  V30 3078 H 297.692 -3.00091 -2.65982 0
M  V30 3079 H 294.282 -3.97352 -1.60653 0
M  V30 3080 H 298.466 -4.83206 -1.13249 0
M  V30 3081 H 293.722 -6.09385 -0.496006 0
M  V30 3082 H 297.896 -6.96394 -0.0293563 0
M  V30 3083 H 295.523 -7.59628 0.294766 0
M  V30 3084 N 297.098 0.621204 -1.44841 0
M  V30 3085 C 298.046 1.75385 -1.52784 0
M  V30 3086 C 299.04 1.64639 -0.398779 0
M  V30 3087 O 300.246 1.70598 -0.574137 0
M  V30 3088 H 296.621 0.579193 -0.479625 0
M  V30 3089 H 298.592 1.6581 -2.48092 0
M  V30 3090 C 297.341 3.13742 -1.4987 0
M  V30 3091 H 296.664 3.22663 -2.36069 0
M  V30 3092 H 298.104 3.92861 -1.59487 0
M  V30 3093 C 296.563 3.36175 -0.220973 0
M  V30 3094 O 297.093 3.95469 0.704782 0
M  V30 3095 N 295.299 2.90348 -0.120963 0
M  V30 3096 H 294.846 2.42278 -0.875162 0
M  V30 3097 H 294.804 3.05732 0.733168 0
M  V30 3098 N 298.576 1.31904 0.862503 0
M  V30 3099 C 299.853 1.12644 1.59908 0
M  V30 3100 C 300.233 -0.316104 2.0872 0
M  V30 3101 O 299.581 -1.31145 1.87118 0
M  V30 3102 C 299.791 2.1472 2.7513 0
M  V30 3103 C 301.139 2.47637 3.44907 0
M  V30 3104 O 302.163 2.13205 2.85346 0
M  V30 3105 O 301.022 3.06632 4.52371 0
M  V30 3106 H 298.116 0.43416 0.703871 0
M  V30 3107 H 300.662 1.43408 0.907314 0
M  V30 3108 H 299.434 3.1172 2.3653 0
M  V30 3109 H 299.057 1.84905 3.51989 0
M  V30 3110 N 300.054 -1.07777 1.14986 0
M  V30 3111 C 301.301 -1.8029 0.922056 0
M  V30 3112 C 301.629 -1.86531 -0.55105 0
M  V30 3113 O 300.884 -1.34189 -1.42449 0
M  V30 3114 C 301.183 -3.25495 1.47608 0
M  V30 3115 C 300.849 -3.39361 2.96893 0
M  V30 3116 C 299.511 -3.42852 3.37647 0
M  V30 3117 C 301.863 -3.42512 3.92854 0
M  V30 3118 C 299.191 -3.47094 4.73015 0
M  V30 3119 C 301.543 -3.4829 5.28088 0
M  V30 3120 C 300.207 -3.50058 5.68345 0
M  V30 3121 H 299.477 -0.659727 0.337404 0
M  V30 3122 H 302.124 -1.26854 1.43459 0
M  V30 3123 H 300.429 -3.81683 0.88463 0
M  V30 3124 H 302.126 -3.80168 1.27568 0
M  V30 3125 H 298.716 -3.37339 2.64387 0
M  V30 3126 H 302.9 -3.3904 3.62444 0
M  V30 3127 H 298.156 -3.46758 5.03556 0
M  V30 3128 H 302.33 -3.49675 6.02246 0
M  V30 3129 H 299.957 -3.53097 6.73221 0
M  V30 3130 N 301.532 -0.945985 -1.26051 0
M  V30 3131 C 302.479 -0.45809 -2.26208 0
M  V30 3132 C 303.449 0.484816 -1.58867 0
M  V30 3133 O 304.634 0.399969 -1.86561 0
M  V30 3134 C 301.774 0.266131 -3.44072 0
M  V30 3135 C 300.887 -0.713005 -4.26075 0
M  V30 3136 C 300.022 0.0329013 -5.3119 0
M  V30 3137 C 299.061 -0.93774 -6.04874 0
M  V30 3138 N 298.198 -0.223274 -7.01745 0
M  V30 3139 H 303.038 -1.3171 -2.67313 0
M  V30 3140 H 300.575 -0.66069 -1.31428 0
M  V30 3141 H 302.533 0.702514 -4.11243 0
M  V30 3142 H 301.163 1.08925 -3.03867 0
M  V30 3143 H 300.215 -1.26789 -3.58648 0
M  V30 3144 H 301.527 -1.45406 -4.77136 0
M  V30 3145 H 300.681 0.528335 -6.04395 0
M  V30 3146 H 299.42 0.806801 -4.8098 0
M  V30 3147 H 298.425 -1.44425 -5.30492 0
M  V30 3148 H 299.65 -1.71172 -6.57173 0
M  V30 3149 H 297.596 0.532046 -6.53839 0
M  V30 3150 H 297.513 -0.90357 -7.50581 0
M  V30 3151 H 298.781 0.250907 -7.79096 0
M  V30 3152 N 303.011 1.40521 -0.713556 0
M  V30 3153 C 303.941 2.33381 -0.0743864 0
M  V30 3154 C 304.922 1.52784 0.747735 0
M  V30 3155 O 306.107 1.81258 0.697071 0
M  V30 3156 C 303.237 3.36748 0.849598 0
M  V30 3157 C 302.191 4.27793 0.133247 0
M  V30 3158 C 301.517 5.21679 1.17281 0
M  V30 3159 C 302.817 5.12415 -1.01134 0
M  V30 3160 H 304.511 2.87081 -0.850007 0
M  V30 3161 H 302.057 1.38034 -0.410201 0
M  V30 3162 H 304.01 4.00648 1.30612 0
M  V30 3163 H 302.734 2.81439 1.65709 0
M  V30 3164 H 301.393 3.65342 -0.303426 0
M  V30 3165 H 301.041 4.62677 1.9733 0
M  V30 3166 H 300.741 5.83435 0.698397 0
M  V30 3167 H 302.265 5.88456 1.62947 0
M  V30 3168 H 303.679 5.69781 -0.634274 0
M  V30 3169 H 302.076 5.83203 -1.41399 0
M  V30 3170 H 303.146 4.48514 -1.84292 0
M  V30 3171 N 304.489 0.459591 1.5075 0
M  V30 3172 C 305.436 -0.340524 2.28274 0
M  V30 3173 C 306.406 -0.997371 1.32822 0
M  V30 3174 O 307.591 -1.01202 1.61749 0
M  V30 3175 C 304.731 -1.42317 3.14388 0
M  V30 3176 C 303.844 -0.782251 4.24859 0
M  V30 3177 C 302.979 -1.84182 4.98247 0
M  V30 3178 C 302.018 -1.18053 6.00608 0
M  V30 3179 N 301.155 -2.18244 6.67319 0
M  V30 3180 H 305.995 0.326899 2.96202 0
M  V30 3181 H 303.532 0.173057 1.46078 0
M  V30 3182 H 305.49 -2.06241 3.62658 0
M  V30 3183 H 304.12 -2.05992 2.4853 0
M  V30 3184 H 303.172 -0.0307404 3.80388 0
M  V30 3185 H 304.484 -0.259663 4.98124 0
M  V30 3186 H 303.638 -2.55714 5.50177 0
M  V30 3187 H 302.377 -2.39819 4.24662 0
M  V30 3188 H 301.382 -0.450776 5.47949 0
M  V30 3189 H 302.607 -0.631202 6.7616 0
M  V30 3190 H 300.553 -2.72919 5.96533 0
M  V30 3191 H 300.47 -1.70938 7.36421 0
M  V30 3192 H 301.738 -2.89191 7.23871 0
M  V30 3193 N 305.967 -1.56429 0.191757 0
M  V30 3194 C 307.215 -1.97095 -0.447006 0
M  V30 3195 C 307.536 -1.07967 -1.62383 0
M  V30 3196 O 306.806 -0.150248 -1.95323 0
M  V30 3197 H 305.386 -0.727832 -0.168135 0
M  V30 3198 H 308.048 -1.92911 0.27771 0
M  V30 3199 H 307.144 -3.01848 -0.793371 0
M  V30 3200 N 307.445 0.0818655 -1.57387 0
M  V30 3201 C 308.693 0.781368 -1.86384 0
M  V30 3202 C 309.014 1.78618 -0.782342 0
M  V30 3203 O 308.284 1.94976 0.190061 0
M  V30 3204 H 306.864 0.291562 -0.687751 0
M  V30 3205 H 309.526 0.060348 -1.94807 0
M  V30 3206 H 308.622 1.3038 -2.83562 0
M  V30 3207 N 308.923 1.53595 0.353017 0
M  V30 3208 C 310.169 1.70638 1.09593 0
M  V30 3209 C 310.502 0.463286 1.88593 0
M  V30 3210 O 309.777 -0.539597 1.86865 0
M  V30 3211 C 310.06 2.96406 2.04489 0
M  V30 3212 C 309.913 4.30901 1.29014 0
M  V30 3213 C 311.232 3.17812 3.0444 0
M  V30 3214 H 308.351 0.620913 0.397034 0
M  V30 3215 H 310.993 1.86254 0.375446 0
M  V30 3216 H 309.143 2.83223 2.65927 0
M  V30 3217 H 310.815 4.55917 0.702638 0
M  V30 3218 H 309.058 4.29741 0.592071 0
M  V30 3219 H 309.729 5.1506 1.98537 0
M  V30 3220 H 312.205 3.30263 2.53112 0
M  V30 3221 H 311.081 4.07223 3.6805 0
M  V30 3222 H 311.342 2.33669 3.75301 0
M  V30 3223 N 310.401 -0.613514 1.45168 0
M  V30 3224 C 311.331 -1.7354 1.56225 0
M  V30 3225 C 312.312 -1.64981 0.41414 0
M  V30 3226 O 313.497 -1.83472 0.636526 0
M  V30 3227 C 310.627 -3.12128 1.52295 0
M  V30 3228 C 309.581 -3.35491 2.65762 0
M  V30 3229 C 308.907 -4.74291 2.46885 0
M  V30 3230 C 310.207 -3.26325 4.0781 0
M  V30 3231 H 311.901 -1.64543 2.50132 0
M  V30 3232 H 309.447 -0.790185 1.20383 0
M  V30 3233 H 311.4 -3.90404 1.58628 0
M  V30 3234 H 310.124 -3.2195 0.549139 0
M  V30 3235 H 308.783 -2.59603 2.58847 0
M  V30 3236 H 308.431 -4.80839 1.47657 0
M  V30 3237 H 308.131 -4.9088 3.22972 0
M  V30 3238 H 309.655 -5.54775 2.55063 0
M  V30 3239 H 311.069 -3.94483 4.16 0
M  V30 3240 H 309.466 -3.54445 4.8424 0
M  V30 3241 H 310.536 -2.23855 4.30136 0
M  V30 3242 N 311.879 -1.3236 -0.855495 0
M  V30 3243 C 312.842 -1.21164 -1.94556 0
M  V30 3244 C 313.842 -0.134908 -1.60233 0
M  V30 3245 O 315.032 -0.385249 -1.69887 0
M  V30 3246 C 312.164 -0.863192 -3.29791 0
M  V30 3247 H 313.357 -2.18038 -2.05911 0
M  V30 3248 H 310.91 -1.16179 -1.04557 0
M  V30 3249 H 311.645 0.103769 -3.24134 0
M  V30 3250 H 311.43 -1.64166 -3.56078 0
M  V30 3251 H 312.92 -0.809156 -4.09686 0
M  V30 3252 N 313.357 1.07166 -1.15556 0
M  V30 3253 C 314.605 1.79443 -0.929764 0
M  V30 3254 C 314.926 1.87246 0.544414 0
M  V30 3255 O 314.196 1.37473 1.39564 0
M  V30 3256 H 312.776 0.664625 -0.341003 0
M  V30 3257 H 315.438 1.29499 -1.45657 0
M  V30 3258 H 314.534 2.81832 -1.34079 0
M  V30 3259 N 314.835 0.952656 1.25548 0
M  V30 3260 C 315.745 0.47782 2.29682 0
M  V30 3261 C 316.761 -0.453859 1.67977 0
M  V30 3262 O 317.937 -0.330587 1.98668 0
M  V30 3263 C 315.002 -0.238655 3.45878 0
M  V30 3264 C 314.063 0.730994 4.23031 0
M  V30 3265 C 313.296 0.0486165 5.33678 0
M  V30 3266 O 313.519 -1.16612 5.58353 0
M  V30 3267 O 312.453 0.733152 5.97418 0
M  V30 3268 H 316.279 1.34312 2.72386 0
M  V30 3269 H 313.864 0.719026 1.30959 0
M  V30 3270 H 315.746 -0.641774 4.16484 0
M  V30 3271 H 314.421 -1.07916 3.05181 0
M  V30 3272 H 313.328 1.18428 3.5486 0
M  V30 3273 H 314.661 1.53946 4.67506 0
M  V30 3274 N 316.313 -1.40141 0.720998 0
M  V30 3275 C 317.223 -2.34486 0.0731031 0
M  V30 3276 C 318.239 -1.57587 -0.737723 0
M  V30 3277 O 319.415 -1.89949 -0.669429 0
M  V30 3278 C 316.48 -3.36528 -0.833656 0
M  V30 3279 C 315.541 -4.29298 -0.0121673 0
M  V30 3280 C 314.774 -5.26466 -0.875742 0
M  V30 3281 O 314.997 -5.29745 -2.11485 0
M  V30 3282 O 313.931 -6.01092 -0.31185 0
M  V30 3283 H 317.757 -2.9152 0.851444 0
M  V30 3284 H 315.342 -1.41427 0.481527 0
M  V30 3285 H 317.224 -3.99093 -1.35289 0
M  V30 3286 H 315.899 -2.81899 -1.59105 0
M  V30 3287 H 314.806 -3.70001 0.552262 0
M  V30 3288 H 316.139 -4.87094 0.707129 0
M  V30 3289 N 317.792 -0.46758 -1.50504 0
M  V30 3290 C 318.702 0.33382 -2.32213 0
M  V30 3291 C 319.718 0.999323 -1.42441 0
M  V30 3292 O 320.894 0.988068 -1.75497 0
M  V30 3293 C 317.959 1.4035 -3.17022 0
M  V30 3294 C 317.02 0.754961 -4.2261 0
M  V30 3295 C 316.253 1.77367 -5.03365 0
M  V30 3296 O 316.476 2.99976 -4.8515 0
M  V30 3297 O 315.41 1.34744 -5.86624 0
M  V30 3298 H 319.236 -0.334067 -3.01857 0
M  V30 3299 H 316.821 -0.229496 -1.47627 0
M  V30 3300 H 318.703 2.02318 -3.69656 0
M  V30 3301 H 317.378 2.05492 -2.5011 0
M  V30 3302 H 316.285 0.0964244 -3.73976 0
M  V30 3303 H 317.618 0.146545 -4.91982 0
M  V30 3304 N 319.27 1.56325 -0.20005 0
M  V30 3305 C 320.233 2.18084 0.705132 0
M  V30 3306 C 321.233 1.13666 1.1374 0
M  V30 3307 O 322.423 1.39023 1.04968 0
M  V30 3308 C 319.555 2.78689 1.96329 0
M  V30 3309 H 320.748 2.99435 0.167023 0
M  V30 3310 H 318.301 1.56221 0.0495725 0
M  V30 3311 H 319.036 2.0115 2.5438 0
M  V30 3312 H 318.821 3.55133 1.66202 0
M  V30 3313 H 320.311 3.26096 2.60866 0
M  V30 3314 N 320.748 -0.0735177 1.57428 0
M  V30 3315 C 321.658 -1.10547 2.06922 0
M  V30 3316 C 322.674 -1.42506 0.998402 0
M  V30 3317 O 323.85 -1.52717 1.31299 0
M  V30 3318 C 320.915 -2.40019 2.50184 0
M  V30 3319 C 319.976 -2.15046 3.71556 0
M  V30 3320 C 319.209 -3.38345 4.12745 0
M  V30 3321 O 319.432 -4.47399 3.53822 0
M  V30 3322 O 318.366 -3.2666 5.05546 0
M  V30 3323 H 322.192 -0.715013 2.95163 0
M  V30 3324 H 319.777 -0.287531 1.46607 0
M  V30 3325 H 321.659 -3.16218 2.78539 0
M  V30 3326 H 320.334 -2.78447 1.65072 0
M  V30 3327 H 319.241 -1.36558 3.48285 0
M  V30 3328 H 320.574 -1.81499 4.57514 0
M  V30 3329 N 322.226 -1.5378 -0.344866 0
M  V30 3330 C 323.451 -1.75211 -1.10977 0
M  V30 3331 C 323.876 -0.48936 -1.81623 0
M  V30 3332 O 323.234 0.557925 -1.72502 0
M  V30 3333 C 323.282 -2.93147 -2.09993 0
M  V30 3334 O 322.386 -2.63203 -3.17487 0
M  V30 3335 H 321.727 -0.581241 -0.321021 0
M  V30 3336 H 324.257 -2.00738 -0.395661 0
M  V30 3337 H 324.267 -3.19898 -2.53237 0
M  V30 3338 H 322.942 -3.84731 -1.5797 0
M  V30 3339 H 321.519 -2.47336 -2.79069 0
M  V30 3340 N 323.704 0.605807 -1.45491 0
M  V30 3341 C 324.953 1.36086 -1.48874 0
M  V30 3342 C 325.266 1.95131 -0.135333 0
M  V30 3343 O 326.472 2.7146 -0.0468144 0
M  V30 3344 C 324.928 2.46518 -2.62215 0
M  V30 3345 C 324.536 1.93877 -4.03876 0
M  V30 3346 C 326.28 3.23512 -2.74846 0
M  V30 3347 C 324.187 3.01801 -5.08596 0
M  V30 3348 H 323.117 0.511497 -0.553974 0
M  V30 3349 H 325.768 0.649089 -1.71636 0
M  V30 3350 H 324.15 3.20388 -2.32739 0
M  V30 3351 H 325.324 1.26704 -4.43038 0
M  V30 3352 H 323.639 1.29622 -3.95711 0
M  V30 3353 H 326.236 4.04013 -3.50253 0
M  V30 3354 H 326.579 3.74631 -1.81542 0
M  V30 3355 H 327.112 2.56742 -3.03856 0
M  V30 3356 H 323.851 2.55597 -6.03614 0
M  V30 3357 H 323.371 3.67535 -4.74002 0
M  V30 3358 H 325.05 3.66152 -5.33424 0
M  V30 3359 N 325.182 1.32811 0.848464 0
M  V30 3360 C 326.428 1.23907 1.60546 0
M  V30 3361 C 326.761 -0.197161 1.93197 0
M  V30 3362 O 326.036 -1.13596 1.5788 0
M  V30 3363 C 326.319 2.10489 2.92175 0
M  V30 3364 C 326.172 3.62522 2.66266 0
M  V30 3365 C 327.491 1.97075 3.93509 0
M  V30 3366 H 324.61 0.451459 0.58254 0
M  V30 3367 H 327.252 1.62818 0.979296 0
M  V30 3368 H 325.402 1.77434 3.45614 0
M  V30 3369 H 327.074 4.05821 2.19334 0
M  V30 3370 H 325.317 3.84879 2.00126 0
M  V30 3371 H 325.988 4.18437 3.6002 0
M  V30 3372 H 328.464 2.26045 3.49346 0
M  V30 3373 H 327.34 2.59923 4.83457 0
M  V30 3374 H 327.601 0.940186 4.31987 0
M  V30 3375 N 326.66 -1.06551 1.16123 0
M  V30 3376 C 327.623 -2.12132 0.867906 0
M  V30 3377 C 328.623 -1.60224 -0.135944 0
M  V30 3378 O 329.813 -1.73943 0.0946422 0
M  V30 3379 C 326.945 -3.396 0.297419 0
M  V30 3380 H 328.138 -2.39586 1.80385 0
M  V30 3381 H 325.691 -1.22574 0.969812 0
M  V30 3382 H 326.426 -3.17794 -0.64633 0
M  V30 3383 H 326.211 -3.78581 1.02073 0
M  V30 3384 H 327.701 -4.17455 0.110052 0
M  V30 3385 N 328.138 -0.959301 -1.25041 0
M  V30 3386 C 329.068 -0.501388 -2.28053 0
M  V30 3387 C 330.049 0.454673 -1.63911 0
M  V30 3388 O 331.234 0.352618 -1.90972 0
M  V30 3389 C 328.364 0.217224 -3.4662 0
M  V30 3390 C 327.318 -0.654034 -4.22973 0
M  V30 3391 C 326.644 0.195589 -5.34342 0
M  V30 3392 C 327.944 -1.93447 -4.85155 0
M  V30 3393 H 329.638 -1.36238 -2.66608 0
M  V30 3394 H 327.184 -0.656534 -1.28163 0
M  V30 3395 H 329.137 0.548732 -4.17812 0
M  V30 3396 H 327.861 1.1125 -3.07068 0
M  V30 3397 H 326.52 -0.968693 -3.5357 0
M  V30 3398 H 326.168 1.09076 -4.91031 0
M  V30 3399 H 325.868 -0.384091 -5.86343 0
M  V30 3400 H 327.392 0.521958 -6.08365 0
M  V30 3401 H 328.806 -1.66908 -5.48466 0
M  V30 3402 H 327.203 -2.46018 -5.47353 0
M  V30 3403 H 328.273 -2.63466 -4.07079 0
M  V30 3404 N 329.616 1.39756 -0.72842 0
M  V30 3405 C 330.579 2.29012 -0.0927297 0
M  V30 3406 C 331.579 1.45992 0.674025 0
M  V30 3407 O 332.769 1.66749 0.50402 0
M  V30 3408 C 329.901 3.29396 0.878137 0
M  V30 3409 H 331.094 2.86729 -0.879011 0
M  V30 3410 H 328.647 1.48293 -0.493847 0
M  V30 3411 H 329.382 2.76722 1.69101 0
M  V30 3412 H 329.167 3.907 0.331051 0
M  V30 3413 H 330.657 3.96199 1.3197 0
M  V30 3414 N 331.094 0.475555 1.50254 0
M  V30 3415 C 332.026 -0.352649 2.26471 0
M  V30 3416 C 333.039 -0.953165 1.3198 0
M  V30 3417 O 334.228 -0.840815 1.57457 0
M  V30 3418 C 331.328 -1.50902 3.0345 0
M  V30 3419 C 330.501 -1.02047 4.25329 0
M  V30 3420 C 329.56 -2.05142 4.84565 0
M  V30 3421 O 328.586 -1.63023 5.45355 0
M  V30 3422 N 329.788 -3.37987 4.71959 0
M  V30 3423 H 332.553 0.300767 2.98187 0
M  V30 3424 H 330.114 0.306598 1.5897 0
M  V30 3425 H 332.106 -2.19572 3.39956 0
M  V30 3426 H 330.676 -2.06705 2.34504 0
M  V30 3427 H 329.896 -0.159507 3.93877 0
M  V30 3428 H 331.184 -0.672061 5.04342 0
M  V30 3429 H 330.582 -3.74913 4.23623 0
M  V30 3430 H 329.139 -4.02443 5.12721 0
M  V30 3431 N 332.573 -1.56217 0.208337 0
M  V30 3432 C 333.989 -1.58919 -0.14729 0
M  V30 3433 C 334.189 -1.22486 -1.59998 0
M  V30 3434 O 333.245 -0.953849 -2.3379 0
M  V30 3435 C 334.558 -3.00236 0.167048 0
M  V30 3436 C 336.106 -3.12813 0.108219 0
M  V30 3437 C 336.581 -4.56284 0.396049 0
M  V30 3438 N 338.072 -4.61912 0.345142 0
M  V30 3439 C 338.807 -5.70837 0.541523 0
M  V30 3440 N 338.303 -6.88178 0.798968 0
M  V30 3441 N 340.096 -5.60091 0.474867 0
M  V30 3442 H 332.247 -1.78177 1.15614 0
M  V30 3443 H 334.51 -0.827555 0.462446 0
M  V30 3444 H 334.216 -3.31499 1.1748 0
M  V30 3445 H 334.09 -3.7354 -0.524184 0
M  V30 3446 H 336.477 -2.81354 -0.890157 0
M  V30 3447 H 336.558 -2.41866 0.832729 0
M  V30 3448 H 336.202 -4.88458 1.3918 0
M  V30 3449 H 336.132 -5.25439 -0.349502 0
M  V30 3450 H 338.623 -3.77589 0.153316 0
M  V30 3451 H 338.936 -7.67095 0.93727 0
M  V30 3452 H 337.281 -6.89953 0.836013 0
M  V30 3453 H 340.472 -4.67297 0.274064 0
M  V30 3454 H 340.645 -6.44917 0.631326 0
M  V30 3455 N 334.051 0.0651679 -1.57465 0
M  V30 3456 C 335.298 0.763063 -1.87573 0
M  V30 3457 C 335.626 1.77242 -0.800961 0
M  V30 3458 O 334.881 1.94651 0.202316 0
M  V30 3459 C 335.18 1.50081 -3.24362 0
M  V30 3460 C 334.846 0.630816 -4.46466 0
M  V30 3461 C 333.508 0.391082 -4.79608 0
M  V30 3462 C 335.86 0.0279465 -5.21193 0
M  V30 3463 C 333.188 -0.460894 -5.84887 0
M  V30 3464 C 335.54 -0.811522 -6.27373 0
M  V30 3465 C 334.204 -1.06106 -6.59013 0
M  V30 3466 H 333.474 0.279224 -0.686378 0
M  V30 3467 H 336.121 0.0236726 -1.91485 0
M  V30 3468 H 334.426 2.31258 -3.16271 0
M  V30 3469 H 336.123 2.04571 -3.44894 0
M  V30 3470 H 332.713 0.8278 -4.2053 0
M  V30 3471 H 336.897 0.200262 -4.95896 0
M  V30 3472 H 332.153 -0.662907 -6.07796 0
M  V30 3473 H 336.327 -1.28537 -6.84435 0
M  V30 3474 H 333.954 -1.723 -7.40417 0
M  V30 3475 N 335.529 1.53961 0.336706 0
M  V30 3476 C 336.94 1.62914 0.911925 0
M  V30 3477 C 337.291 0.514795 1.89326 0
M  V30 3478 O 336.416 -0.354395 2.13478 0
M  V30 3479 C 337.011 2.95304 1.66076 0
M  V30 3480 C 335.57 3.06496 2.18489 0
M  V30 3481 C 334.717 2.58403 1.00613 0
M  V30 3482 H 337.668 1.58285 0.114649 0
M  V30 3483 H 337.689 2.84727 2.5241 0
M  V30 3484 H 337.201 3.76387 0.946276 0
M  V30 3485 H 335.302 2.3006 2.93092 0
M  V30 3486 H 335.415 4.1208 2.44391 0
M  V30 3487 H 333.779 2.13977 1.38152 0
M  V30 3488 H 334.562 3.41932 0.306179 0
M  V30 3489 N 337.007 -0.598083 1.45811 0
M  V30 3490 C 337.939 -1.72231 1.51225 0
M  V30 3491 C 338.952 -1.57757 0.402059 0
M  V30 3492 O 340.141 -1.65464 0.669624 0
M  V30 3493 C 337.241 -3.10331 1.3619 0
M  V30 3494 C 336.414 -3.50955 2.61054 0
M  V30 3495 C 335.473 -4.68055 2.40439 0
M  V30 3496 O 334.499 -4.74691 3.14097 0
M  V30 3497 N 335.701 -5.61941 1.45612 0
M  V30 3498 H 338.466 -1.68046 2.48154 0
M  V30 3499 H 336.027 -0.783637 1.41671 0
M  V30 3500 H 338.019 -3.86439 1.20195 0
M  V30 3501 H 336.589 -3.0897 0.475015 0
M  V30 3502 H 335.809 -2.64711 2.92099 0
M  V30 3503 H 337.097 -3.74858 3.44034 0
M  V30 3504 H 336.495 -5.59301 0.848431 0
M  V30 3505 H 335.052 -6.37542 1.35585 0
M  V30 3506 N 338.485 -1.33259 -0.841409 0
M  V30 3507 C 339.448 -1.23221 -1.9326 0
M  V30 3508 C 340.448 -0.151895 -1.60081 0
M  V30 3509 O 341.638 -0.403246 -1.69468 0
M  V30 3510 C 338.77 -0.898123 -3.28856 0
M  V30 3511 H 339.963 -2.2021 -2.03587 0
M  V30 3512 H 337.516 -1.17281 -1.03319 0
M  V30 3513 H 338.251 0.0693841 -3.24226 0
M  V30 3514 H 338.036 -1.67934 -3.54317 0
M  V30 3515 H 339.526 -0.852563 -4.08805 0
M  V30 3516 N 339.963 1.05934 -1.16686 0
M  V30 3517 C 341.379 1.30938 -0.912542 0
M  V30 3518 C 341.579 1.96803 0.432533 0
M  V30 3519 O 340.635 2.23693 1.17123 0
M  V30 3520 C 341.948 2.18649 -2.06429 0
M  V30 3521 C 343.496 2.32055 -2.10047 0
M  V30 3522 C 343.971 3.23122 -3.24586 0
M  V30 3523 N 345.462 3.30706 -3.24327 0
M  V30 3524 C 346.197 4.01273 -4.09594 0
M  V30 3525 N 345.693 4.74332 -5.04956 0
M  V30 3526 N 347.486 3.97361 -3.97569 0
M  V30 3527 H 339.637 0.615777 -2.03278 0
M  V30 3528 H 341.9 0.334077 -0.887185 0
M  V30 3529 H 341.606 1.77534 -3.03603 0
M  V30 3530 H 341.48 3.19252 -2.00894 0
M  V30 3531 H 343.867 2.72415 -1.13464 0
M  V30 3532 H 343.948 1.31107 -2.19647 0
M  V30 3533 H 343.592 2.83477 -4.2143 0
M  V30 3534 H 343.522 4.24057 -3.12223 0
M  V30 3535 H 346.013 2.78644 -2.55276 0
M  V30 3536 H 346.326 5.25716 -5.6643 0
M  V30 3537 H 344.671 4.733 -5.08933 0
M  V30 3538 H 347.862 3.39405 -3.22369 0
M  V30 3539 H 348.035 4.52089 -4.64241 0
M  V30 3540 N 341.441 0.965919 1.2453 0
M  V30 3541 C 342.69 0.622437 1.91856 0
M  V30 3542 C 343.003 -0.846006 1.76358 0
M  V30 3543 O 344.209 -1.29993 2.38357 0
M  V30 3544 C 342.665 1.0626 3.43856 0
M  V30 3545 C 342.273 2.55437 3.68043 0
M  V30 3546 C 344.017 0.792183 4.17043 0
M  V30 3547 C 341.924 2.93196 5.13605 0
M  V30 3548 H 340.854 0.229092 0.718354 0
M  V30 3549 H 343.505 1.17189 1.41206 0
M  V30 3550 H 341.887 0.441476 3.93531 0
M  V30 3551 H 343.061 3.22665 3.28974 0
M  V30 3552 H 341.376 2.8007 3.08139 0
M  V30 3553 H 343.973 1.05031 5.24283 0
M  V30 3554 H 344.316 -0.271584 4.15413 0
M  V30 3555 H 344.849 1.37419 3.73311 0
M  V30 3556 H 341.588 3.98636 5.20355 0
M  V30 3557 H 341.108 2.30651 5.53679 0
M  V30 3558 H 342.787 2.83004 5.81823 0
M  V30 3559 N 342.919 -1.39368 0.735821 0
M  V30 3560 C 344.147 -2.04795 0.294393 0
M  V30 3561 C 344.562 -1.55478 -1.07107 0
M  V30 3562 O 343.919 -0.720038 -1.67695 0
M  V30 3563 C 343.97 -3.6035 0.288071 0
M  V30 3564 O 343.691 -4.07852 1.59963 0
M  V30 3565 C 345.192 -4.42976 -0.169422 0
M  V30 3566 H 342.412 -0.658571 0.128551 0
M  V30 3567 H 344.956 -1.78399 0.999701 0
M  V30 3568 H 343.111 -3.85645 -0.368355 0
M  V30 3569 H 343.525 -5.02181 1.51375 0
M  V30 3570 H 344.999 -5.51864 -0.122687 0
M  V30 3571 H 345.476 -4.22068 -1.21472 0
M  V30 3572 H 346.082 -4.22832 0.457469 0
M  V30 3573 N 344.397 -0.483516 -1.5 0
M  V30 3574 C 345.327 0.293829 -2.31644 0
M  V30 3575 C 346.308 0.978864 -1.39112 0
M  V30 3576 O 347.493 0.973644 -1.68029 0
M  V30 3577 C 344.623 1.36897 -3.19181 0
M  V30 3578 C 343.577 0.804833 -4.20365 0
M  V30 3579 C 342.903 1.9792 -4.96721 0
M  V30 3580 C 344.203 -0.192313 -5.21946 0
M  V30 3581 H 345.897 -0.387616 -2.9688 0
M  V30 3582 H 343.443 -0.187856 -1.42769 0
M  V30 3583 H 345.396 1.92037 -3.751 0
M  V30 3584 H 344.12 2.07936 -2.51853 0
M  V30 3585 H 342.779 0.275319 -3.65565 0
M  V30 3586 H 342.427 2.67686 -4.25856 0
M  V30 3587 H 342.127 1.60789 -5.65173 0
M  V30 3588 H 343.651 2.53526 -5.55479 0
M  V30 3589 H 345.065 0.270333 -5.72662 0
M  V30 3590 H 343.462 -0.478543 -5.98189 0
M  V30 3591 H 344.532 -1.11409 -4.71928 0
M  V30 3592 N 345.875 1.56104 -0.216619 0
M  V30 3593 C 347.152 1.89988 0.465165 0
M  V30 3594 C 347.532 1.13326 1.78102 0
M  V30 3595 O 346.88 0.241033 2.27225 0
M  V30 3596 C 347.09 3.42646 0.662939 0
M  V30 3597 C 348.438 4.13311 0.972602 0
M  V30 3598 O 349.462 3.48217 0.749901 0
M  V30 3599 O 348.321 5.28396 1.39499 0
M  V30 3600 H 345.415 0.78979 0.245276 0
M  V30 3601 H 347.961 1.67721 -0.258436 0
M  V30 3602 H 346.733 3.90399 -0.26543 0
M  V30 3603 H 346.356 3.70677 1.43821 0
M  V30 3604 N 347.353 -0.0568162 1.57498 0
M  V30 3605 C 348.764 -0.606858 1.76562 0
M  V30 3606 C 349.115 -1.77114 0.844094 0
M  V30 3607 O 348.24 -2.16376 0.0318911 0
M  V30 3608 C 348.835 -1.10766 3.20182 0
M  V30 3609 C 347.394 -1.60344 3.40539 0
M  V30 3610 C 346.541 -0.529311 2.72201 0
M  V30 3611 H 349.492 0.169393 1.57793 0
M  V30 3612 H 349.513 -1.97602 3.25167 0
M  V30 3613 H 349.025 -0.26006 3.87228 0
M  V30 3614 H 347.126 -2.47379 2.78629 0
M  V30 3615 H 347.239 -1.67006 4.4905 0
M  V30 3616 H 345.603 -0.977893 2.35179 0
M  V30 3617 H 346.386 0.308352 3.41912 0
M  V30 3618 N 348.832 -1.54138 -0.328536 0
M  V30 3619 C 349.78 -1.83894 -1.42428 0
M  V30 3620 C 350.774 -0.710478 -1.53781 0
M  V30 3621 O 351.98 -0.894062 -1.56226 0
M  V30 3622 H 348.355 -0.582837 -0.475189 0
M  V30 3623 H 350.326 -2.75537 -1.14552 0
M  V30 3624 C 349.075 -2.07866 -2.78724 0
M  V30 3625 H 348.398 -2.94158 -2.7076 0
M  V30 3626 H 349.838 -2.32644 -3.54476 0
M  V30 3627 C 348.297 -0.868689 -3.25508 0
M  V30 3628 O 348.827 -0.0754908 -4.01629 0
M  V30 3629 N 347.033 -0.681711 -2.82491 0
M  V30 3630 H 346.58 -1.32838 -2.20708 0
M  V30 3631 H 346.538 0.126374 -3.14146 0
M  V30 3632 N 350.31 0.590341 -1.46126 0
M  V30 3633 C 351.558 1.34616 -1.50742 0
M  V30 3634 C 351.879 1.94363 -0.157486 0
M  V30 3635 O 351.149 1.78136 0.815136 0
M  V30 3636 H 349.729 0.499789 -0.555175 0
M  V30 3637 H 352.391 0.691953 -1.82203 0
M  V30 3638 H 351.487 2.15678 -2.25587 0
M  V30 3639 N 351.788 1.33704 0.83433 0
M  V30 3640 C 352.751 1.24244 1.92603 0
M  V30 3641 C 353.751 0.160383 1.59998 0
M  V30 3642 O 354.941 0.412228 1.69252 0
M  V30 3643 C 352.073 0.91555 3.28376 0
M  V30 3644 H 353.266 2.21287 2.02416 0
M  V30 3645 H 350.819 1.17827 1.02696 0
M  V30 3646 H 351.554 -0.0521886 3.24258 0
M  V30 3647 H 351.339 1.69811 3.53422 0
M  V30 3648 H 352.829 0.874231 4.08347 0
M  V30 3649 N 353.266 -1.05314 1.17247 0
M  V30 3650 C 354.512 -1.78699 0.971513 0
M  V30 3651 C 354.867 -1.85932 -0.494692 0
M  V30 3652 O 354.16 -1.34716 -1.36243 0
M  V30 3653 C 354.354 -3.2229 1.54479 0
M  V30 3654 C 354.183 -3.29052 3.06521 0
M  V30 3655 C 352.953 -3.3841 3.75242 0
M  V30 3656 C 355.151 -3.18095 4.04129 0
M  V30 3657 N 353.133 -3.34289 5.14902 0
M  V30 3658 C 354.504 -3.21331 5.30232 0
M  V30 3659 C 356.559 -3.02049 3.95817 0
M  V30 3660 C 355.262 -3.10169 6.4899 0
M  V30 3661 C 357.288 -2.92228 5.14156 0
M  V30 3662 C 356.65 -2.96096 6.39145 0
M  V30 3663 H 352.749 -0.66628 0.409383 0
M  V30 3664 H 355.333 -1.25553 1.4881 0
M  V30 3665 H 353.504 -3.7381 1.05455 0
M  V30 3666 H 355.236 -3.83905 1.28059 0
M  V30 3667 H 351.991 -3.43621 3.25917 0
M  V30 3668 H 352.415 -3.35702 5.87906 0
M  V30 3669 H 357.057 -2.97897 3.00029 0
M  V30 3670 H 354.775 -3.13076 7.44989 0
M  V30 3671 H 358.361 -2.80885 5.09505 0
M  V30 3672 H 357.241 -2.88568 7.29176 0
M  V30 3673 N 354.744 -0.972509 -1.24016 0
M  V30 3674 C 355.969 -0.654417 -1.96805 0
M  V30 3675 C 356.394 0.770398 -1.716 0
M  V30 3676 O 355.752 1.52361 -0.982647 0
M  V30 3677 C 355.8 -0.941031 -3.48105 0
M  V30 3678 O 354.904 -0.0289472 -4.1239 0
M  V30 3679 H 354.245 -0.24692 -0.616382 0
M  V30 3680 H 356.775 -1.30396 -1.57664 0
M  V30 3681 H 356.785 -0.87452 -3.98517 0
M  V30 3682 H 355.46 -1.97939 -3.65777 0
M  V30 3683 H 354.037 -0.149192 -3.72601 0
M  V30 3684 N 356.222 1.38976 -0.743202 0
M  V30 3685 C 357.152 2.33171 -0.123873 0
M  V30 3686 C 358.133 1.54336 0.71516 0
M  V30 3687 O 359.318 1.82696 0.658467 0
M  V30 3688 C 356.448 3.38474 0.777978 0
M  V30 3689 C 355.402 4.27979 0.0424758 0
M  V30 3690 C 354.728 5.2405 1.06189 0
M  V30 3691 C 356.028 5.10155 -1.1198 0
M  V30 3692 H 357.722 2.85213 -0.910709 0
M  V30 3693 H 355.268 1.37133 -0.439388 0
M  V30 3694 H 357.221 4.03328 1.22084 0
M  V30 3695 H 355.945 2.84891 1.59702 0
M  V30 3696 H 354.604 3.64616 -0.380853 0
M  V30 3697 H 354.252 4.66758 1.87472 0
M  V30 3698 H 353.952 5.84785 0.574485 0
M  V30 3699 H 355.476 5.9178 1.50428 0
M  V30 3700 H 356.89 5.68307 -0.75499 0
M  V30 3701 H 355.287 5.80073 -1.53738 0
M  V30 3702 H 356.357 4.44504 -1.93764 0
M  V30 3703 N 357.7 0.491464 1.49741 0
M  V30 3704 C 358.648 -0.305837 2.30581 0
M  V30 3705 C 359.642 -0.971642 1.38764 0
M  V30 3706 O 360.848 -0.90042 1.5586 0
M  V30 3707 H 357.223 -0.117482 0.742767 0
M  V30 3708 H 359.194 0.396093 2.95759 0
M  V30 3709 C 357.943 -1.36319 3.19863 0
M  V30 3710 H 357.266 -0.860258 3.90435 0
M  V30 3711 H 358.706 -1.89323 3.79385 0
M  V30 3712 C 357.165 -2.37621 2.38826 0
M  V30 3713 O 357.695 -3.43311 2.08567 0
M  V30 3714 N 355.901 -2.09849 2.01026 0
M  V30 3715 H 355.448 -1.23922 2.25834 0
M  V30 3716 H 355.406 -2.77859 1.47112 0
M  V30 3717 N 359.178 -1.55987 0.224894 0
M  V30 3718 C 360.088 -2.24066 -0.69511 0
M  V30 3719 C 361.104 -1.24939 -1.21104 0
M  V30 3720 O 362.28 -1.5776 -1.25195 0
M  V30 3721 C 359.345 -2.90983 -1.88493 0
M  V30 3722 C 358.406 -4.05462 -1.41064 0
M  V30 3723 C 357.639 -4.69179 -2.54375 0
M  V30 3724 O 357.862 -4.31895 -3.72589 0
M  V30 3725 O 356.796 -5.58108 -2.25386 0
M  V30 3726 H 360.622 -3.03353 -0.145149 0
M  V30 3727 H 358.207 -1.49399 -0.00569476 0
M  V30 3728 H 360.089 -3.33209 -2.57972 0
M  V30 3729 H 358.764 -2.14653 -2.42293 0
M  V30 3730 H 357.671 -3.67798 -0.683774 0
M  V30 3731 H 359.004 -4.83545 -0.918985 0
M  V30 3732 N 360.656 0.0484629 -1.57525 0
M  V30 3733 C 361.619 1.03956 -2.04269 0
M  V30 3734 C 362.619 1.30211 -0.943496 0
M  V30 3735 O 363.809 1.25539 -1.20771 0
M  V30 3736 C 360.941 2.37742 -2.44319 0
M  V30 3737 H 362.134 0.636182 -2.93075 0
M  V30 3738 H 359.687 0.294811 -1.53494 0
M  V30 3739 H 360.422 2.82866 -1.5861 0
M  V30 3740 H 360.207 2.20021 -3.24551 0
M  V30 3741 H 361.697 3.08936 -2.80978 0
M  V30 3742 N 362.134 1.5431 0.320358 0
M  V30 3743 C 363.383 1.7188 1.05546 0
M  V30 3744 C 363.696 0.501143 1.89071 0
M  V30 3745 O 364.902 0.558258 2.65699 0
M  V30 3746 C 363.358 3.04025 1.92605 0
M  V30 3747 C 362.966 4.33207 1.14176 0
M  V30 3748 C 364.71 3.30959 2.65832 0
M  V30 3749 C 362.617 5.56412 2.00399 0
M  V30 3750 H 361.547 0.640547 0.397763 0
M  V30 3751 H 364.198 1.80802 0.313522 0
M  V30 3752 H 362.58 2.89019 2.7071 0
M  V30 3753 H 363.754 4.58989 0.40819 0
M  V30 3754 H 362.069 4.13062 0.526165 0
M  V30 3755 H 364.666 4.20203 3.30656 0
M  V30 3756 H 365.009 2.48979 3.33639 0
M  V30 3757 H 365.542 3.46847 1.94787 0
M  V30 3758 H 362.281 6.41004 1.37094 0
M  V30 3759 H 361.801 5.34844 2.7148 0
M  V30 3760 H 363.48 5.92938 2.58908 0
M  V30 3761 N 363.613 -0.582584 1.46437 0
M  V30 3762 C 364.56 -1.69164 1.5701 0
M  V30 3763 C 365.53 -1.60847 0.414403 0
M  V30 3764 O 366.715 -1.80058 0.631171 0
M  V30 3765 C 363.855 -3.075 1.56646 0
M  V30 3766 C 362.968 -3.2644 2.82951 0
M  V30 3767 C 362.103 -4.55026 2.7409 0
M  V30 3768 C 361.142 -4.6731 3.95333 0
M  V30 3769 N 360.279 -5.87221 3.84858 0
M  V30 3770 H 365.119 -1.59464 2.51744 0
M  V30 3771 H 362.656 -0.777186 1.24893 0
M  V30 3772 H 364.614 -3.8757 1.5442 0
M  V30 3773 H 363.244 -3.16096 0.654439 0
M  V30 3774 H 362.296 -2.39974 2.95155 0
M  V30 3775 H 363.608 -3.31385 3.72808 0
M  V30 3776 H 362.762 -5.43324 2.6997 0
M  V30 3777 H 361.501 -4.52519 1.81873 0
M  V30 3778 H 360.506 -3.77429 3.99784 0
M  V30 3779 H 361.731 -4.71595 4.88646 0
M  V30 3780 H 359.677 -5.85712 2.95427 0
M  V30 3781 H 359.594 -5.93435 4.6837 0
M  V30 3782 H 360.862 -6.7795 3.84713 0
M  V30 3783 N 365.091 -1.34144 -0.827227 0
M  V30 3784 C 366.34 -1.25602 -1.5782 0
M  V30 3785 C 366.653 0.173445 -1.94829 0
M  V30 3786 O 367.859 0.380984 -2.68814 0
M  V30 3787 C 366.315 -2.20151 -2.84713 0
M  V30 3788 C 365.923 -3.68331 -2.55021 0
M  V30 3789 C 367.667 -2.20508 -3.62735 0
M  V30 3790 C 365.574 -4.54762 -3.78082 0
M  V30 3791 H 364.504 -0.466573 -0.592306 0
M  V30 3792 H 367.155 -1.59283 -0.911116 0
M  V30 3793 H 365.537 -1.79417 -3.53023 0
M  V30 3794 H 366.711 -4.17577 -1.94849 0
M  V30 3795 H 365.026 -3.7038 -1.90283 0
M  V30 3796 H 367.623 -2.82306 -4.54101 0
M  V30 3797 H 367.966 -1.20322 -3.98533 0
M  V30 3798 H 368.499 -2.59664 -3.01362 0
M  V30 3799 H 365.238 -5.55867 -3.47407 0
M  V30 3800 H 364.758 -4.10254 -4.37552 0
M  V30 3801 H 366.437 -4.69153 -4.45538 0
M  V30 3802 N 366.569 1.04691 -1.17803 0
M  V30 3803 C 367.817 1.7743 -0.967617 0
M  V30 3804 C 368.138 1.88359 0.504574 0
M  V30 3805 O 367.408 1.40402 1.36617 0
M  V30 3806 H 365.988 0.657242 -0.355024 0
M  V30 3807 H 368.65 1.2638 -1.48371 0
M  V30 3808 H 367.746 2.78924 -1.40027 0
M  V30 3809 N 368.047 0.979072 1.23499 0
M  V30 3810 C 368.994 0.517904 2.24914 0
M  V30 3811 C 369.964 -0.442525 1.60097 0
M  V30 3812 O 371.149 -0.350365 1.87556 0
M  V30 3813 C 368.289 -0.174813 3.44657 0
M  V30 3814 C 367.402 0.825721 4.24035 0
M  V30 3815 C 366.537 0.107946 5.3109 0
M  V30 3816 C 365.576 1.09778 6.02175 0
M  V30 3817 N 364.713 0.40925 7.00906 0
M  V30 3818 H 369.553 1.38751 2.63727 0
M  V30 3819 H 367.09 0.695303 1.2963 0
M  V30 3820 H 369.048 -0.593233 4.12961 0
M  V30 3821 H 367.678 -1.0083 3.06648 0
M  V30 3822 H 366.73 1.36253 3.55161 0
M  V30 3823 H 368.042 1.58005 4.73113 0
M  V30 3824 H 367.196 -0.367904 6.05583 0
M  V30 3825 H 365.935 -0.678994 4.8295 0
M  V30 3826 H 364.94 1.5844 5.26476 0
M  V30 3827 H 366.165 1.88536 6.52404 0
M  V30 3828 H 364.111 -0.358506 6.5502 0
M  V30 3829 H 364.028 1.10226 7.47921 0
M  V30 3830 H 365.296 -0.0442557 7.79487 0
M  V30 3831 N 369.525 -1.3858 0.750561 0
M  V30 3832 C 370.755 -2.04175 0.31564 0
M  V30 3833 C 371.163 -1.56726 -1.05989 0
M  V30 3834 O 370.506 -0.734225 -1.68389 0
M  V30 3835 C 370.568 -3.58585 0.256389 0
M  V30 3836 C 370.232 -4.29077 1.57296 0
M  V30 3837 C 371.229 -4.54656 2.52159 0
M  V30 3838 C 368.914 -4.67324 1.84156 0
M  V30 3839 C 370.908 -5.17512 3.72103 0
M  V30 3840 C 368.595 -5.29905 3.04374 0
M  V30 3841 C 369.593 -5.54933 3.98168 0
M  V30 3842 O 369.281 -6.16212 5.16273 0
M  V30 3843 H 369.013 -0.662742 0.133226 0
M  V30 3844 H 371.567 -1.78313 1.01948 0
M  V30 3845 H 369.797 -3.83406 -0.503677 0
M  V30 3846 H 371.486 -4.05628 -0.148612 0
M  V30 3847 H 372.252 -4.25539 2.32683 0
M  V30 3848 H 368.131 -4.47191 1.11988 0
M  V30 3849 H 371.675 -5.36963 4.45327 0
M  V30 3850 H 367.572 -5.58444 3.23745 0
M  V30 3851 H 368.34 -6.34701 5.16815 0
M  V30 3852 N 371.003 -0.499398 -1.49478 0
M  V30 3853 C 371.933 0.269244 -2.31943 0
M  V30 3854 C 372.914 0.964054 -1.40143 0
M  V30 3855 O 374.099 0.955767 -1.69052 0
M  V30 3856 C 371.229 1.33504 -3.20615 0
M  V30 3857 C 370.183 0.760202 -4.21195 0
M  V30 3858 C 369.509 1.9264 -4.98792 0
M  V30 3859 C 370.809 -0.247661 -5.21712 0
M  V30 3860 H 372.503 -0.419082 -2.96452 0
M  V30 3861 H 370.049 -0.202988 -1.42562 0
M  V30 3862 H 372.002 1.88048 -3.77115 0
M  V30 3863 H 370.726 2.05253 -2.54045 0
M  V30 3864 H 369.385 0.23653 -3.65836 0
M  V30 3865 H 369.033 2.63154 -4.28671 0
M  V30 3866 H 368.733 1.54785 -5.66847 0
M  V30 3867 H 370.257 2.4762 -5.58137 0
M  V30 3868 H 371.671 0.209579 -5.72917 0
M  V30 3869 H 370.068 -0.541962 -5.97648 0
M  V30 3870 H 371.138 -1.16409 -4.7072 0
M  V30 3871 N 372.481 1.55866 -0.233164 0
M  V30 3872 C 373.428 2.20796 0.67215 0
M  V30 3873 C 374.398 1.16731 1.18166 0
M  V30 3874 O 375.583 1.45129 1.23864 0
M  V30 3875 C 372.723 2.90072 1.86955 0
M  V30 3876 C 371.836 4.08759 1.39786 0
M  V30 3877 C 370.971 4.65787 2.55374 0
M  V30 3878 C 370.01 5.76752 2.04998 0
M  V30 3879 N 369.147 6.28021 3.13901 0
M  V30 3880 H 373.987 2.9779 0.111749 0
M  V30 3881 H 371.524 1.47036 0.0434007 0
M  V30 3882 H 373.482 3.28428 2.57276 0
M  V30 3883 H 372.112 2.15575 2.40265 0
M  V30 3884 H 371.164 3.7581 0.589173 0
M  V30 3885 H 372.476 4.88906 0.98856 0
M  V30 3886 H 371.63 5.06646 3.33758 0
M  V30 3887 H 370.369 3.84828 2.99598 0
M  V30 3888 H 369.374 5.35383 1.25079 0
M  V30 3889 H 370.599 6.59553 1.61759 0
M  V30 3890 H 368.545 5.49971 3.57586 0
M  V30 3891 H 368.462 7.03323 2.7726 0
M  V30 3892 H 369.73 6.73538 3.92386 0
M  V30 3893 N 373.959 -0.0401083 1.57549 0
M  V30 3894 C 375.207 -0.731677 1.8839 0
M  V30 3895 C 375.528 -1.76481 0.829425 0
M  V30 3896 O 374.798 -1.95411 -0.1383 0
M  V30 3897 H 373.378 -0.273225 0.695239 0
M  V30 3898 H 376.04 -0.00867725 1.94898 0
M  V30 3899 H 375.136 -1.22816 2.86919 0
M  V30 3900 N 375.437 -1.54477 -0.31217 0
M  V30 3901 C 376.662 -1.77526 -1.07235 0
M  V30 3902 C 377.087 -0.527775 -1.80544 0
M  V30 3903 O 376.445 0.52121 -1.73646 0
M  V30 3904 C 376.493 -2.97535 -2.03728 0
M  V30 3905 O 375.597 -2.69878 -3.11833 0
M  V30 3906 H 374.938 -0.58792 -0.30862 0
M  V30 3907 H 377.468 -2.01532 -0.352993 0
M  V30 3908 H 377.478 -3.25198 -2.46395 0
M  V30 3909 H 376.153 -3.87996 -1.49774 0
M  V30 3910 H 374.73 -2.53199 -2.7376 0
M  V30 3911 N 376.915 0.57481 -1.46744 0
M  V30 3912 C 377.845 1.69337 -1.60771 0
M  V30 3913 C 378.826 1.63825 -0.457736 0
M  V30 3914 O 380.011 1.8172 -0.684947 0
M  V30 3915 C 377.141 3.0798 -1.60517 0
M  V30 3916 C 376.095 3.28327 -2.74564 0
M  V30 3917 C 375.421 4.67578 -2.59373 0
M  V30 3918 C 376.721 3.15398 -4.16319 0
M  V30 3919 H 378.415 1.57853 -2.54407 0
M  V30 3920 H 375.961 0.75799 -1.22436 0
M  V30 3921 H 377.914 3.86061 -1.68923 0
M  V30 3922 H 376.638 3.20381 -0.634305 0
M  V30 3923 H 375.297 2.52649 -2.65639 0
M  V30 3924 H 374.945 4.76755 -1.60353 0
M  V30 3925 H 374.645 4.82144 -3.35873 0
M  V30 3926 H 376.169 5.47817 -2.69682 0
M  V30 3927 H 377.583 3.83315 -4.26313 0
M  V30 3928 H 375.98 3.41482 -4.93468 0
M  V30 3929 H 377.05 2.12372 -4.3592 0
M  V30 3930 N 378.394 1.34581 0.820102 0
M  V30 3931 C 379.357 1.2628 1.91275 0
M  V30 3932 C 380.357 0.177344 1.59819 0
M  V30 3933 O 381.547 0.430156 1.68806 0
M  V30 3934 C 378.679 0.950327 3.27386 0
M  V30 3935 H 379.872 2.23421 2.00057 0
M  V30 3936 H 377.425 1.1891 1.0144 0
M  V30 3937 H 378.16 -0.0177938 3.24295 0
M  V30 3938 H 377.945 1.73549 3.51601 0
M  V30 3939 H 379.435 0.917492 4.07396 0
M  V30 3940 N 379.872 -1.04064 1.18357 0
M  V30 3941 C 381.102 -1.80654 1.00238 0
M  V30 3942 C 381.51 -1.83713 -0.452362 0
M  V30 3943 O 380.853 -1.27135 -1.32599 0
M  V30 3944 C 380.915 -3.27582 1.48088 0
M  V30 3945 C 380.579 -3.48184 2.96002 0
M  V30 3946 C 381.576 -3.39372 3.93856 0
M  V30 3947 C 379.261 -3.7478 3.34433 0
M  V30 3948 C 381.255 -3.5686 5.28138 0
M  V30 3949 C 378.942 -3.91915 4.68877 0
M  V30 3950 C 379.94 -3.82956 5.65539 0
M  V30 3951 O 379.628 -3.996 6.97549 0
M  V30 3952 H 379.36 -0.575751 0.354241 0
M  V30 3953 H 381.914 -1.32044 1.57333 0
M  V30 3954 H 380.144 -3.77161 0.853588 0
M  V30 3955 H 381.833 -3.8573 1.2636 0
M  V30 3956 H 382.599 -3.18789 3.65511 0
M  V30 3957 H 378.478 -3.80852 2.59756 0
M  V30 3958 H 382.022 -3.49783 6.03571 0
M  V30 3959 H 377.919 -4.11992 4.96923 0
M  V30 3960 H 378.687 -4.1676 7.04452 0
M  V30 3961 N 381.35 -0.985608 -1.22978 0
M  V30 3962 C 382.313 -0.535071 -2.22867 0
M  V30 3963 C 383.313 0.378123 -1.56291 0
M  V30 3964 O 384.503 0.171092 -1.73358 0
M  V30 3965 C 381.635 0.222702 -3.40172 0
M  V30 3966 H 382.828 -1.41835 -2.6424 0
M  V30 3967 H 380.381 -0.772042 -1.35901 0
M  V30 3968 H 381.116 1.12229 -3.04262 0
M  V30 3969 H 380.901 -0.43288 -3.89703 0
M  V30 3970 H 382.391 0.526335 -4.1427 0
M  V30 3971 N 382.828 1.3818 -0.7579 0
M  V30 3972 C 383.738 2.3421 -0.135247 0
M  V30 3973 C 384.754 1.59487 0.695683 0
M  V30 3974 O 385.93 1.91657 0.618832 0
M  V30 3975 C 382.995 3.3862 0.744139 0
M  V30 3976 C 382.056 4.2918 -0.101658 0
M  V30 3977 C 381.289 5.28603 0.735851 0
M  V30 3978 O 381.512 5.35166 1.97366 0
M  V30 3979 O 380.446 6.01707 0.152372 0
M  V30 3980 H 384.272 2.8916 -0.928436 0
M  V30 3981 H 381.857 1.40101 -0.518855 0
M  V30 3982 H 383.739 4.02539 1.2466 0
M  V30 3983 H 382.414 2.86019 1.51575 0
M  V30 3984 H 381.321 3.68407 -0.650167 0
M  V30 3985 H 382.654 4.85048 -0.836024 0
M  V30 3986 N 384.306 0.507319 1.49211 0
M  V30 3987 C 385.583 -0.0982702 1.95353 0
M  V30 3988 C 385.963 -1.53516 1.449 0
M  V30 3989 O 385.311 -2.18594 0.66551 0
M  V30 3990 C 385.521 -0.00440283 3.49 0
M  V30 3991 C 386.869 -0.175147 4.24239 0
M  V30 3992 O 387.893 -0.0792891 3.56112 0
M  V30 3993 O 386.752 -0.37276 5.45227 0
M  V30 3994 H 383.846 -0.0918236 0.821887 0
M  V30 3995 H 386.392 0.570307 1.5983 0
M  V30 3996 H 385.164 0.997402 3.78375 0
M  V30 3997 H 384.787 -0.712845 3.91158 0
M  V30 3998 N 385.784 -1.5574 0.241426 0
M  V30 3999 C 387.195 -1.84842 -0.262755 0
M  V30 4000 C 387.546 -1.16317 -1.58003 0
M  V30 4001 O 386.671 -0.439653 -2.11887 0
M  V30 4002 C 387.266 -3.35332 -0.483523 0
M  V30 4003 C 385.825 -3.6468 -0.931977 0
M  V30 4004 C 384.972 -2.77299 -0.0061151 0
M  V30 4005 H 387.923 -1.51761 0.464129 0
M  V30 4006 H 387.944 -3.56615 -1.32688 0
M  V30 4007 H 387.456 -3.85178 0.47537 0
M  V30 4008 H 385.557 -3.20307 -1.90353 0
M  V30 4009 H 385.67 -4.72498 -0.792628 0
M  V30 4010 H 384.034 -2.49408 -0.516503 0
M  V30 4011 H 384.817 -3.2995 0.948052 0
M  V30 4012 N 387.262 0.0317525 -1.57568 0
M  V30 4013 C 388.502 0.727979 -1.90997 0
M  V30 4014 C 388.866 1.72664 -0.839708 0
M  V30 4015 O 390.067 2.47092 -1.05825 0
M  V30 4016 C 388.338 1.38239 -3.29583 0
M  V30 4017 S 389.897 2.10814 -3.84841 0
M  V30 4018 H 386.715 0.241226 -0.668828 0
M  V30 4019 H 389.317 -0.0173037 -1.95492 0
M  V30 4020 H 388.021 0.642288 -4.05343 0
M  V30 4021 H 387.552 2.16628 -3.28384 0
M  V30 4022 H 389.567 3.3792 -3.63352 0
M  V30 4023 N 388.74 1.54641 0.303973 0
M  V30 4024 C 389.988 1.73437 1.0375 0
M  V30 4025 C 390.309 0.521449 1.87899 0
M  V30 4026 O 389.579 -0.46432 1.90318 0
M  V30 4027 H 388.159 0.639518 0.386039 0
M  V30 4028 H 390.821 1.91988 0.335675 0
M  V30 4029 H 389.917 2.62235 1.69231 0
M  V30 4030 N 390.218 -0.567019 1.47046 0
M  V30 4031 C 391.181 -1.65696 1.58359 0
M  V30 4032 C 392.181 -1.54097 0.459441 0
M  V30 4033 O 393.371 -1.58432 0.724225 0
M  V30 4034 C 390.503 -3.05197 1.51879 0
M  V30 4035 H 391.696 -1.57019 2.5551 0
M  V30 4036 H 389.249 -0.786148 1.3509 0
M  V30 4037 H 389.984 -3.19417 0.560673 0
M  V30 4038 H 389.769 -3.15025 2.33455 0
M  V30 4039 H 391.259 -3.84511 1.62913 0
M  V30 4040 N 391.696 -1.35014 -0.812953 0
M  V30 4041 C 392.606 -1.2951 -1.95613 0
M  V30 4042 C 393.622 -0.20107 -1.72834 0
M  V30 4043 O 394.798 -0.42932 -1.96771 0
M  V30 4044 C 391.863 -1.06033 -3.30088 0
M  V30 4045 C 390.924 -2.24688 -3.65805 0
M  V30 4046 C 390.157 -2.02322 -4.93864 0
M  V30 4047 O 390.38 -0.986464 -5.61805 0
M  V30 4048 O 389.314 -2.89525 -5.27692 0
M  V30 4049 H 393.14 -2.25705 -2.03202 0
M  V30 4050 H 390.725 -1.15321 -0.949811 0
M  V30 4051 H 392.607 -0.94763 -4.10607 0
M  V30 4052 H 391.282 -0.128852 -3.23443 0
M  V30 4053 H 390.189 -2.41521 -2.85689 0
M  V30 4054 H 391.522 -3.16261 -3.77147 0
M  V30 4055 N 393.175 1.03435 -1.18907 0
M  V30 4056 C 394.107 2.1165 -0.879595 0
M  V30 4057 C 395.12 1.62316 0.125439 0
M  V30 4058 O 396.309 1.78201 -0.103245 0
M  V30 4059 C 393.409 3.37622 -0.294042 0
M  V30 4060 C 392.582 4.16166 -1.34629 0
M  V30 4061 C 391.641 5.20457 -0.775274 0
M  V30 4062 O 390.667 5.50379 -1.4516 0
M  V30 4063 N 391.869 5.78949 0.424126 0
M  V30 4064 H 394.634 2.38791 -1.81105 0
M  V30 4065 H 392.195 1.19681 -1.09032 0
M  V30 4066 H 394.187 4.04572 0.101679 0
M  V30 4067 H 392.757 3.07873 0.541575 0
M  V30 4068 H 391.977 3.44444 -1.91707 0
M  V30 4069 H 393.265 4.65432 -2.05549 0
M  V30 4070 H 392.663 5.56948 0.991209 0
M  V30 4071 H 391.22 6.47334 0.761691 0
M  V30 4072 N 394.653 0.992116 1.22453 0
M  V30 4073 C 395.901 0.666215 1.90804 0
M  V30 4074 C 396.222 -0.804152 1.77647 0
M  V30 4075 O 395.492 -1.57629 1.16318 0
M  V30 4076 H 394.072 0.243423 0.706225 0
M  V30 4077 H 396.734 1.25845 1.48825 0
M  V30 4078 H 395.83 0.928069 2.97982 0
M  V30 4079 N 396.131 -1.37776 0.765217 0
M  V30 4080 C 397.378 -1.99849 0.326588 0
M  V30 4081 C 397.706 -1.60746 -1.09504 0
M  V30 4082 O 396.961 -0.84202 -1.76659 0
M  V30 4083 C 397.26 -3.5504 0.410053 0
M  V30 4084 C 396.926 -4.13891 1.78899 0
M  V30 4085 C 395.588 -4.29678 2.16635 0
M  V30 4086 C 397.94 -4.46236 2.69301 0
M  V30 4087 C 395.268 -4.7511 3.44221 0
M  V30 4088 C 397.62 -4.93089 3.9629 0
M  V30 4089 C 396.284 -5.07082 4.34078 0
M  V30 4090 H 395.554 -0.7313 0.119507 0
M  V30 4091 H 398.201 -1.64645 0.977968 0
M  V30 4092 H 396.506 -3.90451 -0.324878 0
M  V30 4093 H 398.203 -4.00966 0.0520699 0
M  V30 4094 H 394.793 -4.02026 1.48569 0
M  V30 4095 H 398.977 -4.3363 2.41409 0
M  V30 4096 H 394.233 -4.84129 3.73402 0
M  V30 4097 H 398.407 -5.17084 4.66472 0
M  V30 4098 H 396.034 -5.42046 5.33001 0
M  V30 4099 N 397.609 -0.515225 -1.4894 0
M  V30 4100 C 398.834 0.022727 -2.07388 0
M  V30 4101 C 399.259 1.2876 -1.37122 0
M  V30 4102 O 398.617 1.76067 -0.432431 0
M  V30 4103 C 398.665 0.244869 -3.59768 0
M  V30 4104 O 397.769 1.31667 -3.90817 0
M  V30 4105 H 397.11 -0.0325506 -0.663202 0
M  V30 4106 H 399.64 -0.718918 -1.91553 0
M  V30 4107 H 399.65 0.47205 -4.0526 0
M  V30 4108 H 398.325 -0.679194 -4.10317 0
M  V30 4109 H 396.902 1.07331 -3.5712 0
M  V30 4110 N 399.087 1.5561 -0.249682 0
M  V30 4111 C 400.335 1.98618 0.373548 0
M  V30 4112 C 400.656 1.13919 1.58264 0
M  V30 4113 O 399.926 0.222637 1.94631 0
M  V30 4114 H 398.506 0.733571 0.141006 0
M  V30 4115 H 401.168 1.91748 -0.349117 0
M  V30 4116 H 400.264 3.04584 0.680796 0
M  V30 4117 N 400.565 -0.0233959 1.57583 0
M  V30 4118 C 401.981 -0.379134 1.55031 0
M  V30 4119 C 402.181 -1.76255 0.976548 0
M  V30 4120 O 401.237 -2.45266 0.600078 0
M  V30 4121 C 402.55 -0.275792 2.99433 0
M  V30 4122 C 404.098 -0.352458 3.11009 0
M  V30 4123 C 404.573 -0.278501 4.57152 0
M  V30 4124 N 406.064 -0.337123 4.61972 0
M  V30 4125 C 406.799 -0.302876 5.726 0
M  V30 4126 N 406.295 -0.220589 6.92449 0
M  V30 4127 N 408.088 -0.353023 5.6099 0
M  V30 4128 H 400.239 0.881869 1.93227 0
M  V30 4129 H 402.502 0.335867 0.886509 0
M  V30 4130 H 402.208 0.675108 3.4516 0
M  V30 4131 H 402.082 -1.06721 3.61788 0
M  V30 4132 H 404.469 -1.29379 2.65226 0
M  V30 4133 H 404.55 0.468409 2.51475 0
M  V30 4134 H 404.194 0.659189 5.03604 0
M  V30 4135 H 404.124 -1.11755 5.14605 0
M  V30 4136 H 406.615 -0.403002 3.75745 0
M  V30 4137 H 406.928 -0.199713 7.72542 0
M  V30 4138 H 405.273 -0.186555 6.9475 0
M  V30 4139 H 408.464 -0.415339 4.66254 0
M  V30 4140 H 408.637 -0.322866 6.47195 0
M  V30 4141 N 402.043 -1.548 -0.295768 0
M  V30 4142 C 402.953 -1.89177 -1.38742 0
M  V30 4143 C 403.969 -0.786481 -1.55211 0
M  V30 4144 O 405.145 -1.08344 -1.69775 0
M  V30 4145 C 402.21 -2.13663 -2.73036 0
M  V30 4146 C 401.271 -3.37349 -2.65508 0
M  V30 4147 C 400.504 -3.60658 -3.93398 0
M  V30 4148 O 400.727 -2.86882 -4.93006 0
M  V30 4149 O 399.661 -4.54179 -3.94975 0
M  V30 4150 H 403.487 -2.82059 -1.12589 0
M  V30 4151 H 401.072 -1.41056 -0.492295 0
M  V30 4152 H 402.954 -2.3094 -3.52484 0
M  V30 4153 H 401.629 -1.23967 -2.99022 0
M  V30 4154 H 400.536 -3.25431 -1.84514 0
M  V30 4155 H 401.869 -4.27192 -2.44474 0
M  V30 4156 N 403.521 0.559213 -1.47345 0
M  V30 4157 C 404.767 1.31843 -1.54095 0
M  V30 4158 C 405.1 1.93149 -0.201726 0
M  V30 4159 O 404.375 1.77759 0.789428 0
M  V30 4160 C 404.658 2.43006 -2.65744 0
M  V30 4161 C 404.511 1.86581 -4.09277 0
M  V30 4162 C 405.83 3.44943 -2.73318 0
M  V30 4163 H 402.949 0.478012 -0.560957 0
M  V30 4164 H 405.591 0.625977 -1.79392 0
M  V30 4165 H 403.741 3.02072 -2.44305 0
M  V30 4166 H 405.413 1.31792 -4.42073 0
M  V30 4167 H 403.656 1.17268 -4.17649 0
M  V30 4168 H 404.327 2.66933 -4.83168 0
M  V30 4169 H 406.803 2.95793 -2.92653 0
M  V30 4170 H 405.679 4.20153 -3.53218 0
M  V30 4171 H 405.94 4.03665 -1.80296 0
M  V30 4172 N 404.999 1.35443 0.805782 0
M  V30 4173 C 405.932 1.22783 1.92353 0
M  V30 4174 C 406.91 0.115543 1.62189 0
M  V30 4175 O 408.094 0.283778 1.86352 0
M  V30 4176 C 405.221 0.890746 3.26777 0
M  V30 4177 C 404.267 2.01519 3.75889 0
M  V30 4178 S 405.1 3.63101 3.93596 0
M  V30 4179 C 406.256 3.31472 5.30921 0
M  V30 4180 H 406.489 2.17394 2.02798 0
M  V30 4181 H 404.022 1.20669 0.963245 0
M  V30 4182 H 405.98 0.703068 4.04434 0
M  V30 4183 H 404.641 -0.0373152 3.14078 0
M  V30 4184 H 403.834 1.7335 4.7325 0
M  V30 4185 H 403.436 2.16124 3.05231 0
M  V30 4186 H 405.728 2.8435 6.1494 0
M  V30 4187 H 406.671 4.28036 5.64084 0
M  V30 4188 H 407.079 2.67221 4.97246 0
M  V30 4189 N 406.477 -1.02803 1.19454 0
M  V30 4190 C 407.44 -2.09264 0.934955 0
M  V30 4191 C 408.44 -1.60576 -0.0849015 0
M  V30 4192 O 409.63 -1.73554 0.149933 0
M  V30 4193 C 406.762 -3.38482 0.40531 0
M  V30 4194 H 407.955 -2.33726 1.87916 0
M  V30 4195 H 405.508 -1.19426 1.00832 0
M  V30 4196 H 406.243 -3.19689 -0.544899 0
M  V30 4197 H 406.028 -3.75142 1.14065 0
M  V30 4198 H 407.518 -4.16894 0.242806 0
M  V30 4199 N 407.956 -0.998596 -1.21925 0
M  V30 4200 C 408.866 -0.562736 -2.27751 0
M  V30 4201 C 409.882 0.391203 -1.69545 0
M  V30 4202 O 411.058 0.256625 -1.99758 0
M  V30 4203 C 408.123 0.11012 -3.46525 0
M  V30 4204 C 407.184 -0.887495 -4.20026 0
M  V30 4205 C 406.417 -0.246654 -5.3313 0
M  V30 4206 O 406.64 0.958088 -5.62296 0
M  V30 4207 O 405.574 -0.954374 -5.94286 0
M  V30 4208 H 409.4 -1.44329 -2.67213 0
M  V30 4209 H 406.985 -0.767135 -1.28201 0
M  V30 4210 H 408.867 0.486756 -4.18579 0
M  V30 4211 H 407.542 0.965154 -3.08976 0
M  V30 4212 H 406.449 -1.31517 -3.5022 0
M  V30 4213 H 407.782 -1.71191 -4.6147 0
M  V30 4214 N 409.434 1.37368 -0.772513 0
M  V30 4215 C 410.681 1.99673 -0.337182 0
M  V30 4216 C 411.009 1.61324 1.0865 0
M  V30 4217 O 410.264 0.851377 1.7621 0
M  V30 4218 C 410.563 3.54817 -0.428876 0
M  V30 4219 C 410.229 4.12936 -1.81092 0
M  V30 4220 C 408.891 4.28523 -2.1891 0
M  V30 4221 C 411.243 4.44801 -2.71664 0
M  V30 4222 C 408.571 4.73277 -3.46735 0
M  V30 4223 C 410.923 4.90981 -3.98899 0
M  V30 4224 C 409.587 5.04773 -4.36761 0
M  V30 4225 H 408.857 0.730656 -0.123384 0
M  V30 4226 H 411.504 1.64124 -0.986686 0
M  V30 4227 H 409.809 3.90618 0.304167 0
M  V30 4228 H 411.506 4.00933 -0.0733334 0
M  V30 4229 H 408.096 4.01233 -1.50699 0
M  V30 4230 H 412.28 4.32344 -2.43706 0
M  V30 4231 H 407.536 4.82142 -3.75964 0
M  V30 4232 H 411.71 5.14603 -4.69208 0
M  V30 4233 H 409.337 5.39211 -5.35868 0
M  V30 4234 N 410.912 0.523116 1.48665 0
M  V30 4235 C 412.328 0.180511 1.58576 0
M  V30 4236 C 412.528 -1.31597 1.52592 0
M  V30 4237 O 411.584 -2.0937 1.4114 0
M  V30 4238 C 412.897 0.776949 2.90489 0
M  V30 4239 C 414.445 0.745058 3.04003 0
M  V30 4240 C 414.92 1.31995 4.38567 0
M  V30 4241 N 416.411 1.28162 4.45117 0
M  V30 4242 C 417.146 1.6964 5.47731 0
M  V30 4243 N 416.642 2.18816 6.57337 0
M  V30 4244 N 418.435 1.6092 5.38573 0
M  V30 4245 H 410.586 1.4958 1.50797 0
M  V30 4246 H 412.849 0.621772 0.715614 0
M  V30 4247 H 412.555 1.82732 3.00503 0
M  V30 4248 H 412.429 0.25007 3.7637 0
M  V30 4249 H 414.816 -0.296532 2.93606 0
M  V30 4250 H 414.897 1.30933 2.1975 0
M  V30 4251 H 414.541 2.36043 4.49718 0
M  V30 4252 H 414.471 0.731418 5.21496 0
M  V30 4253 H 416.962 0.92155 3.66491 0
M  V30 4254 H 417.275 2.48478 7.31764 0
M  V30 4255 H 415.62 2.22805 6.58318 0
M  V30 4256 H 418.811 1.22304 4.5184 0
M  V30 4257 H 418.984 1.93567 6.18414 0
M  V30 4258 N 412.39 -1.55475 0.257931 0
M  V30 4259 C 413.806 -1.59307 -0.0966563 0
M  V30 4260 C 414.006 -1.27514 -1.5602 0
M  V30 4261 O 413.062 -1.02774 -2.30637 0
M  V30 4262 C 414.375 -2.99552 0.262481 0
M  V30 4263 C 415.923 -3.1231 0.207683 0
M  V30 4264 C 416.398 -4.54793 0.541012 0
M  V30 4265 N 417.889 -4.6058 0.491921 0
M  V30 4266 C 418.624 -5.68825 0.722857 0
M  V30 4267 N 418.12 -6.85287 1.0175 0
M  V30 4268 N 419.913 -5.58296 0.652815 0
M  V30 4269 H 412.064 -1.74409 1.21224 0
M  V30 4270 H 414.327 -0.812424 0.48854 0
M  V30 4271 H 414.033 -3.27593 1.27967 0
M  V30 4272 H 413.907 -3.75019 -0.40508 0
M  V30 4273 H 416.294 -2.84044 -0.800195 0
M  V30 4274 H 416.375 -2.39095 0.909255 0
M  V30 4275 H 416.019 -4.83783 1.5465 0
M  V30 4276 H 415.949 -5.26285 -0.18216 0
M  V30 4277 H 418.44 -3.7691 0.273366 0
M  V30 4278 H 418.753 -7.63725 1.18084 0
M  V30 4279 H 417.098 -6.86945 1.05509 0
M  V30 4280 H 420.289 -4.66189 0.422592 0
M  V30 4281 H 420.462 -6.42582 0.836182 0
M  V30 4282 N 413.868 0.0150385 -1.57593 0
M  V30 4283 C 414.831 0.995996 -2.06428 0
M  V30 4284 C 415.831 1.2818 -0.970903 0
M  V30 4285 O 417.021 1.22949 -1.23406 0
M  V30 4286 C 414.153 2.32506 -2.49307 0
M  V30 4287 H 415.346 0.573873 -2.94358 0
M  V30 4288 H 412.899 0.262186 -1.54085 0
M  V30 4289 H 413.634 2.79438 -1.64575 0
M  V30 4290 H 413.419 2.13087 -3.29145 0
M  V30 4291 H 414.909 3.02906 -2.87468 0
M  V30 4292 N 415.346 1.54954 0.287554 0
M  V30 4293 C 416.574 1.78881 1.03967 0
M  V30 4294 C 416.989 0.554894 1.80462 0
M  V30 4295 O 416.346 -0.475676 1.76192 0
M  V30 4296 C 416.397 3.00488 2.0097 0
M  V30 4297 O 416.118 4.19113 1.27577 0
M  V30 4298 C 417.619 3.36907 2.88112 0
M  V30 4299 H 414.839 0.596259 0.307761 0
M  V30 4300 H 417.383 2.01937 0.322749 0
M  V30 4301 H 415.538 2.79601 2.68145 0
M  V30 4302 H 415.952 4.87765 1.92835 0
M  V30 4303 H 417.426 4.25205 3.52001 0
M  V30 4304 H 417.903 2.55659 3.57121 0
M  V30 4305 H 418.509 3.60001 2.26449 0
M  V30 4306 N 416.824 -0.551391 1.4764 0
M  V30 4307 C 418.072 -1.30572 1.54258 0
M  V30 4308 C 418.393 -1.93877 0.208963 0
M  V30 4309 O 417.663 -1.80234 -0.767619 0
M  V30 4310 H 416.243 -0.484894 0.568231 0
M  V30 4311 H 418.905 -0.643402 1.83974 0
M  V30 4312 H 418.001 -2.09621 2.31226 0
M  V30 4313 N 418.302 -1.35869 -0.798587 0
M  V30 4314 C 419.232 -1.32118 -1.92528 0
M  V30 4315 C 420.213 -0.194209 -1.68988 0
M  V30 4316 O 421.398 -0.390426 -1.90235 0
M  V30 4317 C 418.528 -1.10047 -3.29404 0
M  V30 4318 C 417.482 -2.19471 -3.67446 0
M  V30 4319 C 416.808 -1.82555 -5.02571 0
M  V30 4320 C 418.108 -3.61495 -3.76987 0
M  V30 4321 H 419.802 -2.26394 -1.95924 0
M  V30 4322 H 417.348 -1.08981 -0.94123 0
M  V30 4323 H 419.301 -1.06061 -4.07835 0
M  V30 4324 H 418.025 -0.122195 -3.26371 0
M  V30 4325 H 416.684 -2.22568 -2.91306 0
M  V30 4326 H 416.332 -0.833249 -4.9605 0
M  V30 4327 H 416.032 -2.5581 -5.28995 0
M  V30 4328 H 417.556 -1.80108 -5.83432 0
M  V30 4329 H 418.97 -3.60676 -4.4563 0
M  V30 4330 H 417.367 -4.33577 -4.14887 0
M  V30 4331 H 418.437 -3.97065 -2.78329 0
M  V30 4332 N 419.78 1.02168 -1.19998 0
M  V30 4333 C 421.191 1.57135 -1.00825 0
M  V30 4334 C 421.542 1.91276 0.436818 0
M  V30 4335 O 420.667 1.71679 1.3174 0
M  V30 4336 C 421.262 2.85514 -1.82393 0
M  V30 4337 C 419.821 3.37027 -1.67601 0
M  V30 4338 C 418.968 2.10388 -1.80644 0
M  V30 4339 H 421.919 0.846106 -1.34264 0
M  V30 4340 H 421.94 3.56711 -1.32429 0
M  V30 4341 H 421.452 2.60634 -2.87561 0
M  V30 4342 H 419.553 3.66878 -0.650485 0
M  V30 4343 H 419.666 4.09572 -2.4857 0
M  V30 4344 H 418.03 2.22601 -1.23778 0
M  V30 4345 H 418.813 1.8794 -2.87286 0
M  V30 4346 N 421.258 1.00505 1.21394 0
M  V30 4347 C 422.486 0.706609 1.9446 0
M  V30 4348 C 422.901 -0.73081 1.74082 0
M  V30 4349 O 422.258 -1.49446 1.04747 0
M  V30 4350 C 422.309 1.01824 3.46863 0
M  V30 4351 O 422.03 2.39919 3.66566 0
M  V30 4352 C 423.531 0.739216 4.37093 0
M  V30 4353 H 420.751 0.260394 0.618414 0
M  V30 4354 H 423.295 1.34311 1.54211 0
M  V30 4355 H 421.45 0.427343 3.85036 0
M  V30 4356 H 421.864 2.50784 4.6066 0
M  V30 4357 H 423.338 1.00744 5.42729 0
M  V30 4358 H 423.815 -0.326746 4.37983 0
M  V30 4359 H 424.421 1.31173 4.04566 0
M  V30 4360 N 422.737 -1.36956 0.779787 0
M  V30 4361 C 423.7 -2.2851 0.177662 0
M  V30 4362 C 424.7 -1.48393 -0.619377 0
M  V30 4363 O 425.89 -1.68505 -0.441785 0
M  V30 4364 C 423.022 -3.32428 -0.755279 0
M  V30 4365 H 424.215 -2.83269 0.984823 0
M  V30 4366 H 421.768 -1.46358 0.548544 0
M  V30 4367 H 422.503 -2.82808 -1.58714 0
M  V30 4368 H 422.288 -3.91659 -0.185817 0
M  V30 4369 H 423.778 -4.00824 -1.17174 0
M  V30 4370 N 424.215 -0.530993 -1.48385 0
M  V30 4371 C 425.443 -0.00134122 -2.069 0
M  V30 4372 C 425.858 1.2805 -1.3874 0
M  V30 4373 O 425.215 1.76204 -0.475244 0
M  V30 4374 C 425.266 0.225256 -3.60798 0
M  V30 4375 O 424.987 -1.0058 -4.26398 0
M  V30 4376 C 426.488 0.795172 -4.3611 0
M  V30 4377 H 423.708 -0.0339704 -0.67014 0
M  V30 4378 H 426.252 -0.736926 -1.90761 0
M  V30 4379 H 424.407 0.910891 -3.76539 0
M  V30 4380 H 424.821 -0.787165 -5.1856 0
M  V30 4381 H 426.295 0.903143 -5.44562 0
M  V30 4382 H 426.772 1.80031 -4.00606 0
M  V30 4383 H 427.378 0.146069 -4.25049 0
M  V30 4384 N 425.693 1.55336 -0.266172 0
M  V30 4385 C 426.641 2.23587 0.641228 0
M  V30 4386 C 427.635 1.22986 1.16494 0
M  V30 4387 O 428.841 1.40943 1.1196 0
M  V30 4388 H 425.216 0.717452 0.225315 0
M  V30 4389 H 427.187 2.9837 0.0426561 0
M  V30 4390 C 425.936 2.96369 1.81826 0
M  V30 4391 H 425.259 3.73563 1.42445 0
M  V30 4392 H 426.699 3.47459 2.42998 0
M  V30 4393 C 425.158 2.0133 2.70125 0
M  V30 4394 O 425.688 1.55875 3.70224 0
M  V30 4395 N 423.894 1.6802 2.37102 0
M  V30 4396 H 423.441 2.05181 1.55751 0
M  V30 4397 H 423.399 1.047 2.96454 0
M  V30 4398 N 427.171 -0.0066808 1.57599 0
M  V30 4399 C 428.104 -1.03397 2.03431 0
M  V30 4400 C 429.082 -1.33872 0.922877 0
M  V30 4401 O 430.266 -1.4615 1.19048 0
M  V30 4402 C 427.393 -2.36325 2.42628 0
M  V30 4403 C 426.439 -2.21557 3.64438 0
M  V30 4404 S 427.272 -1.54789 5.12641 0
M  V30 4405 C 428.428 -2.8916 5.55101 0
M  V30 4406 H 428.661 -0.643687 2.90248 0
M  V30 4407 H 426.194 -0.217349 1.52863 0
M  V30 4408 H 428.152 -3.12759 2.65879 0
M  V30 4409 H 426.813 -2.72495 1.56222 0
M  V30 4410 H 426.006 -3.1974 3.89592 0
M  V30 4411 H 425.608 -1.53267 3.41153 0
M  V30 4412 H 427.9 -3.8547 5.57153 0
M  V30 4413 H 428.843 -2.68713 6.55133 0
M  V30 4414 H 429.251 -2.92762 4.82649 0
M  V30 4415 N 428.649 -1.55105 -0.279332 0
M  V30 4416 C 429.898 -1.74618 -1.00952 0
M  V30 4417 C 430.211 -0.551096 -1.87676 0
M  V30 4418 O 431.417 -0.628507 -2.64125 0
M  V30 4419 C 429.873 -3.09025 -1.84476 0
M  V30 4420 C 429.481 -4.36081 -1.0265 0
M  V30 4421 C 431.225 -3.37891 -2.56963 0
M  V30 4422 C 429.132 -5.6153 -1.85576 0
M  V30 4423 H 428.062 -0.650868 -0.38064 0
M  V30 4424 H 430.713 -1.81569 -0.265475 0
M  V30 4425 H 429.095 -2.96095 -2.62952 0
M  V30 4426 H 430.269 -4.59909 -0.286354 0
M  V30 4427 H 428.584 -4.14312 -0.416464 0
M  V30 4428 H 431.181 -4.28822 -3.19399 0
M  V30 4429 H 431.524 -2.57737 -3.26921 0
M  V30 4430 H 432.057 -3.5189 -1.85522 0
M  V30 4431 H 428.796 -6.44413 -1.2005 0
M  V30 4432 H 428.316 -5.41854 -2.57204 0
M  V30 4433 H 429.995 -5.99594 -2.43096 0
M  V30 4434 N 430.127 0.543554 -1.4793 0
M  V30 4435 C 431.09 1.63156 -1.60975 0
M  V30 4436 C 432.09 1.53346 -0.483899 0
M  V30 4437 O 433.28 1.5726 -0.749339 0
M  V30 4438 C 430.412 3.02743 -1.56716 0
M  V30 4439 H 431.605 1.52934 -2.57975 0
M  V30 4440 H 429.158 0.764557 -1.36324 0
M  V30 4441 H 429.893 3.18484 -0.611418 0
M  V30 4442 H 429.678 3.11272 -2.38438 0
M  V30 4443 H 431.168 3.81871 -1.6901 0
M  V30 4444 N 431.605 1.3629 0.791371 0
M  V30 4445 C 432.833 1.33562 1.58016 0
M  V30 4446 C 433.248 -0.0835616 1.88615 0
M  V30 4447 O 432.605 -1.0399 1.49974 0
M  V30 4448 C 432.656 2.15517 2.90232 0
M  V30 4449 O 432.377 3.51902 2.60953 0
M  V30 4450 C 433.878 2.20546 3.84544 0
M  V30 4451 H 431.098 0.458226 0.490173 0
M  V30 4452 H 433.642 1.79361 0.982345 0
M  V30 4453 H 431.797 1.73278 3.46487 0
M  V30 4454 H 432.211 3.94644 3.4548 0
M  V30 4455 H 433.685 2.82252 4.74382 0
M  V30 4456 H 434.162 1.20838 4.2225 0
M  V30 4457 H 434.768 2.63013 3.34222 0
M  V30 4458 N 433.083 -1.0153 1.20538 0
M  V30 4459 C 434.36 -1.72327 0.925343 0
M  V30 4460 C 434.74 -2.03383 -0.565547 0
M  V30 4461 O 434.088 -1.69934 -1.52757 0
M  V30 4462 C 434.298 -2.9902 1.79967 0
M  V30 4463 C 435.646 -3.72258 2.04228 0
M  V30 4464 O 436.67 -3.08979 1.77231 0
M  V30 4465 O 435.529 -4.86053 2.4983 0
M  V30 4466 H 432.623 -0.751099 0.346092 0
M  V30 4467 H 435.169 -1.07366 1.31417 0
M  V30 4468 H 433.941 -2.72402 2.80915 0
M  V30 4469 H 433.564 -3.71721 1.41099 0
M  V30 4470 N 434.561 -1.01147 -1.20859 0
M  V30 4471 C 435.807 -0.708598 -1.90658 0
M  V30 4472 C 436.162 0.753069 -1.7705 0
M  V30 4473 O 435.455 1.53952 -1.14059 0
M  V30 4474 C 435.649 -1.0727 -3.40922 0
M  V30 4475 C 435.478 -2.56821 -3.69152 0
M  V30 4476 C 434.248 -3.23524 -3.8815 0
M  V30 4477 C 436.446 -3.54997 -3.72131 0
M  V30 4478 N 434.428 -4.62359 -4.03853 0
M  V30 4479 C 435.799 -4.79371 -3.93196 0
M  V30 4480 C 437.854 -3.49042 -3.55069 0
M  V30 4481 C 436.557 -5.98512 -3.98969 0
M  V30 4482 C 438.583 -4.67579 -3.6211 0
M  V30 4483 C 437.945 -5.9076 -3.83643 0
M  V30 4484 H 434.044 -0.31088 -0.71755 0
M  V30 4485 H 436.628 -1.29526 -1.45366 0
M  V30 4486 H 434.799 -0.51443 -3.84978 0
M  V30 4487 H 436.531 -0.723891 -3.98173 0
M  V30 4488 H 433.286 -2.73958 -3.86321 0
M  V30 4489 H 433.71 -5.34427 -4.15592 0
M  V30 4490 H 438.352 -2.54808 -3.37391 0
M  V30 4491 H 436.07 -6.93132 -4.15444 0
M  V30 4492 H 439.656 -4.64581 -3.50222 0
M  V30 4493 H 438.536 -6.8095 -3.88944 0
M  V30 4494 N 436.039 1.36541 -0.78704 0
M  V30 4495 C 437.455 1.52571 -0.46844 0
M  V30 4496 C 437.655 1.7415 1.01361 0
M  V30 4497 O 436.711 1.77163 1.79915 0
M  V30 4498 C 438.024 2.71299 -1.29682 0
M  V30 4499 C 439.572 2.85169 -1.29027 0
M  V30 4500 C 440.047 4.06898 -2.10233 0
M  V30 4501 N 441.538 4.1404 -2.07666 0
M  V30 4502 C 442.273 5.07301 -2.67271 0
M  V30 4503 N 441.769 6.06021 -3.35724 0
M  V30 4504 N 443.562 4.99898 -2.57018 0
M  V30 4505 H 435.713 1.20788 -1.74711 0
M  V30 4506 H 437.976 0.589364 -0.742532 0
M  V30 4507 H 437.682 2.61868 -2.34773 0
M  V30 4508 H 437.556 3.6539 -0.936479 0
M  V30 4509 H 439.943 2.94062 -0.247284 0
M  V30 4510 H 440.024 1.91992 -1.69035 0
M  V30 4511 H 439.668 3.98766 -3.1456 0
M  V30 4512 H 439.598 4.99218 -1.67597 0
M  V30 4513 H 442.089 3.43357 -1.57843 0
M  V30 4514 H 442.402 6.73741 -3.78541 0
M  V30 4515 H 440.747 6.06253 -3.39826 0
M  V30 4516 H 443.938 4.21724 -2.03142 0
M  V30 4517 H 444.111 5.72392 -3.03761 0
M  V30 4518 N 437.518 0.538854 1.48102 0
M  V30 4519 C 438.45 -0.256278 2.27763 0
M  V30 4520 C 439.463 -0.89633 1.35904 0
M  V30 4521 O 440.652 -0.773275 1.60881 0
M  V30 4522 C 437.752 -1.37896 3.09577 0
M  V30 4523 C 436.925 -0.839159 4.29275 0
M  V30 4524 C 435.984 -1.84405 4.9283 0
M  V30 4525 O 435.01 -1.39746 5.51779 0
M  V30 4526 N 436.212 -3.17666 4.85869 0
M  V30 4527 H 438.977 0.426968 2.96643 0
M  V30 4528 H 436.538 0.373747 1.57527 0
M  V30 4529 H 438.53 -2.04955 3.48963 0
M  V30 4530 H 437.1 -1.96572 2.4306 0
M  V30 4531 H 436.32 0.00769287 3.94199 0
M  V30 4532 H 437.608 -0.457548 5.06739 0
M  V30 4533 H 437.006 -3.56609 4.39143 0
M  V30 4534 H 435.563 -3.80334 5.29329 0
M  V30 4535 N 438.996 -1.55193 0.274407 0
M  V30 4536 C 439.929 -2.18606 -0.654712 0
M  V30 4537 C 440.907 -1.14677 -1.15273 0
M  V30 4538 O 442.091 -1.43198 -1.22583 0
M  V30 4539 C 439.218 -2.80875 -1.89281 0
M  V30 4540 C 438.264 -3.981 -1.53032 0
M  V30 4541 S 439.097 -5.32025 -0.609107 0
M  V30 4542 C 440.253 -5.97761 -1.85559 0
M  V30 4543 H 440.486 -2.97074 -0.115894 0
M  V30 4544 H 438.019 -1.54288 0.05867 0
M  V30 4545 H 439.977 -3.17381 -2.60345 0
M  V30 4546 H 438.638 -2.02302 -2.40277 0
M  V30 4547 H 437.831 -4.40356 -2.45158 0
M  V30 4548 H 437.433 -3.63013 -0.899874 0
M  V30 4549 H 439.725 -6.16951 -2.7996 0
M  V30 4550 H 440.668 -6.92545 -1.47605 0
M  V30 4551 H 441.076 -5.27113 -2.02021 0
M  V30 4552 N 440.474 -0.00167713 -1.576 0
M  V30 4553 C 441.722 0.681471 -1.90264 0
M  V30 4554 C 442.043 1.7422 -0.875924 0
M  V30 4555 O 441.313 1.95709 0.0864412 0
M  V30 4556 H 439.893 0.254696 -0.702239 0
M  V30 4557 H 442.555 -0.0429996 -1.94853 0
M  V30 4558 H 441.651 1.15166 -2.90075 0
M  V30 4559 N 441.952 1.55251 0.271103 0
M  V30 4560 C 442.902 1.84649 1.33749 0
M  V30 4561 C 443.886 0.705529 1.44607 0
M  V30 4562 O 445.078 0.966916 1.48256 0
M  V30 4563 C 442.207 2.12354 2.69742 0
M  V30 4564 C 441.293 3.32714 2.62988 0
M  V30 4565 N 441.684 4.52575 2.25853 0
M  V30 4566 C 439.982 3.35341 2.94045 0
M  V30 4567 C 440.683 5.34669 2.29136 0
M  V30 4568 N 439.659 4.73123 2.67685 0
M  V30 4569 H 443.461 2.74865 1.0405 0
M  V30 4570 H 440.975 1.55152 0.479738 0
M  V30 4571 H 442.972 2.31572 3.4667 0
M  V30 4572 H 441.632 1.23422 3.00328 0
M  V30 4573 H 442.643 4.78639 1.978 0
M  V30 4574 H 439.32 2.56608 3.2933 0
M  V30 4575 H 440.71 6.40509 2.02971 0
M  V30 4576 N 443.43 -0.535701 1.48216 0
M  V30 4577 C 444.658 -1.31671 1.59594 0
M  V30 4578 C 445.073 -1.87083 0.254056 0
M  V30 4579 O 444.43 -1.66112 -0.755854 0
M  V30 4580 C 444.481 -2.47158 2.63809 0
M  V30 4581 O 444.202 -1.94032 3.92789 0
M  V30 4582 C 445.703 -3.39062 2.85573 0
M  V30 4583 H 442.923 -0.400623 0.538277 0
M  V30 4584 H 445.467 -0.646827 1.94001 0
M  V30 4585 H 443.622 -3.10043 2.32276 0
M  V30 4586 H 444.036 -2.69585 4.49916 0
M  V30 4587 H 445.51 -4.16459 3.62306 0
M  V30 4588 H 445.987 -3.93941 1.94184 0
M  V30 4589 H 446.593 -2.81975 3.18387 0
M  V30 4590 N 444.908 -1.36708 -0.784132 0
M  V30 4591 C 445.838 -1.34153 -1.91116 0
M  V30 4592 C 446.819 -0.212121 -1.68772 0
M  V30 4593 O 448.004 -0.410581 -1.8981 0
M  V30 4594 C 445.134 -1.13535 -3.28218 0
M  V30 4595 C 444.088 -2.23356 -3.65097 0
M  V30 4596 C 443.414 -1.87875 -5.00607 0
M  V30 4597 C 444.714 -3.65473 -3.73131 0
M  V30 4598 H 446.408 -2.28459 -1.93512 0
M  V30 4599 H 443.954 -1.09973 -0.929618 0
M  V30 4600 H 445.907 -1.10381 -4.06687 0
M  V30 4601 H 444.631 -0.156804 -3.26223 0
M  V30 4602 H 443.29 -2.25645 -2.88929 0
M  V30 4603 H 442.938 -0.885814 -4.95139 0
M  V30 4604 H 442.638 -2.61406 -5.26252 0
M  V30 4605 H 444.162 -1.86286 -5.81489 0
M  V30 4606 H 445.576 -3.65382 -4.41779 0
M  V30 4607 H 443.973 -4.37953 -4.10265 0
M  V30 4608 H 445.043 -3.99995 -2.74102 0
M  V30 4609 N 446.386 1.0089 -1.21074 0
M  V30 4610 C 447.611 1.78727 -1.05221 0
M  V30 4611 C 448.036 1.83932 0.393795 0
M  V30 4612 O 447.394 1.28004 1.28393 0
M  V30 4613 C 447.442 3.20665 -1.64944 0
M  V30 4614 O 446.546 4.02632 -0.892273 0
M  V30 4615 H 445.887 0.550973 -0.370574 0
M  V30 4616 H 448.417 1.26847 -1.60534 0
M  V30 4617 H 448.427 3.71352 -1.69002 0
M  V30 4618 H 447.102 3.16191 -2.70177 0
M  V30 4619 H 445.679 3.61207 -0.926492 0
M  V30 4620 N 447.864 1.01787 1.20321 0
M  V30 4621 C 448.794 0.609625 2.25401 0
M  V30 4622 C 449.775 -0.375951 1.65893 0
M  V30 4623 O 450.96 -0.261101 1.92437 0
M  V30 4624 C 448.09 -0.0515995 3.47262 0
M  V30 4625 C 447.044 0.855095 4.19371 0
M  V30 4626 C 446.37 0.0595757 5.34667 0
M  V30 4627 C 447.67 2.16374 4.75373 0
M  V30 4628 H 449.364 1.48803 2.59804 0
M  V30 4629 H 446.91 0.716934 1.24884 0
M  V30 4630 H 448.863 -0.348764 4.19954 0
M  V30 4631 H 447.587 -0.964726 3.12027 0
M  V30 4632 H 446.246 1.13628 3.48546 0
M  V30 4633 H 445.894 -0.85524 4.95676 0
M  V30 4634 H 445.594 0.663406 5.83843 0
M  V30 4635 H 447.118 -0.231105 6.10162 0
M  V30 4636 H 448.532 1.92885 5.39878 0
M  V30 4637 H 446.929 2.71853 5.34991 0
M  V30 4638 H 447.999 2.82589 3.94045 0
M  V30 4639 N 449.342 -1.36122 0.79427 0
M  V30 4640 C 450.274 -2.28683 0.153903 0
M  V30 4641 C 451.287 -1.49707 -0.639669 0
M  V30 4642 O 452.476 -1.7209 -0.474054 0
M  V30 4643 C 449.576 -3.29202 -0.804921 0
M  V30 4644 C 448.749 -4.37358 -0.060366 0
M  V30 4645 C 447.808 -5.17811 -0.935849 0
M  V30 4646 O 446.834 -5.67853 -0.391309 0
M  V30 4647 N 448.036 -5.34721 -2.25951 0
M  V30 4648 H 450.801 -2.84278 0.949008 0
M  V30 4649 H 448.362 -1.4834 0.648611 0
M  V30 4650 H 450.354 -3.79914 -1.39455 0
M  V30 4651 H 448.924 -2.74212 -1.50088 0
M  V30 4652 H 448.144 -3.87746 0.710382 0
M  V30 4653 H 449.432 -5.06777 0.45324 0
M  V30 4654 H 448.83 -4.95687 -2.72601 0
M  V30 4655 H 447.387 -5.88657 -2.79867 0
M  V30 4656 N 450.82 -0.546701 -1.47814 0
M  V30 4657 C 452.045 -0.021268 -2.07389 0
M  V30 4658 C 452.47 1.25822 -1.39822 0
M  V30 4659 O 451.828 1.75111 -0.46968 0
M  V30 4660 C 451.876 0.168502 -3.60206 0
M  V30 4661 O 450.98 1.23347 -3.93522 0
M  V30 4662 H 450.321 -0.0466108 -0.662362 0
M  V30 4663 H 452.851 -0.759387 -1.89985 0
M  V30 4664 H 452.861 0.385982 -4.0617 0
M  V30 4665 H 451.536 -0.766075 -4.08784 0
M  V30 4666 H 450.113 0.997319 -3.59316 0
M  V30 4667 N 452.299 1.55045 -0.282633 0
M  V30 4668 C 453.545 2.00056 0.332481 0
M  V30 4669 C 453.878 1.1708 1.54939 0
M  V30 4670 O 453.153 0.2427 1.9298 0
M  V30 4671 C 453.436 3.53086 0.70725 0
M  V30 4672 C 453.289 4.46813 -0.517521 0
M  V30 4673 C 454.608 4.12245 1.54084 0
M  V30 4674 H 451.727 0.727268 0.119373 0
M  V30 4675 H 454.369 1.85932 -0.391076 0
M  V30 4676 H 452.519 3.65253 1.32372 0
M  V30 4677 H 454.191 4.46579 -1.15607 0
M  V30 4678 H 452.434 4.18163 -1.1542 0
M  V30 4679 H 453.105 5.51595 -0.211426 0
M  V30 4680 H 455.581 4.03401 1.02013 0
M  V30 4681 H 454.457 5.19515 1.77186 0
M  V30 4682 H 454.718 3.62951 2.52427 0
M  V30 4683 N 453.777 0.010035 1.57597 0
M  V30 4684 C 455.054 -0.710296 1.82248 0
M  V30 4685 C 455.434 -1.91426 0.889911 0
M  V30 4686 O 454.782 -2.28424 -0.0590292 0
M  V30 4687 C 454.992 -1.10655 3.30993 0
M  V30 4688 C 456.34 -1.50621 3.96987 0
M  V30 4689 O 457.364 -1.20007 3.35375 0
M  V30 4690 O 456.223 -2.07587 5.05539 0
M  V30 4691 H 453.317 -0.34673 0.750804 0
M  V30 4692 H 455.863 0.0362578 1.69661 0
M  V30 4693 H 454.635 -0.248826 3.90508 0
M  V30 4694 H 454.258 -1.91189 3.48615 0
M  V30 4695 N 455.255 -1.55392 -0.262866 0
M  V30 4696 C 456.504 -1.75679 -0.990943 0
M  V30 4697 C 456.817 -0.57097 -1.87081 0
M  V30 4698 O 458.023 -0.656486 -2.63444 0
M  V30 4699 C 456.479 -3.10964 -1.81188 0
M  V30 4700 C 456.087 -4.37146 -0.980188 0
M  V30 4701 C 457.831 -3.40597 -2.53365 0
M  V30 4702 C 455.738 -5.63466 -1.7961 0
M  V30 4703 H 454.668 -0.654868 -0.373716 0
M  V30 4704 H 457.319 -1.81841 -0.246203 0
M  V30 4705 H 455.701 -2.98867 -2.59797 0
M  V30 4706 H 456.875 -4.60187 -0.237558 0
M  V30 4707 H 455.19 -4.14731 -0.372497 0
M  V30 4708 H 457.787 -4.32186 -3.14833 0
M  V30 4709 H 458.13 -2.6119 -3.24169 0
M  V30 4710 H 458.663 -3.53838 -1.81779 0
M  V30 4711 H 455.402 -6.4565 -1.13209 0
M  V30 4712 H 454.922 -5.44552 -2.51443 0
M  V30 4713 H 456.601 -6.02139 -2.36723 0
M  V30 4714 N 456.733 0.527833 -1.48498 0
M  V30 4715 C 458.144 1.10975 -1.50138 0
M  V30 4716 C 458.495 1.943 -0.272378 0
M  V30 4717 O 457.62 2.07319 0.620301 0
M  V30 4718 C 458.215 2.01927 -2.72049 0
M  V30 4719 C 456.774 2.55332 -2.76554 0
M  V30 4720 C 455.921 1.32341 -2.43683 0
M  V30 4721 H 458.872 0.312986 -1.55583 0
M  V30 4722 H 458.893 2.86244 -2.50689 0
M  V30 4723 H 458.405 1.41254 -3.61481 0
M  V30 4724 H 456.506 3.19721 -1.91336 0
M  V30 4725 H 456.619 2.94319 -3.78038 0
M  V30 4726 H 454.983 1.63989 -1.94884 0
M  V30 4727 H 455.766 0.734165 -3.35358 0
M  V30 4728 N 458.211 1.37122 0.776871 0
M  V30 4729 C 459.141 1.35164 1.90402 0
M  V30 4730 C 460.122 0.221069 1.68657 0
M  V30 4731 O 461.307 0.420642 1.8959 0
M  V30 4732 C 458.437 1.15274 3.27611 0
M  V30 4733 C 457.391 2.25289 3.63908 0
M  V30 4734 C 456.717 1.90527 4.99603 0
M  V30 4735 C 458.017 3.67446 3.71188 0
M  V30 4736 H 459.711 2.29482 1.92297 0
M  V30 4737 H 457.257 1.10465 0.923773 0
M  V30 4738 H 459.21 1.12536 4.06096 0
M  V30 4739 H 457.934 0.174102 3.26136 0
M  V30 4740 H 456.593 2.27174 2.87728 0
M  V30 4741 H 456.241 0.91206 4.94662 0
M  V30 4742 H 455.941 2.64193 5.24858 0
M  V30 4743 H 457.465 1.89367 5.80493 0
M  V30 4744 H 458.879 3.67719 4.39836 0
M  V30 4745 H 457.276 4.40123 4.07936 0
M  V30 4746 H 458.346 4.01443 2.71977 0
M  V30 4747 N 459.689 -1.00246 1.21608 0
M  V30 4748 C 460.652 -2.07233 0.979133 0
M  V30 4749 C 461.652 -1.6072 -0.0508219 0
M  V30 4750 O 462.842 -1.73196 0.186712 0
M  V30 4751 C 459.974 -3.37546 0.477016 0
M  V30 4752 H 461.167 -2.29687 1.92831 0
M  V30 4753 H 458.72 -1.17261 1.03342 0
M  V30 4754 H 459.455 -3.20773 -0.476966 0
M  V30 4755 H 459.24 -3.72638 1.21997 0
M  V30 4756 H 460.73 -4.16285 0.331181 0
M  V30 4757 N 461.167 -1.02423 -1.1978 0
M  V30 4758 C 462.444 -0.632802 -1.85081 0
M  V30 4759 C 462.824 0.888745 -1.9148 0
M  V30 4760 O 462.172 1.78357 -1.42832 0
M  V30 4761 C 462.382 -1.28947 -3.24305 0
M  V30 4762 C 463.73 -1.40976 -4.00513 0
M  V30 4763 O 464.754 -1.24628 -3.33686 0
M  V30 4764 O 463.613 -1.67467 -5.20209 0
M  V30 4765 H 460.707 -0.219348 -0.79738 0
M  V30 4766 H 463.253 -1.12209 -1.27307 0
M  V30 4767 H 462.025 -2.3288 -3.14456 0
M  V30 4768 H 461.648 -0.787748 -3.89718 0
M  V30 4769 N 462.645 1.35699 -0.801477 0
M  V30 4770 C 464.056 1.81415 -0.441073 0
M  V30 4771 C 464.407 1.66595 1.03636 0
M  V30 4772 O 463.532 1.19369 1.80499 0
M  V30 4773 C 464.127 3.29369 -0.793819 0
M  V30 4774 C 462.686 3.73248 -0.486083 0
M  V30 4775 C 461.833 2.57775 -1.02213 0
M  V30 4776 H 464.784 1.23749 -0.993572 0
M  V30 4777 H 464.805 3.80395 -0.0894158 0
M  V30 4778 H 464.317 3.40123 -1.86917 0
M  V30 4779 H 462.418 3.68046 0.580735 0
M  V30 4780 H 462.531 4.68222 -1.01513 0
M  V30 4781 H 460.895 2.50788 -0.444712 0
M  V30 4782 H 461.678 2.71309 -2.10348 0
M  V30 4783 N 464.123 0.554532 1.47522 0
M  V30 4784 C 465.073 -0.215008 2.26984 0
M  V30 4785 C 466.057 -0.88774 1.34194 0
M  V30 4786 O 467.249 -0.786489 1.58567 0
M  V30 4787 C 464.378 -1.24604 3.19889 0
M  V30 4788 C 463.464 -0.576857 4.20159 0
M  V30 4789 N 463.855 0.351541 5.04577 0
M  V30 4790 C 462.153 -0.831104 4.38188 0
M  V30 4791 C 462.854 0.739995 5.76974 0
M  V30 4792 N 461.83 0.0954407 5.43516 0
M  V30 4793 H 465.632 0.498843 2.89636 0
M  V30 4794 H 463.146 0.374279 1.58028 0
M  V30 4795 H 465.143 -1.81128 3.75498 0
M  V30 4796 H 463.803 -1.96101 2.58794 0
M  V30 4797 H 464.814 0.725556 5.12792 0
M  V30 4798 H 461.491 -1.53479 3.88266 0
M  V30 4799 H 462.881 1.50271 6.5488 0
M  V30 4800 N 465.601 -1.54893 0.290851 0
M  V30 4801 C 466.848 -1.99933 -0.321391 0
M  V30 4802 C 467.176 -1.17927 -1.54672 0
M  V30 4803 O 466.431 -0.240902 -1.94212 0
M  V30 4804 C 466.73 -3.49815 -0.732397 0
M  V30 4805 C 466.396 -4.4921 0.390056 0
M  V30 4806 C 465.058 -4.76107 0.698223 0
M  V30 4807 C 467.41 -5.08453 1.14562 0
M  V30 4808 C 464.738 -5.59514 1.76526 0
M  V30 4809 C 467.09 -5.9302 2.2025 0
M  V30 4810 C 465.754 -6.18232 2.51684 0
M  V30 4811 H 465.024 -0.731608 -0.117605 0
M  V30 4812 H 467.671 -1.87107 0.407839 0
M  V30 4813 H 465.976 -3.60199 -1.54155 0
M  V30 4814 H 467.673 -3.82083 -1.21712 0
M  V30 4815 H 464.263 -4.28372 0.13976 0
M  V30 4816 H 468.447 -4.87683 0.920801 0
M  V30 4817 H 463.703 -5.77289 2.01364 0
M  V30 4818 H 467.877 -6.37955 2.7926 0
M  V30 4819 H 465.504 -6.82653 3.34499 0
M  V30 4820 N 467.08 -0.0183926 -1.57589 0
M  V30 4821 C 468.326 0.657813 -1.92469 0
M  V30 4822 C 468.681 1.70349 -0.894375 0
M  V30 4823 O 467.974 1.91384 0.0910389 0
M  V30 4824 C 468.168 1.32676 -3.31861 0
M  V30 4825 C 467.997 0.347403 -4.48356 0
M  V30 4826 C 466.767 -0.0488653 -5.05276 0
M  V30 4827 C 468.965 -0.393931 -5.12789 0
M  V30 4828 N 466.947 -1.02451 -6.05291 0
M  V30 4829 C 468.318 -1.22367 -6.07804 0
M  V30 4830 C 470.373 -0.455789 -4.95809 0
M  V30 4831 C 469.076 -2.10966 -6.87667 0
M  V30 4832 C 471.102 -1.32908 -5.76272 0
M  V30 4833 C 470.464 -2.14662 -6.70894 0
M  V30 4834 H 466.563 0.21335 -0.752334 0
M  V30 4835 H 469.147 -0.0830547 -1.94523 0
M  V30 4836 H 467.318 2.03782 -3.30647 0
M  V30 4837 H 469.05 1.95913 -3.54119 0
M  V30 4838 H 465.805 0.323356 -4.72495 0
M  V30 4839 H 466.229 -1.50826 -6.59985 0
M  V30 4840 H 470.871 0.162017 -4.22489 0
M  V30 4841 H 468.589 -2.73807 -7.603 0
M  V30 4842 H 472.175 -1.38109 -5.6517 0
M  V30 4843 H 471.055 -2.81143 -7.32071 0
M  V30 4844 N 468.558 1.5553 0.254621 0
M  V30 4845 C 469.786 1.81046 1.00149 0
M  V30 4846 C 470.201 0.593047 1.79244 0
M  V30 4847 O 469.558 -0.438196 1.77161 0
M  V30 4848 C 469.609 3.04684 1.94551 0
M  V30 4849 O 469.33 4.21725 1.18658 0
M  V30 4850 C 470.831 3.42943 2.80901 0
M  V30 4851 H 468.051 0.602653 0.295044 0
M  V30 4852 H 470.595 2.02576 0.279842 0
M  V30 4853 H 468.75 2.85226 2.62154 0
M  V30 4854 H 469.164 4.91746 1.82445 0
M  V30 4855 H 470.638 4.32576 3.42902 0
M  V30 4856 H 471.115 2.63176 3.51617 0
M  V30 4857 H 471.721 3.64724 2.18762 0
M  V30 4858 N 470.036 -0.519951 1.48776 0
M  V30 4859 C 470.969 -1.64053 1.58625 0
M  V30 4860 C 471.947 -1.5664 0.43618 0
M  V30 4861 O 473.131 -1.76969 0.649159 0
M  V30 4862 C 470.258 -3.02497 1.52359 0
M  V30 4863 C 469.304 -3.28235 2.72331 0
M  V30 4864 S 470.137 -3.13414 4.34203 0
M  V30 4865 C 471.293 -4.54287 4.30551 0
M  V30 4866 H 471.526 -1.5545 2.53422 0
M  V30 4867 H 469.059 -0.703681 1.37433 0
M  V30 4868 H 471.017 -3.82336 1.4943 0
M  V30 4869 H 469.678 -3.08531 0.588824 0
M  V30 4870 H 468.871 -4.29256 2.64113 0
M  V30 4871 H 468.473 -2.56085 2.72574 0
M  V30 4872 H 470.765 -5.46006 4.01103 0
M  V30 4873 H 471.708 -4.67558 5.31785 0
M  V30 4874 H 472.116 -4.34079 3.60881 0
M  V30 4875 N 471.514 -1.37532 -0.769588 0
M  V30 4876 C 472.446 -1.29347 -1.89214 0
M  V30 4877 C 473.459 -0.208842 -1.61455 0
M  V30 4878 O 474.648 -0.465158 -1.72333 0
M  V30 4879 C 471.748 -0.977649 -3.24492 0
M  V30 4880 C 470.921 -2.16817 -3.7988 0
M  V30 4881 C 469.98 -1.82229 -4.93639 0
M  V30 4882 O 469.006 -2.54548 -5.09111 0
M  V30 4883 N 470.208 -0.767696 -5.75401 0
M  V30 4884 H 472.973 -2.26073 -1.96751 0
M  V30 4885 H 470.534 -1.31185 -0.948795 0
M  V30 4886 H 472.526 -0.727065 -3.98115 0
M  V30 4887 H 471.096 -0.0988777 -3.12444 0
M  V30 4888 H 470.316 -2.58038 -2.9801 0
M  V30 4889 H 471.604 -2.96308 -4.13617 0
M  V30 4890 H 471.002 -0.167626 -5.65452 0
M  V30 4891 H 469.559 -0.576973 -6.49241 0
M  V30 4892 N 472.992 0.995999 -1.22138 0
M  V30 4893 C 474.24 1.73167 -1.042 0
M  V30 4894 C 474.561 1.90329 0.42423 0
M  V30 4895 O 473.831 1.4607 1.30539 0
M  V30 4896 H 472.411 0.641593 -0.38258 0
M  V30 4897 H 475.073 1.19974 -1.53598 0
M  V30 4898 H 474.169 2.72734 -1.51731 0
M  V30 4899 N 474.47 1.03057 1.19235 0
M  V30 4900 C 475.695 0.74757 1.93458 0
M  V30 4901 C 476.12 -0.687648 1.7508 0
M  V30 4902 O 475.478 -1.47499 1.05422 0
M  V30 4903 C 475.526 1.10604 3.43219 0
M  V30 4904 O 474.63 0.225671 4.11782 0
M  V30 4905 H 473.971 0.276047 0.603899 0
M  V30 4906 H 476.501 1.3777 1.51263 0
M  V30 4907 H 476.511 1.06366 3.93891 0
M  V30 4908 H 475.186 2.15165 3.55917 0
M  V30 4909 H 473.763 0.326795 3.71465 0
M  V30 4910 N 475.948 -1.35272 0.808662 0
M  V30 4911 C 477.194 -1.99003 0.390581 0
M  V30 4912 C 477.527 -1.63999 -1.0401 0
M  V30 4913 O 476.802 -0.904368 -1.72196 0
M  V30 4914 C 477.085 -3.55454 0.576566 0
M  V30 4915 C 476.938 -4.00249 2.05233 0
M  V30 4916 C 478.257 -4.401 0.00354277 0
M  V30 4917 H 475.376 -0.722917 0.143388 0
M  V30 4918 H 478.018 -1.6039 1.01858 0
M  V30 4919 H 476.168 -3.88477 0.0419766 0
M  V30 4920 H 477.84 -3.77626 2.64946 0
M  V30 4921 H 476.083 -3.51082 2.54801 0
M  V30 4922 H 476.754 -5.0911 2.13333 0
M  V30 4923 H 479.23 -4.13548 0.460117 0
M  V30 4924 H 478.106 -5.48656 0.163575 0
M  V30 4925 H 478.367 -4.28444 -1.09032 0
M  V30 4926 N 477.426 -0.562348 -1.47226 0
M  V30 4927 C 478.842 -0.222492 -1.58042 0
M  V30 4928 C 479.042 1.27505 -1.56028 0
M  V30 4929 O 478.098 2.05555 -1.46641 0
M  V30 4930 C 479.411 -0.853694 -2.88327 0
M  V30 4931 C 480.959 -0.825397 -3.01921 0
M  V30 4932 C 481.434 -1.43576 -4.34914 0
M  V30 4933 N 482.925 -1.39918 -4.41562 0
M  V30 4934 C 483.66 -1.84103 -5.43041 0
M  V30 4935 N 483.156 -2.36167 -6.51304 0
M  V30 4936 N 484.949 -1.75142 -5.34118 0
M  V30 4937 H 477.1 -1.53525 -1.46778 0
M  V30 4938 H 479.363 -0.640527 -0.698877 0
M  V30 4939 H 479.069 -1.90635 -2.95552 0
M  V30 4940 H 478.943 -0.34977 -3.75575 0
M  V30 4941 H 481.33 0.218583 -2.94289 0
M  V30 4942 H 481.411 -1.36713 -2.16202 0
M  V30 4943 H 481.055 -2.47884 -4.43301 0
M  V30 4944 H 480.985 -0.869427 -5.19373 0
M  V30 4945 H 483.476 -1.0184 -3.63919 0
M  V30 4946 H 483.789 -2.67793 -7.24919 0
M  V30 4947 H 482.134 -2.40181 -6.52179 0
M  V30 4948 H 485.325 -1.34241 -4.48439 0
M  V30 4949 H 485.498 -2.09895 -6.13065 0
M  V30 4950 N 478.904 1.54736 -0.299062 0
M  V30 4951 C 480.15 2.00397 0.311244 0
M  V30 4952 C 480.483 1.18716 1.53688 0
M  V30 4953 O 479.758 0.263154 1.92712 0
M  V30 4954 C 480.041 3.53817 0.669761 0
M  V30 4955 C 479.894 4.46239 -0.564882 0
M  V30 4956 C 481.213 4.13856 1.49702 0
M  V30 4957 H 478.332 0.728493 0.111653 0
M  V30 4958 H 480.974 1.85506 -0.410774 0
M  V30 4959 H 479.124 3.66637 1.28491 0
M  V30 4960 H 480.796 4.45328 -1.20337 0
M  V30 4961 H 479.039 4.16916 -1.19849 0
M  V30 4962 H 479.71 5.5134 -0.269918 0
M  V30 4963 H 482.186 4.04461 0.977284 0
M  V30 4964 H 481.062 5.21365 1.71666 0
M  V30 4965 H 481.323 3.65608 2.48563 0
M  V30 4966 N 480.382 0.0267497 1.57577 0
M  V30 4967 C 481.345 -0.940916 2.08996 0
M  V30 4968 C 482.345 -1.25561 1.00455 0
M  V30 4969 O 483.535 -1.19634 1.26623 0
M  V30 4970 C 480.667 -2.25814 2.55384 0
M  V30 4971 H 481.86 -0.495628 2.95776 0
M  V30 4972 H 479.413 -0.221241 1.54726 0
M  V30 4973 H 480.148 -2.74976 1.71926 0
M  V30 4974 H 479.933 -2.04285 3.34679 0
M  V30 4975 H 481.423 -2.95178 2.95398 0
M  V30 4976 N 481.861 -1.55662 -0.24637 0
M  V30 4977 C 482.793 -1.86811 -1.32794 0
M  V30 4978 C 483.806 -0.754413 -1.44265 0
M  V30 4979 O 484.995 -1.03253 -1.45606 0
M  V30 4980 C 482.095 -2.0397 -2.70646 0
M  V30 4981 C 481.268 -3.34832 -2.81436 0
M  V30 4982 C 480.327 -3.41727 -4.00136 0
M  V30 4983 O 479.353 -4.14934 -3.89639 0
M  V30 4984 N 480.555 -2.71058 -5.1333 0
M  V30 4985 H 483.32 -2.80174 -1.06409 0
M  V30 4986 H 480.881 -1.55906 -0.43647 0
M  V30 4987 H 482.873 -2.05924 -3.48393 0
M  V30 4988 H 481.443 -1.1735 -2.89738 0
M  V30 4989 H 480.663 -3.4519 -1.90361 0
M  V30 4990 H 481.951 -4.21085 -2.85595 0
M  V30 4991 H 481.349 -2.11314 -5.2475 0
M  V30 4992 H 479.906 -2.78704 -5.89209 0
M  V30 4993 N 483.339 0.512053 -1.4905 0
M  V30 4994 C 484.272 1.63209 -1.59493 0
M  V30 4995 C 485.25 1.56407 -0.444481 0
M  V30 4996 O 486.434 1.76623 -0.658535 0
M  V30 4997 C 483.561 3.01685 -1.53961 0
M  V30 4998 C 482.607 3.26786 -2.74068 0
M  V30 4999 S 483.44 3.11107 -4.35859 0
M  V30 5000 C 484.596 4.51997 -4.32954 0
M  V30 5001 H 484.829 1.54104 -2.54243 0
M  V30 5002 H 482.362 0.696382 -1.37804 0
M  V30 5003 H 484.32 3.81538 -1.51455 0
M  V30 5004 H 482.981 3.08215 -0.605178 0
M  V30 5005 H 482.174 4.27849 -2.66386 0
M  V30 5006 H 481.776 2.54635 -2.73928 0
M  V30 5007 H 484.068 5.43871 -4.03993 0
M  V30 5008 H 485.011 4.64731 -5.34257 0
M  V30 5009 H 485.419 4.32159 -3.63178 0
M  V30 5010 N 484.817 1.37938 0.762283 0
M  V30 5011 C 486.057 1.35076 1.53407 0
M  V30 5012 C 486.421 -0.061546 1.91901 0
M  V30 5013 O 487.622 -0.214973 2.67939 0
M  V30 5014 C 485.893 2.27206 2.75884 0
M  V30 5015 S 487.452 2.42283 3.65848 0
M  V30 5016 H 484.27 0.479387 0.52508 0
M  V30 5017 H 486.872 1.7378 0.895586 0
M  V30 5018 H 485.576 3.28724 2.457 0
M  V30 5019 H 485.107 1.8962 3.44685 0
M  V30 5020 H 487.122 1.64044 4.68299 0
M  V30 5021 N 486.295 -0.989507 1.22664 0
M  V30 5022 C 487.245 -2.06478 0.967005 0
M  V30 5023 C 488.229 -1.60682 -0.0836374 0
M  V30 5024 O 489.421 -1.76541 0.127322 0
M  V30 5025 C 486.55 -3.38861 0.550313 0
M  V30 5026 C 485.636 -3.9128 1.63587 0
M  V30 5027 N 486.027 -4.16884 2.86429 0
M  V30 5028 C 484.325 -4.1972 1.50834 0
M  V30 5029 C 485.026 -4.5954 3.56648 0
M  V30 5030 N 484.002 -4.63434 2.84131 0
M  V30 5031 H 487.804 -2.24219 1.90008 0
M  V30 5032 H 485.318 -1.17153 1.12467 0
M  V30 5033 H 487.315 -4.15465 0.345612 0
M  V30 5034 H 485.975 -3.22518 -0.375822 0
M  V30 5035 H 486.986 -4.04976 3.22823 0
M  V30 5036 H 483.663 -4.1243 0.648643 0
M  V30 5037 H 485.053 -4.87944 4.61909 0
M  V30 5038 N 487.773 -1.03688 -1.18687 0
M  V30 5039 C 488.683 -0.634908 -2.25845 0
M  V30 5040 C 489.699 0.337065 -1.70704 0
M  V30 5041 O 490.875 0.192943 -2.00474 0
M  V30 5042 C 487.94 -0.000180054 -3.467 0
M  V30 5043 C 487.001 -1.02067 -4.1699 0
M  V30 5044 C 486.234 -0.41614 -5.32075 0
M  V30 5045 O 486.457 0.778712 -5.65059 0
M  V30 5046 O 485.391 -1.14296 -5.90948 0
M  V30 5047 H 489.217 -1.52757 -2.62486 0
M  V30 5048 H 486.802 -0.807533 -1.25695 0
M  V30 5049 H 488.684 0.353342 -4.19916 0
M  V30 5050 H 487.359 0.866367 -3.11891 0
M  V30 5051 H 486.266 -1.42592 -3.45859 0
M  V30 5052 H 487.599 -1.85786 -4.5579 0
M  V30 5053 N 489.251 1.34841 -0.815825 0
M  V30 5054 C 490.498 1.98499 -0.400535 0
M  V30 5055 C 490.826 1.64699 1.03463 0
M  V30 5056 O 490.081 0.907006 1.73412 0
M  V30 5057 C 490.38 3.53273 -0.541541 0
M  V30 5058 C 490.046 4.06966 -1.94138 0
M  V30 5059 C 488.708 4.21341 -2.32433 0
M  V30 5060 C 491.06 4.35933 -2.85677 0
M  V30 5061 C 488.388 4.62007 -3.61617 0
M  V30 5062 C 490.74 4.78042 -4.14317 0
M  V30 5063 C 489.404 4.90622 -4.52599 0
M  V30 5064 H 488.674 0.72636 -0.146566 0
M  V30 5065 H 491.321 1.60902 -1.0384 0
M  V30 5066 H 489.626 3.91387 0.179741 0
M  V30 5067 H 491.323 4.00497 -0.20085 0
M  V30 5068 H 487.913 3.96235 -1.63388 0
M  V30 5069 H 492.097 4.24372 -2.57337 0
M  V30 5070 H 487.353 4.69937 -3.91113 0
M  V30 5071 H 491.527 4.99415 -4.85342 0
M  V30 5072 H 489.154 5.2189 -5.52752 0
M  V30 5073 N 490.729 0.570148 1.46925 0
M  V30 5074 C 491.977 0.0508523 2.02036 0
M  V30 5075 C 492.298 -1.30885 1.44548 0
M  V30 5076 O 491.568 -1.85647 0.625453 0
M  V30 5077 H 490.148 0.0158088 0.746833 0
M  V30 5078 H 492.81 0.743086 1.80178 0
M  V30 5079 H 491.906 -0.027575 3.12088 0
M  V30 5080 N 492.207 -1.54576 0.307264 0
M  V30 5081 C 493.137 -2.26708 -0.55907 0
M  V30 5082 C 494.118 -1.26893 -1.1328 0
M  V30 5083 O 495.303 -1.55677 -1.16097 0
M  V30 5084 C 492.433 -3.01259 -1.72801 0
M  V30 5085 C 491.387 -4.08275 -1.28435 0
M  V30 5086 C 490.713 -4.70575 -2.53895 0
M  V30 5087 C 492.013 -5.2068 -0.411038 0
M  V30 5088 H 493.707 -2.9937 0.042576 0
M  V30 5089 H 491.253 -1.43983 0.0219173 0
M  V30 5090 H 493.206 -3.50444 -2.34023 0
M  V30 5091 H 491.93 -2.26187 -2.356 0
M  V30 5092 H 490.589 -3.59949 -0.695161 0
M  V30 5093 H 490.237 -3.92136 -3.15021 0
M  V30 5094 H 489.937 -5.42854 -2.24908 0
M  V30 5095 H 491.461 -5.22527 -3.15908 0
M  V30 5096 H 492.875 -5.65721 -0.929097 0
M  V30 5097 H 491.272 -5.99716 -0.214664 0
M  V30 5098 H 492.342 -4.81629 0.562287 0
M  V30 5099 N 493.685 -0.035106 -1.57561 0
M  V30 5100 C 494.913 0.652258 -1.9635 0
M  V30 5101 C 495.328 1.65317 -0.911897 0
M  V30 5102 O 494.685 1.82194 0.105657 0
M  V30 5103 C 494.736 1.35337 -3.35211 0
M  V30 5104 O 494.457 0.392548 -4.36338 0
M  V30 5105 C 495.958 2.13199 -3.88666 0
M  V30 5106 H 493.178 0.179444 -0.646561 0
M  V30 5107 H 495.722 -0.0966459 -2.04271 0
M  V30 5108 H 493.877 2.05362 -3.28489 0
M  V30 5109 H 494.291 0.891097 -5.16875 0
M  V30 5110 H 495.765 2.577 -4.88154 0
M  V30 5111 H 496.242 2.97353 -3.23231 0
M  V30 5112 H 496.848 1.48118 -3.98674 0
M  V30 5113 N 495.163 1.55791 0.238111 0
M  V30 5114 C 496.409 1.79211 0.962035 0
M  V30 5115 C 496.764 0.605463 1.82625 0
M  V30 5116 O 496.057 -0.40104 1.87356 0
M  V30 5117 C 496.251 3.05869 1.84875 0
M  V30 5118 C 496.08 4.36739 1.07186 0
M  V30 5119 C 494.85 4.99346 0.773424 0
M  V30 5120 C 497.048 5.1237 0.445168 0
M  V30 5121 N 495.03 6.13894 -0.0266037 0
M  V30 5122 C 496.401 6.19613 -0.219023 0
M  V30 5123 C 498.456 4.96622 0.356522 0
M  V30 5124 C 497.159 7.1282 -0.963358 0
M  V30 5125 C 499.185 5.90214 -0.374304 0
M  V30 5126 C 498.547 6.96872 -1.0271 0
M  V30 5127 H 494.646 0.707627 0.332849 0
M  V30 5128 H 497.23 1.93284 0.234368 0
M  V30 5129 H 495.401 2.93108 2.54837 0
M  V30 5130 H 497.133 3.17547 2.5089 0
M  V30 5131 H 493.888 4.60948 1.08738 0
M  V30 5132 H 494.312 6.75727 -0.414968 0
M  V30 5133 H 498.954 4.14232 0.846878 0
M  V30 5134 H 496.672 7.94704 -1.46529 0
M  V30 5135 H 500.258 5.80106 -0.443678 0
M  V30 5136 H 499.138 7.68045 -1.58358 0
M  V30 5137 N 496.642 -0.504142 1.49319 0
M  V30 5138 C 497.89 -1.25598 1.58334 0
M  V30 5139 C 498.211 -1.93114 0.270538 0
M  V30 5140 O 497.481 -1.82585 -0.709891 0
M  V30 5141 H 496.061 -0.466571 0.58337 0
M  V30 5142 H 498.723 -0.584547 1.85928 0
M  V30 5143 H 497.819 -2.02159 2.37778 0
M  V30 5144 N 498.12 -1.38341 -0.754957 0
M  V30 5145 C 499.345 -1.37882 -1.5493 0
M  V30 5146 C 499.77 0.0296385 -1.88077 0
M  V30 5147 O 499.128 1.01133 -1.50472 0
M  V30 5148 C 499.176 -2.23996 -2.82592 0
M  V30 5149 O 498.28 -1.65612 -3.77686 0
M  V30 5150 H 497.621 -0.470384 -0.468652 0
M  V30 5151 H 500.151 -1.82084 -0.933082 0
M  V30 5152 H 500.161 -2.37806 -3.3153 0
M  V30 5153 H 498.836 -3.26365 -2.57796 0
M  V30 5154 H 497.413 -1.60936 -3.36384 0
M  V30 5155 N 499.598 0.982988 -1.23187 0
M  V30 5156 C 500.548 2.05962 -0.977942 0
M  V30 5157 C 501.532 1.60725 0.0751148 0
M  V30 5158 O 502.724 1.76471 -0.136683 0
M  V30 5159 C 499.853 3.38564 -0.568276 0
M  V30 5160 C 498.939 3.90407 -1.6566 0
M  V30 5161 N 499.33 4.15359 -2.88635 0
M  V30 5162 C 497.628 4.18915 -1.53058 0
M  V30 5163 C 498.329 4.57642 -3.5908 0
M  V30 5164 N 497.305 4.6192 -2.86584 0
M  V30 5165 H 501.107 2.23208 -1.91195 0
M  V30 5166 H 498.621 1.16555 -1.13087 0
M  V30 5167 H 500.618 4.15276 -0.36764 0
M  V30 5168 H 499.278 3.22712 0.358713 0
M  V30 5169 H 500.289 4.03258 -3.24966 0
M  V30 5170 H 496.966 4.12081 -0.670506 0
M  V30 5171 H 498.356 4.85488 -4.6449 0
M  V30 5172 N 501.076 1.04316 1.18135 0
M  V30 5173 C 502.301 0.768047 1.92655 0
M  V30 5174 C 502.726 -0.66904 1.758 0
M  V30 5175 O 502.084 -1.46372 1.06981 0
M  V30 5176 C 502.132 1.14239 3.42026 0
M  V30 5177 O 501.236 0.269333 4.1152 0
M  V30 5178 H 500.577 0.282436 0.600937 0
M  V30 5179 H 503.107 1.39367 1.49793 0
M  V30 5180 H 503.117 1.10538 3.92741 0
M  V30 5181 H 501.792 2.18928 3.53615 0
M  V30 5182 H 500.369 0.366175 3.71098 0
M  V30 5183 N 502.554 -1.34406 0.822964 0
M  V30 5184 C 503.502 -2.31428 0.233165 0
M  V30 5185 C 504.496 -1.57404 -0.626118 0
M  V30 5186 O 505.702 -1.72402 -0.517453 0
M  V30 5187 H 502.077 -0.749863 0.0566557 0
M  V30 5188 H 504.048 -2.78699 1.06628 0
M  V30 5189 C 502.797 -3.42653 -0.590264 0
M  V30 5190 H 502.12 -3.99753 0.0616129 0
M  V30 5191 H 503.56 -4.12778 -0.969054 0
M  V30 5192 C 502.019 -2.87112 -1.76262 0
M  V30 5193 O 502.549 -2.81995 -2.8608 0
M  V30 5194 N 500.755 -2.43934 -1.57938 0
M  V30 5195 H 500.302 -2.48296 -0.686078 0
M  V30 5196 H 500.26 -2.07123 -2.36532 0
M  V30 5197 N 504.032 -0.577932 -1.46621 0
M  V30 5198 C 504.98 0.170882 -2.31971 0
M  V30 5199 C 505.974 0.889086 -1.44193 0
M  V30 5200 O 507.18 0.808017 -1.60845 0
M  V30 5201 H 503.555 0.0739763 -0.748353 0
M  V30 5202 H 505.526 -0.567856 -2.92947 0
M  V30 5203 C 504.275 1.17438 -3.27267 0
M  V30 5204 H 503.598 0.63116 -3.94787 0
M  V30 5205 H 505.038 1.66882 -3.89778 0
M  V30 5206 C 503.497 2.23292 -2.52274 0
M  V30 5207 O 504.027 3.30567 -2.28229 0
M  V30 5208 N 502.233 1.97772 -2.12919 0
M  V30 5209 H 501.78 1.10545 -2.32675 0
M  V30 5210 H 501.738 2.68809 -1.63062 0
M  V30 5211 N 505.51 1.54411 -0.315457 0
M  V30 5212 C 506.46 2.20772 0.569549 0
M  V30 5213 C 507.444 1.18551 1.08787 0
M  V30 5214 O 508.636 1.44213 1.02624 0
M  V30 5215 C 505.765 2.96293 1.73394 0
M  V30 5216 C 504.851 4.05844 1.2309 0
M  V30 5217 N 505.242 5.03822 0.446927 0
M  V30 5218 C 503.54 4.19648 1.51035 0
M  V30 5219 C 504.241 5.8143 0.17725 0
M  V30 5220 N 503.217 5.38245 0.761118 0
M  V30 5221 H 507.019 2.93877 -0.0368076 0
M  V30 5222 H 504.533 1.61949 -0.120915 0
M  V30 5223 H 506.53 3.42313 2.37965 0
M  V30 5224 H 505.19 2.24708 2.34386 0
M  V30 5225 H 506.201 5.17821 0.0905027 0
M  V30 5226 H 502.878 3.59274 2.1267 0
M  V30 5227 H 504.268 6.70369 -0.45335 0
M  V30 5228 N 506.988 0.0434614 1.5754 0
M  V30 5229 C 508.235 -0.632035 1.92384 0
M  V30 5230 C 508.563 -1.71304 0.921157 0
M  V30 5231 O 507.818 -1.95583 -0.067744 0
M  V30 5232 C 508.117 -1.2738 3.3393 0
M  V30 5233 C 507.783 -0.321757 4.49751 0
M  V30 5234 C 506.445 -0.0597611 4.81163 0
M  V30 5235 C 508.797 0.331158 5.20147 0
M  V30 5236 C 506.125 0.862715 5.80322 0
M  V30 5237 C 508.477 1.24178 6.20292 0
M  V30 5238 C 507.141 1.51252 6.50138 0
M  V30 5239 H 506.411 -0.231278 0.703983 0
M  V30 5240 H 509.058 0.108294 1.91194 0
M  V30 5241 H 507.363 -2.08921 3.3145 0
M  V30 5242 H 509.06 -1.80326 3.58167 0
M  V30 5243 H 505.65 -0.53614 4.25233 0
M  V30 5244 H 509.834 0.141826 4.96097 0
M  V30 5245 H 505.09 1.08003 6.01785 0
M  V30 5246 H 509.264 1.75381 6.73954 0
M  V30 5247 H 506.891 2.22897 7.26788 0
M  V30 5248 N 508.466 -1.55915 -0.229846 0
M  V30 5249 C 509.743 -1.6932 -0.979295 0
M  V30 5250 C 510.123 -0.588321 -2.02736 0
M  V30 5251 O 509.471 0.40586 -2.24867 0
M  V30 5252 C 509.681 -3.10305 -1.59724 0
M  V30 5253 C 511.029 -3.6945 -2.09264 0
M  V30 5254 O 512.053 -3.13214 -1.69633 0
M  V30 5255 O 510.912 -4.68072 -2.82082 0
M  V30 5256 H 508.006 -0.689314 -0.456919 0
M  V30 5257 H 510.552 -1.68238 -0.222283 0
M  V30 5258 H 509.324 -3.82177 -0.840039 0
M  V30 5259 H 508.947 -3.1547 -2.42001 0
M  V30 5260 N 509.944 0.496216 -1.49584 0
M  V30 5261 C 511.193 1.24668 -1.58558 0
M  V30 5262 C 511.506 1.9359 -0.279703 0
M  V30 5263 O 512.712 2.70365 -0.248048 0
M  V30 5264 C 511.168 2.26388 -2.79779 0
M  V30 5265 C 510.776 1.63384 -4.17145 0
M  V30 5266 C 512.52 3.02233 -2.98086 0
M  V30 5267 C 510.427 2.63243 -5.29582 0
M  V30 5268 H 509.357 0.468995 -0.590389 0
M  V30 5269 H 512.008 0.519985 -1.75978 0
M  V30 5270 H 510.39 3.02241 -2.55863 0
M  V30 5271 H 511.564 0.93491 -4.51216 0
M  V30 5272 H 509.879 0.999121 -4.04236 0
M  V30 5273 H 512.476 3.76919 -3.79257 0
M  V30 5274 H 512.819 3.60132 -2.08831 0
M  V30 5275 H 513.352 2.33495 -3.22063 0
M  V30 5276 H 510.091 2.10119 -6.20911 0
M  V30 5277 H 509.611 3.31363 -4.99959 0
M  V30 5278 H 511.29 3.25575 -5.59115 0
M  V30 5279 N 511.423 1.38739 0.74761 0
M  V30 5280 C 512.648 1.38702 1.54197 0
M  V30 5281 C 513.073 -0.019664 1.8809 0
M  V30 5282 O 512.431 -1.00333 1.51006 0
M  V30 5283 C 512.479 2.25492 2.814 0
M  V30 5284 O 511.583 1.67613 3.76802 0
M  V30 5285 H 510.924 0.472863 0.466151 0
M  V30 5286 H 513.454 1.82577 0.923413 0
M  V30 5287 H 513.464 2.39561 3.30264 0
M  V30 5288 H 512.139 3.27727 2.56062 0
M  V30 5289 H 510.716 1.62718 3.35526 0
M  V30 5290 N 512.901 -0.976442 1.23707 0
M  V30 5291 C 513.831 -2.08749 1.04624 0
M  V30 5292 C 514.812 -1.70057 -0.0380956 0
M  V30 5293 O 515.997 -1.93782 0.127308 0
M  V30 5294 C 513.127 -3.41335 0.640902 0
M  V30 5295 C 512.081 -3.93947 1.67302 0
M  V30 5296 C 511.407 -5.22774 1.12301 0
M  V30 5297 C 512.707 -4.22769 3.06697 0
M  V30 5298 H 514.401 -2.24972 1.97555 0
M  V30 5299 H 511.947 -1.08108 0.951247 0
M  V30 5300 H 513.9 -4.18489 0.494434 0
M  V30 5301 H 512.624 -3.24988 -0.324099 0
M  V30 5302 H 511.283 -3.18941 1.80755 0
M  V30 5303 H 510.931 -5.0278 0.148877 0
M  V30 5304 H 510.631 -5.58942 1.81267 0
M  V30 5305 H 512.155 -6.02546 0.988479 0
M  V30 5306 H 513.569 -4.90659 2.96524 0
M  V30 5307 H 511.966 -4.70147 3.72937 0
M  V30 5308 H 513.036 -3.29885 3.55392 0
M  V30 5309 N 514.379 -1.04941 -1.1758 0
M  V30 5310 C 515.342 -0.652456 -2.19717 0
M  V30 5311 C 516.342 0.294745 -1.58076 0
M  V30 5312 O 517.532 0.0789579 -1.74021 0
M  V30 5313 C 514.664 0.0420712 -3.40874 0
M  V30 5314 H 515.857 -1.55642 -2.5635 0
M  V30 5315 H 513.41 -0.842995 -1.31618 0
M  V30 5316 H 514.145 0.95943 -3.09783 0
M  V30 5317 H 513.93 -0.638844 -3.86861 0
M  V30 5318 H 515.42 0.306 -4.16477 0
M  V30 5319 N 515.857 1.33968 -0.830081 0
M  V30 5320 C 516.79 2.27303 -0.202182 0
M  V30 5321 C 517.768 1.49235 0.645581 0
M  V30 5322 O 518.952 1.78433 0.607762 0
M  V30 5323 C 516.079 3.31025 0.716932 0
M  V30 5324 C 515.125 4.26466 -0.0542271 0
M  V30 5325 S 515.958 5.16707 -1.40622 0
M  V30 5326 C 517.114 6.23962 -0.492167 0
M  V30 5327 H 517.347 2.8021 -0.99346 0
M  V30 5328 H 514.88 1.41124 -0.626359 0
M  V30 5329 H 516.838 3.91271 1.24165 0
M  V30 5330 H 515.499 2.76951 1.4818 0
M  V30 5331 H 514.692 4.99858 0.644785 0
M  V30 5332 H 514.294 3.7051 -0.509722 0
M  V30 5333 H 516.586 6.76774 0.31347 0
M  V30 5334 H 517.529 6.97927 -1.19599 0
M  V30 5335 H 517.937 5.64447 -0.0774176 0
M  V30 5336 N 517.335 0.585699 1.46312 0
M  V30 5337 C 518.582 0.0724211 2.0237 0
M  V30 5338 C 518.91 -1.28868 1.45683 0
M  V30 5339 O 518.165 -1.85853 0.612945 0
M  V30 5340 C 518.464 -0.0401312 3.57377 0
M  V30 5341 C 518.13 1.25376 4.33119 0
M  V30 5342 C 516.792 1.60824 4.5353 0
M  V30 5343 C 519.144 2.10987 4.76586 0
M  V30 5344 C 516.472 2.81676 5.14661 0
M  V30 5345 C 518.824 3.31068 5.39052 0
M  V30 5346 C 517.488 3.66794 5.5769 0
M  V30 5347 H 516.758 0.0265007 0.740526 0
M  V30 5348 H 519.405 0.762935 1.75646 0
M  V30 5349 H 517.71 -0.813791 3.83255 0
M  V30 5350 H 519.407 -0.453078 3.98432 0
M  V30 5351 H 515.997 0.967808 4.1753 0
M  V30 5352 H 520.181 1.84904 4.60569 0
M  V30 5353 H 515.437 3.0949 5.27282 0
M  V30 5354 H 519.611 3.97672 5.71691 0
M  V30 5355 H 517.238 4.60529 6.04828 0
M  V30 5356 N 518.813 -1.54241 0.323641 0
M  V30 5357 C 520.041 -2.04985 -0.280871 0
M  V30 5358 C 520.456 -1.19978 -1.45777 0
M  V30 5359 O 519.813 -0.230471 -1.81039 0
M  V30 5360 C 519.864 -3.54353 -0.715258 0
M  V30 5361 O 519.585 -4.36132 0.414817 0
M  V30 5362 C 521.086 -4.21189 -1.38257 0
M  V30 5363 H 518.306 -0.66851 -0.0577502 0
M  V30 5364 H 520.85 -1.99029 0.469852 0
M  V30 5365 H 519.005 -3.60596 -1.41596 0
M  V30 5366 H 519.419 -5.2445 0.0725227 0
M  V30 5367 H 520.893 -5.27154 -1.63745 0
M  V30 5368 H 521.37 -3.72307 -2.32989 0
M  V30 5369 H 521.976 -4.19085 -0.724447 0
M  V30 5370 N 520.291 -0.0518155 -1.57515 0
M  V30 5371 C 521.241 0.932017 -2.0808 0
M  V30 5372 C 522.225 1.27141 -0.986098 0
M  V30 5373 O 523.417 1.25373 -1.24943 0
M  V30 5374 C 520.546 2.20665 -2.62986 0
M  V30 5375 C 519.632 1.89462 -3.79427 0
M  V30 5376 N 520.023 1.28621 -4.89173 0
M  V30 5377 C 518.321 2.19327 -3.88345 0
M  V30 5378 C 519.022 1.15062 -5.70207 0
M  V30 5379 N 517.998 1.65372 -5.17835 0
M  V30 5380 H 521.8 0.456964 -2.90326 0
M  V30 5381 H 519.314 0.152619 -1.61681 0
M  V30 5382 H 521.311 2.92044 -2.97516 0
M  V30 5383 H 519.971 2.68776 -1.8218 0
M  V30 5384 H 520.982 0.958341 -5.08956 0
M  V30 5385 H 517.659 2.69955 -3.18482 0
M  V30 5386 H 519.049 0.678243 -6.68468 0
M  V30 5387 N 521.769 1.56035 0.221574 0
M  V30 5388 C 523.015 1.79312 0.947372 0
M  V30 5389 C 523.348 0.621453 1.83988 0
M  V30 5390 O 522.623 -0.379287 1.90766 0
M  V30 5391 C 522.906 3.1267 1.78633 0
M  V30 5392 C 522.759 4.40284 0.920312 0
M  V30 5393 C 524.078 3.4247 2.7641 0
M  V30 5394 H 521.197 0.652328 0.342982 0
M  V30 5395 H 523.839 1.88765 0.216244 0
M  V30 5396 H 521.989 3.04741 2.40967 0
M  V30 5397 H 523.661 4.60232 0.313718 0
M  V30 5398 H 521.904 4.33212 0.225734 0
M  V30 5399 H 522.575 5.30033 1.54171 0
M  V30 5400 H 525.051 3.50526 2.24211 0
M  V30 5401 H 523.927 4.3695 3.32213 0
M  V30 5402 H 524.188 2.64635 3.54148 0
M  V30 5403 N 523.247 -0.488276 1.49845 0
M  V30 5404 C 524.21 -1.57069 1.66919 0
M  V30 5405 C 525.21 -1.51445 0.540479 0
M  V30 5406 O 526.4 -1.5437 0.807188 0
M  V30 5407 C 523.532 -2.96718 1.67844 0
M  V30 5408 H 524.725 -1.43254 2.63474 0
M  V30 5409 H 522.278 -0.713435 1.39068 0
M  V30 5410 H 523.013 -3.15996 0.7292 0
M  V30 5411 H 522.798 -3.02208 2.49826 0
M  V30 5412 H 524.288 -3.75335 1.83066 0
M  V30 5413 N 524.725 -1.39134 -0.740242 0
M  V30 5414 C 525.688 -1.37217 -1.83587 0
M  V30 5415 C 526.688 -0.270221 -1.58513 0
M  V30 5416 O 527.878 -0.527843 -1.6601 0
M  V30 5417 C 525.01 -1.13959 -3.21288 0
M  V30 5418 H 526.203 -2.34705 -1.86691 0
M  V30 5419 H 523.756 -1.24622 -0.94335 0
M  V30 5420 H 524.491 -0.17131 -3.23847 0
M  V30 5421 H 524.276 -1.93754 -3.40884 0
M  V30 5422 H 525.766 -1.15346 -4.01354 0
M  V30 5423 N 526.204 0.969867 -1.24223 0
M  V30 5424 C 527.167 2.04564 -1.03373 0
M  V30 5425 C 528.167 1.60798 0.00819206 0
M  V30 5426 O 529.357 1.72641 -0.232567 0
M  V30 5427 C 526.489 3.36163 -0.566343 0
M  V30 5428 H 527.682 2.24494 -1.98853 0
M  V30 5429 H 525.235 1.1448 -1.06415 0
M  V30 5430 H 525.97 3.21925 0.391751 0
M  V30 5431 H 525.755 3.69273 -1.31834 0
M  V30 5432 H 527.245 4.1526 -0.441435 0
M  V30 5433 N 527.682 1.05563 1.17022 0
M  V30 5434 C 528.645 0.664098 2.19368 0
M  V30 5435 C 529.645 -0.286358 1.5823 0
M  V30 5436 O 530.835 -0.069728 1.7406 0
M  V30 5437 C 527.967 -0.0239932 3.40892 0
M  V30 5438 H 529.16 1.57 2.55521 0
M  V30 5439 H 526.713 0.849964 1.31169 0
M  V30 5440 H 527.448 -0.942988 3.10287 0
M  V30 5441 H 527.233 0.659351 3.86516 0
M  V30 5442 H 528.723 -0.283909 4.16634 0
M  V30 5443 N 529.16 -1.33526 0.837174 0
M  V30 5444 C 530.571 -1.80182 0.489017 0
M  V30 5445 C 530.922 -1.69285 -0.991826 0
M  V30 5446 O 530.047 -1.24113 -1.77271 0
M  V30 5447 C 530.642 -3.27149 0.880866 0
M  V30 5448 C 529.201 -3.71828 0.584872 0
M  V30 5449 C 528.348 -2.54974 1.09011 0
M  V30 5450 H 531.299 -1.21071 1.02603 0
M  V30 5451 H 531.32 -3.80024 0.190239 0
M  V30 5452 H 530.832 -3.35048 1.95869 0
M  V30 5453 H 528.933 -3.69457 -0.48295 0
M  V30 5454 H 529.046 -4.65366 1.13892 0
M  V30 5455 H 527.41 -2.4952 0.511047 0
M  V30 5456 H 528.193 -2.65637 2.17467 0
M  V30 5457 N 530.638 -0.59345 -1.46 0
M  V30 5458 C 531.886 -0.082988 -2.0193 0
M  V30 5459 C 532.207 1.28569 -1.46612 0
M  V30 5460 O 531.477 1.84629 -0.654909 0
M  V30 5461 H 530.057 -0.0276882 -0.746487 0
M  V30 5462 H 532.719 -0.771657 -1.78973 0
M  V30 5463 H 531.815 -0.022079 -3.12092 0
M  V30 5464 N 532.116 1.54067 -0.331816 0
M  V30 5465 C 533.063 2.24623 0.530372 0
M  V30 5466 C 534.033 1.24009 1.10503 0
M  V30 5467 O 535.218 1.52712 1.14384 0
M  V30 5468 C 532.358 3.01374 1.68129 0
M  V30 5469 C 531.471 4.16821 1.13507 0
M  V30 5470 C 530.606 4.81085 2.25234 0
M  V30 5471 C 529.645 5.88621 1.67903 0
M  V30 5472 N 528.782 6.46713 2.73326 0
M  V30 5473 H 533.622 2.97898 -0.0778607 0
M  V30 5474 H 531.159 1.47014 -0.0501965 0
M  V30 5475 H 533.117 3.44125 2.35868 0
M  V30 5476 H 531.747 2.30419 2.26069 0
M  V30 5477 H 530.799 3.78796 0.348979 0
M  V30 5478 H 532.111 4.94203 0.675633 0
M  V30 5479 H 531.265 5.26846 3.00862 0
M  V30 5480 H 530.004 4.03102 2.74518 0
M  V30 5481 H 529.009 5.42254 0.907773 0
M  V30 5482 H 530.234 6.68506 1.19487 0
M  V30 5483 H 528.18 5.71599 3.21886 0
M  V30 5484 H 528.097 7.19532 2.3197 0
M  V30 5485 H 529.365 6.97129 3.48758 0
M  V30 5486 N 533.594 0.0601682 1.57485 0
M  V30 5487 C 534.843 -0.611101 1.9222 0
M  V30 5488 C 535.156 -1.71469 0.941159 0
M  V30 5489 O 536.362 -2.44473 1.18089 0
M  V30 5490 C 534.818 -1.13832 3.41424 0
M  V30 5491 C 534.426 -0.0663596 4.47951 0
M  V30 5492 C 536.17 -1.78432 3.85178 0
M  V30 5493 C 534.077 -0.606965 5.88277 0
M  V30 5494 H 533.007 -0.232033 0.71741 0
M  V30 5495 H 535.658 0.130518 1.83035 0
M  V30 5496 H 534.04 -1.93254 3.45643 0
M  V30 5497 H 535.214 0.707682 4.55333 0
M  V30 5498 H 533.529 0.482715 4.13593 0
M  V30 5499 H 536.126 -2.1989 4.87394 0
M  V30 5500 H 536.469 -2.63966 3.21913 0
M  V30 5501 H 537.002 -1.05651 3.83514 0
M  V30 5502 H 533.741 0.21095 6.5516 0
M  V30 5503 H 533.261 -1.34879 5.84438 0
M  V30 5504 H 534.94 -1.08704 6.37803 0
M  V30 5505 N 535.072 -1.5615 -0.213296 0
M  V30 5506 C 536.3 -1.83638 -0.953139 0
M  V30 5507 C 536.715 -0.640362 -1.77609 0
M  V30 5508 O 536.072 0.391071 -1.78261 0
M  V30 5509 C 536.123 -3.09735 -1.86405 0
M  V30 5510 O 535.844 -4.24723 -1.07435 0
M  V30 5511 C 537.345 -3.5027 -2.71709 0
M  V30 5512 H 534.565 -0.610263 -0.278962 0
M  V30 5513 H 537.109 -2.03247 -0.226035 0
M  V30 5514 H 535.264 -2.92077 -2.545 0
M  V30 5515 H 535.678 -4.9641 -1.69343 0
M  V30 5516 H 537.152 -4.41515 -3.31313 0
M  V30 5517 H 537.629 -2.72406 -3.44516 0
M  V30 5518 H 538.235 -3.70396 -2.09015 0
M  V30 5519 N 536.55 0.480323 -1.50102 0
M  V30 5520 C 537.513 1.56181 -1.6775 0
M  V30 5521 C 538.513 1.51156 -0.548503 0
M  V30 5522 O 539.703 1.5394 -0.815363 0
M  V30 5523 C 536.835 2.95823 -1.69415 0
M  V30 5524 H 538.028 1.41855 -2.6423 0
M  V30 5525 H 535.581 0.70605 -1.39444 0
M  V30 5526 H 536.316 3.15604 -0.745948 0
M  V30 5527 H 536.101 3.00878 -2.51425 0
M  V30 5528 H 537.591 3.74359 -1.85054 0
M  V30 5529 N 538.028 1.39524 0.732853 0
M  V30 5530 C 539.277 1.36175 1.48792 0
M  V30 5531 C 539.59 -0.0388195 1.95561 0
M  V30 5532 O 540.796 -0.194899 2.708 0
M  V30 5533 C 539.252 2.39242 2.68871 0
M  V30 5534 C 538.86 3.85024 2.29042 0
M  V30 5535 C 540.604 2.44972 3.46683 0
M  V30 5536 C 538.511 4.79727 3.45856 0
M  V30 5537 H 537.441 0.506267 0.558757 0
M  V30 5538 H 540.092 1.65181 0.799226 0
M  V30 5539 H 538.474 2.0331 3.39825 0
M  V30 5540 H 539.648 4.30008 1.6562 0
M  V30 5541 H 537.963 3.82609 1.64316 0
M  V30 5542 H 540.56 3.12918 4.33574 0
M  V30 5543 H 540.903 1.4749 3.89297 0
M  V30 5544 H 541.436 2.79808 2.82759 0
M  V30 5545 H 538.175 5.78479 3.08289 0
M  V30 5546 H 537.695 4.39421 4.08251 0
M  V30 5547 H 539.374 4.98731 4.12161 0
M  V30 5548 N 539.506 -0.963266 1.24736 0
M  V30 5549 C 540.783 -1.68248 0.9976 0
M  V30 5550 C 541.163 -2.05599 -0.478776 0
M  V30 5551 O 540.511 -1.7626 -1.45412 0
M  V30 5552 C 540.721 -2.91118 1.92487 0
M  V30 5553 C 542.069 -3.63261 2.19833 0
M  V30 5554 O 543.093 -3.01184 1.90176 0
M  V30 5555 O 541.952 -4.75019 2.7022 0
M  V30 5556 H 539.046 -0.735744 0.377637 0
M  V30 5557 H 541.592 -1.01696 1.35853 0
M  V30 5558 H 540.364 -2.60242 2.92215 0
M  V30 5559 H 539.987 -3.65402 1.56738 0
M  V30 5560 N 540.985 -1.06182 -1.16461 0
M  V30 5561 C 542.213 -0.798583 -1.90867 0
M  V30 5562 C 542.628 0.646921 -1.77371 0
M  V30 5563 O 541.985 1.44279 -1.11758 0
M  V30 5564 C 542.036 -1.18258 -3.4161 0
M  V30 5565 O 541.757 -2.57135 -3.54701 0
M  V30 5566 C 543.258 -0.946917 -4.33069 0
M  V30 5567 H 540.478 -0.289603 -0.605286 0
M  V30 5568 H 543.022 -1.41515 -1.47627 0
M  V30 5569 H 541.177 -0.610562 -3.82558 0
M  V30 5570 H 541.591 -2.72477 -4.4817 0
M  V30 5571 H 543.065 -1.26523 -5.37304 0
M  V30 5572 H 543.542 0.117406 -4.39043 0
M  V30 5573 H 544.148 -1.50326 -3.97847 0
M  V30 5574 N 542.463 1.3308 -0.844243 0
M  V30 5575 C 543.413 2.26589 -0.253289 0
M  V30 5576 C 544.397 1.49501 0.594836 0
M  V30 5577 O 545.589 1.71291 0.445924 0
M  V30 5578 C 542.718 3.38599 0.566176 0
M  V30 5579 C 541.804 4.23081 -0.293756 0
M  V30 5580 N 542.195 4.86751 -1.37505 0
M  V30 5581 C 540.493 4.45925 -0.0817086 0
M  V30 5582 C 541.194 5.49684 -1.90323 0
M  V30 5583 N 540.17 5.30101 -1.20391 0
M  V30 5584 H 543.972 2.73334 -1.08009 0
M  V30 5585 H 541.486 1.47048 -0.689258 0
M  V30 5586 H 543.483 4.04584 1.00587 0
M  V30 5587 H 542.143 2.93401 1.39089 0
M  V30 5588 H 543.154 4.87151 -1.75796 0
M  V30 5589 H 539.831 4.11434 0.709129 0
M  V30 5590 H 541.221 6.10363 -2.80902 0
M  V30 5591 N 543.941 0.601185 1.45683 0
M  V30 5592 C 545.187 0.102425 2.03142 0
M  V30 5593 C 545.542 -1.25066 1.46207 0
M  V30 5594 O 544.835 -1.81126 0.624806 0
M  V30 5595 C 545.029 -0.00222425 3.574 0
M  V30 5596 C 544.858 1.33917 4.29298 0
M  V30 5597 C 543.628 1.91818 4.67476 0
M  V30 5598 C 545.826 2.26652 4.61664 0
M  V30 5599 N 543.808 3.19504 5.24204 0
M  V30 5600 C 545.179 3.38933 5.19157 0
M  V30 5601 C 547.234 2.26103 4.43601 0
M  V30 5602 C 545.937 4.50823 5.60492 0
M  V30 5603 C 547.963 3.37036 4.85964 0
M  V30 5604 C 547.325 4.48039 5.43545 0
M  V30 5605 H 543.424 0.0806974 0.777825 0
M  V30 5606 H 546.008 0.798134 1.77589 0
M  V30 5607 H 544.179 -0.66714 3.82627 0
M  V30 5608 H 545.911 -0.507058 4.01511 0
M  V30 5609 H 542.666 1.45097 4.50826 0
M  V30 5610 H 543.09 3.84705 5.57073 0
M  V30 5611 H 547.732 1.41547 3.98402 0
M  V30 5612 H 545.45 5.36108 6.0466 0
M  V30 5613 H 549.036 3.37752 4.73725 0
M  V30 5614 H 547.916 5.32459 5.75723 0
M  V30 5615 N 545.419 -1.53889 0.339982 0
M  V30 5616 C 546.668 -2.00035 -0.258604 0
M  V30 5617 C 546.981 -1.23179 -1.51942 0
M  V30 5618 O 548.187 -1.59784 -2.19503 0
M  V30 5619 C 546.643 -3.56249 -0.511359 0
M  V30 5620 C 546.251 -4.41957 0.733349 0
M  V30 5621 C 547.995 -4.1082 -1.069 0
M  V30 5622 C 545.902 -5.89673 0.451591 0
M  V30 5623 H 544.832 -0.747284 -0.10041 0
M  V30 5624 H 547.483 -1.77776 0.454758 0
M  V30 5625 H 545.865 -3.7456 -1.28533 0
M  V30 5626 H 547.039 -4.35421 1.50815 0
M  V30 5627 H 545.354 -3.9836 1.21237 0
M  V30 5628 H 547.951 -5.18789 -1.2947 0
M  V30 5629 H 548.294 -3.63817 -2.02343 0
M  V30 5630 H 548.827 -3.96205 -0.355817 0
M  V30 5631 H 545.566 -6.40903 1.37565 0
M  V30 5632 H 545.086 -5.99122 -0.285193 0
M  V30 5633 H 546.765 -6.46965 0.0675067 0
M  V30 5634 N 546.897 -0.0685191 -1.57451 0
M  V30 5635 C 548.143 0.596247 -1.94465 0
M  V30 5636 C 548.498 1.67417 -0.948117 0
M  V30 5637 O 547.791 1.91576 0.0301056 0
M  V30 5638 C 547.985 1.22051 -3.35914 0
M  V30 5639 C 547.814 0.204586 -4.49234 0
M  V30 5640 C 546.584 -0.20959 -5.04865 0
M  V30 5641 C 548.782 -0.556872 -5.11276 0
M  V30 5642 N 546.764 -1.21656 -6.01725 0
M  V30 5643 C 548.135 -1.41642 -6.03604 0
M  V30 5644 C 550.19 -0.613297 -4.94108 0
M  V30 5645 C 548.893 -2.32737 -6.80607 0
M  V30 5646 C 550.919 -1.51174 -5.71752 0
M  V30 5647 C 550.281 -2.35898 -6.63726 0
M  V30 5648 H 546.38 0.189307 -0.75874 0
M  V30 5649 H 548.964 -0.144899 -1.9416 0
M  V30 5650 H 547.135 1.9316 -3.36963 0
M  V30 5651 H 548.867 1.84548 -3.60172 0
M  V30 5652 H 545.622 0.172871 -4.73284 0
M  V30 5653 H 546.046 -1.71746 -6.54853 0
M  V30 5654 H 550.688 0.0275228 -4.22791 0
M  V30 5655 H 548.406 -2.97856 -7.51204 0
M  V30 5656 H 551.992 -1.5602 -5.6049 0
M  V30 5657 H 550.872 -3.04291 -7.22756 0
M  V30 5658 N 548.375 1.56261 0.205012 0
M  V30 5659 C 549.307 1.90266 1.27795 0
M  V30 5660 C 550.32 0.792397 1.42214 0
M  V30 5661 O 551.509 1.07077 1.42817 0
M  V30 5662 C 548.609 2.11074 2.65143 0
M  V30 5663 C 547.782 3.42176 2.7246 0
M  V30 5664 C 546.841 3.52216 3.90936 0
M  V30 5665 O 545.867 4.25119 3.78501 0
M  V30 5666 N 547.069 2.84573 5.05963 0
M  V30 5667 H 549.834 2.82896 0.989434 0
M  V30 5668 H 547.395 1.57008 0.394981 0
M  V30 5669 H 549.387 2.15089 3.4281 0
M  V30 5670 H 547.957 1.2499 2.86524 0
M  V30 5671 H 547.177 3.50116 1.81142 0
M  V30 5672 H 548.465 4.28509 2.74331 0
M  V30 5673 H 547.863 2.25152 5.18963 0
M  V30 5674 H 546.42 2.94228 5.81613 0
M  V30 5675 N 549.853 -0.472356 1.50355 0
M  V30 5676 C 550.763 -1.59637 1.7191 0
M  V30 5677 C 551.779 -1.63247 0.602195 0
M  V30 5678 O 552.955 -1.81139 0.880369 0
M  V30 5679 C 550.02 -2.9586 1.80742 0
M  V30 5680 C 549.081 -3.02649 3.04471 0
M  V30 5681 C 548.314 -4.32374 3.12872 0
M  V30 5682 O 548.537 -5.22807 2.28099 0
M  V30 5683 O 547.471 -4.44728 4.05587 0
M  V30 5684 H 551.297 -1.44373 2.67189 0
M  V30 5685 H 548.882 -0.651717 1.34436 0
M  V30 5686 H 550.764 -3.7677 1.88739 0
M  V30 5687 H 549.439 -3.11325 0.88647 0
M  V30 5688 H 548.346 -2.20821 3.01975 0
M  V30 5689 H 549.679 -2.92119 3.9614 0
M  V30 5690 N 551.331 -1.39911 -0.725443 0
M  V30 5691 C 552.579 -1.37382 -1.48224 0
M  V30 5692 C 552.9 0.0264107 -1.94982 0
M  V30 5693 O 552.17 0.979408 -1.6966 0
M  V30 5694 H 550.75 -0.505596 -0.549892 0
M  V30 5695 H 553.412 -1.7487 -0.860608 0
M  V30 5696 H 552.508 -2.04254 -2.3598 0
M  V30 5697 N 552.809 0.956637 -1.25245 0
M  V30 5698 C 553.757 2.0743 -1.0524 0
M  V30 5699 C 554.751 1.69392 0.0160725 0
M  V30 5700 O 555.957 1.7946 -0.139382 0
M  V30 5701 H 552.332 0.678921 -0.323373 0
M  V30 5702 H 554.303 2.2146 -1.99995 0
M  V30 5703 C 553.052 3.40872 -0.685702 0
M  V30 5704 H 552.375 3.70607 -1.49968 0
M  V30 5705 H 553.815 4.19939 -0.585415 0
M  V30 5706 C 552.274 3.31367 0.608082 0
M  V30 5707 O 552.804 3.66214 1.65076 0
M  V30 5708 N 551.01 2.84486 0.592955 0
M  V30 5709 H 550.557 2.56326 -0.25592 0
M  V30 5710 H 550.515 2.78509 1.45877 0
M  V30 5711 N 554.287 1.06798 1.15896 0
M  V30 5712 C 555.219 0.641263 2.20046 0
M  V30 5713 C 556.232 -0.303355 1.59949 0
M  V30 5714 O 557.421 -0.0935478 1.78255 0
M  V30 5715 C 554.521 -0.0794029 3.38807 0
M  V30 5716 C 553.694 0.879986 4.28457 0
M  V30 5717 C 552.753 0.197638 5.25829 0
M  V30 5718 O 551.779 0.836913 5.63014 0
M  V30 5719 N 552.981 -1.05886 5.70761 0
M  V30 5720 H 555.746 1.53718 2.57276 0
M  V30 5721 H 553.307 0.951951 1.30956 0
M  V30 5722 H 555.299 -0.546418 4.00994 0
M  V30 5723 H 553.869 -0.877193 3.0004 0
M  V30 5724 H 553.089 1.52625 3.63454 0
M  V30 5725 H 554.377 1.53065 4.8523 0
M  V30 5726 H 553.775 -1.59828 5.42652 0
M  V30 5727 H 552.332 -1.46965 6.35015 0
M  V30 5728 N 555.766 -1.3263 0.851289 0
M  V30 5729 C 557.182 -1.50162 0.5407 0
M  V30 5730 C 557.382 -1.78788 -0.929369 0
M  V30 5731 O 556.438 -1.85545 -1.71258 0
M  V30 5732 C 557.751 -2.64803 1.42478 0
M  V30 5733 C 559.299 -2.78688 1.42485 0
M  V30 5734 C 559.774 -3.96405 2.29407 0
M  V30 5735 N 561.265 -4.0366 2.27184 0
M  V30 5736 C 562 -4.93971 2.9117 0
M  V30 5737 N 561.496 -5.89313 3.64256 0
M  V30 5738 N 563.289 -4.87066 2.80576 0
M  V30 5739 H 555.44 -1.12315 1.80275 0
M  V30 5740 H 557.703 -0.553266 0.769806 0
M  V30 5741 H 557.409 -2.50368 2.46999 0
M  V30 5742 H 557.283 -3.60506 1.10974 0
M  V30 5743 H 559.67 -2.92547 0.387304 0
M  V30 5744 H 559.751 -1.83708 1.78002 0
M  V30 5745 H 559.395 -3.83304 3.33228 0
M  V30 5746 H 559.325 -4.90654 1.91224 0
M  V30 5747 H 561.816 -3.35435 1.74045 0
M  V30 5748 H 562.129 -6.54913 4.10255 0
M  V30 5749 H 560.474 -5.8935 3.68364 0
M  V30 5750 H 563.665 -4.11552 2.23031 0
M  V30 5751 H 563.838 -5.57248 3.30725 0
M  V30 5752 N 557.244 -0.608902 -1.45362 0
M  V30 5753 C 558.174 0.0964526 -2.33301 0
M  V30 5754 C 559.155 0.857444 -1.46908 0
M  V30 5755 O 560.34 0.827735 -1.75676 0
M  V30 5756 C 557.47 1.09354 -3.29635 0
M  V30 5757 C 556.424 0.445676 -4.25673 0
M  V30 5758 C 555.75 1.5511 -5.11708 0
M  V30 5759 C 557.05 -0.633972 -5.18438 0
M  V30 5760 H 558.744 -0.637829 -2.92527 0
M  V30 5761 H 556.29 -0.308178 -1.40664 0
M  V30 5762 H 558.243 1.59556 -3.90025 0
M  V30 5763 H 556.967 1.85843 -2.6857 0
M  V30 5764 H 555.626 -0.0354897 -3.66583 0
M  V30 5765 H 555.274 2.30631 -4.4701 0
M  V30 5766 H 554.974 1.12311 -5.76767 0
M  V30 5767 H 556.498 2.05537 -5.74967 0
M  V30 5768 H 557.912 -0.215974 -5.72893 0
M  V30 5769 H 556.309 -0.983789 -5.91981 0
M  V30 5770 H 557.379 -1.51005 -4.60788 0
M  V30 5771 N 558.722 1.53707 -0.348139 0
M  V30 5772 C 559.95 2.05406 0.248224 0
M  V30 5773 C 560.365 1.22282 1.43849 0
M  V30 5774 O 559.722 0.259244 1.80649 0
M  V30 5775 C 559.773 3.55446 0.658793 0
M  V30 5776 O 559.494 4.35417 -0.484149 0
M  V30 5777 C 560.995 4.23335 1.31539 0
M  V30 5778 H 558.215 0.669344 0.0471075 0
M  V30 5779 H 560.759 1.98257 -0.501456 0
M  V30 5780 H 558.914 3.62803 1.35841 0
M  V30 5781 H 559.328 5.24268 -0.155949 0
M  V30 5782 H 560.802 5.29692 1.55338 0
M  V30 5783 H 561.279 3.75967 2.27036 0
M  V30 5784 H 561.885 4.20184 0.657683 0
M  V30 5785 N 560.2 0.0768682 1.57412 0
M  V30 5786 C 561.147 -0.888577 2.13009 0
M  V30 5787 C 562.117 -1.29198 1.0439 0
M  V30 5788 O 563.302 -1.37694 1.3208 0
M  V30 5789 C 560.442 -2.14899 2.70023 0
M  V30 5790 C 559.555 -1.79777 3.92816 0
M  V30 5791 C 558.69 -3.00467 4.38056 0
M  V30 5792 C 557.729 -2.61385 5.53484 0
M  V30 5793 N 556.866 -3.74851 5.93659 0
M  V30 5794 H 561.706 -0.407593 2.95199 0
M  V30 5795 H 559.243 -0.189534 1.45874 0
M  V30 5796 H 561.201 -2.88688 3.0119 0
M  V30 5797 H 559.831 -2.60529 1.9059 0
M  V30 5798 H 558.883 -0.960301 3.68079 0
M  V30 5799 H 560.195 -1.47027 4.76639 0
M  V30 5800 H 559.349 -3.82529 4.7091 0
M  V30 5801 H 558.088 -3.36413 3.53097 0
M  V30 5802 H 557.093 -1.77746 5.20275 0
M  V30 5803 H 558.318 -2.26603 6.40178 0
M  V30 5804 H 556.264 -4.1055 5.11649 0
M  V30 5805 H 556.181 -3.45887 6.72234 0
M  V30 5806 H 557.449 -4.57477 6.31138 0
M  V30 5807 N 561.678 -1.56367 -0.196722 0
M  V30 5808 C 562.588 -1.97617 -1.2643 0
M  V30 5809 C 563.604 -0.883598 -1.49895 0
M  V30 5810 O 564.78 -1.18921 -1.62541 0
M  V30 5811 C 561.845 -2.30595 -2.58895 0
M  V30 5812 C 560.906 -3.53551 -2.43516 0
M  V30 5813 C 560.139 -3.84946 -3.69665 0
M  V30 5814 O 560.362 -3.17655 -4.73763 0
M  V30 5815 O 559.296 -4.78379 -3.65291 0
M  V30 5816 H 563.122 -2.88648 -0.944233 0
M  V30 5817 H 560.707 -1.43901 -0.401592 0
M  V30 5818 H 562.589 -2.52889 -3.37083 0
M  V30 5819 H 561.264 -1.42732 -2.90533 0
M  V30 5820 H 560.171 -3.36507 -1.63445 0
M  V30 5821 H 561.504 -4.41875 -2.16812 0
M  V30 5822 N 563.156 0.464375 -1.50603 0
M  V30 5823 C 564.567 1.04507 -1.5471 0
M  V30 5824 C 564.918 1.9297 -0.354542 0
M  V30 5825 O 564.043 2.09763 0.531812 0
M  V30 5826 C 564.638 1.90207 -2.80369 0
M  V30 5827 C 563.197 2.43373 -2.87135 0
M  V30 5828 C 562.344 1.21886 -2.49076 0
M  V30 5829 H 565.295 0.246716 -1.56771 0
M  V30 5830 H 565.316 2.75353 -2.62604 0
M  V30 5831 H 564.828 1.25796 -3.67147 0
M  V30 5832 H 562.929 3.11318 -2.04724 0
M  V30 5833 H 563.042 2.7802 -3.90181 0
M  V30 5834 H 561.406 1.55575 -2.01664 0
M  V30 5835 H 562.189 0.591268 -3.3817 0
M  V30 5836 N 564.634 1.40294 0.718013 0
M  V30 5837 C 565.881 1.3844 1.47786 0
M  V30 5838 C 566.209 -0.0140838 1.94495 0
M  V30 5839 O 565.464 -0.998165 1.68331 0
M  V30 5840 C 565.763 2.31814 2.72024 0
M  V30 5841 C 565.429 3.79117 2.44093 0
M  V30 5842 C 564.091 4.19249 2.36185 0
M  V30 5843 C 566.443 4.72212 2.20602 0
M  V30 5844 C 563.771 5.50516 2.02851 0
M  V30 5845 C 566.123 6.03775 1.88781 0
M  V30 5846 C 564.787 6.42953 1.79354 0
M  V30 5847 H 564.057 0.506588 0.540786 0
M  V30 5848 H 566.704 1.72929 0.822663 0
M  V30 5849 H 565.009 1.90501 3.42369 0
M  V30 5850 H 566.706 2.27664 3.30106 0
M  V30 5851 H 563.296 3.47318 2.51133 0
M  V30 5852 H 567.48 4.42026 2.25669 0
M  V30 5853 H 562.736 5.79776 1.94088 0
M  V30 5854 H 566.91 6.75428 1.69617 0
M  V30 5855 H 564.537 7.44584 1.53291 0
M  V30 5856 N 566.112 -0.949982 1.2575 0
M  V30 5857 C 567.022 -2.08109 1.08295 0
M  V30 5858 C 568.038 -1.7399 0.0188181 0
M  V30 5859 O 569.214 -2.00187 0.220724 0
M  V30 5860 C 566.279 -3.39383 0.708534 0
M  V30 5861 C 565.34 -3.8734 1.85111 0
M  V30 5862 C 564.573 -5.12349 1.49447 0
M  V30 5863 O 564.796 -5.6905 0.392212 0
M  V30 5864 O 563.73 -5.5513 2.32624 0
M  V30 5865 H 567.556 -2.25738 2.03165 0
M  V30 5866 H 565.141 -1.06545 1.04731 0
M  V30 5867 H 567.023 -4.18277 0.512061 0
M  V30 5868 H 565.698 -3.23013 -0.210854 0
M  V30 5869 H 564.605 -3.09429 2.10248 0
M  V30 5870 H 565.938 -4.08216 2.74991 0
M  V30 5871 N 567.59 -1.07411 -1.15328 0
M  V30 5872 C 568.839 -0.792643 -1.85473 0
M  V30 5873 C 569.152 0.683789 -1.83259 0
M  V30 5874 O 570.358 1.08005 -2.49093 0
M  V30 5875 C 568.814 -1.36787 -3.32892 0
M  V30 5876 C 568.422 -2.87536 -3.43551 0
M  V30 5877 C 570.166 -1.16444 -4.08217 0
M  V30 5878 C 568.073 -3.38247 -4.85122 0
M  V30 5879 H 567.003 -0.292838 -0.694811 0
M  V30 5880 H 569.654 -1.29426 -1.30082 0
M  V30 5881 H 568.036 -0.793993 -3.87958 0
M  V30 5882 H 569.21 -3.50973 -2.98588 0
M  V30 5883 H 567.525 -3.06676 -2.81672 0
M  V30 5884 H 570.122 -1.51808 -5.12697 0
M  V30 5885 H 570.465 -0.10353 -4.16171 0
M  V30 5886 H 570.998 -1.70472 -3.59422 0
M  V30 5887 H 567.737 -4.43866 -4.82351 0
M  V30 5888 H 567.257 -2.79564 -5.30664 0
M  V30 5889 H 568.936 -3.34238 -5.5398 0
M  V30 5890 N 569.068 1.32177 -0.85831 0
M  V30 5891 C 570.015 2.28794 -0.303607 0
M  V30 5892 C 570.985 1.55213 0.591453 0
M  V30 5893 O 572.17 1.83418 0.525585 0
M  V30 5894 C 569.31 3.41475 0.49889 0
M  V30 5895 C 568.423 4.2993 -0.422373 0
M  V30 5896 C 567.558 5.29743 0.393111 0
M  V30 5897 C 566.597 6.09842 -0.525317 0
M  V30 5898 N 565.734 7.01643 0.253208 0
M  V30 5899 H 570.574 2.75631 -1.13276 0
M  V30 5900 H 568.111 1.35606 -0.570026 0
M  V30 5901 H 570.069 4.05531 0.979826 0
M  V30 5902 H 568.699 2.95779 1.29284 0
M  V30 5903 H 567.751 3.66422 -1.02171 0
M  V30 5904 H 569.063 4.85899 -1.12709 0
M  V30 5905 H 568.217 5.9942 0.937056 0
M  V30 5906 H 566.956 4.744 1.13117 0
M  V30 5907 H 565.961 5.39066 -1.08112 0
M  V30 5908 H 567.186 6.6727 -1.26205 0
M  V30 5909 H 565.132 6.48725 0.974295 0
M  V30 5910 H 565.049 7.54981 -0.392398 0
M  V30 5911 H 566.317 7.756 0.778761 0
M  V30 5912 N 570.547 0.616602 1.45037 0
M  V30 5913 C 571.795 0.115103 2.01772 0
M  V30 5914 C 572.116 -1.2622 1.48639 0
M  V30 5915 O 571.386 -1.83563 0.684199 0
M  V30 5916 H 569.966 0.0395607 0.745952 0
M  V30 5917 H 572.628 0.800032 1.77723 0
M  V30 5918 H 571.724 0.0717274 3.12018 0
M  V30 5919 N 572.025 -1.5352 0.356285 0
M  V30 5920 C 573.273 -2.00719 -0.235837 0
M  V30 5921 C 573.594 -1.24551 -1.5004 0
M  V30 5922 O 572.864 -0.356185 -1.92635 0
M  V30 5923 H 571.444 -0.741542 -0.0901366 0
M  V30 5924 H 574.106 -1.88887 0.480378 0
M  V30 5925 H 573.202 -3.08551 -0.469357 0
M  V30 5926 N 573.503 -0.0852151 -1.57369 0
M  V30 5927 C 574.433 0.874556 -2.16503 0
M  V30 5928 C 575.414 1.30111 -1.09568 0
M  V30 5929 O 576.599 1.36977 -1.37662 0
M  V30 5930 C 573.729 2.13731 -2.73745 0
M  V30 5931 C 572.683 1.84971 -3.85966 0
M  V30 5932 C 572.009 3.17991 -4.29867 0
M  V30 5933 C 573.309 1.14442 -5.09608 0
M  V30 5934 H 575.003 0.381899 -2.96954 0
M  V30 5935 H 572.549 0.18225 -1.42842 0
M  V30 5936 H 574.502 2.81302 -3.13763 0
M  V30 5937 H 573.226 2.65263 -1.90534 0
M  V30 5938 H 571.885 1.19801 -3.46473 0
M  V30 5939 H 571.533 3.6739 -3.4356 0
M  V30 5940 H 571.233 2.99534 -5.05523 0
M  V30 5941 H 572.757 3.86737 -4.72511 0
M  V30 5942 H 574.171 1.72105 -5.46857 0
M  V30 5943 H 572.568 1.06197 -5.90629 0
M  V30 5944 H 573.638 0.12559 -4.84737 0
M  V30 5945 N 574.981 1.5647 0.188427 0
M  V30 5946 C 576.227 1.81281 0.909124 0
M  V30 5947 C 576.56 0.66034 1.82628 0
M  V30 5948 O 575.835 -0.338737 1.91528 0
M  V30 5949 C 576.118 3.16388 1.7196 0
M  V30 5950 C 575.971 4.42137 0.826714 0
M  V30 5951 C 577.29 3.48256 2.69083 0
M  V30 5952 H 574.409 0.659457 0.329068 0
M  V30 5953 H 577.051 1.89182 0.176156 0
M  V30 5954 H 575.201 3.09784 2.34448 0
M  V30 5955 H 576.873 4.60794 0.216025 0
M  V30 5956 H 575.116 4.33594 0.133792 0
M  V30 5957 H 575.787 5.33184 1.42893 0
M  V30 5958 H 578.263 3.55203 2.16726 0
M  V30 5959 H 577.139 4.43899 3.2287 0
M  V30 5960 H 577.4 2.72088 3.48455 0
M  V30 5961 N 576.459 -0.456382 1.50847 0
M  V30 5962 C 577.391 -1.57033 1.66953 0
M  V30 5963 C 578.404 -1.53207 0.550593 0
M  V30 5964 O 579.593 -1.58328 0.824285 0
M  V30 5965 C 576.693 -2.95937 1.65149 0
M  V30 5966 C 575.866 -3.24475 2.93317 0
M  V30 5967 C 574.925 -4.43007 2.83957 0
M  V30 5968 O 573.951 -4.42592 3.57912 0
M  V30 5969 N 575.153 -5.45503 1.9851 0
M  V30 5970 H 577.918 -1.43629 2.63042 0
M  V30 5971 H 575.479 -0.645037 1.48495 0
M  V30 5972 H 577.471 -3.73224 1.56481 0
M  V30 5973 H 576.041 -3.03036 0.767343 0
M  V30 5974 H 575.261 -2.35664 3.16 0
M  V30 5975 H 576.549 -3.4036 3.78196 0
M  V30 5976 H 575.947 -5.48668 1.37766 0
M  V30 5977 H 574.504 -6.21716 1.95735 0
M  V30 5978 N 577.937 -1.40673 -0.710563 0
M  V30 5979 C 579.183 -1.39428 -1.47267 0
M  V30 5980 C 579.516 0.00182129 -1.942 0
M  V30 5981 O 578.791 0.971387 -1.68506 0
M  V30 5982 C 579.074 -2.38812 -2.6952 0
M  V30 5983 C 578.927 -3.87467 -2.28449 0
M  V30 5984 C 580.246 -2.3566 -3.71689 0
M  V30 5985 H 577.365 -0.507768 -0.534173 0
M  V30 5986 H 580.007 -1.71843 -0.810547 0
M  V30 5987 H 578.157 -2.113 -3.26013 0
M  V30 5988 H 579.829 -4.25825 -1.77399 0
M  V30 5989 H 578.072 -4.03058 -1.60395 0
M  V30 5990 H 578.743 -4.5253 -3.16103 0
M  V30 5991 H 581.219 -2.6004 -3.24836 0
M  V30 5992 H 580.095 -3.07237 -4.54859 0
M  V30 5993 H 580.356 -1.36996 -4.20339 0
M  V30 5994 N 579.415 0.9433 -1.26252 0
M  V30 5995 C 580.826 1.50404 -1.10614 0
M  V30 5996 C 581.177 1.93666 0.31429 0
M  V30 5997 O 580.302 1.79709 1.20555 0
M  V30 5998 C 580.897 2.73336 -2.00182 0
M  V30 5999 C 579.456 3.25686 -1.88695 0
M  V30 6000 C 578.603 1.98474 -1.93658 0
M  V30 6001 H 581.554 0.759006 -1.39373 0
M  V30 6002 H 581.575 3.47567 -1.54847 0
M  V30 6003 H 581.087 2.41818 -3.03555 0
M  V30 6004 H 579.188 3.61998 -0.882489 0
M  V30 6005 H 579.301 3.92935 -2.74115 0
M  V30 6006 H 577.665 2.14278 -1.37684 0
M  V30 6007 H 578.448 1.6929 -2.98657 0
M  V30 6008 N 580.893 1.08022 1.14757 0
M  V30 6009 C 581.803 0.718292 2.23333 0
M  V30 6010 C 582.819 -0.273477 1.71837 0
M  V30 6011 O 583.995 -0.118406 2.01052 0
M  V30 6012 C 581.06 0.128855 3.4646 0
M  V30 6013 C 580.121 1.17473 4.12915 0
M  V30 6014 C 579.354 0.61333 5.30164 0
M  V30 6015 O 579.577 -0.568458 5.6756 0
M  V30 6016 O 578.511 1.3615 5.86299 0
M  V30 6017 H 582.337 1.62394 2.56636 0
M  V30 6018 H 579.922 0.853628 1.22611 0
M  V30 6019 H 581.804 -0.197249 4.20938 0
M  V30 6020 H 580.479 -0.750014 3.14891 0
M  V30 6021 H 579.386 1.5533 3.40328 0
M  V30 6022 H 580.719 2.02574 4.48581 0
M  V30 6023 N 582.371 -1.3172 0.865308 0
M  V30 6024 C 583.318 -2.2863 0.315736 0
M  V30 6025 C 584.288 -1.55524 -0.583213 0
M  V30 6026 O 585.473 -1.83694 -0.51585 0
M  V30 6027 C 582.613 -3.41735 -0.480773 0
M  V30 6028 C 581.726 -4.297 0.445167 0
M  V30 6029 C 580.861 -5.29944 -0.365012 0
M  V30 6030 C 579.9 -6.09554 0.557651 0
M  V30 6031 N 579.037 -7.01768 -0.215994 0
M  V30 6032 H 583.877 -2.75026 1.14736 0
M  V30 6033 H 581.414 -1.35302 0.577209 0
M  V30 6034 H 583.372 -4.06045 -0.958306 0
M  V30 6035 H 582.002 -2.96461 -1.27714 0
M  V30 6036 H 581.054 -3.65875 1.04113 0
M  V30 6037 H 582.366 -4.85295 1.15284 0
M  V30 6038 H 581.52 -5.99908 -0.905255 0
M  V30 6039 H 580.259 -4.74994 -1.106 0
M  V30 6040 H 579.264 -5.38485 1.10969 0
M  V30 6041 H 580.489 -6.66591 1.29742 0
M  V30 6042 H 578.435 -6.49232 -0.939878 0
M  V30 6043 H 578.352 -7.54762 0.432431 0
M  V30 6044 H 579.62 -7.76002 -0.737618 0
M  V30 6045 N 583.85 -0.624285 -1.44708 0
M  V30 6046 C 585.26 -0.2092 -1.85524 0
M  V30 6047 C 585.611 1.23783 -1.52225 0
M  V30 6048 O 584.736 1.94089 -0.956986 0
M  V30 6049 C 585.332 -0.372897 -3.36742 0
M  V30 6050 C 583.891 -0.012374 -3.76398 0
M  V30 6051 C 583.038 -0.68951 -2.68591 0
M  V30 6052 H 585.989 -0.829894 -1.35272 0
M  V30 6053 H 586.01 0.390134 -3.78495 0
M  V30 6054 H 585.522 -1.42615 -3.60947 0
M  V30 6055 H 583.623 1.03941 -3.57809 0
M  V30 6056 H 583.736 -0.417663 -4.77276 0
M  V30 6057 H 582.1 -0.125484 -2.54391 0
M  V30 6058 H 582.883 -1.74522 -2.9563 0
M  V30 6059 N 585.328 1.53329 -0.364422 0
M  V30 6060 C 586.576 2.00842 0.225189 0
M  V30 6061 C 586.897 1.25345 1.49378 0
M  V30 6062 O 586.167 0.366396 1.92443 0
M  V30 6063 H 584.747 0.742009 0.0862027 0
M  V30 6064 H 587.409 1.8863 -0.490389 0
M  V30 6065 H 586.505 3.08795 0.452987 0
M  V30 6066 N 586.806 0.0935595 1.57322 0
M  V30 6067 C 587.736 -0.863062 2.16964 0
M  V30 6068 C 588.717 -1.29528 1.10256 0
M  V30 6069 O 589.902 -1.36245 1.38387 0
M  V30 6070 C 587.032 -2.12276 2.74875 0
M  V30 6071 C 585.986 -1.82921 3.86942 0
M  V30 6072 C 585.312 -3.15707 4.31548 0
M  V30 6073 C 586.612 -1.11737 5.10208 0
M  V30 6074 H 588.306 -0.366145 2.97153 0
M  V30 6075 H 585.852 -0.174673 1.42937 0
M  V30 6076 H 587.805 -2.79634 3.1525 0
M  V30 6077 H 586.529 -2.64248 1.91938 0
M  V30 6078 H 585.188 -1.17961 3.47103 0
M  V30 6079 H 584.836 -3.65563 3.45504 0
M  V30 6080 H 584.536 -2.96849 5.07104 0
M  V30 6081 H 586.06 -3.84226 4.74555 0
M  V30 6082 H 587.474 -1.69203 5.47762 0
M  V30 6083 H 585.871 -1.03064 5.91183 0
M  V30 6084 H 586.941 -0.0998818 4.84797 0
M  V30 6085 N 588.284 -1.56567 -0.180126 0
M  V30 6086 C 589.532 -1.81133 -0.896392 0
M  V30 6087 C 589.853 -0.669114 -1.83161 0
M  V30 6088 O 589.123 0.311616 -1.93406 0
M  V30 6089 H 587.703 -0.668172 -0.333999 0
M  V30 6090 H 590.365 -1.94048 -0.182051 0
M  V30 6091 H 589.461 -2.74854 -1.47857 0
M  V30 6092 N 589.762 0.448376 -1.51087 0
M  V30 6093 C 591.008 1.20049 -1.6345 0
M  V30 6094 C 591.341 1.91121 -0.344444 0
M  V30 6095 O 590.616 1.83125 0.655396 0
M  V30 6096 C 590.899 2.22624 -2.83038 0
M  V30 6097 C 590.752 1.55708 -4.21989 0
M  V30 6098 C 592.071 3.23718 -2.98152 0
M  V30 6099 H 589.19 0.435085 -0.59487 0
M  V30 6100 H 591.832 0.491183 -1.83541 0
M  V30 6101 H 589.982 2.83117 -2.66039 0
M  V30 6102 H 591.654 0.986367 -4.50631 0
M  V30 6103 H 589.897 0.859647 -4.25197 0
M  V30 6104 H 590.568 2.30357 -5.01637 0
M  V30 6105 H 593.044 2.73269 -3.13788 0
M  V30 6106 H 591.92 3.92795 -3.83411 0
M  V30 6107 H 592.181 3.89179 -2.09743 0
M  V30 6108 N 591.24 1.41047 0.703093 0
M  V30 6109 C 592.15 1.44645 1.84703 0
M  V30 6110 C 593.166 0.337778 1.7069 0
M  V30 6111 O 594.342 0.584327 1.92737 0
M  V30 6112 C 591.407 1.31928 3.20618 0
M  V30 6113 C 590.468 2.53047 3.46794 0
M  V30 6114 C 589.701 2.40927 4.76224 0
M  V30 6115 O 589.924 1.42978 5.5219 0
M  V30 6116 O 588.858 3.30543 5.03016 0
M  V30 6117 H 592.684 2.41139 1.84624 0
M  V30 6118 H 590.269 1.22504 0.855167 0
M  V30 6119 H 592.151 1.27092 4.01778 0
M  V30 6120 H 590.826 0.385469 3.21397 0
M  V30 6121 H 589.733 2.6346 2.65593 0
M  V30 6122 H 591.066 3.45231 3.50822 0
M  V30 6123 N 592.718 -0.936591 1.26751 0
M  V30 6124 C 593.967 -1.67778 1.11953 0
M  V30 6125 C 594.28 -1.92694 -0.33589 0
M  V30 6126 O 595.486 -2.64682 -0.604618 0
M  V30 6127 C 593.942 -3.02138 1.95551 0
M  V30 6128 C 593.55 -2.84953 3.45696 0
M  V30 6129 C 595.294 -3.79917 1.89377 0
M  V30 6130 C 593.201 -4.14814 4.21525 0
M  V30 6131 H 592.131 -0.629275 0.415366 0
M  V30 6132 H 594.782 -1.04122 1.51099 0
M  V30 6133 H 593.164 -3.668 1.49243 0
M  V30 6134 H 594.338 -2.29112 3.99805 0
M  V30 6135 H 592.653 -2.20612 3.53156 0
M  V30 6136 H 595.25 -4.76134 2.43312 0
M  V30 6137 H 595.593 -4.07204 0.865464 0
M  V30 6138 H 596.126 -3.22037 2.33532 0
M  V30 6139 H 592.865 -3.92709 5.24843 0
M  V30 6140 H 592.385 -4.70352 3.72195 0
M  V30 6141 H 594.064 -4.83239 4.3022 0
M  V30 6142 N 594.196 -1.08629 -1.14182 0
M  V30 6143 C 595.473 -0.73002 -1.81466 0
M  V30 6144 C 595.853 0.785996 -1.95922 0
M  V30 6145 O 595.201 1.70535 -1.52086 0
M  V30 6146 C 595.411 -1.45957 -3.17014 0
M  V30 6147 C 596.759 -1.62008 -3.92477 0
M  V30 6148 O 597.783 -1.42141 -3.26611 0
M  V30 6149 O 596.642 -1.94806 -5.106 0
M  V30 6150 H 593.736 -0.261307 -0.784632 0
M  V30 6151 H 596.282 -1.188 -1.2118 0
M  V30 6152 H 595.054 -2.49221 -3.01669 0
M  V30 6153 H 594.677 -0.993222 -3.84995 0
M  V30 6154 N 595.674 1.31259 -0.872281 0
M  V30 6155 C 596.607 2.26544 -0.274394 0
M  V30 6156 C 597.585 1.51213 0.597776 0
M  V30 6157 O 598.769 1.80277 0.550687 0
M  V30 6158 C 595.896 3.33139 0.611256 0
M  V30 6159 C 594.942 4.26077 -0.189876 0
M  V30 6160 S 595.775 5.11971 -1.56989 0
M  V30 6161 C 596.931 6.2208 -0.690427 0
M  V30 6162 H 597.164 2.76908 -1.0821 0
M  V30 6163 H 594.697 1.3906 -0.670939 0
M  V30 6164 H 596.655 3.95024 1.11654 0
M  V30 6165 H 595.316 2.81525 1.39294 0
M  V30 6166 H 594.509 5.01657 0.485433 0
M  V30 6167 H 594.111 3.68701 -0.627339 0
M  V30 6168 H 596.403 6.77429 0.098001 0
M  V30 6169 H 597.346 6.93768 -1.41742 0
M  V30 6170 H 597.754 5.63915 -0.256953 0
M  V30 6171 N 597.152 0.631951 1.44375 0
M  V30 6172 C 598.429 0.067646 1.95483 0
M  V30 6173 C 598.809 -1.40683 1.57389 0
M  V30 6174 O 598.157 -2.12167 0.848375 0
M  V30 6175 C 598.367 0.291392 3.47781 0
M  V30 6176 C 599.715 0.185028 4.24197 0
M  V30 6177 O 600.739 0.222803 3.55503 0
M  V30 6178 O 599.598 0.0906642 5.46425 0
M  V30 6179 H 596.692 -0.0218379 0.826712 0
M  V30 6180 H 599.238 0.703711 1.54421 0
M  V30 6181 H 598.01 1.31449 3.68561 0
M  V30 6182 H 597.633 -0.378772 3.95792 0
M  V30 6183 N 598.631 -1.53133 0.372548 0
M  V30 6184 C 599.563 -2.23557 -0.505444 0
M  V30 6185 C 600.576 -1.25211 -1.04049 0
M  V30 6186 O 601.765 -1.51391 -0.945675 0
M  V30 6187 C 598.865 -2.92516 -1.71136 0
M  V30 6188 C 598.038 -4.17428 -1.30661 0
M  V30 6189 C 597.097 -4.69535 -2.37536 0
M  V30 6190 O 596.123 -5.33042 -1.99637 0
M  V30 6191 N 597.325 -4.47947 -3.6922 0
M  V30 6192 H 600.09 -2.9954 0.0978259 0
M  V30 6193 H 597.651 -1.60684 0.198068 0
M  V30 6194 H 599.643 -3.24281 -2.42124 0
M  V30 6195 H 598.213 -2.19944 -2.22134 0
M  V30 6196 H 597.433 -3.91888 -0.426292 0
M  V30 6197 H 598.721 -4.98622 -1.01259 0
M  V30 6198 H 598.119 -3.97219 -4.02783 0
M  V30 6199 H 596.676 -4.84245 -4.36292 0
M  V30 6200 N 600.109 -0.101901 -1.5727 0
M  V30 6201 C 601.355 0.561027 -1.94885 0
M  V30 6202 C 601.688 1.6741 -0.984258 0
M  V30 6203 O 600.963 1.94491 -0.0184767 0
M  V30 6204 C 601.246 1.10982 -3.42571 0
M  V30 6205 C 601.099 0.00133418 -4.498 0
M  V30 6206 C 602.418 2.00608 -3.9172 0
M  V30 6207 H 599.537 0.202467 -0.708644 0
M  V30 6208 H 602.179 -0.173992 -1.89202 0
M  V30 6209 H 600.329 1.73621 -3.47546 0
M  V30 6210 H 602.001 -0.63322 -4.56933 0
M  V30 6211 H 600.244 -0.664143 -4.28686 0
M  V30 6212 H 600.915 0.426253 -5.50352 0
M  V30 6213 H 603.391 1.47864 -3.88941 0
M  V30 6214 H 602.267 2.3593 -4.95609 0
M  V30 6215 H 602.528 2.92608 -3.3141 0
M  V30 6216 N 601.587 1.56661 0.17182 0
M  V30 6217 C 602.52 1.91474 1.24149 0
M  V30 6218 C 603.498 0.777485 1.42807 0
M  V30 6219 O 604.682 1.03075 1.57822 0
M  V30 6220 C 601.809 2.16523 2.60453 0
M  V30 6221 C 600.855 3.39209 2.58533 0
M  V30 6222 S 601.688 4.93594 2.07665 0
M  V30 6223 C 602.844 5.21737 3.45747 0
M  V30 6224 H 603.077 2.81903 0.944346 0
M  V30 6225 H 600.61 1.49743 0.376364 0
M  V30 6226 H 602.568 2.31635 3.38903 0
M  V30 6227 H 601.229 1.26802 2.87368 0
M  V30 6228 H 600.422 3.53935 3.58812 0
M  V30 6229 H 600.024 3.2321 1.88178 0
M  V30 6230 H 602.316 5.13684 4.41741 0
M  V30 6231 H 603.259 6.23361 3.35896 0
M  V30 6232 H 603.667 4.49307 3.41736 0
M  V30 6233 N 603.065 -0.440357 1.51323 0
M  V30 6234 C 604.012 -1.53429 1.72419 0
M  V30 6235 C 604.982 -1.56165 0.565826 0
M  V30 6236 O 606.167 -1.73222 0.799917 0
M  V30 6237 C 603.307 -2.91169 1.85242 0
M  V30 6238 C 602.42 -2.97985 3.12777 0
M  V30 6239 C 601.555 -4.26829 3.16212 0
M  V30 6240 C 600.594 -4.27501 4.38074 0
M  V30 6241 N 599.731 -5.47866 4.39076 0
M  V30 6242 H 604.571 -1.34743 2.65797 0
M  V30 6243 H 602.108 -0.654608 1.31732 0
M  V30 6244 H 604.066 -3.71087 1.90658 0
M  V30 6245 H 602.696 -3.0842 0.952744 0
M  V30 6246 H 601.748 -2.10749 3.16685 0
M  V30 6247 H 603.06 -2.94342 4.02696 0
M  V30 6248 H 602.214 -5.15118 3.20527 0
M  V30 6249 H 600.953 -4.33124 2.24176 0
M  V30 6250 H 599.958 -3.37606 4.33938 0
M  V30 6251 H 601.183 -4.22873 5.31371 0
M  V30 6252 H 599.129 -5.54887 3.49909 0
M  V30 6253 H 599.046 -5.46091 5.22801 0
M  V30 6254 H 600.314 -6.38195 4.4758 0
M  V30 6255 N 604.543 -1.41418 -0.695603 0
M  V30 6256 C 605.506 -1.42988 -1.79129 0
M  V30 6257 C 606.506 -0.320514 -1.57573 0
M  V30 6258 O 607.696 -0.58039 -1.64247 0
M  V30 6259 C 604.828 -1.24122 -3.175 0
M  V30 6260 H 606.021 -2.40526 -1.7913 0
M  V30 6261 H 603.574 -1.2756 -0.903225 0
M  V30 6262 H 604.309 -0.274253 -3.23138 0
M  V30 6263 H 604.094 -2.045 -3.34547 0
M  V30 6264 H 605.584 -1.28056 -3.97481 0
M  V30 6265 N 606.021 0.929856 -1.27246 0
M  V30 6266 C 606.971 2.01629 -1.06442 0
M  V30 6267 C 607.955 1.60899 0.00687842 0
M  V30 6268 O 609.147 1.75733 -0.211407 0
M  V30 6269 C 606.276 3.35849 -0.711361 0
M  V30 6270 C 605.362 3.8303 -1.82069 0
M  V30 6271 N 605.753 4.02743 -3.05993 0
M  V30 6272 C 604.051 4.12046 -1.70687 0
M  V30 6273 C 604.752 4.42001 -3.78167 0
M  V30 6274 N 603.728 4.4935 -3.05918 0
M  V30 6275 H 607.53 2.14898 -2.00489 0
M  V30 6276 H 605.044 1.11654 -1.17929 0
M  V30 6277 H 607.041 4.13343 -0.543442 0
M  V30 6278 H 605.701 3.23944 0.221517 0
M  V30 6279 H 606.712 3.89112 -3.41778 0
M  V30 6280 H 603.389 4.08866 -0.844681 0
M  V30 6281 H 604.779 4.6535 -4.84664 0
M  V30 6282 N 607.499 1.09233 1.13605 0
M  V30 6283 C 608.409 0.741939 2.22559 0
M  V30 6284 C 609.425 -0.255236 1.72118 0
M  V30 6285 O 610.601 -0.0970747 2.01166 0
M  V30 6286 C 607.666 0.165595 3.46304 0
M  V30 6287 C 606.727 1.21846 4.11645 0
M  V30 6288 C 605.96 0.669526 5.29484 0
M  V30 6289 O 606.183 -0.508228 5.68131 0
M  V30 6290 O 605.117 1.42361 5.84822 0
M  V30 6291 H 608.943 1.65107 2.54899 0
M  V30 6292 H 606.528 0.866584 1.21699 0
M  V30 6293 H 608.41 -0.152592 4.21124 0
M  V30 6294 H 607.085 -0.716573 3.15669 0
M  V30 6295 H 605.992 1.58931 3.38662 0
M  V30 6296 H 607.325 2.07321 4.46407 0
M  V30 6297 N 608.977 -1.30795 0.87923 0
M  V30 6298 C 609.907 -2.30742 0.357796 0
M  V30 6299 C 610.888 -1.60747 -0.556283 0
M  V30 6300 O 612.073 -1.88393 -0.47135 0
M  V30 6301 C 609.203 -3.44583 -0.433555 0
M  V30 6302 C 608.157 -4.26235 0.388251 0
M  V30 6303 C 607.483 -5.32073 -0.529352 0
M  V30 6304 C 608.783 -4.96303 1.62729 0
M  V30 6305 H 610.477 -2.74605 1.19299 0
M  V30 6306 H 608.023 -1.32017 0.575104 0
M  V30 6307 H 609.976 -4.13563 -0.808934 0
M  V30 6308 H 608.7 -2.99511 -1.30234 0
M  V30 6309 H 607.359 -3.58936 0.745695 0
M  V30 6310 H 607.007 -4.83249 -1.39569 0
M  V30 6311 H 606.707 -5.87598 0.0166741 0
M  V30 6312 H 608.231 -6.0391 -0.901373 0
M  V30 6313 H 609.645 -5.5783 1.32283 0
M  V30 6314 H 608.042 -5.61666 2.11309 0
M  V30 6315 H 609.112 -4.22758 2.37494 0
M  V30 6316 N 610.455 -0.639598 -1.44038 0
M  V30 6317 C 611.685 -0.154586 -2.06021 0
M  V30 6318 C 612.093 1.17951 -1.47933 0
M  V30 6319 O 611.436 1.73627 -0.59994 0
M  V30 6320 C 611.498 0.0255459 -3.59491 0
M  V30 6321 C 611.162 -1.2317 -4.40089 0
M  V30 6322 C 612.159 -2.15735 -4.73027 0
M  V30 6323 C 609.844 -1.46949 -4.80324 0
M  V30 6324 C 611.838 -3.30382 -5.45093 0
M  V30 6325 C 609.525 -2.61891 -5.52138 0
M  V30 6326 C 610.523 -3.53433 -5.84443 0
M  V30 6327 O 610.211 -4.6637 -6.54793 0
M  V30 6328 H 609.943 -0.0808543 -0.671147 0
M  V30 6329 H 612.497 -0.876541 -1.85758 0
M  V30 6330 H 610.727 0.802733 -3.78276 0
M  V30 6331 H 612.416 0.466184 -4.03214 0
M  V30 6332 H 613.182 -1.98602 -4.42473 0
M  V30 6333 H 609.061 -0.765815 -4.54595 0
M  V30 6334 H 612.605 -4.01856 -5.70226 0
M  V30 6335 H 608.502 -2.78964 -5.82108 0
M  V30 6336 H 609.27 -4.6546 -6.73267 0
M  V30 6337 N 611.933 1.52934 -0.380664 0
M  V30 6338 C 612.865 2.23822 0.493581 0
M  V30 6339 C 613.878 1.25761 1.03383 0
M  V30 6340 O 615.067 1.5189 0.937633 0
M  V30 6341 C 612.167 2.9342 1.69582 0
M  V30 6342 C 611.34 4.18115 1.28445 0
M  V30 6343 C 610.399 4.70788 2.35042 0
M  V30 6344 O 609.425 5.34093 1.96807 0
M  V30 6345 N 610.627 4.49899 3.66839 0
M  V30 6346 H 613.392 2.99484 -0.11371 0
M  V30 6347 H 610.953 1.60577 -0.206587 0
M  V30 6348 H 612.945 3.2556 2.40401 0
M  V30 6349 H 611.515 2.21119 2.20965 0
M  V30 6350 H 610.735 3.92109 0.405503 0
M  V30 6351 H 612.023 4.99152 0.986132 0
M  V30 6352 H 611.421 3.99349 4.0067 0
M  V30 6353 H 609.978 4.86551 4.33718 0
M  V30 6354 N 613.412 0.11024 1.57214 0
M  V30 6355 C 614.359 -0.843195 2.14846 0
M  V30 6356 C 615.329 -1.26954 1.07107 0
M  V30 6357 O 616.514 -1.34861 1.34971 0
M  V30 6358 C 613.654 -2.09123 2.74521 0
M  V30 6359 C 612.767 -1.71404 3.96541 0
M  V30 6360 C 611.902 -2.91107 4.44331 0
M  V30 6361 C 610.941 -2.49586 5.58903 0
M  V30 6362 N 610.078 -3.62175 6.01477 0
M  V30 6363 H 614.918 -0.344886 2.95998 0
M  V30 6364 H 612.455 -0.15855 1.46243 0
M  V30 6365 H 614.413 -2.82234 3.07246 0
M  V30 6366 H 613.043 -2.56427 1.96074 0
M  V30 6367 H 612.095 -0.88201 3.70033 0
M  V30 6368 H 613.407 -1.36884 4.7965 0
M  V30 6369 H 612.561 -3.72454 4.78919 0
M  V30 6370 H 611.3 -3.28848 3.60153 0
M  V30 6371 H 610.305 -1.6667 5.23929 0
M  V30 6372 H 611.53 -2.12973 6.4484 0
M  V30 6373 H 609.476 -3.99605 5.20242 0
M  V30 6374 H 609.393 -3.3155 6.79419 0
M  V30 6375 H 610.661 -4.43987 6.407 0
M  V30 6376 N 614.89 -1.56749 -0.16351 0
M  V30 6377 C 615.84 -1.93424 -1.20712 0
M  V30 6378 C 616.824 -0.803469 -1.39403 0
M  V30 6379 O 618.016 -1.06675 -1.41243 0
M  V30 6380 C 615.145 -2.30431 -2.54473 0
M  V30 6381 C 614.231 -3.5004 -2.39443 0
M  V30 6382 N 614.622 -4.67058 -1.9414 0
M  V30 6383 C 612.92 -3.548 -2.70246 0
M  V30 6384 C 613.621 -5.49184 -1.9176 0
M  V30 6385 N 612.597 -4.9044 -2.34457 0
M  V30 6386 H 616.399 -2.8138 -0.848681 0
M  V30 6387 H 613.913 -1.58089 -0.371717 0
M  V30 6388 H 615.91 -2.54903 -3.29894 0
M  V30 6389 H 614.57 -1.43818 -2.91112 0
M  V30 6390 H 615.581 -4.91128 -1.64357 0
M  V30 6391 H 612.258 -2.78685 -3.10871 0
M  V30 6392 H 613.648 -6.5297 -1.58366 0
M  V30 6393 N 616.368 0.432326 -1.51554 0
M  V30 6394 C 617.616 1.17901 -1.64146 0
M  V30 6395 C 617.937 1.91604 -0.362367 0
M  V30 6396 O 617.207 1.85764 0.621968 0
M  V30 6397 H 615.787 0.438206 -0.604966 0
M  V30 6398 H 618.449 0.495172 -1.88505 0
M  V30 6399 H 617.545 1.90584 -2.47152 0
M  V30 6400 N 617.846 1.41785 0.688094 0
M  V30 6401 C 618.776 1.47 1.8142 0
M  V30 6402 C 619.757 0.327881 1.6691 0
M  V30 6403 O 620.942 0.540362 1.86531 0
M  V30 6404 C 618.072 1.35876 3.19617 0
M  V30 6405 C 617.026 2.47976 3.48844 0
M  V30 6406 C 616.352 2.21915 4.86475 0
M  V30 6407 C 617.652 3.90309 3.47068 0
M  V30 6408 H 619.346 2.41247 1.77314 0
M  V30 6409 H 616.892 1.16116 0.851651 0
M  V30 6410 H 618.845 1.38134 3.98117 0
M  V30 6411 H 617.569 0.38116 3.24368 0
M  V30 6412 H 616.228 2.45013 2.72698 0
M  V30 6413 H 615.876 1.2248 4.8786 0
M  V30 6414 H 615.576 2.97037 5.06994 0
M  V30 6415 H 617.1 2.25901 5.67275 0
M  V30 6416 H 618.514 3.94947 4.1556 0
M  V30 6417 H 616.911 4.65175 3.7912 0
M  V30 6418 H 617.981 4.17927 2.45896 0
M  V30 6419 N 619.324 -0.923095 1.27737 0
M  V30 6420 C 620.572 -1.66797 1.14119 0
M  V30 6421 C 620.893 -1.92479 -0.312541 0
M  V30 6422 O 620.163 -1.53432 -1.218 0
M  V30 6423 H 618.743 -0.618196 0.419336 0
M  V30 6424 H 621.405 -1.10815 1.60331 0
M  V30 6425 H 620.501 -2.63424 1.67374 0
M  V30 6426 N 620.802 -1.09834 -1.13024 0
M  V30 6427 C 621.765 -0.745058 -2.16752 0
M  V30 6428 C 622.765 0.227435 -1.59183 0
M  V30 6429 O 623.955 0.0050786 -1.74199 0
M  V30 6430 C 621.087 -0.102543 -3.40746 0
M  V30 6431 H 622.28 -1.66375 -2.49518 0
M  V30 6432 H 619.833 -0.898061 -1.27924 0
M  V30 6433 H 620.568 0.827177 -3.13573 0
M  V30 6434 H 620.353 -0.80235 -3.83803 0
M  V30 6435 H 621.843 0.129082 -4.174 0
M  V30 6436 N 622.28 1.30327 -0.886154 0
M  V30 6437 C 623.696 1.48676 -0.580323 0
M  V30 6438 C 623.896 1.81189 0.881639 0
M  V30 6439 O 622.952 1.90021 1.66278 0
M  V30 6440 C 624.265 2.60932 -1.49449 0
M  V30 6441 C 625.813 2.74812 -1.49824 0
M  V30 6442 C 626.288 3.90183 -2.39836 0
M  V30 6443 N 627.779 3.97495 -2.37806 0
M  V30 6444 C 628.514 4.86078 -3.04165 0
M  V30 6445 N 628.01 5.79448 -3.79753 0
M  V30 6446 N 629.803 4.79456 -2.93391 0
M  V30 6447 H 621.954 1.07495 -1.8319 0
M  V30 6448 H 624.217 0.532661 -0.784204 0
M  V30 6449 H 623.923 2.43731 -2.5355 0
M  V30 6450 H 623.797 3.57437 -1.20494 0
M  V30 6451 H 626.184 2.91418 -0.464731 0
M  V30 6452 H 626.265 1.78924 -1.82811 0
M  V30 6453 H 625.909 3.74334 -3.43273 0
M  V30 6454 H 625.839 4.85411 -2.04166 0
M  V30 6455 H 628.33 3.30703 -1.82877 0
M  V30 6456 H 628.643 6.43805 -4.27475 0
M  V30 6457 H 626.988 5.79376 -3.8386 0
M  V30 6458 H 630.179 4.05494 -2.33864 0
M  V30 6459 H 630.352 5.48283 -3.45383 0
M  V30 6460 N 623.758 0.647228 1.43697 0
M  V30 6461 C 625.035 0.0883758 1.954 0
M  V30 6462 C 625.415 -1.39006 1.58873 0
M  V30 6463 O 624.763 -2.11255 0.87083 0
M  V30 6464 C 624.973 0.328263 3.47453 0
M  V30 6465 C 626.321 0.230009 4.23977 0
M  V30 6466 O 627.345 0.260496 3.55246 0
M  V30 6467 O 626.204 0.148615 5.46298 0
M  V30 6468 H 623.298 -0.0130683 0.826897 0
M  V30 6469 H 625.844 0.72005 1.53666 0
M  V30 6470 H 624.616 1.3535 3.67146 0
M  V30 6471 H 624.239 -0.336772 3.96171 0
M  V30 6472 N 625.236 -1.5273 0.388769 0
M  V30 6473 C 626.513 -1.93981 -0.251133 0
M  V30 6474 C 626.893 -1.32418 -1.64404 0
M  V30 6475 O 626.241 -0.492074 -2.23139 0
M  V30 6476 C 626.451 -3.47891 -0.27802 0
M  V30 6477 C 627.799 -4.21559 -0.507229 0
M  V30 6478 O 628.823 -3.54394 -0.358252 0
M  V30 6479 O 627.682 -5.40626 -0.799094 0
M  V30 6480 H 624.776 -0.812157 -0.15598 0
M  V30 6481 H 627.322 -1.63809 0.443237 0
M  V30 6482 H 626.094 -3.8503 0.697669 0
M  V30 6483 H 625.717 -3.84364 -1.01733 0
M  V30 6484 N 626.714 -0.118576 -1.57153 0
M  V30 6485 C 627.677 0.817464 -2.14127 0
M  V30 6486 C 628.677 1.1949 -1.07604 0
M  V30 6487 O 629.867 1.12048 -1.33382 0
M  V30 6488 C 626.999 2.10541 -2.68115 0
M  V30 6489 H 628.192 0.322339 -2.98163 0
M  V30 6490 H 625.745 0.130655 -1.55753 0
M  V30 6491 H 626.48 2.64485 -1.87665 0
M  V30 6492 H 626.265 1.84425 -3.4602 0
M  V30 6493 H 627.755 2.77453 -3.12105 0
M  V30 6494 N 628.193 1.56834 0.155195 0
M  V30 6495 C 629.126 1.9278 1.22111 0
M  V30 6496 C 630.104 0.792588 1.41975 0
M  V30 6497 O 631.288 1.04743 1.5672 0
M  V30 6498 C 628.415 2.19273 2.58142 0
M  V30 6499 C 627.461 3.41932 2.54921 0
M  V30 6500 S 628.294 4.95769 2.02418 0
M  V30 6501 C 629.45 5.25375 3.40194 0
M  V30 6502 H 629.683 2.82889 0.914393 0
M  V30 6503 H 627.216 1.50133 0.360461 0
M  V30 6504 H 629.174 2.35217 3.36427 0
M  V30 6505 H 627.835 1.29843 2.86007 0
M  V30 6506 H 627.028 3.57721 3.55038 0
M  V30 6507 H 626.63 3.25188 1.8474 0
M  V30 6508 H 628.922 5.1834 4.36268 0
M  V30 6509 H 629.865 6.26889 3.29266 0
M  V30 6510 H 630.273 4.52906 3.36951 0
M  V30 6511 N 629.671 -0.424282 1.51781 0
M  V30 6512 C 630.919 -1.17028 1.64769 0
M  V30 6513 C 631.24 -1.91409 0.372523 0
M  V30 6514 O 630.51 -1.86091 -0.612108 0
M  V30 6515 H 629.09 -0.434992 0.607282 0
M  V30 6516 H 631.752 -0.485169 1.88765 0
M  V30 6517 H 630.848 -1.8927 2.4816 0
M  V30 6518 N 631.149 -1.42148 -0.680565 0
M  V30 6519 C 632.082 -1.39602 -1.80517 0
M  V30 6520 C 633.06 -0.261098 -1.6049 0
M  V30 6521 O 634.244 -0.450404 -1.8304 0
M  V30 6522 C 631.371 -1.18134 -3.1743 0
M  V30 6523 C 630.417 -2.34543 -3.56219 0
M  V30 6524 S 631.25 -3.97063 -3.59306 0
M  V30 6525 C 632.406 -3.77926 -4.98921 0
M  V30 6526 H 632.639 -2.3477 -1.82402 0
M  V30 6527 H 630.172 -1.28851 -0.850691 0
M  V30 6528 H 632.13 -1.06434 -3.96462 0
M  V30 6529 H 630.791 -0.245611 -3.13138 0
M  V30 6530 H 629.984 -2.15255 -4.55721 0
M  V30 6531 H 629.586 -2.42728 -2.84533 0
M  V30 6532 H 631.878 -3.3856 -5.86842 0
M  V30 6533 H 632.821 -4.77084 -5.23256 0
M  V30 6534 H 633.229 -3.10904 -4.71167 0
M  V30 6535 N 632.627 0.916307 -1.28225 0
M  V30 6536 C 633.559 2.02303 -1.07732 0
M  V30 6537 C 634.572 1.62773 -0.0298421 0
M  V30 6538 O 635.761 1.76406 -0.272626 0
M  V30 6539 C 632.861 3.33282 -0.614504 0
M  V30 6540 C 632.034 4.01439 -1.73682 0
M  V30 6541 C 631.093 5.10698 -1.26781 0
M  V30 6542 O 630.119 5.34038 -1.96958 0
M  V30 6543 N 631.321 5.80355 -0.129624 0
M  V30 6544 H 634.086 2.20442 -2.03041 0
M  V30 6545 H 631.647 1.08744 -1.19943 0
M  V30 6546 H 633.639 4.03699 -0.284397 0
M  V30 6547 H 632.209 3.11633 0.245664 0
M  V30 6548 H 631.429 3.24604 -2.23665 0
M  V30 6549 H 632.717 4.43721 -2.48976 0
M  V30 6550 H 632.115 5.6386 0.455847 0
M  V30 6551 H 630.672 6.51647 0.141224 0
M  V30 6552 N 634.105 1.10431 1.1244 0
M  V30 6553 C 635.335 0.867612 1.87499 0
M  V30 6554 C 635.743 -0.585475 1.79913 0
M  V30 6555 O 635.086 -1.41539 1.171 0
M  V30 6556 C 635.148 1.2374 3.37533 0
M  V30 6557 C 634.812 2.69751 3.68895 0
M  V30 6558 C 635.809 3.67988 3.67261 0
M  V30 6559 C 633.494 3.06135 3.98229 0
M  V30 6560 C 635.488 5.00632 3.9452 0
M  V30 6561 C 633.175 4.38967 4.25149 0
M  V30 6562 C 634.173 5.36025 4.23281 0
M  V30 6563 O 633.861 6.66465 4.49533 0
M  V30 6564 H 633.593 0.311196 0.600111 0
M  V30 6565 H 636.147 1.47257 1.43194 0
M  V30 6566 H 634.377 0.575537 3.82393 0
M  V30 6567 H 636.066 0.978187 3.93937 0
M  V30 6568 H 636.832 3.41224 3.44661 0
M  V30 6569 H 632.711 2.31214 3.98825 0
M  V30 6570 H 636.255 5.7638 3.92978 0
M  V30 6571 H 632.152 4.6547 4.47223 0
M  V30 6572 H 632.92 6.72095 4.67152 0
M  V30 6573 N 635.583 -1.29855 0.893053 0
M  V30 6574 C 636.513 -2.3035 0.382249 0
M  V30 6575 C 637.494 -1.61328 -0.539203 0
M  V30 6576 O 638.679 -1.88882 -0.451342 0
M  V30 6577 C 635.809 -3.45024 -0.396983 0
M  V30 6578 C 634.763 -4.258 0.433437 0
M  V30 6579 C 634.089 -5.32605 -0.472889 0
M  V30 6580 C 635.389 -4.94549 1.67984 0
M  V30 6581 H 637.083 -2.73325 1.22205 0
M  V30 6582 H 634.629 -1.314 0.589073 0
M  V30 6583 H 636.582 -4.14398 -0.765024 0
M  V30 6584 H 635.306 -3.00875 -1.2705 0
M  V30 6585 H 633.965 -3.58125 0.783723 0
M  V30 6586 H 633.613 -4.84702 -1.34435 0
M  V30 6587 H 633.313 -5.87547 0.0789958 0
M  V30 6588 H 634.837 -6.04832 -0.837269 0
M  V30 6589 H 636.251 -5.56395 1.38192 0
M  V30 6590 H 634.648 -5.59393 2.17254 0
M  V30 6591 H 635.718 -4.20215 2.41965 0
M  V30 6592 N 637.061 -0.65484 -1.43351 0
M  V30 6593 C 638.31 -0.166215 -2.01014 0
M  V30 6594 C 638.623 1.22764 -1.52278 0
M  V30 6595 O 639.829 1.81156 -2.02224 0
M  V30 6596 C 638.285 -0.246341 -3.59056 0
M  V30 6597 C 637.893 -1.64299 -4.16785 0
M  V30 6598 C 639.637 0.184597 -4.24098 0
M  V30 6599 C 637.544 -1.67695 -5.67126 0
M  V30 6600 H 636.474 -0.0583769 -0.751737 0
M  V30 6601 H 639.125 -0.817111 -1.64303 0
M  V30 6602 H 637.507 0.472092 -3.93176 0
M  V30 6603 H 638.681 -2.3869 -3.94162 0
M  V30 6604 H 636.996 -2.02004 -3.6412 0
M  V30 6605 H 639.593 0.179088 -5.344 0
M  V30 6606 H 639.936 1.21632 -3.98135 0
M  V30 6607 H 640.469 -0.482141 -3.94867 0
M  V30 6608 H 637.208 -2.68783 -5.9786 0
M  V30 6609 H 636.728 -0.976313 -5.91801 0
M  V30 6610 H 638.407 -1.42142 -6.31193 0
M  V30 6611 N 638.539 1.52521 -0.396863 0
M  V30 6612 C 639.95 1.86547 0.0754868 0
M  V30 6613 C 640.301 1.31621 1.45501 0
M  V30 6614 O 639.426 0.650563 2.0639 0
M  V30 6615 C 640.021 3.38495 0.143754 0
M  V30 6616 C 638.58 3.72205 0.560413 0
M  V30 6617 C 637.727 2.75954 -0.272856 0
M  V30 6618 H 640.678 1.46323 -0.614434 0
M  V30 6619 H 640.699 3.68153 0.961425 0
M  V30 6620 H 640.211 3.78442 -0.860415 0
M  V30 6621 H 638.312 3.3783 1.57167 0
M  V30 6622 H 638.425 4.78074 0.313314 0
M  V30 6623 H 636.789 2.53339 0.263 0
M  V30 6624 H 637.572 3.1874 -1.27515 0
M  V30 6625 N 640.017 0.126909 1.57088 0
M  V30 6626 C 641.265 -0.528123 1.95078 0
M  V30 6627 C 641.586 -1.66708 1.0116 0
M  V30 6628 O 640.856 -1.95777 0.0693527 0
M  V30 6629 H 639.436 -0.198087 0.720257 0
M  V30 6630 H 642.098 0.197703 1.93895 0
M  V30 6631 H 641.194 -0.917507 2.98309 0
M  V30 6632 N 641.495 -1.56914 -0.146875 0
M  V30 6633 C 642.741 -1.84515 -0.855914 0
M  V30 6634 C 643.096 -0.710909 -1.78784 0
M  V30 6635 O 642.389 0.291123 -1.89375 0
M  V30 6636 C 642.583 -3.16128 -1.66727 0
M  V30 6637 C 642.412 -4.42246 -0.815405 0
M  V30 6638 C 641.182 -5.03006 -0.480976 0
M  V30 6639 C 643.38 -5.14094 -0.145684 0
M  V30 6640 N 641.362 -6.12695 0.384476 0
M  V30 6641 C 642.733 -6.17282 0.579902 0
M  V30 6642 C 644.788 -4.97856 -0.0663705 0
M  V30 6643 C 643.491 -7.0599 1.37731 0
M  V30 6644 C 645.517 -5.87028 0.71778 0
M  V30 6645 C 644.879 -6.89698 1.43165 0
M  V30 6646 H 640.978 -0.725829 -0.291026 0
M  V30 6647 H 643.562 -1.94322 -0.121279 0
M  V30 6648 H 641.733 -3.07468 -2.37315 0
M  V30 6649 H 643.465 -3.31635 -2.31949 0
M  V30 6650 H 640.22 -4.66504 -0.816789 0
M  V30 6651 H 640.644 -6.72158 0.80823 0
M  V30 6652 H 645.286 -4.18465 -0.603929 0
M  V30 6653 H 643.004 -7.84809 1.92613 0
M  V30 6654 H 646.59 -5.76532 0.781141 0
M  V30 6655 H 645.47 -7.57505 2.02868 0
M  V30 6656 N 642.974 0.416227 -1.52004 0
M  V30 6657 C 644.202 1.18573 -1.69553 0
M  V30 6658 C 644.617 1.84472 -0.401919 0
M  V30 6659 O 643.974 1.71593 0.621463 0
M  V30 6660 C 644.025 2.25413 -2.82615 0
M  V30 6661 O 643.746 1.62205 -4.06966 0
M  V30 6662 C 645.247 3.15297 -3.11613 0
M  V30 6663 H 642.467 0.356582 -0.56841 0
M  V30 6664 H 645.011 0.490618 -1.98528 0
M  V30 6665 H 643.166 2.90604 -2.56179 0
M  V30 6666 H 643.58 2.3298 -4.69916 0
M  V30 6667 H 645.054 3.86351 -3.94255 0
M  V30 6668 H 645.531 3.77264 -2.24874 0
M  V30 6669 H 646.137 2.55783 -3.39787 0
M  V30 6670 N 644.452 1.42507 0.673017 0
M  V30 6671 C 645.699 1.43072 1.43306 0
M  V30 6672 C 646.027 0.0478004 1.94441 0
M  V30 6673 O 645.282 -0.944106 1.71421 0
M  V30 6674 C 645.581 2.40351 2.64511 0
M  V30 6675 C 645.247 3.8669 2.31908 0
M  V30 6676 C 643.909 4.26551 2.22728 0
M  V30 6677 C 646.261 4.78991 2.05467 0
M  V30 6678 C 643.589 5.56691 1.85234 0
M  V30 6679 C 645.941 6.09476 1.69477 0
M  V30 6680 C 644.605 6.48334 1.58808 0
M  V30 6681 H 643.875 0.523536 0.524395 0
M  V30 6682 H 646.522 1.75459 0.76723 0
M  V30 6683 H 644.827 2.01297 3.36135 0
M  V30 6684 H 646.524 2.38051 3.22696 0
M  V30 6685 H 643.114 3.55132 2.39956 0
M  V30 6686 H 647.298 4.48982 2.11492 0
M  V30 6687 H 642.554 5.85657 1.75545 0
M  V30 6688 H 646.728 6.80482 1.48043 0
M  V30 6689 H 644.355 7.49084 1.29525 0
M  V30 6690 N 645.93 -0.909495 1.28709 0
M  V30 6691 C 647.207 -1.63865 1.06806 0
M  V30 6692 C 647.587 -2.07445 -0.391143 0
M  V30 6693 O 646.935 -1.82269 -1.37805 0
M  V30 6694 C 647.145 -2.82692 2.04661 0
M  V30 6695 C 648.493 -3.5361 2.35042 0
M  V30 6696 O 649.517 -2.92847 2.02779 0
M  V30 6697 O 648.376 -4.63131 2.90124 0
M  V30 6698 H 645.47 -0.719065 0.408502 0
M  V30 6699 H 648.016 -0.958424 1.40044 0
M  V30 6700 H 646.788 -2.47614 3.0299 0
M  V30 6701 H 646.411 -3.58426 1.72095 0
M  V30 6702 N 647.408 -1.11026 -1.11852 0
M  V30 6703 C 648.356 -0.759643 -2.19846 0
M  V30 6704 C 649.35 0.246964 -1.6759 0
M  V30 6705 O 650.556 0.106693 -1.79684 0
M  V30 6706 H 646.931 -0.22775 -0.716683 0
M  V30 6707 H 648.902 -1.6792 -2.46669 0
M  V30 6708 C 647.651 -0.214364 -3.47039 0
M  V30 6709 H 646.974 -0.980175 -3.87599 0
M  V30 6710 H 648.414 -0.00717047 -4.23999 0
M  V30 6711 C 646.873 1.05436 -3.19976 0
M  V30 6712 O 647.403 2.13483 -3.40276 0
M  V30 6713 N 645.609 0.975436 -2.7374 0
M  V30 6714 H 645.156 0.0960853 -2.57421 0
M  V30 6715 H 645.114 1.82501 -2.5601 0
M  V30 6716 N 648.886 1.2938 -0.899927 0
M  V30 6717 C 649.833 2.27713 -0.376243 0
M  V30 6718 C 650.803 1.57016 0.541774 0
M  V30 6719 O 651.988 1.84997 0.466966 0
M  V30 6720 C 649.128 3.42889 0.39 0
M  V30 6721 C 648.241 4.28369 -0.558938 0
M  V30 6722 C 647.376 5.30726 0.224379 0
M  V30 6723 C 646.415 6.07862 -0.719068 0
M  V30 6724 N 645.552 7.02094 0.0298569 0
M  V30 6725 H 650.392 2.71888 -1.21988 0
M  V30 6726 H 647.929 1.33724 -0.612879 0
M  V30 6727 H 649.887 4.08443 0.850314 0
M  V30 6728 H 648.517 2.99743 1.19809 0
M  V30 6729 H 647.569 3.62986 -1.13777 0
M  V30 6730 H 648.881 4.82068 -1.2811 0
M  V30 6731 H 648.035 6.02098 0.745881 0
M  V30 6732 H 646.774 4.77759 0.979674 0
M  V30 6733 H 645.779 5.35353 -1.25207 0
M  V30 6734 H 647.004 6.62917 -1.4737 0
M  V30 6735 H 644.95 6.51496 0.767415 0
M  V30 6736 H 644.867 7.5335 -0.632391 0
M  V30 6737 H 646.135 7.77685 0.531615 0
M  V30 6738 N 650.364 0.662433 1.43002 0
M  V30 6739 C 651.78 0.330835 1.56133 0
M  V30 6740 C 651.98 -1.16454 1.64441 0
M  V30 6741 O 651.036 -1.94964 1.60453 0
M  V30 6742 C 652.349 1.05029 2.81761 0
M  V30 6743 C 653.897 1.03142 2.95518 0
M  V30 6744 C 654.372 1.73196 4.2399 0
M  V30 6745 N 655.863 1.70004 4.30875 0
M  V30 6746 C 656.598 2.21074 5.29069 0
M  V30 6747 N 656.094 2.80473 6.33488 0
M  V30 6748 N 657.887 2.1152 5.20784 0
M  V30 6749 H 650.038 1.63272 1.35853 0
M  V30 6750 H 652.301 0.687149 0.653092 0
M  V30 6751 H 652.007 2.10542 2.81718 0
M  V30 6752 H 651.881 0.607664 3.72273 0
M  V30 6753 H 654.268 -0.0153339 2.95096 0
M  V30 6754 H 654.349 1.51282 2.0627 0
M  V30 6755 H 653.993 2.77833 4.25172 0
M  V30 6756 H 653.923 1.22515 5.1215 0
M  V30 6757 H 656.414 1.26667 3.56039 0
M  V30 6758 H 656.727 3.17094 7.04749 0
M  V30 6759 H 655.072 2.84538 6.34085 0
M  V30 6760 H 658.263 1.64814 4.38126 0
M  V30 6761 H 658.436 2.51629 5.97149 0
M  V30 6762 N 651.842 -1.52309 0.404946 0
M  V30 6763 C 653.253 -1.86585 -0.0655926 0
M  V30 6764 C 653.604 -1.3239 -1.44801 0
M  V30 6765 O 652.729 -0.6615 -2.06042 0
M  V30 6766 C 653.324 -3.38566 -0.125801 0
M  V30 6767 C 651.883 -3.72497 -0.540666 0
M  V30 6768 C 651.03 -2.75806 0.287487 0
M  V30 6769 H 653.981 -1.45995 0.622185 0
M  V30 6770 H 654.002 -3.68658 -0.941888 0
M  V30 6771 H 653.514 -3.77981 0.880473 0
M  V30 6772 H 651.615 -3.38659 -1.55373 0
M  V30 6773 H 651.728 -4.78234 -0.287956 0
M  V30 6774 H 650.092 -2.53474 -0.249561 0
M  V30 6775 H 650.875 -3.18059 1.29203 0
M  V30 6776 N 653.32 -0.135238 -1.57019 0
M  V30 6777 C 654.56 0.521686 -1.9763 0
M  V30 6778 C 654.924 1.62804 -1.01778 0
M  V30 6779 O 656.125 2.345 -1.31389 0
M  V30 6780 C 654.396 1.0257 -3.42365 0
M  V30 6781 S 655.955 1.68888 -4.04997 0
M  V30 6782 H 652.773 0.169064 -0.690607 0
M  V30 6783 H 655.375 -0.224168 -1.94211 0
M  V30 6784 H 654.079 0.209556 -4.09865 0
M  V30 6785 H 653.61 1.80645 -3.49472 0
M  V30 6786 H 655.625 2.97554 -3.97084 0
M  V30 6787 N 654.798 1.5699 0.138552 0
M  V30 6788 C 655.731 1.94064 1.2006 0
M  V30 6789 C 656.709 0.807601 1.41126 0
M  V30 6790 O 657.893 1.06399 1.556 0
M  V30 6791 C 655.02 2.21999 2.55801 0
M  V30 6792 C 654.066 3.44617 2.5128 0
M  V30 6793 S 654.899 4.97888 1.97149 0
M  V30 6794 C 656.055 5.28954 3.34602 0
M  V30 6795 H 656.288 2.83843 0.884337 0
M  V30 6796 H 653.821 1.50507 0.344517 0
M  V30 6797 H 655.779 2.38772 3.33914 0
M  V30 6798 H 654.44 1.32869 2.84613 0
M  V30 6799 H 653.633 3.61466 3.51224 0
M  V30 6800 H 653.235 3.27129 1.8128 0
M  V30 6801 H 655.527 5.22938 4.30745 0
M  V30 6802 H 656.47 6.30346 3.22598 0
M  V30 6803 H 656.878 4.56455 3.32128 0
M  V30 6804 N 656.276 -0.40816 1.52223 0
M  V30 6805 C 657.522 -1.15673 1.66576 0
M  V30 6806 C 657.855 -1.90141 0.394996 0
M  V30 6807 O 657.13 -1.84798 -0.606613 0
M  V30 6808 C 657.413 -2.15042 2.88841 0
M  V30 6809 C 657.266 -1.44465 4.25969 0
M  V30 6810 C 658.585 -3.15699 3.0663 0
M  V30 6811 H 655.704 -0.41916 0.606196 0
M  V30 6812 H 658.346 -0.442348 1.84779 0
M  V30 6813 H 656.496 -2.75964 2.73452 0
M  V30 6814 H 658.168 -0.866544 4.53088 0
M  V30 6815 H 656.411 -0.746612 4.27327 0
M  V30 6816 H 657.082 -2.16976 5.07568 0
M  V30 6817 H 659.558 -2.64854 3.20923 0
M  V30 6818 H 658.434 -3.82491 3.9369 0
M  V30 6819 H 658.695 -3.83481 2.19987 0
M  V30 6820 N 657.755 -1.42862 -0.66545 0
M  V30 6821 C 659.171 -1.25993 -0.979687 0
M  V30 6822 C 659.371 -0.170831 -2.00775 0
M  V30 6823 O 658.427 0.454827 -2.4837 0
M  V30 6824 C 659.74 -2.62005 -1.47559 0
M  V30 6825 C 661.288 -2.69437 -1.59288 0
M  V30 6826 C 661.763 -4.05838 -2.12272 0
M  V30 6827 N 663.254 -4.0784 -2.19592 0
M  V30 6828 C 663.989 -5.10205 -2.61684 0
M  V30 6829 N 663.485 -6.22949 -3.03161 0
M  V30 6830 N 665.278 -4.9756 -2.61516 0
M  V30 6831 H 657.429 -2.12395 0.0150493 0
M  V30 6832 H 659.692 -0.946355 -0.0558187 0
M  V30 6833 H 659.398 -3.42605 -0.794654 0
M  V30 6834 H 659.272 -2.86566 -2.45275 0
M  V30 6835 H 661.659 -1.89178 -2.26486 0
M  V30 6836 H 661.74 -2.48655 -0.600374 0
M  V30 6837 H 661.384 -4.86559 -1.4568 0
M  V30 6838 H 661.314 -4.23977 -3.12331 0
M  V30 6839 H 663.805 -3.26452 -1.90361 0
M  V30 6840 H 664.118 -6.96899 -3.33993 0
M  V30 6841 H 662.463 -6.2644 -3.00995 0
M  V30 6842 H 665.654 -4.08551 -2.28481 0
M  V30 6843 H 665.827 -5.77468 -2.93999 0
M  V30 6844 O 659.272 0.808226 -1.39821 0
M  V30 6845 H 659.963 1.45282 -1.28112 0
M  V30 END ATOM
M  V30 BEGIN BOND
M  V30 END BOND
M  V30 END CTAB
M  END
$$$$
