drugbank_target|O25927 Acyl-[acyl-carrier-protein]--UDP-N-acetylglucosamine O-acyltransferase (DB01694; DB08558)
 OpenBabel12092120223D

  0  0  0     0  0            999 V3000
M  V30 BEGIN CTAB
M  V30 COUNTS 4222 4259 0 0 0
M  V30 BEGIN ATOM
M  V30 1 H -0.908 1.98254 -0.117106 0
M  V30 2 N 0 1.576 0 0
M  V30 3 C 0.933 2.03868 1.02534 0
M  V30 4 C 1.911 0.928543 1.3348 0
M  V30 5 O 3.095 1.19667 1.45644 0
M  V30 6 C 0.222 2.43627 2.35294 0
M  V30 7 C -0.732 3.65373 2.2001 0
M  V30 8 S 0.101 5.13292 1.52614 0
M  V30 9 C 1.257 5.56322 2.86805 0
M  V30 10 H 1.49 2.90518 0.631377 0
M  V30 11 H -0.977 1.52953 0.210867 0
M  V30 12 H 0.981 2.67203 3.11629 0
M  V30 13 H -0.358 1.57376 2.7183 0
M  V30 14 H -1.165 3.90944 3.18086 0
M  V30 15 H -1.563 3.418 1.51819 0
M  V30 16 H 0.729 5.58782 3.83104 0
M  V30 17 H 1.672 6.56266 2.65933 0
M  V30 18 H 2.08 4.83886 2.90714 0
M  V30 19 N 1.4781 -0.272755 1.55222 0
M  V30 20 C 2.7031 -1.02683 1.80197 0
M  V30 21 C 3.1281 -1.79142 0.573551 0
M  V30 22 O 2.4861 -1.74917 -0.476849 0
M  V30 23 C 2.5341 -1.9609 3.02624 0
M  V30 24 O 1.6381 -3.04863 2.77727 0
M  V30 25 H 0.9791 -0.293557 0.595584 0
M  V30 26 H 3.5091 -0.30159 2.02365 0
M  V30 27 H 3.5191 -2.38039 3.31363 0
M  V30 28 H 2.1941 -1.39851 3.91682 0
M  V30 29 H 0.7711 -2.67228 2.60084 0
M  V30 30 N 2.9562 -1.48159 -0.537278 0
M  V30 31 C 3.9032 -1.62138 -1.64256 0
M  V30 32 C 4.8732 -0.463668 -1.59497 0
M  V30 33 O 6.0582 -0.686241 -1.78032 0
M  V30 34 C 3.1982 -1.66028 -3.02537 0
M  V30 35 C 2.3112 -2.92855 -3.17585 0
M  V30 36 C 1.4462 -2.87952 -4.46382 0
M  V30 37 C 0.4852 -4.09516 -4.54932 0
M  V30 38 N -0.3778 -4.02733 -5.75109 0
M  V30 39 H 4.4622 -2.56529 -1.51647 0
M  V30 40 H 1.9992 -1.27224 -0.738414 0
M  V30 41 H 3.9572 -1.66265 -3.82638 0
M  V30 42 H 2.5872 -0.751331 -3.13934 0
M  V30 43 H 1.6392 -3.02395 -2.30784 0
M  V30 44 H 2.9512 -3.82822 -3.19764 0
M  V30 45 H 2.1052 -2.8655 -5.34765 0
M  V30 46 H 0.8442 -1.95702 -4.46712 0
M  V30 47 H -0.1508 -4.11201 -3.64957 0
M  V30 48 H 1.0742 -5.02917 -4.56346 0
M  V30 49 H -0.9798 -3.13299 -5.76351 0
M  V30 50 H -1.0628 -4.86397 -5.78752 0
M  V30 51 H 0.2052 -4.05379 -6.65799 0
M  V30 52 N 4.4343 0.785586 -1.36625 0
M  V30 53 C 5.6833 1.53883 -1.30396 0
M  V30 54 C 5.9963 1.95271 0.113452 0
M  V30 55 O 7.2023 2.69858 0.298142 0
M  V30 56 C 5.6583 2.77808 -2.28802 0
M  V30 57 C 5.2663 2.43574 -3.75999 0
M  V30 58 C 7.0103 3.55783 -2.31558 0
M  V30 59 C 4.9173 3.63919 -4.66173 0
M  V30 60 H 3.8473 0.577678 -0.484566 0
M  V30 61 H 6.4983 0.861705 -1.62009 0
M  V30 62 H 4.8803 3.47339 -1.90188 0
M  V30 63 H 6.0543 1.81916 -4.23371 0
M  V30 64 H 4.3693 1.78803 -3.76056 0
M  V30 65 H 6.9663 4.45205 -2.96137 0
M  V30 66 H 7.3093 3.94644 -1.3252 0
M  V30 67 H 7.8423 2.93235 -2.68809 0
M  V30 68 H 4.5813 3.3015 -5.66287 0
M  V30 69 H 4.1013 4.2473 -4.23515 0
M  V30 70 H 5.7803 4.30901 -4.82632 0
M  V30 71 N 5.9124 1.20967 1.01018 0
M  V30 72 C 6.8754 0.965918 2.07853 0
M  V30 73 C 7.8754 -0.0610545 1.60684 0
M  V30 74 O 9.0654 0.175681 1.73312 0
M  V30 75 C 6.1974 0.455513 3.37843 0
M  V30 76 H 7.3904 1.91365 2.3091 0
M  V30 77 H 4.9434 1.02594 1.17916 0
M  V30 78 H 5.6784 -0.497381 3.20463 0
M  V30 79 H 5.4634 1.19622 3.73407 0
M  V30 80 H 6.9534 0.304667 4.16487 0
M  V30 81 N 7.3905 -1.2043 1.01659 0
M  V30 82 C 8.3375 -2.23215 0.586822 0
M  V30 83 C 9.3075 -1.61382 -0.393085 0
M  V30 84 O 10.4925 -1.88544 -0.292525 0
M  V30 85 C 7.6325 -3.45032 -0.0687464 0
M  V30 86 C 6.7455 -4.21296 0.955724 0
M  V30 87 C 5.8805 -5.30507 0.271208 0
M  V30 88 C 4.9195 -5.98515 1.28244 0
M  V30 89 N 4.0565 -6.99316 0.62459 0
M  V30 90 H 8.8965 -2.59336 1.46796 0
M  V30 91 H 6.4335 -1.27431 0.734836 0
M  V30 92 H 8.3915 -4.1459 -0.465965 0
M  V30 93 H 7.0215 -3.09604 -0.913529 0
M  V30 94 H 6.0735 -3.50803 1.4711 0
M  V30 95 H 7.3855 -4.6803 1.72479 0
M  V30 96 H 6.5395 -6.06428 -0.18151 0
M  V30 97 H 5.2785 -4.8481 -0.530163 0
M  V30 98 H 4.2835 -5.21355 1.74554 0
M  V30 99 H 5.5085 -6.46298 2.08509 0
M  V30 100 H 3.4545 -6.55812 -0.156914 0
M  V30 101 H 3.3715 -7.44178 1.33172 0
M  V30 102 H 4.6395 -7.79255 0.195462 0
M  V30 103 N 8.8686 -0.792821 -1.36206 0
M  V30 104 C 10.0966 -0.378825 -2.03402 0
M  V30 105 C 10.5116 1.00586 -1.59774 0
M  V30 106 O 9.8686 1.64574 -0.788764 0
M  V30 107 C 9.9196 -0.43683 -3.58851 0
M  V30 108 O 9.6406 -1.76691 -4.00889 0
M  V30 109 C 11.1416 -0.0138943 -4.43298 0
M  V30 110 H 8.3616 -0.155673 -0.652692 0
M  V30 111 H 10.9056 -1.07261 -1.74113 0
M  V30 112 H 9.0606 0.208575 -3.86838 0
M  V30 113 H 9.4746 -1.72011 -4.95492 0
M  V30 114 H 10.9486 -0.105615 -5.51899 0
M  V30 115 H 11.4256 1.03915 -4.2673 0
M  V30 116 H 12.0316 -0.63192 -4.20579 0
M  V30 117 N 10.3467 1.47872 -0.545128 0
M  V30 118 C 11.3097 2.28337 0.198717 0
M  V30 119 C 12.3097 1.36255 0.853888 0
M  V30 120 O 13.4997 1.59003 0.711606 0
M  V30 121 C 10.6317 3.15585 1.28915 0
M  V30 122 H 11.8247 2.95567 -0.507941 0
M  V30 123 H 9.3777 1.53362 -0.301616 0
M  V30 124 H 10.1127 2.53019 2.02859 0
M  V30 125 H 9.8977 3.83337 0.824309 0
M  V30 126 H 11.3877 3.76243 1.81194 0
M  V30 127 N 11.8248 0.280983 1.55075 0
M  V30 128 C 13.0738 -0.334784 1.98902 0
M  V30 129 C 13.3868 -1.56534 1.17288 0
M  V30 130 O 14.5928 -2.25443 1.51287 0
M  V30 131 C 13.0488 -0.646994 3.54037 0
M  V30 132 C 12.6568 0.564085 4.44435 0
M  V30 133 C 14.4008 -1.22506 4.06439 0
M  V30 134 C 12.3078 0.226137 5.90967 0
M  V30 135 H 11.2378 -0.128866 0.742906 0
M  V30 136 H 13.8888 0.386556 1.79382 0
M  V30 137 H 12.2708 -1.42739 3.6938 0
M  V30 138 H 13.4448 1.34082 4.40861 0
M  V30 139 H 11.7598 1.0594 4.02698 0
M  V30 140 H 14.3568 -1.49182 5.13468 0
M  V30 141 H 14.6998 -2.16085 3.55827 0
M  V30 142 H 15.2328 -0.50682 3.94558 0
M  V30 143 H 11.9718 1.12996 6.45687 0
M  V30 144 H 11.4918 -0.513717 5.97596 0
M  V30 145 H 13.1708 -0.179539 6.46751 0
M  V30 146 N 13.3029 -1.57598 0.00835791 0
M  V30 147 C 14.5519 -1.90107 -0.673968 0
M  V30 148 C 14.8649 -0.884275 -1.7447 0
M  V30 149 O 16.0709 -1.09987 -2.48224 0
M  V30 150 C 14.5269 -3.37497 -1.24995 0
M  V30 151 C 14.1349 -4.47491 -0.2136 0
M  V30 152 C 15.8789 -3.79104 -1.90999 0
M  V30 153 C 13.7859 -5.85963 -0.80005 0
M  V30 154 H 12.7159 -0.709393 -0.255495 0
M  V30 155 H 15.3669 -1.83365 0.0702693 0
M  V30 156 H 13.7489 -3.39102 -2.04513 0
M  V30 157 H 14.9229 -4.57414 0.557596 0
M  V30 158 H 13.2379 -4.14956 0.346474 0
M  V30 159 H 15.8349 -4.79901 -2.35795 0
M  V30 160 H 16.1779 -3.1306 -2.74407 0
M  V30 161 H 16.7109 -3.79833 -1.18203 0
M  V30 162 H 13.4499 -6.555 -0.00456708 0
M  V30 163 H 12.9699 -5.79687 -1.54021 0
M  V30 164 H 14.6489 -6.33884 -1.29615 0
M  V30 165 N 14.781 0.264519 -1.55364 0
M  V30 166 C 16.006 1.01726 -1.80739 0
M  V30 167 C 16.431 1.78836 -0.583044 0
M  V30 168 O 15.789 1.75167 0.467566 0
M  V30 169 C 15.837 1.94482 -3.03659 0
M  V30 170 O 14.941 3.03386 -2.7934 0
M  V30 171 H 14.282 0.290395 -0.597132 0
M  V30 172 H 16.812 0.290854 -2.02522 0
M  V30 173 H 16.822 2.36278 -3.32621 0
M  V30 174 H 15.497 1.37772 -3.92418 0
M  V30 175 H 14.074 2.65844 -2.61498 0
M  V30 176 N 16.2591 1.48442 0.529413 0
M  V30 177 C 17.6701 1.5002 1.11134 0
M  V30 178 C 18.0211 0.27031 1.94329 0
M  V30 179 O 17.1461 -0.622507 2.07253 0
M  V30 180 C 17.7411 2.71834 2.02217 0
M  V30 181 C 16.3001 2.76283 2.55627 0
M  V30 182 C 15.4471 2.43542 1.326 0
M  V30 183 H 18.3981 1.5555 0.314641 0
M  V30 184 H 18.4191 2.50384 2.8651 0
M  V30 185 H 17.9311 3.61331 1.41639 0
M  V30 186 H 16.0321 1.90995 3.19924 0
M  V30 187 H 16.1451 3.77725 2.94721 0
M  V30 188 H 14.5091 1.94709 1.64196 0
M  V30 189 H 15.2921 3.3528 0.737734 0
M  V30 190 N 17.7372 -0.778329 1.37039 0
M  V30 191 C 18.6842 -1.89139 1.32269 0
M  V30 192 C 19.6542 -1.65017 0.189387 0
M  V30 193 O 20.8392 -1.87024 0.377693 0
M  V30 194 C 17.9792 -3.26112 1.12894 0
M  V30 195 C 17.0922 -3.62233 2.35396 0
M  V30 196 C 16.2272 -4.8838 2.08946 0
M  V30 197 C 15.2662 -5.17212 3.2735 0
M  V30 198 N 14.4032 -6.34546 3.00492 0
M  V30 199 H 19.2432 -1.92552 2.27437 0
M  V30 200 H 16.7802 -0.941473 1.13025 0
M  V30 201 H 18.7382 -4.05116 0.996835 0
M  V30 202 H 17.3682 -3.22091 0.213758 0
M  V30 203 H 16.4202 -2.78265 2.5937 0
M  V30 204 H 17.7322 -3.79481 3.23721 0
M  V30 205 H 16.8862 -5.75274 1.92729 0
M  V30 206 H 15.6252 -4.73222 1.17949 0
M  V30 207 H 14.6302 -4.28796 3.44113 0
M  V30 208 H 15.8552 -5.34283 4.19188 0
M  V30 209 H 13.8012 -6.20759 2.12118 0
M  V30 210 H 13.7182 -6.52179 3.82358 0
M  V30 211 H 14.9862 -7.24394 2.87879 0
M  V30 212 N 19.2153 -1.21501 -1.00376 0
M  V30 213 C 20.1783 -0.976927 -2.07337 0
M  V30 214 C 21.1783 0.0525322 -1.60714 0
M  V30 215 O 22.3683 -0.184869 -1.73216 0
M  V30 216 C 19.5003 -0.473423 -3.37597 0
M  V30 217 H 20.6933 -1.92587 -2.29892 0
M  V30 218 H 18.2463 -1.03217 -1.17371 0
M  V30 219 H 18.9813 0.480379 -3.20722 0
M  V30 220 H 18.7663 -1.216 -3.72768 0
M  V30 221 H 20.2563 -0.32675 -4.1632 0
M  V30 222 N 20.6934 1.19889 -1.02296 0
M  V30 223 C 21.6034 2.26571 -0.608508 0
M  V30 224 C 22.6194 1.70299 0.356964 0
M  V30 225 O 23.7954 2.00235 0.216326 0
M  V30 226 C 20.8604 3.46677 0.0402814 0
M  V30 227 C 19.9214 4.18153 -0.97194 0
M  V30 228 C 19.1544 5.32525 -0.354016 0
M  V30 229 O 19.3774 5.64112 0.844604 0
M  V30 230 O 18.3114 5.92242 -1.07391 0
M  V30 231 H 22.1374 2.64251 -1.49684 0
M  V30 232 H 19.7224 1.26629 -0.792809 0
M  V30 233 H 21.6044 4.19475 0.402324 0
M  V30 234 H 20.2794 3.10858 0.902707 0
M  V30 235 H 19.1864 3.47499 -1.38546 0
M  V30 236 H 20.5194 4.57927 -1.80454 0
M  V30 237 N 22.1715 0.800033 1.35784 0
M  V30 238 C 23.4205 0.37387 1.98205 0
M  V30 239 C 23.7335 -1.06302 1.64193 0
M  V30 240 O 24.9395 -1.59198 2.19928 0
M  V30 241 C 23.3955 0.617532 3.54562 0
M  V30 242 C 23.0035 2.06654 3.9749 0
M  V30 243 C 24.7475 0.256401 4.23725 0
M  V30 244 C 22.6545 2.2563 5.46667 0
M  V30 245 H 21.5845 0.136055 0.741623 0
M  V30 246 H 24.2355 0.983166 1.54939 0
M  V30 247 H 22.6175 -0.0616248 3.95952 0
M  V30 248 H 23.7915 2.78296 3.67271 0
M  V30 249 H 22.1065 2.38691 3.41197 0
M  V30 250 H 24.7035 0.376318 5.33374 0
M  V30 251 H 25.0465 -0.796692 4.08606 0
M  V30 252 H 25.5795 0.889214 3.87734 0
M  V30 253 H 22.3185 3.2936 5.66747 0
M  V30 254 H 21.8385 1.58504 5.78478 0
M  V30 255 H 23.5175 2.06861 6.1304 0
M  V30 256 N 23.6496 -1.47581 0.552962 0
M  V30 257 C 24.5976 -2.31648 -0.21023 0
M  V30 258 C 25.5916 -1.42663 -0.913432 0
M  V30 259 O 26.7976 -1.5945 -0.835201 0
M  V30 260 H 23.1726 -0.746989 -0.0866676 0
M  V30 261 H 25.1436 -2.93869 0.518051 0
M  V30 262 C 23.8926 -3.25226 -1.22976 0
M  V30 263 H 23.2156 -3.93658 -0.698077 0
M  V30 264 H 24.6556 -3.86889 -1.73473 0
M  V30 265 C 23.1146 -2.48448 -2.27542 0
M  V30 266 O 23.6446 -2.22585 -3.34393 0
M  V30 267 N 21.8506 -2.09532 -2.01357 0
M  V30 268 H 21.3976 -2.30765 -1.14478 0
M  V30 269 H 21.3556 -1.58476 -2.71538 0
M  V30 270 N 25.1277 -0.289203 -1.54924 0
M  V30 271 C 26.0747 0.592115 -2.23075 0
M  V30 272 C 27.0447 1.13881 -1.20915 0
M  V30 273 O 28.2297 1.18551 -1.495 0
M  V30 274 C 25.3697 1.76376 -2.96623 0
M  V30 275 C 24.4827 1.24959 -4.13533 0
M  V30 276 C 23.6177 2.38416 -4.74691 0
M  V30 277 C 22.6567 1.84072 -5.83767 0
M  V30 278 N 21.7937 2.91057 -6.38929 0
M  V30 279 H 26.6337 0.00432038 -2.98 0
M  V30 280 H 24.1707 -0.00963529 -1.47097 0
M  V30 281 H 26.1287 2.45268 -3.3749 0
M  V30 282 H 24.7587 2.32337 -2.24097 0
M  V30 283 H 23.8107 0.453307 -3.77689 0
M  V30 284 H 25.1227 0.811662 -4.92152 0
M  V30 285 H 24.2767 3.15276 -5.18349 0
M  V30 286 H 23.0157 2.8553 -3.95378 0
M  V30 287 H 22.0207 1.05697 -5.39545 0
M  V30 288 H 23.2457 1.37877 -6.64956 0
M  V30 289 H 21.1917 3.37526 -5.62505 0
M  V30 290 H 21.1087 2.51724 -7.12861 0
M  V30 291 H 22.3767 3.6785 -6.87246 0
M  V30 292 N 26.6058 1.57591 -0.0167156 0
M  V30 293 C 27.8538 1.90906 0.663285 0
M  V30 294 C 28.1748 0.892509 1.73376 0
M  V30 295 O 27.4448 -0.0677623 1.95783 0
M  V30 296 H 26.0248 0.704637 0.247983 0
M  V30 297 H 28.6868 1.94803 -0.0615909 0
M  V30 298 H 27.7828 2.9116 1.12393 0
M  V30 299 N 28.0839 -0.256276 1.55502 0
M  V30 300 C 29.3299 -0.987079 1.77157 0
M  V30 301 C 29.6629 -1.85327 0.580315 0
M  V30 302 O 28.9379 -1.89874 -0.421686 0
M  V30 303 C 29.2209 -1.85553 3.08613 0
M  V30 304 C 29.0739 -1.01816 4.38125 0
M  V30 305 C 30.3929 -2.8397 3.36228 0
M  V30 306 H 27.5119 -0.357428 0.644526 0
M  V30 307 H 30.1539 -0.258239 1.88237 0
M  V30 308 H 28.3039 -2.47695 2.99298 0
M  V30 309 H 29.9759 -0.416159 4.59419 0
M  V30 310 H 28.2189 -0.322178 4.32602 0
M  V30 311 H 28.8899 -1.65939 5.26468 0
M  V30 312 H 31.3659 -2.31964 3.45445 0
M  V30 313 H 30.2419 -3.41864 4.29442 0
M  V30 314 H 30.5029 -3.59955 2.56681 0
M  V30 315 N 29.562 -1.4872 -0.521534 0
M  V30 316 C 30.472 -1.66569 -1.65203 0
M  V30 317 C 31.488 -0.548197 -1.65139 0
M  V30 318 O 32.664 -0.820339 -1.83936 0
M  V30 319 C 29.729 -1.70917 -3.01642 0
M  V30 320 C 28.79 -2.94356 -3.12495 0
M  V30 321 C 28.023 -2.98487 -4.42426 0
M  V30 322 O 28.246 -2.10786 -5.30024 0
M  V30 323 O 27.18 -3.90746 -4.57822 0
M  V30 324 H 31.006 -2.62298 -1.5308 0
M  V30 325 H 28.591 -1.3222 -0.695565 0
M  V30 326 H 30.473 -1.7625 -3.82771 0
M  V30 327 H 29.148 -0.783633 -3.14071 0
M  V30 328 H 28.055 -2.94552 -2.3063 0
M  V30 329 H 29.388 -3.86322 -3.04986 0
M  V30 330 N 31.0401 0.771051 -1.3745 0
M  V30 331 C 32.2891 1.52491 -1.3202 0
M  V30 332 C 32.6021 1.9538 0.0927347 0
M  V30 333 O 33.8081 2.70159 0.269503 0
M  V30 334 C 32.2641 2.75366 -2.31736 0
M  V30 335 C 31.8721 2.39573 -3.78562 0
M  V30 336 C 33.6161 3.53307 -2.35318 0
M  V30 337 C 31.5231 3.58954 -4.70007 0
M  V30 338 H 30.4531 0.572506 -0.490666 0
M  V30 339 H 33.1041 0.844474 -1.62914 0
M  V30 340 H 31.4861 3.45303 -1.93861 0
M  V30 341 H 32.6601 1.77415 -4.25277 0
M  V30 342 H 30.9751 1.74805 -3.77932 0
M  V30 343 H 33.5721 4.42039 -3.00842 0
M  V30 344 H 33.9151 3.93217 -1.36698 0
M  V30 345 H 34.4481 2.90367 -2.71904 0
M  V30 346 H 31.1871 3.24125 -5.69757 0
M  V30 347 H 30.7071 4.20214 -4.27996 0
M  V30 348 H 32.3861 4.25758 -4.87175 0
M  V30 349 N 32.5182 1.22032 0.997298 0
M  V30 350 C 33.7662 1.04016 1.73278 0
M  V30 351 C 34.0872 -0.426255 1.90284 0
M  V30 352 O 33.3572 -1.30694 1.45931 0
M  V30 353 H 31.9372 0.381897 0.642 0
M  V30 354 H 34.5992 1.5347 1.20137 0
M  V30 355 H 33.6952 1.51441 2.72896 0
M  V30 356 N 33.9963 -1.19345 1.0293 0
M  V30 357 C 34.9063 -2.26245 0.620515 0
M  V30 358 C 35.9223 -1.70486 -0.347928 0
M  V30 359 O 37.0983 -2.00347 -0.205704 0
M  V30 360 C 34.1633 -3.46693 -0.0218957 0
M  V30 361 C 33.2243 -4.17632 0.994102 0
M  V30 362 C 32.4573 -5.32329 0.382253 0
M  V30 363 O 32.6803 -5.64552 -0.814676 0
M  V30 364 O 31.6143 -5.91664 1.10531 0
M  V30 365 H 35.4403 -2.63453 1.51083 0
M  V30 366 H 33.0253 -1.26207 0.799513 0
M  V30 367 H 34.9073 -4.19683 -0.380072 0
M  V30 368 H 33.5823 -3.11333 -0.886209 0
M  V30 369 H 32.4893 -3.4676 1.40387 0
M  V30 370 H 33.8223 -4.56964 1.8288 0
M  V30 371 N 35.4744 -0.807222 -1.35358 0
M  V30 372 C 36.7214 -0.387888 -1.9875 0
M  V30 373 C 37.0494 1.04509 -1.64037 0
M  V30 374 O 36.3044 1.73986 -0.895946 0
M  V30 375 C 36.6034 -0.519036 -3.53611 0
M  V30 376 C 36.2694 -1.91542 -4.08194 0
M  V30 377 C 34.9314 -2.29745 -4.22813 0
M  V30 378 C 37.2834 -2.82896 -4.37744 0
M  V30 379 C 34.6114 -3.58668 -4.643 0
M  V30 380 C 36.9634 -4.11265 -4.8067 0
M  V30 381 C 35.6274 -4.49466 -4.93494 0
M  V30 382 H 34.8974 -0.141938 -0.727279 0
M  V30 383 H 37.5444 -1.02814 -1.6156 0
M  V30 384 H 35.8494 0.204658 -3.91265 0
M  V30 385 H 37.5464 -0.175345 -4.00616 0
M  V30 386 H 34.1364 -1.60862 -3.97268 0
M  V30 387 H 38.3204 -2.54629 -4.26002 0
M  V30 388 H 33.5764 -3.88113 -4.72418 0
M  V30 389 H 37.7504 -4.82153 -5.02496 0
M  V30 390 H 35.3774 -5.49418 -5.25399 0
M  V30 391 N 36.9525 1.47285 -0.560781 0
M  V30 392 C 38.1925 2.0436 -0.0404627 0
M  V30 393 C 38.5565 1.42534 1.28639 0
M  V30 394 O 39.7575 1.90677 1.89462 0
M  V30 395 C 38.0285 3.57369 0.0471856 0
M  V30 396 S 39.5875 4.3579 0.513109 0
M  V30 397 H 36.4055 0.710492 -0.0268674 0
M  V30 398 H 39.0075 1.80611 -0.748323 0
M  V30 399 H 37.7115 3.9989 -0.922817 0
M  V30 400 H 37.2425 3.8562 0.778491 0
M  V30 401 H 39.2575 4.63476 1.77212 0
M  V30 402 N 38.4306 0.297415 1.54768 0
M  V30 403 C 39.6766 -0.313376 2.00364 0
M  V30 404 C 40.0096 -1.53815 1.18553 0
M  V30 405 O 39.2846 -1.92739 0.261103 0
M  V30 406 C 39.5676 -0.673525 3.53745 0
M  V30 407 C 39.4206 0.560133 4.46299 0
M  V30 408 C 40.7396 -1.50143 4.13697 0
M  V30 409 H 37.8586 -0.112428 0.728374 0
M  V30 410 H 40.5006 0.4088 1.8555 0
M  V30 411 H 38.6506 -1.28881 3.665 0
M  V30 412 H 40.3226 1.19863 4.45455 0
M  V30 413 H 38.5656 1.19405 4.17043 0
M  V30 414 H 39.2366 0.26405 5.51368 0
M  V30 415 H 41.7126 -0.981588 4.04356 0
M  V30 416 H 40.5886 -1.72221 5.21182 0
M  V30 417 H 40.8496 -2.48952 3.65343 0
M  V30 418 N 39.9087 -1.5758 0.0250728 0
M  V30 419 C 41.1577 -1.90811 -0.653767 0
M  V30 420 C 41.4707 -0.90273 -1.73523 0
M  V30 421 O 42.6767 -1.12614 -2.47043 0
M  V30 422 C 41.1327 -3.38804 -1.21409 0
M  V30 423 C 40.7407 -4.47692 -0.166126 0
M  V30 424 C 42.4847 -3.81108 -1.86967 0
M  V30 425 C 40.3917 -5.86779 -0.737856 0
M  V30 426 H 39.3217 -0.712063 -0.247956 0
M  V30 427 H 41.9727 -1.83281 0.0897137 0
M  V30 428 H 40.3547 -3.41252 -2.00905 0
M  V30 429 H 41.5287 -4.56797 0.606079 0
M  V30 430 H 39.8437 -4.14565 0.390466 0
M  V30 431 H 42.4407 -4.82375 -2.30692 0
M  V30 432 H 42.7837 -3.15953 -2.71071 0
M  V30 433 H 43.3167 -3.81065 -1.14167 0
M  V30 434 H 40.0557 -6.55468 0.0649577 0
M  V30 435 H 39.5757 -5.81288 -1.47864 0
M  V30 436 H 41.2547 -6.35223 -1.22884 0
M  V30 437 N 41.3868 0.248026 -1.55636 0
M  V30 438 C 42.6348 0.974295 -1.77065 0
M  V30 439 C 42.9558 1.85897 -0.588849 0
M  V30 440 O 42.2258 1.91868 0.395407 0
M  V30 441 H 40.8058 0.362733 -0.653019 0
M  V30 442 H 43.4678 0.266244 -1.93073 0
M  V30 443 H 42.5638 1.59667 -2.68166 0
M  V30 444 N 42.8649 1.48995 0.513639 0
M  V30 445 C 44.1419 1.48338 1.27495 0
M  V30 446 C 44.5219 0.204065 2.10111 0
M  V30 447 O 43.8699 -0.813881 2.13514 0
M  V30 448 C 44.0799 2.75498 2.14247 0
M  V30 449 C 45.4279 3.24484 2.73852 0
M  V30 450 O 46.4519 2.76528 2.24523 0
M  V30 451 O 45.3109 4.07974 3.6362 0
M  V30 452 H 42.4049 0.593149 0.576284 0
M  V30 453 H 44.9509 1.61246 0.528948 0
M  V30 454 H 43.7229 3.60109 1.53092 0
M  V30 455 H 43.3459 2.6539 2.96064 0
M  V30 456 N 44.343 -0.763751 1.37857 0
M  V30 457 C 45.591 -1.51957 1.33243 0
M  V30 458 C 45.912 -1.94835 -0.0801709 0
M  V30 459 O 45.182 -1.66894 -1.02582 0
M  V30 460 H 43.762 -0.563626 0.49024 0
M  V30 461 H 46.424 -0.908504 1.7243 0
M  V30 462 H 45.52 -2.41523 1.97669 0
M  V30 463 N 45.8211 -1.22559 -0.990812 0
M  V30 464 C 47.0671 -1.05297 -1.73322 0
M  V30 465 C 47.4001 0.410655 -1.89808 0
M  V30 466 O 46.6751 1.30439 -1.44277 0
M  V30 467 C 46.9581 -1.76713 -3.13759 0
M  V30 468 C 46.8111 -3.30684 -3.04907 0
M  V30 469 C 48.1301 -1.52121 -4.12974 0
M  V30 470 H 45.2491 -0.38392 -0.629106 0
M  V30 471 H 47.8911 -1.50926 -1.15418 0
M  V30 472 H 46.0411 -1.37924 -3.63193 0
M  V30 473 H 47.7131 -3.7893 -2.63077 0
M  V30 474 H 45.9561 -3.60253 -2.41661 0
M  V30 475 H 46.6271 -3.75833 -4.04294 0
M  V30 476 H 49.1031 -1.85819 -3.72304 0
M  V30 477 H 47.9791 -2.04582 -5.0935 0
M  V30 478 H 48.2401 -0.454257 -4.3976 0
M  V30 479 N 47.2992 1.18797 -1.03562 0
M  V30 480 C 48.2462 2.22253 -0.622259 0
M  V30 481 C 49.2162 1.61987 0.36736 0
M  V30 482 O 50.4012 1.88986 0.262492 0
M  V30 483 C 47.5412 3.45097 0.0138462 0
M  V30 484 C 46.6542 4.19722 -1.02263 0
M  V30 485 C 45.7892 5.30009 -0.355573 0
M  V30 486 C 44.8282 5.96399 -1.37749 0
M  V30 487 N 43.9652 6.98234 -0.735766 0
M  V30 488 H 48.8052 2.56968 -1.50903 0
M  V30 489 H 46.3422 1.26245 -0.755017 0
M  V30 490 H 48.3002 4.15279 0.399948 0
M  V30 491 H 46.9302 3.11018 0.864158 0
M  V30 492 H 45.9822 3.48418 -1.52673 0
M  V30 493 H 47.2942 4.65227 -1.79903 0
M  V30 494 H 46.4482 6.0664 0.0850095 0
M  V30 495 H 45.1872 4.85592 0.452967 0
M  V30 496 H 44.1922 5.18512 -1.82826 0
M  V30 497 H 45.4172 6.42899 -2.18764 0
M  V30 498 H 43.3632 6.55979 0.0525597 0
M  V30 499 H 43.2802 7.41965 -1.44995 0
M  V30 500 H 44.5482 7.78845 -0.31941 0
M  V30 501 N 48.7773 0.814389 1.34928 0
M  V30 502 C 49.7073 0.244827 2.32213 0
M  V30 503 C 50.6883 -0.634024 1.57842 0
M  V30 504 O 51.8733 -0.562676 1.8587 0
M  V30 505 C 49.0033 -0.601106 3.42058 0
M  V30 506 C 47.9573 0.179896 4.27622 0
M  V30 507 C 47.2833 -0.788237 5.28858 0
M  V30 508 C 48.5833 1.38329 5.03649 0
M  V30 509 H 50.2773 1.05763 2.80097 0
M  V30 510 H 47.8233 0.510029 1.34665 0
M  V30 511 H 49.7763 -1.00968 4.09125 0
M  V30 512 H 48.5003 -1.44688 2.92802 0
M  V30 513 H 47.1593 0.569739 3.62146 0
M  V30 514 H 46.8073 -1.62973 4.75866 0
M  V30 515 H 46.5073 -0.269942 5.8698 0
M  V30 516 H 48.0313 -1.19485 5.98795 0
M  V30 517 H 49.4453 1.04918 5.63618 0
M  V30 518 H 47.8423 1.83662 5.71304 0
M  V30 519 H 48.9123 2.16592 4.33839 0
M  V30 520 N 50.2554 -1.46986 0.568584 0
M  V30 521 C 51.5324 -1.95592 -0.0174074 0
M  V30 522 C 51.9124 -1.51124 -1.47393 0
M  V30 523 O 51.2604 -0.755329 -2.15655 0
M  V30 524 C 51.4704 -3.48719 0.139913 0
M  V30 525 C 52.8184 -4.246 0.000426376 0
M  V30 526 O 53.8424 -3.56135 0.0680316 0
M  V30 527 O 52.7014 -5.46302 -0.146988 0
M  V30 528 H 49.7954 -0.82498 -0.0577599 0
M  V30 529 H 52.3414 -1.57335 0.635909 0
M  V30 530 H 51.1134 -3.73927 1.15301 0
M  V30 531 H 50.7364 -3.93771 -0.550491 0
M  V30 532 N 51.7335 -0.305618 -1.54608 0
M  V30 533 C 52.6435 0.57778 -2.27374 0
M  V30 534 C 53.6595 1.14451 -1.31061 0
M  V30 535 O 54.8355 1.16831 -1.6405 0
M  V30 536 C 51.9005 1.73123 -3.00382 0
M  V30 537 C 50.9615 1.19812 -4.12242 0
M  V30 538 C 50.1945 2.2966 -4.81759 0
M  V30 539 O 50.4175 3.49651 -4.50666 0
M  V30 540 O 49.3515 1.96091 -5.69062 0
M  V30 541 H 53.1775 -0.012624 -3.03697 0
M  V30 542 H 50.7625 -0.0719184 -1.49227 0
M  V30 543 H 52.6445 2.40315 -3.4616 0
M  V30 544 H 51.3195 2.30815 -2.26949 0
M  V30 545 H 50.2265 0.491798 -3.70853 0
M  V30 546 H 51.5595 0.666566 -4.87666 0
M  V30 547 N 53.2116 1.57565 -0.0334293 0
M  V30 548 C 54.4596 1.91598 0.642999 0
M  V30 549 C 54.7806 0.910847 1.7242 0
M  V30 550 O 54.0506 -0.0469931 1.95844 0
M  V30 551 H 52.6306 0.707228 0.240496 0
M  V30 552 H 55.2926 1.94726 -0.0822488 0
M  V30 553 H 54.3886 2.92336 1.09298 0
M  V30 554 N 54.6897 -0.239769 1.55765 0
M  V30 555 C 55.9357 -0.968234 1.78194 0
M  V30 556 C 56.2687 -1.84701 0.599938 0
M  V30 557 O 55.5437 -1.9031 -0.401524 0
M  V30 558 C 55.8267 -1.8227 3.10564 0
M  V30 559 C 55.6797 -0.971633 4.3918 0
M  V30 560 C 56.9987 -2.80388 3.39221 0
M  V30 561 H 54.1177 -0.350572 0.648281 0
M  V30 562 H 56.7597 -0.238259 1.885 0
M  V30 563 H 54.9097 -2.44507 3.01908 0
M  V30 564 H 56.5817 -0.367408 4.59835 0
M  V30 565 H 54.8247 -0.276276 4.32919 0
M  V30 566 H 55.4957 -1.60346 5.28198 0
M  V30 567 H 57.9717 -2.28287 3.47885 0
M  V30 568 H 56.8477 -3.3729 4.33044 0
M  V30 569 H 57.1087 -3.57212 2.60484 0
M  V30 570 N 56.1678 -1.49265 -0.50573 0
M  V30 571 C 57.1148 -1.65585 -1.6078 0
M  V30 572 C 58.0848 -0.497396 -1.58478 0
M  V30 573 O 59.2698 -0.72385 -1.76536 0
M  V30 574 C 56.4098 -1.72408 -2.98948 0
M  V30 575 C 55.5228 -2.99525 -3.11301 0
M  V30 576 C 54.6578 -2.97356 -4.40174 0
M  V30 577 C 53.6968 -4.19074 -4.46143 0
M  V30 578 N 52.8338 -4.14841 -5.66437 0
M  V30 579 H 57.6738 -2.59688 -1.46172 0
M  V30 580 H 55.2108 -1.28761 -0.711261 0
M  V30 581 H 57.1688 -1.74344 -3.79025 0
M  V30 582 H 55.7988 -0.817753 -3.1227 0
M  V30 583 H 54.8508 -3.07222 -2.24318 0
M  V30 584 H 56.1628 -3.89518 -3.11572 0
M  V30 585 H 55.3168 -2.97829 -5.28567 0
M  V30 586 H 54.0558 -2.05133 -4.42461 0
M  V30 587 H 53.0608 -4.1885 -3.56153 0
M  V30 588 H 54.2858 -5.12483 -4.45575 0
M  V30 589 H 52.2318 -3.25453 -5.69575 0
M  V30 590 H 52.1488 -4.98564 -5.68304 0
M  V30 591 H 53.4168 -4.1941 -6.57051 0
M  V30 592 N 57.6459 0.756429 -1.3826 0
M  V30 593 C 58.5759 1.88374 -1.37976 0
M  V30 594 C 59.5569 1.68311 -0.246082 0
M  V30 595 O 60.7419 1.88944 -0.44874 0
M  V30 596 C 57.8719 3.25864 -1.20125 0
M  V30 597 C 56.8259 3.60523 -2.30666 0
M  V30 598 C 56.1519 4.9672 -1.97923 0
M  V30 599 C 57.4519 3.65692 -3.72916 0
M  V30 600 H 59.1459 1.88869 -2.32312 0
M  V30 601 H 56.6919 0.907272 -1.11824 0
M  V30 602 H 58.6449 4.0438 -1.18552 0
M  V30 603 H 57.3689 3.25841 -0.222498 0
M  V30 604 H 56.0279 2.84324 -2.3142 0
M  V30 605 H 55.6759 4.93253 -0.985393 0
M  V30 606 H 55.3759 5.20878 -2.71955 0
M  V30 607 H 56.8999 5.77618 -1.97964 0
M  V30 608 H 58.3139 4.34328 -3.74208 0
M  V30 609 H 56.7109 4.01358 -4.4613 0
M  V30 610 H 57.7809 2.65987 -4.05436 0
M  V30 611 N 59.124 1.23083 0.984299 0
M  V30 612 C 60.074 0.975749 2.06066 0
M  V30 613 C 61.058 -0.0768251 1.60716 0
M  V30 614 O 62.25 0.134805 1.76486 0
M  V30 615 C 59.379 0.564673 3.38624 0
M  V30 616 C 58.465 1.65244 3.90583 0
M  V30 617 N 58.856 2.88193 4.15666 0
M  V30 618 C 57.154 1.52612 4.19077 0
M  V30 619 C 57.855 3.58593 4.58024 0
M  V30 620 N 56.831 2.86093 4.62225 0
M  V30 621 H 60.633 1.90957 2.23411 0
M  V30 622 H 58.147 1.12963 1.16675 0
M  V30 623 H 60.144 0.36322 4.15315 0
M  V30 624 H 58.804 -0.362147 3.22674 0
M  V30 625 H 59.815 3.24537 4.03604 0
M  V30 626 H 56.492 0.666121 4.12152 0
M  V30 627 H 57.882 4.63974 4.85982 0
M  V30 628 N 60.6021 -1.18246 1.0419 0
M  V30 629 C 61.5501 -2.23968 0.627792 0
M  V30 630 C 62.5441 -1.65828 -0.346019 0
M  V30 631 O 63.7501 -1.78733 -0.213175 0
M  V30 632 H 60.1251 -0.728939 0.184802 0
M  V30 633 H 62.0961 -2.56202 1.52981 0
M  V30 634 C 60.8451 -3.47699 0.00796591 0
M  V30 635 H 60.1681 -3.92734 0.748347 0
M  V30 636 H 61.6081 -4.23294 -0.24455 0
M  V30 637 C 60.0671 -3.13153 -1.24246 0
M  V30 638 O 60.5971 -3.27003 -2.33307 0
M  V30 639 N 58.8031 -2.67467 -1.13622 0
M  V30 640 H 58.3501 -2.56396 -0.248734 0
M  V30 641 H 58.3081 -2.44724 -1.97377 0
M  V30 642 N 62.0802 -0.821533 -1.34494 0
M  V30 643 C 63.0282 -0.230702 -2.31453 0
M  V30 644 C 64.0222 0.627793 -1.57338 0
M  V30 645 O 65.2282 0.519288 -1.72347 0
M  V30 646 H 61.6032 -0.0558577 -0.749923 0
M  V30 647 H 63.5742 -1.06332 -2.78812 0
M  V30 648 C 62.3232 0.59391 -3.4259 0
M  V30 649 H 61.6462 -0.0573588 -3.99759 0
M  V30 650 H 63.0862 0.973446 -4.12674 0
M  V30 651 C 61.5452 1.76568 -2.86924 0
M  V30 652 O 62.0752 2.8638 -2.81691 0
M  V30 653 N 60.2812 1.58198 -2.43766 0
M  V30 654 H 59.8282 0.68872 -2.48222 0
M  V30 655 H 59.7862 2.36752 -2.06871 0
M  V30 656 N 63.5583 1.46682 -0.576371 0
M  V30 657 C 64.8043 2.02712 -0.0596221 0
M  V30 658 C 65.1373 1.44765 1.29448 0
M  V30 659 O 64.4123 0.610355 1.84675 0
M  V30 660 C 64.6953 3.60098 0.0129503 0
M  V30 661 C 64.5483 4.28441 -1.3696 0
M  V30 662 C 65.8673 4.34224 0.71678 0
M  V30 663 H 62.9863 0.736637 -0.0231407 0
M  V30 664 H 65.6283 1.74898 -0.742351 0
M  V30 665 H 63.7783 3.83926 0.594378 0
M  V30 666 H 65.4503 4.15896 -1.9957 0
M  V30 667 H 63.6933 3.8805 -1.93907 0
M  V30 668 H 64.3643 5.3716 -1.27135 0
M  V30 669 H 66.8403 4.15503 0.222908 0
M  V30 670 H 65.7163 5.43936 0.73657 0
M  V30 671 H 65.9773 4.04823 1.77682 0
M  V30 672 N 65.0364 0.313813 1.54444 0
M  V30 673 C 66.2644 -0.293918 2.04802 0
M  V30 674 C 66.6794 -1.46537 1.19047 0
M  V30 675 O 66.0364 -1.81182 0.218939 0
M  V30 676 C 66.0874 -0.737806 3.53891 0
M  V30 677 O 65.8084 0.387038 4.36387 0
M  V30 678 C 67.3094 -1.40936 4.203 0
M  V30 679 H 64.5294 -0.0620057 0.668129 0
M  V30 680 H 67.0734 0.457169 1.99324 0
M  V30 681 H 65.2284 -1.43889 3.59687 0
M  V30 682 H 65.6424 0.0391274 5.24485 0
M  V30 683 H 67.1164 -1.67099 5.26101 0
M  V30 684 H 67.5934 -2.35355 3.70816 0
M  V30 685 H 68.1994 -0.751117 4.18615 0
M  V30 686 N 66.5145 -1.57545 0.0417849 0
M  V30 687 C 67.4445 -2.14009 -0.933929 0
M  V30 688 C 68.4255 -1.05938 -1.33083 0
M  V30 689 O 69.6105 -1.33833 -1.40721 0
M  V30 690 C 66.7405 -2.67747 -2.21199 0
M  V30 691 C 65.6945 -3.80718 -1.95544 0
M  V30 692 C 65.0205 -4.20935 -3.29724 0
M  V30 693 C 66.3205 -5.06258 -1.28452 0
M  V30 694 H 68.0145 -2.95788 -0.463645 0
M  V30 695 H 65.5605 -1.42285 -0.221573 0
M  V30 696 H 67.5135 -3.05886 -2.89848 0
M  V30 697 H 66.2375 -1.83147 -2.70416 0
M  V30 698 H 64.8965 -3.43037 -1.2931 0
M  V30 699 H 64.5445 -3.33298 -3.76724 0
M  V30 700 H 64.2445 -4.9707 -3.13361 0
M  V30 701 H 65.7685 -4.61666 -3.9962 0
M  V30 702 H 67.1825 -5.41903 -1.8712 0
M  V30 703 H 65.5795 -5.87475 -1.22445 0
M  V30 704 H 66.6495 -4.84207 -0.259219 0
M  V30 705 N 67.9926 0.231505 -1.5589 0
M  V30 706 C 68.9246 1.31006 -1.8807 0
M  V30 707 C 69.9376 1.43539 -0.768145 0
M  V30 708 O 71.1266 1.44614 -1.04638 0
M  V30 709 C 68.2266 2.68688 -2.06543 0
M  V30 710 C 67.3996 2.78228 -3.37502 0
M  V30 711 C 66.4586 3.96857 -3.4553 0
M  V30 712 O 65.4846 3.85662 -4.18633 0
M  V30 713 N 66.6866 5.1072 -2.75944 0
M  V30 714 H 69.4516 1.03731 -2.81176 0
M  V30 715 H 67.0126 0.421573 -1.56315 0
M  V30 716 H 69.0046 3.46412 -2.09239 0
M  V30 717 H 67.5746 2.88605 -1.20109 0
M  V30 718 H 66.7946 1.87059 -3.46991 0
M  V30 719 H 68.0826 2.81564 -4.23791 0
M  V30 720 H 67.4806 5.2271 -2.16311 0
M  V30 721 H 66.0376 5.86523 -2.84314 0
M  V30 722 N 69.4707 1.49531 0.497807 0
M  V30 723 C 70.7187 1.58865 1.24926 0
M  V30 724 C 71.0397 0.278721 1.92998 0
M  V30 725 O 70.3097 -0.702144 1.82885 0
M  V30 726 H 68.8897 0.585343 0.464094 0
M  V30 727 H 71.5517 1.86174 0.57666 0
M  V30 728 H 70.6477 2.38633 2.01149 0
M  V30 729 N 70.9488 -0.749086 1.3866 0
M  V30 730 C 71.8988 -1.85368 1.32751 0
M  V30 731 C 72.8828 -1.59511 0.210945 0
M  V30 732 O 74.0748 -1.71255 0.447299 0
M  V30 733 C 71.2038 -3.23131 1.15935 0
M  V30 734 C 70.2898 -3.54864 2.32233 0
M  V30 735 N 70.6808 -3.57625 3.57684 0
M  V30 736 C 68.9788 -3.85154 2.24883 0
M  V30 737 C 69.6798 -3.86753 4.34508 0
M  V30 738 N 68.6558 -4.03812 3.63918 0
M  V30 739 H 72.4578 -1.85787 2.27729 0
M  V30 740 H 69.9718 -0.946658 1.31955 0
M  V30 741 H 71.9688 -4.02185 1.09786 0
M  V30 742 H 70.6288 -3.23961 0.218947 0
M  V30 743 H 71.6398 -3.39276 3.91295 0
M  V30 744 H 68.3168 -3.93672 1.39027 0
M  V30 745 H 69.7068 -3.95474 5.43185 0
M  V30 746 N 72.4269 -1.23603 -0.977757 0
M  V30 747 C 73.6549 -1.09646 -1.75458 0
M  V30 748 C 74.0699 0.351859 -1.85492 0
M  V30 749 O 73.4269 1.24327 -1.336 0
M  V30 750 C 73.4779 -1.71895 -3.18016 0
M  V30 751 O 73.1989 -3.11063 -3.08498 0
M  V30 752 C 74.6999 -1.63415 -4.12081 0
M  V30 753 H 71.9199 -0.38359 -0.550545 0
M  V30 754 H 74.4639 -1.63507 -1.22824 0
M  V30 755 H 72.6189 -1.22061 -3.67668 0
M  V30 756 H 73.0329 -3.41305 -3.9826 0
M  V30 757 H 74.5069 -2.11669 -5.09804 0
M  V30 758 H 74.9839 -0.593462 -4.35172 0
M  V30 759 H 75.5899 -2.12628 -3.68334 0
M  V30 760 N 73.905 1.17692 -1.04816 0
M  V30 761 C 75.152 1.87859 -0.75599 0
M  V30 762 C 75.48 1.80812 0.716752 0
M  V30 763 O 74.735 1.20819 1.53952 0
M  V30 764 C 75.034 3.37462 -1.17703 0
M  V30 765 C 74.7 3.64713 -2.65133 0
M  V30 766 C 73.362 3.71859 -3.05408 0
M  V30 767 C 75.714 3.76492 -3.60421 0
M  V30 768 C 73.042 3.88271 -4.39843 0
M  V30 769 C 75.394 3.94421 -4.94585 0
M  V30 770 C 74.058 3.99806 -5.3452 0
M  V30 771 H 73.328 0.687425 -0.276636 0
M  V30 772 H 75.975 1.39255 -1.31455 0
M  V30 773 H 74.28 3.88097 -0.537395 0
M  V30 774 H 75.977 3.90109 -0.928218 0
M  V30 775 H 72.567 3.59772 -2.32942 0
M  V30 776 H 76.751 3.70295 -3.30447 0
M  V30 777 H 72.007 3.90687 -4.70291 0
M  V30 778 H 76.181 4.02477 -5.68318 0
M  V30 779 H 73.808 4.12276 -6.38696 0
M  V30 780 N 75.3831 0.828654 1.34056 0
M  V30 781 C 76.6291 0.42008 1.98402 0
M  V30 782 C 76.9621 -1.01564 1.65525 0
M  V30 783 O 76.2371 -1.70834 0.929831 0
M  V30 784 C 76.5201 0.62927 3.54559 0
M  V30 785 C 76.3731 2.11152 3.97159 0
M  V30 786 C 77.6921 0.0688756 4.40046 0
M  V30 787 H 74.8111 0.154104 0.720709 0
M  V30 788 H 77.4531 1.04228 1.5886 0
M  V30 789 H 75.6031 0.0996418 3.88372 0
M  V30 790 H 77.2751 2.70522 3.73651 0
M  V30 791 H 75.5181 2.59985 3.47261 0
M  V30 792 H 76.1891 2.20868 5.05887 0
M  V30 793 H 78.6651 0.521458 4.1282 0
M  V30 794 H 77.5411 0.245006 5.48353 0
M  V30 795 H 77.8021 -1.0266 4.30015 0
M  V30 796 N 76.8612 -1.46375 0.584142 0
M  V30 797 C 78.1092 -2.01978 0.0701287 0
M  V30 798 C 78.4302 -1.4579 -1.295 0
M  V30 799 O 77.7002 -0.64314 -1.85042 0
M  V30 800 H 76.2802 -0.746648 0.0229345 0
M  V30 801 H 78.9422 -1.79461 0.760245 0
M  V30 802 H 78.0382 -3.121 0.0022064 0
M  V30 803 N 78.3393 -0.321999 -1.54275 0
M  V30 804 C 79.2863 0.544664 -2.24281 0
M  V30 805 C 80.2563 1.1129 -1.23303 0
M  V30 806 O 81.4413 1.15354 -1.51981 0
M  V30 807 C 78.5813 1.70045 -3.00298 0
M  V30 808 C 77.6943 1.16159 -4.1609 0
M  V30 809 C 76.8293 2.28293 -4.79641 0
M  V30 810 C 75.8683 1.71648 -5.8754 0
M  V30 811 N 75.0053 2.77438 -6.44959 0
M  V30 812 H 79.8453 -0.0588907 -2.97942 0
M  V30 813 H 77.3823 -0.0408345 -1.47043 0
M  V30 814 H 79.3403 2.38054 -3.42616 0
M  V30 815 H 77.9703 2.27531 -2.28975 0
M  V30 816 H 77.0223 0.373092 -3.78566 0
M  V30 817 H 78.3343 0.707087 -4.93763 0
M  V30 818 H 77.4883 3.0421 -5.2492 0
M  V30 819 H 76.2273 2.77079 -4.01346 0
M  V30 820 H 75.2323 0.942282 -5.41665 0
M  V30 821 H 76.4573 1.23741 -6.67731 0
M  V30 822 H 74.4033 3.25519 -5.69538 0
M  V30 823 H 74.3203 2.36547 -7.1804 0
M  V30 824 H 75.5883 3.53189 -6.94894 0
M  V30 825 N 79.8174 1.5752 -0.0501392 0
M  V30 826 C 80.7654 2.12651 0.942459 0
M  V30 827 C 81.7594 1.05807 1.32292 0
M  V30 828 O 82.9654 1.24217 1.3027 0
M  V30 829 H 79.3404 0.679673 0.321789 0
M  V30 830 H 81.3114 2.94951 0.452356 0
M  V30 831 C 80.0604 2.68565 2.20836 0
M  V30 832 H 79.3834 3.50439 1.92439 0
M  V30 833 H 80.8234 3.10761 2.8845 0
M  V30 834 C 79.2824 1.62291 2.95234 0
M  V30 835 O 79.8124 1.03508 3.88135 0
M  V30 836 N 78.0184 1.33836 2.57946 0
M  V30 837 H 77.5654 1.81826 1.82475 0
M  V30 838 H 77.5234 0.629595 3.08032 0
M  V30 839 N 81.2955 -0.223234 1.56011 0
M  V30 840 C 82.5235 -0.964812 1.83027 0
M  V30 841 C 82.9385 -1.78013 0.62904 0
M  V30 842 O 82.2955 -1.78008 -0.402414 0
M  V30 843 C 82.3465 -1.88373 3.08542 0
M  V30 844 O 82.0675 -1.10137 4.2403 0
M  V30 845 C 83.5685 -2.73934 3.48533 0
M  V30 846 H 80.7885 -0.282842 0.608475 0
M  V30 847 H 83.3325 -0.238971 2.03099 0
M  V30 848 H 81.4875 -2.56354 2.9045 0
M  V30 849 H 81.9015 -1.72501 4.95322 0
M  V30 850 H 83.3755 -3.34117 4.39397 0
M  V30 851 H 83.8525 -3.46244 2.70207 0
M  V30 852 H 84.4585 -2.11369 3.69057 0
M  V30 853 N 82.7736 -1.49793 -0.48987 0
M  V30 854 C 83.6836 -1.70036 -1.61632 0
M  V30 855 C 84.6996 -0.583102 -1.63939 0
M  V30 856 O 85.8756 -0.859169 -1.82154 0
M  V30 857 C 82.9406 -1.77277 -2.97949 0
M  V30 858 C 82.0016 -3.00918 -3.06181 0
M  V30 859 C 81.2346 -3.07804 -4.35996 0
M  V30 860 O 81.4576 -2.21982 -5.25433 0
M  V30 861 O 80.3916 -4.00369 -4.49431 0
M  V30 862 H 84.2176 -2.65486 -1.47482 0
M  V30 863 H 81.8026 -1.33666 -0.667362 0
M  V30 864 H 83.6846 -1.84329 -3.78947 0
M  V30 865 H 82.3596 -0.850076 -3.12339 0
M  V30 866 H 81.2666 -2.99377 -2.2433 0
M  V30 867 H 82.5996 -3.92704 -2.96723 0
M  V30 868 N 84.2517 0.741722 -1.39055 0
M  V30 869 C 85.5007 1.49656 -1.35225 0
M  V30 870 C 85.8137 1.95533 0.0512708 0
M  V30 871 O 87.0197 2.7067 0.212138 0
M  V30 872 C 85.4757 2.70389 -2.37525 0
M  V30 873 C 85.0837 2.31489 -3.83558 0
M  V30 874 C 86.8277 3.48236 -2.42759 0
M  V30 875 C 84.7347 3.48903 -4.77515 0
M  V30 876 H 83.6647 0.56197 -0.502699 0
M  V30 877 H 86.3157 0.809727 -1.64668 0
M  V30 878 H 84.6977 3.41113 -2.01142 0
M  V30 879 H 85.8717 1.68354 -4.28945 0
M  V30 880 H 84.1867 1.66749 -3.81554 0
M  V30 881 H 86.7837 4.35558 -3.1015 0
M  V30 882 H 87.1267 3.90229 -1.45008 0
M  V30 883 H 87.6597 2.84535 -2.78002 0
M  V30 884 H 84.3987 3.11966 -5.76504 0
M  V30 885 H 83.9187 4.11041 -4.36813 0
M  V30 886 H 85.5977 4.15328 -4.96096 0
M  V30 887 N 85.7298 1.2412 0.971189 0
M  V30 888 C 86.9768 1.07881 1.71371 0
M  V30 889 C 87.3048 -0.382901 1.90694 0
M  V30 890 O 86.5598 -1.29945 1.46331 0
M  V30 891 C 86.8588 1.75983 3.11071 0
M  V30 892 C 86.5248 3.25909 3.11599 0
M  V30 893 C 85.1868 3.66813 3.11451 0
M  V30 894 C 87.5388 4.21771 3.062 0
M  V30 895 C 84.8668 5.02021 3.03631 0
M  V30 896 C 87.2188 5.56982 2.99923 0
M  V30 897 C 85.8828 5.97237 2.98102 0
M  V30 898 H 85.1528 0.394764 0.62709 0
M  V30 899 H 87.7998 1.54176 1.13587 0
M  V30 900 H 86.1048 1.22072 3.72298 0
M  V30 901 H 87.8018 1.60887 3.6731 0
M  V30 902 H 84.3918 2.93353 3.12477 0
M  V30 903 H 88.5758 3.91172 3.05447 0
M  V30 904 H 83.8318 5.32411 3.0058 0
M  V30 905 H 88.0058 6.30969 2.94704 0
M  V30 906 H 85.6328 7.01967 2.91798 0
M  V30 907 N 87.2079 -1.17134 1.05439 0
M  V30 908 C 88.6189 -1.69084 0.791676 0
M  V30 909 C 88.9699 -1.83822 -0.685839 0
M  V30 910 O 88.0949 -1.52757 -1.53278 0
M  V30 911 C 88.6899 -3.07119 1.4305 0
M  V30 912 C 87.2489 -3.56225 1.21577 0
M  V30 913 C 86.3959 -2.32421 1.51247 0
M  V30 914 H 89.3469 -1.01617 1.219 0
M  V30 915 H 89.3679 -3.71087 0.84112 0
M  V30 916 H 88.8799 -2.9636 2.50584 0
M  V30 917 H 86.9809 -3.72257 0.159787 0
M  V30 918 H 87.0939 -4.38837 1.92246 0
M  V30 919 H 85.4579 -2.3701 0.932653 0
M  V30 920 H 86.2409 -2.24268 2.5992 0
M  V30 921 N 88.686 -0.835752 -1.33615 0
M  V30 922 C 89.933 -0.429959 -1.97883 0
M  V30 923 C 90.261 1.01006 -1.66217 0
M  V30 924 O 89.516 1.72047 -0.93265 0
M  V30 925 C 89.815 -0.593925 -3.52431 0
M  V30 926 C 89.481 -2.00158 -4.04039 0
M  V30 927 C 88.143 -2.38662 -4.17844 0
M  V30 928 C 90.495 -2.92117 -4.31644 0
M  V30 929 C 87.823 -3.68435 -4.56588 0
M  V30 930 C 90.175 -4.21368 -4.71838 0
M  V30 931 C 88.839 -4.59833 -4.83849 0
M  V30 932 H 88.109 -0.157333 -0.724104 0
M  V30 933 H 90.756 -1.06217 -1.59343 0
M  V30 934 H 89.061 0.121619 -3.91611 0
M  V30 935 H 90.758 -0.260282 -4.00154 0
M  V30 936 H 87.348 -1.69252 -3.93766 0
M  V30 937 H 91.532 -2.63608 -4.20505 0
M  V30 938 H 86.788 -3.98046 -4.64079 0
M  V30 939 H 90.962 -4.92703 -4.92155 0
M  V30 940 H 88.589 -5.60438 -5.13627 0
M  V30 941 N 90.1641 1.46063 -0.591896 0
M  V30 942 C 91.1271 2.28854 0.125973 0
M  V30 943 C 92.1271 1.38903 0.810107 0
M  V30 944 O 93.3171 1.61186 0.66066 0
M  V30 945 C 90.4491 3.19526 1.1881 0
M  V30 946 H 91.6421 2.93802 -0.601717 0
M  V30 947 H 89.1951 1.52325 -0.350254 0
M  V30 948 H 89.9301 2.59345 1.94707 0
M  V30 949 H 89.7151 3.85766 0.701936 0
M  V30 950 H 91.2051 3.81817 1.69132 0
M  V30 951 N 91.6422 0.330177 1.54103 0
M  V30 952 C 92.8882 -0.270806 2.00984 0
M  V30 953 C 93.2212 -1.51265 1.21789 0
M  V30 954 O 92.4962 -1.92142 0.301927 0
M  V30 955 C 92.7792 -0.598339 3.55094 0
M  V30 956 C 92.6322 0.654674 4.4501 0
M  V30 957 C 93.9512 -1.41334 4.16789 0
M  V30 958 H 91.0702 -0.0969531 0.730595 0
M  V30 959 H 93.7122 0.448066 1.84641 0
M  V30 960 H 91.8622 -1.21078 3.69151 0
M  V30 961 H 93.5342 1.29285 4.42813 0
M  V30 962 H 91.7772 1.28224 4.14416 0
M  V30 963 H 92.4482 0.380944 5.50684 0
M  V30 964 H 94.9242 -0.895597 4.06347 0
M  V30 965 H 93.8002 -1.61127 5.24718 0
M  V30 966 H 94.0612 -2.41146 3.70541 0
M  V30 967 N 93.1203 -1.57491 0.0584922 0
M  V30 968 C 94.0503 -2.14988 -0.911178 0
M  V30 969 C 95.0313 -1.07343 -1.31952 0
M  V30 970 O 96.2163 -1.35318 -1.39294 0
M  V30 971 C 93.3463 -2.70078 -2.18347 0
M  V30 972 C 92.3003 -3.82771 -1.91495 0
M  V30 973 C 91.6263 -4.24408 -3.25241 0
M  V30 974 C 92.9263 -5.07592 -1.23075 0
M  V30 975 H 94.6203 -2.96263 -0.432246 0
M  V30 976 H 92.1663 -1.42512 -0.206469 0
M  V30 977 H 94.1193 -3.08943 -2.86587 0
M  V30 978 H 92.8433 -1.86005 -2.68458 0
M  V30 979 H 91.5023 -3.44389 -1.25664 0
M  V30 980 H 91.1503 -3.37275 -3.73168 0
M  V30 981 H 90.8503 -5.00366 -3.08071 0
M  V30 982 H 92.3743 -4.65879 -3.94701 0
M  V30 983 H 93.7883 -5.43857 -1.81362 0
M  V30 984 H 92.1853 -5.88741 -1.16207 0
M  V30 985 H 93.2553 -4.84454 -0.207847 0
M  V30 986 N 94.5984 0.214957 -1.56127 0
M  V30 987 C 95.8464 0.936518 -1.79091 0
M  V30 988 C 96.1674 1.84606 -0.628148 0
M  V30 989 O 95.4374 1.92664 0.35462 0
M  V30 990 H 94.0174 0.3488 -0.660566 0
M  V30 991 H 96.6794 0.22523 -1.93594 0
M  V30 992 H 95.7754 1.53943 -2.71492 0
M  V30 993 N 96.0765 1.50051 0.48192 0
M  V30 994 C 97.3045 1.64237 1.25832 0
M  V30 995 C 97.7195 0.321336 1.86045 0
M  V30 996 O 97.0765 -0.695478 1.68729 0
M  V30 997 C 97.1275 2.72548 2.37487 0
M  V30 998 O 96.8485 3.99529 1.79745 0
M  V30 999 C 98.3495 2.9761 3.28547 0
M  V30 1000 H 95.5695 0.55237 0.380957 0
M  V30 1001 H 98.1135 1.96207 0.576467 0
M  V30 1002 H 96.2685 2.43303 3.01467 0
M  V30 1003 H 96.6825 4.59342 2.5319 0
M  V30 1004 H 98.1565 3.77084 4.03127 0
M  V30 1005 H 98.6335 2.0826 3.86684 0
M  V30 1006 H 99.2395 3.28345 2.70314 0
M  V30 1007 N 97.5546 -0.734337 1.39446 0
M  V30 1008 C 98.4866 -1.85861 1.34121 0
M  V30 1009 C 99.4996 -1.60871 0.249864 0
M  V30 1010 O 100.689 -1.71093 0.508865 0
M  V30 1011 C 97.7886 -3.21899 1.05991 0
M  V30 1012 C 96.9616 -3.74239 2.26415 0
M  V30 1013 C 96.0206 -4.88841 1.94733 0
M  V30 1014 O 95.0466 -5.02468 2.67422 0
M  V30 1015 N 96.2486 -5.73261 0.913884 0
M  V30 1016 H 99.0136 -1.90934 2.31007 0
M  V30 1017 H 96.5746 -0.915102 1.33557 0
M  V30 1018 H 98.5666 -3.96136 0.828147 0
M  V30 1019 H 97.1366 -3.12091 0.178361 0
M  V30 1020 H 96.3566 -2.91347 2.65539 0
M  V30 1021 H 97.6446 -4.05942 3.06738 0
M  V30 1022 H 97.0426 -5.64842 0.311476 0
M  V30 1023 H 95.5996 -6.47563 0.742015 0
M  V30 1024 N 99.0327 -1.24633 -0.964593 0
M  V30 1025 C 100.444 -1.08045 -1.5226 0
M  V30 1026 C 100.795 0.347116 -1.93105 0
M  V30 1027 O 99.9197 1.23588 -1.77637 0
M  V30 1028 C 100.515 -1.95514 -2.76695 0
M  V30 1029 C 99.0737 -1.8314 -3.28841 0
M  V30 1030 C 98.2207 -1.90262 -2.01732 0
M  V30 1031 H 101.172 -1.38064 -0.782553 0
M  V30 1032 H 101.193 -1.48925 -3.50145 0
M  V30 1033 H 100.705 -2.99407 -2.46936 0
M  V30 1034 H 98.8057 -0.82092 -3.63444 0
M  V30 1035 H 98.9187 -2.67406 -3.97531 0
M  V30 1036 H 97.2827 -1.34027 -2.16584 0
M  V30 1037 H 98.0657 -2.9574 -1.74334 0
M  V30 1038 N 100.511 1.16574 -1.06058 0
M  V30 1039 C 101.443 2.2045 -0.627239 0
M  V30 1040 C 102.456 1.59752 0.313534 0
M  V30 1041 O 103.645 1.78192 0.104896 0
M  V30 1042 C 100.745 3.3875 0.100974 0
M  V30 1043 C 99.9178 4.29008 -0.852687 0
M  V30 1044 C 98.9768 5.25944 -0.164152 0
M  V30 1045 O 98.0028 5.63535 -0.801047 0
M  V30 1046 N 99.2048 5.70075 1.09518 0
M  V30 1047 H 101.97 2.58249 -1.52077 0
M  V30 1048 H 99.5308 1.3156 -0.943594 0
M  V30 1049 H 101.523 4.00638 0.57194 0
M  V30 1050 H 100.093 2.99476 0.89628 0
M  V30 1051 H 99.3128 3.64419 -1.50308 0
M  V30 1052 H 100.601 4.86195 -1.49972 0
M  V30 1053 H 99.9988 5.41624 1.6328 0
M  V30 1054 H 98.5558 6.34067 1.51006 0
M  V30 1055 N 101.989 0.842826 1.3317 0
M  V30 1056 C 103.266 0.362216 1.92217 0
M  V30 1057 C 103.646 -1.15289 1.76838 0
M  V30 1058 O 102.994 -1.96914 1.15919 0
M  V30 1059 C 103.204 0.813495 3.39387 0
M  V30 1060 C 104.552 0.823804 4.16532 0
M  V30 1061 O 105.576 0.757358 3.48055 0
M  V30 1062 O 104.435 0.915193 5.38782 0
M  V30 1063 H 101.529 0.103317 0.820521 0
M  V30 1064 H 104.075 0.928942 1.42017 0
M  V30 1065 H 102.847 1.85624 3.4447 0
M  V30 1066 H 102.47 0.223561 3.96971 0
M  V30 1067 N 103.467 -1.45747 0.599634 0
M  V30 1068 C 104.397 -2.33235 -0.111306 0
M  V30 1069 C 105.378 -1.46359 -0.866781 0
M  V30 1070 O 106.563 -1.75146 -0.838904 0
M  V30 1071 C 103.693 -3.28932 -1.11451 0
M  V30 1072 C 102.647 -4.25381 -0.472772 0
M  V30 1073 C 101.973 -5.1071 -1.58365 0
M  V30 1074 C 103.273 -5.18831 0.600948 0
M  V30 1075 H 104.967 -2.92927 0.61919 0
M  V30 1076 H 102.513 -1.40857 0.299215 0
M  V30 1077 H 104.466 -3.89002 -1.62036 0
M  V30 1078 H 103.19 -2.67381 -1.8755 0
M  V30 1079 H 101.849 -3.66598 0.0121472 0
M  V30 1080 H 101.497 -4.45533 -2.33473 0
M  V30 1081 H 101.197 -5.7604 -1.15982 0
M  V30 1082 H 102.721 -5.73647 -2.09194 0
M  V30 1083 H 104.135 -5.73019 0.179491 0
M  V30 1084 H 102.532 -5.92595 0.946076 0
M  V30 1085 H 103.602 -4.6174 1.48068 0
M  V30 1086 N 104.945 -0.338344 -1.53925 0
M  V30 1087 C 105.892 0.520845 -2.24846 0
M  V30 1088 C 106.862 1.09976 -1.24477 0
M  V30 1089 O 108.047 1.13735 -1.53196 0
M  V30 1090 C 105.187 1.6685 -3.02084 0
M  V30 1091 C 104.3 1.11739 -4.17299 0
M  V30 1092 C 103.435 2.23193 -4.82036 0
M  V30 1093 C 102.474 1.65407 -5.89328 0
M  V30 1094 N 101.611 2.70582 -6.47866 0
M  V30 1095 H 106.451 -0.0904881 -2.97863 0
M  V30 1096 H 103.988 -0.0564282 -1.46992 0
M  V30 1097 H 105.946 2.34407 -3.45122 0
M  V30 1098 H 104.576 2.2509 -2.31375 0
M  V30 1099 H 103.628 0.332919 -3.7894 0
M  V30 1100 H 104.94 0.654677 -4.94485 0
M  V30 1101 H 104.094 2.98626 -5.28117 0
M  V30 1102 H 102.833 2.72807 -4.04262 0
M  V30 1103 H 101.838 0.884779 -5.42634 0
M  V30 1104 H 103.063 1.16652 -6.69006 0
M  V30 1105 H 101.009 3.1946 -5.72959 0
M  V30 1106 H 100.926 2.28917 -7.20509 0
M  V30 1107 H 102.194 3.45799 -6.98601 0
M  V30 1108 N 106.423 1.57458 -0.0668435 0
M  V30 1109 C 107.653 1.97337 0.611677 0
M  V30 1110 C 108.061 0.943744 1.63982 0
M  V30 1111 O 107.404 -0.0785584 1.83532 0
M  V30 1112 C 107.466 3.33511 1.34205 0
M  V30 1113 C 107.13 4.54598 0.467941 0
M  V30 1114 C 108.127 5.19186 -0.272439 0
M  V30 1115 C 105.812 5.0075 0.39427 0
M  V30 1116 C 107.806 6.28274 -1.07476 0
M  V30 1117 C 105.493 6.09711 -0.411729 0
M  V30 1118 C 106.491 6.73335 -1.14492 0
M  V30 1119 O 106.179 7.80199 -1.93763 0
M  V30 1120 H 105.911 0.654042 0.170893 0
M  V30 1121 H 108.465 2.04961 -0.134289 0
M  V30 1122 H 106.695 3.22487 2.13398 0
M  V30 1123 H 108.384 3.58029 1.91233 0
M  V30 1124 H 109.15 4.84477 -0.225086 0
M  V30 1125 H 105.029 4.51009 0.954569 0
M  V30 1126 H 108.573 6.77866 -1.64755 0
M  V30 1127 H 104.47 6.43854 -0.460664 0
M  V30 1128 H 105.238 7.97053 -1.86142 0
M  V30 1129 N 107.901 -0.206675 1.56239 0
M  V30 1130 C 108.848 -1.25617 1.93621 0
M  V30 1131 C 109.818 -1.45824 0.795274 0
M  V30 1132 O 111.003 -1.59148 1.05245 0
M  V30 1133 C 108.143 -2.59839 2.27107 0
M  V30 1134 C 107.256 -2.47308 3.54207 0
M  V30 1135 C 106.391 -3.74155 3.7707 0
M  V30 1136 C 105.43 -3.56407 4.97635 0
M  V30 1137 N 104.567 -4.75238 5.1681 0
M  V30 1138 H 109.407 -0.930383 2.83104 0
M  V30 1139 H 106.944 -0.448065 1.4011 0
M  V30 1140 H 108.902 -3.38021 2.44535 0
M  V30 1141 H 107.532 -2.90485 1.40778 0
M  V30 1142 H 106.584 -1.60483 3.4489 0
M  V30 1143 H 107.896 -2.30122 4.42544 0
M  V30 1144 H 107.05 -4.60778 3.94675 0
M  V30 1145 H 105.789 -3.94282 2.87042 0
M  V30 1146 H 104.794 -2.68168 4.79964 0
M  V30 1147 H 106.019 -3.37736 5.89161 0
M  V30 1148 H 103.965 -4.95651 4.29728 0
M  V30 1149 H 103.882 -4.60835 5.99306 0
M  V30 1150 H 105.15 -5.63246 5.38864 0
M  V30 1151 N 109.379 -1.50304 -0.473955 0
M  V30 1152 C 110.627 -1.60832 -1.22382 0
M  V30 1153 C 110.948 -0.30939 -1.9253 0
M  V30 1154 O 110.218 0.67296 -1.83978 0
M  V30 1155 H 108.798 -0.592652 -0.454723 0
M  V30 1156 H 111.46 -1.87068 -0.546968 0
M  V30 1157 H 110.556 -2.41803 -1.97327 0
M  V30 1158 N 110.857 0.726932 -1.39834 0
M  V30 1159 C 111.767 1.87131 -1.41489 0
M  V30 1160 C 112.783 1.71239 -0.308757 0
M  V30 1161 O 113.959 1.93701 -0.551529 0
M  V30 1162 C 111.024 3.22811 -1.26468 0
M  V30 1163 C 110.085 3.51039 -2.47124 0
M  V30 1164 C 109.318 4.80245 -2.3281 0
M  V30 1165 O 109.541 5.54537 -1.33585 0
M  V30 1166 O 108.475 5.08554 -3.21957 0
M  V30 1167 H 112.301 1.8869 -2.3797 0
M  V30 1168 H 109.886 0.875837 -1.21035 0
M  V30 1169 H 111.768 4.03877 -1.20255 0
M  V30 1170 H 110.443 3.22005 -0.330862 0
M  V30 1171 H 109.35 2.70027 -2.58914 0
M  V30 1172 H 110.683 3.56632 -3.39227 0
M  V30 1173 N 112.336 1.25143 0.95797 0
M  V30 1174 C 113.566 1.12261 1.73439 0
M  V30 1175 C 113.974 -0.326715 1.86358 0
M  V30 1176 O 113.317 -1.2367 1.35836 0
M  V30 1177 C 113.379 1.69966 3.16784 0
M  V30 1178 C 113.043 3.18936 3.27305 0
M  V30 1179 C 114.04 4.15968 3.11877 0
M  V30 1180 C 111.725 3.59083 3.51234 0
M  V30 1181 C 113.719 5.51126 3.20217 0
M  V30 1182 C 111.406 4.9438 3.5921 0
M  V30 1183 C 112.404 5.90211 3.43716 0
M  V30 1184 O 112.092 7.23046 3.51368 0
M  V30 1185 H 111.824 0.392476 0.550399 0
M  V30 1186 H 114.378 1.65927 1.21068 0
M  V30 1187 H 112.608 1.10744 3.70503 0
M  V30 1188 H 114.297 1.52232 3.76272 0
M  V30 1189 H 115.063 3.86292 2.93264 0
M  V30 1190 H 110.942 2.84989 3.62356 0
M  V30 1191 H 114.486 6.25905 3.0804 0
M  V30 1192 H 110.383 5.23723 3.77339 0
M  V30 1193 H 111.151 7.31097 3.6802 0
M  V30 1194 N 113.814 -1.1601 1.06675 0
M  V30 1195 C 115.039 -1.91068 0.806706 0
M  V30 1196 C 115.464 -1.77112 -0.633485 0
M  V30 1197 O 114.822 -1.09908 -1.44187 0
M  V30 1198 C 114.87 -3.39655 1.21106 0
M  V30 1199 O 113.974 -4.10893 0.352189 0
M  V30 1200 H 113.315 -0.595125 0.294486 0
M  V30 1201 H 115.845 -1.46955 1.42356 0
M  V30 1202 H 115.855 -3.90434 1.18428 0
M  V30 1203 H 114.53 -3.49132 2.26008 0
M  V30 1204 H 113.107 -3.70285 0.440868 0
M  V30 1205 N 115.292 -0.849877 -1.32721 0
M  V30 1206 C 116.202 -0.293791 -2.32753 0
M  V30 1207 C 117.218 0.585906 -1.63839 0
M  V30 1208 O 118.394 0.487413 -1.95413 0
M  V30 1209 C 115.459 0.512752 -3.42887 0
M  V30 1210 C 114.52 -0.39252 -4.27502 0
M  V30 1211 C 113.753 0.375625 -5.32377 0
M  V30 1212 O 113.976 1.60613 -5.4732 0
M  V30 1213 O 112.91 -0.256094 -6.01355 0
M  V30 1214 H 116.736 -1.12242 -2.82197 0
M  V30 1215 H 114.321 -0.612685 -1.36259 0
M  V30 1216 H 116.203 0.970704 -4.10067 0
M  V30 1217 H 114.878 1.31826 -2.95641 0
M  V30 1218 H 113.785 -0.898547 -3.63149 0
M  V30 1219 H 115.118 -1.16309 -4.7826 0
M  V30 1220 N 116.77 1.45427 -0.607355 0
M  V30 1221 C 117.7 2.3329 0.0989352 0
M  V30 1222 C 118.681 1.46816 0.859007 0
M  V30 1223 O 119.866 1.75588 0.829604 0
M  V30 1224 C 116.996 3.29518 1.09705 0
M  V30 1225 C 115.95 4.25626 0.450206 0
M  V30 1226 C 115.276 5.11542 1.55655 0
M  V30 1227 C 116.576 5.18505 -0.628455 0
M  V30 1228 H 118.27 2.92595 -0.634716 0
M  V30 1229 H 115.816 1.40696 -0.306681 0
M  V30 1230 H 117.769 3.89855 1.59971 0
M  V30 1231 H 116.493 2.68372 1.86129 0
M  V30 1232 H 115.152 3.66586 -0.0315886 0
M  V30 1233 H 114.8 4.46765 2.31107 0
M  V30 1234 H 114.5 5.76647 1.12925 0
M  V30 1235 H 116.024 5.74748 2.06148 0
M  V30 1236 H 117.438 5.72916 -0.209877 0
M  V30 1237 H 115.835 5.92085 -0.977489 0
M  V30 1238 H 116.905 4.60948 -1.50514 0
M  V30 1239 N 118.248 0.346503 1.53744 0
M  V30 1240 C 119.497 -0.250122 2.00143 0
M  V30 1241 C 119.81 -1.51418 1.23822 0
M  V30 1242 O 121.016 -2.18823 1.60713 0
M  V30 1243 C 119.472 -0.496252 3.56462 0
M  V30 1244 C 119.08 0.752077 4.41642 0
M  V30 1245 C 120.824 -1.05157 4.11269 0
M  V30 1246 C 118.731 0.476583 5.89477 0
M  V30 1247 H 117.661 -0.0972409 0.747703 0
M  V30 1248 H 120.312 0.46229 1.77581 0
M  V30 1249 H 118.694 -1.26944 3.75102 0
M  V30 1250 H 119.868 1.5266 4.34778 0
M  V30 1251 H 118.183 1.22925 3.97842 0
M  V30 1252 H 120.78 -1.27269 5.19333 0
M  V30 1253 H 121.123 -2.00799 3.64672 0
M  V30 1254 H 121.656 -0.339019 3.96353 0
M  V30 1255 H 118.395 1.4028 6.40314 0
M  V30 1256 H 117.915 -0.259794 5.99237 0
M  V30 1257 H 119.594 0.0949315 6.4693 0
M  V30 1258 N 119.726 -1.57421 0.075193 0
M  V30 1259 C 120.975 -1.92794 -0.592731 0
M  V30 1260 C 121.288 -0.957478 -1.70563 0
M  V30 1261 O 122.494 -1.20417 -2.43335 0
M  V30 1262 C 120.95 -3.42495 -1.10569 0
M  V30 1263 C 120.558 -4.47994 -0.0236121 0
M  V30 1264 C 122.302 -3.86864 -1.74748 0
M  V30 1265 C 120.209 -5.88829 -0.550803 0
M  V30 1266 H 119.139 -0.719591 -0.225177 0
M  V30 1267 H 121.79 -1.82902 0.147978 0
M  V30 1268 H 120.172 -3.47471 -1.89947 0
M  V30 1269 H 121.346 -4.54637 0.751099 0
M  V30 1270 H 119.661 -4.13113 0.522159 0
M  V30 1271 H 122.258 -4.8947 -2.15229 0
M  V30 1272 H 122.601 -3.24417 -2.60882 0
M  V30 1273 H 123.134 -3.84504 -1.01986 0
M  V30 1274 H 119.873 -6.54929 0.273457 0
M  V30 1275 H 119.393 -5.85698 -1.29296 0
M  V30 1276 H 121.072 -6.38811 -1.02613 0
M  V30 1277 N 121.204 0.198386 -1.56346 0
M  V30 1278 C 122.452 0.91747 -1.80075 0
M  V30 1279 C 122.773 1.83929 -0.647692 0
M  V30 1280 O 122.043 1.93029 0.334166 0
M  V30 1281 H 120.623 0.341774 -0.664228 0
M  V30 1282 H 123.285 0.204684 -1.93822 0
M  V30 1283 H 122.381 1.51055 -2.7311 0
M  V30 1284 N 122.682 1.50554 0.465978 0
M  V30 1285 C 123.592 1.72585 1.58907 0
M  V30 1286 C 124.608 0.60911 1.6299 0
M  V30 1287 O 125.784 0.88804 1.80765 0
M  V30 1288 C 122.849 1.81995 2.95091 0
M  V30 1289 C 121.91 3.05751 3.01355 0
M  V30 1290 C 121.143 3.14702 4.31043 0
M  V30 1291 O 121.366 2.30313 5.21835 0
M  V30 1292 O 120.3 4.07468 4.43005 0
M  V30 1293 H 124.126 2.67799 1.43239 0
M  V30 1294 H 121.711 1.34711 0.646013 0
M  V30 1295 H 123.593 1.90335 3.75966 0
M  V30 1296 H 122.268 0.899659 3.10947 0
M  V30 1297 H 121.175 3.02908 2.19539 0
M  V30 1298 H 122.508 3.97375 2.90437 0
M  V30 1299 N 124.16 -0.719506 1.40217 0
M  V30 1300 C 125.437 -1.47221 1.28784 0
M  V30 1301 C 125.817 -2.10883 -0.0956067 0
M  V30 1302 O 125.165 -1.99833 -1.10811 0
M  V30 1303 C 125.375 -2.5111 2.42373 0
M  V30 1304 C 126.723 -3.17053 2.82423 0
M  V30 1305 O 127.747 -2.61429 2.41937 0
M  V30 1306 O 126.606 -4.17742 3.52355 0
M  V30 1307 H 123.7 -0.654491 0.50554 0
M  V30 1308 H 126.246 -0.752014 1.52128 0
M  V30 1309 H 125.018 -2.02556 3.34793 0
M  V30 1310 H 124.641 -3.3067 2.20778 0
M  V30 1311 N 125.638 -1.25649 -0.95132 0
M  V30 1312 C 126.586 -1.06118 -2.06982 0
M  V30 1313 C 127.58 0.00889169 -1.69398 0
M  V30 1314 O 128.786 -0.146988 -1.79399 0
M  V30 1315 H 125.161 -0.326248 -0.677544 0
M  V30 1316 H 127.132 -2.00932 -2.2061 0
M  V30 1317 C 125.881 -0.700145 -3.40578 0
M  V30 1318 H 125.204 -1.51537 -3.69968 0
M  V30 1319 H 126.644 -0.603211 -4.19687 0
M  V30 1320 C 125.103 0.59403 -3.31622 0
M  V30 1321 O 125.633 1.63522 -3.66911 0
M  V30 1322 N 123.839 0.58089 -2.84735 0
M  V30 1323 H 123.386 -0.266783 -2.56215 0
M  V30 1324 H 123.344 1.44695 -2.79125 0
M  V30 1325 N 127.117 1.15442 -1.07289 0
M  V30 1326 C 128.047 2.22312 -0.714107 0
M  V30 1327 C 129.028 1.67467 0.298155 0
M  V30 1328 O 130.213 1.93445 0.171048 0
M  V30 1329 C 127.343 3.47124 -0.110448 0
M  V30 1330 C 126.297 4.14926 -1.04979 0
M  V30 1331 C 125.623 5.33807 -0.308924 0
M  V30 1332 C 126.923 4.64762 -2.38314 0
M  V30 1333 H 128.617 2.5258 -1.6076 0
M  V30 1334 H 126.163 1.21404 -0.77441 0
M  V30 1335 H 128.116 4.21124 0.152482 0
M  V30 1336 H 126.84 3.16187 0.81812 0
M  V30 1337 H 125.499 3.42866 -1.29764 0
M  V30 1338 H 125.147 4.99126 0.623084 0
M  V30 1339 H 124.847 5.80113 -0.935036 0
M  V30 1340 H 126.371 6.10576 -0.0537771 0
M  V30 1341 H 127.785 5.30292 -2.1786 0
M  V30 1342 H 126.182 5.21728 -2.96514 0
M  V30 1343 H 127.252 3.80434 -3.00663 0
M  V30 1344 N 128.595 0.856903 1.32268 0
M  V30 1345 C 129.844 0.457599 1.96441 0
M  V30 1346 C 130.157 -0.992426 1.68553 0
M  V30 1347 O 131.363 -1.49727 2.26482 0
M  V30 1348 C 129.819 0.767358 3.51624 0
M  V30 1349 C 129.427 2.23326 3.88367 0
M  V30 1350 C 131.171 0.435887 4.22256 0
M  V30 1351 C 129.078 2.48613 5.36606 0
M  V30 1352 H 128.008 0.167387 0.735185 0
M  V30 1353 H 130.659 1.048 1.5063 0
M  V30 1354 H 129.041 0.106367 3.95857 0
M  V30 1355 H 130.215 2.93623 3.55137 0
M  V30 1356 H 128.53 2.52948 3.30766 0
M  V30 1357 H 131.127 0.602202 5.31298 0
M  V30 1358 H 131.47 -0.622672 4.11617 0
M  V30 1359 H 132.003 1.05286 3.83614 0
M  V30 1360 H 128.742 3.53101 5.52268 0
M  V30 1361 H 128.262 1.82896 5.71235 0
M  V30 1362 H 129.941 2.32676 6.03714 0
M  V30 1363 N 130.073 -1.45103 0.615059 0
M  V30 1364 C 131.489 -1.57137 0.279322 0
M  V30 1365 C 131.689 -1.60523 -1.21797 0
M  V30 1366 O 130.745 -1.53956 -2.00134 0
M  V30 1367 C 132.058 -2.85062 0.957083 0
M  V30 1368 C 133.606 -2.98749 0.933706 0
M  V30 1369 C 134.081 -4.29455 1.59162 0
M  V30 1370 N 135.572 -4.36231 1.55746 0
M  V30 1371 C 136.307 -5.36051 2.0356 0
M  V30 1372 N 135.803 -6.42367 2.59494 0
M  V30 1373 N 137.596 -5.27456 1.94284 0
M  V30 1374 H 129.747 -1.41148 1.58717 0
M  V30 1375 H 132.01 -0.675331 0.665306 0
M  V30 1376 H 131.716 -2.88488 2.01166 0
M  V30 1377 H 131.59 -3.7407 0.48494 0
M  V30 1378 H 133.977 -2.94886 -0.112347 0
M  V30 1379 H 134.058 -2.11132 1.44419 0
M  V30 1380 H 133.702 -4.34077 2.63704 0
M  V30 1381 H 133.632 -5.15901 1.0561 0
M  V30 1382 H 136.123 -3.60011 1.14893 0
M  V30 1383 H 136.436 -7.14793 2.93752 0
M  V30 1384 H 134.781 -6.43097 2.63537 0
M  V30 1385 H 137.972 -4.43308 1.5032 0
M  V30 1386 H 138.145 -6.05099 2.3186 0
M  V30 1387 N 131.551 -0.354651 -1.53558 0
M  V30 1388 C 132.461 0.50515 -2.29097 0
M  V30 1389 C 133.477 1.10223 -1.34636 0
M  V30 1390 O 134.653 1.11553 -1.67684 0
M  V30 1391 C 131.718 1.63479 -3.05738 0
M  V30 1392 C 130.779 1.06636 -4.15845 0
M  V30 1393 C 130.012 2.14217 -4.88822 0
M  V30 1394 O 130.235 3.35137 -4.61562 0
M  V30 1395 O 129.169 1.77887 -5.75013 0
M  V30 1396 H 132.995 -0.109237 -3.03503 0
M  V30 1397 H 130.58 -0.119357 -1.48922 0
M  V30 1398 H 132.462 2.2918 -3.5363 0
M  V30 1399 H 131.137 2.23478 -2.34178 0
M  V30 1400 H 130.044 0.373565 -3.7223 0
M  V30 1401 H 131.377 0.511081 -4.89539 0
M  V30 1402 N 133.029 1.57378 -0.0835403 0
M  V30 1403 C 134.276 1.9393 0.58287 0
M  V30 1404 C 134.604 0.964455 1.68904 0
M  V30 1405 O 133.859 -0.0179474 1.95692 0
M  V30 1406 C 134.158 3.37063 1.1884 0
M  V30 1407 C 133.824 4.50424 0.207194 0
M  V30 1408 C 132.486 4.81159 -0.0627115 0
M  V30 1409 C 134.838 5.19136 -0.463426 0
M  V30 1410 C 132.166 5.77939 -1.01012 0
M  V30 1411 C 134.518 6.16931 -1.39924 0
M  V30 1412 C 133.182 6.46078 -1.67749 0
M  V30 1413 H 132.452 0.70964 0.213287 0
M  V30 1414 H 135.099 1.90856 -0.156916 0
M  V30 1415 H 133.404 3.3666 2.00418 0
M  V30 1416 H 135.101 3.6264 1.71153 0
M  V30 1417 H 131.691 4.2646 0.427747 0
M  V30 1418 H 135.875 4.95576 -0.268034 0
M  V30 1419 H 131.131 5.98842 -1.23283 0
M  V30 1420 H 135.305 6.69273 -1.92476 0
M  V30 1421 H 132.932 7.2088 -2.41321 0
M  V30 1422 N 134.507 -0.190092 1.56449 0
M  V30 1423 C 135.747 -0.916414 1.82705 0
M  V30 1424 C 136.111 -1.80235 0.661763 0
M  V30 1425 O 137.312 -2.56484 0.80433 0
M  V30 1426 C 135.583 -1.70691 3.14005 0
M  V30 1427 S 137.142 -2.48457 3.61683 0
M  V30 1428 H 133.96 -0.307281 0.64117 0
M  V30 1429 H 136.562 -0.179433 1.94675 0
M  V30 1430 H 135.266 -1.04677 3.96826 0
M  V30 1431 H 134.797 -2.48562 3.04927 0
M  V30 1432 H 136.812 -3.72756 3.27517 0
M  V30 1433 N 135.985 -1.50799 -0.457987 0
M  V30 1434 C 136.918 -1.65273 -1.57353 0
M  V30 1435 C 137.896 -0.500578 -1.54703 0
M  V30 1436 O 139.08 -0.721781 -1.74134 0
M  V30 1437 C 136.207 -1.64737 -2.95938 0
M  V30 1438 C 135.253 -2.8567 -3.16693 0
M  V30 1439 S 136.086 -4.46791 -2.95191 0
M  V30 1440 C 137.242 -4.48968 -4.36095 0
M  V30 1441 H 137.475 -2.59633 -1.44838 0
M  V30 1442 H 135.008 -1.40225 -0.64625 0
M  V30 1443 H 136.966 -1.65112 -3.7583 0
M  V30 1444 H 135.627 -0.715899 -3.05833 0
M  V30 1445 H 134.82 -2.81637 -4.17967 0
M  V30 1446 H 134.422 -2.8293 -2.44594 0
M  V30 1447 H 136.714 -4.23337 -5.28954 0
M  V30 1448 H 137.657 -5.50664 -4.45168 0
M  V30 1449 H 138.065 -3.78522 -4.18786 0
M  V30 1450 N 137.463 0.71206 -1.40597 0
M  V30 1451 C 138.712 1.46754 -1.38369 0
M  V30 1452 C 139.025 1.95598 0.0097839 0
M  V30 1453 O 140.231 2.71059 0.154677 0
M  V30 1454 C 138.687 2.65289 -2.43207 0
M  V30 1455 C 138.295 2.23301 -3.88382 0
M  V30 1456 C 140.039 3.43008 -2.50091 0
M  V30 1457 C 137.946 3.38696 -4.84808 0
M  V30 1458 H 136.876 0.55118 -0.514506 0
M  V30 1459 H 139.527 0.774616 -1.66349 0
M  V30 1460 H 137.909 3.36769 -2.08332 0
M  V30 1461 H 139.083 1.59218 -4.32419 0
M  V30 1462 H 137.398 1.58618 -3.85006 0
M  V30 1463 H 139.995 4.28881 -3.1932 0
M  V30 1464 H 140.338 3.87065 -1.53253 0
M  V30 1465 H 140.871 2.78574 -2.83974 0
M  V30 1466 H 137.61 2.99668 -5.82992 0
M  V30 1467 H 137.13 4.01683 -4.45433 0
M  V30 1468 H 138.809 4.04712 -5.04794 0
M  V30 1469 N 138.941 1.26152 0.944643 0
M  V30 1470 C 139.889 1.07215 2.06417 0
M  V30 1471 C 140.883 9.2007e-05 1.694 0
M  V30 1472 O 142.089 0.1565 1.79318 0
M  V30 1473 H 138.464 0.329837 0.675805 0
M  V30 1474 H 140.435 2.02099 2.19541 0
M  V30 1475 C 139.184 0.718197 3.40202 0
M  V30 1476 H 138.507 1.53497 3.69159 0
M  V30 1477 H 139.947 0.625459 4.19361 0
M  V30 1478 C 138.406 -0.576435 3.31932 0
M  V30 1479 O 138.936 -1.61574 3.67773 0
M  V30 1480 N 137.142 -0.565781 2.85039 0
M  V30 1481 H 136.689 0.280367 2.5607 0
M  V30 1482 H 136.647 -1.43213 2.79888 0
M  V30 1483 N 140.419 -1.14872 1.07899 0
M  V30 1484 C 141.83 -1.67367 0.827363 0
M  V30 1485 C 142.181 -1.85236 -0.646693 0
M  V30 1486 O 141.306 -1.55974 -1.50004 0
M  V30 1487 C 141.901 -3.04016 1.49532 0
M  V30 1488 C 140.46 -3.53566 1.29106 0
M  V30 1489 C 139.607 -2.29161 1.56143 0
M  V30 1490 H 142.558 -0.990083 1.24028 0
M  V30 1491 H 142.579 -3.69219 0.919643 0
M  V30 1492 H 142.091 -2.90978 2.56814 0
M  V30 1493 H 140.192 -3.71835 0.238713 0
M  V30 1494 H 140.305 -4.34661 2.01511 0
M  V30 1495 H 138.669 -2.34978 0.982717 0
M  V30 1496 H 139.452 -2.18705 2.64619 0
M  V30 1497 N 141.898 -0.863906 -1.31812 0
M  V30 1498 C 143.146 -0.470904 -1.96537 0
M  V30 1499 C 143.467 0.978771 -1.68657 0
M  V30 1500 O 142.737 1.6853 -0.998717 0
M  V30 1501 H 141.317 -0.171148 -0.72713 0
M  V30 1502 H 143.979 -1.10236 -1.60729 0
M  V30 1503 H 143.075 -0.623616 -3.05806 0
M  V30 1504 N 143.376 1.44774 -0.622745 0
M  V30 1505 C 144.604 2.06487 -0.130722 0
M  V30 1506 C 145.019 1.46476 1.19123 0
M  V30 1507 O 144.376 0.584502 1.72887 0
M  V30 1508 C 144.427 3.615 -0.000807207 0
M  V30 1509 O 144.148 4.19274 -1.27048 0
M  V30 1510 C 145.649 4.40229 0.520898 0
M  V30 1511 H 142.869 0.666704 -0.0758106 0
M  V30 1512 H 145.413 1.85779 -0.854774 0
M  V30 1513 H 143.568 3.81498 0.673643 0
M  V30 1514 H 143.982 5.12622 -1.1099 0
M  V30 1515 H 145.456 5.49144 0.560838 0
M  V30 1516 H 145.933 4.1108 1.54627 0
M  V30 1517 H 146.539 4.25131 -0.120018 0
M  V30 1518 N 144.854 0.36279 1.53368 0
M  V30 1519 C 145.764 -0.492994 2.29362 0
M  V30 1520 C 146.78 -1.09507 1.35219 0
M  V30 1521 O 147.956 -1.10662 1.68273 0
M  V30 1522 C 145.021 -1.61855 3.066 0
M  V30 1523 C 144.082 -1.04429 4.16405 0
M  V30 1524 C 143.315 -2.11621 4.89951 0
M  V30 1525 O 143.538 -3.32684 4.63333 0
M  V30 1526 O 142.472 -1.74835 5.75948 0
M  V30 1527 H 146.298 0.125331 3.03441 0
M  V30 1528 H 143.883 0.127253 1.48857 0
M  V30 1529 H 145.765 -2.27302 3.54841 0
M  V30 1530 H 144.44 -2.22233 2.3536 0
M  V30 1531 H 143.347 -0.353819 3.72423 0
M  V30 1532 H 144.68 -0.485113 4.89804 0
M  V30 1533 N 146.332 -1.57332 0.0918853 0
M  V30 1534 C 147.58 -1.93853 -0.571446 0
M  V30 1535 C 147.901 -0.974212 -1.6892 0
M  V30 1536 O 147.171 -0.0257254 -1.95883 0
M  V30 1537 H 145.751 -0.715666 -0.214082 0
M  V30 1538 H 148.413 -1.94287 0.154464 0
M  V30 1539 H 147.509 -2.96191 -0.983729 0
M  V30 1540 N 147.81 0.181792 -1.56548 0
M  V30 1541 C 149.058 0.89832 -1.81038 0
M  V30 1542 C 149.379 1.83232 -0.667164 0
M  V30 1543 O 148.649 1.93372 0.313673 0
M  V30 1544 H 147.229 0.33471 -0.667816 0
M  V30 1545 H 149.891 0.184116 -1.94028 0
M  V30 1546 H 148.987 1.4815 -2.74696 0
M  V30 1547 N 149.288 1.51039 0.449983 0
M  V30 1548 C 150.537 1.62317 1.19733 0
M  V30 1549 C 150.85 0.339101 1.92638 0
M  V30 1550 O 152.056 0.331069 2.69474 0
M  V30 1551 C 150.512 2.86608 2.17678 0
M  V30 1552 C 150.12 4.21972 1.50479 0
M  V30 1553 C 151.864 3.07239 2.92924 0
M  V30 1554 C 149.771 5.37426 2.46834 0
M  V30 1555 H 148.701 0.604532 0.450619 0
M  V30 1556 H 151.352 1.77494 0.465625 0
M  V30 1557 H 149.734 2.65037 2.94231 0
M  V30 1558 H 150.908 4.53878 0.795716 0
M  V30 1559 H 149.223 4.07117 0.874344 0
M  V30 1560 H 151.82 3.90668 3.65079 0
M  V30 1561 H 152.163 2.19807 3.5354 0
M  V30 1562 H 152.696 3.29091 2.23481 0
M  V30 1563 H 149.435 6.27079 1.90926 0
M  V30 1564 H 148.955 5.09912 3.15832 0
M  V30 1565 H 150.634 5.68862 3.08228 0
M  V30 1566 N 150.766 -0.704594 1.40972 0
M  V30 1567 C 151.713 -1.81862 1.42109 0
M  V30 1568 C 152.683 -1.63781 0.276593 0
M  V30 1569 O 153.868 -1.84759 0.4763 0
M  V30 1570 C 151.008 -3.19669 1.30022 0
M  V30 1571 C 150.121 -3.49246 2.54267 0
M  V30 1572 C 149.256 -4.76618 2.3454 0
M  V30 1573 C 148.295 -4.99133 3.54306 0
M  V30 1574 N 147.432 -6.17726 3.33706 0
M  V30 1575 H 152.272 -1.80226 2.37324 0
M  V30 1576 H 149.809 -0.880238 1.17857 0
M  V30 1577 H 151.767 -3.99263 1.21018 0
M  V30 1578 H 150.397 -3.20506 0.384192 0
M  V30 1579 H 149.449 -2.64125 2.73756 0
M  V30 1580 H 150.761 -3.61788 3.43381 0
M  V30 1581 H 149.915 -5.64249 2.22952 0
M  V30 1582 H 148.654 -4.66305 1.42867 0
M  V30 1583 H 147.659 -4.09953 3.66359 0
M  V30 1584 H 148.884 -5.11311 4.4692 0
M  V30 1585 H 146.83 -6.08642 2.44725 0
M  V30 1586 H 146.747 -6.30995 4.16391 0
M  V30 1587 H 148.015 -7.08115 3.25873 0
M  V30 1588 N 152.244 -1.26651 -0.937939 0
M  V30 1589 C 153.191 -1.0849 -2.03712 0
M  V30 1590 C 154.161 0.011033 -1.66096 0
M  V30 1591 O 155.346 -0.149353 -1.90215 0
M  V30 1592 C 152.486 -0.72735 -3.37348 0
M  V30 1593 C 151.599 -1.89986 -3.87981 0
M  V30 1594 C 150.734 -1.48513 -5.10017 0
M  V30 1595 C 149.773 -2.62575 -5.5292 0
M  V30 1596 N 148.91 -2.21762 -6.66158 0
M  V30 1597 H 153.75 -2.02551 -2.18579 0
M  V30 1598 H 151.287 -1.00844 -1.07093 0
M  V30 1599 H 153.245 -0.50092 -4.14182 0
M  V30 1600 H 151.875 0.176298 -3.22318 0
M  V30 1601 H 150.927 -2.23913 -3.07518 0
M  V30 1602 H 152.239 -2.75586 -4.15757 0
M  V30 1603 H 151.393 -1.21934 -5.94321 0
M  V30 1604 H 150.132 -0.60009 -4.83994 0
M  V30 1605 H 149.137 -2.8988 -4.67172 0
M  V30 1606 H 150.362 -3.51685 -5.80943 0
M  V30 1607 H 148.308 -1.35696 -6.41812 0
M  V30 1608 H 148.225 -3.00903 -6.93537 0
M  V30 1609 H 149.493 -1.98403 -7.53828 0
M  V30 1610 N 153.722 1.14298 -1.08507 0
M  V30 1611 C 154.95 1.89219 -0.836876 0
M  V30 1612 C 155.365 1.78638 0.611054 0
M  V30 1613 O 154.722 1.14643 1.41998 0
M  V30 1614 C 154.773 3.39158 -1.25116 0
M  V30 1615 O 154.494 3.49449 -2.64229 0
M  V30 1616 C 155.995 4.31073 -1.03398 0
M  V30 1617 H 153.215 0.599328 -0.301739 0
M  V30 1618 H 155.759 1.44746 -1.44461 0
M  V30 1619 H 153.914 3.81251 -0.687514 0
M  V30 1620 H 154.328 4.42589 -2.81452 0
M  V30 1621 H 155.802 5.34646 -1.37323 0
M  V30 1622 H 156.279 4.3919 0.0289259 0
M  V30 1623 H 156.885 3.94738 -1.58311 0
M  V30 1624 N 155.201 0.870884 1.31352 0
M  V30 1625 C 156.131 0.343096 2.30966 0
M  V30 1626 C 157.112 -0.566507 1.60389 0
M  V30 1627 O 158.297 -0.483336 1.88089 0
M  V30 1628 C 155.427 -0.455487 3.443 0
M  V30 1629 C 154.381 0.361103 4.26474 0
M  V30 1630 C 153.707 -0.563221 5.31725 0
M  V30 1631 C 155.007 1.59566 4.97329 0
M  V30 1632 H 156.701 1.17548 2.75359 0
M  V30 1633 H 154.247 0.566686 1.32381 0
M  V30 1634 H 156.2 -0.83525 4.13039 0
M  V30 1635 H 154.924 -1.32139 2.98675 0
M  V30 1636 H 153.583 0.722825 3.59403 0
M  V30 1637 H 153.231 -1.42643 4.82351 0
M  V30 1638 H 152.931 -0.0207409 5.87596 0
M  V30 1639 H 154.455 -0.939808 6.03324 0
M  V30 1640 H 155.869 1.28728 5.58661 0
M  V30 1641 H 154.266 2.07728 5.63 0
M  V30 1642 H 155.336 2.34798 4.24262 0
M  V30 1643 N 156.679 -1.44442 0.630414 0
M  V30 1644 C 157.928 -2.01267 0.132073 0
M  V30 1645 C 158.241 -1.50172 -1.25331 0
M  V30 1646 O 159.447 -1.9912 -1.84562 0
M  V30 1647 C 157.903 -3.59422 0.185362 0
M  V30 1648 C 157.511 -4.19514 1.57201 0
M  V30 1649 C 159.255 -4.23724 -0.256553 0
M  V30 1650 C 157.162 -5.69891 1.58045 0
M  V30 1651 H 156.092 -0.752619 0.0456092 0
M  V30 1652 H 158.743 -1.65666 0.789106 0
M  V30 1653 H 157.125 -3.92318 -0.538759 0
M  V30 1654 H 158.299 -3.98156 2.31966 0
M  V30 1655 H 156.614 -3.67496 1.95795 0
M  V30 1656 H 159.211 -5.34019 -0.269767 0
M  V30 1657 H 159.554 -3.96013 -1.28372 0
M  V30 1658 H 160.087 -3.95629 0.41505 0
M  V30 1659 H 156.826 -6.02336 2.58597 0
M  V30 1660 H 156.346 -5.93373 0.875725 0
M  V30 1661 H 158.025 -6.33515 1.31408 0
M  V30 1662 N 158.157 -0.370918 -1.53173 0
M  V30 1663 C 159.405 0.216673 -2.00935 0
M  V30 1664 C 159.726 1.48845 -1.25977 0
M  V30 1665 O 158.996 1.92286 -0.374551 0
M  V30 1666 H 157.576 0.0830565 -0.742368 0
M  V30 1667 H 160.238 -0.49838 -1.8842 0
M  V30 1668 H 159.334 0.439893 -3.08984 0
M  V30 1669 N 159.635 1.57281 -0.100228 0
M  V30 1670 C 160.912 1.86014 0.604812 0
M  V30 1671 C 161.292 0.998025 1.86018 0
M  V30 1672 O 160.64 0.0718184 2.28387 0
M  V30 1673 C 160.85 3.36784 0.915278 0
M  V30 1674 C 162.198 4.04957 1.27651 0
M  V30 1675 O 163.222 3.41695 1.00613 0
M  V30 1676 O 162.081 5.16593 1.7831 0
M  V30 1677 H 159.175 0.76942 0.303185 0
M  V30 1678 H 161.721 1.69176 -0.133313 0
M  V30 1679 H 160.493 3.91292 0.0248896 0
M  V30 1680 H 160.116 3.58987 1.70921 0
M  V30 1681 N 161.113 -0.173488 1.56642 0
M  V30 1682 C 162.06 -1.21482 1.96242 0
M  V30 1683 C 163.03 -1.44104 0.826027 0
M  V30 1684 O 164.215 -1.5688 1.08597 0
M  V30 1685 C 161.355 -2.54964 2.32567 0
M  V30 1686 C 160.468 -2.39739 3.59373 0
M  V30 1687 C 159.603 -3.66072 3.84921 0
M  V30 1688 C 158.642 -3.45771 5.05083 0
M  V30 1689 N 157.779 -4.64169 5.26775 0
M  V30 1690 H 162.619 -0.870123 2.85014 0
M  V30 1691 H 160.156 -0.418245 1.41029 0
M  V30 1692 H 162.114 -3.32758 2.5165 0
M  V30 1693 H 160.744 -2.87433 1.46908 0
M  V30 1694 H 159.796 -1.53131 3.48217 0
M  V30 1695 H 161.108 -2.20683 4.47326 0
M  V30 1696 H 160.262 -4.52303 4.0436 0
M  V30 1697 H 159.001 -3.88105 2.9534 0
M  V30 1698 H 158.006 -2.57927 4.85545 0
M  V30 1699 H 159.231 -3.25163 5.96193 0
M  V30 1700 H 157.177 -4.86425 4.40144 0
M  V30 1701 H 157.094 -4.48019 6.08946 0
M  V30 1702 H 158.362 -5.51689 5.5069 0
M  V30 1703 N 162.591 -1.51276 -0.441967 0
M  V30 1704 C 163.539 -1.72823 -1.55676 0
M  V30 1705 C 164.533 -0.59445 -1.58627 0
M  V30 1706 O 165.739 -0.775715 -1.62427 0
M  V30 1707 H 162.114 -0.545983 -0.517113 0
M  V30 1708 H 164.085 -2.6628 -1.34675 0
M  V30 1709 C 162.834 -1.86619 -2.93375 0
M  V30 1710 H 162.157 -2.73264 -2.91834 0
M  V30 1711 H 163.597 -2.05709 -3.70756 0
M  V30 1712 C 162.056 -0.624842 -3.31055 0
M  V30 1713 O 162.586 0.222636 -4.01083 0
M  V30 1714 N 160.792 -0.470288 -2.86769 0
M  V30 1715 H 160.339 -1.161 -2.29953 0
M  V30 1716 H 160.297 0.359051 -3.12343 0
M  V30 1717 N 164.069 0.697108 -1.41344 0
M  V30 1718 C 164.999 1.82353 -1.45841 0
M  V30 1719 C 165.98 1.67115 -0.317247 0
M  V30 1720 O 167.165 1.86871 -0.528474 0
M  V30 1721 C 164.295 3.20476 -1.33838 0
M  V30 1722 C 163.249 3.50415 -2.4575 0
M  V30 1723 C 162.575 4.87878 -2.18813 0
M  V30 1724 C 163.875 3.49546 -3.88091 0
M  V30 1725 H 165.569 1.78846 -2.40113 0
M  V30 1726 H 163.115 0.859028 -1.15571 0
M  V30 1727 H 165.068 3.98988 -1.35596 0
M  V30 1728 H 163.792 3.24604 -0.360498 0
M  V30 1729 H 162.451 2.74253 -2.43271 0
M  V30 1730 H 162.099 4.8863 -1.19371 0
M  V30 1731 H 161.799 5.08875 -2.93803 0
M  V30 1732 H 163.323 5.68702 -2.22284 0
M  V30 1733 H 164.737 4.18066 -3.92293 0
M  V30 1734 H 163.134 3.82075 -4.62751 0
M  V30 1735 H 164.204 2.48552 -4.16353 0
M  V30 1736 N 165.547 1.27147 0.931209 0
M  V30 1737 C 166.477 1.12081 2.04842 0
M  V30 1738 C 167.458 0.0232364 1.70084 0
M  V30 1739 O 168.643 0.197085 1.93197 0
M  V30 1740 C 165.773 0.76354 3.38803 0
M  V30 1741 C 164.727 1.81396 3.87659 0
M  V30 1742 C 164.053 1.31075 5.18385 0
M  V30 1743 C 165.353 3.21739 4.11438 0
M  V30 1744 H 167.047 2.05537 2.17703 0
M  V30 1745 H 164.593 0.989603 1.04608 0
M  V30 1746 H 166.546 0.644982 4.16435 0
M  V30 1747 H 165.27 -0.206727 3.25945 0
M  V30 1748 H 163.929 1.92136 3.12217 0
M  V30 1749 H 163.577 0.330037 5.01916 0
M  V30 1750 H 163.277 2.013 5.52044 0
M  V30 1751 H 164.801 1.20506 5.98591 0
M  V30 1752 H 166.215 3.14019 4.79651 0
M  V30 1753 H 164.612 3.89644 4.56397 0
M  V30 1754 H 165.682 3.67054 3.16859 0
M  V30 1755 N 167.025 -1.13721 1.09112 0
M  V30 1756 C 167.958 -2.18094 0.67158 0
M  V30 1757 C 168.936 -1.59414 -0.320299 0
M  V30 1758 O 170.12 -1.87183 -0.222444 0
M  V30 1759 C 167.247 -3.38698 -0.0111189 0
M  V30 1760 C 166.293 -4.15966 0.942055 0
M  V30 1761 S 167.126 -4.7604 2.45246 0
M  V30 1762 C 168.282 -5.99994 1.78208 0
M  V30 1763 H 168.515 -2.53344 1.55577 0
M  V30 1764 H 166.048 -1.24967 0.906789 0
M  V30 1765 H 168.006 -4.08559 -0.398716 0
M  V30 1766 H 166.667 -3.01756 -0.871905 0
M  V30 1767 H 165.86 -5.02318 0.411396 0
M  V30 1768 H 165.462 -3.51745 1.2709 0
M  V30 1769 H 167.754 -6.68441 1.10424 0
M  V30 1770 H 168.697 -6.57662 2.62463 0
M  V30 1771 H 169.105 -5.50432 1.25238 0
M  V30 1772 N 168.503 -0.877838 -1.30888 0
M  V30 1773 C 169.466 -0.344265 -2.266 0
M  V30 1774 C 170.466 0.50922 -1.52524 0
M  V30 1775 O 171.656 0.317398 -1.71284 0
M  V30 1776 C 168.788 0.510198 -3.37061 0
M  V30 1777 H 169.981 -1.1893 -2.7531 0
M  V30 1778 H 167.534 -0.654088 -1.41956 0
M  V30 1779 H 168.269 1.37612 -2.93655 0
M  V30 1780 H 168.054 -0.101047 -3.9197 0
M  V30 1781 H 169.544 0.875537 -4.08319 0
M  V30 1782 N 169.982 1.44106 -0.638065 0
M  V30 1783 C 171.212 2.06037 -0.152394 0
M  V30 1784 C 171.62 1.47808 1.18108 0
M  V30 1785 O 170.963 0.598092 1.73691 0
M  V30 1786 C 171.025 3.59488 0.0293714 0
M  V30 1787 C 170.689 4.4022 -1.22702 0
M  V30 1788 C 171.686 4.73256 -2.15232 0
M  V30 1789 C 169.371 4.8048 -1.46437 0
M  V30 1790 C 171.365 5.45444 -3.29802 0
M  V30 1791 C 169.052 5.52417 -2.61303 0
M  V30 1792 C 170.05 5.84819 -3.52811 0
M  V30 1793 O 169.738 6.55289 -4.65673 0
M  V30 1794 H 169.47 0.671233 -0.0801401 0
M  V30 1795 H 172.024 1.85851 -0.874563 0
M  V30 1796 H 170.254 3.78191 0.806758 0
M  V30 1797 H 171.943 4.03164 0.470475 0
M  V30 1798 H 172.709 4.42684 -1.98131 0
M  V30 1799 H 168.588 4.54676 -0.760977 0
M  V30 1800 H 172.132 5.70653 -4.01249 0
M  V30 1801 H 168.029 5.82404 -2.78344 0
M  V30 1802 H 168.797 6.73762 -4.64744 0
M  V30 1803 N 171.46 0.379036 1.52974 0
M  V30 1804 C 172.706 -0.206727 2.01744 0
M  V30 1805 C 173.039 -1.47314 1.26539 0
M  V30 1806 O 172.314 -1.91084 0.362903 0
M  V30 1807 C 172.597 -0.485066 3.56818 0
M  V30 1808 C 172.45 0.795919 4.42702 0
M  V30 1809 C 173.769 -1.28003 4.21074 0
M  V30 1810 H 170.888 -0.0736607 0.73331 0
M  V30 1811 H 173.53 0.506581 1.83122 0
M  V30 1812 H 171.68 -1.09272 3.72816 0
M  V30 1813 H 173.352 1.43307 4.38476 0
M  V30 1814 H 171.595 1.41344 4.10127 0
M  V30 1815 H 172.266 0.555947 5.49193 0
M  V30 1816 H 174.742 -0.765867 4.08991 0
M  V30 1817 H 173.618 -1.44352 5.29579 0
M  V30 1818 H 173.879 -2.29236 3.78026 0
M  V30 1819 N 172.938 -1.57226 0.108567 0
M  V30 1820 C 173.888 -2.11305 -0.856396 0
M  V30 1821 C 174.872 -1.03129 -1.23504 0
M  V30 1822 O 176.064 -1.29381 -1.20787 0
M  V30 1823 C 173.193 -2.70771 -2.11041 0
M  V30 1824 C 172.279 -3.86011 -1.7566 0
M  V30 1825 N 172.67 -4.93492 -1.10902 0
M  V30 1826 C 170.968 -3.95999 -2.05185 0
M  V30 1827 C 171.669 -5.73984 -0.944308 0
M  V30 1828 N 170.645 -5.2346 -1.46596 0
M  V30 1829 H 174.447 -2.91784 -0.352002 0
M  V30 1830 H 171.961 -1.62126 -0.0942324 0
M  V30 1831 H 173.958 -3.07851 -2.81128 0
M  V30 1832 H 172.618 -1.91751 -2.62034 0
M  V30 1833 H 173.629 -5.1208 -0.774235 0
M  V30 1834 H 170.306 -3.28007 -2.58298 0
M  V30 1835 H 171.696 -6.70479 -0.436813 0
M  V30 1836 N 174.416 0.165178 -1.56732 0
M  V30 1837 C 175.662 0.882112 -1.82611 0
M  V30 1838 C 175.995 1.81628 -0.687378 0
M  V30 1839 O 175.27 1.92009 0.310267 0
M  V30 1840 C 175.553 1.67245 -3.18906 0
M  V30 1841 C 175.406 0.760987 -4.43316 0
M  V30 1842 C 176.725 2.63884 -3.52212 0
M  V30 1843 H 173.844 0.319242 -0.664269 0
M  V30 1844 H 176.486 0.148052 -1.89422 0
M  V30 1845 H 174.636 2.29824 -3.1323 0
M  V30 1846 H 176.308 0.147596 -4.61064 0
M  V30 1847 H 174.551 0.0694102 -4.33744 0
M  V30 1848 H 175.222 1.34962 -5.35247 0
M  V30 1849 H 177.698 2.11429 -3.58381 0
M  V30 1850 H 176.574 3.16245 -4.48643 0
M  V30 1851 H 176.835 3.44377 -2.77231 0
M  V30 1852 N 175.894 1.51508 0.433938 0
M  V30 1853 C 176.857 1.72473 1.50949 0
M  V30 1854 C 177.857 0.594725 1.49398 0
M  V30 1855 O 179.047 0.862315 1.5136 0
M  V30 1856 C 176.179 1.78431 2.90474 0
M  V30 1857 H 177.372 2.68467 1.33662 0
M  V30 1858 H 174.925 1.41549 0.662836 0
M  V30 1859 H 175.66 0.842645 3.13161 0
M  V30 1860 H 175.445 2.60558 2.93005 0
M  V30 1861 H 176.935 1.96479 3.68491 0
M  V30 1862 N 177.372 -0.689602 1.41712 0
M  V30 1863 C 178.322 -1.79571 1.40493 0
M  V30 1864 C 179.306 -1.58473 0.278409 0
M  V30 1865 O 180.498 -1.69204 0.519532 0
M  V30 1866 C 177.627 -3.17923 1.29536 0
M  V30 1867 C 176.713 -3.44695 2.47075 0
M  V30 1868 N 177.104 -3.42132 3.72531 0
M  V30 1869 C 175.402 -3.75269 2.41017 0
M  V30 1870 C 176.103 -3.67976 4.50521 0
M  V30 1871 N 175.079 -3.88014 3.80718 0
M  V30 1872 H 178.881 -1.75961 2.35404 0
M  V30 1873 H 176.395 -0.889839 1.35851 0
M  V30 1874 H 178.392 -3.97167 1.26745 0
M  V30 1875 H 177.052 -3.22741 0.356153 0
M  V30 1876 H 178.063 -3.22375 4.05333 0
M  V30 1877 H 174.74 -3.87421 1.55599 0
M  V30 1878 H 176.13 -3.7208 5.59469 0
M  V30 1879 N 178.85 -1.27639 -0.924453 0
M  V30 1880 C 180.127 -1.04887 -1.651 0
M  V30 1881 C 180.507 0.415327 -2.06974 0
M  V30 1882 O 179.855 1.39923 -1.80648 0
M  V30 1883 C 180.065 -2.01348 -2.85061 0
M  V30 1884 C 181.413 -2.30899 -3.56329 0
M  V30 1885 O 182.437 -1.99348 -2.95193 0
M  V30 1886 O 181.296 -2.84699 -4.66485 0
M  V30 1887 H 178.39 -0.400083 -0.723784 0
M  V30 1888 H 180.936 -1.38916 -0.974703 0
M  V30 1889 H 179.708 -3.0008 -2.51133 0
M  V30 1890 H 179.331 -1.679 -3.6041 0
M  V30 1891 N 180.328 1.1314 -1.09713 0
M  V30 1892 C 181.568 1.8613 -0.844683 0
M  V30 1893 C 181.932 1.81765 0.618491 0
M  V30 1894 O 183.133 2.50024 0.98699 0
M  V30 1895 C 181.404 3.30151 -1.36877 0
M  V30 1896 S 182.963 4.206 -1.25064 0
M  V30 1897 H 179.781 0.642056 -0.305427 0
M  V30 1898 H 182.383 1.36343 -1.4011 0
M  V30 1899 H 181.087 3.30883 -2.42786 0
M  V30 1900 H 180.618 3.85 -0.808614 0
M  V30 1901 H 182.633 4.95783 -0.203486 0
M  V30 1902 N 181.806 0.884767 1.30421 0
M  V30 1903 C 183.052 0.503851 1.96441 0
M  V30 1904 C 183.385 -0.944518 1.69684 0
M  V30 1905 O 182.66 -1.66737 1.00145 0
M  V30 1906 C 182.943 0.779085 3.51571 0
M  V30 1907 C 182.796 2.27807 3.87846 0
M  V30 1908 C 184.115 0.255452 4.39358 0
M  V30 1909 H 181.234 0.184533 0.713524 0
M  V30 1910 H 183.876 1.10872 1.54297 0
M  V30 1911 H 182.026 0.264274 3.876 0
M  V30 1912 H 183.698 2.86127 3.61841 0
M  V30 1913 H 181.941 2.74479 3.35922 0
M  V30 1914 H 182.612 2.42125 4.96064 0
M  V30 1915 H 185.088 0.696079 4.10236 0
M  V30 1916 H 183.964 0.477361 5.4682 0
M  V30 1917 H 184.225 -0.843293 4.33983 0
M  V30 1918 N 183.284 -1.43765 0.645699 0
M  V30 1919 C 184.533 -2.01116 0.153412 0
M  V30 1920 C 184.846 -1.51493 -1.23731 0
M  V30 1921 O 186.052 -2.01067 -1.8244 0
M  V30 1922 C 184.508 -3.59206 0.223473 0
M  V30 1923 C 184.116 -4.17823 1.61642 0
M  V30 1924 C 185.86 -4.23972 -0.211597 0
M  V30 1925 C 183.767 -5.68183 1.64081 0
M  V30 1926 H 182.697 -0.752093 0.0535891 0
M  V30 1927 H 185.348 -1.6482 0.806633 0
M  V30 1928 H 183.73 -3.92867 -0.497118 0
M  V30 1929 H 184.904 -3.95674 2.36176 0
M  V30 1930 H 183.219 -3.65399 1.99681 0
M  V30 1931 H 185.816 -5.34275 -0.213112 0
M  V30 1932 H 186.159 -3.97352 -1.24165 0
M  V30 1933 H 186.692 -3.95166 0.456988 0
M  V30 1934 H 183.431 -5.99559 2.64971 0
M  V30 1935 H 182.951 -5.9241 0.938611 0
M  V30 1936 H 184.63 -6.32085 1.3812 0
M  V30 1937 N 184.763 -0.387143 -1.52771 0
M  V30 1938 C 186.011 0.195349 -2.01154 0
M  V30 1939 C 186.332 1.475 -1.27549 0
M  V30 1940 O 185.602 1.91878 -0.394924 0
M  V30 1941 H 184.182 0.075178 -0.743207 0
M  V30 1942 H 186.844 -0.518337 -1.87881 0
M  V30 1943 H 185.94 0.407096 -3.09434 0
M  V30 1944 N 186.241 1.57166 -0.116904 0
M  V30 1945 C 187.466 1.999 0.55271 0
M  V30 1946 C 187.891 0.996039 1.59564 0
M  V30 1947 O 187.249 -0.032556 1.81271 0
M  V30 1948 C 187.297 3.4152 1.15742 0
M  V30 1949 O 186.401 3.44106 2.27299 0
M  V30 1950 H 185.742 0.649447 0.138258 0
M  V30 1951 H 188.272 2.03573 -0.204759 0
M  V30 1952 H 188.282 3.79684 1.49346 0
M  V30 1953 H 186.957 4.14034 0.393493 0
M  V30 1954 H 185.534 3.17759 1.9515 0
M  V30 1955 N 187.719 -0.156864 1.56817 0
M  V30 1956 C 188.669 -1.19891 1.93934 0
M  V30 1957 C 189.653 -1.39061 0.809372 0
M  V30 1958 O 190.845 -1.40789 1.07273 0
M  V30 1959 C 187.974 -2.53493 2.31508 0
M  V30 1960 C 187.06 -2.37957 3.51052 0
M  V30 1961 N 187.451 -1.92158 4.67877 0
M  V30 1962 C 185.749 -2.68739 3.55943 0
M  V30 1963 C 186.45 -1.8943 5.49992 0
M  V30 1964 N 185.426 -2.32375 4.91429 0
M  V30 1965 H 189.228 -0.836746 2.81737 0
M  V30 1966 H 186.742 -0.365012 1.58245 0
M  V30 1967 H 188.739 -3.28811 2.56299 0
M  V30 1968 H 187.399 -2.905 1.45051 0
M  V30 1969 H 188.41 -1.62274 4.91821 0
M  V30 1970 H 185.087 -3.09687 2.80001 0
M  V30 1971 H 186.477 -1.55596 6.53636 0
M  V30 1972 N 189.197 -1.51736 -0.425897 0
M  V30 1973 C 190.437 -1.66636 -1.18371 0
M  V30 1974 C 190.801 -0.379854 -1.88205 0
M  V30 1975 O 192.002 -0.404758 -2.65735 0
M  V30 1976 C 190.273 -2.84382 -2.16476 0
M  V30 1977 S 191.832 -3.19673 -3.0059 0
M  V30 1978 H 188.65 -0.586957 -0.40125 0
M  V30 1979 H 191.252 -1.89679 -0.473518 0
M  V30 1980 H 189.956 -3.76281 -1.63831 0
M  V30 1981 H 189.487 -2.63562 -2.92059 0
M  V30 1982 H 191.502 -2.66994 -4.18245 0
M  V30 1983 N 190.675 0.682077 -1.42076 0
M  V30 1984 C 191.924 1.43786 -1.41451 0
M  V30 1985 C 192.237 1.95574 -0.0317074 0
M  V30 1986 O 193.443 2.71326 0.0971462 0
M  V30 1987 C 191.899 2.60071 -2.48779 0
M  V30 1988 C 191.507 2.15013 -3.93031 0
M  V30 1989 C 193.251 3.37626 -2.57311 0
M  V30 1990 C 191.158 3.28336 -4.91883 0
M  V30 1991 H 190.088 0.540143 -0.526082 0
M  V30 1992 H 192.739 0.739157 -1.67955 0
M  V30 1993 H 191.121 3.32275 -2.15429 0
M  V30 1994 H 192.295 1.5001 -4.35699 0
M  V30 1995 H 190.61 1.50416 -3.88284 0
M  V30 1996 H 193.207 4.22012 -3.28345 0
M  V30 1997 H 193.55 3.83727 -1.61429 0
M  V30 1998 H 194.083 2.72488 -2.89819 0
M  V30 1999 H 190.822 2.87234 -5.89217 0
M  V30 2000 H 190.342 3.92145 -4.53853 0
M  V30 2001 H 192.021 3.93913 -5.13265 0
M  V30 2002 N 192.153 1.28127 0.917671 0
M  V30 2003 C 193.083 1.14248 2.03641 0
M  V30 2004 C 194.064 0.0412748 1.7005 0
M  V30 2005 O 195.249 0.217566 1.92977 0
M  V30 2006 C 192.379 0.799431 3.37974 0
M  V30 2007 C 191.333 1.85497 3.85713 0
M  V30 2008 C 190.659 1.36565 5.16966 0
M  V30 2009 C 191.959 3.26085 4.08002 0
M  V30 2010 H 193.653 2.07835 2.15511 0
M  V30 2011 H 191.199 1.00064 1.03553 0
M  V30 2012 H 193.152 0.689114 4.15727 0
M  V30 2013 H 191.876 -0.172145 3.26146 0
M  V30 2014 H 190.535 1.95437 3.10161 0
M  V30 2015 H 190.183 0.383253 5.01538 0
M  V30 2016 H 189.883 2.07143 5.49878 0
M  V30 2017 H 191.407 1.26848 5.97279 0
M  V30 2018 H 192.821 3.19089 4.76293 0
M  V30 2019 H 191.218 3.94462 4.52238 0
M  V30 2020 H 192.288 3.70394 3.12948 0
M  V30 2021 N 193.631 -1.12557 1.10312 0
M  V30 2022 C 194.594 -2.16434 0.75424 0
M  V30 2023 C 195.594 -1.59278 -0.220685 0
M  V30 2024 O 196.784 -1.742 0.00230591 0
M  V30 2025 C 193.916 -3.40699 0.116987 0
M  V30 2026 H 195.109 -2.48811 1.67431 0
M  V30 2027 H 192.662 -1.27542 0.903475 0
M  V30 2028 H 193.397 -3.13921 -0.813877 0
M  V30 2029 H 193.182 -3.83459 0.818613 0
M  V30 2030 H 194.672 -4.17451 -0.111387 0
M  V30 2031 N 195.109 -0.891671 -1.2995 0
M  V30 2032 C 196.057 -0.353066 -2.29905 0
M  V30 2033 C 197.051 0.543509 -1.60444 0
M  V30 2034 O 198.257 0.4272 -1.74857 0
M  V30 2035 H 194.632 -0.095531 -0.745907 0
M  V30 2036 H 196.603 -1.20961 -2.72784 0
M  V30 2037 C 195.352 0.411475 -3.45257 0
M  V30 2038 H 194.675 -0.269182 -3.98893 0
M  V30 2039 H 196.115 0.753328 -4.17254 0
M  V30 2040 C 194.574 1.6111 -2.9588 0
M  V30 2041 O 195.104 2.71045 -2.96475 0
M  V30 2042 N 193.31 1.45054 -2.51809 0
M  V30 2043 H 192.857 0.556175 -2.51524 0
M  V30 2044 H 192.815 2.25453 -2.1913 0
M  V30 2045 N 196.587 1.43421 -0.653314 0
M  V30 2046 C 197.835 2.01414 -0.166415 0
M  V30 2047 C 198.156 1.51803 1.22397 0
M  V30 2048 O 197.426 0.730693 1.81763 0
M  V30 2049 H 196.006 0.744703 -0.0585319 0
M  V30 2050 H 198.668 1.75629 -0.845003 0
M  V30 2051 H 197.764 3.11734 -0.151111 0
M  V30 2052 N 198.065 0.39524 1.52563 0
M  V30 2053 C 199.311 -0.185318 2.01952 0
M  V30 2054 C 199.644 -1.45964 1.28095 0
M  V30 2055 O 198.919 -1.90689 0.38315 0
M  V30 2056 C 199.202 -0.447193 3.57312 0
M  V30 2057 C 199.055 0.842828 4.41833 0
M  V30 2058 C 200.374 -1.23529 4.22408 0
M  V30 2059 H 197.493 -0.0658788 0.73405 0
M  V30 2060 H 200.135 0.525975 1.82575 0
M  V30 2061 H 198.285 -1.05312 3.73954 0
M  V30 2062 H 199.957 1.4795 4.36931 0
M  V30 2063 H 198.2 1.45686 4.08605 0
M  V30 2064 H 198.871 0.614165 5.48573 0
M  V30 2065 H 201.347 -0.722445 4.0978 0
M  V30 2066 H 200.223 -1.38727 5.3108 0
M  V30 2067 H 200.484 -2.25213 3.80436 0
M  V30 2068 N 199.544 -1.57102 0.125237 0
M  V30 2069 C 200.772 -1.99761 -0.538797 0
M  V30 2070 C 201.187 -1.00503 -1.59827 0
M  V30 2071 O 200.544 0.00119474 -1.825 0
M  V30 2072 C 200.595 -3.42408 -1.15927 0
M  V30 2073 O 200.316 -4.37869 -0.142143 0
M  V30 2074 C 201.817 -4.00232 -1.90602 0
M  V30 2075 H 199.037 -0.655772 -0.14214 0
M  V30 2076 H 201.581 -2.03383 0.213413 0
M  V30 2077 H 199.736 -3.39706 -1.86223 0
M  V30 2078 H 200.15 -5.21128 -0.593775 0
M  V30 2079 H 201.624 -5.02105 -2.29335 0
M  V30 2080 H 202.101 -3.39721 -2.78363 0
M  V30 2081 H 202.707 -4.06499 -1.25055 0
M  V30 2082 N 201.022 0.148545 -1.56898 0
M  V30 2083 C 201.952 1.18524 -2.01182 0
M  V30 2084 C 202.933 1.4489 -0.891123 0
M  V30 2085 O 204.118 1.55836 -1.15882 0
M  V30 2086 C 201.248 2.51879 -2.39112 0
M  V30 2087 C 200.202 2.40038 -3.54353 0
M  V30 2088 C 199.528 3.78089 -3.78091 0
M  V30 2089 C 200.828 1.88577 -4.87069 0
M  V30 2090 H 202.522 0.817029 -2.88036 0
M  V30 2091 H 200.068 0.391575 -1.38574 0
M  V30 2092 H 202.021 3.24627 -2.68692 0
M  V30 2093 H 200.745 2.90532 -1.49193 0
M  V30 2094 H 199.404 1.69742 -3.24936 0
M  V30 2095 H 199.052 4.14175 -2.85426 0
M  V30 2096 H 198.752 3.71028 -4.55645 0
M  V30 2097 H 200.276 4.52387 -4.10095 0
M  V30 2098 H 201.69 2.51117 -5.15377 0
M  V30 2099 H 200.087 1.9241 -5.68417 0
M  V30 2100 H 201.157 0.84136 -4.77545 0
M  V30 2101 N 202.5 1.5196 0.417844 0
M  V30 2102 C 203.463 1.74065 1.49111 0
M  V30 2103 C 204.463 0.610537 1.48758 0
M  V30 2104 O 205.653 0.87832 1.50437 0
M  V30 2105 C 202.785 1.81502 2.88565 0
M  V30 2106 H 203.978 2.69869 1.30807 0
M  V30 2107 H 201.531 1.42244 0.647785 0
M  V30 2108 H 202.266 0.875813 3.1225 0
M  V30 2109 H 202.051 2.63651 2.90225 0
M  V30 2110 H 203.541 2.00376 3.66387 0
M  V30 2111 N 203.978 -0.674533 1.42435 0
M  V30 2112 C 205.226 -1.43175 1.42637 0
M  V30 2113 C 205.547 -1.94951 0.0438992 0
M  V30 2114 O 204.817 -1.7308 -0.917607 0
M  V30 2115 H 203.397 -0.531307 0.525092 0
M  V30 2116 H 206.059 -0.797006 1.77859 0
M  V30 2117 H 205.155 -2.28463 2.12629 0
M  V30 2118 N 205.456 -1.28612 -0.910864 0
M  V30 2119 C 206.406 -1.09423 -2.00026 0
M  V30 2120 C 207.39 -0.0170079 -1.60891 0
M  V30 2121 O 208.582 -0.237472 -1.754 0
M  V30 2122 C 205.711 -0.76114 -3.34756 0
M  V30 2123 C 204.797 -1.87735 -3.80285 0
M  V30 2124 N 205.188 -3.11938 -3.98156 0
M  V30 2125 C 203.486 -1.76786 -4.09467 0
M  V30 2126 C 204.187 -3.84687 -4.36338 0
M  V30 2127 N 203.163 -3.12555 -4.44759 0
M  V30 2128 H 206.965 -2.03658 -2.11898 0
M  V30 2129 H 204.479 -1.19573 -1.09891 0
M  V30 2130 H 206.476 -0.604743 -4.12491 0
M  V30 2131 H 205.136 0.173403 -3.24237 0
M  V30 2132 H 206.147 -3.47516 -3.83996 0
M  V30 2133 H 202.824 -0.905284 -4.07567 0
M  V30 2134 H 204.214 -4.91518 -4.58104 0
M  V30 2135 N 206.934 1.1197 -1.10907 0
M  V30 2136 C 208.183 1.82947 -0.849302 0
M  V30 2137 C 208.496 1.85275 0.627112 0
M  V30 2138 O 209.702 2.52296 1.00295 0
M  V30 2139 C 208.158 3.28529 -1.46959 0
M  V30 2140 C 207.766 3.34546 -2.97965 0
M  V30 2141 C 209.51 4.04443 -1.28942 0
M  V30 2142 C 207.417 4.74491 -3.53004 0
M  V30 2143 H 206.347 0.685477 -0.314065 0
M  V30 2144 H 208.998 1.2604 -1.33365 0
M  V30 2145 H 207.38 3.85333 -0.912917 0
M  V30 2146 H 208.554 2.87654 -3.59989 0
M  V30 2147 H 206.869 2.72108 -3.15192 0
M  V30 2148 H 209.466 5.07787 -1.67502 0
M  V30 2149 H 209.809 4.15656 -0.231456 0
M  V30 2150 H 210.342 3.5401 -1.81443 0
M  V30 2151 H 207.081 4.68474 -4.58489 0
M  V30 2152 H 206.601 5.21816 -2.9575 0
M  V30 2153 H 208.28 5.4344 -3.51115 0
M  V30 2154 N 208.412 0.89855 1.29475 0
M  V30 2155 C 209.322 0.379974 2.31502 0
M  V30 2156 C 210.338 -0.524695 1.659 0
M  V30 2157 O 211.514 -0.414551 1.97087 0
M  V30 2158 C 208.579 -0.385138 3.44554 0
M  V30 2159 C 207.64 0.550914 4.2575 0
M  V30 2160 C 206.873 -0.177778 5.33404 0
M  V30 2161 O 207.096 -1.40189 5.52904 0
M  V30 2162 O 206.03 0.479106 5.9999 0
M  V30 2163 H 209.856 1.22639 2.77837 0
M  V30 2164 H 207.441 0.662834 1.33891 0
M  V30 2165 H 209.323 -0.817841 4.13388 0
M  V30 2166 H 207.998 -1.20763 3.0033 0
M  V30 2167 H 206.905 1.03271 3.59564 0
M  V30 2168 H 208.238 1.33979 4.73614 0
M  V30 2169 N 209.89 -1.43072 0.660911 0
M  V30 2170 C 211.139 -2.00942 0.174735 0
M  V30 2171 C 211.452 -1.52797 -1.22117 0
M  V30 2172 O 212.658 -2.02991 -1.80297 0
M  V30 2173 C 211.114 -3.58948 0.261559 0
M  V30 2174 C 210.722 -4.16085 1.66064 0
M  V30 2175 C 212.466 -4.24173 -0.166617 0
M  V30 2176 C 210.373 -5.6641 1.70098 0
M  V30 2177 H 209.303 -0.751483 0.0615631 0
M  V30 2178 H 211.954 -1.63955 0.824069 0
M  V30 2179 H 210.336 -3.93372 -0.455421 0
M  V30 2180 H 211.51 -3.93147 2.40359 0
M  V30 2181 H 209.825 -3.6326 2.03546 0
M  V30 2182 H 212.422 -5.34471 -0.156433 0
M  V30 2183 H 212.765 -3.98647 -1.19943 0
M  V30 2184 H 213.298 -3.94659 0.498875 0
M  V30 2185 H 210.037 -5.96715 2.71315 0
M  V30 2186 H 209.557 -5.91382 1.00139 0
M  V30 2187 H 211.236 -6.30585 1.44816 0
M  V30 2188 N 211.368 -0.403325 -1.52352 0
M  V30 2189 C 212.616 0.174003 -2.0135 0
M  V30 2190 C 212.937 1.46139 -1.29106 0
M  V30 2191 O 212.207 1.91448 -0.415253 0
M  V30 2192 H 210.787 0.0672911 -0.743963 0
M  V30 2193 H 213.449 -0.538235 -1.87321 0
M  V30 2194 H 212.545 0.374254 -3.09848 0
M  V30 2195 N 212.846 1.57033 -0.133567 0
M  V30 2196 C 214.123 1.87256 0.56522 0
M  V30 2197 C 214.503 1.03726 1.83859 0
M  V30 2198 O 213.851 0.120247 2.28183 0
M  V30 2199 C 214.061 3.3865 0.843636 0
M  V30 2200 C 215.409 4.07574 1.19032 0
M  V30 2201 O 216.433 3.43752 0.933429 0
M  V30 2202 O 215.292 5.20259 1.67312 0
M  V30 2203 H 212.386 0.775678 0.286796 0
M  V30 2204 H 214.932 1.68855 -0.169168 0
M  V30 2205 H 213.704 3.91257 -0.0581149 0
M  V30 2206 H 213.327 3.62532 1.63268 0
M  V30 2207 N 214.325 -0.140222 1.56975 0
M  V30 2208 C 215.555 -0.865181 1.87612 0
M  V30 2209 C 215.963 -1.74942 0.72055 0
M  V30 2210 O 215.306 -1.80917 -0.318561 0
M  V30 2211 C 215.368 -1.76782 3.13031 0
M  V30 2212 C 215.032 -1.06005 4.44536 0
M  V30 2213 C 216.029 -0.410768 5.18275 0
M  V30 2214 C 213.714 -1.04754 4.91255 0
M  V30 2215 C 215.708 0.241572 6.36942 0
M  V30 2216 C 213.395 -0.391394 6.09845 0
M  V30 2217 C 214.393 0.252029 6.82535 0
M  V30 2218 O 214.081 0.897757 7.98871 0
M  V30 2219 H 213.813 -0.255188 0.625983 0
M  V30 2220 H 216.367 -0.135653 2.04952 0
M  V30 2221 H 214.597 -2.53846 2.91718 0
M  V30 2222 H 216.286 -2.36533 3.29859 0
M  V30 2223 H 217.052 -0.412195 4.83245 0
M  V30 2224 H 212.931 -1.53777 4.34596 0
M  V30 2225 H 216.475 0.744375 6.93617 0
M  V30 2226 H 212.372 -0.387656 6.44335 0
M  V30 2227 H 213.14 0.800102 8.1458 0
M  V30 2228 N 215.803 -1.52179 -0.40978 0
M  V30 2229 C 217.049 -1.66453 -1.15851 0
M  V30 2230 C 217.382 -0.392972 -1.90182 0
M  V30 2231 O 216.657 0.608579 -1.84734 0
M  V30 2232 C 216.94 -2.88612 -2.15349 0
M  V30 2233 C 216.793 -4.25815 -1.44918 0
M  V30 2234 C 218.112 -3.06294 -3.16026 0
M  V30 2235 H 215.231 -0.60575 -0.419805 0
M  V30 2236 H 217.873 -1.84732 -0.444314 0
M  V30 2237 H 216.023 -2.73158 -2.76255 0
M  V30 2238 H 217.695 -4.52995 -0.871365 0
M  V30 2239 H 215.938 -4.27247 -0.751159 0
M  V30 2240 H 216.609 -5.07337 -2.17516 0
M  V30 2241 H 219.085 -3.20641 -2.65195 0
M  V30 2242 H 217.961 -3.93283 -3.8291 0
M  V30 2243 H 218.222 -2.19579 -3.83715 0
M  V30 2244 N 217.281 0.66697 -1.42791 0
M  V30 2245 C 218.229 1.80157 -1.47127 0
M  V30 2246 C 219.223 1.65825 -0.346199 0
M  V30 2247 O 220.429 1.72338 -0.519572 0
M  V30 2248 H 216.804 0.594158 -0.460956 0
M  V30 2249 H 218.775 1.73619 -2.42692 0
M  V30 2250 C 217.524 3.18351 -1.39813 0
M  V30 2251 H 216.847 3.3001 -2.25684 0
M  V30 2252 H 218.287 3.97736 -1.46908 0
M  V30 2253 C 216.746 3.36707 -0.11391 0
M  V30 2254 O 217.276 3.93027 0.830241 0
M  V30 2255 N 215.482 2.90586 -0.0285295 0
M  V30 2256 H 215.029 2.4494 -0.79764 0
M  V30 2257 H 214.987 3.03245 0.830063 0
M  V30 2258 N 218.759 1.29093 0.90403 0
M  V30 2259 C 220.008 1.16187 1.64874 0
M  V30 2260 C 220.321 -0.286742 1.93487 0
M  V30 2261 O 221.527 -0.537062 2.66135 0
M  V30 2262 C 219.983 2.03177 2.97064 0
M  V30 2263 C 219.591 3.52836 2.76062 0
M  V30 2264 C 221.335 1.98984 3.74974 0
M  V30 2265 C 219.242 4.31945 4.03952 0
M  V30 2266 H 218.172 0.431246 0.618501 0
M  V30 2267 H 220.823 1.53699 1.00243 0
M  V30 2268 H 219.205 1.5853 3.62883 0
M  V30 2269 H 220.379 4.05507 2.18863 0
M  V30 2270 H 218.694 3.58656 2.11553 0
M  V30 2271 H 221.291 2.55351 4.69787 0
M  V30 2272 H 221.634 0.968815 4.0487 0
M  V30 2273 H 222.167 2.41652 3.15989 0
M  V30 2274 H 218.906 5.34667 3.79225 0
M  V30 2275 H 218.426 3.84045 4.60727 0
M  V30 2276 H 220.105 4.42379 4.72133 0
M  V30 2277 N 220.237 -1.11381 1.11499 0
M  V30 2278 C 221.485 -1.8277 0.862524 0
M  V30 2279 C 221.806 -1.85097 -0.613534 0
M  V30 2280 O 221.076 -1.32198 -1.4457 0
M  V30 2281 H 219.656 -0.676823 0.316101 0
M  V30 2282 H 222.318 -1.34816 1.4075 0
M  V30 2283 H 221.414 -2.86614 1.23527 0
M  V30 2284 N 221.715 -0.905404 -1.28997 0
M  V30 2285 C 222.963 -0.533192 -1.9494 0
M  V30 2286 C 223.284 0.924618 -1.71685 0
M  V30 2287 O 222.554 1.65268 -1.05183 0
M  V30 2288 H 221.134 -0.194194 -0.721317 0
M  V30 2289 H 223.796 -1.15294 -1.57141 0
M  V30 2290 H 222.892 -0.72059 -3.03667 0
M  V30 2291 N 223.193 1.4272 -0.668489 0
M  V30 2292 C 224.123 2.335 -0.000100175 0
M  V30 2293 C 225.104 1.50328 0.795964 0
M  V30 2294 O 226.289 1.78949 0.754385 0
M  V30 2295 C 223.419 3.33874 0.956302 0
M  V30 2296 C 222.373 4.27152 0.269278 0
M  V30 2297 C 221.699 5.17684 1.33818 0
M  V30 2298 C 222.999 5.15373 -0.847805 0
M  V30 2299 H 224.693 2.89639 -0.758244 0
M  V30 2300 H 222.239 1.39269 -0.366079 0
M  V30 2301 H 224.192 3.9629 1.43292 0
M  V30 2302 H 222.916 2.76025 1.74579 0
M  V30 2303 H 221.575 3.66123 -0.187042 0
M  V30 2304 H 221.223 4.56165 2.1195 0
M  V30 2305 H 220.923 5.80918 0.883659 0
M  V30 2306 H 222.447 5.82974 1.81586 0
M  V30 2307 H 223.861 5.7151 -0.452681 0
M  V30 2308 H 222.258 5.87407 -1.22773 0
M  V30 2309 H 223.328 4.5415 -1.69929 0
M  V30 2310 N 224.671 0.411399 1.52136 0
M  V30 2311 C 225.899 -0.163076 2.06256 0
M  V30 2312 C 226.314 -1.3867 1.28125 0
M  V30 2313 O 225.671 -1.79423 0.333721 0
M  V30 2314 C 225.722 -0.511252 3.57867 0
M  V30 2315 O 225.443 0.66378 4.33042 0
M  V30 2316 C 226.944 -1.13921 4.28412 0
M  V30 2317 H 224.164 -0.0193897 0.67072 0
M  V30 2318 H 226.708 0.583007 1.96013 0
M  V30 2319 H 224.863 -1.20723 3.6811 0
M  V30 2320 H 225.277 0.372601 5.23175 0
M  V30 2321 H 226.751 -1.33302 5.35663 0
M  V30 2322 H 227.228 -2.11296 3.85033 0
M  V30 2323 H 227.834 -0.483373 4.22544 0
M  V30 2324 N 226.149 -1.5696 0.141893 0
M  V30 2325 C 227.112 -2.15316 -0.785587 0
M  V30 2326 C 228.112 -1.09366 -1.1788 0
M  V30 2327 O 229.302 -1.35031 -1.10056 0
M  V30 2328 C 226.434 -2.71211 -2.06537 0
M  V30 2329 H 227.627 -2.98608 -0.278041 0
M  V30 2330 H 225.18 -1.5593 -0.107519 0
M  V30 2331 H 225.915 -1.91571 -2.6167 0
M  V30 2332 H 225.7 -3.4872 -1.79268 0
M  V30 2333 H 227.19 -3.16189 -2.72789 0
M  V30 2334 N 227.627 0.131896 -1.57047 0
M  V30 2335 C 228.876 0.84044 -1.83356 0
M  V30 2336 C 229.189 1.81646 -0.725535 0
M  V30 2337 O 230.395 2.57025 -0.874659 0
M  V30 2338 C 228.851 1.54528 -3.25037 0
M  V30 2339 C 228.459 0.610902 -4.43815 0
M  V30 2340 C 230.203 2.23972 -3.60606 0
M  V30 2341 C 228.11 1.31823 -5.76521 0
M  V30 2342 H 227.04 0.317599 -0.683847 0
M  V30 2343 H 229.691 0.0931561 -1.83263 0
M  V30 2344 H 228.073 2.33873 -3.19561 0
M  V30 2345 H 229.247 -0.148407 -4.60561 0
M  V30 2346 H 227.562 0.0241016 -4.16393 0
M  V30 2347 H 230.159 2.77558 -4.57018 0
M  V30 2348 H 230.502 3.01173 -2.87403 0
M  V30 2349 H 231.035 1.51529 -3.6781 0
M  V30 2350 H 227.774 0.587771 -6.52859 0
M  V30 2351 H 227.294 2.04987 -5.63685 0
M  V30 2352 H 228.973 1.855 -6.19838 0
M  V30 2353 N 229.106 1.52395 0.401703 0
M  V30 2354 C 230.056 1.72649 1.48917 0
M  V30 2355 C 231.04 0.580436 1.50066 0
M  V30 2356 O 232.232 0.83779 1.55917 0
M  V30 2357 C 229.361 1.88729 2.86769 0
M  V30 2358 C 228.447 3.09228 2.90239 0
M  V30 2359 N 228.838 4.31805 2.63396 0
M  V30 2360 C 227.136 3.09214 3.21408 0
M  V30 2361 C 227.837 5.13326 2.73625 0
M  V30 2362 N 226.813 4.48735 3.06819 0
M  V30 2363 H 230.615 2.65058 1.26971 0
M  V30 2364 H 228.129 1.50528 0.609504 0
M  V30 2365 H 230.126 2.01358 3.65049 0
M  V30 2366 H 228.786 0.975252 3.09708 0
M  V30 2367 H 229.797 4.60154 2.37653 0
M  V30 2368 H 226.474 2.27774 3.49893 0
M  V30 2369 H 227.864 6.21003 2.56524 0
M  V30 2370 N 230.584 -0.659388 1.43143 0
M  V30 2371 C 231.516 -1.7849 1.43784 0
M  V30 2372 C 232.529 -1.5932 0.334787 0
M  V30 2373 O 233.718 -1.68155 0.598842 0
M  V30 2374 C 230.818 -3.15828 1.22906 0
M  V30 2375 C 229.991 -3.61711 2.45934 0
M  V30 2376 C 229.05 -4.77831 2.20371 0
M  V30 2377 O 228.076 -4.87586 2.93681 0
M  V30 2378 N 229.278 -5.67611 1.21647 0
M  V30 2379 H 232.043 -1.7842 2.40803 0
M  V30 2380 H 229.604 -0.84302 1.3822 0
M  V30 2381 H 231.596 -3.91189 1.03697 0
M  V30 2382 H 230.166 -3.10707 0.343542 0
M  V30 2383 H 229.386 -2.76861 2.80609 0
M  V30 2384 H 230.674 -3.89112 3.27825 0
M  V30 2385 H 230.072 -5.62397 0.610449 0
M  V30 2386 H 228.629 -6.42719 1.08423 0
M  V30 2387 N 232.062 -1.29571 -0.897171 0
M  V30 2388 C 233.309 -1.17689 -1.6479 0
M  V30 2389 C 233.637 0.27107 -1.92602 0
M  V30 2390 O 232.892 1.21193 -1.53658 0
M  V30 2391 C 233.191 -1.9382 -3.00281 0
M  V30 2392 C 232.857 -3.43522 -2.92068 0
M  V30 2393 C 231.519 -3.84348 -2.89535 0
M  V30 2394 C 233.871 -4.38906 -2.81089 0
M  V30 2395 C 231.199 -5.18869 -2.73846 0
M  V30 2396 C 233.551 -5.73521 -2.66939 0
M  V30 2397 C 232.215 -6.13601 -2.62774 0
M  V30 2398 H 231.485 -0.430654 -0.603008 0
M  V30 2399 H 234.132 -1.60536 -1.04404 0
M  V30 2400 H 232.437 -1.4357 -3.64547 0
M  V30 2401 H 234.134 -1.82028 -3.57305 0
M  V30 2402 H 230.724 -3.11072 -2.94842 0
M  V30 2403 H 234.908 -4.08315 -2.82121 0
M  V30 2404 H 230.164 -5.4903 -2.69027 0
M  V30 2405 H 234.338 -6.47078 -2.57416 0
M  V30 2406 H 231.965 -7.17786 -2.50375 0
M  V30 2407 N 233.54 1.10788 -1.12088 0
M  V30 2408 C 234.786 1.82942 -0.875226 0
M  V30 2409 C 235.119 1.84779 0.597538 0
M  V30 2410 O 234.394 1.30578 1.44152 0
M  V30 2411 C 234.677 3.29789 -1.44606 0
M  V30 2412 C 234.53 3.36307 -2.98693 0
M  V30 2413 C 235.849 4.26064 -1.10261 0
M  V30 2414 H 232.968 0.664195 -0.319397 0
M  V30 2415 H 235.61 1.29867 -1.38689 0
M  V30 2416 H 233.76 3.75118 -1.01089 0
M  V30 2417 H 235.432 2.99487 -3.50864 0
M  V30 2418 H 233.675 2.76318 -3.34411 0
M  V30 2419 H 234.346 4.39694 -3.33726 0
M  V30 2420 H 236.822 3.88951 -1.4784 0
M  V30 2421 H 235.698 5.27183 -1.52869 0
M  V30 2422 H 235.959 4.42098 -0.0142953 0
M  V30 2423 N 235.018 0.912232 1.28515 0
M  V30 2424 C 236.434 0.610159 1.47476 0
M  V30 2425 C 236.634 -0.844955 1.82928 0
M  V30 2426 O 235.69 -1.62416 1.93332 0
M  V30 2427 C 237.003 1.54675 2.57868 0
M  V30 2428 C 238.551 1.55331 2.71738 0
M  V30 2429 C 239.026 2.47649 3.85272 0
M  V30 2430 N 240.517 2.45767 3.92623 0
M  V30 2431 C 241.252 3.13896 4.79851 0
M  V30 2432 N 240.748 3.9135 5.71679 0
M  V30 2433 N 242.541 3.02991 4.73448 0
M  V30 2434 H 234.692 1.85318 1.03783 0
M  V30 2435 H 236.955 0.794777 0.516753 0
M  V30 2436 H 236.661 2.5841 2.38574 0
M  V30 2437 H 236.535 1.27671 3.54937 0
M  V30 2438 H 238.922 0.52335 2.90422 0
M  V30 2439 H 239.003 1.86378 1.75205 0
M  V30 2440 H 238.647 3.50745 3.67342 0
M  V30 2441 H 238.577 2.13904 4.81199 0
M  V30 2442 H 241.068 1.89503 3.26951 0
M  V30 2443 H 241.381 4.40359 6.35062 0
M  V30 2444 H 239.726 3.95455 5.71524 0
M  V30 2445 H 242.917 2.41987 4.007 0
M  V30 2446 H 243.09 3.5636 5.41213 0
M  V30 2447 N 236.496 -1.42363 0.676048 0
M  V30 2448 C 237.745 -2.00745 0.196037 0
M  V30 2449 C 238.058 -1.54083 -1.20489 0
M  V30 2450 O 239.264 -2.04891 -1.78134 0
M  V30 2451 C 237.72 -3.58651 0.299616 0
M  V30 2452 C 237.328 -4.143 1.70468 0
M  V30 2453 C 239.072 -4.24326 -0.121619 0
M  V30 2454 C 236.979 -5.64574 1.76096 0
M  V30 2455 H 235.909 -0.750787 0.0695301 0
M  V30 2456 H 238.56 -1.63072 0.841412 0
M  V30 2457 H 236.942 -3.93833 -0.413673 0
M  V30 2458 H 238.116 -3.90575 2.44515 0
M  V30 2459 H 236.431 -3.61081 2.07387 0
M  V30 2460 H 239.028 -5.34607 -0.0997362 0
M  V30 2461 H 239.371 -3.99897 -1.15708 0
M  V30 2462 H 239.904 -3.94108 0.540706 0
M  V30 2463 H 236.643 -5.93804 2.77628 0
M  V30 2464 H 236.163 -5.90286 1.06406 0
M  V30 2465 H 237.842 -6.29013 1.51496 0
M  V30 2466 N 237.974 -0.419461 -1.51915 0
M  V30 2467 C 238.937 0.389116 -2.25873 0
M  V30 2468 C 239.937 0.964924 -1.28631 0
M  V30 2469 O 241.127 0.842179 -1.52489 0
M  V30 2470 C 238.259 1.54874 -3.03689 0
M  V30 2471 H 239.452 -0.258799 -2.98781 0
M  V30 2472 H 237.005 -0.172209 -1.55348 0
M  V30 2473 H 237.74 2.23323 -2.35154 0
M  V30 2474 H 237.525 1.14223 -3.75094 0
M  V30 2475 H 239.015 2.12046 -3.59759 0
M  V30 2476 N 239.452 1.56882 -0.150215 0
M  V30 2477 C 240.399 2.16922 0.788244 0
M  V30 2478 C 241.369 1.10303 1.24187 0
M  V30 2479 O 242.554 1.38359 1.31383 0
M  V30 2480 C 239.694 2.79754 2.02068 0
M  V30 2481 C 238.807 4.00775 1.61257 0
M  V30 2482 C 237.942 4.51595 2.79705 0
M  V30 2483 C 236.981 5.65074 2.35282 0
M  V30 2484 N 236.118 6.10499 3.4675 0
M  V30 2485 H 240.958 2.96779 0.269444 0
M  V30 2486 H 238.495 1.46599 0.12128 0
M  V30 2487 H 240.453 3.14329 2.74323 0
M  V30 2488 H 239.083 2.02536 2.51354 0
M  V30 2489 H 238.135 3.72158 0.787553 0
M  V30 2490 H 239.447 4.82978 1.24633 0
M  V30 2491 H 238.601 4.88242 3.60145 0
M  V30 2492 H 237.34 3.68406 3.19576 0
M  V30 2493 H 236.345 5.28 1.53283 0
M  V30 2494 H 237.57 6.50052 1.96493 0
M  V30 2495 H 235.516 5.30243 3.86236 0
M  V30 2496 H 235.433 6.87637 3.14152 0
M  V30 2497 H 236.701 6.51791 4.27537 0
M  V30 2498 N 240.93 -0.123565 1.57115 0
M  V30 2499 C 242.178 -0.83051 1.84247 0
M  V30 2500 C 242.499 -1.80629 0.73471 0
M  V30 2501 O 241.769 -1.94403 -0.241688 0
M  V30 2502 H 240.349 -0.309694 0.679778 0
M  V30 2503 H 243.011 -0.111976 1.94578 0
M  V30 2504 H 242.107 -1.37852 2.80006 0
M  V30 2505 N 242.408 -1.52605 -0.393616 0
M  V30 2506 C 243.648 -1.6911 -1.1481 0
M  V30 2507 C 244.012 -0.41969 -1.87357 0
M  V30 2508 O 245.213 -0.461034 -2.64817 0
M  V30 2509 C 243.484 -2.88909 -2.10395 0
M  V30 2510 S 245.043 -3.25977 -2.93742 0
M  V30 2511 H 241.861 -0.595337 -0.38871 0
M  V30 2512 H 244.463 -1.90641 -0.433178 0
M  V30 2513 H 243.167 -3.79672 -1.55812 0
M  V30 2514 H 242.698 -2.69698 -2.86403 0
M  V30 2515 H 244.713 -2.75806 -4.12487 0
M  V30 2516 N 243.887 0.651787 -1.4349 0
M  V30 2517 C 244.82 1.77668 -1.43211 0
M  V30 2518 C 245.798 1.59931 -0.29338 0
M  V30 2519 O 246.982 1.82095 -0.487191 0
M  V30 2520 C 244.109 3.14986 -1.24505 0
M  V30 2521 C 243.155 3.51421 -2.41673 0
M  V30 2522 S 243.988 3.51234 -4.04222 0
M  V30 2523 C 245.144 4.91206 -3.87902 0
M  V30 2524 H 245.377 1.77635 -2.38397 0
M  V30 2525 H 242.91 0.824558 -1.30539 0
M  V30 2526 H 244.868 3.94237 -1.144 0
M  V30 2527 H 243.529 3.1258 -0.308651 0
M  V30 2528 H 242.722 4.51291 -2.24393 0
M  V30 2529 H 242.324 2.79585 -2.48411 0
M  V30 2530 H 244.616 5.79902 -3.50315 0
M  V30 2531 H 245.559 5.13537 -4.8753 0
M  V30 2532 H 245.967 4.64808 -3.20334 0
M  V30 2533 N 245.365 1.30045 0.890287 0
M  V30 2534 C 246.614 1.17929 1.63633 0
M  V30 2535 C 246.927 -0.266204 1.9378 0
M  V30 2536 O 248.133 -0.508804 2.6669 0
M  V30 2537 C 246.589 2.06317 2.94892 0
M  V30 2538 C 246.197 3.55745 2.72305 0
M  V30 2539 C 247.941 2.0295 3.72843 0
M  V30 2540 C 245.848 4.36205 3.99348 0
M  V30 2541 H 244.778 0.437782 0.613892 0
M  V30 2542 H 247.429 1.54754 0.986075 0
M  V30 2543 H 245.811 1.6237 3.61182 0
M  V30 2544 H 246.985 4.07805 2.1455 0
M  V30 2545 H 245.3 3.6088 2.07737 0
M  V30 2546 H 247.897 2.60319 4.67053 0
M  V30 2547 H 248.24 1.0117 4.0382 0
M  V30 2548 H 248.773 2.4499 3.13408 0
M  V30 2549 H 245.512 5.38659 3.73533 0
M  V30 2550 H 245.032 3.8891 4.56628 0
M  V30 2551 H 246.711 4.47362 4.67415 0
M  V30 2552 N 246.843 -1.10192 1.12674 0
M  V30 2553 C 247.806 -2.14786 0.799979 0
M  V30 2554 C 248.806 -1.59711 -0.18685 0
M  V30 2555 O 249.996 -1.74156 0.0392558 0
M  V30 2556 C 247.128 -3.40374 0.189228 0
M  V30 2557 H 248.321 -2.45203 1.72671 0
M  V30 2558 H 245.874 -1.25597 0.930326 0
M  V30 2559 H 246.609 -3.15577 -0.747107 0
M  V30 2560 H 246.394 -3.81637 0.899766 0
M  V30 2561 H 247.884 -4.17594 -0.0228143 0
M  V30 2562 N 248.321 -0.919034 -1.28029 0
M  V30 2563 C 249.569 -0.553838 -1.94363 0
M  V30 2564 C 249.89 0.906357 -1.72656 0
M  V30 2565 O 249.16 1.64143 -1.0693 0
M  V30 2566 H 247.74 -0.201834 -0.719216 0
M  V30 2567 H 250.402 -1.16954 -1.55909 0
M  V30 2568 H 249.498 -0.752758 -3.02886 0
M  V30 2569 N 249.799 1.42003 -0.683588 0
M  V30 2570 C 250.746 2.30798 -0.0107309 0
M  V30 2571 C 251.716 1.4645 0.783688 0
M  V30 2572 O 252.901 1.75263 0.754156 0
M  V30 2573 C 250.041 3.3238 0.928306 0
M  V30 2574 C 249.154 4.31814 0.126776 0
M  V30 2575 C 248.289 5.20468 1.06236 0
M  V30 2576 C 247.328 6.11577 0.253035 0
M  V30 2577 N 246.465 6.92754 1.14179 0
M  V30 2578 H 251.305 2.8778 -0.773727 0
M  V30 2579 H 248.842 1.41745 -0.393283 0
M  V30 2580 H 250.8 3.89813 1.48666 0
M  V30 2581 H 249.43 2.76976 1.65783 0
M  V30 2582 H 248.482 3.76427 -0.54833 0
M  V30 2583 H 249.794 4.96276 -0.501192 0
M  V30 2584 H 248.948 5.82677 1.69035 0
M  V30 2585 H 247.687 4.56204 1.7242 0
M  V30 2586 H 246.692 5.48428 -0.388108 0
M  V30 2587 H 247.917 6.77892 -0.404839 0
M  V30 2588 H 245.863 6.3111 1.78987 0
M  V30 2589 H 245.78 7.53855 0.569111 0
M  V30 2590 H 247.048 7.59441 1.75697 0
M  V30 2591 N 251.277 0.427512 1.51691 0
M  V30 2592 C 252.502 -0.143601 2.06902 0
M  V30 2593 C 252.927 -1.36536 1.29382 0
M  V30 2594 O 252.285 -1.78289 0.329043 0
M  V30 2595 C 252.333 -0.454207 3.57728 0
M  V30 2596 O 251.437 -1.54228 3.82475 0
M  V30 2597 H 250.778 -0.00617128 0.663971 0
M  V30 2598 H 253.308 0.606014 1.95419 0
M  V30 2599 H 253.318 -0.707525 4.01818 0
M  V30 2600 H 251.993 0.438812 4.13579 0
M  V30 2601 H 250.57 -1.2797 3.50254 0
M  V30 2602 N 252.755 -1.56801 0.158532 0
M  V30 2603 C 253.718 -2.16138 -0.762705 0
M  V30 2604 C 254.718 -1.1061 -1.16713 0
M  V30 2605 O 255.908 -1.36191 -1.08617 0
M  V30 2606 C 253.04 -2.73386 -2.03649 0
M  V30 2607 H 254.233 -2.98886 -0.246354 0
M  V30 2608 H 251.786 -1.56035 -0.0909744 0
M  V30 2609 H 252.521 -1.94335 -2.59623 0
M  V30 2610 H 252.306 -3.50601 -1.75559 0
M  V30 2611 H 253.796 -3.19065 -2.6942 0
M  V30 2612 N 254.233 0.115231 -1.57178 0
M  V30 2613 C 255.163 1.1423 -2.03651 0
M  V30 2614 C 256.144 1.42967 -0.921655 0
M  V30 2615 O 257.329 1.53343 -1.19162 0
M  V30 2616 C 254.459 2.4675 -2.44401 0
M  V30 2617 C 253.413 2.32467 -3.59365 0
M  V30 2618 C 252.739 3.69984 -3.86026 0
M  V30 2619 C 254.039 1.78203 -4.90959 0
M  V30 2620 H 255.733 0.755749 -2.89705 0
M  V30 2621 H 253.279 0.362093 -1.39373 0
M  V30 2622 H 255.232 3.18854 -2.75517 0
M  V30 2623 H 253.956 2.87302 -1.55322 0
M  V30 2624 H 252.615 1.62811 -3.28463 0
M  V30 2625 H 252.263 4.08028 -2.94147 0
M  V30 2626 H 251.963 3.61279 -4.63412 0
M  V30 2627 H 253.487 4.43587 -4.19599 0
M  V30 2628 H 254.901 2.40128 -5.20587 0
M  V30 2629 H 253.298 1.8031 -5.72371 0
M  V30 2630 H 254.368 0.739876 -4.79222 0
M  V30 2631 N 255.711 1.52812 0.385517 0
M  V30 2632 C 256.959 1.67694 1.12797 0
M  V30 2633 C 257.28 0.421115 1.90399 0
M  V30 2634 O 256.55 -0.564551 1.87589 0
M  V30 2635 H 255.13 0.618155 0.419396 0
M  V30 2636 H 257.792 1.89938 0.436972 0
M  V30 2637 H 256.888 2.52896 1.82894 0
M  V30 2638 N 257.189 -0.644168 1.43834 0
M  V30 2639 C 258.136 -1.75671 1.49694 0
M  V30 2640 C 259.106 -1.6246 0.345809 0
M  V30 2641 O 260.291 -1.82573 0.554234 0
M  V30 2642 C 257.431 -3.13867 1.43463 0
M  V30 2643 C 256.544 -3.38147 2.6885 0
M  V30 2644 C 255.679 -4.66241 2.54544 0
M  V30 2645 C 254.718 -4.83657 3.75157 0
M  V30 2646 N 253.855 -6.03016 3.59605 0
M  V30 2647 H 258.695 -1.69998 2.44754 0
M  V30 2648 H 256.232 -0.829458 1.21484 0
M  V30 2649 H 258.19 -3.9377 1.37843 0
M  V30 2650 H 256.82 -3.18588 0.519783 0
M  V30 2651 H 255.872 -2.52276 2.84712 0
M  V30 2652 H 257.184 -3.46899 3.58417 0
M  V30 2653 H 256.338 -5.54285 2.46683 0
M  V30 2654 H 255.077 -4.59826 1.62516 0
M  V30 2655 H 254.082 -3.94046 3.83416 0
M  V30 2656 H 255.307 -4.91896 4.68204 0
M  V30 2657 H 253.253 -5.97715 2.7032 0
M  V30 2658 H 253.17 -6.12766 4.42779 0
M  V30 2659 H 254.438 -6.93657 3.55613 0
M  V30 2660 N 258.668 -1.30515 -0.883378 0
M  V30 2661 C 259.945 -1.10086 -1.6168 0
M  V30 2662 C 260.325 0.349269 -2.08191 0
M  V30 2663 O 259.673 1.34105 -1.85008 0
M  V30 2664 C 259.883 -2.10315 -2.78511 0
M  V30 2665 C 261.231 -2.42119 -3.48803 0
M  V30 2666 O 262.255 -2.08638 -2.88702 0
M  V30 2667 O 261.114 -2.99396 -4.57192 0
M  V30 2668 H 258.208 -0.422907 -0.710689 0
M  V30 2669 H 260.754 -1.41947 -0.930015 0
M  V30 2670 H 259.526 -3.07917 -2.41459 0
M  V30 2671 H 259.149 -1.79282 -3.54886 0
M  V30 2672 N 260.146 1.09593 -1.13257 0
M  V30 2673 C 261.392 1.82003 -0.89458 0
M  V30 2674 C 261.725 1.85402 0.577906 0
M  V30 2675 O 261 1.32099 1.42759 0
M  V30 2676 C 261.283 3.28237 -1.48096 0
M  V30 2677 C 261.136 3.3312 -3.02244 0
M  V30 2678 C 262.455 4.24871 -1.14774 0
M  V30 2679 H 259.574 0.66077 -0.326424 0
M  V30 2680 H 262.216 1.28389 -1.40058 0
M  V30 2681 H 260.366 3.74024 -1.05062 0
M  V30 2682 H 262.038 2.95748 -3.54021 0
M  V30 2683 H 260.281 2.72756 -3.37323 0
M  V30 2684 H 260.952 4.3613 -3.38371 0
M  V30 2685 H 263.428 3.87361 -1.51957 0
M  V30 2686 H 262.304 5.25532 -1.58452 0
M  V30 2687 H 262.565 4.42058 -0.0611849 0
M  V30 2688 N 261.624 0.925811 1.2754 0
M  V30 2689 C 263.035 0.610102 1.7645 0
M  V30 2690 C 263.386 -0.874723 1.75622 0
M  V30 2691 O 262.511 -1.68444 1.35851 0
M  V30 2692 C 263.106 1.10073 3.20421 0
M  V30 2693 C 261.665 0.835723 3.67005 0
M  V30 2694 C 260.812 1.26054 2.46993 0
M  V30 2695 H 263.763 1.10579 1.13833 0
M  V30 2696 H 263.784 0.447557 3.77859 0
M  V30 2697 H 263.296 2.18143 3.20991 0
M  V30 2698 H 261.397 -0.231249 3.71882 0
M  V30 2699 H 261.51 1.45193 4.56569 0
M  V30 2700 H 259.874 0.679111 2.45479 0
M  V30 2701 H 260.657 2.34984 2.50275 0
M  V30 2702 N 263.102 -1.41638 0.69111 0
M  V30 2703 C 264.513 -1.84346 0.295517 0
M  V30 2704 C 264.864 -1.57833 -1.16547 0
M  V30 2705 O 263.989 -1.04648 -1.89414 0
M  V30 2706 C 264.584 -3.34636 0.529575 0
M  V30 2707 C 263.143 -3.7593 0.187944 0
M  V30 2708 C 262.29 -2.65082 0.814052 0
M  V30 2709 H 265.241 -1.31253 0.892092 0
M  V30 2710 H 265.262 -3.79903 -0.213148 0
M  V30 2711 H 264.774 -3.53901 1.59297 0
M  V30 2712 H 262.875 -3.62268 -0.871367 0
M  V30 2713 H 262.988 -4.74808 0.63985 0
M  V30 2714 H 261.352 -2.53528 0.244017 0
M  V30 2715 H 262.135 -2.87167 1.88123 0
M  V30 2716 N 264.58 -0.43555 -1.51462 0
M  V30 2717 C 265.81 0.130053 -2.0619 0
M  V30 2718 C 266.218 1.37164 -1.30317 0
M  V30 2719 O 265.561 1.80225 -0.355598 0
M  V30 2720 C 265.623 0.519418 -3.55728 0
M  V30 2721 C 265.287 -0.615119 -4.52841 0
M  V30 2722 C 266.284 -1.48671 -4.9819 0
M  V30 2723 C 263.969 -0.795341 -4.95963 0
M  V30 2724 C 265.963 -2.52324 -5.8533 0
M  V30 2725 C 263.65 -1.83514 -5.82894 0
M  V30 2726 C 264.648 -2.69748 -6.27475 0
M  V30 2727 O 264.336 -3.71944 -7.1268 0
M  V30 2728 H 264.068 0.0121612 -0.675891 0
M  V30 2729 H 266.622 -0.6129 -1.96043 0
M  V30 2730 H 264.852 1.31505 -3.63653 0
M  V30 2731 H 266.541 1.01597 -3.92979 0
M  V30 2732 H 267.307 -1.359 -4.65571 0
M  V30 2733 H 263.186 -0.133713 -4.60806 0
M  V30 2734 H 266.73 -3.19665 -6.20048 0
M  V30 2735 H 262.627 -1.96306 -6.14926 0
M  V30 2736 H 263.395 -3.68503 -7.30854 0
M  V30 2737 N 266.058 1.56714 -0.166846 0
M  V30 2738 C 267.298 1.98641 0.481763 0
M  V30 2739 C 267.662 1.05038 1.6072 0
M  V30 2740 O 268.863 1.36087 2.31805 0
M  V30 2741 C 267.134 3.44362 0.956517 0
M  V30 2742 S 268.693 4.08317 1.60694 0
M  V30 2743 H 265.511 0.693873 0.155116 0
M  V30 2744 H 268.113 1.93719 -0.263251 0
M  V30 2745 H 266.817 4.10204 0.126936 0
M  V30 2746 H 266.348 3.53041 1.73568 0
M  V30 2747 H 268.363 4.02999 2.89494 0
M  V30 2748 N 267.536 -0.106894 1.57237 0
M  V30 2749 C 268.764 -0.826389 1.8968 0
M  V30 2750 C 269.179 -1.72856 0.759353 0
M  V30 2751 O 268.536 -1.80503 -0.269263 0
M  V30 2752 C 268.587 -1.64967 3.21665 0
M  V30 2753 O 268.308 -0.783804 4.31031 0
M  V30 2754 C 269.809 -2.47326 3.67892 0
M  V30 2755 H 267.029 -0.236927 0.627779 0
M  V30 2756 H 269.573 -0.0876593 2.04312 0
M  V30 2757 H 267.728 -2.34103 3.08666 0
M  V30 2758 H 268.142 -1.35284 5.06753 0
M  V30 2759 H 269.616 -3.00604 4.6297 0
M  V30 2760 H 270.093 -3.25247 2.95146 0
M  V30 2761 H 270.699 -1.83411 3.83719 0
M  V30 2762 N 269.014 -1.53014 -0.377408 0
M  V30 2763 C 270.26 -1.68872 -1.12294 0
M  V30 2764 C 270.593 -0.433224 -1.89306 0
M  V30 2765 O 269.868 0.569258 -1.85983 0
M  V30 2766 C 270.151 -2.93115 -2.09179 0
M  V30 2767 C 270.004 -4.28794 -1.35853 0
M  V30 2768 C 271.323 -3.12928 -3.09458 0
M  V30 2769 H 268.442 -0.614518 -0.406862 0
M  V30 2770 H 271.084 -1.85633 -0.40503 0
M  V30 2771 H 269.234 -2.78956 -2.70399 0
M  V30 2772 H 270.906 -4.54742 -0.775082 0
M  V30 2773 H 269.149 -4.28744 -0.660364 0
M  V30 2774 H 269.82 -5.11837 -2.06706 0
M  V30 2775 H 272.296 -3.26194 -2.58334 0
M  V30 2776 H 271.172 -4.01316 -3.74482 0
M  V30 2777 H 271.433 -2.27669 -3.78971 0
M  V30 2778 N 270.492 0.636531 -1.44174 0
M  V30 2779 C 271.402 1.77754 -1.53103 0
M  V30 2780 C 272.418 1.68928 -0.417034 0
M  V30 2781 O 273.594 1.89801 -0.6736 0
M  V30 2782 C 270.659 3.14115 -1.46741 0
M  V30 2783 C 269.72 3.34612 -2.68948 0
M  V30 2784 C 268.953 4.64467 -2.6288 0
M  V30 2785 O 269.176 5.44919 -1.68581 0
M  V30 2786 O 268.11 4.87049 -3.53648 0
M  V30 2787 H 271.936 1.73174 -2.49489 0
M  V30 2788 H 269.521 0.79709 -1.2636 0
M  V30 2789 H 271.403 3.95412 -1.45696 0
M  V30 2790 H 270.078 3.19249 -0.534975 0
M  V30 2791 H 268.985 2.53014 -2.75562 0
M  V30 2792 H 270.318 3.34336 -3.61221 0
M  V30 2793 N 271.97 1.30982 0.876444 0
M  V30 2794 C 273.218 1.20058 1.62575 0
M  V30 2795 C 273.539 -0.242947 1.93481 0
M  V30 2796 O 272.809 -1.1619 1.57724 0
M  V30 2797 H 271.389 0.44135 0.602677 0
M  V30 2798 H 274.051 1.64222 1.04962 0
M  V30 2799 H 273.147 1.76762 2.57219 0
M  V30 2800 N 273.449 -1.08991 1.13837 0
M  V30 2801 C 274.397 -2.17841 0.815347 0
M  V30 2802 C 275.391 -1.68164 -0.204233 0
M  V30 2803 O 276.597 -1.79897 -0.0609304 0
M  V30 2804 H 272.972 -0.710654 0.245915 0
M  V30 2805 H 274.943 -2.42315 1.74143 0
M  V30 2806 C 273.692 -3.46381 0.302614 0
M  V30 2807 H 273.015 -3.84979 1.0785 0
M  V30 2808 H 274.455 -4.23844 0.115074 0
M  V30 2809 C 272.914 -3.22556 -0.972591 0
M  V30 2810 O 273.444 -3.45599 -2.04754 0
M  V30 2811 N 271.65 -2.76134 -0.905455 0
M  V30 2812 H 271.197 -2.57582 -0.0305421 0
M  V30 2813 H 271.155 -2.60571 -1.75926 0
M  V30 2814 N 274.927 -0.932562 -1.27047 0
M  V30 2815 C 276.343 -0.633544 -1.46487 0
M  V30 2816 C 276.543 0.815746 -1.84249 0
M  V30 2817 O 275.599 1.59319 -1.95892 0
M  V30 2818 C 276.912 -1.58758 -2.55375 0
M  V30 2819 C 278.46 -1.59634 -2.69232 0
M  V30 2820 C 278.935 -2.53747 -3.81283 0
M  V30 2821 N 280.426 -2.51982 -3.88664 0
M  V30 2822 C 281.161 -3.21491 -4.74796 0
M  V30 2823 N 280.657 -4.00395 -5.65381 0
M  V30 2824 N 282.45 -3.10485 -4.68568 0
M  V30 2825 H 274.601 -1.86946 -1.00821 0
M  V30 2826 H 276.864 -0.802897 -0.504044 0
M  V30 2827 H 276.57 -2.62172 -2.34432 0
M  V30 2828 H 276.444 -1.33301 -3.52861 0
M  V30 2829 H 278.831 -0.569488 -2.89553 0
M  V30 2830 H 278.912 -1.89142 -1.72218 0
M  V30 2831 H 278.556 -3.56545 -3.61715 0
M  V30 2832 H 278.486 -2.21532 -4.77735 0
M  V30 2833 H 280.977 -1.94681 -3.23895 0
M  V30 2834 H 281.29 -4.50406 -6.27976 0
M  V30 2835 H 279.635 -4.04498 -5.65161 0
M  V30 2836 H 282.826 -2.48331 -3.96799 0
M  V30 2837 H 282.999 -3.64925 -5.35475 0
M  V30 2838 N 276.405 1.4127 -0.698611 0
M  V30 2839 C 277.368 2.29158 -0.044132 0
M  V30 2840 C 278.368 1.44529 0.704841 0
M  V30 2841 O 279.558 1.65643 0.539276 0
M  V30 2842 C 276.69 3.27459 0.947809 0
M  V30 2843 H 277.883 2.88529 -0.817994 0
M  V30 2844 H 275.436 1.49307 -0.46228 0
M  V30 2845 H 276.171 2.73073 1.74933 0
M  V30 2846 H 275.956 3.8991 0.41385 0
M  V30 2847 H 277.446 3.93311 1.40344 0
M  V30 2848 N 277.883 0.443576 1.51229 0
M  V30 2849 C 279.13 -0.120796 2.02139 0
M  V30 2850 C 279.458 -1.42166 1.32736 0
M  V30 2851 O 278.713 -1.90849 0.43301 0
M  V30 2852 C 279.012 -0.380579 3.55368 0
M  V30 2853 C 278.678 0.83523 4.43097 0
M  V30 2854 C 277.34 1.16864 4.66794 0
M  V30 2855 C 279.692 1.64601 4.94526 0
M  V30 2856 C 277.02 2.31339 5.39165 0
M  V30 2857 C 279.372 2.78181 5.68153 0
M  V30 2858 C 278.036 3.11969 5.90112 0
M  V30 2859 H 277.306 -0.0442023 0.73968 0
M  V30 2860 H 279.953 0.592046 1.82118 0
M  V30 2861 H 278.258 -1.17538 3.73754 0
M  V30 2862 H 279.955 -0.830777 3.923 0
M  V30 2863 H 276.545 0.565437 4.24854 0
M  V30 2864 H 280.729 1.40163 4.76097 0
M  V30 2865 H 275.985 2.57823 5.5438 0
M  V30 2866 H 280.159 3.41371 6.06992 0
M  V30 2867 H 277.786 4.00784 6.45969 0
M  V30 2868 N 279.361 -1.56624 0.175154 0
M  V30 2869 C 280.61 -1.96173 -0.468921 0
M  V30 2870 C 280.923 -1.06401 -1.64128 0
M  V30 2871 O 282.129 -1.35648 -2.35185 0
M  V30 2872 C 280.585 -3.48833 -0.885633 0
M  V30 2873 C 280.193 -4.47237 0.261343 0
M  V30 2874 C 281.937 -3.97194 -1.49791 0
M  V30 2875 C 279.844 -5.9114 -0.175214 0
M  V30 2876 H 278.774 -0.732455 -0.178958 0
M  V30 2877 H 281.425 -1.81591 0.263997 0
M  V30 2878 H 279.807 -3.58848 -1.67464 0
M  V30 2879 H 280.981 -4.4894 1.03871 0
M  V30 2880 H 279.296 -4.08956 0.783827 0
M  V30 2881 H 281.893 -5.02167 -1.83665 0
M  V30 2882 H 282.236 -3.40351 -2.39722 0
M  V30 2883 H 282.769 -3.90212 -0.773267 0
M  V30 2884 H 279.508 -6.51865 0.689414 0
M  V30 2885 H 279.028 -5.92735 -0.91786 0
M  V30 2886 H 280.707 -6.44044 -0.617792 0
M  V30 2887 N 280.839 0.0985539 -1.57292 0
M  V30 2888 C 282.255 0.45267 -1.53046 0
M  V30 2889 C 282.455 1.80713 -0.891342 0
M  V30 2890 O 281.511 2.4785 -0.482375 0
M  V30 2891 C 282.824 0.418341 -2.97776 0
M  V30 2892 C 284.372 0.500443 -3.08973 0
M  V30 2893 C 284.847 0.496297 -4.55303 0
M  V30 2894 N 286.338 0.557151 -4.59837 0
M  V30 2895 C 287.073 0.575726 -5.70502 0
M  V30 2896 N 286.569 0.550714 -6.90608 0
M  V30 2897 N 288.362 0.620277 -5.58667 0
M  V30 2898 H 280.513 -0.788673 -1.97215 0
M  V30 2899 H 282.776 -0.293188 -0.901524 0
M  V30 2900 H 282.482 -0.509659 -3.47988 0
M  V30 2901 H 282.356 1.2386 -3.56284 0
M  V30 2902 H 284.743 1.41886 -2.58751 0
M  V30 2903 H 284.824 -0.347894 -2.53423 0
M  V30 2904 H 284.468 -0.418162 -5.06176 0
M  V30 2905 H 284.398 1.3618 -5.08687 0
M  V30 2906 H 286.889 0.581816 -3.73394 0
M  V30 2907 H 287.202 0.568075 -7.70709 0
M  V30 2908 H 285.547 0.517816 -6.93068 0
M  V30 2909 H 288.738 0.637322 -4.63741 0
M  V30 2910 H 288.911 0.631283 -6.44918 0
M  V30 2911 N 282.317 1.53212 0.369288 0
M  V30 2912 C 283.565 1.68881 1.11012 0
M  V30 2913 C 283.886 0.441285 1.89941 0
M  V30 2914 O 283.156 -0.544623 1.88177 0
M  V30 2915 H 281.736 0.622569 0.412816 0
M  V30 2916 H 284.398 1.90391 0.416802 0
M  V30 2917 H 283.494 2.54822 1.80201 0
M  V30 2918 N 283.795 -0.628877 1.44509 0
M  V30 2919 C 284.725 -1.75187 1.54376 0
M  V30 2920 C 285.706 -1.65411 0.396618 0
M  V30 2921 O 286.891 -1.84137 0.617031 0
M  V30 2922 C 284.021 -3.13725 1.48976 0
M  V30 2923 C 282.975 -3.38291 2.62189 0
M  V30 2924 C 282.301 -4.76883 2.41841 0
M  V30 2925 C 283.601 -3.30632 4.04326 0
M  V30 2926 H 285.295 -1.67187 2.48373 0
M  V30 2927 H 282.841 -0.802909 1.19538 0
M  V30 2928 H 284.794 -3.92064 1.54478 0
M  V30 2929 H 283.518 -3.22515 0.514961 0
M  V30 2930 H 282.177 -2.62334 2.56079 0
M  V30 2931 H 281.825 -4.82378 1.42548 0
M  V30 2932 H 281.525 -4.94278 3.17747 0
M  V30 2933 H 283.049 -5.57449 2.49165 0
M  V30 2934 H 284.463 -3.98873 4.11793 0
M  V30 2935 H 282.86 -3.59561 4.80454 0
M  V30 2936 H 283.93 -2.28404 4.27738 0
M  V30 2937 N 285.273 -1.31445 -0.869486 0
M  V30 2938 C 286.221 -1.19067 -1.99814 0
M  V30 2939 C 287.215 -0.0988569 -1.69111 0
M  V30 2940 O 288.421 -0.260781 -1.78101 0
M  V30 2941 H 284.796 -0.368677 -0.655425 0
M  V30 2942 H 286.767 -2.14555 -2.07385 0
M  V30 2943 C 285.516 -0.915323 -3.35436 0
M  V30 2944 H 284.839 -1.74759 -3.59582 0
M  V30 2945 H 286.279 -0.868895 -4.15001 0
M  V30 2946 C 284.738 0.381928 -3.34728 0
M  V30 2947 O 285.268 1.39857 -3.76567 0
M  V30 2948 N 283.474 0.398633 -2.87853 0
M  V30 2949 H 283.021 -0.429186 -2.54 0
M  V30 2950 H 282.979 1.26651 -2.87762 0
M  V30 2951 N 286.751 1.08385 -1.14413 0
M  V30 2952 C 288.167 1.32844 -0.884563 0
M  V30 2953 C 288.367 1.95841 0.474181 0
M  V30 2954 O 287.423 2.21158 1.21842 0
M  V30 2955 C 288.736 2.22978 -2.01745 0
M  V30 2956 C 290.284 2.36458 -2.05077 0
M  V30 2957 C 290.759 3.29934 -3.1766 0
M  V30 2958 N 292.25 3.37511 -3.17239 0
M  V30 2959 C 292.985 4.09871 -4.0099 0
M  V30 2960 N 292.481 4.84936 -4.94781 0
M  V30 2961 N 294.274 4.05704 -3.89051 0
M  V30 2962 H 286.425 0.658756 -2.01926 0
M  V30 2963 H 288.688 0.352821 -0.879899 0
M  V30 2964 H 288.394 1.83934 -2.99769 0
M  V30 2965 H 288.268 3.23441 -1.94077 0
M  V30 2966 H 290.655 2.7476 -1.0766 0
M  V30 2967 H 290.736 1.35736 -2.16816 0
M  V30 2968 H 290.38 2.92352 -4.15322 0
M  V30 2969 H 290.31 4.30584 -3.03158 0
M  V30 2970 H 292.801 2.83996 -2.49308 0
M  V30 2971 H 293.114 5.37612 -5.55151 0
M  V30 2972 H 291.459 4.83988 -4.98779 0
M  V30 2973 H 294.65 3.46167 -3.15097 0
M  V30 2974 H 294.823 4.61834 -4.54547 0
M  V30 2975 N 288.23 0.939286 1.26551 0
M  V30 2976 C 289.18 0.418284 2.2413 0
M  V30 2977 C 290.164 -0.483935 1.5345 0
M  V30 2978 O 291.356 -0.319489 1.74093 0
M  V30 2979 C 288.485 -0.31709 3.41832 0
M  V30 2980 C 287.571 0.602311 4.19801 0
M  V30 2981 N 287.962 1.72726 4.75394 0
M  V30 2982 C 286.26 0.407534 4.44134 0
M  V30 2983 C 286.961 2.30004 5.34297 0
M  V30 2984 N 285.937 1.58828 5.1988 0
M  V30 2985 H 289.739 1.27705 2.64705 0
M  V30 2986 H 287.253 0.794929 1.41614 0
M  V30 2987 H 289.25 -0.707364 4.10855 0
M  V30 2988 H 287.91 -1.17264 3.02786 0
M  V30 2989 H 288.921 2.10944 4.72994 0
M  V30 2990 H 285.598 -0.406406 4.15517 0
M  V30 2991 H 286.988 3.24778 5.88191 0
M  V30 2992 N 289.708 -1.40897 0.706093 0
M  V30 2993 C 291.124 -1.55042 0.37869 0
M  V30 2994 C 291.324 -1.67944 -1.11342 0
M  V30 2995 O 290.38 -1.66372 -1.89938 0
M  V30 2996 C 291.693 -2.78398 1.13643 0
M  V30 2997 C 293.241 -2.92206 1.12181 0
M  V30 2998 C 293.716 -4.18463 1.86152 0
M  V30 2999 N 295.207 -4.25443 1.83173 0
M  V30 3000 C 295.942 -5.2202 2.37239 0
M  V30 3001 N 295.438 -6.24563 2.99821 0
M  V30 3002 N 297.231 -5.14033 2.27435 0
M  V30 3003 H 289.382 -1.30769 1.67372 0
M  V30 3004 H 291.645 -0.631653 0.706907 0
M  V30 3005 H 291.351 -2.7511 2.19106 0
M  V30 3006 H 291.225 -3.70228 0.721853 0
M  V30 3007 H 293.612 -2.95004 0.0754171 0
M  V30 3008 H 293.693 -2.01521 1.57554 0
M  V30 3009 H 293.337 -4.16427 2.90776 0
M  V30 3010 H 293.267 -5.08141 1.38206 0
M  V30 3011 H 295.758 -3.51976 1.37556 0
M  V30 3012 H 296.071 -6.94665 3.38616 0
M  V30 3013 H 294.416 -6.25035 3.03902 0
M  V30 3014 H 297.607 -4.3285 1.78208 0
M  V30 3015 H 297.78 -5.89129 2.69873 0
M  V30 3016 N 291.186 -0.45159 -1.50991 0
M  V30 3017 C 292.119 0.398179 -2.24699 0
M  V30 3018 C 293.097 1.01276 -1.27208 0
M  V30 3019 O 294.281 1.05247 -1.56382 0
M  V30 3020 C 291.408 1.55618 -3.00833 0
M  V30 3021 C 290.454 1.0609 -4.13095 0
M  V30 3022 S 291.287 -0.00865136 -5.35499 0
M  V30 3023 C 292.443 1.15369 -6.15175 0
M  V30 3024 H 292.676 -0.227555 -2.96428 0
M  V30 3025 H 290.209 -0.236251 -1.52582 0
M  V30 3026 H 292.167 2.21997 -3.45293 0
M  V30 3027 H 290.828 2.15337 -2.28667 0
M  V30 3028 H 290.021 1.92726 -4.65696 0
M  V30 3029 H 289.623 0.47513 -3.7097 0
M  V30 3030 H 291.915 2.06925 -6.45126 0
M  V30 3031 H 292.858 0.667344 -7.04948 0
M  V30 3032 H 293.266 1.3987 -5.46897 0
M  V30 3033 N 292.664 1.56529 -0.183458 0
M  V30 3034 C 294.08 1.58664 0.172554 0
M  V30 3035 C 294.28 1.19925 1.61926 0
M  V30 3036 O 293.336 0.916534 2.35278 0
M  V30 3037 C 294.649 3.00463 -0.119262 0
M  V30 3038 C 296.197 3.12945 -0.0584396 0
M  V30 3039 C 296.672 4.56857 -0.323408 0
M  V30 3040 N 298.163 4.62403 -0.271612 0
M  V30 3041 C 298.898 5.71626 -0.450639 0
M  V30 3042 N 298.394 6.89362 -0.689384 0
M  V30 3043 N 300.187 5.60775 -0.385701 0
M  V30 3044 H 292.338 1.79994 -1.12765 0
M  V30 3045 H 294.601 0.834808 -0.449222 0
M  V30 3046 H 294.307 3.33326 -1.12192 0
M  V30 3047 H 294.181 3.72659 0.583544 0
M  V30 3048 H 296.568 2.79902 0.934805 0
M  V30 3049 H 296.649 2.4316 -0.794144 0
M  V30 3050 H 296.293 4.9061 -1.31392 0
M  V30 3051 H 296.223 5.24816 0.43305 0
M  V30 3052 H 298.714 3.77785 -0.0932256 0
M  V30 3053 H 299.027 7.68489 -0.815113 0
M  V30 3054 H 297.372 6.91196 -0.726142 0
M  V30 3055 H 300.563 4.67674 -0.199687 0
M  V30 3056 H 300.736 6.4584 -0.528646 0
M  V30 3057 N 294.142 -0.090211 1.57342 0
M  V30 3058 C 295.074 -1.13541 1.99101 0
M  V30 3059 C 296.087 -1.3604 0.894258 0
M  V30 3060 O 297.276 -1.34606 1.17233 0
M  V30 3061 C 294.376 -2.49001 2.29895 0
M  V30 3062 C 293.549 -2.46712 3.61182 0
M  V30 3063 C 292.608 -3.64136 3.79857 0
M  V30 3064 O 291.634 -3.46405 4.51655 0
M  V30 3065 N 292.836 -4.83802 3.20806 0
M  V30 3066 H 295.601 -0.779942 2.89373 0
M  V30 3067 H 293.162 -0.279125 1.59476 0
M  V30 3068 H 295.154 -3.26166 2.39578 0
M  V30 3069 H 293.724 -2.76619 1.45605 0
M  V30 3070 H 292.944 -1.55058 3.62423 0
M  V30 3071 H 294.232 -2.42265 4.4742 0
M  V30 3072 H 293.63 -5.01112 2.62494 0
M  V30 3073 H 292.187 -5.58543 3.35966 0
M  V30 3074 N 295.62 -1.53406 -0.361157 0
M  V30 3075 C 296.55 -1.83136 -1.44857 0
M  V30 3076 C 297.531 -0.685174 -1.5569 0
M  V30 3077 O 298.716 -0.93544 -1.70186 0
M  V30 3078 C 295.846 -2.02522 -2.82138 0
M  V30 3079 C 294.8 -3.18302 -2.86126 0
M  V30 3080 C 294.126 -3.22989 -4.26125 0
M  V30 3081 C 295.426 -4.56796 -2.53248 0
M  V30 3082 H 297.12 -2.74201 -1.20226 0
M  V30 3083 H 294.666 -1.31938 -0.576922 0
M  V30 3084 H 296.619 -2.21904 -3.58241 0
M  V30 3085 H 295.343 -1.08172 -3.08166 0
M  V30 3086 H 294.002 -2.98747 -2.12475 0
M  V30 3087 H 293.65 -2.26267 -4.49235 0
M  V30 3088 H 293.35 -4.00781 -4.29708 0
M  V30 3089 H 294.874 -3.44559 -5.04094 0
M  V30 3090 H 296.288 -4.7631 -3.19064 0
M  V30 3091 H 294.685 -5.36862 -2.68141 0
M  V30 3092 H 295.755 -4.61606 -1.48484 0
M  V30 3093 N 297.098 0.621204 -1.44841 0
M  V30 3094 C 298.028 1.74366 -1.55303 0
M  V30 3095 C 299.009 1.65199 -0.405385 0
M  V30 3096 O 300.194 1.83807 -0.626787 0
M  V30 3097 C 297.324 3.12931 -1.50637 0
M  V30 3098 C 296.278 3.36896 -2.63979 0
M  V30 3099 C 295.604 4.75594 -2.44366 0
M  V30 3100 C 296.904 3.28483 -4.06074 0
M  V30 3101 H 298.598 1.65867 -2.49256 0
M  V30 3102 H 296.144 0.796558 -1.19962 0
M  V30 3103 H 298.097 3.9124 -1.56555 0
M  V30 3104 H 296.821 3.22237 -0.532057 0
M  V30 3105 H 295.48 2.60972 -2.57467 0
M  V30 3106 H 295.128 4.81616 -1.45105 0
M  V30 3107 H 294.828 4.92586 -3.20364 0
M  V30 3108 H 296.352 5.5612 -2.52117 0
M  V30 3109 H 297.766 3.96684 -4.13902 0
M  V30 3110 H 296.163 3.57008 -4.82354 0
M  V30 3111 H 297.233 2.26133 -4.28943 0
M  V30 3112 N 298.576 1.31904 0.862503 0
M  V30 3113 C 299.486 1.22161 2.00285 0
M  V30 3114 C 300.502 0.136785 1.73462 0
M  V30 3115 O 301.678 0.355994 1.98229 0
M  V30 3116 C 298.743 0.937093 3.33796 0
M  V30 3117 C 297.804 2.10957 3.73893 0
M  V30 3118 C 297.037 1.83853 5.01033 0
M  V30 3119 O 297.26 0.777274 5.65079 0
M  V30 3120 O 296.194 2.69741 5.38074 0
M  V30 3121 H 300.02 2.18008 2.11439 0
M  V30 3122 H 297.605 1.11716 0.991957 0
M  V30 3123 H 299.487 0.794583 4.13841 0
M  V30 3124 H 298.162 0.00871894 3.23699 0
M  V30 3125 H 297.069 2.30752 2.94456 0
M  V30 3126 H 298.402 3.02046 3.88625 0
M  V30 3127 N 300.054 -1.07777 1.14986 0
M  V30 3128 C 301.279 -1.84558 0.946213 0
M  V30 3129 C 301.704 -1.81323 -0.500362 0
M  V30 3130 O 301.062 -1.20301 -1.35637 0
M  V30 3131 C 301.11 -3.29736 1.45968 0
M  V30 3132 O 300.214 -4.07149 0.65601 0
M  V30 3133 H 299.555 -0.571641 0.33782 0
M  V30 3134 H 302.085 -1.35991 1.52865 0
M  V30 3135 H 302.095 -3.80574 1.47063 0
M  V30 3136 H 300.77 -3.31406 2.51283 0
M  V30 3137 H 299.347 -3.65994 0.714322 0
M  V30 3138 N 301.532 -0.945985 -1.26051 0
M  V30 3139 C 302.479 -0.45809 -2.26208 0
M  V30 3140 C 303.449 0.484816 -1.58867 0
M  V30 3141 O 304.634 0.399969 -1.86561 0
M  V30 3142 C 301.774 0.266131 -3.44072 0
M  V30 3143 C 300.887 -0.713005 -4.26075 0
M  V30 3144 C 300.022 0.0329013 -5.3119 0
M  V30 3145 C 299.061 -0.93774 -6.04874 0
M  V30 3146 N 298.198 -0.223274 -7.01745 0
M  V30 3147 H 303.038 -1.3171 -2.67313 0
M  V30 3148 H 300.575 -0.66069 -1.31428 0
M  V30 3149 H 302.533 0.702514 -4.11243 0
M  V30 3150 H 301.163 1.08925 -3.03867 0
M  V30 3151 H 300.215 -1.26789 -3.58648 0
M  V30 3152 H 301.527 -1.45406 -4.77136 0
M  V30 3153 H 300.681 0.528335 -6.04395 0
M  V30 3154 H 299.42 0.806801 -4.8098 0
M  V30 3155 H 298.425 -1.44425 -5.30492 0
M  V30 3156 H 299.65 -1.71172 -6.57173 0
M  V30 3157 H 297.596 0.532046 -6.53839 0
M  V30 3158 H 297.513 -0.90357 -7.50581 0
M  V30 3159 H 298.781 0.250907 -7.79096 0
M  V30 3160 N 303.011 1.40521 -0.713556 0
M  V30 3161 C 304.288 1.94775 -0.17943 0
M  V30 3162 C 304.668 1.65184 1.31444 0
M  V30 3163 O 304.016 0.968429 2.06963 0
M  V30 3164 C 304.226 3.45543 -0.489986 0
M  V30 3165 C 305.574 4.22442 -0.427536 0
M  V30 3166 O 306.598 3.53644 -0.425929 0
M  V30 3167 O 305.457 5.4501 -0.403292 0
M  V30 3168 H 302.551 0.826606 -0.0255192 0
M  V30 3169 H 305.097 1.5014 -0.790949 0
M  V30 3170 H 303.869 3.60432 -1.5233 0
M  V30 3171 H 303.492 3.97311 0.151598 0
M  V30 3172 N 304.489 0.459591 1.5075 0
M  V30 3173 C 305.738 -0.100971 2.01447 0
M  V30 3174 C 306.051 -1.41816 1.34713 0
M  V30 3175 O 307.257 -2.06299 1.76502 0
M  V30 3176 C 305.713 -0.23047 3.59161 0
M  V30 3177 C 305.321 1.0776 4.34847 0
M  V30 3178 C 307.065 -0.743608 4.17936 0
M  V30 3179 C 304.972 0.91253 5.84317 0
M  V30 3180 H 303.902 -0.0415102 0.752856 0
M  V30 3181 H 306.553 0.592742 1.73663 0
M  V30 3182 H 304.935 -0.987703 3.83485 0
M  V30 3183 H 306.109 1.8449 4.22256 0
M  V30 3184 H 304.424 1.52097 3.87628 0
M  V30 3185 H 307.021 -0.883959 5.27343 0
M  V30 3186 H 307.364 -1.73196 3.78562 0
M  V30 3187 H 307.897 -0.04408 3.97776 0
M  V30 3188 H 304.636 1.87391 6.28144 0
M  V30 3189 H 304.156 0.185422 5.99513 0
M  V30 3190 H 305.835 0.574547 6.44444 0
M  V30 3191 N 305.967 -1.56429 0.191757 0
M  V30 3192 C 307.244 -1.89224 -0.495332 0
M  V30 3193 C 307.624 -1.10478 -1.79883 0
M  V30 3194 O 306.972 -0.204852 -2.2758 0
M  V30 3195 C 307.182 -3.41548 -0.717367 0
M  V30 3196 C 308.53 -4.11711 -1.03823 0
M  V30 3197 O 309.554 -3.4698 -0.805204 0
M  V30 3198 O 308.413 -5.2611 -1.47887 0
M  V30 3199 H 305.507 -0.785788 -0.25781 0
M  V30 3200 H 308.053 -1.68111 0.231721 0
M  V30 3201 H 306.825 -3.90772 0.203287 0
M  V30 3202 H 306.448 -3.68342 -1.497 0
M  V30 3203 N 307.445 0.0818655 -1.57387 0
M  V30 3204 C 308.692 0.782914 -1.86753 0
M  V30 3205 C 309.02 1.78082 -0.782118 0
M  V30 3206 O 308.275 1.94426 0.22295 0
M  V30 3207 C 308.574 1.53513 -3.22752 0
M  V30 3208 C 308.24 0.678134 -4.45771 0
M  V30 3209 C 306.902 0.441929 -4.79166 0
M  V30 3210 C 309.254 0.0832243 -5.21134 0
M  V30 3211 C 306.582 -0.398833 -5.85343 0
M  V30 3212 C 308.934 -0.744935 -6.28199 0
M  V30 3213 C 307.598 -0.991107 -6.60101 0
M  V30 3214 H 306.868 0.286489 -0.683378 0
M  V30 3215 H 309.515 0.0439808 -1.91449 0
M  V30 3216 H 307.82 2.34599 -3.138 0
M  V30 3217 H 309.517 2.08218 -3.42705 0
M  V30 3218 H 306.107 0.872357 -4.19628 0
M  V30 3219 H 310.291 0.252847 -4.95655 0
M  V30 3220 H 305.547 -0.598405 -6.08465 0
M  V30 3221 H 309.721 -1.21271 -6.8576 0
M  V30 3222 H 307.348 -1.64437 -7.42202 0
M  V30 3223 N 308.923 1.53595 0.353017 0
M  V30 3224 C 310.172 1.69603 1.09168 0
M  V30 3225 C 310.485 0.460925 1.90092 0
M  V30 3226 O 311.691 0.501774 2.66823 0
M  V30 3227 C 310.147 2.99872 1.9901 0
M  V30 3228 C 309.755 4.30687 1.23339 0
M  V30 3229 C 311.499 3.25246 2.72792 0
M  V30 3230 C 309.406 5.52036 2.12156 0
M  V30 3231 H 308.336 0.631966 0.411261 0
M  V30 3232 H 310.987 1.80096 0.351802 0
M  V30 3233 H 309.369 2.83212 2.7678 0
M  V30 3234 H 310.543 4.58019 0.505456 0
M  V30 3235 H 308.858 4.11853 0.613663 0
M  V30 3236 H 311.455 4.13095 3.39495 0
M  V30 3237 H 311.798 2.41846 3.38846 0
M  V30 3238 H 312.331 3.42638 2.021 0
M  V30 3239 H 309.07 6.37951 1.50659 0
M  V30 3240 H 308.59 5.28966 2.82764 0
M  V30 3241 H 310.269 5.87313 2.71427 0
M  V30 3242 N 310.401 -0.613514 1.45168 0
M  V30 3243 C 311.631 -1.39743 1.52169 0
M  V30 3244 C 312.039 -1.88596 0.151086 0
M  V30 3245 O 311.382 -1.6251 -0.856521 0
M  V30 3246 C 311.444 -2.64035 2.43979 0
M  V30 3247 C 311.108 -2.36861 3.90827 0
M  V30 3248 C 312.105 -1.97591 4.80889 0
M  V30 3249 C 309.79 -2.49956 4.35692 0
M  V30 3250 C 311.784 -1.71768 6.1382 0
M  V30 3251 C 309.471 -2.23747 5.68665 0
M  V30 3252 C 310.469 -1.84714 6.57548 0
M  V30 3253 O 310.157 -1.58809 7.88058 0
M  V30 3254 H 309.889 -0.434382 0.517966 0
M  V30 3255 H 312.443 -0.75587 1.90986 0
M  V30 3256 H 310.673 -3.3089 2.00122 0
M  V30 3257 H 312.362 -3.26069 2.41731 0
M  V30 3258 H 313.128 -1.87015 4.47493 0
M  V30 3259 H 309.007 -2.79305 3.66756 0
M  V30 3260 H 312.551 -1.41227 6.83155 0
M  V30 3261 H 308.448 -2.33938 6.01617 0
M  V30 3262 H 309.216 -1.7291 8.00028 0
M  V30 3263 N 311.879 -1.3236 -0.855495 0
M  V30 3264 C 312.842 -1.21164 -1.94556 0
M  V30 3265 C 313.842 -0.134908 -1.60233 0
M  V30 3266 O 315.032 -0.385249 -1.69887 0
M  V30 3267 C 312.164 -0.863192 -3.29791 0
M  V30 3268 H 313.357 -2.18038 -2.05911 0
M  V30 3269 H 310.91 -1.16179 -1.04557 0
M  V30 3270 H 311.645 0.103769 -3.24134 0
M  V30 3271 H 311.43 -1.64166 -3.56078 0
M  V30 3272 H 312.92 -0.809156 -4.09686 0
M  V30 3273 N 313.357 1.07166 -1.15556 0
M  V30 3274 C 314.287 2.16403 -0.877046 0
M  V30 3275 C 315.268 1.69217 0.173111 0
M  V30 3276 O 316.453 1.94181 0.027084 0
M  V30 3277 C 313.583 3.45349 -0.367632 0
M  V30 3278 C 312.537 4.05995 -1.35468 0
M  V30 3279 C 311.863 5.30045 -0.704038 0
M  V30 3280 C 313.163 4.45804 -2.72132 0
M  V30 3281 H 314.857 2.39959 -1.79053 0
M  V30 3282 H 312.403 1.15325 -0.862331 0
M  V30 3283 H 314.356 4.21095 -0.160317 0
M  V30 3284 H 313.08 3.21385 0.581326 0
M  V30 3285 H 311.739 3.32296 -1.54839 0
M  V30 3286 H 311.387 5.02373 0.251128 0
M  V30 3287 H 311.087 5.71579 -1.36277 0
M  V30 3288 H 312.611 6.08495 -0.50654 0
M  V30 3289 H 314.025 5.12671 -2.56595 0
M  V30 3290 H 312.422 4.98296 -3.34397 0
M  V30 3291 H 313.492 3.57083 -3.28054 0
M  V30 3292 N 314.835 0.952656 1.25548 0
M  V30 3293 C 316.065 0.622592 1.96996 0
M  V30 3294 C 316.473 -0.809112 1.71026 0
M  V30 3295 O 315.816 -1.55258 0.981861 0
M  V30 3296 C 315.878 0.798946 3.5051 0
M  V30 3297 C 315.542 2.20744 4.00151 0
M  V30 3298 C 316.539 3.18394 4.11001 0
M  V30 3299 C 314.224 2.5311 4.33867 0
M  V30 3300 C 316.218 4.46504 4.54877 0
M  V30 3301 C 313.905 3.8145 4.7743 0
M  V30 3302 C 314.903 4.77959 4.87897 0
M  V30 3303 O 314.591 6.04012 5.30494 0
M  V30 3304 H 314.323 0.232503 0.634758 0
M  V30 3305 H 316.877 1.2789 1.60728 0
M  V30 3306 H 315.107 0.0854903 3.86605 0
M  V30 3307 H 316.796 0.47023 4.03167 0
M  V30 3308 H 317.562 2.94715 3.85186 0
M  V30 3309 H 313.441 1.78719 4.24948 0
M  V30 3310 H 316.985 5.21835 4.62962 0
M  V30 3311 H 312.882 4.04936 5.0269 0
M  V30 3312 H 313.65 6.0736 5.48685 0
M  V30 3313 N 316.313 -1.40141 0.720998 0
M  V30 3314 C 317.26 -2.30688 0.071919 0
M  V30 3315 C 318.23 -1.48476 -0.744584 0
M  V30 3316 O 319.415 -1.77201 -0.707423 0
M  V30 3317 C 316.555 -3.34724 -0.839855 0
M  V30 3318 C 315.668 -4.31998 -0.0122438 0
M  V30 3319 C 314.803 -5.23102 -0.923995 0
M  V30 3320 C 313.842 -6.12033 -0.0907969 0
M  V30 3321 N 312.979 -6.95537 -0.957718 0
M  V30 3322 H 317.819 -2.85628 0.849755 0
M  V30 3323 H 315.356 -1.40653 0.430726 0
M  V30 3324 H 317.314 -3.93618 -1.38279 0
M  V30 3325 H 315.944 -2.81274 -1.58381 0
M  V30 3326 H 314.996 -3.74841 0.64794 0
M  V30 3327 H 316.308 -4.94772 0.632595 0
M  V30 3328 H 315.462 -5.86953 -1.53527 0
M  V30 3329 H 314.201 -4.60615 -1.60264 0
M  V30 3330 H 313.206 -5.47207 0.533377 0
M  V30 3331 H 314.431 -6.76581 0.584428 0
M  V30 3332 H 312.377 -6.35633 -1.62192 0
M  V30 3333 H 312.294 -7.55099 -0.36904 0
M  V30 3334 H 313.562 -7.63832 -1.555 0
M  V30 3335 N 317.792 -0.46758 -1.50504 0
M  V30 3336 C 319.208 -0.121533 -1.59137 0
M  V30 3337 C 319.408 1.3717 -1.47603 0
M  V30 3338 O 318.464 2.14464 -1.33272 0
M  V30 3339 C 319.777 -0.6686 -2.93173 0
M  V30 3340 C 321.325 -0.631716 -3.06559 0
M  V30 3341 C 321.8 -1.15627 -4.43164 0
M  V30 3342 N 323.291 -1.11553 -4.49567 0
M  V30 3343 C 324.026 -1.49195 -5.5365 0
M  V30 3344 N 323.522 -1.94269 -6.65005 0
M  V30 3345 N 325.315 -1.4082 -5.44175 0
M  V30 3346 H 317.466 -1.4388 -1.56245 0
M  V30 3347 H 319.729 -0.594784 -0.738198 0
M  V30 3348 H 319.435 -1.71453 -3.07078 0
M  V30 3349 H 319.309 -0.11021 -3.77039 0
M  V30 3350 H 321.696 0.405297 -2.92304 0
M  V30 3351 H 321.777 -1.22687 -2.24458 0
M  V30 3352 H 321.421 -2.1919 -4.58168 0
M  V30 3353 H 321.351 -0.537365 -5.23851 0
M  V30 3354 H 323.842 -0.784895 -3.69659 0
M  V30 3355 H 324.155 -2.21148 -7.40482 0
M  V30 3356 H 322.5 -1.98219 -6.66134 0
M  V30 3357 H 325.691 -1.0545 -4.56068 0
M  V30 3358 H 325.864 -1.70481 -6.25172 0
M  V30 3359 N 319.27 1.56325 -0.20005 0
M  V30 3360 C 320.2 2.22318 0.713916 0
M  V30 3361 C 321.181 1.18788 1.21752 0
M  V30 3362 O 322.366 1.47309 1.26545 0
M  V30 3363 C 319.496 2.88639 1.93144 0
M  V30 3364 C 318.45 3.98457 1.56255 0
M  V30 3365 C 317.776 4.51967 2.85709 0
M  V30 3366 C 319.076 5.16612 0.768747 0
M  V30 3367 H 320.77 2.98952 0.163755 0
M  V30 3368 H 318.316 1.43792 0.0773219 0
M  V30 3369 H 320.269 3.33491 2.57608 0
M  V30 3370 H 318.993 2.09419 2.50621 0
M  V30 3371 H 317.652 3.54305 0.941471 0
M  V30 3372 H 317.3 3.69503 3.41287 0
M  V30 3373 H 317 5.26071 2.6177 0
M  V30 3374 H 318.524 4.99523 3.51154 0
M  V30 3375 H 319.938 5.57977 1.3166 0
M  V30 3376 H 318.335 5.96812 0.627286 0
M  V30 3377 H 319.405 4.84358 -0.229168 0
M  V30 3378 N 320.748 -0.0735177 1.57428 0
M  V30 3379 C 321.995 -0.772999 1.87166 0
M  V30 3380 C 322.323 -1.77665 0.791551 0
M  V30 3381 O 321.578 -1.94541 -0.212636 0
M  V30 3382 C 321.877 -1.51799 3.23561 0
M  V30 3383 C 321.543 -0.654484 4.46125 0
M  V30 3384 C 320.205 -0.416511 4.79394 0
M  V30 3385 C 322.557 -0.0555862 5.2117 0
M  V30 3386 C 319.885 0.429869 5.85123 0
M  V30 3387 C 322.237 0.778239 6.27795 0
M  V30 3388 C 320.901 1.0261 6.59566 0
M  V30 3389 H 320.171 -0.282861 0.684888 0
M  V30 3390 H 322.818 -0.0338272 1.9147 0
M  V30 3391 H 321.123 -2.32932 3.1504 0
M  V30 3392 H 322.82 -2.06397 3.43804 0
M  V30 3393 H 319.41 -0.850091 4.20085 0
M  V30 3394 H 323.594 -0.226558 4.95783 0
M  V30 3395 H 318.85 0.630665 6.08139 0
M  V30 3396 H 323.024 1.24906 6.85107 0
M  V30 3397 H 320.651 1.68371 7.4132 0
M  V30 3398 N 322.226 -1.5378 -0.344866 0
M  V30 3399 C 323.642 -1.44015 -0.687888 0
M  V30 3400 C 323.842 -0.595834 -1.92489 0
M  V30 3401 O 322.898 -0.0863064 -2.52352 0
M  V30 3402 C 324.211 -2.87481 -0.881758 0
M  V30 3403 C 325.759 -2.97247 -0.980459 0
M  V30 3404 C 326.234 -4.41819 -1.20665 0
M  V30 3405 N 327.725 -4.45339 -1.27389 0
M  V30 3406 C 328.46 -5.54333 -1.46639 0
M  V30 3407 N 327.956 -6.73335 -1.63071 0
M  V30 3408 N 329.749 -5.41944 -1.49176 0
M  V30 3409 H 321.9 -2.07169 0.468475 0
M  V30 3410 H 324.163 -0.93643 0.147655 0
M  V30 3411 H 323.869 -3.51672 -0.0443444 0
M  V30 3412 H 323.743 -3.32352 -1.78388 0
M  V30 3413 H 326.13 -2.33197 -1.8084 0
M  V30 3414 H 326.211 -2.5574 -0.0552713 0
M  V30 3415 H 325.855 -5.06449 -0.383652 0
M  V30 3416 H 325.785 -4.80917 -2.14539 0
M  V30 3417 H 328.276 -3.59585 -1.1622 0
M  V30 3418 H 328.589 -7.52165 -1.77391 0
M  V30 3419 H 326.934 -6.76282 -1.60209 0
M  V30 3420 H 330.125 -4.47932 -1.3592 0
M  V30 3421 H 330.298 -6.26946 -1.63837 0
M  V30 3422 N 323.704 0.605807 -1.45491 0
M  V30 3423 C 325.115 1.18777 -1.44045 0
M  V30 3424 C 325.466 1.95471 -0.169001 0
M  V30 3425 O 324.591 2.0374 0.729324 0
M  V30 3426 C 325.186 2.16064 -2.60963 0
M  V30 3427 C 323.745 2.69633 -2.62631 0
M  V30 3428 C 322.892 1.45072 -2.36325 0
M  V30 3429 H 325.843 0.395017 -1.53705 0
M  V30 3430 H 325.864 2.9913 -2.35163 0
M  V30 3431 H 325.376 1.60217 -3.53486 0
M  V30 3432 H 323.477 3.29414 -1.74119 0
M  V30 3433 H 323.59 3.13944 -3.61906 0
M  V30 3434 H 321.954 1.74089 -1.85917 0
M  V30 3435 H 322.737 0.910899 -3.30995 0
M  V30 3436 N 325.182 1.32811 0.848464 0
M  V30 3437 C 326.431 1.23075 1.59798 0
M  V30 3438 C 326.744 -0.204419 1.94529 0
M  V30 3439 O 327.95 -0.423701 2.68173 0
M  V30 3440 C 326.406 2.15594 2.88179 0
M  V30 3441 C 326.014 3.64228 2.60849 0
M  V30 3442 C 327.758 2.14709 3.66197 0
M  V30 3443 C 325.665 4.48689 3.85269 0
M  V30 3444 H 324.595 0.457091 0.599653 0
M  V30 3445 H 327.246 1.57813 0.936342 0
M  V30 3446 H 325.628 1.73778 3.55833 0
M  V30 3447 H 326.802 4.14424 2.01467 0
M  V30 3448 H 325.117 3.67306 1.96151 0
M  V30 3449 H 327.714 2.75046 4.58534 0
M  V30 3450 H 328.057 1.13966 4.00397 0
M  V30 3451 H 328.59 2.54837 3.05455 0
M  V30 3452 H 325.329 5.5027 3.56207 0
M  V30 3453 H 324.849 4.03241 4.44024 0
M  V30 3454 H 326.528 4.62006 4.52946 0
M  V30 3455 N 326.66 -1.06551 1.16123 0
M  V30 3456 C 328.071 -1.60768 0.949232 0
M  V30 3457 C 328.422 -1.89523 -0.507508 0
M  V30 3458 O 327.547 -1.66671 -1.38021 0
M  V30 3459 C 328.142 -2.92086 1.71671 0
M  V30 3460 C 326.701 -3.43015 1.54977 0
M  V30 3461 C 325.848 -2.16947 1.72711 0
M  V30 3462 H 328.799 -0.895354 1.31031 0
M  V30 3463 H 328.82 -3.6138 1.19099 0
M  V30 3464 H 328.332 -2.71127 2.7769 0
M  V30 3465 H 326.433 -3.69039 0.513873 0
M  V30 3466 H 326.546 -4.18516 2.33198 0
M  V30 3467 H 324.91 -2.27041 1.15431 0
M  V30 3468 H 325.693 -1.98473 2.80113 0
M  V30 3469 N 328.138 -0.959301 -1.25041 0
M  V30 3470 C 329.363 -0.633507 -1.97488 0
M  V30 3471 C 329.788 0.788555 -1.70773 0
M  V30 3472 O 329.146 1.53394 -0.966431 0
M  V30 3473 C 329.194 -0.904057 -3.49083 0
M  V30 3474 O 328.298 0.0147939 -4.12397 0
M  V30 3475 H 327.639 -0.240368 -0.618966 0
M  V30 3476 H 330.169 -1.28717 -1.59038 0
M  V30 3477 H 330.179 -0.832203 -3.99423 0
M  V30 3478 H 328.854 -1.94048 -3.67856 0
M  V30 3479 H 327.431 -0.109664 -3.72739 0
M  V30 3480 N 329.616 1.39756 -0.72842 0
M  V30 3481 C 330.546 2.33289 -0.0991354 0
M  V30 3482 C 331.527 1.53568 0.731489 0
M  V30 3483 O 332.712 1.81987 0.677807 0
M  V30 3484 C 329.842 3.3763 0.813834 0
M  V30 3485 C 328.796 4.2791 0.0878663 0
M  V30 3486 C 328.122 5.22894 1.11741 0
M  V30 3487 C 329.422 5.11314 -1.06563 0
M  V30 3488 H 331.116 2.86163 -0.880408 0
M  V30 3489 H 328.662 1.37591 -0.424819 0
M  V30 3490 H 330.615 4.0201 1.26355 0
M  V30 3491 H 329.339 2.83181 1.62715 0
M  V30 3492 H 327.998 3.65 -0.342159 0
M  V30 3493 H 327.646 4.64744 1.92412 0
M  V30 3494 H 327.346 5.84143 0.636477 0
M  V30 3495 H 328.87 5.90151 1.56697 0
M  V30 3496 H 330.284 5.69076 -0.694671 0
M  V30 3497 H 328.681 5.81671 -1.47577 0
M  V30 3498 H 329.751 4.46534 -1.89038 0
M  V30 3499 N 331.094 0.475555 1.50254 0
M  V30 3500 C 332.51 0.12997 1.5907 0
M  V30 3501 C 332.71 -1.36385 1.48328 0
M  V30 3502 O 331.766 -2.13754 1.34407 0
M  V30 3503 C 333.079 0.684139 2.92814 0
M  V30 3504 C 334.627 0.647965 3.0622 0
M  V30 3505 C 335.102 1.17975 4.42545 0
M  V30 3506 N 336.593 1.13936 4.48969 0
M  V30 3507 C 337.328 1.52129 5.52851 0
M  V30 3508 N 336.824 1.97793 6.63965 0
M  V30 3509 N 338.617 1.43704 5.4342 0
M  V30 3510 H 330.768 1.44706 1.55479 0
M  V30 3511 H 333.031 0.598691 0.735033 0
M  V30 3512 H 332.737 1.73079 3.06164 0
M  V30 3513 H 332.611 0.130204 3.76975 0
M  V30 3514 H 334.998 -0.38979 2.92514 0
M  V30 3515 H 335.079 1.23876 2.23805 0
M  V30 3516 H 334.723 2.21616 4.57 0
M  V30 3517 H 334.653 0.565138 5.23559 0
M  V30 3518 H 337.144 0.804488 3.69238 0
M  V30 3519 H 337.457 2.25072 7.39299 0
M  V30 3520 H 335.802 2.01749 6.65073 0
M  V30 3521 H 338.993 1.07867 4.55502 0
M  V30 3522 H 339.166 1.73794 6.24259 0
M  V30 3523 N 332.573 -1.56217 0.208337 0
M  V30 3524 C 333.483 -2.23316 -0.718836 0
M  V30 3525 C 334.499 -1.23648 -1.22422 0
M  V30 3526 O 335.675 -1.56423 -1.26861 0
M  V30 3527 C 332.74 -2.88968 -1.91568 0
M  V30 3528 C 331.801 -4.03943 -1.45357 0
M  V30 3529 C 331.034 -4.66455 -2.59337 0
M  V30 3530 O 331.257 -4.27919 -3.77149 0
M  V30 3531 O 330.191 -5.55686 -2.31293 0
M  V30 3532 H 334.017 -3.03182 -0.177315 0
M  V30 3533 H 331.602 -1.49384 -0.0215402 0
M  V30 3534 H 333.484 -3.30455 -2.61491 0
M  V30 3535 H 332.159 -2.12071 -2.44556 0
M  V30 3536 H 331.066 -3.67052 -0.722746 0
M  V30 3537 H 332.399 -4.82543 -0.970219 0
M  V30 3538 N 334.051 0.0651679 -1.57465 0
M  V30 3539 C 335.276 0.779605 -1.9219 0
M  V30 3540 C 335.701 1.69988 -0.805333 0
M  V30 3541 O 335.059 1.79685 0.241435 0
M  V30 3542 C 335.107 1.54364 -3.2589 0
M  V30 3543 O 334.211 2.65474 -3.1559 0
M  V30 3544 H 333.552 0.212249 -0.629163 0
M  V30 3545 H 336.082 0.0314294 -2.04576 0
M  V30 3546 H 336.092 1.92146 -3.59922 0
M  V30 3547 H 334.767 0.868457 -4.06732 0
M  V30 3548 H 333.344 2.30501 -2.93128 0
M  V30 3549 N 335.529 1.53961 0.336706 0
M  V30 3550 C 336.492 1.81724 1.39675 0
M  V30 3551 C 337.492 0.688532 1.45313 0
M  V30 3552 O 338.682 0.956829 1.45569 0
M  V30 3553 C 335.814 1.96543 2.78538 0
M  V30 3554 H 337.007 2.76424 1.16318 0
M  V30 3555 H 334.56 1.45478 0.571474 0
M  V30 3556 H 335.295 1.0401 3.07168 0
M  V30 3557 H 335.08 2.78665 2.75841 0
M  V30 3558 H 336.57 2.19516 3.5525 0
M  V30 3559 N 337.007 -0.598083 1.45811 0
M  V30 3560 C 337.954 -1.7082 1.55207 0
M  V30 3561 C 338.924 -1.61278 0.39732 0
M  V30 3562 O 340.109 -1.80717 0.612038 0
M  V30 3563 C 337.249 -3.09144 1.53376 0
M  V30 3564 C 336.362 -3.29423 2.79472 0
M  V30 3565 C 335.497 -4.57907 2.69248 0
M  V30 3566 C 334.536 -4.71476 3.90354 0
M  V30 3567 N 333.673 -5.9127 3.78608 0
M  V30 3568 H 338.513 -1.62125 2.50039 0
M  V30 3569 H 336.05 -0.790389 1.24062 0
M  V30 3570 H 338.008 -3.89186 1.50301 0
M  V30 3571 H 336.638 -3.16773 0.620876 0
M  V30 3572 H 335.69 -2.43091 2.92594 0
M  V30 3573 H 337.002 -3.3532 3.69272 0
M  V30 3574 H 336.156 -5.46157 2.64192 0
M  V30 3575 H 334.895 -4.54423 1.77063 0
M  V30 3576 H 333.9 -3.81648 3.95759 0
M  V30 3577 H 335.125 -4.76751 4.83617 0
M  V30 3578 H 333.071 -5.88813 2.89199 0
M  V30 3579 H 332.988 -5.98369 4.6205 0
M  V30 3580 H 334.256 -6.81992 3.77501 0
M  V30 3581 N 338.485 -1.33259 -0.841409 0
M  V30 3582 C 339.415 -1.25926 -1.96634 0
M  V30 3583 C 340.396 -0.140349 -1.6952 0
M  V30 3584 O 341.581 -0.329707 -1.91381 0
M  V30 3585 C 338.711 -0.99512 -3.32738 0
M  V30 3586 C 337.665 -2.0767 -3.74242 0
M  V30 3587 C 336.991 -1.66474 -5.08125 0
M  V30 3588 C 338.291 -3.49318 -3.88297 0
M  V30 3589 H 339.985 -2.20046 -2.03027 0
M  V30 3590 H 337.531 -1.05931 -0.975425 0
M  V30 3591 H 339.484 -0.930323 -4.11002 0
M  V30 3592 H 338.208 -0.0183004 -3.26595 0
M  V30 3593 H 336.867 -2.13187 -2.98239 0
M  V30 3594 H 336.515 -0.675012 -4.9845 0
M  V30 3595 H 336.215 -2.3885 -5.36865 0
M  V30 3596 H 337.739 -1.61455 -5.88867 0
M  V30 3597 H 339.153 -3.46316 -4.56879 0
M  V30 3598 H 337.55 -4.20158 -4.28471 0
M  V30 3599 H 338.62 -3.8801 -2.9082 0
M  V30 3600 N 339.963 1.05934 -1.16686 0
M  V30 3601 C 340.873 2.17014 -0.891183 0
M  V30 3602 C 341.889 1.73453 0.137907 0
M  V30 3603 O 343.065 2.01361 -0.039592 0
M  V30 3604 C 340.13 3.44384 -0.400099 0
M  V30 3605 C 339.191 4.02433 -1.49486 0
M  V30 3606 C 338.424 5.23723 -1.02711 0
M  V30 3607 O 338.647 5.7027 0.121716 0
M  V30 3608 O 337.581 5.7382 -1.81699 0
M  V30 3609 H 341.407 2.43113 -1.82015 0
M  V30 3610 H 338.992 1.15541 -0.947132 0
M  V30 3611 H 340.874 4.21189 -0.133392 0
M  V30 3612 H 339.549 3.19802 0.500817 0
M  V30 3613 H 338.456 3.27102 -1.81535 0
M  V30 3614 H 339.789 4.31317 -2.37121 0
M  V30 3615 N 341.441 0.965919 1.2453 0
M  V30 3616 C 342.371 0.513476 2.27784 0
M  V30 3617 C 343.352 -0.445974 1.6415 0
M  V30 3618 O 344.537 -0.342485 1.91156 0
M  V30 3619 C 341.667 -0.198839 3.4673 0
M  V30 3620 C 340.621 0.676456 4.2262 0
M  V30 3621 C 339.947 -0.167248 5.34438 0
M  V30 3622 C 341.247 1.96017 4.84123 0
M  V30 3623 H 342.941 1.3765 2.65881 0
M  V30 3624 H 340.487 0.663321 1.27813 0
M  V30 3625 H 342.44 -0.526567 4.18097 0
M  V30 3626 H 341.164 -1.0962 3.07654 0
M  V30 3627 H 339.823 0.98743 3.53052 0
M  V30 3628 H 339.471 -1.0647 4.91603 0
M  V30 3629 H 339.171 0.415181 5.86131 0
M  V30 3630 H 340.695 -0.489688 6.08633 0
M  V30 3631 H 342.109 1.69814 5.47573 0
M  V30 3632 H 340.506 2.48918 5.4604 0
M  V30 3633 H 341.576 2.65622 4.05676 0
M  V30 3634 N 342.919 -1.39368 0.735821 0
M  V30 3635 C 343.829 -2.34395 0.0979693 0
M  V30 3636 C 344.845 -1.58361 -0.720968 0
M  V30 3637 O 346.021 -1.90648 -0.649245 0
M  V30 3638 C 343.086 -3.37393 -0.797916 0
M  V30 3639 C 342.147 -4.29287 0.0333662 0
M  V30 3640 C 341.38 -5.27365 -0.819854 0
M  V30 3641 O 341.603 -5.31959 -2.05855 0
M  V30 3642 O 340.537 -6.01389 -0.248079 0
M  V30 3643 H 344.363 -2.90601 0.882315 0
M  V30 3644 H 341.948 -1.40909 0.4965 0
M  V30 3645 H 343.83 -4.00505 -1.31048 0
M  V30 3646 H 342.505 -2.83571 -1.56106 0
M  V30 3647 H 341.412 -3.69395 0.591475 0
M  V30 3648 H 342.745 -4.86317 0.758752 0
M  V30 3649 N 344.397 -0.483516 -1.5 0
M  V30 3650 C 345.307 0.309172 -2.32554 0
M  V30 3651 C 346.323 0.984159 -1.43493 0
M  V30 3652 O 347.499 0.969399 -1.76535 0
M  V30 3653 C 344.564 1.36979 -3.18493 0
M  V30 3654 C 343.625 0.710095 -4.23387 0
M  V30 3655 C 342.858 1.72018 -5.05218 0
M  V30 3656 O 343.081 2.94813 -4.88305 0
M  V30 3657 O 342.015 1.28515 -5.8802 0
M  V30 3658 H 345.841 -0.366064 -3.01486 0
M  V30 3659 H 343.426 -0.24514 -1.47375 0
M  V30 3660 H 345.308 1.98385 -3.71781 0
M  V30 3661 H 343.983 2.02828 -2.52275 0
M  V30 3662 H 342.89 0.0567539 -3.74057 0
M  V30 3663 H 344.223 0.0943557 -4.9211 0
M  V30 3664 N 345.875 1.56104 -0.216619 0
M  V30 3665 C 346.825 2.16703 0.708798 0
M  V30 3666 C 347.809 1.11392 1.16106 0
M  V30 3667 O 349.001 1.37395 1.11587 0
M  V30 3668 C 346.13 2.84666 1.91886 0
M  V30 3669 C 345.216 3.97195 1.48651 0
M  V30 3670 N 345.607 4.99959 0.766434 0
M  V30 3671 C 343.905 4.09193 1.77418 0
M  V30 3672 C 344.606 5.79126 0.546659 0
M  V30 3673 N 343.582 5.32315 1.10188 0
M  V30 3674 H 347.384 2.93516 0.150162 0
M  V30 3675 H 344.898 1.6239 -0.0176768 0
M  V30 3676 H 346.895 3.26486 2.59253 0
M  V30 3677 H 345.555 2.09347 2.48202 0
M  V30 3678 H 346.566 5.16197 0.419634 0
M  V30 3679 H 343.243 3.45021 2.35088 0
M  V30 3680 H 344.633 6.71895 -0.026103 0
M  V30 3681 N 347.353 -0.0568162 1.57498 0
M  V30 3682 C 348.316 -1.05038 2.03715 0
M  V30 3683 C 349.316 -1.30709 0.936577 0
M  V30 3684 O 350.506 -1.26178 1.20103 0
M  V30 3685 C 347.638 -2.39034 2.43055 0
M  V30 3686 H 348.831 -0.651715 2.92733 0
M  V30 3687 H 346.384 -0.302947 1.53336 0
M  V30 3688 H 347.119 -2.83703 1.57108 0
M  V30 3689 H 346.904 -2.21739 3.2338 0
M  V30 3690 H 348.394 -3.10421 2.79336 0
M  V30 3691 N 348.832 -1.54138 -0.328536 0
M  V30 3692 C 349.78 -1.83894 -1.42428 0
M  V30 3693 C 350.774 -0.710478 -1.53781 0
M  V30 3694 O 351.98 -0.894062 -1.56226 0
M  V30 3695 H 348.355 -0.582837 -0.475189 0
M  V30 3696 H 350.326 -2.75537 -1.14552 0
M  V30 3697 C 349.075 -2.07866 -2.78724 0
M  V30 3698 H 348.398 -2.94158 -2.7076 0
M  V30 3699 H 349.838 -2.32644 -3.54476 0
M  V30 3700 C 348.297 -0.868689 -3.25508 0
M  V30 3701 O 348.827 -0.0754908 -4.01629 0
M  V30 3702 N 347.033 -0.681711 -2.82491 0
M  V30 3703 H 346.58 -1.32838 -2.20708 0
M  V30 3704 H 346.538 0.126374 -3.14146 0
M  V30 3705 N 350.31 0.590341 -1.46126 0
M  V30 3706 C 351.258 1.72105 -1.5647 0
M  V30 3707 C 352.252 1.63756 -0.433612 0
M  V30 3708 O 353.458 1.69342 -0.610194 0
M  V30 3709 H 349.833 0.568889 -0.491802 0
M  V30 3710 H 351.804 1.6051 -2.51553 0
M  V30 3711 C 350.553 3.10493 -1.56491 0
M  V30 3712 H 349.876 3.17583 -2.4286 0
M  V30 3713 H 351.316 3.8939 -1.67785 0
M  V30 3714 C 349.775 3.3563 -0.292231 0
M  V30 3715 O 350.305 3.96875 0.620739 0
M  V30 3716 N 348.511 2.90026 -0.182523 0
M  V30 3717 H 348.058 2.40367 -0.926356 0
M  V30 3718 H 348.016 3.07218 0.668152 0
M  V30 3719 N 351.788 1.33704 0.83433 0
M  V30 3720 C 353.199 1.22813 1.4062 0
M  V30 3721 C 353.55 -0.151107 1.95617 0
M  V30 3722 O 352.675 -1.05092 1.89168 0
M  V30 3723 C 353.27 2.22355 2.55624 0
M  V30 3724 C 351.829 2.1529 3.08751 0
M  V30 3725 C 350.976 2.09589 1.8157 0
M  V30 3726 H 353.927 1.45236 0.639702 0
M  V30 3727 H 353.948 1.83391 3.33389 0
M  V30 3728 H 353.46 3.22728 2.15566 0
M  V30 3729 H 351.561 1.18235 3.53343 0
M  V30 3730 H 351.674 3.06038 3.68616 0
M  V30 3731 H 350.038 1.55134 2.02004 0
M  V30 3732 H 350.821 3.11777 1.43701 0
M  V30 3733 N 353.266 -1.05314 1.17247 0
M  V30 3734 C 354.513 -1.78293 0.960091 0
M  V30 3735 C 354.841 -1.87658 -0.51136 0
M  V30 3736 O 354.096 -1.3718 -1.39571 0
M  V30 3737 C 354.395 -3.2229 1.54479 0
M  V30 3738 C 354.061 -3.32987 3.04024 0
M  V30 3739 C 352.723 -3.35613 3.44844 0
M  V30 3740 C 355.075 -3.34102 4.00031 0
M  V30 3741 C 352.403 -3.36982 4.8027 0
M  V30 3742 C 354.755 -3.3701 5.35357 0
M  V30 3743 C 353.419 -3.37923 5.75642 0
M  V30 3744 H 352.689 -0.652422 0.351322 0
M  V30 3745 H 355.336 -1.23782 1.46117 0
M  V30 3746 H 353.641 -3.7972 0.965391 0
M  V30 3747 H 355.338 -3.77376 1.35603 0
M  V30 3748 H 351.928 -3.31655 2.71483 0
M  V30 3749 H 356.112 -3.31276 3.69554 0
M  V30 3750 H 351.368 -3.35999 5.10798 0
M  V30 3751 H 355.542 -3.36822 6.09528 0
M  V30 3752 H 353.169 -3.38738 6.80559 0
M  V30 3753 N 354.744 -0.972509 -1.24016 0
M  V30 3754 C 355.99 -0.637978 -1.92504 0
M  V30 3755 C 356.323 0.825383 -1.75787 0
M  V30 3756 O 355.598 1.59442 -1.11393 0
M  V30 3757 C 355.881 -1.01942 -3.45369 0
M  V30 3758 C 355.734 -2.53983 -3.71231 0
M  V30 3759 C 357.053 -0.55751 -4.36555 0
M  V30 3760 H 354.172 -0.233248 -0.699117 0
M  V30 3761 H 356.814 -1.21238 -1.46292 0
M  V30 3762 H 354.964 -0.530656 -3.84859 0
M  V30 3763 H 356.636 -3.10374 -3.41271 0
M  V30 3764 H 354.879 -2.96968 -3.16216 0
M  V30 3765 H 355.55 -2.75723 -4.78206 0
M  V30 3766 H 358.026 -0.977029 -4.04467 0
M  V30 3767 H 356.902 -0.85292 -5.42233 0
M  V30 3768 H 357.163 0.542328 -4.38761 0
M  V30 3769 N 356.222 1.38976 -0.743202 0
M  V30 3770 C 357.169 2.30544 -0.10861 0
M  V30 3771 C 358.139 1.49642 0.720869 0
M  V30 3772 O 359.324 1.78304 0.679142 0
M  V30 3773 C 356.464 3.36018 0.786496 0
M  V30 3774 C 355.577 4.31963 -0.0564849 0
M  V30 3775 C 354.712 5.24506 0.840657 0
M  V30 3776 C 353.751 6.121 -0.00658363 0
M  V30 3777 N 352.888 6.96973 0.846943 0
M  V30 3778 H 357.728 2.8424 -0.895088 0
M  V30 3779 H 355.265 1.3995 -0.453048 0
M  V30 3780 H 357.223 3.95768 1.31999 0
M  V30 3781 H 355.853 2.83758 1.53887 0
M  V30 3782 H 354.905 3.73763 -0.707492 0
M  V30 3783 H 356.217 4.93703 -0.711229 0
M  V30 3784 H 355.371 5.89322 1.4417 0
M  V30 3785 H 354.11 4.63107 1.52916 0
M  V30 3786 H 353.115 5.46289 -0.620366 0
M  V30 3787 H 354.34 6.75565 -0.691992 0
M  V30 3788 H 352.286 6.38133 1.52059 0
M  V30 3789 H 352.203 7.5559 0.248864 0
M  V30 3790 H 353.471 7.6621 1.43328 0
M  V30 3791 N 357.7 0.491464 1.49741 0
M  V30 3792 C 358.61 -0.296835 2.32715 0
M  V30 3793 C 359.626 -0.976536 1.44013 0
M  V30 3794 O 360.802 -0.960023 1.77047 0
M  V30 3795 C 357.867 -1.35288 3.19215 0
M  V30 3796 C 356.928 -0.687632 4.23757 0
M  V30 3797 C 356.161 -1.69336 5.06123 0
M  V30 3798 O 356.384 -2.92219 4.89861 0
M  V30 3799 O 355.318 -1.25394 5.88693 0
M  V30 3800 H 359.144 0.382048 3.01287 0
M  V30 3801 H 356.729 0.252953 1.47243 0
M  V30 3802 H 358.611 -1.96411 3.72828 0
M  V30 3803 H 357.286 -2.01487 2.53347 0
M  V30 3804 H 356.193 -0.0369159 3.74082 0
M  V30 3805 H 357.526 -0.0682566 4.92153 0
M  V30 3806 N 359.178 -1.55987 0.224894 0
M  V30 3807 C 360.427 -1.97566 -0.406273 0
M  V30 3808 C 360.74 -1.11569 -1.6066 0
M  V30 3809 O 361.946 -1.43062 -2.3075 0
M  V30 3810 C 360.402 -3.51474 -0.774207 0
M  V30 3811 C 360.01 -4.46179 0.403496 0
M  V30 3812 C 361.754 -4.01758 -1.37079 0
M  V30 3813 C 359.661 -5.91399 0.0129412 0
M  V30 3814 H 358.591 -0.737777 -0.155565 0
M  V30 3815 H 361.242 -1.80659 0.321635 0
M  V30 3816 H 359.624 -3.63994 -1.55963 0
M  V30 3817 H 360.798 -4.45409 1.18101 0
M  V30 3818 H 359.113 -4.06255 0.913536 0
M  V30 3819 H 361.71 -5.07756 -1.67596 0
M  V30 3820 H 362.053 -3.47805 -2.28773 0
M  V30 3821 H 362.586 -3.92475 -0.648733 0
M  V30 3822 H 359.325 -6.49341 0.896451 0
M  V30 3823 H 358.845 -5.95356 -0.728821 0
M  V30 3824 H 360.524 -6.45683 -0.412582 0
M  V30 3825 N 360.656 0.0484629 -1.57525 0
M  V30 3826 C 361.896 0.748196 -1.90214 0
M  V30 3827 C 362.26 1.73545 -0.821347 0
M  V30 3828 O 363.461 2.48201 -1.03198 0
M  V30 3829 C 361.732 1.41727 -3.28098 0
M  V30 3830 S 363.291 2.14884 -3.82584 0
M  V30 3831 H 360.109 0.248307 -0.666232 0
M  V30 3832 H 362.711 0.00343188 -1.955 0
M  V30 3833 H 361.415 0.685244 -4.04639 0
M  V30 3834 H 360.946 2.20099 -3.26068 0
M  V30 3835 H 362.961 3.41755 -3.59747 0
M  V30 3836 N 362.134 1.5431 0.320358 0
M  V30 3837 C 363.359 1.76954 1.08175 0
M  V30 3838 C 363.784 0.518193 1.80821 0
M  V30 3839 O 363.142 -0.530411 1.73368 0
M  V30 3840 C 363.19 2.96451 2.05303 0
M  V30 3841 O 362.294 2.68221 3.13259 0
M  V30 3842 H 361.635 0.586275 0.311733 0
M  V30 3843 H 364.165 2.01342 0.363676 0
M  V30 3844 H 364.175 3.23887 2.48116 0
M  V30 3845 H 362.85 3.87196 1.51829 0
M  V30 3846 H 361.427 2.51744 2.75099 0
M  V30 3847 N 363.613 -0.582584 1.46437 0
M  V30 3848 C 364.86 -1.34079 1.51753 0
M  V30 3849 C 365.188 -1.93762 0.169299 0
M  V30 3850 O 364.443 -1.76989 -0.835062 0
M  V30 3851 C 364.742 -2.48964 2.56421 0
M  V30 3852 C 364.408 -2.07273 4.00436 0
M  V30 3853 C 363.07 -1.95618 4.39644 0
M  V30 3854 C 365.422 -1.75111 4.90903 0
M  V30 3855 C 362.75 -1.5006 5.67185 0
M  V30 3856 C 365.102 -1.31032 6.18881 0
M  V30 3857 C 363.766 -1.17954 6.56996 0
M  V30 3858 H 363.036 -0.49063 0.555304 0
M  V30 3859 H 365.683 -0.656007 1.79913 0
M  V30 3860 H 363.988 -3.22889 2.21923 0
M  V30 3861 H 365.685 -3.07178 2.57765 0
M  V30 3862 H 362.275 -2.17279 3.69443 0
M  V30 3863 H 366.459 -1.83001 4.61329 0
M  V30 3864 H 361.715 -1.38577 5.95488 0
M  V30 3865 H 365.889 -1.052 6.88408 0
M  V30 3866 H 363.516 -0.824279 7.55718 0
M  V30 3867 N 365.091 -1.34144 -0.827227 0
M  V30 3868 C 366.34 -1.25602 -1.5782 0
M  V30 3869 C 366.653 0.173445 -1.94829 0
M  V30 3870 O 367.859 0.380984 -2.68814 0
M  V30 3871 C 366.315 -2.20151 -2.84713 0
M  V30 3872 C 365.923 -3.68331 -2.55021 0
M  V30 3873 C 367.667 -2.20508 -3.62735 0
M  V30 3874 C 365.574 -4.54762 -3.78082 0
M  V30 3875 H 364.504 -0.466573 -0.592306 0
M  V30 3876 H 367.155 -1.59283 -0.911116 0
M  V30 3877 H 365.537 -1.79417 -3.53023 0
M  V30 3878 H 366.711 -4.17577 -1.94849 0
M  V30 3879 H 365.026 -3.7038 -1.90283 0
M  V30 3880 H 367.623 -2.82306 -4.54101 0
M  V30 3881 H 367.966 -1.20322 -3.98533 0
M  V30 3882 H 368.499 -2.59664 -3.01362 0
M  V30 3883 H 365.238 -5.55867 -3.47407 0
M  V30 3884 H 364.758 -4.10254 -4.37552 0
M  V30 3885 H 366.437 -4.69153 -4.45538 0
M  V30 3886 N 366.569 1.04691 -1.17803 0
M  V30 3887 C 367.499 2.14494 -0.92275 0
M  V30 3888 C 368.48 1.69546 0.137179 0
M  V30 3889 O 369.665 1.94195 -0.0141108 0
M  V30 3890 C 366.795 3.44491 -0.440803 0
M  V30 3891 C 365.749 4.03031 -1.4405 0
M  V30 3892 C 365.075 5.28432 -0.81631 0
M  V30 3893 C 366.375 4.39932 -2.81527 0
M  V30 3894 H 368.069 2.36107 -1.84103 0
M  V30 3895 H 365.615 1.1347 -0.886599 0
M  V30 3896 H 367.568 4.2066 -0.249602 0
M  V30 3897 H 366.292 3.22546 0.513025 0
M  V30 3898 H 364.951 3.28937 -1.61853 0
M  V30 3899 H 364.599 5.02792 0.144511 0
M  V30 3900 H 364.299 5.68559 -1.48371 0
M  V30 3901 H 365.823 6.07284 -0.635496 0
M  V30 3902 H 367.237 5.07113 -2.67412 0
M  V30 3903 H 365.634 4.9109 -3.44892 0
M  V30 3904 H 366.704 3.50045 -3.35554 0
M  V30 3905 N 368.047 0.979072 1.23499 0
M  V30 3906 C 368.957 0.526431 2.28617 0
M  V30 3907 C 369.973 -0.418126 1.68901 0
M  V30 3908 O 371.149 -0.288372 1.99325 0
M  V30 3909 C 368.214 -0.165235 3.46306 0
M  V30 3910 C 367.275 0.82056 4.21385 0
M  V30 3911 C 366.508 0.161807 5.33455 0
M  V30 3912 O 366.731 -1.04742 5.60701 0
M  V30 3913 O 365.665 0.859708 5.95729 0
M  V30 3914 H 369.491 1.4006 2.69475 0
M  V30 3915 H 367.076 0.746643 1.29405 0
M  V30 3916 H 368.958 -0.553287 4.17752 0
M  V30 3917 H 367.633 -1.01419 3.07402 0
M  V30 3918 H 366.54 1.25929 3.52268 0
M  V30 3919 H 367.873 1.63828 4.64135 0
M  V30 3920 N 369.525 -1.3858 0.750561 0
M  V30 3921 C 370.75 -2.04997 0.314812 0
M  V30 3922 C 371.175 -1.56235 -1.04749 0
M  V30 3923 O 370.533 -0.712981 -1.66692 0
M  V30 3924 C 370.581 -3.58961 0.343415 0
M  V30 3925 O 369.685 -4.07025 -0.663628 0
M  V30 3926 H 369.026 -0.649081 0.139962 0
M  V30 3927 H 371.556 -1.77313 1.02084 0
M  V30 3928 H 371.566 -4.07542 0.193233 0
M  V30 3929 H 370.241 -3.93811 1.33738 0
M  V30 3930 H 368.818 -3.6982 -0.478307 0
M  V30 3931 N 371.003 -0.499398 -1.49478 0
M  V30 3932 C 372.228 0.044722 -2.07352 0
M  V30 3933 C 372.653 1.30207 -1.35749 0
M  V30 3934 O 372.011 1.76516 -0.413732 0
M  V30 3935 C 372.059 0.283013 -3.59488 0
M  V30 3936 O 371.163 1.35804 -3.89398 0
M  V30 3937 H 370.504 -0.0255147 -0.66351 0
M  V30 3938 H 373.034 -0.698561 -1.92305 0
M  V30 3939 H 373.044 0.515007 -4.04737 0
M  V30 3940 H 371.719 -0.635636 -4.11014 0
M  V30 3941 H 370.296 1.11113 -3.55961 0
M  V30 3942 N 372.481 1.55866 -0.233164 0
M  V30 3943 C 373.897 1.59133 0.121988 0
M  V30 3944 C 374.097 1.25016 1.58029 0
M  V30 3945 O 373.153 0.990922 2.32243 0
M  V30 3946 C 374.466 2.99932 -0.214792 0
M  V30 3947 C 376.014 3.12601 -0.157971 0
M  V30 3948 C 376.489 4.55597 -0.46859 0
M  V30 3949 N 377.98 4.61305 -0.418585 0
M  V30 3950 C 378.715 5.69903 -0.63227 0
M  V30 3951 N 378.211 6.86819 -0.90835 0
M  V30 3952 N 380.004 5.59264 -0.563913 0
M  V30 3953 H 372.155 1.76315 -1.18434 0
M  V30 3954 H 374.418 0.820093 -0.475553 0
M  V30 3955 H 374.124 3.29588 -1.22739 0
M  V30 3956 H 373.998 3.74327 0.464691 0
M  V30 3957 H 376.385 2.82735 0.845283 0
M  V30 3958 H 376.466 2.40511 -0.871102 0
M  V30 3959 H 376.11 4.86182 -1.46934 0
M  V30 3960 H 376.04 5.25928 0.265865 0
M  V30 3961 H 378.531 3.77297 -0.213368 0
M  V30 3962 H 378.844 7.65507 -1.05919 0
M  V30 3963 H 377.189 6.88536 -0.945673 0
M  V30 3964 H 380.38 4.66802 -0.348372 0
M  V30 3965 H 380.553 6.43831 -0.733847 0
M  V30 3966 N 373.959 -0.0401083 1.57549 0
M  V30 3967 C 375.207 -0.731677 1.8839 0
M  V30 3968 C 375.528 -1.76481 0.829425 0
M  V30 3969 O 374.798 -1.95411 -0.1383 0
M  V30 3970 H 373.378 -0.273225 0.695239 0
M  V30 3971 H 376.04 -0.00867725 1.94898 0
M  V30 3972 H 375.136 -1.22816 2.86919 0
M  V30 3973 N 375.437 -1.54477 -0.31217 0
M  V30 3974 C 376.683 -1.73483 -1.0503 0
M  V30 3975 C 377.016 -0.513125 -1.87298 0
M  V30 3976 O 376.291 0.489864 -1.8823 0
M  V30 3977 C 376.574 -3.01723 -1.96558 0
M  V30 3978 C 376.427 -4.3417 -1.17545 0
M  V30 3979 C 377.746 -3.25772 -2.95907 0
M  V30 3980 H 374.865 -0.631222 -0.380432 0
M  V30 3981 H 377.507 -1.87184 -0.325932 0
M  V30 3982 H 375.657 -2.90174 -2.58324 0
M  V30 3983 H 377.329 -4.5762 -0.581513 0
M  V30 3984 H 375.572 -4.31159 -0.477925 0
M  V30 3985 H 376.243 -5.20143 -1.84811 0
M  V30 3986 H 378.719 -3.36857 -2.44267 0
M  V30 3987 H 377.595 -4.16838 -3.57123 0
M  V30 3988 H 377.856 -2.43537 -3.68974 0
M  V30 3989 N 376.915 0.57481 -1.46744 0
M  V30 3990 C 377.878 1.66533 -1.57478 0
M  V30 3991 C 378.878 1.54338 -0.451263 0
M  V30 3992 O 380.068 1.58814 -0.715813 0
M  V30 3993 C 377.2 3.05999 -1.50259 0
M  V30 3994 H 378.393 1.58372 -2.54673 0
M  V30 3995 H 375.946 0.793301 -1.34672 0
M  V30 3996 H 376.681 3.19709 -0.543725 0
M  V30 3997 H 376.466 3.16259 -2.31781 0
M  V30 3998 H 377.956 3.8537 -1.60872 0
M  V30 3999 N 378.394 1.34581 0.820102 0
M  V30 4000 C 379.624 1.29991 1.6058 0
M  V30 4001 C 380.032 -0.127588 1.88769 0
M  V30 4002 O 379.375 -1.08595 1.48165 0
M  V30 4003 C 379.437 2.02548 2.9701 0
M  V30 4004 C 379.101 3.51794 2.91701 0
M  V30 4005 C 380.098 4.46647 2.66087 0
M  V30 4006 C 377.783 3.94249 3.11245 0
M  V30 4007 C 379.777 5.81929 2.60071 0
M  V30 4008 C 377.464 5.2963 3.04853 0
M  V30 4009 C 378.462 6.23282 2.793 0
M  V30 4010 O 378.15 7.56181 2.72847 0
M  V30 4011 H 377.882 0.448539 0.505756 0
M  V30 4012 H 380.436 1.77811 1.02822 0
M  V30 4013 H 378.666 1.49345 3.56697 0
M  V30 4014 H 380.355 1.91211 3.58041 0
M  V30 4015 H 381.121 4.15168 2.5072 0
M  V30 4016 H 377 3.21749 3.30149 0
M  V30 4017 H 380.544 6.54999 2.40046 0
M  V30 4018 H 376.441 5.60727 3.19774 0
M  V30 4019 H 377.209 7.6595 2.88553 0
M  V30 4020 N 379.872 -1.04064 1.18357 0
M  V30 4021 C 380.819 -2.12077 0.910603 0
M  V30 4022 C 381.789 -1.65421 -0.15 0
M  V30 4023 O 382.974 -1.90797 -0.0103614 0
M  V30 4024 C 380.114 -3.42252 0.442472 0
M  V30 4025 C 379.227 -4.0252 1.5685 0
M  V30 4026 C 378.362 -5.20657 1.05309 0
M  V30 4027 C 377.401 -5.72955 2.1538 0
M  V30 4028 N 376.538 -6.8238 1.65233 0
M  V30 4029 H 381.378 -2.34764 1.83548 0
M  V30 4030 H 378.915 -1.15157 0.915279 0
M  V30 4031 H 380.873 -4.16921 0.152534 0
M  V30 4032 H 379.503 -3.19712 -0.445428 0
M  V30 4033 H 378.555 -3.25178 1.97391 0
M  V30 4034 H 379.867 -4.37362 2.39824 0
M  V30 4035 H 379.021 -6.0244 0.717677 0
M  V30 4036 H 377.76 -4.87318 0.19293 0
M  V30 4037 H 376.765 -4.89793 2.49766 0
M  V30 4038 H 377.99 -6.08337 3.01832 0
M  V30 4039 H 375.936 -6.50917 0.815064 0
M  V30 4040 H 375.853 -7.16286 2.41805 0
M  V30 4041 H 377.121 -7.67788 1.34619 0
M  V30 4042 N 381.35 -0.985608 -1.22978 0
M  V30 4043 C 382.575 -0.675254 -1.961 0
M  V30 4044 C 383 0.752154 -1.72407 0
M  V30 4045 O 382.358 1.5131 -0.998751 0
M  V30 4046 C 382.406 -0.977899 -3.47087 0
M  V30 4047 O 381.51 -0.072685 -4.12336 0
M  V30 4048 H 380.851 -0.253443 -0.613728 0
M  V30 4049 H 383.381 -1.32061 -1.56272 0
M  V30 4050 H 383.391 -0.916739 -3.97567 0
M  V30 4051 H 382.066 -2.01807 -3.63657 0
M  V30 4052 H 380.643 -0.188703 -3.72422 0
M  V30 4053 N 382.828 1.3818 -0.7579 0
M  V30 4054 C 384.053 2.04827 -0.325679 0
M  V30 4055 C 384.478 1.56788 1.03919 0
M  V30 4056 O 383.836 0.721811 1.66312 0
M  V30 4057 C 383.884 3.58774 -0.362447 0
M  V30 4058 O 382.988 4.07372 0.642033 0
M  V30 4059 H 382.329 0.64833 -0.143402 0
M  V30 4060 H 384.859 1.7677 -1.03023 0
M  V30 4061 H 384.869 4.07434 -0.214844 0
M  V30 4062 H 383.544 3.93096 -1.35824 0
M  V30 4063 H 382.121 3.70068 0.458688 0
M  V30 4064 N 384.306 0.507319 1.49211 0
M  V30 4065 C 385.216 -0.272136 2.33016 0
M  V30 4066 C 386.232 -0.961206 1.45041 0
M  V30 4067 O 387.408 -0.941191 1.78055 0
M  V30 4068 C 384.473 -1.31895 3.20631 0
M  V30 4069 C 383.534 -0.642648 4.24463 0
M  V30 4070 C 382.767 -1.63959 5.07891 0
M  V30 4071 O 382.99 -2.87007 4.92933 0
M  V30 4072 O 381.924 -1.19143 5.8999 0
M  V30 4073 H 385.75 0.413982 3.00865 0
M  V30 4074 H 383.335 0.268556 1.46966 0
M  V30 4075 H 385.217 -1.92446 3.7489 0
M  V30 4076 H 383.892 -1.98788 2.5547 0
M  V30 4077 H 382.799 0.00276252 3.741 0
M  V30 4078 H 384.132 -0.0160534 4.92197 0
M  V30 4079 N 385.784 -1.5574 0.241426 0
M  V30 4080 C 387.014 -2.02913 -0.38857 0
M  V30 4081 C 387.422 -1.12014 -1.52478 0
M  V30 4082 O 386.765 -0.125903 -1.83268 0
M  V30 4083 C 386.827 -3.4636 -0.963075 0
M  V30 4084 C 386.491 -4.56982 0.0401916 0
M  V30 4085 C 387.488 -5.12941 0.847766 0
M  V30 4086 C 385.173 -5.0203 0.164699 0
M  V30 4087 C 387.167 -6.12437 1.76636 0
M  V30 4088 C 384.854 -6.01358 1.0868 0
M  V30 4089 C 385.852 -6.5644 1.88616 0
M  V30 4090 O 385.54 -7.53831 2.79273 0
M  V30 4091 H 385.272 -0.668983 -0.0971452 0
M  V30 4092 H 387.826 -2.02198 0.361248 0
M  V30 4093 H 386.056 -3.44206 -1.76235 0
M  V30 4094 H 387.745 -3.77065 -1.50257 0
M  V30 4095 H 388.511 -4.78974 0.762133 0
M  V30 4096 H 384.39 -4.58824 -0.447411 0
M  V30 4097 H 387.934 -6.55355 2.39071 0
M  V30 4098 H 383.831 -6.34746 1.17338 0
M  V30 4099 H 384.599 -7.71428 2.73572 0
M  V30 4100 N 387.262 0.0317525 -1.57568 0
M  V30 4101 C 388.487 0.738664 -1.938 0
M  V30 4102 C 388.912 1.68242 -0.841208 0
M  V30 4103 O 388.27 1.80157 0.203267 0
M  V30 4104 C 388.318 1.47417 -3.29091 0
M  V30 4105 O 387.422 2.5872 -3.2115 0
M  V30 4106 H 386.763 0.198856 -0.633524 0
M  V30 4107 H 389.293 -0.0119713 -2.04596 0
M  V30 4108 H 389.303 1.84468 -3.63917 0
M  V30 4109 H 387.978 0.781988 -4.08482 0
M  V30 4110 H 386.555 2.24231 -2.97951 0
M  V30 4111 N 388.74 1.54641 0.303973 0
M  V30 4112 C 389.965 1.78092 1.06292 0
M  V30 4113 C 390.39 0.537342 1.80262 0
M  V30 4114 O 389.748 -0.511993 1.7392 0
M  V30 4115 C 389.796 2.98612 2.02147 0
M  V30 4116 O 388.9 2.71528 3.10397 0
M  V30 4117 H 388.241 0.589548 0.305497 0
M  V30 4118 H 390.771 2.01716 0.3423 0
M  V30 4119 H 390.781 3.265 2.44667 0
M  V30 4120 H 389.456 3.88785 1.47714 0
M  V30 4121 H 388.033 2.54648 2.72413 0
M  V30 4122 N 390.218 -0.567019 1.47046 0
M  V30 4123 C 391.128 -1.70247 1.6141 0
M  V30 4124 C 392.144 -1.66746 0.497157 0
M  V30 4125 O 393.32 -1.86371 0.763389 0
M  V30 4126 C 390.385 -3.06756 1.61561 0
M  V30 4127 C 389.446 -3.21399 2.84607 0
M  V30 4128 C 388.679 -4.51396 2.84741 0
M  V30 4129 O 388.902 -5.36255 1.94388 0
M  V30 4130 O 387.836 -4.69621 3.76483 0
M  V30 4131 H 391.662 -1.61073 2.57467 0
M  V30 4132 H 389.247 -0.735894 1.30019 0
M  V30 4133 H 391.129 -3.8801 1.64396 0
M  V30 4134 H 389.804 -3.16333 0.686684 0
M  V30 4135 H 388.711 -2.39579 2.8732 0
M  V30 4136 H 390.044 -3.16721 3.76761 0
M  V30 4137 N 391.696 -1.35014 -0.812953 0
M  V30 4138 C 392.606 -1.2951 -1.95613 0
M  V30 4139 C 393.622 -0.20107 -1.72834 0
M  V30 4140 O 394.798 -0.42932 -1.96771 0
M  V30 4141 C 391.863 -1.06033 -3.30088 0
M  V30 4142 C 390.924 -2.24688 -3.65805 0
M  V30 4143 C 390.157 -2.02322 -4.93864 0
M  V30 4144 O 390.38 -0.986464 -5.61805 0
M  V30 4145 O 389.314 -2.89525 -5.27692 0
M  V30 4146 H 393.14 -2.25705 -2.03202 0
M  V30 4147 H 390.725 -1.15321 -0.949811 0
M  V30 4148 H 392.607 -0.94763 -4.10607 0
M  V30 4149 H 391.282 -0.128852 -3.23443 0
M  V30 4150 H 390.189 -2.41521 -2.85689 0
M  V30 4151 H 391.522 -3.16261 -3.77147 0
M  V30 4152 N 393.175 1.03435 -1.18907 0
M  V30 4153 C 394.122 2.11591 -0.921837 0
M  V30 4154 C 395.092 1.65499 0.141226 0
M  V30 4155 O 396.277 1.908 0.000242829 0
M  V30 4156 C 393.417 3.42012 -0.460616 0
M  V30 4157 C 392.53 4.01682 -1.58982 0
M  V30 4158 C 391.665 5.20091 -1.08069 0
M  V30 4159 C 390.704 5.71805 -2.18416 0
M  V30 4160 N 389.841 6.81494 -1.68849 0
M  V30 4161 H 394.681 2.33787 -1.8479 0
M  V30 4162 H 392.218 1.1467 -0.921373 0
M  V30 4163 H 394.176 4.16834 -0.174642 0
M  V30 4164 H 392.806 3.19944 0.428467 0
M  V30 4165 H 391.858 3.24127 -1.99113 0
M  V30 4166 H 393.17 4.36084 -2.4214 0
M  V30 4167 H 392.324 6.02051 -0.749615 0
M  V30 4168 H 391.063 4.87209 -0.218771 0
M  V30 4169 H 390.068 4.88461 -2.5236 0
M  V30 4170 H 391.293 6.06728 -3.05054 0
M  V30 4171 H 389.239 6.50475 -0.849572 0
M  V30 4172 H 389.156 7.14994 -2.45601 0
M  V30 4173 H 390.424 7.67063 -1.38689 0
M  V30 4174 N 394.653 0.992116 1.22453 0
M  V30 4175 C 395.585 0.500024 2.23679 0
M  V30 4176 C 396.598 -0.404463 1.57696 0
M  V30 4177 O 397.787 -0.206722 1.77299 0
M  V30 4178 C 394.887 -0.294711 3.37616 0
M  V30 4179 C 394.06 0.605723 4.33186 0
M  V30 4180 C 393.119 -0.13717 5.26021 0
M  V30 4181 O 392.145 0.477164 5.67196 0
M  V30 4182 N 393.347 -1.4197 5.62872 0
M  V30 4183 H 396.112 1.37045 2.66531 0
M  V30 4184 H 393.673 0.866741 1.36745 0
M  V30 4185 H 395.665 -0.800329 3.96707 0
M  V30 4186 H 394.235 -1.06623 2.93854 0
M  V30 4187 H 393.455 1.29202 3.72425 0
M  V30 4188 H 394.743 1.21896 4.93983 0
M  V30 4189 H 394.141 -1.94015 5.31389 0
M  V30 4190 H 392.698 -1.87052 6.24383 0
M  V30 4191 N 396.131 -1.37776 0.765217 0
M  V30 4192 C 397.041 -2.34135 0.147666 0
M  V30 4193 C 398.057 -1.59854 -0.687215 0
M  V30 4194 O 399.233 -1.91983 -0.608659 0
M  V30 4195 C 396.298 -3.3901 -0.72617 0
M  V30 4196 C 395.359 -4.2912 0.124417 0
M  V30 4197 C 394.592 -5.28986 -0.707807 0
M  V30 4198 O 394.815 -5.36205 -1.94525 0
M  V30 4199 O 393.749 -6.01779 -0.12046 0
M  V30 4200 H 397.575 -2.88664 0.943758 0
M  V30 4201 H 395.16 -1.39824 0.526277 0
M  V30 4202 H 397.042 -4.03195 -1.22524 0
M  V30 4203 H 395.717 -2.86819 -1.50056 0
M  V30 4204 H 394.624 -3.68057 0.669696 0
M  V30 4205 H 395.957 -4.84598 0.861736 0
M  V30 4206 N 397.609 -0.515225 -1.4894 0
M  V30 4207 C 398.519 0.259774 -2.33157 0
M  V30 4208 C 399.535 0.953501 -1.45548 0
M  V30 4209 O 400.711 0.931735 -1.78552 0
M  V30 4210 C 397.776 1.30193 -3.21326 0
M  V30 4211 C 396.837 0.620129 -4.24797 0
M  V30 4212 C 396.07 1.61263 -5.08753 0
M  V30 4213 O 396.293 2.84389 -4.94448 0
M  V30 4214 O 395.227 1.16013 -5.90614 0
M  V30 4215 H 399.053 -0.429932 -3.00641 0
M  V30 4216 H 396.638 -0.276346 -1.46822 0
M  V30 4217 H 398.52 1.90455 -3.75905 0
M  V30 4218 H 397.195 1.97431 -2.56521 0
M  V30 4219 H 396.102 -0.0226019 -3.74093 0
M  V30 4220 H 397.435 -0.0100493 -4.92199 0
M  V30 4221 O 399.126 1.56684 -0.391475 0
M  V30 4222 H 399.817 1.93093 0.153177 0
M  V30 END ATOM
M  V30 BEGIN BOND
M  V30 END BOND
M  V30 END CTAB
M  END
$$$$
