drugbank_target|Q1LCS4 3-hydroxyanthranilate 3,4-dioxygenase (DB04598)
 OpenBabel12092120303D

  0  0  0     0  0            999 V3000
M  V30 BEGIN CTAB
M  V30 COUNTS 2762 2809 0 0 0
M  V30 BEGIN ATOM
M  V30 1 H -0.908 1.98254 -0.117106 0
M  V30 2 N 0 1.576 0 0
M  V30 3 C 0.933 2.03868 1.02534 0
M  V30 4 C 1.911 0.928543 1.3348 0
M  V30 5 O 3.095 1.19667 1.45644 0
M  V30 6 C 0.222 2.43627 2.35294 0
M  V30 7 C -0.732 3.65373 2.2001 0
M  V30 8 S 0.101 5.13292 1.52614 0
M  V30 9 C 1.257 5.56322 2.86805 0
M  V30 10 H 1.49 2.90518 0.631377 0
M  V30 11 H -0.977 1.52953 0.210867 0
M  V30 12 H 0.981 2.67203 3.11629 0
M  V30 13 H -0.358 1.57376 2.7183 0
M  V30 14 H -1.165 3.90944 3.18086 0
M  V30 15 H -1.563 3.418 1.51819 0
M  V30 16 H 0.729 5.58782 3.83104 0
M  V30 17 H 1.672 6.56266 2.65933 0
M  V30 18 H 2.08 4.83886 2.90714 0
M  V30 19 N 1.4781 -0.272755 1.55222 0
M  V30 20 C 2.4081 -1.34136 1.91127 0
M  V30 21 C 3.3891 -1.51513 0.773168 0
M  V30 22 O 4.5741 -1.64552 1.03132 0
M  V30 23 C 1.7041 -2.70083 2.1834 0
M  V30 24 C 0.6581 -2.67437 3.34158 0
M  V30 25 C -0.0159 -4.06938 3.46851 0
M  V30 26 C 1.2841 -2.26686 4.70543 0
M  V30 27 H 2.9781 -1.04333 2.80633 0
M  V30 28 H 0.5241 -0.500454 1.35024 0
M  V30 29 H 2.4771 -3.44952 2.42046 0
M  V30 30 H 1.2011 -3.01469 1.25634 0
M  V30 31 H -0.1399 -1.95026 3.1042 0
M  V30 32 H -0.4919 -4.35547 2.51611 0
M  V30 33 H -0.7919 -4.06062 4.2472 0
M  V30 34 H 0.7321 -4.83545 3.72849 0
M  V30 35 H 2.1461 -2.91277 4.93792 0
M  V30 36 H 0.5431 -2.36971 5.5133 0
M  V30 37 H 1.6131 -1.21818 4.69349 0
M  V30 38 N 2.9562 -1.48159 -0.537278 0
M  V30 39 C 4.1842 -1.59454 -1.31841 0
M  V30 40 C 4.5992 -0.252065 -1.8711 0
M  V30 41 O 3.9562 0.757621 -1.66031 0
M  V30 42 C 4.0072 -2.63546 -2.47439 0
M  V30 43 O 3.7282 -3.92583 -1.94449 0
M  V30 44 C 5.2292 -2.85212 -3.39366 0
M  V30 45 H 2.4492 -0.53785 -0.401196 0
M  V30 46 H 4.9932 -1.93932 -0.648891 0
M  V30 47 H 3.1482 -2.31946 -3.1029 0
M  V30 48 H 3.5622 -4.49629 -2.70063 0
M  V30 49 H 5.0362 -3.61863 -4.16844 0
M  V30 50 H 5.5132 -1.93765 -3.94147 0
M  V30 51 H 6.1192 -3.18086 -2.82314 0
M  V30 52 N 4.4343 0.785586 -1.36625 0
M  V30 53 C 5.6643 1.5722 -1.34036 0
M  V30 54 C 6.0723 1.89033 0.0795062 0
M  V30 55 O 5.4153 1.50881 1.04789 0
M  V30 56 C 5.4773 2.91759 -2.10041 0
M  V30 57 C 5.1413 2.82654 -3.59104 0
M  V30 58 C 6.1383 2.54634 -4.53274 0
M  V30 59 C 3.8233 3.01111 -4.02042 0
M  V30 60 C 5.8173 2.45177 -5.88359 0
M  V30 61 C 3.5043 2.91276 -5.37216 0
M  V30 62 C 4.5023 2.63348 -6.30188 0
M  V30 63 O 4.1903 2.53514 -7.6288 0
M  V30 64 H 3.9223 0.494177 -0.461265 0
M  V30 65 H 6.4763 0.982632 -1.8037 0
M  V30 66 H 4.7063 3.52781 -1.58375 0
M  V30 67 H 6.3953 3.53059 -2.00261 0
M  V30 68 H 7.1613 2.40073 -4.21414 0
M  V30 69 H 3.0403 3.21854 -3.30047 0
M  V30 70 H 6.5843 2.23299 -6.60896 0
M  V30 71 H 2.4813 3.054 -5.68684 0
M  V30 72 H 3.2493 2.68967 -7.73045 0
M  V30 73 N 5.9124 1.20967 1.01018 0
M  V30 74 C 7.1604 1.02172 1.74371 0
M  V30 75 C 7.4814 -0.446414 1.89821 0
M  V30 76 O 6.7514 -1.32234 1.44537 0
M  V30 77 H 5.3314 0.375066 0.646014 0
M  V30 78 H 7.9934 1.52187 1.21758 0
M  V30 79 H 7.0894 1.48538 2.74487 0
M  V30 80 N 7.3905 -1.2043 1.01659 0
M  V30 81 C 8.3535 -2.21433 0.591616 0
M  V30 82 C 9.3535 -1.57203 -0.338226 0
M  V30 83 O 10.5435 -1.73737 -0.126918 0
M  V30 84 C 7.6755 -3.40628 -0.136058 0
M  V30 85 H 8.8685 -2.60545 1.48514 0
M  V30 86 H 6.4215 -1.33893 0.806379 0
M  V30 87 H 7.1565 -3.07019 -1.04449 0
M  V30 88 H 6.9415 -3.88475 0.531917 0
M  V30 89 H 8.4315 -4.15475 -0.420735 0
M  V30 90 N 8.8686 -0.792821 -1.36206 0
M  V30 91 C 10.2796 -0.429513 -1.81692 0
M  V30 92 C 10.6306 1.04695 -1.65932 0
M  V30 93 O 9.7556 1.81256 -1.18218 0
M  V30 94 C 10.3506 -0.772831 -3.29868 0
M  V30 95 C 8.9096 -0.462307 -3.7355 0
M  V30 96 C 8.0566 -1.00569 -2.5842 0
M  V30 97 H 11.0076 -0.985672 -1.24379 0
M  V30 98 H 11.0286 -0.0651928 -3.80444 0
M  V30 99 H 10.5406 -1.84747 -3.41307 0
M  V30 100 H 8.6416 0.604158 -3.67669 0
M  V30 101 H 8.7546 -0.985299 -4.68859 0
M  V30 102 H 7.1186 -0.428734 -2.51066 0
M  V30 103 H 7.9016 -2.08616 -2.72643 0
M  V30 104 N 10.3467 1.47872 -0.545128 0
M  V30 105 C 11.5937 2.02493 -0.0165858 0
M  V30 106 C 11.9217 1.42073 1.32836 0
M  V30 107 O 11.1767 0.561459 1.87473 0
M  V30 108 C 11.4757 3.57131 0.13867 0
M  V30 109 C 11.1417 4.36411 -1.13384 0
M  V30 110 C 9.8037 4.57792 -1.48256 0
M  V30 111 C 12.1557 4.82223 -1.97764 0
M  V30 112 C 9.4837 5.22233 -2.67376 0
M  V30 113 C 11.8357 5.47977 -3.16076 0
M  V30 114 C 10.4997 5.67593 -3.51275 0
M  V30 115 H 9.7697 0.740975 -0.00606918 0
M  V30 116 H 12.4167 1.77683 -0.714207 0
M  V30 117 H 10.7217 3.80865 0.919172 0
M  V30 118 H 12.4187 3.97031 0.562782 0
M  V30 119 H 9.0087 4.2004 -0.852297 0
M  V30 120 H 13.1927 4.65493 -1.72132 0
M  V30 121 H 8.4487 5.35616 -2.94831 0
M  V30 122 H 12.6227 5.8244 -3.81755 0
M  V30 123 H 10.2497 6.17298 -4.43675 0
M  V30 124 N 11.8248 0.280983 1.55075 0
M  V30 125 C 12.7728 -0.619864 2.24188 0
M  V30 126 C 13.7668 -1.15315 1.24092 0
M  V30 127 O 14.9728 -1.1061 1.42005 0
M  V30 128 H 11.3478 -0.218459 0.719569 0
M  V30 129 H 13.3188 -0.0141831 2.98397 0
M  V30 130 C 12.0678 -1.7899 2.98091 0
M  V30 131 H 11.3908 -1.38874 3.74905 0
M  V30 132 H 12.8308 -2.39672 3.49762 0
M  V30 133 C 11.2898 -2.68192 2.03899 0
M  V30 134 O 11.8198 -3.6872 1.594 0
M  V30 135 N 10.0258 -2.35488 1.70275 0
M  V30 136 H 9.5728 -1.53787 2.06658 0
M  V30 137 H 9.5308 -2.95442 1.07524 0
M  V30 138 N 13.3029 -1.57598 0.00835791 0
M  V30 139 C 14.5499 -1.90928 -0.674732 0
M  V30 140 C 14.8779 -0.88277 -1.73313 0
M  V30 141 O 14.1329 0.111294 -1.95383 0
M  V30 142 C 14.4319 -3.3101 -1.34787 0
M  V30 143 C 14.0979 -4.48922 -0.421861 0
M  V30 144 C 12.7599 -4.8091 -0.166927 0
M  V30 145 C 15.1119 -5.20755 0.215211 0
M  V30 146 C 12.4399 -5.821 0.733232 0
M  V30 147 C 14.7919 -6.22905 1.1033 0
M  V30 148 C 13.4559 -6.53346 1.36733 0
M  V30 149 H 12.7259 -0.698656 -0.246902 0
M  V30 150 H 15.3729 -1.91387 0.0656779 0
M  V30 151 H 13.6779 -3.26714 -2.16253 0
M  V30 152 H 15.3749 -3.54061 -1.8826 0
M  V30 153 H 11.9649 -4.23934 -0.630729 0
M  V30 154 H 16.1489 -4.9629 0.0312829 0
M  V30 155 H 11.4049 -6.04042 0.945712 0
M  V30 156 H 15.5789 -6.77694 1.60325 0
M  V30 157 H 13.2059 -7.31573 2.06652 0
M  V30 158 N 14.781 0.264519 -1.55364 0
M  V30 159 C 16.192 0.834936 -1.6699 0
M  V30 160 C 16.543 1.86718 -0.602552 0
M  V30 161 O 15.668 2.14899 0.254425 0
M  V30 162 C 16.263 1.5212 -3.02729 0
M  V30 163 C 14.822 2.03954 -3.16354 0
M  V30 164 C 13.969 0.884498 -2.62815 0
M  V30 165 H 16.92 0.0406869 -1.58648 0
M  V30 166 H 16.941 2.38853 -2.96191 0
M  V30 167 H 16.453 0.769668 -3.80392 0
M  V30 168 H 14.554 2.82041 -2.43482 0
M  V30 169 H 14.667 2.24902 -4.23032 0
M  V30 170 H 13.031 1.2802 -2.20188 0
M  V30 171 H 13.814 0.14634 -3.42988 0
M  V30 172 N 16.2591 1.48442 0.529413 0
M  V30 173 C 17.6751 1.34575 0.858004 0
M  V30 174 C 17.8751 0.3572 1.98309 0
M  V30 175 O 16.9311 -0.221379 2.51528 0
M  V30 176 C 18.2441 2.74617 1.22499 0
M  V30 177 C 19.7921 2.83109 1.33484 0
M  V30 178 C 20.2671 4.23854 1.73526 0
M  V30 179 N 21.7581 4.2653 1.80628 0
M  V30 180 C 22.4931 5.32372 2.12997 0
M  V30 181 N 21.9891 6.48491 2.43786 0
M  V30 182 N 23.7821 5.19766 2.14008 0
M  V30 183 H 15.9331 2.1133 -0.212925 0
M  V30 184 H 18.1961 0.947439 -0.0326199 0
M  V30 185 H 17.9021 3.4852 0.471905 0
M  V30 186 H 17.7761 3.08177 2.17501 0
M  V30 187 H 20.1631 2.09462 2.0787 0
M  V30 188 H 20.2441 2.53168 0.366027 0
M  V30 189 H 19.8881 4.98018 0.997013 0
M  V30 190 H 19.8181 4.5124 2.71459 0
M  V30 191 H 22.3091 3.42772 1.59108 0
M  V30 192 H 22.6221 7.24993 2.67592 0
M  V30 193 H 20.9671 6.51765 2.41304 0
M  V30 194 H 24.1581 4.28066 1.89412 0
M  V30 195 H 24.3311 6.02354 2.38902 0
M  V30 196 N 17.7372 -0.778329 1.37039 0
M  V30 197 C 18.9832 -1.53817 1.33086 0
M  V30 198 C 19.3382 -1.92208 -0.0860346 0
M  V30 199 O 18.6312 -1.60713 -1.04316 0
M  V30 200 C 18.8252 -2.81845 2.19768 0
M  V30 201 C 18.6542 -2.55967 3.69744 0
M  V30 202 C 17.4242 -2.50428 4.38878 0
M  V30 203 C 19.6222 -2.2441 4.62758 0
M  V30 204 N 17.6042 -2.16564 5.74433 0
M  V30 205 C 18.9752 -2.0063 5.86641 0
M  V30 206 C 21.0302 -2.1051 4.5121 0
M  V30 207 C 19.7332 -1.64354 7.00272 0
M  V30 208 C 21.7592 -1.75634 5.64718 0
M  V30 209 C 21.1212 -1.52709 6.87648 0
M  V30 210 H 17.2202 -0.563434 0.542279 0
M  V30 211 H 19.8042 -0.908617 1.72198 0
M  V30 212 H 17.9752 -3.42649 1.82883 0
M  V30 213 H 19.7072 -3.47682 2.07122 0
M  V30 214 H 16.4622 -2.66056 3.91805 0
M  V30 215 H 16.8862 -2.02348 6.46053 0
M  V30 216 H 21.5282 -2.26919 3.56746 0
M  V30 217 H 19.2462 -1.46683 7.94676 0
M  V30 218 H 22.8322 -1.65546 5.57751 0
M  V30 219 H 21.7122 -1.2612 7.73992 0
M  V30 220 N 19.2153 -1.21501 -1.00376 0
M  V30 221 C 20.4643 -1.02718 -1.73586 0
M  V30 222 C 20.7773 0.439589 -1.90596 0
M  V30 223 O 21.9833 0.746848 -2.61026 0
M  V30 224 C 20.4393 -1.78929 -3.1227 0
M  V30 225 C 20.0473 -3.29783 -3.03228 0
M  V30 226 C 21.7913 -1.68557 -3.89601 0
M  V30 227 C 19.6983 -3.98479 -4.36999 0
M  V30 228 H 18.6283 -0.380733 -0.650814 0
M  V30 229 H 21.2793 -1.45248 -1.1214 0
M  V30 230 H 19.6613 -1.29192 -3.74333 0
M  V30 231 H 20.8353 -3.86832 -2.50395 0
M  V30 232 H 19.1503 -3.40711 -2.39385 0
M  V30 233 H 21.7473 -2.17211 -4.88593 0
M  V30 234 H 22.0903 -0.644021 -4.11288 0
M  V30 235 H 22.6233 -2.15778 -3.34193 0
M  V30 236 H 19.3623 -5.02841 -4.20513 0
M  V30 237 H 18.8823 -3.46219 -4.89788 0
M  V30 238 H 20.5613 -4.03462 -5.05794 0
M  V30 239 N 20.6934 1.19889 -1.02296 0
M  V30 240 C 21.9704 1.85148 -0.630832 0
M  V30 241 C 22.3504 1.91385 0.890782 0
M  V30 242 O 21.6984 1.42642 1.78509 0
M  V30 243 C 21.9084 3.24442 -1.28602 0
M  V30 244 C 23.2564 4.00663 -1.4055 0
M  V30 245 O 24.2804 3.33818 -1.24273 0
M  V30 246 O 23.1394 5.20387 -1.66913 0
M  V30 247 H 20.2334 0.797613 -0.218499 0
M  V30 248 H 22.7794 1.27427 -1.12074 0
M  V30 249 H 21.5514 3.14704 -2.32545 0
M  V30 250 H 21.1744 3.89802 -0.7836 0
M  V30 251 N 22.1715 0.800033 1.35784 0
M  V30 252 C 23.0815 0.207204 2.33683 0
M  V30 253 C 24.0975 -0.64631 1.61551 0
M  V30 254 O 25.2735 -0.559604 1.93469 0
M  V30 255 C 22.3385 -0.639659 3.40748 0
M  V30 256 C 21.3995 0.233585 4.28664 0
M  V30 257 C 20.6325 -0.572954 5.30616 0
M  V30 258 O 20.8555 -1.80816 5.40982 0
M  V30 259 O 19.7895 0.0327285 6.01891 0
M  V30 260 H 23.6155 1.01692 2.86169 0
M  V30 261 H 21.2005 0.561691 1.38439 0
M  V30 262 H 23.0825 -1.12223 4.06182 0
M  V30 263 H 21.7575 -1.42708 2.90544 0
M  V30 264 H 20.6645 0.763147 3.66233 0
M  V30 265 H 21.9975 0.984784 4.82248 0
M  V30 266 N 23.6496 -1.47581 0.552962 0
M  V30 267 C 24.5996 -2.26961 -0.217423 0
M  V30 268 C 25.5836 -1.34099 -0.889168 0
M  V30 269 O 26.7756 -1.58483 -0.788176 0
M  V30 270 C 23.9046 -3.19756 -1.24944 0
M  V30 271 C 22.9906 -4.20097 -0.581327 0
M  V30 272 N 23.3816 -5.04614 0.346171 0
M  V30 273 C 21.6796 -4.38099 -0.835767 0
M  V30 274 C 22.3806 -5.77052 0.733854 0
M  V30 275 N 21.3566 -5.43526 0.0896567 0
M  V30 276 H 25.1586 -2.89688 0.495761 0
M  V30 277 H 22.6726 -1.58068 0.372597 0
M  V30 278 H 24.6696 -3.75305 -1.81527 0
M  V30 279 H 23.3296 -2.58585 -1.96376 0
M  V30 280 H 24.3406 -5.12869 0.720098 0
M  V30 281 H 21.0176 -3.88102 -1.53892 0
M  V30 282 H 22.4076 -6.5504 1.49574 0
M  V30 283 N 25.1277 -0.289203 -1.54924 0
M  V30 284 C 26.0907 0.579144 -2.21762 0
M  V30 285 C 27.0907 1.07047 -1.1999 0
M  V30 286 O 28.2807 0.968384 -1.44803 0
M  V30 287 C 25.4127 1.80055 -2.8947 0
M  V30 288 H 26.6057 -0.00464908 -2.999 0
M  V30 289 H 24.1587 -0.0399306 -1.56249 0
M  V30 290 H 24.8937 2.42449 -2.15381 0
M  V30 291 H 24.6787 1.45602 -3.64064 0
M  V30 292 H 26.1687 2.41773 -3.40493 0
M  V30 293 N 26.6058 1.57591 -0.0167156 0
M  V30 294 C 27.5558 2.05953 0.978137 0
M  V30 295 C 28.5398 0.957532 1.29306 0
M  V30 296 O 29.7318 1.22119 1.28125 0
M  V30 297 C 26.8608 2.58006 2.26468 0
M  V30 298 C 25.9468 3.75113 1.97867 0
M  V30 299 N 26.3378 4.86187 1.39486 0
M  V30 300 C 24.6358 3.83363 2.27924 0
M  V30 301 C 25.3368 5.67502 1.27735 0
M  V30 302 N 24.3128 5.14023 1.76866 0
M  V30 303 H 28.1148 2.89236 0.521522 0
M  V30 304 H 25.6288 1.61301 0.188596 0
M  V30 305 H 27.6258 2.90937 2.98599 0
M  V30 306 H 26.2858 1.76148 2.72767 0
M  V30 307 H 27.2968 5.06695 1.07147 0
M  V30 308 H 23.9738 3.1239 2.76982 0
M  V30 309 H 25.3638 6.66791 0.826978 0
M  V30 310 N 28.0839 -0.256276 1.55502 0
M  V30 311 C 29.0139 -1.32102 1.92539 0
M  V30 312 C 29.9949 -1.50684 0.789194 0
M  V30 313 O 31.1799 -1.63449 1.04872 0
M  V30 314 C 28.3099 -2.67752 2.21192 0
M  V30 315 C 27.2639 -2.63878 3.36975 0
M  V30 316 C 26.5899 -4.03236 3.51147 0
M  V30 317 C 27.8899 -2.21682 4.72921 0
M  V30 318 H 29.5839 -1.01351 2.81724 0
M  V30 319 H 27.1299 -0.486105 1.35547 0
M  V30 320 H 29.0829 -3.42365 2.45691 0
M  V30 321 H 27.8069 -3.0012 1.28824 0
M  V30 322 H 26.4659 -1.91722 3.12471 0
M  V30 323 H 26.1139 -4.32854 2.56216 0
M  V30 324 H 25.8139 -4.01535 4.29003 0
M  V30 325 H 27.3379 -4.79563 3.77957 0
M  V30 326 H 28.7519 -2.86023 4.96854 0
M  V30 327 H 27.1489 -2.3111 5.53812 0
M  V30 328 H 28.2189 -1.16833 4.70615 0
M  V30 329 N 29.562 -1.4872 -0.521534 0
M  V30 330 C 30.492 -1.66771 -1.63431 0
M  V30 331 C 31.473 -0.516499 -1.62069 0
M  V30 332 O 32.658 -0.750013 -1.79132 0
M  V30 333 C 29.788 -1.71515 -3.01993 0
M  V30 334 C 28.742 -2.86222 -3.18216 0
M  V30 335 C 28.068 -2.76061 -4.57924 0
M  V30 336 C 29.368 -4.27419 -3.00184 0
M  V30 337 H 31.062 -2.59932 -1.48579 0
M  V30 338 H 28.608 -1.25089 -0.713358 0
M  V30 339 H 30.561 -1.82731 -3.7972 0
M  V30 340 H 29.285 -0.749393 -3.17886 0
M  V30 341 H 27.944 -2.74575 -2.42908 0
M  V30 342 H 27.592 -1.77437 -4.70665 0
M  V30 343 H 27.292 -3.53037 -4.69722 0
M  V30 344 H 28.816 -2.89256 -5.37739 0
M  V30 345 H 30.23 -4.39855 -3.67697 0
M  V30 346 H 28.627 -5.05458 -3.2347 0
M  V30 347 H 29.697 -4.43293 -1.96518 0
M  V30 348 N 31.0401 0.771051 -1.3745 0
M  V30 349 C 31.9871 1.88435 -1.3327 0
M  V30 350 C 32.9571 1.64914 -0.198136 0
M  V30 351 O 34.1421 1.86821 -0.387606 0
M  V30 352 C 31.2821 3.25509 -1.14622 0
M  V30 353 C 30.3951 3.60979 -2.37314 0
M  V30 354 C 29.5301 4.87265 -2.11533 0
M  V30 355 C 28.5691 5.15469 -3.30088 0
M  V30 356 N 27.7061 6.32944 -3.03853 0
M  V30 357 H 32.5461 1.91344 -2.28455 0
M  V30 358 H 30.0831 0.935466 -1.13523 0
M  V30 359 H 32.0411 4.04582 -1.01831 0
M  V30 360 H 30.6711 3.21974 -0.230837 0
M  V30 361 H 29.7231 2.76885 -2.60842 0
M  V30 362 H 31.0351 3.77759 -3.25729 0
M  V30 363 H 30.1891 5.74244 -1.95777 0
M  V30 364 H 28.9281 4.7259 -1.20457 0
M  V30 365 H 27.9331 4.26966 -3.46382 0
M  V30 366 H 29.1581 5.32052 -4.22016 0
M  V30 367 H 27.1041 6.19625 -2.15407 0
M  V30 368 H 27.0211 6.50143 -3.85812 0
M  V30 369 H 28.2891 7.22857 -2.91716 0
M  V30 370 N 32.5182 1.22032 0.997298 0
M  V30 371 C 33.9292 1.0397 1.55071 0
M  V30 372 C 34.2802 -0.398192 1.92117 0
M  V30 373 O 33.4052 -1.28254 1.74298 0
M  V30 374 C 34.0002 1.88109 2.81781 0
M  V30 375 C 32.5592 1.74357 3.33581 0
M  V30 376 C 31.7062 1.84846 2.06706 0
M  V30 377 H 34.6572 1.35941 0.818883 0
M  V30 378 H 34.6782 1.39589 3.53971 0
M  V30 379 H 34.1902 2.92754 2.54787 0
M  V30 380 H 32.2912 0.72427 3.65493 0
M  V30 381 H 32.4042 2.56772 4.04481 0
M  V30 382 H 30.7682 1.28238 2.20062 0
M  V30 383 H 31.5512 2.91014 1.82114 0
M  V30 384 N 33.9963 -1.19345 1.0293 0
M  V30 385 C 35.4073 -1.70725 0.755633 0
M  V30 386 C 35.7583 -1.82326 -0.724676 0
M  V30 387 O 34.8833 -1.49471 -1.56484 0
M  V30 388 C 35.4783 -3.10084 1.36503 0
M  V30 389 C 34.0373 -3.58723 1.13994 0
M  V30 390 C 33.1843 -2.35577 1.46283 0
M  V30 391 H 36.1353 -1.0418 1.19718 0
M  V30 392 H 36.1563 -3.72787 0.762217 0
M  V30 393 H 35.6683 -3.01609 2.44241 0
M  V30 394 H 33.7693 -3.72512 0.0807901 0
M  V30 395 H 33.8823 -4.42816 1.82894 0
M  V30 396 H 32.2463 -2.38935 0.88217 0
M  V30 397 H 33.0293 -2.29731 2.55105 0
M  V30 398 N 35.4744 -0.807222 -1.35358 0
M  V30 399 C 36.7204 -0.388463 -1.99045 0
M  V30 400 C 37.0534 1.04184 -1.63888 0
M  V30 401 O 36.3284 1.72292 -0.902535 0
M  V30 402 C 36.6114 -0.572783 -3.55515 0
M  V30 403 C 36.4644 -2.04807 -4.00468 0
M  V30 404 C 37.7834 0.00114064 -4.401 0
M  V30 405 H 34.9024 -0.142619 -0.723069 0
M  V30 406 H 37.5444 -1.01687 -1.60498 0
M  V30 407 H 35.6944 -0.0378425 -3.88482 0
M  V30 408 H 37.3664 -2.64544 -3.77908 0
M  V30 409 H 35.6094 -2.54427 -3.51353 0
M  V30 410 H 36.2804 -2.12792 -5.09337 0
M  V30 411 H 38.7564 -0.455716 -4.13597 0
M  V30 412 H 37.6324 -0.157737 -5.48673 0
M  V30 413 H 37.8934 1.09488 -4.28328 0
M  V30 414 N 36.9525 1.47285 -0.560781 0
M  V30 415 C 38.2005 2.02064 -0.0379868 0
M  V30 416 C 38.5215 1.43711 1.31803 0
M  V30 417 O 37.7915 0.61362 1.86042 0
M  V30 418 H 36.3715 0.746918 -0.0110531 0
M  V30 419 H 39.0335 1.80648 -0.731598 0
M  V30 420 H 38.1295 3.12064 0.0474463 0
M  V30 421 N 38.4306 0.297415 1.54768 0
M  V30 422 C 39.3786 -0.596051 2.24833 0
M  V30 423 C 40.3726 -1.13992 1.25308 0
M  V30 424 O 41.5786 -1.09098 1.4317 0
M  V30 425 H 37.9536 -0.210814 0.721846 0
M  V30 426 H 39.9246 0.0174667 2.98395 0
M  V30 427 C 38.6736 -1.75818 2.99972 0
M  V30 428 H 37.9966 -1.3489 3.76357 0
M  V30 429 H 39.4366 -2.35949 3.52284 0
M  V30 430 C 37.8956 -2.66014 2.06732 0
M  V30 431 O 38.4256 -3.67009 1.63302 0
M  V30 432 N 36.6316 -2.33669 1.72763 0
M  V30 433 H 36.1786 -1.51586 2.08277 0
M  V30 434 H 36.1366 -2.94285 1.10652 0
M  V30 435 N 39.9087 -1.5758 0.0250728 0
M  V30 436 C 41.3247 -1.56124 -0.331282 0
M  V30 437 C 41.5247 -1.03029 -1.73169 0
M  V30 438 O 40.5807 -0.675215 -2.43305 0
M  V30 439 C 41.8937 -3.00139 -0.183584 0
M  V30 440 C 43.4417 -3.11946 -0.256654 0
M  V30 441 C 43.9167 -4.57793 -0.137792 0
M  V30 442 N 45.4077 -4.6279 -0.194904 0
M  V30 443 C 46.1427 -5.7326 -0.126655 0
M  V30 444 N 45.6387 -6.928 -0.00755288 0
M  V30 445 N 47.4317 -5.61811 -0.180348 0
M  V30 446 H 39.5827 -1.90424 0.94087 0
M  V30 447 H 41.8457 -0.875761 0.362968 0
M  V30 448 H 41.5517 -3.4292 0.780927 0
M  V30 449 H 41.4257 -3.64899 -0.955448 0
M  V30 450 H 43.8127 -2.69079 -1.21162 0
M  V30 451 H 43.8937 -2.49915 0.545517 0
M  V30 452 H 43.5377 -5.01339 0.813739 0
M  V30 453 H 43.4677 -5.17798 -0.958775 0
M  V30 454 H 45.9587 -3.76807 -0.287267 0
M  V30 455 H 46.2717 -7.72791 0.0379428 0
M  V30 456 H 44.6167 -6.94995 0.0271731 0
M  V30 457 H 47.8077 -4.6731 -0.271767 0
M  V30 458 H 47.9807 -6.47882 -0.123697 0
M  V30 459 N 41.3868 0.248026 -1.55636 0
M  V30 460 C 42.3188 1.32993 -1.8667 0
M  V30 461 C 43.3318 1.44345 -0.752877 0
M  V30 462 O 44.5208 1.45715 -1.03098 0
M  V30 463 C 41.6208 2.70863 -2.03682 0
M  V30 464 C 40.7938 2.81792 -3.34532 0
M  V30 465 C 39.8528 4.005 -3.41301 0
M  V30 466 O 38.8788 3.9008 -4.14519 0
M  V30 467 N 40.0808 5.13618 -2.70512 0
M  V30 468 H 42.8458 1.06707 -2.8006 0
M  V30 469 H 40.4068 0.438129 -1.55859 0
M  V30 470 H 42.3988 3.48612 -2.05553 0
M  V30 471 H 40.9688 2.89862 -1.17041 0
M  V30 472 H 40.1888 1.90729 -3.44987 0
M  V30 473 H 41.4768 2.86043 -4.20781 0
M  V30 474 H 40.8748 5.24975 -2.10755 0
M  V30 475 H 39.4318 5.89505 -2.78077 0
M  V30 476 N 42.8649 1.48995 0.513639 0
M  V30 477 C 44.1109 1.58076 1.27042 0
M  V30 478 C 44.4439 0.261026 1.92438 0
M  V30 479 O 43.7189 -0.734393 1.80103 0
M  V30 480 C 44.0019 2.73091 2.34719 0
M  V30 481 C 43.8549 4.14821 1.73907 0
M  V30 482 C 45.1739 2.83796 3.36375 0
M  V30 483 H 42.2929 0.575391 0.460536 0
M  V30 484 H 44.9349 1.81232 0.570516 0
M  V30 485 H 43.0849 2.53479 2.94416 0
M  V30 486 H 44.7569 4.45917 1.18135 0
M  V30 487 H 42.9999 4.21058 1.0437 0
M  V30 488 H 43.6709 4.91147 2.51949 0
M  V30 489 H 46.1469 3.01611 2.86653 0
M  V30 490 H 45.0229 3.65971 4.09093 0
M  V30 491 H 45.2839 1.92624 3.9793 0
M  V30 492 N 44.343 -0.763751 1.37857 0
M  V30 493 C 45.589 -1.52396 1.3471 0
M  V30 494 C 45.944 -1.92288 -0.0656435 0
M  V30 495 O 45.237 -1.6181 -1.02606 0
M  V30 496 C 45.431 -2.79499 2.22745 0
M  V30 497 C 45.26 -2.52031 3.72438 0
M  V30 498 C 44.03 -2.45759 4.4151 0
M  V30 499 C 46.228 -2.19489 4.65112 0
M  V30 500 N 44.21 -2.1046 5.76697 0
M  V30 501 C 45.581 -1.94396 5.88736 0
M  V30 502 C 47.636 -2.05712 4.53417 0
M  V30 503 C 46.339 -1.56917 7.01975 0
M  V30 504 C 48.365 -1.69634 5.66549 0
M  V30 505 C 47.727 -1.45407 6.89229 0
M  V30 506 H 43.826 -0.55765 0.548225 0
M  V30 507 H 46.41 -0.890302 1.73152 0
M  V30 508 H 44.581 -3.4069 1.86507 0
M  V30 509 H 46.313 -3.45465 2.10798 0
M  V30 510 H 43.068 -2.61885 3.94605 0
M  V30 511 H 43.492 -1.95484 6.48163 0
M  V30 512 H 48.134 -2.23123 3.59133 0
M  V30 513 H 45.852 -1.38246 7.96187 0
M  V30 514 H 49.438 -1.59621 5.59475 0
M  V30 515 H 48.318 -1.17904 7.75286 0
M  V30 516 N 45.8211 -1.22559 -0.990812 0
M  V30 517 C 46.7531 -0.955325 -2.08342 0
M  V30 518 C 47.7661 0.0668408 -1.62663 0
M  V30 519 O 48.9551 -0.167421 -1.77713 0
M  V30 520 C 46.0551 -0.415566 -3.36342 0
M  V30 521 C 45.2281 -1.49544 -4.11042 0
M  V30 522 C 44.2871 -0.962399 -5.17324 0
M  V30 523 O 43.3131 -1.64907 -5.44788 0
M  V30 524 N 44.5151 0.215134 -5.80101 0
M  V30 525 H 47.2801 -1.89596 -2.32106 0
M  V30 526 H 44.8411 -1.13276 -1.15673 0
M  V30 527 H 46.8331 -0.0442386 -4.04676 0
M  V30 528 H 45.4031 0.430232 -3.09625 0
M  V30 529 H 44.6231 -2.04 -3.37309 0
M  V30 530 H 45.9111 -2.22195 -4.57719 0
M  V30 531 H 45.3091 0.789779 -5.6016 0
M  V30 532 H 43.8661 0.527826 -6.49659 0
M  V30 533 N 47.2992 1.18797 -1.03562 0
M  V30 534 C 48.5762 1.84469 -0.650434 0
M  V30 535 C 48.9562 1.92319 0.870433 0
M  V30 536 O 48.3042 1.44528 1.76986 0
M  V30 537 C 48.5142 3.2306 -1.32036 0
M  V30 538 C 49.8622 3.9915 -1.44792 0
M  V30 539 O 50.8862 3.32481 -1.27806 0
M  V30 540 O 49.7452 5.18587 -1.72423 0
M  V30 541 H 46.8392 0.795251 -0.226946 0
M  V30 542 H 49.3852 1.26231 -1.13419 0
M  V30 543 H 48.1572 3.1222 -2.3587 0
M  V30 544 H 47.7802 3.88949 -0.8249 0
M  V30 545 N 48.7773 0.814389 1.34928 0
M  V30 546 C 50.0023 0.410097 2.03305 0
M  V30 547 C 50.4273 -0.973464 1.60951 0
M  V30 548 O 49.7853 -1.63185 0.789964 0
M  V30 549 C 49.8333 0.51049 3.56968 0
M  V30 550 O 48.9373 -0.473035 4.09678 0
M  V30 551 H 48.2783 0.170088 0.641846 0
M  V30 552 H 50.8083 1.10244 1.72358 0
M  V30 553 H 50.8183 0.383135 4.06197 0
M  V30 554 H 49.4933 1.51963 3.87144 0
M  V30 555 H 48.0703 -0.305272 3.71648 0
M  V30 556 N 50.2554 -1.46986 0.568584 0
M  V30 557 C 51.5324 -1.95592 -0.0174074 0
M  V30 558 C 51.9124 -1.51124 -1.47393 0
M  V30 559 O 51.2604 -0.755329 -2.15655 0
M  V30 560 C 51.4704 -3.48719 0.139913 0
M  V30 561 C 52.8184 -4.246 0.000426376 0
M  V30 562 O 53.8424 -3.56135 0.0680316 0
M  V30 563 O 52.7014 -5.46302 -0.146988 0
M  V30 564 H 49.7954 -0.82498 -0.0577599 0
M  V30 565 H 52.3414 -1.57335 0.635909 0
M  V30 566 H 51.1134 -3.73927 1.15301 0
M  V30 567 H 50.7364 -3.93771 -0.550491 0
M  V30 568 N 51.7335 -0.305618 -1.54608 0
M  V30 569 C 52.9805 0.302298 -2.00231 0
M  V30 570 C 53.3085 1.5354 -1.19398 0
M  V30 571 O 52.5635 1.93973 -0.259423 0
M  V30 572 C 52.8625 0.698983 -3.50498 0
M  V30 573 C 52.5285 -0.432903 -4.48817 0
M  V30 574 C 51.1905 -0.743622 -4.75419 0
M  V30 575 C 53.5425 -1.19409 -5.07337 0
M  V30 576 C 50.8705 -1.81857 -5.57804 0
M  V30 577 C 53.2225 -2.25899 -5.90891 0
M  V30 578 C 51.8865 -2.57572 -6.15803 0
M  V30 579 H 51.1565 0.110619 -0.732697 0
M  V30 580 H 53.8035 -0.425674 -1.86709 0
M  V30 581 H 52.1085 1.50711 -3.61654 0
M  V30 582 H 53.8055 1.1806 -3.83227 0
M  V30 583 H 50.3955 -0.18063 -4.28219 0
M  V30 584 H 54.5795 -0.967295 -4.86782 0
M  V30 585 H 49.8355 -2.06864 -5.75341 0
M  V30 586 H 54.0095 -2.85335 -6.35261 0
M  V30 587 H 51.6365 -3.40998 -6.7943 0
M  V30 588 N 53.2116 1.57565 -0.0334293 0
M  V30 589 C 54.4606 1.91155 0.643639 0
M  V30 590 C 54.7736 0.91192 1.73042 0
M  V30 591 O 55.9796 1.13923 2.46442 0
M  V30 592 C 54.4356 3.39443 1.1961 0
M  V30 593 C 54.0436 4.47774 0.142381 0
M  V30 594 C 55.7876 3.82094 1.84944 0
M  V30 595 C 53.6946 5.87162 0.706727 0
M  V30 596 H 52.6246 0.713368 0.244176 0
M  V30 597 H 55.2756 1.8323 -0.0994323 0
M  V30 598 H 53.6576 3.42313 1.99092 0
M  V30 599 H 54.8316 4.56469 -0.630296 0
M  V30 600 H 53.1466 4.14352 -0.412446 0
M  V30 601 H 55.7436 4.83591 2.2813 0
M  V30 602 H 56.0866 3.17386 2.69392 0
M  V30 603 H 56.6196 3.81665 1.12145 0
M  V30 604 H 53.3586 6.55424 -0.0997178 0
M  V30 605 H 52.8786 5.82064 1.44779 0
M  V30 606 H 54.5576 6.35866 1.19514 0
M  V30 607 N 54.6897 -0.239769 1.55765 0
M  V30 608 C 55.9357 -0.968234 1.78194 0
M  V30 609 C 56.2687 -1.84701 0.599938 0
M  V30 610 O 55.5437 -1.9031 -0.401524 0
M  V30 611 C 55.8267 -1.8227 3.10564 0
M  V30 612 C 55.6797 -0.971633 4.3918 0
M  V30 613 C 56.9987 -2.80388 3.39221 0
M  V30 614 H 54.1177 -0.350572 0.648281 0
M  V30 615 H 56.7597 -0.238259 1.885 0
M  V30 616 H 54.9097 -2.44507 3.01908 0
M  V30 617 H 56.5817 -0.367408 4.59835 0
M  V30 618 H 54.8247 -0.276276 4.32919 0
M  V30 619 H 55.4957 -1.60346 5.28198 0
M  V30 620 H 57.9717 -2.28287 3.47885 0
M  V30 621 H 56.8477 -3.3729 4.33044 0
M  V30 622 H 57.1087 -3.57212 2.60484 0
M  V30 623 N 56.1678 -1.49265 -0.50573 0
M  V30 624 C 57.3958 -1.62215 -1.28429 0
M  V30 625 C 57.8108 -0.291697 -1.86533 0
M  V30 626 O 57.1678 0.722233 -1.67601 0
M  V30 627 C 57.2188 -2.68735 -2.41793 0
M  V30 628 O 56.9398 -3.96619 -1.86078 0
M  V30 629 C 58.4408 -2.92346 -3.3324 0
M  V30 630 H 55.6608 -0.546239 -0.389697 0
M  V30 631 H 58.2048 -1.95265 -0.607609 0
M  V30 632 H 56.3598 -2.38476 -3.053 0
M  V30 633 H 56.7738 -4.55256 -2.60465 0
M  V30 634 H 58.2478 -3.70623 -4.09075 0
M  V30 635 H 58.7248 -2.02081 -3.89948 0
M  V30 636 H 59.3308 -3.24003 -2.75503 0
M  V30 637 N 57.6459 0.756429 -1.3826 0
M  V30 638 C 58.8919 1.51772 -1.34511 0
M  V30 639 C 59.2249 1.94089 0.0656691 0
M  V30 640 O 58.4999 1.65221 1.02626 0
M  V30 641 C 58.7829 2.77226 -2.29821 0
M  V30 642 C 58.6359 2.41065 -3.79747 0
M  V30 643 C 59.9549 3.79236 -2.23312 0
M  V30 644 H 57.0739 0.550578 -0.489931 0
M  V30 645 H 59.7159 0.866607 -1.69086 0
M  V30 646 H 57.8659 3.32784 -2.00467 0
M  V30 647 H 59.5379 1.91303 -4.19763 0
M  V30 648 H 57.7809 1.7356 -3.97567 0
M  V30 649 H 58.4519 3.3081 -4.41892 0
M  V30 650 H 60.9279 3.3321 -2.49219 0
M  V30 651 H 59.8039 4.64714 -2.92116 0
M  V30 652 H 60.0649 4.24615 -1.23102 0
M  V30 653 N 59.124 1.23083 0.984299 0
M  V30 654 C 60.37 1.06214 1.72761 0
M  V30 655 C 60.703 -0.400584 1.90024 0
M  V30 656 O 59.978 -1.29672 1.44967 0
M  V30 657 C 60.261 1.78375 3.12817 0
M  V30 658 C 60.114 3.32296 3.03149 0
M  V30 659 C 61.433 1.54309 4.12161 0
M  V30 660 H 58.552 0.387251 0.627061 0
M  V30 661 H 61.194 1.51536 1.14616 0
M  V30 662 H 59.344 1.39848 3.62457 0
M  V30 663 H 61.016 3.8032 2.61064 0
M  V30 664 H 59.259 3.6153 2.39747 0
M  V30 665 H 59.93 3.77972 4.02295 0
M  V30 666 H 62.406 1.87791 3.71314 0
M  V30 667 H 61.282 2.07281 5.08258 0
M  V30 668 H 61.543 0.477572 4.39513 0
M  V30 669 N 60.6021 -1.18246 1.0419 0
M  V30 670 C 61.8501 -1.87886 0.744543 0
M  V30 671 C 62.1711 -1.8082 -0.730006 0
M  V30 672 O 61.4411 -1.22736 -1.52685 0
M  V30 673 H 60.0211 -0.695556 0.272417 0
M  V30 674 H 62.6831 -1.43494 1.31892 0
M  V30 675 H 61.7791 -2.9389 1.05049 0
M  V30 676 N 62.0802 -0.821533 -1.34494 0
M  V30 677 C 63.3282 -0.408139 -1.97936 0
M  V30 678 C 63.6492 1.03193 -1.65457 0
M  V30 679 O 62.9192 1.71622 -0.944595 0
M  V30 680 H 61.4992 -0.147928 -0.732206 0
M  V30 681 H 64.1612 -1.05067 -1.64155 0
M  V30 682 H 63.2572 -0.52601 -3.07635 0
M  V30 683 N 63.5583 1.46682 -0.576371 0
M  V30 684 C 64.9693 1.86112 -0.148091 0
M  V30 685 C 65.3203 1.48073 1.2872 0
M  V30 686 O 64.4453 0.892656 1.97131 0
M  V30 687 C 65.0403 3.37786 -0.261982 0
M  V30 688 C 63.5993 3.76235 0.111384 0
M  V30 689 C 62.7463 2.70713 -0.60083 0
M  V30 690 H 65.6973 1.37927 -0.78497 0
M  V30 691 H 65.7183 3.77007 0.514364 0
M  V30 692 H 65.2303 3.6544 -1.30671 0
M  V30 693 H 63.3313 3.54198 1.15649 0
M  V30 694 H 63.4443 4.78391 -0.26052 0
M  V30 695 H 61.8083 2.54666 -0.0417783 0
M  V30 696 H 62.5913 3.01208 -1.64708 0
M  V30 697 N 65.0364 0.313813 1.54444 0
M  V30 698 C 65.9844 -0.572171 2.25453 0
M  V30 699 C 66.9784 -1.12657 1.2651 0
M  V30 700 O 68.1844 -1.07573 1.44319 0
M  V30 701 H 64.5594 -0.203146 0.724041 0
M  V30 702 H 66.5304 0.0491145 2.9836 0
M  V30 703 C 65.2794 -1.72626 3.0182 0
M  V30 704 H 64.6024 -1.30891 3.77767 0
M  V30 705 H 66.0424 -2.32199 3.54767 0
M  V30 706 C 64.5014 -2.63806 2.09542 0
M  V30 707 O 65.0314 -3.65256 1.67185 0
M  V30 708 N 63.2374 -2.31824 1.75232 0
M  V30 709 H 62.7844 -1.49368 2.09873 0
M  V30 710 H 62.7424 -2.93095 1.13767 0
M  V30 711 N 66.5145 -1.57545 0.0417849 0
M  V30 712 C 67.4645 -2.07483 -0.945247 0
M  V30 713 C 68.4485 -0.977983 -1.27767 0
M  V30 714 O 69.6405 -1.24142 -1.26166 0
M  V30 715 C 66.7695 -2.61576 -2.22335 0
M  V30 716 C 65.8555 -3.78213 -1.91874 0
M  V30 717 N 66.2465 -4.88344 -1.31733 0
M  V30 718 C 64.5445 -3.8694 -2.21796 0
M  V30 719 C 65.2455 -5.69462 -1.1869 0
M  V30 720 N 64.2215 -5.16771 -1.68666 0
M  V30 721 H 68.0235 -2.90029 -0.475441 0
M  V30 722 H 65.5375 -1.61581 -0.162911 0
M  V30 723 H 67.5345 -2.95651 -2.93932 0
M  V30 724 H 66.1945 -1.80465 -2.69931 0
M  V30 725 H 67.2055 -5.08335 -0.990729 0
M  V30 726 H 63.8825 -3.16757 -2.71977 0
M  V30 727 H 65.2725 -6.68023 -0.720793 0
M  V30 728 N 67.9926 0.231505 -1.5589 0
M  V30 729 C 69.4086 0.580748 -1.48659 0
M  V30 730 C 69.6086 1.87617 -0.73498 0
M  V30 731 O 68.6646 2.51046 -0.270586 0
M  V30 732 C 69.9776 0.669202 -2.93159 0
M  V30 733 C 71.5256 0.760499 -3.03621 0
M  V30 734 C 72.0006 0.880383 -4.49459 0
M  V30 735 N 73.4916 0.944861 -4.53461 0
M  V30 736 C 74.2266 1.05716 -5.63571 0
M  V30 737 N 73.7226 1.13403 -6.83456 0
M  V30 738 N 75.5156 1.09152 -5.514 0
M  V30 739 H 67.6666 -0.618695 -2.03189 0
M  V30 740 H 69.9296 -0.215728 -0.923128 0
M  V30 741 H 69.6356 -0.212904 -3.51055 0
M  V30 742 H 69.5096 1.5361 -3.44505 0
M  V30 743 H 71.8966 1.63305 -2.45796 0
M  V30 744 H 71.9776 -0.131864 -2.5546 0
M  V30 745 H 71.6216 0.0123284 -5.07899 0
M  V30 746 H 71.5516 1.78802 -4.95316 0
M  V30 747 H 74.0426 0.896176 -3.6712 0
M  V30 748 H 74.3556 1.21921 -7.63122 0
M  V30 749 H 72.7006 1.10333 -6.86186 0
M  V30 750 H 75.8916 1.02805 -4.56671 0
M  V30 751 H 76.0646 1.17558 -6.37247 0
M  V30 752 N 69.4707 1.49531 0.497807 0
M  V30 753 C 70.6987 1.62893 1.27567 0
M  V30 754 C 71.1137 0.301585 1.86376 0
M  V30 755 O 70.4707 -0.713335 1.67982 0
M  V30 756 C 70.5217 2.70013 2.40364 0
M  V30 757 O 70.2427 3.976 1.83972 0
M  V30 758 C 71.7437 2.94109 3.31685 0
M  V30 759 H 68.9637 0.548298 0.386794 0
M  V30 760 H 71.5077 1.95584 0.597245 0
M  V30 761 H 69.6627 2.40092 3.04031 0
M  V30 762 H 70.0767 4.56631 2.58047 0
M  V30 763 H 71.5507 3.72788 4.07104 0
M  V30 764 H 72.0277 2.04147 3.88871 0
M  V30 765 H 72.6337 3.2546 2.73781 0
M  V30 766 N 70.9488 -0.749086 1.3866 0
M  V30 767 C 72.2258 -1.4992 1.25632 0
M  V30 768 C 72.6058 -2.10633 -0.140317 0
M  V30 769 O 71.9538 -1.97437 -1.15025 0
M  V30 770 C 72.1638 -2.56195 2.36992 0
M  V30 771 C 73.5118 -3.22972 2.75634 0
M  V30 772 O 74.5358 -2.66502 2.36337 0
M  V30 773 O 73.3948 -4.25122 3.43415 0
M  V30 774 H 70.4888 -0.665067 0.491544 0
M  V30 775 H 73.0348 -0.784113 1.50498 0
M  V30 776 H 71.8068 -2.09612 3.30422 0
M  V30 777 H 71.4298 -3.35279 2.13714 0
M  V30 778 N 72.4269 -1.23603 -0.977757 0
M  V30 779 C 73.6569 -1.09487 -1.75203 0
M  V30 780 C 74.0649 0.356321 -1.85814 0
M  V30 781 O 73.4079 1.25816 -1.33851 0
M  V30 782 C 73.4699 -1.64905 -3.19447 0
M  V30 783 C 73.1339 -3.13688 -3.32338 0
M  V30 784 C 74.1309 -4.10953 -3.18455 0
M  V30 785 C 71.8159 -3.53449 -3.56902 0
M  V30 786 C 73.8099 -5.45962 -3.28944 0
M  V30 787 C 71.4969 -4.88602 -3.6703 0
M  V30 788 C 72.4949 -5.84668 -3.53062 0
M  V30 789 O 72.1829 -7.17365 -3.62826 0
M  V30 790 H 71.9149 -0.38367 -0.556573 0
M  V30 791 H 74.4689 -1.6398 -1.23693 0
M  V30 792 H 72.6989 -1.04835 -3.72218 0
M  V30 793 H 74.3879 -1.46226 -3.78646 0
M  V30 794 H 75.1539 -3.81577 -2.99372 0
M  V30 795 H 71.0329 -2.79188 -3.66844 0
M  V30 796 H 74.5769 -6.20925 -3.17958 0
M  V30 797 H 70.4739 -5.17653 -3.85623 0
M  V30 798 H 71.2419 -7.2515 -3.79605 0
M  V30 799 N 73.905 1.17692 -1.04816 0
M  V30 800 C 74.855 2.1952 -0.616042 0
M  V30 801 C 75.839 1.57147 0.345485 0
M  V30 802 O 77.031 1.76245 0.163325 0
M  V30 803 C 74.16 3.43298 0.0116917 0
M  V30 804 C 73.246 4.12777 -0.973435 0
M  V30 805 N 73.637 4.5814 -2.14339 0
M  V30 806 C 71.935 4.38747 -0.80108 0
M  V30 807 C 72.636 5.11713 -2.7663 0
M  V30 808 N 71.612 5.03686 -2.04453 0
M  V30 809 H 75.414 2.52293 -1.5075 0
M  V30 810 H 72.928 1.3398 -0.917776 0
M  V30 811 H 74.925 4.15519 0.339006 0
M  V30 812 H 73.585 3.12018 0.898593 0
M  V30 813 H 74.596 4.52349 -2.52191 0
M  V30 814 H 71.273 4.17485 0.0350934 0
M  V30 815 H 72.663 5.56962 -3.75823 0
M  V30 816 N 75.3831 0.828654 1.34056 0
M  V30 817 C 76.6601 0.341809 1.9259 0
M  V30 818 C 77.0401 -1.17158 1.75605 0
M  V30 819 O 76.3881 -1.98132 1.13824 0
M  V30 820 C 76.5981 0.777453 3.4023 0
M  V30 821 C 77.9461 0.779579 4.17382 0
M  V30 822 O 78.9701 0.7204 3.48839 0
M  V30 823 O 77.8291 0.857996 5.39723 0
M  V30 824 H 74.9231 0.0946085 0.821571 0
M  V30 825 H 77.4691 0.913827 1.42994 0
M  V30 826 H 76.2411 1.8196 3.46419 0
M  V30 827 H 75.8641 0.181444 3.97186 0
M  V30 828 N 76.8612 -1.46375 0.584142 0
M  V30 829 C 78.1382 -1.956 0.0033388 0
M  V30 830 C 78.5182 -1.52679 -1.45782 0
M  V30 831 O 77.8662 -0.77816 -2.14842 0
M  V30 832 C 78.0762 -3.48551 0.176891 0
M  V30 833 C 79.4242 -4.24576 0.0454609 0
M  V30 834 O 80.4482 -3.56043 0.105801 0
M  V30 835 O 79.3072 -5.46427 -0.0890376 0
M  V30 836 H 76.4012 -0.825547 -0.0490066 0
M  V30 837 H 78.9472 -1.56652 0.65256 0
M  V30 838 H 77.7192 -3.72683 1.1926 0
M  V30 839 H 77.3422 -3.94332 -0.508695 0
M  V30 840 N 78.3393 -0.321999 -1.54275 0
M  V30 841 C 79.7503 0.166384 -1.85957 0
M  V30 842 C 80.1013 1.51747 -1.24367 0
M  V30 843 O 79.2263 2.09317 -0.549124 0
M  V30 844 C 79.8213 0.308681 -3.37391 0
M  V30 845 C 78.3803 0.741286 -3.69028 0
M  V30 846 C 77.5273 -0.137937 -2.76957 0
M  V30 847 H 80.4783 -0.542335 -1.49146 0
M  V30 848 H 80.4993 1.13984 -3.63026 0
M  V30 849 H 80.0113 -0.674809 -3.82188 0
M  V30 850 H 78.1123 1.73458 -3.29762 0
M  V30 851 H 78.2253 0.546118 -4.75977 0
M  V30 852 H 76.5893 0.386251 -2.51754 0
M  V30 853 H 77.3723 -1.11816 -3.2458 0
M  V30 854 N 79.8174 1.5752 -0.0501392 0
M  V30 855 C 80.7474 2.14502 0.922566 0
M  V30 856 C 81.7284 1.06642 1.3252 0
M  V30 857 O 82.9134 1.34577 1.4001 0
M  V30 858 C 80.0434 2.68916 2.19776 0
M  V30 859 C 78.9974 3.8175 1.93523 0
M  V30 860 C 78.3234 4.22677 3.27487 0
M  V30 861 C 79.6234 5.06932 1.25765 0
M  V30 862 H 81.3174 2.9603 0.447952 0
M  V30 863 H 78.8634 1.42401 0.214024 0
M  V30 864 H 80.8164 3.07419 2.88222 0
M  V30 865 H 79.5404 1.84578 2.69441 0
M  V30 866 H 78.1994 3.43718 1.27489 0
M  V30 867 H 77.8474 3.35291 3.74952 0
M  V30 868 H 77.5474 4.98725 3.1072 0
M  V30 869 H 79.0714 4.63779 3.97166 0
M  V30 870 H 80.4854 5.42888 1.84244 0
M  V30 871 H 78.8824 5.88116 1.19328 0
M  V30 872 H 79.9524 4.84337 0.233536 0
M  V30 873 N 81.2955 -0.223234 1.56011 0
M  V30 874 C 82.2055 -1.29766 1.95443 0
M  V30 875 C 83.2215 -1.51373 0.858028 0
M  V30 876 O 84.3975 -1.64536 1.16146 0
M  V30 877 C 81.4625 -2.62772 2.26167 0
M  V30 878 C 80.5235 -2.49482 3.49367 0
M  V30 879 C 79.7565 -3.76145 3.78616 0
M  V30 880 O 79.9795 -4.79087 3.09568 0
M  V30 881 O 78.9135 -3.73358 4.72109 0
M  V30 882 H 82.7395 -0.99309 2.87004 0
M  V30 883 H 80.3245 -0.425958 1.43199 0
M  V30 884 H 82.2065 -3.41327 2.47131 0
M  V30 885 H 80.8815 -2.92913 1.37781 0
M  V30 886 H 79.7885 -1.69133 3.33684 0
M  V30 887 H 81.1215 -2.2428 4.38131 0
M  V30 888 N 82.7736 -1.49793 -0.48987 0
M  V30 889 C 83.6836 -1.70036 -1.61632 0
M  V30 890 C 84.6996 -0.583102 -1.63939 0
M  V30 891 O 85.8756 -0.859169 -1.82154 0
M  V30 892 C 82.9406 -1.77277 -2.97949 0
M  V30 893 C 82.0016 -3.00918 -3.06181 0
M  V30 894 C 81.2346 -3.07804 -4.35996 0
M  V30 895 O 81.4576 -2.21982 -5.25433 0
M  V30 896 O 80.3916 -4.00369 -4.49431 0
M  V30 897 H 84.2176 -2.65486 -1.47482 0
M  V30 898 H 81.8026 -1.33666 -0.667362 0
M  V30 899 H 83.6846 -1.84329 -3.78947 0
M  V30 900 H 82.3596 -0.850076 -3.12339 0
M  V30 901 H 81.2666 -2.99377 -2.2433 0
M  V30 902 H 82.5996 -3.92704 -2.96723 0
M  V30 903 N 84.2517 0.741722 -1.39055 0
M  V30 904 C 85.4987 1.50114 -1.35912 0
M  V30 905 C 85.8267 1.94443 0.0470937 0
M  V30 906 O 85.0817 1.66612 1.02659 0
M  V30 907 C 85.3807 2.7592 -2.27163 0
M  V30 908 C 85.0467 2.50493 -3.74919 0
M  V30 909 C 83.7087 2.43267 -4.1518 0
M  V30 910 C 86.0607 2.28585 -4.684 0
M  V30 911 C 83.3887 2.12166 -5.46994 0
M  V30 912 C 85.7407 1.99002 -6.00484 0
M  V30 913 C 84.4047 1.90241 -6.39816 0
M  V30 914 H 83.6747 0.549306 -0.497336 0
M  V30 915 H 86.3217 0.851896 -1.71508 0
M  V30 916 H 84.6267 3.45553 -1.84663 0
M  V30 917 H 86.3237 3.33923 -2.22028 0
M  V30 918 H 82.9137 2.56992 -3.43006 0
M  V30 919 H 87.0977 2.33139 -4.38132 0
M  V30 920 H 82.3537 2.03901 -5.76398 0
M  V30 921 H 86.5277 1.81057 -6.72452 0
M  V30 922 H 84.1547 1.65907 -7.41875 0
M  V30 923 N 85.7298 1.2412 0.971189 0
M  V30 924 C 86.9768 1.07881 1.71371 0
M  V30 925 C 87.3048 -0.382901 1.90694 0
M  V30 926 O 86.5598 -1.29945 1.46331 0
M  V30 927 C 86.8588 1.75983 3.11071 0
M  V30 928 C 86.5248 3.25909 3.11599 0
M  V30 929 C 85.1868 3.66813 3.11451 0
M  V30 930 C 87.5388 4.21771 3.062 0
M  V30 931 C 84.8668 5.02021 3.03631 0
M  V30 932 C 87.2188 5.56982 2.99923 0
M  V30 933 C 85.8828 5.97237 2.98102 0
M  V30 934 H 85.1528 0.394764 0.62709 0
M  V30 935 H 87.7998 1.54176 1.13587 0
M  V30 936 H 86.1048 1.22072 3.72298 0
M  V30 937 H 87.8018 1.60887 3.6731 0
M  V30 938 H 84.3918 2.93353 3.12477 0
M  V30 939 H 88.5758 3.91172 3.05447 0
M  V30 940 H 83.8318 5.32411 3.0058 0
M  V30 941 H 88.0058 6.30969 2.94704 0
M  V30 942 H 85.6328 7.01967 2.91798 0
M  V30 943 N 87.2079 -1.17134 1.05439 0
M  V30 944 C 88.4379 -1.91094 0.785274 0
M  V30 945 C 88.8459 -1.77198 -0.663142 0
M  V30 946 O 88.1889 -1.10835 -1.46497 0
M  V30 947 C 88.2509 -3.42594 1.08949 0
M  V30 948 C 87.9149 -3.80274 2.53458 0
M  V30 949 C 88.9119 -3.82912 3.51673 0
M  V30 950 C 86.5969 -4.11162 2.88532 0
M  V30 951 C 88.5909 -4.15913 4.83006 0
M  V30 952 C 86.2779 -4.43831 4.20068 0
M  V30 953 C 87.2759 -4.46185 5.17115 0
M  V30 954 O 86.9639 -4.78083 6.46291 0
M  V30 955 H 86.6959 -0.613073 0.284811 0
M  V30 956 H 89.2499 -1.49461 1.40893 0
M  V30 957 H 87.4799 -3.84534 0.408741 0
M  V30 958 H 89.1689 -3.97817 0.805991 0
M  V30 959 H 89.9349 -3.5917 3.25917 0
M  V30 960 H 85.8139 -4.085 2.13656 0
M  V30 961 H 89.3579 -4.17665 5.5875 0
M  V30 962 H 85.2549 -4.67037 4.45586 0
M  V30 963 H 86.0229 -4.9593 6.51149 0
M  V30 964 N 88.686 -0.835752 -1.33615 0
M  V30 965 C 89.618 -0.224151 -2.28101 0
M  V30 966 C 90.631 0.593331 -1.51603 0
M  V30 967 O 91.82 0.420911 -1.73466 0
M  V30 968 C 88.92 0.703309 -3.31522 0
M  V30 969 C 88.093 -0.0741528 -4.37337 0
M  V30 970 C 87.152 0.776176 -5.20444 0
M  V30 971 O 86.178 0.216506 -5.68788 0
M  V30 972 N 87.38 2.09401 -5.41416 0
M  V30 973 H 90.145 -1.03598 -2.81225 0
M  V30 974 H 87.706 -0.69392 -1.46275 0
M  V30 975 H 89.698 1.27707 -3.84022 0
M  V30 976 H 88.268 1.41585 -2.78698 0
M  V30 977 H 87.488 -0.82928 -3.85378 0
M  V30 978 H 88.776 -0.608863 -5.05144 0
M  V30 979 H 88.174 2.57229 -5.03835 0
M  V30 980 H 86.731 2.61633 -5.96985 0
M  V30 981 N 90.1641 1.46063 -0.591896 0
M  V30 982 C 91.0941 2.33172 0.123673 0
M  V30 983 C 92.0751 1.45897 0.87453 0
M  V30 984 O 93.2601 1.74698 0.848181 0
M  V30 985 C 90.3901 3.28336 1.13194 0
M  V30 986 C 89.3441 4.25124 0.495324 0
M  V30 987 C 88.6701 5.09863 1.61071 0
M  V30 988 C 89.9701 5.19143 -0.573425 0
M  V30 989 H 91.6641 2.93252 -0.603646 0
M  V30 990 H 89.2101 1.41014 -0.291741 0
M  V30 991 H 91.1631 3.88137 1.64097 0
M  V30 992 H 89.8871 2.66383 1.88965 0
M  V30 993 H 88.5461 3.66599 0.00729452 0
M  V30 994 H 88.1941 4.44288 2.35832 0
M  V30 995 H 87.8941 5.75417 1.19035 0
M  V30 996 H 89.4181 5.72529 2.12233 0
M  V30 997 H 90.8321 5.73106 -0.1491 0
M  V30 998 H 89.2291 5.93089 -0.914636 0
M  V30 999 H 90.2991 4.62519 -1.45617 0
M  V30 1000 N 91.6422 0.330177 1.54103 0
M  V30 1001 C 93.0582 -0.0222371 1.59585 0
M  V30 1002 C 93.2582 -1.49902 1.34654 0
M  V30 1003 O 92.3142 -2.25592 1.13421 0
M  V30 1004 C 93.6272 0.401932 2.98002 0
M  V30 1005 C 95.1752 0.353145 3.11001 0
M  V30 1006 C 95.6502 0.752576 4.51775 0
M  V30 1007 N 97.1412 0.706239 4.57784 0
M  V30 1008 C 97.8762 0.987417 5.64834 0
M  V30 1009 N 97.3722 1.33607 6.79795 0
M  V30 1010 N 99.1652 0.91254 5.54643 0
M  V30 1011 H 91.3162 1.29228 1.68564 0
M  V30 1012 H 93.5792 0.525906 0.78875 0
M  V30 1013 H 93.2852 1.4311 3.21267 0
M  V30 1014 H 93.1592 -0.229699 3.765 0
M  V30 1015 H 95.5462 -0.666822 2.87467 0
M  V30 1016 H 95.6272 1.0198 2.34593 0
M  V30 1017 H 95.2712 1.77049 4.76042 0
M  V30 1018 H 95.2012 0.0635409 5.26562 0
M  V30 1019 H 97.6922 0.44889 3.75224 0
M  V30 1020 H 98.0052 1.53582 7.57385 0
M  V30 1021 H 96.3502 1.37439 6.81275 0
M  V30 1022 H 99.5412 0.639601 4.6371 0
M  V30 1023 H 99.7142 1.13503 6.37982 0
M  V30 1024 N 93.1203 -1.57491 0.0584922 0
M  V30 1025 C 94.3683 -1.92597 -0.612436 0
M  V30 1026 C 94.6893 -0.938162 -1.70949 0
M  V30 1027 O 93.9593 0.0158301 -1.95894 0
M  V30 1028 H 92.5393 -0.710964 -0.229214 0
M  V30 1029 H 95.2013 -1.94571 0.113218 0
M  V30 1030 H 94.2973 -2.94038 -1.04633 0
M  V30 1031 N 94.5984 0.214957 -1.56127 0
M  V30 1032 C 95.5464 1.28601 -1.93816 0
M  V30 1033 C 96.5404 1.48175 -0.821016 0
M  V30 1034 O 97.7464 1.49271 -1.0059 0
M  V30 1035 H 94.1214 0.431302 -0.616022 0
M  V30 1036 H 96.0924 0.940991 -2.83175 0
M  V30 1037 C 94.8414 2.62779 -2.27689 0
M  V30 1038 H 94.1644 2.48527 -3.13168 0
M  V30 1039 H 95.6044 3.36517 -2.57939 0
M  V30 1040 C 94.0634 3.18285 -1.10436 0
M  V30 1041 O 94.5934 4.00002 -0.368945 0
M  V30 1042 N 92.7994 2.7675 -0.886433 0
M  V30 1043 H 92.3464 2.10404 -1.48619 0
M  V30 1044 H 92.3044 3.14229 -0.103656 0
M  V30 1045 N 96.0765 1.50051 0.48192 0
M  V30 1046 C 97.0395 1.67584 1.5636 0
M  V30 1047 C 98.0395 0.546894 1.51214 0
M  V30 1048 O 99.2295 0.813725 1.54026 0
M  V30 1049 C 96.3615 1.691 2.96003 0
M  V30 1050 H 97.5545 2.64078 1.42136 0
M  V30 1051 H 95.1075 1.39369 0.707533 0
M  V30 1052 H 95.8425 0.742589 3.15684 0
M  V30 1053 H 95.6275 2.51105 3.01146 0
M  V30 1054 H 97.1175 1.84656 3.74556 0
M  V30 1055 N 97.5546 -0.734337 1.39446 0
M  V30 1056 C 98.7846 -1.52137 1.39778 0
M  V30 1057 C 99.1926 -1.89198 -0.00929312 0
M  V30 1058 O 98.5356 -1.54666 -0.991168 0
M  V30 1059 C 98.5976 -2.83762 2.20724 0
M  V30 1060 C 98.2616 -2.69131 3.69347 0
M  V30 1061 C 99.2586 -2.37635 4.62413 0
M  V30 1062 C 96.9436 -2.85982 4.1294 0
M  V30 1063 C 98.9376 -2.23172 5.97054 0
M  V30 1064 C 96.6246 -2.71137 5.47657 0
M  V30 1065 C 97.6226 -2.39777 6.39528 0
M  V30 1066 O 97.3106 -2.25026 7.71763 0
M  V30 1067 H 97.0426 -0.476717 0.479288 0
M  V30 1068 H 99.5966 -0.915012 1.83893 0
M  V30 1069 H 97.8266 -3.4666 1.71359 0
M  V30 1070 H 99.5156 -3.45383 2.13226 0
M  V30 1071 H 100.282 -2.24267 4.30034 0
M  V30 1072 H 96.1606 -3.09383 3.41765 0
M  V30 1073 H 99.7046 -1.98617 6.68728 0
M  V30 1074 H 95.6016 -2.84083 5.79626 0
M  V30 1075 H 96.3696 -2.40091 7.82495 0
M  V30 1076 N 99.0327 -1.24633 -0.964593 0
M  V30 1077 C 99.9627 -1.06611 -2.07741 0
M  V30 1078 C 100.944 0.0218666 -1.70086 0
M  V30 1079 O 102.129 -0.145793 -1.93652 0
M  V30 1080 C 99.2587 -0.673444 -3.40708 0
M  V30 1081 C 98.2127 -1.71054 -3.92332 0
M  V30 1082 C 97.5387 -1.17285 -5.21678 0
M  V30 1083 C 98.8387 -3.10718 -4.19824 0
M  V30 1084 H 100.533 -1.99693 -2.23076 0
M  V30 1085 H 98.0787 -0.96152 -1.07195 0
M  V30 1086 H 100.032 -0.534345 -4.17998 0
M  V30 1087 H 98.7557 0.293073 -3.25282 0
M  V30 1088 H 97.4147 -1.83791 -3.17201 0
M  V30 1089 H 97.0627 -0.196847 -5.02615 0
M  V30 1090 H 96.7627 -1.86592 -5.57187 0
M  V30 1091 H 98.2867 -1.04593 -6.01575 0
M  V30 1092 H 99.7007 -3.01192 -4.87808 0
M  V30 1093 H 98.0977 -3.77406 -4.66567 0
M  V30 1094 H 99.1677 -3.58524 -3.26479 0
M  V30 1095 N 100.511 1.16574 -1.06058 0
M  V30 1096 C 101.459 2.22941 -0.663343 0
M  V30 1097 C 102.453 1.66358 0.319593 0
M  V30 1098 O 103.659 1.7905 0.184713 0
M  V30 1099 H 100.034 0.725907 -0.196376 0
M  V30 1100 H 102.005 2.53736 -1.57037 0
M  V30 1101 C 100.754 3.47642 -0.0632808 0
M  V30 1102 H 100.077 3.91493 -0.810733 0
M  V30 1103 H 101.517 4.2363 0.177177 0
M  V30 1104 C 99.9758 3.1509 1.19248 0
M  V30 1105 O 100.506 3.30673 2.28075 0
M  V30 1106 N 98.7118 2.6924 1.09353 0
M  V30 1107 H 98.2588 2.5676 0.207912 0
M  V30 1108 H 98.2168 2.47833 1.93458 0
M  V30 1109 N 101.989 0.842826 1.3317 0
M  V30 1110 C 102.919 0.294028 2.31641 0
M  V30 1111 C 103.9 -0.600401 1.59151 0
M  V30 1112 O 105.085 -0.523124 1.87022 0
M  V30 1113 C 102.215 -0.528416 3.43257 0
M  V30 1114 C 101.169 0.27056 4.27144 0
M  V30 1115 C 100.495 -0.675881 5.30411 0
M  V30 1116 C 101.795 1.48981 5.00602 0
M  V30 1117 H 103.489 1.11681 2.77791 0
M  V30 1118 H 101.035 0.538478 1.33553 0
M  V30 1119 H 102.988 -0.922674 4.11175 0
M  V30 1120 H 101.712 -1.38445 2.95805 0
M  V30 1121 H 100.371 0.646427 3.60856 0
M  V30 1122 H 100.019 -1.52842 4.79216 0
M  V30 1123 H 99.7189 -0.145374 5.8742 0
M  V30 1124 H 101.243 -1.06757 6.01195 0
M  V30 1125 H 102.657 1.16849 5.61266 0
M  V30 1126 H 101.054 1.95739 5.6728 0
M  V30 1127 H 102.124 2.25746 4.29147 0
M  V30 1128 N 103.467 -1.45747 0.599634 0
M  V30 1129 C 104.713 -2.03153 0.100263 0
M  V30 1130 C 105.068 -1.46073 -1.25221 0
M  V30 1131 O 104.361 -0.622878 -1.81193 0
M  V30 1132 C 104.555 -3.57399 -0.00602758 0
M  V30 1133 C 104.384 -4.2944 1.3346 0
M  V30 1134 C 103.154 -4.6768 1.91321 0
M  V30 1135 C 105.352 -4.61905 2.2616 0
M  V30 1136 N 103.334 -5.24544 3.18946 0
M  V30 1137 C 104.705 -5.19518 3.3838 0
M  V30 1138 C 106.76 -4.43841 2.25631 0
M  V30 1139 C 105.463 -5.60972 4.50226 0
M  V30 1140 C 107.489 -4.86322 3.36518 0
M  V30 1141 C 106.851 -5.44021 4.4746 0
M  V30 1142 H 102.95 -0.777911 0.0798696 0
M  V30 1143 H 105.534 -1.77674 0.796244 0
M  V30 1144 H 103.705 -3.82556 -0.671212 0
M  V30 1145 H 105.437 -4.01457 -0.51133 0
M  V30 1146 H 102.192 -4.5098 1.44617 0
M  V30 1147 H 102.616 -5.57483 3.84112 0
M  V30 1148 H 107.258 -3.98552 1.41123 0
M  V30 1149 H 104.976 -6.0523 5.35464 0
M  V30 1150 H 108.562 -4.74084 3.37247 0
M  V30 1151 H 107.442 -5.76289 5.31846 0
M  V30 1152 N 104.945 -0.338344 -1.53925 0
M  V30 1153 C 106.191 0.260143 -2.01125 0
M  V30 1154 C 106.524 1.50617 -1.22589 0
M  V30 1155 O 105.799 1.91979 -0.312113 0
M  V30 1156 C 106.082 0.579499 -3.55407 0
M  V30 1157 C 105.935 -0.678264 -4.44657 0
M  V30 1158 C 107.254 1.39122 -4.17532 0
M  V30 1159 H 104.373 0.0930772 -0.731099 0
M  V30 1160 H 107.015 -0.457852 -1.84401 0
M  V30 1161 H 105.165 1.19118 -3.69788 0
M  V30 1162 H 106.837 -1.31631 -4.42121 0
M  V30 1163 H 105.08 -1.3042 -4.13731 0
M  V30 1164 H 105.751 -0.410143 -5.50474 0
M  V30 1165 H 108.227 0.874035 -4.06817 0
M  V30 1166 H 107.103 1.58342 -5.25565 0
M  V30 1167 H 107.364 2.39178 -3.71815 0
M  V30 1168 N 106.423 1.57458 -0.0668435 0
M  V30 1169 C 107.7 1.8469 0.644132 0
M  V30 1170 C 108.08 0.958343 1.88093 0
M  V30 1171 O 107.428 0.0233579 2.28488 0
M  V30 1172 C 107.638 3.34767 0.986509 0
M  V30 1173 C 108.986 4.02159 1.36212 0
M  V30 1174 O 110.01 3.39484 1.07839 0
M  V30 1175 O 108.869 5.12694 1.89227 0
M  V30 1176 H 105.963 0.762816 0.319437 0
M  V30 1177 H 108.509 1.6942 -0.0973986 0
M  V30 1178 H 107.281 3.91151 0.107883 0
M  V30 1179 H 106.904 3.55281 1.78497 0
M  V30 1180 N 107.901 -0.206675 1.56239 0
M  V30 1181 C 109.149 -0.927007 1.79586 0
M  V30 1182 C 109.47 -1.8427 0.637929 0
M  V30 1183 O 108.74 -1.92849 -0.344398 0
M  V30 1184 H 107.32 -0.345292 0.662407 0
M  V30 1185 H 109.982 -0.21496 1.93711 0
M  V30 1186 H 109.078 -1.52501 2.72305 0
M  V30 1187 N 109.379 -1.50304 -0.473955 0
M  V30 1188 C 110.795 -1.37667 -0.807466 0
M  V30 1189 C 110.995 -0.430555 -1.96846 0
M  V30 1190 O 110.051 0.127874 -2.52176 0
M  V30 1191 C 111.364 -2.78974 -1.12223 0
M  V30 1192 C 112.912 -2.87868 -1.22885 0
M  V30 1193 C 113.387 -4.30003 -1.57676 0
M  V30 1194 N 114.878 -4.3294 -1.64673 0
M  V30 1195 C 115.613 -5.3991 -1.93091 0
M  V30 1196 N 115.109 -6.57092 -2.1955 0
M  V30 1197 N 116.902 -5.27351 -1.94569 0
M  V30 1198 H 109.053 -2.10394 0.291212 0
M  V30 1199 H 111.316 -0.945575 0.0677609 0
M  V30 1200 H 111.022 -3.50031 -0.342229 0
M  V30 1201 H 110.896 -3.16038 -2.05913 0
M  V30 1202 H 113.283 -2.17032 -1.99953 0
M  V30 1203 H 113.364 -2.54352 -0.271814 0
M  V30 1204 H 113.008 -5.01375 -0.81149 0
M  V30 1205 H 112.938 -4.61004 -2.54525 0
M  V30 1206 H 115.429 -3.48441 -1.46277 0
M  V30 1207 H 115.742 -7.34425 -2.405 0
M  V30 1208 H 114.087 -6.60272 -2.16948 0
M  V30 1209 H 117.278 -4.34801 -1.73394 0
M  V30 1210 H 117.451 -6.10805 -2.16381 0
M  V30 1211 N 110.857 0.726932 -1.39834 0
M  V30 1212 C 112.273 1.03354 -1.21615 0
M  V30 1213 C 112.473 2.01327 -0.08338 0
M  V30 1214 O 111.529 2.46158 0.56238 0
M  V30 1215 C 112.842 1.58811 -2.55342 0
M  V30 1216 C 114.39 1.70851 -2.62257 0
M  V30 1217 C 114.865 2.29716 -3.96225 0
M  V30 1218 N 116.356 2.37116 -3.97907 0
M  V30 1219 C 117.091 2.83619 -4.98345 0
M  V30 1220 N 116.587 3.29958 -6.09179 0
M  V30 1221 N 118.38 2.82901 -4.8572 0
M  V30 1222 H 110.531 0.0773069 -2.12259 0
M  V30 1223 H 112.794 0.0969102 -0.943034 0
M  V30 1224 H 112.5 0.942855 -3.38826 0
M  V30 1225 H 112.374 2.57502 -2.75632 0
M  V30 1226 H 114.761 2.34497 -1.79152 0
M  V30 1227 H 114.842 0.707913 -2.45809 0
M  V30 1228 H 114.486 1.66696 -4.79765 0
M  V30 1229 H 114.416 3.30469 -4.09997 0
M  V30 1230 H 116.907 2.04374 -3.17868 0
M  V30 1231 H 117.22 3.63976 -6.8172 0
M  V30 1232 H 115.565 3.27946 -6.12761 0
M  V30 1233 H 118.756 2.46027 -3.98231 0
M  V30 1234 H 118.929 3.18827 -5.6414 0
M  V30 1235 N 112.336 1.25143 0.95797 0
M  V30 1236 C 113.246 1.06968 2.08794 0
M  V30 1237 C 114.262 0.00773911 1.73998 0
M  V30 1238 O 115.438 0.207972 2.00323 0
M  V30 1239 C 112.503 0.68691 3.39827 0
M  V30 1240 C 111.564 1.82641 3.88511 0
M  V30 1241 C 110.797 1.46181 5.1329 0
M  V30 1242 O 111.02 0.355971 5.69288 0
M  V30 1243 O 109.954 2.29085 5.566 0
M  V30 1244 H 113.78 2.01723 2.27027 0
M  V30 1245 H 111.365 1.04051 1.07209 0
M  V30 1246 H 113.247 0.485417 4.18595 0
M  V30 1247 H 111.922 -0.231417 3.22872 0
M  V30 1248 H 110.829 2.08274 3.10762 0
M  V30 1249 H 112.162 2.72386 4.09959 0
M  V30 1250 N 113.814 -1.1601 1.06675 0
M  V30 1251 C 115.23 -1.38622 0.790948 0
M  V30 1252 C 115.43 -1.92109 -0.607965 0
M  V30 1253 O 114.486 -2.12239 -1.36787 0
M  V30 1254 C 115.799 -2.36347 1.85905 0
M  V30 1255 C 117.347 -2.50023 1.88301 0
M  V30 1256 C 117.822 -3.51033 2.94176 0
M  V30 1257 N 119.313 -3.58563 2.93235 0
M  V30 1258 C 120.048 -4.36521 3.71803 0
M  V30 1259 N 119.544 -5.17869 4.602 0
M  V30 1260 N 121.337 -4.31541 3.60178 0
M  V30 1261 H 113.488 -0.796294 1.96908 0
M  V30 1262 H 115.751 -0.412597 0.853503 0
M  V30 1263 H 115.457 -2.04147 2.86386 0
M  V30 1264 H 115.331 -3.36042 1.71334 0
M  V30 1265 H 117.718 -2.81524 0.884769 0
M  V30 1266 H 117.799 -1.5035 2.06951 0
M  V30 1267 H 117.443 -3.20268 3.94196 0
M  V30 1268 H 117.373 -4.50445 2.72776 0
M  V30 1269 H 119.864 -3.00496 2.29152 0
M  V30 1270 H 120.177 -5.74578 5.16797 0
M  V30 1271 H 118.522 -5.17199 4.64253 0
M  V30 1272 H 121.713 -3.67051 2.90502 0
M  V30 1273 H 121.886 -4.9205 4.21653 0
M  V30 1274 N 115.292 -0.849877 -1.32721 0
M  V30 1275 C 116.255 -0.296122 -2.27279 0
M  V30 1276 C 117.255 0.541458 -1.5141 0
M  V30 1277 O 118.445 0.353658 -1.70572 0
M  V30 1278 C 115.577 0.581579 -3.35902 0
M  V30 1279 H 116.77 -1.13064 -2.77771 0
M  V30 1280 H 114.323 -0.62383 -1.43311 0
M  V30 1281 H 115.058 1.43809 -2.9067 0
M  V30 1282 H 114.843 -0.0178814 -3.92096 0
M  V30 1283 H 116.333 0.961951 -4.0637 0
M  V30 1284 N 116.77 1.45427 -0.607355 0
M  V30 1285 C 118.047 1.9557 -0.0344566 0
M  V30 1286 C 118.427 1.54979 1.43334 0
M  V30 1287 O 117.775 0.812241 2.13576 0
M  V30 1288 C 117.985 3.48226 -0.232321 0
M  V30 1289 C 119.333 4.2445 -0.113001 0
M  V30 1290 O 120.357 3.55829 -0.162431 0
M  V30 1291 O 119.216 5.465 0.00209442 0
M  V30 1292 H 116.31 0.826222 0.0358667 0
M  V30 1293 H 118.856 1.55594 -0.6774 0
M  V30 1294 H 117.628 3.70739 -1.25174 0
M  V30 1295 H 117.251 3.95092 0.445896 0
M  V30 1296 N 118.248 0.346503 1.53744 0
M  V30 1297 C 119.178 -0.501193 2.28058 0
M  V30 1298 C 120.159 -1.10014 1.29734 0
M  V30 1299 O 121.344 -1.12097 1.58581 0
M  V30 1300 C 118.474 -1.65078 3.05559 0
M  V30 1301 C 117.428 -1.18003 4.11411 0
M  V30 1302 C 116.754 -2.41837 4.76884 0
M  V30 1303 C 118.054 -0.278394 5.21558 0
M  V30 1304 H 119.748 0.11875 2.99164 0
M  V30 1305 H 117.294 0.0585531 1.43881 0
M  V30 1306 H 119.247 -2.25028 3.56287 0
M  V30 1307 H 117.971 -2.29767 2.32109 0
M  V30 1308 H 116.63 -0.603331 3.61601 0
M  V30 1309 H 116.278 -3.0494 4.00026 0
M  V30 1310 H 115.978 -2.1102 5.48402 0
M  V30 1311 H 117.502 -3.02508 5.30397 0
M  V30 1312 H 118.916 -0.784823 5.67903 0
M  V30 1313 H 117.313 -0.0619707 6.00068 0
M  V30 1314 H 118.383 0.684677 4.80042 0
M  V30 1315 N 119.726 -1.57421 0.075193 0
M  V30 1316 C 120.673 -2.12915 -0.890843 0
M  V30 1317 C 121.643 -1.04252 -1.29309 0
M  V30 1318 O 122.828 -1.31933 -1.37834 0
M  V30 1319 C 119.968 -2.69795 -2.15186 0
M  V30 1320 C 119.081 -3.92624 -1.80194 0
M  V30 1321 C 118.216 -4.37736 -3.00933 0
M  V30 1322 C 117.255 -5.53205 -2.61974 0
M  V30 1323 N 116.392 -5.9326 -3.75483 0
M  V30 1324 H 121.232 -2.95156 -0.410735 0
M  V30 1325 H 118.769 -1.45854 -0.191086 0
M  V30 1326 H 120.727 -3.00883 -2.89008 0
M  V30 1327 H 119.357 -1.90313 -2.60731 0
M  V30 1328 H 118.409 -3.67977 -0.964218 0
M  V30 1329 H 119.721 -4.76482 -1.47534 0
M  V30 1330 H 118.875 -4.70503 -3.8303 0
M  V30 1331 H 117.614 -3.52739 -3.36789 0
M  V30 1332 H 116.619 -5.20086 -1.783 0
M  V30 1333 H 117.844 -6.39936 -2.27284 0
M  V30 1334 H 115.79 -5.11212 -4.11094 0
M  V30 1335 H 115.707 -6.71865 -3.46602 0
M  V30 1336 H 116.975 -6.30651 -4.58148 0
M  V30 1337 N 121.204 0.198386 -1.56346 0
M  V30 1338 C 122.114 1.2664 -1.97483 0
M  V30 1339 C 123.13 1.49989 -0.882002 0
M  V30 1340 O 124.306 1.62668 -1.18748 0
M  V30 1341 C 121.371 2.59141 -2.30319 0
M  V30 1342 C 120.432 2.43892 -3.53292 0
M  V30 1343 C 119.665 3.70074 -3.84553 0
M  V30 1344 O 119.888 4.74101 -3.1715 0
M  V30 1345 O 118.822 3.658 -4.7799 0
M  V30 1346 H 122.648 0.947304 -2.88548 0
M  V30 1347 H 120.233 0.403123 -1.43859 0
M  V30 1348 H 122.115 3.37352 -2.5253 0
M  V30 1349 H 120.79 2.90684 -1.42423 0
M  V30 1350 H 119.697 1.63803 -3.36332 0
M  V30 1351 H 121.03 2.17282 -4.41644 0
M  V30 1352 N 122.682 1.50554 0.465978 0
M  V30 1353 C 123.93 1.61479 1.21528 0
M  V30 1354 C 124.251 0.319596 1.92363 0
M  V30 1355 O 123.521 -0.663194 1.84333 0
M  V30 1356 H 122.101 0.595055 0.451573 0
M  V30 1357 H 124.763 1.87355 0.53704 0
M  V30 1358 H 123.859 2.42846 1.96042 0
M  V30 1359 N 124.16 -0.719506 1.40217 0
M  V30 1360 C 125.437 -1.47221 1.28784 0
M  V30 1361 C 125.817 -2.10883 -0.0956067 0
M  V30 1362 O 125.165 -1.99833 -1.10811 0
M  V30 1363 C 125.375 -2.5111 2.42373 0
M  V30 1364 C 126.723 -3.17053 2.82423 0
M  V30 1365 O 127.747 -2.61429 2.41937 0
M  V30 1366 O 126.606 -4.17742 3.52355 0
M  V30 1367 H 123.7 -0.654491 0.50554 0
M  V30 1368 H 126.246 -0.752014 1.52128 0
M  V30 1369 H 125.018 -2.02556 3.34793 0
M  V30 1370 H 124.641 -3.3067 2.20778 0
M  V30 1371 N 125.638 -1.25649 -0.95132 0
M  V30 1372 C 126.887 -1.09988 -1.69073 0
M  V30 1373 C 127.2 0.358355 -1.92289 0
M  V30 1374 O 128.406 0.635466 -2.63958 0
M  V30 1375 C 126.862 -1.92012 -3.044 0
M  V30 1376 C 126.47 -3.42347 -2.88968 0
M  V30 1377 C 128.214 -1.8493 -3.82101 0
M  V30 1378 C 126.121 -4.16655 -4.19705 0
M  V30 1379 H 125.051 -0.407993 -0.63408 0
M  V30 1380 H 127.702 -1.49873 -1.05879 0
M  V30 1381 H 126.084 -1.44952 -3.68517 0
M  V30 1382 H 127.258 -3.97104 -2.33762 0
M  V30 1383 H 125.573 -3.50557 -2.24719 0
M  V30 1384 H 128.17 -2.37739 -4.78941 0
M  V30 1385 H 128.513 -0.817883 -4.08187 0
M  V30 1386 H 129.046 -2.29758 -3.2474 0
M  V30 1387 H 125.785 -5.20224 -3.98807 0
M  V30 1388 H 125.305 -3.66681 -4.74663 0
M  V30 1389 H 126.984 -4.24551 -4.88227 0
M  V30 1390 N 127.117 1.15442 -1.07289 0
M  V30 1391 C 128.364 1.86213 -0.795668 0
M  V30 1392 C 128.692 1.82291 0.678238 0
M  V30 1393 O 127.947 1.24057 1.51355 0
M  V30 1394 C 128.246 3.3489 -1.24834 0
M  V30 1395 C 127.912 3.59007 -2.72809 0
M  V30 1396 C 126.574 3.65298 -3.13227 0
M  V30 1397 C 128.926 3.68762 -3.68326 0
M  V30 1398 C 126.254 3.78854 -4.4798 0
M  V30 1399 C 128.606 3.83842 -5.0284 0
M  V30 1400 C 127.27 3.88378 -5.4288 0
M  V30 1401 H 126.54 0.681403 -0.291155 0
M  V30 1402 H 129.187 1.36435 -1.34379 0
M  V30 1403 H 127.492 3.8687 -0.619595 0
M  V30 1404 H 129.189 3.88052 -1.01076 0
M  V30 1405 H 125.779 3.5475 -2.40521 0
M  V30 1406 H 129.963 3.63202 -3.38227 0
M  V30 1407 H 125.219 3.80623 -4.78472 0
M  V30 1408 H 129.393 3.90332 -5.76727 0
M  V30 1409 H 127.02 3.98635 -6.47298 0
M  V30 1410 N 128.595 0.856903 1.32268 0
M  V30 1411 C 129.525 0.31858 2.31316 0
M  V30 1412 C 130.506 -0.583487 1.59779 0
M  V30 1413 O 131.691 -0.503259 1.87566 0
M  V30 1414 C 128.821 -0.491979 3.43798 0
M  V30 1415 C 127.775 0.315849 4.26833 0
M  V30 1416 C 127.101 -0.619586 5.31098 0
M  V30 1417 C 128.401 1.54282 4.98993 0
M  V30 1418 H 130.095 1.14621 2.76591 0
M  V30 1419 H 127.641 0.552613 1.32974 0
M  V30 1420 H 129.594 -0.879012 4.1213 0
M  V30 1421 H 128.318 -1.35299 2.97257 0
M  V30 1422 H 126.977 0.684664 3.6015 0
M  V30 1423 H 126.625 -1.47751 4.8081 0
M  V30 1424 H 126.325 -0.0830621 5.87541 0
M  V30 1425 H 127.849 -1.00375 6.02293 0
M  V30 1426 H 129.263 1.22796 5.59995 0
M  V30 1427 H 127.66 2.01745 5.65172 0
M  V30 1428 H 128.73 2.30285 4.26728 0
M  V30 1429 N 130.073 -1.45103 0.615059 0
M  V30 1430 C 131.003 -2.33339 -0.0865619 0
M  V30 1431 C 131.984 -1.4727 -0.851209 0
M  V30 1432 O 133.169 -1.76026 -0.820281 0
M  V30 1433 C 130.299 -3.30095 -1.07956 0
M  V30 1434 C 129.253 -4.25858 -0.427628 0
M  V30 1435 C 128.579 -5.12361 -1.5294 0
M  V30 1436 C 129.879 -5.18165 0.655944 0
M  V30 1437 H 131.573 -2.92254 0.650224 0
M  V30 1438 H 129.119 -1.40532 0.314138 0
M  V30 1439 H 131.072 -3.90698 -1.57901 0
M  V30 1440 H 129.796 -2.69355 -1.84703 0
M  V30 1441 H 128.455 -3.66564 0.0510292 0
M  V30 1442 H 128.103 -4.47984 -2.28734 0
M  V30 1443 H 127.803 -5.77238 -1.09865 0
M  V30 1444 H 129.327 -5.75833 -2.03098 0
M  V30 1445 H 130.741 -5.72796 0.240257 0
M  V30 1446 H 129.138 -5.91559 1.00888 0
M  V30 1447 H 130.208 -4.60144 1.52957 0
M  V30 1448 N 131.551 -0.354651 -1.53558 0
M  V30 1449 C 132.962 0.126902 -1.86268 0
M  V30 1450 C 133.313 1.49075 -1.27558 0
M  V30 1451 O 132.438 2.08105 -0.5934 0
M  V30 1452 C 133.033 0.237046 -3.3797 0
M  V30 1453 C 131.592 0.662842 -3.70518 0
M  V30 1454 C 130.739 -0.196652 -2.76602 0
M  V30 1455 H 133.69 -0.573849 -1.47962 0
M  V30 1456 H 133.711 1.06259 -3.65362 0
M  V30 1457 H 133.223 -0.755725 -3.80671 0
M  V30 1458 H 131.324 1.66424 -3.33367 0
M  V30 1459 H 131.437 0.445034 -4.77029 0
M  V30 1460 H 129.801 0.332763 -2.52517 0
M  V30 1461 H 130.584 -1.18676 -3.22135 0
M  V30 1462 N 133.029 1.57378 -0.0835403 0
M  V30 1463 C 134.44 1.81261 0.447358 0
M  V30 1464 C 134.791 0.998331 1.68902 0
M  V30 1465 O 133.916 0.224282 2.15235 0
M  V30 1466 C 134.511 3.28767 0.818386 0
M  V30 1467 C 133.07 3.53455 1.29409 0
M  V30 1468 C 132.217 2.75831 0.285024 0
M  V30 1469 H 135.168 1.5566 -0.309115 0
M  V30 1470 H 135.189 3.41459 1.67887 0
M  V30 1471 H 134.701 3.88006 -0.0855019 0
M  V30 1472 H 132.802 2.99534 2.21608 0
M  V30 1473 H 132.915 4.62128 1.2639 0
M  V30 1474 H 131.279 2.42947 0.764767 0
M  V30 1475 H 132.062 3.37813 -0.611341 0
M  V30 1476 N 134.507 -0.190092 1.56449 0
M  V30 1477 C 135.457 -1.23977 1.91347 0
M  V30 1478 C 136.441 -1.40747 0.779693 0
M  V30 1479 O 137.633 -1.43033 1.04262 0
M  V30 1480 C 134.762 -2.58347 2.26079 0
M  V30 1481 C 133.848 -2.4535 3.45925 0
M  V30 1482 N 134.239 -2.02039 4.63696 0
M  V30 1483 C 132.537 -2.76229 3.50162 0
M  V30 1484 C 133.238 -2.01053 5.4585 0
M  V30 1485 N 132.214 -2.42747 4.8639 0
M  V30 1486 H 136.016 -0.896318 2.79899 0
M  V30 1487 H 133.53 -0.398496 1.57435 0
M  V30 1488 H 135.527 -3.34173 2.49267 0
M  V30 1489 H 134.187 -2.93512 1.38856 0
M  V30 1490 H 135.198 -1.7267 4.88268 0
M  V30 1491 H 131.875 -3.15556 2.73369 0
M  V30 1492 H 133.265 -1.69426 6.50188 0
M  V30 1493 N 135.985 -1.50799 -0.457987 0
M  V30 1494 C 137.231 -1.62683 -1.21088 0
M  V30 1495 C 137.564 -0.332268 -1.91336 0
M  V30 1496 O 136.839 0.667043 -1.82704 0
M  V30 1497 C 137.122 -2.81615 -2.24422 0
M  V30 1498 C 136.975 -4.20989 -1.58392 0
M  V30 1499 C 138.294 -2.96085 -3.2561 0
M  V30 1500 H 135.413 -0.592087 -0.438864 0
M  V30 1501 H 138.055 -1.83225 -0.50286 0
M  V30 1502 H 136.205 -2.64231 -2.84806 0
M  V30 1503 H 137.877 -4.49994 -1.01504 0
M  V30 1504 H 136.12 -4.24641 -0.886704 0
M  V30 1505 H 136.791 -5.0016 -2.33547 0
M  V30 1506 H 139.267 -3.12042 -2.75262 0
M  V30 1507 H 138.143 -3.80902 -3.95228 0
M  V30 1508 H 138.404 -2.0726 -3.90507 0
M  V30 1509 N 137.463 0.71206 -1.40597 0
M  V30 1510 C 138.879 1.02058 -1.22704 0
M  V30 1511 C 139.079 2.01228 -0.104729 0
M  V30 1512 O 138.135 2.4674 0.53624 0
M  V30 1513 C 139.448 1.56094 -2.57012 0
M  V30 1514 C 140.996 1.6806 -2.64054 0
M  V30 1515 C 141.471 2.25501 -3.9864 0
M  V30 1516 N 142.962 2.32882 -4.004 0
M  V30 1517 C 143.697 2.78317 -5.01325 0
M  V30 1518 N 143.193 3.23478 -6.12645 0
M  V30 1519 N 144.986 2.77733 -4.88693 0
M  V30 1520 H 137.137 0.0547896 -2.12329 0
M  V30 1521 H 139.4 0.0869027 -0.944008 0
M  V30 1522 H 139.106 0.906865 -3.39807 0
M  V30 1523 H 138.98 2.54564 -2.78347 0
M  V30 1524 H 141.367 2.32583 -1.81629 0
M  V30 1525 H 141.448 0.681802 -2.46546 0
M  V30 1526 H 141.092 1.61598 -4.81506 0
M  V30 1527 H 141.022 3.26102 -4.13479 0
M  V30 1528 H 143.513 2.00991 -3.20017 0
M  V30 1529 H 143.826 3.56725 -6.85542 0
M  V30 1530 H 142.171 3.21429 -6.16205 0
M  V30 1531 H 145.362 2.4179 -4.00818 0
M  V30 1532 H 145.535 3.12826 -5.67489 0
M  V30 1533 N 138.941 1.26152 0.944643 0
M  V30 1534 C 139.891 1.04081 2.02857 0
M  V30 1535 C 140.875 -0.0256555 1.6088 0
M  V30 1536 O 142.067 0.190884 1.75968 0
M  V30 1537 C 139.196 0.672118 3.36656 0
M  V30 1538 C 138.282 1.77586 3.85128 0
M  V30 1539 N 138.673 3.01272 4.06287 0
M  V30 1540 C 136.971 1.65867 4.1401 0
M  V30 1541 C 137.672 3.72983 4.46384 0
M  V30 1542 N 136.648 3.00653 4.52889 0
M  V30 1543 H 140.45 1.97968 2.17223 0
M  V30 1544 H 137.964 1.16618 1.13022 0
M  V30 1545 H 139.961 0.495166 4.13949 0
M  V30 1546 H 138.621 -0.259307 3.23663 0
M  V30 1547 H 139.632 3.37213 3.93075 0
M  V30 1548 H 136.309 0.796907 4.09824 0
M  V30 1549 H 137.699 4.792 4.70975 0
M  V30 1550 N 140.419 -1.14872 1.07899 0
M  V30 1551 C 141.644 -1.90202 0.826926 0
M  V30 1552 C 142.069 -1.77774 -0.614664 0
M  V30 1553 O 141.427 -1.11431 -1.43013 0
M  V30 1554 C 141.475 -3.38352 1.24702 0
M  V30 1555 O 140.579 -4.10497 0.39575 0
M  V30 1556 H 139.92 -0.591968 0.300782 0
M  V30 1557 H 142.45 -1.45437 1.43907 0
M  V30 1558 H 142.46 -3.89156 1.22563 0
M  V30 1559 H 141.135 -3.46715 2.29698 0
M  V30 1560 H 139.712 -3.69796 0.480117 0
M  V30 1561 N 141.898 -0.863906 -1.31812 0
M  V30 1562 C 143.309 -0.52522 -1.7916 0
M  V30 1563 C 143.66 0.957518 -1.71248 0
M  V30 1564 O 142.785 1.74734 -1.27659 0
M  V30 1565 C 143.38 -0.9466 -3.25307 0
M  V30 1566 C 141.939 -0.659668 -3.70574 0
M  V30 1567 C 141.086 -1.14126 -2.52726 0
M  V30 1568 H 144.037 -1.05022 -1.1898 0
M  V30 1569 H 144.058 -0.266766 -3.79564 0
M  V30 1570 H 143.57 -2.02579 -3.31034 0
M  V30 1571 H 141.671 0.408416 -3.70355 0
M  V30 1572 H 141.784 -1.23245 -4.62977 0
M  V30 1573 H 140.148 -0.561216 -2.4844 0
M  V30 1574 H 140.931 -2.22775 -2.61201 0
M  V30 1575 N 143.376 1.44774 -0.622745 0
M  V30 1576 C 144.308 2.28856 0.125485 0
M  V30 1577 C 145.321 1.40811 0.817069 0
M  V30 1578 O 146.51 1.65044 0.679918 0
M  V30 1579 C 143.61 3.16963 1.19949 0
M  V30 1580 C 142.783 4.33374 0.592064 0
M  V30 1581 C 141.842 5.02577 1.55893 0
M  V30 1582 O 140.868 5.58873 1.07933 0
M  V30 1583 N 142.07 5.03256 2.89334 0
M  V30 1584 H 144.835 2.93713 -0.596068 0
M  V30 1585 H 142.396 1.55129 -0.463303 0
M  V30 1586 H 144.388 3.60123 1.84644 0
M  V30 1587 H 142.958 2.53913 1.82337 0
M  V30 1588 H 142.178 3.93509 -0.233322 0
M  V30 1589 H 143.466 5.08527 0.166738 0
M  V30 1590 H 142.864 4.58836 3.30887 0
M  V30 1591 H 141.421 5.50232 3.49412 0
M  V30 1592 N 144.854 0.36279 1.53368 0
M  V30 1593 C 146.27 0.0116182 1.59596 0
M  V30 1594 C 146.47 -1.47012 1.37803 0
M  V30 1595 O 145.526 -2.23136 1.18181 0
M  V30 1596 C 146.839 0.465052 2.97082 0
M  V30 1597 C 148.387 0.419033 3.10182 0
M  V30 1598 C 148.862 0.848235 4.50077 0
M  V30 1599 N 150.353 0.803183 4.56183 0
M  V30 1600 C 151.088 1.107 5.62613 0
M  V30 1601 N 150.584 1.47996 6.76808 0
M  V30 1602 N 152.377 1.02998 5.52583 0
M  V30 1603 H 144.528 1.32775 1.65785 0
M  V30 1604 H 146.791 0.542518 0.777417 0
M  V30 1605 H 146.497 1.49892 3.18159 0
M  V30 1606 H 146.371 -0.149786 3.76902 0
M  V30 1607 H 148.758 -0.605696 2.88817 0
M  V30 1608 H 148.839 1.06933 2.32377 0
M  V30 1609 H 148.483 1.87107 4.7218 0
M  V30 1610 H 148.413 0.175218 5.26308 0
M  V30 1611 H 150.904 0.52838 3.74188 0
M  V30 1612 H 151.217 1.69613 7.53957 0
M  V30 1613 H 149.562 1.51859 6.78206 0
M  V30 1614 H 152.753 0.737817 4.62249 0
M  V30 1615 H 152.926 1.2701 6.35431 0
M  V30 1616 N 146.332 -1.57332 0.0918853 0
M  V30 1617 C 147.743 -1.81496 -0.437739 0
M  V30 1618 C 148.094 -1.00727 -1.6837 0
M  V30 1619 O 147.219 -0.235694 -2.15113 0
M  V30 1620 C 147.814 -3.29197 -0.800939 0
M  V30 1621 C 146.373 -3.54136 -1.27532 0
M  V30 1622 C 145.52 -2.75979 -0.270392 0
M  V30 1623 H 148.471 -1.55494 0.317366 0
M  V30 1624 H 148.492 -3.42344 -1.66074 0
M  V30 1625 H 148.004 -3.87955 0.106078 0
M  V30 1626 H 146.105 -3.00705 -2.20016 0
M  V30 1627 H 146.218 -4.62792 -1.23938 0
M  V30 1628 H 144.582 -2.43349 -0.751872 0
M  V30 1629 H 145.365 -3.37484 0.629248 0
M  V30 1630 N 147.81 0.181792 -1.56548 0
M  V30 1631 C 148.72 1.24538 -1.98815 0
M  V30 1632 C 149.736 1.49045 -0.897861 0
M  V30 1633 O 150.912 1.61399 -1.20467 0
M  V30 1634 C 147.977 2.56683 -2.33055 0
M  V30 1635 C 147.038 2.40131 -3.55859 0
M  V30 1636 C 146.271 3.65975 -3.88456 0
M  V30 1637 O 146.494 4.70711 -3.22161 0
M  V30 1638 O 145.428 3.6071 -4.81842 0
M  V30 1639 H 149.254 0.916647 -2.89536 0
M  V30 1640 H 146.839 0.387842 -1.44278 0
M  V30 1641 H 148.721 3.34655 -2.56094 0
M  V30 1642 H 147.396 2.89157 -1.45498 0
M  V30 1643 H 146.303 1.60226 -3.38051 0
M  V30 1644 H 147.636 2.12585 -4.43924 0
M  V30 1645 N 149.288 1.51039 0.449983 0
M  V30 1646 C 150.251 1.70863 1.5277 0
M  V30 1647 C 151.251 0.578846 1.5002 0
M  V30 1648 O 152.441 0.846213 1.52266 0
M  V30 1649 C 149.573 1.75341 2.9235 0
M  V30 1650 H 150.766 2.67034 1.36502 0
M  V30 1651 H 148.319 1.40838 0.677812 0
M  V30 1652 H 149.054 0.809383 3.14037 0
M  V30 1653 H 148.839 2.57436 2.95752 0
M  V30 1654 H 150.329 1.92559 3.70555 0
M  V30 1655 N 150.766 -0.704594 1.40972 0
M  V30 1656 C 152.014 -1.46169 1.39568 0
M  V30 1657 C 152.335 -1.95 0.00253745 0
M  V30 1658 O 151.605 -1.71095 -0.954114 0
M  V30 1659 H 150.185 -0.542326 0.513704 0
M  V30 1660 H 152.847 -0.834553 1.76128 0
M  V30 1661 H 151.943 -2.32922 2.07735 0
M  V30 1662 N 152.244 -1.26651 -0.937939 0
M  V30 1663 C 153.469 -1.15279 -1.72411 0
M  V30 1664 C 153.894 0.287866 -1.85884 0
M  V30 1665 O 153.252 1.20855 -1.35143 0
M  V30 1666 C 153.3 -1.83028 -3.10698 0
M  V30 1667 O 152.404 -1.12128 -3.96864 0
M  V30 1668 H 151.745 -0.401504 -0.528858 0
M  V30 1669 H 154.275 -1.67531 -1.1745 0
M  V30 1670 H 154.285 -1.89981 -3.6107 0
M  V30 1671 H 152.96 -2.87833 -3.00208 0
M  V30 1672 H 151.537 -1.13173 -3.55312 0
M  V30 1673 N 153.722 1.14298 -1.08507 0
M  V30 1674 C 154.685 2.17607 -0.719711 0
M  V30 1675 C 155.685 1.58907 0.245997 0
M  V30 1676 O 156.875 1.74181 0.0254081 0
M  V30 1677 C 154.007 3.40842 -0.0627695 0
M  V30 1678 H 155.2 2.51443 -1.63452 0
M  V30 1679 H 152.753 1.28963 -0.88307 0
M  V30 1680 H 153.488 3.12587 0.863716 0
M  V30 1681 H 153.273 3.84713 -0.757504 0
M  V30 1682 H 154.763 4.17221 0.177786 0
M  V30 1683 N 155.201 0.870884 1.31352 0
M  V30 1684 C 156.441 0.488783 1.9847 0
M  V30 1685 C 156.805 -0.941536 1.67329 0
M  V30 1686 O 158.006 -1.42903 2.27667 0
M  V30 1687 C 156.277 0.739688 3.49662 0
M  V30 1688 S 157.836 0.457582 4.36408 0
M  V30 1689 H 154.654 0.18242 0.6872 0
M  V30 1690 H 157.256 1.12711 1.59739 0
M  V30 1691 H 155.96 1.77944 3.69816 0
M  V30 1692 H 155.491 0.0883905 3.93301 0
M  V30 1693 H 157.506 -0.709752 4.91098 0
M  V30 1694 N 156.679 -1.44442 0.630414 0
M  V30 1695 C 157.609 -2.33418 -0.0618083 0
M  V30 1696 C 158.59 -1.48165 -0.835541 0
M  V30 1697 O 159.775 -1.76886 -0.801564 0
M  V30 1698 C 156.905 -3.31222 -1.04449 0
M  V30 1699 C 155.859 -4.26288 -0.382436 0
M  V30 1700 C 155.185 -5.13954 -1.47497 0
M  V30 1701 C 156.485 -5.1744 0.710865 0
M  V30 1702 H 158.179 -2.91548 0.681184 0
M  V30 1703 H 155.725 -1.40191 0.329026 0
M  V30 1704 H 157.678 -3.92351 -1.53748 0
M  V30 1705 H 156.402 -2.71299 -1.81836 0
M  V30 1706 H 155.061 -3.6649 0.0899054 0
M  V30 1707 H 154.709 -4.50385 -2.2397 0
M  V30 1708 H 154.409 -5.7837 -1.03737 0
M  V30 1709 H 155.933 -5.77955 -1.96979 0
M  V30 1710 H 157.347 -5.72509 0.300996 0
M  V30 1711 H 155.744 -5.90455 1.07156 0
M  V30 1712 H 156.814 -4.58496 1.57829 0
M  V30 1713 N 158.157 -0.370918 -1.53173 0
M  V30 1714 C 159.403 0.217423 -2.01631 0
M  V30 1715 C 159.736 1.47983 -1.25756 0
M  V30 1716 O 159.011 1.91274 -0.352764 0
M  V30 1717 C 159.294 0.503982 -3.56556 0
M  V30 1718 C 159.147 -0.77243 -4.43118 0
M  V30 1719 C 160.466 1.30234 -4.20389 0
M  V30 1720 H 157.585 0.0775486 -0.732909 0
M  V30 1721 H 160.227 -0.496863 -1.83388 0
M  V30 1722 H 158.377 1.11248 -3.72231 0
M  V30 1723 H 160.049 -1.4098 -4.39229 0
M  V30 1724 H 158.292 -1.39167 -4.10871 0
M  V30 1725 H 158.963 -0.526815 -5.4948 0
M  V30 1726 H 161.439 0.787546 -4.08579 0
M  V30 1727 H 160.315 1.47158 -5.28806 0
M  V30 1728 H 160.576 2.31237 -3.76805 0
M  V30 1729 N 159.635 1.57281 -0.100228 0
M  V30 1730 C 160.884 1.93713 0.561984 0
M  V30 1731 C 161.197 0.984492 1.69018 0
M  V30 1732 O 162.403 1.24273 2.41389 0
M  V30 1733 C 160.859 3.4421 1.05106 0
M  V30 1734 C 160.467 4.47975 -0.0476628 0
M  V30 1735 C 162.211 3.89595 1.68571 0
M  V30 1736 C 160.118 5.89631 0.457055 0
M  V30 1737 H 159.048 0.723082 0.2137 0
M  V30 1738 H 161.699 1.82644 -0.177057 0
M  V30 1739 H 160.081 3.50449 1.84395 0
M  V30 1740 H 161.255 4.53385 -0.823333 0
M  V30 1741 H 159.57 4.1223 -0.587816 0
M  V30 1742 H 162.167 4.92832 2.07414 0
M  V30 1743 H 162.51 3.28526 2.55688 0
M  V30 1744 H 163.043 3.86078 0.958562 0
M  V30 1745 H 159.782 6.54411 -0.377616 0
M  V30 1746 H 159.302 5.87681 1.19962 0
M  V30 1747 H 160.981 6.40363 0.92437 0
M  V30 1748 N 161.113 -0.173488 1.56642 0
M  V30 1749 C 162.023 -1.23482 1.99473 0
M  V30 1750 C 163.039 -1.48567 0.905752 0
M  V30 1751 O 164.215 -1.60758 1.21321 0
M  V30 1752 C 161.28 -2.55444 2.34413 0
M  V30 1753 C 160.341 -2.38241 3.57127 0
M  V30 1754 C 159.574 -3.63909 3.90392 0
M  V30 1755 O 159.797 -4.68996 3.24653 0
M  V30 1756 O 158.731 -3.58149 4.83749 0
M  V30 1757 H 162.557 -0.901279 2.90018 0
M  V30 1758 H 160.142 -0.380185 1.44482 0
M  V30 1759 H 162.024 -3.33292 2.57865 0
M  V30 1760 H 160.699 -2.88382 1.4703 0
M  V30 1761 H 159.606 -1.58431 3.38896 0
M  V30 1762 H 160.939 -2.10228 4.45045 0
M  V30 1763 N 162.591 -1.51276 -0.441967 0
M  V30 1764 C 164.007 -1.39349 -0.778083 0
M  V30 1765 C 164.207 -0.472212 -1.95889 0
M  V30 1766 O 163.263 0.0743551 -2.5239 0
M  V30 1767 C 164.576 -2.81292 -1.0628 0
M  V30 1768 C 166.124 -2.9041 -1.16751 0
M  V30 1769 C 166.599 -4.33251 -1.48519 0
M  V30 1770 N 168.09 -4.36336 -1.55453 0
M  V30 1771 C 168.825 -5.43885 -1.81596 0
M  V30 1772 N 168.321 -6.61601 -2.05562 0
M  V30 1773 N 170.114 -5.3136 -1.8334 0
M  V30 1774 H 162.265 -2.09729 0.335774 0
M  V30 1775 H 164.528 -0.943925 0.0878028 0
M  V30 1776 H 164.234 -3.50678 -0.267905 0
M  V30 1777 H 164.108 -3.20334 -1.99163 0
M  V30 1778 H 166.495 -2.21225 -1.95304 0
M  V30 1779 H 166.576 -2.54871 -0.217801 0
M  V30 1780 H 166.22 -5.02984 -0.704958 0
M  V30 1781 H 166.15 -4.66299 -2.44689 0
M  V30 1782 H 168.641 -3.51466 -1.38853 0
M  V30 1783 H 168.954 -7.39361 -2.24867 0
M  V30 1784 H 167.299 -6.64725 -2.02894 0
M  V30 1785 H 170.49 -4.38382 -1.64132 0
M  V30 1786 H 170.663 -6.15258 -2.03377 0
M  V30 1787 N 164.069 0.697108 -1.41344 0
M  V30 1788 C 165.001 1.8224 -1.39001 0
M  V30 1789 C 166.014 1.60152 -0.292428 0
M  V30 1790 O 167.203 1.69684 -0.554048 0
M  V30 1791 C 164.303 3.18976 -1.14489 0
M  V30 1792 C 163.476 3.68105 -2.36258 0
M  V30 1793 C 162.535 4.83506 -2.07625 0
M  V30 1794 O 161.561 4.95201 -2.8065 0
M  V30 1795 N 162.763 5.70637 -1.06555 0
M  V30 1796 H 165.528 1.84742 -2.35988 0
M  V30 1797 H 163.089 0.87937 -1.35936 0
M  V30 1798 H 165.081 3.93801 -0.932885 0
M  V30 1799 H 163.651 3.11508 -0.261043 0
M  V30 1800 H 162.871 2.84204 -2.7317 0
M  V30 1801 H 164.159 3.97667 -3.17393 0
M  V30 1802 H 163.557 5.63817 -0.461125 0
M  V30 1803 H 162.114 6.45368 -0.913444 0
M  V30 1804 N 165.547 1.27147 0.931209 0
M  V30 1805 C 166.963 1.04475 1.20653 0
M  V30 1806 C 167.163 -0.223885 2.00252 0
M  V30 1807 O 166.219 -0.930332 2.34736 0
M  V30 1808 C 167.532 2.28209 1.95809 0
M  V30 1809 C 169.08 2.33211 2.08762 0
M  V30 1810 C 169.555 3.56665 2.87323 0
M  V30 1811 N 171.046 3.57201 2.94892 0
M  V30 1812 C 171.781 4.49395 3.56134 0
M  V30 1813 N 171.277 5.51889 4.18796 0
M  V30 1814 N 173.07 4.37026 3.53504 0
M  V30 1815 H 165.221 2.08612 0.399333 0
M  V30 1816 H 167.484 0.917312 0.239253 0
M  V30 1817 H 167.19 3.20538 1.44736 0
M  V30 1818 H 167.064 2.33247 2.96438 0
M  V30 1819 H 169.451 1.41391 2.59023 0
M  V30 1820 H 169.532 2.32178 1.07364 0
M  V30 1821 H 169.176 4.4882 2.37746 0
M  V30 1822 H 169.106 3.54948 3.88998 0
M  V30 1823 H 171.597 2.83074 2.50354 0
M  V30 1824 H 171.91 6.18409 4.63454 0
M  V30 1825 H 170.255 5.55735 4.17353 0
M  V30 1826 H 173.446 3.56166 3.03749 0
M  V30 1827 H 173.619 5.09067 4.00942 0
M  V30 1828 N 167.025 -1.13721 1.09112 0
M  V30 1829 C 168.436 -1.6648 0.845068 0
M  V30 1830 C 168.787 -1.85911 -0.62701 0
M  V30 1831 O 167.912 -1.57556 -1.48341 0
M  V30 1832 C 168.507 -3.02413 1.52748 0
M  V30 1833 C 167.066 -3.52176 1.32849 0
M  V30 1834 C 166.213 -2.27492 1.58564 0
M  V30 1835 H 169.164 -0.976872 1.25072 0
M  V30 1836 H 169.185 -3.68223 0.958752 0
M  V30 1837 H 168.697 -2.88238 2.59885 0
M  V30 1838 H 166.798 -3.7156 0.278137 0
M  V30 1839 H 166.911 -4.32499 2.0611 0
M  V30 1840 H 165.275 -2.33923 1.00758 0
M  V30 1841 H 166.058 -2.15886 2.66924 0
M  V30 1842 N 168.503 -0.877838 -1.30888 0
M  V30 1843 C 169.466 -0.344265 -2.266 0
M  V30 1844 C 170.466 0.50922 -1.52524 0
M  V30 1845 O 171.656 0.317398 -1.71284 0
M  V30 1846 C 168.788 0.510198 -3.37061 0
M  V30 1847 H 169.981 -1.1893 -2.7531 0
M  V30 1848 H 167.534 -0.654088 -1.41956 0
M  V30 1849 H 168.269 1.37612 -2.93655 0
M  V30 1850 H 168.054 -0.101047 -3.9197 0
M  V30 1851 H 169.544 0.875537 -4.08319 0
M  V30 1852 N 169.982 1.44106 -0.638065 0
M  V30 1853 C 171.23 2.01579 -0.145043 0
M  V30 1854 C 171.551 1.50496 1.24 0
M  V30 1855 O 170.821 0.711374 1.82527 0
M  V30 1856 H 169.401 0.745282 -0.05063 0
M  V30 1857 H 172.063 1.76516 -0.826327 0
M  V30 1858 H 171.159 3.11877 -0.118039 0
M  V30 1859 N 171.46 0.379036 1.52974 0
M  V30 1860 C 172.393 -0.504932 2.22544 0
M  V30 1861 C 173.371 -1.0723 1.22231 0
M  V30 1862 O 174.555 -1.12589 1.51182 0
M  V30 1863 C 171.682 -1.69794 2.93066 0
M  V30 1864 C 170.728 -1.25678 4.07563 0
M  V30 1865 S 171.561 -0.246852 5.34931 0
M  V30 1866 C 172.717 -1.44588 6.08971 0
M  V30 1867 H 172.95 0.0858666 2.97176 0
M  V30 1868 H 170.483 0.163183 1.53535 0
M  V30 1869 H 172.441 -2.38219 3.34308 0
M  V30 1870 H 171.102 -2.26002 2.18133 0
M  V30 1871 H 170.295 -2.14725 4.5597 0
M  V30 1872 H 169.897 -0.651584 3.6828 0
M  V30 1873 H 172.189 -2.37469 6.34519 0
M  V30 1874 H 173.132 -1.00292 7.00962 0
M  V30 1875 H 173.54 -1.65804 5.39601 0
M  V30 1876 N 172.938 -1.57226 0.108567 0
M  V30 1877 C 173.868 -2.17778 -0.84232 0
M  V30 1878 C 174.849 -1.11487 -1.2847 0
M  V30 1879 O 176.034 -1.39681 -1.34918 0
M  V30 1880 C 173.164 -2.76888 -2.09644 0
M  V30 1881 C 172.118 -3.88669 -1.79221 0
M  V30 1882 C 171.444 -4.34541 -3.11574 0
M  V30 1883 C 172.744 -5.11251 -1.06864 0
M  V30 1884 H 174.438 -2.97489 -0.337774 0
M  V30 1885 H 171.984 -1.43097 -0.161025 0
M  V30 1886 H 173.937 -3.17904 -2.76614 0
M  V30 1887 H 172.661 -1.94451 -2.62405 0
M  V30 1888 H 171.32 -3.48213 -1.14644 0
M  V30 1889 H 170.968 -3.48977 -3.62249 0
M  V30 1890 H 170.668 -5.09914 -2.91996 0
M  V30 1891 H 172.192 -4.782 -3.7968 0
M  V30 1892 H 173.606 -5.49352 -1.63968 0
M  V30 1893 H 172.003 -5.9214 -0.974178 0
M  V30 1894 H 173.073 -4.8487 -0.0536168 0
M  V30 1895 N 174.416 0.165178 -1.56732 0
M  V30 1896 C 175.693 0.908443 -1.73224 0
M  V30 1897 C 176.073 2.0013 -0.67165 0
M  V30 1898 O 175.421 2.26353 0.31253 0
M  V30 1899 C 175.631 1.46756 -3.16644 0
M  V30 1900 C 176.979 1.93809 -3.77787 0
M  V30 1901 O 178.003 1.56537 -3.1996 0
M  V30 1902 O 176.862 2.62486 -4.79336 0
M  V30 1903 H 173.956 0.428025 -0.707618 0
M  V30 1904 H 176.502 0.152526 -1.69013 0
M  V30 1905 H 175.274 0.68129 -3.85323 0
M  V30 1906 H 174.897 2.28749 -3.25207 0
M  V30 1907 N 175.894 1.51508 0.433938 0
M  V30 1908 C 177.142 1.6402 1.18075 0
M  V30 1909 C 177.463 0.360328 1.91642 0
M  V30 1910 O 176.733 -0.623945 1.85698 0
M  V30 1911 H 175.313 0.6045 0.43885 0
M  V30 1912 H 177.975 1.88452 0.497178 0
M  V30 1913 H 177.071 2.46949 1.90847 0
M  V30 1914 N 177.372 -0.689602 1.41712 0
M  V30 1915 C 178.619 -1.44966 1.4139 0
M  V30 1916 C 178.947 -1.94484 0.025105 0
M  V30 1917 O 178.202 -1.70307 -0.964048 0
M  V30 1918 C 178.501 -2.67298 2.37247 0
M  V30 1919 C 178.167 -2.36405 3.83958 0
M  V30 1920 C 176.829 -2.27691 4.23923 0
M  V30 1921 C 179.181 -2.11043 4.76561 0
M  V30 1922 C 176.509 -1.91719 5.54492 0
M  V30 1923 C 178.861 -1.76578 6.07456 0
M  V30 1924 C 177.525 -1.66363 6.46436 0
M  V30 1925 H 176.795 -0.53047 0.517381 0
M  V30 1926 H 179.442 -0.787655 1.74552 0
M  V30 1927 H 177.747 -3.38461 1.9736 0
M  V30 1928 H 179.444 -3.25452 2.34269 0
M  V30 1929 H 176.034 -2.44085 3.52308 0
M  V30 1930 H 180.218 -2.16717 4.46483 0
M  V30 1931 H 175.474 -1.82367 5.83568 0
M  V30 1932 H 179.648 -1.55974 6.78708 0
M  V30 1933 H 177.275 -1.38258 7.47522 0
M  V30 1934 N 178.85 -1.27639 -0.924453 0
M  V30 1935 C 179.76 -1.12466 -2.05885 0
M  V30 1936 C 180.776 -0.053869 -1.73917 0
M  V30 1937 O 181.952 -0.261012 -1.99702 0
M  V30 1938 C 179.017 -0.776768 -3.37886 0
M  V30 1939 C 178.078 -1.92878 -3.83532 0
M  V30 1940 C 177.311 -1.59739 -5.09234 0
M  V30 1941 O 177.534 -0.506782 -5.68144 0
M  V30 1942 O 176.468 -2.43761 -5.50331 0
M  V30 1943 H 180.294 -2.07671 -2.21599 0
M  V30 1944 H 177.879 -1.06857 -1.04413 0
M  V30 1945 H 179.761 -0.596229 -4.17161 0
M  V30 1946 H 178.436 0.145732 -3.23372 0
M  V30 1947 H 177.343 -2.1644 -3.0513 0
M  V30 1948 H 178.676 -2.8316 -4.02593 0
M  V30 1949 N 180.328 1.1314 -1.09713 0
M  V30 1950 C 181.574 1.84967 -0.846104 0
M  V30 1951 C 181.929 1.82082 0.621601 0
M  V30 1952 O 181.222 1.2501 1.452 0
M  V30 1953 C 181.416 3.32167 -1.3191 0
M  V30 1954 C 181.245 3.49386 -2.83125 0
M  V30 1955 C 180.015 3.63456 -3.51038 0
M  V30 1956 C 182.213 3.45179 -3.81256 0
M  V30 1957 N 180.195 3.68966 -4.9065 0
M  V30 1958 C 181.566 3.57094 -5.06837 0
M  V30 1959 C 183.621 3.28598 -3.74069 0
M  V30 1960 C 182.324 3.5414 -6.26081 0
M  V30 1961 C 184.35 3.26953 -4.92804 0
M  V30 1962 C 183.712 3.39422 -6.17229 0
M  V30 1963 H 179.811 0.692899 -0.362512 0
M  V30 1964 H 182.395 1.35506 -1.39808 0
M  V30 1965 H 180.566 3.80186 -0.794535 0
M  V30 1966 H 182.298 3.91815 -1.01308 0
M  V30 1967 H 179.053 3.65256 -3.01471 0
M  V30 1968 H 179.477 3.75404 -5.63383 0
M  V30 1969 H 184.119 3.17858 -2.78794 0
M  V30 1970 H 181.837 3.63653 -7.21653 0
M  V30 1971 H 185.423 3.15316 -4.88945 0
M  V30 1972 H 184.303 3.38114 -7.07565 0
M  V30 1973 N 181.806 0.884767 1.30421 0
M  V30 1974 C 183.036 0.517293 2.00019 0
M  V30 1975 C 183.444 -0.898632 1.66497 0
M  V30 1976 O 182.787 -1.60245 0.898181 0
M  V30 1977 C 182.849 0.612025 3.54252 0
M  V30 1978 C 182.513 1.99222 4.1129 0
M  V30 1979 C 183.51 2.9616 4.273 0
M  V30 1980 C 181.195 2.29755 4.46674 0
M  V30 1981 C 183.189 4.21764 4.77906 0
M  V30 1982 C 180.876 3.55606 4.96979 0
M  V30 1983 C 181.874 4.51425 5.12547 0
M  V30 1984 O 181.562 5.75043 5.61766 0
M  V30 1985 H 181.294 0.198529 0.64619 0
M  V30 1986 H 183.848 1.1919 1.67281 0
M  V30 1987 H 182.078 -0.119561 3.86515 0
M  V30 1988 H 183.767 0.255859 4.05093 0
M  V30 1989 H 184.533 2.73882 4.00267 0
M  V30 1990 H 180.412 1.55942 4.33824 0
M  V30 1991 H 183.956 4.96561 4.89972 0
M  V30 1992 H 179.853 3.7772 5.23448 0
M  V30 1993 H 180.621 5.77422 5.80109 0
M  V30 1994 N 183.284 -1.43765 0.645699 0
M  V30 1995 C 184.524 -2.03776 0.159542 0
M  V30 1996 C 184.888 -1.49792 -1.2011 0
M  V30 1997 O 186.089 -2.01398 -1.78023 0
M  V30 1998 C 184.36 -3.57036 0.161251 0
M  V30 1999 S 185.919 -4.3804 -0.258159 0
M  V30 2000 H 182.737 -0.707717 0.0682454 0
M  V30 2001 H 185.339 -1.75941 0.852352 0
M  V30 2002 H 184.043 -3.9383 1.15439 0
M  V30 2003 H 183.574 -3.89503 -0.552339 0
M  V30 2004 H 185.589 -4.7302 -1.49889 0
M  V30 2005 N 184.763 -0.387143 -1.52771 0
M  V30 2006 C 186.04 0.253197 -1.93954 0
M  V30 2007 C 186.42 1.64545 -1.32243 0
M  V30 2008 O 185.768 2.23191 -0.489699 0
M  V30 2009 C 185.978 0.281722 -3.47861 0
M  V30 2010 C 187.326 0.511715 -4.21505 0
M  V30 2011 O 188.35 0.362023 -3.54356 0
M  V30 2012 O 187.209 0.804847 -5.40541 0
M  V30 2013 H 184.303 0.156845 -0.811991 0
M  V30 2014 H 186.849 -0.441494 -1.63856 0
M  V30 2015 H 185.621 -0.693571 -3.85104 0
M  V30 2016 H 185.244 1.02142 -3.84256 0
M  V30 2017 N 186.241 1.57166 -0.116904 0
M  V30 2018 C 187.204 2.14039 0.819742 0
M  V30 2019 C 188.204 1.07477 1.19605 0
M  V30 2020 O 189.394 1.33263 1.1219 0
M  V30 2021 C 186.526 2.67891 2.10826 0
M  V30 2022 H 187.719 2.98128 0.325511 0
M  V30 2023 H 185.272 1.55739 0.132312 0
M  V30 2024 H 186.007 1.87384 2.64685 0
M  V30 2025 H 185.792 3.45823 1.84793 0
M  V30 2026 H 187.282 3.11809 2.77785 0
M  V30 2027 N 187.719 -0.156864 1.56817 0
M  V30 2028 C 188.959 -0.877453 1.84608 0
M  V30 2029 C 189.323 -1.78791 0.699845 0
M  V30 2030 O 190.524 -2.5472 0.858553 0
M  V30 2031 C 188.795 -1.63992 3.17555 0
M  V30 2032 S 190.354 -2.40729 3.66872 0
M  V30 2033 H 187.172 -0.293612 0.647544 0
M  V30 2034 H 189.774 -0.138099 1.95012 0
M  V30 2035 H 188.478 -0.962363 3.98957 0
M  V30 2036 H 188.009 -2.42038 3.10131 0
M  V30 2037 H 190.024 -3.65725 3.3535 0
M  V30 2038 N 189.197 -1.51736 -0.425897 0
M  V30 2039 C 190.445 -1.64644 -1.17204 0
M  V30 2040 C 190.766 -0.370486 -1.91448 0
M  V30 2041 O 190.036 0.614088 -1.86026 0
M  V30 2042 H 188.616 -0.606819 -0.435638 0
M  V30 2043 H 191.278 -1.88713 -0.487177 0
M  V30 2044 H 190.374 -2.47958 -1.89534 0
M  V30 2045 N 190.675 0.682077 -1.42076 0
M  V30 2046 C 191.625 1.78823 -1.41444 0
M  V30 2047 C 192.609 1.58323 -0.28681 0
M  V30 2048 O 193.801 1.68926 -0.528498 0
M  V30 2049 C 190.93 3.17232 -1.3122 0
M  V30 2050 C 190.016 3.4338 -2.489 0
M  V30 2051 N 190.407 3.40152 -3.7434 0
M  V30 2052 C 188.705 3.73986 -2.43003 0
M  V30 2053 C 189.406 3.65581 -4.52466 0
M  V30 2054 N 188.382 3.85989 -3.8277 0
M  V30 2055 H 192.184 1.7471 -2.36334 0
M  V30 2056 H 189.698 0.882622 -1.36321 0
M  V30 2057 H 191.695 3.96489 -1.2885 0
M  V30 2058 H 190.355 3.22547 -0.373263 0
M  V30 2059 H 191.366 3.20221 -4.07037 0
M  V30 2060 H 188.043 3.86591 -1.57651 0
M  V30 2061 H 189.433 3.69108 -5.61435 0
M  V30 2062 N 192.153 1.28127 0.917671 0
M  V30 2063 C 193.083 1.14248 2.03641 0
M  V30 2064 C 194.064 0.0412748 1.7005 0
M  V30 2065 O 195.249 0.217566 1.92977 0
M  V30 2066 C 192.379 0.799431 3.37974 0
M  V30 2067 C 191.333 1.85497 3.85713 0
M  V30 2068 C 190.659 1.36565 5.16966 0
M  V30 2069 C 191.959 3.26085 4.08002 0
M  V30 2070 H 193.653 2.07835 2.15511 0
M  V30 2071 H 191.199 1.00064 1.03553 0
M  V30 2072 H 193.152 0.689114 4.15727 0
M  V30 2073 H 191.876 -0.172145 3.26146 0
M  V30 2074 H 190.535 1.95437 3.10161 0
M  V30 2075 H 190.183 0.383253 5.01538 0
M  V30 2076 H 189.883 2.07143 5.49878 0
M  V30 2077 H 191.407 1.26848 5.97279 0
M  V30 2078 H 192.821 3.19089 4.76293 0
M  V30 2079 H 191.218 3.94462 4.52238 0
M  V30 2080 H 192.288 3.70394 3.12948 0
M  V30 2081 N 193.631 -1.12557 1.10312 0
M  V30 2082 C 194.877 -1.84311 0.846011 0
M  V30 2083 C 195.21 -1.83805 -0.626859 0
M  V30 2084 O 194.485 -1.28268 -1.46211 0
M  V30 2085 C 194.768 -3.32048 1.39341 0
M  V30 2086 C 194.621 -3.41016 2.93305 0
M  V30 2087 C 195.94 -4.27764 1.03468 0
M  V30 2088 H 193.059 -0.669192 0.30879 0
M  V30 2089 H 195.701 -1.32057 1.36605 0
M  V30 2090 H 193.851 -3.76678 0.951087 0
M  V30 2091 H 195.523 -3.05031 3.46055 0
M  V30 2092 H 193.766 -2.81603 3.29973 0
M  V30 2093 H 194.437 -4.44948 3.26689 0
M  V30 2094 H 196.913 -3.91253 1.41633 0
M  V30 2095 H 195.789 -5.29549 1.44463 0
M  V30 2096 H 196.05 -4.42064 -0.0560404 0
M  V30 2097 N 195.109 -0.891671 -1.2995 0
M  V30 2098 C 196.059 -0.334811 -2.25528 0
M  V30 2099 C 197.043 0.540553 -1.51548 0
M  V30 2100 O 198.235 0.383882 -1.72787 0
M  V30 2101 C 195.364 0.44374 -3.4042 0
M  V30 2102 C 194.45 -0.44609 -4.21747 0
M  V30 2103 N 194.841 -1.54963 -4.81477 0
M  V30 2104 C 193.139 -0.242415 -4.45341 0
M  V30 2105 C 193.84 -2.10015 -5.42465 0
M  V30 2106 N 192.816 -1.39423 -5.25416 0
M  V30 2107 H 196.618 -1.17792 -2.69262 0
M  V30 2108 H 194.132 -0.741822 -1.44467 0
M  V30 2109 H 196.129 0.859362 -4.07947 0
M  V30 2110 H 194.789 1.28421 -2.98225 0
M  V30 2111 H 195.8 -1.93244 -4.80497 0
M  V30 2112 H 192.477 0.560342 -4.13723 0
M  V30 2113 H 193.867 -3.02724 -5.9984 0
M  V30 2114 N 196.587 1.43421 -0.653314 0
M  V30 2115 C 198.003 1.56341 -0.320886 0
M  V30 2116 C 198.203 1.63696 1.17499 0
M  V30 2117 O 197.259 1.59208 1.95982 0
M  V30 2118 C 198.572 2.82424 -1.03233 0
M  V30 2119 C 200.12 2.96168 -1.01259 0
M  V30 2120 C 200.595 4.25084 -1.70492 0
M  V30 2121 N 202.086 4.31948 -1.67257 0
M  V30 2122 C 202.821 5.30466 -2.17701 0
M  V30 2123 N 202.317 6.35261 -2.76434 0
M  V30 2124 N 204.11 5.2212 -2.082 0
M  V30 2125 H 196.261 1.3689 -1.62403 0
M  V30 2126 H 198.524 0.657455 -0.682977 0
M  V30 2127 H 198.23 2.83053 -2.08744 0
M  V30 2128 H 198.104 3.72653 -0.583948 0
M  V30 2129 H 200.491 2.9508 0.0341235 0
M  V30 2130 H 200.572 2.07229 -1.49966 0
M  V30 2131 H 200.216 4.26932 -2.7512 0
M  V30 2132 H 200.146 5.1292 -1.19251 0
M  V30 2133 H 202.637 3.56838 -1.24398 0
M  V30 2134 H 202.95 7.06754 -3.12601 0
M  V30 2135 H 201.295 6.35884 -2.80495 0
M  V30 2136 H 204.486 4.39166 -1.62021 0
M  V30 2137 H 204.659 5.98739 -2.47822 0
M  V30 2138 N 198.065 0.39524 1.52563 0
M  V30 2139 C 199.311 -0.185318 2.01952 0
M  V30 2140 C 199.644 -1.45964 1.28095 0
M  V30 2141 O 198.919 -1.90689 0.38315 0
M  V30 2142 C 199.202 -0.447193 3.57312 0
M  V30 2143 C 199.055 0.842828 4.41833 0
M  V30 2144 C 200.374 -1.23529 4.22408 0
M  V30 2145 H 197.493 -0.0658788 0.73405 0
M  V30 2146 H 200.135 0.525975 1.82575 0
M  V30 2147 H 198.285 -1.05312 3.73954 0
M  V30 2148 H 199.957 1.4795 4.36931 0
M  V30 2149 H 198.2 1.45686 4.08605 0
M  V30 2150 H 198.871 0.614165 5.48573 0
M  V30 2151 H 201.347 -0.722445 4.0978 0
M  V30 2152 H 200.223 -1.38727 5.3108 0
M  V30 2153 H 200.484 -2.25213 3.80436 0
M  V30 2154 N 199.544 -1.57102 0.125237 0
M  V30 2155 C 200.454 -2.19191 -0.8362 0
M  V30 2156 C 201.47 -1.16985 -1.28805 0
M  V30 2157 O 202.646 -1.49479 -1.34974 0
M  V30 2158 C 199.711 -2.78407 -2.06617 0
M  V30 2159 C 198.772 -3.9567 -1.66565 0
M  V30 2160 C 198.005 -4.52052 -2.83698 0
M  V30 2161 O 198.228 -4.07326 -3.99302 0
M  V30 2162 O 197.162 -5.42645 -2.60423 0
M  V30 2163 H 200.988 -3.01816 -0.337776 0
M  V30 2164 H 198.573 -1.4906 -0.100695 0
M  V30 2165 H 200.455 -3.16129 -2.7864 0
M  V30 2166 H 199.13 -1.9881 -2.55453 0
M  V30 2167 H 198.037 -3.62705 -0.916296 0
M  V30 2168 H 199.37 -4.76722 -1.22464 0
M  V30 2169 N 201.022 0.148545 -1.56898 0
M  V30 2170 C 202.268 0.862694 -1.83536 0
M  V30 2171 C 202.601 1.80889 -0.706604 0
M  V30 2172 O 201.876 1.92328 0.289885 0
M  V30 2173 C 202.159 1.63853 -3.20662 0
M  V30 2174 C 202.012 0.713925 -4.44098 0
M  V30 2175 C 203.331 2.60133 -3.54991 0
M  V30 2176 H 200.45 0.312179 -0.667618 0
M  V30 2177 H 203.092 0.127953 -1.89569 0
M  V30 2178 H 201.242 2.26489 -3.1565 0
M  V30 2179 H 202.914 0.098686 -4.61194 0
M  V30 2180 H 201.157 0.0234019 -4.33794 0
M  V30 2181 H 201.828 1.29278 -5.36648 0
M  V30 2182 H 204.304 2.07616 -3.60603 0
M  V30 2183 H 203.18 3.11468 -4.51972 0
M  V30 2184 H 203.441 3.41417 -2.80868 0
M  V30 2185 N 202.5 1.5196 0.417844 0
M  V30 2186 C 203.432 1.70895 1.52733 0
M  V30 2187 C 204.445 0.589405 1.51756 0
M  V30 2188 O 205.634 0.864312 1.56179 0
M  V30 2189 C 202.734 1.72627 2.91639 0
M  V30 2190 C 201.907 3.01479 3.16905 0
M  V30 2191 C 200.966 2.95139 4.35637 0
M  V30 2192 O 199.992 3.69059 4.3334 0
M  V30 2193 N 201.194 2.12328 5.40275 0
M  V30 2194 H 203.959 2.66612 1.36888 0
M  V30 2195 H 201.52 1.50089 0.607037 0
M  V30 2196 H 203.512 1.65928 3.6912 0
M  V30 2197 H 202.082 0.844216 3.00985 0
M  V30 2198 H 201.302 3.21895 2.27546 0
M  V30 2199 H 202.59 3.86736 3.30625 0
M  V30 2200 H 201.988 1.51685 5.44985 0
M  V30 2201 H 200.545 2.11494 6.16534 0
M  V30 2202 N 203.978 -0.674533 1.42435 0
M  V30 2203 C 204.908 -1.80009 1.48724 0
M  V30 2204 C 205.889 -1.6659 0.343793 0
M  V30 2205 O 207.074 -1.86007 0.558137 0
M  V30 2206 C 204.204 -3.18306 1.38919 0
M  V30 2207 C 203.158 -3.46461 2.51294 0
M  V30 2208 C 202.484 -4.84335 2.26547 0
M  V30 2209 C 203.784 -3.43328 3.93603 0
M  V30 2210 H 205.478 -1.75004 2.42928 0
M  V30 2211 H 203.024 -0.840533 1.16923 0
M  V30 2212 H 204.977 -3.9678 1.41927 0
M  V30 2213 H 203.701 -3.2399 0.412094 0
M  V30 2214 H 202.36 -2.70348 2.47604 0
M  V30 2215 H 202.008 -4.86669 1.2713 0
M  V30 2216 H 201.708 -5.04136 3.01861 0
M  V30 2217 H 203.232 -5.65094 2.31304 0
M  V30 2218 H 204.646 -4.11772 3.98894 0
M  V30 2219 H 203.043 -3.74664 4.68771 0
M  V30 2220 H 204.113 -2.41897 4.20255 0
M  V30 2221 N 205.456 -1.28612 -0.910864 0
M  V30 2222 C 206.403 -1.12786 -2.01365 0
M  V30 2223 C 207.373 -0.024201 -1.66082 0
M  V30 2224 O 208.558 -0.189667 -1.89855 0
M  V30 2225 C 205.698 -0.798743 -3.35729 0
M  V30 2226 C 204.811 -1.98173 -3.83864 0
M  V30 2227 C 203.946 -1.59298 -5.06752 0
M  V30 2228 C 202.985 -2.74245 -5.47226 0
M  V30 2229 N 202.122 -2.35842 -6.61304 0
M  V30 2230 H 206.962 -2.07142 -2.14234 0
M  V30 2231 H 204.499 -1.03093 -1.0493 0
M  V30 2232 H 206.457 -0.588662 -4.13026 0
M  V30 2233 H 205.087 0.10789 -3.2262 0
M  V30 2234 H 204.139 -2.30386 -3.02699 0
M  V30 2235 H 205.451 -2.84343 -4.09818 0
M  V30 2236 H 204.605 -1.34513 -5.916 0
M  V30 2237 H 203.344 -0.702618 -4.82612 0
M  V30 2238 H 202.349 -2.99725 -4.60918 0
M  V30 2239 H 203.574 -3.63928 -5.73353 0
M  V30 2240 H 201.52 -1.49279 -6.38789 0
M  V30 2241 H 201.437 -3.15546 -6.86998 0
M  V30 2242 H 202.705 -2.14348 -7.4945 0
M  V30 2243 N 206.934 1.1197 -1.10907 0
M  V30 2244 C 208.159 1.87942 -0.877064 0
M  V30 2245 C 208.584 1.79341 0.567314 0
M  V30 2246 O 207.942 1.15184 1.40009 0
M  V30 2247 C 207.99 3.34926 -1.33629 0
M  V30 2248 O 207.094 4.09303 -0.504447 0
M  V30 2249 H 206.435 0.583785 -0.316371 0
M  V30 2250 H 208.965 1.4157 -1.47712 0
M  V30 2251 H 208.975 3.8577 -1.32837 0
M  V30 2252 H 207.65 3.40504 -2.3881 0
M  V30 2253 H 206.227 3.68393 -0.577993 0
M  V30 2254 N 208.412 0.89855 1.29475 0
M  V30 2255 C 209.661 0.519863 1.94885 0
M  V30 2256 C 209.974 -0.9383 1.71625 0
M  V30 2257 O 211.18 -1.42445 2.31131 0
M  V30 2258 C 209.636 0.878836 3.49005 0
M  V30 2259 C 209.244 2.35569 3.81066 0
M  V30 2260 C 210.988 0.570004 4.20656 0
M  V30 2261 C 208.895 2.65558 5.28425 0
M  V30 2262 H 207.825 0.190692 0.729488 0
M  V30 2263 H 210.476 1.09539 1.47219 0
M  V30 2264 H 208.858 0.232253 3.95318 0
M  V30 2265 H 210.032 3.04773 3.45616 0
M  V30 2266 H 208.347 2.63343 3.22552 0
M  V30 2267 H 210.944 0.770925 5.29113 0
M  V30 2268 H 211.287 -0.491404 4.1339 0
M  V30 2269 H 211.82 1.17438 3.8007 0
M  V30 2270 H 208.559 3.70493 5.40754 0
M  V30 2271 H 208.079 2.00977 5.65127 0
M  V30 2272 H 209.758 2.51765 5.96006 0
M  V30 2273 N 209.89 -1.43072 0.660911 0
M  V30 2274 C 211.136 -2.0202 0.177708 0
M  V30 2275 C 211.469 -1.52066 -1.20787 0
M  V30 2276 O 210.744 -0.716987 -1.80802 0
M  V30 2277 C 211.027 -3.59561 0.197019 0
M  V30 2278 C 210.88 -4.19727 1.61706 0
M  V30 2279 C 212.199 -4.37664 -0.462396 0
M  V30 2280 H 209.318 -0.734034 0.0660494 0
M  V30 2281 H 211.96 -1.70272 0.843058 0
M  V30 2282 H 210.11 -3.86739 -0.369527 0
M  V30 2283 H 211.782 -4.03553 2.23479 0
M  V30 2284 H 210.025 -3.76084 2.16201 0
M  V30 2285 H 210.696 -5.28834 1.58237 0
M  V30 2286 H 213.172 -4.16095 0.0197215 0
M  V30 2287 H 212.048 -5.47305 -0.418188 0
M  V30 2288 H 212.309 -4.14493 -1.53778 0
M  V30 2289 N 211.368 -0.403325 -1.52352 0
M  V30 2290 C 212.596 0.174012 -2.06167 0
M  V30 2291 C 213.011 1.39347 -1.27388 0
M  V30 2292 O 212.368 1.79597 -0.324201 0
M  V30 2293 C 212.419 0.530223 -3.5759 0
M  V30 2294 O 212.14 -0.640806 -4.33388 0
M  V30 2295 C 213.641 1.16192 -4.27802 0
M  V30 2296 H 210.861 0.0229464 -0.670608 0
M  V30 2297 H 213.405 -0.572604 -1.9632 0
M  V30 2298 H 211.56 1.22673 -3.67464 0
M  V30 2299 H 211.974 -0.344851 -5.23365 0
M  V30 2300 H 213.448 1.36141 -5.34948 0
M  V30 2301 H 213.925 2.13335 -3.83907 0
M  V30 2302 H 214.531 0.505775 -4.22282 0
M  V30 2303 N 212.846 1.57033 -0.133567 0
M  V30 2304 C 214.123 1.87256 0.56522 0
M  V30 2305 C 214.503 1.03726 1.83859 0
M  V30 2306 O 213.851 0.120247 2.28183 0
M  V30 2307 C 214.061 3.3865 0.843636 0
M  V30 2308 C 215.409 4.07574 1.19032 0
M  V30 2309 O 216.433 3.43752 0.933429 0
M  V30 2310 O 215.292 5.20259 1.67312 0
M  V30 2311 H 212.386 0.775678 0.286796 0
M  V30 2312 H 214.932 1.68855 -0.169168 0
M  V30 2313 H 213.704 3.91257 -0.0581149 0
M  V30 2314 H 213.327 3.62532 1.63268 0
M  V30 2315 N 214.325 -0.140222 1.56975 0
M  V30 2316 C 215.255 -1.17456 2.01808 0
M  V30 2317 C 216.236 -1.44415 0.898794 0
M  V30 2318 O 217.421 -1.5522 1.16707 0
M  V30 2319 C 214.551 -2.50607 2.40444 0
M  V30 2320 C 213.505 -2.38155 3.55621 0
M  V30 2321 C 212.831 -3.76078 3.80091 0
M  V30 2322 C 214.131 -1.85991 4.88062 0
M  V30 2323 H 215.825 -0.801743 2.88466 0
M  V30 2324 H 213.371 -0.38422 1.38779 0
M  V30 2325 H 215.324 -3.23197 2.7041 0
M  V30 2326 H 214.048 -2.89737 1.50732 0
M  V30 2327 H 212.707 -1.68016 3.25832 0
M  V30 2328 H 212.355 -4.12656 2.87618 0
M  V30 2329 H 212.055 -3.68606 4.57606 0
M  V30 2330 H 213.579 -4.50206 4.12488 0
M  V30 2331 H 214.993 -2.4838 5.16701 0
M  V30 2332 H 213.39 -1.89393 5.6943 0
M  V30 2333 H 214.46 -0.816023 4.77984 0
M  V30 2334 N 215.803 -1.52179 -0.40978 0
M  V30 2335 C 217.214 -1.58377 -0.988615 0
M  V30 2336 C 217.565 -0.423879 -1.91566 0
M  V30 2337 O 216.69 0.455844 -2.11544 0
M  V30 2338 C 217.285 -2.87044 -1.79976 0
M  V30 2339 C 215.844 -2.95722 -2.32863 0
M  V30 2340 C 214.991 -2.53309 -1.12828 0
M  V30 2341 H 217.942 -1.57558 -0.190039 0
M  V30 2342 H 217.963 -2.7236 -2.65707 0
M  V30 2343 H 217.475 -3.71444 -1.12478 0
M  V30 2344 H 215.576 -2.15814 -3.03735 0
M  V30 2345 H 215.689 -3.99951 -2.63773 0
M  V30 2346 H 214.053 -2.07142 -1.48204 0
M  V30 2347 H 214.836 -3.40082 -0.46897 0
M  V30 2348 N 217.281 0.66697 -1.42791 0
M  V30 2349 C 218.692 1.2478 -1.38877 0
M  V30 2350 C 219.043 1.96012 -0.0859426 0
M  V30 2351 O 218.168 2.00463 0.815081 0
M  V30 2352 C 218.763 2.26938 -2.51564 0
M  V30 2353 C 217.322 2.80529 -2.50959 0
M  V30 2354 C 216.469 1.54965 -2.29959 0
M  V30 2355 H 219.42 0.459853 -1.51892 0
M  V30 2356 H 219.441 3.08834 -2.22265 0
M  V30 2357 H 218.953 1.75065 -3.46372 0
M  V30 2358 H 217.054 3.36502 -1.59991 0
M  V30 2359 H 217.167 3.29012 -3.48265 0
M  V30 2360 H 215.531 1.81817 -1.78366 0
M  V30 2361 H 216.314 1.05047 -3.26833 0
M  V30 2362 N 218.759 1.29093 0.90403 0
M  V30 2363 C 219.689 1.16401 2.02418 0
M  V30 2364 C 220.67 0.0593085 1.69997 0
M  V30 2365 O 221.855 0.238021 1.92736 0
M  V30 2366 C 218.985 0.835233 3.37107 0
M  V30 2367 C 217.939 1.89578 3.83724 0
M  V30 2368 C 217.265 1.42041 5.15489 0
M  V30 2369 C 218.565 3.30394 4.04521 0
M  V30 2370 H 220.259 2.10109 2.13295 0
M  V30 2371 H 217.805 1.01157 1.02486 0
M  V30 2372 H 219.758 0.733169 4.14973 0
M  V30 2373 H 218.482 -0.137543 3.2631 0
M  V30 2374 H 217.141 1.98715 3.08071 0
M  V30 2375 H 216.789 0.436426 5.01103 0
M  V30 2376 H 216.489 2.12964 5.4765 0
M  V30 2377 H 218.013 1.33176 5.959 0
M  V30 2378 H 219.427 3.24123 4.72882 0
M  V30 2379 H 217.824 3.99237 4.48029 0
M  V30 2380 H 218.894 3.73692 3.09002 0
M  V30 2381 N 220.237 -1.11381 1.11499 0
M  V30 2382 C 221.484 -1.83132 0.864231 0
M  V30 2383 C 221.812 -1.84683 -0.610114 0
M  V30 2384 O 221.067 -1.29589 -1.46646 0
M  V30 2385 C 221.366 -3.30026 1.37177 0
M  V30 2386 C 221.032 -3.48634 2.85946 0
M  V30 2387 C 219.694 -3.53421 3.26569 0
M  V30 2388 C 222.046 -3.54837 3.81759 0
M  V30 2389 C 219.374 -3.61967 4.61733 0
M  V30 2390 C 221.726 -3.64915 5.1674 0
M  V30 2391 C 220.39 -3.67962 5.5692 0
M  V30 2392 H 219.66 -0.670127 0.316245 0
M  V30 2393 H 222.307 -1.31354 1.3935 0
M  V30 2394 H 220.612 -3.84304 0.762753 0
M  V30 2395 H 222.309 -3.84034 1.15408 0
M  V30 2396 H 218.899 -3.45579 2.53521 0
M  V30 2397 H 223.083 -3.50399 3.51474 0
M  V30 2398 H 218.339 -3.62603 4.92269 0
M  V30 2399 H 222.513 -3.68658 5.90816 0
M  V30 2400 H 220.14 -3.74336 6.61647 0
M  V30 2401 N 221.715 -0.905404 -1.28997 0
M  V30 2402 C 222.625 -0.392246 -2.31298 0
M  V30 2403 C 223.641 0.515889 -1.66176 0
M  V30 2404 O 224.817 0.404093 -1.97304 0
M  V30 2405 C 221.882 0.36686 -3.44754 0
M  V30 2406 C 220.943 -0.573485 -4.25452 0
M  V30 2407 C 220.176 0.149488 -5.33491 0
M  V30 2408 O 220.399 1.37255 -5.5364 0
M  V30 2409 O 219.333 -0.510919 -5.99728 0
M  V30 2410 H 223.159 -1.2411 -2.77183 0
M  V30 2411 H 220.744 -0.669926 -1.33538 0
M  V30 2412 H 222.626 0.795907 -4.13816 0
M  V30 2413 H 221.301 1.19169 -3.00966 0
M  V30 2414 H 220.208 -1.05176 -3.59011 0
M  V30 2415 H 221.541 -1.36489 -4.72897 0
M  V30 2416 N 223.193 1.4272 -0.668489 0
M  V30 2417 C 224.418 2.06484 -0.194758 0
M  V30 2418 C 224.843 1.49862 1.13679 0
M  V30 2419 O 224.201 0.614582 1.70565 0
M  V30 2420 C 224.249 3.60353 -0.133546 0
M  V30 2421 O 223.353 4.02464 0.899806 0
M  V30 2422 H 222.694 0.656137 -0.10188 0
M  V30 2423 H 225.224 1.82964 -0.915722 0
M  V30 2424 H 225.234 4.07976 0.0447041 0
M  V30 2425 H 223.909 4.00938 -1.1055 0
M  V30 2426 H 222.486 3.66402 0.693109 0
M  V30 2427 N 224.671 0.411399 1.52136 0
M  V30 2428 C 225.918 -0.163645 2.01838 0
M  V30 2429 C 226.246 -1.4495 1.29691 0
M  V30 2430 O 225.501 -1.91725 0.392431 0
M  V30 2431 C 225.8 -0.455872 3.54481 0
M  V30 2432 C 225.466 0.741055 4.44769 0
M  V30 2433 C 224.128 1.06936 4.69167 0
M  V30 2434 C 226.48 1.54075 4.97906 0
M  V30 2435 C 223.808 2.19851 5.43951 0
M  V30 2436 C 226.16 2.66067 5.73926 0
M  V30 2437 C 224.824 2.99381 5.96596 0
M  V30 2438 H 224.094 -0.0598821 0.738576 0
M  V30 2439 H 226.741 0.553283 1.83333 0
M  V30 2440 H 225.046 -1.2544 3.71177 0
M  V30 2441 H 226.743 -0.913802 3.90449 0
M  V30 2442 H 223.333 0.475192 4.25958 0
M  V30 2443 H 227.517 1.30033 4.78963 0
M  V30 2444 H 222.773 2.46006 5.59724 0
M  V30 2445 H 226.947 3.28419 6.14096 0
M  V30 2446 H 224.574 3.86992 6.54325 0
M  V30 2447 N 226.149 -1.5696 0.141893 0
M  V30 2448 C 227.379 -2.00031 -0.516828 0
M  V30 2449 C 227.787 -1.02091 -1.59293 0
M  V30 2450 O 227.13 -0.00909657 -1.83698 0
M  V30 2451 C 227.192 -3.39534 -1.1814 0
M  V30 2452 C 226.856 -4.56313 -0.250513 0
M  V30 2453 C 227.853 -5.17295 0.519839 0
M  V30 2454 C 225.538 -5.02061 -0.154907 0
M  V30 2455 C 227.532 -6.2243 1.3733 0
M  V30 2456 C 225.219 -6.07053 0.702161 0
M  V30 2457 C 226.217 -6.67106 1.46487 0
M  V30 2458 O 225.905 -7.70066 2.30767 0
M  V30 2459 H 225.637 -0.661451 -0.139493 0
M  V30 2460 H 228.191 -2.04086 0.231926 0
M  V30 2461 H 226.421 -3.32302 -1.97769 0
M  V30 2462 H 228.11 -3.66745 -1.73933 0
M  V30 2463 H 228.876 -4.82852 0.45598 0
M  V30 2464 H 224.755 -4.5505 -0.7383 0
M  V30 2465 H 228.299 -6.69233 1.96909 0
M  V30 2466 H 224.196 -6.40923 0.76733 0
M  V30 2467 H 224.964 -7.87264 2.23959 0
M  V30 2468 N 227.627 0.131896 -1.57047 0
M  V30 2469 C 228.59 1.14638 -1.98471 0
M  V30 2470 C 229.59 1.35029 -0.873148 0
M  V30 2471 O 230.78 1.31764 -1.13946 0
M  V30 2472 C 227.912 2.50358 -2.31373 0
M  V30 2473 H 229.105 0.79064 -2.8929 0
M  V30 2474 H 226.658 0.375761 -1.51716 0
M  V30 2475 H 227.393 2.90876 -1.43393 0
M  V30 2476 H 227.178 2.36915 -3.12432 0
M  V30 2477 H 228.668 3.23395 -2.64207 0
M  V30 2478 N 229.106 1.52395 0.401703 0
M  V30 2479 C 230.331 1.70972 1.17403 0
M  V30 2480 C 230.756 0.421615 1.83314 0
M  V30 2481 O 230.114 -0.621564 1.70312 0
M  V30 2482 C 230.162 2.85151 2.20728 0
M  V30 2483 O 229.266 2.51238 3.27037 0
M  V30 2484 H 228.607 0.568927 0.342372 0
M  V30 2485 H 231.137 1.99131 0.469891 0
M  V30 2486 H 231.147 3.10279 2.64936 0
M  V30 2487 H 229.822 3.78603 1.7214 0
M  V30 2488 H 228.399 2.36808 2.88057 0
M  V30 2489 N 230.584 -0.659388 1.43143 0
M  V30 2490 C 231.494 -1.80167 1.50256 0
M  V30 2491 C 232.51 -1.69571 0.390106 0
M  V30 2492 O 233.686 -1.90849 0.643319 0
M  V30 2493 C 230.751 -3.16409 1.41725 0
M  V30 2494 C 229.812 -3.38848 2.63591 0
M  V30 2495 C 229.045 -4.68591 2.55458 0
M  V30 2496 O 229.268 -5.47532 1.59891 0
M  V30 2497 O 228.202 -4.92614 3.45854 0
M  V30 2498 H 232.028 -1.77121 2.46702 0
M  V30 2499 H 229.613 -0.817092 1.25076 0
M  V30 2500 H 231.495 -3.9768 1.39387 0
M  V30 2501 H 230.17 -3.20059 0.484118 0
M  V30 2502 H 229.077 -2.57366 2.71502 0
M  V30 2503 H 230.41 -3.4004 3.55856 0
M  V30 2504 N 232.062 -1.29571 -0.897171 0
M  V30 2505 C 233.339 -1.08365 -1.62839 0
M  V30 2506 C 233.719 0.371331 -2.07808 0
M  V30 2507 O 233.067 1.3606 -1.83576 0
M  V30 2508 C 233.277 -2.0735 -2.80726 0
M  V30 2509 C 234.625 -2.38406 -3.51351 0
M  V30 2510 O 235.649 -2.05564 -2.90898 0
M  V30 2511 O 234.508 -2.9453 -4.60341 0
M  V30 2512 H 231.602 -0.415345 -0.715134 0
M  V30 2513 H 234.148 -1.40952 -0.945018 0
M  V30 2514 H 232.92 -3.05339 -2.44711 0
M  V30 2515 H 232.543 -1.75507 -3.56767 0
M  V30 2516 N 233.54 1.10788 -1.12088 0
M  V30 2517 C 234.487 2.17025 -0.785407 0
M  V30 2518 C 235.457 1.64265 0.246191 0
M  V30 2519 O 236.642 1.90412 0.121584 0
M  V30 2520 C 233.782 3.44249 -0.242177 0
M  V30 2521 C 232.895 4.1098 -1.33115 0
M  V30 2522 C 232.03 5.25911 -0.747741 0
M  V30 2523 C 231.069 5.84538 -1.81609 0
M  V30 2524 N 230.206 6.90853 -1.25167 0
M  V30 2525 H 235.046 2.45066 -1.69548 0
M  V30 2526 H 232.583 1.20297 -0.846582 0
M  V30 2527 H 234.541 4.17101 0.0908026 0
M  V30 2528 H 233.171 3.16571 0.631072 0
M  V30 2529 H 232.223 3.36133 -1.78097 0
M  V30 2530 H 233.535 4.50601 -2.13917 0
M  V30 2531 H 232.689 6.056 -0.365216 0
M  V30 2532 H 231.428 4.87614 0.0915188 0
M  V30 2533 H 230.433 5.03522 -2.20785 0
M  V30 2534 H 231.658 6.249 -2.6585 0
M  V30 2535 H 229.604 6.54562 -0.434174 0
M  V30 2536 H 229.521 7.29166 -1.99633 0
M  V30 2537 H 230.789 7.7433 -0.896259 0
M  V30 2538 N 235.018 0.912232 1.28515 0
M  V30 2539 C 236.434 0.610159 1.47476 0
M  V30 2540 C 236.634 -0.844955 1.82928 0
M  V30 2541 O 235.69 -1.62416 1.93332 0
M  V30 2542 C 237.003 1.54675 2.57868 0
M  V30 2543 C 238.551 1.55331 2.71738 0
M  V30 2544 C 239.026 2.47649 3.85272 0
M  V30 2545 N 240.517 2.45767 3.92623 0
M  V30 2546 C 241.252 3.13896 4.79851 0
M  V30 2547 N 240.748 3.9135 5.71679 0
M  V30 2548 N 242.541 3.02991 4.73448 0
M  V30 2549 H 234.692 1.85318 1.03783 0
M  V30 2550 H 236.955 0.794777 0.516753 0
M  V30 2551 H 236.661 2.5841 2.38574 0
M  V30 2552 H 236.535 1.27671 3.54937 0
M  V30 2553 H 238.922 0.52335 2.90422 0
M  V30 2554 H 239.003 1.86378 1.75205 0
M  V30 2555 H 238.647 3.50745 3.67342 0
M  V30 2556 H 238.577 2.13904 4.81199 0
M  V30 2557 H 241.068 1.89503 3.26951 0
M  V30 2558 H 241.381 4.40359 6.35062 0
M  V30 2559 H 239.726 3.95455 5.71524 0
M  V30 2560 H 242.917 2.41987 4.007 0
M  V30 2561 H 243.09 3.5636 5.41213 0
M  V30 2562 N 236.496 -1.42363 0.676048 0
M  V30 2563 C 237.912 -1.55811 0.345718 0
M  V30 2564 C 238.112 -1.65544 -1.14879 0
M  V30 2565 O 237.168 -1.62306 -1.93424 0
M  V30 2566 C 238.481 -2.80746 1.07713 0
M  V30 2567 C 240.029 -2.9452 1.05958 0
M  V30 2568 C 240.504 -4.22318 1.77233 0
M  V30 2569 N 241.995 -4.29233 1.74108 0
M  V30 2570 C 242.73 -5.26935 2.26113 0
M  V30 2571 N 242.226 -6.30783 2.86505 0
M  V30 2572 N 244.019 -5.18741 2.1648 0
M  V30 2573 H 236.17 -1.34289 1.6456 0
M  V30 2574 H 238.433 -0.646506 0.69335 0
M  V30 2575 H 238.139 -2.79696 2.13221 0
M  V30 2576 H 238.013 -3.71676 0.64316 0
M  V30 2577 H 240.4 -2.95097 0.0128255 0
M  V30 2578 H 240.481 -2.04817 1.53244 0
M  V30 2579 H 240.125 -4.22502 2.81877 0
M  V30 2580 H 240.055 -5.10958 1.27396 0
M  V30 2581 H 242.546 -3.54814 1.30059 0
M  V30 2582 H 242.859 -7.01691 3.23805 0
M  V30 2583 H 241.204 -6.31341 2.90575 0
M  V30 2584 H 244.395 -4.36533 1.68987 0
M  V30 2585 H 244.568 -5.94721 2.57316 0
M  V30 2586 N 237.974 -0.419461 -1.51915 0
M  V30 2587 C 239.214 0.152336 -2.03832 0
M  V30 2588 C 239.578 1.41501 -1.29775 0
M  V30 2589 O 240.779 2.06591 -1.7197 0
M  V30 2590 C 239.05 0.383812 -3.55333 0
M  V30 2591 S 240.609 0.921577 -4.29013 0
M  V30 2592 H 237.427 0.0402193 -0.709862 0
M  V30 2593 H 240.029 -0.574758 -1.8686 0
M  V30 2594 H 238.733 -0.541794 -4.06808 0
M  V30 2595 H 238.264 1.13849 -3.76566 0
M  V30 2596 H 240.279 2.20108 -4.4471 0
M  V30 2597 N 239.452 1.56882 -0.150215 0
M  V30 2598 C 240.863 1.82995 0.370076 0
M  V30 2599 C 241.214 1.06907 1.64515 0
M  V30 2600 O 240.339 0.315369 2.1409 0
M  V30 2601 C 240.934 3.31942 0.678208 0
M  V30 2602 C 239.493 3.58625 1.14301 0
M  V30 2603 C 238.64 2.76792 0.167778 0
M  V30 2604 H 241.591 1.54209 -0.374858 0
M  V30 2605 H 241.612 3.48272 1.53254 0
M  V30 2606 H 241.124 3.87294 -0.249991 0
M  V30 2607 H 239.225 3.08664 2.08704 0
M  V30 2608 H 239.338 4.67073 1.06676 0
M  V30 2609 H 237.702 2.45972 0.661037 0
M  V30 2610 H 238.485 3.34916 -0.754069 0
M  V30 2611 N 240.93 -0.123565 1.57115 0
M  V30 2612 C 241.88 -1.1575 1.96433 0
M  V30 2613 C 242.864 -1.37313 0.838686 0
M  V30 2614 O 244.056 -1.38482 1.10235 0
M  V30 2615 C 241.185 -2.48526 2.36833 0
M  V30 2616 C 240.271 -2.30457 3.5602 0
M  V30 2617 N 240.662 -1.8219 4.71848 0
M  V30 2618 C 238.96 -2.61129 3.61563 0
M  V30 2619 C 239.661 -1.77721 5.53886 0
M  V30 2620 N 238.637 -2.21899 4.96248 0
M  V30 2621 H 242.439 -0.776797 2.83449 0
M  V30 2622 H 239.953 -0.331364 1.58983 0
M  V30 2623 H 241.95 -3.233 2.63216 0
M  V30 2624 H 240.61 -2.87358 1.5118 0
M  V30 2625 H 241.621 -1.51805 4.95152 0
M  V30 2626 H 238.298 -3.03678 2.86507 0
M  V30 2627 H 239.688 -1.41697 6.56789 0
M  V30 2628 N 242.408 -1.52605 -0.393616 0
M  V30 2629 C 243.648 -1.6911 -1.1481 0
M  V30 2630 C 244.012 -0.41969 -1.87357 0
M  V30 2631 O 245.213 -0.461034 -2.64817 0
M  V30 2632 C 243.484 -2.88909 -2.10395 0
M  V30 2633 S 245.043 -3.25977 -2.93742 0
M  V30 2634 H 241.861 -0.595337 -0.38871 0
M  V30 2635 H 244.463 -1.90641 -0.433178 0
M  V30 2636 H 243.167 -3.79672 -1.55812 0
M  V30 2637 H 242.698 -2.69698 -2.86403 0
M  V30 2638 H 244.713 -2.75806 -4.12487 0
M  V30 2639 N 243.887 0.651787 -1.4349 0
M  V30 2640 C 245.135 1.40888 -1.44897 0
M  V30 2641 C 245.456 1.94856 -0.0749086 0
M  V30 2642 O 244.726 1.74518 0.889956 0
M  V30 2643 H 243.306 0.522887 -0.533478 0
M  V30 2644 H 245.968 0.768609 -1.79104 0
M  V30 2645 H 245.064 2.25052 -2.16236 0
M  V30 2646 N 245.365 1.30045 0.890287 0
M  V30 2647 C 246.297 1.11786 2.00091 0
M  V30 2648 C 247.31 0.0626307 1.62679 0
M  V30 2649 O 248.499 0.308112 1.75821 0
M  V30 2650 C 245.599 0.681527 3.31977 0
M  V30 2651 C 244.772 1.81735 3.97858 0
M  V30 2652 C 243.831 1.37045 5.08041 0
M  V30 2653 O 242.857 2.07677 5.29961 0
M  V30 2654 N 244.059 0.246525 5.79976 0
M  V30 2655 H 246.824 2.07441 2.16306 0
M  V30 2656 H 244.385 1.2211 1.06305 0
M  V30 2657 H 246.377 0.365675 4.03045 0
M  V30 2658 H 244.947 -0.182828 3.12065 0
M  V30 2659 H 244.167 2.30159 3.20032 0
M  V30 2660 H 245.455 2.57865 4.38615 0
M  V30 2661 H 244.853 -0.34215 5.64664 0
M  V30 2662 H 243.41 -0.00990438 6.51799 0
M  V30 2663 N 246.843 -1.10192 1.12674 0
M  V30 2664 C 248.089 -1.82475 0.884915 0
M  V30 2665 C 248.422 -1.85093 -0.58773 0
M  V30 2666 O 247.697 -1.3134 -1.43457 0
M  V30 2667 C 247.98 -3.29018 1.46353 0
M  V30 2668 C 247.833 -3.34718 3.00473 0
M  V30 2669 C 249.152 -4.25473 1.12519 0
M  V30 2670 H 246.271 -0.662492 0.322915 0
M  V30 2671 H 248.913 -1.2913 1.39375 0
M  V30 2672 H 247.063 -3.74576 1.03077 0
M  V30 2673 H 248.735 -2.97622 3.52447 0
M  V30 2674 H 246.978 -2.74541 3.35872 0
M  V30 2675 H 247.649 -4.37918 3.36053 0
M  V30 2676 H 250.125 -3.88161 1.499 0
M  V30 2677 H 249.001 -5.26365 1.55663 0
M  V30 2678 H 249.262 -4.42084 0.0377407 0
M  V30 2679 N 248.321 -0.919034 -1.28029 0
M  V30 2680 C 249.271 -0.382574 -2.24767 0
M  V30 2681 C 250.255 0.508286 -1.52661 0
M  V30 2682 O 251.447 0.347145 -1.73562 0
M  V30 2683 C 248.576 0.371432 -3.41285 0
M  V30 2684 C 247.662 -0.535449 -4.20706 0
M  V30 2685 N 248.053 -1.65141 -4.78082 0
M  V30 2686 C 246.351 -0.336824 -4.44726 0
M  V30 2687 C 247.052 -2.21475 -5.37888 0
M  V30 2688 N 246.028 -1.50537 -5.22341 0
M  V30 2689 H 249.83 -1.23477 -2.66703 0
M  V30 2690 H 247.344 -0.772299 -1.42861 0
M  V30 2691 H 249.341 0.772638 -4.09678 0
M  V30 2692 H 248.001 1.22066 -3.00882 0
M  V30 2693 H 249.012 -2.03392 -4.7629 0
M  V30 2694 H 245.689 0.47246 -4.14818 0
M  V30 2695 H 247.079 -3.15379 -5.93284 0
M  V30 2696 N 249.799 1.42003 -0.683588 0
M  V30 2697 C 251.21 1.84501 -0.285736 0
M  V30 2698 C 251.561 1.57213 1.17382 0
M  V30 2699 O 250.686 1.03642 1.89966 0
M  V30 2700 C 251.281 3.34912 -0.511821 0
M  V30 2701 C 249.84 3.76025 -0.168005 0
M  V30 2702 C 248.987 2.6551 -0.799983 0
M  V30 2703 H 251.938 1.31724 -0.885119 0
M  V30 2704 H 251.959 3.79784 0.233292 0
M  V30 2705 H 251.471 3.54741 -1.57418 0
M  V30 2706 H 249.572 3.61801 0.890567 0
M  V30 2707 H 249.685 4.75141 -0.614661 0
M  V30 2708 H 248.049 2.53654 -0.230568 0
M  V30 2709 H 248.832 2.8816 -1.86597 0
M  V30 2710 N 251.277 0.427512 1.51691 0
M  V30 2711 C 252.525 -0.141948 2.01601 0
M  V30 2712 C 252.846 -1.44067 1.31414 0
M  V30 2713 O 252.116 -1.90763 0.445658 0
M  V30 2714 H 250.696 -0.0554468 0.744939 0
M  V30 2715 H 253.358 0.567968 1.86441 0
M  V30 2716 H 252.454 -0.324913 3.10404 0
M  V30 2717 N 252.755 -1.56801 0.158532 0
M  V30 2718 C 254.171 -1.5837 -0.197774 0
M  V30 2719 C 254.371 -1.17334 -1.63814 0
M  V30 2720 O 253.427 -0.878988 -2.36707 0
M  V30 2721 C 254.74 -3.00615 0.0714459 0
M  V30 2722 C 256.288 -3.12999 0.00864533 0
M  V30 2723 C 256.763 -4.57313 0.250685 0
M  V30 2724 N 258.254 -4.62777 0.198014 0
M  V30 2725 C 258.989 -5.72271 0.359642 0
M  V30 2726 N 258.485 -6.90371 0.579625 0
M  V30 2727 N 260.278 -5.61318 0.296438 0
M  V30 2728 H 252.429 -1.81765 1.09887 0
M  V30 2729 H 254.692 -0.841849 0.435884 0
M  V30 2730 H 254.398 -3.35068 1.06874 0
M  V30 2731 H 254.272 -3.71683 -0.642757 0
M  V30 2732 H 256.659 -2.7838 -0.979217 0
M  V30 2733 H 256.74 -2.44393 0.755359 0
M  V30 2734 H 256.384 -4.92639 1.2357 0
M  V30 2735 H 256.314 -5.24061 -0.516489 0
M  V30 2736 H 258.805 -3.77885 0.0331115 0
M  V30 2737 H 259.118 -7.69689 0.69275 0
M  V30 2738 H 257.463 -6.92264 0.616087 0
M  V30 2739 H 260.654 -4.67932 0.125258 0
M  V30 2740 H 260.827 -6.46599 0.425831 0
M  V30 2741 N 254.233 0.115231 -1.57178 0
M  V30 2742 C 255.196 1.12526 -1.99676 0
M  V30 2743 C 256.196 1.34095 -0.88742 0
M  V30 2744 O 257.386 1.30548 -1.15337 0
M  V30 2745 C 254.518 2.4789 -2.34015 0
M  V30 2746 H 255.711 0.759912 -2.90113 0
M  V30 2747 H 253.264 0.359648 -1.52106 0
M  V30 2748 H 253.999 2.89339 -1.4647 0
M  V30 2749 H 253.784 2.33588 -3.14927 0
M  V30 2750 H 255.274 3.20575 -2.67622 0
M  V30 2751 N 255.711 1.52812 0.385517 0
M  V30 2752 C 256.674 1.77188 1.45386 0
M  V30 2753 C 257.674 0.641953 1.4743 0
M  V30 2754 O 258.864 0.910033 1.4854 0
M  V30 2755 C 255.996 1.87582 2.8465 0
M  V30 2756 H 257.189 2.72583 1.25054 0
M  V30 2757 H 254.742 1.43586 0.617467 0
M  V30 2758 H 255.477 0.941849 3.10322 0
M  V30 2759 H 255.262 2.69748 2.84567 0
M  V30 2760 H 256.752 2.08102 3.62054 0
M  V30 2761 O 257.228 -0.531464 1.52505 0
M  V30 2762 H 257.919 -1.18658 1.53101 0
M  V30 END ATOM
M  V30 BEGIN BOND
M  V30 END BOND
M  V30 END CTAB
M  END
$$$$
