drugbank_target|P41143 Delta-type opioid receptor (DB00193; DB00295; DB00318; DB00321; DB00327; DB00333; DB00497; DB00514; DB00611; DB00647; DB00704; DB00708; DB00813; DB00836; DB00844; DB00854; DB00899; DB00921; DB00956; DB01081; DB01183; DB01192; DB01221; DB01238; DB01439; DB01444; DB01452; DB01497; DB01535; DB01548; DB01565; DB01571; DB05050; DB06204; DB06230; DB06274; DB06409; DB06738; DB09061; DB09173; DB09209; DB09272; DB11130; DB11691; DB12668; DB14009; DB14011; DB14146)
 OpenBabel12092119313D

  0  0  0     0  0            999 V3000
M  V30 BEGIN CTAB
M  V30 COUNTS 5755 5824 0 0 0
M  V30 BEGIN ATOM
M  V30 1 H -0.908 1.98254 -0.117106 0
M  V30 2 N 0 1.576 0 0
M  V30 3 C 0.933 2.03868 1.02534 0
M  V30 4 C 1.911 0.928543 1.3348 0
M  V30 5 O 3.095 1.19667 1.45644 0
M  V30 6 C 0.222 2.43627 2.35294 0
M  V30 7 C -0.732 3.65373 2.2001 0
M  V30 8 S 0.101 5.13292 1.52614 0
M  V30 9 C 1.257 5.56322 2.86805 0
M  V30 10 H 1.49 2.90518 0.631377 0
M  V30 11 H -0.977 1.52953 0.210867 0
M  V30 12 H 0.981 2.67203 3.11629 0
M  V30 13 H -0.358 1.57376 2.7183 0
M  V30 14 H -1.165 3.90944 3.18086 0
M  V30 15 H -1.563 3.418 1.51819 0
M  V30 16 H 0.729 5.58782 3.83104 0
M  V30 17 H 1.672 6.56266 2.65933 0
M  V30 18 H 2.08 4.83886 2.90714 0
M  V30 19 N 1.4781 -0.272755 1.55222 0
M  V30 20 C 2.3881 -1.35918 1.91216 0
M  V30 21 C 3.4041 -1.54026 0.809436 0
M  V30 22 O 4.5801 -1.68148 1.10852 0
M  V30 23 C 1.6451 -2.69834 2.17693 0
M  V30 24 C 0.7061 -2.6047 3.41253 0
M  V30 25 C -0.0609 -3.88 3.66458 0
M  V30 26 O 0.1621 -4.88693 2.94169 0
M  V30 27 O -0.9039 -3.88189 4.59992 0
M  V30 28 H 2.9221 -1.0839 2.83699 0
M  V30 29 H 0.5071 -0.471301 1.41771 0
M  V30 30 H 2.3891 -3.49017 2.36147 0
M  V30 31 H 1.0641 -2.97148 1.28392 0
M  V30 32 H -0.0289 -1.79663 3.28134 0
M  V30 33 H 1.3041 -2.38106 4.30774 0
M  V30 34 N 2.9562 -1.48159 -0.537278 0
M  V30 35 C 4.3672 -1.49429 -1.11928 0
M  V30 36 C 4.7182 -0.26 -1.9447 0
M  V30 37 O 3.8432 0.633489 -2.0692 0
M  V30 38 C 4.4382 -2.70758 -2.03656 0
M  V30 39 C 2.9972 -2.74923 -2.57088 0
M  V30 40 C 2.1442 -2.42835 -1.3389 0
M  V30 41 H 5.0952 -1.55381 -0.322886 0
M  V30 42 H 5.1162 -2.48861 -2.87834 0
M  V30 43 H 4.6282 -3.60575 -1.43553 0
M  V30 44 H 2.7292 -1.89296 -3.20933 0
M  V30 45 H 2.8422 -3.76157 -2.9672 0
M  V30 46 H 1.2062 -1.93836 -1.65226 0
M  V30 47 H 1.9892 -3.34884 -0.755504 0
M  V30 48 N 4.4343 0.785586 -1.36625 0
M  V30 49 C 5.3973 1.87999 -1.31107 0
M  V30 50 C 6.3973 1.59316 -0.217959 0
M  V30 51 O 7.5873 1.67656 -0.472977 0
M  V30 52 C 4.7193 3.24861 -1.03334 0
M  V30 53 H 5.9123 1.94307 -2.2844 0
M  V30 54 H 3.4653 0.983813 -1.21453 0
M  V30 55 H 4.2003 3.24235 -0.0647432 0
M  V30 56 H 3.9853 3.4707 -1.82441 0
M  V30 57 H 5.4753 4.04929 -1.02088 0
M  V30 58 N 5.9124 1.20967 1.01018 0
M  V30 59 C 7.3234 1.02319 1.56165 0
M  V30 60 C 7.6744 -0.418546 1.91684 0
M  V30 61 O 6.7994 -1.30096 1.72928 0
M  V30 62 C 7.3944 1.85109 2.8376 0
M  V30 63 C 5.9534 1.70809 3.35412 0
M  V30 64 C 5.1004 1.82643 2.08655 0
M  V30 65 H 8.0514 1.35065 0.833255 0
M  V30 66 H 8.0724 1.35827 3.55431 0
M  V30 67 H 7.5844 2.90035 2.57878 0
M  V30 68 H 5.6854 0.685464 3.66241 0
M  V30 69 H 5.7984 2.52467 4.07182 0
M  V30 70 H 4.1624 1.25896 2.21409 0
M  V30 71 H 4.9454 2.89066 1.85191 0
M  V30 72 N 7.3905 -1.2043 1.01659 0
M  V30 73 C 8.6155 -1.94318 0.724942 0
M  V30 74 C 9.0405 -1.74266 -0.708034 0
M  V30 75 O 8.3985 -1.03694 -1.48719 0
M  V30 76 C 8.4465 -3.44486 1.06591 0
M  V30 77 O 7.5505 -4.12017 0.177599 0
M  V30 78 H 6.8915 -0.60708 0.26898 0
M  V30 79 H 9.4215 -1.52861 1.35995 0
M  V30 80 H 9.4315 -3.95106 1.01762 0
M  V30 81 H 8.1065 -3.58404 2.10997 0
M  V30 82 H 6.6835 -3.71821 0.283421 0
M  V30 83 N 8.8686 -0.792821 -1.36206 0
M  V30 84 C 9.8316 -0.199459 -2.2833 0
M  V30 85 C 10.8316 0.605189 -1.48977 0
M  V30 86 O 12.0216 0.425685 -1.68919 0
M  V30 87 C 9.1536 0.723523 -3.33134 0
M  V30 88 H 10.3466 -1.01181 -2.82316 0
M  V30 89 H 7.8996 -0.562485 -1.45828 0
M  V30 90 H 8.6346 1.56008 -2.84309 0
M  V30 91 H 8.4196 0.148436 -3.91819 0
M  V30 92 H 9.9096 1.13344 -4.01924 0
M  V30 93 N 10.3467 1.47872 -0.545128 0
M  V30 94 C 11.5947 2.02093 -0.016553 0
M  V30 95 C 11.9157 1.42305 1.3332 0
M  V30 96 O 11.1857 0.593853 1.86682 0
M  V30 97 H 9.7657 0.746993 -0.00313038 0
M  V30 98 H 12.4277 1.81414 -0.712397 0
M  V30 99 H 11.5237 3.11996 0.0805422 0
M  V30 100 N 11.8248 0.280983 1.55075 0
M  V30 101 C 12.7878 -0.590896 2.21452 0
M  V30 102 C 13.7878 -1.07682 1.19421 0
M  V30 103 O 14.9778 -0.97605 1.44288 0
M  V30 104 C 12.1098 -1.81587 2.88511 0
M  V30 105 H 13.3028 -0.0112554 2.99898 0
M  V30 106 H 10.8558 0.0316438 1.56268 0
M  V30 107 H 11.5908 -2.43587 2.14093 0
M  V30 108 H 11.3758 -1.4753 3.63287 0
M  V30 109 H 12.8658 -2.43575 3.39206 0
M  V30 110 N 13.3029 -1.57598 0.00835791 0
M  V30 111 C 14.2129 -2.12385 -0.996487 0
M  V30 112 C 15.2289 -1.07108 -1.37127 0
M  V30 113 O 16.4049 -1.39055 -1.4569 0
M  V30 114 C 13.4699 -2.62314 -2.26699 0
M  V30 115 C 12.5309 -3.82225 -1.95456 0
M  V30 116 C 11.7639 -4.29763 -3.16449 0
M  V30 117 O 11.9869 -3.76584 -4.28416 0
M  V30 118 O 10.9209 -5.21832 -2.99958 0
M  V30 119 H 14.7469 -2.98479 -0.560725 0
M  V30 120 H 12.3319 -1.47903 -0.210987 0
M  V30 121 H 14.2139 -2.94589 -3.01322 0
M  V30 122 H 12.8889 -1.79313 -2.69497 0
M  V30 123 H 11.7959 -3.54909 -1.18282 0
M  V30 124 H 13.1289 -4.66324 -1.57489 0
M  V30 125 N 14.781 0.264519 -1.55364 0
M  V30 126 C 15.711 1.33121 -1.91836 0
M  V30 127 C 16.692 1.51101 -0.781192 0
M  V30 128 O 17.877 1.64003 -1.04003 0
M  V30 129 C 15.007 2.68921 -2.19769 0
M  V30 130 C 13.961 2.65661 -3.35571 0
M  V30 131 C 13.287 4.05093 -3.49004 0
M  V30 132 C 14.587 2.24187 -4.71739 0
M  V30 133 H 16.281 1.02844 -2.81182 0
M  V30 134 H 13.827 0.493286 -1.35287 0
M  V30 135 H 15.78 3.43663 -2.43872 0
M  V30 136 H 14.504 3.00799 -1.27231 0
M  V30 137 H 13.163 1.93377 -3.1145 0
M  V30 138 H 12.811 4.34206 -2.53917 0
M  V30 139 H 12.511 4.03804 -4.26868 0
M  V30 140 H 14.035 4.81561 -3.75408 0
M  V30 141 H 15.449 2.88654 -4.9533 0
M  V30 142 H 13.846 2.34044 -5.52579 0
M  V30 143 H 14.916 1.19327 -4.69988 0
M  V30 144 N 16.2591 1.48442 0.529413 0
M  V30 145 C 17.1911 1.59095 1.64989 0
M  V30 146 C 18.2041 0.475212 1.5571 0
M  V30 147 O 19.3931 0.746081 1.6216 0
M  V30 148 C 16.4931 1.50518 3.0364 0
M  V30 149 C 15.6661 2.77142 3.38395 0
M  V30 150 C 14.7251 2.62012 4.56329 0
M  V30 151 O 13.7511 3.35898 4.59522 0
M  V30 152 N 14.9531 1.71667 5.54536 0
M  V30 153 H 17.7181 2.55723 1.56287 0
M  V30 154 H 15.2791 1.45173 0.716697 0
M  V30 155 H 17.2711 1.38091 3.80412 0
M  V30 156 H 15.8411 0.618627 3.06418 0
M  V30 157 H 15.0611 3.0413 2.50796 0
M  V30 158 H 16.3491 3.61146 3.58401 0
M  V30 159 H 15.7471 1.10841 5.54735 0
M  V30 160 H 14.3041 1.65178 6.30523 0
M  V30 161 N 17.7372 -0.778329 1.37039 0
M  V30 162 C 19.1482 -1.35421 1.28523 0
M  V30 163 C 19.4992 -1.96075 -0.0700901 0
M  V30 164 O 18.6242 -1.93352 -0.971801 0
M  V30 165 C 19.2192 -2.46211 2.32735 0
M  V30 166 C 17.7782 -2.99585 2.27873 0
M  V30 167 C 16.9252 -1.72748 2.16918 0
M  V30 168 H 19.8762 -0.5791 1.47757 0
M  V30 169 H 19.8972 -3.2552 1.9702 0
M  V30 170 H 19.4092 -2.02036 3.31365 0
M  V30 171 H 17.5102 -3.48152 1.32745 0
M  V30 172 H 17.6232 -3.55646 3.21018 0
M  V30 173 H 15.9872 -1.95416 1.63354 0
M  V30 174 H 16.7702 -1.30686 3.17452 0
M  V30 175 N 19.2153 -1.21501 -1.00376 0
M  V30 176 C 20.6263 -1.03146 -1.55621 0
M  V30 177 C 20.9773 0.408375 -1.91903 0
M  V30 178 O 20.1023 1.29177 -1.73616 0
M  V30 179 C 20.6973 -1.86612 -2.82775 0
M  V30 180 C 19.2563 -1.72586 -3.34501 0
M  V30 181 C 18.4033 -1.83747 -2.07683 0
M  V30 182 H 21.3543 -1.35505 -0.826081 0
M  V30 183 H 21.3753 -1.3771 -3.54706 0
M  V30 184 H 20.8873 -2.91399 -2.56336 0
M  V30 185 H 18.9883 -0.704877 -3.65872 0
M  V30 186 H 19.1013 -2.54623 -4.05837 0
M  V30 187 H 17.4653 -1.27069 -2.20739 0
M  V30 188 H 18.2483 -2.90044 -1.83655 0
M  V30 189 N 20.6934 1.19889 -1.02296 0
M  V30 190 C 21.6234 2.25141 -0.619174 0
M  V30 191 C 22.6044 1.66051 0.368915 0
M  V30 192 O 23.7894 1.92546 0.252941 0
M  V30 193 C 20.9194 3.4728 0.0368783 0
M  V30 194 C 19.8734 4.19005 -0.872865 0
M  V30 195 C 19.1994 5.34637 -0.0822402 0
M  V30 196 C 20.4994 4.74452 -2.18387 0
M  V30 197 H 22.1934 2.59171 -1.49903 0
M  V30 198 H 19.7394 1.24579 -0.722222 0
M  V30 199 H 21.6924 4.20098 0.330958 0
M  V30 200 H 20.4164 3.12433 0.95149 0
M  V30 201 H 19.0754 3.48061 -1.15105 0
M  V30 202 H 18.7234 4.96034 0.83422 0
M  V30 203 H 18.4234 5.83557 -0.688149 0
M  V30 204 H 19.9474 6.10255 0.205238 0
M  V30 205 H 21.3614 5.39055 -1.95172 0
M  V30 206 H 19.7584 5.33834 -2.74119 0
M  V30 207 H 20.8284 3.92844 -2.84257 0
M  V30 208 N 22.1715 0.800033 1.35784 0
M  V30 209 C 23.4185 0.377342 1.98953 0
M  V30 210 C 23.7465 -1.05378 1.6348 0
M  V30 211 O 23.0015 -1.74459 0.886707 0
M  V30 212 C 23.3005 0.500276 3.53881 0
M  V30 213 C 22.9665 1.89375 4.09204 0
M  V30 214 C 21.6285 2.27499 4.24025 0
M  V30 215 C 23.9805 2.8057 4.39238 0
M  V30 216 C 21.3085 3.562 4.66195 0
M  V30 217 C 23.6605 4.0871 4.82844 0
M  V30 218 C 22.3245 4.46843 4.95871 0
M  V30 219 H 21.5945 0.138079 0.728021 0
M  V30 220 H 24.2415 1.01955 1.62103 0
M  V30 221 H 22.5465 -0.225405 3.91151 0
M  V30 222 H 24.2435 0.154097 4.00704 0
M  V30 223 H 20.8335 1.58753 3.98115 0
M  V30 224 H 25.0175 2.52367 4.27346 0
M  V30 225 H 20.2735 3.85602 4.74469 0
M  V30 226 H 24.4475 4.79481 5.05046 0
M  V30 227 H 22.0745 5.46623 5.28306 0
M  V30 228 N 23.6496 -1.47581 0.552962 0
M  V30 229 C 24.6126 -2.28439 -0.186605 0
M  V30 230 C 25.6126 -1.36706 -0.84665 0
M  V30 231 O 26.8026 -1.59378 -0.703164 0
M  V30 232 C 23.9346 -3.16264 -1.2724 0
M  V30 233 H 25.1276 -2.95294 0.523609 0
M  V30 234 H 22.6806 -1.532 0.309745 0
M  V30 235 H 23.4156 -2.54091 -2.01514 0
M  V30 236 H 23.2006 -3.83769 -0.803968 0
M  V30 237 H 24.6906 -3.77198 -1.79196 0
M  V30 238 N 25.1277 -0.289203 -1.54924 0
M  V30 239 C 26.0757 0.607966 -2.24514 0
M  V30 240 C 27.0697 1.14655 -1.24702 0
M  V30 241 O 28.2757 1.09856 -1.4259 0
M  V30 242 H 24.6507 0.21464 -0.720718 0
M  V30 243 H 26.6217 -0.00164182 -2.984 0
M  V30 244 C 25.3707 1.77406 -2.99036 0
M  V30 245 H 24.6937 1.36884 -3.75637 0
M  V30 246 H 26.1337 2.37814 -3.51028 0
M  V30 247 C 24.5927 2.67107 -2.05318 0
M  V30 248 O 25.1227 3.6787 -1.61353 0
M  V30 249 N 23.3287 2.34582 -1.71521 0
M  V30 250 H 22.8757 1.52688 -2.07471 0
M  V30 251 H 22.8337 2.94867 -1.0909 0
M  V30 252 N 26.6058 1.57591 -0.0167156 0
M  V30 253 C 27.5688 2.08393 0.954204 0
M  V30 254 C 28.5688 0.996531 1.26198 0
M  V30 255 O 29.7588 1.25858 1.20438 0
M  V30 256 C 26.8908 2.5394 2.27436 0
M  V30 257 H 28.0838 2.95455 0.514451 0
M  V30 258 H 25.6368 1.54582 0.231089 0
M  V30 259 H 26.3718 1.70171 2.76066 0
M  V30 260 H 26.1568 3.33371 2.06412 0
M  V30 261 H 27.6468 2.93512 2.97053 0
M  V30 262 N 28.0839 -0.256276 1.55502 0
M  V30 263 C 29.3089 -1.00766 1.81276 0
M  V30 264 C 29.7339 -1.78524 0.59252 0
M  V30 265 O 29.0919 -1.75413 -0.45827 0
M  V30 266 C 29.1399 -1.92869 3.04687 0
M  V30 267 O 28.2439 -3.019 2.80945 0
M  V30 268 H 27.5849 -0.287224 0.598664 0
M  V30 269 H 30.1149 -0.280109 2.02674 0
M  V30 270 H 30.1249 -2.34511 3.33869 0
M  V30 271 H 28.7999 -1.35689 3.93143 0
M  V30 272 H 27.3769 -2.64454 2.62904 0
M  V30 273 N 29.562 -1.4872 -0.521534 0
M  V30 274 C 30.839 -1.4766 -1.2828 0
M  V30 275 C 31.219 -0.19292 -2.10217 0
M  V30 276 O 30.567 0.825193 -2.13079 0
M  V30 277 C 30.777 -2.74358 -2.15705 0
M  V30 278 C 32.125 -3.23028 -2.75569 0
M  V30 279 O 33.149 -2.75333 -2.25987 0
M  V30 280 O 32.008 -4.0604 -3.65778 0
M  V30 281 H 29.102 -0.590085 -0.579421 0
M  V30 282 H 31.648 -1.60963 -0.537492 0
M  V30 283 H 30.42 -3.59292 -1.54999 0
M  V30 284 H 30.043 -2.63816 -2.97467 0
M  V30 285 N 31.0401 0.771051 -1.3745 0
M  V30 286 C 32.0031 1.86598 -1.33093 0
M  V30 287 C 33.0031 1.59076 -0.234845 0
M  V30 288 O 34.1931 1.67145 -0.490732 0
M  V30 289 C 31.3251 3.23747 -1.06773 0
M  V30 290 H 32.5181 1.91873 -2.30488 0
M  V30 291 H 30.0711 0.970876 -1.2249 0
M  V30 292 H 30.8061 3.24148 -0.099129 0
M  V30 293 H 30.5911 3.45115 -1.86112 0
M  V30 294 H 32.0811 4.03824 -1.06377 0
M  V30 295 N 32.5182 1.22032 0.997298 0
M  V30 296 C 33.7482 1.06686 1.76923 0
M  V30 297 C 34.1562 -0.385838 1.85224 0
M  V30 298 O 33.4992 -1.27929 1.31833 0
M  V30 299 C 33.5612 1.59802 3.22031 0
M  V30 300 C 33.2252 3.08362 3.37286 0
M  V30 301 C 34.2222 4.05835 3.24952 0
M  V30 302 C 31.9072 3.47727 3.6248 0
M  V30 303 C 33.9012 5.4066 3.37588 0
M  V30 304 C 31.5882 4.82701 3.74757 0
M  V30 305 C 32.5862 5.78977 3.62319 0
M  V30 306 O 32.2742 7.11502 3.74193 0
M  V30 307 H 32.0062 0.374767 0.562606 0
M  V30 308 H 34.5602 1.61991 1.26286 0
M  V30 309 H 32.7902 0.989003 3.73839 0
M  V30 310 H 34.4792 1.40184 3.80924 0
M  V30 311 H 35.2452 3.76766 3.05405 0
M  V30 312 H 31.1242 2.73317 3.7124 0
M  V30 313 H 34.6682 6.15788 3.27796 0
M  V30 314 H 30.5652 5.11453 3.9381 0
M  V30 315 H 31.3332 7.19019 3.91093 0
M  V30 316 N 33.9963 -1.19345 1.0293 0
M  V30 317 C 35.4073 -1.70725 0.755633 0
M  V30 318 C 35.7583 -1.82326 -0.724676 0
M  V30 319 O 34.8833 -1.49471 -1.56484 0
M  V30 320 C 35.4783 -3.10084 1.36503 0
M  V30 321 C 34.0373 -3.58723 1.13994 0
M  V30 322 C 33.1843 -2.35577 1.46283 0
M  V30 323 H 36.1353 -1.0418 1.19718 0
M  V30 324 H 36.1563 -3.72787 0.762217 0
M  V30 325 H 35.6683 -3.01609 2.44241 0
M  V30 326 H 33.7693 -3.72512 0.0807901 0
M  V30 327 H 33.8823 -4.42816 1.82894 0
M  V30 328 H 32.2463 -2.38935 0.88217 0
M  V30 329 H 33.0293 -2.29731 2.55105 0
M  V30 330 N 35.4744 -0.807222 -1.35358 0
M  V30 331 C 36.6994 -0.399309 -2.0352 0
M  V30 332 C 37.1244 0.981986 -1.60433 0
M  V30 333 O 36.4824 1.63601 -0.781299 0
M  V30 334 C 36.5304 -0.491552 -3.57234 0
M  V30 335 O 35.6344 0.494754 -4.09421 0
M  V30 336 H 34.9754 -0.166682 -0.642739 0
M  V30 337 H 37.5054 -1.09328 -1.72941 0
M  V30 338 H 37.5154 -0.361588 -4.06395 0
M  V30 339 H 36.1904 -1.49907 -3.87944 0
M  V30 340 H 34.7674 0.324977 -3.71481 0
M  V30 341 N 36.9525 1.47285 -0.560781 0
M  V30 342 C 37.9155 2.28535 0.174488 0
M  V30 343 C 38.9155 1.37153 0.839388 0
M  V30 344 O 40.1055 1.59748 0.694702 0
M  V30 345 C 37.2375 3.16934 1.25561 0
M  V30 346 H 38.4305 2.95012 -0.539262 0
M  V30 347 H 35.9835 1.53034 -0.317865 0
M  V30 348 H 36.7185 2.55157 2.00164 0
M  V30 349 H 36.5035 3.8419 0.783604 0
M  V30 350 H 37.9935 3.78143 1.77193 0
M  V30 351 N 38.4306 0.297415 1.54768 0
M  V30 352 C 39.6706 -0.313829 2.01976 0
M  V30 353 C 40.0346 -1.51366 1.1812 0
M  V30 354 O 41.2356 -2.19603 1.5501 0
M  V30 355 C 39.5066 -0.664964 3.51159 0
M  V30 356 S 41.0656 -1.25958 4.20333 0
M  V30 357 H 37.8836 -0.0965014 0.704421 0
M  V30 358 H 40.4856 0.424451 1.90837 0
M  V30 359 H 39.1896 0.21681 4.09827 0
M  V30 360 H 38.7206 -1.43413 3.66328 0
M  V30 361 H 40.7356 -2.54751 4.25813 0
M  V30 362 N 39.9087 -1.5758 0.0250728 0
M  V30 363 C 41.3197 -1.79476 -0.514323 0
M  V30 364 C 41.6707 -0.934956 -1.72491 0
M  V30 365 O 40.7957 -0.144245 -2.15919 0
M  V30 366 C 41.3907 -3.25503 -0.939842 0
M  V30 367 C 39.9497 -3.48408 -1.42438 0
M  V30 368 C 39.0967 -2.74583 -0.387201 0
M  V30 369 H 42.0477 -1.567 0.25113 0
M  V30 370 H 42.0687 -3.34992 -1.80445 0
M  V30 371 H 41.5807 -3.88056 -0.0585628 0
M  V30 372 H 39.6817 -2.91103 -2.32572 0
M  V30 373 H 39.7947 -4.57119 -1.43455 0
M  V30 374 H 38.1587 -2.39942 -0.854409 0
M  V30 375 H 38.9417 -3.39849 0.485543 0
M  V30 376 N 41.3868 0.248026 -1.55636 0
M  V30 377 C 42.6118 0.998028 -1.81808 0
M  V30 378 C 43.0368 1.78207 -0.601979 0
M  V30 379 O 42.3948 1.75653 0.448961 0
M  V30 380 C 42.4428 1.9125 -3.05705 0
M  V30 381 O 41.5468 3.00406 -2.82542 0
M  V30 382 H 40.8878 0.284045 -0.600179 0
M  V30 383 H 43.4178 0.269357 -2.02819 0
M  V30 384 H 43.4278 2.32737 -3.35108 0
M  V30 385 H 42.1028 1.33602 -3.93857 0
M  V30 386 H 40.6798 2.63056 -2.64303 0
M  V30 387 N 42.8649 1.48995 0.513639 0
M  V30 388 C 43.8279 1.64229 1.59879 0
M  V30 389 C 44.8279 0.514696 1.5234 0
M  V30 390 O 46.0179 0.78087 1.55718 0
M  V30 391 C 43.1499 1.62783 2.99524 0
M  V30 392 H 44.3429 2.61004 1.47705 0
M  V30 393 H 41.8959 1.37837 0.736936 0
M  V30 394 H 42.6309 0.675461 3.17188 0
M  V30 395 H 42.4159 2.4466 3.06404 0
M  V30 396 H 43.9059 1.76669 3.78388 0
M  V30 397 N 44.343 -0.763751 1.37857 0
M  V30 398 C 45.591 -1.51957 1.33243 0
M  V30 399 C 45.912 -1.94835 -0.0801709 0
M  V30 400 O 45.182 -1.66894 -1.02582 0
M  V30 401 H 43.762 -0.563626 0.49024 0
M  V30 402 H 46.424 -0.908504 1.7243 0
M  V30 403 H 45.52 -2.41523 1.97669 0
M  V30 404 N 45.8211 -1.22559 -0.990812 0
M  V30 405 C 46.7841 -0.998863 -2.0629 0
M  V30 406 C 47.7841 0.0354834 -1.60761 0
M  V30 407 O 48.9741 -0.203231 -1.7301 0
M  V30 408 C 46.1061 -0.509203 -3.37076 0
M  V30 409 H 47.2991 -1.95014 -2.27837 0
M  V30 410 H 44.8521 -1.04456 -1.16269 0
M  V30 411 H 45.5871 0.446335 -3.21214 0
M  V30 412 H 45.3721 -1.25547 -3.71457 0
M  V30 413 H 46.8621 -0.370888 -4.1595 0
M  V30 414 N 47.2992 1.18797 -1.03562 0
M  V30 415 C 48.2472 2.24297 -0.615905 0
M  V30 416 C 49.2412 1.65643 0.354808 0
M  V30 417 O 50.4472 1.78618 0.22265 0
M  V30 418 H 46.8222 0.729909 -0.180934 0
M  V30 419 H 48.7932 2.5701 -1.5162 0
M  V30 420 C 47.5422 3.47698 0.0104735 0
M  V30 421 H 46.8652 3.93125 -0.727509 0
M  V30 422 H 48.3052 4.23159 0.266995 0
M  V30 423 C 46.7642 3.12489 1.25905 0
M  V30 424 O 47.2942 3.25761 2.35038 0
M  V30 425 N 45.5002 2.6686 1.15039 0
M  V30 426 H 45.0472 2.56261 0.262328 0
M  V30 427 H 45.0052 2.43674 1.98672 0
M  V30 428 N 48.7773 0.814389 1.34928 0
M  V30 429 C 49.7403 0.235759 2.27984 0
M  V30 430 C 50.7403 -0.581412 1.49921 0
M  V30 431 O 51.9303 -0.398758 1.69575 0
M  V30 432 C 49.0623 -0.670433 3.34242 0
M  V30 433 H 50.2553 1.05659 2.80671 0
M  V30 434 H 47.8083 0.585614 1.44915 0
M  V30 435 H 48.5433 -1.51466 2.86755 0
M  V30 436 H 48.3283 -0.0860822 3.92005 0
M  V30 437 H 49.8183 -1.06935 4.03676 0
M  V30 438 N 50.2554 -1.46986 0.568584 0
M  V30 439 C 51.4804 -2.07335 0.0520528 0
M  V30 440 C 51.9054 -1.41675 -1.23733 0
M  V30 441 O 51.2634 -0.495623 -1.74394 0
M  V30 442 C 51.3114 -3.60417 -0.11501 0
M  V30 443 O 50.4154 -3.95309 -1.17492 0
M  V30 444 H 49.7564 -0.661597 0.0564385 0
M  V30 445 H 52.2864 -1.88837 0.787507 0
M  V30 446 H 52.2964 -4.06698 -0.325644 0
M  V30 447 H 50.9714 -4.07601 0.826675 0
M  V30 448 H 49.5484 -3.60757 -0.943869 0
M  V30 449 N 51.7335 -0.305618 -1.54608 0
M  V30 450 C 52.9815 0.301701 -1.99835 0
M  V30 451 C 53.3025 1.54054 -1.19551 0
M  V30 452 O 52.5725 1.93702 -0.292658 0
M  V30 453 H 51.1525 0.114468 -0.738178 0
M  V30 454 H 53.8145 -0.418016 -1.90364 0
M  V30 455 H 52.9105 0.570548 -3.06841 0
M  V30 456 N 53.2116 1.57565 -0.0334293 0
M  V30 457 C 54.6226 1.79746 0.504798 0
M  V30 458 C 54.9736 0.944091 1.71992 0
M  V30 459 O 54.0986 0.155694 2.15839 0
M  V30 460 C 54.6936 3.25997 0.922567 0
M  V30 461 C 53.2526 3.49159 1.40588 0
M  V30 462 C 52.3996 2.74785 0.372633 0
M  V30 463 H 55.3506 1.56565 -0.259436 0
M  V30 464 H 55.3716 3.35945 1.78666 0
M  V30 465 H 54.8836 3.88081 0.0379825 0
M  V30 466 H 52.9846 2.92332 2.31025 0
M  V30 467 H 53.0976 4.57873 1.41028 0
M  V30 468 H 51.4616 2.40391 0.841672 0
M  V30 469 H 52.2446 3.39587 -0.503559 0
M  V30 470 N 54.6897 -0.239769 1.55765 0
M  V30 471 C 56.1007 -0.808263 1.68297 0
M  V30 472 C 56.4517 -1.85736 0.632181 0
M  V30 473 O 55.5767 -2.15277 -0.220204 0
M  V30 474 C 56.1717 -1.47284 3.05111 0
M  V30 475 C 54.7307 -1.98895 3.19559 0
M  V30 476 C 53.8777 -0.842575 2.64189 0
M  V30 477 H 56.8287 -0.0154422 1.58692 0
M  V30 478 H 56.8497 -2.34111 2.99954 0
M  V30 479 H 56.3617 -0.709053 3.81568 0
M  V30 480 H 54.4627 -2.78132 2.47938 0
M  V30 481 H 54.5757 -2.18143 4.26556 0
M  V30 482 H 52.9397 -1.24501 2.22197 0
M  V30 483 H 53.7227 -0.0917552 3.43177 0
M  V30 484 N 56.1678 -1.49265 -0.50573 0
M  V30 485 C 57.4158 -1.582 -1.25766 0
M  V30 486 C 57.7368 -0.268482 -1.93143 0
M  V30 487 O 57.0068 0.711833 -1.8251 0
M  V30 488 H 55.5868 -0.582873 -0.467191 0
M  V30 489 H 58.2488 -1.85865 -0.586525 0
M  V30 490 H 57.3448 -2.37563 -2.02412 0
M  V30 491 N 57.6459 0.756429 -1.3826 0
M  V30 492 C 58.6089 1.85176 -1.35065 0
M  V30 493 C 59.6089 1.58818 -0.251703 0
M  V30 494 O 60.7989 1.66615 -0.508433 0
M  V30 495 C 57.9309 3.22596 -1.10201 0
M  V30 496 H 59.1239 1.89417 -2.3251 0
M  V30 497 H 56.6769 0.95783 -1.23512 0
M  V30 498 H 57.4119 3.24025 -0.133504 0
M  V30 499 H 57.1969 3.43122 -1.89762 0
M  V30 500 H 58.6869 4.02673 -1.10654 0
M  V30 501 N 59.124 1.23083 0.984299 0
M  V30 502 C 60.54 0.992637 1.24975 0
M  V30 503 C 60.74 -0.308618 1.99123 0
M  V30 504 O 59.796 -1.02905 2.30579 0
M  V30 505 C 61.109 2.19698 2.05312 0
M  V30 506 C 62.657 2.24147 2.18465 0
M  V30 507 C 63.132 3.44157 3.02192 0
M  V30 508 N 64.623 3.44372 3.09777 0
M  V30 509 C 65.358 4.33886 3.74874 0
M  V30 510 N 64.854 5.3363 4.41827 0
M  V30 511 N 66.647 4.21639 3.71721 0
M  V30 512 H 58.798 2.06731 0.487453 0
M  V30 513 H 61.061 0.906339 0.277944 0
M  V30 514 H 60.767 3.1411 1.58201 0
M  V30 515 H 60.641 2.20465 3.06064 0
M  V30 516 H 63.028 1.30277 2.64786 0
M  V30 517 H 63.109 2.27415 1.17115 0
M  V30 518 H 62.753 4.38332 2.56568 0
M  V30 519 H 62.683 3.3813 4.03702 0
M  V30 520 H 65.174 2.72201 2.62135 0
M  V30 521 H 65.487 5.98196 4.89266 0
M  V30 522 H 63.832 5.37534 4.40548 0
M  V30 523 H 67.023 3.42962 3.18582 0
M  V30 524 H 67.196 4.91604 4.22173 0
M  V30 525 N 60.6021 -1.18246 1.0419 0
M  V30 526 C 61.8271 -1.92736 0.765996 0
M  V30 527 C 62.2521 -1.75728 -0.67091 0
M  V30 528 O 61.6101 -1.06825 -1.46486 0
M  V30 529 C 61.6581 -3.42148 1.13875 0
M  V30 530 O 60.7621 -4.11548 0.264954 0
M  V30 531 H 60.1031 -0.601238 0.281797 0
M  V30 532 H 62.6331 -1.49942 1.39207 0
M  V30 533 H 62.6431 -3.92858 1.1012 0
M  V30 534 H 61.3181 -3.53848 2.18551 0
M  V30 535 H 59.8951 -3.71137 0.362226 0
M  V30 536 N 62.0802 -0.821533 -1.34494 0
M  V30 537 C 63.0432 -0.247847 -2.27856 0
M  V30 538 C 64.0432 0.573453 -1.50227 0
M  V30 539 O 65.2332 0.389759 -1.69784 0
M  V30 540 C 62.3652 0.652698 -3.34593 0
M  V30 541 H 63.5582 -1.07146 -2.80107 0
M  V30 542 H 61.1112 -0.593291 -1.44602 0
M  V30 543 H 61.8462 1.49943 -2.87555 0
M  V30 544 H 61.6312 0.065292 -3.92046 0
M  V30 545 H 63.1212 1.04793 -4.04238 0
M  V30 546 N 63.5583 1.46682 -0.576371 0
M  V30 547 C 64.7833 2.07304 -0.0630475 0
M  V30 548 C 65.2083 1.42329 1.2298 0
M  V30 549 O 64.5663 0.504865 1.74129 0
M  V30 550 C 64.6143 3.60472 0.095895 0
M  V30 551 O 63.7183 3.95927 1.15394 0
M  V30 552 H 63.0593 0.661288 -0.0599463 0
M  V30 553 H 65.5893 1.88417 -0.797511 0
M  V30 554 H 65.5993 4.06865 0.304071 0
M  V30 555 H 64.2743 4.07157 -0.84828 0
M  V30 556 H 62.8513 3.61252 0.924724 0
M  V30 557 N 65.0364 0.313813 1.54444 0
M  V30 558 C 66.2614 -0.296681 2.05267 0
M  V30 559 C 66.6864 -1.45757 1.18897 0
M  V30 560 O 66.0444 -1.80239 0.195886 0
M  V30 561 C 66.0924 -0.71831 3.53373 0
M  V30 562 O 65.1964 -1.82175 3.69981 0
M  V30 563 H 64.5374 -0.0554061 0.661684 0
M  V30 564 H 67.0674 0.459387 1.99376 0
M  V30 565 H 67.0774 -1.00364 3.95463 0
M  V30 566 H 65.7524 0.130821 4.15694 0
M  V30 567 H 64.3294 -1.53598 3.39797 0
M  V30 568 N 66.5145 -1.57545 0.0417849 0
M  V30 569 C 67.4445 -2.14009 -0.933929 0
M  V30 570 C 68.4255 -1.05938 -1.33083 0
M  V30 571 O 69.6105 -1.33833 -1.40721 0
M  V30 572 C 66.7405 -2.67747 -2.21199 0
M  V30 573 C 65.6945 -3.80718 -1.95544 0
M  V30 574 C 65.0205 -4.20935 -3.29724 0
M  V30 575 C 66.3205 -5.06258 -1.28452 0
M  V30 576 H 68.0145 -2.95788 -0.463645 0
M  V30 577 H 65.5605 -1.42285 -0.221573 0
M  V30 578 H 67.5135 -3.05886 -2.89848 0
M  V30 579 H 66.2375 -1.83147 -2.70416 0
M  V30 580 H 64.8965 -3.43037 -1.2931 0
M  V30 581 H 64.5445 -3.33298 -3.76724 0
M  V30 582 H 64.2445 -4.9707 -3.13361 0
M  V30 583 H 65.7685 -4.61666 -3.9962 0
M  V30 584 H 67.1825 -5.41903 -1.8712 0
M  V30 585 H 65.5795 -5.87475 -1.22445 0
M  V30 586 H 66.6495 -4.84207 -0.259219 0
M  V30 587 N 67.9926 0.231505 -1.5589 0
M  V30 588 C 68.9556 1.27028 -1.90779 0
M  V30 589 C 69.9556 1.40308 -0.785507 0
M  V30 590 O 71.1456 1.38744 -1.05336 0
M  V30 591 C 68.2776 2.64566 -2.14983 0
M  V30 592 H 69.4706 0.973017 -2.83677 0
M  V30 593 H 67.0236 0.471486 -1.49019 0
M  V30 594 H 67.7586 2.99406 -1.24604 0
M  V30 595 H 67.5436 2.56305 -2.96732 0
M  V30 596 H 69.0336 3.39543 -2.43105 0
M  V30 597 N 69.4707 1.49531 0.497807 0
M  V30 598 C 70.4007 1.6935 1.60757 0
M  V30 599 C 71.3817 0.542218 1.61227 0
M  V30 600 O 72.5667 0.778417 1.77917 0
M  V30 601 C 69.6967 1.76298 2.99226 0
M  V30 602 C 68.6507 2.91248 3.13622 0
M  V30 603 C 67.9767 2.83312 4.53474 0
M  V30 604 C 69.2767 4.3214 2.93346 0
M  V30 605 H 70.9707 2.62263 1.44425 0
M  V30 606 H 68.5167 1.26208 0.693367 0
M  V30 607 H 70.4697 1.88749 3.76765 0
M  V30 608 H 69.1937 0.799871 3.16654 0
M  V30 609 H 67.8527 2.78404 2.38509 0
M  V30 610 H 67.5007 1.84902 4.67782 0
M  V30 611 H 67.2007 3.60465 4.64046 0
M  V30 612 H 68.7247 2.97775 5.33069 0
M  V30 613 H 70.1387 4.45649 3.60652 0
M  V30 614 H 68.5357 5.1054 3.15387 0
M  V30 615 H 69.6057 4.46363 1.89441 0
M  V30 616 N 70.9488 -0.749086 1.3866 0
M  V30 617 C 71.9118 -1.84457 1.36045 0
M  V30 618 C 72.9118 -1.58682 0.260122 0
M  V30 619 O 74.1018 -1.66343 0.517261 0
M  V30 620 C 71.2338 -3.22008 1.11911 0
M  V30 621 H 72.4268 -1.88182 2.33512 0
M  V30 622 H 69.9798 -0.951266 1.24019 0
M  V30 623 H 70.7148 -3.2395 0.150686 0
M  V30 624 H 70.4998 -3.42111 1.91579 0
M  V30 625 H 71.9898 -4.0208 1.12788 0
M  V30 626 N 72.4269 -1.23603 -0.977757 0
M  V30 627 C 73.6759 -1.06377 -1.71368 0
M  V30 628 C 73.9889 0.399062 -1.91486 0
M  V30 629 O 75.1949 0.691312 -2.62551 0
M  V30 630 C 73.6509 -1.85512 -3.08404 0
M  V30 631 C 73.2589 -3.36141 -2.96164 0
M  V30 632 C 75.0029 -1.76783 -3.85938 0
M  V30 633 C 72.9099 -4.07659 -4.28449 0
M  V30 634 H 71.8399 -0.394452 -0.642591 0
M  V30 635 H 74.4909 -1.47594 -1.09034 0
M  V30 636 H 72.8729 -1.37103 -3.71509 0
M  V30 637 H 74.0469 -3.92056 -2.42133 0
M  V30 638 H 72.3619 -3.45712 -2.32104 0
M  V30 639 H 74.9589 -2.27526 -4.83876 0
M  V30 640 H 75.3019 -0.731116 -4.0983 0
M  V30 641 H 75.8349 -2.22818 -3.2954 0
M  V30 642 H 72.5739 -5.11648 -4.09752 0
M  V30 643 H 72.0939 -3.5653 -4.82334 0
M  V30 644 H 73.7729 -4.141 -4.97122 0
M  V30 645 N 73.905 1.17692 -1.04816 0
M  V30 646 C 74.868 2.19787 -0.650117 0
M  V30 647 C 75.868 1.58044 0.296427 0
M  V30 648 O 77.058 1.74012 0.0808097 0
M  V30 649 C 74.19 3.40869 0.0456987 0
M  V30 650 H 75.383 2.56516 -1.5537 0
M  V30 651 H 72.936 1.31708 -0.841594 0
M  V30 652 H 73.671 3.09681 0.962726 0
M  V30 653 H 73.456 3.86928 -0.634727 0
M  V30 654 H 74.946 4.16445 0.310432 0
M  V30 655 N 75.3831 0.828654 1.34056 0
M  V30 656 C 76.6321 0.415828 1.97367 0
M  V30 657 C 76.9451 -1.02796 1.6641 0
M  V30 658 O 78.1511 -1.54497 2.23255 0
M  V30 659 C 76.6071 0.692601 3.53173 0
M  V30 660 C 76.2151 2.15038 3.93017 0
M  V30 661 C 77.9591 0.346222 4.23086 0
M  V30 662 C 75.8661 2.37174 5.41758 0
M  V30 663 H 74.7961 0.151755 0.738571 0
M  V30 664 H 77.4471 1.01581 1.52819 0
M  V30 665 H 75.8291 0.0223764 3.95994 0
M  V30 666 H 77.0031 2.86024 3.61285 0
M  V30 667 H 75.3181 2.45875 3.36057 0
M  V30 668 H 77.9151 0.48937 5.32456 0
M  V30 669 H 78.2581 -0.709842 4.10204 0
M  V30 670 H 78.7911 0.971258 3.85761 0
M  V30 671 H 75.5301 3.41308 5.59633 0
M  V30 672 H 75.0501 1.70738 5.74986 0
M  V30 673 H 76.7291 2.19818 6.08514 0
M  V30 674 N 76.8612 -1.46375 0.584142 0
M  V30 675 C 78.0892 -2.06761 0.0759296 0
M  V30 676 C 78.5042 -1.43266 -1.22965 0
M  V30 677 O 77.8612 -0.538458 -1.74376 0
M  V30 678 C 77.9122 -3.61375 -0.0950384 0
M  V30 679 O 77.6332 -4.22495 1.15887 0
M  V30 680 C 79.1342 -4.38693 -0.637434 0
M  V30 681 H 76.3542 -0.668479 0.0581075 0
M  V30 682 H 78.8982 -1.8798 0.805218 0
M  V30 683 H 77.0532 -3.79578 -0.774554 0
M  V30 684 H 77.4672 -5.15385 0.973598 0
M  V30 685 H 78.9412 -5.47464 -0.706237 0
M  V30 686 H 79.4182 -4.06836 -1.65472 0
M  V30 687 H 80.0242 -4.25299 0.00725967 0
M  V30 688 N 78.3393 -0.321999 -1.54275 0
M  V30 689 C 79.3023 0.531975 -2.22941 0
M  V30 690 C 80.3023 1.04478 -1.22234 0
M  V30 691 O 81.4923 0.937452 -1.46825 0
M  V30 692 C 78.6243 1.73874 -2.93224 0
M  V30 693 H 79.8173 -0.0682612 -2.99822 0
M  V30 694 H 77.3703 -0.0730644 -1.56129 0
M  V30 695 H 78.1053 2.37825 -2.20476 0
M  V30 696 H 77.8903 1.37847 -3.6707 0
M  V30 697 H 79.3803 2.34496 -3.45545 0
M  V30 698 N 79.8174 1.5752 -0.0501392 0
M  V30 699 C 80.7474 2.14502 0.922566 0
M  V30 700 C 81.7284 1.06642 1.3252 0
M  V30 701 O 82.9134 1.34577 1.4001 0
M  V30 702 C 80.0434 2.68916 2.19776 0
M  V30 703 C 78.9974 3.8175 1.93523 0
M  V30 704 C 78.3234 4.22677 3.27487 0
M  V30 705 C 79.6234 5.06932 1.25765 0
M  V30 706 H 81.3174 2.9603 0.447952 0
M  V30 707 H 78.8634 1.42401 0.214024 0
M  V30 708 H 80.8164 3.07419 2.88222 0
M  V30 709 H 79.5404 1.84578 2.69441 0
M  V30 710 H 78.1994 3.43718 1.27489 0
M  V30 711 H 77.8474 3.35291 3.74952 0
M  V30 712 H 77.5474 4.98725 3.1072 0
M  V30 713 H 79.0714 4.63779 3.97166 0
M  V30 714 H 80.4854 5.42888 1.84244 0
M  V30 715 H 78.8824 5.88116 1.19328 0
M  V30 716 H 79.9524 4.84337 0.233536 0
M  V30 717 N 81.2955 -0.223234 1.56011 0
M  V30 718 C 82.5255 -0.963413 1.82762 0
M  V30 719 C 82.9335 -1.78516 0.626804 0
M  V30 720 O 82.2765 -1.78974 -0.414014 0
M  V30 721 C 82.3385 -1.93126 3.0322 0
M  V30 722 C 82.0025 -1.2942 4.38291 0
M  V30 723 C 82.9995 -0.684916 5.15369 0
M  V30 724 C 80.6845 -1.30647 4.85012 0
M  V30 725 C 82.6785 -0.0963971 6.37327 0
M  V30 726 C 80.3655 -0.71411 6.06913 0
M  V30 727 C 81.3635 -0.110123 6.82911 0
M  V30 728 O 81.0515 0.47303 8.02507 0
M  V30 729 H 80.7835 -0.288011 0.611576 0
M  V30 730 H 83.3375 -0.244103 2.03944 0
M  V30 731 H 81.5675 -2.68952 2.77852 0
M  V30 732 H 83.2565 -2.53685 3.16857 0
M  V30 733 H 84.0225 -0.667774 4.80381 0
M  V30 734 H 79.9015 -1.76598 4.25833 0
M  V30 735 H 83.4455 0.375657 6.96588 0
M  V30 736 H 79.3425 -0.728659 6.41374 0
M  V30 737 H 80.1105 0.367186 8.17676 0
M  V30 738 N 82.7736 -1.49793 -0.48987 0
M  V30 739 C 83.9986 -1.63836 -1.27172 0
M  V30 740 C 84.4236 -0.31402 -1.8546 0
M  V30 741 O 83.7816 0.719803 -1.66399 0
M  V30 742 C 83.8296 -2.71797 -2.36978 0
M  V30 743 O 82.9336 -2.31744 -3.41128 0
M  V30 744 H 82.2746 -0.547997 -0.37496 0
M  V30 745 H 84.8046 -1.96053 -0.585191 0
M  V30 746 H 84.8146 -2.94305 -2.82575 0
M  V30 747 H 83.4896 -3.67923 -1.93921 0
M  V30 748 H 82.0666 -2.1961 -3.01373 0
M  V30 749 N 84.2517 0.741722 -1.39055 0
M  V30 750 C 85.2147 1.83733 -1.37021 0
M  V30 751 C 86.2147 1.58542 -0.268534 0
M  V30 752 O 87.4047 1.66067 -0.526076 0
M  V30 753 C 84.5367 3.2141 -1.13617 0
M  V30 754 H 85.7297 1.86941 -2.34506 0
M  V30 755 H 83.2827 0.944676 -1.24521 0
M  V30 756 H 84.0177 3.23865 -0.167863 0
M  V30 757 H 83.8027 3.4109 -1.93391 0
M  V30 758 H 85.2927 4.01477 -1.14918 0
M  V30 759 N 85.7298 1.2412 0.971189 0
M  V30 760 C 86.9758 1.08041 1.71625 0
M  V30 761 C 87.3088 -0.380407 1.90438 0
M  V30 762 O 86.5838 -1.28127 1.46334 0
M  V30 763 C 86.8668 1.81682 3.10908 0
M  V30 764 C 86.7198 3.35493 2.99608 0
M  V30 765 C 88.0388 1.58671 4.10501 0
M  V30 766 H 85.1578 0.39388 0.622919 0
M  V30 767 H 87.7998 1.52743 1.13003 0
M  V30 768 H 85.9498 1.43684 3.60953 0
M  V30 769 H 87.6218 3.83068 2.57015 0
M  V30 770 H 85.8648 3.64052 2.35899 0
M  V30 771 H 86.5358 3.82217 3.98264 0
M  V30 772 H 89.0118 1.91719 3.69301 0
M  V30 773 H 87.8878 2.1266 5.06031 0
M  V30 774 H 88.1488 0.524161 4.38982 0
M  V30 775 N 87.2079 -1.17134 1.05439 0
M  V30 776 C 88.4479 -1.89137 0.77502 0
M  V30 777 C 88.8119 -1.79345 -0.685526 0
M  V30 778 O 90.0129 -2.46188 -1.0791 0
M  V30 779 C 88.2839 -3.35003 1.2453 0
M  V30 780 S 89.8429 -4.24952 1.09367 0
M  V30 781 H 86.6609 -0.652949 0.281387 0
M  V30 782 H 89.2629 -1.4145 1.34953 0
M  V30 783 H 87.9669 -3.39666 2.30338 0
M  V30 784 H 87.4979 -3.87736 0.665166 0
M  V30 785 H 89.5129 -4.96196 0.0193397 0
M  V30 786 N 88.686 -0.835752 -1.33615 0
M  V30 787 C 89.649 -0.272 -2.2758 0
M  V30 788 C 90.649 0.557487 -1.50827 0
M  V30 789 O 91.839 0.37173 -1.70188 0
M  V30 790 C 88.971 0.617173 -3.35267 0
M  V30 791 H 90.164 -1.10111 -2.78954 0
M  V30 792 H 87.717 -0.608594 -1.43965 0
M  V30 793 H 88.452 1.46884 -2.89129 0
M  V30 794 H 88.237 0.0237066 -3.92093 0
M  V30 795 H 89.727 1.005 -4.05326 0
M  V30 796 N 90.1641 1.46063 -0.591896 0
M  V30 797 C 91.4101 2.02638 -0.0811191 0
M  V30 798 C 91.7431 1.4613 1.27905 0
M  V30 799 O 91.0181 0.629908 1.84017 0
M  V30 800 C 91.3011 3.60091 -0.0252436 0
M  V30 801 C 91.1541 4.26965 -1.41496 0
M  V30 802 C 92.4731 4.3496 0.670685 0
M  V30 803 H 89.5921 0.73635 -0.0309524 0
M  V30 804 H 92.2341 1.741 -0.760859 0
M  V30 805 H 90.3841 3.84535 0.553624 0
M  V30 806 H 92.0561 4.13756 -2.0397 0
M  V30 807 H 90.2991 3.85971 -1.98011 0
M  V30 808 H 90.9701 5.35781 -1.32825 0
M  V30 809 H 93.4461 4.15716 0.178825 0
M  V30 810 H 92.3221 5.44686 0.678837 0
M  V30 811 H 92.5831 4.06685 1.73379 0
M  V30 812 N 91.6422 0.330177 1.54103 0
M  V30 813 C 92.8902 -0.269871 2.0029 0
M  V30 814 C 93.2112 -1.52133 1.21986 0
M  V30 815 O 92.4812 -1.93212 0.323438 0
M  V30 816 H 91.0612 -0.10271 0.739905 0
M  V30 817 H 93.7232 0.448249 1.89675 0
M  V30 818 H 92.8192 -0.52166 3.07709 0
M  V30 819 N 93.1203 -1.57491 0.0584922 0
M  V30 820 C 94.0503 -2.14988 -0.911178 0
M  V30 821 C 95.0313 -1.07343 -1.31952 0
M  V30 822 O 96.2163 -1.35318 -1.39294 0
M  V30 823 C 93.3463 -2.70078 -2.18347 0
M  V30 824 C 92.3003 -3.82771 -1.91495 0
M  V30 825 C 91.6263 -4.24408 -3.25241 0
M  V30 826 C 92.9263 -5.07592 -1.23075 0
M  V30 827 H 94.6203 -2.96263 -0.432246 0
M  V30 828 H 92.1663 -1.42512 -0.206469 0
M  V30 829 H 94.1193 -3.08943 -2.86587 0
M  V30 830 H 92.8433 -1.86005 -2.68458 0
M  V30 831 H 91.5023 -3.44389 -1.25664 0
M  V30 832 H 91.1503 -3.37275 -3.73168 0
M  V30 833 H 90.8503 -5.00366 -3.08071 0
M  V30 834 H 92.3743 -4.65879 -3.94701 0
M  V30 835 H 93.7883 -5.43857 -1.81362 0
M  V30 836 H 92.1853 -5.88741 -1.16207 0
M  V30 837 H 93.2553 -4.84454 -0.207847 0
M  V30 838 N 94.5984 0.214957 -1.56127 0
M  V30 839 C 95.5284 1.2695 -1.95974 0
M  V30 840 C 96.5094 1.48539 -0.828868 0
M  V30 841 O 97.6944 1.60611 -1.09168 0
M  V30 842 C 94.8244 2.61794 -2.28214 0
M  V30 843 C 93.7784 2.54851 -3.43853 0
M  V30 844 C 93.1044 3.93785 -3.61715 0
M  V30 845 C 94.4044 2.09065 -4.78632 0
M  V30 846 H 96.0984 0.93846 -2.84312 0
M  V30 847 H 93.6444 0.449996 -1.36788 0
M  V30 848 H 95.5974 3.35731 -2.54682 0
M  V30 849 H 94.3214 2.96599 -1.36736 0
M  V30 850 H 92.9804 1.8337 -3.17444 0
M  V30 851 H 92.6284 4.25908 -2.67602 0
M  V30 852 H 92.3284 3.90019 -4.39498 0
M  V30 853 H 93.8524 4.69374 -3.90539 0
M  V30 854 H 95.2664 2.7275 -5.04262 0
M  V30 855 H 93.6634 2.16346 -5.59745 0
M  V30 856 H 94.7334 1.04315 -4.73547 0
M  V30 857 N 96.0765 1.50051 0.48192 0
M  V30 858 C 97.3245 1.60181 1.23234 0
M  V30 859 C 97.6455 0.299176 1.92691 0
M  V30 860 O 96.9155 -0.682708 1.83619 0
M  V30 861 H 95.4955 0.590232 0.457859 0
M  V30 862 H 98.1575 1.86775 0.556881 0
M  V30 863 H 97.2535 2.40753 1.98607 0
M  V30 864 N 97.5546 -0.734337 1.39446 0
M  V30 865 C 98.5026 -1.86971 1.38364 0
M  V30 866 C 99.4966 -1.67288 0.266687 0
M  V30 867 O 100.703 -1.74621 0.436755 0
M  V30 868 H 97.0776 -0.615474 0.432082 0
M  V30 869 H 99.0486 -1.85 2.34132 0
M  V30 870 C 97.7976 -3.2466 1.24465 0
M  V30 871 H 97.1206 -3.40402 2.09682 0
M  V30 872 H 98.5606 -4.04292 1.27764 0
M  V30 873 C 97.0196 -3.36867 -0.0468674 0
M  V30 874 O 97.5496 -3.88618 -1.01681 0
M  V30 875 N 95.7556 -2.90391 -0.110145 0
M  V30 876 H 95.3026 -2.48466 0.679868 0
M  V30 877 H 95.2606 -2.98939 -0.973799 0
M  V30 878 N 99.0327 -1.24633 -0.964593 0
M  V30 879 C 100.279 -1.08949 -1.71049 0
M  V30 880 C 100.612 0.370302 -1.90637 0
M  V30 881 O 99.8867 1.27349 -1.47011 0
M  V30 882 C 100.17 -1.83329 -3.0994 0
M  V30 883 C 100.023 -3.37077 -2.97824 0
M  V30 884 C 101.342 -1.60846 -4.09654 0
M  V30 885 H 98.4607 -0.397178 -0.620821 0
M  V30 886 H 101.103 -1.5334 -1.12191 0
M  V30 887 H 99.2527 -1.45597 -3.60186 0
M  V30 888 H 100.925 -3.84425 -2.5498 0
M  V30 889 H 99.1677 -3.65298 -2.33965 0
M  V30 890 H 99.8387 -3.84324 -3.96231 0
M  V30 891 H 102.315 -1.93674 -3.68279 0
M  V30 892 H 101.191 -2.1534 -5.04896 0
M  V30 893 H 101.452 -0.547434 -4.38698 0
M  V30 894 N 100.511 1.16574 -1.06058 0
M  V30 895 C 101.441 2.23057 -0.690488 0
M  V30 896 C 102.422 1.67141 0.315901 0
M  V30 897 O 103.607 1.93253 0.191556 0
M  V30 898 C 100.737 3.47222 -0.073625 0
M  V30 899 C 99.6908 4.16016 -1.00573 0
M  V30 900 C 99.0168 5.34104 -0.252289 0
M  V30 901 C 100.317 4.67264 -2.33371 0
M  V30 902 H 102.011 2.54271 -1.58072 0
M  V30 903 H 99.5568 1.22218 -0.76149 0
M  V30 904 H 101.51 4.20939 0.19714 0
M  V30 905 H 100.234 3.15302 0.85161 0
M  V30 906 H 98.8928 3.44223 -1.2612 0
M  V30 907 H 98.5408 4.98437 0.675988 0
M  V30 908 H 98.2408 5.81072 -0.873455 0
M  V30 909 H 99.7648 6.10599 0.0109857 0
M  V30 910 H 101.179 5.32573 -2.12223 0
M  V30 911 H 99.5758 5.24843 -2.90963 0
M  V30 912 H 100.646 3.83602 -2.96611 0
M  V30 913 N 101.989 0.842826 1.3317 0
M  V30 914 C 103.235 0.441099 1.97945 0
M  V30 915 C 103.568 -0.998024 1.66593 0
M  V30 916 O 102.843 -1.69839 0.947898 0
M  V30 917 C 103.126 0.666841 3.53872 0
M  V30 918 C 102.979 2.15352 3.94897 0
M  V30 919 C 104.298 0.115544 4.39948 0
M  V30 920 H 101.417 0.161739 0.719034 0
M  V30 921 H 104.059 1.05907 1.57746 0
M  V30 922 H 102.209 0.140828 3.88245 0
M  V30 923 H 103.881 2.7447 3.70761 0
M  V30 924 H 102.124 2.63653 3.44484 0
M  V30 925 H 102.795 2.26221 5.03516 0
M  V30 926 H 105.271 0.565213 4.12243 0
M  V30 927 H 104.147 0.303152 5.48062 0
M  V30 928 H 104.408 -0.980935 4.3108 0
M  V30 929 N 103.467 -1.45747 0.599634 0
M  V30 930 C 104.4 -2.27547 -0.172552 0
M  V30 931 C 105.378 -1.36657 -0.881116 0
M  V30 932 O 106.562 -1.66081 -0.891595 0
M  V30 933 C 103.689 -3.14829 -1.24903 0
M  V30 934 C 102.735 -4.21603 -0.644465 0
M  V30 935 S 103.568 -5.32754 0.541606 0
M  V30 936 C 104.724 -6.23604 -0.535656 0
M  V30 937 H 104.957 -2.92691 0.521468 0
M  V30 938 H 102.49 -1.49473 0.386947 0
M  V30 939 H 104.448 -3.65675 -1.86527 0
M  V30 940 H 103.109 -2.48965 -1.91508 0
M  V30 941 H 102.302 -4.82566 -1.45417 0
M  V30 942 H 101.904 -3.73857 -0.103534 0
M  V30 943 H 104.196 -6.62519 -1.41686 0
M  V30 944 H 105.139 -7.0809 0.0376246 0
M  V30 945 H 105.547 -5.58103 -0.84741 0
M  V30 946 N 104.945 -0.338344 -1.53925 0
M  V30 947 C 106.192 0.259758 -2.00827 0
M  V30 948 C 106.52 1.50973 -1.22628 0
M  V30 949 O 105.775 1.93379 -0.300509 0
M  V30 950 C 106.074 0.62448 -3.51902 0
M  V30 951 C 105.74 -0.528006 -4.47798 0
M  V30 952 C 104.402 -0.844298 -4.73735 0
M  V30 953 C 106.754 -1.30143 -5.0469 0
M  V30 954 C 104.082 -1.93648 -5.53821 0
M  V30 955 C 106.434 -2.38382 -5.85967 0
M  V30 956 C 105.098 -2.70576 -6.10201 0
M  V30 957 H 104.368 0.0950523 -0.734878 0
M  V30 958 H 107.015 -0.465182 -1.85764 0
M  V30 959 H 105.32 1.43006 -3.64769 0
M  V30 960 H 107.017 1.09905 -3.85645 0
M  V30 961 H 103.607 -0.271421 -4.2774 0
M  V30 962 H 107.791 -1.07033 -4.84621 0
M  V30 963 H 103.047 -2.19021 -5.70824 0
M  V30 964 H 107.221 -2.98746 -6.29066 0
M  V30 965 H 104.848 -3.55333 -6.72044 0
M  V30 966 N 106.423 1.57458 -0.0668435 0
M  V30 967 C 107.671 1.92919 0.602214 0
M  V30 968 C 107.992 0.947215 1.70449 0
M  V30 969 O 107.262 -0.00544117 1.95899 0
M  V30 970 H 105.842 0.71217 0.22544 0
M  V30 971 H 108.504 1.94508 -0.123535 0
M  V30 972 H 107.6 2.94589 1.03073 0
M  V30 973 N 107.901 -0.206675 1.56239 0
M  V30 974 C 109.15 -0.926964 1.79138 0
M  V30 975 C 109.463 -1.84901 0.638043 0
M  V30 976 O 110.669 -2.60906 0.751033 0
M  V30 977 C 109.125 -1.6986 3.17294 0
M  V30 978 C 108.733 -0.821956 4.40395 0
M  V30 979 C 110.477 -2.40922 3.4951 0
M  V30 980 C 108.384 -1.59179 5.69575 0
M  V30 981 H 107.314 -0.349864 0.667915 0
M  V30 982 H 109.965 -0.180487 1.8261 0
M  V30 983 H 108.347 -2.48853 3.08039 0
M  V30 984 H 109.521 -0.0715019 4.60745 0
M  V30 985 H 107.836 -0.222741 4.15804 0
M  V30 986 H 110.433 -2.99047 4.43255 0
M  V30 987 H 110.776 -3.14542 2.72707 0
M  V30 988 H 111.309 -1.68905 3.60161 0
M  V30 989 H 108.048 -0.898589 6.49312 0
M  V30 990 H 107.568 -2.31648 5.53262 0
M  V30 991 H 109.247 -2.14862 6.10281 0
M  V30 992 N 109.379 -1.50304 -0.473955 0
M  V30 993 C 110.625 -1.61389 -1.22806 0
M  V30 994 C 110.958 -0.311955 -1.91678 0
M  V30 995 O 110.233 0.686384 -1.81986 0
M  V30 996 C 110.516 -2.79219 -2.27396 0
M  V30 997 C 110.369 -4.19286 -1.62848 0
M  V30 998 C 111.688 -2.92614 -3.28732 0
M  V30 999 H 108.807 -0.587399 -0.445119 0
M  V30 1000 H 111.449 -1.82681 -0.522265 0
M  V30 1001 H 109.599 -2.61195 -2.87592 0
M  V30 1002 H 111.271 -4.48892 -1.06271 0
M  V30 1003 H 109.514 -4.23677 -0.931693 0
M  V30 1004 H 110.185 -4.97655 -2.38838 0
M  V30 1005 H 112.661 -3.09105 -2.78556 0
M  V30 1006 H 111.537 -3.76688 -3.99246 0
M  V30 1007 H 111.798 -2.03107 -3.92683 0
M  V30 1008 N 110.857 0.726932 -1.39834 0
M  V30 1009 C 112.273 1.03354 -1.21615 0
M  V30 1010 C 112.473 2.01327 -0.08338 0
M  V30 1011 O 111.529 2.46158 0.56238 0
M  V30 1012 C 112.842 1.58811 -2.55342 0
M  V30 1013 C 114.39 1.70851 -2.62257 0
M  V30 1014 C 114.865 2.29716 -3.96225 0
M  V30 1015 N 116.356 2.37116 -3.97907 0
M  V30 1016 C 117.091 2.83619 -4.98345 0
M  V30 1017 N 116.587 3.29958 -6.09179 0
M  V30 1018 N 118.38 2.82901 -4.8572 0
M  V30 1019 H 110.531 0.0773069 -2.12259 0
M  V30 1020 H 112.794 0.0969102 -0.943034 0
M  V30 1021 H 112.5 0.942855 -3.38826 0
M  V30 1022 H 112.374 2.57502 -2.75632 0
M  V30 1023 H 114.761 2.34497 -1.79152 0
M  V30 1024 H 114.842 0.707913 -2.45809 0
M  V30 1025 H 114.486 1.66696 -4.79765 0
M  V30 1026 H 114.416 3.30469 -4.09997 0
M  V30 1027 H 116.907 2.04374 -3.17868 0
M  V30 1028 H 117.22 3.63976 -6.8172 0
M  V30 1029 H 115.565 3.27946 -6.12761 0
M  V30 1030 H 118.756 2.46027 -3.98231 0
M  V30 1031 H 118.929 3.18827 -5.6414 0
M  V30 1032 N 112.336 1.25143 0.95797 0
M  V30 1033 C 113.566 1.12261 1.73439 0
M  V30 1034 C 113.974 -0.326715 1.86358 0
M  V30 1035 O 113.317 -1.2367 1.35836 0
M  V30 1036 C 113.379 1.69966 3.16784 0
M  V30 1037 C 113.043 3.18936 3.27305 0
M  V30 1038 C 114.04 4.15968 3.11877 0
M  V30 1039 C 111.725 3.59083 3.51234 0
M  V30 1040 C 113.719 5.51126 3.20217 0
M  V30 1041 C 111.406 4.9438 3.5921 0
M  V30 1042 C 112.404 5.90211 3.43716 0
M  V30 1043 O 112.092 7.23046 3.51368 0
M  V30 1044 H 111.824 0.392476 0.550399 0
M  V30 1045 H 114.378 1.65927 1.21068 0
M  V30 1046 H 112.608 1.10744 3.70503 0
M  V30 1047 H 114.297 1.52232 3.76272 0
M  V30 1048 H 115.063 3.86292 2.93264 0
M  V30 1049 H 110.942 2.84989 3.62356 0
M  V30 1050 H 114.486 6.25905 3.0804 0
M  V30 1051 H 110.383 5.23723 3.77339 0
M  V30 1052 H 111.151 7.31097 3.6802 0
M  V30 1053 N 113.814 -1.1601 1.06675 0
M  V30 1054 C 115.042 -1.90527 0.806667 0
M  V30 1055 C 115.457 -1.77643 -0.639396 0
M  V30 1056 O 114.814 -1.12369 -1.43803 0
M  V30 1057 C 114.865 -3.41106 1.19705 0
M  V30 1058 O 114.586 -3.53608 2.58636 0
M  V30 1059 C 116.087 -4.32663 0.965266 0
M  V30 1060 H 113.307 -0.604053 0.292166 0
M  V30 1061 H 115.851 -1.47026 1.4214 0
M  V30 1062 H 114.006 -3.82296 0.626774 0
M  V30 1063 H 114.42 -4.47011 2.74375 0
M  V30 1064 H 115.894 -5.36763 1.288 0
M  V30 1065 H 116.371 -4.39089 -0.0987936 0
M  V30 1066 H 116.977 -3.97206 1.52011 0
M  V30 1067 N 115.292 -0.849877 -1.32721 0
M  V30 1068 C 116.239 -0.289033 -2.28983 0
M  V30 1069 C 117.209 0.601324 -1.54833 0
M  V30 1070 O 118.394 0.537253 -1.8308 0
M  V30 1071 C 115.534 0.520623 -3.4115 0
M  V30 1072 C 114.647 -0.394989 -4.3019 0
M  V30 1073 C 113.782 0.426834 -5.29482 0
M  V30 1074 C 112.821 -0.486476 -6.10164 0
M  V30 1075 N 111.958 0.297879 -7.01468 0
M  V30 1076 H 116.798 -1.11519 -2.76347 0
M  V30 1077 H 114.335 -0.56138 -1.35967 0
M  V30 1078 H 116.293 1.00563 -4.04899 0
M  V30 1079 H 114.923 1.31165 -2.9495 0
M  V30 1080 H 113.975 -0.99836 -3.67065 0
M  V30 1081 H 115.287 -1.09612 -4.86607 0
M  V30 1082 H 114.441 0.975205 -5.98811 0
M  V30 1083 H 113.18 1.16136 -4.73671 0
M  V30 1084 H 112.185 -1.04677 -5.39743 0
M  V30 1085 H 113.41 -1.21953 -6.6806 0
M  V30 1086 H 111.356 1.01558 -6.48091 0
M  V30 1087 H 111.273 -0.344318 -7.55216 0
M  V30 1088 H 112.541 0.828131 -7.75089 0
M  V30 1089 N 116.77 1.45427 -0.607355 0
M  V30 1090 C 117.703 2.27635 0.160482 0
M  V30 1091 C 118.681 1.37122 0.873857 0
M  V30 1092 O 119.865 1.66551 0.882775 0
M  V30 1093 C 116.992 3.15486 1.23231 0
M  V30 1094 C 116.038 4.21939 0.622097 0
M  V30 1095 S 116.871 5.32459 -0.569852 0
M  V30 1096 C 118.027 6.23879 0.502577 0
M  V30 1097 H 118.26 2.9241 -0.536983 0
M  V30 1098 H 115.793 1.49265 -0.394868 0
M  V30 1099 H 117.751 3.66659 1.84585 0
M  V30 1100 H 116.412 2.49977 1.90185 0
M  V30 1101 H 115.605 4.8333 1.42856 0
M  V30 1102 H 115.207 3.73906 0.0837063 0
M  V30 1103 H 117.499 6.63261 1.38171 0
M  V30 1104 H 118.442 7.0806 -0.0751759 0
M  V30 1105 H 118.85 5.58545 0.8178 0
M  V30 1106 N 118.248 0.346503 1.53744 0
M  V30 1107 C 119.195 -0.508914 2.25119 0
M  V30 1108 C 120.165 -1.09315 1.25058 0
M  V30 1109 O 121.35 -1.12921 1.53797 0
M  V30 1110 C 118.49 -1.65246 3.02965 0
M  V30 1111 C 117.603 -1.09525 4.17886 0
M  V30 1112 C 116.738 -2.20634 4.83212 0
M  V30 1113 C 115.777 -1.62279 5.90196 0
M  V30 1114 N 114.914 -2.67143 6.49291 0
M  V30 1115 H 119.754 0.106283 2.9781 0
M  V30 1116 H 117.291 0.0642227 1.4696 0
M  V30 1117 H 119.249 -2.32574 3.4636 0
M  V30 1118 H 117.879 -2.2386 2.32565 0
M  V30 1119 H 116.931 -0.312818 3.79112 0
M  V30 1120 H 118.243 -0.628444 4.94825 0
M  V30 1121 H 117.397 -2.95821 5.29693 0
M  V30 1122 H 116.136 -2.70659 4.05703 0
M  V30 1123 H 115.141 -0.855989 5.43096 0
M  V30 1124 H 116.366 -1.13102 6.69615 0
M  V30 1125 H 114.312 -3.16417 5.74645 0
M  V30 1126 H 114.229 -2.25093 7.21713 0
M  V30 1127 H 115.497 -3.4209 7.00425 0
M  V30 1128 N 119.726 -1.57421 0.075193 0
M  V30 1129 C 120.954 -1.97946 -0.602076 0
M  V30 1130 C 121.369 -0.953674 -1.62943 0
M  V30 1131 O 120.726 0.0592551 -1.82404 0
M  V30 1132 C 120.777 -3.38546 -1.26762 0
M  V30 1133 O 120.498 -4.37195 -0.281376 0
M  V30 1134 C 121.999 -3.93966 -2.03239 0
M  V30 1135 H 119.219 -0.650918 -0.162931 0
M  V30 1136 H 121.763 -2.03959 0.148601 0
M  V30 1137 H 119.918 -3.33609 -1.96936 0
M  V30 1138 H 120.332 -5.18975 -0.759267 0
M  V30 1139 H 121.806 -4.94555 -2.45193 0
M  V30 1140 H 122.283 -3.30693 -2.8903 0
M  V30 1141 H 122.889 -4.02315 -1.37924 0
M  V30 1142 N 121.204 0.198386 -1.56346 0
M  V30 1143 C 122.167 1.22952 -1.93431 0
M  V30 1144 C 123.167 1.38611 -0.815092 0
M  V30 1145 O 124.357 1.36479 -1.08255 0
M  V30 1146 C 121.489 2.59946 -2.20546 0
M  V30 1147 H 122.682 0.912626 -2.85677 0
M  V30 1148 H 120.235 0.43977 -1.49986 0
M  V30 1149 H 120.97 2.96696 -1.30927 0
M  V30 1150 H 120.755 2.49953 -3.02102 0
M  V30 1151 H 122.245 3.3431 -2.50253 0
M  V30 1152 N 122.682 1.50554 0.465978 0
M  V30 1153 C 123.91 1.65563 1.24083 0
M  V30 1154 C 124.325 0.341051 1.85694 0
M  V30 1155 O 123.682 -0.677543 1.69457 0
M  V30 1156 C 123.733 2.75051 2.34583 0
M  V30 1157 O 123.454 4.01413 1.75497 0
M  V30 1158 C 124.955 3.01078 3.25372 0
M  V30 1159 H 122.175 0.55638 0.375077 0
M  V30 1160 H 124.719 1.96807 0.555624 0
M  V30 1161 H 122.874 2.46486 2.9887 0
M  V30 1162 H 123.288 4.62002 2.48303 0
M  V30 1163 H 124.762 3.81339 3.99105 0
M  V30 1164 H 125.239 2.12349 3.84453 0
M  V30 1165 H 125.845 3.31194 2.66816 0
M  V30 1166 N 124.16 -0.719506 1.40217 0
M  V30 1167 C 125.108 -1.85493 1.40339 0
M  V30 1168 C 126.102 -1.66995 0.284415 0
M  V30 1169 O 127.308 -1.74148 0.455252 0
M  V30 1170 H 123.683 -0.610857 0.438586 0
M  V30 1171 H 125.654 -1.82506 2.36081 0
M  V30 1172 C 124.403 -3.23321 1.27901 0
M  V30 1173 H 123.726 -3.38159 2.1328 0
M  V30 1174 H 125.166 -4.02914 1.32045 0
M  V30 1175 C 123.625 -3.36898 -0.0111355 0
M  V30 1176 O 124.155 -3.89674 -0.975538 0
M  V30 1177 N 122.361 -2.90492 -0.0793393 0
M  V30 1178 H 121.908 -2.47731 0.706183 0
M  V30 1179 H 121.866 -2.99955 -0.942038 0
M  V30 1180 N 125.638 -1.25649 -0.95132 0
M  V30 1181 C 126.887 -1.09988 -1.69073 0
M  V30 1182 C 127.2 0.358355 -1.92289 0
M  V30 1183 O 128.406 0.635466 -2.63958 0
M  V30 1184 C 126.862 -1.92012 -3.044 0
M  V30 1185 C 126.47 -3.42347 -2.88968 0
M  V30 1186 C 128.214 -1.8493 -3.82101 0
M  V30 1187 C 126.121 -4.16655 -4.19705 0
M  V30 1188 H 125.051 -0.407993 -0.63408 0
M  V30 1189 H 127.702 -1.49873 -1.05879 0
M  V30 1190 H 126.084 -1.44952 -3.68517 0
M  V30 1191 H 127.258 -3.97104 -2.33762 0
M  V30 1192 H 125.573 -3.50557 -2.24719 0
M  V30 1193 H 128.17 -2.37739 -4.78941 0
M  V30 1194 H 128.513 -0.817883 -4.08187 0
M  V30 1195 H 129.046 -2.29758 -3.2474 0
M  V30 1196 H 125.785 -5.20224 -3.98807 0
M  V30 1197 H 125.305 -3.66681 -4.74663 0
M  V30 1198 H 126.984 -4.24551 -4.88227 0
M  V30 1199 N 127.117 1.15442 -1.07289 0
M  V30 1200 C 128.347 1.89821 -0.815576 0
M  V30 1201 C 128.755 1.7823 0.634867 0
M  V30 1202 O 128.098 1.13152 1.44715 0
M  V30 1203 C 128.16 3.40817 -1.14385 0
M  V30 1204 C 127.824 3.76193 -2.59476 0
M  V30 1205 C 128.821 3.77269 -3.57721 0
M  V30 1206 C 126.506 4.0652 -2.95037 0
M  V30 1207 C 128.5 4.08176 -4.89562 0
M  V30 1208 C 126.187 4.37092 -4.27076 0
M  V30 1209 C 127.185 4.37902 -5.24148 0
M  V30 1210 O 126.873 4.67741 -6.53815 0
M  V30 1211 H 126.605 0.608465 -0.294528 0
M  V30 1212 H 129.159 1.472 -1.43252 0
M  V30 1213 H 127.389 3.83835 -0.469865 0
M  V30 1214 H 129.078 3.96485 -0.869179 0
M  V30 1215 H 129.844 3.5394 -3.3159 0
M  V30 1216 H 125.723 4.05049 -2.20128 0
M  V30 1217 H 129.267 4.08723 -5.65324 0
M  V30 1218 H 125.164 4.59889 -4.5296 0
M  V30 1219 H 125.932 4.85509 -6.58957 0
M  V30 1220 N 128.595 0.856903 1.32268 0
M  V30 1221 C 129.844 0.457599 1.96441 0
M  V30 1222 C 130.157 -0.992426 1.68553 0
M  V30 1223 O 131.363 -1.49727 2.26482 0
M  V30 1224 C 129.819 0.767358 3.51624 0
M  V30 1225 C 129.427 2.23326 3.88367 0
M  V30 1226 C 131.171 0.435887 4.22256 0
M  V30 1227 C 129.078 2.48613 5.36606 0
M  V30 1228 H 128.008 0.167387 0.735185 0
M  V30 1229 H 130.659 1.048 1.5063 0
M  V30 1230 H 129.041 0.106367 3.95857 0
M  V30 1231 H 130.215 2.93623 3.55137 0
M  V30 1232 H 128.53 2.52948 3.30766 0
M  V30 1233 H 131.127 0.602202 5.31298 0
M  V30 1234 H 131.47 -0.622672 4.11617 0
M  V30 1235 H 132.003 1.05286 3.83614 0
M  V30 1236 H 128.742 3.53101 5.52268 0
M  V30 1237 H 128.262 1.82896 5.71235 0
M  V30 1238 H 129.941 2.32676 6.03714 0
M  V30 1239 N 130.073 -1.45103 0.615059 0
M  V30 1240 C 131.32 -2.02183 0.113179 0
M  V30 1241 C 131.648 -1.48249 -1.25906 0
M  V30 1242 O 130.903 -0.650265 -1.84581 0
M  V30 1243 C 131.202 -3.57386 0.0318797 0
M  V30 1244 C 130.868 -4.30505 1.34077 0
M  V30 1245 C 129.53 -4.50197 1.69929 0
M  V30 1246 C 131.882 -4.72238 2.20546 0
M  V30 1247 C 129.21 -5.08881 2.91988 0
M  V30 1248 C 131.562 -5.32272 3.41861 0
M  V30 1249 C 130.226 -5.50187 3.77956 0
M  V30 1250 H 129.496 -0.739842 0.0414151 0
M  V30 1251 H 132.143 -1.74073 0.798168 0
M  V30 1252 H 130.448 -3.84817 -0.736409 0
M  V30 1253 H 132.145 -3.99264 -0.372712 0
M  V30 1254 H 128.735 -4.15496 1.05173 0
M  V30 1255 H 132.919 -4.56751 1.94146 0
M  V30 1256 H 128.175 -5.20939 3.2005 0
M  V30 1257 H 132.349 -5.63563 4.09109 0
M  V30 1258 H 129.976 -5.95427 4.72622 0
M  V30 1259 N 131.551 -0.354651 -1.53558 0
M  V30 1260 C 132.499 0.512195 -2.26891 0
M  V30 1261 C 133.493 1.09263 -1.29452 0
M  V30 1262 O 134.699 1.03709 -1.47121 0
M  V30 1263 H 131.074 0.183878 -0.729173 0
M  V30 1264 H 133.045 -0.128202 -2.98124 0
M  V30 1265 C 131.794 1.64563 -3.06291 0
M  V30 1266 H 131.117 1.20829 -3.81104 0
M  V30 1267 H 132.557 2.22711 -3.60799 0
M  V30 1268 C 131.016 2.58158 -2.16462 0
M  V30 1269 O 131.546 3.60695 -1.76811 0
M  V30 1270 N 129.752 2.27096 -1.81317 0
M  V30 1271 H 129.299 1.43751 -2.1376 0
M  V30 1272 H 129.257 2.89975 -1.21498 0
M  V30 1273 N 133.029 1.57378 -0.0835403 0
M  V30 1274 C 133.959 2.1641 0.87686 0
M  V30 1275 C 134.94 1.09429 1.30228 0
M  V30 1276 O 136.125 1.37516 1.37124 0
M  V30 1277 C 133.255 2.73517 2.14022 0
M  V30 1278 C 132.209 3.85769 1.85381 0
M  V30 1279 C 131.535 4.29529 3.18448 0
M  V30 1280 C 132.835 5.09486 1.14984 0
M  V30 1281 H 134.529 2.96914 0.385059 0
M  V30 1282 H 132.075 1.42823 0.18377 0
M  V30 1283 H 134.028 3.13463 2.81636 0
M  V30 1284 H 132.752 1.90252 2.65465 0
M  V30 1285 H 131.411 3.46345 1.20169 0
M  V30 1286 H 131.059 3.43169 3.67755 0
M  V30 1287 H 130.759 5.05204 3.00071 0
M  V30 1288 H 132.283 4.72099 3.8724 0
M  V30 1289 H 133.697 5.46674 1.72687 0
M  V30 1290 H 132.094 5.90515 1.06826 0
M  V30 1291 H 133.164 4.84724 0.130749 0
M  V30 1292 N 134.507 -0.190092 1.56449 0
M  V30 1293 C 135.47 -1.21925 1.9408 0
M  V30 1294 C 136.47 -1.38176 0.822431 0
M  V30 1295 O 137.66 -1.35903 1.08977 0
M  V30 1296 C 134.792 -2.58773 2.21922 0
M  V30 1297 H 135.985 -0.897464 2.86157 0
M  V30 1298 H 133.538 -0.43181 1.50217 0
M  V30 1299 H 134.273 -2.95998 1.32499 0
M  V30 1300 H 134.058 -2.48348 3.03424 0
M  V30 1301 H 135.548 -3.32978 2.52022 0
M  V30 1302 N 135.985 -1.50799 -0.457987 0
M  V30 1303 C 136.915 -1.73553 -1.5621 0
M  V30 1304 C 137.896 -0.584774 -1.59732 0
M  V30 1305 O 139.081 -0.825314 -1.7579 0
M  V30 1306 C 136.211 -1.84169 -2.94447 0
M  V30 1307 C 135.165 -2.99461 -3.0579 0
M  V30 1308 C 134.491 -2.95235 -4.45803 0
M  V30 1309 C 135.791 -4.39766 -2.81786 0
M  V30 1310 H 137.485 -2.66 -1.37421 0
M  V30 1311 H 135.031 -1.28002 -0.659662 0
M  V30 1312 H 136.984 -1.98672 -3.71628 0
M  V30 1313 H 135.708 -0.883545 -3.14422 0
M  V30 1314 H 134.367 -2.8463 -2.31044 0
M  V30 1315 H 134.015 -1.97239 -4.62715 0
M  V30 1316 H 133.715 -3.72642 -4.54326 0
M  V30 1317 H 135.239 -3.11803 -5.24987 0
M  V30 1318 H 136.653 -4.55054 -3.4871 0
M  V30 1319 H 135.05 -5.18722 -3.0174 0
M  V30 1320 H 136.12 -4.51229 -1.7754 0
M  V30 1321 N 137.463 0.71206 -1.40597 0
M  V30 1322 C 138.426 1.80785 -1.40888 0
M  V30 1323 C 139.426 1.57937 -0.302103 0
M  V30 1324 O 140.616 1.64913 -0.561182 0
M  V30 1325 C 137.748 3.18927 -1.20409 0
M  V30 1326 H 138.941 1.81924 -2.38419 0
M  V30 1327 H 136.494 0.91805 -1.26497 0
M  V30 1328 H 137.229 3.23436 -0.236522 0
M  V30 1329 H 137.014 3.36911 -2.00582 0
M  V30 1330 H 138.504 3.98949 -1.23408 0
M  V30 1331 N 138.941 1.26152 0.944643 0
M  V30 1332 C 140.218 1.02247 1.66748 0
M  V30 1333 C 140.598 -0.448202 2.06287 0
M  V30 1334 O 139.946 -1.42779 1.78399 0
M  V30 1335 C 140.156 1.96788 2.88228 0
M  V30 1336 C 141.504 2.25201 3.59958 0
M  V30 1337 O 142.528 1.94626 2.98327 0
M  V30 1338 O 141.387 2.77242 4.70956 0
M  V30 1339 H 138.481 0.388517 0.730057 0
M  V30 1340 H 141.027 1.37348 0.99668 0
M  V30 1341 H 139.799 2.96047 2.55875 0
M  V30 1342 H 139.422 1.62145 3.63035 0
M  V30 1343 N 140.419 -1.14872 1.07899 0
M  V30 1344 C 141.382 -2.17986 0.708161 0
M  V30 1345 C 142.382 -1.58775 -0.25442 0
M  V30 1346 O 143.572 -1.74166 -0.034645 0
M  V30 1347 C 140.704 -3.40871 0.0446929 0
M  V30 1348 H 141.897 -2.52306 1.62116 0
M  V30 1349 H 139.45 -1.2943 0.876218 0
M  V30 1350 H 140.185 -3.12124 -0.880281 0
M  V30 1351 H 139.97 -3.8511 0.737091 0
M  V30 1352 H 141.46 -4.17121 -0.19991 0
M  V30 1353 N 141.898 -0.863906 -1.31812 0
M  V30 1354 C 142.828 -0.330843 -2.31144 0
M  V30 1355 C 143.809 0.575005 -1.60087 0
M  V30 1356 O 144.994 0.493304 -1.8783 0
M  V30 1357 C 142.124 0.47374 -3.44054 0
M  V30 1358 C 141.078 -0.338481 -4.26659 0
M  V30 1359 C 140.404 0.591412 -5.31419 0
M  V30 1360 C 141.704 -1.56926 -4.98168 0
M  V30 1361 H 143.398 -1.16086 -2.75979 0
M  V30 1362 H 140.944 -0.559657 -1.32679 0
M  V30 1363 H 142.897 0.857143 -4.12591 0
M  V30 1364 H 141.621 1.33721 -2.9797 0
M  V30 1365 H 140.28 -0.703754 -3.59782 0
M  V30 1366 H 139.928 1.45199 -4.81587 0
M  V30 1367 H 139.628 0.0519022 -5.87577 0
M  V30 1368 H 141.152 0.97179 -6.02817 0
M  V30 1369 H 142.566 -1.25764 -5.59336 0
M  V30 1370 H 140.963 -2.04739 -5.64094 0
M  V30 1371 H 142.033 -2.32544 -4.25501 0
M  V30 1372 N 143.376 1.44774 -0.622745 0
M  V30 1373 C 144.339 2.29069 0.0774015 0
M  V30 1374 C 145.339 1.4059 0.780461 0
M  V30 1375 O 146.529 1.62551 0.626322 0
M  V30 1376 C 143.661 3.21974 1.12006 0
M  V30 1377 H 144.854 2.92459 -0.663901 0
M  V30 1378 H 142.407 1.51548 -0.382486 0
M  V30 1379 H 143.142 2.63417 1.89162 0
M  V30 1380 H 142.927 3.87168 0.619951 0
M  V30 1381 H 144.417 3.85318 1.60995 0
M  V30 1382 N 144.854 0.36279 1.53368 0
M  V30 1383 C 146.082 -0.228613 2.05633 0
M  V30 1384 C 146.497 -1.42676 1.23649 0
M  V30 1385 O 145.854 -1.80394 0.27647 0
M  V30 1386 C 145.905 -0.624845 3.56059 0
M  V30 1387 O 145.626 0.525675 4.34935 0
M  V30 1388 C 147.127 -1.27493 4.24571 0
M  V30 1389 H 144.347 -0.0407183 0.669763 0
M  V30 1390 H 146.891 0.520352 1.97769 0
M  V30 1391 H 145.046 -1.32373 3.64083 0
M  V30 1392 H 145.46 0.205969 5.24095 0
M  V30 1393 H 146.934 -1.50277 5.31151 0
M  V30 1394 H 147.411 -2.23439 3.78116 0
M  V30 1395 H 148.017 -0.617558 4.20792 0
M  V30 1396 N 146.332 -1.57332 0.0918853 0
M  V30 1397 C 147.557 -1.98995 -0.584442 0
M  V30 1398 C 147.982 -0.970528 -1.61128 0
M  V30 1399 O 147.34 0.0613904 -1.81196 0
M  V30 1400 C 147.388 -3.39636 -1.21161 0
M  V30 1401 O 146.492 -3.40447 -2.32744 0
M  V30 1402 H 145.833 -0.647165 -0.148572 0
M  V30 1403 H 148.363 -2.03873 0.172347 0
M  V30 1404 H 148.373 -3.7726 -1.55367 0
M  V30 1405 H 147.048 -4.13356 -0.459313 0
M  V30 1406 H 145.625 -3.14614 -2.0018 0
M  V30 1407 N 147.81 0.181792 -1.56548 0
M  V30 1408 C 149.038 0.915947 -1.85521 0
M  V30 1409 C 149.453 1.76282 -0.676016 0
M  V30 1410 O 148.81 1.79012 0.355077 0
M  V30 1411 C 148.861 1.80126 -3.13427 0
M  V30 1412 O 148.582 0.988562 -4.26801 0
M  V30 1413 C 150.083 2.64597 -3.55673 0
M  V30 1414 H 147.303 0.26661 -0.61576 0
M  V30 1415 H 149.847 0.185039 -2.03661 0
M  V30 1416 H 148.002 2.48563 -2.97145 0
M  V30 1417 H 148.416 1.59308 -4.99721 0
M  V30 1418 H 149.89 3.2235 -4.48101 0
M  V30 1419 H 150.367 3.38958 -2.79292 0
M  V30 1420 H 150.973 2.0151 -3.74532 0
M  V30 1421 N 149.288 1.51039 0.449983 0
M  V30 1422 C 150.218 1.74379 1.55288 0
M  V30 1423 C 151.199 0.593236 1.5942 0
M  V30 1424 O 152.384 0.834625 1.7535 0
M  V30 1425 C 149.514 1.85728 2.93466 0
M  V30 1426 C 148.468 3.01078 3.04197 0
M  V30 1427 C 147.794 2.97595 4.44231 0
M  V30 1428 C 149.094 4.41254 2.7945 0
M  V30 1429 H 150.788 2.66725 1.36008 0
M  V30 1430 H 148.334 1.2835 0.652864 0
M  V30 1431 H 150.287 2.0064 3.70569 0
M  V30 1432 H 149.011 0.900207 3.13949 0
M  V30 1433 H 147.67 2.85851 2.29531 0
M  V30 1434 H 147.318 1.99691 4.61663 0
M  V30 1435 H 147.018 3.75046 4.52343 0
M  V30 1436 H 148.542 3.14583 5.23326 0
M  V30 1437 H 149.956 4.56897 3.46292 0
M  V30 1438 H 148.353 5.20315 2.98985 0
M  V30 1439 H 149.423 4.52164 1.75144 0
M  V30 1440 N 150.766 -0.704594 1.40972 0
M  V30 1441 C 152.177 -1.28418 1.3552 0
M  V30 1442 C 152.528 -1.96171 0.0339434 0
M  V30 1443 O 151.653 -1.98231 -0.867944 0
M  V30 1444 C 152.248 -2.33528 2.45459 0
M  V30 1445 C 150.807 -2.87085 2.43433 0
M  V30 1446 C 149.954 -1.61007 2.2577 0
M  V30 1447 H 152.905 -0.499963 1.50619 0
M  V30 1448 H 152.926 -3.14619 2.13998 0
M  V30 1449 H 152.438 -1.84187 3.41609 0
M  V30 1450 H 150.539 -3.40626 1.51013 0
M  V30 1451 H 150.652 -3.3813 3.39419 0
M  V30 1452 H 149.016 -1.86482 1.73483 0
M  V30 1453 H 149.799 -1.13675 3.23933 0
M  V30 1454 N 152.244 -1.26651 -0.937939 0
M  V30 1455 C 153.491 -1.12387 -1.6845 0
M  V30 1456 C 153.819 0.332208 -1.91642 0
M  V30 1457 O 153.074 1.2602 -1.49725 0
M  V30 1458 C 153.373 -1.84168 -3.06295 0
M  V30 1459 C 153.039 -3.34056 -3.02849 0
M  V30 1460 C 151.701 -3.74942 -3.01616 0
M  V30 1461 C 154.053 -4.29741 -2.9491 0
M  V30 1462 C 151.381 -5.09894 -2.90215 0
M  V30 1463 C 153.733 -5.64738 -2.8505 0
M  V30 1464 C 152.397 -6.0493 -2.82162 0
M  V30 1465 H 151.667 -0.411252 -0.616403 0
M  V30 1466 H 154.314 -1.57134 -1.09459 0
M  V30 1467 H 152.619 -1.319 -3.6893 0
M  V30 1468 H 154.316 -1.70569 -3.62915 0
M  V30 1469 H 150.906 -3.01534 -3.0459 0
M  V30 1470 H 155.09 -3.99133 -2.94969 0
M  V30 1471 H 150.346 -5.40194 -2.86358 0
M  V30 1472 H 154.52 -6.38561 -2.77872 0
M  V30 1473 H 152.147 -7.09457 -2.73084 0
M  V30 1474 N 153.722 1.14298 -1.08507 0
M  V30 1475 C 154.654 2.1907 -0.673859 0
M  V30 1476 C 155.667 1.60381 0.279577 0
M  V30 1477 O 156.856 1.78374 0.0670754 0
M  V30 1478 C 153.956 3.38888 0.0290979 0
M  V30 1479 C 153.129 4.27103 -0.943494 0
M  V30 1480 C 152.188 5.25477 -0.275676 0
M  V30 1481 O 151.214 5.61709 -0.920401 0
M  V30 1482 N 152.416 5.7227 0.974013 0
M  V30 1483 H 155.181 2.54965 -1.57521 0
M  V30 1484 H 152.742 1.29528 -0.971287 0
M  V30 1485 H 154.734 4.01761 0.48683 0
M  V30 1486 H 153.304 3.01309 0.832555 0
M  V30 1487 H 152.524 3.61149 -1.58004 0
M  V30 1488 H 153.812 4.82905 -1.60251 0
M  V30 1489 H 153.21 5.44965 1.51755 0
M  V30 1490 H 151.767 6.37127 1.37522 0
M  V30 1491 N 155.201 0.870884 1.31352 0
M  V30 1492 C 156.426 0.495957 2.01383 0
M  V30 1493 C 156.851 -0.904324 1.64935 0
M  V30 1494 O 156.209 -1.59687 0.858466 0
M  V30 1495 C 156.257 0.661433 3.54482 0
M  V30 1496 O 155.361 -0.298851 4.11316 0
M  V30 1497 H 154.702 0.197158 0.634054 0
M  V30 1498 H 157.232 1.17455 1.67527 0
M  V30 1499 H 157.242 0.555072 4.04207 0
M  V30 1500 H 155.917 1.68246 3.8035 0
M  V30 1501 H 154.494 -0.147368 3.72609 0
M  V30 1502 N 156.679 -1.44442 0.630414 0
M  V30 1503 C 157.642 -2.29107 -0.0652523 0
M  V30 1504 C 158.642 -1.41002 -0.772995 0
M  V30 1505 O 159.832 -1.62881 -0.617692 0
M  V30 1506 C 156.964 -3.22564 -1.10296 0
M  V30 1507 H 158.157 -2.92103 0.679401 0
M  V30 1508 H 155.71 -1.51343 0.390517 0
M  V30 1509 H 156.445 -2.64416 -1.87762 0
M  V30 1510 H 156.23 -3.87491 -0.59941 0
M  V30 1511 H 157.72 -3.86167 -1.5895 0
M  V30 1512 N 158.157 -0.370918 -1.53173 0
M  V30 1513 C 159.104 0.473035 -2.259 0
M  V30 1514 C 160.074 1.07311 -1.26781 0
M  V30 1515 O 161.259 1.1046 -1.55574 0
M  V30 1516 C 158.399 1.60405 -3.05556 0
M  V30 1517 C 157.512 1.02863 -4.19575 0
M  V30 1518 C 156.647 2.12918 -4.86661 0
M  V30 1519 C 155.686 1.52869 -5.92704 0
M  V30 1520 N 154.823 2.56779 -6.53459 0
M  V30 1521 H 159.663 -0.153649 -2.97604 0
M  V30 1522 H 157.2 -0.0875946 -1.46839 0
M  V30 1523 H 159.158 2.27034 -3.50016 0
M  V30 1524 H 157.788 2.20131 -2.36097 0
M  V30 1525 H 156.84 0.252465 -3.79561 0
M  V30 1526 H 158.152 0.549642 -4.95762 0
M  V30 1527 H 157.306 2.87356 -5.34333 0
M  V30 1528 H 156.045 2.6417 -4.09958 0
M  V30 1529 H 155.05 0.769479 -5.44389 0
M  V30 1530 H 156.275 1.02435 -6.7133 0
M  V30 1531 H 154.221 3.07235 -5.79606 0
M  V30 1532 H 154.138 2.13583 -7.25202 0
M  V30 1533 H 155.406 3.30903 -7.05779 0
M  V30 1534 N 159.635 1.57281 -0.100228 0
M  V30 1535 C 160.865 1.98591 0.569681 0
M  V30 1536 C 161.273 0.978315 1.61943 0
M  V30 1537 O 160.616 -0.0396108 1.83657 0
M  V30 1538 C 160.678 3.36282 1.271 0
M  V30 1539 C 160.342 4.55488 0.371409 0
M  V30 1540 C 161.339 5.18491 -0.382504 0
M  V30 1541 C 159.024 5.01474 0.287965 0
M  V30 1542 C 161.018 6.25852 -1.20779 0
M  V30 1543 C 158.705 6.08701 -0.540965 0
M  V30 1544 C 159.703 6.70755 -1.28749 0
M  V30 1545 O 159.391 7.75914 -2.10269 0
M  V30 1546 H 159.123 0.65752 0.156982 0
M  V30 1547 H 161.677 2.0463 -0.177734 0
M  V30 1548 H 159.907 3.26941 2.0651 0
M  V30 1549 H 161.596 3.62005 1.83595 0
M  V30 1550 H 162.362 4.83891 -0.3278 0
M  V30 1551 H 158.241 4.52932 0.858689 0
M  V30 1552 H 161.785 6.74218 -1.79096 0
M  V30 1553 H 157.682 6.42732 -0.597131 0
M  V30 1554 H 158.45 7.92925 -2.03007 0
M  V30 1555 N 161.113 -0.173488 1.56642 0
M  V30 1556 C 162.043 -1.2171 1.99271 0
M  V30 1557 C 163.024 -1.46289 0.867959 0
M  V30 1558 O 164.209 -1.5766 1.13388 0
M  V30 1559 C 161.339 -2.55651 2.35074 0
M  V30 1560 C 160.293 -2.45645 3.50489 0
M  V30 1561 C 159.619 -3.84056 3.72028 0
M  V30 1562 C 160.919 -1.96302 4.84007 0
M  V30 1563 H 162.613 -0.86275 2.867 0
M  V30 1564 H 160.159 -0.413571 1.37933 0
M  V30 1565 H 162.112 -3.2886 2.63494 0
M  V30 1566 H 160.836 -2.92869 1.44552 0
M  V30 1567 H 159.495 -1.7489 3.22194 0
M  V30 1568 H 159.143 -4.18664 2.788 0
M  V30 1569 H 158.843 -3.7823 4.49684 0
M  V30 1570 H 160.367 -4.58854 4.02846 0
M  V30 1571 H 161.781 -2.59284 5.11317 0
M  V30 1572 H 160.178 -2.01429 5.65284 0
M  V30 1573 H 161.248 -0.917226 4.76146 0
M  V30 1574 N 162.591 -1.51276 -0.441967 0
M  V30 1575 C 163.524 -1.66933 -1.55591 0
M  V30 1576 C 164.502 -0.516958 -1.54163 0
M  V30 1577 O 165.686 -0.740209 -1.73358 0
M  V30 1578 C 162.813 -1.67866 -2.94174 0
M  V30 1579 C 161.859 -2.89013 -3.13646 0
M  V30 1580 S 162.692 -4.49897 -2.90436 0
M  V30 1581 C 163.848 -4.53568 -4.31308 0
M  V30 1582 H 164.081 -2.61155 -1.42076 0
M  V30 1583 H 161.614 -1.40902 -0.631341 0
M  V30 1584 H 163.572 -1.69089 -3.74058 0
M  V30 1585 H 162.233 -0.748296 -3.05056 0
M  V30 1586 H 161.426 -2.86054 -4.14957 0
M  V30 1587 H 161.028 -2.85509 -2.4158 0
M  V30 1588 H 163.32 -4.28924 -5.24434 0
M  V30 1589 H 164.263 -5.55355 -4.39303 0
M  V30 1590 H 164.671 -3.82943 -4.14747 0
M  V30 1591 N 164.069 0.697108 -1.41344 0
M  V30 1592 C 164.979 1.84088 -1.45427 0
M  V30 1593 C 165.995 1.70545 -0.34501 0
M  V30 1594 O 167.171 1.92488 -0.592492 0
M  V30 1595 C 164.236 3.20056 -1.33286 0
M  V30 1596 C 163.297 3.45718 -2.54514 0
M  V30 1597 C 162.53 4.75199 -2.42944 0
M  V30 1598 O 162.753 5.51579 -1.45318 0
M  V30 1599 O 161.687 5.0161 -3.32672 0
M  V30 1600 H 165.513 1.836 -2.41919 0
M  V30 1601 H 163.098 0.849966 -1.22866 0
M  V30 1602 H 164.98 4.01236 -1.28794 0
M  V30 1603 H 163.655 3.2123 -0.39909 0
M  V30 1604 H 162.562 2.64474 -2.64583 0
M  V30 1605 H 163.895 3.49356 -3.46715 0
M  V30 1606 N 165.547 1.27147 0.931209 0
M  V30 1607 C 166.775 1.16082 1.71267 0
M  V30 1608 C 167.19 -0.282772 1.8667 0
M  V30 1609 O 166.547 -1.19283 1.38122 0
M  V30 1610 C 166.598 1.8358 3.11417 0
M  V30 1611 O 166.319 3.22299 2.96741 0
M  V30 1612 C 167.82 1.78597 4.05732 0
M  V30 1613 H 165.04 0.403758 0.535929 0
M  V30 1614 H 167.584 1.67953 1.16671 0
M  V30 1615 H 165.739 1.35623 3.62885 0
M  V30 1616 H 166.153 3.55851 3.85319 0
M  V30 1617 H 167.627 2.30444 5.01597 0
M  V30 1618 H 168.104 0.754564 4.3267 0
M  V30 1619 H 168.71 2.26152 3.60188 0
M  V30 1620 N 167.025 -1.13721 1.09112 0
M  V30 1621 C 168.271 -1.85413 0.836283 0
M  V30 1622 C 168.626 -1.8175 -0.631249 0
M  V30 1623 O 167.919 -1.24238 -1.45861 0
M  V30 1624 C 168.113 -3.32861 1.30146 0
M  V30 1625 C 167.942 -3.50882 2.81268 0
M  V30 1626 C 166.712 -3.65312 3.49106 0
M  V30 1627 C 168.91 -3.47196 3.7942 0
M  V30 1628 N 166.892 -3.71563 4.88686 0
M  V30 1629 C 168.263 -3.59777 5.04936 0
M  V30 1630 C 170.318 -3.30577 3.72321 0
M  V30 1631 C 169.021 -3.57455 6.24194 0
M  V30 1632 C 171.047 -3.29562 4.91063 0
M  V30 1633 C 170.409 -3.42691 6.15421 0
M  V30 1634 H 166.508 -0.694812 0.358832 0
M  V30 1635 H 169.092 -1.36246 1.39087 0
M  V30 1636 H 167.263 -3.80602 0.774361 0
M  V30 1637 H 168.995 -3.92346 0.99229 0
M  V30 1638 H 165.75 -3.6685 2.9953 0
M  V30 1639 H 166.174 -3.78387 5.61384 0
M  V30 1640 H 170.816 -3.19332 2.77105 0
M  V30 1641 H 168.534 -3.67475 7.19714 0
M  V30 1642 H 172.12 -3.17905 4.87266 0
M  V30 1643 H 171 -3.41862 7.05762 0
M  V30 1644 N 168.503 -0.877838 -1.30888 0
M  V30 1645 C 169.914 -0.544193 -1.78593 0
M  V30 1646 C 170.265 0.939301 -1.72254 0
M  V30 1647 O 169.39 1.7337 -1.29505 0
M  V30 1648 C 169.985 -0.98105 -3.24285 0
M  V30 1649 C 168.544 -0.698935 -3.69854 0
M  V30 1650 C 167.691 -1.168 -2.51502 0
M  V30 1651 H 170.642 -1.06278 -1.17859 0
M  V30 1652 H 170.663 -0.307009 -3.79259 0
M  V30 1653 H 170.175 -2.06079 -3.28866 0
M  V30 1654 H 168.276 0.369112 -3.70767 0
M  V30 1655 H 168.389 -1.28148 -4.61644 0
M  V30 1656 H 166.753 -0.587535 -2.47831 0
M  V30 1657 H 167.536 -2.25533 -2.58824 0
M  V30 1658 N 169.982 1.44106 -0.638065 0
M  V30 1659 C 171.229 2.01978 -0.14533 0
M  V30 1660 C 171.557 1.50234 1.23532 0
M  V30 1661 O 170.812 0.679548 1.83523 0
M  V30 1662 C 171.111 3.5729 -0.0887327 0
M  V30 1663 C 170.777 4.28317 -1.40909 0
M  V30 1664 C 169.439 4.47437 -1.77069 0
M  V30 1665 C 171.791 4.6867 -2.28031 0
M  V30 1666 C 169.119 5.04171 -3.00047 0
M  V30 1667 C 171.471 5.26766 -3.50286 0
M  V30 1668 C 170.135 5.44104 -3.86661 0
M  V30 1669 H 169.405 0.739089 -0.0531801 0
M  V30 1670 H 172.052 1.72781 -0.825761 0
M  V30 1671 H 170.357 3.8594 0.675095 0
M  V30 1672 H 172.054 3.99807 0.309145 0
M  V30 1673 H 168.644 4.1377 -1.1177 0
M  V30 1674 H 172.828 4.53604 -2.01388 0
M  V30 1675 H 168.084 5.15782 -3.28298 0
M  V30 1676 H 172.258 5.56983 -4.18023 0
M  V30 1677 H 169.885 5.87832 -4.82034 0
M  V30 1678 N 171.46 0.379036 1.52974 0
M  V30 1679 C 172.708 -0.206014 2.01047 0
M  V30 1680 C 173.029 -1.48175 1.26765 0
M  V30 1681 O 172.299 -1.92085 0.384743 0
M  V30 1682 H 170.879 -0.0791184 0.742798 0
M  V30 1683 H 173.541 0.508366 1.88153 0
M  V30 1684 H 172.637 -0.423501 3.09213 0
M  V30 1685 N 172.938 -1.57226 0.108567 0
M  V30 1686 C 173.848 -2.18292 -0.859401 0
M  V30 1687 C 174.864 -1.15612 -1.30038 0
M  V30 1688 O 176.04 -1.48039 -1.36552 0
M  V30 1689 C 173.105 -2.762 -2.09558 0
M  V30 1690 C 172.166 -3.93881 -1.70752 0
M  V30 1691 C 171.399 -4.49018 -2.88477 0
M  V30 1692 O 171.622 -4.03068 -4.036 0
M  V30 1693 O 170.556 -5.39852 -2.66164 0
M  V30 1694 H 174.382 -3.01441 -0.369769 0
M  V30 1695 H 171.967 -1.48945 -0.1165 0
M  V30 1696 H 173.849 -3.13156 -2.81978 0
M  V30 1697 H 172.524 -1.96089 -2.57548 0
M  V30 1698 H 171.431 -3.61713 -0.954714 0
M  V30 1699 H 172.764 -4.75396 -1.27513 0
M  V30 1700 N 174.416 0.165178 -1.56732 0
M  V30 1701 C 175.346 1.20651 -1.99914 0
M  V30 1702 C 176.327 1.45827 -0.875705 0
M  V30 1703 O 177.512 1.57057 -1.14223 0
M  V30 1704 C 174.642 2.54401 -2.36427 0
M  V30 1705 C 173.596 2.43782 -3.51787 0
M  V30 1706 C 172.922 3.82078 -3.7406 0
M  V30 1707 C 174.222 1.93732 -4.85041 0
M  V30 1708 H 175.916 0.847534 -2.87154 0
M  V30 1709 H 173.462 0.40625 -1.38151 0
M  V30 1710 H 175.415 3.27458 -2.65234 0
M  V30 1711 H 174.139 2.92098 -1.46103 0
M  V30 1712 H 172.798 1.73178 -3.23117 0
M  V30 1713 H 172.446 4.17179 -2.81017 0
M  V30 1714 H 172.146 3.7584 -4.51684 0
M  V30 1715 H 173.67 4.56712 -4.05274 0
M  V30 1716 H 175.084 2.56569 -5.12684 0
M  V30 1717 H 173.481 1.98428 -5.66345 0
M  V30 1718 H 174.551 0.891962 -4.76626 0
M  V30 1719 N 175.894 1.51508 0.433938 0
M  V30 1720 C 176.824 1.76016 1.53429 0
M  V30 1721 C 177.805 0.610112 1.58782 0
M  V30 1722 O 178.99 0.853177 1.74455 0
M  V30 1723 C 176.12 1.88831 2.9148 0
M  V30 1724 C 175.074 3.04288 3.00987 0
M  V30 1725 C 174.4 3.0229 4.4105 0
M  V30 1726 C 175.7 4.44193 2.74754 0
M  V30 1727 H 177.394 2.68152 1.33171 0
M  V30 1728 H 174.94 1.29035 0.639214 0
M  V30 1729 H 176.893 2.04559 3.6842 0
M  V30 1730 H 175.617 0.933455 3.12976 0
M  V30 1731 H 174.276 2.8827 2.26486 0
M  V30 1732 H 173.924 2.04576 4.59519 0
M  V30 1733 H 173.624 3.79822 4.4834 0
M  V30 1734 H 175.148 3.20116 5.1996 0
M  V30 1735 H 176.562 4.60544 3.41426 0
M  V30 1736 H 174.959 5.23457 2.9345 0
M  V30 1737 H 176.029 4.53996 1.70339 0
M  V30 1738 N 177.372 -0.689602 1.41712 0
M  V30 1739 C 178.612 -1.46184 1.42862 0
M  V30 1740 C 178.976 -1.91962 0.0382204 0
M  V30 1741 O 180.177 -2.68694 -0.0755019 0
M  V30 1742 C 178.448 -2.6371 2.4123 0
M  V30 1743 S 180.007 -3.52768 2.6096 0
M  V30 1744 H 176.825 -0.49947 0.506015 0
M  V30 1745 H 179.427 -0.804107 1.78198 0
M  V30 1746 H 178.131 -2.28293 3.41044 0
M  V30 1747 H 177.662 -3.3437 2.07269 0
M  V30 1748 H 179.677 -4.59146 1.88148 0
M  V30 1749 N 178.85 -1.27639 -0.924453 0
M  V30 1750 C 179.797 -1.10644 -2.0255 0
M  V30 1751 C 180.767 -0.00658438 -1.66099 0
M  V30 1752 O 181.952 -0.16952 -1.90045 0
M  V30 1753 C 179.092 -0.76309 -3.36557 0
M  V30 1754 C 178.205 -1.94091 -3.85944 0
M  V30 1755 C 177.34 -1.53914 -5.08413 0
M  V30 1756 C 176.379 -2.68425 -5.50104 0
M  V30 1757 N 175.516 -2.28815 -6.63768 0
M  V30 1758 H 180.356 -2.04858 -2.16419 0
M  V30 1759 H 177.893 -1.01974 -1.06017 0
M  V30 1760 H 179.851 -0.544822 -4.13627 0
M  V30 1761 H 178.481 0.142102 -3.22487 0
M  V30 1762 H 177.533 -2.27162 -3.05125 0
M  V30 1763 H 178.845 -2.7998 -4.12811 0
M  V30 1764 H 177.999 -1.28231 -5.92994 0
M  V30 1765 H 176.738 -0.651391 -4.8333 0
M  V30 1766 H 175.743 -2.94819 -4.64071 0
M  V30 1767 H 176.968 -3.57826 -5.7718 0
M  V30 1768 H 174.914 -1.42495 -6.40337 0
M  V30 1769 H 174.831 -3.08242 -6.90306 0
M  V30 1770 H 176.099 -2.06387 -7.51681 0
M  V30 1771 N 180.328 1.1314 -1.09713 0
M  V30 1772 C 181.291 2.16831 -0.742751 0
M  V30 1773 C 182.291 1.59159 0.229129 0
M  V30 1774 O 183.481 1.74199 0.00693237 0
M  V30 1775 C 180.613 3.40756 -0.0989168 0
M  V30 1776 H 181.806 2.49695 -1.66109 0
M  V30 1777 H 179.359 1.2802 -0.896699 0
M  V30 1778 H 180.094 3.13485 0.830514 0
M  V30 1779 H 179.879 3.83888 -0.798265 0
M  V30 1780 H 181.369 4.17386 0.133524 0
M  V30 1781 N 181.806 0.884767 1.30421 0
M  V30 1782 C 183.052 0.503851 1.96441 0
M  V30 1783 C 183.385 -0.944518 1.69684 0
M  V30 1784 O 182.66 -1.66737 1.00145 0
M  V30 1785 C 182.943 0.779085 3.51571 0
M  V30 1786 C 182.796 2.27807 3.87846 0
M  V30 1787 C 184.115 0.255452 4.39358 0
M  V30 1788 H 181.234 0.184533 0.713524 0
M  V30 1789 H 183.876 1.10872 1.54297 0
M  V30 1790 H 182.026 0.264274 3.876 0
M  V30 1791 H 183.698 2.86127 3.61841 0
M  V30 1792 H 181.941 2.74479 3.35922 0
M  V30 1793 H 182.612 2.42125 4.96064 0
M  V30 1794 H 185.088 0.696079 4.10236 0
M  V30 1795 H 183.964 0.477361 5.4682 0
M  V30 1796 H 184.225 -0.843293 4.33983 0
M  V30 1797 N 183.284 -1.43765 0.645699 0
M  V30 1798 C 184.214 -2.33471 -0.0370477 0
M  V30 1799 C 185.195 -1.49042 -0.819779 0
M  V30 1800 O 186.38 -1.77726 -0.782758 0
M  V30 1801 C 183.51 -3.32311 -1.0093 0
M  V30 1802 C 182.464 -4.2667 -0.337201 0
M  V30 1803 C 181.79 -5.1549 -1.42037 0
M  V30 1804 C 183.09 -5.16657 0.765706 0
M  V30 1805 H 184.784 -2.90809 0.712069 0
M  V30 1806 H 182.33 -1.39834 0.343876 0
M  V30 1807 H 184.283 -3.9396 -1.49578 0
M  V30 1808 H 183.007 -2.73213 -1.78948 0
M  V30 1809 H 181.666 -3.66374 0.128771 0
M  V30 1810 H 181.314 -4.52735 -2.1918 0
M  V30 1811 H 181.014 -5.79438 -0.975966 0
M  V30 1812 H 182.538 -5.80012 -1.90838 0
M  V30 1813 H 183.952 -5.72158 0.361702 0
M  V30 1814 H 182.349 -5.89286 1.13413 0
M  V30 1815 H 183.419 -4.56796 1.62683 0
M  V30 1816 N 184.763 -0.387143 -1.52771 0
M  V30 1817 C 185.988 0.198407 -2.06449 0
M  V30 1818 C 186.413 1.39918 -1.25716 0
M  V30 1819 O 185.771 1.79099 -0.281657 0
M  V30 1820 C 185.819 0.548893 -3.56398 0
M  V30 1821 O 184.923 1.64315 -3.78252 0
M  V30 1822 H 184.264 0.0237731 -0.663574 0
M  V30 1823 H 186.794 -0.553989 -1.96957 0
M  V30 1824 H 186.804 0.813812 -3.99801 0
M  V30 1825 H 185.479 -0.329005 -4.14597 0
M  V30 1826 H 184.056 1.37211 -3.46738 0
M  V30 1827 N 186.241 1.57166 -0.116904 0
M  V30 1828 C 187.49 1.94298 0.541407 0
M  V30 1829 C 187.803 1.00236 1.67964 0
M  V30 1830 O 189.009 1.26826 2.40057 0
M  V30 1831 C 187.465 3.45306 1.01449 0
M  V30 1832 C 187.073 4.47899 -0.0951738 0
M  V30 1833 C 188.817 3.91361 1.6443 0
M  V30 1834 C 186.724 5.90083 0.394491 0
M  V30 1835 H 185.654 0.725308 0.206019 0
M  V30 1836 H 188.305 1.82446 -0.196419 0
M  V30 1837 H 186.687 3.52385 1.80667 0
M  V30 1838 H 187.861 4.52486 -0.871374 0
M  V30 1839 H 186.176 4.11583 -0.631505 0
M  V30 1840 H 188.773 4.95004 2.02176 0
M  V30 1841 H 189.116 3.3122 2.52189 0
M  V30 1842 H 189.649 3.87073 0.917559 0
M  V30 1843 H 186.388 6.53974 -0.447004 0
M  V30 1844 H 185.908 5.88921 1.13722 0
M  V30 1845 H 187.587 6.41307 0.856399 0
M  V30 1846 N 187.719 -0.156864 1.56817 0
M  V30 1847 C 188.996 -0.899244 1.73704 0
M  V30 1848 C 189.376 -1.99771 0.682254 0
M  V30 1849 O 188.724 -2.26515 -0.300522 0
M  V30 1850 C 188.934 -1.45075 3.17418 0
M  V30 1851 C 190.282 -1.91802 3.7881 0
M  V30 1852 O 191.306 -1.54838 3.20786 0
M  V30 1853 O 190.165 -2.5994 4.80722 0
M  V30 1854 H 187.259 -0.424267 0.709878 0
M  V30 1855 H 189.805 -0.143561 1.69092 0
M  V30 1856 H 188.577 -0.660846 3.85679 0
M  V30 1857 H 188.2 -2.27021 3.26416 0
M  V30 1858 N 189.197 -1.51736 -0.425897 0
M  V30 1859 C 190.427 -1.68549 -1.19476 0
M  V30 1860 C 190.835 -0.387288 -1.85194 0
M  V30 1861 O 190.178 0.645142 -1.71999 0
M  V30 1862 C 190.24 -2.75275 -2.31223 0
M  V30 1863 C 189.904 -4.17534 -1.8578 0
M  V30 1864 C 190.901 -5.01936 -1.35485 0
M  V30 1865 C 188.586 -4.6369 -1.93123 0
M  V30 1866 C 190.58 -6.30559 -0.931347 0
M  V30 1867 C 188.267 -5.92307 -1.50384 0
M  V30 1868 C 189.265 -6.75569 -1.00473 0
M  V30 1869 O 188.953 -8.0178 -0.583452 0
M  V30 1870 H 188.685 -0.568525 -0.365725 0
M  V30 1871 H 191.239 -1.98982 -0.509444 0
M  V30 1872 H 189.469 -2.40182 -3.03067 0
M  V30 1873 H 191.158 -2.80853 -2.93047 0
M  V30 1874 H 191.924 -4.67475 -1.29197 0
M  V30 1875 H 187.803 -3.98997 -2.30916 0
M  V30 1876 H 191.347 -6.95498 -0.541084 0
M  V30 1877 H 187.244 -6.2628 -1.56346 0
M  V30 1878 H 188.012 -8.1543 -0.708275 0
M  V30 1879 N 190.675 0.682077 -1.42076 0
M  V30 1880 C 191.905 1.46844 -1.45329 0
M  V30 1881 C 192.313 1.89102 -0.0609328 0
M  V30 1882 O 191.656 1.58238 0.933082 0
M  V30 1883 C 191.718 2.75375 -2.31104 0
M  V30 1884 C 191.382 2.55238 -3.79081 0
M  V30 1885 C 192.379 2.20309 -4.70914 0
M  V30 1886 C 190.064 2.70459 -4.2327 0
M  V30 1887 C 192.058 2.00859 -6.04925 0
M  V30 1888 C 189.745 2.50624 -5.57343 0
M  V30 1889 C 190.743 2.15876 -6.47986 0
M  V30 1890 O 190.431 1.96227 -7.79583 0
M  V30 1891 H 190.163 0.4586 -0.496651 0
M  V30 1892 H 192.717 0.846131 -1.87162 0
M  V30 1893 H 190.947 3.40061 -1.84107 0
M  V30 1894 H 192.636 3.37231 -2.25898 0
M  V30 1895 H 193.402 2.08153 -4.38061 0
M  V30 1896 H 189.281 2.96485 -3.53012 0
M  V30 1897 H 192.825 1.7366 -6.75639 0
M  V30 1898 H 188.722 2.62375 -5.89771 0
M  V30 1899 H 189.49 2.10883 -7.90867 0
M  V30 1900 N 192.153 1.28127 0.917671 0
M  V30 1901 C 193.101 1.11569 2.04096 0
M  V30 1902 C 194.095 0.0360242 1.69362 0
M  V30 1903 O 195.301 0.194501 1.78946 0
M  V30 1904 H 191.676 0.344097 0.668656 0
M  V30 1905 H 193.647 2.06711 2.15205 0
M  V30 1906 C 192.396 0.790197 3.38602 0
M  V30 1907 H 191.719 1.61293 3.6582 0
M  V30 1908 H 193.159 0.714271 4.1794 0
M  V30 1909 C 191.618 -0.505897 3.3308 0
M  V30 1910 O 192.148 -1.53736 3.71117 0
M  V30 1911 N 190.354 -0.505193 2.86175 0
M  V30 1912 H 189.901 0.334621 2.55417 0
M  V30 1913 H 189.859 -1.37243 2.82863 0
M  V30 1914 N 193.631 -1.12557 1.10312 0
M  V30 1915 C 194.564 -2.1737 0.694674 0
M  V30 1916 C 195.542 -1.59745 -0.303373 0
M  V30 1917 O 196.726 -1.87408 -0.202578 0
M  V30 1918 C 193.853 -3.38691 0.0248052 0
M  V30 1919 C 192.899 -4.14943 0.986121 0
M  V30 1920 S 193.732 -4.73413 2.50281 0
M  V30 1921 C 194.888 -5.9807 1.84562 0
M  V30 1922 H 195.121 -2.5168 1.58255 0
M  V30 1923 H 192.654 -1.23998 0.919992 0
M  V30 1924 H 194.612 -4.08959 -0.355361 0
M  V30 1925 H 193.273 -3.02664 -0.839851 0
M  V30 1926 H 192.466 -5.01854 0.464651 0
M  V30 1927 H 192.068 -3.50377 1.30813 0
M  V30 1928 H 194.36 -6.67232 1.17507 0
M  V30 1929 H 195.303 -6.54841 2.69423 0
M  V30 1930 H 195.711 -5.49073 1.31069 0
M  V30 1931 N 195.109 -0.891671 -1.2995 0
M  V30 1932 C 196.356 -0.513501 -1.95881 0
M  V30 1933 C 196.684 0.938655 -1.70351 0
M  V30 1934 O 195.939 1.67936 -1.00478 0
M  V30 1935 C 196.238 -0.742868 -3.49594 0
M  V30 1936 C 195.904 -2.17114 -3.95186 0
M  V30 1937 C 194.566 -2.56169 -4.07346 0
M  V30 1938 C 196.918 -3.10162 -4.18866 0
M  V30 1939 C 194.246 -3.87469 -4.4055 0
M  V30 1940 C 196.598 -4.41001 -4.53542 0
M  V30 1941 C 195.262 -4.79941 -4.63911 0
M  V30 1942 H 194.532 -0.187903 -0.71678 0
M  V30 1943 H 197.179 -1.1288 -1.54694 0
M  V30 1944 H 195.484 -0.044586 -3.91775 0
M  V30 1945 H 197.181 -0.429767 -3.9869 0
M  V30 1946 H 193.771 -1.85801 -3.86233 0
M  V30 1947 H 197.955 -2.81206 -4.08946 0
M  V30 1948 H 193.211 -4.17371 -4.46779 0
M  V30 1949 H 197.385 -5.13133 -4.70815 0
M  V30 1950 H 195.012 -5.81719 -4.89395 0
M  V30 1951 N 196.587 1.43421 -0.653314 0
M  V30 1952 C 197.815 2.06163 -0.174491 0
M  V30 1953 C 198.23 1.48969 1.1599 0
M  V30 1954 O 197.587 0.621042 1.71608 0
M  V30 1955 C 197.638 3.61417 -0.0774865 0
M  V30 1956 O 197.359 4.16485 -1.35912 0
M  V30 1957 C 198.86 4.41235 0.427402 0
M  V30 1958 H 196.08 0.664946 -0.0899353 0
M  V30 1959 H 198.624 1.83924 -0.893988 0
M  V30 1960 H 196.779 3.82841 0.59257 0
M  V30 1961 H 197.193 5.10153 -1.21839 0
M  V30 1962 H 198.667 5.5021 0.44423 0
M  V30 1963 H 199.144 4.14268 1.45873 0
M  V30 1964 H 199.75 4.2478 -0.210167 0
M  V30 1965 N 198.065 0.39524 1.52563 0
M  V30 1966 C 199.29 -0.187456 2.06551 0
M  V30 1967 C 199.715 -1.39249 1.26457 0
M  V30 1968 O 199.073 -1.78947 0.291151 0
M  V30 1969 C 199.121 -0.529985 3.56684 0
M  V30 1970 O 198.225 -1.62307 3.79118 0
M  V30 1971 H 197.566 -0.0202537 0.663691 0
M  V30 1972 H 200.096 0.564426 1.96661 0
M  V30 1973 H 200.106 -0.792598 4.00227 0
M  V30 1974 H 198.781 0.350987 4.14416 0
M  V30 1975 H 197.358 -1.3537 3.47461 0
M  V30 1976 N 199.544 -1.57102 0.125237 0
M  V30 1977 C 200.793 -1.94582 -0.531095 0
M  V30 1978 C 201.106 -1.01126 -1.6743 0
M  V30 1979 O 202.312 -1.28097 -2.39381 0
M  V30 1980 C 200.768 -3.45839 -0.996164 0
M  V30 1981 C 200.376 -4.47842 0.118926 0
M  V30 1982 C 202.12 -3.92227 -1.62352 0
M  V30 1983 C 200.027 -5.90284 -0.363192 0
M  V30 1984 H 198.957 -0.726391 -0.20217 0
M  V30 1985 H 201.608 -1.82339 0.206092 0
M  V30 1986 H 199.99 -3.53338 -1.78796 0
M  V30 1987 H 201.164 -4.52018 0.895358 0
M  V30 1988 H 199.479 -4.11243 0.653324 0
M  V30 1989 H 202.076 -4.96069 -1.99548 0
M  V30 1990 H 202.419 -3.32552 -2.50429 0
M  V30 1991 H 202.952 -3.87554 -0.897019 0
M  V30 1992 H 199.691 -6.53728 0.481679 0
M  V30 1993 H 199.211 -5.89515 -1.10597 0
M  V30 1994 H 200.89 -6.41752 -0.822377 0
M  V30 1995 N 201.022 0.148545 -1.56898 0
M  V30 1996 C 202.269 0.861418 -1.83264 0
M  V30 1997 C 202.597 1.81239 -0.705883 0
M  V30 1998 O 201.852 1.93305 0.305212 0
M  V30 1999 C 202.151 1.67064 -3.1595 0
M  V30 2000 C 201.817 0.866591 -4.42494 0
M  V30 2001 C 200.479 0.644762 -4.76861 0
M  V30 2002 C 202.831 0.30418 -5.20312 0
M  V30 2003 C 200.159 -0.15021 -5.86508 0
M  V30 2004 C 202.511 -0.477824 -6.30793 0
M  V30 2005 C 201.175 -0.710244 -6.63711 0
M  V30 2006 H 200.445 0.315215 -0.670612 0
M  V30 2007 H 203.092 0.125142 -1.91091 0
M  V30 2008 H 201.397 2.47698 -3.03567 0
M  V30 2009 H 203.094 2.22566 -3.33565 0
M  V30 2010 H 199.684 1.04955 -4.15551 0
M  V30 2011 H 203.868 0.462844 -4.94137 0
M  V30 2012 H 199.124 -0.339796 -6.10455 0
M  V30 2013 H 203.298 -0.92076 -6.90286 0
M  V30 2014 H 200.925 -1.3281 -7.48509 0
M  V30 2015 N 202.5 1.5196 0.417844 0
M  V30 2016 C 203.728 1.69426 1.18753 0
M  V30 2017 C 204.143 0.399955 1.84515 0
M  V30 2018 O 203.5 -0.623288 1.71527 0
M  V30 2019 C 203.551 2.82375 2.25714 0
M  V30 2020 O 203.272 4.06793 1.62638 0
M  V30 2021 C 204.773 3.11277 3.15628 0
M  V30 2022 H 201.993 0.568031 0.357186 0
M  V30 2023 H 204.537 1.98475 0.49273 0
M  V30 2024 H 202.692 2.5587 2.90877 0
M  V30 2025 H 203.106 4.69667 2.3348 0
M  V30 2026 H 204.58 3.93843 3.86771 0
M  V30 2027 H 205.057 2.24473 3.77503 0
M  V30 2028 H 205.663 3.39515 2.56144 0
M  V30 2029 N 203.978 -0.674533 1.42435 0
M  V30 2030 C 204.908 -1.80009 1.48724 0
M  V30 2031 C 205.889 -1.6659 0.343793 0
M  V30 2032 O 207.074 -1.86007 0.558137 0
M  V30 2033 C 204.204 -3.18306 1.38919 0
M  V30 2034 C 203.158 -3.46461 2.51294 0
M  V30 2035 C 202.484 -4.84335 2.26547 0
M  V30 2036 C 203.784 -3.43328 3.93603 0
M  V30 2037 H 205.478 -1.75004 2.42928 0
M  V30 2038 H 203.024 -0.840533 1.16923 0
M  V30 2039 H 204.977 -3.9678 1.41927 0
M  V30 2040 H 203.701 -3.2399 0.412094 0
M  V30 2041 H 202.36 -2.70348 2.47604 0
M  V30 2042 H 202.008 -4.86669 1.2713 0
M  V30 2043 H 201.708 -5.04136 3.01861 0
M  V30 2044 H 203.232 -5.65094 2.31304 0
M  V30 2045 H 204.646 -4.11772 3.98894 0
M  V30 2046 H 203.043 -3.74664 4.68771 0
M  V30 2047 H 204.113 -2.41897 4.20255 0
M  V30 2048 N 205.456 -1.28612 -0.910864 0
M  V30 2049 C 206.684 -1.18792 -1.69399 0
M  V30 2050 C 207.099 0.253039 -1.87097 0
M  V30 2051 O 206.456 1.17071 -1.40003 0
M  V30 2052 C 206.507 -1.88511 -3.08457 0
M  V30 2053 O 206.228 -3.26979 -2.91576 0
M  V30 2054 C 207.729 -1.85029 -4.02839 0
M  V30 2055 H 204.949 -0.412233 -0.529438 0
M  V30 2056 H 207.493 -1.69788 -1.13984 0
M  V30 2057 H 205.648 -1.41379 -3.60681 0
M  V30 2058 H 206.062 -3.61936 -3.79608 0
M  V30 2059 H 207.536 -2.38395 -4.97867 0
M  V30 2060 H 208.013 -0.823303 -4.31414 0
M  V30 2061 H 208.619 -2.31853 -3.56545 0
M  V30 2062 N 206.934 1.1197 -1.10907 0
M  V30 2063 C 207.867 2.16998 -0.706192 0
M  V30 2064 C 208.845 1.59903 0.294897 0
M  V30 2065 O 210.029 1.87513 0.192636 0
M  V30 2066 C 207.156 3.38673 -0.0427664 0
M  V30 2067 C 206.202 4.14414 -1.00811 0
M  V30 2068 S 207.035 4.72079 -2.52789 0
M  V30 2069 C 208.191 5.97083 -1.87731 0
M  V30 2070 H 208.424 2.50837 -1.59587 0
M  V30 2071 H 205.957 1.23508 -0.926555 0
M  V30 2072 H 207.915 4.09142 0.333668 0
M  V30 2073 H 206.576 3.03105 0.823788 0
M  V30 2074 H 205.769 5.016 -0.491259 0
M  V30 2075 H 205.371 3.49678 -1.3267 0
M  V30 2076 H 207.663 6.66599 -1.21044 0
M  V30 2077 H 208.606 6.53403 -2.72892 0
M  V30 2078 H 209.014 5.4837 -1.33979 0
M  V30 2079 N 208.412 0.89855 1.29475 0
M  V30 2080 C 209.345 0.319981 2.25945 0
M  V30 2081 C 210.323 -0.567189 1.52387 0
M  V30 2082 O 211.507 -0.514254 1.8135 0
M  V30 2083 C 208.634 -0.544013 3.34303 0
M  V30 2084 C 207.68 0.275682 4.25608 0
M  V30 2085 S 208.513 1.67272 5.08704 0
M  V30 2086 C 209.669 0.815621 6.20563 0
M  V30 2087 H 209.902 1.13767 2.74671 0
M  V30 2088 H 207.435 0.69882 1.3768 0
M  V30 2089 H 209.393 -1.03673 3.97193 0
M  V30 2090 H 208.054 -1.33593 2.84274 0
M  V30 2091 H 207.247 -0.384263 5.02533 0
M  V30 2092 H 206.849 0.701496 3.67362 0
M  V30 2093 H 209.141 0.0385042 6.77489 0
M  V30 2094 H 210.084 1.55691 6.90772 0
M  V30 2095 H 210.492 0.370516 5.63283 0
M  V30 2096 N 209.89 -1.43072 0.660911 0
M  V30 2097 C 211.115 -2.06584 0.183805 0
M  V30 2098 C 211.54 -1.49257 -1.14472 0
M  V30 2099 O 210.898 -0.605528 -1.70889 0
M  V30 2100 C 210.946 -3.60418 0.114434 0
M  V30 2101 O 210.05 -4.01981 -0.921137 0
M  V30 2102 H 209.391 -0.656669 0.0983994 0
M  V30 2103 H 211.921 -1.83447 0.906006 0
M  V30 2104 H 211.931 -4.07946 -0.0663394 0
M  V30 2105 H 210.606 -4.01519 1.08422 0
M  V30 2106 H 209.183 -3.66029 -0.71253 0
M  V30 2107 N 211.368 -0.403325 -1.52352 0
M  V30 2108 C 212.614 0.174605 -2.02047 0
M  V30 2109 C 212.947 1.45282 -1.28867 0
M  V30 2110 O 212.222 1.90483 -0.393257 0
M  V30 2111 C 212.505 0.428238 -3.57545 0
M  V30 2112 C 212.358 -0.866248 -4.4138 0
M  V30 2113 C 213.677 1.21287 -4.23057 0
M  V30 2114 H 210.796 0.0619851 -0.734389 0
M  V30 2115 H 213.438 -0.53565 -1.82293 0
M  V30 2116 H 211.588 1.03327 -3.74507 0
M  V30 2117 H 213.26 -1.50265 -4.3614 0
M  V30 2118 H 211.503 -1.47851 -4.07827 0
M  V30 2119 H 212.174 -0.643249 -5.48239 0
M  V30 2120 H 214.65 0.700703 -4.10158 0
M  V30 2121 H 213.526 1.35909 -5.31808 0
M  V30 2122 H 213.787 2.23193 -3.81625 0
M  V30 2123 N 212.846 1.57033 -0.133567 0
M  V30 2124 C 214.123 1.87256 0.56522 0
M  V30 2125 C 214.503 1.03726 1.83859 0
M  V30 2126 O 213.851 0.120247 2.28183 0
M  V30 2127 C 214.061 3.3865 0.843636 0
M  V30 2128 C 215.409 4.07574 1.19032 0
M  V30 2129 O 216.433 3.43752 0.933429 0
M  V30 2130 O 215.292 5.20259 1.67312 0
M  V30 2131 H 212.386 0.775678 0.286796 0
M  V30 2132 H 214.932 1.68855 -0.169168 0
M  V30 2133 H 213.704 3.91257 -0.0581149 0
M  V30 2134 H 213.327 3.62532 1.63268 0
M  V30 2135 N 214.325 -0.140222 1.56975 0
M  V30 2136 C 215.741 -0.493088 1.51792 0
M  V30 2137 C 215.941 -1.83013 0.843116 0
M  V30 2138 O 214.997 -2.49041 0.416493 0
M  V30 2139 C 216.31 -0.497144 2.96562 0
M  V30 2140 C 217.858 -0.582186 3.07538 0
M  V30 2141 C 218.333 -0.616838 4.53827 0
M  V30 2142 N 219.824 -0.678873 4.58198 0
M  V30 2143 C 220.559 -0.726782 5.68775 0
M  V30 2144 N 220.055 -0.733623 6.88905 0
M  V30 2145 N 221.848 -0.768179 5.56826 0
M  V30 2146 H 213.999 0.736108 1.99237 0
M  V30 2147 H 216.262 0.269182 0.90898 0
M  V30 2148 H 215.968 0.417217 3.49217 0
M  V30 2149 H 215.842 -1.33263 3.52875 0
M  V30 2150 H 218.229 -1.48697 2.54899 0
M  V30 2151 H 218.31 0.280581 2.54257 0
M  V30 2152 H 217.954 0.283812 5.07106 0
M  V30 2153 H 217.884 -1.49619 5.04898 0
M  V30 2154 H 220.375 -0.68061 3.7172 0
M  V30 2155 H 220.688 -0.772215 7.68932 0
M  V30 2156 H 219.033 -0.701389 6.91452 0
M  V30 2157 H 222.224 -0.760051 4.61888 0
M  V30 2158 H 222.397 -0.80205 6.43017 0
M  V30 2159 N 215.803 -1.52179 -0.40978 0
M  V30 2160 C 217.033 -1.69807 -1.17682 0
M  V30 2161 C 217.441 -0.406908 -1.84773 0
M  V30 2162 O 216.784 0.626863 -1.72673 0
M  V30 2163 C 216.846 -2.77712 -2.2829 0
M  V30 2164 C 216.51 -4.19481 -1.81341 0
M  V30 2165 C 217.507 -5.03345 -1.30154 0
M  V30 2166 C 215.192 -4.65713 -1.88194 0
M  V30 2167 C 217.186 -6.31511 -0.864416 0
M  V30 2168 C 214.873 -5.93869 -1.44093 0
M  V30 2169 C 215.871 -6.76597 -0.933023 0
M  V30 2170 O 215.559 -8.02354 -0.49838 0
M  V30 2171 H 215.291 -0.572372 -0.359675 0
M  V30 2172 H 217.845 -1.99511 -0.488311 0
M  V30 2173 H 216.075 -2.43383 -3.00502 0
M  V30 2174 H 217.764 -2.83946 -2.90051 0
M  V30 2175 H 218.53 -4.68819 -1.24232 0
M  V30 2176 H 214.409 -4.01424 -2.26671 0
M  V30 2177 H 217.953 -6.96033 -0.467286 0
M  V30 2178 H 213.85 -6.27903 -1.49694 0
M  V30 2179 H 214.618 -8.16135 -0.621747 0
M  V30 2180 N 217.281 0.66697 -1.42791 0
M  V30 2181 C 218.53 1.42278 -1.42968 0
M  V30 2182 C 218.843 1.9553 -0.0524489 0
M  V30 2183 O 220.049 2.71414 0.068363 0
M  V30 2184 C 218.505 2.57418 -2.51524 0
M  V30 2185 C 218.113 2.10832 -3.9529 0
M  V30 2186 C 219.857 3.34878 -2.60877 0
M  V30 2187 C 217.764 3.23101 -4.95338 0
M  V30 2188 H 216.694 0.534533 -0.531781 0
M  V30 2189 H 219.345 0.721302 -1.68729 0
M  V30 2190 H 217.727 3.29971 -2.18941 0
M  V30 2191 H 218.901 1.4538 -4.37266 0
M  V30 2192 H 217.216 1.46289 -3.89857 0
M  V30 2193 H 219.813 4.18505 -3.32802 0
M  V30 2194 H 220.156 3.81993 -1.6549 0
M  V30 2195 H 220.689 2.69398 -2.92693 0
M  V30 2196 H 217.428 2.80969 -5.9223 0
M  V30 2197 H 216.948 3.87309 -4.57987 0
M  V30 2198 H 218.627 3.88447 -5.17415 0
M  V30 2199 N 218.759 1.29093 0.90403 0
M  V30 2200 C 219.722 1.1386 1.98919 0
M  V30 2201 C 220.722 0.0753457 1.60623 0
M  V30 2202 O 221.912 0.321931 1.71199 0
M  V30 2203 C 219.044 0.740198 3.32767 0
M  V30 2204 H 220.237 2.10246 2.13861 0
M  V30 2205 H 217.79 1.12218 1.08797 0
M  V30 2206 H 218.525 -0.223997 3.23525 0
M  V30 2207 H 218.31 1.50838 3.61926 0
M  V30 2208 H 219.8 0.656546 4.12407 0
M  V30 2209 N 220.237 -1.11381 1.11499 0
M  V30 2210 C 221.483 -1.83403 0.865512 0
M  V30 2211 C 221.816 -1.84459 -0.607329 0
M  V30 2212 O 221.091 -1.29811 -1.44842 0
M  V30 2213 C 221.374 -3.30552 1.42855 0
M  V30 2214 C 221.227 -3.37886 2.96906 0
M  V30 2215 C 222.546 -4.26643 1.08 0
M  V30 2216 H 219.665 -0.665879 0.31587 0
M  V30 2217 H 222.307 -1.30601 1.37998 0
M  V30 2218 H 220.457 -3.75648 0.990985 0
M  V30 2219 H 222.129 -3.01343 3.49271 0
M  V30 2220 H 220.372 -2.78088 3.32941 0
M  V30 2221 H 221.043 -4.41458 3.31389 0
M  V30 2222 H 223.519 -3.89729 1.45775 0
M  V30 2223 H 222.395 -5.27986 1.50072 0
M  V30 2224 H 222.656 -4.42099 -0.00915037 0
M  V30 2225 N 221.715 -0.905404 -1.28997 0
M  V30 2226 C 222.955 -0.541232 -1.97104 0
M  V30 2227 C 223.319 0.896841 -1.69767 0
M  V30 2228 O 224.52 1.36817 -2.31375 0
M  V30 2229 C 222.791 -0.832134 -3.47578 0
M  V30 2230 S 224.35 -0.573127 -4.35041 0
M  V30 2231 H 221.168 -0.200576 -0.682122 0
M  V30 2232 H 223.77 -1.16906 -1.56694 0
M  V30 2233 H 222.474 -1.87687 -3.64968 0
M  V30 2234 H 222.005 -0.192636 -3.92928 0
M  V30 2235 H 224.02 0.579297 -4.92807 0
M  V30 2236 N 223.193 1.4272 -0.668489 0
M  V30 2237 C 224.143 2.27971 0.0363806 0
M  V30 2238 C 225.127 1.40741 0.779794 0
M  V30 2239 O 226.319 1.64245 0.659745 0
M  V30 2240 C 223.448 3.28673 0.991398 0
M  V30 2241 C 222.534 4.23388 0.245658 0
M  V30 2242 N 222.925 5.00267 -0.746069 0
M  V30 2243 C 221.223 4.43355 0.484988 0
M  V30 2244 C 221.924 5.69396 -1.19009 0
M  V30 2245 N 220.9 5.41095 -0.521287 0
M  V30 2246 H 224.702 2.84833 -0.724394 0
M  V30 2247 H 222.216 1.54607 -0.497028 0
M  V30 2248 H 224.213 3.88543 1.51129 0
M  V30 2249 H 222.873 2.73373 1.75207 0
M  V30 2250 H 223.884 5.05525 -1.12537 0
M  V30 2251 H 220.561 3.99104 1.22565 0
M  V30 2252 H 221.951 6.41083 -2.01153 0
M  V30 2253 N 224.671 0.411399 1.52136 0
M  V30 2254 C 226.082 -0.0576826 1.86611 0
M  V30 2255 C 226.433 -1.44238 1.33003 0
M  V30 2256 O 225.558 -2.05759 0.670228 0
M  V30 2257 C 226.153 -0.111448 3.38617 0
M  V30 2258 C 224.712 -0.52487 3.72723 0
M  V30 2259 C 223.859 0.299176 2.75681 0
M  V30 2260 H 226.81 0.628368 1.4573 0
M  V30 2261 H 226.831 -0.926252 3.69054 0
M  V30 2262 H 226.343 0.896488 3.77604 0
M  V30 2263 H 224.444 -1.53936 3.39315 0
M  V30 2264 H 224.557 -0.267681 4.78352 0
M  V30 2265 H 222.921 -0.238814 2.53578 0
M  V30 2266 H 223.704 1.3055 3.17508 0
M  V30 2267 N 226.149 -1.5696 0.141893 0
M  V30 2268 C 227.395 -1.9625 -0.511248 0
M  V30 2269 C 227.728 -1.02654 -1.64851 0
M  V30 2270 O 227.003 -0.0679676 -1.94381 0
M  V30 2271 C 227.286 -3.45285 -1.02227 0
M  V30 2272 C 227.139 -4.49658 0.113138 0
M  V30 2273 C 228.458 -3.96698 -1.90574 0
M  V30 2274 H 225.577 -0.713567 -0.184367 0
M  V30 2275 H 228.219 -1.88698 0.222087 0
M  V30 2276 H 226.369 -3.51852 -1.64719 0
M  V30 2277 H 228.041 -4.55174 0.749302 0
M  V30 2278 H 226.284 -4.26857 0.773026 0
M  V30 2279 H 226.955 -5.51258 -0.286053 0
M  V30 2280 H 229.431 -3.92578 -1.37918 0
M  V30 2281 H 228.307 -5.01453 -2.2324 0
M  V30 2282 H 228.568 -3.3875 -2.84079 0
M  V30 2283 N 227.627 0.131896 -1.57047 0
M  V30 2284 C 228.574 1.16236 -1.99393 0
M  V30 2285 C 229.544 1.41863 -0.863943 0
M  V30 2286 O 230.729 1.53946 -1.12718 0
M  V30 2287 C 227.869 2.48708 -2.39245 0
M  V30 2288 C 226.982 2.30127 -3.65603 0
M  V30 2289 C 226.117 3.55738 -3.94492 0
M  V30 2290 C 225.156 3.32259 -5.14073 0
M  V30 2291 N 224.293 4.50039 -5.38896 0
M  V30 2292 H 229.133 0.794251 -2.87221 0
M  V30 2293 H 226.67 0.380707 -1.42088 0
M  V30 2294 H 228.628 3.25969 -2.60384 0
M  V30 2295 H 227.258 2.83437 -1.54478 0
M  V30 2296 H 226.31 1.43845 -3.52154 0
M  V30 2297 H 227.622 2.08746 -4.5302 0
M  V30 2298 H 226.776 4.41423 -4.1621 0
M  V30 2299 H 225.515 3.80138 -3.05526 0
M  V30 2300 H 224.52 2.44963 -4.92212 0
M  V30 2301 H 225.745 3.09242 -6.04604 0
M  V30 2302 H 223.691 4.74584 -4.52886 0
M  V30 2303 H 223.608 4.31716 -6.2061 0
M  V30 2304 H 224.876 5.36895 -5.65123 0
M  V30 2305 N 229.106 1.52395 0.401703 0
M  V30 2306 C 230.069 1.75636 1.47257 0
M  V30 2307 C 231.069 0.62628 1.48103 0
M  V30 2308 O 232.259 0.894227 1.49497 0
M  V30 2309 C 229.391 1.84553 2.86624 0
M  V30 2310 H 230.584 2.71241 1.27938 0
M  V30 2311 H 228.137 1.42923 0.632662 0
M  V30 2312 H 228.872 0.908882 3.11303 0
M  V30 2313 H 228.657 2.66715 2.87412 0
M  V30 2314 H 230.147 2.04251 3.64241 0
M  V30 2315 N 230.584 -0.659388 1.43143 0
M  V30 2316 C 231.514 -1.78422 1.50625 0
M  V30 2317 C 232.495 -1.66216 0.361443 0
M  V30 2318 O 233.68 -1.85404 0.577834 0
M  V30 2319 C 230.81 -3.16815 1.42287 0
M  V30 2320 C 229.764 -3.43777 2.54954 0
M  V30 2321 C 229.09 -4.81905 2.31671 0
M  V30 2322 C 230.39 -3.39134 3.97222 0
M  V30 2323 H 232.084 -1.72417 2.44771 0
M  V30 2324 H 229.63 -0.828084 1.17808 0
M  V30 2325 H 231.583 -3.95253 1.46127 0
M  V30 2326 H 230.307 -3.23534 0.446435 0
M  V30 2327 H 228.966 -2.67707 2.50457 0
M  V30 2328 H 228.614 -4.85294 1.32284 0
M  V30 2329 H 228.314 -5.00906 3.07192 0
M  V30 2330 H 229.838 -5.62609 2.37284 0
M  V30 2331 H 231.252 -4.07518 4.03239 0
M  V30 2332 H 229.649 -3.69671 4.72719 0
M  V30 2333 H 230.719 -2.37426 4.22797 0
M  V30 2334 N 232.062 -1.29571 -0.897171 0
M  V30 2335 C 233.339 -1.08365 -1.62839 0
M  V30 2336 C 233.719 0.371331 -2.07808 0
M  V30 2337 O 233.067 1.3606 -1.83576 0
M  V30 2338 C 233.277 -2.0735 -2.80726 0
M  V30 2339 C 234.625 -2.38406 -3.51351 0
M  V30 2340 O 235.649 -2.05564 -2.90898 0
M  V30 2341 O 234.508 -2.9453 -4.60341 0
M  V30 2342 H 231.602 -0.415345 -0.715134 0
M  V30 2343 H 234.148 -1.40952 -0.945018 0
M  V30 2344 H 232.92 -3.05339 -2.44711 0
M  V30 2345 H 232.543 -1.75507 -3.56767 0
M  V30 2346 N 233.54 1.10788 -1.12088 0
M  V30 2347 C 234.787 1.82671 -0.873931 0
M  V30 2348 C 235.115 1.85004 0.600311 0
M  V30 2349 O 234.37 1.30365 1.45957 0
M  V30 2350 C 234.669 3.29294 -1.38926 0
M  V30 2351 C 234.335 3.47113 -2.87791 0
M  V30 2352 C 232.997 3.51684 -3.28439 0
M  V30 2353 C 235.349 3.52808 -3.83635 0
M  V30 2354 C 232.677 3.59513 -4.63646 0
M  V30 2355 C 235.029 3.62169 -5.18668 0
M  V30 2356 C 233.693 3.65003 -5.58864 0
M  V30 2357 H 232.963 0.668441 -0.319794 0
M  V30 2358 H 235.61 1.30613 -1.40045 0
M  V30 2359 H 233.915 3.83894 -0.783122 0
M  V30 2360 H 235.612 3.83416 -1.17443 0
M  V30 2361 H 232.202 3.4423 -2.5535 0
M  V30 2362 H 236.386 3.4853 -3.53328 0
M  V30 2363 H 231.642 3.59987 -4.94185 0
M  V30 2364 H 235.816 3.6552 -5.92763 0
M  V30 2365 H 233.443 3.70822 -6.63623 0
M  V30 2366 N 235.018 0.912232 1.28515 0
M  V30 2367 C 236.434 0.610159 1.47476 0
M  V30 2368 C 236.634 -0.844955 1.82928 0
M  V30 2369 O 235.69 -1.62416 1.93332 0
M  V30 2370 C 237.003 1.54675 2.57868 0
M  V30 2371 C 238.551 1.55331 2.71738 0
M  V30 2372 C 239.026 2.47649 3.85272 0
M  V30 2373 N 240.517 2.45767 3.92623 0
M  V30 2374 C 241.252 3.13896 4.79851 0
M  V30 2375 N 240.748 3.9135 5.71679 0
M  V30 2376 N 242.541 3.02991 4.73448 0
M  V30 2377 H 234.692 1.85318 1.03783 0
M  V30 2378 H 236.955 0.794777 0.516753 0
M  V30 2379 H 236.661 2.5841 2.38574 0
M  V30 2380 H 236.535 1.27671 3.54937 0
M  V30 2381 H 238.922 0.52335 2.90422 0
M  V30 2382 H 239.003 1.86378 1.75205 0
M  V30 2383 H 238.647 3.50745 3.67342 0
M  V30 2384 H 238.577 2.13904 4.81199 0
M  V30 2385 H 241.068 1.89503 3.26951 0
M  V30 2386 H 241.381 4.40359 6.35062 0
M  V30 2387 H 239.726 3.95455 5.71524 0
M  V30 2388 H 242.917 2.41987 4.007 0
M  V30 2389 H 243.09 3.5636 5.41213 0
M  V30 2390 N 236.496 -1.42363 0.676048 0
M  V30 2391 C 237.724 -2.05859 0.207268 0
M  V30 2392 C 238.139 -1.50796 -1.13605 0
M  V30 2393 O 237.496 -0.648265 -1.70598 0
M  V30 2394 C 237.547 -3.61248 0.134975 0
M  V30 2395 O 237.268 -4.1427 1.42521 0
M  V30 2396 C 238.769 -4.41859 -0.357151 0
M  V30 2397 H 235.989 -0.663431 0.100503 0
M  V30 2398 H 238.533 -1.82479 0.923136 0
M  V30 2399 H 236.688 -3.83735 -0.531588 0
M  V30 2400 H 237.102 -5.0815 1.29939 0
M  V30 2401 H 238.576 -5.50847 -0.356641 0
M  V30 2402 H 239.053 -4.16536 -1.39264 0
M  V30 2403 H 239.659 -4.24392 0.27772 0
M  V30 2404 N 237.974 -0.419461 -1.51915 0
M  V30 2405 C 239.385 0.0477853 -1.86639 0
M  V30 2406 C 239.736 1.43531 -1.33766 0
M  V30 2407 O 238.861 2.05401 -0.68113 0
M  V30 2408 C 239.456 0.0934885 -3.38671 0
M  V30 2409 C 238.015 0.505097 -3.72996 0
M  V30 2410 C 237.162 -0.313792 -2.75519 0
M  V30 2411 H 240.113 -0.636088 -1.45395 0
M  V30 2412 H 240.134 0.906667 -3.6954 0
M  V30 2413 H 239.646 -0.916501 -3.77123 0
M  V30 2414 H 237.747 1.52135 -3.40126 0
M  V30 2415 H 237.86 0.242309 -4.78487 0
M  V30 2416 H 236.224 0.225363 -2.53701 0
M  V30 2417 H 237.007 -1.32232 -3.16812 0
M  V30 2418 N 239.452 1.56882 -0.150215 0
M  V30 2419 C 240.415 2.1573 0.774157 0
M  V30 2420 C 241.415 1.0999 1.17298 0
M  V30 2421 O 242.605 1.35613 1.09338 0
M  V30 2422 C 239.737 2.72302 2.05096 0
M  V30 2423 H 240.93 2.98752 0.262201 0
M  V30 2424 H 238.483 1.55985 0.099248 0
M  V30 2425 H 239.218 1.92956 2.6065 0
M  V30 2426 H 239.003 3.49665 1.77416 0
M  V30 2427 H 240.493 3.17632 2.71109 0
M  V30 2428 N 240.93 -0.123565 1.57115 0
M  V30 2429 C 241.877 -1.15177 2.00007 0
M  V30 2430 C 242.847 -1.41403 0.871454 0
M  V30 2431 O 244.032 -1.53346 1.13533 0
M  V30 2432 C 241.172 -2.47436 2.40561 0
M  V30 2433 C 240.285 -2.28184 3.66819 0
M  V30 2434 C 239.42 -3.53641 3.96373 0
M  V30 2435 C 238.459 -3.29528 5.15827 0
M  V30 2436 N 237.596 -4.47175 5.41275 0
M  V30 2437 H 242.436 -0.779008 2.87638 0
M  V30 2438 H 239.973 -0.373166 1.42288 0
M  V30 2439 H 241.931 -3.24584 2.62109 0
M  V30 2440 H 240.561 -2.82614 1.55978 0
M  V30 2441 H 239.613 -1.41976 3.52912 0
M  V30 2442 H 240.925 -2.0634 4.5412 0
M  V30 2443 H 240.079 -4.39209 4.18545 0
M  V30 2444 H 238.818 -3.78512 3.07538 0
M  V30 2445 H 237.823 -2.42349 4.93505 0
M  V30 2446 H 239.048 -3.06031 6.06236 0
M  V30 2447 H 236.994 -4.72175 4.55397 0
M  V30 2448 H 236.911 -4.28419 6.22891 0
M  V30 2449 H 238.179 -5.3389 5.67963 0
M  V30 2450 N 242.408 -1.52605 -0.393616 0
M  V30 2451 C 243.371 -1.76415 -1.46323 0
M  V30 2452 C 244.371 -0.634126 -1.47768 0
M  V30 2453 O 245.561 -0.902142 -1.4902 0
M  V30 2454 C 242.693 -1.8607 -2.85641 0
M  V30 2455 H 243.886 -2.71916 -1.26498 0
M  V30 2456 H 241.439 -1.43257 -0.625073 0
M  V30 2457 H 242.174 -0.925378 -3.10817 0
M  V30 2458 H 241.959 -2.68235 -2.85993 0
M  V30 2459 H 243.449 -2.06179 -3.63153 0
M  V30 2460 N 243.887 0.651787 -1.4349 0
M  V30 2461 C 244.834 1.76462 -1.4876 0
M  V30 2462 C 245.804 1.62641 -0.337189 0
M  V30 2463 O 246.989 1.82864 -0.544544 0
M  V30 2464 C 244.129 3.14623 -1.41796 0
M  V30 2465 C 243.242 3.39568 -2.67053 0
M  V30 2466 C 242.377 4.67585 -2.52068 0
M  V30 2467 C 241.416 4.85639 -3.72587 0
M  V30 2468 N 240.553 6.04915 -3.56402 0
M  V30 2469 H 245.393 1.71293 -2.43849 0
M  V30 2470 H 242.93 0.835889 -1.21043 0
M  V30 2471 H 244.888 3.94496 -1.35753 0
M  V30 2472 H 243.518 3.18859 -0.50288 0
M  V30 2473 H 242.57 2.53783 -2.8337 0
M  V30 2474 H 243.882 3.48795 -3.56572 0
M  V30 2475 H 243.036 5.55586 -2.4374 0
M  V30 2476 H 241.775 4.60681 -1.60075 0
M  V30 2477 H 240.78 3.96073 -3.81321 0
M  V30 2478 H 242.005 4.94372 -4.65589 0
M  V30 2479 H 239.951 5.9914 -2.67146 0
M  V30 2480 H 239.868 6.15106 -4.39524 0
M  V30 2481 H 241.136 6.95533 -3.51929 0
M  V30 2482 N 245.365 1.30045 0.890287 0
M  V30 2483 C 246.295 1.18541 2.01172 0
M  V30 2484 C 247.276 0.0773356 1.69924 0
M  V30 2485 O 248.461 0.25845 1.92473 0
M  V30 2486 C 245.591 0.870941 3.36202 0
M  V30 2487 C 244.545 1.93637 3.81692 0
M  V30 2488 C 243.871 1.475 5.13953 0
M  V30 2489 C 245.171 3.34666 4.00994 0
M  V30 2490 H 246.865 2.12359 2.11054 0
M  V30 2491 H 244.411 1.02238 1.01407 0
M  V30 2492 H 246.364 0.777141 4.14172 0
M  V30 2493 H 245.088 -0.102926 3.26438 0
M  V30 2494 H 243.747 2.01972 3.05946 0
M  V30 2495 H 243.395 0.489551 5.00612 0
M  V30 2496 H 243.095 2.1876 5.4536 0
M  V30 2497 H 244.619 1.39489 5.94454 0
M  V30 2498 H 246.033 3.2912 4.69417 0
M  V30 2499 H 244.43 4.03966 4.43769 0
M  V30 2500 H 245.5 3.76949 3.05021 0
M  V30 2501 N 246.843 -1.10192 1.12674 0
M  V30 2502 C 248.092 -1.81573 0.8783 0
M  V30 2503 C 248.405 -1.86249 -0.597557 0
M  V30 2504 O 249.611 -2.5386 -0.962681 0
M  V30 2505 C 248.067 -3.26149 1.52167 0
M  V30 2506 C 247.675 -3.29763 3.03249 0
M  V30 2507 C 249.419 -4.0234 1.3536 0
M  V30 2508 C 247.326 -4.68815 3.60508 0
M  V30 2509 H 246.256 -0.680394 0.324931 0
M  V30 2510 H 248.907 -1.23902 1.35353 0
M  V30 2511 H 247.289 -3.83832 0.974104 0
M  V30 2512 H 248.463 -2.8189 3.6452 0
M  V30 2513 H 246.778 -2.67059 3.19481 0
M  V30 2514 H 249.375 -5.05058 1.75559 0
M  V30 2515 H 249.718 -4.15235 0.297554 0
M  V30 2516 H 250.251 -3.51079 1.87052 0
M  V30 2517 H 246.99 -4.61121 4.65884 0
M  V30 2518 H 246.51 -5.17045 3.04014 0
M  V30 2519 H 248.189 -5.37785 3.59717 0
M  V30 2520 N 248.321 -0.919034 -1.28029 0
M  V30 2521 C 249.269 -0.401753 -2.29104 0
M  V30 2522 C 250.263 0.509354 -1.61561 0
M  V30 2523 O 251.469 0.390014 -1.75724 0
M  V30 2524 H 247.844 -0.111331 -0.743713 0
M  V30 2525 H 249.815 -1.2672 -2.70156 0
M  V30 2526 C 248.564 0.338148 -3.46052 0
M  V30 2527 H 247.887 -0.353732 -3.98232 0
M  V30 2528 H 249.327 0.664653 -4.18758 0
M  V30 2529 C 247.786 1.54798 -2.99231 0
M  V30 2530 O 248.316 2.64696 -3.02157 0
M  V30 2531 N 246.522 1.3968 -2.54829 0
M  V30 2532 H 246.069 0.502698 -2.52647 0
M  V30 2533 H 246.027 2.20755 -2.23863 0
M  V30 2534 N 249.799 1.42003 -0.683588 0
M  V30 2535 C 251.048 2.00638 -0.206681 0
M  V30 2536 C 251.361 1.5472 1.19671 0
M  V30 2537 O 252.567 2.05833 1.77045 0
M  V30 2538 C 251.023 3.58487 -0.318632 0
M  V30 2539 C 250.631 4.1339 -1.72663 0
M  V30 2540 C 252.375 4.24384 0.0991141 0
M  V30 2541 C 250.282 5.63633 -1.79087 0
M  V30 2542 H 249.212 0.750408 -0.0735107 0
M  V30 2543 H 251.863 1.62624 -0.850048 0
M  V30 2544 H 250.245 3.94047 0.392781 0
M  V30 2545 H 251.419 3.89273 -2.46583 0
M  V30 2546 H 249.734 3.59976 -2.09299 0
M  V30 2547 H 252.331 5.34652 0.0713833 0
M  V30 2548 H 252.674 4.00505 1.13586 0
M  V30 2549 H 253.207 3.93816 -0.561599 0
M  V30 2550 H 249.946 5.92323 -2.80774 0
M  V30 2551 H 249.466 5.89714 -1.09535 0
M  V30 2552 H 251.145 6.28201 -1.5483 0
M  V30 2553 N 251.277 0.427512 1.51691 0
M  V30 2554 C 252.517 -0.141524 2.03909 0
M  V30 2555 C 252.881 -1.40811 1.30523 0
M  V30 2556 O 254.082 -2.05676 1.73063 0
M  V30 2557 C 252.353 -0.364962 3.55532 0
M  V30 2558 S 253.912 -0.898812 4.29496 0
M  V30 2559 H 250.73 -0.0364542 0.710065 0
M  V30 2560 H 253.332 0.584659 1.86553 0
M  V30 2561 H 252.036 0.56336 4.06515 0
M  V30 2562 H 251.567 -1.1185 3.77164 0
M  V30 2563 H 253.582 -2.17747 4.45871 0
M  V30 2564 N 252.755 -1.56801 0.158532 0
M  V30 2565 C 254.004 -1.95665 -0.489702 0
M  V30 2566 C 254.317 -1.04654 -1.65248 0
M  V30 2567 O 255.523 -1.33146 -2.3661 0
M  V30 2568 C 253.979 -3.47874 -0.922582 0
M  V30 2569 C 253.587 -4.47489 0.213893 0
M  V30 2570 C 255.331 -3.95583 -1.53996 0
M  V30 2571 C 253.238 -5.90921 -0.237903 0
M  V30 2572 H 252.168 -0.730516 -0.186716 0
M  V30 2573 H 254.819 -1.81861 0.244722 0
M  V30 2574 H 253.201 -3.57051 -1.71261 0
M  V30 2575 H 254.375 -4.50017 0.991036 0
M  V30 2576 H 252.69 -4.09764 0.740407 0
M  V30 2577 H 255.287 -5.0019 -1.8898 0
M  V30 2578 H 255.63 -3.37789 -2.43319 0
M  V30 2579 H 256.163 -3.8937 -0.814611 0
M  V30 2580 H 252.902 -6.52559 0.620236 0
M  V30 2581 H 252.422 -5.91729 -0.980676 0
M  V30 2582 H 254.101 -6.43352 -0.686067 0
M  V30 2583 N 254.233 0.115231 -1.57178 0
M  V30 2584 C 255.479 0.818565 -1.86202 0
M  V30 2585 C 255.834 1.77316 -0.746785 0
M  V30 2586 O 255.127 1.89923 0.25291 0
M  V30 2587 C 255.321 1.60324 -3.19423 0
M  V30 2588 C 255.15 0.726138 -4.43799 0
M  V30 2589 C 253.92 0.379535 -5.03873 0
M  V30 2590 C 256.118 0.0420774 -5.14283 0
M  V30 2591 N 254.1 -0.507841 -6.11796 0
M  V30 2592 C 255.471 -0.704152 -6.15988 0
M  V30 2593 C 257.526 -0.0339486 -4.97888 0
M  V30 2594 C 256.229 -1.51927 -7.03072 0
M  V30 2595 C 258.255 -0.835906 -5.85463 0
M  V30 2596 C 257.617 -1.57031 -6.86673 0
M  V30 2597 H 253.716 0.276343 -0.731545 0
M  V30 2598 H 256.3 0.0821032 -1.94527 0
M  V30 2599 H 254.471 2.31072 -3.12186 0
M  V30 2600 H 256.203 2.2522 -3.36241 0
M  V30 2601 H 252.958 0.722634 -4.68054 0
M  V30 2602 H 253.382 -0.94349 -6.70393 0
M  V30 2603 H 258.024 0.519496 -4.19596 0
M  V30 2604 H 255.742 -2.08386 -7.80769 0
M  V30 2605 H 259.328 -0.89714 -5.74841 0
M  V30 2606 H 258.208 -2.18088 -7.53264 0
M  V30 2607 N 255.711 1.52812 0.385517 0
M  V30 2608 C 256.957 1.68275 1.13188 0
M  V30 2609 C 257.29 0.423179 1.89533 0
M  V30 2610 O 256.565 -0.579113 1.85679 0
M  V30 2611 C 256.848 2.92001 2.1073 0
M  V30 2612 C 256.701 4.28067 1.38125 0
M  V30 2613 C 258.02 3.11283 3.11113 0
M  V30 2614 H 255.139 0.612352 0.410115 0
M  V30 2615 H 257.781 1.85415 0.414869 0
M  V30 2616 H 255.931 2.77519 2.71874 0
M  V30 2617 H 257.603 4.54324 0.799187 0
M  V30 2618 H 255.846 4.28388 0.683092 0
M  V30 2619 H 256.517 5.10733 2.09417 0
M  V30 2620 H 258.993 3.2482 2.6006 0
M  V30 2621 H 257.869 3.99325 3.76605 0
M  V30 2622 H 258.13 2.25656 3.80173 0
M  V30 2623 N 257.189 -0.644168 1.43834 0
M  V30 2624 C 258.119 -1.76814 1.52509 0
M  V30 2625 C 259.1 -1.65823 0.379052 0
M  V30 2626 O 260.285 -1.84781 0.597466 0
M  V30 2627 C 257.415 -3.15288 1.4564 0
M  V30 2628 C 256.369 -3.41053 2.58586 0
M  V30 2629 C 255.695 -4.79421 2.36769 0
M  V30 2630 C 256.995 -3.34902 4.00797 0
M  V30 2631 H 258.689 -1.69812 2.46586 0
M  V30 2632 H 256.235 -0.815542 1.1868 0
M  V30 2633 H 258.188 -3.93681 1.50311 0
M  V30 2634 H 256.912 -3.23043 0.480725 0
M  V30 2635 H 255.571 -2.65035 2.53282 0
M  V30 2636 H 255.219 -4.83863 1.37424 0
M  V30 2637 H 254.919 -4.9762 3.12487 0
M  V30 2638 H 256.443 -5.6006 2.43238 0
M  V30 2639 H 257.857 -4.03218 4.07539 0
M  V30 2640 H 256.254 -3.64637 4.76613 0
M  V30 2641 H 257.324 -2.32928 4.25291 0
M  V30 2642 N 258.668 -1.30515 -0.883378 0
M  V30 2643 C 259.631 -1.1701 -1.97082 0
M  V30 2644 C 260.631 -0.10089 -1.60483 0
M  V30 2645 O 261.821 -0.349127 -1.70666 0
M  V30 2646 C 258.953 -0.793045 -3.31547 0
M  V30 2647 H 260.146 -2.13622 -2.10489 0
M  V30 2648 H 257.699 -1.13935 -1.06998 0
M  V30 2649 H 258.434 0.172499 -3.23841 0
M  V30 2650 H 258.219 -1.56576 -3.5948 0
M  V30 2651 H 259.709 -0.722073 -4.1131 0
M  V30 2652 N 260.146 1.09593 -1.13257 0
M  V30 2653 C 261.371 1.8604 -0.916732 0
M  V30 2654 C 261.796 1.80504 0.529146 0
M  V30 2655 O 261.154 1.18127 1.37534 0
M  V30 2656 C 261.202 3.32017 -1.40703 0
M  V30 2657 O 260.306 4.08141 -0.591153 0
M  V30 2658 H 259.647 0.576943 -0.328683 0
M  V30 2659 H 262.177 1.38405 -1.50682 0
M  V30 2660 H 262.187 3.82865 -1.4099 0
M  V30 2661 H 260.862 3.35361 -2.45979 0
M  V30 2662 H 259.439 3.67084 -0.656005 0
M  V30 2663 N 261.624 0.925811 1.2754 0
M  V30 2664 C 262.872 0.564138 1.94067 0
M  V30 2665 C 263.193 -0.897188 1.73134 0
M  V30 2666 O 262.463 -1.63573 1.07799 0
M  V30 2667 H 261.043 0.205645 0.718136 0
M  V30 2668 H 263.705 1.1778 1.55287 0
M  V30 2669 H 262.801 0.76881 3.02483 0
M  V30 2670 N 263.102 -1.41638 0.69111 0
M  V30 2671 C 264.348 -2.01598 0.220519 0
M  V30 2672 C 264.681 -1.54594 -1.17535 0
M  V30 2673 O 263.956 -0.755177 -1.79241 0
M  V30 2674 C 264.239 -3.59062 0.273243 0
M  V30 2675 C 264.092 -4.16203 1.70573 0
M  V30 2676 C 265.411 -4.38546 -0.369457 0
M  V30 2677 H 262.53 -0.732468 0.0816045 0
M  V30 2678 H 265.172 -1.68445 0.878986 0
M  V30 2679 H 263.322 -3.87435 -0.287411 0
M  V30 2680 H 264.994 -3.98722 2.31989 0
M  V30 2681 H 263.237 -3.71414 2.2413 0
M  V30 2682 H 263.908 -5.25358 1.69419 0
M  V30 2683 H 266.384 -4.1596 0.107977 0
M  V30 2684 H 265.26 -5.48069 -0.302002 0
M  V30 2685 H 265.521 -4.17662 -1.44951 0
M  V30 2686 N 264.58 -0.43555 -1.51462 0
M  V30 2687 C 265.828 0.131254 -2.01673 0
M  V30 2688 C 266.149 1.43368 -1.32177 0
M  V30 2689 O 265.419 1.90524 -0.455769 0
M  V30 2690 H 263.999 0.0514954 -0.745223 0
M  V30 2691 H 266.661 -0.577847 -1.86137 0
M  V30 2692 H 265.757 0.308446 -3.10572 0
M  V30 2693 N 266.058 1.56714 -0.166846 0
M  V30 2694 C 267.304 1.97039 0.479962 0
M  V30 2695 C 267.637 1.05264 1.63197 0
M  V30 2696 O 266.912 0.0988833 1.94248 0
M  V30 2697 C 267.195 3.46867 0.967212 0
M  V30 2698 C 267.048 4.49421 -0.18466 0
M  V30 2699 C 268.367 3.9968 1.84238 0
M  V30 2700 H 265.486 0.71641 0.172992 0
M  V30 2701 H 268.128 1.8832 -0.252079 0
M  V30 2702 H 266.278 3.54428 1.59101 0
M  V30 2703 H 267.95 4.53924 -0.821621 0
M  V30 2704 H 266.193 4.25573 -0.840837 0
M  V30 2705 H 266.864 5.51644 0.198317 0
M  V30 2706 H 269.34 3.94723 1.31655 0
M  V30 2707 H 268.216 5.04941 2.15234 0
M  V30 2708 H 268.477 3.43226 2.78654 0
M  V30 2709 N 267.536 -0.106894 1.57237 0
M  V30 2710 C 268.947 -0.662723 1.74542 0
M  V30 2711 C 269.298 -1.7971 0.787319 0
M  V30 2712 O 268.423 -2.16368 -0.0369636 0
M  V30 2713 C 269.018 -1.20896 3.16496 0
M  V30 2714 C 267.577 -1.71096 3.35266 0
M  V30 2715 C 266.724 -0.615642 2.7038 0
M  V30 2716 H 269.675 0.119106 1.58252 0
M  V30 2717 H 269.696 -2.07847 3.18716 0
M  V30 2718 H 269.208 -0.383122 3.86204 0
M  V30 2719 H 267.309 -2.56119 2.70618 0
M  V30 2720 H 267.422 -1.81208 4.43509 0
M  V30 2721 H 265.786 -1.05222 2.31949 0
M  V30 2722 H 266.569 0.199419 3.4272 0
M  V30 2723 N 269.014 -1.53014 -0.377408 0
M  V30 2724 C 270.263 -1.67845 -1.11853 0
M  V30 2725 C 270.576 -0.430625 -1.90801 0
M  V30 2726 O 271.782 -0.459261 -2.67587 0
M  V30 2727 C 270.238 -2.96668 -2.03756 0
M  V30 2728 C 269.846 -4.28671 -1.30175 0
M  V30 2729 C 271.59 -3.20865 -2.77932 0
M  V30 2730 C 269.497 -5.48591 -2.20911 0
M  V30 2731 H 268.427 -0.625343 -0.421263 0
M  V30 2732 H 271.078 -1.79514 -0.380409 0
M  V30 2733 H 269.46 -2.78773 -2.8125 0
M  V30 2734 H 270.634 -4.57157 -0.578259 0
M  V30 2735 H 268.949 -4.10825 -0.679108 0
M  V30 2736 H 271.546 -4.07642 -3.46024 0
M  V30 2737 H 271.889 -2.36424 -3.4265 0
M  V30 2738 H 272.422 -3.39379 -2.07525 0
M  V30 2739 H 269.161 -6.35474 -1.6079 0
M  V30 2740 H 268.681 -5.244 -2.91144 0
M  V30 2741 H 270.36 -5.8292 -2.80736 0
M  V30 2742 N 270.492 0.636531 -1.44174 0
M  V30 2743 C 271.425 1.76139 -1.45087 0
M  V30 2744 C 272.403 1.59611 -0.310326 0
M  V30 2745 O 273.587 1.81568 -0.506477 0
M  V30 2746 C 270.714 3.13648 -1.27839 0
M  V30 2747 C 269.76 3.48838 -2.45386 0
M  V30 2748 S 270.593 3.46927 -4.07924 0
M  V30 2749 C 271.749 4.87064 -3.9309 0
M  V30 2750 H 271.982 1.75096 -2.40268 0
M  V30 2751 H 269.515 0.810666 -1.31406 0
M  V30 2752 H 271.473 3.93002 -1.18575 0
M  V30 2753 H 270.134 3.12235 -0.341787 0
M  V30 2754 H 269.327 4.48886 -2.29167 0
M  V30 2755 H 268.929 2.76935 -2.51362 0
M  V30 2756 H 271.221 5.76153 -3.56446 0
M  V30 2757 H 272.164 5.08337 -4.92949 0
M  V30 2758 H 272.572 4.61384 -3.25246 0
M  V30 2759 N 271.97 1.30982 0.876444 0
M  V30 2760 C 273.216 1.20474 1.63138 0
M  V30 2761 C 273.549 -0.238096 1.92735 0
M  V30 2762 O 272.824 -1.1692 1.55435 0
M  V30 2763 C 273.107 2.04244 2.96574 0
M  V30 2764 C 272.96 3.56793 2.73896 0
M  V30 2765 C 274.279 1.88684 3.97601 0
M  V30 2766 H 271.398 0.439001 0.591985 0
M  V30 2767 H 274.04 1.60704 1.01361 0
M  V30 2768 H 272.19 1.70063 3.493 0
M  V30 2769 H 273.862 4.01077 2.27892 0
M  V30 2770 H 272.105 3.80548 2.08245 0
M  V30 2771 H 272.776 4.10706 3.68815 0
M  V30 2772 H 275.252 2.18584 3.54062 0
M  V30 2773 H 274.128 2.4961 4.88862 0
M  V30 2774 H 274.389 0.848343 4.33884 0
M  V30 2775 N 273.449 -1.08991 1.13837 0
M  V30 2776 C 274.382 -2.15049 0.763477 0
M  V30 2777 C 275.36 -1.60629 -0.252398 0
M  V30 2778 O 276.544 -1.87958 -0.142853 0
M  V30 2779 C 273.671 -3.38441 0.132545 0
M  V30 2780 C 272.717 -4.11596 1.11763 0
M  V30 2781 S 273.55 -4.6521 2.65216 0
M  V30 2782 C 274.706 -5.91896 2.03495 0
M  V30 2783 H 274.939 -2.46518 1.66182 0
M  V30 2784 H 272.472 -1.21008 0.958976 0
M  V30 2785 H 274.43 -4.09883 -0.225074 0
M  V30 2786 H 273.091 -3.05182 -0.743135 0
M  V30 2787 H 272.284 -5.00121 0.624076 0
M  V30 2788 H 271.886 -3.46038 1.41894 0
M  V30 2789 H 274.178 -6.63156 1.38675 0
M  V30 2790 H 275.121 -6.45938 2.9012 0
M  V30 2791 H 275.529 -5.44625 1.48471 0
M  V30 2792 N 274.927 -0.932562 -1.27047 0
M  V30 2793 C 275.89 -0.440064 -2.24936 0
M  V30 2794 C 276.89 0.444071 -1.54547 0
M  V30 2795 O 278.08 0.244465 -1.72476 0
M  V30 2796 C 275.212 0.36678 -3.38921 0
M  V30 2797 H 276.405 -1.305 -2.70018 0
M  V30 2798 H 273.958 -0.713707 -1.39054 0
M  V30 2799 H 274.693 1.25033 -2.99228 0
M  V30 2800 H 274.478 -0.267204 -3.91188 0
M  V30 2801 H 275.968 0.701567 -4.11665 0
M  V30 2802 N 276.405 1.4127 -0.698611 0
M  V30 2803 C 277.651 2.01478 -0.231207 0
M  V30 2804 C 277.984 1.55215 1.16713 0
M  V30 2805 O 277.259 0.764672 1.78838 0
M  V30 2806 C 277.542 3.58912 -0.292281 0
M  V30 2807 C 277.395 4.15293 -1.72778 0
M  V30 2808 C 278.714 4.38736 0.346194 0
M  V30 2809 H 275.833 0.732025 -0.0854878 0
M  V30 2810 H 278.475 1.67977 -0.887906 0
M  V30 2811 H 276.625 3.87582 0.26686 0
M  V30 2812 H 278.297 3.97486 -2.341 0
M  V30 2813 H 276.54 3.7022 -2.26096 0
M  V30 2814 H 277.211 5.24452 -1.72202 0
M  V30 2815 H 279.687 4.15897 -0.130035 0
M  V30 2816 H 278.563 5.48221 0.272932 0
M  V30 2817 H 278.824 4.18425 1.42734 0
M  V30 2818 N 277.883 0.443576 1.51229 0
M  V30 2819 C 279.111 -0.11929 2.06556 0
M  V30 2820 C 279.526 -1.35921 1.31038 0
M  V30 2821 O 278.883 -1.78675 0.371704 0
M  V30 2822 C 278.934 -0.435228 3.5887 0
M  V30 2823 O 278.655 0.755486 4.31537 0
M  V30 2824 C 280.156 -1.04808 4.30732 0
M  V30 2825 H 277.376 -0.0051584 0.67098 0
M  V30 2826 H 279.92 0.624453 1.94733 0
M  V30 2827 H 278.075 -1.12887 3.70588 0
M  V30 2828 H 278.489 0.483491 5.22267 0
M  V30 2829 H 279.963 -1.2191 5.3837 0
M  V30 2830 H 280.44 -2.03081 3.89429 0
M  V30 2831 H 281.046 -0.393637 4.23474 0
M  V30 2832 N 279.361 -1.56624 0.175154 0
M  V30 2833 C 280.777 -1.58571 -0.180966 0
M  V30 2834 C 280.977 -1.19065 -1.6256 0
M  V30 2835 O 280.033 -0.904044 -2.35761 0
M  V30 2836 C 281.346 -3.00522 0.103326 0
M  V30 2837 C 282.894 -3.12972 0.0418426 0
M  V30 2838 C 283.369 -4.57022 0.299175 0
M  V30 2839 N 284.86 -4.62541 0.247086 0
M  V30 2840 C 285.595 -5.71857 0.420318 0
M  V30 2841 N 285.091 -6.89717 0.652816 0
M  V30 2842 N 286.884 -5.60972 0.355957 0
M  V30 2843 H 279.035 -1.80589 1.11809 0
M  V30 2844 H 281.298 -0.837178 0.444788 0
M  V30 2845 H 281.004 -3.33916 1.10422 0
M  V30 2846 H 280.878 -3.72344 -0.603299 0
M  V30 2847 H 283.265 -2.79403 -0.949636 0
M  V30 2848 H 283.346 -2.43578 0.781238 0
M  V30 2849 H 282.99 -4.913 1.28788 0
M  V30 2850 H 282.92 -5.24579 -0.460876 0
M  V30 2851 H 285.411 -3.77829 0.0731895 0
M  V30 2852 H 285.724 -7.68911 0.774347 0
M  V30 2853 H 284.069 -6.91572 0.689476 0
M  V30 2854 H 287.26 -4.67773 0.174882 0
M  V30 2855 H 287.433 -6.46111 0.494388 0
M  V30 2856 N 280.839 0.0985539 -1.57292 0
M  V30 2857 C 282.25 0.653457 -1.74891 0
M  V30 2858 C 282.601 1.7929 -0.796838 0
M  V30 2859 O 281.726 2.16385 0.0254886 0
M  V30 2860 C 282.321 1.19216 -3.17133 0
M  V30 2861 C 280.88 1.69316 -3.36168 0
M  V30 2862 C 280.027 0.601294 -2.70702 0
M  V30 2863 H 282.978 -0.127497 -1.58187 0
M  V30 2864 H 282.999 2.06154 -3.19814 0
M  V30 2865 H 282.511 0.362635 -3.86402 0
M  V30 2866 H 280.612 2.5468 -2.71972 0
M  V30 2867 H 280.725 1.78853 -4.44464 0
M  V30 2868 H 279.089 1.0399 -2.32504 0
M  V30 2869 H 279.872 -0.217592 -3.4261 0
M  V30 2870 N 282.317 1.53212 0.369288 0
M  V30 2871 C 283.733 1.42902 0.710712 0
M  V30 2872 C 283.933 0.565135 1.93413 0
M  V30 2873 O 282.989 0.0461484 2.52458 0
M  V30 2874 C 284.302 2.86042 0.927382 0
M  V30 2875 C 285.85 2.9565 1.02762 0
M  V30 2876 C 286.325 4.39843 1.27679 0
M  V30 2877 N 287.816 4.43256 1.34457 0
M  V30 2878 C 288.551 5.51929 1.55439 0
M  V30 2879 N 288.047 6.70655 1.73762 0
M  V30 2880 N 289.84 5.39502 1.57779 0
M  V30 2881 H 281.991 2.07888 -0.435457 0
M  V30 2882 H 284.254 0.938661 -0.132739 0
M  V30 2883 H 283.96 3.51557 0.100287 0
M  V30 2884 H 283.834 3.29472 1.83653 0
M  V30 2885 H 286.221 2.30291 1.84527 0
M  V30 2886 H 286.302 2.5562 0.0959504 0
M  V30 2887 H 285.946 5.05774 0.464175 0
M  V30 2888 H 285.876 4.77443 2.22162 0
M  V30 2889 H 288.367 3.5769 1.21926 0
M  V30 2890 H 288.68 7.49248 1.89335 0
M  V30 2891 H 287.025 6.73648 1.70948 0
M  V30 2892 H 290.216 4.45713 1.43029 0
M  V30 2893 H 290.389 6.2426 1.7379 0
M  V30 2894 N 283.795 -0.628877 1.44509 0
M  V30 2895 C 285.072 -1.38733 1.37886 0
M  V30 2896 C 285.452 -2.11065 0.0387008 0
M  V30 2897 O 284.8 -2.06476 -0.97878 0
M  V30 2898 C 285.01 -2.35188 2.57852 0
M  V30 2899 C 286.358 -2.9845 3.02014 0
M  V30 2900 O 287.382 -2.45513 2.58073 0
M  V30 2901 O 286.241 -3.94487 3.78209 0
M  V30 2902 H 283.335 -0.621015 0.54614 0
M  V30 2903 H 285.881 -0.653744 1.56602 0
M  V30 2904 H 284.653 -1.80855 3.46998 0
M  V30 2905 H 284.276 -3.1596 2.4136 0
M  V30 2906 N 285.273 -1.31445 -0.869486 0
M  V30 2907 C 286.521 -1.20918 -1.61936 0
M  V30 2908 C 286.842 0.232683 -1.93607 0
M  V30 2909 O 286.112 1.15352 -1.58338 0
M  V30 2910 H 284.692 -0.44454 -0.600328 0
M  V30 2911 H 287.354 -1.64776 -1.0409 0
M  V30 2912 H 286.45 -1.78124 -2.56278 0
M  V30 2913 N 286.751 1.08385 -1.14413 0
M  V30 2914 C 287.714 2.13486 -0.834048 0
M  V30 2915 C 288.714 1.59988 0.161418 0
M  V30 2916 O 289.904 1.74071 -0.0669575 0
M  V30 2917 C 287.036 3.4003 -0.243354 0
M  V30 2918 H 288.229 2.42425 -1.7655 0
M  V30 2919 H 285.782 1.24101 -0.950189 0
M  V30 2920 H 286.517 3.16726 0.696807 0
M  V30 2921 H 286.302 3.80157 -0.960367 0
M  V30 2922 H 287.792 4.17577 -0.0436242 0
M  V30 2923 N 288.23 0.939286 1.26551 0
M  V30 2924 C 289.476 0.586715 1.94128 0
M  V30 2925 C 289.809 -0.8717 1.73537 0
M  V30 2926 O 289.084 -1.62339 1.07127 0
M  V30 2927 C 289.367 0.927497 3.4795 0
M  V30 2928 C 289.22 2.44052 3.77834 0
M  V30 2929 C 290.539 0.441569 4.37879 0
M  V30 2930 H 287.658 0.21463 0.705055 0
M  V30 2931 H 290.3 1.17316 1.49455 0
M  V30 2932 H 288.45 0.428431 3.8613 0
M  V30 2933 H 290.122 3.01216 3.4938 0
M  V30 2934 H 288.365 2.8848 3.23978 0
M  V30 2935 H 289.036 2.62947 4.85348 0
M  V30 2936 H 291.512 0.869448 4.06915 0
M  V30 2937 H 290.388 0.708856 5.44304 0
M  V30 2938 H 290.649 -0.658467 4.37169 0
M  V30 2939 N 289.708 -1.40897 0.706093 0
M  V30 2940 C 290.954 -2.01352 0.241889 0
M  V30 2941 C 291.287 -1.55832 -1.15888 0
M  V30 2942 O 290.562 -0.774145 -1.7843 0
M  V30 2943 C 290.845 -3.58752 0.311311 0
M  V30 2944 C 290.698 -4.1437 1.74978 0
M  V30 2945 C 292.017 -4.38914 -0.322922 0
M  V30 2946 H 289.136 -0.731562 0.0893687 0
M  V30 2947 H 291.778 -1.67504 0.896802 0
M  V30 2948 H 289.928 -3.87718 -0.246302 0
M  V30 2949 H 291.6 -3.96239 2.36205 0
M  V30 2950 H 289.843 -3.69016 2.28057 0
M  V30 2951 H 290.514 -5.23532 1.74981 0
M  V30 2952 H 292.99 -4.15822 0.152089 0
M  V30 2953 H 291.866 -5.48358 -0.243855 0
M  V30 2954 H 292.127 -4.19176 -1.40513 0
M  V30 2955 N 291.186 -0.45159 -1.50991 0
M  V30 2956 C 292.426 0.109066 -2.04109 0
M  V30 2957 C 292.79 1.38716 -1.32747 0
M  V30 2958 O 293.991 2.02896 -1.76314 0
M  V30 2959 C 292.262 0.308354 -3.56067 0
M  V30 2960 S 293.821 0.830369 -4.30872 0
M  V30 2961 H 290.639 0.0251531 -0.710555 0
M  V30 2962 H 293.241 -0.614264 -1.85599 0
M  V30 2963 H 291.945 -0.627962 -4.05567 0
M  V30 2964 H 291.476 1.05836 -3.78896 0
M  V30 2965 H 293.491 2.10626 -4.49279 0
M  V30 2966 N 292.664 1.56529 -0.183458 0
M  V30 2967 C 293.597 2.14417 0.781052 0
M  V30 2968 C 294.575 1.07761 1.21763 0
M  V30 2969 O 295.759 1.35807 1.30724 0
M  V30 2970 C 292.886 2.69361 2.05335 0
M  V30 2971 C 291.932 3.885 1.75982 0
M  V30 2972 S 292.765 5.27568 0.918256 0
M  V30 2973 C 293.921 5.85926 2.20095 0
M  V30 2974 H 294.154 2.95893 0.2889 0
M  V30 2975 H 291.687 1.54368 0.0313844 0
M  V30 2976 H 293.645 3.01662 2.78406 0
M  V30 2977 H 292.306 1.87949 2.51663 0
M  V30 2978 H 291.499 4.25314 2.70415 0
M  V30 2979 H 291.101 3.57149 1.10999 0
M  V30 2980 H 293.393 5.99579 3.15453 0
M  V30 2981 H 294.336 6.82761 1.87731 0
M  V30 2982 H 294.744 5.14438 2.32409 0
M  V30 2983 N 294.142 -0.090211 1.57342 0
M  V30 2984 C 295.072 -1.10976 2.05443 0
M  V30 2985 C 296.053 -1.41482 0.944284 0
M  V30 2986 O 297.238 -1.51428 1.21586 0
M  V30 2987 C 294.368 -2.42831 2.48295 0
M  V30 2988 C 293.322 -2.26721 3.63018 0
M  V30 2989 C 292.648 -3.63796 3.91863 0
M  V30 2990 C 293.948 -1.7037 4.93732 0
M  V30 2991 H 295.642 -0.709564 2.9087 0
M  V30 2992 H 293.188 -0.339874 1.39932 0
M  V30 2993 H 295.141 -3.14431 2.80555 0
M  V30 2994 H 293.865 -2.84795 1.59873 0
M  V30 2995 H 292.524 -1.57565 3.31012 0
M  V30 2996 H 292.172 -4.03297 3.00601 0
M  V30 2997 H 291.872 -3.53861 4.69101 0
M  V30 2998 H 293.396 -4.36855 4.26603 0
M  V30 2999 H 294.81 -2.31816 5.24342 0
M  V30 3000 H 293.207 -1.71181 5.75167 0
M  V30 3001 H 294.277 -0.663542 4.80339 0
M  V30 3002 N 295.62 -1.53406 -0.361157 0
M  V30 3003 C 296.552 -1.76446 -1.46286 0
M  V30 3004 C 297.565 -0.645322 -1.49464 0
M  V30 3005 O 298.754 -0.921681 -1.52864 0
M  V30 3006 C 295.854 -1.83332 -2.85031 0
M  V30 3007 C 295.027 -3.13033 -3.05498 0
M  V30 3008 C 294.086 -3.11104 -4.24383 0
M  V30 3009 O 293.112 -3.84888 -4.19344 0
M  V30 3010 N 294.314 -2.32234 -5.32022 0
M  V30 3011 H 297.079 -2.71508 -1.26899 0
M  V30 3012 H 294.64 -1.52238 -0.550915 0
M  V30 3013 H 296.632 -1.79514 -3.62708 0
M  V30 3014 H 295.202 -0.955342 -2.97644 0
M  V30 3015 H 294.422 -3.30119 -2.15442 0
M  V30 3016 H 295.71 -3.9874 -3.16044 0
M  V30 3017 H 295.108 -1.71807 -5.38979 0
M  V30 3018 H 293.665 -2.3423 -6.08259 0
M  V30 3019 N 297.098 0.621204 -1.44841 0
M  V30 3020 C 298.345 1.38055 -1.48145 0
M  V30 3021 C 298.673 1.94143 -0.117867 0
M  V30 3022 O 297.928 1.74713 0.881694 0
M  V30 3023 C 298.227 2.55675 -2.4973 0
M  V30 3024 C 297.893 2.17817 -3.94799 0
M  V30 3025 C 296.555 2.07205 -4.34303 0
M  V30 3026 C 298.907 1.88065 -4.86087 0
M  V30 3027 C 296.235 1.65045 -5.63007 0
M  V30 3028 C 298.587 1.47394 -6.15189 0
M  V30 3029 C 297.251 1.35331 -6.53637 0
M  V30 3030 H 296.521 0.505181 -0.542101 0
M  V30 3031 H 299.168 0.703477 -1.78111 0
M  V30 3032 H 297.473 3.2866 -2.13284 0
M  V30 3033 H 299.17 3.13904 -2.4953 0
M  V30 3034 H 295.76 2.26998 -3.63552 0
M  V30 3035 H 299.944 1.95168 -4.56315 0
M  V30 3036 H 295.2 1.54317 -5.91605 0
M  V30 3037 H 299.374 1.23415 -6.85377 0
M  V30 3038 H 297.001 1.02435 -7.53267 0
M  V30 3039 N 298.576 1.31904 0.862503 0
M  V30 3040 C 299.987 1.19803 1.43193 0
M  V30 3041 C 300.338 -0.192567 1.95253 0
M  V30 3042 O 299.463 -1.09081 1.86896 0
M  V30 3043 C 300.058 2.16883 2.60283 0
M  V30 3044 C 298.617 2.08692 3.13248 0
M  V30 3045 C 297.764 2.05691 1.85975 0
M  V30 3046 H 300.715 1.43846 0.670365 0
M  V30 3047 H 300.736 1.76278 3.37204 0
M  V30 3048 H 300.248 3.18083 2.22363 0
M  V30 3049 H 298.349 1.10713 3.55771 0
M  V30 3050 H 298.462 2.9815 3.75025 0
M  V30 3051 H 296.826 1.50814 2.05249 0
M  V30 3052 H 297.609 3.08659 1.50282 0
M  V30 3053 N 300.054 -1.07777 1.14986 0
M  V30 3054 C 301.279 -1.84558 0.946213 0
M  V30 3055 C 301.704 -1.81323 -0.500362 0
M  V30 3056 O 301.062 -1.20301 -1.35637 0
M  V30 3057 C 301.11 -3.29736 1.45968 0
M  V30 3058 O 300.214 -4.07149 0.65601 0
M  V30 3059 H 299.555 -0.571641 0.33782 0
M  V30 3060 H 302.085 -1.35991 1.52865 0
M  V30 3061 H 302.095 -3.80574 1.47063 0
M  V30 3062 H 300.77 -3.31406 2.51283 0
M  V30 3063 H 299.347 -3.65994 0.714322 0
M  V30 3064 N 301.532 -0.945985 -1.26051 0
M  V30 3065 C 302.943 -0.638096 -1.75457 0
M  V30 3066 C 303.294 0.846672 -1.76991 0
M  V30 3067 O 302.419 1.66262 -1.38513 0
M  V30 3068 C 303.014 -1.15157 -3.18629 0
M  V30 3069 C 301.573 -0.894004 -3.65629 0
M  V30 3070 C 300.72 -1.29967 -2.44957 0
M  V30 3071 H 303.671 -1.12376 -1.1206 0
M  V30 3072 H 303.692 -0.507615 -3.77099 0
M  V30 3073 H 303.204 -2.23222 -3.1748 0
M  V30 3074 H 301.305 0.172057 -3.72203 0
M  V30 3075 H 301.418 -1.52439 -4.54202 0
M  V30 3076 H 299.782 -0.718078 -2.44368 0
M  V30 3077 H 300.565 -2.38935 -2.46505 0
M  V30 3078 N 303.011 1.40521 -0.713556 0
M  V30 3079 C 304.236 2.05759 -0.26035 0
M  V30 3080 C 304.661 1.53403 1.08854 0
M  V30 3081 O 304.019 0.668535 1.68524 0
M  V30 3082 C 304.067 3.59745 -0.248122 0
M  V30 3083 O 303.171 4.05123 0.77131 0
M  V30 3084 H 302.512 0.652564 -0.122703 0
M  V30 3085 H 305.042 1.79958 -0.973467 0
M  V30 3086 H 305.052 4.07911 -0.0851129 0
M  V30 3087 H 303.727 3.97218 -1.2325 0
M  V30 3088 H 302.304 3.68422 0.57619 0
M  V30 3089 N 304.489 0.459591 1.5075 0
M  V30 3090 C 305.735 -0.091664 2.03193 0
M  V30 3091 C 306.09 -1.38432 1.3362 0
M  V30 3092 O 305.383 -1.86257 0.449322 0
M  V30 3093 C 305.577 -0.342866 3.55752 0
M  V30 3094 C 305.406 0.923888 4.40107 0
M  V30 3095 C 304.176 1.46388 4.83631 0
M  V30 3096 C 306.374 1.81617 4.81165 0
M  V30 3097 N 304.356 2.68086 5.52271 0
M  V30 3098 C 305.727 2.87907 5.49099 0
M  V30 3099 C 307.782 1.82793 4.63132 0
M  V30 3100 C 306.485 3.95347 6.0091 0
M  V30 3101 C 308.511 2.89182 5.15876 0
M  V30 3102 C 307.873 3.94191 5.83774 0
M  V30 3103 H 303.972 0.00619247 0.781975 0
M  V30 3104 H 306.556 0.625233 1.84388 0
M  V30 3105 H 304.727 -1.0288 3.74527 0
M  V30 3106 H 306.459 -0.887445 3.9485 0
M  V30 3107 H 303.214 1.01466 4.62603 0
M  V30 3108 H 303.638 3.29857 5.91205 0
M  V30 3109 H 308.28 1.0293 4.1008 0
M  V30 3110 H 305.998 4.76035 6.53006 0
M  V30 3111 H 309.584 2.91061 5.0376 0
M  V30 3112 H 308.464 4.75161 6.23853 0
M  V30 3113 N 305.967 -1.56429 0.191757 0
M  V30 3114 C 307.197 -2.01574 -0.452928 0
M  V30 3115 C 307.605 -1.07107 -1.55964 0
M  V30 3116 O 306.948 -0.067534 -1.83576 0
M  V30 3117 C 307.01 -3.43121 -1.07278 0
M  V30 3118 C 306.674 -4.56879 -0.105214 0
M  V30 3119 C 307.671 -5.15379 0.684149 0
M  V30 3120 C 305.356 -5.023 0.00489824 0
M  V30 3121 C 307.35 -6.17746 1.57062 0
M  V30 3122 C 305.037 -6.04511 0.894935 0
M  V30 3123 C 306.035 -6.62108 1.67637 0
M  V30 3124 O 305.723 -7.62335 2.55149 0
M  V30 3125 H 305.455 -0.665554 -0.118379 0
M  V30 3126 H 308.009 -2.03245 0.296737 0
M  V30 3127 H 306.239 -3.38425 -1.87097 0
M  V30 3128 H 307.928 -3.72093 -1.62177 0
M  V30 3129 H 308.694 -4.81157 0.609365 0
M  V30 3130 H 304.573 -4.57168 -0.593156 0
M  V30 3131 H 308.117 -6.6263 2.181 0
M  V30 3132 H 304.014 -6.38157 0.970847 0
M  V30 3133 H 304.782 -7.79741 2.48892 0
M  V30 3134 N 307.445 0.0818655 -1.57387 0
M  V30 3135 C 308.691 0.778884 -1.87896 0
M  V30 3136 C 309.046 1.75692 -0.784229 0
M  V30 3137 O 308.339 1.90417 0.212567 0
M  V30 3138 C 308.533 1.53513 -3.22752 0
M  V30 3139 C 308.362 0.631838 -4.45239 0
M  V30 3140 C 307.132 0.272571 -5.04564 0
M  V30 3141 C 309.33 -0.0670191 -5.14256 0
M  V30 3142 N 307.312 -0.637498 -6.10581 0
M  V30 3143 C 308.683 -0.834653 -6.14356 0
M  V30 3144 C 310.738 -0.139551 -4.97704 0
M  V30 3145 C 309.441 -1.66806 -6.99691 0
M  V30 3146 C 311.467 -0.959903 -5.83558 0
M  V30 3147 C 310.829 -1.71561 -6.83188 0
M  V30 3148 H 306.928 0.260764 -0.737242 0
M  V30 3149 H 309.512 0.0408227 -1.94657 0
M  V30 3150 H 307.683 2.24398 -3.17018 0
M  V30 3151 H 309.415 2.18038 -3.40942 0
M  V30 3152 H 306.17 0.62319 -4.69482 0
M  V30 3153 H 306.594 -1.08548 -6.68241 0
M  V30 3154 H 311.236 0.430376 -4.20604 0
M  V30 3155 H 308.954 -2.249 -7.76174 0
M  V30 3156 H 312.54 -1.01887 -5.72809 0
M  V30 3157 H 311.42 -2.34017 -7.48469 0
M  V30 3158 N 308.923 1.53595 0.353017 0
M  V30 3159 C 310.2 1.61002 1.11075 0
M  V30 3160 C 310.58 0.425356 2.0677 0
M  V30 3161 O 309.928 -0.583267 2.2093 0
M  V30 3162 C 310.138 2.96631 1.83877 0
M  V30 3163 C 311.486 3.51653 2.37961 0
M  V30 3164 O 312.51 2.98743 1.93987 0
M  V30 3165 O 311.369 4.44177 3.18386 0
M  V30 3166 H 308.463 0.650825 0.510251 0
M  V30 3167 H 311.009 1.6594 0.35527 0
M  V30 3168 H 309.781 3.74293 1.14108 0
M  V30 3169 H 309.404 2.95242 2.66304 0
M  V30 3170 N 310.401 -0.613514 1.45168 0
M  V30 3171 C 311.629 -1.39946 1.5239 0
M  V30 3172 C 312.044 -1.88167 0.154531 0
M  V30 3173 O 311.401 -1.61872 -0.842843 0
M  V30 3174 C 311.452 -2.60795 2.50337 0
M  V30 3175 O 311.173 -2.1458 3.81952 0
M  V30 3176 C 312.674 -3.53723 2.67198 0
M  V30 3177 H 309.894 -0.428593 0.516284 0
M  V30 3178 H 312.438 -0.748753 1.903 0
M  V30 3179 H 310.593 -3.21919 2.15515 0
M  V30 3180 H 311.007 -2.93055 4.34993 0
M  V30 3181 H 312.481 -4.35079 3.39721 0
M  V30 3182 H 312.958 -4.0368 1.73029 0
M  V30 3183 H 313.564 -2.98456 3.02992 0
M  V30 3184 N 311.879 -1.3236 -0.855495 0
M  V30 3185 C 313.125 -1.23054 -1.612 0
M  V30 3186 C 313.458 0.207404 -1.93089 0
M  V30 3187 O 312.733 1.14432 -1.57275 0
M  V30 3188 C 313.016 -2.08937 -2.93287 0
M  V30 3189 C 312.869 -3.61105 -2.68185 0
M  V30 3190 C 314.188 -1.94986 -3.94549 0
M  V30 3191 H 311.307 -0.448364 -0.584926 0
M  V30 3192 H 313.949 -1.62297 -0.987917 0
M  V30 3193 H 312.099 -1.75599 -3.46551 0
M  V30 3194 H 313.771 -4.04652 -2.21483 0
M  V30 3195 H 312.014 -3.83813 -2.02164 0
M  V30 3196 H 312.685 -4.16522 -3.62234 0
M  V30 3197 H 315.161 -2.24189 -3.5054 0
M  V30 3198 H 314.037 -2.57356 -4.84829 0
M  V30 3199 H 314.298 -0.917263 -4.3248 0
M  V30 3200 N 313.357 1.07166 -1.15556 0
M  V30 3201 C 314.585 1.83514 -0.955519 0
M  V30 3202 C 315 1.82163 0.49621 0
M  V30 3203 O 314.357 1.23441 1.34419 0
M  V30 3204 C 314.408 3.30515 -1.46432 0
M  V30 3205 O 314.129 3.31937 -2.85918 0
M  V30 3206 C 315.63 4.23625 -1.30603 0
M  V30 3207 H 312.85 0.578926 -0.339244 0
M  V30 3208 H 315.394 1.35265 -1.53374 0
M  V30 3209 H 313.549 3.76106 -0.928584 0
M  V30 3210 H 313.963 4.23794 -3.09029 0
M  V30 3211 H 315.437 5.24831 -1.71047 0
M  V30 3212 H 315.914 4.38485 -0.250441 0
M  V30 3213 H 316.52 3.83871 -1.83094 0
M  V30 3214 N 314.835 0.952656 1.25548 0
M  V30 3215 C 315.782 0.47008 2.25962 0
M  V30 3216 C 316.752 -0.476384 1.59122 0
M  V30 3217 O 317.937 -0.39007 1.8677 0
M  V30 3218 C 315.077 -0.247881 3.44209 0
M  V30 3219 C 314.19 0.735591 4.25691 0
M  V30 3220 C 313.325 -0.0047306 5.312 0
M  V30 3221 C 312.364 0.969805 6.04368 0
M  V30 3222 N 311.501 0.260486 7.01617 0
M  V30 3223 H 316.341 1.33126 2.66611 0
M  V30 3224 H 313.878 0.66765 1.31076 0
M  V30 3225 H 315.836 -0.680695 4.1161 0
M  V30 3226 H 314.466 -1.07312 3.0444 0
M  V30 3227 H 313.518 1.28689 3.57971 0
M  V30 3228 H 314.83 1.47934 4.76358 0
M  V30 3229 H 313.984 -0.496275 6.04667 0
M  V30 3230 H 312.723 -0.781282 4.81401 0
M  V30 3231 H 311.728 1.47237 5.29718 0
M  V30 3232 H 312.953 1.74655 6.56256 0
M  V30 3233 H 310.899 -0.497364 6.54112 0
M  V30 3234 H 310.816 0.943362 7.50091 0
M  V30 3235 H 312.084 -0.209587 7.79218 0
M  V30 3236 N 316.313 -1.40141 0.720998 0
M  V30 3237 C 317.562 -2.0002 0.259804 0
M  V30 3238 C 317.875 -1.57839 -1.15526 0
M  V30 3239 O 319.081 -2.10455 -1.71525 0
M  V30 3240 C 317.537 -3.57516 0.413566 0
M  V30 3241 C 317.145 -4.08667 1.83562 0
M  V30 3242 C 318.889 -4.24498 0.0134387 0
M  V30 3243 C 316.796 -5.58686 1.93968 0
M  V30 3244 H 315.726 -0.748195 0.0933806 0
M  V30 3245 H 318.377 -1.60313 0.892866 0
M  V30 3246 H 316.759 -3.9495 -0.288169 0
M  V30 3247 H 317.933 -3.82598 2.56817 0
M  V30 3248 H 316.248 -3.543 2.1877 0
M  V30 3249 H 318.845 -5.34654 0.0703954 0
M  V30 3250 H 319.188 -4.03375 -1.02927 0
M  V30 3251 H 319.721 -3.92188 0.665815 0
M  V30 3252 H 316.46 -5.8467 2.96379 0
M  V30 3253 H 315.98 -5.86602 1.25131 0
M  V30 3254 H 317.659 -6.23875 1.71431 0
M  V30 3255 N 317.792 -0.46758 -1.50504 0
M  V30 3256 C 319.032 0.0874114 -2.04213 0
M  V30 3257 C 319.396 1.37301 -1.34211 0
M  V30 3258 O 320.597 2.01015 -1.78456 0
M  V30 3259 C 318.868 0.270571 -3.56374 0
M  V30 3260 S 320.427 0.784623 -4.31728 0
M  V30 3261 H 317.245 0.0176153 -0.710782 0
M  V30 3262 H 319.847 -0.633915 -1.84937 0
M  V30 3263 H 318.551 -0.670942 -4.04878 0
M  V30 3264 H 318.082 1.01811 -3.79997 0
M  V30 3265 H 320.097 2.05849 -4.51487 0
M  V30 3266 N 319.27 1.56325 -0.20005 0
M  V30 3267 C 320.516 1.98012 0.438059 0
M  V30 3268 C 320.849 1.08702 1.60927 0
M  V30 3269 O 320.124 0.140064 1.93995 0
M  V30 3270 C 320.407 3.48841 0.893419 0
M  V30 3271 C 320.26 4.48928 -0.279947 0
M  V30 3272 C 321.579 4.03498 1.75719 0
M  V30 3273 H 318.698 0.719918 0.157757 0
M  V30 3274 H 321.34 1.87743 -0.291968 0
M  V30 3275 H 319.49 3.57723 1.51547 0
M  V30 3276 H 321.162 4.52079 -0.91772 0
M  V30 3277 H 319.405 4.23694 -0.930919 0
M  V30 3278 H 320.076 5.5194 0.0812601 0
M  V30 3279 H 322.552 3.97427 1.23253 0
M  V30 3280 H 321.428 5.09393 2.04476 0
M  V30 3281 H 321.689 3.4906 2.71311 0
M  V30 3282 N 320.748 -0.0735177 1.57428 0
M  V30 3283 C 321.995 -0.772999 1.87166 0
M  V30 3284 C 322.323 -1.77665 0.791551 0
M  V30 3285 O 321.578 -1.94541 -0.212636 0
M  V30 3286 C 321.877 -1.51799 3.23561 0
M  V30 3287 C 321.543 -0.654484 4.46125 0
M  V30 3288 C 320.205 -0.416511 4.79394 0
M  V30 3289 C 322.557 -0.0555862 5.2117 0
M  V30 3290 C 319.885 0.429869 5.85123 0
M  V30 3291 C 322.237 0.778239 6.27795 0
M  V30 3292 C 320.901 1.0261 6.59566 0
M  V30 3293 H 320.171 -0.282861 0.684888 0
M  V30 3294 H 322.818 -0.0338272 1.9147 0
M  V30 3295 H 321.123 -2.32932 3.1504 0
M  V30 3296 H 322.82 -2.06397 3.43804 0
M  V30 3297 H 319.41 -0.850091 4.20085 0
M  V30 3298 H 323.594 -0.226558 4.95783 0
M  V30 3299 H 318.85 0.630665 6.08139 0
M  V30 3300 H 323.024 1.24906 6.85107 0
M  V30 3301 H 320.651 1.68371 7.4132 0
M  V30 3302 N 322.226 -1.5378 -0.344866 0
M  V30 3303 C 323.156 -1.84662 -1.42906 0
M  V30 3304 C 324.137 -0.701648 -1.54955 0
M  V30 3305 O 325.322 -0.953438 -1.69184 0
M  V30 3306 C 322.452 -2.05503 -2.79974 0
M  V30 3307 C 321.406 -3.21318 -2.82734 0
M  V30 3308 C 320.732 -3.2749 -4.22675 0
M  V30 3309 C 322.032 -4.59456 -2.48389 0
M  V30 3310 H 323.726 -2.75461 -1.17311 0
M  V30 3311 H 321.272 -1.32542 -0.562896 0
M  V30 3312 H 323.225 -2.25691 -3.55867 0
M  V30 3313 H 321.949 -1.11434 -3.07002 0
M  V30 3314 H 320.608 -3.00984 -2.09294 0
M  V30 3315 H 320.256 -2.31019 -4.4681 0
M  V30 3316 H 319.956 -4.05316 -4.25433 0
M  V30 3317 H 321.48 -3.49887 -5.00412 0
M  V30 3318 H 322.894 -4.79667 -3.13995 0
M  V30 3319 H 321.291 -5.39675 -2.62432 0
M  V30 3320 H 322.361 -4.63155 -1.4358 0
M  V30 3321 N 323.704 0.605807 -1.45491 0
M  V30 3322 C 324.951 1.36476 -1.49601 0
M  V30 3323 C 325.279 1.94007 -0.138452 0
M  V30 3324 O 324.534 1.75638 0.863114 0
M  V30 3325 C 324.833 2.53012 -2.52428 0
M  V30 3326 C 324.499 2.13617 -3.97087 0
M  V30 3327 C 323.161 2.02587 -4.36477 0
M  V30 3328 C 325.513 1.82899 -4.88055 0
M  V30 3329 C 322.841 1.59064 -5.64726 0
M  V30 3330 C 325.193 1.40861 -6.16718 0
M  V30 3331 C 323.857 1.28391 -6.55036 0
M  V30 3332 H 323.127 0.499402 -0.547429 0
M  V30 3333 H 325.774 0.684546 -1.78847 0
M  V30 3334 H 324.079 3.26379 -2.16758 0
M  V30 3335 H 325.776 3.1124 -2.52845 0
M  V30 3336 H 322.366 2.23129 -3.65939 0
M  V30 3337 H 326.55 1.90317 -4.58359 0
M  V30 3338 H 321.806 1.48034 -5.93208 0
M  V30 3339 H 325.98 1.16138 -6.86648 0
M  V30 3340 H 323.607 0.944403 -7.54311 0
M  V30 3341 N 325.182 1.32811 0.848464 0
M  V30 3342 C 326.145 1.22194 1.9391 0
M  V30 3343 C 327.145 0.143404 1.60159 0
M  V30 3344 O 328.335 0.394253 1.6968 0
M  V30 3345 C 325.467 0.88067 3.29328 0
M  V30 3346 H 326.66 2.19127 2.04752 0
M  V30 3347 H 324.213 1.16731 1.0394 0
M  V30 3348 H 324.948 -0.0865776 3.24184 0
M  V30 3349 H 324.733 1.66052 3.55203 0
M  V30 3350 H 326.223 0.830871 4.09251 0
M  V30 3351 N 326.66 -1.06551 1.16123 0
M  V30 3352 C 327.907 -1.79302 0.941126 0
M  V30 3353 C 328.235 -1.87105 -0.531235 0
M  V30 3354 O 327.49 -1.35692 -1.41018 0
M  V30 3355 C 327.789 -3.23911 1.51052 0
M  V30 3356 C 327.455 -3.36193 3.00475 0
M  V30 3357 C 326.117 -3.39252 3.41265 0
M  V30 3358 C 328.469 -3.38326 3.96465 0
M  V30 3359 C 325.797 -3.42057 4.76669 0
M  V30 3360 C 328.149 -3.4267 5.31752 0
M  V30 3361 C 326.813 -3.4401 5.72026 0
M  V30 3362 H 326.083 -0.656111 0.344382 0
M  V30 3363 H 328.73 -1.25325 1.44796 0
M  V30 3364 H 327.035 -3.80723 0.925063 0
M  V30 3365 H 328.732 -3.78793 1.31593 0
M  V30 3366 H 325.322 -3.34516 2.6795 0
M  V30 3367 H 329.506 -3.35176 3.6602 0
M  V30 3368 H 324.762 -3.41398 5.07206 0
M  V30 3369 H 328.936 -3.43268 6.05921 0
M  V30 3370 H 326.563 -3.45937 6.76928 0
M  V30 3371 N 328.138 -0.959301 -1.25041 0
M  V30 3372 C 329.384 -0.617525 -1.9317 0
M  V30 3373 C 329.717 0.843981 -1.74902 0
M  V30 3374 O 328.992 1.60615 -1.09696 0
M  V30 3375 C 329.275 -0.982736 -3.46431 0
M  V30 3376 C 329.128 -2.50032 -3.73904 0
M  V30 3377 C 330.447 -0.511176 -4.37121 0
M  V30 3378 H 327.566 -0.22582 -0.701552 0
M  V30 3379 H 330.208 -1.19679 -1.4757 0
M  V30 3380 H 328.358 -0.489806 -3.854 0
M  V30 3381 H 330.03 -3.06737 -3.44544 0
M  V30 3382 H 328.273 -2.93598 -3.19348 0
M  V30 3383 H 328.944 -2.70635 -4.81103 0
M  V30 3384 H 331.42 -0.934075 -4.0548 0
M  V30 3385 H 330.296 -0.795361 -5.43107 0
M  V30 3386 H 330.557 0.588834 -4.38161 0
M  V30 3387 N 329.616 1.39756 -0.72842 0
M  V30 3388 C 330.862 2.00942 -0.273892 0
M  V30 3389 C 331.195 1.57656 1.13394 0
M  V30 3390 O 330.47 0.802434 1.77176 0
M  V30 3391 C 330.753 3.58211 -0.368346 0
M  V30 3392 C 330.606 4.11534 -1.81548 0
M  V30 3393 C 331.925 4.39372 0.253054 0
M  V30 3394 H 329.044 0.730047 -0.100996 0
M  V30 3395 H 331.686 1.66056 -0.923337 0
M  V30 3396 H 329.836 3.88061 0.184588 0
M  V30 3397 H 331.508 3.92431 -2.42478 0
M  V30 3398 H 329.751 3.65341 -2.33898 0
M  V30 3399 H 330.422 5.20682 -1.83288 0
M  V30 3400 H 332.898 4.15527 -0.218224 0
M  V30 3401 H 331.774 5.48677 0.156585 0
M  V30 3402 H 332.035 4.21358 1.33826 0
M  V30 3403 N 331.094 0.475555 1.50254 0
M  V30 3404 C 332.505 0.0215174 1.86688 0
M  V30 3405 C 332.856 -1.38467 1.39001 0
M  V30 3406 O 331.981 -2.02732 0.756894 0
M  V30 3407 C 332.576 0.0322715 3.38785 0
M  V30 3408 C 331.135 -0.366314 3.74613 0
M  V30 3409 C 330.282 0.415832 2.74164 0
M  V30 3410 H 333.233 0.689612 1.42934 0
M  V30 3411 H 333.254 -0.76889 3.7265 0
M  V30 3412 H 332.766 1.05584 3.73462 0
M  V30 3413 H 330.867 -1.39406 3.45538 0
M  V30 3414 H 330.98 -0.064555 4.79057 0
M  V30 3415 H 329.344 -0.131048 2.54363 0
M  V30 3416 H 330.127 1.43899 3.11686 0
M  V30 3417 N 332.573 -1.56217 0.208337 0
M  V30 3418 C 333.822 -1.97124 -0.427204 0
M  V30 3419 C 334.135 -1.09859 -1.61835 0
M  V30 3420 O 335.341 -1.40606 -2.32255 0
M  V30 3421 C 333.797 -3.50633 -0.811442 0
M  V30 3422 C 333.405 -4.46582 0.35615 0
M  V30 3423 C 335.149 -4.00282 -1.41332 0
M  V30 3424 C 333.056 -5.91379 -0.0497852 0
M  V30 3425 H 331.986 -0.736086 -0.163381 0
M  V30 3426 H 334.637 -1.8099 0.302456 0
M  V30 3427 H 333.019 -3.62319 -1.59815 0
M  V30 3428 H 334.193 -4.46636 1.1337 0
M  V30 3429 H 332.508 -4.07202 0.870396 0
M  V30 3430 H 335.105 -5.0595 -1.72972 0
M  V30 3431 H 335.448 -3.45359 -2.32449 0
M  V30 3432 H 335.981 -3.91764 -0.690323 0
M  V30 3433 H 332.72 -6.50255 0.827529 0
M  V30 3434 H 332.24 -5.94549 -0.791926 0
M  V30 3435 H 333.919 -6.45209 -0.481042 0
M  V30 3436 N 334.051 0.0651679 -1.57465 0
M  V30 3437 C 334.981 1.07693 -2.07182 0
M  V30 3438 C 335.962 1.39962 -0.966673 0
M  V30 3439 O 337.147 1.49475 -1.2398 0
M  V30 3440 C 334.277 2.3885 -2.52127 0
M  V30 3441 C 333.231 2.20917 -3.66579 0
M  V30 3442 C 332.557 3.57515 -3.97601 0
M  V30 3443 C 333.857 1.62493 -4.9638 0
M  V30 3444 H 335.551 0.663199 -2.91962 0
M  V30 3445 H 333.097 0.317569 -1.40455 0
M  V30 3446 H 335.05 3.09928 -2.85522 0
M  V30 3447 H 333.774 2.82215 -1.64384 0
M  V30 3448 H 332.433 1.52279 -3.33477 0
M  V30 3449 H 332.081 3.98463 -3.06979 0
M  V30 3450 H 331.781 3.46353 -4.74672 0
M  V30 3451 H 333.305 4.30013 -4.33499 0
M  V30 3452 H 334.719 2.23445 -5.27963 0
M  V30 3453 H 333.116 1.62009 -5.77818 0
M  V30 3454 H 334.186 0.587041 -4.81333 0
M  V30 3455 N 335.529 1.53961 0.336706 0
M  V30 3456 C 336.778 1.70751 1.07363 0
M  V30 3457 C 337.091 0.481061 1.89592 0
M  V30 3458 O 338.297 0.530046 2.66276 0
M  V30 3459 C 336.753 3.01965 1.95818 0
M  V30 3460 C 336.361 4.31971 1.18764 0
M  V30 3461 C 338.105 3.28121 2.69327 0
M  V30 3462 C 336.012 5.54255 2.06289 0
M  V30 3463 H 334.942 0.636292 0.404535 0
M  V30 3464 H 337.593 1.80459 0.332681 0
M  V30 3465 H 335.975 2.86132 2.7376 0
M  V30 3466 H 337.149 4.5853 0.456849 0
M  V30 3467 H 335.464 4.12481 0.569946 0
M  V30 3468 H 338.061 4.16673 3.35094 0
M  V30 3469 H 338.404 2.45426 3.36261 0
M  V30 3470 H 338.937 3.44762 1.98454 0
M  V30 3471 H 335.676 6.39513 1.43885 0
M  V30 3472 H 335.196 5.31935 2.77138 0
M  V30 3473 H 336.875 5.90159 2.65182 0
M  V30 3474 N 337.007 -0.598083 1.45811 0
M  V30 3475 C 338.256 -1.35295 1.49594 0
M  V30 3476 C 338.569 -1.95057 0.145679 0
M  V30 3477 O 339.775 -2.71431 0.0612099 0
M  V30 3478 C 338.231 -2.45124 2.63519 0
M  V30 3479 C 337.839 -1.91732 4.04899 0
M  V30 3480 C 339.583 -3.2205 2.76558 0
M  V30 3481 C 337.49 -2.991 5.1019 0
M  V30 3482 H 336.42 -0.508552 0.556679 0
M  V30 3483 H 339.071 -0.639977 1.71978 0
M  V30 3484 H 337.453 -3.19149 2.34435 0
M  V30 3485 H 338.627 -1.24352 4.43704 0
M  V30 3486 H 336.942 -1.27522 3.96393 0
M  V30 3487 H 339.539 -4.0215 3.52391 0
M  V30 3488 H 339.882 -3.73663 1.83526 0
M  V30 3489 H 340.415 -2.55127 3.05213 0
M  V30 3490 H 337.154 -2.52393 6.04961 0
M  V30 3491 H 336.674 -3.65017 4.75944 0
M  V30 3492 H 338.353 -3.63318 5.35359 0
M  V30 3493 N 338.485 -1.33259 -0.841409 0
M  V30 3494 C 339.713 -1.27605 -1.62864 0
M  V30 3495 C 340.128 0.153507 -1.88175 0
M  V30 3496 O 339.485 1.09485 -1.46011 0
M  V30 3497 C 339.536 -2.04596 -2.98031 0
M  V30 3498 O 339.257 -3.41975 -2.73834 0
M  V30 3499 C 340.758 -2.06122 -3.92465 0
M  V30 3500 H 337.978 -0.439718 -0.506842 0
M  V30 3501 H 340.522 -1.75591 -1.04824 0
M  V30 3502 H 338.677 -1.60299 -3.5268 0
M  V30 3503 H 339.091 -3.81549 -3.59889 0
M  V30 3504 H 340.565 -2.64451 -4.84531 0
M  V30 3505 H 341.042 -1.05083 -4.26444 0
M  V30 3506 H 341.648 -2.50427 -3.43753 0
M  V30 3507 N 339.963 1.05934 -1.16686 0
M  V30 3508 C 341.209 1.79065 -0.95203 0
M  V30 3509 C 341.542 1.87147 0.518629 0
M  V30 3510 O 340.817 1.36574 1.38484 0
M  V30 3511 C 341.1 3.23359 -1.58464 0
M  V30 3512 C 340.953 3.23336 -3.12689 0
M  V30 3513 C 342.272 4.21004 -1.28232 0
M  V30 3514 H 339.391 0.65005 -0.34728 0
M  V30 3515 H 342.033 1.23868 -1.44072 0
M  V30 3516 H 340.183 3.70493 -1.16908 0
M  V30 3517 H 341.855 2.84336 -3.6325 0
M  V30 3518 H 340.098 2.61886 -3.4583 0
M  V30 3519 H 340.769 4.25144 -3.52075 0
M  V30 3520 H 343.245 3.8233 -1.64203 0
M  V30 3521 H 342.121 5.20225 -1.75092 0
M  V30 3522 H 342.382 4.41639 -0.201791 0
M  V30 3523 N 341.441 0.965919 1.2453 0
M  V30 3524 C 342.681 0.634656 1.94297 0
M  V30 3525 C 343.045 -0.814822 1.73852 0
M  V30 3526 O 344.246 -1.25622 2.3764 0
M  V30 3527 C 342.517 0.99702 3.43212 0
M  V30 3528 S 344.076 0.780038 4.31811 0
M  V30 3529 H 340.894 0.232893 0.671775 0
M  V30 3530 H 343.496 1.24249 1.50938 0
M  V30 3531 H 342.2 2.04886 3.55598 0
M  V30 3532 H 341.731 0.379888 3.91562 0
M  V30 3533 H 343.746 -0.343512 4.9501 0
M  V30 3534 N 342.919 -1.39368 0.735821 0
M  V30 3535 C 344.149 -2.04498 0.293967 0
M  V30 3536 C 344.557 -1.55593 -1.07645 0
M  V30 3537 O 343.9 -0.716324 -1.69158 0
M  V30 3538 C 343.962 -3.58836 0.218342 0
M  V30 3539 C 343.626 -4.30721 1.52736 0
M  V30 3540 C 344.623 -4.57305 2.47322 0
M  V30 3541 C 342.308 -4.69251 1.79189 0
M  V30 3542 C 344.302 -5.21429 3.66593 0
M  V30 3543 C 341.989 -5.33104 2.98737 0
M  V30 3544 C 342.987 -5.59125 3.9226 0
M  V30 3545 O 342.675 -6.21653 5.09708 0
M  V30 3546 H 342.407 -0.664118 0.126189 0
M  V30 3547 H 344.961 -1.79385 1.00051 0
M  V30 3548 H 343.191 -3.8285 -0.544314 0
M  V30 3549 H 344.88 -4.05447 -0.191626 0
M  V30 3550 H 345.646 -4.27983 2.28156 0
M  V30 3551 H 341.525 -4.48354 1.07239 0
M  V30 3552 H 345.069 -5.41656 4.39607 0
M  V30 3553 H 340.966 -5.61846 3.17803 0
M  V30 3554 H 341.734 -6.40146 5.10054 0
M  V30 3555 N 344.397 -0.483516 -1.5 0
M  V30 3556 C 345.645 0.067027 -2.01989 0
M  V30 3557 C 345.966 1.3909 -1.36671 0
M  V30 3558 O 345.236 1.88978 -0.516152 0
M  V30 3559 H 343.816 0.0277606 -0.746484 0
M  V30 3560 H 346.478 -0.636773 -1.84204 0
M  V30 3561 H 345.574 0.209484 -3.11396 0
M  V30 3562 N 345.875 1.56104 -0.216619 0
M  V30 3563 C 346.805 2.23063 0.690296 0
M  V30 3564 C 347.786 1.20072 1.20485 0
M  V30 3565 O 348.971 1.48643 1.24976 0
M  V30 3566 C 346.101 2.90672 1.90072 0
M  V30 3567 C 345.055 4.00092 1.5202 0
M  V30 3568 C 344.381 4.54972 2.80899 0
M  V30 3569 C 345.681 5.17398 0.71391 0
M  V30 3570 H 347.375 2.99109 0.132038 0
M  V30 3571 H 344.921 1.43866 0.0620664 0
M  V30 3572 H 346.874 3.36204 2.54057 0
M  V30 3573 H 345.598 2.12066 2.48386 0
M  V30 3574 H 344.257 3.55283 0.903839 0
M  V30 3575 H 343.905 3.73102 3.37348 0
M  V30 3576 H 343.605 5.28817 2.56176 0
M  V30 3577 H 345.129 5.0322 3.45836 0
M  V30 3578 H 346.543 5.59342 1.25735 0
M  V30 3579 H 344.94 5.97444 0.563951 0
M  V30 3580 H 346.01 4.84088 -0.280527 0
M  V30 3581 N 347.353 -0.0568162 1.57498 0
M  V30 3582 C 348.286 -1.09817 2.00039 0
M  V30 3583 C 349.264 -1.3674 0.879819 0
M  V30 3584 O 350.448 -1.49863 1.14338 0
M  V30 3585 C 347.575 -2.43924 2.34986 0
M  V30 3586 C 346.621 -2.33039 3.57204 0
M  V30 3587 S 347.454 -1.7102 5.07457 0
M  V30 3588 C 348.61 -3.06674 5.45621 0
M  V30 3589 H 348.843 -0.735701 2.88053 0
M  V30 3590 H 346.376 -0.265871 1.52094 0
M  V30 3591 H 348.334 -3.2106 2.55795 0
M  V30 3592 H 346.995 -2.77327 1.47474 0
M  V30 3593 H 346.188 -3.31973 3.79223 0
M  V30 3594 H 345.79 -1.64043 3.36104 0
M  V30 3595 H 348.082 -4.03 5.44608 0
M  V30 3596 H 349.025 -2.8942 6.46252 0
M  V30 3597 H 349.433 -3.07969 4.73091 0
M  V30 3598 N 348.832 -1.54138 -0.328536 0
M  V30 3599 C 349.762 -1.86167 -1.40939 0
M  V30 3600 C 350.743 -0.718044 -1.54202 0
M  V30 3601 O 351.928 -0.971328 -1.68163 0
M  V30 3602 C 349.058 -2.08461 -2.77779 0
M  V30 3603 C 348.012 -3.24299 -2.7931 0
M  V30 3604 C 347.338 -3.31955 -4.19178 0
M  V30 3605 C 348.638 -4.62065 -2.43502 0
M  V30 3606 H 350.332 -2.76689 -1.14383 0
M  V30 3607 H 347.878 -1.33132 -0.548806 0
M  V30 3608 H 349.831 -2.29453 -3.53454 0
M  V30 3609 H 348.555 -1.14684 -3.05802 0
M  V30 3610 H 347.214 -3.03187 -2.0609 0
M  V30 3611 H 346.862 -2.35745 -4.44335 0
M  V30 3612 H 346.562 -4.09805 -4.2111 0
M  V30 3613 H 348.086 -3.55175 -4.96672 0
M  V30 3614 H 349.5 -4.8297 -3.08889 0
M  V30 3615 H 347.897 -5.42429 -2.56693 0
M  V30 3616 H 348.967 -4.64652 -1.38659 0
M  V30 3617 N 350.31 0.590341 -1.46126 0
M  V30 3618 C 351.24 1.71032 -1.58966 0
M  V30 3619 C 352.221 1.64302 -0.440335 0
M  V30 3620 O 353.406 1.82436 -0.665634 0
M  V30 3621 C 350.536 3.09665 -1.57241 0
M  V30 3622 C 349.49 3.31221 -2.71066 0
M  V30 3623 C 348.816 4.70303 -2.54399 0
M  V30 3624 C 350.116 3.19796 -4.1295 0
M  V30 3625 H 351.81 1.60543 -2.52718 0
M  V30 3626 H 349.356 0.770933 -1.21625 0
M  V30 3627 H 351.309 3.87831 -1.64819 0
M  V30 3628 H 350.033 3.21036 -0.600289 0
M  V30 3629 H 348.692 2.55452 -2.62944 0
M  V30 3630 H 348.34 4.78429 -1.55288 0
M  V30 3631 H 348.04 4.85679 -3.30741 0
M  V30 3632 H 349.564 5.50647 -2.63857 0
M  V30 3633 H 350.978 3.87815 -4.22223 0
M  V30 3634 H 349.375 3.46696 -4.89818 0
M  V30 3635 H 350.445 2.16983 -4.33643 0
M  V30 3636 N 351.788 1.33704 0.83433 0
M  V30 3637 C 353.204 1.13137 1.12571 0
M  V30 3638 C 353.404 -0.0747261 2.01361 0
M  V30 3639 O 352.46 -0.753647 2.4099 0
M  V30 3640 C 353.773 2.42105 1.78342 0
M  V30 3641 C 355.321 2.48054 1.90888 0
M  V30 3642 C 355.796 3.76995 2.60075 0
M  V30 3643 N 357.287 3.78092 2.67584 0
M  V30 3644 C 358.022 4.74574 3.21818 0
M  V30 3645 N 357.518 5.81434 3.76705 0
M  V30 3646 N 359.311 4.62044 3.20112 0
M  V30 3647 H 351.462 2.11 0.243489 0
M  V30 3648 H 353.725 0.932532 0.17055 0
M  V30 3649 H 353.431 3.30391 1.20561 0
M  V30 3650 H 353.305 2.54594 2.7832 0
M  V30 3651 H 355.692 1.60215 2.47821 0
M  V30 3652 H 355.773 2.39502 0.898459 0
M  V30 3653 H 355.417 4.65219 2.03799 0
M  V30 3654 H 355.347 3.82825 3.61597 0
M  V30 3655 H 357.838 3.00865 2.28667 0
M  V30 3656 H 358.151 6.51084 4.16305 0
M  V30 3657 H 356.496 5.85163 3.7498 0
M  V30 3658 H 359.687 3.77716 2.76493 0
M  V30 3659 H 359.86 5.37406 3.62076 0
M  V30 3660 N 353.266 -1.05314 1.17247 0
M  V30 3661 C 354.196 -2.1498 0.911362 0
M  V30 3662 C 355.177 -1.69471 -0.146169 0
M  V30 3663 O 356.362 -1.942 0.003812 0
M  V30 3664 C 353.492 -3.4472 0.422528 0
M  V30 3665 C 352.446 -4.03789 1.4191 0
M  V30 3666 C 351.772 -5.28858 0.788274 0
M  V30 3667 C 353.072 -4.41418 2.7919 0
M  V30 3668 H 354.766 -2.3708 1.82848 0
M  V30 3669 H 352.312 -1.13938 0.880569 0
M  V30 3670 H 354.265 -4.20787 0.227289 0
M  V30 3671 H 352.989 -3.22269 -0.530123 0
M  V30 3672 H 351.648 -3.2979 1.60106 0
M  V30 3673 H 351.296 -5.02709 -0.171173 0
M  V30 3674 H 350.996 -5.69338 1.45353 0
M  V30 3675 H 352.52 -6.07612 0.603282 0
M  V30 3676 H 353.934 -5.08524 2.64719 0
M  V30 3677 H 352.331 -4.92913 3.42282 0
M  V30 3678 H 353.401 -3.51819 3.33693 0
M  V30 3679 N 354.744 -0.972509 -1.24016 0
M  V30 3680 C 356.16 -0.679827 -1.44397 0
M  V30 3681 C 356.36 0.756716 -1.86751 0
M  V30 3682 O 355.416 1.53007 -2.00861 0
M  V30 3683 C 356.729 -1.66803 -2.50195 0
M  V30 3684 C 358.277 -1.68119 -2.64017 0
M  V30 3685 C 358.752 -2.65748 -3.73017 0
M  V30 3686 N 360.243 -2.64219 -3.8045 0
M  V30 3687 C 360.978 -3.36433 -4.64328 0
M  V30 3688 N 360.474 -4.1818 -5.52356 0
M  V30 3689 N 362.267 -3.25235 -4.58453 0
M  V30 3690 H 354.418 -1.90059 -0.948228 0
M  V30 3691 H 356.681 -0.818527 -0.478245 0
M  V30 3692 H 356.387 -2.69498 -2.25973 0
M  V30 3693 H 356.261 -1.4446 -3.48441 0
M  V30 3694 H 358.648 -0.661319 -2.87594 0
M  V30 3695 H 358.729 -1.94525 -1.66113 0
M  V30 3696 H 358.373 -3.67872 -3.50189 0
M  V30 3697 H 358.303 -2.36619 -4.70446 0
M  V30 3698 H 360.794 -2.04887 -3.17537 0
M  V30 3699 H 361.107 -4.70157 -6.13329 0
M  V30 3700 H 359.452 -4.22273 -5.52006 0
M  V30 3701 H 362.643 -2.60829 -3.88698 0
M  V30 3702 H 362.816 -3.81776 -5.23594 0
M  V30 3703 N 356.222 1.38976 -0.743202 0
M  V30 3704 C 357.447 2.05161 -0.303936 0
M  V30 3705 C 357.872 1.55677 1.05576 0
M  V30 3706 O 357.23 0.704131 1.67068 0
M  V30 3707 C 357.278 3.59138 -0.324373 0
M  V30 3708 O 356.382 4.06668 0.685204 0
M  V30 3709 H 355.723 0.649815 -0.136518 0
M  V30 3710 H 358.253 1.77852 -1.01142 0
M  V30 3711 H 358.263 4.07639 -0.171618 0
M  V30 3712 H 356.938 3.94515 -1.31647 0
M  V30 3713 H 355.515 3.69561 0.497913 0
M  V30 3714 N 357.7 0.491464 1.49741 0
M  V30 3715 C 358.946 -0.0565092 2.02721 0
M  V30 3716 C 359.279 -1.37522 1.37118 0
M  V30 3717 O 358.554 -1.87866 0.503645 0
M  V30 3718 C 358.837 -0.219051 3.59433 0
M  V30 3719 C 358.69 1.12211 4.35579 0
M  V30 3720 C 360.009 -0.964157 4.29409 0
M  V30 3721 H 357.128 -0.0190627 0.736753 0
M  V30 3722 H 359.77 0.641021 1.7886 0
M  V30 3723 H 357.92 -0.813165 3.79895 0
M  V30 3724 H 359.592 1.75437 4.26637 0
M  V30 3725 H 357.835 1.71377 3.98513 0
M  V30 3726 H 358.506 0.961794 5.43556 0
M  V30 3727 H 360.982 -0.460378 4.13545 0
M  V30 3728 H 359.858 -1.04671 5.38828 0
M  V30 3729 H 360.119 -2.00563 3.93988 0
M  V30 3730 N 359.178 -1.55987 0.224894 0
M  V30 3731 C 360.594 -1.59066 -0.130426 0
M  V30 3732 C 360.794 -1.24176 -1.5869 0
M  V30 3733 O 359.85 -0.978592 -2.32766 0
M  V30 3734 C 361.163 -3.00042 0.198883 0
M  V30 3735 C 362.711 -3.1268 0.141391 0
M  V30 3736 C 363.186 -4.55839 0.444422 0
M  V30 3737 N 364.677 -4.6152 0.394115 0
M  V30 3738 C 365.412 -5.70231 0.602038 0
M  V30 3739 N 364.908 -6.87291 0.871914 0
M  V30 3740 N 366.701 -5.59555 0.534245 0
M  V30 3741 H 358.852 -1.76941 1.17497 0
M  V30 3742 H 361.115 -0.822604 0.471197 0
M  V30 3743 H 360.821 -3.30234 1.2099 0
M  V30 3744 H 360.695 -3.74075 -0.484535 0
M  V30 3745 H 363.082 -2.82283 -0.860265 0
M  V30 3746 H 363.163 -2.40969 0.858335 0
M  V30 3747 H 362.807 -4.86954 1.44353 0
M  V30 3748 H 362.737 -5.2578 -0.293752 0
M  V30 3749 H 365.228 -3.77405 0.193356 0
M  V30 3750 H 365.541 -7.66058 1.01858 0
M  V30 3751 H 363.886 -6.89028 0.909145 0
M  V30 3752 H 367.077 -4.6698 0.323612 0
M  V30 3753 H 367.25 -6.44211 0.699693 0
M  V30 3754 N 360.656 0.0484629 -1.57525 0
M  V30 3755 C 361.586 1.0549 -2.08313 0
M  V30 3756 C 362.567 1.38929 -0.981463 0
M  V30 3757 O 363.752 1.48151 -1.25558 0
M  V30 3758 C 360.882 2.36162 -2.54646 0
M  V30 3759 C 359.836 2.17016 -3.68901 0
M  V30 3760 C 359.162 3.53278 -4.01371 0
M  V30 3761 C 360.462 1.57219 -4.98076 0
M  V30 3762 H 362.156 0.632195 -2.92649 0
M  V30 3763 H 359.702 0.302654 -1.40784 0
M  V30 3764 H 361.655 3.06882 -2.88793 0
M  V30 3765 H 360.379 2.80456 -1.67368 0
M  V30 3766 H 359.038 1.48733 -3.35073 0
M  V30 3767 H 358.686 3.95185 -3.11188 0
M  V30 3768 H 358.386 3.41299 -4.78318 0
M  V30 3769 H 359.91 4.25391 -4.38035 0
M  V30 3770 H 361.324 2.17832 -5.30304 0
M  V30 3771 H 359.721 1.55871 -5.79503 0
M  V30 3772 H 360.791 0.535956 -4.81929 0
M  V30 3773 N 362.134 1.5431 0.320358 0
M  V30 3774 C 363.064 1.86912 1.3995 0
M  V30 3775 C 364.045 0.726211 1.53819 0
M  V30 3776 O 365.23 0.980233 1.67646 0
M  V30 3777 C 362.36 2.09932 2.7667 0
M  V30 3778 C 361.314 3.25776 2.77586 0
M  V30 3779 C 360.64 3.34173 4.17412 0
M  V30 3780 C 361.94 4.6335 2.41048 0
M  V30 3781 H 363.634 2.77292 1.12914 0
M  V30 3782 H 361.18 1.33421 0.541738 0
M  V30 3783 H 363.133 2.31324 3.52232 0
M  V30 3784 H 361.857 1.16304 3.0519 0
M  V30 3785 H 360.516 3.04276 2.04479 0
M  V30 3786 H 360.164 2.38098 4.43078 0
M  V30 3787 H 359.864 4.12033 4.18931 0
M  V30 3788 H 361.388 3.57803 4.94782 0
M  V30 3789 H 362.802 4.84602 3.06324 0
M  V30 3790 H 361.199 5.43782 2.53813 0
M  V30 3791 H 362.269 4.65381 1.36193 0
M  V30 3792 N 363.613 -0.582584 1.46437 0
M  V30 3793 C 364.838 -1.37168 1.55563 0
M  V30 3794 C 365.263 -1.87061 0.19743 0
M  V30 3795 O 364.621 -1.61572 -0.822451 0
M  V30 3796 C 364.669 -2.53511 2.56446 0
M  V30 3797 O 363.773 -3.54953 2.09958 0
M  V30 3798 H 363.114 -0.408494 0.523477 0
M  V30 3799 H 365.644 -0.706646 1.9201 0
M  V30 3800 H 365.654 -3.00426 2.76058 0
M  V30 3801 H 364.329 -2.16549 3.55076 0
M  V30 3802 H 362.906 -3.14516 2.00334 0
M  V30 3803 N 365.091 -1.34144 -0.827227 0
M  V30 3804 C 366.339 -1.26009 -1.58007 0
M  V30 3805 C 366.66 0.170971 -1.94249 0
M  V30 3806 O 365.93 1.10256 -1.61927 0
M  V30 3807 H 364.51 -0.463414 -0.585881 0
M  V30 3808 H 367.172 -1.68005 -0.987951 0
M  V30 3809 H 366.268 -1.86187 -2.50481 0
M  V30 3810 N 366.569 1.04691 -1.17803 0
M  V30 3811 C 367.794 1.81984 -0.994813 0
M  V30 3812 C 368.219 1.82586 0.452112 0
M  V30 3813 O 367.577 1.23854 1.324 0
M  V30 3814 C 367.625 3.2575 -1.54659 0
M  V30 3815 O 366.729 4.05267 -0.763728 0
M  V30 3816 H 366.07 0.562483 -0.352857 0
M  V30 3817 H 368.6 1.3189 -1.56417 0
M  V30 3818 H 368.61 3.76541 -1.57102 0
M  V30 3819 H 367.285 3.24627 -2.59981 0
M  V30 3820 H 365.862 3.63972 -0.811108 0
M  V30 3821 N 368.047 0.979072 1.23499 0
M  V30 3822 C 368.994 0.517904 2.24914 0
M  V30 3823 C 369.964 -0.442525 1.60097 0
M  V30 3824 O 371.149 -0.350365 1.87556 0
M  V30 3825 C 368.289 -0.174813 3.44657 0
M  V30 3826 C 367.402 0.825721 4.24035 0
M  V30 3827 C 366.537 0.107946 5.3109 0
M  V30 3828 C 365.576 1.09778 6.02175 0
M  V30 3829 N 364.713 0.40925 7.00906 0
M  V30 3830 H 369.553 1.38751 2.63727 0
M  V30 3831 H 367.09 0.695303 1.2963 0
M  V30 3832 H 369.048 -0.593233 4.12961 0
M  V30 3833 H 367.678 -1.0083 3.06648 0
M  V30 3834 H 366.73 1.36253 3.55161 0
M  V30 3835 H 368.042 1.58005 4.73113 0
M  V30 3836 H 367.196 -0.367904 6.05583 0
M  V30 3837 H 365.935 -0.678994 4.8295 0
M  V30 3838 H 364.94 1.5844 5.26476 0
M  V30 3839 H 366.165 1.88536 6.52404 0
M  V30 3840 H 364.111 -0.358506 6.5502 0
M  V30 3841 H 364.028 1.10226 7.47921 0
M  V30 3842 H 365.296 -0.0442557 7.79487 0
M  V30 3843 N 369.525 -1.3858 0.750561 0
M  V30 3844 C 370.435 -2.34278 0.122825 0
M  V30 3845 C 371.451 -1.59116 -0.704131 0
M  V30 3846 O 372.627 -1.91326 -0.628987 0
M  V30 3847 C 369.692 -3.38221 -0.762086 0
M  V30 3848 C 368.753 -4.29227 0.078896 0
M  V30 3849 C 367.986 -5.28205 -0.763874 0
M  V30 3850 O 368.209 -5.34112 -2.00201 0
M  V30 3851 O 367.143 -6.01618 -0.18428 0
M  V30 3852 H 370.969 -2.89649 0.913088 0
M  V30 3853 H 368.554 -1.40374 0.511417 0
M  V30 3854 H 370.436 -4.01872 -1.26793 0
M  V30 3855 H 369.111 -2.85211 -1.5309 0
M  V30 3856 H 368.018 -3.68747 0.630621 0
M  V30 3857 H 369.351 -4.85484 0.810289 0
M  V30 3858 N 371.003 -0.499398 -1.49478 0
M  V30 3859 C 371.95 0.279881 -2.29097 0
M  V30 3860 C 372.92 0.961805 -1.3542 0
M  V30 3861 O 374.105 0.968777 -1.64376 0
M  V30 3862 C 371.245 1.33932 -3.18051 0
M  V30 3863 C 370.358 0.669333 -4.26783 0
M  V30 3864 C 369.493 1.70907 -5.02955 0
M  V30 3865 C 368.532 1.02087 -6.03527 0
M  V30 3866 N 367.669 2.00474 -6.7287 0
M  V30 3867 H 372.509 -0.405317 -2.95231 0
M  V30 3868 H 370.046 -0.211726 -1.45568 0
M  V30 3869 H 372.004 1.96553 -3.67998 0
M  V30 3870 H 370.634 1.9933 -2.53904 0
M  V30 3871 H 369.686 -0.0701234 -3.80335 0
M  V30 3872 H 370.998 0.127503 -4.98637 0
M  V30 3873 H 370.152 2.41037 -5.56764 0
M  V30 3874 H 368.891 2.28476 -4.30871 0
M  V30 3875 H 367.896 0.305338 -5.48951 0
M  V30 3876 H 369.121 0.451708 -6.77596 0
M  V30 3877 H 367.067 2.57007 -6.03559 0
M  V30 3878 H 366.984 1.51353 -7.40694 0
M  V30 3879 H 368.252 2.69897 -7.31284 0
M  V30 3880 N 372.481 1.55866 -0.233164 0
M  V30 3881 C 373.758 1.90471 0.444988 0
M  V30 3882 C 374.138 1.15209 1.7689 0
M  V30 3883 O 373.486 0.265119 2.26957 0
M  V30 3884 C 373.696 3.4333 0.626559 0
M  V30 3885 C 375.044 4.14319 0.92871 0
M  V30 3886 O 376.068 3.48993 0.712926 0
M  V30 3887 O 374.927 5.29846 1.33887 0
M  V30 3888 H 372.021 0.792347 0.236885 0
M  V30 3889 H 374.567 1.67437 -0.276211 0
M  V30 3890 H 373.339 3.90095 -0.306822 0
M  V30 3891 H 372.962 3.72181 1.39881 0
M  V30 3892 N 373.959 -0.0401083 1.57549 0
M  V30 3893 C 375.375 -0.395556 1.54621 0
M  V30 3894 C 375.575 -1.77281 0.957799 0
M  V30 3895 O 374.631 -2.45888 0.574031 0
M  V30 3896 C 375.944 -0.307535 2.99123 0
M  V30 3897 C 377.492 -0.385425 3.10618 0
M  V30 3898 C 377.967 -0.326973 4.56831 0
M  V30 3899 N 379.458 -0.386102 4.61588 0
M  V30 3900 C 380.193 -0.363591 5.72246 0
M  V30 3901 N 379.689 -0.29402 6.92176 0
M  V30 3902 N 381.482 -0.412503 5.60584 0
M  V30 3903 H 373.633 0.861325 1.94152 0
M  V30 3904 H 375.896 0.326445 0.890021 0
M  V30 3905 H 375.602 0.638461 3.45856 0
M  V30 3906 H 375.476 -1.10552 3.60636 0
M  V30 3907 H 377.863 -1.32185 2.63839 0
M  V30 3908 H 377.944 0.44171 2.51957 0
M  V30 3909 H 377.588 0.605738 5.04275 0
M  V30 3910 H 377.518 -1.17207 5.13391 0
M  V30 3911 H 380.009 -0.442832 3.75296 0
M  V30 3912 H 380.322 -0.28164 7.72287 0
M  V30 3913 H 378.667 -0.260232 6.94513 0
M  V30 3914 H 381.858 -0.464769 4.65787 0
M  V30 3915 H 382.031 -0.391492 6.46816 0
M  V30 3916 N 375.437 -1.54477 -0.31217 0
M  V30 3917 C 376.662 -1.77526 -1.07235 0
M  V30 3918 C 377.087 -0.527775 -1.80544 0
M  V30 3919 O 376.445 0.52121 -1.73646 0
M  V30 3920 C 376.493 -2.97535 -2.03728 0
M  V30 3921 O 375.597 -2.69878 -3.11833 0
M  V30 3922 H 374.938 -0.58792 -0.30862 0
M  V30 3923 H 377.468 -2.01532 -0.352993 0
M  V30 3924 H 377.478 -3.25198 -2.46395 0
M  V30 3925 H 376.153 -3.87996 -1.49774 0
M  V30 3926 H 374.73 -2.53199 -2.7376 0
M  V30 3927 N 376.915 0.57481 -1.46744 0
M  V30 3928 C 377.845 1.69337 -1.60771 0
M  V30 3929 C 378.826 1.63825 -0.457736 0
M  V30 3930 O 380.011 1.8172 -0.684947 0
M  V30 3931 C 377.141 3.0798 -1.60517 0
M  V30 3932 C 376.095 3.28327 -2.74564 0
M  V30 3933 C 375.421 4.67578 -2.59373 0
M  V30 3934 C 376.721 3.15398 -4.16319 0
M  V30 3935 H 378.415 1.57853 -2.54407 0
M  V30 3936 H 375.961 0.75799 -1.22436 0
M  V30 3937 H 377.914 3.86061 -1.68923 0
M  V30 3938 H 376.638 3.20381 -0.634305 0
M  V30 3939 H 375.297 2.52649 -2.65639 0
M  V30 3940 H 374.945 4.76755 -1.60353 0
M  V30 3941 H 374.645 4.82144 -3.35873 0
M  V30 3942 H 376.169 5.47817 -2.69682 0
M  V30 3943 H 377.583 3.83315 -4.26313 0
M  V30 3944 H 375.98 3.41482 -4.93468 0
M  V30 3945 H 377.05 2.12372 -4.3592 0
M  V30 3946 N 378.394 1.34581 0.820102 0
M  V30 3947 C 379.81 1.14325 1.11364 0
M  V30 3948 C 380.01 -0.0533648 2.01429 0
M  V30 3949 O 379.066 -0.728044 2.41776 0
M  V30 3950 C 380.379 2.43983 1.75764 0
M  V30 3951 C 381.927 2.50065 1.88246 0
M  V30 3952 C 382.402 3.79732 2.56061 0
M  V30 3953 N 383.893 3.80908 2.63558 0
M  V30 3954 C 384.628 4.77961 3.16766 0
M  V30 3955 N 384.124 5.85397 3.70517 0
M  V30 3956 N 385.917 4.65413 3.15194 0
M  V30 3957 H 378.068 2.11246 0.221096 0
M  V30 3958 H 380.331 0.934289 0.160649 0
M  V30 3959 H 380.037 3.31651 1.1705 0
M  V30 3960 H 379.911 2.57531 2.75604 0
M  V30 3961 H 382.298 1.62834 2.46108 0
M  V30 3962 H 382.379 2.40442 0.873006 0
M  V30 3963 H 382.023 4.67354 1.98853 0
M  V30 3964 H 381.953 3.86639 3.57516 0
M  V30 3965 H 384.444 3.03274 2.25463 0
M  V30 3966 H 384.757 6.55463 4.09376 0
M  V30 3967 H 383.102 5.89107 3.68752 0
M  V30 3968 H 386.293 3.80627 2.72471 0
M  V30 3969 H 386.466 5.41216 3.56356 0
M  V30 3970 N 379.872 -1.04064 1.18357 0
M  V30 3971 C 381.288 -1.2947 0.933258 0
M  V30 3972 C 381.488 -1.97466 -0.401169 0
M  V30 3973 O 380.544 -2.25528 -1.13549 0
M  V30 3974 C 381.857 -2.15337 2.09882 0
M  V30 3975 C 383.405 -2.28683 2.13712 0
M  V30 3976 C 383.88 -3.17917 3.29686 0
M  V30 3977 N 385.371 -3.25504 3.29547 0
M  V30 3978 C 386.106 -3.94706 4.15926 0
M  V30 3979 N 385.602 -4.66239 5.12439 0
M  V30 3980 N 387.395 -3.90986 4.0384 0
M  V30 3981 H 379.546 -0.583359 2.04232 0
M  V30 3982 H 381.809 -0.319921 0.892387 0
M  V30 3983 H 381.515 -1.72682 3.06389 0
M  V30 3984 H 381.389 -3.16015 2.05947 0
M  V30 3985 H 383.776 -2.70575 1.17784 0
M  V30 3986 H 383.857 -1.27596 2.21705 0
M  V30 3987 H 383.501 -2.76736 4.25887 0
M  V30 3988 H 383.431 -4.19036 3.1893 0
M  V30 3989 H 385.922 -2.74547 2.59677 0
M  V30 3990 H 386.235 -5.16638 5.74722 0
M  V30 3991 H 384.58 -4.65143 5.16398 0
M  V30 3992 H 387.771 -3.34234 3.27727 0
M  V30 3993 H 387.944 -4.44646 4.71375 0
M  V30 3994 N 381.35 -0.985608 -1.22978 0
M  V30 3995 C 382.599 -0.652881 -1.90841 0
M  V30 3996 C 382.912 0.817842 -1.77681 0
M  V30 3997 O 384.118 1.26185 -2.40395 0
M  V30 3998 C 382.574 -1.11717 -3.42122 0
M  V30 3999 C 382.182 -2.6126 -3.63933 0
M  V30 4000 C 383.926 -0.85843 -4.1573 0
M  V30 4001 C 381.833 -3.0133 -5.08876 0
M  V30 4002 H 380.763 -0.240491 -0.714619 0
M  V30 4003 H 383.414 -1.1942 -1.39324 0
M  V30 4004 H 381.796 -0.504027 -3.92779 0
M  V30 4005 H 382.97 -3.27858 -3.23799 0
M  V30 4006 H 381.285 -2.84937 -3.03644 0
M  V30 4007 H 383.882 -1.13359 -5.22546 0
M  V30 4008 H 384.225 0.205461 -4.15793 0
M  V30 4009 H 384.758 -1.43341 -3.71077 0
M  V30 4010 H 381.497 -4.06864 -5.13947 0
M  V30 4011 H 381.017 -2.3943 -5.49939 0
M  V30 4012 H 382.696 -2.92224 -5.77247 0
M  V30 4013 N 382.828 1.3818 -0.7579 0
M  V30 4014 C 384.056 2.04301 -0.326937 0
M  V30 4015 C 384.471 1.57163 1.0462 0
M  V30 4016 O 383.828 0.746626 1.66529 0
M  V30 4017 C 383.879 3.59846 -0.345363 0
M  V30 4018 O 383.6 4.05256 -1.66432 0
M  V30 4019 C 385.101 4.4319 0.098927 0
M  V30 4020 H 382.321 0.656443 -0.139012 0
M  V30 4021 H 384.865 1.76786 -1.02796 0
M  V30 4022 H 383.02 3.86182 0.306955 0
M  V30 4023 H 383.434 4.99709 -1.59345 0
M  V30 4024 H 384.908 5.51989 0.0348745 0
M  V30 4025 H 385.385 4.23947 1.14741 0
M  V30 4026 H 385.991 4.22051 -0.52468 0
M  V30 4027 N 384.306 0.507319 1.49211 0
M  V30 4028 C 385.722 0.163682 1.58758 0
M  V30 4029 C 385.922 -1.33208 1.51188 0
M  V30 4030 O 384.978 -2.10855 1.38911 0
M  V30 4031 C 386.291 0.746095 2.91297 0
M  V30 4032 C 387.839 0.712773 3.04776 0
M  V30 4033 C 388.314 1.27336 4.39943 0
M  V30 4034 N 389.805 1.23433 4.46451 0
M  V30 4035 C 390.54 1.63821 5.495 0
M  V30 4036 N 390.036 2.11832 6.5962 0
M  V30 4037 N 391.829 1.55198 5.4025 0
M  V30 4038 H 383.98 1.47972 1.52375 0
M  V30 4039 H 386.243 0.614147 0.722168 0
M  V30 4040 H 385.949 1.79534 3.02424 0
M  V30 4041 H 385.823 0.210137 3.76614 0
M  V30 4042 H 388.21 -0.327656 2.93275 0
M  V30 4043 H 388.291 1.28595 2.21127 0
M  V30 4044 H 387.935 2.3126 4.52196 0
M  V30 4045 H 387.865 0.676066 5.22242 0
M  V30 4046 H 390.356 0.882627 3.67448 0
M  V30 4047 H 390.669 2.40703 7.34358 0
M  V30 4048 H 389.014 2.1581 6.60644 0
M  V30 4049 H 392.205 1.17505 4.53112 0
M  V30 4050 H 392.378 1.86997 6.20432 0
M  V30 4051 N 385.784 -1.5574 0.241426 0
M  V30 4052 C 386.717 -2.17168 -0.700935 0
M  V30 4053 C 387.695 -1.12206 -1.1768 0
M  V30 4054 O 388.879 -1.40565 -1.25593 0
M  V30 4055 C 386.006 -2.76796 -1.95196 0
M  V30 4056 C 385.052 -3.94764 -1.61442 0
M  V30 4057 S 385.885 -5.30613 -0.72182 0
M  V30 4058 C 387.041 -5.93691 -1.98197 0
M  V30 4059 H 387.274 -2.96761 -0.178882 0
M  V30 4060 H 384.807 -1.54378 0.0259299 0
M  V30 4061 H 386.765 -3.11787 -2.67019 0
M  V30 4062 H 385.426 -1.9716 -2.44514 0
M  V30 4063 H 384.619 -4.35057 -2.54443 0
M  V30 4064 H 384.221 -3.61022 -0.976672 0
M  V30 4065 H 386.513 -6.10874 -2.92983 0
M  V30 4066 H 387.456 -6.89258 -1.62262 0
M  V30 4067 H 387.864 -5.22709 -2.13156 0
M  V30 4068 N 387.262 0.0317525 -1.57568 0
M  V30 4069 C 388.508 0.724175 -1.8943 0
M  V30 4070 C 388.841 1.75149 -0.838836 0
M  V30 4071 O 388.116 1.93948 0.146422 0
M  V30 4072 C 388.399 1.39615 -3.31933 0
M  V30 4073 C 388.252 0.382537 -4.4817 0
M  V30 4074 C 389.571 2.33084 -3.73309 0
M  V30 4075 H 386.69 0.261797 -0.688935 0
M  V30 4076 H 389.332 -0.013017 -1.89996 0
M  V30 4077 H 387.482 2.02451 -3.31581 0
M  V30 4078 H 389.154 -0.243689 -4.60656 0
M  V30 4079 H 387.397 -0.29844 -4.32772 0
M  V30 4080 H 388.068 0.891145 -5.44759 0
M  V30 4081 H 390.544 1.80295 -3.7501 0
M  V30 4082 H 389.42 2.77084 -4.73831 0
M  V30 4083 H 389.681 3.19643 -3.05419 0
M  V30 4084 N 388.74 1.54641 0.303973 0
M  V30 4085 C 389.67 1.88386 1.3796 0
M  V30 4086 C 390.651 0.742485 1.5304 0
M  V30 4087 O 391.836 0.997959 1.66597 0
M  V30 4088 C 388.966 2.12854 2.74427 0
M  V30 4089 C 387.92 3.28702 2.74115 0
M  V30 4090 C 387.246 3.38582 4.13844 0
M  V30 4091 C 388.546 4.65881 2.3612 0
M  V30 4092 H 390.24 2.78474 1.09966 0
M  V30 4093 H 387.786 1.33988 0.527556 0
M  V30 4094 H 389.739 2.35047 3.49758 0
M  V30 4095 H 388.463 1.19535 3.03939 0
M  V30 4096 H 387.122 3.06428 2.0124 0
M  V30 4097 H 386.77 2.42784 4.40528 0
M  V30 4098 H 386.47 4.16453 4.14537 0
M  V30 4099 H 387.994 3.63031 4.90959 0
M  V30 4100 H 389.408 4.87823 3.01167 0
M  V30 4101 H 387.805 5.46444 2.48031 0
M  V30 4102 H 388.875 4.66799 1.3125 0
M  V30 4103 N 390.218 -0.567019 1.47046 0
M  V30 4104 C 391.464 -1.32658 1.53394 0
M  V30 4105 C 391.797 -1.93254 0.19148 0
M  V30 4106 O 391.072 -1.77338 -0.798844 0
M  V30 4107 C 391.355 -2.44412 2.64452 0
M  V30 4108 C 391.208 -1.88749 4.08282 0
M  V30 4109 C 392.527 -3.46387 2.71485 0
M  V30 4110 H 389.646 -0.48098 0.558415 0
M  V30 4111 H 392.288 -0.635481 1.79058 0
M  V30 4112 H 390.438 -3.03363 2.427 0
M  V30 4113 H 392.11 -1.34134 4.41368 0
M  V30 4114 H 390.353 -1.19481 4.17021 0
M  V30 4115 H 391.024 -2.69491 4.81745 0
M  V30 4116 H 393.5 -2.9734 2.91081 0
M  V30 4117 H 392.376 -4.2202 3.50985 0
M  V30 4118 H 392.637 -4.04616 1.78153 0
M  V30 4119 N 391.696 -1.35014 -0.812953 0
M  V30 4120 C 392.942 -1.2812 -1.57204 0
M  V30 4121 C 393.275 0.145869 -1.93651 0
M  V30 4122 O 392.55 1.0937 -1.60836 0
M  V30 4123 C 392.833 -2.18162 -2.86492 0
M  V30 4124 C 392.686 -3.69454 -2.56561 0
M  V30 4125 C 394.005 -2.07439 -3.88145 0
M  V30 4126 H 391.124 -0.466746 -0.570366 0
M  V30 4127 H 393.766 -1.65357 -0.935783 0
M  V30 4128 H 391.916 -1.86535 -3.40789 0
M  V30 4129 H 393.588 -4.11493 -2.08497 0
M  V30 4130 H 391.831 -3.9005 -1.89851 0
M  V30 4131 H 392.502 -4.27835 -3.48799 0
M  V30 4132 H 394.978 -2.35228 -3.4323 0
M  V30 4133 H 393.854 -2.7265 -4.76396 0
M  V30 4134 H 394.115 -1.05439 -4.29343 0
M  V30 4135 N 393.175 1.03435 -1.18907 0
M  V30 4136 C 394.421 1.77005 -0.989798 0
M  V30 4137 C 394.754 1.88205 0.478816 0
M  V30 4138 O 394.029 1.39481 1.35556 0
M  V30 4139 C 394.312 3.19925 -1.65287 0
M  V30 4140 C 394.165 3.1663 -3.19477 0
M  V30 4141 C 395.484 4.18189 -1.37134 0
M  V30 4142 H 392.603 0.642538 -0.360991 0
M  V30 4143 H 395.245 1.20784 -1.46667 0
M  V30 4144 H 393.395 3.67929 -1.24741 0
M  V30 4145 H 395.067 2.76567 -3.692 0
M  V30 4146 H 393.31 2.54491 -3.51307 0
M  V30 4147 H 393.981 4.1758 -3.61013 0
M  V30 4148 H 396.457 3.78761 -1.72276 0
M  V30 4149 H 395.333 5.16394 -1.86087 0
M  V30 4150 H 395.594 4.41112 -0.295424 0
M  V30 4151 N 394.653 0.992116 1.22453 0
M  V30 4152 C 395.901 0.666215 1.90804 0
M  V30 4153 C 396.222 -0.804152 1.77647 0
M  V30 4154 O 395.492 -1.57629 1.16318 0
M  V30 4155 H 394.072 0.243423 0.706225 0
M  V30 4156 H 396.734 1.25845 1.48825 0
M  V30 4157 H 395.83 0.928069 2.97982 0
M  V30 4158 N 396.131 -1.37776 0.765217 0
M  V30 4159 C 397.094 -2.28686 0.153416 0
M  V30 4160 C 398.094 -1.47727 -0.635081 0
M  V30 4161 O 399.284 -1.68027 -0.459632 0
M  V30 4162 C 396.416 -3.31608 -0.790495 0
M  V30 4163 H 397.609 -2.84297 0.954723 0
M  V30 4164 H 395.162 -1.46932 0.53299 0
M  V30 4165 H 395.897 -2.81109 -1.61705 0
M  V30 4166 H 395.682 -3.9144 -0.227348 0
M  V30 4167 H 397.172 -3.99559 -1.21419 0
M  V30 4168 N 397.609 -0.515225 -1.4894 0
M  V30 4169 C 398.856 0.024215 -2.02486 0
M  V30 4170 C 399.184 1.35671 -1.39368 0
M  V30 4171 O 398.439 1.88566 -0.523574 0
M  V30 4172 C 398.738 0.210595 -3.56779 0
M  V30 4173 C 398.404 -1.04569 -4.38607 0
M  V30 4174 C 397.066 -1.39002 -4.60686 0
M  V30 4175 C 399.418 -1.88008 -4.86109 0
M  V30 4176 C 396.746 -2.568 -5.27514 0
M  V30 4177 C 399.098 -3.04972 -5.54234 0
M  V30 4178 C 397.762 -3.39768 -5.74555 0
M  V30 4179 H 397.032 0.00886088 -0.740947 0
M  V30 4180 H 399.679 -0.678263 -1.79086 0
M  V30 4181 H 397.984 0.99572 -3.78936 0
M  V30 4182 H 399.681 0.642659 -3.95817 0
M  V30 4183 H 396.271 -0.767497 -4.21672 0
M  V30 4184 H 400.455 -1.62719 -4.68867 0
M  V30 4185 H 395.711 -2.8398 -5.41447 0
M  V30 4186 H 399.885 -3.69943 -5.90013 0
M  V30 4187 H 397.512 -4.31148 -6.26112 0
M  V30 4188 N 399.087 1.5561 -0.249682 0
M  V30 4189 C 400.333 1.99306 0.374841 0
M  V30 4190 C 400.666 1.13767 1.57387 0
M  V30 4191 O 399.941 0.201711 1.93451 0
M  V30 4192 C 400.224 3.51507 0.781986 0
M  V30 4193 C 400.077 4.4781 -0.422629 0
M  V30 4194 C 401.396 4.08884 1.62793 0
M  V30 4195 H 398.515 0.724572 0.134773 0
M  V30 4196 H 401.157 1.86719 -0.351549 0
M  V30 4197 H 399.307 3.62363 1.4009 0
M  V30 4198 H 400.979 4.48931 -1.06108 0
M  V30 4199 H 399.222 4.20518 -1.06524 0
M  V30 4200 H 399.893 5.51919 -0.0943766 0
M  V30 4201 H 402.369 4.01147 1.10547 0
M  V30 4202 H 401.245 5.1564 1.88166 0
M  V30 4203 H 401.506 3.57515 2.60068 0
M  V30 4204 N 400.565 -0.0233959 1.57583 0
M  V30 4205 C 401.811 -0.714119 1.89811 0
M  V30 4206 C 402.144 -1.74702 0.848113 0
M  V30 4207 O 401.419 -1.94023 -0.136135 0
M  V30 4208 C 401.702 -1.37853 3.32669 0
M  V30 4209 C 401.555 -0.358764 4.48367 0
M  V30 4210 C 402.874 -2.31101 3.7454 0
M  V30 4211 H 399.993 -0.25814 0.690314 0
M  V30 4212 H 402.635 0.0230927 1.89986 0
M  V30 4213 H 400.785 -2.00689 3.3265 0
M  V30 4214 H 402.457 0.268115 4.6052 0
M  V30 4215 H 400.7 0.321387 4.32608 0
M  V30 4216 H 401.371 -0.862242 5.45224 0
M  V30 4217 H 403.847 -1.78304 3.75961 0
M  V30 4218 H 402.723 -2.74567 4.75294 0
M  V30 4219 H 402.984 -3.18018 3.0711 0
M  V30 4220 N 402.043 -1.548 -0.295768 0
M  V30 4221 C 403.283 -1.76069 -1.03823 0
M  V30 4222 C 403.647 -0.537992 -1.84309 0
M  V30 4223 O 404.848 -0.628514 -2.61349 0
M  V30 4224 C 403.119 -3.01705 -1.91596 0
M  V30 4225 S 404.678 -3.43998 -2.72416 0
M  V30 4226 H 401.496 -0.618852 -0.350062 0
M  V30 4227 H 404.098 -1.93009 -0.31106 0
M  V30 4228 H 402.802 -3.88812 -1.31351 0
M  V30 4229 H 402.333 -2.87366 -2.68671 0
M  V30 4230 H 404.348 -3.0148 -3.94112 0
M  V30 4231 N 403.521 0.559213 -1.47345 0
M  V30 4232 C 404.767 1.31614 -1.55079 0
M  V30 4233 C 405.122 1.91257 -0.209422 0
M  V30 4234 O 404.415 1.74796 0.784656 0
M  V30 4235 C 404.609 2.44853 -2.6035 0
M  V30 4236 C 404.438 1.96305 -4.04591 0
M  V30 4237 C 403.208 1.8024 -4.72061 0
M  V30 4238 C 405.406 1.50872 -4.91673 0
M  V30 4239 N 403.388 1.26011 -6.00828 0
M  V30 4240 C 404.759 1.08395 -6.10451 0
M  V30 4241 C 406.814 1.38905 -4.78132 0
M  V30 4242 C 405.517 0.551399 -7.17183 0
M  V30 4243 C 407.543 0.870518 -5.84958 0
M  V30 4244 C 406.905 0.455661 -7.02925 0
M  V30 4245 H 403.004 0.473712 -0.62219 0
M  V30 4246 H 405.588 0.634103 -1.84085 0
M  V30 4247 H 403.759 3.10589 -2.33215 0
M  V30 4248 H 405.491 3.11849 -2.57938 0
M  V30 4249 H 402.246 2.02895 -4.27937 0
M  V30 4250 H 402.67 1.00991 -6.69425 0
M  V30 4251 H 407.312 1.69591 -3.87297 0
M  V30 4252 H 405.03 0.232159 -8.07766 0
M  V30 4253 H 408.616 0.781507 -5.76527 0
M  V30 4254 H 407.496 0.0606414 -7.84177 0
M  V30 4255 N 404.999 1.35443 0.805782 0
M  V30 4256 C 405.962 1.28301 1.89925 0
M  V30 4257 C 406.962 0.194285 1.59622 0
M  V30 4258 O 408.152 0.448036 1.6834 0
M  V30 4259 C 405.284 0.984997 3.2636 0
M  V30 4260 H 406.477 2.2553 1.97677 0
M  V30 4261 H 404.03 1.19979 1.00173 0
M  V30 4262 H 404.765 0.016603 3.24296 0
M  V30 4263 H 404.55 1.77269 3.4974 0
M  V30 4264 H 406.04 0.960651 4.064 0
M  V30 4265 N 406.477 -1.02803 1.19454 0
M  V30 4266 C 407.888 -1.57667 0.999899 0
M  V30 4267 C 408.239 -1.91041 -0.446956 0
M  V30 4268 O 407.364 -1.70978 -1.32648 0
M  V30 4269 C 407.959 -2.86477 1.80877 0
M  V30 4270 C 406.518 -3.37911 1.65811 0
M  V30 4271 C 405.665 -2.11343 1.79526 0
M  V30 4272 H 408.616 -0.853214 1.33813 0
M  V30 4273 H 408.637 -3.57408 1.30536 0
M  V30 4274 H 408.149 -2.62155 2.86175 0
M  V30 4275 H 406.25 -3.67218 0.63102 0
M  V30 4276 H 406.363 -4.10885 2.46395 0
M  V30 4277 H 404.727 -2.23254 1.22596 0
M  V30 4278 H 405.51 -1.89461 2.86285 0
M  V30 4279 N 407.956 -0.998596 -1.21925 0
M  V30 4280 C 409.205 -0.673085 -1.90138 0
M  V30 4281 C 409.518 0.79895 -1.78539 0
M  V30 4282 O 410.724 1.23628 -2.4172 0
M  V30 4283 C 409.18 -1.15339 -3.40918 0
M  V30 4284 C 408.788 -2.65106 -3.61141 0
M  V30 4285 C 410.532 -0.902476 -4.14796 0
M  V30 4286 C 408.439 -3.0671 -5.05651 0
M  V30 4287 H 407.369 -0.248057 -0.712028 0
M  V30 4288 H 410.02 -1.20891 -1.38049 0
M  V30 4289 H 408.402 -0.545658 -3.92223 0
M  V30 4290 H 409.576 -3.31274 -3.20304 0
M  V30 4291 H 407.891 -2.88142 -3.00605 0
M  V30 4292 H 410.488 -1.18895 -5.21314 0
M  V30 4293 H 410.831 0.161349 -4.15987 0
M  V30 4294 H 411.364 -1.47269 -3.69536 0
M  V30 4295 H 408.103 -4.12292 -5.09603 0
M  V30 4296 H 407.623 -2.45249 -5.47369 0
M  V30 4297 H 409.302 -2.9833 -5.74115 0
M  V30 4298 N 409.434 1.37368 -0.772513 0
M  V30 4299 C 410.384 2.27613 -0.132823 0
M  V30 4300 C 411.368 1.46138 0.673247 0
M  V30 4301 O 412.56 1.68686 0.536095 0
M  V30 4302 C 409.689 3.35122 0.744864 0
M  V30 4303 C 408.775 4.24044 -0.0690771 0
M  V30 4304 N 409.166 4.93355 -1.1151 0
M  V30 4305 C 407.464 4.45731 0.154782 0
M  V30 4306 C 408.165 5.59 -1.60917 0
M  V30 4307 N 407.141 5.35737 -0.921222 0
M  V30 4308 H 410.943 2.78675 -0.933681 0
M  V30 4309 H 408.457 1.50494 -0.610342 0
M  V30 4310 H 410.454 3.98683 1.21892 0
M  V30 4311 H 409.114 2.85616 1.54446 0
M  V30 4312 H 410.125 4.95785 -1.49726 0
M  V30 4313 H 406.802 4.07096 0.926224 0
M  V30 4314 H 408.192 6.24395 -2.48153 0
M  V30 4315 N 410.912 0.523116 1.48665 0
M  V30 4316 C 412.161 -0.01544 2.01694 0
M  V30 4317 C 412.474 -1.35975 1.40606 0
M  V30 4318 O 413.68 -1.98627 1.85093 0
M  V30 4319 C 412.136 -0.0779303 3.59816 0
M  V30 4320 C 411.744 1.26107 4.29885 0
M  V30 4321 C 413.488 -0.565678 4.20714 0
M  V30 4322 C 411.395 1.15954 5.79921 0
M  V30 4323 H 410.325 -0.00954163 0.75394 0
M  V30 4324 H 412.976 0.665865 1.70993 0
M  V30 4325 H 411.358 -0.824165 3.87329 0
M  V30 4326 H 412.532 2.02233 4.14051 0
M  V30 4327 H 410.847 1.68401 3.80828 0
M  V30 4328 H 413.444 -0.6595 5.30617 0
M  V30 4329 H 413.787 -1.56984 3.85567 0
M  V30 4330 H 414.32 0.12467 3.97605 0
M  V30 4331 H 411.059 2.13864 6.19631 0
M  V30 4332 H 410.579 0.439529 5.98187 0
M  V30 4333 H 412.258 0.847361 6.41427 0
M  V30 4334 N 412.39 -1.55475 0.257931 0
M  V30 4335 C 413.637 -1.99207 -0.363728 0
M  V30 4336 C 413.965 -1.1462 -1.57139 0
M  V30 4337 O 413.22 -0.199653 -1.94679 0
M  V30 4338 C 413.519 -3.48183 -0.806433 0
M  V30 4339 C 413.185 -4.49936 0.294684 0
M  V30 4340 C 411.847 -4.77481 0.597076 0
M  V30 4341 C 414.199 -5.10769 1.03751 0
M  V30 4342 C 411.527 -5.63132 1.64618 0
M  V30 4343 C 413.879 -5.97558 2.07622 0
M  V30 4344 C 412.543 -6.23432 2.38514 0
M  V30 4345 H 411.813 -0.728949 -0.133097 0
M  V30 4346 H 414.46 -1.8793 0.368059 0
M  V30 4347 H 412.765 -3.56848 -1.61761 0
M  V30 4348 H 414.462 -3.79415 -1.29789 0
M  V30 4349 H 411.052 -4.28572 0.0488649 0
M  V30 4350 H 415.236 -4.89527 0.817149 0
M  V30 4351 H 410.492 -5.8143 1.89074 0
M  V30 4352 H 414.666 -6.43735 2.65666 0
M  V30 4353 H 412.293 -6.89594 3.19943 0
M  V30 4354 N 413.868 0.0150385 -1.57593 0
M  V30 4355 C 415.114 0.704043 -1.90187 0
M  V30 4356 C 415.447 1.74249 -0.857366 0
M  V30 4357 O 414.722 1.94092 0.125843 0
M  V30 4358 C 415.005 1.36087 -3.33395 0
M  V30 4359 C 414.858 0.334981 -4.48551 0
M  V30 4360 C 416.177 2.29112 -3.7576 0
M  V30 4361 H 413.296 0.254475 -0.691673 0
M  V30 4362 H 415.938 -0.0331678 -1.89971 0
M  V30 4363 H 414.088 1.98922 -3.3371 0
M  V30 4364 H 415.76 -0.292534 -4.60372 0
M  V30 4365 H 414.003 -0.344325 -4.32431 0
M  V30 4366 H 414.674 0.833316 -5.45674 0
M  V30 4367 H 417.15 1.76308 -3.76902 0
M  V30 4368 H 416.026 2.72043 -4.76743 0
M  V30 4369 H 416.287 3.16385 -3.08793 0
M  V30 4370 N 415.346 1.54954 0.287554 0
M  V30 4371 C 416.595 1.74081 1.01877 0
M  V30 4372 C 416.908 0.541135 1.87966 0
M  V30 4373 O 418.114 0.614491 2.64455 0
M  V30 4374 C 416.57 3.08042 1.86113 0
M  V30 4375 C 416.178 4.35531 1.04961 0
M  V30 4376 C 417.922 3.36523 2.58752 0
M  V30 4377 C 415.829 5.60538 1.88551 0
M  V30 4378 H 414.759 0.64884 0.384087 0
M  V30 4379 H 417.41 1.81426 0.275101 0
M  V30 4380 H 415.792 2.94696 2.64519 0
M  V30 4381 H 416.966 4.59751 0.31074 0
M  V30 4382 H 415.281 4.14085 0.43843 0
M  V30 4383 H 417.878 4.27122 3.21668 0
M  V30 4384 H 418.221 2.56 3.28283 0
M  V30 4385 H 418.754 3.50901 1.87386 0
M  V30 4386 H 415.493 6.43767 1.23466 0
M  V30 4387 H 415.013 5.40483 2.60074 0
M  V30 4388 H 416.692 5.98297 2.46273 0
M  V30 4389 N 416.824 -0.551391 1.4764 0
M  V30 4390 C 418.07 -1.31024 1.54792 0
M  V30 4391 C 418.403 -1.9304 0.211967 0
M  V30 4392 O 417.678 -1.78175 -0.77999 0
M  V30 4393 C 417.961 -2.41593 2.67029 0
M  V30 4394 C 417.814 -1.84408 4.10261 0
M  V30 4395 C 419.133 -3.43488 2.75143 0
M  V30 4396 H 416.252 -0.475031 0.563485 0
M  V30 4397 H 418.894 -0.616454 1.79722 0
M  V30 4398 H 417.044 -3.00772 2.45904 0
M  V30 4399 H 418.716 -1.29445 4.42766 0
M  V30 4400 H 416.959 -1.15051 4.18265 0
M  V30 4401 H 417.63 -2.64367 4.84576 0
M  V30 4402 H 420.106 -2.94236 2.94218 0
M  V30 4403 H 418.982 -4.18274 3.55441 0
M  V30 4404 H 419.243 -4.02703 1.82435 0
M  V30 4405 N 418.302 -1.35869 -0.798587 0
M  V30 4406 C 419.548 -1.30788 -1.55775 0
M  V30 4407 C 419.903 0.114558 -1.92059 0
M  V30 4408 O 419.196 1.06691 -1.59147 0
M  V30 4409 C 419.39 -2.1556 -2.85077 0
M  V30 4410 C 419.219 -3.65904 -2.61428 0
M  V30 4411 C 417.989 -4.35112 -2.56915 0
M  V30 4412 C 420.187 -4.59375 -2.31255 0
M  V30 4413 N 418.169 -5.71155 -2.25068 0
M  V30 4414 C 419.54 -5.83598 -2.09316 0
M  V30 4415 C 421.595 -4.48035 -2.17185 0
M  V30 4416 C 420.298 -6.97755 -1.74731 0
M  V30 4417 C 422.324 -5.62049 -1.83998 0
M  V30 4418 C 421.686 -6.85305 -1.629 0
M  V30 4419 H 417.785 -0.533855 -0.571422 0
M  V30 4420 H 420.369 -1.7083 -0.934079 0
M  V30 4421 H 418.54 -1.77776 -3.45326 0
M  V30 4422 H 420.272 -2.01938 -3.50718 0
M  V30 4423 H 417.027 -3.87812 -2.71843 0
M  V30 4424 H 417.451 -6.42978 -2.11916 0
M  V30 4425 H 422.093 -3.53338 -2.3219 0
M  V30 4426 H 419.811 -7.92411 -1.58464 0
M  V30 4427 H 423.397 -5.55232 -1.73808 0
M  V30 4428 H 422.277 -7.72034 -1.37596 0
M  V30 4429 N 419.78 1.02168 -1.19998 0
M  V30 4430 C 421.008 1.79296 -1.03249 0
M  V30 4431 C 421.423 1.84103 0.418502 0
M  V30 4432 O 420.78 1.29031 1.29063 0
M  V30 4433 C 420.831 3.24007 -1.60319 0
M  V30 4434 O 420.552 3.19512 -2.99739 0
M  V30 4435 C 422.053 4.17704 -1.48453 0
M  V30 4436 H 419.273 0.564016 -0.363493 0
M  V30 4437 H 421.817 1.28639 -1.58973 0
M  V30 4438 H 419.972 3.7183 -1.08727 0
M  V30 4439 H 420.386 4.10306 -3.26725 0
M  V30 4440 H 421.86 5.17104 -1.93153 0
M  V30 4441 H 422.337 4.37029 -0.436193 0
M  V30 4442 H 422.943 3.7576 -1.99211 0
M  V30 4443 N 421.258 1.00505 1.21394 0
M  V30 4444 C 422.188 0.585684 2.26035 0
M  V30 4445 C 423.169 -0.393525 1.65485 0
M  V30 4446 O 424.354 -0.281497 1.92149 0
M  V30 4447 C 421.484 -0.0884283 3.47187 0
M  V30 4448 C 420.438 0.810567 4.20254 0
M  V30 4449 C 419.764 0.00286382 5.347 0
M  V30 4450 C 421.064 2.1132 4.77641 0
M  V30 4451 H 422.758 1.46039 2.61368 0
M  V30 4452 H 420.304 0.703648 1.25638 0
M  V30 4453 H 422.257 -0.393286 4.19561 0
M  V30 4454 H 420.981 -0.997766 3.10986 0
M  V30 4455 H 419.64 1.09925 3.49731 0
M  V30 4456 H 419.288 -0.907765 4.94741 0
M  V30 4457 H 418.988 0.601444 5.84514 0
M  V30 4458 H 420.512 -0.295808 6.09883 0
M  V30 4459 H 421.926 1.87148 5.41893 0
M  V30 4460 H 420.323 2.66164 5.37845 0
M  V30 4461 H 421.393 2.78393 3.9702 0
M  V30 4462 N 422.737 -1.36956 0.779787 0
M  V30 4463 C 423.983 -1.99787 0.348281 0
M  V30 4464 C 424.316 -1.61756 -1.07465 0
M  V30 4465 O 423.591 -0.867639 -1.74075 0
M  V30 4466 C 423.874 -3.56597 0.50104 0
M  V30 4467 C 423.727 -4.04513 1.96697 0
M  V30 4468 C 425.046 -4.40008 -0.0898097 0
M  V30 4469 H 422.165 -0.725796 0.128022 0
M  V30 4470 H 424.807 -1.62514 0.984331 0
M  V30 4471 H 422.957 -3.88479 -0.0404347 0
M  V30 4472 H 424.629 -3.83161 2.56876 0
M  V30 4473 H 422.872 -3.56408 2.47297 0
M  V30 4474 H 423.543 -5.1352 2.02486 0
M  V30 4475 H 426.019 -4.14431 0.372293 0
M  V30 4476 H 424.895 -5.4888 0.0471605 0
M  V30 4477 H 425.156 -4.26035 -1.18096 0
M  V30 4478 N 424.215 -0.530993 -1.48385 0
M  V30 4479 C 425.492 0.0671788 -1.95485 0
M  V30 4480 C 425.872 1.51191 -1.47324 0
M  V30 4481 O 425.22 2.17507 -0.700202 0
M  V30 4482 C 425.43 -0.0511206 -3.48963 0
M  V30 4483 C 426.778 0.107632 -4.24464 0
M  V30 4484 O 427.802 0.0226248 -3.56193 0
M  V30 4485 O 426.661 0.285972 -5.45751 0
M  V30 4486 H 423.755 0.0787365 -0.823243 0
M  V30 4487 H 426.301 -0.595662 -1.58902 0
M  V30 4488 H 425.073 -1.05747 -3.7674 0
M  V30 4489 H 424.696 0.650525 -3.92242 0
M  V30 4490 N 425.693 1.55336 -0.266172 0
M  V30 4491 C 426.942 1.98574 0.353749 0
M  V30 4492 C 427.255 1.15789 1.57646 0
M  V30 4493 O 428.461 1.49129 2.26876 0
M  V30 4494 C 426.917 3.53403 0.680747 0
M  V30 4495 C 426.525 4.44953 -0.52165 0
M  V30 4496 C 428.269 4.05251 1.26379 0
M  V30 4497 C 426.176 5.91156 -0.169736 0
M  V30 4498 H 425.106 0.741643 0.135949 0
M  V30 4499 H 427.757 1.79743 -0.369421 0
M  V30 4500 H 426.139 3.68001 1.46257 0
M  V30 4501 H 427.313 4.42121 -1.29869 0
M  V30 4502 H 425.628 4.03691 -1.02093 0
M  V30 4503 H 428.225 5.12021 1.54074 0
M  V30 4504 H 428.568 3.53749 2.19471 0
M  V30 4505 H 429.101 3.94057 0.544447 0
M  V30 4506 H 425.84 6.46736 -1.0683 0
M  V30 4507 H 425.36 5.97079 0.570717 0
M  V30 4508 H 427.039 6.4655 0.241245 0
M  V30 4509 N 427.171 -0.0066808 1.57599 0
M  V30 4510 C 428.448 -0.729586 1.81484 0
M  V30 4511 C 428.828 -1.92359 0.869558 0
M  V30 4512 O 428.176 -2.28348 -0.0832533 0
M  V30 4513 C 428.386 -1.1416 3.29801 0
M  V30 4514 C 429.734 -1.54823 3.95367 0
M  V30 4515 O 430.758 -1.23558 3.34084 0
M  V30 4516 O 429.617 -2.12937 5.03309 0
M  V30 4517 H 426.711 -0.354674 0.747085 0
M  V30 4518 H 429.257 0.0182609 1.6969 0
M  V30 4519 H 428.029 -0.290231 3.90222 0
M  V30 4520 H 427.652 -1.94876 3.46568 0
M  V30 4521 N 428.649 -1.55105 -0.279332 0
M  V30 4522 C 430.065 -1.46803 -0.626187 0
M  V30 4523 C 430.265 -0.676939 -1.89789 0
M  V30 4524 O 429.321 -0.19326 -2.51759 0
M  V30 4525 C 430.634 -2.90962 -0.759034 0
M  V30 4526 C 432.182 -3.01138 -0.853504 0
M  V30 4527 C 432.657 -4.46539 -1.01818 0
M  V30 4528 N 434.148 -4.50341 -1.08386 0
M  V30 4529 C 434.883 -5.60053 -1.22996 0
M  V30 4530 N 434.379 -6.79645 -1.34366 0
M  V30 4531 N 436.172 -5.47783 -1.26056 0
M  V30 4532 H 428.323 -2.04996 0.555921 0
M  V30 4533 H 430.586 -0.929325 0.187239 0
M  V30 4534 H 430.292 -3.51544 0.104852 0
M  V30 4535 H 430.166 -3.39619 -1.64131 0
M  V30 4536 H 432.553 -2.40658 -1.70786 0
M  V30 4537 H 432.634 -2.55745 0.0532466 0
M  V30 4538 H 432.278 -5.0762 -0.168504 0
M  V30 4539 H 432.208 -4.89583 -1.93948 0
M  V30 4540 H 434.699 -3.64191 -1.00864 0
M  V30 4541 H 435.012 -7.59012 -1.4533 0
M  V30 4542 H 433.357 -6.82469 -1.31382 0
M  V30 4543 H 436.548 -4.53294 -1.168 0
M  V30 4544 H 436.721 -6.33331 -1.37098 0
M  V30 4545 N 430.127 0.543554 -1.4793 0
M  V30 4546 C 431.543 0.870806 -1.3375 0
M  V30 4547 C 431.743 1.9864 -0.338261 0
M  V30 4548 O 430.799 2.51305 0.245371 0
M  V30 4549 C 432.112 1.25114 -2.73435 0
M  V30 4550 C 433.66 1.3618 -2.81823 0
M  V30 4551 C 434.135 1.77563 -4.22179 0
M  V30 4552 N 435.626 1.8469 -4.24787 0
M  V30 4553 C 436.361 2.18067 -5.30315 0
M  V30 4554 N 435.857 2.49963 -6.46135 0
M  V30 4555 N 437.65 2.18958 -5.17701 0
M  V30 4556 H 429.801 -0.19275 -2.11524 0
M  V30 4557 H 432.064 -0.0235777 -0.947707 0
M  V30 4558 H 431.77 0.50514 -3.48053 0
M  V30 4559 H 431.644 2.20431 -3.06088 0
M  V30 4560 H 434.031 2.09859 -2.07468 0
M  V30 4561 H 434.112 0.390169 -2.52807 0
M  V30 4562 H 433.756 1.04449 -4.97044 0
M  V30 4563 H 433.686 2.75753 -4.48629 0
M  V30 4564 H 436.177 1.62372 -3.41239 0
M  V30 4565 H 436.49 2.74497 -7.22406 0
M  V30 4566 H 434.835 2.47513 -6.49432 0
M  V30 4567 H 438.026 1.93488 -4.2624 0
M  V30 4568 H 438.199 2.44639 -6.00047 0
M  V30 4569 N 431.605 1.3629 0.791371 0
M  V30 4570 C 432.882 1.20962 1.53712 0
M  V30 4571 C 433.262 -0.205021 2.10102 0
M  V30 4572 O 432.61 -1.21042 1.93807 0
M  V30 4573 C 432.82 2.29002 2.63361 0
M  V30 4574 C 434.168 2.65572 3.31295 0
M  V30 4575 O 435.192 2.2803 2.73643 0
M  V30 4576 O 434.051 3.3018 4.35481 0
M  V30 4577 H 431.145 0.47086 0.679867 0
M  V30 4578 H 433.691 1.48016 0.830021 0
M  V30 4579 H 432.463 3.2382 2.19674 0
M  V30 4580 H 432.086 2.03303 3.41692 0
M  V30 4581 N 433.083 -1.0153 1.20538 0
M  V30 4582 C 434.494 -1.56598 1.01657 0
M  V30 4583 C 434.845 -1.91505 -0.426668 0
M  V30 4584 O 433.97 -1.72375 -1.30827 0
M  V30 4585 C 434.565 -2.84542 1.83905 0
M  V30 4586 C 433.124 -3.36133 1.69386 0
M  V30 4587 C 432.271 -2.09427 1.81757 0
M  V30 4588 H 435.222 -0.838974 1.34711 0
M  V30 4589 H 435.243 -3.56004 1.34319 0
M  V30 4590 H 434.755 -2.59105 2.8894 0
M  V30 4591 H 432.856 -3.66528 0.669933 0
M  V30 4592 H 432.969 -4.08248 2.50739 0
M  V30 4593 H 431.333 -2.21941 1.24957 0
M  V30 4594 H 432.116 -1.86414 2.88279 0
M  V30 4595 N 434.561 -1.01147 -1.20859 0
M  V30 4596 C 435.491 -0.597663 -2.25722 0
M  V30 4597 C 436.472 0.384744 -1.65692 0
M  V30 4598 O 437.657 0.271303 -1.92296 0
M  V30 4599 C 434.787 0.0700149 -3.47229 0
M  V30 4600 C 433.741 -0.832843 -4.19819 0
M  V30 4601 C 433.067 -0.0312202 -5.34691 0
M  V30 4602 C 434.367 -2.1385 -4.76514 0
M  V30 4603 H 436.061 -1.47423 -2.60589 0
M  V30 4604 H 433.607 -0.710301 -1.25263 0
M  V30 4605 H 435.56 0.37103 -4.19763 0
M  V30 4606 H 434.284 0.981259 -3.11511 0
M  V30 4607 H 432.943 -1.11778 -3.49144 0
M  V30 4608 H 432.591 0.881515 -4.95215 0
M  V30 4609 H 432.291 -0.632434 -5.84187 0
M  V30 4610 H 433.815 0.26346 -6.10031 0
M  V30 4611 H 435.229 -1.9002 -5.40893 0
M  V30 4612 H 433.626 -2.69012 -5.36426 0
M  V30 4613 H 434.696 -2.80495 -3.95538 0
M  V30 4614 N 436.039 1.36541 -0.78704 0
M  V30 4615 C 437.285 1.99599 -0.358872 0
M  V30 4616 C 437.618 1.62323 1.06606 0
M  V30 4617 O 436.893 0.876858 1.73613 0
M  V30 4618 C 437.176 3.56327 -0.519944 0
M  V30 4619 C 437.029 4.03464 -1.98839 0
M  V30 4620 C 438.348 4.4005 0.0664737 0
M  V30 4621 H 435.467 0.725107 -0.131869 0
M  V30 4622 H 438.109 1.6199 -0.992936 0
M  V30 4623 H 436.259 3.88495 0.0198321 0
M  V30 4624 H 437.931 3.81793 -2.58905 0
M  V30 4625 H 436.174 3.55092 -2.49183 0
M  V30 4626 H 436.845 5.12439 -2.05207 0
M  V30 4627 H 439.321 4.14228 -0.394267 0
M  V30 4628 H 438.197 5.48847 -0.0762682 0
M  V30 4629 H 438.458 4.26655 1.15835 0
M  V30 4630 N 437.518 0.538854 1.48102 0
M  V30 4631 C 438.764 0.00801365 2.02798 0
M  V30 4632 C 439.097 -1.3309 1.41424 0
M  V30 4633 O 438.372 -1.86169 0.563158 0
M  V30 4634 C 438.655 -0.104589 3.59948 0
M  V30 4635 C 438.508 1.26012 4.31788 0
M  V30 4636 C 439.827 -0.827055 4.32259 0
M  V30 4637 H 436.946 0.00438624 0.736987 0
M  V30 4638 H 439.588 0.6976 1.7673 0
M  V30 4639 H 437.738 -0.691893 3.82289 0
M  V30 4640 H 439.41 1.88922 4.2084 0
M  V30 4641 H 437.653 1.83968 3.92859 0
M  V30 4642 H 438.324 1.13424 5.40221 0
M  V30 4643 H 440.8 -0.328578 4.14801 0
M  V30 4644 H 439.676 -0.87476 5.41885 0
M  V30 4645 H 439.937 -1.87927 4.0017 0
M  V30 4646 N 438.996 -1.55193 0.274407 0
M  V30 4647 C 439.959 -2.212 -0.600279 0
M  V30 4648 C 440.959 -1.18963 -1.08187 0
M  V30 4649 O 442.149 -1.43873 -0.982158 0
M  V30 4650 C 439.281 -2.87739 -1.82809 0
M  V30 4651 H 440.474 -2.9989 -0.0239682 0
M  V30 4652 H 438.027 -1.5628 0.0250192 0
M  V30 4653 H 438.762 -2.13058 -2.44493 0
M  V30 4654 H 438.547 -3.62658 -1.49069 0
M  V30 4655 H 440.037 -3.38171 -2.45011 0
M  V30 4656 N 440.474 -0.00167713 -1.576 0
M  V30 4657 C 441.437 0.974046 -2.07473 0
M  V30 4658 C 442.437 1.27143 -0.984444 0
M  V30 4659 O 443.627 1.21633 -1.24703 0
M  V30 4660 C 440.759 2.29849 -2.51759 0
M  V30 4661 H 441.952 0.54262 -2.9495 0
M  V30 4662 H 439.505 0.245829 -1.54355 0
M  V30 4663 H 440.24 2.77677 -1.67529 0
M  V30 4664 H 440.025 2.09584 -3.31386 0
M  V30 4665 H 441.515 2.9984 -2.90664 0
M  V30 4666 N 441.952 1.55251 0.271103 0
M  V30 4667 C 442.882 1.9127 1.33933 0
M  V30 4668 C 443.863 0.77478 1.5143 0
M  V30 4669 O 445.048 1.03307 1.64442 0
M  V30 4670 C 442.178 2.18627 2.69851 0
M  V30 4671 C 441.132 3.34442 2.67081 0
M  V30 4672 C 440.458 3.47284 4.06569 0
M  V30 4673 C 441.758 4.70784 2.26185 0
M  V30 4674 H 443.452 2.80744 1.04035 0
M  V30 4675 H 440.998 1.35077 0.499017 0
M  V30 4676 H 442.951 2.42413 3.44694 0
M  V30 4677 H 441.675 1.25955 3.01335 0
M  V30 4678 H 440.334 3.10627 1.94695 0
M  V30 4679 H 439.982 2.52074 4.35279 0
M  V30 4680 H 439.682 4.25152 4.0561 0
M  V30 4681 H 441.206 3.73363 4.83148 0
M  V30 4682 H 442.62 4.94102 2.90751 0
M  V30 4683 H 441.017 5.51582 2.36384 0
M  V30 4684 H 442.087 4.69478 1.21319 0
M  V30 4685 N 443.43 -0.535701 1.48216 0
M  V30 4686 C 444.38 -1.63688 1.58714 0
M  V30 4687 C 445.364 -1.54635 0.444615 0
M  V30 4688 O 446.556 -1.62753 0.695742 0
M  V30 4689 C 443.685 -3.02423 1.62466 0
M  V30 4690 C 442.771 -3.16601 2.82178 0
M  V30 4691 N 443.162 -3.00771 4.06658 0
M  V30 4692 C 441.46 -3.47645 2.79391 0
M  V30 4693 C 442.161 -3.18213 4.86945 0
M  V30 4694 N 441.137 -3.45528 4.19656 0
M  V30 4695 H 444.939 -1.5005 2.5271 0
M  V30 4696 H 442.453 -0.741018 1.44508 0
M  V30 4697 H 444.45 -3.81517 1.6808 0
M  V30 4698 H 443.11 -3.17157 0.695826 0
M  V30 4699 H 444.121 -2.77652 4.37184 0
M  V30 4700 H 440.798 -3.68771 1.95739 0
M  V30 4701 H 442.188 -3.1076 5.95716 0
M  V30 4702 N 444.908 -1.36708 -0.784132 0
M  V30 4703 C 445.838 -1.34153 -1.91116 0
M  V30 4704 C 446.819 -0.212121 -1.68772 0
M  V30 4705 O 448.004 -0.410581 -1.8981 0
M  V30 4706 C 445.134 -1.13535 -3.28218 0
M  V30 4707 C 444.088 -2.23356 -3.65097 0
M  V30 4708 C 443.414 -1.87875 -5.00607 0
M  V30 4709 C 444.714 -3.65473 -3.73131 0
M  V30 4710 H 446.408 -2.28459 -1.93512 0
M  V30 4711 H 443.954 -1.09973 -0.929618 0
M  V30 4712 H 445.907 -1.10381 -4.06687 0
M  V30 4713 H 444.631 -0.156804 -3.26223 0
M  V30 4714 H 443.29 -2.25645 -2.88929 0
M  V30 4715 H 442.938 -0.885814 -4.95139 0
M  V30 4716 H 442.638 -2.61406 -5.26252 0
M  V30 4717 H 444.162 -1.86286 -5.81489 0
M  V30 4718 H 445.576 -3.65382 -4.41779 0
M  V30 4719 H 443.973 -4.37953 -4.10265 0
M  V30 4720 H 445.043 -3.99995 -2.74102 0
M  V30 4721 N 446.386 1.0089 -1.21074 0
M  V30 4722 C 447.626 1.76142 -1.03699 0
M  V30 4723 C 447.99 1.87292 0.422587 0
M  V30 4724 O 449.191 2.59068 0.716752 0
M  V30 4725 C 447.462 3.13805 -1.7106 0
M  V30 4726 S 449.021 4.04996 -1.68889 0
M  V30 4727 H 445.839 0.606113 -0.371683 0
M  V30 4728 H 448.441 1.20744 -1.53756 0
M  V30 4729 H 447.145 3.0332 -2.76451 0
M  V30 4730 H 446.676 3.74276 -1.21166 0
M  V30 4731 H 448.691 4.90842 -0.727211 0
M  V30 4732 N 447.864 1.01787 1.20321 0
M  V30 4733 C 449.113 0.703249 1.89043 0
M  V30 4734 C 449.426 -0.770445 1.79787 0
M  V30 4735 O 450.632 -1.19767 2.43656 0
M  V30 4736 C 449.088 1.20749 3.3904 0
M  V30 4737 C 448.696 2.70817 3.56878 0
M  V30 4738 C 450.44 0.968352 4.13308 0
M  V30 4739 C 448.347 3.14716 5.00708 0
M  V30 4740 H 447.277 0.259354 0.707991 0
M  V30 4741 H 449.928 1.23072 1.36108 0
M  V30 4742 H 448.31 0.607989 3.91305 0
M  V30 4743 H 449.484 3.36327 3.14993 0
M  V30 4744 H 447.799 2.92888 2.95983 0
M  V30 4745 H 450.396 1.27173 5.19356 0
M  V30 4746 H 450.739 -0.095149 4.16191 0
M  V30 4747 H 451.272 1.53129 3.67146 0
M  V30 4748 H 448.011 4.20347 5.02979 0
M  V30 4749 H 447.531 2.53927 5.43398 0
M  V30 4750 H 449.21 3.07426 5.69296 0
M  V30 4751 N 449.342 -1.36122 0.79427 0
M  V30 4752 C 450.305 -2.28309 0.201889 0
M  V30 4753 C 451.305 -1.49041 -0.603603 0
M  V30 4754 O 452.495 -1.68964 -0.423888 0
M  V30 4755 C 449.627 -3.3321 -0.719978 0
M  V30 4756 H 450.82 -2.82208 1.01481 0
M  V30 4757 H 448.373 -1.45768 0.564037 0
M  V30 4758 H 449.108 -2.84475 -1.55706 0
M  V30 4759 H 448.893 -3.91835 -0.144266 0
M  V30 4760 H 450.383 -4.02044 -1.12916 0
M  V30 4761 N 450.82 -0.546701 -1.47814 0
M  V30 4762 C 451.75 0.195317 -2.32682 0
M  V30 4763 C 452.731 0.918981 -1.43139 0
M  V30 4764 O 453.916 0.901501 -1.72008 0
M  V30 4765 C 451.046 1.23237 -3.247 0
M  V30 4766 C 450 0.625818 -4.234 0
M  V30 4767 C 449.326 1.76674 -5.04669 0
M  V30 4768 C 450.626 -0.413515 -5.2066 0
M  V30 4769 H 452.32 -0.513184 -2.94969 0
M  V30 4770 H 449.866 -0.248241 -1.41844 0
M  V30 4771 H 451.819 1.75955 -3.82907 0
M  V30 4772 H 450.543 1.97067 -2.60446 0
M  V30 4773 H 449.202 0.120023 -3.66403 0
M  V30 4774 H 448.85 2.49383 -4.36826 0
M  V30 4775 H 448.55 1.36673 -5.71484 0
M  V30 4776 H 450.074 2.29738 -5.65732 0
M  V30 4777 H 451.488 0.0272042 -5.73294 0
M  V30 4778 H 449.885 -0.731825 -5.95621 0
M  V30 4779 H 450.955 -1.31325 -4.66778 0
M  V30 4780 N 452.299 1.55045 -0.282633 0
M  V30 4781 C 453.547 1.99365 0.331334 0
M  V30 4782 C 453.868 1.1725 1.55812 0
M  V30 4783 O 453.138 0.263871 1.94115 0
M  V30 4784 H 451.718 0.736397 0.125414 0
M  V30 4785 H 454.38 1.90964 -0.389711 0
M  V30 4786 H 453.476 3.0596 0.616036 0
M  V30 4787 N 453.777 0.010035 1.57597 0
M  V30 4788 C 455.007 -0.682422 1.95004 0
M  V30 4789 C 455.415 -1.67278 0.884014 0
M  V30 4790 O 454.758 -1.83129 -0.144672 0
M  V30 4791 C 454.82 -1.46141 3.28456 0
M  V30 4792 C 454.484 -0.631523 4.52615 0
M  V30 4793 C 455.481 0.0850905 5.1983 0
M  V30 4794 C 453.166 -0.574539 4.99003 0
M  V30 4795 C 455.16 0.847566 6.3174 0
M  V30 4796 C 452.847 0.191655 6.10799 0
M  V30 4797 C 453.845 0.901432 6.77025 0
M  V30 4798 O 453.533 1.65511 7.86677 0
M  V30 4799 H 453.265 -0.194361 0.647456 0
M  V30 4800 H 455.819 0.060312 2.05311 0
M  V30 4801 H 454.049 -2.24885 3.14585 0
M  V30 4802 H 455.738 -2.04016 3.50902 0
M  V30 4803 H 456.504 0.0502812 4.84974 0
M  V30 4804 H 452.383 -1.11654 4.47274 0
M  V30 4805 H 455.927 1.4021 6.83364 0
M  V30 4806 H 451.824 0.228249 6.45096 0
M  V30 4807 H 452.592 1.57287 8.03245 0
M  V30 4808 N 455.255 -1.55392 -0.262866 0
M  V30 4809 C 456.218 -1.88181 -1.30846 0
M  V30 4810 C 457.218 -0.757079 -1.41862 0
M  V30 4811 O 458.408 -1.02519 -1.40838 0
M  V30 4812 C 455.54 -2.09609 -2.68844 0
M  V30 4813 H 456.733 -2.81659 -1.02997 0
M  V30 4814 H 454.286 -1.48039 -0.501414 0
M  V30 4815 H 455.021 -1.18547 -3.01856 0
M  V30 4816 H 454.806 -2.91508 -2.62231 0
M  V30 4817 H 456.296 -2.36215 -3.44372 0
M  V30 4818 N 456.733 0.527833 -1.48498 0
M  V30 4819 C 457.681 1.65313 -1.63628 0
M  V30 4820 C 458.675 1.6177 -0.502676 0
M  V30 4821 O 459.881 1.66601 -0.681469 0
M  V30 4822 H 456.256 0.547518 -0.515488 0
M  V30 4823 H 458.227 1.49696 -2.58135 0
M  V30 4824 C 456.976 3.03576 -1.6952 0
M  V30 4825 H 456.299 3.06997 -2.56111 0
M  V30 4826 H 457.739 3.81923 -1.84149 0
M  V30 4827 C 456.198 3.34089 -0.43432 0
M  V30 4828 O 456.728 3.99151 0.451852 0
M  V30 4829 N 454.934 2.88991 -0.305368 0
M  V30 4830 H 454.481 2.36222 -1.02747 0
M  V30 4831 H 454.439 3.09776 0.537249 0
M  V30 4832 N 458.211 1.37122 0.776871 0
M  V30 4833 C 459.436 1.354 1.57104 0
M  V30 4834 C 459.861 -0.0595562 1.88006 0
M  V30 4835 O 459.219 -1.03514 1.48844 0
M  V30 4836 C 459.267 2.19472 2.8612 0
M  V30 4837 O 458.371 1.59582 3.80273 0
M  V30 4838 H 457.712 0.462869 0.476076 0
M  V30 4839 H 460.242 1.80577 0.961932 0
M  V30 4840 H 460.252 2.32502 3.35271 0
M  V30 4841 H 458.927 3.22222 2.62956 0
M  V30 4842 H 457.504 1.55564 3.38902 0
M  V30 4843 N 459.689 -1.00246 1.21608 0
M  V30 4844 C 460.914 -1.78167 1.06167 0
M  V30 4845 C 461.339 -1.84138 -0.384035 0
M  V30 4846 O 460.697 -1.28683 -1.27712 0
M  V30 4847 C 460.745 -3.19786 1.66642 0
M  V30 4848 O 459.849 -4.02153 0.913613 0
M  V30 4849 H 459.19 -0.549 0.37349 0
M  V30 4850 H 461.72 -1.25994 1.61204 0
M  V30 4851 H 461.73 -3.70451 1.70969 0
M  V30 4852 H 460.405 -3.14754 2.7185 0
M  V30 4853 H 458.982 -3.60711 0.945635 0
M  V30 4854 N 461.167 -1.02423 -1.1978 0
M  V30 4855 C 462.097 -0.62157 -2.25075 0
M  V30 4856 C 463.078 0.367148 -1.6609 0
M  V30 4857 O 464.263 0.250892 -1.92573 0
M  V30 4858 C 461.393 0.0331826 -3.47284 0
M  V30 4859 C 460.347 -0.877323 -4.18912 0
M  V30 4860 C 459.673 -0.0879296 -5.34628 0
M  V30 4861 C 460.973 -2.18892 -4.74219 0
M  V30 4862 H 462.667 -1.50179 -2.59011 0
M  V30 4863 H 460.213 -0.723547 -1.24502 0
M  V30 4864 H 462.166 0.326488 -4.20133 0
M  V30 4865 H 460.89 0.948164 -3.12534 0
M  V30 4866 H 459.549 -1.15475 -3.47938 0
M  V30 4867 H 459.197 0.828941 -4.96123 0
M  V30 4868 H 458.897 -0.694359 -5.83483 0
M  V30 4869 H 460.421 0.198743 -6.10276 0
M  V30 4870 H 461.835 -1.95746 -5.38847 0
M  V30 4871 H 460.232 -2.74686 -5.33542 0
M  V30 4872 H 461.302 -2.84674 -3.92541 0
M  V30 4873 N 462.645 1.35699 -0.801477 0
M  V30 4874 C 463.593 2.3177 -0.196317 0
M  V30 4875 C 464.587 1.56388 0.651081 0
M  V30 4876 O 465.793 1.71557 0.544815 0
M  V30 4877 H 462.168 0.750669 -0.0447189 0
M  V30 4878 H 464.139 2.8036 -1.02181 0
M  V30 4879 C 462.888 3.41671 0.644702 0
M  V30 4880 H 462.211 3.998 0.0019921 0
M  V30 4881 H 463.651 4.11184 1.0346 0
M  V30 4882 C 462.11 2.84271 1.80808 0
M  V30 4883 O 462.64 2.77408 2.9053 0
M  V30 4884 N 460.846 2.41391 1.61799 0
M  V30 4885 H 460.393 2.47173 0.725493 0
M  V30 4886 H 460.351 2.03334 2.39797 0
M  V30 4887 N 464.123 0.554532 1.47522 0
M  V30 4888 C 465.534 0.120446 1.86311 0
M  V30 4889 C 465.885 -1.30904 1.46145 0
M  V30 4890 O 465.01 -1.98434 0.863294 0
M  V30 4891 C 465.605 0.211808 3.38137 0
M  V30 4892 C 464.164 -0.167224 3.76028 0
M  V30 4893 C 463.311 0.560576 2.71575 0
M  V30 4894 H 466.262 0.764408 1.39077 0
M  V30 4895 H 466.283 -0.570275 3.76202 0
M  V30 4896 H 465.795 1.25232 3.6734 0
M  V30 4897 H 463.896 -1.20894 3.52442 0
M  V30 4898 H 464.009 0.189473 4.78725 0
M  V30 4899 H 462.373 0.00396836 2.547 0
M  V30 4900 H 463.156 1.60219 3.0362 0
M  V30 4901 N 465.601 -1.54893 0.290851 0
M  V30 4902 C 466.847 -2.0023 -0.321867 0
M  V30 4903 C 467.18 -1.179 -1.54316 0
M  V30 4904 O 466.455 -0.25293 -1.92848 0
M  V30 4905 C 466.738 -3.53456 -0.688515 0
M  V30 4906 C 466.591 -4.46532 0.541209 0
M  V30 4907 C 467.91 -4.13057 -1.51895 0
M  V30 4908 H 465.029 -0.727891 -0.115515 0
M  V30 4909 H 467.671 -1.85722 0.400931 0
M  V30 4910 H 465.821 -3.6595 -1.30433 0
M  V30 4911 H 467.493 -4.4596 1.17973 0
M  V30 4912 H 465.736 -4.17545 1.17636 0
M  V30 4913 H 466.407 -5.51475 0.240675 0
M  V30 4914 H 468.883 -4.03937 -0.99872 0
M  V30 4915 H 467.759 -5.20448 -1.74429 0
M  V30 4916 H 468.02 -3.64284 -2.50498 0
M  V30 4917 N 467.08 -0.0183926 -1.57589 0
M  V30 4918 C 468.01 0.965596 -2.12599 0
M  V30 4919 C 468.991 1.34641 -1.0395 0
M  V30 4920 O 470.176 1.42693 -1.31729 0
M  V30 4921 C 467.306 2.25149 -2.64434 0
M  V30 4922 C 466.26 2.01175 -3.77773 0
M  V30 4923 C 465.586 3.35937 -4.15994 0
M  V30 4924 C 466.886 1.35953 -5.04296 0
M  V30 4925 H 468.58 0.507504 -2.95067 0
M  V30 4926 H 466.126 0.242671 -1.41941 0
M  V30 4927 H 468.079 2.94357 -3.01549 0
M  V30 4928 H 466.803 2.73105 -1.79112 0
M  V30 4929 H 465.462 1.34388 -3.4108 0
M  V30 4930 H 465.11 3.81631 -3.27669 0
M  V30 4931 H 464.81 3.20705 -4.92364 0
M  V30 4932 H 466.334 4.0643 -4.55683 0
M  V30 4933 H 467.748 1.95144 -5.39065 0
M  V30 4934 H 466.145 1.31152 -5.85593 0
M  V30 4935 H 467.215 0.331071 -4.83768 0
M  V30 4936 N 468.558 1.5553 0.254621 0
M  V30 4937 C 469.788 1.80784 1.00004 0
M  V30 4938 C 470.196 0.59071 1.79742 0
M  V30 4939 O 469.539 -0.449988 1.78103 0
M  V30 4940 C 469.601 2.99268 1.99196 0
M  V30 4941 C 469.265 4.35595 1.38224 0
M  V30 4942 C 470.262 5.13884 0.788611 0
M  V30 4943 C 467.947 4.82281 1.40393 0
M  V30 4944 C 469.941 6.37004 0.224783 0
M  V30 4945 C 467.628 6.05351 0.836243 0
M  V30 4946 C 468.626 6.82551 0.24769 0
M  V30 4947 O 468.314 8.03297 -0.311249 0
M  V30 4948 H 468.046 0.60565 0.300274 0
M  V30 4949 H 470.6 2.03411 0.285143 0
M  V30 4950 H 468.83 2.72377 2.74496 0
M  V30 4951 H 470.519 3.11682 2.60018 0
M  V30 4952 H 471.285 4.78938 0.764423 0
M  V30 4953 H 467.164 4.22189 1.85142 0
M  V30 4954 H 470.708 6.97203 -0.235235 0
M  V30 4955 H 466.605 6.39776 0.857733 0
M  V30 4956 H 467.373 8.1825 -0.20237 0
M  V30 4957 N 470.036 -0.519951 1.48776 0
M  V30 4958 C 470.999 -1.60574 1.6355 0
M  V30 4959 C 471.999 -1.52557 0.508234 0
M  V30 4960 O 473.189 -1.56047 0.774262 0
M  V30 4961 C 470.321 -3.00211 1.61512 0
M  V30 4962 H 471.514 -1.4881 2.60376 0
M  V30 4963 H 469.067 -0.742772 1.37523 0
M  V30 4964 H 469.802 -3.17471 0.662009 0
M  V30 4965 H 469.587 -3.07439 2.43359 0
M  V30 4966 H 471.077 -3.79134 1.75064 0
M  V30 4967 N 471.514 -1.37532 -0.769588 0
M  V30 4968 C 472.761 -1.3286 -1.52822 0
M  V30 4969 C 473.089 0.0862597 -1.94309 0
M  V30 4970 O 472.344 1.05995 -1.6451 0
M  V30 4971 C 472.643 -2.21558 -2.8044 0
M  V30 4972 C 472.309 -3.69796 -2.57996 0
M  V30 4973 C 470.971 -4.10194 -2.51583 0
M  V30 4974 C 473.323 -4.63699 -2.37976 0
M  V30 4975 C 470.651 -5.42608 -2.23144 0
M  V30 4976 C 473.003 -5.96353 -2.1106 0
M  V30 4977 C 471.667 -6.35853 -2.03093 0
M  V30 4978 H 470.937 -0.486168 -0.559215 0
M  V30 4979 H 473.584 -1.69757 -0.886277 0
M  V30 4980 H 471.889 -1.77663 -3.49204 0
M  V30 4981 H 473.586 -2.15256 -3.38328 0
M  V30 4982 H 470.176 -3.37759 -2.63851 0
M  V30 4983 H 474.36 -4.33346 -2.41919 0
M  V30 4984 H 469.616 -5.72173 -2.15472 0
M  V30 4985 H 473.79 -6.68667 -1.94568 0
M  V30 4986 H 471.417 -7.38382 -1.8082 0
M  V30 4987 N 472.992 0.995999 -1.22138 0
M  V30 4988 C 473.922 2.10387 -1.01289 0
M  V30 4989 C 474.903 1.69975 0.0651454 0
M  V30 4990 O 476.088 1.9396 -0.0964628 0
M  V30 4991 C 473.218 3.42312 -0.586517 0
M  V30 4992 C 472.172 3.96558 -1.61014 0
M  V30 4993 C 471.498 5.24494 -1.0397 0
M  V30 4994 C 472.798 4.27595 -2.99933 0
M  V30 4995 H 474.492 2.28086 -1.93951 0
M  V30 4996 H 472.038 1.09607 -0.933928 0
M  V30 4997 H 473.991 4.19223 -0.427793 0
M  V30 4998 H 472.715 3.24431 0.375761 0
M  V30 4999 H 471.374 3.21776 -1.75658 0
M  V30 5000 H 471.022 5.02953 -0.0688703 0
M  V30 5001 H 470.722 5.61755 -1.72352 0
M  V30 5002 H 472.246 6.04042 -0.892494 0
M  V30 5003 H 473.66 4.95315 -2.8868 0
M  V30 5004 H 472.057 4.76021 -3.6541 0
M  V30 5005 H 473.127 3.35498 -3.50099 0
M  V30 5006 N 474.47 1.03057 1.19235 0
M  V30 5007 C 475.747 0.642608 1.84743 0
M  V30 5008 C 476.127 -0.878577 1.91948 0
M  V30 5009 O 475.475 -1.77597 1.43776 0
M  V30 5010 C 475.685 1.30665 3.23616 0
M  V30 5011 C 477.033 1.43098 3.9976 0
M  V30 5012 O 478.057 1.26396 3.3302 0
M  V30 5013 O 476.916 1.70223 5.19313 0
M  V30 5014 H 474.01 0.223573 0.796206 0
M  V30 5015 H 476.556 1.12883 1.26711 0
M  V30 5016 H 475.328 2.34544 3.13217 0
M  V30 5017 H 474.951 0.808405 3.89295 0
M  V30 5018 N 475.948 -1.35272 0.808662 0
M  V30 5019 C 476.858 -2.33546 0.222079 0
M  V30 5020 C 477.874 -1.6196 -0.636011 0
M  V30 5021 O 479.05 -1.93822 -0.547274 0
M  V30 5022 C 476.115 -3.41148 -0.61795 0
M  V30 5023 C 475.176 -4.28507 0.260875 0
M  V30 5024 C 474.409 -5.3097 -0.539156 0
M  V30 5025 O 474.632 -5.42123 -1.77367 0
M  V30 5026 O 473.566 -6.01858 0.0710526 0
M  V30 5027 H 477.392 -2.85515 1.03512 0
M  V30 5028 H 474.977 -1.38079 0.570495 0
M  V30 5029 H 476.859 -4.06889 -1.09634 0
M  V30 5030 H 475.534 -2.91447 -1.40855 0
M  V30 5031 H 474.441 -3.6574 0.786451 0
M  V30 5032 H 475.774 -4.81611 1.01547 0
M  V30 5033 N 477.426 -0.562348 -1.47226 0
M  V30 5034 C 478.374 0.195476 -2.31777 0
M  V30 5035 C 479.368 0.90433 -1.43242 0
M  V30 5036 O 480.574 0.825031 -1.59979 0
M  V30 5037 H 476.949 0.0819095 -0.747526 0
M  V30 5038 H 478.92 -0.536753 -2.93533 0
M  V30 5039 C 477.669 1.20902 -3.26003 0
M  V30 5040 H 476.992 0.672997 -3.94095 0
M  V30 5041 H 478.432 1.71006 -3.87986 0
M  V30 5042 C 476.891 2.25955 -2.49891 0
M  V30 5043 O 477.421 3.32969 -2.2471 0
M  V30 5044 N 475.627 2.00019 -2.1081 0
M  V30 5045 H 475.174 1.13006 -2.31489 0
M  V30 5046 H 475.132 2.70523 -1.60201 0
M  V30 5047 N 478.904 1.54736 -0.299062 0
M  V30 5048 C 480.151 2.00101 0.310784 0
M  V30 5049 C 480.479 1.18746 1.54045 0
M  V30 5050 O 479.734 0.251198 1.94081 0
M  V30 5051 C 480.033 3.50199 0.713835 0
M  V30 5052 C 479.699 4.48997 -0.413873 0
M  V30 5053 C 478.361 4.7573 -0.723462 0
M  V30 5054 C 480.713 5.07839 -1.17257 0
M  V30 5055 C 478.041 5.5857 -1.79491 0
M  V30 5056 C 480.393 5.91844 -2.23392 0
M  V30 5057 C 479.057 6.16889 -2.54959 0
M  V30 5058 H 478.327 0.732221 0.113724 0
M  V30 5059 H 480.974 1.86888 -0.417756 0
M  V30 5060 H 479.279 3.61012 1.52243 0
M  V30 5061 H 480.976 3.82723 1.19684 0
M  V30 5062 H 477.566 4.28292 -0.162476 0
M  V30 5063 H 481.75 4.87188 -0.946651 0
M  V30 5064 H 477.006 5.76213 -2.04423 0
M  V30 5065 H 481.18 6.36465 -2.8264 0
M  V30 5066 H 478.807 6.80869 -3.38114 0
M  V30 5067 N 480.382 0.0267497 1.57577 0
M  V30 5068 C 481.329 -0.955894 2.10075 0
M  V30 5069 C 482.299 -1.32453 1.00226 0
M  V30 5070 O 483.484 -1.41826 1.27632 0
M  V30 5071 C 480.624 -2.2338 2.6305 0
M  V30 5072 C 479.737 -1.92183 3.86898 0
M  V30 5073 C 478.872 -3.14251 4.28275 0
M  V30 5074 C 477.911 -2.78862 5.44888 0
M  V30 5075 N 477.048 -3.93548 5.81433 0
M  V30 5076 H 481.888 -0.501303 2.93753 0
M  V30 5077 H 479.425 -0.235847 1.45197 0
M  V30 5078 H 481.383 -2.98124 2.91853 0
M  V30 5079 H 480.013 -2.6646 1.82205 0
M  V30 5080 H 479.065 -1.07692 3.64838 0
M  V30 5081 H 480.377 -1.62117 4.7172 0
M  V30 5082 H 479.531 -3.97317 4.58502 0
M  V30 5083 H 478.27 -3.47476 3.42215 0
M  V30 5084 H 477.275 -1.94208 5.14357 0
M  V30 5085 H 478.5 -2.46855 6.32645 0
M  V30 5086 H 476.446 -4.2662 4.98328 0
M  V30 5087 H 476.363 -3.67098 6.6089 0
M  V30 5088 H 477.631 -4.77325 6.16264 0
M  V30 5089 N 481.861 -1.55662 -0.24637 0
M  V30 5090 C 483.277 -1.48098 -0.594907 0
M  V30 5091 C 483.477 -0.717044 -1.8831 0
M  V30 5092 O 482.533 -0.246618 -2.51293 0
M  V30 5093 C 483.846 -2.92507 -0.697146 0
M  V30 5094 C 485.394 -3.02881 -0.789436 0
M  V30 5095 C 485.869 -4.48598 -0.923232 0
M  V30 5096 N 487.36 -4.52538 -0.988088 0
M  V30 5097 C 488.095 -5.62536 -1.11089 0
M  V30 5098 N 487.591 -6.82342 -1.19919 0
M  V30 5099 N 489.384 -5.50334 -1.14408 0
M  V30 5100 H 481.535 -2.0377 0.599278 0
M  V30 5101 H 483.798 -0.925145 0.20691 0
M  V30 5102 H 483.504 -3.51242 0.179396 0
M  V30 5103 H 483.378 -3.43024 -1.5689 0
M  V30 5104 H 485.765 -2.44226 -1.65643 0
M  V30 5105 H 485.846 -2.55574 0.107482 0
M  V30 5106 H 485.49 -5.07864 -0.0607927 0
M  V30 5107 H 485.42 -4.93587 -1.8352 0
M  V30 5108 H 487.911 -3.66248 -0.931167 0
M  V30 5109 H 488.224 -7.61924 -1.29197 0
M  V30 5110 H 486.569 -6.85102 -1.16876 0
M  V30 5111 H 489.76 -4.5567 -1.07158 0
M  V30 5112 H 489.933 -6.36096 -1.23634 0
M  V30 5113 N 483.339 0.512053 -1.4905 0
M  V30 5114 C 484.579 1.27715 -1.59588 0
M  V30 5115 C 484.943 1.90071 -0.271502 0
M  V30 5116 O 486.144 2.67616 -0.251987 0
M  V30 5117 C 484.415 2.32399 -2.71524 0
M  V30 5118 S 485.974 3.18396 -3.01943 0
M  V30 5119 H 482.792 0.43419 -0.563027 0
M  V30 5120 H 485.394 0.581315 -1.86657 0
M  V30 5121 H 484.098 1.85101 -3.66287 0
M  V30 5122 H 483.629 3.06667 -2.46412 0
M  V30 5123 H 485.644 4.32842 -2.42616 0
M  V30 5124 N 484.817 1.37938 0.762283 0
M  V30 5125 C 486.064 1.33668 1.52115 0
M  V30 5126 C 486.392 -0.0759538 1.94352 0
M  V30 5127 O 485.647 -1.05121 1.6507 0
M  V30 5128 C 485.946 2.23042 2.79261 0
M  V30 5129 C 485.612 3.71159 2.56031 0
M  V30 5130 C 484.274 4.11523 2.49404 0
M  V30 5131 C 486.626 4.64955 2.35513 0
M  V30 5132 C 483.954 5.43784 2.20263 0
M  V30 5133 C 486.306 5.97464 2.07894 0
M  V30 5134 C 484.97 6.36922 1.99718 0
M  V30 5135 H 484.24 0.489127 0.556629 0
M  V30 5136 H 486.887 1.70224 0.877262 0
M  V30 5137 H 485.192 1.79512 3.48256 0
M  V30 5138 H 486.889 2.17047 3.37182 0
M  V30 5139 H 483.479 3.39153 2.62056 0
M  V30 5140 H 487.663 4.34623 2.39617 0
M  V30 5141 H 482.919 5.73307 2.12435 0
M  V30 5142 H 487.093 6.6969 1.91019 0
M  V30 5143 H 484.72 7.39331 1.76902 0
M  V30 5144 N 486.295 -0.989507 1.22664 0
M  V30 5145 C 487.711 -1.25395 0.987331 0
M  V30 5146 C 487.911 -1.9899 -0.317056 0
M  V30 5147 O 486.967 -2.30141 -1.03882 0
M  V30 5148 C 488.28 -2.06242 2.18826 0
M  V30 5149 C 489.828 -2.19413 2.23219 0
M  V30 5150 C 490.303 -3.03648 3.42873 0
M  V30 5151 N 491.794 -3.11234 3.43056 0
M  V30 5152 C 492.529 -3.7671 4.32293 0
M  V30 5153 N 492.025 -4.44085 5.31752 0
M  V30 5154 N 493.818 -3.73505 4.2006 0
M  V30 5155 H 485.969 -0.496212 2.06522 0
M  V30 5156 H 488.232 -0.281784 0.905153 0
M  V30 5157 H 487.938 -1.59531 3.13437 0
M  V30 5158 H 487.812 -3.06996 2.19165 0
M  V30 5159 H 490.199 -2.65336 1.29154 0
M  V30 5160 H 490.28 -1.18078 2.26917 0
M  V30 5161 H 489.924 -2.58424 4.37241 0
M  V30 5162 H 489.854 -4.05132 3.36416 0
M  V30 5163 H 492.345 -2.63287 2.71088 0
M  V30 5164 H 492.658 -4.91797 5.96117 0
M  V30 5165 H 491.003 -4.42822 5.35662 0
M  V30 5166 H 494.194 -3.20033 3.41609 0
M  V30 5167 H 494.367 -4.24253 4.8981 0
M  V30 5168 N 487.773 -1.03688 -1.18687 0
M  V30 5169 C 488.705 -0.582696 -2.21669 0
M  V30 5170 C 489.718 0.345656 -1.59088 0
M  V30 5171 O 490.907 0.140776 -1.77944 0
M  V30 5172 C 488.007 0.169204 -3.38477 0
M  V30 5173 C 487.18 -0.766079 -4.30639 0
M  V30 5174 C 486.239 -0.0581541 -5.26168 0
M  V30 5175 O 485.265 -0.687346 -5.65035 0
M  V30 5176 N 486.467 1.20981 -5.67753 0
M  V30 5177 H 489.232 -1.46843 -2.61261 0
M  V30 5178 H 486.793 -0.916896 -1.33434 0
M  V30 5179 H 488.785 0.652543 -3.99405 0
M  V30 5180 H 487.355 0.956435 -2.97609 0
M  V30 5181 H 486.575 -1.42935 -3.67373 0
M  V30 5182 H 487.863 -1.40146 -4.89118 0
M  V30 5183 H 487.261 1.74159 -5.38224 0
M  V30 5184 H 485.818 1.6375 -6.30896 0
M  V30 5185 N 489.251 1.34841 -0.815825 0
M  V30 5186 C 490.181 2.32187 -0.247298 0
M  V30 5187 C 491.162 1.5791 0.632344 0
M  V30 5188 O 492.347 1.8593 0.560698 0
M  V30 5189 C 489.477 3.42122 0.597466 0
M  V30 5190 C 488.431 4.27602 -0.184446 0
M  V30 5191 C 487.757 5.28942 0.782609 0
M  V30 5192 C 489.057 5.03502 -1.38865 0
M  V30 5193 H 490.751 2.79985 -1.06061 0
M  V30 5194 H 488.297 1.34611 -0.511461 0
M  V30 5195 H 490.25 4.09232 1.00533 0
M  V30 5196 H 488.974 2.92956 1.44376 0
M  V30 5197 H 487.633 3.62085 -0.573592 0
M  V30 5198 H 487.281 4.7604 1.62466 0
M  V30 5199 H 486.981 5.87008 0.263695 0
M  V30 5200 H 488.505 5.98922 1.18848 0
M  V30 5201 H 489.919 5.63506 -1.05518 0
M  V30 5202 H 488.316 5.71108 -1.8427 0
M  V30 5203 H 489.386 4.33608 -2.17054 0
M  V30 5204 N 490.729 0.570148 1.46925 0
M  V30 5205 C 491.969 0.0534743 2.0433 0
M  V30 5206 C 492.333 -1.27729 1.4335 0
M  V30 5207 O 493.534 -1.88244 1.91879 0
M  V30 5208 C 491.805 -0.0244296 3.57392 0
M  V30 5209 S 493.364 -0.485351 4.36108 0
M  V30 5210 H 490.182 0.0313908 0.710307 0
M  V30 5211 H 492.784 0.759808 1.80131 0
M  V30 5212 H 491.488 0.948261 3.99295 0
M  V30 5213 H 491.019 -0.753922 3.86108 0
M  V30 5214 H 493.034 -1.74258 4.64595 0
M  V30 5215 N 492.207 -1.54576 0.307264 0
M  V30 5216 C 493.623 -1.59534 -0.0459251 0
M  V30 5217 C 493.823 -1.32414 -1.51884 0
M  V30 5218 O 492.879 -1.1006 -2.27251 0
M  V30 5219 C 494.192 -2.98566 0.357649 0
M  V30 5220 C 495.74 -3.11491 0.306937 0
M  V30 5221 C 496.215 -4.52842 0.685427 0
M  V30 5222 N 497.706 -4.58782 0.638203 0
M  V30 5223 C 498.441 -5.66238 0.903458 0
M  V30 5224 N 497.937 -6.81703 1.23501 0
M  V30 5225 N 499.73 -5.55937 0.830102 0
M  V30 5226 H 491.881 -1.70464 1.26712 0
M  V30 5227 H 494.144 -0.79647 0.514139 0
M  V30 5228 H 493.85 -3.23356 1.38325 0
M  V30 5229 H 493.724 -3.76117 -0.285565 0
M  V30 5230 H 496.111 -2.86446 -0.709424 0
M  V30 5231 H 496.192 -2.36081 0.984861 0
M  V30 5232 H 495.836 -4.78618 1.69963 0
M  V30 5233 H 495.766 -5.26598 -0.0146346 0
M  V30 5234 H 498.257 -3.75849 0.393138 0
M  V30 5235 H 498.57 -7.59582 1.42322 0
M  V30 5236 H 496.915 -6.8324 1.27311 0
M  V30 5237 H 500.106 -4.64608 0.570693 0
M  V30 5238 H 500.279 -6.39597 1.04019 0
M  V30 5239 N 493.685 -0.035106 -1.57561 0
M  V30 5240 C 494.632 0.94474 -2.10578 0
M  V30 5241 C 495.602 1.3192 -1.00927 0
M  V30 5242 O 496.787 1.41147 -1.28382 0
M  V30 5243 C 493.927 2.21982 -2.64231 0
M  V30 5244 C 493.04 1.90128 -3.87911 0
M  V30 5245 C 492.175 3.11975 -4.29936 0
M  V30 5246 C 491.214 2.75968 -5.46359 0
M  V30 5247 N 490.351 3.90459 -5.83512 0
M  V30 5248 H 495.191 0.485717 -2.94015 0
M  V30 5249 H 492.728 0.228143 -1.4532 0
M  V30 5250 H 494.686 2.96572 -2.9343 0
M  V30 5251 H 493.316 2.6549 -1.83616 0
M  V30 5252 H 492.368 1.05755 -3.65404 0
M  V30 5253 H 493.68 1.59613 -4.72573 0
M  V30 5254 H 492.834 3.9488 -4.60603 0
M  V30 5255 H 491.573 3.45657 -3.44053 0
M  V30 5256 H 490.578 1.91478 -5.1538 0
M  V30 5257 H 491.803 2.43497 -6.33945 0
M  V30 5258 H 489.749 4.23971 -5.00584 0
M  V30 5259 H 489.666 3.63588 -6.62827 0
M  V30 5260 H 490.934 4.7405 -6.18787 0
M  V30 5261 N 495.163 1.55791 0.238111 0
M  V30 5262 C 496.574 1.68383 0.806472 0
M  V30 5263 C 496.925 0.634157 1.85669 0
M  V30 5264 O 496.05 -0.217913 2.153 0
M  V30 5265 C 496.645 3.05268 1.46959 0
M  V30 5266 C 495.204 3.1977 1.98555 0
M  V30 5267 C 494.351 2.64279 0.839763 0
M  V30 5268 H 497.302 1.58694 0.0137535 0
M  V30 5269 H 497.323 3.00203 2.33792 0
M  V30 5270 H 496.835 3.81643 0.704993 0
M  V30 5271 H 494.936 2.48234 2.77868 0
M  V30 5272 H 495.049 4.26788 2.17689 0
M  V30 5273 H 493.413 2.22329 1.24265 0
M  V30 5274 H 494.196 3.43187 0.0881032 0
M  V30 5275 N 496.642 -0.504142 1.49319 0
M  V30 5276 C 497.882 -1.26867 1.60263 0
M  V30 5277 C 498.246 -1.89924 0.281578 0
M  V30 5278 O 499.447 -2.67479 0.266176 0
M  V30 5279 C 497.718 -2.30956 2.72753 0
M  V30 5280 S 499.277 -3.1679 3.03628 0
M  V30 5281 H 496.095 -0.431198 0.565322 0
M  V30 5282 H 498.697 -0.571407 1.86963 0
M  V30 5283 H 497.401 -1.83156 3.67263 0
M  V30 5284 H 496.932 -3.05356 2.48035 0
M  V30 5285 H 498.947 -4.31549 2.44908 0
M  V30 5286 N 498.12 -1.38341 -0.754957 0
M  V30 5287 C 499.368 -1.34208 -1.51105 0
M  V30 5288 C 499.689 0.0677634 -1.94882 0
M  V30 5289 O 498.959 1.01517 -1.67544 0
M  V30 5290 H 497.539 -0.493819 -0.560493 0
M  V30 5291 H 500.201 -1.73005 -0.897507 0
M  V30 5292 H 499.297 -1.99203 -2.4026 0
M  V30 5293 N 499.598 0.982988 -1.23187 0
M  V30 5294 C 501.014 1.2487 -0.993967 0
M  V30 5295 C 501.214 1.99155 0.306498 0
M  V30 5296 O 500.27 2.30688 1.0266 0
M  V30 5297 C 501.583 2.05078 -2.19917 0
M  V30 5298 C 503.131 2.18227 -2.2438 0
M  V30 5299 C 503.606 3.01825 -3.44479 0
M  V30 5300 N 505.097 3.09411 -3.44702 0
M  V30 5301 C 505.832 3.74412 -4.34285 0
M  V30 5302 N 505.328 4.41259 -5.341 0
M  V30 5303 N 507.121 3.71273 -4.22035 0
M  V30 5304 H 499.272 0.485253 -2.06783 0
M  V30 5305 H 501.535 0.276979 -0.906635 0
M  V30 5306 H 501.241 1.57867 -3.14279 0
M  V30 5307 H 501.115 3.05829 -2.2079 0
M  V30 5308 H 503.502 2.64648 -1.30559 0
M  V30 5309 H 503.583 1.16873 -2.2754 0
M  V30 5310 H 503.227 2.56102 -4.38605 0
M  V30 5311 H 503.157 4.03342 -3.38559 0
M  V30 5312 H 505.648 2.61845 -2.7248 0
M  V30 5313 H 505.961 4.88629 -5.98717 0
M  V30 5314 H 504.306 4.39975 -5.38002 0
M  V30 5315 H 507.497 3.18217 -3.43301 0
M  V30 5316 H 507.67 4.21649 -4.92053 0
M  V30 5317 N 501.076 1.04316 1.18135 0
M  V30 5318 C 502.487 0.775505 1.69832 0
M  V30 5319 C 502.838 -0.703348 1.8316 0
M  V30 5320 O 501.963 -1.54729 1.51287 0
M  V30 5321 C 502.558 1.40112 3.0847 0
M  V30 5322 C 501.117 1.18172 3.57368 0
M  V30 5323 C 500.264 1.49022 2.33854 0
M  V30 5324 H 503.215 1.20925 1.02775 0
M  V30 5325 H 503.236 0.805672 3.71873 0
M  V30 5326 H 502.748 2.47744 2.98738 0
M  V30 5327 H 500.849 0.124258 3.72393 0
M  V30 5328 H 500.962 1.8805 4.40652 0
M  V30 5329 H 499.326 0.909995 2.37889 0
M  V30 5330 H 500.109 2.57768 2.26738 0
M  V30 5331 N 502.554 -1.34406 0.822964 0
M  V30 5332 C 503.831 -1.92733 0.333641 0
M  V30 5333 C 504.211 -1.75107 -1.17901 0
M  V30 5334 O 503.559 -1.12983 -1.98613 0
M  V30 5335 C 503.769 -3.40557 0.763023 0
M  V30 5336 C 505.117 -4.17709 0.761879 0
M  V30 5337 O 506.141 -3.49141 0.705606 0
M  V30 5338 O 505 -5.40082 0.835109 0
M  V30 5339 H 502.094 -0.821964 0.0911249 0
M  V30 5340 H 504.64 -1.4338 0.907757 0
M  V30 5341 H 503.412 -3.47187 1.8049 0
M  V30 5342 H 503.035 -3.97259 0.164605 0
M  V30 5343 N 504.032 -0.577932 -1.46621 0
M  V30 5344 C 505.443 -0.150071 -1.86096 0
M  V30 5345 C 505.794 1.28563 -1.48209 0
M  V30 5346 O 504.919 1.97036 -0.894754 0
M  V30 5347 C 505.514 -0.265576 -3.37758 0
M  V30 5348 C 504.073 0.10738 -3.76247 0
M  V30 5349 C 503.22 -0.603711 -2.70649 0
M  V30 5350 H 506.171 -0.786438 -1.37844 0
M  V30 5351 H 506.192 0.510352 -3.77062 0
M  V30 5352 H 505.704 -1.3106 -3.65301 0
M  V30 5353 H 503.805 1.15272 -3.54321 0
M  V30 5354 H 503.918 -0.26561 -4.78363 0
M  V30 5355 H 502.282 -0.0444884 -2.54661 0
M  V30 5356 H 503.065 -1.65029 -3.01032 0
M  V30 5357 N 505.51 1.54411 -0.315457 0
M  V30 5358 C 506.735 2.05299 0.294496 0
M  V30 5359 C 507.16 1.19052 1.4563 0
M  V30 5360 O 506.518 0.197804 1.80218 0
M  V30 5361 C 506.566 3.5345 0.714549 0
M  V30 5362 O 505.67 3.70175 1.81781 0
M  V30 5363 H 505.011 0.661743 0.0547019 0
M  V30 5364 H 507.541 1.99327 -0.461508 0
M  V30 5365 H 507.551 3.9557 0.999426 0
M  V30 5366 H 506.226 4.1568 -0.135244 0
M  V30 5367 H 504.803 3.3996 1.53236 0
M  V30 5368 N 506.988 0.0434614 1.5754 0
M  V30 5369 C 508.213 -0.645358 1.97104 0
M  V30 5370 C 508.638 -1.64037 0.920521 0
M  V30 5371 O 507.996 -1.80922 -0.11708 0
M  V30 5372 C 508.044 -1.31547 3.35749 0
M  V30 5373 O 507.148 -2.43103 3.33129 0
M  V30 5374 H 506.489 -0.168403 0.64229 0
M  V30 5375 H 509.019 0.109573 2.04306 0
M  V30 5376 H 509.029 -1.66895 3.72304 0
M  V30 5377 H 507.704 -0.586205 4.11748 0
M  V30 5378 H 506.281 -2.0976 3.0831 0
M  V30 5379 N 508.466 -1.55915 -0.229846 0
M  V30 5380 C 509.713 -1.78542 -0.955452 0
M  V30 5381 C 510.041 -0.610785 -1.84661 0
M  V30 5382 O 509.296 0.405213 -1.91459 0
M  V30 5383 C 509.595 -3.06845 -1.8325 0
M  V30 5384 C 509.261 -4.37395 -1.09528 0
M  V30 5385 C 507.923 -4.72868 -0.891598 0
M  V30 5386 C 510.275 -5.18029 -0.574046 0
M  V30 5387 C 507.603 -5.86496 -0.154655 0
M  V30 5388 C 509.955 -6.32423 0.149513 0
M  V30 5389 C 508.619 -6.66504 0.364519 0
M  V30 5390 H 507.889 -0.653333 -0.349625 0
M  V30 5391 H 510.536 -1.90183 -0.224235 0
M  V30 5392 H 508.841 -2.90291 -2.63132 0
M  V30 5393 H 510.538 -3.21553 -2.39592 0
M  V30 5394 H 507.128 -4.09538 -1.26399 0
M  V30 5395 H 511.312 -4.91066 -0.718899 0
M  V30 5396 H 506.568 -6.11396 0.0222356 0
M  V30 5397 H 510.742 -6.94137 0.560947 0
M  V30 5398 H 508.369 -7.54397 0.937495 0
M  V30 5399 N 509.944 0.496216 -1.49584 0
M  V30 5400 C 511.169 1.27865 -1.63295 0
M  V30 5401 C 511.594 1.85592 -0.306156 0
M  V30 5402 O 510.952 1.66092 0.726851 0
M  V30 5403 C 511 2.38128 -2.7079 0
M  V30 5404 O 510.104 3.42108 -2.30296 0
M  V30 5405 H 509.445 0.377279 -0.546403 0
M  V30 5406 H 511.975 0.593497 -1.95803 0
M  V30 5407 H 511.985 2.8382 -2.93104 0
M  V30 5408 H 510.66 1.95479 -3.67098 0
M  V30 5409 H 509.237 3.02301 -2.18331 0
M  V30 5410 N 511.423 1.38739 0.74761 0
M  V30 5411 C 512.839 1.20067 1.05148 0
M  V30 5412 C 513.039 0.0534835 2.01429 0
M  V30 5413 O 512.095 -0.59886 2.45296 0
M  V30 5414 C 513.408 2.52957 1.62584 0
M  V30 5415 C 514.956 2.59692 1.74726 0
M  V30 5416 C 515.431 3.92772 2.35573 0
M  V30 5417 N 516.922 3.94343 2.42997 0
M  V30 5418 C 517.657 4.9408 2.90985 0
M  V30 5419 N 517.153 6.04214 3.38965 0
M  V30 5420 N 518.946 4.81466 2.9008 0
M  V30 5421 H 511.097 2.12121 0.108808 0
M  V30 5422 H 513.36 0.941491 0.110899 0
M  V30 5423 H 513.066 3.37389 0.993051 0
M  V30 5424 H 512.94 2.71779 2.61565 0
M  V30 5425 H 515.327 1.75651 2.3713 0
M  V30 5426 H 515.408 2.44731 0.744326 0
M  V30 5427 H 515.052 4.77238 1.738 0
M  V30 5428 H 514.982 4.05046 3.36519 0
M  V30 5429 H 517.473 3.14799 2.0907 0
M  V30 5430 H 517.786 6.76241 3.74056 0
M  V30 5431 H 516.131 6.07825 3.37007 0
M  V30 5432 H 519.322 3.94535 2.51912 0
M  V30 5433 H 519.495 5.59344 3.27166 0
M  V30 5434 N 512.901 -0.976442 1.23707 0
M  V30 5435 C 513.864 -2.0511 1.02287 0
M  V30 5436 C 514.864 -1.60791 -0.0167195 0
M  V30 5437 O 516.054 -1.72761 0.223408 0
M  V30 5438 C 513.186 -3.36458 0.548507 0
M  V30 5439 H 514.379 -2.25545 1.9766 0
M  V30 5440 H 511.932 -1.15042 1.05806 0
M  V30 5441 H 512.667 -3.21713 -0.408818 0
M  V30 5442 H 512.452 -3.69967 1.29874 0
M  V30 5443 H 513.942 -4.15489 0.419406 0
M  V30 5444 N 514.379 -1.04941 -1.1758 0
M  V30 5445 C 515.795 -0.770282 -1.39781 0
M  V30 5446 C 515.995 0.636417 -1.91186 0
M  V30 5447 O 515.051 1.39923 -2.10185 0
M  V30 5448 C 516.364 -1.82376 -2.3908 0
M  V30 5449 C 517.912 -1.84569 -2.52791 0
M  V30 5450 C 518.387 -2.88933 -3.55361 0
M  V30 5451 N 519.878 -2.8788 -3.62877 0
M  V30 5452 C 520.613 -3.65282 -4.41992 0
M  V30 5453 N 520.109 -4.52461 -5.24643 0
M  V30 5454 N 521.902 -3.53732 -4.36841 0
M  V30 5455 H 514.053 -1.95705 -0.825438 0
M  V30 5456 H 516.316 -0.847284 -0.425222 0
M  V30 5457 H 516.022 -2.83323 -2.08376 0
M  V30 5458 H 515.896 -1.66327 -3.38549 0
M  V30 5459 H 518.283 -0.842879 -2.82807 0
M  V30 5460 H 518.364 -2.04696 -1.53406 0
M  V30 5461 H 518.008 -3.89398 -3.26085 0
M  V30 5462 H 517.938 -2.66059 -4.54445 0
M  V30 5463 H 520.429 -2.24666 -3.03864 0
M  V30 5464 H 520.742 -5.08211 -5.82187 0
M  V30 5465 H 519.087 -4.56524 -5.24033 0
M  V30 5466 H 522.278 -2.85021 -3.71323 0
M  V30 5467 H 522.451 -4.14302 -4.98255 0
M  V30 5468 N 515.857 1.33968 -0.830081 0
M  V30 5469 C 516.767 2.33164 -0.259207 0
M  V30 5470 C 517.783 1.62951 0.610164 0
M  V30 5471 O 518.959 1.94668 0.516369 0
M  V30 5472 C 516.024 3.42088 0.563598 0
M  V30 5473 C 515.085 4.28037 -0.329014 0
M  V30 5474 C 514.318 5.3176 0.454616 0
M  V30 5475 O 514.541 5.44876 1.6872 0
M  V30 5476 O 513.475 6.01669 -0.166794 0
M  V30 5477 H 517.301 2.83832 -1.08041 0
M  V30 5478 H 514.886 1.37154 -0.59239 0
M  V30 5479 H 516.768 4.08581 1.03147 0
M  V30 5480 H 515.443 2.93651 1.36201 0
M  V30 5481 H 514.35 3.64443 -0.844538 0
M  V30 5482 H 515.683 4.79934 -1.09196 0
M  V30 5483 N 517.335 0.585699 1.46312 0
M  V30 5484 C 518.298 -0.135673 2.28798 0
M  V30 5485 C 519.298 -0.815988 1.38558 0
M  V30 5486 O 520.488 -0.667487 1.60904 0
M  V30 5487 C 517.62 -1.20163 3.1902 0
M  V30 5488 H 518.813 0.589257 2.94054 0
M  V30 5489 H 516.366 0.343794 1.52472 0
M  V30 5490 H 517.101 -1.95804 2.58517 0
M  V30 5491 H 516.886 -0.718282 3.85465 0
M  V30 5492 H 518.376 -1.70749 3.81096 0
M  V30 5493 N 518.813 -1.54241 0.323641 0
M  V30 5494 C 520.041 -2.04985 -0.280871 0
M  V30 5495 C 520.456 -1.19978 -1.45777 0
M  V30 5496 O 519.813 -0.230471 -1.81039 0
M  V30 5497 C 519.864 -3.54353 -0.715258 0
M  V30 5498 O 519.585 -4.36132 0.414817 0
M  V30 5499 C 521.086 -4.21189 -1.38257 0
M  V30 5500 H 518.306 -0.66851 -0.0577502 0
M  V30 5501 H 520.85 -1.99029 0.469852 0
M  V30 5502 H 519.005 -3.60596 -1.41596 0
M  V30 5503 H 519.419 -5.2445 0.0725227 0
M  V30 5504 H 520.893 -5.27154 -1.63745 0
M  V30 5505 H 521.37 -3.72307 -2.32989 0
M  V30 5506 H 521.976 -4.19085 -0.724447 0
M  V30 5507 N 520.291 -0.0518155 -1.57515 0
M  V30 5508 C 521.254 0.907547 -2.10467 0
M  V30 5509 C 522.254 1.23947 -1.02439 0
M  V30 5510 O 523.444 1.17604 -1.2851 0
M  V30 5511 C 520.576 2.21723 -2.58944 0
M  V30 5512 H 521.769 0.44851 -2.96527 0
M  V30 5513 H 519.322 0.196598 -1.55059 0
M  V30 5514 H 520.057 2.72206 -1.76279 0
M  V30 5515 H 519.842 1.98935 -3.37886 0
M  V30 5516 H 521.332 2.90441 -3.00056 0
M  V30 5517 N 521.769 1.56035 0.221574 0
M  V30 5518 C 523.185 1.49026 0.571271 0
M  V30 5519 C 523.385 0.746912 1.87146 0
M  V30 5520 O 522.441 0.286566 2.50869 0
M  V30 5521 C 523.754 2.93579 0.650522 0
M  V30 5522 C 525.302 3.04099 0.741151 0
M  V30 5523 C 525.777 4.5001 0.851747 0
M  V30 5524 N 527.268 4.54053 0.915968 0
M  V30 5525 C 528.003 5.64232 1.02125 0
M  V30 5526 N 527.499 6.84164 1.09049 0
M  V30 5527 N 529.292 5.52084 1.05639 0
M  V30 5528 H 521.443 2.02791 -0.63162 0
M  V30 5529 H 523.706 0.921736 -0.221602 0
M  V30 5530 H 523.412 3.50912 -0.235253 0
M  V30 5531 H 523.286 3.45476 1.51413 0
M  V30 5532 H 525.673 2.4683 1.61737 0
M  V30 5533 H 525.754 2.55371 -0.148128 0
M  V30 5534 H 525.398 5.07896 -0.0200117 0
M  V30 5535 H 525.328 4.96444 1.75644 0
M  V30 5536 H 527.819 3.67683 0.872782 0
M  V30 5537 H 528.132 7.63883 1.1706 0
M  V30 5538 H 526.477 6.86875 1.05962 0
M  V30 5539 H 529.668 4.57317 0.998953 0
M  V30 5540 H 529.841 6.37983 1.13498 0
M  V30 5541 N 523.247 -0.488276 1.49845 0
M  V30 5542 C 524.157 -1.61451 1.70207 0
M  V30 5543 C 525.173 -1.63877 0.584846 0
M  V30 5544 O 526.349 -1.82063 0.861107 0
M  V30 5545 C 523.414 -2.9776 1.77594 0
M  V30 5546 C 522.475 -3.05861 3.01243 0
M  V30 5547 C 521.708 -4.35668 3.08268 0
M  V30 5548 O 521.931 -5.25197 2.22541 0
M  V30 5549 O 520.865 -4.49005 4.00847 0
M  V30 5550 H 524.691 -1.47199 2.65643 0
M  V30 5551 H 522.276 -0.665939 1.33737 0
M  V30 5552 H 524.158 -3.7875 1.84732 0
M  V30 5553 H 522.833 -3.12248 0.8534 0
M  V30 5554 H 521.74 -2.24012 2.99616 0
M  V30 5555 H 523.073 -2.96304 3.9302 0
M  V30 5556 N 524.725 -1.39134 -0.740242 0
M  V30 5557 C 526.141 -1.20623 -1.0451 0
M  V30 5558 C 526.341 -0.0641651 -2.01398 0
M  V30 5559 O 525.397 0.585843 -2.4561 0
M  V30 5560 C 526.71 -2.53815 -1.6124 0
M  V30 5561 C 528.258 -2.60615 -1.73346 0
M  V30 5562 C 528.733 -3.94015 -2.33486 0
M  V30 5563 N 530.224 -3.95627 -2.40902 0
M  V30 5564 C 530.959 -4.95616 -2.88361 0
M  V30 5565 N 530.455 -6.06003 -3.35756 0
M  V30 5566 N 532.248 -4.82998 -2.87523 0
M  V30 5567 H 524.399 -2.12176 -0.0975576 0
M  V30 5568 H 526.662 -0.942066 -0.105904 0
M  V30 5569 H 526.368 -3.37911 -0.975144 0
M  V30 5570 H 526.242 -2.73162 -2.6012 0
M  V30 5571 H 528.629 -1.76906 -2.36195 0
M  V30 5572 H 528.71 -2.45123 -0.731336 0
M  V30 5573 H 528.354 -4.78153 -1.71267 0
M  V30 5574 H 528.284 -4.06825 -3.34366 0
M  V30 5575 H 530.775 -3.15903 -2.07398 0
M  V30 5576 H 531.088 -6.78215 -3.70464 0
M  V30 5577 H 529.433 -6.09604 -3.33778 0
M  V30 5578 H 532.624 -3.95866 -2.49816 0
M  V30 5579 H 532.797 -5.61072 -3.24196 0
M  V30 5580 N 526.204 0.969867 -1.24223 0
M  V30 5581 C 527.45 1.7151 -1.08223 0
M  V30 5582 C 527.783 1.90478 0.37838 0
M  V30 5583 O 527.058 1.4647 1.27971 0
M  V30 5584 C 527.341 3.10714 -1.82013 0
M  V30 5585 C 527.194 2.9925 -3.35811 0
M  V30 5586 C 528.513 4.10332 -1.59108 0
M  V30 5587 H 525.632 0.622499 -0.394543 0
M  V30 5588 H 528.274 1.1284 -1.52863 0
M  V30 5589 H 526.424 3.608 -1.44068 0
M  V30 5590 H 528.096 2.56608 -3.83341 0
M  V30 5591 H 526.339 2.35512 -3.64303 0
M  V30 5592 H 527.01 3.97857 -3.82641 0
M  V30 5593 H 529.486 3.69097 -1.92111 0
M  V30 5594 H 528.362 5.05804 -2.13198 0
M  V30 5595 H 528.623 4.38926 -0.528832 0
M  V30 5596 N 527.682 1.05563 1.17022 0
M  V30 5597 C 528.91 0.78845 1.91288 0
M  V30 5598 C 529.325 -0.656318 1.77025 0
M  V30 5599 O 528.682 -1.44869 1.10992 0
M  V30 5600 C 528.733 1.16444 3.42232 0
M  V30 5601 O 528.454 2.5525 3.5606 0
M  V30 5602 C 529.955 0.923937 4.33565 0
M  V30 5603 H 527.175 0.286389 0.606813 0
M  V30 5604 H 529.719 1.4073 1.48375 0
M  V30 5605 H 527.874 0.590266 3.82877 0
M  V30 5606 H 528.288 2.70097 4.49609 0
M  V30 5607 H 529.762 1.23672 5.37968 0
M  V30 5608 H 530.239 -0.140688 4.38975 0
M  V30 5609 H 530.845 1.48214 3.98639 0
M  V30 5610 N 529.16 -1.33526 0.837174 0
M  V30 5611 C 530.123 -2.27551 0.274421 0
M  V30 5612 C 531.123 -1.50886 -0.555881 0
M  V30 5613 O 532.313 -1.70227 -0.369918 0
M  V30 5614 C 529.445 -3.35332 -0.613605 0
M  V30 5615 H 530.638 -2.78837 1.10408 0
M  V30 5616 H 528.191 -1.439 0.610126 0
M  V30 5617 H 528.926 -2.89285 -1.46577 0
M  V30 5618 H 528.711 -3.92095 -0.0195341 0
M  V30 5619 H 530.201 -4.05433 -1.00068 0
M  V30 5620 N 530.638 -0.59345 -1.46 0
M  V30 5621 C 531.878 -0.0859747 -2.04219 0
M  V30 5622 C 532.242 1.25432 -1.45364 0
M  V30 5623 O 533.443 1.85168 -1.9485 0
M  V30 5624 C 531.714 -0.0324314 -3.57385 0
M  V30 5625 S 533.273 0.415908 -4.36824 0
M  V30 5626 H 530.091 -0.0426872 -0.709717 0
M  V30 5627 H 532.693 -0.788369 -1.78899 0
M  V30 5628 H 531.397 -1.01166 -3.97735 0
M  V30 5629 H 530.928 0.6924 -3.87259 0
M  V30 5630 H 532.943 1.66844 -4.67309 0
M  V30 5631 N 532.116 1.54067 -0.331816 0
M  V30 5632 C 533.344 2.05131 0.269996 0
M  V30 5633 C 533.759 1.20749 1.45138 0
M  V30 5634 O 533.116 0.240069 1.80914 0
M  V30 5635 C 533.167 3.54728 0.696456 0
M  V30 5636 O 532.888 4.35906 -0.43794 0
M  V30 5637 C 534.389 4.21916 1.36021 0
M  V30 5638 H 531.609 0.668807 0.0542042 0
M  V30 5639 H 534.153 1.98777 -0.4804 0
M  V30 5640 H 532.308 3.61342 1.39681 0
M  V30 5641 H 532.722 5.24404 -0.100334 0
M  V30 5642 H 534.196 5.28015 1.60947 0
M  V30 5643 H 534.673 3.73538 2.31011 0
M  V30 5644 H 535.279 4.19463 0.702212 0
M  V30 5645 N 533.594 0.0601682 1.57485 0
M  V30 5646 C 535.005 -0.474217 1.80577 0
M  V30 5647 C 535.356 -1.70365 0.973147 0
M  V30 5648 O 534.481 -2.15544 0.192306 0
M  V30 5649 C 535.076 -0.867102 3.27516 0
M  V30 5650 C 533.635 -1.34642 3.51495 0
M  V30 5651 C 532.782 -0.32594 2.75378 0
M  V30 5652 H 535.733 0.285973 1.56102 0
M  V30 5653 H 535.754 -1.72938 3.38929 0
M  V30 5654 H 535.266 0.0278927 3.8809 0
M  V30 5655 H 533.367 -2.2603 2.96212 0
M  V30 5656 H 533.48 -1.33237 4.60201 0
M  V30 5657 H 531.844 -0.800749 2.41785 0
M  V30 5658 H 532.627 0.561125 3.38683 0
M  V30 5659 N 535.072 -1.5615 -0.213296 0
M  V30 5660 C 536.297 -1.83986 -0.957282 0
M  V30 5661 C 536.722 -0.641526 -1.76822 0
M  V30 5662 O 536.08 0.409722 -1.7661 0
M  V30 5663 C 536.128 -3.09889 -1.84393 0
M  V30 5664 O 535.232 -2.89163 -2.94038 0
M  V30 5665 H 534.573 -0.606357 -0.270605 0
M  V30 5666 H 537.103 -2.03369 -0.224111 0
M  V30 5667 H 537.113 -3.40209 -2.25215 0
M  V30 5668 H 535.788 -3.96735 -1.24795 0
M  V30 5669 H 534.365 -2.70097 -2.57103 0
M  V30 5670 N 536.55 0.480323 -1.50102 0
M  V30 5671 C 537.827 1.24159 -1.51142 0
M  V30 5672 C 538.207 2.09605 -0.250818 0
M  V30 5673 O 537.555 2.15274 0.766118 0
M  V30 5674 C 537.765 2.08057 -2.80202 0
M  V30 5675 C 539.113 2.66556 -3.30504 0
M  V30 5676 O 540.137 2.18308 -2.81461 0
M  V30 5677 O 538.996 3.54442 -4.15973 0
M  V30 5678 H 536.09 0.562928 -0.605839 0
M  V30 5679 H 538.636 0.492899 -1.62384 0
M  V30 5680 H 537.408 1.45032 -3.6343 0
M  V30 5681 H 537.031 2.90079 -2.71919 0
M  V30 5682 N 538.028 1.39524 0.732853 0
M  V30 5683 C 539.276 1.36594 1.48951 0
M  V30 5684 C 539.597 -0.0367507 1.94965 0
M  V30 5685 O 538.867 -0.988391 1.69138 0
M  V30 5686 H 537.447 0.502673 0.552566 0
M  V30 5687 H 540.109 1.74411 0.869869 0
M  V30 5688 H 539.205 2.03 2.3706 0
M  V30 5689 N 539.506 -0.963266 1.24736 0
M  V30 5690 C 540.917 -1.52145 1.08207 0
M  V30 5691 C 541.268 -1.93142 -0.345061 0
M  V30 5692 O 540.393 -1.77769 -1.23399 0
M  V30 5693 C 540.988 -2.76486 1.95808 0
M  V30 5694 C 539.547 -3.28646 1.8349 0
M  V30 5695 C 538.694 -2.01529 1.90476 0
M  V30 5696 H 541.645 -0.781083 1.38148 0
M  V30 5697 H 541.666 -3.49986 1.49297 0
M  V30 5698 H 541.178 -2.46617 2.99669 0
M  V30 5699 H 539.279 -3.63357 0.824787 0
M  V30 5700 H 539.392 -3.97246 2.67829 0
M  V30 5701 H 537.756 -2.16442 1.34258 0
M  V30 5702 H 538.539 -1.7402 2.95926 0
M  V30 5703 N 540.985 -1.06182 -1.16461 0
M  V30 5704 C 542.233 -0.776326 -1.86595 0
M  V30 5705 C 542.554 0.69921 -1.82033 0
M  V30 5706 O 541.824 1.50579 -1.2531 0
M  V30 5707 H 540.404 -0.284184 -0.690832 0
M  V30 5708 H 543.066 -1.34308 -1.41235 0
M  V30 5709 H 542.162 -1.10022 -2.92064 0
M  V30 5710 N 542.463 1.3308 -0.844243 0
M  V30 5711 C 543.711 1.97215 -0.441676 0
M  V30 5712 C 544.032 1.67185 1.0037 0
M  V30 5713 O 543.302 0.973588 1.69994 0
M  V30 5714 H 541.882 0.72959 -0.160335 0
M  V30 5715 H 544.544 1.62348 -1.07838 0
M  V30 5716 H 543.64 3.06698 -0.57815 0
M  V30 5717 N 543.941 0.601185 1.45683 0
M  V30 5718 C 545.189 0.0936957 2.01883 0
M  V30 5719 C 545.51 -1.2779 1.47291 0
M  V30 5720 O 544.78 -1.84279 0.664691 0
M  V30 5721 H 543.36 0.0316466 0.746329 0
M  V30 5722 H 546.022 0.781137 1.78562 0
M  V30 5723 H 545.118 0.0386297 3.12076 0
M  V30 5724 N 545.419 -1.53889 0.339982 0
M  V30 5725 C 546.382 -2.23547 -0.50592 0
M  V30 5726 C 547.382 -1.23445 -1.03044 0
M  V30 5727 O 548.572 -1.47909 -0.920253 0
M  V30 5728 C 545.704 -2.95234 -1.7044 0
M  V30 5729 H 546.897 -2.99722 0.103247 0
M  V30 5730 H 544.45 -1.56033 0.0912804 0
M  V30 5731 H 545.185 -2.23236 -2.35236 0
M  V30 5732 H 544.97 -3.68654 -1.33553 0
M  V30 5733 H 546.46 -3.48258 -2.30447 0
M  V30 5734 N 546.897 -0.0685191 -1.57451 0
M  V30 5735 C 547.86 0.885173 -2.11417 0
M  V30 5736 C 548.86 1.22853 -1.03748 0
M  V30 5737 O 550.05 1.16235 -1.2975 0
M  V30 5738 C 547.182 2.18964 -2.61281 0
M  V30 5739 H 548.375 0.417034 -2.96986 0
M  V30 5740 H 545.928 0.18014 -1.55258 0
M  V30 5741 H 546.663 2.70321 -1.79156 0
M  V30 5742 H 546.448 1.9534 -3.39977 0
M  V30 5743 H 547.938 2.87242 -3.0312 0
M  V30 5744 N 548.375 1.56261 0.205012 0
M  V30 5745 C 549.338 1.92908 1.23771 0
M  V30 5746 C 550.338 0.809208 1.38955 0
M  V30 5747 O 551.528 1.07676 1.36936 0
M  V30 5748 C 548.66 2.19442 2.60879 0
M  V30 5749 H 549.853 2.85287 0.924728 0
M  V30 5750 H 547.406 1.49798 0.446125 0
M  V30 5751 H 548.141 1.29668 2.97248 0
M  V30 5752 H 547.926 3.0104 2.51232 0
M  V30 5753 H 549.416 2.48833 3.35368 0
M  V30 5754 O 549.892 -0.350324 1.57655 0
M  V30 5755 H 550.583 -1.00029 1.65873 0
M  V30 END ATOM
M  V30 BEGIN BOND
M  V30 END BOND
M  V30 END CTAB
M  END
$$$$
