drugbank_target|P9WFF5 (2Z,6E)-farnesyl diphosphate synthase (DB02552; DB07780)
 OpenBabel12092120463D

  0  0  0     0  0            999 V3000
M  V30 BEGIN CTAB
M  V30 COUNTS 4113 4158 0 0 0
M  V30 BEGIN ATOM
M  V30 1 H -0.908 1.98254 -0.117106 0
M  V30 2 N 0 1.576 0 0
M  V30 3 C 0.933 2.03868 1.02534 0
M  V30 4 C 1.911 0.928543 1.3348 0
M  V30 5 O 3.095 1.19667 1.45644 0
M  V30 6 C 0.222 2.43627 2.35294 0
M  V30 7 C -0.732 3.65373 2.2001 0
M  V30 8 S 0.101 5.13292 1.52614 0
M  V30 9 C 1.257 5.56322 2.86805 0
M  V30 10 H 1.49 2.90518 0.631377 0
M  V30 11 H -0.977 1.52953 0.210867 0
M  V30 12 H 0.981 2.67203 3.11629 0
M  V30 13 H -0.358 1.57376 2.7183 0
M  V30 14 H -1.165 3.90944 3.18086 0
M  V30 15 H -1.563 3.418 1.51819 0
M  V30 16 H 0.729 5.58782 3.83104 0
M  V30 17 H 1.672 6.56266 2.65933 0
M  V30 18 H 2.08 4.83886 2.90714 0
M  V30 19 N 1.4781 -0.272755 1.55222 0
M  V30 20 C 2.3881 -1.35918 1.91216 0
M  V30 21 C 3.4041 -1.54026 0.809436 0
M  V30 22 O 4.5801 -1.68148 1.10852 0
M  V30 23 C 1.6451 -2.69834 2.17693 0
M  V30 24 C 0.7061 -2.6047 3.41253 0
M  V30 25 C -0.0609 -3.88 3.66458 0
M  V30 26 O 0.1621 -4.88693 2.94169 0
M  V30 27 O -0.9039 -3.88189 4.59992 0
M  V30 28 H 2.9221 -1.0839 2.83699 0
M  V30 29 H 0.5071 -0.471301 1.41771 0
M  V30 30 H 2.3891 -3.49017 2.36147 0
M  V30 31 H 1.0641 -2.97148 1.28392 0
M  V30 32 H -0.0289 -1.79663 3.28134 0
M  V30 33 H 1.3041 -2.38106 4.30774 0
M  V30 34 N 2.9562 -1.48159 -0.537278 0
M  V30 35 C 4.2052 -1.5506 -1.28993 0
M  V30 36 C 4.5182 -0.226211 -1.94288 0
M  V30 37 O 5.7242 -0.173395 -2.70946 0
M  V30 38 C 4.1802 -2.73429 -2.34018 0
M  V30 39 C 3.7882 -4.1248 -1.74825 0
M  V30 40 C 5.5322 -2.89638 -3.10339 0
M  V30 41 C 3.4392 -5.22121 -2.77747 0
M  V30 42 H 2.3692 -0.577231 -0.485098 0
M  V30 43 H 5.0202 -1.74478 -0.568317 0
M  V30 44 H 3.4022 -2.47431 -3.09182 0
M  V30 45 H 4.5762 -4.48466 -1.05899 0
M  V30 46 H 2.8912 -4.01327 -1.11022 0
M  V30 47 H 5.4882 -3.68718 -3.87235 0
M  V30 48 H 5.8312 -1.9882 -3.65754 0
M  V30 49 H 6.3642 -3.15502 -2.42288 0
M  V30 50 H 3.1032 -6.1488 -2.27161 0
M  V30 51 H 2.6232 -4.90631 -3.45024 0
M  V30 52 H 4.3022 -5.49924 -3.4087 0
M  V30 53 N 4.4343 0.785586 -1.36625 0
M  V30 54 C 5.6833 1.53883 -1.30396 0
M  V30 55 C 5.9963 1.95271 0.113452 0
M  V30 56 O 7.2023 2.69858 0.298142 0
M  V30 57 C 5.6583 2.77808 -2.28802 0
M  V30 58 C 5.2663 2.43574 -3.75999 0
M  V30 59 C 7.0103 3.55783 -2.31558 0
M  V30 60 C 4.9173 3.63919 -4.66173 0
M  V30 61 H 3.8473 0.577678 -0.484566 0
M  V30 62 H 6.4983 0.861705 -1.62009 0
M  V30 63 H 4.8803 3.47339 -1.90188 0
M  V30 64 H 6.0543 1.81916 -4.23371 0
M  V30 65 H 4.3693 1.78803 -3.76056 0
M  V30 66 H 6.9663 4.45205 -2.96137 0
M  V30 67 H 7.3093 3.94644 -1.3252 0
M  V30 68 H 7.8423 2.93235 -2.68809 0
M  V30 69 H 4.5813 3.3015 -5.66287 0
M  V30 70 H 4.1013 4.2473 -4.23515 0
M  V30 71 H 5.7803 4.30901 -4.82632 0
M  V30 72 N 5.9124 1.20967 1.01018 0
M  V30 73 C 7.3234 1.02319 1.56165 0
M  V30 74 C 7.6744 -0.418546 1.91684 0
M  V30 75 O 6.7994 -1.30096 1.72928 0
M  V30 76 C 7.3944 1.85109 2.8376 0
M  V30 77 C 5.9534 1.70809 3.35412 0
M  V30 78 C 5.1004 1.82643 2.08655 0
M  V30 79 H 8.0514 1.35065 0.833255 0
M  V30 80 H 8.0724 1.35827 3.55431 0
M  V30 81 H 7.5844 2.90035 2.57878 0
M  V30 82 H 5.6854 0.685464 3.66241 0
M  V30 83 H 5.7984 2.52467 4.07182 0
M  V30 84 H 4.1624 1.25896 2.21409 0
M  V30 85 H 4.9454 2.89066 1.85191 0
M  V30 86 N 7.3905 -1.2043 1.01659 0
M  V30 87 C 8.8015 -1.71517 0.737482 0
M  V30 88 C 9.1525 -1.81547 -0.743973 0
M  V30 89 O 8.2775 -1.47803 -1.58061 0
M  V30 90 C 8.8725 -3.11515 1.33206 0
M  V30 91 C 7.4315 -3.59912 1.10183 0
M  V30 92 C 6.5785 -2.37116 1.43776 0
M  V30 93 H 9.5295 -1.05444 1.18606 0
M  V30 94 H 9.5505 -3.73575 0.722636 0
M  V30 95 H 9.0625 -3.04182 2.41028 0
M  V30 96 H 7.1635 -3.72577 0.0412756 0
M  V30 97 H 7.2765 -4.44731 1.78188 0
M  V30 98 H 5.6405 -2.39857 0.856778 0
M  V30 99 H 6.4235 -2.32424 2.52654 0
M  V30 100 N 8.8686 -0.792821 -1.36206 0
M  V30 101 C 10.2846 -0.474903 -1.52371 0
M  V30 102 C 10.4846 1.00622 -1.74578 0
M  V30 103 O 9.5406 1.79162 -1.77924 0
M  V30 104 C 10.8536 -1.3083 -2.70747 0
M  V30 105 C 12.4016 -1.30234 -2.84619 0
M  V30 106 C 12.8766 -2.11956 -4.06004 0
M  V30 107 N 14.3676 -2.09419 -4.13156 0
M  V30 108 C 15.1026 -2.69419 -5.06163 0
M  V30 109 N 14.5986 -3.3829 -6.04592 0
M  V30 110 N 16.3916 -2.59134 -4.98804 0
M  V30 111 H 8.5426 -1.75222 -1.20046 0
M  V30 112 H 10.8056 -0.745024 -0.586211 0
M  V30 113 H 10.5116 -2.35881 -2.6087 0
M  V30 114 H 10.3856 -0.95196 -3.6499 0
M  V30 115 H 12.7726 -0.259748 -2.93955 0
M  V30 116 H 12.8536 -1.69847 -1.91274 0
M  V30 117 H 12.4976 -3.16248 -3.97429 0
M  V30 118 H 12.4276 -1.69711 -4.98503 0
M  V30 119 H 14.9186 -1.59297 -3.42685 0
M  V30 120 H 15.2316 -3.81394 -6.7213 0
M  V30 121 H 13.5766 -3.42393 -6.04807 0
M  V30 122 H 16.7676 -2.04927 -4.20859 0
M  V30 123 H 16.9406 -3.06185 -5.711 0
M  V30 124 N 10.3467 1.47872 -0.545128 0
M  V30 125 C 11.2767 2.32661 0.197793 0
M  V30 126 C 12.2577 1.43041 0.920504 0
M  V30 127 O 13.4427 1.71912 0.90333 0
M  V30 128 C 10.5727 3.24569 1.23582 0
M  V30 129 C 9.5267 4.23333 0.630323 0
M  V30 130 C 8.8527 5.0448 1.77211 0
M  V30 131 C 10.1527 5.20704 -0.407974 0
M  V30 132 H 11.8467 2.95024 -0.510045 0
M  V30 133 H 9.3927 1.4187 -0.246731 0
M  V30 134 H 11.3457 3.8272 1.76362 0
M  V30 135 H 10.0697 2.60236 1.97344 0
M  V30 136 H 8.7287 3.6639 0.123922 0
M  V30 137 H 8.3767 4.36561 2.49847 0
M  V30 138 H 8.0767 5.71339 1.37281 0
M  V30 139 H 9.6007 5.65487 2.3034 0
M  V30 140 H 11.0147 5.7329 0.033305 0
M  V30 141 H 9.4117 5.95699 -0.725486 0
M  V30 142 H 10.4817 4.66917 -1.30828 0
M  V30 143 N 11.8248 0.280983 1.55075 0
M  V30 144 C 12.7718 -0.603937 2.22758 0
M  V30 145 C 13.7418 -1.1452 1.20309 0
M  V30 146 O 14.9268 -1.19343 1.48869 0
M  V30 147 C 12.0668 -1.77947 2.95684 0
M  V30 148 C 11.1798 -1.2715 4.12864 0
M  V30 149 C 10.3148 -2.4093 4.7342 0
M  V30 150 C 9.3538 -1.87165 5.82783 0
M  V30 151 N 8.4908 -2.94441 6.37377 0
M  V30 152 H 13.3308 -0.020124 2.97993 0
M  V30 153 H 10.8678 0.00183425 1.471 0
M  V30 154 H 12.8258 -2.47055 3.36184 0
M  V30 155 H 11.4558 -2.33522 2.22861 0
M  V30 156 H 10.5078 -0.473331 3.77444 0
M  V30 157 H 11.8198 -0.837751 4.91715 0
M  V30 158 H 10.9738 -3.18021 5.1667 0
M  V30 159 H 9.7128 -2.87623 3.93859 0
M  V30 160 H 8.7178 -1.08556 5.38976 0
M  V30 161 H 9.9428 -1.41401 6.64216 0
M  V30 162 H 7.8888 -3.40505 5.60707 0
M  V30 163 H 7.8058 -2.55501 7.11516 0
M  V30 164 H 9.0738 -3.71489 6.85285 0
M  V30 165 N 13.3029 -1.57598 0.00835791 0
M  V30 166 C 14.2129 -2.12385 -0.996487 0
M  V30 167 C 15.2289 -1.07108 -1.37127 0
M  V30 168 O 16.4049 -1.39055 -1.4569 0
M  V30 169 C 13.4699 -2.62314 -2.26699 0
M  V30 170 C 12.5309 -3.82225 -1.95456 0
M  V30 171 C 11.7639 -4.29763 -3.16449 0
M  V30 172 O 11.9869 -3.76584 -4.28416 0
M  V30 173 O 10.9209 -5.21832 -2.99958 0
M  V30 174 H 14.7469 -2.98479 -0.560725 0
M  V30 175 H 12.3319 -1.47903 -0.210987 0
M  V30 176 H 14.2139 -2.94589 -3.01322 0
M  V30 177 H 12.8889 -1.79313 -2.69497 0
M  V30 178 H 11.7959 -3.54909 -1.18282 0
M  V30 179 H 13.1289 -4.66324 -1.57489 0
M  V30 180 N 14.781 0.264519 -1.55364 0
M  V30 181 C 16.192 0.834936 -1.6699 0
M  V30 182 C 16.543 1.86718 -0.602552 0
M  V30 183 O 15.668 2.14899 0.254425 0
M  V30 184 C 16.263 1.5212 -3.02729 0
M  V30 185 C 14.822 2.03954 -3.16354 0
M  V30 186 C 13.969 0.884498 -2.62815 0
M  V30 187 H 16.92 0.0406869 -1.58648 0
M  V30 188 H 16.941 2.38853 -2.96191 0
M  V30 189 H 16.453 0.769668 -3.80392 0
M  V30 190 H 14.554 2.82041 -2.43482 0
M  V30 191 H 14.667 2.24902 -4.23032 0
M  V30 192 H 13.031 1.2802 -2.20188 0
M  V30 193 H 13.814 0.14634 -3.42988 0
M  V30 194 N 16.2591 1.48442 0.529413 0
M  V30 195 C 17.1891 1.65902 1.64313 0
M  V30 196 C 18.1701 0.507897 1.6234 0
M  V30 197 O 19.3551 0.740503 1.79528 0
M  V30 198 C 16.4851 1.69911 3.02898 0
M  V30 199 C 15.4391 2.8453 3.19729 0
M  V30 200 C 14.7651 2.73629 4.59381 0
M  V30 201 C 16.0651 4.25821 3.02447 0
M  V30 202 H 17.7591 2.5914 1.49955 0
M  V30 203 H 15.3051 1.24709 0.719982 0
M  V30 204 H 17.2581 1.80715 3.80684 0
M  V30 205 H 15.9821 0.732524 3.18279 0
M  V30 206 H 14.6411 2.73283 2.44361 0
M  V30 207 H 14.2891 1.74938 4.71599 0
M  V30 208 H 13.9891 3.50541 4.71588 0
M  V30 209 H 15.5131 2.86401 5.39265 0
M  V30 210 H 16.9271 4.37898 3.70024 0
M  V30 211 H 15.3241 5.03735 3.26146 0
M  V30 212 H 16.3941 4.42244 1.98867 0
M  V30 213 N 17.7372 -0.778329 1.37039 0
M  V30 214 C 18.9672 -1.56507 1.34868 0
M  V30 215 C 19.3752 -1.89072 -0.0694802 0
M  V30 216 O 18.7182 -1.51434 -1.03987 0
M  V30 217 C 18.7802 -2.90641 2.11585 0
M  V30 218 C 18.4442 -2.80746 3.60598 0
M  V30 219 C 19.4412 -2.52226 4.54618 0
M  V30 220 C 17.1262 -2.98974 4.03633 0
M  V30 221 C 19.1202 -2.42054 5.89651 0
M  V30 222 C 16.8072 -2.88423 5.38754 0
M  V30 223 C 17.8052 -2.60002 6.31576 0
M  V30 224 O 17.4932 -2.49465 7.64214 0
M  V30 225 H 17.2252 -0.491723 0.463879 0
M  V30 226 H 19.7792 -0.973053 1.80889 0
M  V30 227 H 18.0092 -3.51936 1.60243 0
M  V30 228 H 19.6982 -3.51992 2.0213 0
M  V30 229 H 20.4642 -2.37835 4.22681 0
M  V30 230 H 16.3432 -3.20099 3.31749 0
M  V30 231 H 19.8872 -2.19791 6.62071 0
M  V30 232 H 15.7842 -3.0238 5.70295 0
M  V30 233 H 16.5522 -2.64864 7.74461 0
M  V30 234 N 19.2153 -1.21501 -1.00376 0
M  V30 235 C 20.6313 -0.972629 -1.26539 0
M  V30 236 C 20.8313 0.340257 -1.98606 0
M  V30 237 O 19.8873 1.06561 -2.28913 0
M  V30 238 C 21.2003 -2.16404 -2.08781 0
M  V30 239 C 22.7483 -2.20643 -2.22004 0
M  V30 240 C 23.2233 -3.39306 -3.07629 0
M  V30 241 N 24.7143 -3.39401 -3.15217 0
M  V30 242 C 25.4493 -4.27867 -3.81729 0
M  V30 243 N 24.9453 -5.26533 -4.5026 0
M  V30 244 N 26.7383 -4.15672 -3.78382 0
M  V30 245 H 18.8893 -2.05929 -0.520281 0
M  V30 246 H 21.1523 -0.901803 -0.292328 0
M  V30 247 H 20.8583 -3.11554 -1.63178 0
M  V30 248 H 20.7323 -2.15567 -3.09533 0
M  V30 249 H 23.1193 -1.26048 -2.66825 0
M  V30 250 H 23.2003 -2.25523 -1.20718 0
M  V30 251 H 22.8443 -4.34195 -2.63509 0
M  V30 252 H 22.7743 -3.31665 -4.09031 0
M  V30 253 H 25.2653 -2.67997 -2.66432 0
M  V30 254 H 25.5783 -5.90337 -4.98721 0
M  V30 255 H 23.9233 -5.30457 -4.49044 0
M  V30 256 H 27.1143 -3.3785 -3.23998 0
M  V30 257 H 27.2873 -4.84825 -4.2994 0
M  V30 258 N 20.6934 1.19889 -1.02296 0
M  V30 259 C 21.6234 2.25141 -0.619174 0
M  V30 260 C 22.6044 1.66051 0.368915 0
M  V30 261 O 23.7894 1.92546 0.252941 0
M  V30 262 C 20.9194 3.4728 0.0368783 0
M  V30 263 C 19.8734 4.19005 -0.872865 0
M  V30 264 C 19.1994 5.34637 -0.0822402 0
M  V30 265 C 20.4994 4.74452 -2.18387 0
M  V30 266 H 22.1934 2.59171 -1.49903 0
M  V30 267 H 19.7394 1.24579 -0.722222 0
M  V30 268 H 21.6924 4.20098 0.330958 0
M  V30 269 H 20.4164 3.12433 0.95149 0
M  V30 270 H 19.0754 3.48061 -1.15105 0
M  V30 271 H 18.7234 4.96034 0.83422 0
M  V30 272 H 18.4234 5.83557 -0.688149 0
M  V30 273 H 19.9474 6.10255 0.205238 0
M  V30 274 H 21.3614 5.39055 -1.95172 0
M  V30 275 H 19.7584 5.33834 -2.74119 0
M  V30 276 H 20.8284 3.92844 -2.84257 0
M  V30 277 N 22.1715 0.800033 1.35784 0
M  V30 278 C 23.4015 0.389041 2.02904 0
M  V30 279 C 23.8095 -1.0027 1.60445 0
M  V30 280 O 23.1525 -1.65633 0.794453 0
M  V30 281 C 23.2145 0.385495 3.57427 0
M  V30 282 C 22.8785 1.72662 4.23127 0
M  V30 283 C 23.8755 2.68385 4.4527 0
M  V30 284 C 21.5605 2.00883 4.60381 0
M  V30 285 C 23.5545 3.90517 5.03761 0
M  V30 286 C 21.2415 3.2328 5.18588 0
M  V30 287 C 22.2395 4.17915 5.40218 0
M  V30 288 O 21.9275 5.38153 5.97199 0
M  V30 289 H 21.6595 0.157032 0.657508 0
M  V30 290 H 24.2135 1.08311 1.74522 0
M  V30 291 H 22.4435 -0.365128 3.84972 0
M  V30 292 H 24.1325 -0.00228296 4.059 0
M  V30 293 H 24.8985 2.47872 4.16874 0
M  V30 294 H 20.7775 1.28037 4.42863 0
M  V30 295 H 24.3215 4.64395 5.2056 0
M  V30 296 H 20.2185 3.43667 5.4641 0
M  V30 297 H 20.9865 5.3936 6.15656 0
M  V30 298 N 23.6496 -1.47581 0.552962 0
M  V30 299 C 24.5596 -2.33743 -0.200353 0
M  V30 300 C 25.5756 -1.47928 -0.916151 0
M  V30 301 O 26.7516 -1.80865 -0.885993 0
M  V30 302 C 23.8166 -3.24536 -1.21973 0
M  V30 303 C 22.8776 -4.26238 -0.511819 0
M  V30 304 C 22.1106 -5.12693 -1.48263 0
M  V30 305 O 22.3336 -5.01525 -2.71714 0
M  V30 306 O 21.2676 -5.93375 -1.00945 0
M  V30 307 H 25.0936 -2.9945 0.506304 0
M  V30 308 H 22.6786 -1.46071 0.313622 0
M  V30 309 H 24.5606 -3.80631 -1.80827 0
M  V30 310 H 23.2356 -2.61462 -1.90839 0
M  V30 311 H 22.1426 -3.73914 0.117799 0
M  V30 312 H 23.4756 -4.92014 0.135308 0
M  V30 313 N 25.1277 -0.289203 -1.54924 0
M  V30 314 C 26.0577 0.58549 -2.2604 0
M  V30 315 C 27.0387 1.14753 -1.25562 0
M  V30 316 O 28.2237 1.17906 -1.54311 0
M  V30 317 C 25.3537 1.76305 -2.99222 0
M  V30 318 C 24.3077 1.33191 -4.06748 0
M  V30 319 C 23.6337 2.5937 -4.6758 0
M  V30 320 C 24.9337 0.471775 -5.20165 0
M  V30 321 H 26.6277 -0.00763532 -2.99399 0
M  V30 322 H 24.1737 -0.00511229 -1.43999 0
M  V30 323 H 26.1267 2.38097 -3.47689 0
M  V30 324 H 24.8507 2.38223 -2.23422 0
M  V30 325 H 23.5097 0.737121 -3.59113 0
M  V30 326 H 23.1577 3.19576 -3.88433 0
M  V30 327 H 22.8577 2.31228 -5.40192 0
M  V30 328 H 24.3817 3.21985 -5.18804 0
M  V30 329 H 25.7957 0.995056 -5.64599 0
M  V30 330 H 24.1927 0.284639 -5.99425 0
M  V30 331 H 25.2627 -0.506041 -4.82252 0
M  V30 332 N 26.6058 1.57591 -0.0167156 0
M  V30 333 C 28.0218 1.55946 0.339557 0
M  V30 334 C 28.2218 1.02109 1.73713 0
M  V30 335 O 27.2778 0.662303 2.43659 0
M  V30 336 C 28.5908 3.00037 0.199499 0
M  V30 337 C 30.1388 3.11805 0.273193 0
M  V30 338 C 30.6138 4.57713 0.162068 0
M  V30 339 N 32.1048 4.6268 0.219444 0
M  V30 340 C 32.8398 5.73185 0.157054 0
M  V30 341 N 32.3358 6.92786 0.0442936 0
M  V30 342 N 34.1288 5.61707 0.21014 0
M  V30 343 H 26.2798 1.90921 -0.930758 0
M  V30 344 H 28.5428 0.877674 -0.358319 0
M  V30 345 H 28.2488 3.4333 -0.76273 0
M  V30 346 H 28.1228 3.64387 0.974786 0
M  V30 347 H 30.5098 2.68433 1.22587 0
M  V30 348 H 30.5908 2.50201 -0.532256 0
M  V30 349 H 30.2348 5.01763 -0.78714 0
M  V30 350 H 30.1648 5.17283 0.986222 0
M  V30 351 H 32.6558 3.76649 0.307246 0
M  V30 352 H 32.9688 7.728 0.00304069 0
M  V30 353 H 31.3138 6.94999 0.00968457 0
M  V30 354 H 34.5048 4.6716 0.296546 0
M  V30 355 H 34.6778 6.47807 0.158054 0
M  V30 356 N 28.0839 -0.256276 1.55502 0
M  V30 357 C 29.0139 -1.32102 1.92539 0
M  V30 358 C 29.9949 -1.50684 0.789194 0
M  V30 359 O 31.1799 -1.63449 1.04872 0
M  V30 360 C 28.3099 -2.67752 2.21192 0
M  V30 361 C 27.2639 -2.63878 3.36975 0
M  V30 362 C 26.5899 -4.03236 3.51147 0
M  V30 363 C 27.8899 -2.21682 4.72921 0
M  V30 364 H 29.5839 -1.01351 2.81724 0
M  V30 365 H 27.1299 -0.486105 1.35547 0
M  V30 366 H 29.0829 -3.42365 2.45691 0
M  V30 367 H 27.8069 -3.0012 1.28824 0
M  V30 368 H 26.4659 -1.91722 3.12471 0
M  V30 369 H 26.1139 -4.32854 2.56216 0
M  V30 370 H 25.8139 -4.01535 4.29003 0
M  V30 371 H 27.3379 -4.79563 3.77957 0
M  V30 372 H 28.7519 -2.86023 4.96854 0
M  V30 373 H 27.1489 -2.3111 5.53812 0
M  V30 374 H 28.2189 -1.16833 4.70615 0
M  V30 375 N 29.562 -1.4872 -0.521534 0
M  V30 376 C 30.978 -1.35028 -0.850855 0
M  V30 377 C 31.178 -0.367712 -1.98116 0
M  V30 378 O 30.234 0.208037 -2.51642 0
M  V30 379 C 31.547 -2.75263 -1.21041 0
M  V30 380 C 33.095 -2.83813 -1.31981 0
M  V30 381 C 33.57 -4.24769 -1.71276 0
M  V30 382 N 35.061 -4.27482 -1.78363 0
M  V30 383 C 35.796 -5.33494 -2.1017 0
M  V30 384 N 35.292 -6.49775 -2.40343 0
M  V30 385 N 37.085 -5.20894 -2.11248 0
M  V30 386 H 29.236 -2.11214 0.22413 0
M  V30 387 H 31.499 -0.947252 0.0376439 0
M  V30 388 H 31.205 -3.48765 -0.453415 0
M  V30 389 H 31.079 -3.09327 -2.15863 0
M  V30 390 H 33.466 -2.10561 -2.06756 0
M  V30 391 H 33.547 -2.53358 -0.352596 0
M  V30 392 H 33.191 -4.9854 -0.970588 0
M  V30 393 H 33.121 -4.52673 -2.69062 0
M  V30 394 H 35.612 -3.43611 -1.57288 0
M  V30 395 H 35.925 -7.26402 -2.63743 0
M  V30 396 H 34.27 -6.53035 -2.37844 0
M  V30 397 H 37.461 -4.29065 -1.87139 0
M  V30 398 H 37.634 -6.03612 -2.35704 0
M  V30 399 N 31.0401 0.771051 -1.3745 0
M  V30 400 C 31.9721 1.89352 -1.29146 0
M  V30 401 C 32.9851 1.61477 -0.207124 0
M  V30 402 O 34.1741 1.72382 -0.463324 0
M  V30 403 C 31.2741 3.24596 -0.974195 0
M  V30 404 C 30.4471 3.80111 -2.16413 0
M  V30 405 C 29.5061 4.93832 -1.81703 0
M  V30 406 O 28.5321 5.09382 -2.54006 0
M  V30 407 N 29.7341 5.75483 -0.761573 0
M  V30 408 H 32.4991 1.96991 -2.25864 0
M  V30 409 H 30.0601 0.950191 -1.31084 0
M  V30 410 H 32.0521 3.98193 -0.722828 0
M  V30 411 H 30.6221 3.12454 -0.0955527 0
M  V30 412 H 29.8421 2.98284 -2.57721 0
M  V30 413 H 31.1301 4.13932 -2.95867 0
M  V30 414 H 30.5281 5.65469 -0.161609 0
M  V30 415 H 29.0851 6.49302 -0.570064 0
M  V30 416 N 32.5182 1.22032 0.997298 0
M  V30 417 C 33.7662 1.04016 1.73278 0
M  V30 418 C 34.0872 -0.426255 1.90284 0
M  V30 419 O 33.3572 -1.30694 1.45931 0
M  V30 420 H 31.9372 0.381897 0.642 0
M  V30 421 H 34.5992 1.5347 1.20137 0
M  V30 422 H 33.6952 1.51441 2.72896 0
M  V30 423 N 33.9963 -1.19345 1.0293 0
M  V30 424 C 34.9263 -2.2481 0.631105 0
M  V30 425 C 35.9073 -1.66245 -0.360104 0
M  V30 426 O 37.0923 -1.92677 -0.242726 0
M  V30 427 C 34.2223 -3.47295 -0.0184607 0
M  V30 428 C 33.1763 -4.18536 0.895073 0
M  V30 429 C 32.5023 -5.34586 0.110592 0
M  V30 430 C 33.8023 -4.73287 2.209 0
M  V30 431 H 35.4963 -2.58372 1.51275 0
M  V30 432 H 33.0423 -1.24194 0.728818 0
M  V30 433 H 34.9953 -4.20268 -0.308675 0
M  V30 434 H 33.7193 -3.12933 -0.934907 0
M  V30 435 H 32.3783 -3.47446 1.16949 0
M  V30 436 H 32.0263 -4.96469 -0.807902 0
M  V30 437 H 31.7263 -5.83183 0.719087 0
M  V30 438 H 33.2503 -6.10355 -0.172871 0
M  V30 439 H 34.6643 -5.38013 1.98028 0
M  V30 440 H 33.0613 -5.32373 2.76946 0
M  V30 441 H 34.1313 -3.91331 2.86336 0
M  V30 442 N 35.4744 -0.807222 -1.35358 0
M  V30 443 C 36.4374 -0.223665 -2.28106 0
M  V30 444 C 37.4374 0.589354 -1.4961 0
M  V30 445 O 38.6274 0.407745 -1.69361 0
M  V30 446 C 35.7594 0.688149 -3.33882 0
M  V30 447 H 36.9524 -1.04169 -2.81227 0
M  V30 448 H 34.5054 -0.577921 -1.45223 0
M  V30 449 H 35.2404 1.52984 -2.85948 0
M  V30 450 H 35.0254 0.10687 -3.91954 0
M  V30 451 H 36.5154 1.09075 -4.03104 0
M  V30 452 N 36.9525 1.47285 -0.560781 0
M  V30 453 C 37.9155 2.28535 0.174488 0
M  V30 454 C 38.9155 1.37153 0.839388 0
M  V30 455 O 40.1055 1.59748 0.694702 0
M  V30 456 C 37.2375 3.16934 1.25561 0
M  V30 457 H 38.4305 2.95012 -0.539262 0
M  V30 458 H 35.9835 1.53034 -0.317865 0
M  V30 459 H 36.7185 2.55157 2.00164 0
M  V30 460 H 36.5035 3.8419 0.783604 0
M  V30 461 H 37.9935 3.78143 1.77193 0
M  V30 462 N 38.4306 0.297415 1.54768 0
M  V30 463 C 39.6556 -0.318435 2.04941 0
M  V30 464 C 40.0806 -1.4701 1.17345 0
M  V30 465 O 39.4386 -1.80436 0.176758 0
M  V30 466 C 39.4866 -0.755749 3.52592 0
M  V30 467 O 38.5906 -1.86088 3.68028 0
M  V30 468 H 37.9316 -0.062421 0.661059 0
M  V30 469 H 40.4616 0.438215 1.99852 0
M  V30 470 H 40.4716 -1.04552 3.94376 0
M  V30 471 H 39.1466 0.0867233 4.1581 0
M  V30 472 H 37.7236 -1.57193 3.38149 0
M  V30 473 N 39.9087 -1.5758 0.0250728 0
M  V30 474 C 40.8557 -2.09973 -0.958129 0
M  V30 475 C 41.8257 -1.00085 -1.3256 0
M  V30 476 O 43.0107 -1.27481 -1.41962 0
M  V30 477 C 40.1507 -2.62812 -2.2366 0
M  V30 478 C 39.2637 -3.86693 -1.92594 0
M  V30 479 C 38.3987 -4.27941 -3.14707 0
M  V30 480 C 37.4377 -5.44591 -2.79442 0
M  V30 481 N 36.5747 -5.81014 -3.94167 0
M  V30 482 H 41.4147 -2.937 -0.504428 0
M  V30 483 H 38.9517 -1.45172 -0.237392 0
M  V30 484 H 40.9097 -2.91536 -2.98434 0
M  V30 485 H 39.5397 -1.81922 -2.66654 0
M  V30 486 H 38.5917 -3.64723 -1.0808 0
M  V30 487 H 39.9037 -4.71547 -1.62619 0
M  V30 488 H 39.0577 -4.58079 -3.97804 0
M  V30 489 H 37.7967 -3.41845 -3.4784 0
M  V30 490 H 36.8017 -5.1415 -1.94755 0
M  V30 491 H 38.0267 -6.32382 -2.47528 0
M  V30 492 H 35.9727 -4.97874 -4.2715 0
M  V30 493 H 35.8897 -6.60498 -3.67801 0
M  V30 494 H 37.1577 -6.15756 -4.7798 0
M  V30 495 N 41.3868 0.248026 -1.55636 0
M  V30 496 C 42.6118 0.998028 -1.81808 0
M  V30 497 C 43.0368 1.78207 -0.601979 0
M  V30 498 O 42.3948 1.75653 0.448961 0
M  V30 499 C 42.4428 1.9125 -3.05705 0
M  V30 500 O 41.5468 3.00406 -2.82542 0
M  V30 501 H 40.8878 0.284045 -0.600179 0
M  V30 502 H 43.4178 0.269357 -2.02819 0
M  V30 503 H 43.4278 2.32737 -3.35108 0
M  V30 504 H 42.1028 1.33602 -3.93857 0
M  V30 505 H 40.6798 2.63056 -2.64303 0
M  V30 506 N 42.8649 1.48995 0.513639 0
M  V30 507 C 44.1419 1.48338 1.27495 0
M  V30 508 C 44.5219 0.204065 2.10111 0
M  V30 509 O 43.8699 -0.813881 2.13514 0
M  V30 510 C 44.0799 2.75498 2.14247 0
M  V30 511 C 45.4279 3.24484 2.73852 0
M  V30 512 O 46.4519 2.76528 2.24523 0
M  V30 513 O 45.3109 4.07974 3.6362 0
M  V30 514 H 42.4049 0.593149 0.576284 0
M  V30 515 H 44.9509 1.61246 0.528948 0
M  V30 516 H 43.7229 3.60109 1.53092 0
M  V30 517 H 43.3459 2.6539 2.96064 0
M  V30 518 N 44.343 -0.763751 1.37857 0
M  V30 519 C 45.273 -1.89103 1.36975 0
M  V30 520 C 46.254 -1.68439 0.237152 0
M  V30 521 O 47.439 -1.8918 0.438713 0
M  V30 522 C 44.569 -3.26496 1.18395 0
M  V30 523 C 43.523 -3.61741 2.28751 0
M  V30 524 C 42.849 -4.97762 1.95286 0
M  V30 525 C 44.149 -3.67665 3.70972 0
M  V30 526 H 45.843 -1.90099 2.31307 0
M  V30 527 H 43.389 -0.91319 1.11341 0
M  V30 528 H 45.342 -4.05003 1.16406 0
M  V30 529 H 44.066 -3.25955 0.205215 0
M  V30 530 H 42.725 -2.85547 2.29909 0
M  V30 531 H 42.373 -4.93769 0.959221 0
M  V30 532 H 42.073 -5.22313 2.69189 0
M  V30 533 H 43.597 -5.7866 1.94898 0
M  V30 534 H 45.011 -4.36307 3.719 0
M  V30 535 H 43.408 -4.03718 4.43995 0
M  V30 536 H 44.478 -2.68134 4.0402 0
M  V30 537 N 45.8211 -1.22559 -0.990812 0
M  V30 538 C 47.2321 -1.04791 -1.54518 0
M  V30 539 C 47.5831 0.387998 -1.92325 0
M  V30 540 O 46.7081 1.27328 -1.74976 0
M  V30 541 C 47.3031 -1.896 -2.80779 0
M  V30 542 C 45.8621 -1.76124 -3.32652 0
M  V30 543 C 45.0091 -1.8594 -2.05722 0
M  V30 544 H 47.9601 -1.36374 -0.811662 0
M  V30 545 H 47.9811 -1.41464 -3.53225 0
M  V30 546 H 47.4931 -2.94101 -2.53231 0
M  V30 547 H 45.5941 -0.743643 -3.65104 0
M  V30 548 H 45.7071 -2.58913 -4.03114 0
M  V30 549 H 44.0711 -1.29403 -2.19379 0
M  V30 550 H 44.8541 -2.91976 -1.80568 0
M  V30 551 N 47.2992 1.18797 -1.03562 0
M  V30 552 C 48.7152 1.40671 -0.753917 0
M  V30 553 C 48.9152 1.9043 0.658686 0
M  V30 554 O 47.9712 2.08538 1.42366 0
M  V30 555 C 49.2842 2.41192 -1.79574 0
M  V30 556 C 50.8322 2.54928 -1.81606 0
M  V30 557 C 51.3072 3.58709 -2.84766 0
M  V30 558 N 52.7982 3.66212 -2.83625 0
M  V30 559 C 53.5332 4.46225 -3.60098 0
M  V30 560 N 53.0292 5.29888 -4.46308 0
M  V30 561 N 54.8222 4.40939 -3.4861 0
M  V30 562 H 46.9732 0.848221 -1.94728 0
M  V30 563 H 49.2362 0.435081 -0.842264 0
M  V30 564 H 48.9422 2.11669 -2.80872 0
M  V30 565 H 48.8162 3.40467 -1.62365 0
M  V30 566 H 51.2032 2.83771 -0.809817 0
M  V30 567 H 51.2842 1.55784 -2.02891 0
M  V30 568 H 50.9282 3.30607 -3.85566 0
M  V30 569 H 50.8582 4.57519 -2.60737 0
M  V30 570 H 53.3492 3.06466 -2.21105 0
M  V30 571 H 53.6622 5.88078 -5.01382 0
M  V30 572 H 52.0072 5.29326 -4.50377 0
M  V30 573 H 55.1982 3.74624 -2.80668 0
M  V30 574 H 55.3712 5.03056 -4.08459 0
M  V30 575 N 48.7773 0.814389 1.34928 0
M  V30 576 C 49.7273 0.202752 2.27097 0
M  V30 577 C 50.7113 -0.62799 1.48139 0
M  V30 578 O 51.9033 -0.483969 1.70255 0
M  V30 579 C 49.0323 -0.64146 3.37254 0
M  V30 580 C 48.1183 0.19944 4.23631 0
M  V30 581 N 48.5093 1.26628 4.89693 0
M  V30 582 C 46.8073 -0.0176433 4.45997 0
M  V30 583 C 47.5083 1.78031 5.53787 0
M  V30 584 N 46.4843 1.08553 5.32651 0
M  V30 585 H 50.2863 1.01893 2.75672 0
M  V30 586 H 47.8003 0.656332 1.48546 0
M  V30 587 H 49.7973 -1.09575 4.02243 0
M  V30 588 H 48.4573 -1.4559 2.9023 0
M  V30 589 H 49.4683 1.64901 4.90946 0
M  V30 590 H 46.1453 -0.800601 4.09752 0
M  V30 591 H 47.5353 2.67236 6.16469 0
M  V30 592 N 50.2554 -1.46986 0.568584 0
M  V30 593 C 51.5044 -2.01646 0.0465894 0
M  V30 594 C 51.8174 -1.44721 -1.31587 0
M  V30 595 O 53.0234 -1.91113 -1.92842 0
M  V30 596 C 51.4794 -3.59885 0.032752 0
M  V30 597 C 51.0874 -4.25804 1.39266 0
M  V30 598 C 52.8314 -4.22255 -0.436038 0
M  V30 599 C 50.7384 -5.76081 1.33732 0
M  V30 600 H 49.6684 -0.753876 0.013647 0
M  V30 601 H 52.3194 -1.68864 0.718131 0
M  V30 602 H 50.7014 -3.8968 -0.704669 0
M  V30 603 H 51.8754 -4.07637 2.1487 0
M  V30 604 H 50.1904 -3.7547 1.80032 0
M  V30 605 H 52.7874 -5.32394 -0.49602 0
M  V30 606 H 53.1304 -3.90212 -1.45053 0
M  V30 607 H 53.6634 -3.97033 0.246877 0
M  V30 608 H 50.4024 -6.12761 2.32817 0
M  V30 609 H 49.9224 -5.96553 0.623267 0
M  V30 610 H 51.6014 -6.38518 1.0442 0
M  V30 611 N 51.7335 -0.305618 -1.54608 0
M  V30 612 C 52.6965 0.555591 -2.22364 0
M  V30 613 C 53.6965 1.05768 -1.21119 0
M  V30 614 O 54.8865 0.952972 -1.45822 0
M  V30 615 C 52.0185 1.76974 -2.91364 0
M  V30 616 H 53.2115 -0.0364572 -2.99878 0
M  V30 617 H 50.7645 -0.0565007 -1.56198 0
M  V30 618 H 51.4995 2.40151 -2.17941 0
M  V30 619 H 51.2845 1.41732 -3.65588 0
M  V30 620 H 52.7745 2.38148 -3.43038 0
M  V30 621 N 53.2116 1.57565 -0.0334293 0
M  V30 622 C 54.4576 1.92262 0.645226 0
M  V30 623 C 54.7906 0.910543 1.71531 0
M  V30 624 O 54.0656 -0.066099 1.94388 0
M  V30 625 C 54.3486 3.37422 1.2577 0
M  V30 626 C 54.2016 4.49369 0.196891 0
M  V30 627 C 55.5206 3.82628 2.17449 0
M  V30 628 H 52.6396 0.699171 0.233085 0
M  V30 629 H 55.2816 1.89779 -0.0915694 0
M  V30 630 H 53.4316 3.39669 1.88566 0
M  V30 631 H 55.1036 4.59254 -0.433962 0
M  V30 632 H 53.3466 4.31168 -0.477137 0
M  V30 633 H 54.0176 5.47978 0.665124 0
M  V30 634 H 56.4936 3.82145 1.64634 0
M  V30 635 H 55.3696 4.84883 2.57254 0
M  V30 636 H 55.6306 3.18376 3.0674 0
M  V30 637 N 54.6897 -0.239769 1.55765 0
M  V30 638 C 55.6197 -1.30052 1.9393 0
M  V30 639 C 56.6007 -1.49839 0.805132 0
M  V30 640 O 57.7857 -1.62328 1.06599 0
M  V30 641 C 54.9157 -2.65391 2.2402 0
M  V30 642 C 53.8697 -2.60289 3.39755 0
M  V30 643 C 53.1957 -3.99489 3.55405 0
M  V30 644 C 54.4957 -2.16654 4.75246 0
M  V30 645 H 56.1897 -0.983573 2.82783 0
M  V30 646 H 53.7357 -0.471701 1.36055 0
M  V30 647 H 55.6887 -3.3974 2.49308 0
M  V30 648 H 54.4127 -2.98736 1.32 0
M  V30 649 H 53.0717 -1.88398 3.14487 0
M  V30 650 H 52.7197 -4.30112 2.60793 0
M  V30 651 H 52.4197 -3.96962 4.33238 0
M  V30 652 H 53.9437 -4.75528 3.83022 0
M  V30 653 H 55.3577 -2.80737 4.99859 0
M  V30 654 H 53.7547 -2.25223 5.56232 0
M  V30 655 H 54.8247 -1.11835 4.71827 0
M  V30 656 N 56.1678 -1.49265 -0.50573 0
M  V30 657 C 57.4078 -1.60128 -1.27038 0
M  V30 658 C 57.7718 -0.279557 -1.89954 0
M  V30 659 O 58.9728 -0.263329 -2.67507 0
M  V30 660 C 57.2438 -2.72507 -2.31246 0
M  V30 661 S 58.8028 -3.0329 -3.17113 0
M  V30 662 H 55.6208 -0.564863 -0.4318 0
M  V30 663 H 58.2228 -1.86902 -0.573397 0
M  V30 664 H 56.9268 -3.67068 -1.83546 0
M  V30 665 H 56.4578 -2.4771 -3.05619 0
M  V30 666 H 58.4728 -2.44448 -4.31809 0
M  V30 667 N 57.6459 0.756429 -1.3826 0
M  V30 668 C 58.9229 1.50584 -1.24835 0
M  V30 669 C 59.3029 2.10556 0.151485 0
M  V30 670 O 58.6509 1.96825 1.1607 0
M  V30 671 C 58.8609 2.57448 -2.3563 0
M  V30 672 C 60.2089 3.24429 -2.73917 0
M  V30 673 O 61.2329 2.67751 -2.34921 0
M  V30 674 O 60.0919 4.26937 -3.41156 0
M  V30 675 H 57.1859 0.667664 -0.48801 0
M  V30 676 H 59.7319 0.792083 -1.5008 0
M  V30 677 H 58.5039 2.11362 -3.29305 0
M  V30 678 H 58.1269 3.36408 -2.11933 0
M  V30 679 N 59.124 1.23083 0.984299 0
M  V30 680 C 60.372 1.05848 1.72165 0
M  V30 681 C 60.693 -0.406049 1.90726 0
M  V30 682 O 59.963 -1.29139 1.47309 0
M  V30 683 H 58.543 0.388685 0.637913 0
M  V30 684 H 61.205 1.54736 1.18503 0
M  V30 685 H 60.301 1.54327 2.71274 0
M  V30 686 N 60.6021 -1.18246 1.0419 0
M  V30 687 C 61.5501 -2.23968 0.627792 0
M  V30 688 C 62.5441 -1.65828 -0.346019 0
M  V30 689 O 63.7501 -1.78733 -0.213175 0
M  V30 690 H 60.1251 -0.728939 0.184802 0
M  V30 691 H 62.0961 -2.56202 1.52981 0
M  V30 692 C 60.8451 -3.47699 0.00796591 0
M  V30 693 H 60.1681 -3.92734 0.748347 0
M  V30 694 H 61.6081 -4.23294 -0.24455 0
M  V30 695 C 60.0671 -3.13153 -1.24246 0
M  V30 696 O 60.5971 -3.27003 -2.33307 0
M  V30 697 N 58.8031 -2.67467 -1.13622 0
M  V30 698 H 58.3501 -2.56396 -0.248734 0
M  V30 699 H 58.3081 -2.44724 -1.97377 0
M  V30 700 N 62.0802 -0.821533 -1.34494 0
M  V30 701 C 63.4962 -0.507117 -1.51329 0
M  V30 702 C 63.6962 0.968964 -1.76673 0
M  V30 703 O 62.7522 1.75348 -1.81685 0
M  V30 704 C 64.0652 -1.36544 -2.67911 0
M  V30 705 C 65.6132 -1.36242 -2.81793 0
M  V30 706 C 66.0882 -2.2052 -4.01416 0
M  V30 707 N 67.5792 -2.18136 -4.08621 0
M  V30 708 C 68.3142 -2.80095 -5.00334 0
M  V30 709 N 67.8102 -3.51039 -5.9728 0
M  V30 710 N 69.6032 -2.69656 -4.93196 0
M  V30 711 H 61.7542 -1.77729 -1.16302 0
M  V30 712 H 64.0172 -0.757291 -0.570276 0
M  V30 713 H 63.7232 -2.41361 -2.55808 0
M  V30 714 H 63.5972 -1.02917 -3.62888 0
M  V30 715 H 65.9842 -0.322041 -2.93338 0
M  V30 716 H 66.0652 -1.73866 -1.87628 0
M  V30 717 H 65.7092 -3.24607 -3.90631 0
M  V30 718 H 65.6392 -1.80247 -4.94791 0
M  V30 719 H 68.1302 -1.6653 -3.39229 0
M  V30 720 H 68.4432 -3.95565 -6.63889 0
M  V30 721 H 66.7882 -3.55145 -5.97409 0
M  V30 722 H 69.9792 -2.13808 -4.16418 0
M  V30 723 H 70.1522 -3.1823 -5.64476 0
M  V30 724 N 63.5583 1.46682 -0.576371 0
M  V30 725 C 64.9743 1.57822 -0.237562 0
M  V30 726 C 65.1743 1.57237 1.26011 0
M  V30 727 O 64.2303 1.48596 2.04146 0
M  V30 728 C 65.5433 2.87499 -0.881168 0
M  V30 729 C 67.0913 3.01119 -0.85417 0
M  V30 730 C 67.5663 4.33524 -1.4772 0
M  V30 731 N 69.0573 4.40207 -1.44125 0
M  V30 732 C 69.7923 5.4126 -1.89276 0
M  V30 733 N 69.2883 6.49021 -2.42371 0
M  V30 734 N 71.0813 5.32422 -1.80231 0
M  V30 735 H 63.2323 1.45306 -1.54919 0
M  V30 736 H 65.4953 0.692733 -0.647167 0
M  V30 737 H 65.2013 2.9372 -1.93447 0
M  V30 738 H 65.0753 3.75224 -0.385592 0
M  V30 739 H 67.4623 2.94485 0.190491 0
M  V30 740 H 67.5433 2.14887 -1.3877 0
M  V30 741 H 67.1873 4.40916 -2.52103 0
M  V30 742 H 67.1173 5.1852 -0.918947 0
M  V30 743 H 69.6083 3.62931 -1.05307 0
M  V30 744 H 69.9213 7.2233 -2.74698 0
M  V30 745 H 68.2663 6.49858 -2.46393 0
M  V30 746 H 71.4573 4.47137 -1.38514 0
M  V30 747 H 71.6303 6.11034 -2.15735 0
M  V30 748 N 65.0364 0.313813 1.54444 0
M  V30 749 C 66.2824 -0.284918 2.01395 0
M  V30 750 C 66.6374 -1.50537 1.19818 0
M  V30 751 O 65.9304 -1.89692 0.269748 0
M  V30 752 C 66.1244 -0.680386 3.50864 0
M  V30 753 C 65.9534 0.500198 4.4691 0
M  V30 754 C 64.7234 0.996248 4.95382 0
M  V30 755 C 66.9214 1.34928 4.96285 0
M  V30 756 N 64.9034 2.14226 5.75309 0
M  V30 757 C 66.2744 2.3426 5.7404 0
M  V30 758 C 68.3294 1.37818 4.78446 0
M  V30 759 C 67.0324 3.36272 6.35856 0
M  V30 760 C 69.0584 2.38695 5.4109 0
M  V30 761 C 68.4204 3.36755 6.18688 0
M  V30 762 H 64.5194 -0.0683689 0.779006 0
M  V30 763 H 67.1034 0.44664 1.89508 0
M  V30 764 H 65.2744 -1.38109 3.63016 0
M  V30 765 H 67.0064 -1.25975 3.84594 0
M  V30 766 H 63.7614 0.56912 4.70168 0
M  V30 767 H 64.1854 2.72005 6.19953 0
M  V30 768 H 68.8274 0.633747 4.18023 0
M  V30 769 H 66.5454 4.11627 6.95405 0
M  V30 770 H 70.1314 2.41721 5.29209 0
M  V30 771 H 69.0114 4.13535 6.66302 0
M  V30 772 N 66.5145 -1.57545 0.0417849 0
M  V30 773 C 67.4775 -2.09885 -0.92093 0
M  V30 774 C 68.4775 -1.01648 -1.24596 0
M  V30 775 O 69.6675 -1.27759 -1.1842 0
M  V30 776 C 66.7995 -2.57527 -2.23367 0
M  V30 777 H 67.9925 -2.96236 -0.467382 0
M  V30 778 H 65.5455 -1.5493 -0.206467 0
M  V30 779 H 66.2805 -1.74542 -2.73323 0
M  V30 780 H 66.0655 -3.36613 -2.01083 0
M  V30 781 H 67.5555 -2.98201 -2.92346 0
M  V30 782 N 67.9926 0.231505 -1.5589 0
M  V30 783 C 69.4086 0.580748 -1.48659 0
M  V30 784 C 69.6086 1.87617 -0.73498 0
M  V30 785 O 68.6646 2.51046 -0.270586 0
M  V30 786 C 69.9776 0.669202 -2.93159 0
M  V30 787 C 71.5256 0.760499 -3.03621 0
M  V30 788 C 72.0006 0.880383 -4.49459 0
M  V30 789 N 73.4916 0.944861 -4.53461 0
M  V30 790 C 74.2266 1.05716 -5.63571 0
M  V30 791 N 73.7226 1.13403 -6.83456 0
M  V30 792 N 75.5156 1.09152 -5.514 0
M  V30 793 H 67.6666 -0.618695 -2.03189 0
M  V30 794 H 69.9296 -0.215728 -0.923128 0
M  V30 795 H 69.6356 -0.212904 -3.51055 0
M  V30 796 H 69.5096 1.5361 -3.44505 0
M  V30 797 H 71.8966 1.63305 -2.45796 0
M  V30 798 H 71.9776 -0.131864 -2.5546 0
M  V30 799 H 71.6216 0.0123284 -5.07899 0
M  V30 800 H 71.5516 1.78802 -4.95316 0
M  V30 801 H 74.0426 0.896176 -3.6712 0
M  V30 802 H 74.3556 1.21921 -7.63122 0
M  V30 803 H 72.7006 1.10333 -6.86186 0
M  V30 804 H 75.8916 1.02805 -4.56671 0
M  V30 805 H 76.0646 1.17558 -6.37247 0
M  V30 806 N 69.4707 1.49531 0.497807 0
M  V30 807 C 70.6957 1.63159 1.28039 0
M  V30 808 C 71.1207 0.30418 1.85624 0
M  V30 809 O 70.4787 -0.728618 1.66015 0
M  V30 810 C 70.5267 2.70537 2.38416 0
M  V30 811 O 69.6307 2.29931 3.42353 0
M  V30 812 H 68.9717 0.546001 0.377861 0
M  V30 813 H 71.5017 1.9574 0.59558 0
M  V30 814 H 71.5117 2.92802 2.84132 0
M  V30 815 H 70.1867 3.6689 1.95869 0
M  V30 816 H 68.7637 2.18009 3.02533 0
M  V30 817 N 70.9488 -0.749086 1.3866 0
M  V30 818 C 71.9118 -1.84457 1.36045 0
M  V30 819 C 72.9118 -1.58682 0.260122 0
M  V30 820 O 74.1018 -1.66343 0.517261 0
M  V30 821 C 71.2338 -3.22008 1.11911 0
M  V30 822 H 72.4268 -1.88182 2.33512 0
M  V30 823 H 69.9798 -0.951266 1.24019 0
M  V30 824 H 70.7148 -3.2395 0.150686 0
M  V30 825 H 70.4998 -3.42111 1.91579 0
M  V30 826 H 71.9898 -4.0208 1.12788 0
M  V30 827 N 72.4269 -1.23603 -0.977757 0
M  V30 828 C 73.6749 -1.06759 -1.71601 0
M  V30 829 C 73.9959 0.395929 -1.90938 0
M  V30 830 O 73.2659 1.28356 -1.47992 0
M  V30 831 H 71.8459 -0.392062 -0.635843 0
M  V30 832 H 74.5079 -1.55362 -1.1768 0
M  V30 833 H 73.6039 -1.55763 -2.70452 0
M  V30 834 N 73.905 1.17692 -1.04816 0
M  V30 835 C 75.135 1.91508 -0.775128 0
M  V30 836 C 75.543 1.76844 0.67253 0
M  V30 837 O 74.886 1.10057 1.47082 0
M  V30 838 C 74.948 3.43167 -1.0713 0
M  V30 839 C 74.612 3.81612 -2.51438 0
M  V30 840 C 75.609 3.84772 -3.49638 0
M  V30 841 C 73.294 4.12687 -2.86348 0
M  V30 842 C 75.288 4.18469 -4.80794 0
M  V30 843 C 72.975 4.46053 -4.17708 0
M  V30 844 C 73.973 4.48921 -5.14741 0
M  V30 845 O 73.661 4.81504 -6.43746 0
M  V30 846 H 73.393 0.614575 -0.281555 0
M  V30 847 H 75.947 1.50206 -1.40098 0
M  V30 848 H 74.177 3.84745 -0.388342 0
M  V30 849 H 75.866 3.98239 -0.784883 0
M  V30 850 H 76.632 3.60893 -3.24008 0
M  V30 851 H 72.511 4.09627 -2.11486 0
M  V30 852 H 76.055 4.20623 -5.56527 0
M  V30 853 H 71.952 4.69393 -4.43103 0
M  V30 854 H 72.72 4.99377 -6.4851 0
M  V30 855 N 75.3831 0.828654 1.34056 0
M  V30 856 C 76.6601 0.341809 1.9259 0
M  V30 857 C 77.0401 -1.17158 1.75605 0
M  V30 858 O 76.3881 -1.98132 1.13824 0
M  V30 859 C 76.5981 0.777453 3.4023 0
M  V30 860 C 77.9461 0.779579 4.17382 0
M  V30 861 O 78.9701 0.7204 3.48839 0
M  V30 862 O 77.8291 0.857996 5.39723 0
M  V30 863 H 74.9231 0.0946085 0.821571 0
M  V30 864 H 77.4691 0.913827 1.42994 0
M  V30 865 H 76.2411 1.8196 3.46419 0
M  V30 866 H 75.8641 0.181444 3.97186 0
M  V30 867 N 76.8612 -1.46375 0.584142 0
M  V30 868 C 78.1382 -1.956 0.0033388 0
M  V30 869 C 78.5182 -1.52679 -1.45782 0
M  V30 870 O 77.8662 -0.77816 -2.14842 0
M  V30 871 C 78.0762 -3.48551 0.176891 0
M  V30 872 C 79.4242 -4.24576 0.0454609 0
M  V30 873 O 80.4482 -3.56043 0.105801 0
M  V30 874 O 79.3072 -5.46427 -0.0890376 0
M  V30 875 H 76.4012 -0.825547 -0.0490066 0
M  V30 876 H 78.9472 -1.56652 0.65256 0
M  V30 877 H 77.7192 -3.72683 1.1926 0
M  V30 878 H 77.3422 -3.94332 -0.508695 0
M  V30 879 N 78.3393 -0.321999 -1.54275 0
M  V30 880 C 79.5853 0.281461 -2.00837 0
M  V30 881 C 79.9183 1.51909 -1.20985 0
M  V30 882 O 79.1933 1.923 -0.291733 0
M  V30 883 C 79.4763 0.617162 -3.54772 0
M  V30 884 C 79.3293 -0.631064 -4.45351 0
M  V30 885 C 80.6483 1.43542 -4.16033 0
M  V30 886 H 77.7673 0.100826 -0.730071 0
M  V30 887 H 80.4093 -0.438268 -1.84876 0
M  V30 888 H 78.5593 1.23034 -3.68504 0
M  V30 889 H 80.2313 -1.26934 -4.43492 0
M  V30 890 H 78.4743 -1.26025 -4.15091 0
M  V30 891 H 79.1453 -0.351735 -5.50878 0
M  V30 892 H 81.6213 0.917134 -4.05867 0
M  V30 893 H 80.4973 1.63907 -5.23856 0
M  V30 894 H 80.7583 2.43108 -3.69257 0
M  V30 895 N 79.8174 1.5752 -0.0501392 0
M  V30 896 C 81.0424 1.97376 0.636997 0
M  V30 897 C 81.4674 0.927466 1.63645 0
M  V30 898 O 80.8254 -0.10941 1.8097 0
M  V30 899 C 80.8734 3.36304 1.30123 0
M  V30 900 O 79.9774 3.34156 2.41689 0
M  V30 901 H 79.3184 0.642998 0.165679 0
M  V30 902 H 81.8484 2.04258 -0.118233 0
M  V30 903 H 81.8584 3.73008 1.65315 0
M  V30 904 H 80.5334 4.11993 0.568746 0
M  V30 905 H 79.1104 3.09196 2.08451 0
M  V30 906 N 81.2955 -0.223234 1.56011 0
M  V30 907 C 82.5255 -0.963413 1.82762 0
M  V30 908 C 82.9335 -1.78516 0.626804 0
M  V30 909 O 82.2765 -1.78974 -0.414014 0
M  V30 910 C 82.3385 -1.93126 3.0322 0
M  V30 911 C 82.0025 -1.2942 4.38291 0
M  V30 912 C 82.9995 -0.684916 5.15369 0
M  V30 913 C 80.6845 -1.30647 4.85012 0
M  V30 914 C 82.6785 -0.0963971 6.37327 0
M  V30 915 C 80.3655 -0.71411 6.06913 0
M  V30 916 C 81.3635 -0.110123 6.82911 0
M  V30 917 O 81.0515 0.47303 8.02507 0
M  V30 918 H 80.7835 -0.288011 0.611576 0
M  V30 919 H 83.3375 -0.244103 2.03944 0
M  V30 920 H 81.5675 -2.68952 2.77852 0
M  V30 921 H 83.2565 -2.53685 3.16857 0
M  V30 922 H 84.0225 -0.667774 4.80381 0
M  V30 923 H 79.9015 -1.76598 4.25833 0
M  V30 924 H 83.4455 0.375657 6.96588 0
M  V30 925 H 79.3425 -0.728659 6.41374 0
M  V30 926 H 80.1105 0.367186 8.17676 0
M  V30 927 N 82.7736 -1.49793 -0.48987 0
M  V30 928 C 84.0216 -1.59525 -1.24081 0
M  V30 929 C 84.3426 -0.288953 -1.92847 0
M  V30 930 O 83.6126 0.692436 -1.83254 0
M  V30 931 H 82.1926 -0.587796 -0.460983 0
M  V30 932 H 84.8546 -1.86477 -0.566778 0
M  V30 933 H 83.9506 -2.39696 -1.99881 0
M  V30 934 N 84.2517 0.741722 -1.39055 0
M  V30 935 C 85.4817 1.52876 -1.3897 0
M  V30 936 C 85.8897 1.8919 0.0193266 0
M  V30 937 O 85.2327 1.54138 0.999356 0
M  V30 938 C 85.2947 2.84929 -2.19216 0
M  V30 939 C 84.9587 2.71086 -3.67915 0
M  V30 940 C 85.9557 2.40084 -4.61146 0
M  V30 941 C 83.6407 2.88168 -4.11418 0
M  V30 942 C 85.6347 2.26335 -5.95862 0
M  V30 943 C 83.3217 2.74037 -5.46211 0
M  V30 944 C 84.3197 2.43166 -6.38247 0
M  V30 945 O 84.0077 2.29115 -7.70559 0
M  V30 946 H 83.7397 0.479252 -0.476753 0
M  V30 947 H 86.2937 0.924751 -1.83405 0
M  V30 948 H 84.5237 3.47564 -1.69518 0
M  V30 949 H 86.2127 3.46509 -2.11392 0
M  V30 950 H 86.9787 2.26545 -4.28838 0
M  V30 951 H 82.8577 3.11191 -3.40119 0
M  V30 952 H 86.4017 2.0216 -6.67665 0
M  V30 953 H 82.2987 2.87153 -5.78112 0
M  V30 954 H 83.0667 2.44237 -7.81211 0
M  V30 955 N 85.7298 1.2412 0.971189 0
M  V30 956 C 87.1458 1.00584 1.23916 0
M  V30 957 C 87.3458 -0.287481 1.99439 0
M  V30 958 O 86.4018 -1.00454 2.31658 0
M  V30 959 C 87.7148 2.21864 2.0297 0
M  V30 960 C 89.2628 2.26452 2.16076 0
M  V30 961 C 89.7378 3.47343 2.98524 0
M  V30 962 N 91.2288 3.47639 3.06107 0
M  V30 963 C 91.9638 4.37837 3.70251 0
M  V30 964 N 91.4598 5.38286 4.36142 0
M  V30 965 N 93.2528 4.25558 3.67228 0
M  V30 966 H 85.4038 2.07236 0.465499 0
M  V30 967 H 87.6668 0.909236 0.268315 0
M  V30 968 H 87.3728 3.15771 1.54861 0
M  V30 969 H 87.2468 2.23698 3.03709 0
M  V30 970 H 89.6338 1.33078 2.6339 0
M  V30 971 H 89.7148 2.28645 1.14696 0
M  V30 972 H 89.3588 4.41029 2.51905 0
M  V30 973 H 89.2888 3.42393 4.00093 0
M  V30 974 H 91.7798 2.74966 2.59233 0
M  V30 975 H 92.0928 6.03352 4.82894 0
M  V30 976 H 90.4378 5.42176 4.34822 0
M  V30 977 H 93.6288 3.46322 3.14927 0
M  V30 978 H 93.8018 4.96054 4.16935 0
M  V30 979 N 87.2079 -1.17134 1.05439 0
M  V30 980 C 88.1409 -2.2012 0.601855 0
M  V30 981 C 89.1189 -1.58314 -0.370854 0
M  V30 982 O 90.3029 -1.8638 -0.281882 0
M  V30 983 C 87.4299 -3.38491 -0.118868 0
M  V30 984 C 86.4759 -4.18752 0.809242 0
M  V30 985 S 87.3089 -4.83602 2.29977 0
M  V30 986 C 88.4649 -6.0536 1.59029 0
M  V30 987 H 88.6979 -2.58165 1.47438 0
M  V30 988 H 86.2309 -1.27788 0.866573 0
M  V30 989 H 88.1889 -4.07084 -0.528495 0
M  V30 990 H 86.8499 -2.98829 -0.967465 0
M  V30 991 H 86.0429 -5.03373 0.251379 0
M  V30 992 H 85.6449 -3.5561 1.15835 0
M  V30 993 H 87.9369 -6.71615 0.891017 0
M  V30 994 H 88.8799 -6.65679 2.41407 0
M  V30 995 H 89.2879 -5.54138 1.07663 0
M  V30 996 N 88.686 -0.835752 -1.33615 0
M  V30 997 C 89.934 -0.429109 -1.97492 0
M  V30 998 C 90.255 1.01433 -1.66543 0
M  V30 999 O 89.525 1.70611 -0.962744 0
M  V30 1000 H 88.105 -0.155686 -0.730596 0
M  V30 1001 H 90.767 -1.06802 -1.63031 0
M  V30 1002 H 89.863 -0.55861 -3.0706 0
M  V30 1003 N 90.1641 1.46063 -0.591896 0
M  V30 1004 C 91.1271 2.28854 0.125973 0
M  V30 1005 C 92.1271 1.38903 0.810107 0
M  V30 1006 O 93.3171 1.61186 0.66066 0
M  V30 1007 C 90.4491 3.19526 1.1881 0
M  V30 1008 H 91.6421 2.93802 -0.601717 0
M  V30 1009 H 89.1951 1.52325 -0.350254 0
M  V30 1010 H 89.9301 2.59345 1.94707 0
M  V30 1011 H 89.7151 3.85766 0.701936 0
M  V30 1012 H 91.2051 3.81817 1.69132 0
M  V30 1013 N 91.6422 0.330177 1.54103 0
M  V30 1014 C 92.6052 -0.520144 2.2322 0
M  V30 1015 C 93.6052 -1.03828 1.22786 0
M  V30 1016 O 94.7952 -0.929652 1.4732 0
M  V30 1017 C 91.9272 -1.72317 2.94142 0
M  V30 1018 H 93.1202 0.0841605 2.99782 0
M  V30 1019 H 90.6732 0.0813433 1.56088 0
M  V30 1020 H 91.4082 -2.36653 2.21734 0
M  V30 1021 H 91.1932 -1.35898 3.67796 0
M  V30 1022 H 92.6832 -2.3266 3.46784 0
M  V30 1023 N 93.1203 -1.57491 0.0584922 0
M  V30 1024 C 94.0673 -2.11958 -0.913376 0
M  V30 1025 C 95.0373 -1.02875 -1.30407 0
M  V30 1026 O 96.2223 -1.30464 -1.39226 0
M  V30 1027 C 93.3623 -2.67497 -2.18035 0
M  V30 1028 C 92.4753 -3.90691 -1.84349 0
M  V30 1029 C 91.6103 -4.3452 -3.05559 0
M  V30 1030 C 90.6493 -5.50395 -2.67827 0
M  V30 1031 N 89.7863 -5.89244 -3.81754 0
M  V30 1032 H 94.6263 -2.94704 -0.442017 0
M  V30 1033 H 92.1633 -1.45643 -0.206545 0
M  V30 1034 H 94.1213 -2.978 -2.92183 0
M  V30 1035 H 92.7513 -1.87537 -2.62735 0
M  V30 1036 H 91.8033 -3.66934 -1.00319 0
M  V30 1037 H 93.1153 -4.7489 -1.5258 0
M  V30 1038 H 92.2693 -4.66414 -3.87998 0
M  V30 1039 H 91.0083 -3.49147 -3.40511 0
M  V30 1040 H 90.0133 -5.18165 -1.83806 0
M  V30 1041 H 91.2383 -6.3749 -2.34059 0
M  V30 1042 H 89.1843 -5.06823 -4.16493 0
M  V30 1043 H 89.1013 -6.68151 -3.53708 0
M  V30 1044 H 90.3693 -6.25756 -4.64811 0
M  V30 1045 N 94.5984 0.214957 -1.56127 0
M  V30 1046 C 95.8474 0.936451 -1.78643 0
M  V30 1047 C 96.1604 1.85237 -0.628229 0
M  V30 1048 O 97.3664 2.613 -0.737186 0
M  V30 1049 C 95.8224 1.7154 -3.16389 0
M  V30 1050 C 95.4304 0.845299 -4.39953 0
M  V30 1051 C 97.1744 2.42772 -3.48227 0
M  V30 1052 C 95.0814 1.62198 -5.68723 0
M  V30 1053 H 94.0114 0.353401 -0.666051 0
M  V30 1054 H 96.6624 0.190169 -1.82512 0
M  V30 1055 H 95.0444 2.50484 -3.06715 0
M  V30 1056 H 96.2184 0.0959353 -4.607 0
M  V30 1057 H 94.5334 0.244789 -4.1568 0
M  V30 1058 H 97.1304 3.01394 -4.41663 0
M  V30 1059 H 97.4734 3.15984 -2.71035 0
M  V30 1060 H 98.0064 1.70813 -3.5926 0
M  V30 1061 H 94.7454 0.933011 -6.48826 0
M  V30 1062 H 94.2654 2.34579 -5.52026 0
M  V30 1063 H 95.9444 2.18095 -6.09133 0
M  V30 1064 N 96.0765 1.50051 0.48192 0
M  V30 1065 C 97.0395 1.67584 1.5636 0
M  V30 1066 C 98.0395 0.546894 1.51214 0
M  V30 1067 O 99.2295 0.813725 1.54026 0
M  V30 1068 C 96.3615 1.691 2.96003 0
M  V30 1069 H 97.5545 2.64078 1.42136 0
M  V30 1070 H 95.1075 1.39369 0.707533 0
M  V30 1071 H 95.8425 0.742589 3.15684 0
M  V30 1072 H 95.6275 2.51105 3.01146 0
M  V30 1073 H 97.1175 1.84656 3.74556 0
M  V30 1074 N 97.5546 -0.734337 1.39446 0
M  V30 1075 C 98.4646 -1.87879 1.40495 0
M  V30 1076 C 99.4806 -1.714 0.299672 0
M  V30 1077 O 100.657 -1.93991 0.541249 0
M  V30 1078 C 97.7216 -3.23477 1.24754 0
M  V30 1079 C 96.7826 -3.52344 2.45259 0
M  V30 1080 C 96.0156 -4.81473 2.30259 0
M  V30 1081 O 96.2386 -5.55237 1.30643 0
M  V30 1082 O 95.1726 -5.10254 3.19256 0
M  V30 1083 H 98.9986 -1.89949 2.36966 0
M  V30 1084 H 96.5836 -0.882243 1.20569 0
M  V30 1085 H 98.4656 -4.04509 1.18111 0
M  V30 1086 H 97.1406 -3.22176 0.313781 0
M  V30 1087 H 96.0476 -2.71396 2.57478 0
M  V30 1088 H 97.3806 -3.58426 3.37331 0
M  V30 1089 N 99.0327 -1.24633 -0.964593 0
M  V30 1090 C 99.9657 -0.984662 -2.05863 0
M  V30 1091 C 100.944 0.0826554 -1.6239 0
M  V30 1092 O 102.128 -0.0549296 -1.8842 0
M  V30 1093 C 99.2547 -0.486529 -3.35187 0
M  V30 1094 C 98.3007 -1.54286 -3.97615 0
M  V30 1095 S 99.1337 -3.12513 -4.34851 0
M  V30 1096 C 100.29 -2.6441 -5.67308 0
M  V30 1097 H 100.523 -1.91104 -2.27743 0
M  V30 1098 H 98.0557 -1.08052 -1.10291 0
M  V30 1099 H 100.014 -0.205757 -4.09984 0
M  V30 1100 H 98.6747 0.419186 -3.1129 0
M  V30 1101 H 97.8677 -1.14481 -4.90826 0
M  V30 1102 H 97.4697 -1.7738 -3.2926 0
M  V30 1103 H 99.7617 -2.07416 -6.44969 0
M  V30 1104 H 100.705 -3.56222 -6.11973 0
M  V30 1105 H 101.113 -2.04734 -5.26065 0
M  V30 1106 N 100.511 1.16574 -1.06058 0
M  V30 1107 C 101.441 2.23057 -0.690488 0
M  V30 1108 C 102.422 1.67141 0.315901 0
M  V30 1109 O 103.607 1.93253 0.191556 0
M  V30 1110 C 100.737 3.47222 -0.073625 0
M  V30 1111 C 99.6908 4.16016 -1.00573 0
M  V30 1112 C 99.0168 5.34104 -0.252289 0
M  V30 1113 C 100.317 4.67264 -2.33371 0
M  V30 1114 H 102.011 2.54271 -1.58072 0
M  V30 1115 H 99.5568 1.22218 -0.76149 0
M  V30 1116 H 101.51 4.20939 0.19714 0
M  V30 1117 H 100.234 3.15302 0.85161 0
M  V30 1118 H 98.8928 3.44223 -1.2612 0
M  V30 1119 H 98.5408 4.98437 0.675988 0
M  V30 1120 H 98.2408 5.81072 -0.873455 0
M  V30 1121 H 99.7648 6.10599 0.0109857 0
M  V30 1122 H 101.179 5.32573 -2.12223 0
M  V30 1123 H 99.5758 5.24843 -2.90963 0
M  V30 1124 H 100.646 3.83602 -2.96611 0
M  V30 1125 N 101.989 0.842826 1.3317 0
M  V30 1126 C 103.405 0.531128 1.50503 0
M  V30 1127 C 103.605 -0.940734 1.78192 0
M  V30 1128 O 102.661 -1.72436 1.84451 0
M  V30 1129 C 103.974 1.40789 2.65705 0
M  V30 1130 C 105.522 1.40708 2.79589 0
M  V30 1131 C 105.997 2.26878 3.97857 0
M  V30 1132 N 107.488 2.24609 4.05099 0
M  V30 1133 C 108.223 2.88019 4.95815 0
M  V30 1134 N 107.719 3.60496 5.9162 0
M  V30 1135 N 109.512 2.77469 4.88843 0
M  V30 1136 H 101.663 1.79557 1.1346 0
M  V30 1137 H 103.926 0.766267 0.558156 0
M  V30 1138 H 103.632 2.454 2.51936 0
M  V30 1139 H 103.506 1.08677 3.61205 0
M  V30 1140 H 105.893 0.368668 2.92788 0
M  V30 1141 H 105.974 1.76829 1.84838 0
M  V30 1142 H 105.618 3.3078 3.85418 0
M  V30 1143 H 105.548 1.88096 4.91861 0
M  V30 1144 H 108.039 1.71906 3.36536 0
M  V30 1145 H 108.352 4.06076 6.57512 0
M  V30 1146 H 106.697 3.64604 5.91683 0
M  V30 1147 H 109.888 2.20406 4.12963 0
M  V30 1148 H 110.061 3.2717 5.59342 0
M  V30 1149 N 103.467 -1.45747 0.599634 0
M  V30 1150 C 104.713 -2.03153 0.100263 0
M  V30 1151 C 105.068 -1.46073 -1.25221 0
M  V30 1152 O 104.361 -0.622878 -1.81193 0
M  V30 1153 C 104.555 -3.57399 -0.00602758 0
M  V30 1154 C 104.384 -4.2944 1.3346 0
M  V30 1155 C 103.154 -4.6768 1.91321 0
M  V30 1156 C 105.352 -4.61905 2.2616 0
M  V30 1157 N 103.334 -5.24544 3.18946 0
M  V30 1158 C 104.705 -5.19518 3.3838 0
M  V30 1159 C 106.76 -4.43841 2.25631 0
M  V30 1160 C 105.463 -5.60972 4.50226 0
M  V30 1161 C 107.489 -4.86322 3.36518 0
M  V30 1162 C 106.851 -5.44021 4.4746 0
M  V30 1163 H 102.95 -0.777911 0.0798696 0
M  V30 1164 H 105.534 -1.77674 0.796244 0
M  V30 1165 H 103.705 -3.82556 -0.671212 0
M  V30 1166 H 105.437 -4.01457 -0.51133 0
M  V30 1167 H 102.192 -4.5098 1.44617 0
M  V30 1168 H 102.616 -5.57483 3.84112 0
M  V30 1169 H 107.258 -3.98552 1.41123 0
M  V30 1170 H 104.976 -6.0523 5.35464 0
M  V30 1171 H 108.562 -4.74084 3.37247 0
M  V30 1172 H 107.442 -5.76289 5.31846 0
M  V30 1173 N 104.945 -0.338344 -1.53925 0
M  V30 1174 C 106.185 0.260168 -2.02737 0
M  V30 1175 C 106.549 1.48181 -1.22092 0
M  V30 1176 O 107.75 2.15416 -1.60777 0
M  V30 1177 C 106.021 0.571627 -3.52799 0
M  V30 1178 S 107.58 1.14769 -4.23525 0
M  V30 1179 H 104.398 0.077791 -0.706732 0
M  V30 1180 H 107 -0.474899 -1.89644 0
M  V30 1181 H 105.704 -0.325392 -4.09108 0
M  V30 1182 H 105.235 1.3365 -3.70002 0
M  V30 1183 H 107.25 2.43372 -4.32417 0
M  V30 1184 N 106.423 1.57458 -0.0668435 0
M  V30 1185 C 107.373 2.0896 0.912119 0
M  V30 1186 C 108.357 0.998186 1.26195 0
M  V30 1187 O 109.549 1.26133 1.24175 0
M  V30 1188 C 106.678 2.6508 2.18145 0
M  V30 1189 C 105.764 3.81218 1.85832 0
M  V30 1190 N 106.155 4.90378 1.23948 0
M  V30 1191 C 104.453 3.9042 2.15612 0
M  V30 1192 C 105.154 5.71279 1.09616 0
M  V30 1193 N 104.13 5.19389 1.60423 0
M  V30 1194 H 107.932 2.90749 0.42924 0
M  V30 1195 H 105.446 1.6182 0.137184 0
M  V30 1196 H 107.443 3.0029 2.89192 0
M  V30 1197 H 106.103 1.84736 2.67025 0
M  V30 1198 H 107.114 5.09847 0.909731 0
M  V30 1199 H 103.791 3.21043 2.66903 0
M  V30 1200 H 105.181 6.69085 0.614425 0
M  V30 1201 N 107.901 -0.206675 1.56239 0
M  V30 1202 C 108.811 -1.27686 1.96808 0
M  V30 1203 C 109.827 -1.50455 0.874035 0
M  V30 1204 O 111.003 -1.63295 1.17884 0
M  V30 1205 C 108.068 -2.60358 2.28942 0
M  V30 1206 C 107.129 -2.45762 3.51994 0
M  V30 1207 C 106.362 -3.72108 3.82585 0
M  V30 1208 O 106.585 -4.75776 3.14631 0
M  V30 1209 O 105.519 -3.6833 4.76043 0
M  V30 1210 H 109.345 -0.962593 2.88041 0
M  V30 1211 H 106.93 -0.410746 1.43643 0
M  V30 1212 H 108.812 -3.38687 2.50737 0
M  V30 1213 H 107.487 -2.91435 1.4088 0
M  V30 1214 H 106.394 -1.65584 3.35459 0
M  V30 1215 H 107.727 -2.19621 4.40486 0
M  V30 1216 N 109.379 -1.50304 -0.473955 0
M  V30 1217 C 110.342 -1.6841 -1.55469 0
M  V30 1218 C 111.342 -0.554905 -1.50922 0
M  V30 1219 O 112.532 -0.821882 -1.53593 0
M  V30 1220 C 109.664 -1.70667 -2.95102 0
M  V30 1221 H 110.857 -2.64828 -1.40733 0
M  V30 1222 H 108.41 -1.39742 -0.700132 0
M  V30 1223 H 109.145 -0.75932 -3.15285 0
M  V30 1224 H 108.93 -2.52698 -2.9981 0
M  V30 1225 H 110.42 -1.8664 -3.73571 0
M  V30 1226 N 110.857 0.726932 -1.39834 0
M  V30 1227 C 112.105 1.4837 -1.37225 0
M  V30 1228 C 112.426 1.94979 0.0284857 0
M  V30 1229 O 111.696 1.69555 0.981213 0
M  V30 1230 H 110.276 0.55043 -0.505011 0
M  V30 1231 H 112.938 0.862468 -1.74778 0
M  V30 1232 H 112.034 2.36198 -2.04003 0
M  V30 1233 N 112.336 1.25143 0.95797 0
M  V30 1234 C 113.585 1.0909 1.69654 0
M  V30 1235 C 113.898 -0.368548 1.92097 0
M  V30 1236 O 115.104 -0.649455 2.63618 0
M  V30 1237 C 113.56 1.90395 3.05414 0
M  V30 1238 C 113.168 3.4081 2.90779 0
M  V30 1239 C 114.912 1.82901 3.83076 0
M  V30 1240 C 112.819 4.14423 4.21909 0
M  V30 1241 H 111.749 0.404625 0.636235 0
M  V30 1242 H 114.4 1.4931 1.06672 0
M  V30 1243 H 112.782 1.42996 3.69281 0
M  V30 1244 H 113.956 3.95859 2.35865 0
M  V30 1245 H 112.271 3.49361 2.26575 0
M  V30 1246 H 114.868 2.35196 4.80195 0
M  V30 1247 H 115.211 0.796224 4.08615 0
M  V30 1248 H 115.744 2.28033 3.25954 0
M  V30 1249 H 112.483 5.18102 4.01561 0
M  V30 1250 H 112.003 3.64159 4.76601 0
M  V30 1251 H 113.682 4.21956 4.90471 0
M  V30 1252 N 113.814 -1.1601 1.06675 0
M  V30 1253 C 114.724 -2.24156 0.692179 0
M  V30 1254 C 115.74 -1.71507 -0.293513 0
M  V30 1255 O 116.916 -2.009 -0.141861 0
M  V30 1256 C 113.981 -3.46587 0.0884131 0
M  V30 1257 C 113.042 -4.14257 1.12646 0
M  V30 1258 C 112.275 -5.30844 0.551416 0
M  V30 1259 O 112.498 -5.66858 -0.634656 0
M  V30 1260 O 111.432 -5.87848 1.29298 0
M  V30 1261 H 115.258 -2.58513 1.59388 0
M  V30 1262 H 112.843 -1.23599 0.83926 0
M  V30 1263 H 114.725 -4.20679 -0.246361 0
M  V30 1264 H 113.4 -3.13994 -0.786712 0
M  V30 1265 H 112.307 -3.42118 1.51348 0
M  V30 1266 H 113.64 -4.50914 1.97325 0
M  V30 1267 N 115.292 -0.849877 -1.32721 0
M  V30 1268 C 116.222 -0.306308 -2.31482 0
M  V30 1269 C 117.203 0.591952 -1.59468 0
M  V30 1270 O 118.388 0.513199 -1.87296 0
M  V30 1271 C 115.518 0.510204 -3.43532 0
M  V30 1272 C 114.472 -0.293209 -4.26994 0
M  V30 1273 C 113.798 0.647743 -5.30762 0
M  V30 1274 C 115.098 -1.51634 -4.99804 0
M  V30 1275 H 116.792 -1.13153 -2.77195 0
M  V30 1276 H 114.338 -0.545553 -1.33266 0
M  V30 1277 H 116.291 0.900856 -4.11658 0
M  V30 1278 H 115.015 1.36874 -2.96535 0
M  V30 1279 H 113.674 -0.665555 -3.60508 0
M  V30 1280 H 113.322 1.50299 -4.8002 0
M  V30 1281 H 113.022 0.11422 -5.87489 0
M  V30 1282 H 114.546 1.03567 -6.01753 0
M  V30 1283 H 115.96 -1.19824 -5.60638 0
M  V30 1284 H 114.357 -1.98745 -5.66234 0
M  V30 1285 H 115.427 -2.28018 -4.27943 0
M  V30 1286 N 116.77 1.45427 -0.607355 0
M  V30 1287 C 117.733 2.28974 0.101693 0
M  V30 1288 C 118.733 1.39754 0.795329 0
M  V30 1289 O 119.923 1.61878 0.643527 0
M  V30 1290 C 117.055 3.20768 1.15414 0
M  V30 1291 H 118.248 2.93147 -0.632844 0
M  V30 1292 H 115.801 1.51945 -0.366391 0
M  V30 1293 H 116.536 2.61395 1.91945 0
M  V30 1294 H 116.321 3.86489 0.66098 0
M  V30 1295 H 117.811 3.83589 1.65073 0
M  V30 1296 N 118.248 0.346503 1.53744 0
M  V30 1297 C 119.476 -0.25041 2.05379 0
M  V30 1298 C 119.891 -1.43979 1.22129 0
M  V30 1299 O 119.248 -1.80677 0.257321 0
M  V30 1300 C 119.299 -0.662575 3.55376 0
M  V30 1301 O 119.02 0.479515 4.35468 0
M  V30 1302 C 120.521 -1.31989 4.23195 0
M  V30 1303 H 117.741 -0.0478198 0.669294 0
M  V30 1304 H 120.285 0.499346 1.9831 0
M  V30 1305 H 118.44 -1.36227 3.62658 0
M  V30 1306 H 118.854 0.15037 5.24284 0
M  V30 1307 H 120.328 -1.55902 5.29527 0
M  V30 1308 H 120.805 -2.27436 3.75725 0
M  V30 1309 H 121.411 -0.662154 4.20114 0
M  V30 1310 N 119.726 -1.57421 0.075193 0
M  V30 1311 C 120.972 -1.93905 -0.594025 0
M  V30 1312 C 121.305 -0.955701 -1.69056 0
M  V30 1313 O 120.58 0.0145373 -1.94495 0
M  V30 1314 C 120.863 -3.40638 -1.1678 0
M  V30 1315 C 120.716 -4.49733 -0.0776792 0
M  V30 1316 C 122.035 -3.88259 -2.07228 0
M  V30 1317 H 119.154 -0.705105 -0.214466 0
M  V30 1318 H 121.796 -1.8947 0.141854 0
M  V30 1319 H 119.946 -3.44549 -1.79494 0
M  V30 1320 H 121.618 -4.57942 0.555573 0
M  V30 1321 H 119.861 -4.29751 0.591286 0
M  V30 1322 H 120.532 -5.49549 -0.519603 0
M  V30 1323 H 123.008 -3.86376 -1.54445 0
M  V30 1324 H 121.884 -4.91533 -2.44308 0
M  V30 1325 H 122.145 -3.26396 -2.98191 0
M  V30 1326 N 121.204 0.198386 -1.56346 0
M  V30 1327 C 122.434 0.934215 -1.84271 0
M  V30 1328 C 122.842 1.77496 -0.655125 0
M  V30 1329 O 122.185 1.7961 0.385488 0
M  V30 1330 C 122.247 1.88278 -3.06254 0
M  V30 1331 C 121.911 1.22431 -4.40295 0
M  V30 1332 C 122.908 0.602839 -5.16393 0
M  V30 1333 C 120.593 1.22915 -4.87029 0
M  V30 1334 C 122.587 -0.0050083 -6.374 0
M  V30 1335 C 120.274 0.617465 -6.07973 0
M  V30 1336 C 121.272 0.00146341 -6.83 0
M  V30 1337 O 120.96 -0.600642 -8.01653 0
M  V30 1338 H 120.692 0.278245 -0.616081 0
M  V30 1339 H 123.246 0.211626 -2.04307 0
M  V30 1340 H 121.476 2.64498 -2.82095 0
M  V30 1341 H 123.165 2.48612 -3.20853 0
M  V30 1342 H 123.931 0.591265 -4.81382 0
M  V30 1343 H 119.81 1.69801 -4.28589 0
M  V30 1344 H 123.354 -0.48643 -6.95902 0
M  V30 1345 H 119.251 0.62653 -6.42452 0
M  V30 1346 H 120.019 -0.497225 -8.16988 0
M  V30 1347 N 122.682 1.50554 0.465978 0
M  V30 1348 C 123.612 1.72722 1.57128 0
M  V30 1349 C 124.593 0.576294 1.6004 0
M  V30 1350 O 125.778 0.81598 1.76225 0
M  V30 1351 C 122.908 1.82605 2.95419 0
M  V30 1352 C 121.862 2.97835 3.07373 0
M  V30 1353 C 121.188 2.92867 4.47363 0
M  V30 1354 C 122.488 4.38265 2.84114 0
M  V30 1355 H 124.182 2.65267 1.38829 0
M  V30 1356 H 121.728 1.2765 0.666441 0
M  V30 1357 H 123.681 1.96698 3.72677 0
M  V30 1358 H 122.405 0.866858 3.14886 0
M  V30 1359 H 121.064 2.83401 2.3255 0
M  V30 1360 H 120.712 1.94783 4.63755 0
M  V30 1361 H 120.412 3.70227 4.56296 0
M  V30 1362 H 121.936 3.09015 5.26633 0
M  V30 1363 H 123.35 4.53198 3.51118 0
M  V30 1364 H 121.747 5.17115 3.04487 0
M  V30 1365 H 122.817 4.50281 1.7993 0
M  V30 1366 N 124.16 -0.719506 1.40217 0
M  V30 1367 C 125.09 -1.8465 1.42922 0
M  V30 1368 C 126.071 -1.67599 0.29062 0
M  V30 1369 O 127.256 -1.87688 0.498677 0
M  V30 1370 C 124.386 -3.22565 1.28722 0
M  V30 1371 C 123.34 -3.54281 2.40144 0
M  V30 1372 C 122.666 -4.91298 2.11023 0
M  V30 1373 C 123.966 -3.55676 3.82481 0
M  V30 1374 H 125.66 -1.82644 2.37237 0
M  V30 1375 H 123.206 -0.877305 1.1419 0
M  V30 1376 H 125.159 -4.01095 1.29232 0
M  V30 1377 H 123.883 -3.25137 0.308811 0
M  V30 1378 H 122.542 -2.78088 2.38877 0
M  V30 1379 H 122.19 -4.90468 1.11582 0
M  V30 1380 H 121.89 -5.13485 2.8567 0
M  V30 1381 H 123.414 -5.72166 2.13209 0
M  V30 1382 H 124.828 -4.24254 3.85592 0
M  V30 1383 H 123.225 -3.89388 4.56614 0
M  V30 1384 H 124.295 -2.55144 4.12346 0
M  V30 1385 N 125.638 -1.25649 -0.95132 0
M  V30 1386 C 126.863 -1.13443 -1.73624 0
M  V30 1387 C 127.288 0.307565 -1.85568 0
M  V30 1388 O 126.646 1.22282 -1.33854 0
M  V30 1389 C 126.694 -1.79723 -3.12621 0
M  V30 1390 O 125.798 -1.07912 -3.98031 0
M  V30 1391 H 125.139 -0.395872 -0.533086 0
M  V30 1392 H 127.669 -1.66276 -1.1922 0
M  V30 1393 H 127.679 -1.86141 -3.63064 0
M  V30 1394 H 126.354 -2.84633 -3.03244 0
M  V30 1395 H 124.931 -1.09398 -3.56492 0
M  V30 1396 N 127.117 1.15442 -1.07289 0
M  V30 1397 C 128.345 1.90096 -0.81676 0
M  V30 1398 C 128.76 1.7798 0.629966 0
M  V30 1399 O 128.117 1.1313 1.43206 0
M  V30 1400 C 128.168 3.40466 -1.21512 0
M  V30 1401 O 127.889 3.52232 -2.60508 0
M  V30 1402 C 129.39 4.32145 -0.988198 0
M  V30 1403 H 126.61 0.602495 -0.295366 0
M  V30 1404 H 129.154 1.4627 -1.42918 0
M  V30 1405 H 127.309 3.81958 -0.647039 0
M  V30 1406 H 127.723 4.45549 -2.76742 0
M  V30 1407 H 129.197 5.36072 -1.31645 0
M  V30 1408 H 129.674 4.39135 0.0755063 0
M  V30 1409 H 130.28 3.96395 -1.54115 0
M  V30 1410 N 128.595 0.856903 1.32268 0
M  V30 1411 C 129.505 0.306131 2.32594 0
M  V30 1412 C 130.521 -0.577209 1.64147 0
M  V30 1413 O 131.697 -0.477043 1.95669 0
M  V30 1414 C 128.762 -0.494561 3.43154 0
M  V30 1415 C 127.823 0.415186 4.27288 0
M  V30 1416 C 127.056 -0.347387 5.32568 0
M  V30 1417 O 127.279 -1.57708 5.48165 0
M  V30 1418 O 126.213 0.287982 6.01211 0
M  V30 1419 H 130.039 1.13737 2.81598 0
M  V30 1420 H 127.624 0.619902 1.35932 0
M  V30 1421 H 129.506 -0.948944 4.10576 0
M  V30 1422 H 128.181 -1.30257 2.96336 0
M  V30 1423 H 127.088 0.917793 3.62667 0
M  V30 1424 H 128.421 1.18844 4.77637 0
M  V30 1425 N 130.073 -1.45103 0.615059 0
M  V30 1426 C 131.021 -2.32331 -0.111791 0
M  V30 1427 C 132.015 -1.46409 -0.852102 0
M  V30 1428 O 133.221 -1.62849 -0.766821 0
M  V30 1429 H 129.596 -0.749993 -0.0549072 0
M  V30 1430 H 131.567 -2.91407 0.642225 0
M  V30 1431 C 130.316 -3.3015 -1.09071 0
M  V30 1432 H 129.639 -3.96265 -0.530485 0
M  V30 1433 H 131.079 -3.93898 -1.56908 0
M  V30 1434 C 129.538 -2.57875 -2.168 0
M  V30 1435 O 130.068 -2.36567 -3.24652 0
M  V30 1436 N 128.274 -2.17884 -1.92289 0
M  V30 1437 H 127.821 -2.35413 -1.04587 0
M  V30 1438 H 127.779 -1.6985 -2.64572 0
M  V30 1439 N 131.551 -0.354651 -1.53558 0
M  V30 1440 C 132.481 0.489091 -2.2832 0
M  V30 1441 C 133.462 1.09324 -1.30316 0
M  V30 1442 O 134.647 1.11255 -1.59173 0
M  V30 1443 C 131.777 1.63456 -3.0643 0
M  V30 1444 C 130.731 1.1582 -4.12031 0
M  V30 1445 C 130.057 2.39305 -4.7816 0
M  V30 1446 C 131.357 0.250731 -5.21698 0
M  V30 1447 H 133.051 -0.134614 -2.99097 0
M  V30 1448 H 130.597 -0.0661826 -1.43848 0
M  V30 1449 H 132.55 2.23136 -3.57475 0
M  V30 1450 H 131.274 2.28533 -2.33325 0
M  V30 1451 H 129.933 0.584146 -3.61916 0
M  V30 1452 H 129.581 3.02814 -4.01637 0
M  V30 1453 H 129.281 2.08109 -5.49513 0
M  V30 1454 H 130.805 2.99691 -5.31994 0
M  V30 1455 H 132.219 0.754695 -5.68311 0
M  V30 1456 H 130.616 0.0301468 -6.00092 0
M  V30 1457 H 131.686 -0.710125 -4.79672 0
M  V30 1458 N 133.029 1.57378 -0.0835403 0
M  V30 1459 C 133.961 2.10389 0.909338 0
M  V30 1460 C 134.974 1.03858 1.25369 0
M  V30 1461 O 136.163 1.31338 1.20882 0
M  V30 1462 C 133.263 2.55908 2.2218 0
M  V30 1463 C 132.436 3.86145 2.05453 0
M  V30 1464 C 131.495 4.17633 3.20108 0
M  V30 1465 O 130.521 4.87043 2.94581 0
M  V30 1466 N 131.723 3.72113 4.45547 0
M  V30 1467 H 134.488 2.962 0.456657 0
M  V30 1468 H 132.049 1.61579 0.101877 0
M  V30 1469 H 134.041 2.74027 2.97811 0
M  V30 1470 H 132.611 1.75171 2.58909 0
M  V30 1471 H 131.831 3.7729 1.1422 0
M  V30 1472 H 133.119 4.7137 1.91541 0
M  V30 1473 H 132.517 3.16062 4.69171 0
M  V30 1474 H 131.074 3.95409 5.18165 0
M  V30 1475 N 134.507 -0.190092 1.56449 0
M  V30 1476 C 135.923 -0.54113 1.50146 0
M  V30 1477 C 136.123 -1.85603 0.784465 0
M  V30 1478 O 135.179 -2.5024 0.337051 0
M  V30 1479 C 136.492 -0.591241 2.9483 0
M  V30 1480 C 138.04 -0.679732 3.0553 0
M  V30 1481 C 138.515 -0.760908 4.51635 0
M  V30 1482 N 140.006 -0.824302 4.55806 0
M  V30 1483 C 140.741 -0.907365 5.66175 0
M  V30 1484 N 140.237 -0.952422 6.86222 0
M  V30 1485 N 142.03 -0.94494 5.541 0
M  V30 1486 H 134.181 0.67235 2.01478 0
M  V30 1487 H 136.444 0.240127 0.917084 0
M  V30 1488 H 136.15 0.305905 3.50367 0
M  V30 1489 H 136.024 -1.44422 3.48457 0
M  V30 1490 H 138.411 -1.56731 2.50039 0
M  V30 1491 H 138.492 0.199549 2.5502 0
M  V30 1492 H 138.136 0.122336 5.07753 0
M  V30 1493 H 138.066 -1.65606 4.99882 0
M  V30 1494 H 140.557 -0.798526 3.69367 0
M  V30 1495 H 140.87 -1.01645 7.66086 0
M  V30 1496 H 139.215 -0.921014 6.8887 0
M  V30 1497 H 142.406 -0.906612 4.59236 0
M  V30 1498 H 142.579 -1.00622 6.4014 0
M  V30 1499 N 135.985 -1.50799 -0.457987 0
M  V30 1500 C 137.262 -1.52968 -1.21902 0
M  V30 1501 C 137.642 -0.281906 -2.09209 0
M  V30 1502 O 136.99 0.734076 -2.16388 0
M  V30 1503 C 137.2 -2.8326 -2.03875 0
M  V30 1504 C 138.548 -3.34425 -2.6162 0
M  V30 1505 O 139.572 -2.8467 -2.14106 0
M  V30 1506 O 138.431 -4.21188 -3.48228 0
M  V30 1507 H 135.525 -0.614129 -0.553873 0
M  V30 1508 H 138.071 -1.63098 -0.468739 0
M  V30 1509 H 136.843 -3.65543 -1.39621 0
M  V30 1510 H 136.466 -2.76195 -2.8601 0
M  V30 1511 N 137.463 0.71206 -1.40597 0
M  V30 1512 C 138.874 1.29135 -1.34837 0
M  V30 1513 C 139.225 1.96186 -0.0235395 0
M  V30 1514 O 138.35 1.97768 0.878444 0
M  V30 1515 C 138.945 2.34827 -2.44217 0
M  V30 1516 C 137.504 2.88371 -2.41907 0
M  V30 1517 C 136.651 1.62202 -2.24913 0
M  V30 1518 H 139.602 0.507944 -1.50352 0
M  V30 1519 H 139.623 3.15749 -2.12327 0
M  V30 1520 H 139.135 1.85996 -3.40627 0
M  V30 1521 H 137.236 3.41422 -1.49204 0
M  V30 1522 H 137.349 3.39925 -3.37621 0
M  V30 1523 H 135.713 1.874 -1.72492 0
M  V30 1524 H 136.496 1.15391 -3.23326 0
M  V30 1525 N 138.941 1.26152 0.944643 0
M  V30 1526 C 140.218 1.02247 1.66748 0
M  V30 1527 C 140.598 -0.448202 2.06287 0
M  V30 1528 O 139.946 -1.42779 1.78399 0
M  V30 1529 C 140.156 1.96788 2.88228 0
M  V30 1530 C 141.504 2.25201 3.59958 0
M  V30 1531 O 142.528 1.94626 2.98327 0
M  V30 1532 O 141.387 2.77242 4.70956 0
M  V30 1533 H 138.481 0.388517 0.730057 0
M  V30 1534 H 141.027 1.37348 0.99668 0
M  V30 1535 H 139.799 2.96047 2.55875 0
M  V30 1536 H 139.422 1.62145 3.63035 0
M  V30 1537 N 140.419 -1.14872 1.07899 0
M  V30 1538 C 141.329 -2.2341 0.715915 0
M  V30 1539 C 142.345 -1.71808 -0.275306 0
M  V30 1540 O 143.521 -2.01039 -0.120545 0
M  V30 1541 C 140.586 -3.46474 0.125168 0
M  V30 1542 C 139.647 -4.13039 1.17034 0
M  V30 1543 C 138.88 -5.30229 0.607688 0
M  V30 1544 O 139.103 -5.675 -0.574497 0
M  V30 1545 O 138.037 -5.86444 1.35526 0
M  V30 1546 H 141.863 -2.56808 1.62121 0
M  V30 1547 H 139.448 -1.22702 0.852322 0
M  V30 1548 H 141.33 -4.20917 -0.201729 0
M  V30 1549 H 140.005 -3.14811 -0.753364 0
M  V30 1550 H 138.912 -3.40493 1.54968 0
M  V30 1551 H 140.245 -4.48796 2.02097 0
M  V30 1552 N 141.898 -0.863906 -1.31812 0
M  V30 1553 C 142.828 -0.330843 -2.31144 0
M  V30 1554 C 143.809 0.575005 -1.60087 0
M  V30 1555 O 144.994 0.493304 -1.8783 0
M  V30 1556 C 142.124 0.47374 -3.44054 0
M  V30 1557 C 141.078 -0.338481 -4.26659 0
M  V30 1558 C 140.404 0.591412 -5.31419 0
M  V30 1559 C 141.704 -1.56926 -4.98168 0
M  V30 1560 H 143.398 -1.16086 -2.75979 0
M  V30 1561 H 140.944 -0.559657 -1.32679 0
M  V30 1562 H 142.897 0.857143 -4.12591 0
M  V30 1563 H 141.621 1.33721 -2.9797 0
M  V30 1564 H 140.28 -0.703754 -3.59782 0
M  V30 1565 H 139.928 1.45199 -4.81587 0
M  V30 1566 H 139.628 0.0519022 -5.87577 0
M  V30 1567 H 141.152 0.97179 -6.02817 0
M  V30 1568 H 142.566 -1.25764 -5.59336 0
M  V30 1569 H 140.963 -2.04739 -5.64094 0
M  V30 1570 H 142.033 -2.32544 -4.25501 0
M  V30 1571 N 143.376 1.44774 -0.622745 0
M  V30 1572 C 144.339 2.29069 0.0774015 0
M  V30 1573 C 145.339 1.4059 0.780461 0
M  V30 1574 O 146.529 1.62551 0.626322 0
M  V30 1575 C 143.661 3.21974 1.12006 0
M  V30 1576 H 144.854 2.92459 -0.663901 0
M  V30 1577 H 142.407 1.51548 -0.382486 0
M  V30 1578 H 143.142 2.63417 1.89162 0
M  V30 1579 H 142.927 3.87168 0.619951 0
M  V30 1580 H 144.417 3.85318 1.60995 0
M  V30 1581 N 144.854 0.36279 1.53368 0
M  V30 1582 C 145.817 -0.472679 2.24273 0
M  V30 1583 C 146.817 -1.012 1.24961 0
M  V30 1584 O 148.007 -0.898194 1.49259 0
M  V30 1585 C 145.139 -1.66039 2.97731 0
M  V30 1586 H 146.332 0.14773 2.99536 0
M  V30 1587 H 143.885 0.114434 1.55881 0
M  V30 1588 H 144.62 -2.31896 2.26704 0
M  V30 1589 H 144.405 -1.28066 3.70596 0
M  V30 1590 H 145.895 -2.25252 3.51641 0
M  V30 1591 N 146.332 -1.57332 0.0918853 0
M  V30 1592 C 147.262 -2.16872 -0.865371 0
M  V30 1593 C 148.243 -1.10118 -1.29646 0
M  V30 1594 O 149.428 -1.38242 -1.36392 0
M  V30 1595 C 146.558 -2.74649 -2.12569 0
M  V30 1596 C 145.512 -3.86747 -1.83333 0
M  V30 1597 C 144.838 -4.31212 -3.16166 0
M  V30 1598 C 146.138 -5.10089 -1.1228 0
M  V30 1599 H 147.832 -2.97114 -0.369307 0
M  V30 1600 H 145.378 -1.42918 -0.176194 0
M  V30 1601 H 147.331 -3.14952 -2.7997 0
M  V30 1602 H 146.055 -1.91657 -2.64452 0
M  V30 1603 H 144.714 -3.46978 -1.18331 0
M  V30 1604 H 144.362 -3.45115 -3.6593 0
M  V30 1605 H 144.062 -5.06788 -2.97388 0
M  V30 1606 H 145.586 -4.74146 -3.84731 0
M  V30 1607 H 147 -5.47582 -1.69785 0
M  V30 1608 H 145.397 -5.91073 -1.03693 0
M  V30 1609 H 146.467 -4.84786 -0.105041 0
M  V30 1610 N 147.81 0.181792 -1.56548 0
M  V30 1611 C 149.059 0.898348 -1.8059 0
M  V30 1612 C 149.372 1.83862 -0.667379 0
M  V30 1613 O 150.578 2.59678 -0.792446 0
M  V30 1614 C 149.034 1.64791 -3.19956 0
M  V30 1615 C 148.642 0.751789 -4.41647 0
M  V30 1616 C 150.386 2.35331 -3.53298 0
M  V30 1617 C 148.293 1.50098 -5.72035 0
M  V30 1618 H 147.223 0.339194 -0.673397 0
M  V30 1619 H 149.874 0.151413 -1.82874 0
M  V30 1620 H 148.256 2.43921 -3.11959 0
M  V30 1621 H 149.43 -0.0018076 -4.608 0
M  V30 1622 H 147.745 0.156562 -4.16106 0
M  V30 1623 H 150.342 2.91958 -4.47956 0
M  V30 1624 H 150.685 3.10164 -2.77676 0
M  V30 1625 H 151.218 1.63154 -3.62803 0
M  V30 1626 H 147.957 0.795175 -6.50659 0
M  V30 1627 H 147.477 2.22817 -5.56878 0
M  V30 1628 H 149.156 2.05125 -6.13622 0
M  V30 1629 N 149.288 1.51039 0.449983 0
M  V30 1630 C 150.198 1.74261 1.57067 0
M  V30 1631 C 151.214 0.626363 1.62335 0
M  V30 1632 O 152.39 0.907162 1.79812 0
M  V30 1633 C 149.455 1.85114 2.93144 0
M  V30 1634 C 148.516 3.0893 2.98095 0
M  V30 1635 C 147.749 3.19256 4.27681 0
M  V30 1636 O 147.972 2.35835 5.19363 0
M  V30 1637 O 146.906 4.12144 4.38658 0
M  V30 1638 H 150.732 2.69303 1.40391 0
M  V30 1639 H 148.317 1.35389 0.631688 0
M  V30 1640 H 150.199 1.94311 3.73926 0
M  V30 1641 H 148.874 0.932588 3.09975 0
M  V30 1642 H 147.781 3.0522 2.16314 0
M  V30 1643 H 149.114 4.00433 2.86206 0
M  V30 1644 N 150.766 -0.704594 1.40972 0
M  V30 1645 C 152.015 -1.46018 1.39146 0
M  V30 1646 C 152.328 -1.956 0.000589254 0
M  V30 1647 O 153.534 -2.71137 -0.1403 0
M  V30 1648 C 151.99 -2.63996 2.4461 0
M  V30 1649 C 151.598 -2.21238 3.89561 0
M  V30 1650 C 153.342 -3.41677 2.51907 0
M  V30 1651 C 151.249 -3.3612 4.86598 0
M  V30 1652 H 150.179 -0.548444 0.517422 0
M  V30 1653 H 152.83 -0.765784 1.66757 0
M  V30 1654 H 151.212 -3.3566 2.10115 0
M  V30 1655 H 152.386 -1.56923 4.33257 0
M  V30 1656 H 150.701 -1.56574 3.85841 0
M  V30 1657 H 153.298 -4.27182 3.2159 0
M  V30 1658 H 153.641 -3.86247 1.55303 0
M  V30 1659 H 154.174 -2.77064 2.85448 0
M  V30 1660 H 150.913 -2.96572 5.84573 0
M  V30 1661 H 150.433 -3.99315 4.47557 0
M  V30 1662 H 152.112 -4.02029 5.06934 0
M  V30 1663 N 152.244 -1.26651 -0.937939 0
M  V30 1664 C 153.493 -1.11775 -1.67897 0
M  V30 1665 C 153.806 0.33794 -1.92659 0
M  V30 1666 O 155.012 0.607434 -2.64618 0
M  V30 1667 C 153.468 -1.9523 -3.02346 0
M  V30 1668 C 153.076 -3.45393 -2.8532 0
M  V30 1669 C 154.82 -1.88972 -3.80118 0
M  V30 1670 C 152.727 -4.21083 -4.15263 0
M  V30 1671 H 151.657 -0.414696 -0.629717 0
M  V30 1672 H 154.308 -1.50988 -1.04283 0
M  V30 1673 H 152.69 -1.48853 -3.66959 0
M  V30 1674 H 153.864 -3.99561 -2.29537 0
M  V30 1675 H 152.179 -3.52921 -2.20988 0
M  V30 1676 H 154.776 -2.42805 -4.76392 0
M  V30 1677 H 155.119 -0.86113 -4.07296 0
M  V30 1678 H 155.652 -2.33189 -3.22285 0
M  V30 1679 H 152.391 -5.24425 -3.93267 0
M  V30 1680 H 151.911 -3.71695 -4.70747 0
M  V30 1681 H 153.59 -4.29706 -4.83696 0
M  V30 1682 N 153.722 1.14298 -1.08507 0
M  V30 1683 C 154.95 1.89219 -0.836876 0
M  V30 1684 C 155.365 1.78638 0.611054 0
M  V30 1685 O 154.722 1.14643 1.41998 0
M  V30 1686 C 154.773 3.39158 -1.25116 0
M  V30 1687 O 154.494 3.49449 -2.64229 0
M  V30 1688 C 155.995 4.31073 -1.03398 0
M  V30 1689 H 153.215 0.599328 -0.301739 0
M  V30 1690 H 155.759 1.44746 -1.44461 0
M  V30 1691 H 153.914 3.81251 -0.687514 0
M  V30 1692 H 154.328 4.42589 -2.81452 0
M  V30 1693 H 155.802 5.34646 -1.37323 0
M  V30 1694 H 156.279 4.3919 0.0289259 0
M  V30 1695 H 156.885 3.94738 -1.58311 0
M  V30 1696 N 155.201 0.870884 1.31352 0
M  V30 1697 C 156.478 0.402907 1.91405 0
M  V30 1698 C 156.858 -1.11512 1.79244 0
M  V30 1699 O 156.206 -1.94411 1.2007 0
M  V30 1700 C 156.416 0.885301 3.37585 0
M  V30 1701 C 157.764 0.911971 4.14691 0
M  V30 1702 O 158.788 0.831016 3.46371 0
M  V30 1703 O 157.647 1.02927 5.3672 0
M  V30 1704 H 154.741 0.120698 0.818145 0
M  V30 1705 H 157.287 0.958857 1.40014 0
M  V30 1706 H 156.059 1.92889 3.40455 0
M  V30 1707 H 155.682 0.307714 3.96407 0
M  V30 1708 N 156.679 -1.44442 0.630414 0
M  V30 1709 C 157.925 -2.02351 0.134816 0
M  V30 1710 C 158.258 -1.4947 -1.23986 0
M  V30 1711 O 157.533 -0.678475 -1.82283 0
M  V30 1712 C 157.816 -3.59898 0.120707 0
M  V30 1713 C 157.669 -4.23063 1.52767 0
M  V30 1714 C 158.988 -4.36585 -0.555127 0
M  V30 1715 H 156.107 -0.73527 0.0504646 0
M  V30 1716 H 158.749 -1.72022 0.806751 0
M  V30 1717 H 156.899 -3.85868 -0.451477 0
M  V30 1718 H 158.571 -4.08202 2.14869 0
M  V30 1719 H 156.814 -3.80586 2.08175 0
M  V30 1720 H 157.485 -5.32071 1.46984 0
M  V30 1721 H 159.961 -4.16044 -0.0685429 0
M  V30 1722 H 158.837 -5.46294 -0.534185 0
M  V30 1723 H 159.098 -4.11138 -1.62535 0
M  V30 1724 N 158.157 -0.370918 -1.53173 0
M  V30 1725 C 159.403 0.217423 -2.01631 0
M  V30 1726 C 159.736 1.47983 -1.25756 0
M  V30 1727 O 159.011 1.91274 -0.352764 0
M  V30 1728 C 159.294 0.503982 -3.56556 0
M  V30 1729 C 159.147 -0.77243 -4.43118 0
M  V30 1730 C 160.466 1.30234 -4.20389 0
M  V30 1731 H 157.585 0.0775486 -0.732909 0
M  V30 1732 H 160.227 -0.496863 -1.83388 0
M  V30 1733 H 158.377 1.11248 -3.72231 0
M  V30 1734 H 160.049 -1.4098 -4.39229 0
M  V30 1735 H 158.292 -1.39167 -4.10871 0
M  V30 1736 H 158.963 -0.526815 -5.4948 0
M  V30 1737 H 161.439 0.787546 -4.08579 0
M  V30 1738 H 160.315 1.47158 -5.28806 0
M  V30 1739 H 160.576 2.31237 -3.76805 0
M  V30 1740 N 159.635 1.57281 -0.100228 0
M  V30 1741 C 160.545 2.17833 0.870965 0
M  V30 1742 C 161.561 1.14921 1.30649 0
M  V30 1743 O 162.737 1.47313 1.37335 0
M  V30 1744 C 159.802 2.75085 2.1102 0
M  V30 1745 C 158.863 3.9297 1.72838 0
M  V30 1746 C 158.096 4.47482 2.90854 0
M  V30 1747 O 158.319 4.00922 4.05731 0
M  V30 1748 O 157.253 5.38433 2.69023 0
M  V30 1749 H 161.079 3.0124 0.38575 0
M  V30 1750 H 158.664 1.48881 0.124397 0
M  V30 1751 H 160.546 3.11656 2.83634 0
M  V30 1752 H 159.221 1.94721 2.58584 0
M  V30 1753 H 158.128 3.61201 0.973883 0
M  V30 1754 H 159.461 4.74713 1.30033 0
M  V30 1755 N 161.113 -0.173488 1.56642 0
M  V30 1756 C 162.023 -1.23482 1.99473 0
M  V30 1757 C 163.039 -1.48567 0.905752 0
M  V30 1758 O 164.215 -1.60758 1.21321 0
M  V30 1759 C 161.28 -2.55444 2.34413 0
M  V30 1760 C 160.341 -2.38241 3.57127 0
M  V30 1761 C 159.574 -3.63909 3.90392 0
M  V30 1762 O 159.797 -4.68996 3.24653 0
M  V30 1763 O 158.731 -3.58149 4.83749 0
M  V30 1764 H 162.557 -0.901279 2.90018 0
M  V30 1765 H 160.142 -0.380185 1.44482 0
M  V30 1766 H 162.024 -3.33292 2.57865 0
M  V30 1767 H 160.699 -2.88382 1.4703 0
M  V30 1768 H 159.606 -1.58431 3.38896 0
M  V30 1769 H 160.939 -2.10228 4.45045 0
M  V30 1770 N 162.591 -1.51276 -0.441967 0
M  V30 1771 C 163.84 -1.6295 -1.18871 0
M  V30 1772 C 164.153 -0.349312 -1.92456 0
M  V30 1773 O 165.359 -0.345355 -2.69295 0
M  V30 1774 C 163.815 -2.87759 -2.16155 0
M  V30 1775 C 163.423 -4.22764 -1.48239 0
M  V30 1776 C 165.167 -3.08788 -2.91291 0
M  V30 1777 C 163.074 -5.38728 -2.4398 0
M  V30 1778 H 162.004 -0.606913 -0.447406 0
M  V30 1779 H 164.655 -1.77739 -0.456205 0
M  V30 1780 H 163.037 -2.66593 -2.92821 0
M  V30 1781 H 164.211 -4.54293 -0.771635 0
M  V30 1782 H 162.526 -4.07575 -0.852741 0
M  V30 1783 H 165.123 -3.92599 -3.63002 0
M  V30 1784 H 165.466 -2.21679 -3.5237 0
M  V30 1785 H 165.999 -3.30272 -2.21733 0
M  V30 1786 H 162.738 -6.28082 -1.87598 0
M  V30 1787 H 162.258 -5.1158 -3.13123 0
M  V30 1788 H 163.937 -5.70489 -3.05207 0
M  V30 1789 N 164.069 0.697108 -1.41344 0
M  V30 1790 C 165.309 1.46939 -1.42085 0
M  V30 1791 C 165.673 1.9198 -0.0280397 0
M  V30 1792 O 166.874 2.6865 0.0897504 0
M  V30 1793 C 165.145 2.64985 -2.39828 0
M  V30 1794 S 166.704 3.54147 -2.59085 0
M  V30 1795 H 163.522 0.502146 -0.503359 0
M  V30 1796 H 166.124 0.813546 -1.77769 0
M  V30 1797 H 164.828 2.30098 -3.39828 0
M  V30 1798 H 164.359 3.35464 -2.05493 0
M  V30 1799 H 166.374 4.60137 -1.85711 0
M  V30 1800 N 165.547 1.27147 0.931209 0
M  V30 1801 C 166.51 1.09615 2.01289 0
M  V30 1802 C 167.51 0.0412581 1.60747 0
M  V30 1803 O 168.7 0.285545 1.71844 0
M  V30 1804 C 165.832 0.669447 3.34262 0
M  V30 1805 H 167.025 2.05662 2.18273 0
M  V30 1806 H 164.578 1.09885 1.11153 0
M  V30 1807 H 165.313 -0.292572 3.22978 0
M  V30 1808 H 165.098 1.43127 3.65044 0
M  V30 1809 H 166.588 0.568921 4.13706 0
M  V30 1810 N 167.025 -1.13721 1.09112 0
M  V30 1811 C 168.436 -1.6648 0.845068 0
M  V30 1812 C 168.787 -1.85911 -0.62701 0
M  V30 1813 O 167.912 -1.57556 -1.48341 0
M  V30 1814 C 168.507 -3.02413 1.52748 0
M  V30 1815 C 167.066 -3.52176 1.32849 0
M  V30 1816 C 166.213 -2.27492 1.58564 0
M  V30 1817 H 169.164 -0.976872 1.25072 0
M  V30 1818 H 169.185 -3.68223 0.958752 0
M  V30 1819 H 168.697 -2.88238 2.59885 0
M  V30 1820 H 166.798 -3.7156 0.278137 0
M  V30 1821 H 166.911 -4.32499 2.0611 0
M  V30 1822 H 165.275 -2.33923 1.00758 0
M  V30 1823 H 166.058 -2.15886 2.66924 0
M  V30 1824 N 168.503 -0.877838 -1.30888 0
M  V30 1825 C 169.466 -0.344265 -2.266 0
M  V30 1826 C 170.466 0.50922 -1.52524 0
M  V30 1827 O 171.656 0.317398 -1.71284 0
M  V30 1828 C 168.788 0.510198 -3.37061 0
M  V30 1829 H 169.981 -1.1893 -2.7531 0
M  V30 1830 H 167.534 -0.654088 -1.41956 0
M  V30 1831 H 168.269 1.37612 -2.93655 0
M  V30 1832 H 168.054 -0.101047 -3.9197 0
M  V30 1833 H 169.544 0.875537 -4.08319 0
M  V30 1834 N 169.982 1.44106 -0.638065 0
M  V30 1835 C 170.93 2.3248 0.0748149 0
M  V30 1836 C 171.924 1.47746 0.828702 0
M  V30 1837 O 173.13 1.64049 0.740816 0
M  V30 1838 H 169.505 0.750771 0.0429686 0
M  V30 1839 H 171.476 2.90348 -0.688504 0
M  V30 1840 C 170.225 3.31843 1.03805 0
M  V30 1841 H 169.548 3.97059 0.467375 0
M  V30 1842 H 170.988 3.96345 1.50622 0
M  V30 1843 C 169.447 2.61291 2.1267 0
M  V30 1844 O 169.977 2.41702 3.20847 0
M  V30 1845 N 168.183 2.20915 1.88798 0
M  V30 1846 H 167.73 2.37047 1.00829 0
M  V30 1847 H 167.688 1.74038 2.61836 0
M  V30 1848 N 171.46 0.379036 1.52974 0
M  V30 1849 C 172.41 -0.477772 2.22938 0
M  V30 1850 C 173.394 -1.03792 1.22948 0
M  V30 1851 O 174.586 -0.965725 1.48333 0
M  V30 1852 C 171.715 -1.60994 3.03209 0
M  V30 1853 C 170.801 -1.06203 4.10587 0
M  V30 1854 N 171.192 -0.238214 5.05239 0
M  V30 1855 C 169.49 -1.33554 4.25534 0
M  V30 1856 C 170.191 0.0633235 5.81666 0
M  V30 1857 N 169.167 -0.537901 5.40932 0
M  V30 1858 H 172.969 0.158295 2.93473 0
M  V30 1859 H 170.483 0.187778 1.61311 0
M  V30 1860 H 172.48 -2.23607 3.5186 0
M  V30 1861 H 171.14 -2.24893 2.34207 0
M  V30 1862 H 172.151 0.123695 5.17752 0
M  V30 1863 H 168.828 -1.97632 3.6776 0
M  V30 1864 H 170.218 0.730161 6.67921 0
M  V30 1865 N 172.938 -1.57226 0.108567 0
M  V30 1866 C 174.184 -1.95919 -0.546564 0
M  V30 1867 C 174.539 -0.990417 -1.6495 0
M  V30 1868 O 173.832 -0.0186593 -1.91591 0
M  V30 1869 C 174.026 -3.38911 -1.13463 0
M  V30 1870 C 173.855 -4.4961 -0.0901926 0
M  V30 1871 C 172.625 -5.04168 0.338008 0
M  V30 1872 C 174.823 -5.09693 0.686808 0
M  V30 1873 N 172.805 -5.98434 1.36931 0
M  V30 1874 C 174.176 -5.99804 1.56958 0
M  V30 1875 C 176.231 -4.92388 0.738846 0
M  V30 1876 C 174.934 -6.74463 2.49983 0
M  V30 1877 C 176.96 -5.67719 1.65676 0
M  V30 1878 C 176.322 -6.57507 2.52713 0
M  V30 1879 H 172.421 -0.763312 -0.169936 0
M  V30 1880 H 175.005 -1.93728 0.194264 0
M  V30 1881 H 173.176 -3.41769 -1.84522 0
M  V30 1882 H 174.908 -3.64752 -1.75322 0
M  V30 1883 H 171.663 -4.73571 -0.0523673 0
M  V30 1884 H 172.087 -6.5027 1.88356 0
M  V30 1885 H 176.729 -4.22724 0.080084 0
M  V30 1886 H 174.447 -7.4338 3.16878 0
M  V30 1887 H 178.033 -5.56338 1.70233 0
M  V30 1888 H 176.913 -7.14778 3.22586 0
M  V30 1889 N 174.416 0.165178 -1.56732 0
M  V30 1890 C 175.641 0.900253 -1.86843 0
M  V30 1891 C 176.066 1.74766 -0.695596 0
M  V30 1892 O 175.424 1.77786 0.35522 0
M  V30 1893 C 175.472 1.74777 -3.15413 0
M  V30 1894 O 174.576 2.85007 -2.98068 0
M  V30 1895 H 173.917 0.251832 -0.614391 0
M  V30 1896 H 176.447 0.161468 -2.03962 0
M  V30 1897 H 176.457 2.14646 -3.46974 0
M  V30 1898 H 175.132 1.12537 -4.00385 0
M  V30 1899 H 173.709 2.48676 -2.77875 0
M  V30 1900 N 175.894 1.51508 0.433938 0
M  V30 1901 C 177.14 1.64588 1.18484 0
M  V30 1902 C 177.473 0.362666 1.90784 0
M  V30 1903 O 176.748 -0.637892 1.83742 0
M  V30 1904 C 177.031 2.85149 2.19913 0
M  V30 1905 C 176.884 4.23456 1.51674 0
M  V30 1906 C 178.203 3.01227 3.20858 0
M  V30 1907 H 175.322 0.598994 0.429389 0
M  V30 1908 H 177.964 1.84002 0.473647 0
M  V30 1909 H 176.114 2.68729 2.80566 0
M  V30 1910 H 177.786 4.51552 0.943322 0
M  V30 1911 H 176.029 4.25998 0.819035 0
M  V30 1912 H 176.7 5.03812 2.2556 0
M  V30 1913 H 179.176 3.16382 2.70263 0
M  V30 1914 H 178.052 3.87141 3.89118 0
M  V30 1915 H 178.313 2.13447 3.8716 0
M  V30 1916 N 177.372 -0.689602 1.41712 0
M  V30 1917 C 178.788 -1.00093 1.24312 0
M  V30 1918 C 178.988 -2.01036 0.136729 0
M  V30 1919 O 178.044 -2.47562 -0.496918 0
M  V30 1920 C 179.357 -1.51985 2.59463 0
M  V30 1921 C 180.905 -1.63838 2.66695 0
M  V30 1922 C 181.38 -2.1913 4.02177 0
M  V30 1923 N 182.871 -2.26483 4.04054 0
M  V30 1924 C 183.606 -2.70306 5.0569 0
M  V30 1925 N 183.102 -3.13691 6.17713 0
M  V30 1926 N 184.895 -2.69923 4.9305 0
M  V30 1927 H 177.046 -0.0210029 2.1239 0
M  V30 1928 H 179.309 -0.0718733 0.945272 0
M  V30 1929 H 179.015 -0.85269 3.41207 0
M  V30 1930 H 178.889 -2.50103 2.82362 0
M  V30 1931 H 181.276 -2.29664 1.85306 0
M  V30 1932 H 181.357 -0.642492 2.476 0
M  V30 1933 H 181.001 -1.53918 4.84016 0
M  V30 1934 H 180.931 -3.19482 4.18615 0
M  V30 1935 H 183.422 -1.95874 3.23174 0
M  V30 1936 H 183.735 -3.45773 6.9113 0
M  V30 1937 H 182.08 -3.11585 6.21241 0
M  V30 1938 H 185.271 -2.35382 4.04614 0
M  V30 1939 H 185.444 -3.03758 5.72394 0
M  V30 1940 N 178.85 -1.27639 -0.924453 0
M  V30 1941 C 180.078 -1.16989 -1.70649 0
M  V30 1942 C 180.493 0.272869 -1.86818 0
M  V30 1943 O 179.85 1.18549 -1.38753 0
M  V30 1944 C 179.901 -1.85229 -3.10439 0
M  V30 1945 O 179.622 -3.23868 -2.95028 0
M  V30 1946 C 181.123 -1.80746 -4.04779 0
M  V30 1947 H 178.343 -0.406595 -0.53378 0
M  V30 1948 H 180.887 -1.68569 -1.15778 0
M  V30 1949 H 179.042 -1.37545 -3.6216 0
M  V30 1950 H 179.456 -3.57889 -3.83426 0
M  V30 1951 H 180.93 -2.33101 -5.00368 0
M  V30 1952 H 181.407 -0.777499 -4.32263 0
M  V30 1953 H 182.013 -2.28059 -3.58984 0
M  V30 1954 N 180.328 1.1314 -1.09713 0
M  V30 1955 C 181.574 1.84757 -0.836224 0
M  V30 1956 C 181.907 1.8347 0.636598 0
M  V30 1957 O 181.182 1.27491 1.46889 0
M  V30 1958 C 181.465 3.32782 -1.37578 0
M  V30 1959 C 181.318 3.42567 -2.91493 0
M  V30 1960 C 182.637 4.28307 -1.01198 0
M  V30 1961 H 179.756 0.67082 -0.305236 0
M  V30 1962 H 182.398 1.3278 -1.35903 0
M  V30 1963 H 180.548 3.77177 -0.931097 0
M  V30 1964 H 182.22 3.06862 -3.44432 0
M  V30 1965 H 180.463 2.83349 -3.28475 0
M  V30 1966 H 181.134 4.46674 -3.24324 0
M  V30 1967 H 183.61 3.91999 -1.39556 0
M  V30 1968 H 182.486 5.30307 -1.41653 0
M  V30 1969 H 182.747 4.42029 0.0794833 0
M  V30 1970 N 181.806 0.884767 1.30421 0
M  V30 1971 C 183.054 0.502112 1.95763 0
M  V30 1972 C 183.375 -0.951815 1.70192 0
M  V30 1973 O 182.645 -1.6692 1.0254 0
M  V30 1974 H 181.225 0.182694 0.724315 0
M  V30 1975 H 183.887 1.1278 1.58955 0
M  V30 1976 H 182.983 0.672188 3.04775 0
M  V30 1977 N 183.284 -1.43765 0.645699 0
M  V30 1978 C 184.561 -1.9541 0.0862963 0
M  V30 1979 C 184.941 -1.58725 -1.39175 0
M  V30 1980 O 184.289 -0.868581 -2.11348 0
M  V30 1981 C 184.499 -3.47488 0.324565 0
M  V30 1982 C 185.847 -4.24001 0.225497 0
M  V30 1983 O 186.871 -3.55274 0.256715 0
M  V30 1984 O 185.73 -5.46313 0.142801 0
M  V30 1985 H 182.824 -0.826882 -0.0139483 0
M  V30 1986 H 185.37 -1.53743 0.718415 0
M  V30 1987 H 184.142 -3.67289 1.3496 0
M  V30 1988 H 183.765 -3.96135 -0.340987 0
M  V30 1989 N 184.763 -0.387143 -1.52771 0
M  V30 1990 C 185.693 0.440551 -2.29306 0
M  V30 1991 C 186.674 1.06535 -1.32606 0
M  V30 1992 O 187.859 1.07853 -1.61497 0
M  V30 1993 C 184.989 1.56919 -3.09829 0
M  V30 1994 C 183.943 1.07054 -4.14395 0
M  V30 1995 C 183.269 2.29109 -4.83129 0
M  V30 1996 C 184.569 0.140015 -5.22112 0
M  V30 1997 H 186.263 -0.198026 -2.98744 0
M  V30 1998 H 183.809 -0.09668 -1.43675 0
M  V30 1999 H 185.762 2.15503 -3.62128 0
M  V30 2000 H 184.486 2.23532 -2.3812 0
M  V30 2001 H 183.145 0.507247 -3.63074 0
M  V30 2002 H 182.793 2.94227 -4.0797 0
M  V30 2003 H 182.493 1.96406 -5.53804 0
M  V30 2004 H 184.017 2.88339 -5.38231 0
M  V30 2005 H 185.431 0.633978 -5.69784 0
M  V30 2006 H 183.828 -0.0971485 -6.00021 0
M  V30 2007 H 184.898 -0.811711 -4.78058 0
M  V30 2008 N 186.241 1.57166 -0.116904 0
M  V30 2009 C 187.489 1.94737 0.540533 0
M  V30 2010 C 187.81 1.00096 1.67349 0
M  V30 2011 O 187.08 0.0568854 1.95817 0
M  V30 2012 H 185.66 0.718981 0.202669 0
M  V30 2013 H 188.322 1.94017 -0.185353 0
M  V30 2014 H 187.418 2.97719 0.936483 0
M  V30 2015 N 187.719 -0.156864 1.56817 0
M  V30 2016 C 188.649 -1.19589 2.00551 0
M  V30 2017 C 189.63 -1.4536 0.883426 0
M  V30 2018 O 190.815 -1.56449 1.15054 0
M  V30 2019 C 187.945 -2.53143 2.37773 0
M  V30 2020 C 186.899 -2.41913 3.53075 0
M  V30 2021 C 186.225 -3.80088 3.76081 0
M  V30 2022 C 187.525 -1.91157 4.86062 0
M  V30 2023 H 189.219 -0.832293 2.87599 0
M  V30 2024 H 186.765 -0.398918 1.38364 0
M  V30 2025 H 188.718 -3.26047 2.66967 0
M  V30 2026 H 187.442 -2.91319 1.4765 0
M  V30 2027 H 186.101 -1.71462 3.24031 0
M  V30 2028 H 185.749 -4.15683 2.83225 0
M  V30 2029 H 185.449 -3.73439 4.53671 0
M  V30 2030 H 186.973 -4.54556 4.0769 0
M  V30 2031 H 188.387 -2.53846 5.14038 0
M  V30 2032 H 186.784 -1.95422 5.67389 0
M  V30 2033 H 187.854 -0.866673 4.77092 0
M  V30 2034 N 189.197 -1.51736 -0.425897 0
M  V30 2035 C 190.446 -1.64201 -1.17136 0
M  V30 2036 C 190.759 -0.369705 -1.92074 0
M  V30 2037 O 191.965 -0.373898 -2.68913 0
M  V30 2038 C 190.421 -2.90035 -2.13091 0
M  V30 2039 C 190.029 -4.24312 -1.43747 0
M  V30 2040 C 191.773 -3.1186 -2.87999 0
M  V30 2041 C 189.68 -5.41285 -2.38253 0
M  V30 2042 H 188.61 -0.611624 -0.440944 0
M  V30 2043 H 191.261 -1.78212 -0.437328 0
M  V30 2044 H 189.643 -2.69684 -2.89977 0
M  V30 2045 H 190.817 -4.55086 -0.723408 0
M  V30 2046 H 189.132 -4.08456 -0.809465 0
M  V30 2047 H 191.729 -3.96427 -3.58817 0
M  V30 2048 H 192.072 -2.25403 -3.49999 0
M  V30 2049 H 192.605 -3.32605 -2.18217 0
M  V30 2050 H 189.344 -6.30037 -1.80925 0
M  V30 2051 H 188.864 -5.14872 -3.0768 0
M  V30 2052 H 190.543 -5.73694 -2.99139 0
M  V30 2053 N 190.675 0.682077 -1.42076 0
M  V30 2054 C 191.923 1.4393 -1.41876 0
M  V30 2055 C 192.244 1.94971 -0.0335599 0
M  V30 2056 O 191.514 1.72591 0.926773 0
M  V30 2057 H 190.094 0.534085 -0.522267 0
M  V30 2058 H 192.756 0.806427 -1.77434 0
M  V30 2059 H 191.852 2.29588 -2.11414 0
M  V30 2060 N 192.153 1.28127 0.917671 0
M  V30 2061 C 193.063 1.13556 2.05286 0
M  V30 2062 C 194.079 0.0630914 1.73886 0
M  V30 2063 O 195.255 0.271598 1.9956 0
M  V30 2064 C 192.32 0.794676 3.3747 0
M  V30 2065 C 191.381 1.94909 3.82504 0
M  V30 2066 C 190.614 1.62437 5.0838 0
M  V30 2067 O 190.837 0.536905 5.67867 0
M  V30 2068 O 189.771 2.46677 5.4903 0
M  V30 2069 H 193.597 2.08844 2.20495 0
M  V30 2070 H 191.182 1.07409 1.03845 0
M  V30 2071 H 193.064 0.618344 4.16839 0
M  V30 2072 H 191.739 -0.128581 3.23445 0
M  V30 2073 H 190.646 2.18055 3.03978 0
M  V30 2074 H 191.979 2.85291 4.01086 0
M  V30 2075 N 193.631 -1.12557 1.10312 0
M  V30 2076 C 194.541 -2.21841 0.763142 0
M  V30 2077 C 195.557 -1.72354 -0.238801 0
M  V30 2078 O 196.733 -2.01249 -0.0778746 0
M  V30 2079 C 193.798 -3.46131 0.198632 0
M  V30 2080 C 192.859 -4.10464 1.25769 0
M  V30 2081 C 192.092 -5.28821 0.72002 0
M  V30 2082 O 192.315 -5.6859 -0.453993 0
M  V30 2083 O 191.249 -5.83437 1.47935 0
M  V30 2084 H 195.075 -2.53312 1.67532 0
M  V30 2085 H 192.66 -1.20867 0.878157 0
M  V30 2086 H 194.542 -4.2125 -0.112401 0
M  V30 2087 H 193.217 -3.16338 -0.686419 0
M  V30 2088 H 192.124 -3.3713 1.62156 0
M  V30 2089 H 193.457 -4.44408 2.11571 0
M  V30 2090 N 195.109 -0.891671 -1.2995 0
M  V30 2091 C 196.52 -0.563104 -1.78006 0
M  V30 2092 C 196.871 0.920978 -1.73241 0
M  V30 2093 O 195.996 1.71987 -1.31337 0
M  V30 2094 C 196.591 -1.01539 -3.23226 0
M  V30 2095 C 195.15 -0.738124 -3.69092 0
M  V30 2096 C 194.297 -1.19461 -2.50249 0
M  V30 2097 H 197.248 -1.07522 -1.16725 0
M  V30 2098 H 197.269 -0.347217 -3.78912 0
M  V30 2099 H 196.781 -2.09555 -3.26662 0
M  V30 2100 H 194.882 0.329766 -3.71138 0
M  V30 2101 H 194.995 -1.33037 -4.60259 0
M  V30 2102 H 193.359 -0.613787 -2.47194 0
M  V30 2103 H 194.142 -2.28265 -2.56417 0
M  V30 2104 N 196.587 1.43421 -0.653314 0
M  V30 2105 C 197.55 2.29182 0.0287951 0
M  V30 2106 C 198.55 1.42213 0.750465 0
M  V30 2107 O 199.74 1.63843 0.591701 0
M  V30 2108 C 196.872 3.24278 1.05151 0
M  V30 2109 H 198.065 2.90985 -0.725786 0
M  V30 2110 H 195.618 1.50702 -0.414545 0
M  V30 2111 H 196.353 2.6737 1.83532 0
M  V30 2112 H 196.138 3.88396 0.537687 0
M  V30 2113 H 197.628 3.88647 1.52786 0
M  V30 2114 N 198.065 0.39524 1.52563 0
M  V30 2115 C 199.481 0.0454682 1.59535 0
M  V30 2116 C 199.681 -1.44056 1.4089 0
M  V30 2117 O 198.737 -2.20579 1.22888 0
M  V30 2118 C 200.05 0.527963 2.96029 0
M  V30 2119 C 201.598 0.484733 3.09224 0
M  V30 2120 C 202.073 0.943512 4.48176 0
M  V30 2121 N 203.564 0.899765 4.54377 0
M  V30 2122 C 204.299 1.22609 5.60138 0
M  V30 2123 N 203.795 1.62319 6.73516 0
M  V30 2124 N 205.588 1.14696 5.50274 0
M  V30 2125 H 197.739 1.36261 1.62931 0
M  V30 2126 H 200.002 0.558887 0.765735 0
M  V30 2127 H 199.708 1.56607 3.14908 0
M  V30 2128 H 199.582 -0.0698056 3.77135 0
M  V30 2129 H 201.969 -0.544298 2.90037 0
M  V30 2130 H 202.05 1.11838 2.30056 0
M  V30 2131 H 201.694 1.9708 4.68104 0
M  V30 2132 H 201.624 0.286817 5.25818 0
M  V30 2133 H 204.115 0.607632 3.72983 0
M  V30 2134 H 204.428 1.85567 7.5019 0
M  V30 2135 H 202.773 1.66211 6.74833 0
M  V30 2136 H 205.964 0.835701 4.6058 0
M  V30 2137 H 206.137 1.40459 6.32594 0
M  V30 2138 N 199.544 -1.57102 0.125237 0
M  V30 2139 C 200.96 -1.57915 -0.231322 0
M  V30 2140 C 201.16 -1.13833 -1.66266 0
M  V30 2141 O 200.216 -0.828581 -2.38518 0
M  V30 2142 C 201.529 -3.00699 0.00766489 0
M  V30 2143 C 203.077 -3.12947 -0.0577483 0
M  V30 2144 C 203.552 -4.57742 0.153626 0
M  V30 2145 N 205.043 -4.63092 0.0998073 0
M  V30 2146 C 205.778 -5.72905 0.238174 0
M  V30 2147 N 205.274 -6.91445 0.433057 0
M  V30 2148 N 207.067 -5.6182 0.177308 0
M  V30 2149 H 199.218 -1.84055 1.06007 0
M  V30 2150 H 201.481 -0.850905 0.417929 0
M  V30 2151 H 201.187 -3.3726 0.997431 0
M  V30 2152 H 201.061 -3.70236 -0.721452 0
M  V30 2153 H 203.448 -2.7624 -1.03804 0
M  V30 2154 H 203.529 -2.4594 0.70335 0
M  V30 2155 H 203.173 -4.95149 1.13092 0
M  V30 2156 H 203.103 -5.22848 -0.627534 0
M  V30 2157 H 205.594 -3.77871 -0.047051 0
M  V30 2158 H 205.907 -7.70985 0.529332 0
M  V30 2159 H 204.252 -6.93415 0.469109 0
M  V30 2160 H 207.443 -4.68093 0.0259748 0
M  V30 2161 H 207.616 -6.47357 0.288582 0
M  V30 2162 N 201.022 0.148545 -1.56898 0
M  V30 2163 C 201.952 1.18524 -2.01182 0
M  V30 2164 C 202.933 1.4489 -0.891123 0
M  V30 2165 O 204.118 1.55836 -1.15882 0
M  V30 2166 C 201.248 2.51879 -2.39112 0
M  V30 2167 C 200.202 2.40038 -3.54353 0
M  V30 2168 C 199.528 3.78089 -3.78091 0
M  V30 2169 C 200.828 1.88577 -4.87069 0
M  V30 2170 H 202.522 0.817029 -2.88036 0
M  V30 2171 H 200.068 0.391575 -1.38574 0
M  V30 2172 H 202.021 3.24627 -2.68692 0
M  V30 2173 H 200.745 2.90532 -1.49193 0
M  V30 2174 H 199.404 1.69742 -3.24936 0
M  V30 2175 H 199.052 4.14175 -2.85426 0
M  V30 2176 H 198.752 3.71028 -4.55645 0
M  V30 2177 H 200.276 4.52387 -4.10095 0
M  V30 2178 H 201.69 2.51117 -5.15377 0
M  V30 2179 H 200.087 1.9241 -5.68417 0
M  V30 2180 H 201.157 0.84136 -4.77545 0
M  V30 2181 N 202.5 1.5196 0.417844 0
M  V30 2182 C 203.916 1.40569 0.755816 0
M  V30 2183 C 204.116 0.503316 1.95113 0
M  V30 2184 O 203.172 -0.0341925 2.52477 0
M  V30 2185 C 204.485 2.82947 1.01791 0
M  V30 2186 C 206.033 2.92231 1.12116 0
M  V30 2187 C 206.508 4.35559 1.41608 0
M  V30 2188 N 207.999 4.38753 1.48491 0
M  V30 2189 C 208.734 5.46705 1.7292 0
M  V30 2190 N 208.23 6.64788 1.95011 0
M  V30 2191 N 210.023 5.34209 1.74863 0
M  V30 2192 H 202.174 2.09168 -0.369098 0
M  V30 2193 H 204.437 0.942409 -0.102809 0
M  V30 2194 H 204.143 3.5106 0.212081 0
M  V30 2195 H 204.017 3.23462 1.94042 0
M  V30 2196 H 206.404 2.24304 1.9176 0
M  V30 2197 H 206.485 2.55185 0.177225 0
M  V30 2198 H 206.129 5.04042 0.624848 0
M  V30 2199 H 206.059 4.70133 2.37239 0
M  V30 2200 H 208.55 3.5363 1.33244 0
M  V30 2201 H 208.863 7.42845 2.13076 0
M  V30 2202 H 207.208 6.67869 1.92293 0
M  V30 2203 H 210.399 4.40937 1.57137 0
M  V30 2204 H 210.572 6.18415 1.93563 0
M  V30 2205 N 203.978 -0.674533 1.42435 0
M  V30 2206 C 205.226 -1.43175 1.42637 0
M  V30 2207 C 205.547 -1.94951 0.0438992 0
M  V30 2208 O 204.817 -1.7308 -0.917607 0
M  V30 2209 H 203.397 -0.531307 0.525092 0
M  V30 2210 H 206.059 -0.797006 1.77859 0
M  V30 2211 H 205.155 -2.28463 2.12629 0
M  V30 2212 N 205.456 -1.28612 -0.910864 0
M  V30 2213 C 206.419 -1.12803 -1.9952 0
M  V30 2214 C 207.419 -0.0668264 -1.60661 0
M  V30 2215 O 208.609 -0.312847 -1.71368 0
M  V30 2216 C 205.741 -0.72254 -3.33155 0
M  V30 2217 H 206.934 -2.09109 -2.14973 0
M  V30 2218 H 204.487 -1.11639 -1.09391 0
M  V30 2219 H 205.222 0.241152 -3.23402 0
M  V30 2220 H 205.007 -1.48916 -3.62721 0
M  V30 2221 H 206.497 -0.634666 -4.12749 0
M  V30 2222 N 206.934 1.1197 -1.10907 0
M  V30 2223 C 208.18 1.8386 -0.855773 0
M  V30 2224 C 208.513 1.84134 0.617103 0
M  V30 2225 O 207.788 1.29041 1.45529 0
M  V30 2226 C 208.071 3.31305 -1.411 0
M  V30 2227 C 207.924 3.39456 -2.9511 0
M  V30 2228 C 209.243 4.2721 -1.05736 0
M  V30 2229 H 206.362 0.667545 -0.312334 0
M  V30 2230 H 209.004 1.31331 -1.37303 0
M  V30 2231 H 207.154 3.76169 -0.97105 0
M  V30 2232 H 208.826 3.03191 -3.47668 0
M  V30 2233 H 207.069 2.79849 -3.31462 0
M  V30 2234 H 207.74 4.43209 -3.29044 0
M  V30 2235 H 210.216 3.90497 -1.43706 0
M  V30 2236 H 209.092 5.28775 -1.47269 0
M  V30 2237 H 209.353 4.42088 0.0325958 0
M  V30 2238 N 208.412 0.89855 1.29475 0
M  V30 2239 C 209.322 0.379974 2.31502 0
M  V30 2240 C 210.338 -0.524695 1.659 0
M  V30 2241 O 211.514 -0.414551 1.97087 0
M  V30 2242 C 208.579 -0.385138 3.44554 0
M  V30 2243 C 207.64 0.550914 4.2575 0
M  V30 2244 C 206.873 -0.177778 5.33404 0
M  V30 2245 O 207.096 -1.40189 5.52904 0
M  V30 2246 O 206.03 0.479106 5.9999 0
M  V30 2247 H 209.856 1.22639 2.77837 0
M  V30 2248 H 207.441 0.662834 1.33891 0
M  V30 2249 H 209.323 -0.817841 4.13388 0
M  V30 2250 H 207.998 -1.20763 3.0033 0
M  V30 2251 H 206.905 1.03271 3.59564 0
M  V30 2252 H 208.238 1.33979 4.73614 0
M  V30 2253 N 209.89 -1.43072 0.660911 0
M  V30 2254 C 211.115 -2.06584 0.183805 0
M  V30 2255 C 211.54 -1.49257 -1.14472 0
M  V30 2256 O 210.898 -0.605528 -1.70889 0
M  V30 2257 C 210.946 -3.60418 0.114434 0
M  V30 2258 O 210.05 -4.01981 -0.921137 0
M  V30 2259 H 209.391 -0.656669 0.0983994 0
M  V30 2260 H 211.921 -1.83447 0.906006 0
M  V30 2261 H 211.931 -4.07946 -0.0663394 0
M  V30 2262 H 210.606 -4.01519 1.08422 0
M  V30 2263 H 209.183 -3.66029 -0.71253 0
M  V30 2264 N 211.368 -0.403325 -1.52352 0
M  V30 2265 C 212.596 0.174012 -2.06167 0
M  V30 2266 C 213.011 1.39347 -1.27388 0
M  V30 2267 O 212.368 1.79597 -0.324201 0
M  V30 2268 C 212.419 0.530223 -3.5759 0
M  V30 2269 O 212.14 -0.640806 -4.33388 0
M  V30 2270 C 213.641 1.16192 -4.27802 0
M  V30 2271 H 210.861 0.0229464 -0.670608 0
M  V30 2272 H 213.405 -0.572604 -1.9632 0
M  V30 2273 H 211.56 1.22673 -3.67464 0
M  V30 2274 H 211.974 -0.344851 -5.23365 0
M  V30 2275 H 213.448 1.36141 -5.34948 0
M  V30 2276 H 213.925 2.13335 -3.83907 0
M  V30 2277 H 214.531 0.505775 -4.22282 0
M  V30 2278 N 212.846 1.57033 -0.133567 0
M  V30 2279 C 214.257 1.82593 0.389464 0
M  V30 2280 C 214.608 1.05156 1.6564 0
M  V30 2281 O 213.733 0.292644 2.14412 0
M  V30 2282 C 214.328 3.31204 0.713377 0
M  V30 2283 C 212.887 3.57393 1.18098 0
M  V30 2284 C 212.034 2.76598 0.197126 0
M  V30 2285 H 214.985 1.54598 -0.358481 0
M  V30 2286 H 215.006 3.46627 1.56939 0
M  V30 2287 H 214.518 3.87537 -0.2089 0
M  V30 2288 H 212.619 3.06433 2.11966 0
M  V30 2289 H 212.732 4.65915 1.11624 0
M  V30 2290 H 211.096 2.45257 0.687088 0
M  V30 2291 H 211.879 3.35697 -0.718504 0
M  V30 2292 N 214.325 -0.140222 1.56975 0
M  V30 2293 C 215.235 -1.19223 2.02047 0
M  V30 2294 C 216.251 -1.46612 0.937062 0
M  V30 2295 O 217.427 -1.58148 1.24704 0
M  V30 2296 C 214.492 -2.50414 2.39778 0
M  V30 2297 C 213.553 -2.30612 3.621 0
M  V30 2298 C 212.786 -3.55547 3.98023 0
M  V30 2299 O 213.009 -4.62004 3.34528 0
M  V30 2300 O 211.943 -3.47808 4.91237 0
M  V30 2301 H 215.769 -0.839559 2.91865 0
M  V30 2302 H 213.354 -0.349453 1.45256 0
M  V30 2303 H 215.236 -3.27747 2.64877 0
M  V30 2304 H 213.911 -2.85198 1.53114 0
M  V30 2305 H 212.818 -1.51207 3.4218 0
M  V30 2306 H 214.151 -2.00741 4.49404 0
M  V30 2307 N 215.803 -1.52179 -0.40978 0
M  V30 2308 C 217.049 -1.66453 -1.15851 0
M  V30 2309 C 217.382 -0.392972 -1.90182 0
M  V30 2310 O 216.657 0.608579 -1.84734 0
M  V30 2311 C 216.94 -2.88612 -2.15349 0
M  V30 2312 C 216.793 -4.25815 -1.44918 0
M  V30 2313 C 218.112 -3.06294 -3.16026 0
M  V30 2314 H 215.231 -0.60575 -0.419805 0
M  V30 2315 H 217.873 -1.84732 -0.444314 0
M  V30 2316 H 216.023 -2.73158 -2.76255 0
M  V30 2317 H 217.695 -4.52995 -0.871365 0
M  V30 2318 H 215.938 -4.27247 -0.751159 0
M  V30 2319 H 216.609 -5.07337 -2.17516 0
M  V30 2320 H 219.085 -3.20641 -2.65195 0
M  V30 2321 H 217.961 -3.93283 -3.8291 0
M  V30 2322 H 218.222 -2.19579 -3.83715 0
M  V30 2323 N 217.281 0.66697 -1.42791 0
M  V30 2324 C 218.244 1.76211 -1.46568 0
M  V30 2325 C 219.244 1.56896 -0.352196 0
M  V30 2326 O 220.434 1.63044 -0.613364 0
M  V30 2327 C 217.566 3.14935 -1.30494 0
M  V30 2328 H 218.759 1.74247 -2.44086 0
M  V30 2329 H 216.312 0.877342 -1.29354 0
M  V30 2330 H 217.047 3.2252 -0.339301 0
M  V30 2331 H 216.832 3.30359 -2.11199 0
M  V30 2332 H 218.322 3.94821 -1.36038 0
M  V30 2333 N 218.759 1.29093 0.90403 0
M  V30 2334 C 219.984 1.19809 1.69294 0
M  V30 2335 C 220.409 -0.238481 1.86582 0
M  V30 2336 O 219.767 -1.1723 1.383 0
M  V30 2337 C 219.815 1.91202 3.05736 0
M  V30 2338 O 218.919 1.22611 3.93752 0
M  V30 2339 H 218.26 0.415385 0.518027 0
M  V30 2340 H 220.79 1.70586 1.12967 0
M  V30 2341 H 220.8 1.99487 3.55906 0
M  V30 2342 H 219.475 2.95692 2.92471 0
M  V30 2343 H 218.052 1.22554 3.52186 0
M  V30 2344 N 220.237 -1.11381 1.11499 0
M  V30 2345 C 221.484 -1.83132 0.864231 0
M  V30 2346 C 221.812 -1.84683 -0.610114 0
M  V30 2347 O 221.067 -1.29589 -1.46646 0
M  V30 2348 C 221.366 -3.30026 1.37177 0
M  V30 2349 C 221.032 -3.48634 2.85946 0
M  V30 2350 C 219.694 -3.53421 3.26569 0
M  V30 2351 C 222.046 -3.54837 3.81759 0
M  V30 2352 C 219.374 -3.61967 4.61733 0
M  V30 2353 C 221.726 -3.64915 5.1674 0
M  V30 2354 C 220.39 -3.67962 5.5692 0
M  V30 2355 H 219.66 -0.670127 0.316245 0
M  V30 2356 H 222.307 -1.31354 1.3935 0
M  V30 2357 H 220.612 -3.84304 0.762753 0
M  V30 2358 H 222.309 -3.84034 1.15408 0
M  V30 2359 H 218.899 -3.45579 2.53521 0
M  V30 2360 H 223.083 -3.50399 3.51474 0
M  V30 2361 H 218.339 -3.62603 4.92269 0
M  V30 2362 H 222.513 -3.68658 5.90816 0
M  V30 2363 H 220.14 -3.74336 6.61647 0
M  V30 2364 N 221.715 -0.905404 -1.28997 0
M  V30 2365 C 222.665 -0.358713 -2.25161 0
M  V30 2366 C 223.649 0.524449 -1.52113 0
M  V30 2367 O 224.841 0.365534 -1.73184 0
M  V30 2368 C 221.97 0.407609 -3.40872 0
M  V30 2369 C 221.056 -0.490797 -4.21251 0
M  V30 2370 N 221.447 -1.60061 -4.79806 0
M  V30 2371 C 219.745 -0.289636 -4.45059 0
M  V30 2372 C 220.446 -2.15757 -5.40207 0
M  V30 2373 N 219.422 -1.44988 -5.23908 0
M  V30 2374 H 223.224 -1.20642 -2.67998 0
M  V30 2375 H 220.738 -0.757103 -1.43672 0
M  V30 2376 H 222.735 0.816046 -4.08835 0
M  V30 2377 H 221.395 1.25251 -2.9957 0
M  V30 2378 H 222.406 -1.98329 -4.7842 0
M  V30 2379 H 219.083 0.51643 -4.14294 0
M  V30 2380 H 220.473 -3.09069 -5.96595 0
M  V30 2381 N 223.193 1.4272 -0.668489 0
M  V30 2382 C 224.439 2.01923 -0.188419 0
M  V30 2383 C 224.772 1.52704 1.19979 0
M  V30 2384 O 224.047 0.726566 1.8042 0
M  V30 2385 C 224.33 3.59451 -0.216085 0
M  V30 2386 C 224.183 4.18864 -1.6393 0
M  V30 2387 C 225.502 4.37903 0.439179 0
M  V30 2388 H 222.621 0.733674 -0.0699412 0
M  V30 2389 H 225.263 1.69822 -0.852076 0
M  V30 2390 H 223.413 3.86929 0.349012 0
M  V30 2391 H 225.085 4.02362 -2.25616 0
M  V30 2392 H 223.328 3.74933 -2.18193 0
M  V30 2393 H 223.999 5.27987 -1.61039 0
M  V30 2394 H 226.475 4.16079 -0.0417878 0
M  V30 2395 H 225.351 5.47519 0.389157 0
M  V30 2396 H 225.612 4.15303 1.51577 0
M  V30 2397 N 224.671 0.411399 1.52136 0
M  V30 2398 C 225.619 -0.427633 2.28635 0
M  V30 2399 C 226.613 -1.04383 1.33419 0
M  V30 2400 O 227.819 -0.981772 1.50868 0
M  V30 2401 H 224.194 -0.156689 0.735495 0
M  V30 2402 H 226.165 0.238761 2.97443 0
M  V30 2403 C 224.914 -1.53082 3.12188 0
M  V30 2404 H 224.237 -1.06601 3.85326 0
M  V30 2405 H 225.677 -2.09167 3.68816 0
M  V30 2406 C 224.136 -2.49946 2.25895 0
M  V30 2407 O 224.666 -3.53884 1.90076 0
M  V30 2408 N 222.872 -2.2021 1.8962 0
M  V30 2409 H 222.419 -1.35719 2.18948 0
M  V30 2410 H 222.377 -2.85266 1.32176 0
M  V30 2411 N 226.149 -1.5696 0.141893 0
M  V30 2412 C 227.395 -1.9625 -0.511248 0
M  V30 2413 C 227.728 -1.02654 -1.64851 0
M  V30 2414 O 227.003 -0.0679676 -1.94381 0
M  V30 2415 C 227.286 -3.45285 -1.02227 0
M  V30 2416 C 227.139 -4.49658 0.113138 0
M  V30 2417 C 228.458 -3.96698 -1.90574 0
M  V30 2418 H 225.577 -0.713567 -0.184367 0
M  V30 2419 H 228.219 -1.88698 0.222087 0
M  V30 2420 H 226.369 -3.51852 -1.64719 0
M  V30 2421 H 228.041 -4.55174 0.749302 0
M  V30 2422 H 226.284 -4.26857 0.773026 0
M  V30 2423 H 226.955 -5.51258 -0.286053 0
M  V30 2424 H 229.431 -3.92578 -1.37918 0
M  V30 2425 H 228.307 -5.01453 -2.2324 0
M  V30 2426 H 228.568 -3.3875 -2.84079 0
M  V30 2427 N 227.627 0.131896 -1.57047 0
M  V30 2428 C 228.59 1.14638 -1.98471 0
M  V30 2429 C 229.59 1.35029 -0.873148 0
M  V30 2430 O 230.78 1.31764 -1.13946 0
M  V30 2431 C 227.912 2.50358 -2.31373 0
M  V30 2432 H 229.105 0.79064 -2.8929 0
M  V30 2433 H 226.658 0.375761 -1.51716 0
M  V30 2434 H 227.393 2.90876 -1.43393 0
M  V30 2435 H 227.178 2.36915 -3.12432 0
M  V30 2436 H 228.668 3.23395 -2.64207 0
M  V30 2437 N 229.106 1.52395 0.401703 0
M  V30 2438 C 230.352 1.67065 1.14966 0
M  V30 2439 C 230.685 0.403052 1.89971 0
M  V30 2440 O 229.96 -0.598774 1.85054 0
M  V30 2441 C 230.243 2.8975 2.13815 0
M  V30 2442 C 230.096 4.26578 1.42658 0
M  V30 2443 C 231.415 3.07965 3.14397 0
M  V30 2444 H 228.534 0.607968 0.416587 0
M  V30 2445 H 231.176 1.84965 0.434511 0
M  V30 2446 H 229.326 2.74619 2.74803 0
M  V30 2447 H 230.998 4.53451 0.847329 0
M  V30 2448 H 229.241 4.27639 0.72849 0
M  V30 2449 H 229.912 5.08483 2.14823 0
M  V30 2450 H 232.388 3.22043 2.63491 0
M  V30 2451 H 231.264 3.95308 3.80819 0
M  V30 2452 H 231.525 2.21611 3.82545 0
M  V30 2453 N 230.584 -0.659388 1.43143 0
M  V30 2454 C 231.832 -1.41654 1.44147 0
M  V30 2455 C 232.153 -1.94893 0.0645739 0
M  V30 2456 O 231.423 -1.74044 -0.899198 0
M  V30 2457 H 230.003 -0.525708 0.530697 0
M  V30 2458 H 232.665 -0.778097 1.78694 0
M  V30 2459 H 231.761 -2.26195 2.1504 0
M  V30 2460 N 232.062 -1.29571 -0.897171 0
M  V30 2461 C 233.292 -1.20408 -1.67886 0
M  V30 2462 C 233.7 0.237429 -1.87704 0
M  V30 2463 O 233.043 1.17048 -1.41582 0
M  V30 2464 C 233.105 -1.84887 -3.08314 0
M  V30 2465 C 232.769 -3.34189 -3.11716 0
M  V30 2466 C 233.766 -4.30374 -2.91675 0
M  V30 2467 C 231.451 -3.75431 -3.33701 0
M  V30 2468 C 233.445 -5.65776 -2.93557 0
M  V30 2469 C 231.132 -5.10955 -3.35214 0
M  V30 2470 C 232.13 -6.05938 -3.15164 0
M  V30 2471 O 231.818 -7.38987 -3.1647 0
M  V30 2472 H 231.55 -0.418289 -0.531046 0
M  V30 2473 H 234.104 -1.71514 -1.13014 0
M  V30 2474 H 232.334 -1.28295 -3.64798 0
M  V30 2475 H 234.023 -1.70011 -3.6858 0
M  V30 2476 H 234.789 -3.99844 -2.74499 0
M  V30 2477 H 230.668 -3.01953 -3.48347 0
M  V30 2478 H 234.212 -6.39889 -2.77826 0
M  V30 2479 H 230.109 -5.4113 -3.51922 0
M  V30 2480 H 230.877 -7.47823 -3.3272 0
M  V30 2481 N 233.54 1.10788 -1.12088 0
M  V30 2482 C 234.788 1.8231 -0.872205 0
M  V30 2483 C 235.109 1.85419 0.603709 0
M  V30 2484 O 234.379 1.32963 1.43867 0
M  V30 2485 H 232.959 0.675137 -0.319686 0
M  V30 2486 H 235.621 1.34068 -1.41463 0
M  V30 2487 H 234.717 2.85955 -1.25045 0
M  V30 2488 N 235.018 0.912232 1.28515 0
M  V30 2489 C 236.266 0.543523 1.94654 0
M  V30 2490 C 236.587 -0.9155 1.72173 0
M  V30 2491 O 235.857 -1.64708 1.06058 0
M  V30 2492 H 234.437 0.198017 0.720277 0
M  V30 2493 H 237.099 1.16126 1.56527 0
M  V30 2494 H 236.195 0.736684 3.03281 0
M  V30 2495 N 236.496 -1.42363 0.676048 0
M  V30 2496 C 237.912 -1.55811 0.345718 0
M  V30 2497 C 238.112 -1.65544 -1.14879 0
M  V30 2498 O 237.168 -1.62306 -1.93424 0
M  V30 2499 C 238.481 -2.80746 1.07713 0
M  V30 2500 C 240.029 -2.9452 1.05958 0
M  V30 2501 C 240.504 -4.22318 1.77233 0
M  V30 2502 N 241.995 -4.29233 1.74108 0
M  V30 2503 C 242.73 -5.26935 2.26113 0
M  V30 2504 N 242.226 -6.30783 2.86505 0
M  V30 2505 N 244.019 -5.18741 2.1648 0
M  V30 2506 H 236.17 -1.34289 1.6456 0
M  V30 2507 H 238.433 -0.646506 0.69335 0
M  V30 2508 H 238.139 -2.79696 2.13221 0
M  V30 2509 H 238.013 -3.71676 0.64316 0
M  V30 2510 H 240.4 -2.95097 0.0128255 0
M  V30 2511 H 240.481 -2.04817 1.53244 0
M  V30 2512 H 240.125 -4.22502 2.81877 0
M  V30 2513 H 240.055 -5.10958 1.27396 0
M  V30 2514 H 242.546 -3.54814 1.30059 0
M  V30 2515 H 242.859 -7.01691 3.23805 0
M  V30 2516 H 241.204 -6.31341 2.90575 0
M  V30 2517 H 244.395 -4.36533 1.68987 0
M  V30 2518 H 244.568 -5.94721 2.57316 0
M  V30 2519 N 237.974 -0.419461 -1.51915 0
M  V30 2520 C 239.39 -0.0708431 -1.59443 0
M  V30 2521 C 239.59 1.41796 -1.43164 0
M  V30 2522 O 238.646 2.18596 -1.26381 0
M  V30 2523 C 239.959 -0.574991 -2.95151 0
M  V30 2524 C 241.507 -0.533867 -3.08413 0
M  V30 2525 C 241.982 -1.01469 -4.46618 0
M  V30 2526 N 243.473 -0.971939 -4.52888 0
M  V30 2527 C 244.208 -1.31505 -5.58116 0
M  V30 2528 N 243.704 -1.73014 -6.70849 0
M  V30 2529 N 245.497 -1.23436 -5.48379 0
M  V30 2530 H 237.648 -1.38836 -1.60743 0
M  V30 2531 H 239.911 -0.570998 -0.756747 0
M  V30 2532 H 239.617 -1.61597 -3.12377 0
M  V30 2533 H 239.491 0.00979777 -3.77199 0
M  V30 2534 H 241.878 0.498086 -2.90866 0
M  V30 2535 H 241.959 -1.15484 -2.28248 0
M  V30 2536 H 241.603 -2.04502 -4.6491 0
M  V30 2537 H 241.533 -0.370433 -5.25295 0
M  V30 2538 H 244.024 -0.666893 -3.71969 0
M  V30 2539 H 244.337 -1.97479 -7.47143 0
M  V30 2540 H 242.682 -1.76926 -6.72103 0
M  V30 2541 H 245.873 -0.908869 -4.59192 0
M  V30 2542 H 246.046 -1.50506 -6.30279 0
M  V30 2543 N 239.452 1.56882 -0.150215 0
M  V30 2544 C 240.362 2.20494 0.801222 0
M  V30 2545 C 241.378 1.19019 1.26927 0
M  V30 2546 O 242.554 1.51607 1.32579 0
M  V30 2547 C 239.619 2.81659 2.02161 0
M  V30 2548 C 238.68 3.9827 1.60249 0
M  V30 2549 C 237.913 4.56508 2.7647 0
M  V30 2550 O 238.136 4.13627 3.92771 0
M  V30 2551 O 237.07 5.46719 2.51757 0
M  V30 2552 H 240.896 3.02315 0.289717 0
M  V30 2553 H 238.481 1.49202 0.0769684 0
M  V30 2554 H 240.363 3.20522 2.73576 0
M  V30 2555 H 239.038 2.02849 2.52258 0
M  V30 2556 H 237.945 3.64117 0.858477 0
M  V30 2557 H 239.278 4.78609 1.14864 0
M  V30 2558 N 240.93 -0.123565 1.57115 0
M  V30 2559 C 242.179 -0.830704 1.83799 0
M  V30 2560 C 242.492 -1.81259 0.735158 0
M  V30 2561 O 243.698 -2.56558 0.888278 0
M  V30 2562 C 242.154 -1.52802 3.25852 0
M  V30 2563 C 241.762 -0.587356 4.44133 0
M  V30 2564 C 243.506 -2.22056 3.61789 0
M  V30 2565 C 241.413 -1.28764 5.77212 0
M  V30 2566 H 240.343 -0.313967 0.685522 0
M  V30 2567 H 242.994 -0.0834359 1.8331 0
M  V30 2568 H 241.376 -2.32175 3.20797 0
M  V30 2569 H 242.55 0.172829 4.60476 0
M  V30 2570 H 240.865 -0.00201892 4.164 0
M  V30 2571 H 243.462 -2.75131 4.58483 0
M  V30 2572 H 243.805 -2.99644 2.88997 0
M  V30 2573 H 244.338 -1.49576 3.68608 0
M  V30 2574 H 241.077 -0.55314 6.53162 0
M  V30 2575 H 240.597 -2.01995 5.64764 0
M  V30 2576 H 242.276 -1.8221 6.20813 0
M  V30 2577 N 242.408 -1.52605 -0.393616 0
M  V30 2578 C 243.654 -1.67672 -1.14079 0
M  V30 2579 C 243.987 -0.413121 -1.89755 0
M  V30 2580 O 243.262 0.588952 -1.85369 0
M  V30 2581 C 243.545 -2.9088 -2.12276 0
M  V30 2582 C 243.398 -4.27329 -1.40394 0
M  V30 2583 C 244.717 -3.09628 -3.12759 0
M  V30 2584 H 241.836 -0.610168 -0.413356 0
M  V30 2585 H 244.478 -1.85193 -0.424696 0
M  V30 2586 H 242.628 -2.76073 -2.73342 0
M  V30 2587 H 244.3 -4.53894 -0.82327 0
M  V30 2588 H 242.543 -4.2802 -0.705801 0
M  V30 2589 H 243.214 -5.09615 -2.12123 0
M  V30 2590 H 245.69 -3.23436 -2.61779 0
M  V30 2591 H 244.566 -3.97322 -3.78717 0
M  V30 2592 H 244.827 -2.23637 -3.81365 0
M  V30 2593 N 243.887 0.651787 -1.4349 0
M  V30 2594 C 245.164 1.40909 -1.35661 0
M  V30 2595 C 245.544 2.11099 -0.00511733 0
M  V30 2596 O 244.892 2.04892 1.0115 0
M  V30 2597 C 245.102 2.3926 -2.54078 0
M  V30 2598 C 246.45 3.03217 -2.97228 0
M  V30 2599 O 247.474 2.49588 -2.54135 0
M  V30 2600 O 246.333 4.00455 -3.71885 0
M  V30 2601 H 243.427 0.629625 -0.536191 0
M  V30 2602 H 245.973 0.678575 -1.55542 0
M  V30 2603 H 244.745 1.86352 -3.44076 0
M  V30 2604 H 244.368 3.1976 -2.36303 0
M  V30 2605 N 245.365 1.30045 0.890287 0
M  V30 2606 C 246.328 1.15963 1.977 0
M  V30 2607 C 247.328 0.0923777 1.60534 0
M  V30 2608 O 248.518 0.340071 1.70848 0
M  V30 2609 C 245.65 0.775451 3.31963 0
M  V30 2610 H 246.843 2.12502 2.11619 0
M  V30 2611 H 244.396 1.13366 1.07601 0
M  V30 2612 H 245.131 -0.189671 3.23745 0
M  V30 2613 H 244.916 1.54668 3.60306 0
M  V30 2614 H 246.406 0.700251 4.11687 0
M  V30 2615 N 246.843 -1.10192 1.12674 0
M  V30 2616 C 248.089 -1.82475 0.884915 0
M  V30 2617 C 248.422 -1.85093 -0.58773 0
M  V30 2618 O 247.697 -1.3134 -1.43457 0
M  V30 2619 C 247.98 -3.29018 1.46353 0
M  V30 2620 C 247.833 -3.34718 3.00473 0
M  V30 2621 C 249.152 -4.25473 1.12519 0
M  V30 2622 H 246.271 -0.662492 0.322915 0
M  V30 2623 H 248.913 -1.2913 1.39375 0
M  V30 2624 H 247.063 -3.74576 1.03077 0
M  V30 2625 H 248.735 -2.97622 3.52447 0
M  V30 2626 H 246.978 -2.74541 3.35872 0
M  V30 2627 H 247.649 -4.37918 3.36053 0
M  V30 2628 H 250.125 -3.88161 1.499 0
M  V30 2629 H 249.001 -5.26365 1.55663 0
M  V30 2630 H 249.262 -4.42084 0.0377407 0
M  V30 2631 N 248.321 -0.919034 -1.28029 0
M  V30 2632 C 249.737 -0.617972 -1.4715 0
M  V30 2633 C 249.937 0.835242 -1.83374 0
M  V30 2634 O 248.993 1.61388 -1.94191 0
M  V30 2635 C 250.306 -1.56041 -2.57044 0
M  V30 2636 C 251.854 -1.56769 -2.7091 0
M  V30 2637 C 252.329 -2.49688 -3.83953 0
M  V30 2638 N 253.82 -2.47845 -3.91314 0
M  V30 2639 C 254.555 -3.16437 -4.78179 0
M  V30 2640 N 254.051 -3.94376 -5.69596 0
M  V30 2641 N 255.844 -3.05498 -4.71834 0
M  V30 2642 H 247.995 -1.85866 -1.02798 0
M  V30 2643 H 250.258 -0.797506 -0.512531 0
M  V30 2644 H 249.964 -2.59671 -2.372 0
M  V30 2645 H 249.838 -1.29551 -3.54255 0
M  V30 2646 H 252.225 -0.538745 -2.90141 0
M  V30 2647 H 252.306 -1.87305 -1.74214 0
M  V30 2648 H 251.95 -3.52688 -3.65477 0
M  V30 2649 H 251.88 -2.16453 -4.80058 0
M  V30 2650 H 254.371 -1.91234 -3.25941 0
M  V30 2651 H 254.684 -4.43721 -6.32718 0
M  V30 2652 H 253.029 -3.98481 -5.69419 0
M  V30 2653 H 256.22 -2.44108 -3.99411 0
M  V30 2654 H 256.393 -3.59225 -5.39316 0
M  V30 2655 N 249.799 1.42003 -0.683588 0
M  V30 2656 C 250.762 2.29191 -0.0198243 0
M  V30 2657 C 251.762 1.43773 0.72013 0
M  V30 2658 O 252.952 1.65061 0.556815 0
M  V30 2659 C 250.084 3.26435 0.982487 0
M  V30 2660 H 251.277 2.8938 -0.787345 0
M  V30 2661 H 248.83 1.49789 -0.446418 0
M  V30 2662 H 249.565 2.71203 1.77819 0
M  V30 2663 H 249.35 3.89449 0.455182 0
M  V30 2664 H 250.84 3.918 1.44508 0
M  V30 2665 N 251.277 0.427512 1.51691 0
M  V30 2666 C 252.207 -0.3796 2.30394 0
M  V30 2667 C 253.188 -1.02982 1.35384 0
M  V30 2668 O 254.373 -1.03534 1.643 0
M  V30 2669 C 251.503 -1.48649 3.1388 0
M  V30 2670 C 250.457 -0.960294 4.17088 0
M  V30 2671 C 249.783 -2.16219 4.89033 0
M  V30 2672 C 251.083 -0.00153679 5.223 0
M  V30 2673 H 252.777 0.277164 2.98114 0
M  V30 2674 H 250.323 0.134739 1.43368 0
M  V30 2675 H 252.276 -2.05826 3.67714 0
M  V30 2676 H 251 -2.1714 2.43962 0
M  V30 2677 H 249.659 -0.410806 3.64291 0
M  V30 2678 H 249.307 -2.83307 4.15628 0
M  V30 2679 H 249.007 -1.81654 5.58816 0
M  V30 2680 H 250.531 -2.73968 5.45687 0
M  V30 2681 H 251.945 -0.482687 5.71264 0
M  V30 2682 H 250.342 0.256199 5.99553 0
M  V30 2683 H 251.412 0.938174 4.75738 0
M  V30 2684 N 252.755 -1.56801 0.158532 0
M  V30 2685 C 253.685 -2.20347 -0.772609 0
M  V30 2686 C 254.666 -1.15518 -1.24859 0
M  V30 2687 O 255.851 -1.43902 -1.30406 0
M  V30 2688 C 252.981 -2.83417 -2.00729 0
M  V30 2689 C 251.935 -3.94174 -1.66765 0
M  V30 2690 C 251.261 -4.44233 -2.97592 0
M  V30 2691 C 252.561 -5.14392 -0.905447 0
M  V30 2692 H 254.255 -2.98413 -0.242959 0
M  V30 2693 H 251.801 -1.43537 -0.115419 0
M  V30 2694 H 253.754 -3.26543 -2.6636 0
M  V30 2695 H 252.478 -2.02701 -2.56086 0
M  V30 2696 H 251.137 -3.51684 -1.03508 0
M  V30 2697 H 250.785 -3.60325 -3.50963 0
M  V30 2698 H 250.485 -5.18945 -2.75626 0
M  V30 2699 H 252.009 -4.90037 -3.64274 0
M  V30 2700 H 253.423 -5.5429 -1.46408 0
M  V30 2701 H 251.82 -5.9494 -0.7853 0
M  V30 2702 H 252.89 -4.84795 0.100668 0
M  V30 2703 N 254.233 0.115231 -1.57178 0
M  V30 2704 C 255.458 0.840354 -1.89612 0
M  V30 2705 C 255.883 1.72464 -0.750845 0
M  V30 2706 O 255.241 1.78826 0.298478 0
M  V30 2707 C 255.289 1.64654 -3.20814 0
M  V30 2708 O 254.393 2.7538 -3.06985 0
M  V30 2709 H 253.734 0.232158 -0.622092 0
M  V30 2710 H 256.264 0.0964977 -2.04372 0
M  V30 2711 H 256.274 2.03499 -3.53627 0
M  V30 2712 H 254.949 0.997416 -4.03763 0
M  V30 2713 H 253.526 2.3971 -2.85646 0
M  V30 2714 N 255.711 1.52812 0.385517 0
M  V30 2715 C 256.658 1.77838 1.47113 0
M  V30 2716 C 257.628 0.621757 1.54024 0
M  V30 2717 O 258.813 0.861846 1.70226 0
M  V30 2718 C 255.953 1.95618 2.84302 0
M  V30 2719 C 255.066 3.23316 2.86515 0
M  V30 2720 C 254.201 3.31394 4.15152 0
M  V30 2721 C 253.24 4.53201 4.1143 0
M  V30 2722 N 252.377 4.58542 5.3168 0
M  V30 2723 H 257.217 2.70482 1.25073 0
M  V30 2724 H 254.754 1.34006 0.606692 0
M  V30 2725 H 256.712 2.03912 3.63972 0
M  V30 2726 H 255.342 1.06331 3.04784 0
M  V30 2727 H 254.394 3.24076 1.99195 0
M  V30 2728 H 255.706 4.13045 2.79634 0
M  V30 2729 H 254.86 3.3889 5.03228 0
M  V30 2730 H 253.599 2.39645 4.24761 0
M  V30 2731 H 252.604 4.45827 3.21742 0
M  V30 2732 H 253.829 5.46271 4.03442 0
M  V30 2733 H 251.775 3.69686 5.41912 0
M  V30 2734 H 251.692 5.42148 5.26889 0
M  V30 2735 H 252.96 4.70296 6.21644 0
M  V30 2736 N 257.189 -0.644168 1.43834 0
M  V30 2737 C 258.099 -1.78563 1.52159 0
M  V30 2738 C 259.115 -1.69147 0.408069 0
M  V30 2739 O 260.291 -1.90156 0.663524 0
M  V30 2740 C 257.356 -3.14888 1.45073 0
M  V30 2741 C 256.417 -3.36034 2.6717 0
M  V30 2742 C 255.65 -4.65855 2.60413 0
M  V30 2743 O 255.873 -5.45805 1.65689 0
M  V30 2744 O 254.807 -4.88918 3.5106 0
M  V30 2745 H 258.633 -1.74494 2.48567 0
M  V30 2746 H 256.218 -0.80378 1.25935 0
M  V30 2747 H 258.1 -3.96179 1.43597 0
M  V30 2748 H 256.775 -3.19528 0.518037 0
M  V30 2749 H 255.682 -2.54472 2.74217 0
M  V30 2750 H 257.015 -3.36247 3.59442 0
M  V30 2751 N 258.668 -1.30515 -0.883378 0
M  V30 2752 C 259.598 -1.19607 -2.00541 0
M  V30 2753 C 260.579 -0.086346 -1.69881 0
M  V30 2754 O 261.764 -0.268654 -1.92333 0
M  V30 2755 C 258.894 -0.888758 -3.35736 0
M  V30 2756 C 257.848 -1.95659 -3.8066 0
M  V30 2757 C 257.174 -1.50224 -5.13164 0
M  V30 2758 C 258.474 -3.36788 -3.99213 0
M  V30 2759 H 260.168 -2.13476 -2.09925 0
M  V30 2760 H 257.714 -1.02775 -1.00863 0
M  V30 2761 H 259.667 -0.799094 -4.13754 0
M  V30 2762 H 258.391 0.0856125 -3.26488 0
M  V30 2763 H 257.05 -2.03591 -3.04871 0
M  V30 2764 H 256.698 -0.516092 -5.00345 0
M  V30 2765 H 256.398 -2.2165 -5.44192 0
M  V30 2766 H 257.922 -1.42639 -5.93706 0
M  V30 2767 H 259.336 -3.31605 -4.67665 0
M  V30 2768 H 257.733 -4.06314 -4.41621 0
M  V30 2769 H 258.803 -3.78561 -3.03017 0
M  V30 2770 N 260.146 1.09593 -1.13257 0
M  V30 2771 C 261.109 2.14359 -0.811358 0
M  V30 2772 C 262.109 1.59808 0.178377 0
M  V30 2773 O 263.299 1.74132 -0.0484911 0
M  V30 2774 C 260.431 3.40269 -0.207276 0
M  V30 2775 H 261.624 2.44284 -1.73969 0
M  V30 2776 H 259.177 1.25102 -0.936973 0
M  V30 2777 H 259.912 3.15969 0.73036 0
M  V30 2778 H 259.697 3.81154 -0.919992 0
M  V30 2779 H 261.187 4.176 0.000667944 0
M  V30 2780 N 261.624 0.925811 1.2754 0
M  V30 2781 C 262.572 0.413897 2.28888 0
M  V30 2782 C 263.566 -0.500779 1.61829 0
M  V30 2783 O 264.772 -0.38069 1.75928 0
M  V30 2784 H 261.147 0.115274 0.743112 0
M  V30 2785 H 263.118 1.28151 2.69481 0
M  V30 2786 C 261.867 -0.319792 3.46226 0
M  V30 2787 H 261.19 0.374846 3.98039 0
M  V30 2788 H 262.63 -0.642435 4.19105 0
M  V30 2789 C 261.089 -1.53209 3.00048 0
M  V30 2790 O 261.619 -2.6309 3.03557 0
M  V30 2791 N 259.825 -1.38326 2.55566 0
M  V30 2792 H 259.372 -0.489292 2.5291 0
M  V30 2793 H 259.33 -2.19564 2.25031 0
M  V30 2794 N 263.102 -1.41638 0.69111 0
M  V30 2795 C 264.35 -2.00902 0.219758 0
M  V30 2796 C 264.671 -1.54994 -1.18329 0
M  V30 2797 O 263.941 -0.778628 -1.79762 0
M  V30 2798 H 262.521 -0.74289 0.0782558 0
M  V30 2799 H 265.183 -1.73327 0.891271 0
M  V30 2800 H 264.279 -3.11224 0.233708 0
M  V30 2801 N 264.58 -0.43555 -1.51462 0
M  V30 2802 C 265.543 0.365137 -2.26273 0
M  V30 2803 C 266.543 0.951227 -1.29647 0
M  V30 2804 O 267.733 0.825958 -1.53374 0
M  V30 2805 C 264.865 1.51645 -3.05314 0
M  V30 2806 H 266.058 -0.290474 -2.9849 0
M  V30 2807 H 263.611 -0.188676 -1.55157 0
M  V30 2808 H 264.346 2.20816 -2.3751 0
M  V30 2809 H 264.131 1.10238 -3.76284 0
M  V30 2810 H 265.621 2.08218 -3.61987 0
M  V30 2811 N 266.058 1.56714 -0.166846 0
M  V30 2812 C 267.286 2.0112 0.485644 0
M  V30 2813 C 267.701 1.04705 1.57106 0
M  V30 2814 O 267.058 0.0471923 1.82439 0
M  V30 2815 C 267.109 3.45361 1.06808 0
M  V30 2816 O 266.83 4.38092 0.0259995 0
M  V30 2817 C 268.331 4.05145 1.79924 0
M  V30 2818 H 265.551 0.65931 0.124704 0
M  V30 2819 H 268.095 2.02746 -0.267262 0
M  V30 2820 H 266.25 3.44524 1.7715 0
M  V30 2821 H 266.664 5.22519 0.455398 0
M  V30 2822 H 268.138 5.08009 2.15942 0
M  V30 2823 H 268.615 3.46982 2.69258 0
M  V30 2824 H 269.221 4.09672 1.14234 0
M  V30 2825 N 267.536 -0.106894 1.57237 0
M  V30 2826 C 268.499 -1.11466 2.0027 0
M  V30 2827 C 269.499 -1.33623 0.894519 0
M  V30 2828 O 270.689 -1.29935 1.16028 0
M  V30 2829 C 267.821 -2.46646 2.35327 0
M  V30 2830 H 269.014 -0.744516 2.90512 0
M  V30 2831 H 266.567 -0.351576 1.52295 0
M  V30 2832 H 267.302 -2.88558 1.48003 0
M  V30 2833 H 267.087 -2.31915 3.16161 0
M  V30 2834 H 268.577 -3.19151 2.69318 0
M  V30 2835 N 269.014 -1.53014 -0.377408 0
M  V30 2836 C 269.924 -1.81557 -1.48574 0
M  V30 2837 C 270.94 -0.703102 -1.59162 0
M  V30 2838 O 272.116 -0.99192 -1.75279 0
M  V30 2839 C 269.181 -1.9889 -2.83978 0
M  V30 2840 C 268.242 -3.22801 -2.83016 0
M  V30 2841 C 267.475 -3.39298 -4.11962 0
M  V30 2842 O 267.698 -2.60345 -5.0752 0
M  V30 2843 O 266.632 -4.32604 -4.18494 0
M  V30 2844 H 270.458 -2.75695 -1.27382 0
M  V30 2845 H 268.043 -1.38248 -0.566373 0
M  V30 2846 H 269.925 -2.11931 -3.6423 0
M  V30 2847 H 268.6 -1.07942 -3.05172 0
M  V30 2848 H 267.507 -3.15193 -2.01505 0
M  V30 2849 H 268.84 -4.13632 -2.66775 0
M  V30 2850 N 270.492 0.636531 -1.44174 0
M  V30 2851 C 271.402 1.77754 -1.53103 0
M  V30 2852 C 272.418 1.68928 -0.417034 0
M  V30 2853 O 273.594 1.89801 -0.6736 0
M  V30 2854 C 270.659 3.14115 -1.46741 0
M  V30 2855 C 269.72 3.34612 -2.68948 0
M  V30 2856 C 268.953 4.64467 -2.6288 0
M  V30 2857 O 269.176 5.44919 -1.68581 0
M  V30 2858 O 268.11 4.87049 -3.53648 0
M  V30 2859 H 271.936 1.73174 -2.49489 0
M  V30 2860 H 269.521 0.79709 -1.2636 0
M  V30 2861 H 271.403 3.95412 -1.45696 0
M  V30 2862 H 270.078 3.19249 -0.534975 0
M  V30 2863 H 268.985 2.53014 -2.75562 0
M  V30 2864 H 270.318 3.34336 -3.61221 0
M  V30 2865 N 271.97 1.30982 0.876444 0
M  V30 2866 C 272.9 1.20668 1.99903 0
M  V30 2867 C 273.881 0.095354 1.69833 0
M  V30 2868 O 275.066 0.27885 1.92188 0
M  V30 2869 C 272.196 0.90655 3.3526 0
M  V30 2870 C 271.15 1.97675 3.79617 0
M  V30 2871 C 270.476 1.52943 5.1236 0
M  V30 2872 C 271.776 3.389 3.97422 0
M  V30 2873 H 273.47 2.14586 2.0879 0
M  V30 2874 H 271.016 1.03308 1.00317 0
M  V30 2875 H 272.969 0.821025 4.13324 0
M  V30 2876 H 271.693 -0.0682969 3.26529 0
M  V30 2877 H 270.352 2.05205 3.03787 0
M  V30 2878 H 270 0.54262 5.00065 0
M  V30 2879 H 269.7 2.24532 5.43009 0
M  V30 2880 H 271.224 1.45786 5.92941 0
M  V30 2881 H 272.638 3.34081 4.659 0
M  V30 2882 H 271.035 4.0865 4.3946 0
M  V30 2883 H 272.105 3.80163 3.01006 0
M  V30 2884 N 273.449 -1.08991 1.13837 0
M  V30 2885 C 274.695 -1.81526 0.90422 0
M  V30 2886 C 275.028 -1.85706 -0.568066 0
M  V30 2887 O 274.303 -1.32855 -1.42056 0
M  V30 2888 C 274.586 -3.27447 1.49835 0
M  V30 2889 C 274.439 -3.31512 3.04006 0
M  V30 2890 C 275.758 -4.24256 1.17025 0
M  V30 2891 H 272.877 -0.659029 0.329923 0
M  V30 2892 H 275.519 -1.27644 1.40737 0
M  V30 2893 H 273.669 -3.73462 1.07044 0
M  V30 2894 H 275.341 -2.93867 3.55584 0
M  V30 2895 H 273.584 -2.70963 3.38765 0
M  V30 2896 H 274.255 -4.34329 3.40679 0
M  V30 2897 H 276.731 -3.86549 1.54009 0
M  V30 2898 H 275.607 -5.24684 1.61237 0
M  V30 2899 H 275.868 -4.42019 0.0846274 0
M  V30 2900 N 274.927 -0.932562 -1.27047 0
M  V30 2901 C 276.204 -0.49377 -1.89265 0
M  V30 2902 C 276.584 1.02833 -1.8436 0
M  V30 2903 O 275.932 1.88461 -1.29209 0
M  V30 2904 C 276.142 -1.04536 -3.32976 0
M  V30 2905 C 277.49 -1.10879 -4.09867 0
M  V30 2906 O 278.514 -0.995327 -3.42011 0
M  V30 2907 O 277.373 -1.28417 -5.31198 0
M  V30 2908 H 274.467 -0.159596 -0.811454 0
M  V30 2909 H 277.013 -1.02457 -1.3528 0
M  V30 2910 H 275.785 -2.08913 -3.30864 0
M  V30 2911 H 275.408 -0.496494 -3.94488 0
M  V30 2912 N 276.405 1.4127 -0.698611 0
M  V30 2913 C 277.368 2.29158 -0.044132 0
M  V30 2914 C 278.368 1.44529 0.704841 0
M  V30 2915 O 279.558 1.65643 0.539276 0
M  V30 2916 C 276.69 3.27459 0.947809 0
M  V30 2917 H 277.883 2.88529 -0.817994 0
M  V30 2918 H 275.436 1.49307 -0.46228 0
M  V30 2919 H 276.171 2.73073 1.74933 0
M  V30 2920 H 275.956 3.8991 0.41385 0
M  V30 2921 H 277.446 3.93311 1.40344 0
M  V30 2922 N 277.883 0.443576 1.51229 0
M  V30 2923 C 279.129 -0.120975 2.02439 0
M  V30 2924 C 279.462 -1.41815 1.32674 0
M  V30 2925 O 278.737 -1.89373 0.443622 0
M  V30 2926 C 279.02 -0.333291 3.58554 0
M  V30 2927 C 278.873 0.982968 4.38928 0
M  V30 2928 C 280.192 -1.10028 4.26124 0
M  V30 2929 H 277.311 -0.0424923 0.735774 0
M  V30 2930 H 279.953 0.583794 1.80809 0
M  V30 2931 H 278.103 -0.933614 3.77115 0
M  V30 2932 H 279.775 1.61775 4.32003 0
M  V30 2933 H 278.018 1.58611 4.03763 0
M  V30 2934 H 278.689 0.788379 5.46341 0
M  V30 2935 H 281.165 -0.591711 4.11871 0
M  V30 2936 H 280.041 -1.21761 5.35225 0
M  V30 2937 H 280.302 -2.12996 3.87408 0
M  V30 2938 N 279.361 -1.56624 0.175154 0
M  V30 2939 C 280.589 -2.01374 -0.474971 0
M  V30 2940 C 281.004 -1.05537 -1.56548 0
M  V30 2941 O 280.361 -0.0568668 -1.82411 0
M  V30 2942 C 280.412 -3.45923 -1.04975 0
M  V30 2943 O 280.133 -4.381 -0.00276605 0
M  V30 2944 C 281.634 -4.06093 -1.77773 0
M  V30 2945 H 278.854 -0.659962 -0.121206 0
M  V30 2946 H 281.398 -2.02601 0.27801 0
M  V30 2947 H 279.553 -3.45458 -1.75321 0
M  V30 2948 H 279.967 -5.22753 -0.427681 0
M  V30 2949 H 281.441 -5.09147 -2.13245 0
M  V30 2950 H 281.918 -3.48405 -2.67414 0
M  V30 2951 H 282.524 -4.10272 -1.12059 0
M  V30 2952 N 280.839 0.0985539 -1.57292 0
M  V30 2953 C 282.085 0.803867 -1.86188 0
M  V30 2954 C 282.418 1.78549 -0.763794 0
M  V30 2955 O 281.693 1.93153 0.22855 0
M  V30 2956 C 281.976 1.53568 -3.25713 0
M  V30 2957 C 281.829 0.572277 -4.46145 0
M  V30 2958 C 283.148 2.48708 -3.63087 0
M  V30 2959 H 280.267 0.290781 -0.677211 0
M  V30 2960 H 282.909 0.0675783 -1.8988 0
M  V30 2961 H 281.059 2.16332 -3.22696 0
M  V30 2962 H 282.731 -0.0480894 -4.61275 0
M  V30 2963 H 280.974 -0.114618 -4.33649 0
M  V30 2964 H 281.645 1.12139 -5.40489 0
M  V30 2965 H 284.121 1.96039 -3.67026 0
M  V30 2966 H 282.997 2.96932 -4.61652 0
M  V30 2967 H 283.258 3.32309 -2.91588 0
M  V30 2968 N 282.317 1.53212 0.369288 0
M  V30 2969 C 283.227 1.82342 1.47609 0
M  V30 2970 C 284.243 0.711532 1.58787 0
M  V30 2971 O 285.419 1.0012 1.74751 0
M  V30 2972 C 282.484 2.00393 2.8292 0
M  V30 2973 C 281.545 3.24297 2.81301 0
M  V30 2974 C 280.778 3.41478 4.10157 0
M  V30 2975 O 281.001 2.63033 5.06132 0
M  V30 2976 O 279.935 4.34817 4.16194 0
M  V30 2977 H 283.761 2.76366 1.25918 0
M  V30 2978 H 281.346 1.38547 0.559034 0
M  V30 2979 H 283.228 2.13859 3.63101 0
M  V30 2980 H 281.903 1.09559 3.04596 0
M  V30 2981 H 280.81 3.16257 1.99831 0
M  V30 2982 H 282.143 4.15041 2.64578 0
M  V30 2983 N 283.795 -0.628877 1.44509 0
M  V30 2984 C 285.043 -1.38565 1.4712 0
M  V30 2985 C 285.364 -1.94712 0.105899 0
M  V30 2986 O 284.634 -1.75912 -0.862079 0
M  V30 2987 H 283.214 -0.514333 0.541729 0
M  V30 2988 H 285.876 -0.740018 1.80305 0
M  V30 2989 H 284.972 -2.21583 2.19789 0
M  V30 2990 N 285.273 -1.31445 -0.869486 0
M  V30 2991 C 286.522 -1.20517 -1.61736 0
M  V30 2992 C 286.835 0.235341 -1.94179 0
M  V30 2993 O 288.041 0.466312 -2.67465 0
M  V30 2994 C 286.497 -2.10982 -2.91573 0
M  V30 2995 C 286.105 -3.60032 -2.66611 0
M  V30 2996 C 287.849 -2.08856 -3.69567 0
M  V30 2997 C 285.756 -4.42503 -3.92358 0
M  V30 2998 H 284.686 -0.447493 -0.606849 0
M  V30 2999 H 287.337 -1.56303 -0.96133 0
M  V30 3000 H 285.719 -1.68095 -3.58553 0
M  V30 3001 H 286.893 -4.11167 -2.08035 0
M  V30 3002 H 285.208 -3.64139 -2.0197 0
M  V30 3003 H 287.805 -2.67716 -4.62852 0
M  V30 3004 H 288.148 -1.07582 -4.02159 0
M  V30 3005 H 288.681 -2.49945 -3.09471 0
M  V30 3006 H 285.42 -5.44533 -3.64916 0
M  V30 3007 H 284.94 -3.96125 -4.50383 0
M  V30 3008 H 286.619 -4.54741 -4.60238 0
M  V30 3009 N 286.751 1.08385 -1.14413 0
M  V30 3010 C 287.976 1.85057 -0.936413 0
M  V30 3011 C 288.401 1.81055 0.509971 0
M  V30 3012 O 287.759 1.1958 1.36273 0
M  V30 3013 C 287.807 3.30505 -1.44217 0
M  V30 3014 O 286.911 4.07491 -0.634409 0
M  V30 3015 H 286.252 0.573425 -0.334784 0
M  V30 3016 H 288.782 1.36799 -1.52142 0
M  V30 3017 H 288.792 3.81348 -1.45043 0
M  V30 3018 H 287.467 3.32734 -2.49522 0
M  V30 3019 H 286.044 3.66368 -0.694902 0
M  V30 3020 N 288.23 0.939286 1.26551 0
M  V30 3021 C 289.14 0.453432 2.30176 0
M  V30 3022 C 290.156 -0.471649 1.67486 0
M  V30 3023 O 291.332 -0.35164 1.98306 0
M  V30 3024 C 288.397 -0.275326 3.45605 0
M  V30 3025 C 287.458 0.686084 4.23782 0
M  V30 3026 C 286.691 -0.00798994 5.33699 0
M  V30 3027 O 286.914 -1.22528 5.57085 0
M  V30 3028 O 285.848 0.669746 5.98162 0
M  V30 3029 H 289.674 1.31416 2.73795 0
M  V30 3030 H 287.259 0.705095 1.31715 0
M  V30 3031 H 289.141 -0.685911 4.1578 0
M  V30 3032 H 287.816 -1.11147 3.0402 0
M  V30 3033 H 286.723 1.14658 3.56096 0
M  V30 3034 H 288.056 1.48979 4.69112 0
M  V30 3035 N 289.708 -1.40897 0.706093 0
M  V30 3036 C 290.656 -2.32572 0.0361893 0
M  V30 3037 C 291.65 -1.51532 -0.757266 0
M  V30 3038 O 292.856 -1.67396 -0.661703 0
M  V30 3039 H 289.231 -0.751966 -0.00709935 0
M  V30 3040 H 291.202 -2.86733 0.826249 0
M  V30 3041 C 289.951 -3.36418 -0.87854 0
M  V30 3042 H 289.274 -3.98836 -0.277401 0
M  V30 3043 H 290.714 -4.0308 -1.3154 0
M  V30 3044 C 289.173 -2.71141 -1.99961 0
M  V30 3045 O 289.703 -2.56735 -3.0895 0
M  V30 3046 N 287.909 -2.29671 -1.78043 0
M  V30 3047 H 287.456 -2.41588 -0.894042 0
M  V30 3048 H 287.414 -1.86332 -2.53235 0
M  V30 3049 N 291.186 -0.45159 -1.50991 0
M  V30 3050 C 292.116 0.342898 -2.30969 0
M  V30 3051 C 293.097 1.00815 -1.37005 0
M  V30 3052 O 294.282 1.00907 -1.65926 0
M  V30 3053 C 291.412 1.43637 -3.16205 0
M  V30 3054 C 290.366 0.893818 -4.18563 0
M  V30 3055 C 289.692 2.08411 -4.92411 0
M  V30 3056 C 290.992 -0.0815568 -5.22236 0
M  V30 3057 H 292.686 -0.324556 -2.97636 0
M  V30 3058 H 290.232 -0.157531 -1.43136 0
M  V30 3059 H 292.185 1.9995 -3.70942 0
M  V30 3060 H 290.909 2.13232 -2.47386 0
M  V30 3061 H 289.568 0.352798 -3.64898 0
M  V30 3062 H 289.216 2.76658 -4.20082 0
M  V30 3063 H 288.916 1.72741 -5.61636 0
M  V30 3064 H 290.44 2.65251 -5.49976 0
M  V30 3065 H 291.854 0.391742 -5.7196 0
M  V30 3066 H 290.251 -0.351551 -5.99069 0
M  V30 3067 H 291.321 -1.01374 -4.74185 0
M  V30 3068 N 292.664 1.56529 -0.183458 0
M  V30 3069 C 293.894 2.01331 0.463612 0
M  V30 3070 C 294.302 1.06278 1.5653 0
M  V30 3071 O 293.645 0.0577976 1.83609 0
M  V30 3072 C 293.707 3.42547 1.09096 0
M  V30 3073 C 293.371 4.56817 0.129442 0
M  V30 3074 C 294.368 5.15734 -0.656807 0
M  V30 3075 C 292.053 5.02295 0.02174 0
M  V30 3076 C 294.047 6.1857 -1.53784 0
M  V30 3077 C 291.734 6.04978 -0.862864 0
M  V30 3078 C 292.732 6.62988 -1.64123 0
M  V30 3079 O 292.42 7.63677 -2.51103 0
M  V30 3080 H 292.152 0.664917 0.121907 0
M  V30 3081 H 294.706 2.034 -0.285954 0
M  V30 3082 H 292.936 3.37428 1.88889 0
M  V30 3083 H 294.625 3.71228 1.64148 0
M  V30 3084 H 295.391 4.81473 -0.583839 0
M  V30 3085 H 291.27 4.56847 0.617392 0
M  V30 3086 H 294.814 6.63777 -2.14583 0
M  V30 3087 H 290.711 6.38663 -0.93699 0
M  V30 3088 H 291.479 7.81049 -2.44753 0
M  V30 3089 N 294.142 -0.090211 1.57342 0
M  V30 3090 C 295.37 -0.806224 1.90546 0
M  V30 3091 C 295.785 -1.72041 0.777644 0
M  V30 3092 O 295.142 -1.80778 -0.250103 0
M  V30 3093 C 295.193 -1.61546 3.23396 0
M  V30 3094 O 294.914 -0.738043 4.31839 0
M  V30 3095 C 296.415 -2.4341 3.70495 0
M  V30 3096 H 293.635 -0.230256 0.630257 0
M  V30 3097 H 296.179 -0.0659843 2.04394 0
M  V30 3098 H 294.334 -2.30816 3.11131 0
M  V30 3099 H 294.748 -1.29901 5.08159 0
M  V30 3100 H 296.222 -2.95676 4.66133 0
M  V30 3101 H 296.699 -3.22098 2.98579 0
M  V30 3102 H 297.305 -1.79331 3.85643 0
M  V30 3103 N 295.62 -1.53406 -0.361157 0
M  V30 3104 C 296.845 -1.74024 -1.12829 0
M  V30 3105 C 297.27 -0.470069 -1.82132 0
M  V30 3106 O 296.628 0.57619 -1.719 0
M  V30 3107 C 296.676 -2.90903 -2.13091 0
M  V30 3108 O 295.78 -2.59821 -3.20261 0
M  V30 3109 H 295.121 -0.577804 -0.327168 0
M  V30 3110 H 297.651 -2.00307 -0.41693 0
M  V30 3111 H 297.661 -3.17194 -2.56616 0
M  V30 3112 H 296.336 -3.83034 -1.62042 0
M  V30 3113 H 294.913 -2.44362 -2.81677 0
M  V30 3114 N 297.098 0.621204 -1.44841 0
M  V30 3115 C 298.346 1.37783 -1.47852 0
M  V30 3116 C 298.667 1.94653 -0.116224 0
M  V30 3117 O 297.937 1.76367 0.852737 0
M  V30 3118 H 296.517 0.511453 -0.544449 0
M  V30 3119 H 299.179 0.730446 -1.80694 0
M  V30 3120 H 298.275 2.20414 -2.20961 0
M  V30 3121 N 298.576 1.31904 0.862503 0
M  V30 3122 C 299.508 1.16005 1.97675 0
M  V30 3123 C 300.521 0.0971234 1.6251 0
M  V30 3124 O 301.71 0.345337 1.75128 0
M  V30 3125 C 298.81 0.751791 3.30456 0
M  V30 3126 C 297.983 1.90133 3.93914 0
M  V30 3127 C 297.042 1.4779 5.05019 0
M  V30 3128 O 296.068 2.18872 5.25437 0
M  V30 3129 N 297.27 0.369491 5.79323 0
M  V30 3130 H 300.035 2.11982 2.11857 0
M  V30 3131 H 297.596 1.24337 1.03691 0
M  V30 3132 H 299.588 0.451084 4.02178 0
M  V30 3133 H 298.158 -0.116593 3.12382 0
M  V30 3134 H 297.378 2.36896 3.15078 0
M  V30 3135 H 298.666 2.67111 4.33047 0
M  V30 3136 H 298.064 -0.222299 5.65263 0
M  V30 3137 H 296.621 0.128354 6.51674 0
M  V30 3138 N 300.054 -1.07777 1.14986 0
M  V30 3139 C 301.465 -1.61766 0.932127 0
M  V30 3140 C 301.816 -1.88974 -0.527581 0
M  V30 3141 O 300.941 -1.65198 -1.39781 0
M  V30 3142 C 301.536 -2.93891 1.68563 0
M  V30 3143 C 300.095 -3.44639 1.5133 0
M  V30 3144 C 299.242 -2.18767 1.704 0
M  V30 3145 H 302.193 -0.909201 1.30074 0
M  V30 3146 H 302.214 -3.62623 1.15259 0
M  V30 3147 H 301.726 -2.74057 2.74799 0
M  V30 3148 H 299.827 -3.69564 0.474702 0
M  V30 3149 H 299.94 -4.20966 2.28746 0
M  V30 3150 H 298.304 -2.28253 1.13016 0
M  V30 3151 H 299.087 -2.01433 2.77992 0
M  V30 3152 N 301.532 -0.945985 -1.26051 0
M  V30 3153 C 302.809 -0.513816 -1.88731 0
M  V30 3154 C 303.189 1.00872 -1.8544 0
M  V30 3155 O 302.537 1.8708 -1.312 0
M  V30 3156 C 302.747 -1.08062 -3.31849 0
M  V30 3157 C 304.095 -1.1522 -4.08668 0
M  V30 3158 O 305.119 -1.03155 -3.40936 0
M  V30 3159 O 303.978 -1.34044 -5.29806 0
M  V30 3160 H 301.072 -0.168193 -0.809716 0
M  V30 3161 H 303.618 -1.03886 -1.34186 0
M  V30 3162 H 302.39 -2.1241 -3.2863 0
M  V30 3163 H 302.013 -0.538307 -3.93939 0
M  V30 3164 N 303.011 1.40521 -0.713556 0
M  V30 3165 C 304.422 1.83853 -0.324807 0
M  V30 3166 C 304.773 1.59667 1.14021 0
M  V30 3167 O 303.898 1.07649 1.87725 0
M  V30 3168 C 304.493 3.33751 -0.582746 0
M  V30 3169 C 303.052 3.75584 -0.247727 0
M  V30 3170 C 302.199 2.63753 -0.856121 0
M  V30 3171 H 305.15 1.29817 -0.91286 0
M  V30 3172 H 305.171 3.80194 0.152682 0
M  V30 3173 H 304.683 3.51322 -1.64908 0
M  V30 3174 H 302.784 3.63608 0.813624 0
M  V30 3175 H 302.897 4.7373 -0.715307 0
M  V30 3176 H 301.261 2.53108 -0.28432 0
M  V30 3177 H 302.044 2.84137 -1.92668 0
M  V30 3178 N 304.489 0.459591 1.5075 0
M  V30 3179 C 305.766 -0.160371 1.94941 0
M  V30 3180 C 306.146 -1.58048 1.39943 0
M  V30 3181 O 305.494 -2.206 0.595629 0
M  V30 3182 C 305.704 -0.115432 3.48809 0
M  V30 3183 C 307.052 -0.310026 4.23467 0
M  V30 3184 O 308.076 -0.192543 3.55679 0
M  V30 3185 O 306.935 -0.546031 5.43765 0
M  V30 3186 H 304.029 -0.117925 0.818549 0
M  V30 3187 H 306.575 0.519169 1.61563 0
M  V30 3188 H 305.347 0.87652 3.81357 0
M  V30 3189 H 304.97 -0.836928 3.88692 0
M  V30 3190 N 305.967 -1.56429 0.191757 0
M  V30 3191 C 306.897 -2.21937 -0.725696 0
M  V30 3192 C 307.878 -1.1814 -1.2238 0
M  V30 3193 O 309.063 -1.46636 -1.27325 0
M  V30 3194 C 306.193 -2.87611 -1.94672 0
M  V30 3195 C 305.147 -3.97623 -1.58366 0
M  V30 3196 C 304.473 -4.50446 -2.88102 0
M  V30 3197 C 305.773 -5.16197 -0.796133 0
M  V30 3198 H 307.467 -2.98861 -0.179606 0
M  V30 3199 H 305.013 -1.43749 -0.0849464 0
M  V30 3200 H 306.966 -3.3212 -2.59373 0
M  V30 3201 H 305.69 -2.08087 -2.51728 0
M  V30 3202 H 304.349 -3.53801 -0.960247 0
M  V30 3203 H 303.997 -3.67688 -3.43241 0
M  V30 3204 H 303.697 -5.24675 -2.64556 0
M  V30 3205 H 305.221 -4.97654 -3.53798 0
M  V30 3206 H 306.635 -5.57271 -1.34618 0
M  V30 3207 H 305.032 -5.96471 -0.658928 0
M  V30 3208 H 306.102 -4.84473 0.203478 0
M  V30 3209 N 307.445 0.0818655 -1.57387 0
M  V30 3210 C 308.691 0.784074 -1.8703 0
M  V30 3211 C 309.024 1.77729 -0.782689 0
M  V30 3212 O 308.299 1.93384 0.208051 0
M  V30 3213 C 308.582 1.50105 -3.27323 0
M  V30 3214 C 308.435 0.524925 -4.46727 0
M  V30 3215 C 309.754 2.44843 -3.65705 0
M  V30 3216 H 306.873 0.283582 -0.680257 0
M  V30 3217 H 309.515 0.0474352 -1.89941 0
M  V30 3218 H 307.665 2.12897 -3.24972 0
M  V30 3219 H 309.337 -0.0970111 -4.61198 0
M  V30 3220 H 307.58 -0.160606 -4.33503 0
M  V30 3221 H 308.251 1.064 -5.41648 0
M  V30 3222 H 310.727 1.92135 -3.69085 0
M  V30 3223 H 309.603 2.92018 -4.64776 0
M  V30 3224 H 309.864 3.29197 -2.95096 0
M  V30 3225 N 308.923 1.53595 0.353017 0
M  V30 3226 C 310.172 1.69603 1.09168 0
M  V30 3227 C 310.485 0.460925 1.90092 0
M  V30 3228 O 311.691 0.501774 2.66823 0
M  V30 3229 C 310.147 2.99872 1.9901 0
M  V30 3230 C 309.755 4.30687 1.23339 0
M  V30 3231 C 311.499 3.25246 2.72792 0
M  V30 3232 C 309.406 5.52036 2.12156 0
M  V30 3233 H 308.336 0.631966 0.411261 0
M  V30 3234 H 310.987 1.80096 0.351802 0
M  V30 3235 H 309.369 2.83212 2.7678 0
M  V30 3236 H 310.543 4.58019 0.505456 0
M  V30 3237 H 308.858 4.11853 0.613663 0
M  V30 3238 H 311.455 4.13095 3.39495 0
M  V30 3239 H 311.798 2.41846 3.38846 0
M  V30 3240 H 312.331 3.42638 2.021 0
M  V30 3241 H 309.07 6.37951 1.50659 0
M  V30 3242 H 308.59 5.28966 2.82764 0
M  V30 3243 H 310.269 5.87313 2.71427 0
M  V30 3244 N 310.401 -0.613514 1.45168 0
M  V30 3245 C 311.817 -0.933629 1.29443 0
M  V30 3246 C 312.017 -2.00028 0.243101 0
M  V30 3247 O 311.073 -2.49848 -0.364992 0
M  V30 3248 C 312.386 -1.38018 2.67155 0
M  V30 3249 C 313.934 -1.49471 2.75004 0
M  V30 3250 C 314.409 -1.97503 4.13227 0
M  V30 3251 N 315.9 -2.04746 4.15491 0
M  V30 3252 C 316.635 -2.43121 5.19307 0
M  V30 3253 N 316.131 -2.80506 6.33473 0
M  V30 3254 N 317.924 -2.43408 5.06664 0
M  V30 3255 H 310.075 0.0916097 2.12202 0
M  V30 3256 H 312.338 -0.0216655 0.947752 0
M  V30 3257 H 312.044 -0.670625 3.45247 0
M  V30 3258 H 311.918 -2.34784 2.95222 0
M  V30 3259 H 314.305 -2.19519 1.9722 0
M  V30 3260 H 314.386 -0.510342 2.50657 0
M  V30 3261 H 314.03 -1.28045 4.91495 0
M  V30 3262 H 313.96 -2.96843 4.34962 0
M  V30 3263 H 316.451 -1.78468 3.33103 0
M  V30 3264 H 316.764 -3.08652 7.08487 0
M  V30 3265 H 315.109 -2.78216 6.36884 0
M  V30 3266 H 318.3 -2.13604 4.16523 0
M  V30 3267 H 318.473 -2.72989 5.87691 0
M  V30 3268 N 311.879 -1.3236 -0.855495 0
M  V30 3269 C 313.107 -1.2587 -1.64208 0
M  V30 3270 C 313.522 0.173457 -1.88002 0
M  V30 3271 O 312.879 1.11027 -1.44842 0
M  V30 3272 C 312.93 -2.01424 -3.00184 0
M  V30 3273 O 312.651 -3.39051 -2.77445 0
M  V30 3274 C 314.152 -2.01948 -3.94629 0
M  V30 3275 H 311.372 -0.434318 -0.511477 0
M  V30 3276 H 313.916 -1.74469 -1.0668 0
M  V30 3277 H 312.071 -1.56549 -3.5436 0
M  V30 3278 H 312.485 -3.77711 -3.63916 0
M  V30 3279 H 313.959 -2.59297 -4.87308 0
M  V30 3280 H 314.436 -1.00554 -4.27534 0
M  V30 3281 H 315.042 -2.46767 -3.4639 0
M  V30 3282 N 313.357 1.07166 -1.15556 0
M  V30 3283 C 314.582 1.84053 -0.955988 0
M  V30 3284 C 315.007 1.81586 0.490739 0
M  V30 3285 O 314.365 1.21018 1.34997 0
M  V30 3286 C 314.413 3.28957 -1.47714 0
M  V30 3287 O 313.517 4.06795 -0.677593 0
M  V30 3288 H 312.858 0.569842 -0.340847 0
M  V30 3289 H 315.388 1.35178 -1.53584 0
M  V30 3290 H 315.398 3.79788 -1.4908 0
M  V30 3291 H 314.073 3.30068 -2.53037 0
M  V30 3292 H 312.65 3.6561 -0.733721 0
M  V30 3293 N 314.835 0.952656 1.25548 0
M  V30 3294 C 316.083 0.605176 1.92826 0
M  V30 3295 C 316.404 -0.860261 1.74999 0
M  V30 3296 O 315.674 -1.6125 1.11244 0
M  V30 3297 H 314.254 0.220832 0.713612 0
M  V30 3298 H 316.916 1.21047 1.52754 0
M  V30 3299 H 316.012 0.832798 3.00784 0
M  V30 3300 N 316.313 -1.40141 0.720998 0
M  V30 3301 C 317.223 -2.34486 0.0731031 0
M  V30 3302 C 318.239 -1.57587 -0.737723 0
M  V30 3303 O 319.415 -1.89949 -0.669429 0
M  V30 3304 C 316.48 -3.36528 -0.833656 0
M  V30 3305 C 315.541 -4.29298 -0.0121673 0
M  V30 3306 C 314.774 -5.26466 -0.875742 0
M  V30 3307 O 314.997 -5.29745 -2.11485 0
M  V30 3308 O 313.931 -6.01092 -0.31185 0
M  V30 3309 H 317.757 -2.9152 0.851444 0
M  V30 3310 H 315.342 -1.41427 0.481527 0
M  V30 3311 H 317.224 -3.99093 -1.35289 0
M  V30 3312 H 315.899 -2.81899 -1.59105 0
M  V30 3313 H 314.806 -3.70001 0.552262 0
M  V30 3314 H 316.139 -4.87094 0.707129 0
M  V30 3315 N 317.792 -0.46758 -1.50504 0
M  V30 3316 C 318.724 0.364655 -2.26281 0
M  V30 3317 C 319.737 0.960151 -1.31472 0
M  V30 3318 O 320.926 0.849153 -1.57008 0
M  V30 3319 C 318.026 1.52509 -3.02645 0
M  V30 3320 C 317.199 1.04302 -4.24782 0
M  V30 3321 C 316.258 2.07709 -4.8347 0
M  V30 3322 O 315.284 1.65913 -5.44483 0
M  V30 3323 N 316.486 3.40485 -4.70159 0
M  V30 3324 H 319.251 -0.28495 -2.98342 0
M  V30 3325 H 316.812 -0.298163 -1.59131 0
M  V30 3326 H 318.804 2.21371 -3.38787 0
M  V30 3327 H 317.374 2.07945 -2.33404 0
M  V30 3328 H 316.594 0.180393 -3.93787 0
M  V30 3329 H 317.882 0.698798 -5.03978 0
M  V30 3330 H 317.28 3.77155 -4.21629 0
M  V30 3331 H 315.837 4.05156 -5.1058 0
M  V30 3332 N 319.27 1.56325 -0.20005 0
M  V30 3333 C 320.686 1.58839 0.155716 0
M  V30 3334 C 320.886 1.21636 1.60645 0
M  V30 3335 O 319.942 0.941437 2.34293 0
M  V30 3336 C 321.255 3.0032 -0.151124 0
M  V30 3337 C 322.803 3.12866 -0.0916284 0
M  V30 3338 C 323.278 4.56488 -0.371845 0
M  V30 3339 N 324.769 4.62089 -0.320641 0
M  V30 3340 C 325.504 5.71116 -0.511243 0
M  V30 3341 N 325 6.88592 -0.762461 0
M  V30 3342 N 326.793 5.60335 -0.445157 0
M  V30 3343 H 318.944 1.78788 -1.14668 0
M  V30 3344 H 321.207 0.829996 -0.458051 0
M  V30 3345 H 320.913 3.32117 -1.15721 0
M  V30 3346 H 320.787 3.73257 0.543986 0
M  V30 3347 H 323.174 2.80878 0.905065 0
M  V30 3348 H 323.255 2.42304 -0.81989 0
M  V30 3349 H 322.899 4.89189 -1.36588 0
M  V30 3350 H 322.829 5.25246 0.377362 0
M  V30 3351 H 325.32 3.77665 -0.13329 0
M  V30 3352 H 325.633 7.67581 -0.896576 0
M  V30 3353 H 323.978 6.90387 -0.799412 0
M  V30 3354 H 327.169 4.67436 -0.249278 0
M  V30 3355 H 327.342 6.45243 -0.597116 0
M  V30 3356 N 320.748 -0.0735177 1.57428 0
M  V30 3357 C 321.678 -1.0879 2.06608 0
M  V30 3358 C 322.659 -1.40473 0.959237 0
M  V30 3359 O 323.844 -1.5013 1.23185 0
M  V30 3360 C 320.974 -2.40183 2.50857 0
M  V30 3361 C 319.928 -2.22858 3.65402 0
M  V30 3362 C 319.254 -3.59619 3.957 0
M  V30 3363 C 320.554 -1.65123 4.95511 0
M  V30 3364 H 322.248 -0.678673 2.91607 0
M  V30 3365 H 319.794 -0.325013 1.40284 0
M  V30 3366 H 321.747 -3.11437 2.83874 0
M  V30 3367 H 320.471 -2.83083 1.62885 0
M  V30 3368 H 319.13 -1.54045 3.32664 0
M  V30 3369 H 318.778 -4.00086 3.04861 0
M  V30 3370 H 318.478 -3.48866 4.72828 0
M  V30 3371 H 320.002 -4.32306 4.31212 0
M  V30 3372 H 321.416 -2.26241 5.26771 0
M  V30 3373 H 319.813 -1.65071 5.7695 0
M  V30 3374 H 320.883 -0.612559 4.81015 0
M  V30 3375 N 322.226 -1.5378 -0.344866 0
M  V30 3376 C 323.451 -1.75211 -1.10977 0
M  V30 3377 C 323.876 -0.48936 -1.81623 0
M  V30 3378 O 323.234 0.557925 -1.72502 0
M  V30 3379 C 323.282 -2.93147 -2.09993 0
M  V30 3380 O 322.386 -2.63203 -3.17487 0
M  V30 3381 H 321.727 -0.581241 -0.321021 0
M  V30 3382 H 324.257 -2.00738 -0.395661 0
M  V30 3383 H 324.267 -3.19898 -2.53237 0
M  V30 3384 H 322.942 -3.84731 -1.5797 0
M  V30 3385 H 321.519 -2.47336 -2.79069 0
M  V30 3386 N 323.704 0.605807 -1.45491 0
M  V30 3387 C 324.952 1.36207 -1.49305 0
M  V30 3388 C 325.273 1.94519 -0.136863 0
M  V30 3389 O 324.543 1.77261 0.833983 0
M  V30 3390 H 323.123 0.50565 -0.549843 0
M  V30 3391 H 325.785 0.711239 -1.81459 0
M  V30 3392 H 324.881 2.18058 -2.23287 0
M  V30 3393 N 325.182 1.32811 0.848464 0
M  V30 3394 C 326.429 1.23724 1.60308 0
M  V30 3395 C 326.757 -0.1994 1.93475 0
M  V30 3396 O 326.012 -1.15406 1.5805 0
M  V30 3397 C 326.311 2.04831 2.92881 0
M  V30 3398 C 325.977 3.54125 2.79117 0
M  V30 3399 C 324.639 3.94829 2.7507 0
M  V30 3400 C 326.991 4.49036 2.64606 0
M  V30 3401 C 324.319 5.28675 2.544 0
M  V30 3402 C 326.671 5.83033 2.4547 0
M  V30 3403 C 325.335 6.22931 2.39819 0
M  V30 3404 H 324.605 0.452737 0.586609 0
M  V30 3405 H 327.252 1.64301 0.983743 0
M  V30 3406 H 325.557 1.57001 3.58968 0
M  V30 3407 H 327.254 1.95164 3.50303 0
M  V30 3408 H 323.844 3.21801 2.83094 0
M  V30 3409 H 328.028 4.18505 2.66772 0
M  V30 3410 H 323.284 5.58637 2.48465 0
M  V30 3411 H 327.458 6.56186 2.33222 0
M  V30 3412 H 325.085 7.26584 2.23562 0
M  V30 3413 N 326.66 -1.06551 1.16123 0
M  V30 3414 C 327.59 -2.15935 0.88851 0
M  V30 3415 C 328.571 -1.69306 -0.164135 0
M  V30 3416 O 329.756 -1.94193 -0.0167857 0
M  V30 3417 C 326.886 -3.45149 0.385942 0
M  V30 3418 C 325.84 -4.05271 1.3762 0
M  V30 3419 C 325.166 -5.29664 0.732137 0
M  V30 3420 C 326.466 -4.44355 2.74493 0
M  V30 3421 H 328.16 -2.39006 1.80323 0
M  V30 3422 H 325.706 -1.14866 0.868435 0
M  V30 3423 H 327.659 -4.21004 0.182647 0
M  V30 3424 H 326.383 -3.21689 -0.564274 0
M  V30 3425 H 325.042 -3.3147 1.56599 0
M  V30 3426 H 324.69 -5.02499 -0.224483 0
M  V30 3427 H 324.39 -5.70848 1.39307 0
M  V30 3428 H 325.914 -6.08218 0.538802 0
M  V30 3429 H 327.328 -5.11303 2.59311 0
M  V30 3430 H 325.725 -4.96515 3.37035 0
M  V30 3431 H 326.795 -3.55339 3.29943 0
M  V30 3432 N 328.138 -0.959301 -1.25041 0
M  V30 3433 C 329.068 -0.501388 -2.28053 0
M  V30 3434 C 330.049 0.454673 -1.63911 0
M  V30 3435 O 331.234 0.352618 -1.90972 0
M  V30 3436 C 328.364 0.217224 -3.4662 0
M  V30 3437 C 327.318 -0.654034 -4.22973 0
M  V30 3438 C 326.644 0.195589 -5.34342 0
M  V30 3439 C 327.944 -1.93447 -4.85155 0
M  V30 3440 H 329.638 -1.36238 -2.66608 0
M  V30 3441 H 327.184 -0.656534 -1.28163 0
M  V30 3442 H 329.137 0.548732 -4.17812 0
M  V30 3443 H 327.861 1.1125 -3.07068 0
M  V30 3444 H 326.52 -0.968693 -3.5357 0
M  V30 3445 H 326.168 1.09076 -4.91031 0
M  V30 3446 H 325.868 -0.384091 -5.86343 0
M  V30 3447 H 327.392 0.521958 -6.08365 0
M  V30 3448 H 328.806 -1.66908 -5.48466 0
M  V30 3449 H 327.203 -2.46018 -5.47353 0
M  V30 3450 H 328.273 -2.63466 -4.07079 0
M  V30 3451 N 329.616 1.39756 -0.72842 0
M  V30 3452 C 330.862 2.01425 -0.282761 0
M  V30 3453 C 331.217 1.56754 1.11561 0
M  V30 3454 O 330.51 0.783482 1.74849 0
M  V30 3455 C 330.704 3.56002 -0.315776 0
M  V30 3456 C 330.533 4.1568 -1.71582 0
M  V30 3457 C 329.303 4.48555 -2.32651 0
M  V30 3458 C 331.501 4.39667 -2.66829 0
M  V30 3459 N 329.483 4.93698 -3.64877 0
M  V30 3460 C 330.854 4.86942 -3.8378 0
M  V30 3461 C 332.909 4.21724 -2.64675 0
M  V30 3462 C 331.612 5.18158 -4.98904 0
M  V30 3463 C 333.638 4.54049 -3.78937 0
M  V30 3464 C 333 5.01525 -4.94623 0
M  V30 3465 H 329.099 0.76756 -0.149583 0
M  V30 3466 H 331.683 1.69784 -0.952976 0
M  V30 3467 H 329.854 3.87046 0.324057 0
M  V30 3468 H 331.586 4.0443 0.147808 0
M  V30 3469 H 328.341 4.36128 -1.84633 0
M  V30 3470 H 328.765 5.20635 -4.32744 0
M  V30 3471 H 333.407 3.84228 -1.76433 0
M  V30 3472 H 331.125 5.54562 -5.87781 0
M  V30 3473 H 334.711 4.41795 -3.78561 0
M  V30 3474 H 333.591 5.26065 -5.81572 0
M  V30 3475 N 331.094 0.475555 1.50254 0
M  V30 3476 C 332.026 -0.352649 2.26471 0
M  V30 3477 C 333.039 -0.953165 1.3198 0
M  V30 3478 O 334.228 -0.840815 1.57457 0
M  V30 3479 C 331.328 -1.50902 3.0345 0
M  V30 3480 C 330.501 -1.02047 4.25329 0
M  V30 3481 C 329.56 -2.05142 4.84565 0
M  V30 3482 O 328.586 -1.63023 5.45355 0
M  V30 3483 N 329.788 -3.37987 4.71959 0
M  V30 3484 H 332.553 0.300767 2.98187 0
M  V30 3485 H 330.114 0.306598 1.5897 0
M  V30 3486 H 332.106 -2.19572 3.39956 0
M  V30 3487 H 330.676 -2.06705 2.34504 0
M  V30 3488 H 329.896 -0.159507 3.93877 0
M  V30 3489 H 331.184 -0.672061 5.04342 0
M  V30 3490 H 330.582 -3.74913 4.23623 0
M  V30 3491 H 329.139 -4.02443 5.12721 0
M  V30 3492 N 332.573 -1.56217 0.208337 0
M  V30 3493 C 333.798 -2.02782 -0.435222 0
M  V30 3494 C 334.223 -1.08738 -1.53485 0
M  V30 3495 O 333.581 -0.0731855 -1.81152 0
M  V30 3496 C 333.629 -3.47687 -0.956335 0
M  V30 3497 O 332.733 -3.56773 -2.06849 0
M  V30 3498 H 332.074 -0.656403 -0.100158 0
M  V30 3499 H 334.604 -2.02033 0.3231 0
M  V30 3500 H 334.614 -3.87745 -1.26955 0
M  V30 3501 H 333.289 -4.15624 -0.15143 0
M  V30 3502 H 331.866 -3.28597 -1.76292 0
M  V30 3503 N 334.051 0.0651679 -1.57465 0
M  V30 3504 C 335.014 1.06117 -2.03155 0
M  V30 3505 C 336.014 1.31204 -0.929632 0
M  V30 3506 O 337.204 1.26813 -1.19432 0
M  V30 3507 C 334.336 2.4032 -2.41783 0
M  V30 3508 H 335.529 0.667231 -2.92383 0
M  V30 3509 H 333.082 0.311075 -1.53173 0
M  V30 3510 H 333.817 2.84532 -1.55601 0
M  V30 3511 H 333.602 2.23451 -3.22199 0
M  V30 3512 H 335.092 3.11898 -2.77685 0
M  V30 3513 N 335.529 1.53961 0.336706 0
M  V30 3514 C 336.759 1.75229 1.09446 0
M  V30 3515 C 337.167 0.494602 1.82621 0
M  V30 3516 O 336.51 -0.543764 1.75468 0
M  V30 3517 C 336.572 2.88288 2.1478 0
M  V30 3518 C 336.236 4.27656 1.6112 0
M  V30 3519 C 337.233 5.08981 1.0599 0
M  V30 3520 C 334.918 4.74161 1.6576 0
M  V30 3521 C 336.912 6.34916 0.562129 0
M  V30 3522 C 334.599 6.00067 1.15595 0
M  V30 3523 C 335.597 6.80278 0.609147 0
M  V30 3524 O 335.285 8.03818 0.114999 0
M  V30 3525 H 335.017 0.588881 0.331956 0
M  V30 3526 H 337.571 2.01614 0.392566 0
M  V30 3527 H 335.801 2.57443 2.88548 0
M  V30 3528 H 337.49 2.97461 2.76174 0
M  V30 3529 H 338.256 4.74213 1.01722 0
M  V30 3530 H 334.135 4.11781 2.07261 0
M  V30 3531 H 337.679 6.9747 0.134668 0
M  V30 3532 H 333.576 6.3433 1.19566 0
M  V30 3533 H 334.344 8.18172 0.231651 0
M  V30 3534 N 337.007 -0.598083 1.45811 0
M  V30 3535 C 338.232 -1.3881 1.54099 0
M  V30 3536 C 338.657 -1.8726 0.177578 0
M  V30 3537 O 338.015 -1.6069 -0.839541 0
M  V30 3538 C 338.063 -2.56217 2.53743 0
M  V30 3539 O 337.167 -3.5716 2.06182 0
M  V30 3540 H 336.508 -0.414024 0.519115 0
M  V30 3541 H 339.038 -0.726971 1.91249 0
M  V30 3542 H 339.048 -3.03337 2.72856 0
M  V30 3543 H 337.723 -2.20303 3.5276 0
M  V30 3544 H 336.3 -3.16624 1.96987 0
M  V30 3545 N 338.485 -1.33259 -0.841409 0
M  V30 3546 C 339.395 -1.25332 -1.98316 0
M  V30 3547 C 340.411 -0.164364 -1.73222 0
M  V30 3548 O 341.587 -0.387486 -1.97637 0
M  V30 3549 C 338.652 -0.990078 -3.32262 0
M  V30 3550 C 337.713 -2.16879 -3.70489 0
M  V30 3551 C 336.946 -1.91801 -4.98044 0
M  V30 3552 O 337.169 -0.867075 -5.63771 0
M  V30 3553 O 336.103 -2.78267 -5.33714 0
M  V30 3554 H 339.929 -2.21344 -2.07944 0
M  V30 3555 H 337.514 -1.1328 -0.974058 0
M  V30 3556 H 339.396 -0.860321 -4.12524 0
M  V30 3557 H 338.071 -0.0602155 -3.23644 0
M  V30 3558 H 336.978 -2.35407 -2.90748 0
M  V30 3559 H 338.311 -3.0819 -3.8377 0
M  V30 3560 N 339.963 1.05934 -1.16686 0
M  V30 3561 C 340.896 2.1295 -0.820225 0
M  V30 3562 C 341.874 1.61242 0.209722 0
M  V30 3563 O 343.058 1.88271 0.0929688 0
M  V30 3564 C 340.185 3.3797 -0.22223 0
M  V30 3565 C 339.231 4.08488 -1.22637 0
M  V30 3566 S 340.064 4.58015 -2.77457 0
M  V30 3567 C 341.22 5.86292 -2.19117 0
M  V30 3568 H 341.453 2.42025 -1.72659 0
M  V30 3569 H 338.986 1.18423 -0.990722 0
M  V30 3570 H 340.944 4.10335 0.116322 0
M  V30 3571 H 339.605 3.07045 0.66196 0
M  V30 3572 H 338.798 4.98291 -0.756455 0
M  V30 3573 H 338.4 3.42154 -1.51019 0
M  V30 3574 H 340.692 6.59246 -1.56209 0
M  V30 3575 H 341.635 6.38019 -3.07144 0
M  V30 3576 H 342.043 5.40497 -1.62858 0
M  V30 3577 N 341.441 0.965919 1.2453 0
M  V30 3578 C 342.687 0.637349 1.93156 0
M  V30 3579 C 343.042 -0.818261 1.74133 0
M  V30 3580 O 342.335 -1.58079 1.08266 0
M  V30 3581 C 342.529 0.945428 3.44669 0
M  V30 3582 C 342.358 2.42944 3.78429 0
M  V30 3583 C 341.128 3.08895 3.9989 0
M  V30 3584 C 343.326 3.40941 3.8505 0
M  V30 3585 N 341.308 4.47052 4.20735 0
M  V30 3586 C 342.679 4.64448 4.10717 0
M  V30 3587 C 344.734 3.35624 3.67779 0
M  V30 3588 C 343.437 5.83292 4.20907 0
M  V30 3589 C 345.463 4.53818 3.79214 0
M  V30 3590 C 344.825 5.76114 4.05304 0
M  V30 3591 H 340.924 0.284034 0.728594 0
M  V30 3592 H 343.508 1.24041 1.50073 0
M  V30 3593 H 341.679 0.371193 3.86622 0
M  V30 3594 H 343.411 0.575613 4.00586 0
M  V30 3595 H 340.166 2.59432 3.96222 0
M  V30 3596 H 340.59 5.18634 4.35141 0
M  V30 3597 H 345.232 2.4211 3.46616 0
M  V30 3598 H 342.95 6.77236 4.40883 0
M  V30 3599 H 346.536 4.51263 3.67224 0
M  V30 3600 H 345.416 6.66045 4.13949 0
M  V30 3601 N 342.919 -1.39368 0.735821 0
M  V30 3602 C 344.166 -2.00497 0.284123 0
M  V30 3603 C 344.494 -1.58387 -1.12889 0
M  V30 3604 O 343.749 -0.804359 -1.78406 0
M  V30 3605 C 344.048 -3.5583 0.334651 0
M  V30 3606 C 343.714 -4.17593 1.7008 0
M  V30 3607 C 342.376 -4.34176 2.07472 0
M  V30 3608 C 344.728 -4.51848 2.59775 0
M  V30 3609 C 342.056 -4.82304 3.34065 0
M  V30 3610 C 344.408 -5.01384 3.85741 0
M  V30 3611 C 343.072 -5.16175 4.23225 0
M  V30 3612 H 342.342 -0.73367 0.103968 0
M  V30 3613 H 344.989 -1.66683 0.942825 0
M  V30 3614 H 343.294 -3.89674 -0.407625 0
M  V30 3615 H 344.991 -4.00986 -0.0329927 0
M  V30 3616 H 341.581 -4.05087 1.40008 0
M  V30 3617 H 345.765 -4.38653 2.32157 0
M  V30 3618 H 341.021 -4.91941 3.63049 0
M  V30 3619 H 345.195 -5.26863 4.55399 0
M  V30 3620 H 342.822 -5.5323 5.21384 0
M  V30 3621 N 344.397 -0.483516 -1.5 0
M  V30 3622 C 345.625 0.0644831 -2.06799 0
M  V30 3623 C 346.04 1.32399 -1.34596 0
M  V30 3624 O 345.397 1.77626 -0.418946 0
M  V30 3625 C 345.448 0.339927 -3.59898 0
M  V30 3626 O 345.169 -0.869635 -4.29382 0
M  V30 3627 C 346.67 0.933515 -4.33359 0
M  V30 3628 H 343.89 -0.0126333 -0.670881 0
M  V30 3629 H 346.434 -0.675864 -1.93009 0
M  V30 3630 H 344.589 1.03022 -3.7345 0
M  V30 3631 H 345.003 -0.62179 -5.20801 0
M  V30 3632 H 346.477 1.07593 -5.41413 0
M  V30 3633 H 346.954 1.92685 -3.94676 0
M  V30 3634 H 347.56 0.281221 -4.24369 0
M  V30 3635 N 345.875 1.56104 -0.216619 0
M  V30 3636 C 346.785 2.23694 0.706982 0
M  V30 3637 C 347.801 1.24295 1.21765 0
M  V30 3638 O 348.977 1.57094 1.2603 0
M  V30 3639 C 346.042 2.8998 1.90033 0
M  V30 3640 C 345.103 4.04708 1.43213 0
M  V30 3641 C 344.336 4.67824 2.56859 0
M  V30 3642 O 344.559 4.29913 3.74874 0
M  V30 3643 O 343.493 5.56905 2.28343 0
M  V30 3644 H 347.319 3.03272 0.161235 0
M  V30 3645 H 344.904 1.49394 0.0136177 0
M  V30 3646 H 346.786 3.31837 2.59735 0
M  V30 3647 H 345.461 2.13365 2.43428 0
M  V30 3648 H 344.368 3.6743 0.70327 0
M  V30 3649 H 345.701 4.83051 0.944615 0
M  V30 3650 N 347.353 -0.0568162 1.57498 0
M  V30 3651 C 348.316 -1.05038 2.03715 0
M  V30 3652 C 349.316 -1.30709 0.936577 0
M  V30 3653 O 350.506 -1.26178 1.20103 0
M  V30 3654 C 347.638 -2.39034 2.43055 0
M  V30 3655 H 348.831 -0.651715 2.92733 0
M  V30 3656 H 346.384 -0.302947 1.53336 0
M  V30 3657 H 347.119 -2.83703 1.57108 0
M  V30 3658 H 346.904 -2.21739 3.2338 0
M  V30 3659 H 348.394 -3.10421 2.79336 0
M  V30 3660 N 348.832 -1.54138 -0.328536 0
M  V30 3661 C 349.782 -1.79557 -1.4051 0
M  V30 3662 C 350.766 -0.651373 -1.47126 0
M  V30 3663 O 351.958 -0.911226 -1.51742 0
M  V30 3664 C 349.087 -2.02196 -2.77438 0
M  V30 3665 C 348.173 -3.22724 -2.75155 0
M  V30 3666 N 348.564 -4.43881 -2.42494 0
M  V30 3667 C 346.862 -3.24196 -3.06289 0
M  V30 3668 C 347.563 -5.25797 -2.48822 0
M  V30 3669 N 346.539 -4.62862 -2.8506 0
M  V30 3670 H 350.341 -2.70814 -1.1418 0
M  V30 3671 H 347.855 -1.53265 -0.536991 0
M  V30 3672 H 349.852 -2.18546 -3.55026 0
M  V30 3673 H 348.512 -1.12191 -3.04702 0
M  V30 3674 H 349.523 -4.70969 -2.15428 0
M  V30 3675 H 346.2 -2.44208 -3.38627 0
M  V30 3676 H 347.59 -6.32535 -2.26603 0
M  V30 3677 N 350.31 0.590341 -1.46126 0
M  V30 3678 C 351.556 1.34874 -1.52252 0
M  V30 3679 C 351.911 1.91658 -0.168807 0
M  V30 3680 O 351.204 1.73093 0.821556 0
M  V30 3681 C 351.398 2.5032 -2.55097 0
M  V30 3682 C 351.227 2.04843 -4.00337 0
M  V30 3683 C 349.997 1.90213 -4.68132 0
M  V30 3684 C 352.195 1.61267 -4.88362 0
M  V30 3685 N 350.177 1.38727 -5.9802 0
M  V30 3686 C 351.548 1.21319 -6.08015 0
M  V30 3687 C 353.603 1.49015 -4.75078 0
M  V30 3688 C 352.306 0.7034 -7.15852 0
M  V30 3689 C 354.332 0.994401 -5.8298 0
M  V30 3690 C 353.694 0.604659 -7.018 0
M  V30 3691 H 349.793 0.486803 -0.612002 0
M  V30 3692 H 352.377 0.673007 -1.82698 0
M  V30 3693 H 350.548 3.15466 -2.26574 0
M  V30 3694 H 352.28 3.1725 -2.51266 0
M  V30 3695 H 349.035 2.11927 -4.23537 0
M  V30 3696 H 349.459 1.15168 -6.67132 0
M  V30 3697 H 354.101 1.77768 -3.83612 0
M  V30 3698 H 351.819 0.403446 -8.07092 0
M  V30 3699 H 355.405 0.903621 -5.7474 0
M  V30 3700 H 354.285 0.226963 -7.83871 0
M  V30 3701 N 351.788 1.33704 0.83433 0
M  V30 3702 C 353.199 1.22813 1.4062 0
M  V30 3703 C 353.55 -0.151107 1.95617 0
M  V30 3704 O 352.675 -1.05092 1.89168 0
M  V30 3705 C 353.27 2.22355 2.55624 0
M  V30 3706 C 351.829 2.1529 3.08751 0
M  V30 3707 C 350.976 2.09589 1.8157 0
M  V30 3708 H 353.927 1.45236 0.639702 0
M  V30 3709 H 353.948 1.83391 3.33389 0
M  V30 3710 H 353.46 3.22728 2.15566 0
M  V30 3711 H 351.561 1.18235 3.53343 0
M  V30 3712 H 351.674 3.06038 3.68616 0
M  V30 3713 H 350.038 1.55134 2.02004 0
M  V30 3714 H 350.821 3.11777 1.43701 0
M  V30 3715 N 353.266 -1.05314 1.17247 0
M  V30 3716 C 354.229 -2.112 0.890357 0
M  V30 3717 C 355.229 -1.60359 -0.118943 0
M  V30 3718 O 356.419 -1.73833 0.113086 0
M  V30 3719 C 353.551 -3.39266 0.333422 0
M  V30 3720 H 354.744 -2.37659 1.82916 0
M  V30 3721 H 352.297 -1.21538 0.982758 0
M  V30 3722 H 353.032 -3.18462 -0.612587 0
M  V30 3723 H 352.817 -3.77477 1.06082 0
M  V30 3724 H 354.307 -4.17315 0.154322 0
M  V30 3725 N 354.744 -0.972509 -1.24016 0
M  V30 3726 C 355.991 -0.637034 -1.92219 0
M  V30 3727 C 356.319 0.828418 -1.75976 0
M  V30 3728 O 355.574 1.61206 -1.10955 0
M  V30 3729 C 355.873 -0.963694 -3.44162 0
M  V30 3730 C 355.539 -2.41807 -3.80579 0
M  V30 3731 C 354.201 -2.81556 -3.9023 0
M  V30 3732 C 356.553 -3.36172 -3.98293 0
M  V30 3733 C 353.881 -4.14702 -4.15017 0
M  V30 3734 C 356.233 -4.68952 -4.24578 0
M  V30 3735 C 354.897 -5.08472 -4.32449 0
M  V30 3736 H 354.167 -0.233107 -0.703379 0
M  V30 3737 H 356.814 -1.2249 -1.47202 0
M  V30 3738 H 355.119 -0.29365 -3.90698 0
M  V30 3739 H 356.816 -0.682449 -3.9515 0
M  V30 3740 H 353.406 -2.09988 -3.73635 0
M  V30 3741 H 357.59 -3.06644 -3.90234 0
M  V30 3742 H 352.846 -4.4494 -4.19331 0
M  V30 3743 H 357.02 -5.42037 -4.37229 0
M  V30 3744 H 354.647 -6.11665 -4.51409 0
M  V30 3745 N 356.222 1.38976 -0.743202 0
M  V30 3746 C 357.638 1.53984 -0.419664 0
M  V30 3747 C 357.838 1.70837 1.0685 0
M  V30 3748 O 356.894 1.7135 1.8546 0
M  V30 3749 C 358.207 2.75287 -1.20985 0
M  V30 3750 C 359.755 2.89129 -1.19889 0
M  V30 3751 C 360.23 4.13381 -1.97181 0
M  V30 3752 N 361.721 4.20437 -1.94389 0
M  V30 3753 C 362.456 5.15547 -2.50996 0
M  V30 3754 N 361.952 6.16395 -3.16274 0
M  V30 3755 N 363.745 5.07822 -2.40984 0
M  V30 3756 H 355.896 1.26285 -1.7078 0
M  V30 3757 H 358.159 0.612689 -0.723406 0
M  V30 3758 H 357.865 2.69204 -2.26323 0
M  V30 3759 H 357.739 3.68184 -0.819759 0
M  V30 3760 H 360.126 2.947 -0.153606 0
M  V30 3761 H 360.207 1.97272 -1.62841 0
M  V30 3762 H 359.851 4.08572 -3.01714 0
M  V30 3763 H 359.781 5.04298 -1.51629 0
M  V30 3764 H 362.272 3.48205 -1.46839 0
M  V30 3765 H 362.585 6.85443 -3.56915 0
M  V30 3766 H 360.93 6.16758 -3.20367 0
M  V30 3767 H 364.121 4.27973 -1.89622 0
M  V30 3768 H 364.294 5.81767 -2.85397 0
M  V30 3769 N 357.7 0.491464 1.49741 0
M  V30 3770 C 358.65 -0.311086 2.25868 0
M  V30 3771 C 359.634 -0.943857 1.30308 0
M  V30 3772 O 360.826 -0.853035 1.55088 0
M  V30 3773 C 357.955 -1.38059 3.14316 0
M  V30 3774 C 357.041 -0.754541 4.17334 0
M  V30 3775 N 357.432 0.137216 5.05614 0
M  V30 3776 C 355.73 -1.01621 4.34269 0
M  V30 3777 C 356.431 0.494614 5.79593 0
M  V30 3778 N 355.407 -0.135169 5.43432 0
M  V30 3779 H 359.209 0.37555 2.91491 0
M  V30 3780 H 356.723 0.306917 1.59473 0
M  V30 3781 H 358.72 -1.96891 3.67477 0
M  V30 3782 H 357.38 -2.06901 2.50244 0
M  V30 3783 H 358.391 0.50741 5.15408 0
M  V30 3784 H 355.068 -1.69808 3.81407 0
M  V30 3785 H 356.458 1.2236 6.60665 0
M  V30 3786 N 359.178 -1.55987 0.224894 0
M  V30 3787 C 360.424 -1.98684 -0.406502 0
M  V30 3788 C 360.757 -1.11248 -1.59177 0
M  V30 3789 O 360.032 -0.170909 -1.93748 0
M  V30 3790 C 360.315 -3.50218 -0.837808 0
M  V30 3791 C 360.168 -4.48426 0.351332 0
M  V30 3792 C 361.487 -4.06243 -1.69278 0
M  V30 3793 H 358.606 -0.722337 -0.146283 0
M  V30 3794 H 361.248 -1.87255 0.321799 0
M  V30 3795 H 359.398 -3.60089 -1.45837 0
M  V30 3796 H 361.07 -4.50562 0.989526 0
M  V30 3797 H 359.313 -4.22159 0.998207 0
M  V30 3798 H 359.984 -5.52 0.00655905 0
M  V30 3799 H 362.46 -3.99337 -1.16914 0
M  V30 3800 H 361.336 -5.12581 -1.96346 0
M  V30 3801 H 361.597 -3.53332 -2.65723 0
M  V30 3802 N 360.656 0.0484629 -1.57525 0
M  V30 3803 C 361.933 0.777447 -1.79486 0
M  V30 3804 C 362.313 1.94597 -0.818251 0
M  V30 3805 O 361.661 2.28047 0.143767 0
M  V30 3806 C 361.871 1.22864 -3.26658 0
M  V30 3807 C 363.219 1.65251 -3.91123 0
M  V30 3808 O 364.243 1.32372 -3.3069 0
M  V30 3809 O 363.102 2.26207 -4.97486 0
M  V30 3810 H 360.196 0.374357 -0.737419 0
M  V30 3811 H 362.742 0.0267359 -1.69679 0
M  V30 3812 H 361.514 0.393589 -3.89316 0
M  V30 3813 H 361.137 2.03996 -3.41279 0
M  V30 3814 N 362.134 1.5431 0.320358 0
M  V30 3815 C 363.381 1.72668 1.05792 0
M  V30 3816 C 363.709 0.502084 1.87908 0
M  V30 3817 O 362.964 -0.516149 1.88771 0
M  V30 3818 C 363.263 2.95639 2.00828 0
M  V30 3819 C 362.929 4.30265 1.34843 0
M  V30 3820 C 361.591 4.66865 1.16578 0
M  V30 3821 C 363.943 5.13801 0.875095 0
M  V30 3822 C 361.271 5.84597 0.496336 0
M  V30 3823 C 363.623 6.32219 0.219463 0
M  V30 3824 C 362.287 6.67495 0.0246915 0
M  V30 3825 H 361.557 0.631837 0.387121 0
M  V30 3826 H 364.204 1.88552 0.334735 0
M  V30 3827 H 362.509 2.74456 2.79609 0
M  V30 3828 H 364.206 3.07038 2.57932 0
M  V30 3829 H 360.796 4.01472 1.50061 0
M  V30 3830 H 364.98 4.86039 1.00398 0
M  V30 3831 H 360.236 6.10486 0.334264 0
M  V30 3832 H 364.41 6.96227 -0.155291 0
M  V30 3833 H 362.037 7.5858 -0.496065 0
M  V30 3834 N 363.613 -0.582584 1.46437 0
M  V30 3835 C 364.543 -1.70187 1.59871 0
M  V30 3836 C 365.524 -1.64066 0.449042 0
M  V30 3837 O 366.709 -1.82081 0.6753 0
M  V30 3838 C 363.839 -3.08827 1.58881 0
M  V30 3839 C 362.793 -3.29779 2.72819 0
M  V30 3840 C 362.119 -4.68947 2.5689 0
M  V30 3841 C 363.419 -3.17601 4.1464 0
M  V30 3842 H 365.113 -1.592 2.53566 0
M  V30 3843 H 362.659 -0.764472 1.22032 0
M  V30 3844 H 364.612 -3.86951 1.66873 0
M  V30 3845 H 363.336 -3.20713 0.617306 0
M  V30 3846 H 361.995 -2.54054 2.64296 0
M  V30 3847 H 361.643 -4.77599 1.57823 0
M  V30 3848 H 361.343 -4.83919 3.33312 0
M  V30 3849 H 362.867 -5.4924 2.66773 0
M  V30 3850 H 364.281 -3.8557 4.24274 0
M  V30 3851 H 362.678 -3.44094 4.9165 0
M  V30 3852 H 363.748 -2.14681 4.34788 0
M  V30 3853 N 365.091 -1.34144 -0.827227 0
M  V30 3854 C 366.507 -1.13732 -1.11969 0
M  V30 3855 C 366.707 0.0640463 -2.01398 0
M  V30 3856 O 365.763 0.740856 -2.41387 0
M  V30 3857 C 367.076 -2.43047 -1.77055 0
M  V30 3858 C 368.624 -2.49063 -1.89569 0
M  V30 3859 C 369.099 -3.78369 -2.58072 0
M  V30 3860 N 370.59 -3.79505 -2.65575 0
M  V30 3861 C 371.325 -4.76274 -3.19297 0
M  V30 3862 N 370.821 -5.83424 -3.73616 0
M  V30 3863 N 372.614 -4.63735 -3.17658 0
M  V30 3864 H 364.765 -2.11126 -0.232296 0
M  V30 3865 H 367.028 -0.933424 -0.165602 0
M  V30 3866 H 366.734 -3.31025 -1.18807 0
M  V30 3867 H 366.608 -2.56066 -2.76966 0
M  V30 3868 H 368.995 -1.61527 -2.46968 0
M  V30 3869 H 369.076 -2.39975 -0.885745 0
M  V30 3870 H 368.72 -4.66293 -2.01329 0
M  V30 3871 H 368.65 -3.84737 -3.59562 0
M  V30 3872 H 371.141 -3.02074 -2.27068 0
M  V30 3873 H 371.454 -6.53282 -4.12846 0
M  V30 3874 H 369.799 -5.87143 -3.71871 0
M  V30 3875 H 372.99 -3.79177 -2.74486 0
M  V30 3876 H 373.163 -5.39318 -3.59221 0
M  V30 3877 N 366.569 1.04691 -1.17803 0
M  V30 3878 C 367.532 2.10724 -0.901545 0
M  V30 3879 C 368.532 1.6042 0.110437 0
M  V30 3880 O 369.722 1.7377 -0.122303 0
M  V30 3881 C 366.854 3.39084 -0.351409 0
M  V30 3882 H 368.047 2.36686 -1.84174 0
M  V30 3883 H 365.6 1.21015 -0.98919 0
M  V30 3884 H 366.335 3.18782 0.59569 0
M  V30 3885 H 366.12 3.76909 -1.08083 0
M  V30 3886 H 367.61 4.17227 -0.176451 0
M  V30 3887 N 368.047 0.979072 1.23499 0
M  V30 3888 C 368.977 0.537606 2.27227 0
M  V30 3889 C 369.958 -0.428539 1.64613 0
M  V30 3890 O 371.143 -0.322191 1.91509 0
M  V30 3891 C 368.273 -0.162052 3.46922 0
M  V30 3892 C 367.227 0.721242 4.21879 0
M  V30 3893 C 366.553 -0.110555 5.34586 0
M  V30 3894 C 367.853 2.01141 4.82016 0
M  V30 3895 H 369.547 1.40462 2.64406 0
M  V30 3896 H 367.093 0.67684 1.27102 0
M  V30 3897 H 369.046 -0.482192 4.18632 0
M  V30 3898 H 367.77 -1.06351 3.08799 0
M  V30 3899 H 366.429 1.02482 3.51984 0
M  V30 3900 H 366.077 -1.0125 4.92704 0
M  V30 3901 H 365.777 0.477325 5.85658 0
M  V30 3902 H 367.301 -0.425107 6.09118 0
M  V30 3903 H 368.715 1.75612 5.45741 0
M  V30 3904 H 367.112 2.54695 5.43369 0
M  V30 3905 H 368.182 2.69909 4.02836 0
M  V30 3906 N 369.525 -1.3858 0.750561 0
M  V30 3907 C 370.941 -1.53759 0.427824 0
M  V30 3908 C 371.141 -1.71401 -1.05943 0
M  V30 3909 O 370.197 -1.72331 -1.84549 0
M  V30 3910 C 371.51 -2.74642 1.22443 0
M  V30 3911 C 373.058 -2.88489 1.2142 0
M  V30 3912 C 373.533 -4.12329 1.9937 0
M  V30 3913 N 375.024 -4.194 1.96616 0
M  V30 3914 C 375.759 -5.14209 2.53727 0
M  V30 3915 N 375.255 -6.14709 3.19539 0
M  V30 3916 N 377.048 -5.06537 2.43673 0
M  V30 3917 H 369.199 -1.25377 1.71447 0
M  V30 3918 H 371.462 -0.608844 0.726645 0
M  V30 3919 H 371.168 -2.68 2.27747 0
M  V30 3920 H 371.042 -3.67745 0.839273 0
M  V30 3921 H 373.429 -2.94614 0.169232 0
M  V30 3922 H 373.51 -1.96406 1.63885 0
M  V30 3923 H 373.154 -4.06966 3.03877 0
M  V30 3924 H 373.084 -5.03486 1.54302 0
M  V30 3925 H 375.575 -3.47421 1.48684 0
M  V30 3926 H 375.888 -6.8354 3.60545 0
M  V30 3927 H 374.233 -6.1505 3.23633 0
M  V30 3928 H 377.424 -4.26962 1.91889 0
M  V30 3929 H 377.597 -5.80245 2.88479 0
M  V30 3930 N 371.003 -0.499398 -1.49478 0
M  V30 3931 C 372.28 0.108629 -1.95298 0
M  V30 3932 C 372.66 1.54282 -1.44084 0
M  V30 3933 O 372.008 2.18944 -0.653908 0
M  V30 3934 C 372.218 0.0229111 -3.48992 0
M  V30 3935 C 373.566 0.197643 -4.2414 0
M  V30 3936 O 374.59 0.0981735 -3.56065 0
M  V30 3937 O 373.449 0.401669 -5.45022 0
M  V30 3938 H 370.543 0.096181 -0.821388 0
M  V30 3939 H 373.089 -0.561822 -1.6013 0
M  V30 3940 H 371.861 -0.977321 -3.78899 0
M  V30 3941 H 371.484 0.733579 -3.90774 0
M  V30 3942 N 372.481 1.55866 -0.233164 0
M  V30 3943 C 373.711 2.02704 0.399325 0
M  V30 3944 C 374.119 1.11204 1.53069 0
M  V30 3945 O 373.462 0.116182 1.83332 0
M  V30 3946 C 373.524 3.45844 0.981429 0
M  V30 3947 C 373.188 4.56997 -0.0159561 0
M  V30 3948 C 374.185 5.13384 -0.820552 0
M  V30 3949 C 371.87 5.0211 -0.138072 0
M  V30 3950 C 373.864 6.13365 -1.73386 0
M  V30 3951 C 371.551 6.01926 -1.0549 0
M  V30 3952 C 372.549 6.57431 -1.85132 0
M  V30 3953 O 372.237 7.55302 -2.75272 0
M  V30 3954 H 371.969 0.668459 0.100692 0
M  V30 3955 H 374.523 2.02387 -0.35052 0
M  V30 3956 H 372.753 3.43267 1.78058 0
M  V30 3957 H 374.442 3.76262 1.52255 0
M  V30 3958 H 375.208 4.79372 -0.736721 0
M  V30 3959 H 371.087 4.5858 0.471737 0
M  V30 3960 H 374.631 6.56614 -2.35592 0
M  V30 3961 H 370.528 6.35359 -1.1397 0
M  V30 3962 H 371.296 7.72867 -2.69477 0
M  V30 3963 N 373.959 -0.0401083 1.57549 0
M  V30 3964 C 375.184 -0.748931 1.93406 0
M  V30 3965 C 375.609 -1.68686 0.832274 0
M  V30 3966 O 374.967 -1.80047 -0.212818 0
M  V30 3967 C 375.015 -1.4916 3.28304 0
M  V30 3968 O 374.119 -2.6042 3.19774 0
M  V30 3969 H 373.46 -0.202212 0.63246 0
M  V30 3970 H 375.99 0.00112086 2.046 0
M  V30 3971 H 376 -1.86395 3.62934 0
M  V30 3972 H 374.675 -0.80364 4.08062 0
M  V30 3973 H 373.252 -2.25808 2.96758 0
M  V30 3974 N 375.437 -1.54477 -0.31217 0
M  V30 3975 C 376.4 -1.83923 -1.36766 0
M  V30 3976 C 377.4 -0.711563 -1.44199 0
M  V30 3977 O 378.59 -0.979866 -1.44029 0
M  V30 3978 C 375.722 -2.0095 -2.75376 0
M  V30 3979 H 376.915 -2.78239 -1.11906 0
M  V30 3980 H 374.468 -1.46369 -0.548257 0
M  V30 3981 H 375.203 -1.08883 -3.05475 0
M  V30 3982 H 374.988 -2.83018 -2.71373 0
M  V30 3983 H 376.478 -2.2514 -3.51713 0
M  V30 3984 N 376.915 0.57481 -1.46744 0
M  V30 3985 C 378.331 0.898981 -1.31873 0
M  V30 3986 C 378.531 1.99313 -0.29605 0
M  V30 3987 O 377.587 2.50728 0.298621 0
M  V30 3988 C 378.9 1.30886 -2.7072 0
M  V30 3989 C 380.448 1.42127 -2.78871 0
M  V30 3990 C 380.923 1.86478 -4.18318 0
M  V30 3991 N 382.414 1.93658 -4.20774 0
M  V30 3992 C 383.149 2.29267 -5.2557 0
M  V30 3993 N 382.645 2.63612 -6.40688 0
M  V30 3994 N 384.438 2.29889 -5.1294 0
M  V30 3995 H 376.589 -0.147839 -2.11885 0
M  V30 3996 H 378.852 -0.00347013 -0.947994 0
M  V30 3997 H 378.558 0.578853 -3.46904 0
M  V30 3998 H 378.432 2.26874 -3.01343 0
M  V30 3999 H 380.819 2.14213 -2.0297 0
M  V30 4000 H 380.9 0.443705 -2.51922 0
M  V30 4001 H 380.544 1.14968 -4.94717 0
M  V30 4002 H 380.474 2.85207 -4.42679 0
M  V30 4003 H 382.965 1.69574 -3.37718 0
M  V30 4004 H 383.278 2.89759 -7.16421 0
M  V30 4005 H 381.623 2.61232 -6.44036 0
M  V30 4006 H 384.814 2.02485 -4.22039 0
M  V30 4007 H 384.987 2.57312 -5.94722 0
M  V30 4008 N 378.394 1.34581 0.820102 0
M  V30 4009 C 379.344 1.22943 1.92013 0
M  V30 4010 C 380.328 0.127802 1.60392 0
M  V30 4011 O 381.52 0.357737 1.73347 0
M  V30 4012 C 378.649 0.989938 3.28717 0
M  V30 4013 C 377.735 2.13486 3.66449 0
M  V30 4014 N 378.126 3.38625 3.75722 0
M  V30 4015 C 376.424 2.04573 3.96315 0
M  V30 4016 C 377.125 4.13832 4.08801 0
M  V30 4017 N 376.101 3.42451 4.22171 0
M  V30 4018 H 379.903 2.17771 1.97365 0
M  V30 4019 H 377.417 1.2686 1.01392 0
M  V30 4020 H 379.414 0.887462 4.07345 0
M  V30 4021 H 378.074 0.0503691 3.24661 0
M  V30 4022 H 379.085 3.73143 3.59144 0
M  V30 4023 H 375.762 1.1839 4.00362 0
M  V30 4024 H 377.152 5.21909 4.23156 0
M  V30 4025 N 379.872 -1.04064 1.18357 0
M  V30 4026 C 381.288 -1.2947 0.933258 0
M  V30 4027 C 381.488 -1.97466 -0.401169 0
M  V30 4028 O 380.544 -2.25528 -1.13549 0
M  V30 4029 C 381.857 -2.15337 2.09882 0
M  V30 4030 C 383.405 -2.28683 2.13712 0
M  V30 4031 C 383.88 -3.17917 3.29686 0
M  V30 4032 N 385.371 -3.25504 3.29547 0
M  V30 4033 C 386.106 -3.94706 4.15926 0
M  V30 4034 N 385.602 -4.66239 5.12439 0
M  V30 4035 N 387.395 -3.90986 4.0384 0
M  V30 4036 H 379.546 -0.583359 2.04232 0
M  V30 4037 H 381.809 -0.319921 0.892387 0
M  V30 4038 H 381.515 -1.72682 3.06389 0
M  V30 4039 H 381.389 -3.16015 2.05947 0
M  V30 4040 H 383.776 -2.70575 1.17784 0
M  V30 4041 H 383.857 -1.27596 2.21705 0
M  V30 4042 H 383.501 -2.76736 4.25887 0
M  V30 4043 H 383.431 -4.19036 3.1893 0
M  V30 4044 H 385.922 -2.74547 2.59677 0
M  V30 4045 H 386.235 -5.16638 5.74722 0
M  V30 4046 H 384.58 -4.65143 5.16398 0
M  V30 4047 H 387.771 -3.34234 3.27727 0
M  V30 4048 H 387.944 -4.44646 4.71375 0
M  V30 4049 N 381.35 -0.985608 -1.22978 0
M  V30 4050 C 382.575 -0.675254 -1.961 0
M  V30 4051 C 383 0.752154 -1.72407 0
M  V30 4052 O 382.358 1.5131 -0.998751 0
M  V30 4053 C 382.406 -0.977899 -3.47087 0
M  V30 4054 O 381.51 -0.072685 -4.12336 0
M  V30 4055 H 380.851 -0.253443 -0.613728 0
M  V30 4056 H 383.381 -1.32061 -1.56272 0
M  V30 4057 H 383.391 -0.916739 -3.97567 0
M  V30 4058 H 382.066 -2.01807 -3.63657 0
M  V30 4059 H 380.643 -0.188703 -3.72422 0
M  V30 4060 N 382.828 1.3818 -0.7579 0
M  V30 4061 C 384.058 2.04004 -0.326463 0
M  V30 4062 C 384.466 1.57286 1.05156 0
M  V30 4063 O 383.809 0.743144 1.67997 0
M  V30 4064 C 383.871 3.58444 -0.275402 0
M  V30 4065 C 383.535 4.28237 -1.59569 0
M  V30 4066 C 384.532 4.53312 -2.54566 0
M  V30 4067 C 382.217 4.66341 -1.86631 0
M  V30 4068 C 384.211 5.15531 -3.74842 0
M  V30 4069 C 381.898 5.28283 -3.0718 0
M  V30 4070 C 382.896 5.52814 -4.01106 0
M  V30 4071 O 382.584 6.13465 -5.19534 0
M  V30 4072 H 382.316 0.662026 -0.136739 0
M  V30 4073 H 384.87 1.7777 -1.02893 0
M  V30 4074 H 383.1 3.83667 0.483337 0
M  V30 4075 H 384.789 4.05701 0.127099 0
M  V30 4076 H 385.555 4.24299 -2.34936 0
M  V30 4077 H 381.434 4.46591 -1.14358 0
M  V30 4078 H 384.978 5.34594 -4.48168 0
M  V30 4079 H 380.875 5.56719 -3.26702 0
M  V30 4080 H 381.643 6.31951 -5.20173 0
M  V30 4081 N 384.306 0.507319 1.49211 0
M  V30 4082 C 385.554 -0.0348839 2.0207 0
M  V30 4083 C 385.875 -1.36898 1.38866 0
M  V30 4084 O 385.145 -1.88133 0.546151 0
M  V30 4085 H 383.725 -0.0158812 0.746831 0
M  V30 4086 H 386.387 0.665998 1.83168 0
M  V30 4087 H 385.483 -0.159917 3.1169 0
M  V30 4088 N 385.784 -1.5574 0.241426 0
M  V30 4089 C 387.2 -1.59196 -0.113548 0
M  V30 4090 C 387.4 -1.25852 -1.57364 0
M  V30 4091 O 386.456 -1.00322 -2.31715 0
M  V30 4092 C 387.769 -2.99814 0.230695 0
M  V30 4093 C 389.317 -3.12513 0.174547 0
M  V30 4094 C 389.792 -4.55342 0.492744 0
M  V30 4095 N 391.283 -4.61076 0.443043 0
M  V30 4096 C 392.018 -5.6956 0.662484 0
M  V30 4097 N 391.514 -6.86328 0.944761 0
M  V30 4098 N 393.307 -5.58957 0.593564 0
M  V30 4099 H 385.458 -1.75685 1.19368 0
M  V30 4100 H 387.721 -0.81756 0.479896 0
M  V30 4101 H 387.427 -3.28932 1.24485 0
M  V30 4102 H 387.301 -3.74568 -0.444833 0
M  V30 4103 H 389.688 -2.83179 -0.830277 0
M  V30 4104 H 389.769 -2.40045 0.883845 0
M  V30 4105 H 389.413 -4.85396 1.4951 0
M  V30 4106 H 389.343 -5.26062 -0.23797 0
M  V30 4107 H 391.834 -3.77179 0.233374 0
M  V30 4108 H 392.147 -7.64935 1.09977 0
M  V30 4109 H 390.492 -6.88025 0.982175 0
M  V30 4110 H 393.683 -4.66611 0.373123 0
M  V30 4111 H 393.856 -6.43433 0.767981 0
M  V30 4112 O 387.301 -0.105854 -1.61153 0
M  V30 4113 H 387.992 0.494986 -1.87269 0
M  V30 END ATOM
M  V30 BEGIN BOND
M  V30 END BOND
M  V30 END CTAB
M  END
$$$$
