drugbank_drug|DB00017 DB00017 sequence
 OpenBabel12092119123D

482485  0  0  0  0  0  0  0  0999 V2000
   -0.9080    1.9825   -0.1171 H   0  0  0  0  0 15  0  0  0  0  0  0
    0.0000    1.5760    0.0000 N   0  0  0  0  0 15  0  0  0  0  0  0
    1.2400    1.9242    0.6894 C   0  0  0  0  0 15  0  0  0  0  0  0
    1.6040    0.8743    1.7094 C   0  0  0  0  0 15  0  0  0  0  0  0
    2.8050    1.1078    2.4491 O   0  0  0  0  0 15  0  0  0  0  0  0
    1.0760    3.3230    1.3157 C   0  0  0  0  0 15  0  0  0  0  0  0
    2.6350    3.8901    2.0302 S   0  0  0  0  0 15  0  0  0  0  0  0
   -0.5470    0.6736    0.2277 H   0  0  0  0  0 15  0  0  0  0  0  0
    2.0550    1.9542   -0.0567 H   0  0  0  0  0 15  0  0  0  0  0  0
    0.7590    4.0655    0.5605 H   0  0  0  0  0 15  0  0  0  0  0  0
    0.2900    3.3268    2.0997 H   0  0  0  0  0 15  0  0  0  0  0  0
    2.3050    3.7009    3.3053 H   0  0  0  0  0 15  0  0  0  0  0  0
    1.4781   -0.2728    1.5522 N   0  0  0  0  0 15  0  0  0  0  0  0
    2.7031   -1.0268    1.8020 C   0  0  0  0  0 15  0  0  0  0  0  0
    3.1281   -1.7914    0.5736 C   0  0  0  0  0 15  0  0  0  0  0  0
    2.4861   -1.7492   -0.4768 O   0  0  0  0  0 15  0  0  0  0  0  0
    2.5341   -1.9609    3.0262 C   0  0  0  0  0 15  0  0  0  0  0  0
    1.6381   -3.0486    2.7773 O   0  0  0  0  0 15  0  0  0  0  0  0
    0.9791   -0.2936    0.5956 H   0  0  0  0  0 15  0  0  0  0  0  0
    3.5091   -0.3016    2.0237 H   0  0  0  0  0 15  0  0  0  0  0  0
    3.5191   -2.3804    3.3136 H   0  0  0  0  0 15  0  0  0  0  0  0
    2.1941   -1.3985    3.9168 H   0  0  0  0  0 15  0  0  0  0  0  0
    0.7711   -2.6723    2.6008 H   0  0  0  0  0 15  0  0  0  0  0  0
    2.9562   -1.4816   -0.5373 N   0  0  0  0  0 15  0  0  0  0  0  0
    3.9042   -1.6257   -1.6635 C   0  0  0  0  0 15  0  0  0  0  0  0
    4.8982   -0.4924   -1.6209 C   0  0  0  0  0 15  0  0  0  0  0  0
    6.1042   -0.6708   -1.6703 O   0  0  0  0  0 15  0  0  0  0  0  0
    2.4792   -0.5120   -0.5508 H   0  0  0  0  0 15  0  0  0  0  0  0
    4.4502   -2.5718   -1.5134 H   0  0  0  0  0 15  0  0  0  0  0  0
    3.1992   -1.6758   -3.0465 C   0  0  0  0  0 15  0  0  0  0  0  0
    2.5222   -2.5415   -3.0862 H   0  0  0  0  0 15  0  0  0  0  0  0
    3.9622   -1.8171   -3.8309 H   0  0  0  0  0 15  0  0  0  0  0  0
    2.4212   -0.4130   -3.3436 C   0  0  0  0  0 15  0  0  0  0  0  0
    2.9512    0.4773   -3.9885 O   0  0  0  0  0 15  0  0  0  0  0  0
    1.1572   -0.2870   -2.8918 N   0  0  0  0  0 15  0  0  0  0  0  0
    0.7042   -1.0124   -2.3687 H   0  0  0  0  0 15  0  0  0  0  0  0
    0.6622    0.5570   -3.0943 H   0  0  0  0  0 15  0  0  0  0  0  0
    4.4343    0.7856   -1.3662 N   0  0  0  0  0 15  0  0  0  0  0  0
    5.3643    1.9126   -1.3395 C   0  0  0  0  0 15  0  0  0  0  0  0
    6.3453    1.6879   -0.2103 C   0  0  0  0  0 15  0  0  0  0  0  0
    7.5303    1.8985   -0.4086 O   0  0  0  0  0 15  0  0  0  0  0  0
    4.6603    3.2834   -1.1319 C   0  0  0  0  0 15  0  0  0  0  0  0
    3.6143    3.6533   -2.2297 C   0  0  0  0  0 15  0  0  0  0  0  0
    2.9403    5.0081   -1.8734 C   0  0  0  0  0 15  0  0  0  0  0  0
    4.2403    3.7352   -3.6508 C   0  0  0  0  0 15  0  0  0  0  0  0
    5.9343    1.9375   -2.2825 H   0  0  0  0  0 15  0  0  0  0  0  0
    3.4803    0.9308   -1.0987 H   0  0  0  0  0 15  0  0  0  0  0  0
    5.4333    4.0680   -1.0995 H   0  0  0  0  0 15  0  0  0  0  0  0
    4.1573    3.2624   -0.1533 H   0  0  0  0  0 15  0  0  0  0  0  0
    2.8163    2.8917   -2.2534 H   0  0  0  0  0 15  0  0  0  0  0  0
    2.4643    4.9523   -0.8805 H   0  0  0  0  0 15  0  0  0  0  0  0
    2.1643    5.2653   -2.6085 H   0  0  0  0  0 15  0  0  0  0  0  0
    3.6883    5.8169   -1.8567 H   0  0  0  0  0 15  0  0  0  0  0  0
    5.1023    4.4217   -3.6491 H   0  0  0  0  0 15  0  0  0  0  0  0
    3.4993    4.1073   -4.3752 H   0  0  0  0  0 15  0  0  0  0  0  0
    4.5693    2.7453   -3.9970 H   0  0  0  0  0 15  0  0  0  0  0  0
    5.9124    1.2097    1.0102 N   0  0  0  0  0 15  0  0  0  0  0  0
    7.1374    1.0503    1.7884 C   0  0  0  0  0 15  0  0  0  0  0  0
    7.5624   -0.3958    1.8389 C   0  0  0  0  0 15  0  0  0  0  0  0
    6.9204   -1.2853    1.2787 O   0  0  0  0  0 15  0  0  0  0  0  0
    6.9684    1.6460    3.2084 C   0  0  0  0  0 15  0  0  0  0  0  0
    6.0724    0.8880    4.0273 O   0  0  0  0  0 15  0  0  0  0  0  0
    5.4134    0.3700    0.5514 H   0  0  0  0  0 15  0  0  0  0  0  0
    7.9434    1.6040    1.2702 H   0  0  0  0  0 15  0  0  0  0  0  0
    7.9534    1.6861    3.7153 H   0  0  0  0  0 15  0  0  0  0  0  0
    6.6284    2.6984    3.1648 H   0  0  0  0  0 15  0  0  0  0  0  0
    5.2054    0.9226    3.6131 H   0  0  0  0  0 15  0  0  0  0  0  0
    7.3905   -1.2043    1.0166 N   0  0  0  0  0 15  0  0  0  0  0  0
    8.6185   -1.9378    0.7251 C   0  0  0  0  0 15  0  0  0  0  0  0
    9.0335   -1.7477   -0.7142 C   0  0  0  0  0 15  0  0  0  0  0  0
    8.3905   -1.0617   -1.4844 O   0  0  0  0  0 15  0  0  0  0  0  0
    8.4415   -3.4588    1.0513 C   0  0  0  0  0 15  0  0  0  0  0  0
    8.1625   -3.6426    2.4341 O   0  0  0  0  0 15  0  0  0  0  0  0
    9.6635   -4.3637    0.7809 C   0  0  0  0  0 15  0  0  0  0  0  0
    6.8835   -0.6159    0.2663 H   0  0  0  0  0 15  0  0  0  0  0  0
    9.4275   -1.5292    1.3578 H   0  0  0  0  0 15  0  0  0  0  0  0
    7.5825   -3.8461    0.4641 H   0  0  0  0  0 15  0  0  0  0  0  0
    7.9965   -4.5825    2.5517 H   0  0  0  0  0 15  0  0  0  0  0  0
    9.4705   -5.4174    1.0592 H   0  0  0  0  0 15  0  0  0  0  0  0
    9.9475   -4.3827   -0.2849 H   0  0  0  0  0 15  0  0  0  0  0  0
   10.5535   -4.0330    1.3503 H   0  0  0  0  0 15  0  0  0  0  0  0
    8.8686   -0.7928   -1.3621 N   0  0  0  0  0 15  0  0  0  0  0  0
   10.1086   -0.3722   -2.0098 C   0  0  0  0  0 15  0  0  0  0  0  0
   10.4726    1.0375   -1.6156 C   0  0  0  0  0 15  0  0  0  0  0  0
   11.6736    1.5593   -2.1895 O   0  0  0  0  0 15  0  0  0  0  0  0
    9.9446   -0.5346   -3.5338 C   0  0  0  0  0 15  0  0  0  0  0  0
   11.5036   -0.2024   -4.3833 S   0  0  0  0  0 15  0  0  0  0  0  0
    8.3216   -0.1420   -0.6967 H   0  0  0  0  0 15  0  0  0  0  0  0
   10.9236   -1.0321   -1.6604 H   0  0  0  0  0 15  0  0  0  0  0  0
    9.6276   -1.5608   -3.7956 H   0  0  0  0  0 15  0  0  0  0  0  0
    9.1586    0.1411   -3.9315 H   0  0  0  0  0 15  0  0  0  0  0  0
   11.1736    0.9949   -4.8612 H   0  0  0  0  0 15  0  0  0  0  0  0
   10.3467    1.4787   -0.5451 N   0  0  0  0  0 15  0  0  0  0  0  0
   11.5927    2.0279   -0.0166 C   0  0  0  0  0 15  0  0  0  0  0  0
   11.9257    1.4199    1.3249 C   0  0  0  0  0 15  0  0  0  0  0  0
   11.2007    0.5710    1.8593 O   0  0  0  0  0 15  0  0  0  0  0  0
   11.4837    3.5999    0.0893 C   0  0  0  0  0 15  0  0  0  0  0  0
   11.3367    4.3125   -1.2784 C   0  0  0  0  0 15  0  0  0  0  0  0
   12.6557    4.3261    0.8087 C   0  0  0  0  0 15  0  0  0  0  0  0
    9.7747    0.7370   -0.0075 H   0  0  0  0  0 15  0  0  0  0  0  0
   12.4167    1.7643   -0.7051 H   0  0  0  0  0 15  0  0  0  0  0  0
   10.5667    3.8258    0.6757 H   0  0  0  0  0 15  0  0  0  0  0  0
   12.2387    4.2004   -1.9070 H   0  0  0  0  0 15  0  0  0  0  0  0
   10.4817    3.9208   -1.8563 H   0  0  0  0  0 15  0  0  0  0  0  0
   11.1527    5.3974   -1.1571 H   0  0  0  0  0 15  0  0  0  0  0  0
   13.6287    4.1494    0.3110 H   0  0  0  0  0 15  0  0  0  0  0  0
   12.5047    5.4225    0.8518 H   0  0  0  0  0 15  0  0  0  0  0  0
   12.7657    4.0096    1.8623 H   0  0  0  0  0 15  0  0  0  0  0  0
   11.8248    0.2810    1.5507 N   0  0  0  0  0 15  0  0  0  0  0  0
   12.7548   -0.5975    2.2573 C   0  0  0  0  0 15  0  0  0  0  0  0
   13.7358   -1.1542    1.2495 C   0  0  0  0  0 15  0  0  0  0  0  0
   14.9208   -1.1872    1.5368 O   0  0  0  0  0 15  0  0  0  0  0  0
   12.0508   -1.7789    2.9828 C   0  0  0  0  0 15  0  0  0  0  0  0
   11.0048   -1.3535    4.0604 C   0  0  0  0  0 15  0  0  0  0  0  0
   10.3308   -2.6185    4.6620 C   0  0  0  0  0 15  0  0  0  0  0  0
   11.6308   -0.4994    5.1991 C   0  0  0  0  0 15  0  0  0  0  0  0
   13.3248   -0.0082    2.9940 H   0  0  0  0  0 15  0  0  0  0  0  0
   10.8708   -0.0025    1.4400 H   0  0  0  0  0 15  0  0  0  0  0  0
   12.8238   -2.3994    3.4642 H   0  0  0  0  0 15  0  0  0  0  0  0
   11.5478   -2.3940    2.2216 H   0  0  0  0  0 15  0  0  0  0  0  0
   10.2068   -0.7562    3.5872 H   0  0  0  0  0 15  0  0  0  0  0  0
    9.8548   -3.2163    3.8673 H   0  0  0  0  0 15  0  0  0  0  0  0
    9.5548   -2.3409    5.3896 H   0  0  0  0  0 15  0  0  0  0  0  0
   11.0788   -3.2473    5.1709 H   0  0  0  0  0 15  0  0  0  0  0  0
   12.4928   -1.0250    5.6406 H   0  0  0  0  0 15  0  0  0  0  0  0
   10.8898   -0.3164    5.9927 H   0  0  0  0  0 15  0  0  0  0  0  0
   11.9598    0.4805    4.8251 H   0  0  0  0  0 15  0  0  0  0  0  0
   13.3029   -1.5760    0.0084 N   0  0  0  0  0 15  0  0  0  0  0  0
   14.5509   -1.9055   -0.6734 C   0  0  0  0  0 15  0  0  0  0  0  0
   14.8719   -0.8833   -1.7385 C   0  0  0  0  0 15  0  0  0  0  0  0
   14.1419    0.0781   -1.9574 O   0  0  0  0  0 15  0  0  0  0  0  0
   12.7219   -0.7033   -0.2517 H   0  0  0  0  0 15  0  0  0  0  0  0
   15.3839   -1.9483    0.0513 H   0  0  0  0  0 15  0  0  0  0  0  0
   14.4799   -2.9056   -1.1394 H   0  0  0  0  0 15  0  0  0  0  0  0
   14.7810    0.2645   -1.5536 N   0  0  0  0  0 15  0  0  0  0  0  0
   15.7280    1.3272   -1.8882 C   0  0  0  0  0 15  0  0  0  0  0  0
   16.6980    1.4867   -0.7406 C   0  0  0  0  0 15  0  0  0  0  0  0
   17.8830    1.6294   -0.9927 O   0  0  0  0  0 15  0  0  0  0  0  0
   15.0230    2.6809   -2.1731 C   0  0  0  0  0 15  0  0  0  0  0  0
   14.1360    2.6028   -3.4478 C   0  0  0  0  0 15  0  0  0  0  0  0
   13.2710    3.8789   -3.6292 C   0  0  0  0  0 15  0  0  0  0  0  0
   12.3100    3.7463   -4.8406 C   0  0  0  0  0 15  0  0  0  0  0  0
   11.4470    4.9409   -4.9882 N   0  0  0  0  0 15  0  0  0  0  0  0
   16.2870    1.0348   -2.7946 H   0  0  0  0  0 15  0  0  0  0  0  0
   13.8240    0.4998   -1.3835 H   0  0  0  0  0 15  0  0  0  0  0  0
   15.7820    3.4686   -2.3182 H   0  0  0  0  0 15  0  0  0  0  0  0
   14.4120    2.9551   -1.2990 H   0  0  0  0  0 15  0  0  0  0  0  0
   13.4640    1.7317   -3.3870 H   0  0  0  0  0 15  0  0  0  0  0  0
   14.7760    2.4639   -4.3370 H   0  0  0  0  0 15  0  0  0  0  0  0
   13.9300    4.7511   -3.7730 H   0  0  0  0  0 15  0  0  0  0  0  0
   12.6690    4.0466   -2.7221 H   0  0  0  0  0 15  0  0  0  0  0  0
   11.6740    2.8580   -4.6968 H   0  0  0  0  0 15  0  0  0  0  0  0
   12.8990    3.5937   -5.7622 H   0  0  0  0  0 15  0  0  0  0  0  0
   10.8450    5.1126   -4.1104 H   0  0  0  0  0 15  0  0  0  0  0  0
   10.7620    4.8276   -5.8179 H   0  0  0  0  0 15  0  0  0  0  0  0
   12.0300    5.8286   -5.1759 H   0  0  0  0  0 15  0  0  0  0  0  0
   16.2591    1.4844    0.5294 N   0  0  0  0  0 15  0  0  0  0  0  0
   17.1891    1.6590    1.6431 C   0  0  0  0  0 15  0  0  0  0  0  0
   18.1701    0.5079    1.6234 C   0  0  0  0  0 15  0  0  0  0  0  0
   19.3551    0.7405    1.7953 O   0  0  0  0  0 15  0  0  0  0  0  0
   16.4851    1.6991    3.0290 C   0  0  0  0  0 15  0  0  0  0  0  0
   15.4391    2.8453    3.1973 C   0  0  0  0  0 15  0  0  0  0  0  0
   14.7651    2.7363    4.5938 C   0  0  0  0  0 15  0  0  0  0  0  0
   16.0651    4.2582    3.0245 C   0  0  0  0  0 15  0  0  0  0  0  0
   17.7591    2.5914    1.4996 H   0  0  0  0  0 15  0  0  0  0  0  0
   15.3051    1.2471    0.7200 H   0  0  0  0  0 15  0  0  0  0  0  0
   17.2581    1.8071    3.8068 H   0  0  0  0  0 15  0  0  0  0  0  0
   15.9821    0.7325    3.1828 H   0  0  0  0  0 15  0  0  0  0  0  0
   14.6411    2.7328    2.4436 H   0  0  0  0  0 15  0  0  0  0  0  0
   14.2891    1.7494    4.7160 H   0  0  0  0  0 15  0  0  0  0  0  0
   13.9891    3.5054    4.7159 H   0  0  0  0  0 15  0  0  0  0  0  0
   15.5131    2.8640    5.3927 H   0  0  0  0  0 15  0  0  0  0  0  0
   16.9271    4.3790    3.7002 H   0  0  0  0  0 15  0  0  0  0  0  0
   15.3241    5.0373    3.2615 H   0  0  0  0  0 15  0  0  0  0  0  0
   16.3941    4.4224    1.9887 H   0  0  0  0  0 15  0  0  0  0  0  0
   17.7372   -0.7783    1.3704 N   0  0  0  0  0 15  0  0  0  0  0  0
   18.9622   -1.5725    1.3523 C   0  0  0  0  0 15  0  0  0  0  0  0
   19.3872   -1.8800   -0.0616 C   0  0  0  0  0 15  0  0  0  0  0  0
   18.7452   -1.4873   -1.0367 O   0  0  0  0  0 15  0  0  0  0  0  0
   18.7932   -2.8635    2.1917 C   0  0  0  0  0 15  0  0  0  0  0  0
   17.8972   -3.8044    1.5918 O   0  0  0  0  0 15  0  0  0  0  0  0
   17.2382   -0.4766    0.4624 H   0  0  0  0  0 15  0  0  0  0  0  0
   19.7682   -0.9639    1.8047 H   0  0  0  0  0 15  0  0  0  0  0  0
   19.7782   -3.3552    2.3215 H   0  0  0  0  0 15  0  0  0  0  0  0
   18.4532   -2.6330    3.2194 H   0  0  0  0  0 15  0  0  0  0  0  0
   17.0302   -3.3907    1.5520 H   0  0  0  0  0 15  0  0  0  0  0  0
   19.2153   -1.2150   -1.0038 N   0  0  0  0  0 15  0  0  0  0  0  0
   20.1473   -0.9332   -2.0934 C   0  0  0  0  0 15  0  0  0  0  0  0
   21.1603    0.0841   -1.6258 C   0  0  0  0  0 15  0  0  0  0  0  0
   22.3493   -0.1486   -1.7788 O   0  0  0  0  0 15  0  0  0  0  0  0
   19.4493   -0.3799   -3.3676 C   0  0  0  0  0 15  0  0  0  0  0  0
   18.6223   -1.4518   -4.1260 C   0  0  0  0  0 15  0  0  0  0  0  0
   17.6813   -0.9075   -5.1832 C   0  0  0  0  0 15  0  0  0  0  0  0
   16.7073   -1.5912   -5.4651 O   0  0  0  0  0 15  0  0  0  0  0  0
   17.9093    0.2766   -5.7984 N   0  0  0  0  0 15  0  0  0  0  0  0
   20.6743   -1.8712   -2.3410 H   0  0  0  0  0 15  0  0  0  0  0  0
   18.2353   -1.1204   -1.1687 H   0  0  0  0  0 15  0  0  0  0  0  0
   20.2273   -0.0013   -4.0470 H   0  0  0  0  0 15  0  0  0  0  0  0
   18.7973    0.4630   -3.0915 H   0  0  0  0  0 15  0  0  0  0  0  0
   18.0173   -2.0041   -3.3945 H   0  0  0  0  0 15  0  0  0  0  0  0
   19.3053   -2.1733   -4.6005 H   0  0  0  0  0 15  0  0  0  0  0  0
   18.7033    0.8491   -5.5929 H   0  0  0  0  0 15  0  0  0  0  0  0
   17.2603    0.5967   -6.4906 H   0  0  0  0  0 15  0  0  0  0  0  0
   20.6934    1.1989   -1.0230 N   0  0  0  0  0 15  0  0  0  0  0  0
   21.6034    2.2657   -0.6085 C   0  0  0  0  0 15  0  0  0  0  0  0
   22.6194    1.7030    0.3570 C   0  0  0  0  0 15  0  0  0  0  0  0
   23.7954    2.0023    0.2163 O   0  0  0  0  0 15  0  0  0  0  0  0
   20.8604    3.4668    0.0403 C   0  0  0  0  0 15  0  0  0  0  0  0
   19.9214    4.1815   -0.9719 C   0  0  0  0  0 15  0  0  0  0  0  0
   19.1544    5.3252   -0.3540 C   0  0  0  0  0 15  0  0  0  0  0  0
   19.3774    5.6411    0.8446 O   0  0  0  0  0 15  0  0  0  0  0  0
   18.3114    5.9224   -1.0739 O   0  0  0  0  0 15  0  0  0  0  0  0
   22.1374    2.6425   -1.4968 H   0  0  0  0  0 15  0  0  0  0  0  0
   19.7224    1.2663   -0.7928 H   0  0  0  0  0 15  0  0  0  0  0  0
   21.6044    4.1948    0.4023 H   0  0  0  0  0 15  0  0  0  0  0  0
   20.2794    3.1086    0.9027 H   0  0  0  0  0 15  0  0  0  0  0  0
   19.1864    3.4750   -1.3855 H   0  0  0  0  0 15  0  0  0  0  0  0
   20.5194    4.5793   -1.8045 H   0  0  0  0  0 15  0  0  0  0  0  0
   22.1715    0.8000    1.3578 N   0  0  0  0  0 15  0  0  0  0  0  0
   23.1015    0.2202    2.3246 C   0  0  0  0  0 15  0  0  0  0  0  0
   24.0825   -0.6507    1.5716 C   0  0  0  0  0 15  0  0  0  0  0  0
   25.2675   -0.5824    1.8526 O   0  0  0  0  0 15  0  0  0  0  0  0
   22.3975   -0.6374    3.4140 C   0  0  0  0  0 15  0  0  0  0  0  0
   21.3515    0.1345    4.2779 C   0  0  0  0  0 15  0  0  0  0  0  0
   20.6775   -0.8443    5.2799 C   0  0  0  0  0 15  0  0  0  0  0  0
   21.9775    1.3298    5.0509 C   0  0  0  0  0 15  0  0  0  0  0  0
   23.6715    1.0279    2.8120 H   0  0  0  0  0 15  0  0  0  0  0  0
   21.2175    0.4957    1.3520 H   0  0  0  0  0 15  0  0  0  0  0  0
   23.1705   -1.0530    4.0803 H   0  0  0  0  0 15  0  0  0  0  0  0
   21.8945   -1.4779    2.9125 H   0  0  0  0  0 15  0  0  0  0  0  0
   20.5535    0.5313    3.6273 H   0  0  0  0  0 15  0  0  0  0  0  0
   20.2015   -1.6801    4.7411 H   0  0  0  0  0 15  0  0  0  0  0  0
   19.9015   -0.3322    5.8666 H   0  0  0  0  0 15  0  0  0  0  0  0
   21.4255   -1.2583    5.9749 H   0  0  0  0  0 15  0  0  0  0  0  0
   22.8395    0.9893    5.6470 H   0  0  0  0  0 15  0  0  0  0  0  0
   21.2365    1.7759    5.7322 H   0  0  0  0  0 15  0  0  0  0  0  0
   22.3065    2.1198    4.3611 H   0  0  0  0  0 15  0  0  0  0  0  0
   23.6496   -1.4758    0.5530 N   0  0  0  0  0 15  0  0  0  0  0  0
   24.5996   -2.2696   -0.2174 C   0  0  0  0  0 15  0  0  0  0  0  0
   25.5836   -1.3410   -0.8892 C   0  0  0  0  0 15  0  0  0  0  0  0
   26.7756   -1.5848   -0.7882 O   0  0  0  0  0 15  0  0  0  0  0  0
   23.9046   -3.1976   -1.2494 C   0  0  0  0  0 15  0  0  0  0  0  0
   22.9906   -4.2010   -0.5813 C   0  0  0  0  0 15  0  0  0  0  0  0
   23.3816   -5.0461    0.3462 N   0  0  0  0  0 15  0  0  0  0  0  0
   21.6796   -4.3810   -0.8358 C   0  0  0  0  0 15  0  0  0  0  0  0
   22.3806   -5.7705    0.7339 C   0  0  0  0  0 15  0  0  0  0  0  0
   21.3566   -5.4353    0.0897 N   0  0  0  0  0 15  0  0  0  0  0  0
   25.1586   -2.8969    0.4958 H   0  0  0  0  0 15  0  0  0  0  0  0
   22.6726   -1.5807    0.3726 H   0  0  0  0  0 15  0  0  0  0  0  0
   24.6696   -3.7530   -1.8153 H   0  0  0  0  0 15  0  0  0  0  0  0
   23.3296   -2.5859   -1.9638 H   0  0  0  0  0 15  0  0  0  0  0  0
   24.3406   -5.1287    0.7201 H   0  0  0  0  0 15  0  0  0  0  0  0
   21.0176   -3.8810   -1.5389 H   0  0  0  0  0 15  0  0  0  0  0  0
   22.4076   -6.5504    1.4957 H   0  0  0  0  0 15  0  0  0  0  0  0
   25.1277   -0.2892   -1.5492 N   0  0  0  0  0 15  0  0  0  0  0  0
   26.0747    0.5921   -2.2308 C   0  0  0  0  0 15  0  0  0  0  0  0
   27.0447    1.1388   -1.2091 C   0  0  0  0  0 15  0  0  0  0  0  0
   28.2297    1.1855   -1.4950 O   0  0  0  0  0 15  0  0  0  0  0  0
   25.3697    1.7638   -2.9662 C   0  0  0  0  0 15  0  0  0  0  0  0
   24.4827    1.2496   -4.1353 C   0  0  0  0  0 15  0  0  0  0  0  0
   23.6177    2.3842   -4.7469 C   0  0  0  0  0 15  0  0  0  0  0  0
   22.6567    1.8407   -5.8377 C   0  0  0  0  0 15  0  0  0  0  0  0
   21.7937    2.9106   -6.3893 N   0  0  0  0  0 15  0  0  0  0  0  0
   26.6337    0.0043   -2.9800 H   0  0  0  0  0 15  0  0  0  0  0  0
   24.1707   -0.0096   -1.4710 H   0  0  0  0  0 15  0  0  0  0  0  0
   26.1287    2.4527   -3.3749 H   0  0  0  0  0 15  0  0  0  0  0  0
   24.7587    2.3234   -2.2410 H   0  0  0  0  0 15  0  0  0  0  0  0
   23.8107    0.4533   -3.7769 H   0  0  0  0  0 15  0  0  0  0  0  0
   25.1227    0.8117   -4.9215 H   0  0  0  0  0 15  0  0  0  0  0  0
   24.2767    3.1528   -5.1835 H   0  0  0  0  0 15  0  0  0  0  0  0
   23.0157    2.8553   -3.9538 H   0  0  0  0  0 15  0  0  0  0  0  0
   22.0207    1.0570   -5.3954 H   0  0  0  0  0 15  0  0  0  0  0  0
   23.2457    1.3788   -6.6496 H   0  0  0  0  0 15  0  0  0  0  0  0
   21.1917    3.3753   -5.6251 H   0  0  0  0  0 15  0  0  0  0  0  0
   21.1087    2.5172   -7.1286 H   0  0  0  0  0 15  0  0  0  0  0  0
   22.3767    3.6785   -6.8725 H   0  0  0  0  0 15  0  0  0  0  0  0
   26.6058    1.5759   -0.0167 N   0  0  0  0  0 15  0  0  0  0  0  0
   27.5358    2.1250    0.9679 C   0  0  0  0  0 15  0  0  0  0  0  0
   28.5168    1.0381    1.3475 C   0  0  0  0  0 15  0  0  0  0  0  0
   29.7018    1.3158    1.4283 O   0  0  0  0  0 15  0  0  0  0  0  0
   26.8318    2.6419    2.2543 C   0  0  0  0  0 15  0  0  0  0  0  0
   25.7858    3.7756    2.0158 C   0  0  0  0  0 15  0  0  0  0  0  0
   25.1118    4.1564    3.3638 C   0  0  0  0  0 15  0  0  0  0  0  0
   26.4118    5.0415    1.3649 C   0  0  0  0  0 15  0  0  0  0  0  0
   28.1058    2.9501    0.5106 H   0  0  0  0  0 15  0  0  0  0  0  0
   25.6518    1.4191    0.2442 H   0  0  0  0  0 15  0  0  0  0  0  0
   27.6048    3.0124    2.9468 H   0  0  0  0  0 15  0  0  0  0  0  0
   26.3288    1.7882    2.7330 H   0  0  0  0  0 15  0  0  0  0  0  0
   24.9878    3.4094    1.3475 H   0  0  0  0  0 15  0  0  0  0  0  0
   24.6358    3.2726    3.8198 H   0  0  0  0  0 15  0  0  0  0  0  0
   24.3358    4.9202    3.2123 H   0  0  0  0  0 15  0  0  0  0  0  0
   25.8598    4.5525    4.0691 H   0  0  0  0  0 15  0  0  0  0  0  0
   27.2738    5.3886    1.9572 H   0  0  0  0  0 15  0  0  0  0  0  0
   25.6708    5.8545    1.3178 H   0  0  0  0  0 15  0  0  0  0  0  0
   26.7408    4.8373    0.3362 H   0  0  0  0  0 15  0  0  0  0  0  0
   28.0839   -0.2563    1.5550 N   0  0  0  0  0 15  0  0  0  0  0  0
   29.0159   -1.3398    1.8596 C   0  0  0  0  0 15  0  0  0  0  0  0
   30.0289   -1.4474    0.7452 C   0  0  0  0  0 15  0  0  0  0  0  0
   31.2179   -1.4626    1.0232 O   0  0  0  0  0 15  0  0  0  0  0  0
   28.3179   -2.7194    2.0224 C   0  0  0  0  0 15  0  0  0  0  0  0
   27.4909   -2.8356    3.3303 C   0  0  0  0  0 15  0  0  0  0  0  0
   26.5499   -4.0230    3.3917 C   0  0  0  0  0 15  0  0  0  0  0  0
   25.5759   -3.9227    4.1244 O   0  0  0  0  0 15  0  0  0  0  0  0
   26.7779   -5.1505    2.6778 N   0  0  0  0  0 15  0  0  0  0  0  0
   29.5429   -1.0819    2.7949 H   0  0  0  0  0 15  0  0  0  0  0  0
   27.1039   -0.4464    1.5562 H   0  0  0  0  0 15  0  0  0  0  0  0
   29.0959   -3.4970    2.0370 H   0  0  0  0  0 15  0  0  0  0  0  0
   27.6659   -2.9048    1.1550 H   0  0  0  0  0 15  0  0  0  0  0  0
   26.8859   -1.9256    3.4397 H   0  0  0  0  0 15  0  0  0  0  0  0
   28.1739   -2.8827    4.1926 H   0  0  0  0  0 15  0  0  0  0  0  0
   27.5719   -5.2609    2.0797 H   0  0  0  0  0 15  0  0  0  0  0  0
   26.1289   -5.9097    2.7495 H   0  0  0  0  0 15  0  0  0  0  0  0
   29.5620   -1.4872   -0.5215 N   0  0  0  0  0 15  0  0  0  0  0  0
   30.7900   -1.6084   -1.3014 C   0  0  0  0  0 15  0  0  0  0  0  0
   31.2050   -0.2719   -1.8683 C   0  0  0  0  0 15  0  0  0  0  0  0
   30.5620    0.7400   -1.6683 O   0  0  0  0  0 15  0  0  0  0  0  0
   30.6130   -2.6616   -2.4463 C   0  0  0  0  0 15  0  0  0  0  0  0
   30.3340   -3.9462   -1.9027 O   0  0  0  0  0 15  0  0  0  0  0  0
   31.8350   -2.8880   -3.3632 C   0  0  0  0  0 15  0  0  0  0  0  0
   29.0550   -0.5421   -0.3955 H   0  0  0  0  0 15  0  0  0  0  0  0
   31.5990   -1.9461   -0.6283 H   0  0  0  0  0 15  0  0  0  0  0  0
   29.7540   -2.3522   -3.0781 H   0  0  0  0  0 15  0  0  0  0  0  0
   30.1680   -4.5247   -2.6528 H   0  0  0  0  0 15  0  0  0  0  0  0
   31.6420   -3.6626   -4.1298 H   0  0  0  0  0 15  0  0  0  0  0  0
   32.1190   -1.9793   -3.9207 H   0  0  0  0  0 15  0  0  0  0  0  0
   32.7250   -3.2106   -2.7892 H   0  0  0  0  0 15  0  0  0  0  0  0
   31.0401    0.7711   -1.3745 N   0  0  0  0  0 15  0  0  0  0  0  0
   32.2701    1.5579   -1.3570 C   0  0  0  0  0 15  0  0  0  0  0  0
   32.6781    1.8911    0.0595 C   0  0  0  0  0 15  0  0  0  0  0  0
   32.0211    1.5198    1.0318 O   0  0  0  0  0 15  0  0  0  0  0  0
   32.0831    2.8951   -2.1312 C   0  0  0  0  0 15  0  0  0  0  0  0
   31.7471    2.7883   -3.6208 C   0  0  0  0  0 15  0  0  0  0  0  0
   32.7441    2.4981   -4.5595 C   0  0  0  0  0 15  0  0  0  0  0  0
   30.4291    2.9683   -4.0521 C   0  0  0  0  0 15  0  0  0  0  0  0
   32.4231    2.3892   -5.9093 C   0  0  0  0  0 15  0  0  0  0  0  0
   30.1101    2.8556   -5.4028 C   0  0  0  0  0 15  0  0  0  0  0  0
   31.1081    2.5665   -6.3295 C   0  0  0  0  0 15  0  0  0  0  0  0
   30.7961    2.4541   -7.6553 O   0  0  0  0  0 15  0  0  0  0  0  0
   30.5281    0.4893   -0.4665 H   0  0  0  0  0 15  0  0  0  0  0  0
   33.0821    0.9634   -1.8140 H   0  0  0  0  0 15  0  0  0  0  0  0
   31.3121    3.5108   -1.6211 H   0  0  0  0  0 15  0  0  0  0  0  0
   33.0011    3.5091   -2.0399 H   0  0  0  0  0 15  0  0  0  0  0  0
   33.7671    2.3559   -4.2394 H   0  0  0  0  0 15  0  0  0  0  0  0
   29.6461    3.1834   -3.3344 H   0  0  0  0  0 15  0  0  0  0  0  0
   33.1901    2.1628   -6.6323 H   0  0  0  0  0 15  0  0  0  0  0  0
   29.0871    2.9935   -5.7189 H   0  0  0  0  0 15  0  0  0  0  0  0
   29.8551    2.6075   -7.7585 H   0  0  0  0  0 15  0  0  0  0  0  0
   32.5182    1.2203    0.9973 N   0  0  0  0  0 15  0  0  0  0  0  0
   33.9292    1.0397    1.5507 C   0  0  0  0  0 15  0  0  0  0  0  0
   34.2802   -0.3982    1.9212 C   0  0  0  0  0 15  0  0  0  0  0  0
   33.4052   -1.2825    1.7430 O   0  0  0  0  0 15  0  0  0  0  0  0
   34.0002    1.8811    2.8178 C   0  0  0  0  0 15  0  0  0  0  0  0
   32.5592    1.7436    3.3358 C   0  0  0  0  0 15  0  0  0  0  0  0
   31.7062    1.8485    2.0671 C   0  0  0  0  0 15  0  0  0  0  0  0
   34.6572    1.3594    0.8189 H   0  0  0  0  0 15  0  0  0  0  0  0
   34.6782    1.3959    3.5397 H   0  0  0  0  0 15  0  0  0  0  0  0
   34.1902    2.9275    2.5479 H   0  0  0  0  0 15  0  0  0  0  0  0
   32.2912    0.7243    3.6549 H   0  0  0  0  0 15  0  0  0  0  0  0
   32.4042    2.5677    4.0448 H   0  0  0  0  0 15  0  0  0  0  0  0
   30.7682    1.2824    2.2006 H   0  0  0  0  0 15  0  0  0  0  0  0
   31.5512    2.9101    1.8211 H   0  0  0  0  0 15  0  0  0  0  0  0
   33.9963   -1.1934    1.0293 N   0  0  0  0  0 15  0  0  0  0  0  0
   35.4123   -1.4107    0.7464 C   0  0  0  0  0 15  0  0  0  0  0  0
   35.6123   -1.9008   -0.6688 C   0  0  0  0  0 15  0  0  0  0  0  0
   34.6683   -2.0778   -1.4347 O   0  0  0  0  0 15  0  0  0  0  0  0
   35.9813   -2.4214    1.7829 C   0  0  0  0  0 15  0  0  0  0  0  0
   37.5293   -2.5589    1.8025 C   0  0  0  0  0 15  0  0  0  0  0  0
   38.0043   -3.6021    2.8286 C   0  0  0  0  0 15  0  0  0  0  0  0
   39.4953   -3.6771    2.8168 N   0  0  0  0  0 15  0  0  0  0  0  0
   40.2303   -4.4813    3.5773 C   0  0  0  0  0 15  0  0  0  0  0  0
   39.7263   -5.3225    4.4349 N   0  0  0  0  0 15  0  0  0  0  0  0
   41.5193   -4.4278    3.4627 N   0  0  0  0  0 15  0  0  0  0  0  0
   33.6703   -0.8585    1.9428 H   0  0  0  0  0 15  0  0  0  0  0  0
   35.9333   -0.4395    0.8399 H   0  0  0  0  0 15  0  0  0  0  0  0
   35.6393   -2.1316    2.7975 H   0  0  0  0  0 15  0  0  0  0  0  0
   35.5133   -3.4132    1.6056 H   0  0  0  0  0 15  0  0  0  0  0  0
   37.9003   -2.8420    0.7948 H   0  0  0  0  0 15  0  0  0  0  0  0
   37.9813   -1.5686    2.0206 H   0  0  0  0  0 15  0  0  0  0  0  0
   37.6253   -3.3265    3.8381 H   0  0  0  0  0 15  0  0  0  0  0  0
   37.5553   -4.5890    2.5831 H   0  0  0  0  0 15  0  0  0  0  0  0
   40.0463   -3.0763    2.1948 H   0  0  0  0  0 15  0  0  0  0  0  0
   40.3593   -5.9073    4.9826 H   0  0  0  0  0 15  0  0  0  0  0  0
   38.7043   -5.3171    4.4756 H   0  0  0  0  0 15  0  0  0  0  0  0
   41.8953   -3.7611    2.7868 H   0  0  0  0  0 15  0  0  0  0  0  0
   42.0683   -5.0522    4.0579 H   0  0  0  0  0 15  0  0  0  0  0  0
   35.4744   -0.8072   -1.3536 N   0  0  0  0  0 15  0  0  0  0  0  0
   36.7024   -0.4004   -2.0299 C   0  0  0  0  0 15  0  0  0  0  0  0
   37.1174    0.9889   -1.6083 C   0  0  0  0  0 15  0  0  0  0  0  0
   36.4744    1.6373   -0.8062 O   0  0  0  0  0 15  0  0  0  0  0  0
   36.5254   -0.4749   -3.5837 C   0  0  0  0  0 15  0  0  0  0  0  0
   36.2464   -1.8093   -3.9899 O   0  0  0  0  0 15  0  0  0  0  0  0
   37.7474   -0.0609   -4.4326 C   0  0  0  0  0 15  0  0  0  0  0  0
   34.9674   -0.1626   -0.6510 H   0  0  0  0  0 15  0  0  0  0  0  0
   37.5114   -1.0910   -1.7297 H   0  0  0  0  0 15  0  0  0  0  0  0
   35.6664    0.1675   -3.8704 H   0  0  0  0  0 15  0  0  0  0  0  0
   36.0804   -1.7726   -4.9364 H   0  0  0  0  0 15  0  0  0  0  0  0
   37.5544   -0.1641   -5.5176 H   0  0  0  0  0 15  0  0  0  0  0  0
   38.0314    0.9938   -4.2781 H   0  0  0  0  0 15  0  0  0  0  0  0
   38.6374   -0.6765   -4.1989 H   0  0  0  0  0 15  0  0  0  0  0  0
   36.9525    1.4729   -0.5608 N   0  0  0  0  0 15  0  0  0  0  0  0
   37.9005    2.3176    0.1979 C   0  0  0  0  0 15  0  0  0  0  0  0
   38.8945    1.4315    0.9059 C   0  0  0  0  0 15  0  0  0  0  0  0
   40.1005    1.5989    0.8267 O   0  0  0  0  0 15  0  0  0  0  0  0
   36.4755    0.7474    0.0827 H   0  0  0  0  0 15  0  0  0  0  0  0
   38.4465    2.9359   -0.5336 H   0  0  0  0  0 15  0  0  0  0  0  0
   37.1955    3.2587    1.2125 C   0  0  0  0  0 15  0  0  0  0  0  0
   36.5185    3.9402    0.6772 H   0  0  0  0  0 15  0  0  0  0  0  0
   37.9585    3.8780    1.7142 H   0  0  0  0  0 15  0  0  0  0  0  0
   36.4175    2.4965    2.2622 C   0  0  0  0  0 15  0  0  0  0  0  0
   36.9475    2.2436    3.3321 O   0  0  0  0  0 15  0  0  0  0  0  0
   35.1535    2.1060    2.0024 N   0  0  0  0  0 15  0  0  0  0  0  0
   34.7005    2.3137    1.1325 H   0  0  0  0  0 15  0  0  0  0  0  0
   34.6585    1.5991    2.7069 H   0  0  0  0  0 15  0  0  0  0  0  0
   38.4306    0.2974    1.5477 N   0  0  0  0  0 15  0  0  0  0  0  0
   39.6586   -0.3156    2.0448 C   0  0  0  0  0 15  0  0  0  0  0  0
   40.0736   -1.4779    1.1749 C   0  0  0  0  0 15  0  0  0  0  0  0
   39.4306   -1.8140    0.1997 O   0  0  0  0  0 15  0  0  0  0  0  0
   39.4816   -0.7753    3.5309 C   0  0  0  0  0 15  0  0  0  0  0  0
   39.2026    0.3407    4.3677 O   0  0  0  0  0 15  0  0  0  0  0  0
   40.7036   -1.4539    4.1878 C   0  0  0  0  0 15  0  0  0  0  0  0
   37.9236   -0.0691    0.6674 H   0  0  0  0  0 15  0  0  0  0  0  0
   40.4676    0.4360    1.9980 H   0  0  0  0  0 15  0  0  0  0  0  0
   38.6226   -1.4770    3.5814 H   0  0  0  0  0 15  0  0  0  0  0  0
   39.0366   -0.0165    5.2450 H   0  0  0  0  0 15  0  0  0  0  0  0
   40.5106   -1.7267    5.2430 H   0  0  0  0  0 15  0  0  0  0  0  0
   40.9876   -2.3927    3.6830 H   0  0  0  0  0 15  0  0  0  0  0  0
   41.5936   -0.7955    4.1779 H   0  0  0  0  0 15  0  0  0  0  0  0
   39.9087   -1.5758    0.0251 N   0  0  0  0  0 15  0  0  0  0  0  0
   41.1567   -1.9125   -0.6532 C   0  0  0  0  0 15  0  0  0  0  0  0
   41.4777   -0.9017   -1.7290 C   0  0  0  0  0 15  0  0  0  0  0  0
   40.7477    0.0574   -1.9582 O   0  0  0  0  0 15  0  0  0  0  0  0
   39.3277   -0.7059   -0.2442 H   0  0  0  0  0 15  0  0  0  0  0  0
   41.9897   -1.9477    0.0719 H   0  0  0  0  0 15  0  0  0  0  0  0
   41.0857   -2.9175   -1.1085 H   0  0  0  0  0 15  0  0  0  0  0  0
   41.3868    0.2480   -1.5564 N   0  0  0  0  0 15  0  0  0  0  0  0
   42.6118    0.9980   -1.8181 C   0  0  0  0  0 15  0  0  0  0  0  0
   43.0368    1.7821   -0.6020 C   0  0  0  0  0 15  0  0  0  0  0  0
   42.3948    1.7565    0.4490 O   0  0  0  0  0 15  0  0  0  0  0  0
   42.4428    1.9125   -3.0571 C   0  0  0  0  0 15  0  0  0  0  0  0
   41.5468    3.0041   -2.8254 O   0  0  0  0  0 15  0  0  0  0  0  0
   40.8878    0.2840   -0.6002 H   0  0  0  0  0 15  0  0  0  0  0  0
   43.4178    0.2694   -2.0282 H   0  0  0  0  0 15  0  0  0  0  0  0
   43.4278    2.3274   -3.3511 H   0  0  0  0  0 15  0  0  0  0  0  0
   42.1028    1.3360   -3.9386 H   0  0  0  0  0 15  0  0  0  0  0  0
   40.6798    2.6306   -2.6430 H   0  0  0  0  0 15  0  0  0  0  0  0
   42.8649    1.4899    0.5136 N   0  0  0  0  0 15  0  0  0  0  0  0
   44.1129    1.5753    1.2660 C   0  0  0  0  0 15  0  0  0  0  0  0
   44.4339    0.2582    1.9328 C   0  0  0  0  0 15  0  0  0  0  0  0
   43.7039   -0.7215    1.8213 O   0  0  0  0  0 15  0  0  0  0  0  0
   42.2839    0.5804    0.4703 H   0  0  0  0  0 15  0  0  0  0  0  0
   44.9459    1.8555    0.5964 H   0  0  0  0  0 15  0  0  0  0  0  0
   44.0419    2.3649    2.0367 H   0  0  0  0  0 15  0  0  0  0  0  0
   44.3430   -0.7638    1.3786 N   0  0  0  0  0 15  0  0  0  0  0  0
   45.5710   -1.5529    1.3672 C   0  0  0  0  0 15  0  0  0  0  0  0
   45.9860   -1.8875   -0.0455 C   0  0  0  0  0 15  0  0  0  0  0  0
   45.3430   -1.5204   -1.0095 O   0  0  0  0  0 15  0  0  0  0  0  0
   45.3940   -2.8583    2.2132 C   0  0  0  0  0 15  0  0  0  0  0  0
   45.1150   -2.5381    3.5709 O   0  0  0  0  0 15  0  0  0  0  0  0
   46.6160   -3.8002    2.2825 C   0  0  0  0  0 15  0  0  0  0  0  0
   43.8360   -0.4808    0.4680 H   0  0  0  0  0 15  0  0  0  0  0  0
   46.3800   -0.9460    1.8130 H   0  0  0  0  0 15  0  0  0  0  0  0
   44.5350   -3.4293    1.8022 H   0  0  0  0  0 15  0  0  0  0  0  0
   44.9490   -3.3746    4.0152 H   0  0  0  0  0 15  0  0  0  0  0  0
   46.4230   -4.6860    2.9175 H   0  0  0  0  0 15  0  0  0  0  0  0
   46.9000   -4.1973    1.2932 H   0  0  0  0  0 15  0  0  0  0  0  0
   47.5060   -3.2886    2.6969 H   0  0  0  0  0 15  0  0  0  0  0  0
   45.8211   -1.2256   -0.9908 N   0  0  0  0  0 15  0  0  0  0  0  0
   47.2321   -1.0479   -1.5452 C   0  0  0  0  0 15  0  0  0  0  0  0
   47.5831    0.3880   -1.9233 C   0  0  0  0  0 15  0  0  0  0  0  0
   46.7081    1.2733   -1.7498 O   0  0  0  0  0 15  0  0  0  0  0  0
   47.3031   -1.8960   -2.8078 C   0  0  0  0  0 15  0  0  0  0  0  0
   45.8621   -1.7612   -3.3265 C   0  0  0  0  0 15  0  0  0  0  0  0
   45.0091   -1.8594   -2.0572 C   0  0  0  0  0 15  0  0  0  0  0  0
   47.9601   -1.3637   -0.8117 H   0  0  0  0  0 15  0  0  0  0  0  0
   47.9811   -1.4146   -3.5323 H   0  0  0  0  0 15  0  0  0  0  0  0
   47.4931   -2.9410   -2.5323 H   0  0  0  0  0 15  0  0  0  0  0  0
   45.5941   -0.7436   -3.6510 H   0  0  0  0  0 15  0  0  0  0  0  0
   45.7071   -2.5891   -4.0311 H   0  0  0  0  0 15  0  0  0  0  0  0
   44.0711   -1.2940   -2.1938 H   0  0  0  0  0 15  0  0  0  0  0  0
   44.8541   -2.9198   -1.8057 H   0  0  0  0  0 15  0  0  0  0  0  0
   47.3381    1.1220   -1.1616 O   0  0  0  0  0 15  0  0  0  0  0  0
   48.0291    1.7192   -0.8923 H   0  0  0  0  0 15  0  0  0  0  0  0
M  END
$$$$
