drugbank_drug|DB00070  Hyaluronidase Sequence
 OpenBabel12092119123D

  0  0  0     0  0            999 V3000
M  V30 BEGIN CTAB
M  V30 COUNTS 7498 7629 0 0 0
M  V30 BEGIN ATOM
M  V30 1 H -0.908 1.98254 -0.117106 0
M  V30 2 N 0 1.576 0 0
M  V30 3 C 0.933 2.03868 1.02534 0
M  V30 4 C 1.911 0.928543 1.3348 0
M  V30 5 O 3.095 1.19667 1.45644 0
M  V30 6 C 0.222 2.43627 2.35294 0
M  V30 7 C -0.732 3.65373 2.2001 0
M  V30 8 S 0.101 5.13292 1.52614 0
M  V30 9 C 1.257 5.56322 2.86805 0
M  V30 10 H 1.49 2.90518 0.631377 0
M  V30 11 H -0.977 1.52953 0.210867 0
M  V30 12 H 0.981 2.67203 3.11629 0
M  V30 13 H -0.358 1.57376 2.7183 0
M  V30 14 H -1.165 3.90944 3.18086 0
M  V30 15 H -1.563 3.418 1.51819 0
M  V30 16 H 0.729 5.58782 3.83104 0
M  V30 17 H 1.672 6.56266 2.65933 0
M  V30 18 H 2.08 4.83886 2.90714 0
M  V30 19 N 1.4781 -0.272755 1.55222 0
M  V30 20 C 2.7241 -1.00172 1.77023 0
M  V30 21 C 3.0791 -1.83928 0.564633 0
M  V30 22 O 2.3721 -1.86416 -0.442674 0
M  V30 23 C 2.5661 -1.91642 3.01675 0
M  V30 24 C 2.3951 -1.16888 4.34243 0
M  V30 25 C 1.1651 -0.884464 4.97499 0
M  V30 26 C 3.3631 -0.55919 5.11251 0
M  V30 27 N 1.3451 -0.11015 6.13801 0
M  V30 28 C 2.7161 0.0809469 6.19947 0
M  V30 29 C 4.7711 -0.467058 4.95705 0
M  V30 30 C 3.4741 0.804335 7.14789 0
M  V30 31 C 5.5001 0.242739 5.90902 0
M  V30 32 C 4.8621 0.871613 6.98987 0
M  V30 33 H 0.9611 -0.348529 0.700037 0
M  V30 34 H 3.5451 -0.277365 1.92714 0
M  V30 35 H 1.7161 -2.61303 2.87359 0
M  V30 36 H 3.4481 -2.57901 3.1188 0
M  V30 37 H 0.2031 -1.18979 4.58411 0
M  V30 38 H 0.6271 0.264344 6.76484 0
M  V30 39 H 5.2691 -0.93894 4.12242 0
M  V30 40 H 2.9871 1.2879 7.97771 0
M  V30 41 H 6.5731 0.314347 5.8095 0
M  V30 42 H 5.4531 1.4121 7.71381 0
M  V30 43 N 2.9562 -1.48159 -0.537278 0
M  V30 44 C 4.1842 -1.59454 -1.31841 0
M  V30 45 C 4.5992 -0.252065 -1.8711 0
M  V30 46 O 3.9562 0.757621 -1.66031 0
M  V30 47 C 4.0072 -2.63546 -2.47439 0
M  V30 48 O 3.7282 -3.92583 -1.94449 0
M  V30 49 C 5.2292 -2.85212 -3.39366 0
M  V30 50 H 2.4492 -0.53785 -0.401196 0
M  V30 51 H 4.9932 -1.93932 -0.648891 0
M  V30 52 H 3.1482 -2.31946 -3.1029 0
M  V30 53 H 3.5622 -4.49629 -2.70063 0
M  V30 54 H 5.0362 -3.61863 -4.16844 0
M  V30 55 H 5.5132 -1.93765 -3.94147 0
M  V30 56 H 6.1192 -3.18086 -2.82314 0
M  V30 57 N 4.4343 0.785586 -1.36625 0
M  V30 58 C 5.6823 1.54057 -1.30808 0
M  V30 59 C 6.0033 1.94683 0.111157 0
M  V30 60 O 5.2733 1.65241 1.05224 0
M  V30 61 H 3.8533 0.571354 -0.481211 0
M  V30 62 H 6.5153 0.935821 -1.70963 0
M  V30 63 H 5.6113 2.44637 -1.93801 0
M  V30 64 N 5.9124 1.20967 1.01018 0
M  V30 65 C 6.8424 0.988272 2.11555 0
M  V30 66 C 7.8234 -0.0849778 1.69888 0
M  V30 67 O 9.0084 0.0738202 1.9406 0
M  V30 68 C 6.1384 0.546528 3.42973 0
M  V30 69 C 5.0924 1.56375 3.9841 0
M  V30 70 C 4.4184 0.97842 5.25672 0
M  V30 71 C 5.7184 2.94922 4.31066 0
M  V30 72 H 7.4124 1.91276 2.30334 0
M  V30 73 H 4.9584 0.921073 1.1069 0
M  V30 74 H 6.9114 0.378839 4.19694 0
M  V30 75 H 5.6354 -0.413598 3.23971 0
M  V30 76 H 4.2944 1.71891 3.23804 0
M  V30 77 H 3.9424 0.0101688 5.02999 0
M  V30 78 H 3.6424 1.65784 5.63728 0
M  V30 79 H 5.1664 0.821939 6.05043 0
M  V30 80 H 6.5804 2.8288 4.9865 0
M  V30 81 H 4.9774 3.5983 4.80253 0
M  V30 82 H 6.0474 3.4616 3.39561 0
M  V30 83 N 7.3905 -1.2043 1.01659 0
M  V30 84 C 8.6385 -1.89423 0.704522 0
M  V30 85 C 8.9595 -1.79231 -0.768197 0
M  V30 86 O 8.2295 -1.1947 -1.55254 0
M  V30 87 H 6.8095 -0.701178 0.257602 0
M  V30 88 H 9.4715 -1.4626 1.28818 0
M  V30 89 H 8.5675 -2.96052 0.987916 0
M  V30 90 N 8.8686 -0.792821 -1.36206 0
M  V30 91 C 10.2796 -0.429513 -1.81692 0
M  V30 92 C 10.6306 1.04695 -1.65932 0
M  V30 93 O 9.7556 1.81256 -1.18218 0
M  V30 94 C 10.3506 -0.772831 -3.29868 0
M  V30 95 C 8.9096 -0.462307 -3.7355 0
M  V30 96 C 8.0566 -1.00569 -2.5842 0
M  V30 97 H 11.0076 -0.985672 -1.24379 0
M  V30 98 H 11.0286 -0.0651928 -3.80444 0
M  V30 99 H 10.5406 -1.84747 -3.41307 0
M  V30 100 H 8.6416 0.604158 -3.67669 0
M  V30 101 H 8.7546 -0.985299 -4.68859 0
M  V30 102 H 7.1186 -0.428734 -2.51066 0
M  V30 103 H 7.9016 -2.08616 -2.72643 0
M  V30 104 N 10.3467 1.47872 -0.545128 0
M  V30 105 C 11.3097 2.28337 0.198717 0
M  V30 106 C 12.3097 1.36255 0.853888 0
M  V30 107 O 13.4997 1.59003 0.711606 0
M  V30 108 C 10.6317 3.15585 1.28915 0
M  V30 109 H 11.8247 2.95567 -0.507941 0
M  V30 110 H 9.3777 1.53362 -0.301616 0
M  V30 111 H 10.1127 2.53019 2.02859 0
M  V30 112 H 9.8977 3.83337 0.824309 0
M  V30 113 H 11.3877 3.76243 1.81194 0
M  V30 114 N 11.8248 0.280983 1.55075 0
M  V30 115 C 13.0708 -0.33461 2.00021 0
M  V30 116 C 13.4038 -1.55063 1.16915 0
M  V30 117 O 12.6788 -1.93006 0.240646 0
M  V30 118 C 12.9618 -0.711007 3.53011 0
M  V30 119 C 12.8148 0.512766 4.46868 0
M  V30 120 C 14.1338 -1.54522 4.12081 0
M  V30 121 H 11.2528 -0.120147 0.727141 0
M  V30 122 H 13.8948 0.389097 1.85973 0
M  V30 123 H 12.0448 -1.32761 3.65112 0
M  V30 124 H 13.7168 1.15131 4.46702 0
M  V30 125 H 11.9598 1.14975 4.18286 0
M  V30 126 H 12.6308 0.205556 5.51617 0
M  V30 127 H 15.1068 -1.02442 4.03293 0
M  V30 128 H 13.9828 -1.77739 5.19327 0
M  V30 129 H 14.2438 -2.52813 3.62682 0
M  V30 130 N 13.3029 -1.57598 0.00835791 0
M  V30 131 C 14.5309 -1.95214 -0.68549 0
M  V30 132 C 14.9459 -0.883706 -1.66841 0
M  V30 133 O 14.3029 0.136565 -1.81988 0
M  V30 134 C 14.3539 -3.32865 -1.41007 0
M  V30 135 O 14.0749 -4.35609 -0.466552 0
M  V30 136 C 15.5759 -3.84991 -2.19765 0
M  V30 137 H 12.7959 -0.643422 -0.190392 0
M  V30 138 H 15.3399 -2.04406 0.0619607 0
M  V30 139 H 13.4949 -3.24956 -2.10908 0
M  V30 140 H 13.9089 -5.15288 -0.978699 0
M  V30 141 H 15.3829 -4.8371 -2.65948 0
M  V30 142 H 15.8599 -3.18137 -3.02796 0
M  V30 143 H 16.4659 -3.96103 -1.54864 0
M  V30 144 N 14.781 0.264519 -1.55364 0
M  V30 145 C 15.711 1.33121 -1.91836 0
M  V30 146 C 16.692 1.51101 -0.781192 0
M  V30 147 O 17.877 1.64003 -1.04003 0
M  V30 148 C 15.007 2.68921 -2.19769 0
M  V30 149 C 13.961 2.65661 -3.35571 0
M  V30 150 C 13.287 4.05093 -3.49004 0
M  V30 151 C 14.587 2.24187 -4.71739 0
M  V30 152 H 16.281 1.02844 -2.81182 0
M  V30 153 H 13.827 0.493286 -1.35287 0
M  V30 154 H 15.78 3.43663 -2.43872 0
M  V30 155 H 14.504 3.00799 -1.27231 0
M  V30 156 H 13.163 1.93377 -3.1145 0
M  V30 157 H 12.811 4.34206 -2.53917 0
M  V30 158 H 12.511 4.03804 -4.26868 0
M  V30 159 H 14.035 4.81561 -3.75408 0
M  V30 160 H 15.449 2.88654 -4.9533 0
M  V30 161 H 13.846 2.34044 -5.52579 0
M  V30 162 H 14.916 1.19327 -4.69988 0
M  V30 163 N 16.2591 1.48442 0.529413 0
M  V30 164 C 17.2221 1.62524 1.61612 0
M  V30 165 C 18.2221 0.498509 1.52877 0
M  V30 166 O 19.4121 0.76431 1.56537 0
M  V30 167 C 16.5441 1.59597 3.01233 0
M  V30 168 H 17.7371 2.59423 1.50465 0
M  V30 169 H 15.2901 1.37047 0.751514 0
M  V30 170 H 16.0251 0.641781 3.17886 0
M  V30 171 H 15.8101 2.41397 3.08982 0
M  V30 172 H 17.3001 1.72646 3.80241 0
M  V30 173 N 17.7372 -0.778329 1.37039 0
M  V30 174 C 18.6672 -1.90546 1.34962 0
M  V30 175 C 19.6482 -1.68681 0.219274 0
M  V30 176 O 20.8332 -1.89634 0.418624 0
M  V30 177 C 17.9632 -3.27734 1.14925 0
M  V30 178 C 16.9172 -3.64147 2.24902 0
M  V30 179 C 16.2432 -4.99806 1.89996 0
M  V30 180 C 17.5432 -3.71579 3.67051 0
M  V30 181 H 19.2372 -1.92541 2.29277 0
M  V30 182 H 16.7832 -0.924948 1.10366 0
M  V30 183 H 18.7362 -4.06215 1.12104 0
M  V30 184 H 17.4602 -3.26154 0.170631 0
M  V30 185 H 16.1192 -2.8797 2.26868 0
M  V30 186 H 15.7672 -4.94759 0.906796 0
M  V30 187 H 15.4672 -5.25139 2.63634 0
M  V30 188 H 16.9912 -5.80694 1.88749 0
M  V30 189 H 18.4052 -4.40227 3.67251 0
M  V30 190 H 16.8022 -4.08405 4.39688 0
M  V30 191 H 17.8722 -2.72404 4.01154 0
M  V30 192 N 19.2153 -1.21501 -1.00376 0
M  V30 193 C 20.4613 -1.03452 -1.74429 0
M  V30 194 C 20.7943 0.430764 -1.89362 0
M  V30 195 O 20.0693 1.31962 -1.42886 0
M  V30 196 C 20.3523 -1.73375 -3.15615 0
M  V30 197 C 20.2053 -3.27431 -3.08397 0
M  V30 198 C 21.5243 -1.47732 -4.14564 0
M  V30 199 H 18.6433 -0.377226 -0.633143 0
M  V30 200 H 21.2853 -1.49693 -1.17013 0
M  V30 201 H 19.4353 -1.34064 -3.64636 0
M  V30 202 H 21.1073 -3.76119 -2.67081 0
M  V30 203 H 19.3503 -3.5767 -2.45468 0
M  V30 204 H 20.0213 -3.71524 -4.08258 0
M  V30 205 H 22.4973 -1.8186 -3.74254 0
M  V30 206 H 21.3733 -1.99169 -5.11491 0
M  V30 207 H 21.6343 -0.407589 -4.40217 0
M  V30 208 N 20.6934 1.19889 -1.02296 0
M  V30 209 C 21.6234 2.25141 -0.619174 0
M  V30 210 C 22.6044 1.66051 0.368915 0
M  V30 211 O 23.7894 1.92546 0.252941 0
M  V30 212 C 20.9194 3.4728 0.0368783 0
M  V30 213 C 19.8734 4.19005 -0.872865 0
M  V30 214 C 19.1994 5.34637 -0.0822402 0
M  V30 215 C 20.4994 4.74452 -2.18387 0
M  V30 216 H 22.1934 2.59171 -1.49903 0
M  V30 217 H 19.7394 1.24579 -0.722222 0
M  V30 218 H 21.6924 4.20098 0.330958 0
M  V30 219 H 20.4164 3.12433 0.95149 0
M  V30 220 H 19.0754 3.48061 -1.15105 0
M  V30 221 H 18.7234 4.96034 0.83422 0
M  V30 222 H 18.4234 5.83557 -0.688149 0
M  V30 223 H 19.9474 6.10255 0.205238 0
M  V30 224 H 21.3614 5.39055 -1.95172 0
M  V30 225 H 19.7584 5.33834 -2.74119 0
M  V30 226 H 20.8284 3.92844 -2.84257 0
M  V30 227 N 22.1715 0.800033 1.35784 0
M  V30 228 C 23.4175 0.377901 1.99248 0
M  V30 229 C 23.7505 -1.05052 1.63333 0
M  V30 230 O 23.0255 -1.72768 0.893385 0
M  V30 231 C 23.3085 0.553922 3.55814 0
M  V30 232 C 23.1615 2.0268 4.01548 0
M  V30 233 C 24.4805 -0.0244802 4.40093 0
M  V30 234 H 21.5995 0.138782 0.723815 0
M  V30 235 H 24.2415 1.00835 1.61035 0
M  V30 236 H 22.3915 0.0172398 3.88496 0
M  V30 237 H 24.0635 2.62536 3.79305 0
M  V30 238 H 22.3065 2.5256 3.52698 0
M  V30 239 H 22.9775 2.10087 5.10458 0
M  V30 240 H 25.4535 0.433775 4.13833 0
M  V30 241 H 24.3295 0.128637 5.48749 0
M  V30 242 H 24.5905 -1.11758 4.27741 0
M  V30 243 N 23.6496 -1.47581 0.552962 0
M  V30 244 C 24.8956 -2.02782 0.0273648 0
M  V30 245 C 25.2286 -1.42687 -1.31734 0
M  V30 246 O 24.5036 -0.580897 -1.85623 0
M  V30 247 C 24.7866 -3.60031 -0.0702371 0
M  V30 248 C 24.6396 -4.30566 1.30126 0
M  V30 249 C 25.9586 -4.33028 -0.785771 0
M  V30 250 H 23.0776 -0.736912 0.0114185 0
M  V30 251 H 25.7196 -1.76056 0.714432 0
M  V30 252 H 23.8696 -3.82932 -0.655382 0
M  V30 253 H 25.5416 -4.19018 1.92929 0
M  V30 254 H 23.7846 -3.91086 1.87709 0
M  V30 255 H 24.4556 -5.39114 1.18573 0
M  V30 256 H 26.9316 -4.15095 -0.288982 0
M  V30 257 H 25.8076 -5.42695 -0.823013 0
M  V30 258 H 26.0686 -4.01945 -1.841 0
M  V30 259 N 25.1277 -0.289203 -1.54924 0
M  V30 260 C 26.0907 0.579144 -2.21762 0
M  V30 261 C 27.0907 1.07047 -1.1999 0
M  V30 262 O 28.2807 0.968384 -1.44803 0
M  V30 263 C 25.4127 1.80055 -2.8947 0
M  V30 264 H 26.6057 -0.00464908 -2.999 0
M  V30 265 H 24.1587 -0.0399306 -1.56249 0
M  V30 266 H 24.8937 2.42449 -2.15381 0
M  V30 267 H 24.6787 1.45602 -3.64064 0
M  V30 268 H 26.1687 2.41773 -3.40493 0
M  V30 269 N 26.6058 1.57591 -0.0167156 0
M  V30 270 C 27.8518 1.92399 0.659861 0
M  V30 271 C 28.2068 0.892561 1.70444 0
M  V30 272 O 27.4998 -0.0930755 1.91374 0
M  V30 273 C 27.6938 3.3172 1.33029 0
M  V30 274 C 27.5228 4.48319 0.352174 0
M  V30 275 C 26.2928 5.05281 -0.0434883 0
M  V30 276 C 28.4908 5.12831 -0.388474 0
M  V30 277 N 26.4728 6.05399 -1.01807 0
M  V30 278 C 27.8438 6.07934 -1.2172 0
M  V30 279 C 29.8988 4.95858 -0.450513 0
M  V30 280 C 28.6018 6.87891 -2.10235 0
M  V30 281 C 30.6278 5.76413 -1.32295 0
M  V30 282 C 29.9898 6.71123 -2.13948 0
M  V30 283 H 26.0888 0.752106 0.21415 0
M  V30 284 H 28.6728 1.94532 -0.0809846 0
M  V30 285 H 26.8438 3.3043 2.04134 0
M  V30 286 H 28.5758 3.5391 1.9629 0
M  V30 287 H 25.3308 4.7246 0.328384 0
M  V30 288 H 25.7548 6.60145 -1.50123 0
M  V30 289 H 30.3968 4.22472 0.166512 0
M  V30 290 H 28.1148 7.60591 -2.72997 0
M  V30 291 H 31.7008 5.65317 -1.37508 0
M  V30 292 H 30.5808 7.3237 -2.80364 0
M  V30 293 N 28.0839 -0.256276 1.55502 0
M  V30 294 C 29.0469 -1.30047 1.88734 0
M  V30 295 C 30.0469 -1.4154 0.763086 0
M  V30 296 O 31.2369 -1.40403 1.03115 0
M  V30 297 C 28.3689 -2.67953 2.10747 0
M  V30 298 H 29.5619 -1.01802 2.82093 0
M  V30 299 H 27.1149 -0.495134 1.4825 0
M  V30 300 H 27.8499 -3.01351 1.19825 0
M  V30 301 H 27.6349 -2.60993 2.92617 0
M  V30 302 H 29.1249 -3.43368 2.37673 0
M  V30 303 N 29.562 -1.4872 -0.521534 0
M  V30 304 C 30.79 -1.60843 -1.30142 0
M  V30 305 C 31.205 -0.271897 -1.86832 0
M  V30 306 O 30.562 0.739969 -1.66825 0
M  V30 307 C 30.613 -2.66155 -2.4463 0
M  V30 308 O 30.334 -3.94623 -1.90275 0
M  V30 309 C 31.835 -2.88795 -3.36322 0
M  V30 310 H 29.055 -0.542075 -0.395468 0
M  V30 311 H 31.599 -1.94609 -0.628285 0
M  V30 312 H 29.754 -2.35224 -3.07812 0
M  V30 313 H 30.168 -4.52468 -2.65279 0
M  V30 314 H 31.642 -3.66264 -4.12983 0
M  V30 315 H 32.119 -1.97934 -3.9207 0
M  V30 316 H 32.725 -3.21063 -2.78924 0
M  V30 317 N 31.0401 0.771051 -1.3745 0
M  V30 318 C 31.9501 1.91538 -1.35464 0
M  V30 319 C 32.9661 1.72134 -0.254123 0
M  V30 320 O 34.1421 1.95358 -0.489626 0
M  V30 321 C 31.2071 3.26671 -1.16134 0
M  V30 322 C 30.2681 3.58723 -2.35831 0
M  V30 323 C 29.5011 4.87409 -2.17413 0
M  V30 324 O 29.7241 5.58506 -1.15876 0
M  V30 325 O 28.6581 5.18539 -3.05615 0
M  V30 326 H 32.4841 1.96165 -2.31847 0
M  V30 327 H 30.0691 0.9139 -1.18187 0
M  V30 328 H 31.9511 4.07499 -1.07345 0
M  V30 329 H 30.6261 3.22894 -0.228251 0
M  V30 330 H 29.5331 2.78127 -2.50192 0
M  V30 331 H 30.8661 3.67243 -3.27709 0
M  V30 332 N 32.5182 1.22032 0.997298 0
M  V30 333 C 33.4482 1.01065 2.10495 0
M  V30 334 C 34.4292 -0.0669542 1.69968 0
M  V30 335 O 35.6142 0.0943987 1.9397 0
M  V30 336 C 32.7442 0.582874 3.42374 0
M  V30 337 C 31.6982 1.60592 3.96729 0
M  V30 338 C 31.0242 1.03412 5.24605 0
M  V30 339 C 32.3242 2.99478 4.27914 0
M  V30 340 H 34.0182 1.93708 2.28292 0
M  V30 341 H 31.5642 0.932761 1.09707 0
M  V30 342 H 33.5172 0.423332 4.19268 0
M  V30 343 H 32.2412 -0.379213 3.24391 0
M  V30 344 H 30.9002 1.75316 3.21963 0
M  V30 345 H 30.5482 0.063518 5.0296 0
M  V30 346 H 30.2482 1.71754 5.61938 0
M  V30 347 H 31.7722 0.886066 6.04137 0
M  V30 348 H 33.1862 2.88153 4.95622 0
M  V30 349 H 31.5832 3.64903 4.76409 0
M  V30 350 H 32.6532 3.49742 3.3587 0
M  V30 351 N 33.9963 -1.19345 1.0293 0
M  V30 352 C 34.9433 -2.2258 0.610464 0
M  V30 353 C 35.9133 -1.6179 -0.375946 0
M  V30 354 O 37.0983 -1.88844 -0.272511 0
M  V30 355 C 34.2383 -3.45085 -0.0321473 0
M  V30 356 C 33.3513 -4.20258 1.00035 0
M  V30 357 C 32.4863 -5.3019 0.32746 0
M  V30 358 C 31.5253 -5.97121 1.34584 0
M  V30 359 N 30.6623 -6.98615 0.698726 0
M  V30 360 H 35.5023 -2.57764 1.49538 0
M  V30 361 H 33.0393 -1.26644 0.748311 0
M  V30 362 H 34.9973 -4.15061 -0.421966 0
M  V30 363 H 33.6273 -3.10555 -0.88064 0
M  V30 364 H 32.6793 -3.49223 1.50823 0
M  V30 365 H 33.9913 -4.66175 1.77433 0
M  V30 366 H 33.1453 -6.06587 -0.11718 0
M  V30 367 H 31.8843 -4.85345 -0.478713 0
M  V30 368 H 30.8893 -5.19474 1.80074 0
M  V30 369 H 32.1143 -6.4405 2.15352 0
M  V30 370 H 30.0603 -6.55942 -0.0873471 0
M  V30 371 H 29.9773 -7.42724 1.41058 0
M  V30 372 H 31.2453 -7.79004 0.278102 0
M  V30 373 N 35.4744 -0.807222 -1.35358 0
M  V30 374 C 36.8854 -0.44876 -1.81226 0
M  V30 375 C 37.2364 1.02929 -1.67033 0
M  V30 376 O 36.3614 1.79991 -1.20133 0
M  V30 377 C 36.9564 -0.807774 -3.2903 0
M  V30 378 C 35.5154 -0.501901 -3.73039 0
M  V30 379 C 34.6624 -1.03304 -2.57339 0
M  V30 380 H 37.6134 -0.998808 -1.23327 0
M  V30 381 H 37.6344 -0.10554 -3.80354 0
M  V30 382 H 37.1464 -1.88357 -3.39328 0
M  V30 383 H 35.2474 0.565128 -3.68289 0
M  V30 384 H 35.3604 -1.03497 -4.67787 0
M  V30 385 H 33.7244 -0.455339 -2.50597 0
M  V30 386 H 34.5074 -2.11496 -2.70415 0
M  V30 387 N 36.9525 1.47285 -0.560781 0
M  V30 388 C 38.1805 2.06855 -0.0430262 0
M  V30 389 C 38.5955 1.41291 1.25229 0
M  V30 390 O 37.9525 0.510648 1.7521 0
M  V30 391 C 38.0035 3.61178 0.152518 0
M  V30 392 O 37.7245 4.24285 -1.0915 0
M  V30 393 C 39.2255 4.37624 0.707145 0
M  V30 394 H 36.4455 0.669319 -0.0474652 0
M  V30 395 H 38.9895 1.89237 -0.77521 0
M  V30 396 H 37.1445 3.78298 0.834843 0
M  V30 397 H 37.5585 5.16868 -0.891482 0
M  V30 398 H 39.0325 5.46271 0.793244 0
M  V30 399 H 39.5095 4.04152 1.71923 0
M  V30 400 H 40.1155 4.25257 0.0604027 0
M  V30 401 N 38.4306 0.297415 1.54768 0
M  V30 402 C 39.3936 -0.567375 2.22066 0
M  V30 403 C 40.3936 -1.06409 1.20556 0
M  V30 404 O 41.5836 -0.960691 1.45315 0
M  V30 405 C 38.7156 -1.78517 2.90421 0
M  V30 406 H 39.9086 0.0205534 2.99893 0
M  V30 407 H 37.4616 0.0482163 1.56226 0
M  V30 408 H 38.1966 -2.41303 2.16664 0
M  V30 409 H 37.9816 -1.43669 3.64831 0
M  V30 410 H 39.4716 -2.39964 3.41771 0
M  V30 411 N 39.9087 -1.5758 0.0250728 0
M  V30 412 C 41.3197 -1.79476 -0.514323 0
M  V30 413 C 41.6707 -0.934956 -1.72491 0
M  V30 414 O 40.7957 -0.144245 -2.15919 0
M  V30 415 C 41.3907 -3.25503 -0.939842 0
M  V30 416 C 39.9497 -3.48408 -1.42438 0
M  V30 417 C 39.0967 -2.74583 -0.387201 0
M  V30 418 H 42.0477 -1.567 0.25113 0
M  V30 419 H 42.0687 -3.34992 -1.80445 0
M  V30 420 H 41.5807 -3.88056 -0.0585628 0
M  V30 421 H 39.6817 -2.91103 -2.32572 0
M  V30 422 H 39.7947 -4.57119 -1.43455 0
M  V30 423 H 38.1587 -2.39942 -0.854409 0
M  V30 424 H 38.9417 -3.39849 0.485543 0
M  V30 425 N 41.3868 0.248026 -1.55636 0
M  V30 426 C 42.7978 0.817177 -1.67866 0
M  V30 427 C 43.1488 1.86069 -0.622322 0
M  V30 428 O 42.2738 2.15157 0.231618 0
M  V30 429 C 42.8688 1.489 -3.04326 0
M  V30 430 C 41.4278 2.00587 -3.185 0
M  V30 431 C 40.5748 0.856573 -2.63739 0
M  V30 432 H 43.5258 0.0238579 -1.58682 0
M  V30 433 H 43.5468 2.35698 -2.98708 0
M  V30 434 H 43.0588 0.729279 -3.81186 0
M  V30 435 H 41.1598 2.79443 -2.4646 0
M  V30 436 H 41.2728 2.20402 -4.25393 0
M  V30 437 H 39.6368 1.25678 -2.21534 0
M  V30 438 H 40.4198 0.109953 -3.43124 0
M  V30 439 N 42.8649 1.48995 0.513639 0
M  V30 440 C 44.1139 1.57093 1.2651 0
M  V30 441 C 44.4269 0.257091 1.93903 0
M  V30 442 O 45.6329 0.216478 2.70636 0
M  V30 443 C 44.0889 2.77118 2.29638 0
M  V30 444 C 43.6969 4.15209 1.68241 0
M  V30 445 C 45.4409 2.94538 3.05692 0
M  V30 446 C 43.3479 5.26474 2.69406 0
M  V30 447 H 42.2779 0.584876 0.475854 0
M  V30 448 H 44.9289 1.7536 0.540487 0
M  V30 449 H 43.3109 2.52319 3.05207 0
M  V30 450 H 44.4849 4.50094 0.987505 0
M  V30 451 H 42.7999 4.03042 1.04623 0
M  V30 452 H 45.3969 3.74832 3.8132 0
M  V30 453 H 45.7399 2.04614 3.62545 0
M  V30 454 H 46.2729 3.19316 2.37238 0
M  V30 455 H 43.0119 6.18417 2.17351 0
M  V30 456 H 42.5319 4.96058 3.37175 0
M  V30 457 H 44.2109 5.55277 3.32078 0
M  V30 458 N 44.343 -0.763751 1.37857 0
M  V30 459 C 45.59 -1.52257 1.33506 0
M  V30 460 C 45.918 -1.94343 -0.078022 0
M  V30 461 O 45.173 -1.64958 -1.05297 0
M  V30 462 C 45.472 -2.79499 2.22745 0
M  V30 463 C 45.138 -2.56426 3.70886 0
M  V30 464 C 43.8 -2.49842 4.11257 0
M  V30 465 C 46.152 -2.36008 4.64704 0
M  V30 466 C 43.48 -2.20841 5.43549 0
M  V30 467 C 45.832 -2.0853 5.97242 0
M  V30 468 C 44.496 -2.00396 6.36709 0
M  V30 469 H 43.766 -0.557149 0.488534 0
M  V30 470 H 46.413 -0.879073 1.70131 0
M  V30 471 H 44.718 -3.48447 1.79142 0
M  V30 472 H 46.415 -3.37413 2.16688 0
M  V30 473 H 43.005 -2.62416 3.38874 0
M  V30 474 H 47.189 -2.40079 4.34368 0
M  V30 475 H 42.445 -2.13045 5.73081 0
M  V30 476 H 46.619 -1.91732 6.69486 0
M  V30 477 H 44.246 -1.77688 7.39142 0
M  V30 478 N 45.8211 -1.22559 -0.990812 0
M  V30 479 C 47.0491 -1.07779 -1.76611 0
M  V30 480 C 47.4641 0.371513 -1.85109 0
M  V30 481 O 46.8211 1.25737 -1.32274 0
M  V30 482 C 46.8721 -1.68512 -3.19822 0
M  V30 483 O 46.5931 -3.07774 -3.1178 0
M  V30 484 C 48.0941 -1.59035 -4.13791 0
M  V30 485 H 45.3141 -0.377729 -0.554583 0
M  V30 486 H 47.8581 -1.62195 -1.24551 0
M  V30 487 H 46.0131 -1.18154 -3.68942 0
M  V30 488 H 46.4271 -3.37062 -4.01858 0
M  V30 489 H 47.9011 -2.0625 -5.1202 0
M  V30 490 H 48.3781 -0.547273 -4.35777 0
M  V30 491 H 48.9841 -2.08709 -3.70568 0
M  V30 492 N 47.2992 1.18797 -1.03562 0
M  V30 493 C 48.5472 1.88278 -0.734569 0
M  V30 494 C 48.8682 1.8043 0.739586 0
M  V30 495 O 48.1382 1.21925 1.53333 0
M  V30 496 H 46.7182 0.696991 -0.268725 0
M  V30 497 H 49.3802 1.44192 -1.31129 0
M  V30 498 H 48.4762 2.94443 -1.03489 0
M  V30 499 N 48.7773 0.814389 1.34928 0
M  V30 500 C 50.1933 0.499084 1.51596 0
M  V30 501 C 50.3933 -0.978319 1.76157 0
M  V30 502 O 49.4493 -1.76309 1.80752 0
M  V30 503 C 50.7623 1.35121 2.68631 0
M  V30 504 C 52.3103 1.34746 2.82511 0
M  V30 505 C 52.7853 2.18388 4.0258 0
M  V30 506 N 54.2763 2.15966 4.09772 0
M  V30 507 C 55.0113 2.77437 5.01813 0
M  V30 508 N 54.5073 3.47866 5.99134 0
M  V30 509 N 56.3003 2.67037 4.94619 0
M  V30 510 H 48.4513 1.7711 1.17243 0
M  V30 511 H 50.7143 0.754256 0.574284 0
M  V30 512 H 50.4203 2.40001 2.57085 0
M  V30 513 H 50.2943 1.00991 3.63429 0
M  V30 514 H 52.6813 0.30648 2.93504 0
M  V30 515 H 52.7623 1.72869 1.88547 0
M  V30 516 H 52.4063 3.2253 3.92347 0
M  V30 517 H 52.3363 1.77621 4.9574 0
M  V30 518 H 54.8273 1.64729 3.40107 0
M  V30 519 H 55.1403 3.92038 6.65977 0
M  V30 520 H 53.4853 3.51972 5.99284 0
M  V30 521 H 56.6763 2.11597 4.17546 0
M  V30 522 H 56.8493 3.15232 5.66156 0
M  V30 523 N 50.2554 -1.46986 0.568584 0
M  V30 524 C 51.6664 -1.86188 0.138219 0
M  V30 525 C 52.0174 -1.47388 -1.29504 0
M  V30 526 O 51.1424 -0.88219 -1.97602 0
M  V30 527 C 51.7374 -3.3792 0.244065 0
M  V30 528 C 50.2964 -3.76171 -0.131335 0
M  V30 529 C 49.4434 -2.71027 0.586465 0
M  V30 530 H 52.3944 -1.38342 0.777645 0
M  V30 531 H 52.4154 -3.76729 -0.534351 0
M  V30 532 H 51.9274 -3.66128 1.28731 0
M  V30 533 H 50.0284 -3.5358 -1.17526 0
M  V30 534 H 50.1414 -4.78523 0.235146 0
M  V30 535 H 48.5054 -2.54684 0.0282722 0
M  V30 536 H 49.2884 -3.02077 1.63109 0
M  V30 537 N 51.7335 -0.305618 -1.54608 0
M  V30 538 C 52.9805 0.302298 -2.00231 0
M  V30 539 C 53.3085 1.5354 -1.19398 0
M  V30 540 O 52.5635 1.93973 -0.259423 0
M  V30 541 C 52.8625 0.698983 -3.50498 0
M  V30 542 C 52.5285 -0.432903 -4.48817 0
M  V30 543 C 51.1905 -0.743622 -4.75419 0
M  V30 544 C 53.5425 -1.19409 -5.07337 0
M  V30 545 C 50.8705 -1.81857 -5.57804 0
M  V30 546 C 53.2225 -2.25899 -5.90891 0
M  V30 547 C 51.8865 -2.57572 -6.15803 0
M  V30 548 H 51.1565 0.110619 -0.732697 0
M  V30 549 H 53.8035 -0.425674 -1.86709 0
M  V30 550 H 52.1085 1.50711 -3.61654 0
M  V30 551 H 53.8055 1.1806 -3.83227 0
M  V30 552 H 50.3955 -0.18063 -4.28219 0
M  V30 553 H 54.5795 -0.967295 -4.86782 0
M  V30 554 H 49.8355 -2.06864 -5.75341 0
M  V30 555 H 54.0095 -2.85335 -6.35261 0
M  V30 556 H 51.6365 -3.40998 -6.7943 0
M  V30 557 N 53.2116 1.57565 -0.0334293 0
M  V30 558 C 54.4576 1.92262 0.645226 0
M  V30 559 C 54.7906 0.910543 1.71531 0
M  V30 560 O 54.0656 -0.066099 1.94388 0
M  V30 561 C 54.3486 3.37422 1.2577 0
M  V30 562 C 54.2016 4.49369 0.196891 0
M  V30 563 C 55.5206 3.82628 2.17449 0
M  V30 564 H 52.6396 0.699171 0.233085 0
M  V30 565 H 55.2816 1.89779 -0.0915694 0
M  V30 566 H 53.4316 3.39669 1.88566 0
M  V30 567 H 55.1036 4.59254 -0.433962 0
M  V30 568 H 53.3466 4.31168 -0.477137 0
M  V30 569 H 54.0176 5.47978 0.665124 0
M  V30 570 H 56.4936 3.82145 1.64634 0
M  V30 571 H 55.3696 4.84883 2.57254 0
M  V30 572 H 55.6306 3.18376 3.0674 0
M  V30 573 N 54.6897 -0.239769 1.55765 0
M  V30 574 C 55.9357 -0.968234 1.78194 0
M  V30 575 C 56.2687 -1.84701 0.599938 0
M  V30 576 O 55.5437 -1.9031 -0.401524 0
M  V30 577 C 55.8267 -1.8227 3.10564 0
M  V30 578 C 55.6797 -0.971633 4.3918 0
M  V30 579 C 56.9987 -2.80388 3.39221 0
M  V30 580 H 54.1177 -0.350572 0.648281 0
M  V30 581 H 56.7597 -0.238259 1.885 0
M  V30 582 H 54.9097 -2.44507 3.01908 0
M  V30 583 H 56.5817 -0.367408 4.59835 0
M  V30 584 H 54.8247 -0.276276 4.32919 0
M  V30 585 H 55.4957 -1.60346 5.28198 0
M  V30 586 H 57.9717 -2.28287 3.47885 0
M  V30 587 H 56.8477 -3.3729 4.33044 0
M  V30 588 H 57.1087 -3.57212 2.60484 0
M  V30 589 N 56.1678 -1.49265 -0.50573 0
M  V30 590 C 57.1308 -1.65075 -1.59006 0
M  V30 591 C 58.1308 -0.522768 -1.52065 0
M  V30 592 O 59.3208 -0.789117 -1.55302 0
M  V30 593 C 56.4528 -1.64369 -2.98656 0
M  V30 594 H 57.6458 -2.61784 -1.46319 0
M  V30 595 H 55.1988 -1.38226 -0.729616 0
M  V30 596 H 55.9338 -0.692272 -3.16825 0
M  V30 597 H 55.7188 -2.46282 -3.05103 0
M  V30 598 H 57.2088 -1.78674 -3.77446 0
M  V30 599 N 57.6459 0.756429 -1.3826 0
M  V30 600 C 58.8919 1.5168 -1.35517 0
M  V30 601 C 59.2469 1.9232 0.0554451 0
M  V30 602 O 58.5399 1.62352 1.01746 0
M  V30 603 C 58.7339 2.78313 -2.24224 0
M  V30 604 C 58.5629 2.50053 -3.7377 0
M  V30 605 C 57.3329 2.43414 -4.42807 0
M  V30 606 C 59.5309 2.1702 -4.66269 0
M  V30 607 N 57.5129 2.07398 -5.77805 0
M  V30 608 C 58.8839 1.91271 -5.89759 0
M  V30 609 C 60.9389 2.03305 -4.54501 0
M  V30 610 C 59.6419 1.53192 -7.02798 0
M  V30 611 C 61.6679 1.66627 -5.67441 0
M  V30 612 C 61.0299 1.4175 -6.8999 0
M  V30 613 H 57.1289 0.554735 -0.551174 0
M  V30 614 H 59.7129 0.881106 -1.73622 0
M  V30 615 H 57.8839 3.39696 -1.88311 0
M  V30 616 H 59.6159 3.44343 -2.12627 0
M  V30 617 H 56.3709 2.59789 -3.95988 0
M  V30 618 H 56.7949 1.92044 -6.4919 0
M  V30 619 H 61.4369 2.21215 -3.60311 0
M  V30 620 H 59.1549 1.34022 -7.96909 0
M  V30 621 H 62.7409 1.56652 -5.60314 0
M  V30 622 H 61.6209 1.1379 -7.759 0
M  V30 623 N 59.124 1.23083 0.984299 0
M  V30 624 C 60.401 0.9689 1.69917 0
M  V30 625 C 60.781 -0.513604 2.04757 0
M  V30 626 O 60.129 -1.48383 1.73767 0
M  V30 627 C 60.339 1.87518 2.94343 0
M  V30 628 C 61.687 2.13636 3.6694 0
M  V30 629 O 62.711 1.85036 3.04368 0
M  V30 630 O 61.57 2.62119 4.79537 0
M  V30 631 H 58.664 0.365095 0.742048 0
M  V30 632 H 61.21 1.34107 1.03987 0
M  V30 633 H 59.982 2.87756 2.65164 0
M  V30 634 H 59.605 1.50514 3.6801 0
M  V30 635 N 60.6021 -1.18246 1.0419 0
M  V30 636 C 61.8481 -1.88536 0.747122 0
M  V30 637 C 62.1811 -1.80223 -0.723409 0
M  V30 638 O 61.4561 -1.20337 -1.52804 0
M  V30 639 C 61.7391 -3.38968 1.21544 0
M  V30 640 C 61.5921 -3.56084 2.74816 0
M  V30 641 C 62.9111 -4.32648 0.806482 0
M  V30 642 H 60.0301 -0.684619 0.272883 0
M  V30 643 H 62.6721 -1.39113 1.29413 0
M  V30 644 H 60.8221 -3.8119 0.750081 0
M  V30 645 H 62.4941 -3.22946 3.29399 0
M  V30 646 H 60.7371 -2.98699 3.14582 0
M  V30 647 H 61.4081 -4.61639 3.02644 0
M  V30 648 H 63.8841 -3.98211 1.20695 0
M  V30 649 H 62.7601 -5.36462 1.1619 0
M  V30 650 H 63.0211 -4.41146 -0.29029 0
M  V30 651 N 62.0802 -0.821533 -1.34494 0
M  V30 652 C 63.4912 -0.467956 -1.8074 0
M  V30 653 C 63.8422 1.01151 -1.68116 0
M  V30 654 O 62.9672 1.78707 -1.22036 0
M  V30 655 C 63.5622 -0.842627 -3.28154 0
M  V30 656 C 62.1212 -0.541439 -3.72485 0
M  V30 657 C 61.2682 -1.06028 -2.56229 0
M  V30 658 H 64.2192 -1.01183 -1.22261 0
M  V30 659 H 64.2402 -0.145876 -3.8022 0
M  V30 660 H 63.7522 -1.91945 -3.37311 0
M  V30 661 H 61.8532 0.526034 -3.68868 0
M  V30 662 H 61.9662 -1.08453 -4.66663 0
M  V30 663 H 60.3302 -0.481892 -2.501 0
M  V30 664 H 61.1132 -2.14352 -2.68157 0
M  V30 665 N 63.5583 1.46682 -0.576371 0
M  V30 666 C 64.7863 2.06798 -0.0649635 0
M  V30 667 C 65.2013 1.42612 1.23723 0
M  V30 668 O 64.5583 0.529203 1.74659 0
M  V30 669 C 64.6093 3.6132 0.114202 0
M  V30 670 O 64.3303 4.23104 -1.13644 0
M  V30 671 C 65.8313 4.38349 0.66069 0
M  V30 672 H 63.0513 0.668778 -0.0545616 0
M  V30 673 H 65.5953 1.88404 -0.795237 0
M  V30 674 H 63.7503 3.79162 0.794673 0
M  V30 675 H 64.1643 5.15894 -0.946253 0
M  V30 676 H 65.6383 5.47081 0.73526 0
M  V30 677 H 66.1153 4.05953 1.67627 0
M  V30 678 H 66.7213 4.25297 0.0152951 0
M  V30 679 N 65.0364 0.313813 1.54444 0
M  V30 680 C 65.9684 -0.590425 2.21465 0
M  V30 681 C 66.9814 -1.08753 1.21147 0
M  V30 682 O 68.1704 -1.00278 1.4767 0
M  V30 683 C 65.2704 -1.82179 2.85769 0
M  V30 684 C 64.4434 -1.46502 4.12136 0
M  V30 685 C 63.5024 -2.55288 4.60124 0
M  V30 686 O 62.5284 -2.19842 5.25032 0
M  V30 687 N 63.7304 -3.86053 4.33525 0
M  V30 688 H 66.4954 -0.0166033 2.99695 0
M  V30 689 H 64.0564 0.136578 1.61323 0
M  V30 690 H 66.0484 -2.54328 3.14801 0
M  V30 691 H 64.6184 -2.30369 2.11303 0
M  V30 692 H 63.8384 -0.575595 3.89975 0
M  V30 693 H 65.1264 -1.20221 4.94393 0
M  V30 694 H 64.5244 -4.17654 3.81552 0
M  V30 695 H 63.0814 -4.54461 4.67235 0
M  V30 696 N 66.5145 -1.57545 0.0417849 0
M  V30 697 C 67.7915 -1.83642 -0.673433 0
M  V30 698 C 68.1715 -0.928298 -1.89594 0
M  V30 699 O 67.5195 0.0129955 -2.28496 0
M  V30 700 C 67.7295 -3.33155 -1.03964 0
M  V30 701 C 69.0775 -3.99941 -1.42592 0
M  V30 702 O 70.1015 -3.37725 -1.13226 0
M  V30 703 O 68.9605 -5.09619 -1.9736 0
M  V30 704 H 66.0545 -0.757638 -0.331533 0
M  V30 705 H 68.6005 -1.69554 0.070433 0
M  V30 706 H 67.3725 -3.9093 -0.170098 0
M  V30 707 H 66.9955 -3.52396 -1.84126 0
M  V30 708 N 67.9926 0.231505 -1.5589 0
M  V30 709 C 69.2326 0.964533 -1.80211 0
M  V30 710 C 69.5966 1.81926 -0.613744 0
M  V30 711 O 70.7976 2.58526 -0.736045 0
M  V30 712 C 69.0686 1.78956 -3.09369 0
M  V30 713 S 70.6276 2.57959 -3.54969 0
M  V30 714 H 67.4456 0.324173 -0.632798 0
M  V30 715 H 70.0476 0.230985 -1.94131 0
M  V30 716 H 68.7516 1.15161 -3.93911 0
M  V30 717 H 68.2826 2.56559 -2.9823 0
M  V30 718 H 70.2976 3.81309 -3.17519 0
M  V30 719 N 69.4707 1.49531 0.497807 0
M  V30 720 C 70.7187 1.58865 1.24926 0
M  V30 721 C 71.0397 0.278721 1.92998 0
M  V30 722 O 70.3097 -0.702144 1.82885 0
M  V30 723 H 68.8897 0.585343 0.464094 0
M  V30 724 H 71.5517 1.86174 0.57666 0
M  V30 725 H 70.6477 2.38633 2.01149 0
M  V30 726 N 70.9488 -0.749086 1.3866 0
M  V30 727 C 72.3598 -1.32664 1.31366 0
M  V30 728 C 72.7108 -1.96179 -0.028484 0
M  V30 729 O 71.8358 -1.9537 -0.93057 0
M  V30 730 C 72.4308 -2.41219 2.37905 0
M  V30 731 C 70.9898 -2.94684 2.34176 0
M  V30 732 C 70.1368 -1.68108 2.20533 0
M  V30 733 H 73.0878 -0.547628 1.48952 0
M  V30 734 H 73.1088 -3.21268 2.0388 0
M  V30 735 H 72.6208 -1.94962 3.35576 0
M  V30 736 H 70.7218 -3.45258 1.401 0
M  V30 737 H 70.8348 -3.48757 3.2849 0
M  V30 738 H 69.1988 -1.91907 1.67463 0
M  V30 739 H 69.9818 -1.23923 3.20153 0
M  V30 740 N 72.4269 -1.23603 -0.977757 0
M  V30 741 C 73.8429 -0.999251 -1.24447 0
M  V30 742 C 74.0429 0.298053 -1.99283 0
M  V30 743 O 73.0989 1.01681 -2.31122 0
M  V30 744 C 74.4119 -2.20784 -2.04144 0
M  V30 745 C 75.9599 -2.25303 -2.17273 0
M  V30 746 C 76.4349 -3.45755 -3.00362 0
M  V30 747 N 77.9259 -3.4601 -3.07947 0
M  V30 748 C 78.6609 -4.35868 -3.72568 0
M  V30 749 N 78.1569 -5.35966 -4.38991 0
M  V30 750 N 79.9499 -4.23605 -3.6948 0
M  V30 751 H 72.1009 -2.06986 -0.476483 0
M  V30 752 H 74.3639 -0.907801 -0.273134 0
M  V30 753 H 74.0699 -3.14945 -1.56533 0
M  V30 754 H 73.9439 -2.22085 -3.04891 0
M  V30 755 H 76.3309 -1.3168 -2.64092 0
M  V30 756 H 76.4119 -2.28033 -1.15907 0
M  V30 757 H 76.0559 -4.39687 -2.5424 0
M  V30 758 H 75.9859 -3.40266 -4.01904 0
M  V30 759 H 78.4769 -2.73588 -2.60688 0
M  V30 760 H 78.7899 -6.00783 -4.86086 0
M  V30 761 H 77.1349 -5.39863 -4.37691 0
M  V30 762 H 80.3259 -3.44647 -3.16759 0
M  V30 763 H 80.4989 -4.93836 -4.1956 0
M  V30 764 N 73.905 1.17692 -1.04816 0
M  V30 765 C 74.855 2.1952 -0.616042 0
M  V30 766 C 75.839 1.57147 0.345485 0
M  V30 767 O 77.031 1.76245 0.163325 0
M  V30 768 C 74.16 3.43298 0.0116917 0
M  V30 769 C 73.246 4.12777 -0.973435 0
M  V30 770 N 73.637 4.5814 -2.14339 0
M  V30 771 C 71.935 4.38747 -0.80108 0
M  V30 772 C 72.636 5.11713 -2.7663 0
M  V30 773 N 71.612 5.03686 -2.04453 0
M  V30 774 H 75.414 2.52293 -1.5075 0
M  V30 775 H 72.928 1.3398 -0.917776 0
M  V30 776 H 74.925 4.15519 0.339006 0
M  V30 777 H 73.585 3.12018 0.898593 0
M  V30 778 H 74.596 4.52349 -2.52191 0
M  V30 779 H 71.273 4.17485 0.0350934 0
M  V30 780 H 72.663 5.56962 -3.75823 0
M  V30 781 N 75.3831 0.828654 1.34056 0
M  V30 782 C 76.3301 0.252567 2.29414 0
M  V30 783 C 77.3001 -0.62588 1.53857 0
M  V30 784 O 78.4851 -0.566312 1.82202 0
M  V30 785 C 75.6251 -0.574831 3.40279 0
M  V30 786 C 74.7381 0.326499 4.30764 0
M  V30 787 C 73.8731 -0.511016 5.28736 0
M  V30 788 C 72.9121 0.389342 6.1086 0
M  V30 789 N 72.0491 -0.409439 7.00905 0
M  V30 790 H 76.8891 1.07108 2.78086 0
M  V30 791 H 74.4261 0.539677 1.36843 0
M  V30 792 H 76.3841 -1.06992 4.03248 0
M  V30 793 H 75.0141 -1.35841 2.92826 0
M  V30 794 H 74.0661 0.939837 3.68607 0
M  V30 795 H 75.3781 1.01857 4.88289 0
M  V30 796 H 74.5321 -1.07035 5.97184 0
M  V30 797 H 73.2711 -1.23657 4.71763 0
M  V30 798 H 72.2761 0.960769 5.4134 0
M  V30 799 H 73.5011 1.1131 6.69916 0
M  V30 800 H 71.4471 -1.11856 6.46393 0
M  V30 801 H 71.3641 0.224126 7.55668 0
M  V30 802 H 72.6321 -0.951336 7.73673 0
M  V30 803 N 76.8612 -1.46375 0.584142 0
M  V30 804 C 77.7942 -2.27351 -0.196676 0
M  V30 805 C 78.7722 -1.35715 -0.895561 0
M  V30 806 O 79.9562 -1.65126 -0.90916 0
M  V30 807 C 77.0832 -3.13486 -1.28235 0
M  V30 808 C 76.1292 -4.20896 -0.689145 0
M  V30 809 S 76.9622 -5.33299 0.48507 0
M  V30 810 C 78.1182 -6.23 -0.601767 0
M  V30 811 H 78.3512 -2.93228 0.490395 0
M  V30 812 H 75.8842 -1.49875 0.371071 0
M  V30 813 H 77.8422 -3.63676 -1.90395 0
M  V30 814 H 76.5032 -2.4692 -1.94138 0
M  V30 815 H 75.6962 -4.80997 -1.50527 0
M  V30 816 H 75.2982 -3.73726 -0.143181 0
M  V30 817 H 77.5902 -6.60979 -1.48705 0
M  V30 818 H 78.5332 -7.0809 -0.0374799 0
M  V30 819 H 78.9412 -5.57173 -0.906557 0
M  V30 820 N 78.3393 -0.321999 -1.54275 0
M  V30 821 C 79.7503 0.166384 -1.85957 0
M  V30 822 C 80.1013 1.51747 -1.24367 0
M  V30 823 O 79.2263 2.09317 -0.549124 0
M  V30 824 C 79.8213 0.308681 -3.37391 0
M  V30 825 C 78.3803 0.741286 -3.69028 0
M  V30 826 C 77.5273 -0.137937 -2.76957 0
M  V30 827 H 80.4783 -0.542335 -1.49146 0
M  V30 828 H 80.4993 1.13984 -3.63026 0
M  V30 829 H 80.0113 -0.674809 -3.82188 0
M  V30 830 H 78.1123 1.73458 -3.29762 0
M  V30 831 H 78.2253 0.546118 -4.75977 0
M  V30 832 H 76.5893 0.386251 -2.51754 0
M  V30 833 H 77.3723 -1.11816 -3.2458 0
M  V30 834 N 79.8174 1.5752 -0.0501392 0
M  V30 835 C 80.7474 2.14502 0.922566 0
M  V30 836 C 81.7284 1.06642 1.3252 0
M  V30 837 O 82.9134 1.34577 1.4001 0
M  V30 838 C 80.0434 2.68916 2.19776 0
M  V30 839 C 78.9974 3.8175 1.93523 0
M  V30 840 C 78.3234 4.22677 3.27487 0
M  V30 841 C 79.6234 5.06932 1.25765 0
M  V30 842 H 81.3174 2.9603 0.447952 0
M  V30 843 H 78.8634 1.42401 0.214024 0
M  V30 844 H 80.8164 3.07419 2.88222 0
M  V30 845 H 79.5404 1.84578 2.69441 0
M  V30 846 H 78.1994 3.43718 1.27489 0
M  V30 847 H 77.8474 3.35291 3.74952 0
M  V30 848 H 77.5474 4.98725 3.1072 0
M  V30 849 H 79.0714 4.63779 3.97166 0
M  V30 850 H 80.4854 5.42888 1.84244 0
M  V30 851 H 78.8824 5.88116 1.19328 0
M  V30 852 H 79.9524 4.84337 0.233536 0
M  V30 853 N 81.2955 -0.223234 1.56011 0
M  V30 854 C 82.5725 -0.972108 1.69733 0
M  V30 855 C 82.9525 -2.02485 0.59691 0
M  V30 856 O 82.3005 -2.25037 -0.396324 0
M  V30 857 C 82.5105 -1.58407 3.10979 0
M  V30 858 C 83.8585 -2.07696 3.70334 0
M  V30 859 O 84.8825 -1.68304 3.1393 0
M  V30 860 O 83.7415 -2.80096 4.69264 0
M  V30 861 H 80.8355 -0.453993 0.691245 0
M  V30 862 H 83.3815 -0.215149 1.68331 0
M  V30 863 H 82.1535 -0.823831 3.82529 0
M  V30 864 H 81.7765 -2.40661 3.16493 0
M  V30 865 N 82.7736 -1.49793 -0.48987 0
M  V30 866 C 84.1846 -1.52914 -1.07118 0
M  V30 867 C 84.5356 -0.321738 -1.93544 0
M  V30 868 O 83.6606 0.567338 -2.08831 0
M  V30 869 C 84.2556 -2.771 -1.94938 0
M  V30 870 C 82.8146 -2.82963 -2.48212 0
M  V30 871 C 81.9616 -2.46972 -1.26096 0
M  V30 872 H 84.9126 -1.56329 -0.273289 0
M  V30 873 H 84.9336 -2.57892 -2.79771 0
M  V30 874 H 84.4456 -3.64959 -1.32009 0
M  V30 875 H 82.5466 -1.99411 -3.14748 0
M  V30 876 H 82.6596 -3.85406 -2.84603 0
M  V30 877 H 81.0236 -1.98994 -1.58976 0
M  V30 878 H 81.8066 -3.37118 -0.648581 0
M  V30 879 N 84.2517 0.741722 -1.39055 0
M  V30 880 C 85.1987 1.85566 -1.37237 0
M  V30 881 C 86.1687 1.64457 -0.233072 0
M  V30 882 O 87.3537 1.85957 -0.427147 0
M  V30 883 C 84.4937 3.23004 -1.215 0
M  V30 884 C 83.6067 3.55864 -2.44918 0
M  V30 885 C 82.7417 4.82669 -2.21821 0
M  V30 886 C 81.7807 5.08351 -3.40948 0
M  V30 887 N 80.9177 6.26356 -3.17211 0
M  V30 888 H 85.7577 1.86455 -2.32462 0
M  V30 889 H 83.2947 0.911176 -1.15482 0
M  V30 890 H 85.2527 4.02331 -1.10389 0
M  V30 891 H 83.8827 3.21411 -0.29908 0
M  V30 892 H 82.9347 2.7129 -2.66657 0
M  V30 893 H 84.2467 3.70765 -3.33668 0
M  V30 894 H 83.4007 5.69962 -2.07914 0
M  V30 895 H 82.1397 4.69929 -1.30454 0
M  V30 896 H 81.1447 4.19522 -3.55361 0
M  V30 897 H 82.3697 5.22981 -4.33207 0
M  V30 898 H 80.3157 6.14917 -2.28502 0
M  V30 899 H 80.2327 6.41813 -3.99515 0
M  V30 900 H 81.5007 7.16506 -3.06984 0
M  V30 901 N 85.7298 1.2412 0.971189 0
M  V30 902 C 87.0068 0.986867 1.6888 0
M  V30 903 C 87.3868 -0.491857 2.0529 0
M  V30 904 O 86.7348 -1.46531 1.75331 0
M  V30 905 C 86.9448 1.9063 2.92338 0
M  V30 906 C 88.2928 2.17515 3.64654 0
M  V30 907 O 89.3168 1.88254 3.02388 0
M  V30 908 O 88.1758 2.6719 4.7673 0
M  V30 909 H 85.2698 0.372944 0.738134 0
M  V30 910 H 87.8158 1.35203 1.02559 0
M  V30 911 H 86.5878 2.90552 2.62097 0
M  V30 912 H 86.2108 1.54408 3.66393 0
M  V30 913 N 87.2079 -1.17134 1.05439 0
M  V30 914 C 88.1409 -2.2012 0.601855 0
M  V30 915 C 89.1189 -1.58314 -0.370854 0
M  V30 916 O 90.3029 -1.8638 -0.281882 0
M  V30 917 C 87.4299 -3.38491 -0.118868 0
M  V30 918 C 86.4759 -4.18752 0.809242 0
M  V30 919 S 87.3089 -4.83602 2.29977 0
M  V30 920 C 88.4649 -6.0536 1.59029 0
M  V30 921 H 88.6979 -2.58165 1.47438 0
M  V30 922 H 86.2309 -1.27788 0.866573 0
M  V30 923 H 88.1889 -4.07084 -0.528495 0
M  V30 924 H 86.8499 -2.98829 -0.967465 0
M  V30 925 H 86.0429 -5.03373 0.251379 0
M  V30 926 H 85.6449 -3.5561 1.15835 0
M  V30 927 H 87.9369 -6.71615 0.891017 0
M  V30 928 H 88.8799 -6.65679 2.41407 0
M  V30 929 H 89.2879 -5.54138 1.07663 0
M  V30 930 N 88.686 -0.835752 -1.33615 0
M  V30 931 C 89.633 -0.26473 -2.29277 0
M  V30 932 C 90.603 0.617712 -1.54187 0
M  V30 933 O 91.788 0.556641 -1.825 0
M  V30 934 C 88.928 0.556777 -3.40579 0
M  V30 935 C 88.041 -0.349339 -4.30585 0
M  V30 936 C 87.176 0.482969 -5.29 0
M  V30 937 C 86.215 -0.421732 -6.10645 0
M  V30 938 N 85.352 0.372262 -7.01112 0
M  V30 939 H 90.192 -1.08582 -2.77514 0
M  V30 940 H 87.729 -0.546927 -1.36554 0
M  V30 941 H 89.687 1.04852 -4.03809 0
M  V30 942 H 88.317 1.34286 -2.93542 0
M  V30 943 H 87.369 -0.959372 -3.68104 0
M  V30 944 H 88.681 -1.04445 -4.87742 0
M  V30 945 H 87.835 1.03866 -5.97743 0
M  V30 946 H 86.574 1.21153 -4.72412 0
M  V30 947 H 85.579 -0.989464 -5.40823 0
M  V30 948 H 86.804 -1.14861 -6.69316 0
M  V30 949 H 84.75 1.08426 -6.46977 0
M  V30 950 H 84.667 -0.264198 -7.55538 0
M  V30 951 H 85.935 0.910293 -7.74167 0
M  V30 952 N 90.1641 1.46063 -0.591896 0
M  V30 953 C 91.1271 2.28854 0.125973 0
M  V30 954 C 92.1271 1.38903 0.810107 0
M  V30 955 O 93.3171 1.61186 0.66066 0
M  V30 956 C 90.4491 3.19526 1.1881 0
M  V30 957 H 91.6421 2.93802 -0.601717 0
M  V30 958 H 89.1951 1.52325 -0.350254 0
M  V30 959 H 89.9301 2.59345 1.94707 0
M  V30 960 H 89.7151 3.85766 0.701936 0
M  V30 961 H 91.2051 3.81817 1.69132 0
M  V30 962 N 91.6422 0.330177 1.54103 0
M  V30 963 C 92.8892 -0.270405 2.00686 0
M  V30 964 C 93.2172 -1.51621 1.21825 0
M  V30 965 O 92.4722 -1.93536 0.29025 0
M  V30 966 C 92.7712 -0.643134 3.51566 0
M  V30 967 C 92.4372 0.504251 4.48072 0
M  V30 968 C 91.0992 0.819163 4.74176 0
M  V30 969 C 93.4512 1.27465 5.05373 0
M  V30 970 C 90.7792 1.90708 5.5484 0
M  V30 971 C 93.1312 2.35271 5.87223 0
M  V30 972 C 91.7952 2.67336 6.11627 0
M  V30 973 H 91.0652 -0.0989482 0.734364 0
M  V30 974 H 93.7122 0.455324 1.86008 0
M  V30 975 H 92.0172 -1.44938 3.64006 0
M  V30 976 H 93.7142 -1.11949 3.85056 0
M  V30 977 H 90.3042 0.248733 4.27878 0
M  V30 978 H 94.4882 1.04462 4.85182 0
M  V30 979 H 89.7442 2.15991 5.71977 0
M  V30 980 H 93.9182 2.95405 6.30641 0
M  V30 981 H 91.5452 3.51763 6.73919 0
M  V30 982 N 93.1203 -1.57491 0.0584922 0
M  V30 983 C 94.3973 -1.84346 -0.653918 0
M  V30 984 C 94.7773 -0.948355 -1.88599 0
M  V30 985 O 94.1253 -0.0112403 -2.28497 0
M  V30 986 C 94.3353 -3.34239 -1.00425 0
M  V30 987 C 95.6833 -4.01431 -1.38342 0
M  V30 988 O 96.7073 -3.38907 -1.09637 0
M  V30 989 O 95.5663 -5.11683 -1.91943 0
M  V30 990 H 92.6603 -0.761112 -0.323478 0
M  V30 991 H 95.2063 -1.6947 0.0884125 0
M  V30 992 H 93.9783 -3.91089 -0.128625 0
M  V30 993 H 93.6013 -3.54329 -1.80378 0
M  V30 994 N 94.5984 0.214957 -1.56127 0
M  V30 995 C 95.8444 0.939762 -1.79712 0
M  V30 996 C 96.1774 1.83723 -0.629247 0
M  V30 997 O 95.4524 1.90925 0.371197 0
M  V30 998 C 95.7354 1.77306 -3.13424 0
M  V30 999 C 95.5884 0.90164 -4.40671 0
M  V30 1000 C 96.9074 2.74956 -3.43638 0
M  V30 1001 H 94.0264 0.340214 -0.653776 0
M  V30 1002 H 96.6684 0.20824 -1.88855 0
M  V30 1003 H 94.8184 2.39673 -3.0576 0
M  V30 1004 H 96.4904 0.294206 -4.60361 0
M  V30 1005 H 94.7334 0.207368 -4.33304 0
M  V30 1006 H 95.4044 1.51923 -5.30682 0
M  V30 1007 H 97.8804 2.22724 -3.51473 0
M  V30 1008 H 96.7564 3.30358 -4.38355 0
M  V30 1009 H 97.0174 3.53023 -2.66134 0
M  V30 1010 N 96.0765 1.50051 0.48192 0
M  V30 1011 C 97.0085 1.64263 1.59844 0
M  V30 1012 C 98.0215 0.52451 1.54119 0
M  V30 1013 O 99.2105 0.797293 1.59704 0
M  V30 1014 C 96.3105 1.60102 2.98698 0
M  V30 1015 C 95.4835 2.87767 3.29407 0
M  V30 1016 C 94.5425 2.76397 4.47762 0
M  V30 1017 O 93.5685 3.50348 4.48603 0
M  V30 1018 N 94.7705 1.89222 5.48794 0
M  V30 1019 H 97.5355 2.60566 1.48073 0
M  V30 1020 H 95.0965 1.47379 0.670149 0
M  V30 1021 H 97.0885 1.50123 3.75826 0
M  V30 1022 H 95.6585 0.715798 3.04294 0
M  V30 1023 H 94.8785 3.11954 2.40994 0
M  V30 1024 H 96.1665 3.72365 3.4673 0
M  V30 1025 H 95.5645 1.28434 5.50928 0
M  V30 1026 H 94.1215 1.85154 6.24949 0
M  V30 1027 N 97.5546 -0.734337 1.39446 0
M  V30 1028 C 98.5176 -1.83004 1.37994 0
M  V30 1029 C 99.5176 -1.58397 0.276938 0
M  V30 1030 O 100.708 -1.65785 0.534875 0
M  V30 1031 C 97.8396 -3.20802 1.1532 0
M  V30 1032 H 99.0326 -1.85694 2.35494 0
M  V30 1033 H 96.5856 -0.938059 1.25021 0
M  V30 1034 H 97.3206 -3.23772 0.185036 0
M  V30 1035 H 97.1056 -3.4006 1.95197 0
M  V30 1036 H 98.5956 -4.00862 1.17046 0
M  V30 1037 N 99.0327 -1.24633 -0.964593 0
M  V30 1038 C 100.258 -1.11596 -1.74818 0
M  V30 1039 C 100.683 0.32723 -1.85232 0
M  V30 1040 O 100.041 1.23695 -1.32549 0
M  V30 1041 C 100.089 -1.76397 -3.1451 0
M  V30 1042 O 99.1927 -1.03685 -3.99153 0
M  V30 1043 H 98.5337 -0.390196 -0.537255 0
M  V30 1044 H 101.064 -1.65002 -1.20977 0
M  V30 1045 H 101.074 -1.8228 -3.65018 0
M  V30 1046 H 99.7487 -2.81401 -3.06246 0
M  V30 1047 H 98.3257 -1.05611 -3.57632 0
M  V30 1048 N 100.511 1.16574 -1.06058 0
M  V30 1049 C 101.922 1.68662 -0.800632 0
M  V30 1050 C 102.273 1.84184 0.67608 0
M  V30 1051 O 101.398 1.53568 1.52466 0
M  V30 1052 C 101.993 3.06356 -1.44676 0
M  V30 1053 C 100.552 3.55575 -1.23465 0
M  V30 1054 C 99.6988 2.31616 -1.52477 0
M  V30 1055 H 102.65 1.00969 -1.22438 0
M  V30 1056 H 102.671 3.70636 -0.860788 0
M  V30 1057 H 102.183 2.95027 -2.52152 0
M  V30 1058 H 100.284 3.72167 -0.179527 0
M  V30 1059 H 100.397 4.37812 -1.94571 0
M  V30 1060 H 98.7608 2.36512 -0.945209 0
M  V30 1061 H 99.5438 2.22887 -2.61106 0
M  V30 1062 N 101.989 0.842826 1.3317 0
M  V30 1063 C 102.937 0.267495 2.31057 0
M  V30 1064 C 103.931 -0.602682 1.58316 0
M  V30 1065 O 105.137 -0.491803 1.73151 0
M  V30 1066 H 101.512 0.0677813 0.748939 0
M  V30 1067 H 103.483 1.10754 2.77085 0
M  V30 1068 C 102.232 -0.539331 3.43492 0
M  V30 1069 H 101.555 0.12095 3.99617 0
M  V30 1070 H 102.995 -0.90767 4.14171 0
M  V30 1071 C 101.454 -1.71981 2.89697 0
M  V30 1072 O 101.984 -2.81862 2.86211 0
M  V30 1073 N 100.19 -1.54299 2.46252 0
M  V30 1074 H 99.7369 -0.649143 2.49287 0
M  V30 1075 H 99.6949 -2.33431 2.10612 0
M  V30 1076 N 103.467 -1.45747 0.599634 0
M  V30 1077 C 104.377 -2.34262 -0.125888 0
M  V30 1078 C 105.393 -1.50768 -0.868625 0
M  V30 1079 O 106.569 -1.83592 -0.828003 0
M  V30 1080 C 103.634 -3.28252 -1.11587 0
M  V30 1081 C 102.695 -4.27651 -0.375956 0
M  V30 1082 C 101.928 -5.1715 -1.31877 0
M  V30 1083 O 102.151 -5.09916 -2.55621 0
M  V30 1084 O 101.085 -5.96286 -0.820157 0
M  V30 1085 H 104.911 -2.97688 0.601315 0
M  V30 1086 H 102.496 -1.44999 0.359934 0
M  V30 1087 H 104.378 -3.86191 -1.68626 0
M  V30 1088 H 103.053 -2.67401 -1.82424 0
M  V30 1089 H 101.96 -3.7335 0.236698 0
M  V30 1090 H 103.293 -4.91334 0.29177 0
M  V30 1091 N 104.945 -0.338344 -1.53925 0
M  V30 1092 C 106.193 0.259245 -2.0043 0
M  V30 1093 C 106.514 1.51484 -1.22791 0
M  V30 1094 O 105.784 1.93037 -0.33368 0
M  V30 1095 H 104.364 0.0987845 -0.740439 0
M  V30 1096 H 107.026 -0.458302 -1.89435 0
M  V30 1097 H 106.122 0.505334 -3.07982 0
M  V30 1098 N 106.423 1.57458 -0.0668435 0
M  V30 1099 C 107.67 1.93301 0.603406 0
M  V30 1100 C 107.998 0.946486 1.69917 0
M  V30 1101 O 107.253 -0.0387021 1.95662 0
M  V30 1102 C 107.552 3.35784 1.22409 0
M  V30 1103 C 107.218 4.50179 0.254955 0
M  V30 1104 C 105.88 4.81199 -0.0116746 0
M  V30 1105 C 108.232 5.19598 -0.408338 0
M  V30 1106 C 105.56 5.78978 -0.94877 0
M  V30 1107 C 107.912 6.18381 -1.33372 0
M  V30 1108 C 106.576 6.47821 -1.60887 0
M  V30 1109 H 105.846 0.707338 0.220802 0
M  V30 1110 H 108.493 1.91012 -0.136665 0
M  V30 1111 H 106.798 3.34515 2.03978 0
M  V30 1112 H 108.495 3.60804 1.74989 0
M  V30 1113 H 105.085 4.25983 0.472954 0
M  V30 1114 H 109.269 4.95832 -0.215456 0
M  V30 1115 H 104.525 6.00115 -1.16925 0
M  V30 1116 H 108.699 6.71277 -1.85367 0
M  V30 1117 H 106.326 7.23399 -2.33661 0
M  V30 1118 N 107.901 -0.206675 1.56239 0
M  V30 1119 C 109.147 -0.930218 1.80208 0
M  V30 1120 C 109.48 -1.83387 0.638981 0
M  V30 1121 O 108.755 -1.91119 -0.361066 0
M  V30 1122 C 109.038 -1.75641 3.1436 0
M  V30 1123 C 108.891 -0.878257 4.41142 0
M  V30 1124 C 110.21 -2.73129 3.45092 0
M  V30 1125 H 107.329 -0.336742 0.655571 0
M  V30 1126 H 109.971 -0.198222 1.88963 0
M  V30 1127 H 108.121 -2.38048 3.07027 0
M  V30 1128 H 109.793 -0.269787 4.6051 0
M  V30 1129 H 108.036 -0.184385 4.33408 0
M  V30 1130 H 108.707 -1.49106 5.3148 0
M  V30 1131 H 111.183 -2.20856 3.52649 0
M  V30 1132 H 110.059 -3.28028 4.40101 0
M  V30 1133 H 110.32 -3.51606 2.68003 0
M  V30 1134 N 109.379 -1.50304 -0.473955 0
M  V30 1135 C 110.327 -1.69482 -1.59307 0
M  V30 1136 C 111.321 -0.560669 -1.59853 0
M  V30 1137 O 112.527 -0.741087 -1.64036 0
M  V30 1138 H 108.902 -0.534892 -0.528578 0
M  V30 1139 H 110.873 -2.63364 -1.40293 0
M  V30 1140 C 109.622 -1.80354 -2.97267 0
M  V30 1141 H 108.945 -2.67012 -2.97564 0
M  V30 1142 H 110.385 -1.97798 -3.75036 0
M  V30 1143 C 108.844 -0.55448 -3.32306 0
M  V30 1144 O 109.374 0.307661 -4.0052 0
M  V30 1145 N 107.58 -0.409354 -2.87702 0
M  V30 1146 H 107.127 -1.11196 -2.32364 0
M  V30 1147 H 107.085 0.425223 -3.11511 0
M  V30 1148 N 110.857 0.726932 -1.39834 0
M  V30 1149 C 111.789 1.85147 -1.35104 0
M  V30 1150 C 112.802 1.60736 -0.258392 0
M  V30 1151 O 113.991 1.70821 -0.517931 0
M  V30 1152 C 111.091 3.21332 -1.07697 0
M  V30 1153 C 110.264 3.73033 -2.28396 0
M  V30 1154 C 109.323 4.87802 -1.97322 0
M  V30 1155 O 108.349 5.01043 -2.70083 0
M  V30 1156 N 109.551 5.72768 -0.944273 0
M  V30 1157 H 112.316 1.89706 -2.32017 0
M  V30 1158 H 109.877 0.908006 -1.3404 0
M  V30 1159 H 111.869 3.95691 -0.849144 0
M  V30 1160 H 110.439 3.11992 -0.194909 0
M  V30 1161 H 109.659 2.89934 -2.6708 0
M  V30 1162 H 110.947 4.0431 -3.08887 0
M  V30 1163 H 110.345 5.64669 -0.341427 0
M  V30 1164 H 108.902 6.4716 -0.776346 0
M  V30 1165 N 112.336 1.25143 0.95797 0
M  V30 1166 C 113.284 1.05019 2.07542 0
M  V30 1167 C 114.278 -0.0178751 1.69391 0
M  V30 1168 O 115.484 0.137472 1.79474 0
M  V30 1169 H 111.859 0.32265 0.679265 0
M  V30 1170 H 113.83 1.99759 2.21673 0
M  V30 1171 C 112.579 0.682074 3.40944 0
M  V30 1172 H 111.902 1.49573 3.70767 0
M  V30 1173 H 113.342 0.580945 4.20001 0
M  V30 1174 C 111.801 -0.611608 3.31302 0
M  V30 1175 O 112.331 -1.65465 3.66038 0
M  V30 1176 N 110.537 -0.595982 2.84423 0
M  V30 1177 H 110.084 0.253192 2.56353 0
M  V30 1178 H 110.042 -1.46173 2.78354 0
M  V30 1179 N 113.814 -1.1601 1.06675 0
M  V30 1180 C 115.063 -1.85973 0.780818 0
M  V30 1181 C 115.376 -1.82819 -0.695444 0
M  V30 1182 O 116.582 -2.484 -1.09589 0
M  V30 1183 C 115.038 -3.33757 1.34665 0
M  V30 1184 C 114.646 -3.45374 2.85343 0
M  V30 1185 C 116.39 -4.0895 1.13843 0
M  V30 1186 C 114.297 -4.87266 3.35151 0
M  V30 1187 H 113.227 -0.696661 0.288407 0
M  V30 1188 H 115.878 -1.30903 1.28595 0
M  V30 1189 H 114.26 -3.88456 0.769274 0
M  V30 1190 H 115.434 -3.00816 3.49065 0
M  V30 1191 H 113.749 -2.83619 3.04876 0
M  V30 1192 H 116.346 -5.13654 1.4854 0
M  V30 1193 H 116.689 -4.16229 0.0770282 0
M  V30 1194 H 117.222 -3.605 1.68179 0
M  V30 1195 H 113.961 -4.85168 4.40786 0
M  V30 1196 H 113.481 -5.32433 2.76179 0
M  V30 1197 H 115.16 -5.56097 3.30704 0
M  V30 1198 N 115.292 -0.849877 -1.32721 0
M  V30 1199 C 116.52 -0.464754 -2.01613 0
M  V30 1200 C 116.935 0.937191 -1.63897 0
M  V30 1201 O 116.292 1.61081 -0.857856 0
M  V30 1202 C 116.343 -0.588638 -3.56675 0
M  V30 1203 O 116.064 -1.93535 -3.93034 0
M  V30 1204 C 117.565 -0.2019 -4.4284 0
M  V30 1205 H 114.785 -0.183215 -0.645502 0
M  V30 1206 H 117.329 -1.1455 -1.69407 0
M  V30 1207 H 115.484 0.0443159 -3.87375 0
M  V30 1208 H 115.898 -1.92871 -4.87751 0
M  V30 1209 H 117.372 -0.339599 -5.50954 0
M  V30 1210 H 117.849 0.857224 -4.30753 0
M  V30 1211 H 118.455 -0.809733 -4.17521 0
M  V30 1212 N 116.77 1.45427 -0.607355 0
M  V30 1213 C 118.019 2.01452 -0.100036 0
M  V30 1214 C 118.332 1.48159 1.27704 0
M  V30 1215 O 119.538 1.96159 1.87707 0
M  V30 1216 C 117.994 3.59672 -0.128158 0
M  V30 1217 C 117.602 4.21962 -1.50507 0
M  V30 1218 C 119.346 4.23262 0.323932 0
M  V30 1219 C 117.253 5.72333 -1.48959 0
M  V30 1220 H 116.183 0.75325 -0.0336299 0
M  V30 1221 H 118.834 1.66901 -0.76265 0
M  V30 1222 H 117.216 3.91411 0.601105 0
M  V30 1223 H 118.39 4.01796 -2.25602 0
M  V30 1224 H 116.705 3.70565 -1.89923 0
M  V30 1225 H 119.302 5.33522 0.354691 0
M  V30 1226 H 119.645 3.93921 1.34656 0
M  V30 1227 H 120.178 3.96239 -0.352056 0
M  V30 1228 H 116.917 6.06373 -2.48981 0
M  V30 1229 H 116.437 5.94691 -0.781214 0
M  V30 1230 H 118.116 6.35525 -1.21313 0
M  V30 1231 N 118.248 0.346503 1.53744 0
M  V30 1232 C 119.495 -0.249104 2.00962 0
M  V30 1233 C 119.823 -1.5032 1.23426 0
M  V30 1234 O 119.078 -1.93217 0.310761 0
M  V30 1235 C 119.377 -0.605809 3.52228 0
M  V30 1236 C 119.043 0.551747 4.47512 0
M  V30 1237 C 117.705 0.86941 4.73281 0
M  V30 1238 C 120.057 1.32818 5.03993 0
M  V30 1239 C 117.385 1.96582 5.52786 0
M  V30 1240 C 119.737 2.41486 5.84694 0
M  V30 1241 C 118.401 2.73808 6.08757 0
M  V30 1242 H 117.671 -0.0911538 0.735372 0
M  V30 1243 H 120.318 0.475027 1.85515 0
M  V30 1244 H 118.623 -1.4107 3.65522 0
M  V30 1245 H 120.32 -1.07858 3.86222 0
M  V30 1246 H 116.91 0.294102 4.2759 0
M  V30 1247 H 121.094 1.09602 4.84047 0
M  V30 1248 H 116.35 2.22045 5.69654 0
M  V30 1249 H 120.524 3.02078 6.27473 0
M  V30 1250 H 118.151 3.58892 6.7015 0
M  V30 1251 N 119.726 -1.57421 0.075193 0
M  V30 1252 C 120.956 -1.97659 -0.601203 0
M  V30 1253 C 121.364 -0.952427 -1.63479 0
M  V30 1254 O 120.707 0.0688241 -1.83571 0
M  V30 1255 C 120.769 -3.34218 -1.32434 0
M  V30 1256 C 120.433 -4.5484 -0.443826 0
M  V30 1257 C 121.43 -5.19034 0.299969 0
M  V30 1258 C 119.115 -5.00952 -0.367709 0
M  V30 1259 C 121.109 -6.27695 1.10807 0
M  V30 1260 C 118.796 -6.09484 0.444058 0
M  V30 1261 C 119.794 -6.72719 1.18061 0
M  V30 1262 O 119.482 -7.79161 1.97898 0
M  V30 1263 H 119.214 -0.65494 -0.167422 0
M  V30 1264 H 121.768 -2.04886 0.145157 0
M  V30 1265 H 119.998 -3.23615 -2.11685 0
M  V30 1266 H 121.687 -3.59038 -1.89331 0
M  V30 1267 H 122.453 -4.84351 0.250776 0
M  V30 1268 H 118.332 -4.51509 -0.930638 0
M  V30 1269 H 121.876 -6.76982 1.68347 0
M  V30 1270 H 117.773 -6.43601 0.494803 0
M  V30 1271 H 118.541 -7.96055 1.90367 0
M  V30 1272 N 121.204 0.198386 -1.56346 0
M  V30 1273 C 122.62 0.549085 -1.49857 0
M  V30 1274 C 122.82 1.86016 -0.774611 0
M  V30 1275 O 121.876 2.50416 -0.323776 0
M  V30 1276 C 123.189 0.606868 -2.94512 0
M  V30 1277 C 124.737 0.695925 -3.05165 0
M  V30 1278 C 125.212 0.784848 -4.51225 0
M  V30 1279 N 126.703 0.848463 -4.55363 0
M  V30 1280 C 127.438 0.937378 -5.65686 0
M  V30 1281 N 126.934 0.9888 -6.85707 0
M  V30 1282 N 128.727 0.974312 -5.53592 0
M  V30 1283 H 120.878 -0.661655 -2.01831 0
M  V30 1284 H 123.141 -0.235261 -0.918344 0
M  V30 1285 H 122.847 -0.28732 -3.50524 0
M  V30 1286 H 122.721 1.46268 -3.47686 0
M  V30 1287 H 125.108 1.58055 -2.49204 0
M  V30 1288 H 125.189 -0.186022 -2.55123 0
M  V30 1289 H 124.833 -0.0954072 -5.0781 0
M  V30 1290 H 124.763 1.68255 -4.98997 0
M  V30 1291 H 127.254 0.818103 -3.68938 0
M  V30 1292 H 127.567 1.05707 -7.65536 0
M  V30 1293 H 125.912 0.957534 -6.88372 0
M  V30 1294 H 129.103 0.930954 -4.58749 0
M  V30 1295 H 129.276 1.04015 -6.39597 0
M  V30 1296 N 122.682 1.50554 0.465978 0
M  V30 1297 C 123.959 1.5232 1.22712 0
M  V30 1298 C 124.339 0.270807 2.09356 0
M  V30 1299 O 123.687 -0.745541 2.15995 0
M  V30 1300 C 123.897 2.82175 2.05374 0
M  V30 1301 C 125.245 3.33033 2.6339 0
M  V30 1302 O 126.269 2.83531 2.15612 0
M  V30 1303 O 125.128 4.19336 3.50456 0
M  V30 1304 H 122.222 0.611183 0.557122 0
M  V30 1305 H 124.768 1.62847 0.477381 0
M  V30 1306 H 123.54 3.64797 1.41558 0
M  V30 1307 H 123.163 2.74675 2.87471 0
M  V30 1308 N 124.16 -0.719506 1.40217 0
M  V30 1309 C 125.576 -1.02707 1.22161 0
M  V30 1310 C 125.776 -2.0128 0.0940557 0
M  V30 1311 O 124.832 -2.46452 -0.549318 0
M  V30 1312 C 126.145 -1.57454 2.56181 0
M  V30 1313 C 127.693 -1.69458 2.63159 0
M  V30 1314 C 128.168 -2.27611 3.97438 0
M  V30 1315 N 129.659 -2.35002 3.99159 0
M  V30 1316 C 130.394 -2.80972 4.99842 0
M  V30 1317 N 129.89 -3.26723 6.10921 0
M  V30 1318 N 131.683 -2.80321 4.87213 0
M  V30 1319 H 123.834 -0.0660492 2.12297 0
M  V30 1320 H 126.097 -0.0919077 0.943534 0
M  V30 1321 H 125.803 -0.924873 3.39321 0
M  V30 1322 H 125.677 -2.56036 2.76993 0
M  V30 1323 H 128.064 -2.33543 1.80393 0
M  V30 1324 H 128.145 -0.694867 2.46181 0
M  V30 1325 H 127.789 -1.6415 4.80643 0
M  V30 1326 H 127.719 -3.2829 4.11744 0
M  V30 1327 H 130.21 -2.02685 3.18947 0
M  V30 1328 H 130.523 -3.60355 6.8364 0
M  V30 1329 H 128.868 -3.24692 6.14492 0
M  V30 1330 H 132.059 -2.43912 3.9953 0
M  V30 1331 H 132.232 -3.15831 5.65822 0
M  V30 1332 N 125.638 -1.25649 -0.95132 0
M  V30 1333 C 126.568 -1.08808 -2.06599 0
M  V30 1334 C 127.549 0.00382547 -1.701 0
M  V30 1335 O 128.734 -0.166325 -1.93486 0
M  V30 1336 C 125.864 -0.709542 -3.39975 0
M  V30 1337 C 124.818 -1.75206 -3.90496 0
M  V30 1338 C 124.144 -1.22811 -5.20405 0
M  V30 1339 C 125.444 -3.15153 -4.16504 0
M  V30 1340 H 127.138 -2.02048 -2.20946 0
M  V30 1341 H 124.684 -0.972835 -1.06169 0
M  V30 1342 H 126.637 -0.578649 -4.17408 0
M  V30 1343 H 125.361 0.258556 -3.25575 0
M  V30 1344 H 124.02 -1.87145 -3.15234 0
M  V30 1345 H 123.668 -0.250145 -5.02378 0
M  V30 1346 H 123.368 -1.92492 -5.55176 0
M  V30 1347 H 124.892 -1.10968 -6.00432 0
M  V30 1348 H 126.306 -3.06349 -4.84586 0
M  V30 1349 H 124.703 -3.82333 -4.62538 0
M  V30 1350 H 125.773 -3.61966 -3.22658 0
M  V30 1351 N 127.117 1.15442 -1.07289 0
M  V30 1352 C 128.365 1.85845 -0.794096 0
M  V30 1353 C 128.686 1.82692 0.681809 0
M  V30 1354 O 127.956 1.26741 1.49377 0
M  V30 1355 H 126.536 0.688089 -0.290763 0
M  V30 1356 H 129.198 1.39947 -1.3565 0
M  V30 1357 H 128.294 2.91001 -1.12804 0
M  V30 1358 N 128.595 0.856903 1.32268 0
M  V30 1359 C 129.528 0.247937 2.26849 0
M  V30 1360 C 130.506 -0.615382 1.50505 0
M  V30 1361 O 131.69 -0.571689 1.79622 0
M  V30 1362 C 128.817 -0.650093 3.32403 0
M  V30 1363 C 127.863 0.140138 4.2627 0
M  V30 1364 S 128.696 1.51004 5.13769 0
M  V30 1365 C 129.852 0.61778 6.22844 0
M  V30 1366 H 130.085 1.04971 2.78152 0
M  V30 1367 H 127.618 0.654665 1.39834 0
M  V30 1368 H 129.576 -1.16256 3.93694 0
M  V30 1369 H 128.237 -1.4257 2.7988 0
M  V30 1370 H 127.43 -0.543945 5.01056 0
M  V30 1371 H 127.032 0.584267 3.69408 0
M  V30 1372 H 129.324 -0.177053 6.77269 0
M  V30 1373 H 130.267 1.33636 6.95375 0
M  V30 1374 H 130.675 0.191124 5.64176 0
M  V30 1375 N 130.073 -1.45103 0.615059 0
M  V30 1376 C 131.303 -2.06254 0.119596 0
M  V30 1377 C 131.711 -1.4591 -1.20445 0
M  V30 1378 O 131.054 -0.570384 -1.7462 0
M  V30 1379 C 131.116 -3.59396 -0.0865591 0
M  V30 1380 C 130.78 -4.42116 1.15683 0
M  V30 1381 C 131.777 -4.7662 2.07676 0
M  V30 1382 C 129.462 -4.82749 1.38775 0
M  V30 1383 C 131.456 -5.50622 3.21082 0
M  V30 1384 C 129.143 -5.56504 2.52481 0
M  V30 1385 C 130.141 -5.90358 3.43463 0
M  V30 1386 O 129.829 -6.62615 4.55189 0
M  V30 1387 H 129.561 -0.672423 0.0694512 0
M  V30 1388 H 132.115 -1.87219 0.844885 0
M  V30 1389 H 130.345 -3.76859 -0.866823 0
M  V30 1390 H 132.034 -4.02365 -0.534555 0
M  V30 1391 H 132.8 -4.4578 1.91063 0
M  V30 1392 H 128.679 -4.55829 0.688545 0
M  V30 1393 H 132.223 -5.76965 3.92119 0
M  V30 1394 H 128.12 -5.86759 2.69043 0
M  V30 1395 H 128.888 -6.81071 4.53966 0
M  V30 1396 N 131.551 -0.354651 -1.53558 0
M  V30 1397 C 132.962 0.126902 -1.86268 0
M  V30 1398 C 133.313 1.49075 -1.27558 0
M  V30 1399 O 132.438 2.08105 -0.5934 0
M  V30 1400 C 133.033 0.237046 -3.3797 0
M  V30 1401 C 131.592 0.662842 -3.70518 0
M  V30 1402 C 130.739 -0.196652 -2.76602 0
M  V30 1403 H 133.69 -0.573849 -1.47962 0
M  V30 1404 H 133.711 1.06259 -3.65362 0
M  V30 1405 H 133.223 -0.755725 -3.80671 0
M  V30 1406 H 131.324 1.66424 -3.33367 0
M  V30 1407 H 131.437 0.445034 -4.77029 0
M  V30 1408 H 129.801 0.332763 -2.52517 0
M  V30 1409 H 130.584 -1.18676 -3.22135 0
M  V30 1410 N 133.029 1.57378 -0.0835403 0
M  V30 1411 C 133.979 2.09916 0.889905 0
M  V30 1412 C 134.963 1.01151 1.25129 0
M  V30 1413 O 136.155 1.27443 1.2283 0
M  V30 1414 C 133.284 2.67379 2.15322 0
M  V30 1415 C 132.37 3.83167 1.81779 0
M  V30 1416 N 132.761 4.91665 1.18739 0
M  V30 1417 C 131.059 3.92685 2.11459 0
M  V30 1418 C 131.76 5.72409 1.0355 0
M  V30 1419 N 130.736 5.21062 1.54906 0
M  V30 1420 H 134.538 2.91188 0.398378 0
M  V30 1421 H 132.052 1.61956 0.120013 0
M  V30 1422 H 134.049 3.0334 2.8599 0
M  V30 1423 H 132.709 1.87558 2.65051 0
M  V30 1424 H 133.72 5.10784 0.855604 0
M  V30 1425 H 130.397 3.23856 2.63483 0
M  V30 1426 H 131.787 6.69699 0.543425 0
M  V30 1427 N 134.507 -0.190092 1.56449 0
M  V30 1428 C 135.754 -0.909705 1.80916 0
M  V30 1429 C 136.082 -1.83047 0.657583 0
M  V30 1430 O 135.337 -1.92428 -0.356356 0
M  V30 1431 C 135.636 -1.75382 3.1141 0
M  V30 1432 C 135.302 -0.983606 4.40041 0
M  V30 1433 C 133.964 -0.770967 4.74984 0
M  V30 1434 C 136.316 -0.442024 5.19322 0
M  V30 1435 C 133.644 -0.0053448 5.867 0
M  V30 1436 C 135.996 0.310412 6.31838 0
M  V30 1437 C 134.66 0.534023 6.6536 0
M  V30 1438 H 133.93 -0.332885 0.662019 0
M  V30 1439 H 136.577 -0.175762 1.90692 0
M  V30 1440 H 134.882 -2.55659 2.96893 0
M  V30 1441 H 136.579 -2.31331 3.27547 0
M  V30 1442 H 133.169 -1.15936 4.12622 0
M  V30 1443 H 137.353 -0.593693 4.92736 0
M  V30 1444 H 132.609 0.177825 6.11141 0
M  V30 1445 H 136.783 0.737419 6.92485 0
M  V30 1446 H 134.41 1.12918 7.51767 0
M  V30 1447 N 135.985 -1.50799 -0.457987 0
M  V30 1448 C 136.933 -1.71162 -1.575 0
M  V30 1449 C 137.927 -0.577592 -1.59249 0
M  V30 1450 O 139.133 -0.758443 -1.63241 0
M  V30 1451 H 135.508 -0.540468 -0.522875 0
M  V30 1452 H 137.479 -2.64837 -1.37492 0
M  V30 1453 C 136.228 -1.83496 -2.95338 0
M  V30 1454 H 135.551 -2.70153 -2.94716 0
M  V30 1455 H 136.991 -2.01765 -3.72917 0
M  V30 1456 C 135.45 -0.589694 -3.31699 0
M  V30 1457 O 135.98 0.265163 -4.00824 0
M  V30 1458 N 134.186 -0.439845 -2.87252 0
M  V30 1459 H 133.733 -1.13655 -2.31172 0
M  V30 1460 H 133.691 0.392159 -3.11945 0
M  V30 1461 N 137.463 0.71206 -1.40597 0
M  V30 1462 C 138.688 1.50617 -1.42581 0
M  V30 1463 C 139.113 1.88079 -0.0282102 0
M  V30 1464 O 138.471 1.53511 0.964579 0
M  V30 1465 C 138.519 2.7557 -2.3258 0
M  V30 1466 O 137.623 3.72414 -1.77148 0
M  V30 1467 H 136.964 0.453966 -0.484573 0
M  V30 1468 H 139.494 0.876649 -1.84868 0
M  V30 1469 H 139.504 3.2406 -2.47889 0
M  V30 1470 H 138.179 2.47639 -3.34138 0
M  V30 1471 H 136.756 3.31276 -1.71204 0
M  V30 1472 N 138.941 1.26152 0.944643 0
M  V30 1473 C 140.187 1.11657 1.69294 0
M  V30 1474 C 140.52 -0.339926 1.91202 0
M  V30 1475 O 139.795 -1.24994 1.49019 0
M  V30 1476 C 140.078 1.88236 3.06984 0
M  V30 1477 C 139.931 3.41772 2.92424 0
M  V30 1478 C 141.25 1.67343 4.07043 0
M  V30 1479 H 138.369 0.407004 0.614424 0
M  V30 1480 H 141.011 1.55106 1.09737 0
M  V30 1481 H 139.161 1.51308 3.57824 0
M  V30 1482 H 140.833 3.88433 2.48832 0
M  V30 1483 H 139.076 3.68974 2.28124 0
M  V30 1484 H 139.747 3.90579 3.90067 0
M  V30 1485 H 142.223 1.99509 3.65151 0
M  V30 1486 H 141.099 2.23346 5.01406 0
M  V30 1487 H 141.36 0.617158 4.37771 0
M  V30 1488 N 140.419 -1.14872 1.07899 0
M  V30 1489 C 141.667 -1.85422 0.803941 0
M  V30 1490 C 141.988 -1.83051 -0.67211 0
M  V30 1491 O 141.258 -1.27532 -1.48703 0
M  V30 1492 H 139.838 -0.686537 0.294408 0
M  V30 1493 H 142.5 -1.39226 1.3639 0
M  V30 1494 H 141.596 -2.90399 1.14346 0
M  V30 1495 N 141.898 -0.863906 -1.31812 0
M  V30 1496 C 143.146 -0.470904 -1.96537 0
M  V30 1497 C 143.467 0.978771 -1.68657 0
M  V30 1498 O 142.737 1.6853 -0.998717 0
M  V30 1499 H 141.317 -0.171148 -0.72713 0
M  V30 1500 H 143.979 -1.10236 -1.60729 0
M  V30 1501 H 143.075 -0.623616 -3.05806 0
M  V30 1502 N 143.376 1.44774 -0.622745 0
M  V30 1503 C 144.601 2.06999 -0.128968 0
M  V30 1504 C 145.026 1.4617 1.1839 0
M  V30 1505 O 144.384 0.560007 1.72434 0
M  V30 1506 C 144.432 3.60595 -0.0188351 0
M  V30 1507 O 143.536 3.99398 1.02739 0
M  V30 1508 H 142.877 0.659047 -0.0809544 0
M  V30 1509 H 145.407 1.85784 -0.85705 0
M  V30 1510 H 145.417 4.07627 0.174476 0
M  V30 1511 H 144.092 4.04252 -0.977384 0
M  V30 1512 H 142.669 3.64011 0.809326 0
M  V30 1513 N 144.854 0.36279 1.53368 0
M  V30 1514 C 146.1 -0.228113 2.01513 0
M  V30 1515 C 146.433 -1.48648 1.2497 0
M  V30 1516 O 145.708 -1.91459 0.342616 0
M  V30 1517 C 145.991 -0.522884 3.56284 0
M  V30 1518 C 145.844 0.74892 4.43521 0
M  V30 1519 C 147.163 -1.32461 4.19693 0
M  V30 1520 H 144.282 -0.0814343 0.732487 0
M  V30 1521 H 146.924 0.48713 1.83649 0
M  V30 1522 H 145.074 -1.1322 3.71636 0
M  V30 1523 H 146.746 1.38648 4.39971 0
M  V30 1524 H 144.989 1.36986 4.11603 0
M  V30 1525 H 145.66 0.497667 5.49752 0
M  V30 1526 H 148.136 -0.809203 4.08156 0
M  V30 1527 H 147.012 -1.49961 5.28018 0
M  V30 1528 H 147.273 -2.33232 3.75573 0
M  V30 1529 N 146.332 -1.57332 0.0918853 0
M  V30 1530 C 147.282 -2.10385 -0.87876 0
M  V30 1531 C 148.266 -1.01814 -1.24591 0
M  V30 1532 O 149.458 -1.28093 -1.22152 0
M  V30 1533 C 146.587 -2.68517 -2.13901 0
M  V30 1534 C 145.673 -3.84126 -1.79744 0
M  V30 1535 N 146.064 -4.92288 -1.1613 0
M  V30 1536 C 144.362 -3.93801 -2.09373 0
M  V30 1537 C 145.063 -5.7295 -1.00513 0
M  V30 1538 N 144.039 -5.21876 -1.5214 0
M  V30 1539 H 147.841 -2.91395 -0.38293 0
M  V30 1540 H 145.355 -1.62017 -0.111423 0
M  V30 1541 H 147.352 -3.04852 -2.84378 0
M  V30 1542 H 146.012 -1.88961 -2.64053 0
M  V30 1543 H 147.023 -5.1123 -0.828504 0
M  V30 1544 H 143.7 -3.25249 -2.61762 0
M  V30 1545 H 145.09 -6.69978 -0.507902 0
M  V30 1546 N 147.81 0.181792 -1.56548 0
M  V30 1547 C 149.058 0.89832 -1.81038 0
M  V30 1548 C 149.379 1.83232 -0.667164 0
M  V30 1549 O 148.649 1.93372 0.313673 0
M  V30 1550 H 147.229 0.33471 -0.667816 0
M  V30 1551 H 149.891 0.184116 -1.94028 0
M  V30 1552 H 148.987 1.4815 -2.74696 0
M  V30 1553 N 149.288 1.51039 0.449983 0
M  V30 1554 C 150.536 1.62759 1.19808 0
M  V30 1555 C 150.857 0.339981 1.92013 0
M  V30 1556 O 150.127 -0.643606 1.85026 0
M  V30 1557 H 148.707 0.599811 0.445237 0
M  V30 1558 H 151.369 1.87914 0.517138 0
M  V30 1559 H 150.465 2.44911 1.93455 0
M  V30 1560 N 150.766 -0.704594 1.40972 0
M  V30 1561 C 152.012 -1.46675 1.40051 0
M  V30 1562 C 152.345 -1.94199 0.00641102 0
M  V30 1563 O 151.62 -1.68916 -0.964235 0
M  V30 1564 C 151.903 -2.68505 2.39952 0
M  V30 1565 C 151.756 -2.26805 3.88432 0
M  V30 1566 C 153.075 -3.70686 2.37233 0
M  V30 1567 H 150.194 -0.532015 0.510028 0
M  V30 1568 H 152.836 -0.803255 1.72185 0
M  V30 1569 H 150.986 -3.25114 2.1268 0
M  V30 1570 H 152.658 -1.75592 4.26574 0
M  V30 1571 H 150.901 -1.58685 4.03734 0
M  V30 1572 H 151.572 -3.14181 4.53866 0
M  V30 1573 H 154.048 -3.23731 2.61415 0
M  V30 1574 H 152.924 -4.53553 3.09162 0
M  V30 1575 H 153.185 -4.19754 1.38777 0
M  V30 1576 N 152.244 -1.26651 -0.937939 0
M  V30 1577 C 153.655 -1.1125 -1.49934 0
M  V30 1578 C 154.006 0.306077 -1.93798 0
M  V30 1579 O 153.131 1.19792 -1.80219 0
M  V30 1580 C 153.726 -2.01339 -2.72485 0
M  V30 1581 C 152.285 -1.90074 -3.24883 0
M  V30 1582 C 151.432 -1.94498 -1.97651 0
M  V30 1583 H 154.383 -1.39693 -0.753091 0
M  V30 1584 H 154.404 -1.56319 -3.46907 0
M  V30 1585 H 153.916 -3.04577 -2.40529 0
M  V30 1586 H 152.017 -0.897827 -3.61621 0
M  V30 1587 H 152.13 -2.75778 -3.9177 0
M  V30 1588 H 150.494 -1.38591 -2.13693 0
M  V30 1589 H 151.277 -2.99372 -1.68022 0
M  V30 1590 N 153.722 1.14298 -1.08507 0
M  V30 1591 C 154.654 2.1907 -0.673859 0
M  V30 1592 C 155.667 1.60381 0.279577 0
M  V30 1593 O 156.856 1.78374 0.0670754 0
M  V30 1594 C 153.956 3.38888 0.0290979 0
M  V30 1595 C 153.129 4.27103 -0.943494 0
M  V30 1596 C 152.188 5.25477 -0.275676 0
M  V30 1597 O 151.214 5.61709 -0.920401 0
M  V30 1598 N 152.416 5.7227 0.974013 0
M  V30 1599 H 155.181 2.54965 -1.57521 0
M  V30 1600 H 152.742 1.29528 -0.971287 0
M  V30 1601 H 154.734 4.01761 0.48683 0
M  V30 1602 H 153.304 3.01309 0.832555 0
M  V30 1603 H 152.524 3.61149 -1.58004 0
M  V30 1604 H 153.812 4.82905 -1.60251 0
M  V30 1605 H 153.21 5.44965 1.51755 0
M  V30 1606 H 151.767 6.37127 1.37522 0
M  V30 1607 N 155.201 0.870884 1.31352 0
M  V30 1608 C 156.149 0.316445 2.30437 0
M  V30 1609 C 157.143 -0.568965 1.59559 0
M  V30 1610 O 158.349 -0.454964 1.74155 0
M  V30 1611 H 154.724 0.0836521 0.747333 0
M  V30 1612 H 156.695 1.16606 2.74673 0
M  V30 1613 C 155.444 -0.46635 3.44558 0
M  V30 1614 H 154.767 0.205687 3.99271 0
M  V30 1615 H 156.207 -0.819614 4.16003 0
M  V30 1616 C 154.666 -1.65797 2.9328 0
M  V30 1617 O 155.196 -2.75728 2.92125 0
M  V30 1618 N 153.402 -1.49041 2.4947 0
M  V30 1619 H 152.949 -0.59612 2.50608 0
M  V30 1620 H 152.907 -2.28911 2.15516 0
M  V30 1621 N 156.679 -1.44442 0.630414 0
M  V30 1622 C 157.927 -2.01653 0.134351 0
M  V30 1623 C 158.248 -1.49836 -1.24796 0
M  V30 1624 O 157.518 -0.701684 -1.82902 0
M  V30 1625 H 156.098 -0.74554 0.0466769 0
M  V30 1626 H 158.76 -1.76952 0.816955 0
M  V30 1627 H 157.856 -3.11935 0.101498 0
M  V30 1628 N 158.157 -0.370918 -1.53173 0
M  V30 1629 C 159.382 0.220293 -2.06227 0
M  V30 1630 C 159.807 1.41243 -1.24225 0
M  V30 1631 O 159.165 1.79387 -0.262645 0
M  V30 1632 C 159.213 0.586663 -3.55796 0
M  V30 1633 O 158.317 1.68317 -3.76488 0
M  V30 1634 H 157.658 0.0308099 -0.663285 0
M  V30 1635 H 160.188 -0.533068 -1.97534 0
M  V30 1636 H 160.198 0.85617 -3.98916 0
M  V30 1637 H 158.873 -0.285013 -4.14922 0
M  V30 1638 H 157.45 1.40881 -3.45264 0
M  V30 1639 N 159.635 1.57281 -0.100228 0
M  V30 1640 C 160.565 2.17328 0.853857 0
M  V30 1641 C 161.546 1.10804 1.2906 0
M  V30 1642 O 162.731 1.38963 1.35657 0
M  V30 1643 C 159.861 2.75772 2.11109 0
M  V30 1644 C 158.815 3.87713 1.81279 0
M  V30 1645 C 158.141 4.32882 3.13874 0
M  V30 1646 C 159.441 5.10677 1.09574 0
M  V30 1647 H 161.135 2.97305 0.353545 0
M  V30 1648 H 158.681 1.43009 0.168612 0
M  V30 1649 H 160.634 3.16433 2.78296 0
M  V30 1650 H 159.358 1.93057 2.63432 0
M  V30 1651 H 158.017 3.476 1.16489 0
M  V30 1652 H 157.665 3.47051 3.64095 0
M  V30 1653 H 157.365 5.08358 2.94696 0
M  V30 1654 H 158.889 4.7618 3.82211 0
M  V30 1655 H 160.303 5.48474 1.66879 0
M  V30 1656 H 158.7 5.91615 1.00557 0
M  V30 1657 H 159.77 4.84835 0.0793299 0
M  V30 1658 N 161.113 -0.173488 1.56642 0
M  V30 1659 C 162.359 -0.887108 1.83035 0
M  V30 1660 C 162.714 -1.79965 0.680461 0
M  V30 1661 O 162.007 -1.88854 -0.323225 0
M  V30 1662 C 162.201 -1.72069 3.13252 0
M  V30 1663 C 162.03 -0.89035 4.40798 0
M  V30 1664 C 160.8 -0.566282 5.02117 0
M  V30 1665 C 162.998 -0.232921 5.13772 0
M  V30 1666 N 160.98 0.280427 6.13259 0
M  V30 1667 C 162.351 0.475046 6.18177 0
M  V30 1668 C 164.406 -0.150863 4.97671 0
M  V30 1669 C 163.109 1.25729 7.08227 0
M  V30 1670 C 165.135 0.618039 5.88162 0
M  V30 1671 C 164.497 1.31438 6.92029 0
M  V30 1672 H 160.596 -0.303303 0.720785 0
M  V30 1673 H 163.18 -0.154244 1.94088 0
M  V30 1674 H 161.351 -2.42499 3.03395 0
M  V30 1675 H 163.083 -2.37545 3.2765 0
M  V30 1676 H 159.838 -0.895852 4.6505 0
M  V30 1677 H 160.262 0.694027 6.73433 0
M  V30 1678 H 164.904 -0.674868 4.17379 0
M  V30 1679 H 162.622 1.79265 7.87966 0
M  V30 1680 H 166.208 0.683173 5.77775 0
M  V30 1681 H 165.088 1.89981 7.6084 0
M  V30 1682 N 162.591 -1.51276 -0.441967 0
M  V30 1683 C 163.837 -1.63958 -1.19355 0
M  V30 1684 C 164.17 -0.352543 -1.90973 0
M  V30 1685 O 163.445 0.647627 -1.83401 0
M  V30 1686 C 163.728 -2.83979 -2.21422 0
M  V30 1687 C 163.581 -4.22646 -1.53918 0
M  V30 1688 C 164.9 -2.99521 -3.22451 0
M  V30 1689 H 162.019 -0.596709 -0.432559 0
M  V30 1690 H 164.661 -1.83748 -0.483398 0
M  V30 1691 H 162.811 -2.67237 -2.81987 0
M  V30 1692 H 164.483 -4.51045 -0.967256 0
M  V30 1693 H 162.726 -4.25558 -0.841615 0
M  V30 1694 H 163.397 -5.02609 -2.28229 0
M  V30 1695 H 165.873 -3.14944 -2.71937 0
M  V30 1696 H 164.749 -3.85072 -3.91166 0
M  V30 1697 H 165.01 -2.11391 -3.88287 0
M  V30 1698 N 164.069 0.697108 -1.41344 0
M  V30 1699 C 165.019 1.80313 -1.39539 0
M  V30 1700 C 166.003 1.58618 -0.270001 0
M  V30 1701 O 167.195 1.69477 -0.510551 0
M  V30 1702 C 164.324 3.18606 -1.27848 0
M  V30 1703 C 163.41 3.46001 -2.45244 0
M  V30 1704 N 163.801 3.44103 -3.70711 0
M  V30 1705 C 162.099 3.76542 -2.39023 0
M  V30 1706 C 162.8 3.7036 -4.48563 0
M  V30 1707 N 161.776 3.90027 -3.78655 0
M  V30 1708 H 165.578 1.77207 -2.34468 0
M  V30 1709 H 163.092 0.897031 -1.35378 0
M  V30 1710 H 165.089 3.97833 -1.24637 0
M  V30 1711 H 163.749 3.22925 -0.339032 0
M  V30 1712 H 164.76 3.2452 -4.03618 0
M  V30 1713 H 161.437 3.88241 -1.53542 0
M  V30 1714 H 162.827 3.75042 -5.57488 0
M  V30 1715 N 165.547 1.27147 0.931209 0
M  V30 1716 C 166.477 1.12081 2.04842 0
M  V30 1717 C 167.458 0.0232364 1.70084 0
M  V30 1718 O 168.643 0.197085 1.93197 0
M  V30 1719 C 165.773 0.76354 3.38803 0
M  V30 1720 C 164.727 1.81396 3.87659 0
M  V30 1721 C 164.053 1.31075 5.18385 0
M  V30 1722 C 165.353 3.21739 4.11438 0
M  V30 1723 H 167.047 2.05537 2.17703 0
M  V30 1724 H 164.593 0.989603 1.04608 0
M  V30 1725 H 166.546 0.644982 4.16435 0
M  V30 1726 H 165.27 -0.206727 3.25945 0
M  V30 1727 H 163.929 1.92136 3.12217 0
M  V30 1728 H 163.577 0.330037 5.01916 0
M  V30 1729 H 163.277 2.013 5.52044 0
M  V30 1730 H 164.801 1.20506 5.98591 0
M  V30 1731 H 166.215 3.14019 4.79651 0
M  V30 1732 H 164.612 3.89644 4.56397 0
M  V30 1733 H 165.682 3.67054 3.16859 0
M  V30 1734 N 167.025 -1.13721 1.09112 0
M  V30 1735 C 167.935 -2.22638 0.73957 0
M  V30 1736 C 168.951 -1.72091 -0.257068 0
M  V30 1737 O 170.127 -2.01155 -0.0992154 0
M  V30 1738 C 167.192 -3.46322 0.16191 0
M  V30 1739 C 166.253 -4.11775 1.21408 0
M  V30 1740 C 165.486 -5.29555 0.663891 0
M  V30 1741 O 165.709 -5.68077 -0.514274 0
M  V30 1742 O 164.643 -5.84973 1.41738 0
M  V30 1743 H 168.469 -2.55074 1.64836 0
M  V30 1744 H 166.054 -1.21791 0.865289 0
M  V30 1745 H 167.936 -4.21107 -0.157073 0
M  V30 1746 H 166.611 -3.15593 -0.719932 0
M  V30 1747 H 165.518 -3.3883 1.58571 0
M  V30 1748 H 166.851 -4.46627 2.06845 0
M  V30 1749 N 168.503 -0.877838 -1.30888 0
M  V30 1750 C 169.436 -0.283995 -2.26426 0
M  V30 1751 C 170.414 0.591361 -1.51465 0
M  V30 1752 O 171.598 0.54304 -1.80509 0
M  V30 1753 C 168.725 0.597129 -3.33395 0
M  V30 1754 C 167.771 -0.207937 -4.25993 0
M  V30 1755 S 168.604 -1.59158 -5.11301 0
M  V30 1756 C 169.76 -0.716791 -6.21782 0
M  V30 1757 H 169.993 -1.09383 -2.76446 0
M  V30 1758 H 167.526 -0.676828 -1.38775 0
M  V30 1759 H 169.484 1.09978 -3.95493 0
M  V30 1760 H 168.145 1.38099 -2.82113 0
M  V30 1761 H 167.338 0.464163 -5.01858 0
M  V30 1762 H 166.94 -0.642963 -3.68432 0
M  V30 1763 H 169.232 0.0692833 -6.77465 0
M  V30 1764 H 170.175 -1.44682 -6.93161 0
M  V30 1765 H 170.583 -0.280855 -5.63801 0
M  V30 1766 N 169.982 1.44106 -0.638065 0
M  V30 1767 C 170.912 2.33448 0.0494287 0
M  V30 1768 C 171.893 1.48606 0.827672 0
M  V30 1769 O 173.078 1.77308 0.792173 0
M  V30 1770 C 170.208 3.31771 1.02691 0
M  V30 1771 C 169.162 4.26485 0.359823 0
M  V30 1772 C 168.488 5.14729 1.44769 0
M  V30 1773 C 169.788 5.17056 -0.738296 0
M  V30 1774 H 171.482 2.91183 -0.696636 0
M  V30 1775 H 169.028 1.40014 -0.336456 0
M  V30 1776 H 170.981 3.93161 1.51666 0
M  V30 1777 H 169.705 2.7226 1.80395 0
M  V30 1778 H 168.364 3.66437 -0.10934 0
M  V30 1779 H 168.012 4.51566 2.21578 0
M  V30 1780 H 167.712 5.78913 1.00668 0
M  V30 1781 H 169.236 5.78991 1.93911 0
M  V30 1782 H 170.65 5.72342 -0.331354 0
M  V30 1783 H 169.047 5.89879 -1.10286 0
M  V30 1784 H 170.117 4.57652 -1.60258 0
M  V30 1785 N 171.46 0.379036 1.52974 0
M  V30 1786 C 172.407 -0.461048 2.26148 0
M  V30 1787 C 173.377 -1.06637 1.27349 0
M  V30 1788 O 174.562 -1.09633 1.56157 0
M  V30 1789 C 171.702 -1.58782 3.06402 0
M  V30 1790 C 170.815 -1.00636 4.20115 0
M  V30 1791 C 169.95 -2.10334 4.87784 0
M  V30 1792 C 168.989 -1.49724 5.93506 0
M  V30 1793 N 168.126 -2.5331 6.54812 0
M  V30 1794 H 172.966 0.169429 2.97518 0
M  V30 1795 H 170.503 0.0953806 1.4679 0
M  V30 1796 H 172.461 -2.25174 3.51215 0
M  V30 1797 H 171.091 -2.18876 2.37261 0
M  V30 1798 H 170.143 -0.232332 3.7969 0
M  V30 1799 H 171.455 -0.523343 4.96047 0
M  V30 1800 H 170.609 -2.84519 5.35849 0
M  V30 1801 H 169.348 -2.61992 4.11353 0
M  V30 1802 H 168.353 -0.740598 5.44789 0
M  V30 1803 H 169.578 -0.988732 6.71864 0
M  V30 1804 H 167.524 -3.04156 5.81227 0
M  V30 1805 H 167.441 -2.09734 7.26325 0
M  V30 1806 H 168.709 -3.27155 7.07524 0
M  V30 1807 N 172.938 -1.57226 0.108567 0
M  V30 1808 C 174.186 -1.94448 -0.550853 0
M  V30 1809 C 174.507 -0.992074 -1.67878 0
M  V30 1810 O 173.777 -0.0465 -1.95845 0
M  V30 1811 H 172.357 -0.717897 -0.206479 0
M  V30 1812 H 175.019 -1.94112 0.175062 0
M  V30 1813 H 174.115 -2.97218 -0.952259 0
M  V30 1814 N 174.416 0.165178 -1.56732 0
M  V30 1815 C 175.366 1.20917 -1.93295 0
M  V30 1816 C 176.35 1.39488 -0.801985 0
M  V30 1817 O 177.542 1.41356 -1.06525 0
M  V30 1818 C 174.671 2.54718 -2.3016 0
M  V30 1819 C 173.757 2.39815 -3.49785 0
M  V30 1820 N 174.148 1.94637 -4.66851 0
M  V30 1821 C 172.446 2.70623 -3.54513 0
M  V30 1822 C 173.147 1.92344 -5.4898 0
M  V30 1823 N 172.123 2.34978 -4.9019 0
M  V30 1824 H 175.925 0.851675 -2.81289 0
M  V30 1825 H 173.439 0.373399 -1.58049 0
M  V30 1826 H 175.436 3.30165 -2.54552 0
M  V30 1827 H 174.096 2.91265 -1.43508 0
M  V30 1828 H 175.107 1.6488 -4.90953 0
M  V30 1829 H 171.784 3.11167 -2.78354 0
M  V30 1830 H 173.174 1.5906 -6.52801 0
M  V30 1831 N 175.894 1.51508 0.433938 0
M  V30 1832 C 177.14 1.64588 1.18484 0
M  V30 1833 C 177.473 0.362666 1.90784 0
M  V30 1834 O 176.748 -0.637892 1.83742 0
M  V30 1835 C 177.031 2.85149 2.19913 0
M  V30 1836 C 176.884 4.23456 1.51674 0
M  V30 1837 C 178.203 3.01227 3.20858 0
M  V30 1838 H 175.322 0.598994 0.429389 0
M  V30 1839 H 177.964 1.84002 0.473647 0
M  V30 1840 H 176.114 2.68729 2.80566 0
M  V30 1841 H 177.786 4.51552 0.943322 0
M  V30 1842 H 176.029 4.25998 0.819035 0
M  V30 1843 H 176.7 5.03812 2.2556 0
M  V30 1844 H 179.176 3.16382 2.70263 0
M  V30 1845 H 178.052 3.87141 3.89118 0
M  V30 1846 H 178.313 2.13447 3.8716 0
M  V30 1847 N 177.372 -0.689602 1.41712 0
M  V30 1848 C 178.282 -1.83314 1.46401 0
M  V30 1849 C 179.298 -1.7036 0.35405 0
M  V30 1850 O 180.474 -1.92171 0.602692 0
M  V30 1851 C 177.539 -3.19344 1.34982 0
M  V30 1852 C 176.6 -3.44363 2.56344 0
M  V30 1853 C 175.833 -4.73904 2.45461 0
M  V30 1854 O 176.056 -5.508 1.48241 0
M  V30 1855 O 174.99 -4.99839 3.35328 0
M  V30 1856 H 178.816 -1.82314 2.42889 0
M  V30 1857 H 176.401 -0.843438 1.23315 0
M  V30 1858 H 178.283 -4.00547 1.3092 0
M  V30 1859 H 176.958 -3.21014 0.41612 0
M  V30 1860 H 175.865 -2.63067 2.65982 0
M  V30 1861 H 177.198 -3.47512 3.48563 0
M  V30 1862 N 178.85 -1.27639 -0.924453 0
M  V30 1863 C 179.8 -1.07295 -2.01176 0
M  V30 1864 C 180.784 5.77352e-05 -1.609 0
M  V30 1865 O 181.976 -0.218855 -1.75642 0
M  V30 1866 C 179.105 -0.725592 -3.35544 0
M  V30 1867 C 178.191 -1.83691 -3.82254 0
M  V30 1868 N 178.582 -3.07697 -4.01443 0
M  V30 1869 C 176.88 -1.72433 -4.11319 0
M  V30 1870 C 177.581 -3.80037 -4.40394 0
M  V30 1871 N 176.557 -3.0782 -4.48049 0
M  V30 1872 H 180.359 -2.01399 -2.14046 0
M  V30 1873 H 177.873 -1.18401 -1.11153 0
M  V30 1874 H 179.87 -0.560959 -4.13109 0
M  V30 1875 H 178.53 0.207782 -3.24034 0
M  V30 1876 H 179.541 -3.43424 -3.8766 0
M  V30 1877 H 176.218 -0.862005 -4.08504 0
M  V30 1878 H 177.608 -4.86632 -4.63291 0
M  V30 1879 N 180.328 1.1314 -1.09713 0
M  V30 1880 C 181.558 1.88048 -0.855656 0
M  V30 1881 C 181.966 1.79537 0.596919 0
M  V30 1882 O 181.309 1.16196 1.42282 0
M  V30 1883 C 181.371 3.38314 -1.21589 0
M  V30 1884 C 181.035 3.70605 -2.67397 0
M  V30 1885 C 182.032 3.69596 -3.65643 0
M  V30 1886 C 179.717 4.0017 -3.03593 0
M  V30 1887 C 181.711 3.977 -4.9811 0
M  V30 1888 C 179.398 4.27935 -4.36251 0
M  V30 1889 C 180.396 4.26685 -5.33318 0
M  V30 1890 O 180.084 4.53767 -6.63589 0
M  V30 1891 H 179.816 0.60208 -0.307368 0
M  V30 1892 H 182.37 1.44128 -1.46343 0
M  V30 1893 H 180.6 3.82752 -0.551177 0
M  V30 1894 H 182.289 3.94552 -0.953083 0
M  V30 1895 H 183.055 3.46826 -3.39023 0
M  V30 1896 H 178.934 4.00289 -2.2867 0
M  V30 1897 H 182.478 3.9664 -5.73866 0
M  V30 1898 H 178.375 4.50178 -4.62613 0
M  V30 1899 H 179.143 4.71422 -6.69107 0
M  V30 1900 N 181.806 0.884767 1.30421 0
M  V30 1901 C 183.055 0.499164 1.95426 0
M  V30 1902 C 183.368 -0.95645 1.70621 0
M  V30 1903 O 184.574 -1.44889 2.29607 0
M  V30 1904 C 183.03 0.84177 3.49917 0
M  V30 1905 C 182.638 2.31514 3.83543 0
M  V30 1906 C 184.382 0.525355 4.21237 0
M  V30 1907 C 182.289 2.59939 5.31212 0
M  V30 1908 H 181.219 0.182944 0.73147 0
M  V30 1909 H 183.87 1.07971 1.48373 0
M  V30 1910 H 182.252 0.190311 3.95542 0
M  V30 1911 H 183.426 3.0109 3.48829 0
M  V30 1912 H 181.741 2.59907 3.25326 0
M  V30 1913 H 184.338 0.714762 5.29901 0
M  V30 1914 H 184.681 -0.535222 4.12845 0
M  V30 1915 H 185.214 1.134 3.81294 0
M  V30 1916 H 181.953 3.64736 5.44654 0
M  V30 1917 H 181.473 1.94972 5.67227 0
M  V30 1918 H 183.152 2.45429 5.98643 0
M  V30 1919 N 183.284 -1.43765 0.645699 0
M  V30 1920 C 184.7 -1.56509 0.312591 0
M  V30 1921 C 184.9 -1.6307 -1.18365 0
M  V30 1922 O 183.956 -1.58167 -1.96824 0
M  V30 1923 C 185.269 -2.82968 1.01733 0
M  V30 1924 C 186.817 -2.96701 0.996865 0
M  V30 1925 C 187.292 -4.25982 1.68236 0
M  V30 1926 N 188.783 -4.32829 1.64964 0
M  V30 1927 C 189.518 -5.31613 2.14885 0
M  V30 1928 N 189.014 -6.36718 2.73061 0
M  V30 1929 N 190.807 -5.23217 2.05428 0
M  V30 1930 H 182.958 -1.3775 1.61675 0
M  V30 1931 H 185.221 -0.661067 0.679481 0
M  V30 1932 H 184.927 -2.84156 2.0724 0
M  V30 1933 H 184.801 -3.72957 0.564177 0
M  V30 1934 H 187.188 -2.95058 -0.0497719 0
M  V30 1935 H 187.269 -2.08022 1.48865 0
M  V30 1936 H 186.913 -4.28386 2.72852 0
M  V30 1937 H 186.843 -5.13545 1.16529 0
M  V30 1938 H 189.334 -3.57493 1.22503 0
M  V30 1939 H 189.647 -7.08401 3.08848 0
M  V30 1940 H 187.992 -6.37362 2.77118 0
M  V30 1941 H 191.183 -4.40019 1.59689 0
M  V30 1942 H 191.356 -6.00045 2.44643 0
M  V30 1943 N 184.763 -0.387143 -1.52771 0
M  V30 1944 C 185.991 0.195869 -2.05971 0
M  V30 1945 C 186.406 1.40691 -1.25903 0
M  V30 1946 O 185.763 1.79931 -0.305134 0
M  V30 1947 C 185.814 0.56812 -3.57008 0
M  V30 1948 O 185.535 -0.594803 -4.34043 0
M  V30 1949 C 187.036 1.20723 -4.26545 0
M  V30 1950 H 184.256 0.0300578 -0.670326 0
M  V30 1951 H 186.8 -0.551749 -1.96916 0
M  V30 1952 H 184.955 1.26564 -3.66143 0
M  V30 1953 H 185.369 -0.289322 -5.23701 0
M  V30 1954 H 186.843 1.41807 -5.33474 0
M  V30 1955 H 187.32 2.17395 -3.81623 0
M  V30 1956 H 187.926 0.550535 -4.21722 0
M  V30 1957 N 186.241 1.57166 -0.116904 0
M  V30 1958 C 187.173 2.12271 0.864507 0
M  V30 1959 C 188.186 1.06494 1.23138 0
M  V30 1960 O 189.375 1.33873 1.18069 0
M  V30 1961 C 186.475 2.60564 2.16702 0
M  V30 1962 C 185.648 3.90416 1.97216 0
M  V30 1963 C 184.707 4.24329 3.11178 0
M  V30 1964 O 183.733 4.93182 2.84184 0
M  V30 1965 N 184.935 3.8148 4.37554 0
M  V30 1966 H 187.7 2.97102 0.393726 0
M  V30 1967 H 185.261 1.61759 0.0675805 0
M  V30 1968 H 187.253 2.80282 2.91932 0
M  V30 1969 H 185.823 1.80623 2.55135 0
M  V30 1970 H 185.043 3.79627 1.06192 0
M  V30 1971 H 186.331 4.75327 1.81499 0
M  V30 1972 H 185.729 3.25943 4.62361 0
M  V30 1973 H 184.286 4.06311 5.09661 0
M  V30 1974 N 187.719 -0.156864 1.56817 0
M  V30 1975 C 188.629 -1.2136 2.00771 0
M  V30 1976 C 189.645 -1.47598 0.921459 0
M  V30 1977 O 190.821 -1.59462 1.2302 0
M  V30 1978 C 187.886 -2.52943 2.37109 0
M  V30 1979 C 186.947 -2.34439 3.59634 0
M  V30 1980 C 186.18 -3.59748 3.94229 0
M  V30 1981 O 186.403 -4.65526 3.29609 0
M  V30 1982 O 185.337 -3.52998 4.8752 0
M  V30 1983 H 189.163 -0.870468 2.90958 0
M  V30 1984 H 186.748 -0.36484 1.44877 0
M  V30 1985 H 188.63 -3.30538 2.61386 0
M  V30 1986 H 187.305 -2.86806 1.5008 0
M  V30 1987 H 186.212 -1.54828 3.40557 0
M  V30 1988 H 187.545 -2.05496 4.4725 0
M  V30 1989 N 189.197 -1.51736 -0.425897 0
M  V30 1990 C 190.608 -1.5732 -1.00536 0
M  V30 1991 C 190.959 -0.403537 -1.92005 0
M  V30 1992 O 190.084 0.478256 -2.11049 0
M  V30 1993 C 190.679 -2.85119 -1.8301 0
M  V30 1994 C 189.238 -2.93236 -2.35987 0
M  V30 1995 C 188.385 -2.52098 -1.15508 0
M  V30 1996 H 191.336 -1.57348 -0.206739 0
M  V30 1997 H 191.357 -2.69526 -2.68581 0
M  V30 1998 H 190.869 -3.7023 -1.16411 0
M  V30 1999 H 188.97 -2.12581 -3.06007 0
M  V30 2000 H 189.083 -3.9713 -2.68001 0
M  V30 2001 H 187.447 -2.05558 -1.50393 0
M  V30 2002 H 188.23 -3.39565 -0.505014 0
M  V30 2003 N 190.675 0.682077 -1.42076 0
M  V30 2004 C 191.638 1.77756 -1.44691 0
M  V30 2005 C 192.638 1.5726 -0.335535 0
M  V30 2006 O 193.828 1.63686 -0.596037 0
M  V30 2007 C 190.96 3.16301 -1.27146 0
M  V30 2008 H 192.153 1.76826 -2.42224 0
M  V30 2009 H 189.706 0.891012 -1.28416 0
M  V30 2010 H 190.441 3.22862 -0.305075 0
M  V30 2011 H 190.226 3.32581 -2.07683 0
M  V30 2012 H 191.716 3.96241 -1.31843 0
M  V30 2013 N 192.153 1.28127 0.917671 0
M  V30 2014 C 193.401 1.14825 1.66312 0
M  V30 2015 C 193.722 -0.304379 1.9261 0
M  V30 2016 O 192.992 -1.21149 1.53947 0
M  V30 2017 H 191.572 0.421953 0.616413 0
M  V30 2018 H 194.234 1.608 1.10134 0
M  V30 2019 H 193.33 1.68489 2.62712 0
M  V30 2020 N 193.631 -1.12557 1.10312 0
M  V30 2021 C 194.561 -2.20341 0.772798 0
M  V30 2022 C 195.542 -1.68198 -0.25365 0
M  V30 2023 O 196.727 -1.93831 -0.119699 0
M  V30 2024 C 193.857 -3.46709 0.202443 0
M  V30 2025 C 192.811 -4.11996 1.15943 0
M  V30 2026 C 192.137 -5.328 0.450345 0
M  V30 2027 C 193.437 -4.5828 2.50552 0
M  V30 2028 H 195.131 -2.48229 1.674 0
M  V30 2029 H 192.677 -1.19308 0.806326 0
M  V30 2030 H 194.63 -4.2138 -0.0407752 0
M  V30 2031 H 193.354 -3.18245 -0.734001 0
M  V30 2032 H 192.013 -3.39305 1.38808 0
M  V30 2033 H 191.661 -5.00602 -0.490531 0
M  V30 2034 H 191.361 -5.7743 1.08851 0
M  V30 2035 H 192.885 -6.10219 0.215642 0
M  V30 2036 H 194.299 -5.2433 2.31843 0
M  V30 2037 H 192.696 -5.13683 3.10242 0
M  V30 2038 H 193.766 -3.72329 3.10643 0
M  V30 2039 N 195.109 -0.891671 -1.2995 0
M  V30 2040 C 196.072 -0.36828 -2.26222 0
M  V30 2041 C 197.072 0.493014 -1.53056 0
M  V30 2042 O 198.262 0.299213 -1.71611 0
M  V30 2043 C 195.394 0.47442 -3.37583 0
M  V30 2044 H 196.587 -1.21844 -2.74033 0
M  V30 2045 H 194.14 -0.669107 -1.41254 0
M  V30 2046 H 194.875 1.34489 -2.95099 0
M  V30 2047 H 194.66 -0.142615 -3.91841 0
M  V30 2048 H 196.15 0.83218 -4.09224 0
M  V30 2049 N 196.587 1.43421 -0.653314 0
M  V30 2050 C 197.833 2.02111 -0.166992 0
M  V30 2051 C 198.166 1.51423 1.21592 0
M  V30 2052 O 197.441 0.707389 1.8118 0
M  V30 2053 C 197.724 3.5966 -0.177948 0
M  V30 2054 C 197.577 4.20579 -1.59478 0
M  V30 2055 C 198.896 4.37413 0.4856 0
M  V30 2056 H 196.015 0.734374 -0.0621557 0
M  V30 2057 H 198.657 1.70717 -0.834016 0
M  V30 2058 H 196.807 3.86537 0.390032 0
M  V30 2059 H 198.479 4.04732 -2.21336 0
M  V30 2060 H 196.722 3.77226 -2.14204 0
M  V30 2061 H 197.393 5.29665 -1.5543 0
M  V30 2062 H 199.869 4.161 0.00234528 0
M  V30 2063 H 198.745 5.47075 0.447207 0
M  V30 2064 H 199.006 4.13672 1.55974 0
M  V30 2065 N 198.065 0.39524 1.52563 0
M  V30 2066 C 199.314 -0.186321 2.00838 0
M  V30 2067 C 199.627 -1.47402 1.28577 0
M  V30 2068 O 200.833 -2.13599 1.67593 0
M  V30 2069 C 199.289 -0.382595 3.57861 0
M  V30 2070 C 198.897 0.892202 4.39026 0
M  V30 2071 C 200.641 -0.9202 4.14406 0
M  V30 2072 C 198.548 0.66388 5.87662 0
M  V30 2073 H 197.478 -0.0734041 0.750418 0
M  V30 2074 H 200.129 0.518552 1.76021 0
M  V30 2075 H 198.511 -1.14946 3.7895 0
M  V30 2076 H 199.685 1.66414 4.29701 0
M  V30 2077 H 198 1.35519 3.9373 0
M  V30 2078 H 200.597 -1.10683 5.23119 0
M  V30 2079 H 200.94 -1.89096 3.70875 0
M  V30 2080 H 201.473 -0.212751 3.97231 0
M  V30 2081 H 198.212 1.6058 6.35527 0
M  V30 2082 H 197.732 -0.0690193 5.9976 0
M  V30 2083 H 199.411 0.300699 6.46301 0
M  V30 2084 N 199.544 -1.57102 0.125237 0
M  V30 2085 C 200.821 -1.86953 -0.575142 0
M  V30 2086 C 201.201 -1.02749 -1.84407 0
M  V30 2087 O 200.549 -0.108144 -2.28244 0
M  V30 2088 C 200.759 -3.38198 -0.861583 0
M  V30 2089 C 202.107 -4.06937 -1.21192 0
M  V30 2090 O 203.131 -3.43252 -0.951645 0
M  V30 2091 O 201.99 -5.19364 -1.70068 0
M  V30 2092 H 199.084 -0.774147 -0.290906 0
M  V30 2093 H 201.63 -1.68942 0.160211 0
M  V30 2094 H 200.402 -3.91282 0.0373647 0
M  V30 2095 H 200.025 -3.61661 -1.65188 0
M  V30 2096 N 201.022 0.148545 -1.56898 0
M  V30 2097 C 202.268 0.857877 -1.84424 0
M  V30 2098 C 202.623 1.7886 -0.709006 0
M  V30 2099 O 201.916 1.89344 0.293139 0
M  V30 2100 C 202.11 1.67064 -3.1595 0
M  V30 2101 C 201.939 0.82011 -4.42159 0
M  V30 2102 C 200.709 0.486328 -5.02954 0
M  V30 2103 C 202.907 0.151155 -5.14078 0
M  V30 2104 N 200.889 -0.377956 -6.12735 0
M  V30 2105 C 202.26 -0.573333 -6.17343 0
M  V30 2106 C 204.315 0.0716685 -4.97848 0
M  V30 2107 C 203.018 -1.3698 -7.06137 0
M  V30 2108 C 205.044 -0.711532 -5.87104 0
M  V30 2109 C 204.406 -1.42431 -6.8985 0
M  V30 2110 H 200.505 0.291798 -0.725519 0
M  V30 2111 H 203.089 0.123347 -1.94309 0
M  V30 2112 H 201.26 2.37642 -3.07215 0
M  V30 2113 H 202.992 2.32302 -3.31388 0
M  V30 2114 H 199.747 0.821753 -4.66416 0
M  V30 2115 H 200.171 -0.801077 -6.72244 0
M  V30 2116 H 204.813 0.608381 -4.184 0
M  V30 2117 H 202.531 -1.91778 -7.85014 0
M  V30 2118 H 206.117 -0.775005 -5.76615 0
M  V30 2119 H 204.997 -2.02061 -7.57721 0
M  V30 2120 N 202.5 1.5196 0.417844 0
M  V30 2121 C 203.41 1.77554 1.53336 0
M  V30 2122 C 204.426 0.660655 1.6097 0
M  V30 2123 O 205.602 0.945099 1.77848 0
M  V30 2124 C 202.667 1.91291 2.89152 0
M  V30 2125 C 201.728 3.15183 2.91475 0
M  V30 2126 C 200.961 3.28256 4.20813 0
M  V30 2127 O 201.184 2.46798 5.14244 0
M  V30 2128 O 200.118 4.21356 4.29817 0
M  V30 2129 H 203.944 2.7222 1.34647 0
M  V30 2130 H 201.529 1.36698 0.602828 0
M  V30 2131 H 203.411 2.02199 3.69721 0
M  V30 2132 H 202.086 0.998129 3.07927 0
M  V30 2133 H 200.993 3.09739 2.09791 0
M  V30 2134 H 202.326 4.06414 2.77648 0
M  V30 2135 N 203.978 -0.674533 1.42435 0
M  V30 2136 C 205.255 -1.4305 1.33402 0
M  V30 2137 C 205.635 -2.11081 -0.0284674 0
M  V30 2138 O 204.983 -2.03257 -1.04397 0
M  V30 2139 C 205.193 -2.43272 2.50239 0
M  V30 2140 C 206.541 -3.07907 2.92367 0
M  V30 2141 O 207.565 -2.53599 2.50132 0
M  V30 2142 O 206.424 -4.0632 3.65467 0
M  V30 2143 H 203.518 -0.638076 0.526106 0
M  V30 2144 H 206.064 -0.703235 1.54443 0
M  V30 2145 H 204.836 -1.91803 3.41068 0
M  V30 2146 H 204.459 -3.23479 2.31186 0
M  V30 2147 N 205.456 -1.28612 -0.910864 0
M  V30 2148 C 206.702 -1.17116 -1.66299 0
M  V30 2149 C 207.057 0.276917 -1.90397 0
M  V30 2150 O 206.35 1.19795 -1.49532 0
M  V30 2151 C 206.544 -1.90624 -3.0232 0
M  V30 2152 C 206.373 -3.42431 -2.91498 0
M  V30 2153 C 205.143 -4.11773 -2.92867 0
M  V30 2154 C 207.341 -4.38124 -2.69355 0
M  V30 2155 N 205.323 -5.50025 -2.72664 0
M  V30 2156 C 206.694 -5.63759 -2.58023 0
M  V30 2157 C 208.749 -4.28016 -2.54375 0
M  V30 2158 C 207.452 -6.80436 -2.33238 0
M  V30 2159 C 209.478 -5.44433 -2.30969 0
M  V30 2160 C 208.84 -6.69034 -2.20394 0
M  V30 2161 H 204.939 -0.483506 -0.61461 0
M  V30 2162 H 207.523 -1.62299 -1.0755 0
M  V30 2163 H 205.694 -1.4787 -3.5915 0
M  V30 2164 H 207.426 -1.71488 -3.66571 0
M  V30 2165 H 204.181 -3.63378 -3.03732 0
M  V30 2166 H 204.605 -6.22705 -2.65646 0
M  V30 2167 H 209.247 -3.32388 -2.613 0
M  V30 2168 H 206.965 -7.7613 -2.25051 0
M  V30 2169 H 210.551 -5.38504 -2.20238 0
M  V30 2170 H 209.431 -7.57595 -2.02531 0
M  V30 2171 N 206.934 1.1197 -1.10907 0
M  V30 2172 C 208.35 1.35591 -0.841852 0
M  V30 2173 C 208.55 1.94233 0.536246 0
M  V30 2174 O 207.606 2.1717 1.28816 0
M  V30 2175 C 208.919 2.29284 -1.94549 0
M  V30 2176 C 210.467 2.42862 -1.97451 0
M  V30 2177 C 210.942 3.39873 -3.07002 0
M  V30 2178 N 212.433 3.47433 -3.06341 0
M  V30 2179 C 213.168 4.22421 -3.87748 0
M  V30 2180 N 212.664 5.00432 -4.79103 0
M  V30 2181 N 214.457 4.17876 -3.75946 0
M  V30 2182 H 206.608 0.722664 -1.99728 0
M  V30 2183 H 208.871 0.380635 -0.868229 0
M  V30 2184 H 208.577 1.93378 -2.93765 0
M  V30 2185 H 208.451 3.29452 -1.83688 0
M  V30 2186 H 210.838 2.78046 -0.988645 0
M  V30 2187 H 210.919 1.42566 -2.12388 0
M  V30 2188 H 210.563 3.05417 -4.05811 0
M  V30 2189 H 210.493 4.40011 -2.89306 0
M  V30 2190 H 212.984 2.91784 -2.40147 0
M  V30 2191 H 213.297 5.55002 -5.37766 0
M  V30 2192 H 211.642 4.99612 -4.83128 0
M  V30 2193 H 214.833 3.56016 -3.03924 0
M  V30 2194 H 215.006 4.76061 -4.39624 0
M  V30 2195 N 208.412 0.89855 1.29475 0
M  V30 2196 C 209.823 0.572537 1.77705 0
M  V30 2197 C 210.174 -0.911778 1.73727 0
M  V30 2198 O 209.299 -1.71288 1.32247 0
M  V30 2199 C 209.894 1.03252 3.22683 0
M  V30 2200 C 208.453 0.757687 3.68695 0
M  V30 2201 C 207.6 1.20787 2.49612 0
M  V30 2202 H 210.551 1.08139 1.16153 0
M  V30 2203 H 210.572 0.367307 3.78723 0
M  V30 2204 H 210.084 2.11285 3.25546 0
M  V30 2205 H 208.185 -0.310079 3.71308 0
M  V30 2206 H 208.298 1.35476 4.59547 0
M  V30 2207 H 206.662 0.626888 2.46865 0
M  V30 2208 H 207.445 2.29622 2.55203 0
M  V30 2209 N 209.89 -1.43072 0.660911 0
M  V30 2210 C 211.136 -2.0202 0.177708 0
M  V30 2211 C 211.469 -1.52066 -1.20787 0
M  V30 2212 O 210.744 -0.716987 -1.80802 0
M  V30 2213 C 211.027 -3.59561 0.197019 0
M  V30 2214 C 210.88 -4.19727 1.61706 0
M  V30 2215 C 212.199 -4.37664 -0.462396 0
M  V30 2216 H 209.318 -0.734034 0.0660494 0
M  V30 2217 H 211.96 -1.70272 0.843058 0
M  V30 2218 H 210.11 -3.86739 -0.369527 0
M  V30 2219 H 211.782 -4.03553 2.23479 0
M  V30 2220 H 210.025 -3.76084 2.16201 0
M  V30 2221 H 210.696 -5.28834 1.58237 0
M  V30 2222 H 213.172 -4.16095 0.0197215 0
M  V30 2223 H 212.048 -5.47305 -0.418188 0
M  V30 2224 H 212.309 -4.14493 -1.53778 0
M  V30 2225 N 211.368 -0.403325 -1.52352 0
M  V30 2226 C 212.614 0.167015 -2.02713 0
M  V30 2227 C 212.969 1.43296 -1.28391 0
M  V30 2228 O 212.262 1.87796 -0.379885 0
M  V30 2229 C 212.456 0.474665 -3.54234 0
M  V30 2230 C 212.285 -0.759909 -4.43233 0
M  V30 2231 C 211.055 -1.28338 -4.88731 0
M  V30 2232 C 213.253 -1.63634 -4.87574 0
M  V30 2233 N 211.235 -2.47404 -5.6184 0
M  V30 2234 C 212.606 -2.67329 -5.59406 0
M  V30 2235 C 214.661 -1.65478 -4.69597 0
M  V30 2236 C 213.364 -3.72773 -6.15169 0
M  V30 2237 C 215.39 -2.69837 -5.26253 0
M  V30 2238 C 214.752 -3.72253 -5.98002 0
M  V30 2239 H 210.851 0.0228343 -0.781667 0
M  V30 2240 H 213.435 -0.556368 -1.86581 0
M  V30 2241 H 211.606 1.16709 -3.7045 0
M  V30 2242 H 213.338 1.03338 -3.91284 0
M  V30 2243 H 210.093 -0.842273 -4.6605 0
M  V30 2244 H 210.517 -3.07688 -6.0304 0
M  V30 2245 H 215.159 -0.876389 -4.13617 0
M  V30 2246 H 212.877 -4.51471 -6.70223 0
M  V30 2247 H 216.463 -2.72164 -5.14216 0
M  V30 2248 H 215.343 -4.51679 -6.41058 0
M  V30 2249 N 212.846 1.57033 -0.133567 0
M  V30 2250 C 214.092 1.95976 0.521649 0
M  V30 2251 C 214.425 1.01779 1.65393 0
M  V30 2252 O 213.7 0.0576581 1.94415 0
M  V30 2253 C 213.983 3.44738 1.04057 0
M  V30 2254 C 213.836 4.49711 -0.0892897 0
M  V30 2255 C 215.155 3.95682 1.92675 0
M  V30 2256 H 212.274 0.712579 0.188149 0
M  V30 2257 H 214.916 1.88813 -0.212076 0
M  V30 2258 H 213.066 3.50973 1.66583 0
M  V30 2259 H 214.738 4.55565 -0.725152 0
M  V30 2260 H 212.981 4.27261 -0.750378 0
M  V30 2261 H 213.652 5.51099 0.315284 0
M  V30 2262 H 216.128 3.91841 1.39998 0
M  V30 2263 H 215.004 5.00262 2.25897 0
M  V30 2264 H 215.265 3.37239 2.85872 0
M  V30 2265 N 214.325 -0.140222 1.56975 0
M  V30 2266 C 215.741 -0.493088 1.51792 0
M  V30 2267 C 215.941 -1.83013 0.843116 0
M  V30 2268 O 214.997 -2.49041 0.416493 0
M  V30 2269 C 216.31 -0.497144 2.96562 0
M  V30 2270 C 217.858 -0.582186 3.07538 0
M  V30 2271 C 218.333 -0.616838 4.53827 0
M  V30 2272 N 219.824 -0.678873 4.58198 0
M  V30 2273 C 220.559 -0.726782 5.68775 0
M  V30 2274 N 220.055 -0.733623 6.88905 0
M  V30 2275 N 221.848 -0.768179 5.56826 0
M  V30 2276 H 213.999 0.736108 1.99237 0
M  V30 2277 H 216.262 0.269182 0.90898 0
M  V30 2278 H 215.968 0.417217 3.49217 0
M  V30 2279 H 215.842 -1.33263 3.52875 0
M  V30 2280 H 218.229 -1.48697 2.54899 0
M  V30 2281 H 218.31 0.280581 2.54257 0
M  V30 2282 H 217.954 0.283812 5.07106 0
M  V30 2283 H 217.884 -1.49619 5.04898 0
M  V30 2284 H 220.375 -0.68061 3.7172 0
M  V30 2285 H 220.688 -0.772215 7.68932 0
M  V30 2286 H 219.033 -0.701389 6.91452 0
M  V30 2287 H 222.224 -0.760051 4.61888 0
M  V30 2288 H 222.397 -0.80205 6.43017 0
M  V30 2289 N 215.803 -1.52179 -0.40978 0
M  V30 2290 C 216.751 -1.76086 -1.51975 0
M  V30 2291 C 217.745 -0.627964 -1.57331 0
M  V30 2292 O 218.951 -0.809993 -1.60745 0
M  V30 2293 H 215.326 -0.556829 -0.505416 0
M  V30 2294 H 217.297 -2.69077 -1.28996 0
M  V30 2295 C 216.046 -1.92799 -2.8935 0
M  V30 2296 H 215.369 -2.79392 -2.85972 0
M  V30 2297 H 216.809 -2.13527 -3.66309 0
M  V30 2298 C 215.268 -0.694923 -3.29655 0
M  V30 2299 O 215.798 0.13751 -4.01465 0
M  V30 2300 N 214.004 -0.53101 -2.85707 0
M  V30 2301 H 213.551 -1.20952 -2.27439 0
M  V30 2302 H 213.509 0.292718 -3.13034 0
M  V30 2303 N 217.281 0.66697 -1.42791 0
M  V30 2304 C 218.527 1.42754 -1.44889 0
M  V30 2305 C 218.882 1.92283 -0.0669755 0
M  V30 2306 O 218.175 1.68494 0.912154 0
M  V30 2307 C 218.369 2.6349 -2.4147 0
M  V30 2308 C 218.198 2.25776 -3.88915 0
M  V30 2309 C 216.968 2.1476 -4.57391 0
M  V30 2310 C 219.166 1.86927 -4.79127 0
M  V30 2311 N 217.148 1.70232 -5.89826 0
M  V30 2312 C 218.519 1.53378 -6.00729 0
M  V30 2313 C 220.574 1.73989 -4.66511 0
M  V30 2314 C 219.277 1.08187 -7.11117 0
M  V30 2315 C 221.303 1.30203 -5.76889 0
M  V30 2316 C 220.665 0.975818 -6.97608 0
M  V30 2317 H 216.764 0.518559 -0.585338 0
M  V30 2318 H 219.348 0.768906 -1.78874 0
M  V30 2319 H 217.519 3.27033 -2.09533 0
M  V30 2320 H 219.251 3.30123 -2.34096 0
M  V30 2321 H 216.006 2.3408 -4.11708 0
M  V30 2322 H 216.43 1.50369 -6.6009 0
M  V30 2323 H 221.072 1.97853 -3.7365 0
M  V30 2324 H 218.79 0.830701 -8.03819 0
M  V30 2325 H 222.376 1.20701 -5.69142 0
M  V30 2326 H 221.256 0.642157 -7.81566 0
M  V30 2327 N 218.759 1.29093 0.90403 0
M  V30 2328 C 219.691 1.09658 2.01266 0
M  V30 2329 C 220.704 0.0453729 1.62737 0
M  V30 2330 O 221.893 0.289446 1.76138 0
M  V30 2331 C 218.993 0.646278 3.32681 0
M  V30 2332 C 218.166 1.77505 3.99763 0
M  V30 2333 C 217.225 1.31649 5.09465 0
M  V30 2334 O 216.251 2.02045 5.32134 0
M  V30 2335 N 217.453 0.184997 5.80205 0
M  V30 2336 H 220.218 2.05135 2.18494 0
M  V30 2337 H 217.779 1.20975 1.07594 0
M  V30 2338 H 219.771 0.322906 4.0341 0
M  V30 2339 H 218.341 -0.215916 3.11853 0
M  V30 2340 H 217.561 2.26752 3.22455 0
M  V30 2341 H 218.849 2.53198 4.41325 0
M  V30 2342 H 218.247 -0.402021 5.6427 0
M  V30 2343 H 216.804 -0.0790358 6.51752 0
M  V30 2344 N 220.237 -1.11381 1.11499 0
M  V30 2345 C 221.514 -1.7955 0.775965 0
M  V30 2346 C 221.894 -1.97859 -0.73588 0
M  V30 2347 O 221.242 -1.56376 -1.66609 0
M  V30 2348 C 221.452 -3.13196 1.53977 0
M  V30 2349 C 222.8 -3.88227 1.71944 0
M  V30 2350 O 223.824 -3.22887 1.50407 0
M  V30 2351 O 222.683 -5.05477 2.07738 0
M  V30 2352 H 219.777 -0.777728 0.28119 0
M  V30 2353 H 222.323 -1.18118 1.21845 0
M  V30 2354 H 221.095 -2.95229 2.56818 0
M  V30 2355 H 220.718 -3.82342 1.09088 0
M  V30 2356 N 221.715 -0.905404 -1.28997 0
M  V30 2357 C 222.662 -0.385892 -2.27551 0
M  V30 2358 C 223.632 0.535113 -1.57244 0
M  V30 2359 O 224.817 0.459119 -1.85194 0
M  V30 2360 C 221.957 0.375461 -3.43051 0
M  V30 2361 C 221.07 -0.577092 -4.28128 0
M  V30 2362 C 220.205 0.201879 -5.30816 0
M  V30 2363 C 219.244 -0.744829 -6.07551 0
M  V30 2364 N 218.381 9.42587e-05 -7.021 0
M  V30 2365 H 223.221 -1.23139 -2.71368 0
M  V30 2366 H 220.758 -0.618542 -1.33463 0
M  V30 2367 H 222.716 0.832992 -4.088 0
M  V30 2368 H 221.346 1.18537 -3.00248 0
M  V30 2369 H 220.398 -1.15315 -3.62501 0
M  V30 2370 H 221.71 -1.30152 -4.8152 0
M  V30 2371 H 220.864 0.720351 -6.02408 0
M  V30 2372 H 219.603 0.959413 -4.7817 0
M  V30 2373 H 218.608 -1.27475 -5.34818 0
M  V30 2374 H 219.833 -1.50178 -6.62286 0
M  V30 2375 H 217.779 0.739791 -6.51815 0
M  V30 2376 H 217.696 -0.664321 -7.53076 0
M  V30 2377 H 218.964 0.498644 -7.77903 0
M  V30 2378 N 223.193 1.4272 -0.668489 0
M  V30 2379 C 224.47 1.95248 -0.117373 0
M  V30 2380 C 224.85 1.60919 1.36632 0
M  V30 2381 O 224.198 0.902095 2.09939 0
M  V30 2382 C 224.408 3.46927 -0.379806 0
M  V30 2383 C 225.756 4.23588 -0.292923 0
M  V30 2384 O 226.78 3.5482 -0.313204 0
M  V30 2385 O 225.639 5.46017 -0.229697 0
M  V30 2386 H 222.733 0.827 0.00079152 0
M  V30 2387 H 225.279 1.52581 -0.742783 0
M  V30 2388 H 224.051 3.65096 -1.40786 0
M  V30 2389 H 223.674 3.96627 0.277923 0
M  V30 2390 N 224.671 0.411399 1.52136 0
M  V30 2391 C 225.917 -0.163888 2.02137 0
M  V30 2392 C 226.25 -1.44597 1.29636 0
M  V30 2393 O 225.525 -1.90272 0.403353 0
M  V30 2394 C 225.808 -0.40927 3.57767 0
M  V30 2395 C 225.661 0.889643 4.40914 0
M  V30 2396 C 226.98 -1.19042 4.23694 0
M  V30 2397 H 224.099 -0.0580896 0.734707 0
M  V30 2398 H 226.741 0.54531 1.82007 0
M  V30 2399 H 224.891 -1.0134 3.7505 0
M  V30 2400 H 226.563 1.52575 4.35337 0
M  V30 2401 H 224.806 1.50011 4.07037 0
M  V30 2402 H 225.477 0.672314 5.4789 0
M  V30 2403 H 227.953 -0.678942 4.10524 0
M  V30 2404 H 226.829 -1.33086 5.32522 0
M  V30 2405 H 227.09 -2.21166 3.82803 0
M  V30 2406 N 226.149 -1.5696 0.141893 0
M  V30 2407 C 227.379 -2.00031 -0.516828 0
M  V30 2408 C 227.787 -1.02091 -1.59293 0
M  V30 2409 O 227.13 -0.00909657 -1.83698 0
M  V30 2410 C 227.192 -3.39534 -1.1814 0
M  V30 2411 C 226.856 -4.56313 -0.250513 0
M  V30 2412 C 227.853 -5.17295 0.519839 0
M  V30 2413 C 225.538 -5.02061 -0.154907 0
M  V30 2414 C 227.532 -6.2243 1.3733 0
M  V30 2415 C 225.219 -6.07053 0.702161 0
M  V30 2416 C 226.217 -6.67106 1.46487 0
M  V30 2417 O 225.905 -7.70066 2.30767 0
M  V30 2418 H 225.637 -0.661451 -0.139493 0
M  V30 2419 H 228.191 -2.04086 0.231926 0
M  V30 2420 H 226.421 -3.32302 -1.97769 0
M  V30 2421 H 228.11 -3.66745 -1.73933 0
M  V30 2422 H 228.876 -4.82852 0.45598 0
M  V30 2423 H 224.755 -4.5505 -0.7383 0
M  V30 2424 H 228.299 -6.69233 1.96909 0
M  V30 2425 H 224.196 -6.40923 0.76733 0
M  V30 2426 H 224.964 -7.87264 2.23959 0
M  V30 2427 N 227.627 0.131896 -1.57047 0
M  V30 2428 C 229.043 0.485031 -1.52051 0
M  V30 2429 C 229.243 1.82563 -0.85281 0
M  V30 2430 O 228.299 2.48817 -0.429694 0
M  V30 2431 C 229.612 0.481409 -2.96821 0
M  V30 2432 C 231.16 0.565868 -3.07842 0
M  V30 2433 C 231.635 0.592762 -4.54148 0
M  V30 2434 N 233.126 0.654564 -4.58552 0
M  V30 2435 C 233.861 0.696608 -5.69153 0
M  V30 2436 N 233.357 0.697078 -6.89284 0
M  V30 2437 N 235.15 0.738639 -5.57226 0
M  V30 2438 H 227.301 -0.746664 -1.98843 0
M  V30 2439 H 229.564 -0.273999 -0.90754 0
M  V30 2440 H 229.27 -0.435731 -3.4899 0
M  V30 2441 H 229.144 1.3139 -3.53577 0
M  V30 2442 H 231.531 1.47343 -2.55684 0
M  V30 2443 H 231.612 -0.29406 -2.54104 0
M  V30 2444 H 231.256 -0.310701 -5.06949 0
M  V30 2445 H 231.186 1.46939 -5.05684 0
M  V30 2446 H 233.677 0.660887 -3.72076 0
M  V30 2447 H 233.99 0.731426 -7.69331 0
M  V30 2448 H 232.335 0.66471 -6.91814 0
M  V30 2449 H 235.526 0.735545 -4.62285 0
M  V30 2450 H 235.699 0.767938 -6.43434 0
M  V30 2451 N 229.106 1.52395 0.401703 0
M  V30 2452 C 230.522 1.41363 0.740864 0
M  V30 2453 C 230.722 0.523982 1.94568 0
M  V30 2454 O 229.778 -0.00741204 2.52499 0
M  V30 2455 C 231.091 2.84011 0.987847 0
M  V30 2456 C 232.639 2.93404 1.09011 0
M  V30 2457 C 233.114 4.37036 1.3698 0
M  V30 2458 N 234.605 4.40304 1.43829 0
M  V30 2459 C 235.34 5.48508 1.67112 0
M  V30 2460 N 234.836 6.66819 1.87949 0
M  V30 2461 N 236.629 5.36034 1.69187 0
M  V30 2462 H 228.78 2.08765 -0.391262 0
M  V30 2463 H 231.043 0.941265 -0.112798 0
M  V30 2464 H 230.749 3.51265 0.174835 0
M  V30 2465 H 230.623 3.25502 1.906 0
M  V30 2466 H 233.01 2.26325 1.8937 0
M  V30 2467 H 233.091 2.55359 0.15015 0
M  V30 2468 H 232.735 5.04676 0.571353 0
M  V30 2469 H 232.665 4.72623 2.3224 0
M  V30 2470 H 235.156 3.55024 1.29486 0
M  V30 2471 H 235.469 7.45063 2.05185 0
M  V30 2472 H 233.814 6.6987 1.85199 0
M  V30 2473 H 237.005 4.42579 1.52451 0
M  V30 2474 H 237.178 6.20434 1.86993 0
M  V30 2475 N 230.584 -0.659388 1.43143 0
M  V30 2476 C 231.514 -1.78422 1.50625 0
M  V30 2477 C 232.495 -1.66216 0.361443 0
M  V30 2478 O 233.68 -1.85404 0.577834 0
M  V30 2479 C 230.81 -3.16815 1.42287 0
M  V30 2480 C 229.764 -3.43777 2.54954 0
M  V30 2481 C 229.09 -4.81905 2.31671 0
M  V30 2482 C 230.39 -3.39134 3.97222 0
M  V30 2483 H 232.084 -1.72417 2.44771 0
M  V30 2484 H 229.63 -0.828084 1.17808 0
M  V30 2485 H 231.583 -3.95253 1.46127 0
M  V30 2486 H 230.307 -3.23534 0.446435 0
M  V30 2487 H 228.966 -2.67707 2.50457 0
M  V30 2488 H 228.614 -4.85294 1.32284 0
M  V30 2489 H 228.314 -5.00906 3.07192 0
M  V30 2490 H 229.838 -5.62609 2.37284 0
M  V30 2491 H 231.252 -4.07518 4.03239 0
M  V30 2492 H 229.649 -3.69671 4.72719 0
M  V30 2493 H 230.719 -2.37426 4.22797 0
M  V30 2494 N 232.062 -1.29571 -0.897171 0
M  V30 2495 C 233.287 -1.20705 -1.68656 0
M  V30 2496 C 233.712 0.228582 -1.86706 0
M  V30 2497 O 233.07 1.16494 -1.3892 0
M  V30 2498 C 233.118 -1.9282 -3.04717 0
M  V30 2499 O 232.222 -1.24697 -3.93096 0
M  V30 2500 H 231.563 -0.418126 -0.515816 0
M  V30 2501 H 234.093 -1.71183 -1.12061 0
M  V30 2502 H 234.103 -2.01372 -3.54843 0
M  V30 2503 H 232.778 -2.97239 -2.90899 0
M  V30 2504 H 231.355 -1.2442 -3.51531 0
M  V30 2505 N 233.54 1.10788 -1.12088 0
M  V30 2506 C 234.956 1.34691 -0.856186 0
M  V30 2507 C 235.156 1.94791 0.515615 0
M  V30 2508 O 234.212 2.18524 1.26505 0
M  V30 2509 C 235.525 2.27208 -1.9697 0
M  V30 2510 C 237.073 2.40755 -2.00016 0
M  V30 2511 C 237.548 3.36598 -3.1059 0
M  V30 2512 N 239.039 3.44164 -3.10008 0
M  V30 2513 C 239.774 4.18284 -3.92206 0
M  V30 2514 N 239.27 4.95322 -4.84384 0
M  V30 2515 N 241.063 4.13865 -3.80357 0
M  V30 2516 H 233.214 0.70144 -2.00483 0
M  V30 2517 H 235.477 0.371405 -0.872217 0
M  V30 2518 H 235.183 1.90251 -2.958 0
M  V30 2519 H 235.057 3.27485 -1.87172 0
M  V30 2520 H 237.444 2.76982 -1.01808 0
M  V30 2521 H 237.525 1.40305 -2.13888 0
M  V30 2522 H 237.169 3.01096 -4.09028 0
M  V30 2523 H 237.099 4.36918 -2.93956 0
M  V30 2524 H 239.59 2.8922 -2.43228 0
M  V30 2525 H 239.903 5.49267 -5.43623 0
M  V30 2526 H 238.248 4.94459 -4.884 0
M  V30 2527 H 241.439 3.52773 -3.07683 0
M  V30 2528 H 241.612 4.71372 -4.44649 0
M  V30 2529 N 235.018 0.912232 1.28515 0
M  V30 2530 C 235.95 0.35676 2.26406 0
M  V30 2531 C 236.963 -0.503933 1.54804 0
M  V30 2532 O 238.152 -0.319059 1.75625 0
M  V30 2533 C 235.252 -0.508825 3.35058 0
M  V30 2534 C 234.425 0.329007 4.36161 0
M  V30 2535 C 233.484 -0.471422 5.24084 0
M  V30 2536 O 232.51 0.115482 5.69083 0
M  V30 2537 N 233.712 -1.77479 5.52704 0
M  V30 2538 H 236.477 1.19818 2.74707 0
M  V30 2539 H 234.038 0.778022 1.4198 0
M  V30 2540 H 236.03 -1.051 3.90815 0
M  V30 2541 H 234.6 -1.25095 2.86478 0
M  V30 2542 H 233.82 1.05256 3.79888 0
M  V30 2543 H 235.108 0.90234 5.00735 0
M  V30 2544 H 234.506 -2.27417 5.17975 0
M  V30 2545 H 233.063 -2.26382 6.11224 0
M  V30 2546 N 236.496 -1.42363 0.676048 0
M  V30 2547 C 237.426 -2.33497 0.0124832 0
M  V30 2548 C 238.407 -1.50748 -0.787981 0
M  V30 2549 O 239.592 -1.79346 -0.744884 0
M  V30 2550 C 236.722 -3.34377 -0.938582 0
M  V30 2551 C 235.676 -4.27289 -0.246622 0
M  V30 2552 C 235.002 -5.18386 -1.31071 0
M  V30 2553 C 236.302 -5.14916 0.875125 0
M  V30 2554 H 237.996 -2.89233 0.773593 0
M  V30 2555 H 235.542 -1.39073 0.37346 0
M  V30 2556 H 237.495 -3.97044 -1.41188 0
M  V30 2557 H 236.219 -2.76947 -1.73113 0
M  V30 2558 H 234.878 -3.66018 0.206456 0
M  V30 2559 H 234.526 -4.57282 -2.09528 0
M  V30 2560 H 234.226 -5.81378 -0.852839 0
M  V30 2561 H 235.75 -5.83929 -1.78492 0
M  V30 2562 H 237.164 -5.71262 0.482983 0
M  V30 2563 H 235.561 -5.86747 1.25887 0
M  V30 2564 H 236.631 -4.53242 1.72335 0
M  V30 2565 N 237.974 -0.419461 -1.51915 0
M  V30 2566 C 239.22 0.153166 -2.02221 0
M  V30 2567 C 239.553 1.43907 -1.30401 0
M  V30 2568 O 238.828 1.90055 -0.413438 0
M  V30 2569 C 239.111 0.390291 -3.57979 0
M  V30 2570 C 238.964 -0.913014 -4.40436 0
M  V30 2571 C 240.283 1.16794 -4.2432 0
M  V30 2572 H 237.402 0.0541924 -0.735005 0
M  V30 2573 H 240.044 -0.554955 -1.81715 0
M  V30 2574 H 238.194 0.993491 -3.75582 0
M  V30 2575 H 239.866 -1.54882 -4.34522 0
M  V30 2576 H 238.109 -1.52168 -4.06236 0
M  V30 2577 H 238.78 -0.701361 -5.47526 0
M  V30 2578 H 241.256 0.657161 -4.10878 0
M  V30 2579 H 240.132 1.3026 -5.3322 0
M  V30 2580 H 240.393 2.19132 -3.83971 0
M  V30 2581 N 239.452 1.56882 -0.150215 0
M  V30 2582 C 240.415 2.1573 0.774157 0
M  V30 2583 C 241.415 1.0999 1.17298 0
M  V30 2584 O 242.605 1.35613 1.09338 0
M  V30 2585 C 239.737 2.72302 2.05096 0
M  V30 2586 H 240.93 2.98752 0.262201 0
M  V30 2587 H 238.483 1.55985 0.099248 0
M  V30 2588 H 239.218 1.92956 2.6065 0
M  V30 2589 H 239.003 3.49665 1.77416 0
M  V30 2590 H 240.493 3.17632 2.71109 0
M  V30 2591 N 240.93 -0.123565 1.57115 0
M  V30 2592 C 242.155 -0.850398 1.89164 0
M  V30 2593 C 242.58 -1.7286 0.741688 0
M  V30 2594 O 241.938 -1.78665 -0.307958 0
M  V30 2595 C 241.986 -1.66353 3.19936 0
M  V30 2596 O 241.09 -2.77004 3.0552 0
M  V30 2597 H 240.431 -0.235454 0.620852 0
M  V30 2598 H 242.961 -0.107335 2.04318 0
M  V30 2599 H 242.971 -2.05372 3.52543 0
M  V30 2600 H 241.646 -1.01881 4.03228 0
M  V30 2601 H 240.223 -2.41221 2.84371 0
M  V30 2602 N 242.408 -1.52605 -0.393616 0
M  V30 2603 C 243.358 -1.73436 -1.48 0
M  V30 2604 C 244.342 -0.588386 -1.49756 0
M  V30 2605 O 245.534 -0.846047 -1.5547 0
M  V30 2606 C 242.663 -1.90247 -2.85764 0
M  V30 2607 C 241.749 -3.10763 -2.88595 0
M  V30 2608 N 242.14 -4.33196 -2.61103 0
M  V30 2609 C 240.438 -3.10914 -3.19763 0
M  V30 2610 C 241.139 -5.1477 -2.70899 0
M  V30 2611 N 240.115 -4.50356 -3.04435 0
M  V30 2612 H 243.917 -2.65727 -1.25563 0
M  V30 2613 H 241.431 -1.5085 -0.601513 0
M  V30 2614 H 243.428 -2.03291 -3.63976 0
M  V30 2615 H 242.088 -0.991663 -3.09186 0
M  V30 2616 H 243.099 -4.61408 -2.35209 0
M  V30 2617 H 239.776 -2.29626 -3.4868 0
M  V30 2618 H 241.166 -6.22355 -2.53227 0
M  V30 2619 N 243.887 0.651787 -1.4349 0
M  V30 2620 C 244.837 1.75783 -1.45205 0
M  V30 2621 C 245.821 1.57679 -0.320328 0
M  V30 2622 O 247.013 1.67767 -0.564211 0
M  V30 2623 C 244.142 3.14377 -1.3792 0
M  V30 2624 C 243.228 3.38023 -2.56127 0
M  V30 2625 N 243.619 3.32135 -3.81471 0
M  V30 2626 C 241.917 3.68747 -2.50882 0
M  V30 2627 C 242.618 3.55902 -4.60118 0
M  V30 2628 N 241.594 3.77783 -3.90872 0
M  V30 2629 H 245.396 1.69657 -2.39987 0
M  V30 2630 H 242.91 0.853508 -1.38163 0
M  V30 2631 H 244.907 3.93666 -1.37231 0
M  V30 2632 H 243.567 3.21683 -0.441596 0
M  V30 2633 H 244.578 3.11515 -4.13738 0
M  V30 2634 H 241.255 3.8316 -1.65816 0
M  V30 2635 H 242.645 3.57116 -5.69138 0
M  V30 2636 N 245.365 1.30045 0.890287 0
M  V30 2637 C 246.776 1.16738 1.45702 0
M  V30 2638 C 247.127 -0.233939 1.948 0
M  V30 2639 O 246.252 -1.13021 1.84541 0
M  V30 2640 C 246.847 2.11313 2.64825 0
M  V30 2641 C 245.406 2.02001 3.17604 0
M  V30 2642 C 244.553 2.01699 1.90296 0
M  V30 2643 H 247.504 1.42392 0.700726 0
M  V30 2644 H 247.525 1.69086 3.40867 0
M  V30 2645 H 247.037 3.13294 2.2906 0
M  V30 2646 H 245.138 1.03142 3.5804 0
M  V30 2647 H 245.251 2.90128 3.81264 0
M  V30 2648 H 243.615 1.46427 2.08402 0
M  V30 2649 H 244.398 3.05402 1.56795 0
M  V30 2650 N 246.843 -1.10192 1.12674 0
M  V30 2651 C 248.12 -1.78717 0.794965 0
M  V30 2652 C 248.5 -1.98628 -0.714853 0
M  V30 2653 O 247.848 -1.58135 -1.64941 0
M  V30 2654 C 248.058 -3.11546 1.5729 0
M  V30 2655 C 249.406 -3.86382 1.76052 0
M  V30 2656 O 250.43 -3.21274 1.53823 0
M  V30 2657 O 249.289 -5.03246 2.13087 0
M  V30 2658 H 246.383 -0.774702 0.289423 0
M  V30 2659 H 248.929 -1.16819 1.23091 0
M  V30 2660 H 247.701 -2.92489 2.59935 0
M  V30 2661 H 247.324 -3.81164 1.13137 0
M  V30 2662 N 248.321 -0.919034 -1.28029 0
M  V30 2663 C 249.567 -0.565221 -1.95389 0
M  V30 2664 C 249.922 0.882325 -1.70976 0
M  V30 2665 O 249.215 1.61988 -1.02325 0
M  V30 2666 C 249.409 -0.816855 -3.4794 0
M  V30 2667 C 249.238 -2.28731 -3.87185 0
M  V30 2668 C 248.008 -2.93841 -4.11079 0
M  V30 2669 C 250.206 -3.26415 -3.97439 0
M  V30 2670 N 248.188 -4.31129 -4.37037 0
M  V30 2671 C 249.559 -4.48884 -4.27672 0
M  V30 2672 C 251.614 -3.21742 -3.79982 0
M  V30 2673 C 250.317 -5.67268 -4.42266 0
M  V30 2674 C 252.343 -4.39431 -3.95796 0
M  V30 2675 C 251.705 -5.60675 -4.26407 0
M  V30 2676 H 247.804 -0.256797 -0.738633 0
M  V30 2677 H 250.388 -1.18386 -1.54573 0
M  V30 2678 H 248.559 -0.227445 -3.87733 0
M  V30 2679 H 250.291 -0.426542 -4.02446 0
M  V30 2680 H 247.046 -2.44547 -4.05578 0
M  V30 2681 H 247.47 -5.02127 -4.5409 0
M  V30 2682 H 252.112 -2.29079 -3.55363 0
M  V30 2683 H 249.83 -6.60406 -4.65714 0
M  V30 2684 H 253.416 -4.37323 -3.83719 0
M  V30 2685 H 252.296 -6.50223 -4.38383 0
M  V30 2686 N 249.799 1.42003 -0.683588 0
M  V30 2687 C 251.21 1.84501 -0.285736 0
M  V30 2688 C 251.561 1.57213 1.17382 0
M  V30 2689 O 250.686 1.03642 1.89966 0
M  V30 2690 C 251.281 3.34912 -0.511821 0
M  V30 2691 C 249.84 3.76025 -0.168005 0
M  V30 2692 C 248.987 2.6551 -0.799983 0
M  V30 2693 H 251.938 1.31724 -0.885119 0
M  V30 2694 H 251.959 3.79784 0.233292 0
M  V30 2695 H 251.471 3.54741 -1.57418 0
M  V30 2696 H 249.572 3.61801 0.890567 0
M  V30 2697 H 249.685 4.75141 -0.614661 0
M  V30 2698 H 248.049 2.53654 -0.230568 0
M  V30 2699 H 248.832 2.8816 -1.86597 0
M  V30 2700 N 251.277 0.427512 1.51691 0
M  V30 2701 C 252.688 -0.0378867 1.86662 0
M  V30 2702 C 253.039 -1.42819 1.34525 0
M  V30 2703 O 252.164 -2.05037 0.692014 0
M  V30 2704 C 252.759 -0.0755266 3.38716 0
M  V30 2705 C 251.318 -0.485309 3.73258 0
M  V30 2706 C 250.465 0.328399 2.75349 0
M  V30 2707 H 253.416 0.64379 1.45055 0
M  V30 2708 H 253.437 -0.887056 3.70016 0
M  V30 2709 H 252.949 0.936487 3.76632 0
M  V30 2710 H 251.05 -1.50329 3.40928 0
M  V30 2711 H 251.163 -0.21693 4.78609 0
M  V30 2712 H 249.527 -0.211905 2.53817 0
M  V30 2713 H 250.31 1.3391 3.16106 0
M  V30 2714 N 252.755 -1.56801 0.158532 0
M  V30 2715 C 253.665 -2.20916 -0.789518 0
M  V30 2716 C 254.681 -1.1969 -1.26294 0
M  V30 2717 O 255.857 -1.52308 -1.31773 0
M  V30 2718 C 252.922 -2.82727 -2.00665 0
M  V30 2719 C 251.983 -3.99114 -1.58134 0
M  V30 2720 C 251.216 -4.57968 -2.74045 0
M  V30 2721 O 251.439 -4.15704 -3.90572 0
M  V30 2722 O 250.373 -5.48047 -2.48855 0
M  V30 2723 H 254.199 -3.02464 -0.273681 0
M  V30 2724 H 251.784 -1.4924 -0.0690548 0
M  V30 2725 H 253.666 -3.21968 -2.71872 0
M  V30 2726 H 252.341 -2.04184 -2.51179 0
M  V30 2727 H 251.248 -3.64567 -0.839155 0
M  V30 2728 H 252.581 -4.79212 -1.12325 0
M  V30 2729 N 254.233 0.115231 -1.57178 0
M  V30 2730 C 255.649 0.468877 -1.52557 0
M  V30 2731 C 255.849 1.81649 -0.872125 0
M  V30 2732 O 254.905 2.48347 -0.45606 0
M  V30 2733 C 256.218 0.4499 -2.97315 0
M  V30 2734 C 257.766 0.533185 -3.08425 0
M  V30 2735 C 258.241 0.54456 -4.54751 0
M  V30 2736 N 259.732 0.605892 -4.5922 0
M  V30 2737 C 260.467 0.636203 -5.6986 0
M  V30 2738 N 259.963 0.623931 -6.89985 0
M  V30 2739 N 261.756 0.679496 -5.57978 0
M  V30 2740 H 253.907 -0.767712 -1.9804 0
M  V30 2741 H 256.17 -0.283609 -0.904583 0
M  V30 2742 H 255.876 -0.472721 -3.48509 0
M  V30 2743 H 255.75 1.27632 -3.5495 0
M  V30 2744 H 258.137 1.44623 -2.57232 0
M  V30 2745 H 258.218 -0.320995 -2.53778 0
M  V30 2746 H 257.862 -0.364452 -5.06591 0
M  V30 2747 H 257.792 1.41568 -5.07214 0
M  V30 2748 H 260.283 0.621386 -3.72756 0
M  V30 2749 H 260.596 0.649787 -7.70063 0
M  V30 2750 H 258.941 0.591296 -6.9248 0
M  V30 2751 H 262.132 0.686472 -4.63039 0
M  V30 2752 H 262.305 0.69965 -6.44212 0
M  V30 2753 N 255.711 1.52812 0.385517 0
M  V30 2754 C 256.96 1.67249 1.12741 0
M  V30 2755 C 257.273 0.4205 1.91027 0
M  V30 2756 O 258.479 0.445064 2.67827 0
M  V30 2757 C 256.935 2.95583 2.05326 0
M  V30 2758 C 256.543 4.27974 1.32447 0
M  V30 2759 C 258.287 3.19386 2.7963 0
M  V30 2760 C 256.194 5.47412 2.23818 0
M  V30 2761 H 255.124 0.6231 0.424573 0
M  V30 2762 H 257.775 1.79309 0.389924 0
M  V30 2763 H 256.157 2.77277 2.82725 0
M  V30 2764 H 257.331 4.56844 0.602495 0
M  V30 2765 H 255.646 4.10459 0.700885 0
M  V30 2766 H 258.243 4.05801 3.48181 0
M  V30 2767 H 258.586 2.34604 3.43899 0
M  V30 2768 H 259.119 3.38274 2.09322 0
M  V30 2769 H 255.858 6.34612 1.64157 0
M  V30 2770 H 255.378 5.22849 2.93921 0
M  V30 2771 H 257.057 5.81423 2.83824 0
M  V30 2772 N 257.189 -0.644168 1.43834 0
M  V30 2773 C 258.435 -1.40603 1.46146 0
M  V30 2774 C 258.768 -1.93997 0.0887717 0
M  V30 2775 O 258.043 -1.72854 -0.891724 0
M  V30 2776 C 258.326 -2.58086 2.51124 0
M  V30 2777 C 258.179 -2.10126 3.97702 0
M  V30 2778 C 259.498 -3.60291 2.52742 0
M  V30 2779 H 256.617 -0.509905 0.532134 0
M  V30 2780 H 259.259 -0.729502 1.75437 0
M  V30 2781 H 257.409 -3.15801 2.26278 0
M  V30 2782 H 259.081 -1.57342 4.33637 0
M  V30 2783 H 257.324 -1.41419 4.10101 0
M  V30 2784 H 257.995 -2.94649 4.66783 0
M  V30 2785 H 260.471 -3.12352 2.7491 0
M  V30 2786 H 259.347 -4.40032 3.28121 0
M  V30 2787 H 259.608 -4.1349 1.56455 0
M  V30 2788 N 258.668 -1.30515 -0.883378 0
M  V30 2789 C 259.615 -1.17032 -1.98927 0
M  V30 2790 C 260.585 -0.0594241 -1.65994 0
M  V30 2791 O 261.77 -0.229895 -1.8941 0
M  V30 2792 C 258.91 -0.869777 -3.33959 0
M  V30 2793 C 258.023 -2.06271 -3.79574 0
M  V30 2794 C 257.158 -1.70011 -5.03259 0
M  V30 2795 C 256.197 -2.8579 -5.41286 0
M  V30 2796 N 255.334 -2.49816 -6.56153 0
M  V30 2797 H 260.174 -2.1164 -2.09792 0
M  V30 2798 H 257.711 -1.05296 -1.02719 0
M  V30 2799 H 259.669 -0.676138 -4.11685 0
M  V30 2800 H 258.299 0.0394332 -3.22776 0
M  V30 2801 H 257.351 -2.36755 -2.97744 0
M  V30 2802 H 258.663 -2.92971 -4.03694 0
M  V30 2803 H 257.817 -1.47032 -5.88614 0
M  V30 2804 H 256.556 -0.804829 -4.81013 0
M  V30 2805 H 255.561 -3.09434 -4.54456 0
M  V30 2806 H 256.786 -3.76008 -5.65504 0
M  V30 2807 H 254.732 -1.62795 -6.35479 0
M  V30 2808 H 254.649 -3.30048 -6.8015 0
M  V30 2809 H 255.917 -2.30197 -7.44735 0
M  V30 2810 N 260.146 1.09593 -1.13257 0
M  V30 2811 C 261.056 2.19739 -0.821691 0
M  V30 2812 C 262.072 1.72926 0.19302 0
M  V30 2813 O 263.248 2.01385 0.0244895 0
M  V30 2814 C 260.313 3.45482 -0.290333 0
M  V30 2815 C 259.374 4.06985 -1.36607 0
M  V30 2816 C 258.607 5.26726 -0.859975 0
M  V30 2817 O 258.83 5.69594 0.303082 0
M  V30 2818 O 257.764 5.7931 -1.63351 0
M  V30 2819 H 261.59 2.48781 -1.74189 0
M  V30 2820 H 259.175 1.18496 -0.909894 0
M  V30 2821 H 261.057 4.214 0.000674022 0
M  V30 2822 H 259.732 3.18047 0.602306 0
M  V30 2823 H 258.639 3.32712 -1.71037 0
M  V30 2824 H 259.972 4.38643 -2.23279 0
M  V30 2825 N 261.624 0.925811 1.2754 0
M  V30 2826 C 262.587 0.428129 2.25166 0
M  V30 2827 C 263.587 -0.452261 1.54309 0
M  V30 2828 O 264.777 -0.253608 1.72344 0
M  V30 2829 C 261.909 -0.384749 3.38722 0
M  V30 2830 H 263.102 1.29066 2.70706 0
M  V30 2831 H 260.655 0.706323 1.3943 0
M  V30 2832 H 261.39 -1.26618 2.98561 0
M  V30 2833 H 261.175 0.246454 3.91325 0
M  V30 2834 H 262.665 -0.723389 4.11287 0
M  V30 2835 N 263.102 -1.41638 0.69111 0
M  V30 2836 C 264.034 -2.29194 -0.0161523 0
M  V30 2837 C 265.047 -1.44549 -0.748955 0
M  V30 2838 O 266.236 -1.681 -0.6004 0
M  V30 2839 C 263.336 -3.22325 -1.0469 0
M  V30 2840 C 262.509 -4.35706 -0.384621 0
M  V30 2841 C 261.568 -5.09443 -1.31737 0
M  V30 2842 O 260.594 -5.63386 -0.811451 0
M  V30 2843 N 261.796 -5.16487 -2.64993 0
M  V30 2844 H 264.561 -2.90534 0.735523 0
M  V30 2845 H 262.122 -1.52742 0.53679 0
M  V30 2846 H 264.114 -3.68522 -1.67252 0
M  V30 2847 H 262.684 -2.62323 -1.70015 0
M  V30 2848 H 261.904 -3.91948 0.420804 0
M  V30 2849 H 263.192 -5.08743 0.0760765 0
M  V30 2850 H 262.59 -4.741 -3.08619 0
M  V30 2851 H 261.147 -5.66276 -3.22761 0
M  V30 2852 N 264.58 -0.43555 -1.51462 0
M  V30 2853 C 265.81 0.130053 -2.0619 0
M  V30 2854 C 266.218 1.37164 -1.30317 0
M  V30 2855 O 265.561 1.80225 -0.355598 0
M  V30 2856 C 265.623 0.519418 -3.55728 0
M  V30 2857 C 265.287 -0.615119 -4.52841 0
M  V30 2858 C 266.284 -1.48671 -4.9819 0
M  V30 2859 C 263.969 -0.795341 -4.95963 0
M  V30 2860 C 265.963 -2.52324 -5.8533 0
M  V30 2861 C 263.65 -1.83514 -5.82894 0
M  V30 2862 C 264.648 -2.69748 -6.27475 0
M  V30 2863 O 264.336 -3.71944 -7.1268 0
M  V30 2864 H 264.068 0.0121612 -0.675891 0
M  V30 2865 H 266.622 -0.6129 -1.96043 0
M  V30 2866 H 264.852 1.31505 -3.63653 0
M  V30 2867 H 266.541 1.01597 -3.92979 0
M  V30 2868 H 267.307 -1.359 -4.65571 0
M  V30 2869 H 263.186 -0.133713 -4.60806 0
M  V30 2870 H 266.73 -3.19665 -6.20048 0
M  V30 2871 H 262.627 -1.96306 -6.14926 0
M  V30 2872 H 263.395 -3.68503 -7.30854 0
M  V30 2873 N 266.058 1.56714 -0.166846 0
M  V30 2874 C 266.968 2.21331 0.777791 0
M  V30 2875 C 267.984 1.20358 1.25658 0
M  V30 2876 O 269.16 1.53005 1.30964 0
M  V30 2877 C 266.225 2.83787 1.99163 0
M  V30 2878 C 265.286 3.99947 1.56016 0
M  V30 2879 C 264.519 4.59415 2.71613 0
M  V30 2880 O 264.742 4.17769 3.88362 0
M  V30 2881 O 263.676 5.49359 2.45945 0
M  V30 2882 H 267.502 3.02605 0.257636 0
M  V30 2883 H 265.087 1.49275 0.0611393 0
M  V30 2884 H 266.969 3.23405 2.70161 0
M  V30 2885 H 265.644 2.05513 2.50092 0
M  V30 2886 H 264.551 3.65007 0.819809 0
M  V30 2887 H 265.884 4.79801 1.09782 0
M  V30 2888 N 267.536 -0.106894 1.57237 0
M  V30 2889 C 268.783 -0.812526 1.85484 0
M  V30 2890 C 269.111 -1.79304 0.753687 0
M  V30 2891 O 268.366 -1.94047 -0.253853 0
M  V30 2892 C 268.665 -1.58628 3.20268 0
M  V30 2893 C 268.331 -0.748967 4.44636 0
M  V30 2894 C 266.993 -0.518104 4.78403 0
M  V30 2895 C 269.345 -0.166122 5.20935 0
M  V30 2896 C 266.673 0.305659 5.85903 0
M  V30 2897 C 269.025 0.644899 6.29304 0
M  V30 2898 C 267.689 0.885965 6.61594 0
M  V30 2899 H 266.959 -0.297324 0.678734 0
M  V30 2900 H 269.606 -0.0744332 1.91355 0
M  V30 2901 H 267.911 -2.39562 3.10028 0
M  V30 2902 H 269.608 -2.13643 3.39349 0
M  V30 2903 H 266.198 -0.939006 4.18187 0
M  V30 2904 H 270.382 -0.33167 4.95191 0
M  V30 2905 H 265.638 0.501528 6.0934 0
M  V30 2906 H 269.812 1.10345 6.87602 0
M  V30 2907 H 267.439 1.52609 7.44725 0
M  V30 2908 N 269.014 -1.53014 -0.377408 0
M  V30 2909 C 269.924 -1.81557 -1.48574 0
M  V30 2910 C 270.94 -0.703102 -1.59162 0
M  V30 2911 O 272.116 -0.99192 -1.75279 0
M  V30 2912 C 269.181 -1.9889 -2.83978 0
M  V30 2913 C 268.242 -3.22801 -2.83016 0
M  V30 2914 C 267.475 -3.39298 -4.11962 0
M  V30 2915 O 267.698 -2.60345 -5.0752 0
M  V30 2916 O 266.632 -4.32604 -4.18494 0
M  V30 2917 H 270.458 -2.75695 -1.27382 0
M  V30 2918 H 268.043 -1.38248 -0.566373 0
M  V30 2919 H 269.925 -2.11931 -3.6423 0
M  V30 2920 H 268.6 -1.07942 -3.05172 0
M  V30 2921 H 267.507 -3.15193 -2.01505 0
M  V30 2922 H 268.84 -4.13632 -2.66775 0
M  V30 2923 N 270.492 0.636531 -1.44174 0
M  V30 2924 C 271.739 1.39619 -1.46672 0
M  V30 2925 C 272.067 1.94257 -0.0972691 0
M  V30 2926 O 271.322 1.73768 0.900175 0
M  V30 2927 C 271.621 2.58309 -2.47005 0
M  V30 2928 C 271.287 2.21992 -3.92467 0
M  V30 2929 C 269.949 2.118 -4.32081 0
M  V30 2930 C 272.301 1.9321 -4.84065 0
M  V30 2931 C 269.629 1.71007 -5.61225 0
M  V30 2932 C 271.981 1.53911 -6.13591 0
M  V30 2933 C 270.645 1.42257 -6.52165 0
M  V30 2934 H 269.915 0.510902 -0.536712 0
M  V30 2935 H 272.562 0.722328 -1.77355 0
M  V30 2936 H 270.867 3.30903 -2.09786 0
M  V30 2937 H 272.564 3.16533 -2.46186 0
M  V30 2938 H 269.154 2.30841 -3.61124 0
M  V30 2939 H 273.338 1.99997 -4.54219 0
M  V30 2940 H 268.594 1.60583 -5.89935 0
M  V30 2941 H 272.768 1.30677 -6.8403 0
M  V30 2942 H 270.395 1.10419 -7.52138 0
M  V30 2943 N 271.97 1.30982 0.876444 0
M  V30 2944 C 272.933 1.18054 1.96459 0
M  V30 2945 C 273.933 0.109399 1.60427 0
M  V30 2946 O 275.123 0.358173 1.70478 0
M  V30 2947 C 272.255 0.810616 3.31122 0
M  V30 2948 H 273.448 2.14735 2.09354 0
M  V30 2949 H 271.001 1.145 1.06392 0
M  V30 2950 H 271.736 -0.155322 3.23928 0
M  V30 2951 H 271.521 1.58481 3.58645 0
M  V30 2952 H 273.011 0.743876 4.10921 0
M  V30 2953 N 273.449 -1.08991 1.13837 0
M  V30 2954 C 274.412 -2.13925 0.822715 0
M  V30 2955 C 275.412 -1.599 -0.1699 0
M  V30 2956 O 276.602 -1.74104 0.0577251 0
M  V30 2957 C 273.734 -3.40155 0.225318 0
M  V30 2958 H 274.927 -2.43358 1.75262 0
M  V30 2959 H 272.48 -1.24603 0.943594 0
M  V30 2960 H 273.215 -3.16352 -0.713594 0
M  V30 2961 H 273 -3.80661 0.940193 0
M  V30 2962 H 274.49 -4.17594 0.0214784 0
M  V30 2963 N 274.927 -0.932562 -1.27047 0
M  V30 2964 C 276.343 -0.633544 -1.46487 0
M  V30 2965 C 276.543 0.815746 -1.84249 0
M  V30 2966 O 275.599 1.59319 -1.95892 0
M  V30 2967 C 276.912 -1.58758 -2.55375 0
M  V30 2968 C 278.46 -1.59634 -2.69232 0
M  V30 2969 C 278.935 -2.53747 -3.81283 0
M  V30 2970 N 280.426 -2.51982 -3.88664 0
M  V30 2971 C 281.161 -3.21491 -4.74796 0
M  V30 2972 N 280.657 -4.00395 -5.65381 0
M  V30 2973 N 282.45 -3.10485 -4.68568 0
M  V30 2974 H 274.601 -1.86946 -1.00821 0
M  V30 2975 H 276.864 -0.802897 -0.504044 0
M  V30 2976 H 276.57 -2.62172 -2.34432 0
M  V30 2977 H 276.444 -1.33301 -3.52861 0
M  V30 2978 H 278.831 -0.569488 -2.89553 0
M  V30 2979 H 278.912 -1.89142 -1.72218 0
M  V30 2980 H 278.556 -3.56545 -3.61715 0
M  V30 2981 H 278.486 -2.21532 -4.77735 0
M  V30 2982 H 280.977 -1.94681 -3.23895 0
M  V30 2983 H 281.29 -4.50406 -6.27976 0
M  V30 2984 H 279.635 -4.04498 -5.65161 0
M  V30 2985 H 282.826 -2.48331 -3.96799 0
M  V30 2986 H 282.999 -3.64925 -5.35475 0
M  V30 2987 N 276.405 1.4127 -0.698611 0
M  V30 2988 C 277.337 2.292 0.00399731 0
M  V30 2989 C 278.35 1.44944 0.741279 0
M  V30 2990 O 279.539 1.68416 0.591477 0
M  V30 2991 C 276.639 3.22875 1.02979 0
M  V30 2992 C 275.812 4.35904 0.36151 0
M  V30 2993 C 274.871 5.10134 1.29033 0
M  V30 2994 O 273.897 5.63809 0.781562 0
M  V30 2995 N 275.099 5.17885 2.6225 0
M  V30 2996 H 277.864 2.9014 -0.750921 0
M  V30 2997 H 275.425 1.52455 -0.544882 0
M  V30 2998 H 277.417 3.69404 1.65296 0
M  V30 2999 H 275.987 2.63221 1.68622 0
M  V30 3000 H 275.207 3.91719 -0.441584 0
M  V30 3001 H 276.495 5.08696 -0.103055 0
M  V30 3002 H 275.893 4.7573 3.061 0
M  V30 3003 H 274.45 5.6798 3.19754 0
M  V30 3004 N 277.883 0.443576 1.51229 0
M  V30 3005 C 279.13 -0.120796 2.02139 0
M  V30 3006 C 279.458 -1.42166 1.32736 0
M  V30 3007 O 278.713 -1.90849 0.43301 0
M  V30 3008 C 279.012 -0.380579 3.55368 0
M  V30 3009 C 278.678 0.83523 4.43097 0
M  V30 3010 C 277.34 1.16864 4.66794 0
M  V30 3011 C 279.692 1.64601 4.94526 0
M  V30 3012 C 277.02 2.31339 5.39165 0
M  V30 3013 C 279.372 2.78181 5.68153 0
M  V30 3014 C 278.036 3.11969 5.90112 0
M  V30 3015 H 277.306 -0.0442023 0.73968 0
M  V30 3016 H 279.953 0.592046 1.82118 0
M  V30 3017 H 278.258 -1.17538 3.73754 0
M  V30 3018 H 279.955 -0.830777 3.923 0
M  V30 3019 H 276.545 0.565437 4.24854 0
M  V30 3020 H 280.729 1.40163 4.76097 0
M  V30 3021 H 275.985 2.57823 5.5438 0
M  V30 3022 H 280.159 3.41371 6.06992 0
M  V30 3023 H 277.786 4.00784 6.45969 0
M  V30 3024 N 279.361 -1.56624 0.175154 0
M  V30 3025 C 280.294 -2.14 -0.792412 0
M  V30 3026 C 281.272 -1.07114 -1.22333 0
M  V30 3027 O 282.456 -1.35112 -1.31442 0
M  V30 3028 C 279.583 -2.68268 -2.0676 0
M  V30 3029 C 278.629 -3.87562 -1.7804 0
M  V30 3030 S 279.462 -5.27074 -0.946222 0
M  V30 3031 C 280.618 -5.8475 -2.23199 0
M  V30 3032 H 280.851 -2.95736 -0.304588 0
M  V30 3033 H 278.384 -1.54349 -0.0395705 0
M  V30 3034 H 280.342 -3.00182 -2.80002 0
M  V30 3035 H 279.003 -1.86612 -2.52656 0
M  V30 3036 H 278.196 -4.23874 -2.72666 0
M  V30 3037 H 277.798 -3.56555 -1.12891 0
M  V30 3038 H 280.09 -5.97898 -3.18629 0
M  V30 3039 H 281.033 -6.81756 -1.91349 0
M  V30 3040 H 281.441 -5.13198 -2.35134 0
M  V30 3041 N 280.839 0.0985539 -1.57292 0
M  V30 3042 C 281.769 1.12064 -2.04851 0
M  V30 3043 C 282.75 1.41981 -0.936767 0
M  V30 3044 O 283.935 1.52071 -1.20781 0
M  V30 3045 C 281.065 2.44144 -2.47004 0
M  V30 3046 C 280.019 2.28643 -3.6181 0
M  V30 3047 C 279.345 3.65869 -3.89929 0
M  V30 3048 C 280.645 1.72986 -4.92822 0
M  V30 3049 H 282.339 0.724979 -2.9049 0
M  V30 3050 H 279.885 0.34729 -1.39749 0
M  V30 3051 H 281.838 3.15914 -2.78884 0
M  V30 3052 H 280.562 2.85639 -1.5836 0
M  V30 3053 H 279.221 1.59318 -3.30172 0
M  V30 3054 H 278.869 4.04885 -2.98458 0
M  V30 3055 H 278.569 3.56344 -4.67218 0
M  V30 3056 H 280.093 4.39112 -4.2428 0
M  V30 3057 H 281.507 2.34593 -5.23105 0
M  V30 3058 H 279.904 1.74229 -5.74251 0
M  V30 3059 H 280.974 0.689007 -4.7998 0
M  V30 3060 N 282.317 1.53212 0.369288 0
M  V30 3061 C 283.227 1.82342 1.47609 0
M  V30 3062 C 284.243 0.711532 1.58787 0
M  V30 3063 O 285.419 1.0012 1.74751 0
M  V30 3064 C 282.484 2.00393 2.8292 0
M  V30 3065 C 281.545 3.24297 2.81301 0
M  V30 3066 C 280.778 3.41478 4.10157 0
M  V30 3067 O 281.001 2.63033 5.06132 0
M  V30 3068 O 279.935 4.34817 4.16194 0
M  V30 3069 H 283.761 2.76366 1.25918 0
M  V30 3070 H 281.346 1.38547 0.559034 0
M  V30 3071 H 283.228 2.13859 3.63101 0
M  V30 3072 H 281.903 1.09559 3.04596 0
M  V30 3073 H 280.81 3.16257 1.99831 0
M  V30 3074 H 282.143 4.15041 2.64578 0
M  V30 3075 N 283.795 -0.628877 1.44509 0
M  V30 3076 C 285.023 -1.41554 1.50897 0
M  V30 3077 C 285.438 -1.8832 0.134564 0
M  V30 3078 O 284.795 -1.60969 -0.859965 0
M  V30 3079 C 284.846 -2.63435 2.47556 0
M  V30 3080 O 284.567 -2.18619 3.79654 0
M  V30 3081 C 286.068 -3.56537 2.63431 0
M  V30 3082 H 283.288 -0.434044 0.511709 0
M  V30 3083 H 285.832 -0.768895 1.89495 0
M  V30 3084 H 283.987 -3.24187 2.12089 0
M  V30 3085 H 284.401 -2.97652 4.31861 0
M  V30 3086 H 285.875 -4.38657 3.35088 0
M  V30 3087 H 286.352 -4.05493 1.68738 0
M  V30 3088 H 286.958 -3.01653 2.9981 0
M  V30 3089 N 285.273 -1.31445 -0.869486 0
M  V30 3090 C 286.203 -1.21727 -1.99261 0
M  V30 3091 C 287.184 -0.104359 -1.6978 0
M  V30 3092 O 288.369 -0.289038 -1.92037 0
M  V30 3093 C 285.499 -0.924317 -3.34774 0
M  V30 3094 C 284.453 -1.99685 -3.78563 0
M  V30 3095 C 283.779 -1.55658 -5.11541 0
M  V30 3096 C 285.079 -3.41003 -3.95619 0
M  V30 3097 H 286.773 -2.1569 -2.07649 0
M  V30 3098 H 284.319 -1.03839 -0.997675 0
M  V30 3099 H 286.272 -0.842934 -4.12883 0
M  V30 3100 H 284.996 0.0509793 -3.2656 0
M  V30 3101 H 283.655 -2.06813 -3.02694 0
M  V30 3102 H 283.303 -0.569132 -4.9977 0
M  V30 3103 H 283.003 -2.27409 -5.41811 0
M  V30 3104 H 284.527 -1.48928 -5.92159 0
M  V30 3105 H 285.941 -3.36547 -4.64122 0
M  V30 3106 H 284.338 -4.10975 -4.37286 0
M  V30 3107 H 285.408 -3.81754 -2.98985 0
M  V30 3108 N 286.751 1.08385 -1.14413 0
M  V30 3109 C 288.167 1.32844 -0.884563 0
M  V30 3110 C 288.367 1.95841 0.474181 0
M  V30 3111 O 287.423 2.21158 1.21842 0
M  V30 3112 C 288.736 2.22978 -2.01745 0
M  V30 3113 C 290.284 2.36458 -2.05077 0
M  V30 3114 C 290.759 3.29934 -3.1766 0
M  V30 3115 N 292.25 3.37511 -3.17239 0
M  V30 3116 C 292.985 4.09871 -4.0099 0
M  V30 3117 N 292.481 4.84936 -4.94781 0
M  V30 3118 N 294.274 4.05704 -3.89051 0
M  V30 3119 H 286.425 0.658756 -2.01926 0
M  V30 3120 H 288.688 0.352821 -0.879899 0
M  V30 3121 H 288.394 1.83934 -2.99769 0
M  V30 3122 H 288.268 3.23441 -1.94077 0
M  V30 3123 H 290.655 2.7476 -1.0766 0
M  V30 3124 H 290.736 1.35736 -2.16816 0
M  V30 3125 H 290.38 2.92352 -4.15322 0
M  V30 3126 H 290.31 4.30584 -3.03158 0
M  V30 3127 H 292.801 2.83996 -2.49308 0
M  V30 3128 H 293.114 5.37612 -5.55151 0
M  V30 3129 H 291.459 4.83988 -4.98779 0
M  V30 3130 H 294.65 3.46167 -3.15097 0
M  V30 3131 H 294.823 4.61834 -4.54547 0
M  V30 3132 N 288.23 0.939286 1.26551 0
M  V30 3133 C 289.477 0.585847 1.9384 0
M  V30 3134 C 289.805 -0.874784 1.73718 0
M  V30 3135 O 289.06 -1.64092 1.06642 0
M  V30 3136 C 289.359 0.872106 3.46596 0
M  V30 3137 C 289.025 2.31632 3.86856 0
M  V30 3138 C 287.687 2.71111 3.97558 0
M  V30 3139 C 290.039 3.25494 4.07066 0
M  V30 3140 C 287.367 4.03553 4.25866 0
M  V30 3141 C 289.719 4.57531 4.36862 0
M  V30 3142 C 288.383 4.96828 4.45778 0
M  V30 3143 H 287.653 0.214377 0.709312 0
M  V30 3144 H 290.3 1.18544 1.50398 0
M  V30 3145 H 288.605 0.18996 3.91339 0
M  V30 3146 H 290.302 0.577442 3.96821 0
M  V30 3147 H 286.892 2.00008 3.79071 0
M  V30 3148 H 291.076 2.9619 3.98227 0
M  V30 3149 H 286.332 4.33665 4.30981 0
M  V30 3150 H 290.506 5.30254 4.51446 0
M  V30 3151 H 288.133 5.99482 4.67468 0
M  V30 3152 N 289.708 -1.40897 0.706093 0
M  V30 3153 C 290.954 -2.01352 0.241889 0
M  V30 3154 C 291.287 -1.55832 -1.15888 0
M  V30 3155 O 290.562 -0.774145 -1.7843 0
M  V30 3156 C 290.845 -3.58752 0.311311 0
M  V30 3157 C 290.698 -4.1437 1.74978 0
M  V30 3158 C 292.017 -4.38914 -0.322922 0
M  V30 3159 H 289.136 -0.731562 0.0893687 0
M  V30 3160 H 291.778 -1.67504 0.896802 0
M  V30 3161 H 289.928 -3.87718 -0.246302 0
M  V30 3162 H 291.6 -3.96239 2.36205 0
M  V30 3163 H 289.843 -3.69016 2.28057 0
M  V30 3164 H 290.514 -5.23532 1.74981 0
M  V30 3165 H 292.99 -4.15822 0.152089 0
M  V30 3166 H 291.866 -5.48358 -0.243855 0
M  V30 3167 H 292.127 -4.19176 -1.40513 0
M  V30 3168 N 291.186 -0.45159 -1.50991 0
M  V30 3169 C 292.133 0.352625 -2.2809 0
M  V30 3170 C 293.103 1.0044 -1.32291 0
M  V30 3171 O 294.288 1.02058 -1.6121 0
M  V30 3172 C 291.428 1.43983 -3.13629 0
M  V30 3173 C 290.541 0.804772 -4.24438 0
M  V30 3174 C 289.676 1.86822 -4.97263 0
M  V30 3175 C 288.715 1.21236 -5.99973 0
M  V30 3176 N 287.852 2.2178 -6.66152 0
M  V30 3177 H 292.692 -0.311186 -2.96371 0
M  V30 3178 H 290.229 -0.165308 -1.46168 0
M  V30 3179 H 292.187 2.08161 -3.61559 0
M  V30 3180 H 290.817 2.07307 -2.47434 0
M  V30 3181 H 289.869 0.0509129 -3.80366 0
M  V30 3182 H 291.181 0.286076 -4.97979 0
M  V30 3183 H 290.335 2.58628 -5.48813 0
M  V30 3184 H 289.074 2.42068 -4.23385 0
M  V30 3185 H 288.079 0.479828 -5.47702 0
M  V30 3186 H 289.304 0.667051 -6.75816 0
M  V30 3187 H 287.25 2.76079 -5.95077 0
M  V30 3188 H 287.167 1.74841 -7.35504 0
M  V30 3189 H 288.435 2.93026 -7.22327 0
M  V30 3190 N 292.664 1.56529 -0.183458 0
M  V30 3191 C 293.627 2.17324 0.728223 0
M  V30 3192 C 294.627 1.12453 1.14939 0
M  V30 3193 O 295.817 1.37902 1.06437 0
M  V30 3194 C 292.949 2.76591 1.99274 0
M  V30 3195 H 294.142 2.99241 0.198772 0
M  V30 3196 H 291.695 1.5616 0.0661391 0
M  V30 3197 H 292.43 1.98441 2.56499 0
M  V30 3198 H 292.215 3.5335 1.69959 0
M  V30 3199 H 293.705 3.23311 2.6431 0
M  V30 3200 N 294.142 -0.090211 1.57342 0
M  V30 3201 C 295.389 -0.792807 1.86335 0
M  V30 3202 C 295.717 -1.78494 0.772662 0
M  V30 3203 O 294.972 -1.94305 -0.233258 0
M  V30 3204 C 295.271 -1.55222 3.21933 0
M  V30 3205 C 294.937 -0.701765 4.45406 0
M  V30 3206 C 293.599 -0.467334 4.78925 0
M  V30 3207 C 295.951 -0.11086 5.21082 0
M  V30 3208 C 293.279 0.367785 5.85546 0
M  V30 3209 C 295.631 0.711609 6.28585 0
M  V30 3210 C 294.295 0.956086 6.60617 0
M  V30 3211 H 293.565 -0.290109 0.681849 0
M  V30 3212 H 296.212 -0.0541332 1.91423 0
M  V30 3213 H 294.517 -2.3626 3.12551 0
M  V30 3214 H 296.214 -2.10032 3.41595 0
M  V30 3215 H 292.804 -0.894598 4.1916 0
M  V30 3216 H 296.988 -0.279129 4.95514 0
M  V30 3217 H 292.244 0.566128 6.08773 0
M  V30 3218 H 296.418 1.17632 6.86393 0
M  V30 3219 H 294.045 1.60499 7.43064 0
M  V30 3220 N 295.62 -1.53406 -0.361157 0
M  V30 3221 C 297.036 -1.43277 -0.703124 0
M  V30 3222 C 297.236 -0.575384 -1.9311 0
M  V30 3223 O 296.292 -0.0595362 -2.5243 0
M  V30 3224 C 297.605 -2.8653 -0.9122 0
M  V30 3225 C 299.153 -2.96191 -1.01193 0
M  V30 3226 C 299.628 -4.40514 -1.25345 0
M  V30 3227 N 301.119 -4.43962 -1.32105 0
M  V30 3228 C 301.854 -5.52746 -1.5251 0
M  V30 3229 N 301.35 -6.71567 -1.70203 0
M  V30 3230 N 303.143 -5.40331 -1.54916 0
M  V30 3231 H 295.294 -2.07654 0.446475 0
M  V30 3232 H 297.557 -0.937944 0.137715 0
M  V30 3233 H 297.263 -3.51605 -0.0816414 0
M  V30 3234 H 297.137 -3.30441 -1.81903 0
M  V30 3235 H 299.524 -2.31266 -1.83303 0
M  V30 3236 H 299.605 -2.55667 -0.0823929 0
M  V30 3237 H 299.249 -5.06014 -0.437346 0
M  V30 3238 H 299.179 -4.78614 -2.19627 0
M  V30 3239 H 301.67 -3.58332 -1.20028 0
M  V30 3240 H 301.983 -7.50241 -1.85359 0
M  V30 3241 H 300.328 -6.74545 -1.67373 0
M  V30 3242 H 303.519 -4.46465 -1.40663 0
M  V30 3243 H 303.692 -6.25173 -1.70477 0
M  V30 3244 N 297.098 0.621204 -1.44841 0
M  V30 3245 C 298.509 1.20298 -1.42777 0
M  V30 3246 C 298.86 1.95639 -0.148259 0
M  V30 3247 O 297.985 2.02955 0.750892 0
M  V30 3248 C 298.58 2.1882 -2.58657 0
M  V30 3249 C 297.139 2.72403 -2.59756 0
M  V30 3250 C 296.286 1.4757 -2.34773 0
M  V30 3251 H 299.237 0.411297 -1.53278 0
M  V30 3252 H 299.258 3.01607 -2.31977 0
M  V30 3253 H 298.77 1.63957 -3.51766 0
M  V30 3254 H 296.871 3.31242 -1.70615 0
M  V30 3255 H 296.984 3.17765 -3.58556 0
M  V30 3256 H 295.348 1.76051 -1.8406 0
M  V30 3257 H 296.131 0.945954 -3.3001 0
M  V30 3258 N 298.576 1.31904 0.862503 0
M  V30 3259 C 299.992 1.10724 1.14945 0
M  V30 3260 C 300.192 -0.117421 2.01158 0
M  V30 3261 O 299.248 -0.804595 2.39338 0
M  V30 3262 C 300.561 2.38267 1.83437 0
M  V30 3263 C 302.109 2.43949 1.96106 0
M  V30 3264 C 302.584 3.71394 2.68013 0
M  V30 3265 N 304.075 3.72331 2.75543 0
M  V30 3266 C 304.81 4.67641 3.31812 0
M  V30 3267 N 304.306 5.73313 3.88953 0
M  V30 3268 N 306.099 4.5515 3.29841 0
M  V30 3269 H 298.25 2.10436 0.288191 0
M  V30 3270 H 300.513 0.928705 0.190292 0
M  V30 3271 H 300.219 3.27759 1.27542 0
M  V30 3272 H 300.093 2.48633 2.83657 0
M  V30 3273 H 302.48 1.54922 2.51164 0
M  V30 3274 H 302.561 2.37543 0.949059 0
M  V30 3275 H 302.205 4.60791 2.13621 0
M  V30 3276 H 302.135 3.75069 3.69636 0
M  V30 3277 H 304.626 2.95947 2.34997 0
M  V30 3278 H 304.939 6.42107 4.30022 0
M  V30 3279 H 303.284 5.77077 3.87308 0
M  V30 3280 H 306.475 3.71766 2.84443 0
M  V30 3281 H 306.648 5.29604 3.73394 0
M  V30 3282 N 300.054 -1.07777 1.14986 0
M  V30 3283 C 301.004 -2.13082 0.811181 0
M  V30 3284 C 301.988 -1.59619 -0.202597 0
M  V30 3285 O 303.18 -1.77 -0.00398275 0
M  V30 3286 C 300.309 -3.42009 0.297439 0
M  V30 3287 C 299.395 -4.02337 1.34112 0
M  V30 3288 N 299.786 -4.36982 2.54716 0
M  V30 3289 C 298.084 -4.29752 1.19285 0
M  V30 3290 C 298.785 -4.84729 3.21578 0
M  V30 3291 N 297.761 -4.83233 2.48972 0
M  V30 3292 H 301.563 -2.37696 1.72853 0
M  V30 3293 H 299.077 -1.25173 1.03468 0
M  V30 3294 H 301.074 -4.16884 0.0364777 0
M  V30 3295 H 299.734 -3.18841 -0.614022 0
M  V30 3296 H 300.745 -4.27807 2.91894 0
M  V30 3297 H 297.422 -4.16106 0.340926 0
M  V30 3298 H 298.812 -5.20863 4.24442 0
M  V30 3299 N 301.532 -0.945985 -1.26051 0
M  V30 3300 C 302.462 -0.477172 -2.28572 0
M  V30 3301 C 303.443 0.472032 -1.63419 0
M  V30 3302 O 304.628 0.372853 -1.90587 0
M  V30 3303 C 301.758 0.253975 -3.4637 0
M  V30 3304 C 300.712 -0.609135 -4.23643 0
M  V30 3305 C 300.038 0.252252 -5.34105 0
M  V30 3306 C 301.338 -1.8829 -4.8718 0
M  V30 3307 H 303.032 -1.33402 -2.68038 0
M  V30 3308 H 300.578 -0.642904 -1.28852 0
M  V30 3309 H 302.531 0.593016 -4.17207 0
M  V30 3310 H 301.255 1.145 -3.05871 0
M  V30 3311 H 299.914 -0.931138 -3.54578 0
M  V30 3312 H 299.562 1.14278 -4.89846 0
M  V30 3313 H 299.262 -0.32188 -5.86718 0
M  V30 3314 H 300.786 0.586454 -6.07777 0
M  V30 3315 H 302.2 -1.61081 -5.50205 0
M  V30 3316 H 300.597 -2.40199 -5.49931 0
M  V30 3317 H 301.667 -2.59134 -4.09851 0
M  V30 3318 N 303.011 1.40521 -0.713556 0
M  V30 3319 C 304.257 2.01714 -0.261382 0
M  V30 3320 C 304.612 1.55562 1.13217 0
M  V30 3321 O 303.905 0.764893 1.7567 0
M  V30 3322 C 304.099 3.56317 -0.278 0
M  V30 3323 C 303.928 4.17476 -1.67163 0
M  V30 3324 C 302.698 4.50998 -2.2788 0
M  V30 3325 C 304.896 4.42472 -2.6215 0
M  V30 3326 N 302.878 4.9754 -3.5962 0
M  V30 3327 C 304.249 4.90985 -3.78594 0
M  V30 3328 C 306.304 4.24508 -2.60188 0
M  V30 3329 C 305.007 5.2342 -4.9338 0
M  V30 3330 C 307.033 4.58043 -3.741 0
M  V30 3331 C 306.395 5.06743 -4.89276 0
M  V30 3332 H 302.494 0.769104 -0.141434 0
M  V30 3333 H 305.078 1.70785 -0.934915 0
M  V30 3334 H 303.249 3.8668 0.36509 0
M  V30 3335 H 304.981 4.0425 0.190695 0
M  V30 3336 H 301.736 4.38062 -1.79997 0
M  V30 3337 H 302.16 5.25196 -4.27198 0
M  V30 3338 H 306.802 3.86078 -1.72348 0
M  V30 3339 H 304.52 5.60765 -5.81866 0
M  V30 3340 H 308.106 4.45785 -3.73854 0
M  V30 3341 H 306.986 5.32204 -5.75959 0
M  V30 3342 N 304.489 0.459591 1.5075 0
M  V30 3343 C 305.737 -0.0991532 2.01857 0
M  V30 3344 C 306.058 -1.41247 1.34441 0
M  V30 3345 O 305.328 -1.89775 0.486022 0
M  V30 3346 H 303.908 -0.039633 0.745948 0
M  V30 3347 H 306.57 0.607387 1.85194 0
M  V30 3348 H 305.666 -0.258998 3.11023 0
M  V30 3349 N 305.967 -1.56429 0.191757 0
M  V30 3350 C 307.214 -1.97485 -0.447891 0
M  V30 3351 C 307.542 -1.07852 -1.61859 0
M  V30 3352 O 306.797 -0.116903 -1.95351 0
M  V30 3353 C 307.096 -3.44449 -0.953384 0
M  V30 3354 C 306.762 -4.50781 0.103586 0
M  V30 3355 C 305.424 -4.79584 0.394023 0
M  V30 3356 C 307.776 -5.1471 0.819946 0
M  V30 3357 C 305.104 -5.69607 1.40585 0
M  V30 3358 C 307.456 -6.05827 1.8209 0
M  V30 3359 C 306.12 -6.32987 2.11857 0
M  V30 3360 H 305.39 -0.722648 -0.163895 0
M  V30 3361 H 308.037 -1.89322 0.28802 0
M  V30 3362 H 306.342 -3.49666 -1.76751 0
M  V30 3363 H 308.039 -3.73569 -1.45765 0
M  V30 3364 H 304.629 -4.28394 -0.132951 0
M  V30 3365 H 308.813 -4.92552 0.608789 0
M  V30 3366 H 304.069 -5.88926 1.64243 0
M  V30 3367 H 308.243 -6.54424 2.38123 0
M  V30 3368 H 305.87 -7.02544 2.90407 0
M  V30 3369 N 307.445 0.0818655 -1.57387 0
M  V30 3370 C 308.675 0.794954 -1.90694 0
M  V30 3371 C 309.083 1.72147 -0.784982 0
M  V30 3372 O 308.426 1.81974 0.251196 0
M  V30 3373 C 308.488 1.65042 -3.19376 0
M  V30 3374 C 308.152 0.894337 -4.48164 0
M  V30 3375 C 309.149 0.21813 -5.19442 0
M  V30 3376 C 306.834 0.864495 -4.94805 0
M  V30 3377 C 308.828 -0.477802 -6.35607 0
M  V30 3378 C 306.515 0.164785 -6.10878 0
M  V30 3379 C 307.513 -0.505173 -6.81129 0
M  V30 3380 O 307.201 -1.19363 -7.94989 0
M  V30 3381 H 306.933 0.231779 -0.635023 0
M  V30 3382 H 309.487 0.059493 -2.05314 0
M  V30 3383 H 307.717 2.42844 -3.00938 0
M  V30 3384 H 309.406 2.24127 -3.38411 0
M  V30 3385 H 310.172 0.232558 -4.84442 0
M  V30 3386 H 306.051 1.37542 -4.40004 0
M  V30 3387 H 309.595 -1.00129 -6.90377 0
M  V30 3388 H 305.492 0.148249 -6.4533 0
M  V30 3389 H 306.26 -1.10188 -8.11049 0
M  V30 3390 N 308.923 1.53595 0.353017 0
M  V30 3391 C 309.853 1.83902 1.43883 0
M  V30 3392 C 310.834 0.693421 1.55324 0
M  V30 3393 O 312.019 0.944452 1.69687 0
M  V30 3394 C 309.149 2.04016 2.8106 0
M  V30 3395 C 308.103 3.19814 2.84434 0
M  V30 3396 C 307.429 3.25244 4.24406 0
M  V30 3397 C 308.729 4.58133 2.50822 0
M  V30 3398 H 310.423 2.74835 1.1877 0
M  V30 3399 H 307.969 1.32242 0.569917 0
M  V30 3400 H 309.922 2.238 3.57059 0
M  V30 3401 H 308.646 1.09804 3.07588 0
M  V30 3402 H 307.305 2.9987 2.10887 0
M  V30 3403 H 306.953 2.28646 4.48029 0
M  V30 3404 H 306.653 4.03054 4.27576 0
M  V30 3405 H 308.177 3.47228 5.0226 0
M  V30 3406 H 309.591 4.77995 3.16534 0
M  V30 3407 H 307.988 5.38276 2.6529 0
M  V30 3408 H 309.058 4.62387 1.46034 0
M  V30 3409 N 310.401 -0.613514 1.45168 0
M  V30 3410 C 311.648 -1.37268 1.48875 0
M  V30 3411 C 311.976 -1.94077 0.128161 0
M  V30 3412 O 311.231 -1.75178 -0.872416 0
M  V30 3413 C 311.53 -2.54347 2.51083 0
M  V30 3414 C 311.196 -2.1572 3.95949 0
M  V30 3415 C 309.858 -2.04899 4.35396 0
M  V30 3416 C 312.21 -1.85485 4.87078 0
M  V30 3417 C 309.538 -1.62057 5.63875 0
M  V30 3418 C 311.89 -1.4413 6.15962 0
M  V30 3419 C 310.554 -1.31863 6.54346 0
M  V30 3420 H 309.824 -0.502299 0.544773 0
M  V30 3421 H 312.471 -0.694021 1.78481 0
M  V30 3422 H 310.776 -3.27524 2.15024 0
M  V30 3423 H 312.473 -3.12577 2.51191 0
M  V30 3424 H 309.063 -2.25066 3.64751 0
M  V30 3425 H 313.247 -1.92745 4.57343 0
M  V30 3426 H 308.503 -1.51177 5.92415 0
M  V30 3427 H 312.677 -1.19778 6.86022 0
M  V30 3428 H 310.304 -0.984392 7.538 0
M  V30 3429 N 311.879 -1.3236 -0.855495 0
M  V30 3430 C 313.29 -1.2056 -1.42556 0
M  V30 3431 C 313.641 0.182209 -1.95352 0
M  V30 3432 O 312.766 1.08088 -1.87472 0
M  V30 3433 C 313.361 -2.1826 -2.59129 0
M  V30 3434 C 311.92 -2.10351 -3.12137 0
M  V30 3435 C 311.067 -2.06674 -1.84882 0
M  V30 3436 H 314.018 -1.442 -0.662727 0
M  V30 3437 H 314.039 -1.78064 -3.36264 0
M  V30 3438 H 313.551 -3.19257 -2.20673 0
M  V30 3439 H 311.652 -1.12599 -3.55179 0
M  V30 3440 H 311.765 -3.00135 -3.73438 0
M  V30 3441 H 310.129 -1.51901 -2.04446 0
M  V30 3442 H 310.912 -3.09451 -1.48643 0
M  V30 3443 N 313.357 1.07166 -1.15556 0
M  V30 3444 C 314.634 1.76546 -0.842069 0
M  V30 3445 C 315.014 2.00453 0.661939 0
M  V30 3446 O 314.362 1.62452 1.60691 0
M  V30 3447 C 314.572 3.07266 -1.65495 0
M  V30 3448 C 315.92 3.81578 -1.86234 0
M  V30 3449 O 316.944 3.17083 -1.62287 0
M  V30 3450 O 315.803 4.97419 -2.26355 0
M  V30 3451 H 312.897 0.766756 -0.309862 0
M  V30 3452 H 315.443 1.13514 -1.26145 0
M  V30 3453 H 314.215 2.85494 -2.67598 0
M  V30 3454 H 313.838 3.7803 -1.23203 0
M  V30 3455 N 314.835 0.952656 1.25548 0
M  V30 3456 C 316.075 0.614013 1.9496 0
M  V30 3457 C 316.439 -0.833215 1.72978 0
M  V30 3458 O 317.64 -1.28135 2.36294 0
M  V30 3459 C 315.911 0.960562 3.4425 0
M  V30 3460 S 317.47 0.734195 4.32614 0
M  V30 3461 H 314.288 0.225754 0.674208 0
M  V30 3462 H 316.89 1.22641 1.52248 0
M  V30 3463 H 315.594 2.01103 3.57751 0
M  V30 3464 H 315.125 0.338336 3.91942 0
M  V30 3465 H 317.14 -0.395995 4.94617 0
M  V30 3466 N 316.313 -1.40141 0.720998 0
M  V30 3467 C 317.543 -2.04798 0.27226 0
M  V30 3468 C 317.951 -1.54442 -1.09289 0
M  V30 3469 O 317.294 -0.698342 -1.69908 0
M  V30 3470 C 317.356 -3.59048 0.18027 0
M  V30 3471 C 317.02 -4.32317 1.48159 0
M  V30 3472 C 318.017 -4.59902 2.42458 0
M  V30 3473 C 315.702 -4.71125 1.74202 0
M  V30 3474 C 317.696 -5.25288 3.61042 0
M  V30 3475 C 315.383 -5.36242 2.93066 0
M  V30 3476 C 316.381 -5.63254 3.86308 0
M  V30 3477 O 316.069 -6.27024 5.03086 0
M  V30 3478 H 315.801 -0.665419 0.119139 0
M  V30 3479 H 318.355 -1.80436 0.981432 0
M  V30 3480 H 316.585 -3.82251 -0.58489 0
M  V30 3481 H 318.274 -4.05221 -0.234618 0
M  V30 3482 H 319.04 -4.30379 2.23604 0
M  V30 3483 H 314.919 -4.49466 1.02477 0
M  V30 3484 H 318.463 -5.46289 4.33837 0
M  V30 3485 H 314.36 -5.65185 3.11826 0
M  V30 3486 H 315.128 -6.4552 5.03235 0
M  V30 3487 N 317.792 -0.46758 -1.50504 0
M  V30 3488 C 318.74 0.342482 -2.30065 0
M  V30 3489 C 319.734 0.993596 -1.37201 0
M  V30 3490 O 320.94 0.925102 -1.54408 0
M  V30 3491 H 317.315 0.129283 -0.740803 0
M  V30 3492 H 319.286 -0.34899 -2.96352 0
M  V30 3493 C 318.035 1.4139 -3.17654 0
M  V30 3494 H 317.358 0.922264 -3.89017 0
M  V30 3495 H 318.798 1.95335 -3.76325 0
M  V30 3496 C 317.257 2.4139 -2.35016 0
M  V30 3497 O 317.787 3.46586 -2.03079 0
M  V30 3498 N 315.993 2.13021 -1.97662 0
M  V30 3499 H 315.54 1.27499 -2.23834 0
M  V30 3500 H 315.498 2.80164 -1.42673 0
M  V30 3501 N 319.27 1.56325 -0.20005 0
M  V30 3502 C 320.22 2.15939 0.731743 0
M  V30 3503 C 321.204 1.10154 1.17281 0
M  V30 3504 O 322.396 1.36203 1.13038 0
M  V30 3505 C 319.525 2.82614 1.94895 0
M  V30 3506 C 318.611 3.95596 1.52855 0
M  V30 3507 N 319.002 4.99118 0.819418 0
M  V30 3508 C 317.3 4.07288 1.81748 0
M  V30 3509 C 318.001 5.78513 0.608053 0
M  V30 3510 N 316.977 5.31117 1.15828 0
M  V30 3511 H 320.779 2.9334 0.181285 0
M  V30 3512 H 318.293 1.624 -0.000452172 0
M  V30 3513 H 320.29 3.23718 2.62702 0
M  V30 3514 H 318.95 2.06702 2.50408 0
M  V30 3515 H 319.961 5.15723 0.47436 0
M  V30 3516 H 316.638 3.42509 2.38734 0
M  V30 3517 H 318.028 6.71885 0.0451619 0
M  V30 3518 N 320.748 -0.0735177 1.57428 0
M  V30 3519 C 322.025 -0.805903 1.78226 0
M  V30 3520 C 322.405 -1.95874 0.787189 0
M  V30 3521 O 321.753 -2.2779 -0.180029 0
M  V30 3522 C 321.963 -1.28045 3.24662 0
M  V30 3523 C 323.311 -1.71453 3.88444 0
M  V30 3524 O 324.335 -1.37616 3.28543 0
M  V30 3525 O 323.194 -2.34093 4.93825 0
M  V30 3526 H 320.288 -0.386041 0.73137 0
M  V30 3527 H 322.834 -0.0537269 1.69615 0
M  V30 3528 H 321.606 -0.455476 3.8864 0
M  V30 3529 H 321.229 -2.094 3.37991 0
M  V30 3530 N 322.226 -1.5378 -0.344866 0
M  V30 3531 C 323.456 -1.74646 -1.10374 0
M  V30 3532 C 323.864 -0.48491 -1.8288 0
M  V30 3533 O 323.207 0.553062 -1.75177 0
M  V30 3534 C 323.269 -2.87145 -2.16306 0
M  V30 3535 C 322.933 -4.26795 -1.63386 0
M  V30 3536 C 323.93 -5.08412 -1.08688 0
M  V30 3537 C 321.615 -4.73276 -1.68272 0
M  V30 3538 C 323.609 -6.34609 -0.595792 0
M  V30 3539 C 321.296 -5.99446 -1.18776 0
M  V30 3540 C 322.294 -6.79946 -0.645215 0
M  V30 3541 O 321.982 -8.03745 -0.157626 0
M  V30 3542 H 321.714 -0.587112 -0.335075 0
M  V30 3543 H 324.268 -2.01403 -0.403252 0
M  V30 3544 H 322.498 -2.55909 -2.89909 0
M  V30 3545 H 324.187 -2.95992 -2.77747 0
M  V30 3546 H 324.953 -4.73666 -1.04236 0
M  V30 3547 H 320.832 -4.10677 -2.09442 0
M  V30 3548 H 324.376 -6.97389 -0.171654 0
M  V30 3549 H 320.273 -6.33687 -1.22928 0
M  V30 3550 H 321.041 -8.18038 -0.275037 0
M  V30 3551 N 323.704 0.605807 -1.45491 0
M  V30 3552 C 324.95 1.36679 -1.49823 0
M  V30 3553 C 325.283 1.93693 -0.140175 0
M  V30 3554 O 324.558 1.75158 0.845581 0
M  V30 3555 C 324.841 2.51337 -2.57879 0
M  V30 3556 C 324.694 1.99508 -4.03134 0
M  V30 3557 C 326.013 3.53463 -2.62205 0
M  V30 3558 H 323.132 0.495617 -0.545466 0
M  V30 3559 H 325.774 0.682732 -1.7731 0
M  V30 3560 H 323.924 3.09691 -2.34571 0
M  V30 3561 H 325.596 1.45789 -4.37656 0
M  V30 3562 H 323.839 1.30496 -4.13707 0
M  V30 3563 H 324.51 2.82169 -4.74431 0
M  V30 3564 H 326.986 3.04953 -2.83095 0
M  V30 3565 H 325.862 4.31178 -3.39672 0
M  V30 3566 H 326.123 4.09197 -1.67363 0
M  V30 3567 N 325.182 1.32811 0.848464 0
M  V30 3568 C 326.114 1.18095 1.96433 0
M  V30 3569 C 327.127 0.114354 1.62398 0
M  V30 3570 O 328.316 0.363892 1.74751 0
M  V30 3571 C 325.416 0.786798 3.2964 0
M  V30 3572 C 324.589 1.943 3.91875 0
M  V30 3573 C 323.648 1.53138 5.03423 0
M  V30 3574 O 322.674 2.24432 5.23086 0
M  V30 3575 N 323.876 0.430915 5.78898 0
M  V30 3576 H 326.641 2.14218 2.09597 0
M  V30 3577 H 324.202 1.2543 1.02367 0
M  V30 3578 H 326.194 0.493715 4.01677 0
M  V30 3579 H 324.764 -0.0834541 3.12489 0
M  V30 3580 H 323.984 2.40224 3.12547 0
M  V30 3581 H 325.272 2.71689 4.30189 0
M  V30 3582 H 324.67 -0.162333 5.65467 0
M  V30 3583 H 323.227 0.197466 6.51501 0
M  V30 3584 N 326.66 -1.06551 1.16123 0
M  V30 3585 C 327.608 -2.16063 0.861371 0
M  V30 3586 C 328.602 -1.6856 -0.168517 0
M  V30 3587 O 329.808 -1.79986 -0.0227579 0
M  V30 3588 H 326.183 -0.705278 0.260934 0
M  V30 3589 H 328.154 -2.38567 1.79244 0
M  V30 3590 C 326.903 -3.45661 0.376018 0
M  V30 3591 H 326.226 -3.82604 1.15992 0
M  V30 3592 H 327.666 -4.23504 0.204951 0
M  V30 3593 C 326.125 -3.24546 -0.903954 0
M  V30 3594 O 326.655 -3.49865 -1.97377 0
M  V30 3595 N 324.861 -2.77992 -0.846679 0
M  V30 3596 H 324.408 -2.57589 0.0241017 0
M  V30 3597 H 324.366 -2.64244 -1.70359 0
M  V30 3598 N 328.138 -0.959301 -1.25041 0
M  V30 3599 C 329.384 -0.627096 -1.93492 0
M  V30 3600 C 329.739 0.827484 -1.73696 0
M  V30 3601 O 329.032 1.58651 -1.07427 0
M  V30 3602 C 329.226 -0.927136 -3.45165 0
M  V30 3603 C 329.055 -2.40933 -3.79712 0
M  V30 3604 C 327.825 -3.0677 -4.01522 0
M  V30 3605 C 330.023 -3.38894 -3.86853 0
M  V30 3606 N 328.005 -4.44815 -4.231 0
M  V30 3607 C 329.376 -4.62263 -4.13174 0
M  V30 3608 C 331.431 -3.33668 -3.69554 0
M  V30 3609 C 330.134 -5.81052 -4.23995 0
M  V30 3610 C 332.16 -4.518 -3.81616 0
M  V30 3611 C 331.522 -5.73957 -4.08354 0
M  V30 3612 H 327.621 -0.280166 -0.73009 0
M  V30 3613 H 330.205 -1.23244 -1.50729 0
M  V30 3614 H 328.376 -0.350685 -3.86814 0
M  V30 3615 H 330.108 -0.554361 -4.00885 0
M  V30 3616 H 326.863 -2.57327 -3.97593 0
M  V30 3617 H 327.287 -5.16319 -4.37885 0
M  V30 3618 H 331.929 -2.40268 -3.47895 0
M  V30 3619 H 329.647 -6.74888 -4.44468 0
M  V30 3620 H 333.233 -4.49309 -3.69612 0
M  V30 3621 H 332.113 -6.6384 -4.17475 0
M  V30 3622 N 329.616 1.39756 -0.72842 0
M  V30 3623 C 330.526 2.34444 -0.0855374 0
M  V30 3624 C 331.542 1.57976 0.729356 0
M  V30 3625 O 332.718 1.90301 0.659346 0
M  V30 3626 C 329.783 3.36965 0.815798 0
M  V30 3627 C 328.844 4.29299 -0.0105996 0
M  V30 3628 C 328.077 5.26923 0.84781 0
M  V30 3629 O 328.3 5.30859 2.08673 0
M  V30 3630 O 327.234 6.01249 0.279969 0
M  V30 3631 H 331.06 2.91065 -0.866892 0
M  V30 3632 H 328.645 1.4117 -0.48902 0
M  V30 3633 H 330.527 3.99804 1.33171 0
M  V30 3634 H 329.202 2.82739 1.57608 0
M  V30 3635 H 328.109 3.69703 -0.571877 0
M  V30 3636 H 329.442 4.86712 -0.73295 0
M  V30 3637 N 331.094 0.475555 1.50254 0
M  V30 3638 C 332.322 -0.0754493 2.06762 0
M  V30 3639 C 332.737 -1.33111 1.33891 0
M  V30 3640 O 332.094 -1.77846 0.40952 0
M  V30 3641 C 332.145 -0.359008 3.59713 0
M  V30 3642 O 331.866 0.846851 4.29837 0
M  V30 3643 C 333.367 -0.956484 4.32858 0
M  V30 3644 H 330.587 0.00907525 0.670939 0
M  V30 3645 H 333.131 0.665618 1.93364 0
M  V30 3646 H 331.286 -1.05001 3.72899 0
M  V30 3647 H 331.7 0.594162 5.21124 0
M  V30 3648 H 333.174 -1.10463 5.40834 0
M  V30 3649 H 333.651 -1.94775 3.93649 0
M  V30 3650 H 334.257 -0.303723 4.24214 0
M  V30 3651 N 332.573 -1.56217 0.208337 0
M  V30 3652 C 333.803 -2.02043 -0.431523 0
M  V30 3653 C 334.211 -1.08755 -1.54819 0
M  V30 3654 O 333.554 -0.0870009 -1.83494 0
M  V30 3655 C 333.616 -3.44239 -1.03633 0
M  V30 3656 C 333.28 -4.56965 -0.0567502 0
M  V30 3657 C 334.277 -5.14624 0.738773 0
M  V30 3658 C 331.962 -5.02266 0.0581736 0
M  V30 3659 C 333.956 -6.16045 1.63605 0
M  V30 3660 C 331.643 -6.03528 0.959001 0
M  V30 3661 C 332.641 -6.60293 1.7465 0
M  V30 3662 O 332.329 -7.59586 2.6322 0
M  V30 3663 H 332.061 -0.666772 -0.111313 0
M  V30 3664 H 334.615 -2.02919 0.318277 0
M  V30 3665 H 332.845 -3.40391 -1.83497 0
M  V30 3666 H 334.534 -3.73793 -1.58221 0
M  V30 3667 H 335.3 -4.80483 0.660364 0
M  V30 3668 H 331.179 -4.57771 -0.544633 0
M  V30 3669 H 334.723 -6.60279 2.25116 0
M  V30 3670 H 330.62 -6.37092 1.03848 0
M  V30 3671 H 331.388 -7.77057 2.57148 0
M  V30 3672 N 334.051 0.0651679 -1.57465 0
M  V30 3673 C 335.279 0.775808 -1.91804 0
M  V30 3674 C 335.694 1.70782 -0.804916 0
M  V30 3675 O 335.051 1.81153 0.221311 0
M  V30 3676 C 335.102 1.56381 -3.25925 0
M  V30 3677 O 334.823 0.669248 -4.32958 0
M  V30 3678 C 336.324 2.37485 -3.7432 0
M  V30 3679 H 333.544 0.2202 -0.63384 0
M  V30 3680 H 336.088 0.0334587 -2.04473 0
M  V30 3681 H 334.243 2.25837 -3.14764 0
M  V30 3682 H 334.657 1.21801 -5.10162 0
M  V30 3683 H 336.131 2.88223 -4.70778 0
M  V30 3684 H 336.608 3.17307 -3.03666 0
M  V30 3685 H 337.214 1.73173 -3.88447 0
M  V30 3686 N 335.529 1.53961 0.336706 0
M  V30 3687 C 336.777 1.71197 1.07405 0
M  V30 3688 C 337.098 0.481475 1.88962 0
M  V30 3689 O 336.368 -0.504585 1.8929 0
M  V30 3690 H 334.948 0.631185 0.399517 0
M  V30 3691 H 337.61 1.91232 0.376323 0
M  V30 3692 H 336.706 2.58587 1.74755 0
M  V30 3693 N 337.007 -0.598083 1.45811 0
M  V30 3694 C 338.423 -0.919847 1.30426 0
M  V30 3695 C 338.623 -1.99759 0.264303 0
M  V30 3696 O 337.679 -2.50221 -0.338472 0
M  V30 3697 C 338.992 -1.35176 2.68603 0
M  V30 3698 C 340.54 -1.46546 2.76574 0
M  V30 3699 C 341.015 -1.9311 4.15298 0
M  V30 3700 N 342.506 -2.00328 4.1764 0
M  V30 3701 C 343.241 -2.37599 5.21856 0
M  V30 3702 N 342.737 -2.73771 6.36413 0
M  V30 3703 N 344.53 -2.38021 5.09218 0
M  V30 3704 H 336.681 0.114111 2.12093 0
M  V30 3705 H 338.944 -0.0116121 0.947929 0
M  V30 3706 H 338.65 -0.633969 3.45939 0
M  V30 3707 H 338.524 -2.3164 2.97696 0
M  V30 3708 H 340.911 -2.17415 1.99537 0
M  V30 3709 H 340.992 -0.483727 2.51185 0
M  V30 3710 H 340.636 -1.22824 4.92825 0
M  V30 3711 H 340.566 -2.92213 4.38086 0
M  V30 3712 H 343.057 -1.74925 3.34977 0
M  V30 3713 H 343.37 -3.0112 7.11721 0
M  V30 3714 H 341.715 -2.71445 6.39799 0
M  V30 3715 H 344.906 -2.09174 4.18765 0
M  V30 3716 H 345.079 -2.66741 5.90554 0
M  V30 3717 N 338.485 -1.33259 -0.841409 0
M  V30 3718 C 339.725 -1.25902 -1.61022 0
M  V30 3719 C 340.089 0.173325 -1.91216 0
M  V30 3720 O 341.29 0.370824 -2.6623 0
M  V30 3721 C 339.561 -2.10735 -2.88662 0
M  V30 3722 S 341.12 -2.20541 -3.79351 0
M  V30 3723 H 337.938 -0.447958 -0.552137 0
M  V30 3724 H 340.54 -1.68263 -0.995382 0
M  V30 3725 H 339.244 -3.1384 -2.64448 0
M  V30 3726 H 338.775 -1.69201 -3.55154 0
M  V30 3727 H 340.79 -1.36462 -4.77067 0
M  V30 3728 N 339.963 1.05934 -1.16686 0
M  V30 3729 C 341.374 1.60263 -0.957745 0
M  V30 3730 C 341.725 1.89789 0.49745 0
M  V30 3731 O 340.85 1.67401 1.37135 0
M  V30 3732 C 341.445 2.91172 -1.73218 0
M  V30 3733 C 340.004 3.42188 -1.56794 0
M  V30 3734 C 339.151 2.16028 -1.73859 0
M  V30 3735 H 342.102 0.888392 -1.31504 0
M  V30 3736 H 342.123 3.60744 -1.21014 0
M  V30 3737 H 341.635 2.6965 -2.79124 0
M  V30 3738 H 339.736 3.68762 -0.533437 0
M  V30 3739 H 339.849 4.17273 -2.35414 0
M  V30 3740 H 338.213 2.26426 -1.16633 0
M  V30 3741 H 338.996 1.96985 -2.81161 0
M  V30 3742 N 341.441 0.965919 1.2453 0
M  V30 3743 C 342.718 0.543777 1.87889 0
M  V30 3744 C 343.098 -0.97909 1.87021 0
M  V30 3745 O 342.446 -1.84969 1.3416 0
M  V30 3746 C 342.656 1.13327 3.30088 0
M  V30 3747 C 344.004 1.21707 4.06783 0
M  V30 3748 O 345.028 1.08566 3.39252 0
M  V30 3749 O 343.887 1.42456 5.27606 0
M  V30 3750 H 340.981 0.181054 0.806938 0
M  V30 3751 H 343.527 1.06007 1.32516 0
M  V30 3752 H 342.299 2.17612 3.25209 0
M  V30 3753 H 341.922 0.600911 3.93033 0
M  V30 3754 N 342.919 -1.39368 0.735821 0
M  V30 3755 C 344.165 -2.00794 0.284544 0
M  V30 3756 C 344.498 -1.58255 -1.12557 0
M  V30 3757 O 343.773 -0.811819 -1.76748 0
M  V30 3758 C 344.056 -3.58011 0.387337 0
M  V30 3759 C 343.909 -4.10566 1.83728 0
M  V30 3760 C 345.228 -4.395 -0.22975 0
M  V30 3761 H 342.347 -0.729501 0.104866 0
M  V30 3762 H 344.989 -1.65564 0.93213 0
M  V30 3763 H 343.139 -3.88154 -0.164006 0
M  V30 3764 H 344.811 -3.91139 2.44556 0
M  V30 3765 H 343.054 -3.64095 2.35833 0
M  V30 3766 H 343.725 -5.19702 1.86047 0
M  V30 3767 H 346.201 -4.15406 0.240257 0
M  V30 3768 H 345.077 -5.48752 -0.127485 0
M  V30 3769 H 345.338 -4.22062 -1.3159 0
M  V30 3770 N 344.397 -0.483516 -1.5 0
M  V30 3771 C 345.307 0.309172 -2.32554 0
M  V30 3772 C 346.323 0.984159 -1.43493 0
M  V30 3773 O 347.499 0.969399 -1.76535 0
M  V30 3774 C 344.564 1.36979 -3.18493 0
M  V30 3775 C 343.625 0.710095 -4.23387 0
M  V30 3776 C 342.858 1.72018 -5.05218 0
M  V30 3777 O 343.081 2.94813 -4.88305 0
M  V30 3778 O 342.015 1.28515 -5.8802 0
M  V30 3779 H 345.841 -0.366064 -3.01486 0
M  V30 3780 H 343.426 -0.24514 -1.47375 0
M  V30 3781 H 345.308 1.98385 -3.71781 0
M  V30 3782 H 343.983 2.02828 -2.52275 0
M  V30 3783 H 342.89 0.0567539 -3.74057 0
M  V30 3784 H 344.223 0.0943557 -4.9211 0
M  V30 3785 N 345.875 1.56104 -0.216619 0
M  V30 3786 C 347.121 1.98466 0.417033 0
M  V30 3787 C 347.454 1.10403 1.59765 0
M  V30 3788 O 346.729 0.160632 1.93836 0
M  V30 3789 C 347.012 3.49769 0.85637 0
M  V30 3790 C 346.865 4.48606 -0.327546 0
M  V30 3791 C 348.184 4.05339 1.7143 0
M  V30 3792 H 345.303 0.721551 0.150112 0
M  V30 3793 H 347.945 1.87423 -0.311864 0
M  V30 3794 H 346.095 3.5931 1.47745 0
M  V30 3795 H 347.767 4.5108 -0.965618 0
M  V30 3796 H 346.01 4.22682 -0.975805 0
M  V30 3797 H 346.681 5.51995 0.0227149 0
M  V30 3798 H 349.157 3.98712 1.19031 0
M  V30 3799 H 348.033 5.11533 1.99061 0
M  V30 3800 H 348.294 3.51918 2.67593 0
M  V30 3801 N 347.353 -0.0568162 1.57498 0
M  V30 3802 C 348.578 -0.769402 1.92601 0
M  V30 3803 C 349.003 -1.69559 0.814336 0
M  V30 3804 O 348.361 -1.79811 -0.231903 0
M  V30 3805 C 348.409 -1.52634 3.26704 0
M  V30 3806 O 347.513 -2.63797 3.16994 0
M  V30 3807 H 346.854 -0.208909 0.63028 0
M  V30 3808 H 349.384 -0.0205798 2.0459 0
M  V30 3809 H 349.394 -1.90234 3.60936 0
M  V30 3810 H 348.069 -0.846875 4.07186 0
M  V30 3811 H 346.646 -2.28943 2.94346 0
M  V30 3812 N 348.832 -1.54138 -0.328536 0
M  V30 3813 C 350.248 -1.44736 -0.672574 0
M  V30 3814 C 350.448 -0.616217 -1.91846 0
M  V30 3815 O 349.504 -0.113067 -2.52247 0
M  V30 3816 C 350.817 -2.884 -0.851217 0
M  V30 3817 C 352.365 -2.98271 -0.948877 0
M  V30 3818 C 352.84 -4.43074 -1.15973 0
M  V30 3819 N 354.331 -4.46665 -1.22658 0
M  V30 3820 C 355.066 -5.55857 -1.40751 0
M  V30 3821 N 354.562 -6.75026 -1.5592 0
M  V30 3822 N 356.355 -5.43495 -1.4342 0
M  V30 3823 H 348.506 -2.06661 0.490421 0
M  V30 3824 H 350.769 -0.934812 0.157579 0
M  V30 3825 H 350.475 -3.51699 -0.00704236 0
M  V30 3826 H 350.349 -3.34225 -1.74853 0
M  V30 3827 H 352.736 -2.35102 -1.78356 0
M  V30 3828 H 352.817 -2.55785 -0.0281435 0
M  V30 3829 H 352.461 -5.06827 -0.329915 0
M  V30 3830 H 352.391 -4.83165 -2.09426 0
M  V30 3831 H 354.882 -3.60797 -1.124 0
M  V30 3832 H 355.195 -7.54004 -1.69404 0
M  V30 3833 H 353.54 -6.77944 -1.53027 0
M  V30 3834 H 356.731 -4.49349 -1.31162 0
M  V30 3835 H 356.904 -6.28649 -1.57178 0
M  V30 3836 N 350.31 0.590341 -1.46126 0
M  V30 3837 C 351.258 1.72105 -1.5647 0
M  V30 3838 C 352.252 1.63756 -0.433612 0
M  V30 3839 O 353.458 1.69342 -0.610194 0
M  V30 3840 H 349.833 0.568889 -0.491802 0
M  V30 3841 H 351.804 1.6051 -2.51553 0
M  V30 3842 C 350.553 3.10493 -1.56491 0
M  V30 3843 H 349.876 3.17583 -2.4286 0
M  V30 3844 H 351.316 3.8939 -1.67785 0
M  V30 3845 C 349.775 3.3563 -0.292231 0
M  V30 3846 O 350.305 3.96875 0.620739 0
M  V30 3847 N 348.511 2.90026 -0.182523 0
M  V30 3848 H 348.058 2.40367 -0.926356 0
M  V30 3849 H 348.016 3.07218 0.668152 0
M  V30 3850 N 351.788 1.33704 0.83433 0
M  V30 3851 C 353.065 1.16011 1.57483 0
M  V30 3852 C 353.445 -0.27176 2.09343 0
M  V30 3853 O 352.793 -1.27146 1.89858 0
M  V30 3854 C 353.003 2.20507 2.70514 0
M  V30 3855 C 354.351 2.54898 3.39577 0
M  V30 3856 O 355.375 2.19209 2.80759 0
M  V30 3857 O 354.234 3.16158 4.45765 0
M  V30 3858 H 351.328 0.448992 0.694503 0
M  V30 3859 H 353.874 1.453 0.876691 0
M  V30 3860 H 352.646 3.16667 2.29865 0
M  V30 3861 H 352.269 1.92329 3.47987 0
M  V30 3862 N 353.266 -1.05314 1.17247 0
M  V30 3863 C 354.198 -2.13023 0.845812 0
M  V30 3864 C 355.211 -1.62096 -0.151246 0
M  V30 3865 O 356.4 -1.78343 0.0748818 0
M  V30 3866 C 353.5 -3.38047 0.240292 0
M  V30 3867 C 352.673 -4.18255 1.27991 0
M  V30 3868 C 351.732 -5.21625 0.692375 0
M  V30 3869 O 350.758 -5.52619 1.36385 0
M  V30 3870 N 351.96 -5.78201 -0.516178 0
M  V30 3871 H 354.725 -2.41642 1.77283 0
M  V30 3872 H 352.286 -1.21401 1.07115 0
M  V30 3873 H 354.278 -4.04359 -0.16603 0
M  V30 3874 H 352.848 -3.06972 -0.590487 0
M  V30 3875 H 352.068 -3.47451 1.86203 0
M  V30 3876 H 353.356 -4.68643 1.98119 0
M  V30 3877 H 352.754 -5.55301 -1.07969 0
M  V30 3878 H 351.311 -6.4604 -0.86458 0
M  V30 3879 N 354.744 -0.972509 -1.24016 0
M  V30 3880 C 355.674 -0.525548 -2.27509 0
M  V30 3881 C 356.655 0.437262 -1.64384 0
M  V30 3882 O 357.84 0.332343 -1.91335 0
M  V30 3883 C 354.97 0.180448 -3.46831 0
M  V30 3884 C 353.924 -0.698859 -4.22256 0
M  V30 3885 C 353.25 0.138903 -5.3452 0
M  V30 3886 C 354.55 -1.98582 -4.83076 0
M  V30 3887 H 356.244 -1.39058 -2.65148 0
M  V30 3888 H 353.79 -0.67009 -1.27459 0
M  V30 3889 H 355.743 0.504387 -4.18371 0
M  V30 3890 H 354.467 1.07987 -3.08231 0
M  V30 3891 H 353.126 -1.00614 -3.52523 0
M  V30 3892 H 352.774 1.03862 -4.9216 0
M  V30 3893 H 352.474 -0.446259 -5.85903 0
M  V30 3894 H 353.998 0.457404 -6.08884 0
M  V30 3895 H 355.412 -1.72715 -5.46665 0
M  V30 3896 H 353.809 -2.5181 -5.44713 0
M  V30 3897 H 354.879 -2.67769 -4.04262 0
M  V30 3898 N 356.222 1.38976 -0.743202 0
M  V30 3899 C 357.447 2.05161 -0.303936 0
M  V30 3900 C 357.872 1.55677 1.05576 0
M  V30 3901 O 357.23 0.704131 1.67068 0
M  V30 3902 C 357.278 3.59138 -0.324373 0
M  V30 3903 O 356.382 4.06668 0.685204 0
M  V30 3904 H 355.723 0.649815 -0.136518 0
M  V30 3905 H 358.253 1.77852 -1.01142 0
M  V30 3906 H 358.263 4.07639 -0.171618 0
M  V30 3907 H 356.938 3.94515 -1.31647 0
M  V30 3908 H 355.515 3.69561 0.497913 0
M  V30 3909 N 357.7 0.491464 1.49741 0
M  V30 3910 C 358.946 -0.0485431 2.03342 0
M  V30 3911 C 359.301 -1.35566 1.36527 0
M  V30 3912 O 358.594 -1.85262 0.488729 0
M  V30 3913 C 358.788 -0.267329 3.56399 0
M  V30 3914 C 358.617 1.01703 4.38049 0
M  V30 3915 C 357.387 1.56614 4.80417 0
M  V30 3916 C 359.585 1.91782 4.77204 0
M  V30 3917 N 357.567 2.7974 5.4646 0
M  V30 3918 C 358.938 2.99489 5.42868 0
M  V30 3919 C 360.993 1.92575 4.5915 0
M  V30 3920 C 359.696 4.08005 5.92389 0
M  V30 3921 C 361.722 3.0006 5.09626 0
M  V30 3922 C 361.084 4.06485 5.75282 0
M  V30 3923 H 357.183 0.0227779 0.781668 0
M  V30 3924 H 359.767 0.664204 1.8302 0
M  V30 3925 H 357.938 -0.949126 3.76625 0
M  V30 3926 H 359.67 -0.803492 3.96644 0
M  V30 3927 H 356.425 1.11256 4.60347 0
M  V30 3928 H 356.849 3.42323 5.84075 0
M  V30 3929 H 361.491 1.11605 4.07804 0
M  V30 3930 H 359.209 4.89779 6.42761 0
M  V30 3931 H 362.795 3.01681 4.97473 0
M  V30 3932 H 361.675 4.88287 6.13633 0
M  V30 3933 N 359.178 -1.55987 0.224894 0
M  V30 3934 C 360.108 -2.23426 -0.678457 0
M  V30 3935 C 361.089 -1.20709 -1.19847 0
M  V30 3936 O 362.274 -1.49304 -1.24186 0
M  V30 3937 C 359.404 -2.91676 -1.88527 0
M  V30 3938 C 358.358 -4.00893 -1.49896 0
M  V30 3939 C 357.684 -4.56455 -2.78483 0
M  V30 3940 C 358.984 -5.17769 -0.686461 0
M  V30 3941 H 360.678 -2.99175 -0.116173 0
M  V30 3942 H 358.224 -1.43897 -0.054436 0
M  V30 3943 H 360.177 -3.37547 -2.5227 0
M  V30 3944 H 358.901 -2.1338 -2.47258 0
M  V30 3945 H 357.56 -3.55758 -0.884985 0
M  V30 3946 H 357.208 -3.74886 -3.35365 0
M  V30 3947 H 356.908 -5.30169 -2.53368 0
M  V30 3948 H 358.432 -5.05047 -3.43162 0
M  V30 3949 H 359.846 -5.60001 -1.22767 0
M  V30 3950 H 358.243 -5.97735 -0.532259 0
M  V30 3951 H 359.313 -4.83932 0.306196 0
M  V30 3952 N 360.656 0.0484629 -1.57525 0
M  V30 3953 C 361.902 0.738854 -1.89506 0
M  V30 3954 C 362.257 1.73989 -0.821319 0
M  V30 3955 O 361.55 1.90825 0.172129 0
M  V30 3956 C 361.744 1.46632 -3.25935 0
M  V30 3957 C 361.573 0.537254 -4.46479 0
M  V30 3958 C 360.343 0.165484 -5.05029 0
M  V30 3959 C 362.541 -0.176085 -5.13998 0
M  V30 3960 N 360.523 -0.766868 -6.09091 0
M  V30 3961 C 361.894 -0.96478 -6.12448 0
M  V30 3962 C 363.949 -0.24509 -4.97296 0
M  V30 3963 C 362.652 -1.8161 -6.95996 0
M  V30 3964 C 364.678 -1.08347 -5.81391 0
M  V30 3965 C 364.04 -1.86014 -6.79395 0
M  V30 3966 H 360.139 0.245067 -0.742608 0
M  V30 3967 H 362.723 -0.000476161 -1.947 0
M  V30 3968 H 360.894 2.17623 -3.21706 0
M  V30 3969 H 362.626 2.10757 -3.45491 0
M  V30 3970 H 359.381 0.523466 -4.70698 0
M  V30 3971 H 359.805 -1.22698 -6.65788 0
M  V30 3972 H 364.447 0.341063 -4.21422 0
M  V30 3973 H 362.165 -2.41313 -7.71229 0
M  V30 3974 H 365.751 -1.14014 -5.70519 0
M  V30 3975 H 364.631 -2.4984 -7.43337 0
M  V30 3976 N 362.134 1.5431 0.320358 0
M  V30 3977 C 363.097 1.83195 1.3774 0
M  V30 3978 C 364.097 0.703906 1.44575 0
M  V30 3979 O 365.287 0.972214 1.44546 0
M  V30 3980 C 362.419 1.99487 2.76438 0
M  V30 3981 H 363.612 2.77642 1.1338 0
M  V30 3982 H 361.165 1.46076 0.556012 0
M  V30 3983 H 361.9 1.07262 3.06048 0
M  V30 3984 H 361.685 2.81575 2.7287 0
M  V30 3985 H 363.175 2.23271 3.52902 0
M  V30 3986 N 363.613 -0.582584 1.46437 0
M  V30 3987 C 364.523 -1.71949 1.59595 0
M  V30 3988 C 365.539 -1.67264 0.479443 0
M  V30 3989 O 366.715 -1.87171 0.743579 0
M  V30 3990 C 363.78 -3.08452 1.58298 0
M  V30 3991 C 362.841 -3.244 2.81182 0
M  V30 3992 C 362.074 -4.54391 2.79937 0
M  V30 3993 O 362.297 -5.38287 1.8869 0
M  V30 3994 O 361.231 -4.73588 3.71481 0
M  V30 3995 H 365.057 -1.63795 2.55744 0
M  V30 3996 H 362.642 -0.749643 1.29231 0
M  V30 3997 H 364.524 -3.89732 1.60271 0
M  V30 3998 H 363.199 -3.17043 0.653094 0
M  V30 3999 H 362.106 -2.42613 2.84763 0
M  V30 4000 H 363.439 -3.20699 3.7338 0
M  V30 4001 N 365.091 -1.34144 -0.827227 0
M  V30 4002 C 366.316 -1.29476 -1.62021 0
M  V30 4003 C 366.741 0.129292 -1.87655 0
M  V30 4004 O 366.099 1.08967 -1.449 0
M  V30 4005 C 366.147 -2.08702 -2.94068 0
M  V30 4006 O 365.251 -1.45359 -3.85933 0
M  V30 4007 H 364.592 -0.444881 -0.492927 0
M  V30 4008 H 367.122 -1.76882 -1.02829 0
M  V30 4009 H 367.132 -2.19898 -3.43669 0
M  V30 4010 H 365.807 -3.12241 -2.74734 0
M  V30 4011 H 364.384 -1.42879 -3.44442 0
M  V30 4012 N 366.569 1.04691 -1.17803 0
M  V30 4013 C 367.797 1.81446 -0.99423 0
M  V30 4014 C 368.212 1.83174 0.457459 0
M  V30 4015 O 367.569 1.26265 1.31771 0
M  V30 4016 C 367.62 3.27334 -1.5341 0
M  V30 4017 O 367.341 3.25798 -2.92895 0
M  V30 4018 C 368.842 4.20759 -1.39559 0
M  V30 4019 H 366.062 0.571599 -0.351447 0
M  V30 4020 H 368.606 1.31982 -1.56208 0
M  V30 4021 H 366.761 3.74052 -1.00815 0
M  V30 4022 H 367.175 4.17144 -3.17949 0
M  V30 4023 H 368.649 5.21084 -1.82141 0
M  V30 4024 H 369.126 4.37856 -0.343394 0
M  V30 4025 H 369.732 3.79901 -1.91195 0
M  V30 4026 N 368.047 0.979072 1.23499 0
M  V30 4027 C 369.01 0.523244 2.23147 0
M  V30 4028 C 370.01 -0.386406 1.56088 0
M  V30 4029 O 371.2 -0.180283 1.73265 0
M  V30 4030 C 368.332 -0.240739 3.40049 0
M  V30 4031 H 369.525 1.40432 2.64989 0
M  V30 4032 H 367.078 0.764824 1.36309 0
M  V30 4033 H 367.813 -1.13841 3.03662 0
M  V30 4034 H 367.598 0.412207 3.89927 0
M  V30 4035 H 369.088 -0.548297 4.13985 0
M  V30 4036 N 369.525 -1.3858 0.750561 0
M  V30 4037 C 370.455 -2.33102 0.136237 0
M  V30 4038 C 371.436 -1.54713 -0.706965 0
M  V30 4039 O 372.621 -1.83043 -0.648769 0
M  V30 4040 C 369.751 -3.38882 -0.760017 0
M  V30 4041 C 368.705 -4.27995 -0.0197785 0
M  V30 4042 C 368.031 -5.24605 -1.03408 0
M  V30 4043 C 369.331 -5.09554 1.14684 0
M  V30 4044 H 371.025 -2.84726 0.925822 0
M  V30 4045 H 368.571 -1.36898 0.446654 0
M  V30 4046 H 370.524 -4.0397 -1.19943 0
M  V30 4047 H 369.248 -2.85734 -1.58189 0
M  V30 4048 H 367.907 -3.64409 0.400184 0
M  V30 4049 H 367.555 -4.67746 -1.84994 0
M  V30 4050 H 367.255 -5.85081 -0.543464 0
M  V30 4051 H 368.779 -5.9257 -1.47288 0
M  V30 4052 H 370.193 -5.67899 0.785118 0
M  V30 4053 H 368.59 -5.7925 1.56812 0
M  V30 4054 H 369.66 -4.4347 1.96118 0
M  V30 4055 N 371.003 -0.499398 -1.49478 0
M  V30 4056 C 372.25 0.0456899 -2.02448 0
M  V30 4057 C 372.578 1.37142 -1.37921 0
M  V30 4058 O 371.833 1.89111 -0.503544 0
M  V30 4059 C 372.132 0.248424 -3.56536 0
M  V30 4060 C 371.798 -0.999107 -4.39692 0
M  V30 4061 C 370.46 -1.34108 -4.62135 0
M  V30 4062 C 372.812 -1.82842 -4.88076 0
M  V30 4063 C 370.14 -2.51191 -5.30208 0
M  V30 4064 C 372.492 -2.99076 -5.57437 0
M  V30 4065 C 371.156 -3.33655 -5.78127 0
M  V30 4066 H 370.426 0.0167191 -0.740811 0
M  V30 4067 H 373.073 -0.65923 -1.79795 0
M  V30 4068 H 371.378 1.03586 -3.77859 0
M  V30 4069 H 373.075 0.684605 -3.95113 0
M  V30 4070 H 369.665 -0.722729 -4.22463 0
M  V30 4071 H 373.849 -1.57737 -4.70566 0
M  V30 4072 H 369.105 -2.78221 -5.44429 0
M  V30 4073 H 373.279 -3.63664 -5.93904 0
M  V30 4074 H 370.906 -4.24483 -6.30649 0
M  V30 4075 N 372.481 1.55866 -0.233164 0
M  V30 4076 C 373.892 1.847 0.272554 0
M  V30 4077 C 374.243 1.15477 1.58617 0
M  V30 4078 O 373.368 0.42841 2.12117 0
M  V30 4079 C 373.963 3.35071 0.501299 0
M  V30 4080 C 372.522 3.6418 0.951304 0
M  V30 4081 C 371.669 2.77292 0.0208209 0
M  V30 4082 H 374.62 1.52005 -0.456074 0
M  V30 4083 H 374.641 3.55906 1.34577 0
M  V30 4084 H 374.153 3.85424 -0.454936 0
M  V30 4085 H 372.254 3.19293 1.92049 0
M  V30 4086 H 372.367 4.72071 0.817675 0
M  V30 4087 H 370.731 2.49131 0.529723 0
M  V30 4088 H 371.514 3.30448 -0.93054 0
M  V30 4089 N 373.959 -0.0401083 1.57549 0
M  V30 4090 C 375.184 -0.748931 1.93406 0
M  V30 4091 C 375.609 -1.68686 0.832274 0
M  V30 4092 O 374.967 -1.80047 -0.212818 0
M  V30 4093 C 375.015 -1.4916 3.28304 0
M  V30 4094 O 374.119 -2.6042 3.19774 0
M  V30 4095 H 373.46 -0.202212 0.63246 0
M  V30 4096 H 375.99 0.00112086 2.046 0
M  V30 4097 H 376 -1.86395 3.62934 0
M  V30 4098 H 374.675 -0.80364 4.08062 0
M  V30 4099 H 373.252 -2.25808 2.96758 0
M  V30 4100 N 375.437 -1.54477 -0.31217 0
M  V30 4101 C 376.683 -1.73483 -1.0503 0
M  V30 4102 C 377.016 -0.513125 -1.87298 0
M  V30 4103 O 376.291 0.489864 -1.8823 0
M  V30 4104 C 376.574 -3.01723 -1.96558 0
M  V30 4105 C 376.427 -4.3417 -1.17545 0
M  V30 4106 C 377.746 -3.25772 -2.95907 0
M  V30 4107 H 374.865 -0.631222 -0.380432 0
M  V30 4108 H 377.507 -1.87184 -0.325932 0
M  V30 4109 H 375.657 -2.90174 -2.58324 0
M  V30 4110 H 377.329 -4.5762 -0.581513 0
M  V30 4111 H 375.572 -4.31159 -0.477925 0
M  V30 4112 H 376.243 -5.20143 -1.84811 0
M  V30 4113 H 378.719 -3.36857 -2.44267 0
M  V30 4114 H 377.595 -4.16838 -3.57123 0
M  V30 4115 H 377.856 -2.43537 -3.68974 0
M  V30 4116 N 376.915 0.57481 -1.46744 0
M  V30 4117 C 378.145 1.35659 -1.55821 0
M  V30 4118 C 378.553 1.88129 -0.201036 0
M  V30 4119 O 377.896 1.64723 0.813134 0
M  V30 4120 C 377.958 2.57473 -2.50894 0
M  V30 4121 C 377.622 2.26415 -3.9697 0
M  V30 4122 C 378.619 1.84771 -4.85958 0
M  V30 4123 C 376.304 2.38316 -4.42166 0
M  V30 4124 C 378.298 1.55434 -6.18158 0
M  V30 4125 C 375.985 2.08591 -5.74398 0
M  V30 4126 C 376.983 1.67216 -6.62214 0
M  V30 4127 O 376.671 1.37859 -7.91991 0
M  V30 4128 H 376.403 0.420496 -0.529301 0
M  V30 4129 H 378.957 0.704967 -1.92923 0
M  V30 4130 H 377.187 3.25468 -2.08824 0
M  V30 4131 H 378.876 3.19546 -2.50291 0
M  V30 4132 H 379.642 1.75085 -4.52295 0
M  V30 4133 H 375.521 2.69483 -3.74032 0
M  V30 4134 H 379.065 1.23065 -6.86659 0
M  V30 4135 H 374.962 2.17905 -6.07608 0
M  V30 4136 H 375.73 1.51638 -8.04331 0
M  V30 4137 N 378.394 1.34581 0.820102 0
M  V30 4138 C 379.324 1.29038 1.94606 0
M  V30 4139 C 380.305 0.1673 1.69275 0
M  V30 4140 O 381.49 0.360112 1.90832 0
M  V30 4141 C 378.62 1.04793 3.31113 0
M  V30 4142 C 377.574 2.13597 3.70891 0
M  V30 4143 C 376.9 1.74537 5.05412 0
M  V30 4144 C 378.2 3.55451 3.8269 0
M  V30 4145 H 379.894 2.23248 1.99501 0
M  V30 4146 H 377.44 1.0747 0.958449 0
M  V30 4147 H 379.393 0.995592 4.0947 0
M  V30 4148 H 378.117 0.0702565 3.26524 0
M  V30 4149 H 376.776 2.17905 2.9481 0
M  V30 4150 H 376.424 0.754226 4.97313 0
M  V30 4151 H 376.124 2.47361 5.32997 0
M  V30 4152 H 377.648 1.70803 5.86224 0
M  V30 4153 H 379.062 3.5354 4.51312 0
M  V30 4154 H 377.459 4.26922 4.21732 0
M  V30 4155 H 378.529 3.92587 2.84611 0
M  V30 4156 N 379.872 -1.04064 1.18357 0
M  V30 4157 C 380.782 -2.15569 0.925596 0
M  V30 4158 C 381.798 -1.7365 -0.110295 0
M  V30 4159 O 382.974 -2.01273 0.0716218 0
M  V30 4160 C 380.039 -3.43704 0.454836 0
M  V30 4161 C 379.1 -4.00004 1.55869 0
M  V30 4162 C 378.333 -5.22023 1.1103 0
M  V30 4163 O 378.556 -5.70392 -0.0309756 0
M  V30 4164 O 377.49 -5.70856 1.90805 0
M  V30 4165 H 381.316 -2.40187 1.8586 0
M  V30 4166 H 378.901 -1.1402 0.965394 0
M  V30 4167 H 380.783 -4.20923 0.200382 0
M  V30 4168 H 379.458 -3.20559 -0.449876 0
M  V30 4169 H 378.365 -3.24172 1.86716 0
M  V30 4170 H 379.698 -4.2749 2.43953 0
M  V30 4171 N 381.35 -0.985608 -1.22978 0
M  V30 4172 C 382.26 -0.538548 -2.28335 0
M  V30 4173 C 383.276 0.409163 -1.69121 0
M  V30 4174 O 384.452 0.277797 -1.99475 0
M  V30 4175 C 381.517 0.146867 -3.46389 0
M  V30 4176 C 380.578 -0.842896 -4.20944 0
M  V30 4177 C 379.811 -0.190095 -5.33361 0
M  V30 4178 O 380.034 1.01767 -5.61248 0
M  V30 4179 O 378.968 -0.891289 -5.95264 0
M  V30 4180 H 382.794 -1.41487 -2.68729 0
M  V30 4181 H 380.379 -0.753495 -1.29007 0
M  V30 4182 H 382.261 0.531125 -4.1804 0
M  V30 4183 H 380.936 0.997871 -3.07935 0
M  V30 4184 H 379.843 -1.27795 -3.51595 0
M  V30 4185 H 381.176 -1.66287 -4.6326 0
M  V30 4186 N 382.828 1.3818 -0.7579 0
M  V30 4187 C 384.056 2.04301 -0.326937 0
M  V30 4188 C 384.471 1.57163 1.0462 0
M  V30 4189 O 383.828 0.746626 1.66529 0
M  V30 4190 C 383.879 3.59846 -0.345363 0
M  V30 4191 O 383.6 4.05256 -1.66432 0
M  V30 4192 C 385.101 4.4319 0.098927 0
M  V30 4193 H 382.321 0.656443 -0.139012 0
M  V30 4194 H 384.865 1.76786 -1.02796 0
M  V30 4195 H 383.02 3.86182 0.306955 0
M  V30 4196 H 383.434 4.99709 -1.59345 0
M  V30 4197 H 384.908 5.51989 0.0348745 0
M  V30 4198 H 385.385 4.23947 1.14741 0
M  V30 4199 H 385.991 4.22051 -0.52468 0
M  V30 4200 N 384.306 0.507319 1.49211 0
M  V30 4201 C 385.236 -0.256939 2.32082 0
M  V30 4202 C 386.217 -0.956609 1.40652 0
M  V30 4203 O 387.402 -0.946788 1.69557 0
M  V30 4204 C 384.532 -1.31802 3.21318 0
M  V30 4205 C 383.486 -0.737855 4.21592 0
M  V30 4206 C 382.812 -1.89992 4.99807 0
M  V30 4207 C 384.112 0.275325 5.21574 0
M  V30 4208 H 385.806 0.434798 2.96226 0
M  V30 4209 H 383.352 0.210546 1.42452 0
M  V30 4210 H 385.305 -1.86045 3.78107 0
M  V30 4211 H 384.029 -2.03903 2.5513 0
M  V30 4212 H 382.688 -0.217126 3.65956 0
M  V30 4213 H 382.336 -2.60877 4.30061 0
M  V30 4214 H 382.036 -1.51777 5.6766 0
M  V30 4215 H 383.56 -2.44657 5.59442 0
M  V30 4216 H 384.974 -0.179193 5.7302 0
M  V30 4217 H 383.371 0.573649 5.97352 0
M  V30 4218 H 384.441 1.18903 4.70096 0
M  V30 4219 N 385.784 -1.5574 0.241426 0
M  V30 4220 C 386.747 -2.19877 -0.647063 0
M  V30 4221 C 387.747 -1.16642 -1.10686 0
M  V30 4222 O 388.937 -1.41757 -1.01245 0
M  V30 4223 C 386.069 -2.83797 -1.88871 0
M  V30 4224 H 387.262 -2.99772 -0.087574 0
M  V30 4225 H 384.815 -1.56298 -0.00813574 0
M  V30 4226 H 385.55 -2.07824 -2.48957 0
M  V30 4227 H 385.335 -3.59414 -1.56728 0
M  V30 4228 H 386.825 -3.32898 -2.52129 0
M  V30 4229 N 387.262 0.0317525 -1.57568 0
M  V30 4230 C 388.487 0.738664 -1.938 0
M  V30 4231 C 388.912 1.68242 -0.841208 0
M  V30 4232 O 388.27 1.80157 0.203267 0
M  V30 4233 C 388.318 1.47417 -3.29091 0
M  V30 4234 O 387.422 2.5872 -3.2115 0
M  V30 4235 H 386.763 0.198856 -0.633524 0
M  V30 4236 H 389.293 -0.0119713 -2.04596 0
M  V30 4237 H 389.303 1.84468 -3.63917 0
M  V30 4238 H 387.978 0.781988 -4.08482 0
M  V30 4239 H 386.555 2.24231 -2.97951 0
M  V30 4240 N 388.74 1.54641 0.303973 0
M  V30 4241 C 389.965 1.78092 1.06292 0
M  V30 4242 C 390.39 0.537342 1.80262 0
M  V30 4243 O 389.748 -0.511993 1.7392 0
M  V30 4244 C 389.796 2.98612 2.02147 0
M  V30 4245 O 388.9 2.71528 3.10397 0
M  V30 4246 H 388.241 0.589548 0.305497 0
M  V30 4247 H 390.771 2.01716 0.3423 0
M  V30 4248 H 390.781 3.265 2.44667 0
M  V30 4249 H 389.456 3.88785 1.47714 0
M  V30 4250 H 388.033 2.54648 2.72413 0
M  V30 4251 N 390.218 -0.567019 1.47046 0
M  V30 4252 C 391.446 -1.35027 1.56765 0
M  V30 4253 C 391.861 -1.8758 0.214316 0
M  V30 4254 O 391.218 -1.64471 -0.790919 0
M  V30 4255 C 391.269 -2.52698 2.58507 0
M  V30 4256 O 390.99 -2.0232 3.88585 0
M  V30 4257 C 392.491 -3.45043 2.78316 0
M  V30 4258 H 389.711 -0.41195 0.529658 0
M  V30 4259 H 392.255 -0.687832 1.92585 0
M  V30 4260 H 390.41 -3.149 2.25648 0
M  V30 4261 H 390.824 -2.79068 4.44096 0
M  V30 4262 H 392.298 -4.2405 3.53391 0
M  V30 4263 H 392.775 -3.97971 1.85784 0
M  V30 4264 H 393.381 -2.88665 3.12334 0
M  V30 4265 N 391.696 -1.35014 -0.812953 0
M  V30 4266 C 392.646 -1.23959 -1.91359 0
M  V30 4267 C 393.63 -0.136306 -1.60322 0
M  V30 4268 O 394.822 -0.366925 -1.73155 0
M  V30 4269 C 391.951 -1.00736 -3.28188 0
M  V30 4270 C 391.037 -2.15426 -3.65311 0
M  V30 4271 N 391.428 -3.40612 -3.73921 0
M  V30 4272 C 389.726 -2.06672 -3.95225 0
M  V30 4273 C 390.427 -4.15994 -4.06601 0
M  V30 4274 N 389.403 -3.44685 -4.20349 0
M  V30 4275 H 393.205 -2.18815 -1.96208 0
M  V30 4276 H 390.719 -1.27395 -1.00718 0
M  V30 4277 H 392.716 -0.909052 -4.06868 0
M  V30 4278 H 391.376 -0.067586 -3.2463 0
M  V30 4279 H 392.387 -3.75043 -3.5716 0
M  V30 4280 H 389.064 -1.20511 -3.99729 0
M  V30 4281 H 390.454 -5.24145 -4.20382 0
M  V30 4282 N 393.175 1.03435 -1.18907 0
M  V30 4283 C 394.423 1.76394 -0.986382 0
M  V30 4284 C 394.744 1.88883 0.484567 0
M  V30 4285 O 394.014 1.41843 1.3512 0
M  V30 4286 H 392.594 0.65344 -0.361975 0
M  V30 4287 H 395.256 1.248 -1.49703 0
M  V30 4288 H 394.352 2.77424 -1.42978 0
M  V30 4289 N 394.653 0.992116 1.22453 0
M  V30 4290 C 396.069 0.702713 1.43297 0
M  V30 4291 C 396.269 -0.726909 1.87932 0
M  V30 4292 O 395.325 -1.49792 2.0327 0
M  V30 4293 C 396.638 1.70762 2.47509 0
M  V30 4294 C 398.186 1.72298 2.61309 0
M  V30 4295 C 398.661 2.71649 3.68742 0
M  V30 4296 N 400.152 2.70239 3.76199 0
M  V30 4297 C 400.887 3.43778 4.58917 0
M  V30 4298 N 400.383 4.26914 5.45633 0
M  V30 4299 N 402.176 3.32487 4.5322 0
M  V30 4300 H 394.327 1.91543 0.917871 0
M  V30 4301 H 396.59 0.826031 0.465162 0
M  V30 4302 H 396.296 2.73059 2.21657 0
M  V30 4303 H 396.17 1.49985 3.46099 0
M  V30 4304 H 398.557 0.706989 2.86506 0
M  V30 4305 H 398.638 1.97143 1.62997 0
M  V30 4306 H 398.282 3.73397 3.44292 0
M  V30 4307 H 398.212 2.44074 4.66622 0
M  V30 4308 H 400.703 2.09912 3.14237 0
M  V30 4309 H 401.016 4.79855 6.05771 0
M  V30 4310 H 399.361 4.31002 5.45218 0
M  V30 4311 H 402.552 2.6698 3.84499 0
M  V30 4312 H 402.725 3.90058 5.17454 0
M  V30 4313 N 396.131 -1.37776 0.765217 0
M  V30 4314 C 397.079 -2.32209 0.134798 0
M  V30 4315 C 398.073 -1.54607 -0.692315 0
M  V30 4316 O 399.279 -1.70052 -0.590109 0
M  V30 4317 H 395.654 -0.751591 0.0248005 0
M  V30 4318 H 397.625 -2.8297 0.947119 0
M  V30 4319 C 396.374 -3.39841 -0.735063 0
M  V30 4320 H 395.697 -3.99654 -0.107991 0
M  V30 4321 H 397.137 -4.08296 -1.14326 0
M  V30 4322 C 395.596 -2.79378 -1.88281 0
M  V30 4323 O 396.126 -2.69608 -2.97783 0
M  V30 4324 N 394.332 -2.37016 -1.68142 0
M  V30 4325 H 393.879 -2.45162 -0.790772 0
M  V30 4326 H 393.837 -1.96905 -2.45104 0
M  V30 4327 N 397.609 -0.515225 -1.4894 0
M  V30 4328 C 398.856 0.024215 -2.02486 0
M  V30 4329 C 399.184 1.35671 -1.39368 0
M  V30 4330 O 398.439 1.88566 -0.523574 0
M  V30 4331 C 398.738 0.210595 -3.56779 0
M  V30 4332 C 398.404 -1.04569 -4.38607 0
M  V30 4333 C 397.066 -1.39002 -4.60686 0
M  V30 4334 C 399.418 -1.88008 -4.86109 0
M  V30 4335 C 396.746 -2.568 -5.27514 0
M  V30 4336 C 399.098 -3.04972 -5.54234 0
M  V30 4337 C 397.762 -3.39768 -5.74555 0
M  V30 4338 H 397.032 0.00886088 -0.740947 0
M  V30 4339 H 399.679 -0.678263 -1.79086 0
M  V30 4340 H 397.984 0.99572 -3.78936 0
M  V30 4341 H 399.681 0.642659 -3.95817 0
M  V30 4342 H 396.271 -0.767497 -4.21672 0
M  V30 4343 H 400.455 -1.62719 -4.68867 0
M  V30 4344 H 395.711 -2.8398 -5.41447 0
M  V30 4345 H 399.885 -3.69943 -5.90013 0
M  V30 4346 H 397.512 -4.31148 -6.26112 0
M  V30 4347 N 399.087 1.5561 -0.249682 0
M  V30 4348 C 400.333 1.99306 0.374841 0
M  V30 4349 C 400.666 1.13767 1.57387 0
M  V30 4350 O 399.941 0.201711 1.93451 0
M  V30 4351 C 400.224 3.51507 0.781986 0
M  V30 4352 C 400.077 4.4781 -0.422629 0
M  V30 4353 C 401.396 4.08884 1.62793 0
M  V30 4354 H 398.515 0.724572 0.134773 0
M  V30 4355 H 401.157 1.86719 -0.351549 0
M  V30 4356 H 399.307 3.62363 1.4009 0
M  V30 4357 H 400.979 4.48931 -1.06108 0
M  V30 4358 H 399.222 4.20518 -1.06524 0
M  V30 4359 H 399.893 5.51919 -0.0943766 0
M  V30 4360 H 402.369 4.01147 1.10547 0
M  V30 4361 H 401.245 5.1564 1.88166 0
M  V30 4362 H 401.506 3.57515 2.60068 0
M  V30 4363 N 400.565 -0.0233959 1.57583 0
M  V30 4364 C 401.79 -0.728376 1.94189 0
M  V30 4365 C 402.215 -1.67793 0.850119 0
M  V30 4366 O 401.573 -1.80262 -0.19371 0
M  V30 4367 C 401.621 -1.45669 3.29868 0
M  V30 4368 O 400.725 -2.57013 3.22518 0
M  V30 4369 H 400.066 -0.195493 0.63457 0
M  V30 4370 H 402.596 0.0228214 2.04587 0
M  V30 4371 H 402.606 -1.82535 3.6489 0
M  V30 4372 H 401.281 -0.760314 4.08891 0
M  V30 4373 H 399.858 -2.22648 2.99136 0
M  V30 4374 N 402.043 -1.548 -0.295768 0
M  V30 4375 C 403.29 -1.74329 -1.03032 0
M  V30 4376 C 403.618 -0.531915 -1.87085 0
M  V30 4377 O 402.873 0.486052 -1.89568 0
M  V30 4378 C 403.172 -2.98797 -1.961 0
M  V30 4379 C 402.838 -4.32356 -1.2798 0
M  V30 4380 C 401.5 -4.68661 -1.09135 0
M  V30 4381 C 403.852 -5.15128 -0.793243 0
M  V30 4382 C 401.18 -5.85312 -0.403269 0
M  V30 4383 C 403.532 -6.32488 -0.118854 0
M  V30 4384 C 402.196 -6.6745 0.0815043 0
M  V30 4385 H 401.466 -0.637916 -0.37702 0
M  V30 4386 H 404.113 -1.8906 -0.304696 0
M  V30 4387 H 402.418 -2.78869 -2.75207 0
M  V30 4388 H 404.115 -3.11102 -2.53015 0
M  V30 4389 H 400.705 -4.03808 -1.43655 0
M  V30 4390 H 404.889 -4.87575 -0.92653 0
M  V30 4391 H 400.145 -6.1094 -0.237098 0
M  V30 4392 H 404.319 -6.95892 0.266035 0
M  V30 4393 H 401.946 -7.57695 0.616685 0
M  V30 4394 N 403.521 0.559213 -1.47345 0
M  V30 4395 C 404.937 0.884943 -1.32819 0
M  V30 4396 C 405.137 1.98988 -0.317173 0
M  V30 4397 O 404.193 2.51031 0.272011 0
M  V30 4398 C 405.506 1.28007 -2.72093 0
M  V30 4399 C 407.054 1.39161 -2.80363 0
M  V30 4400 C 407.529 1.82031 -4.20272 0
M  V30 4401 N 409.02 1.89185 -4.22804 0
M  V30 4402 C 409.755 2.2368 -5.27973 0
M  V30 4403 N 409.251 2.56802 -6.43447 0
M  V30 4404 N 411.044 2.24436 -5.15349 0
M  V30 4405 H 403.195 -0.170304 -2.11716 0
M  V30 4406 H 405.458 -0.0135247 -0.947904 0
M  V30 4407 H 405.164 0.542027 -3.47498 0
M  V30 4408 H 405.038 2.23665 -3.03733 0
M  V30 4409 H 407.425 2.12048 -2.05231 0
M  V30 4410 H 407.506 0.41696 -2.52379 0
M  V30 4411 H 407.15 1.09715 -4.95908 0
M  V30 4412 H 407.08 2.80495 -4.45679 0
M  V30 4413 H 409.571 1.65982 -3.39497 0
M  V30 4414 H 409.884 2.82144 -7.19454 0
M  V30 4415 H 408.229 2.54387 -6.46771 0
M  V30 4416 H 411.42 1.97998 -4.24163 0
M  V30 4417 H 411.593 2.50989 -5.97418 0
M  V30 4418 N 404.999 1.35443 0.805782 0
M  V30 4419 C 406.245 1.28952 1.56522 0
M  V30 4420 C 406.578 -0.135597 1.93726 0
M  V30 4421 O 405.853 -1.08516 1.61414 0
M  V30 4422 C 406.136 2.19678 2.85331 0
M  V30 4423 C 405.989 3.7081 2.54598 0
M  V30 4424 C 407.308 2.09495 3.8704 0
M  V30 4425 H 404.427 0.469764 0.567883 0
M  V30 4426 H 407.069 1.65851 0.927001 0
M  V30 4427 H 405.219 1.8834 3.39795 0
M  V30 4428 H 406.891 4.12593 2.06312 0
M  V30 4429 H 405.134 3.91051 1.8778 0
M  V30 4430 H 405.805 4.29679 3.46525 0
M  V30 4431 H 408.281 2.37045 3.41978 0
M  V30 4432 H 407.157 2.75173 4.74943 0
M  V30 4433 H 407.418 1.07714 4.28777 0
M  V30 4434 N 406.477 -1.02803 1.19454 0
M  V30 4435 C 407.409 -2.11181 0.890807 0
M  V30 4436 C 408.422 -1.6238 -0.116829 0
M  V30 4437 O 409.611 -1.78144 0.112694 0
M  V30 4438 C 406.711 -3.37461 0.311942 0
M  V30 4439 C 405.884 -4.15446 1.36834 0
M  V30 4440 C 404.943 -5.20039 0.802864 0
M  V30 4441 O 403.969 -5.49602 1.48077 0
M  V30 4442 N 405.171 -5.79165 -0.393417 0
M  V30 4443 H 407.936 -2.37827 1.82369 0
M  V30 4444 H 405.497 -1.19101 1.09666 0
M  V30 4445 H 407.489 -4.0462 -0.0802225 0
M  V30 4446 H 406.059 -3.08156 -0.52524 0
M  V30 4447 H 405.279 -3.43423 1.93531 0
M  V30 4448 H 406.567 -4.64335 2.08015 0
M  V30 4449 H 405.965 -5.57466 -0.961658 0
M  V30 4450 H 404.522 -6.47729 -0.727351 0
M  V30 4451 N 407.956 -0.998596 -1.21925 0
M  V30 4452 C 408.866 -0.562736 -2.27751 0
M  V30 4453 C 409.882 0.391203 -1.69545 0
M  V30 4454 O 411.058 0.256625 -1.99758 0
M  V30 4455 C 408.123 0.11012 -3.46525 0
M  V30 4456 C 407.184 -0.887495 -4.20026 0
M  V30 4457 C 406.417 -0.246654 -5.3313 0
M  V30 4458 O 406.64 0.958088 -5.62296 0
M  V30 4459 O 405.574 -0.954374 -5.94286 0
M  V30 4460 H 409.4 -1.44329 -2.67213 0
M  V30 4461 H 406.985 -0.767135 -1.28201 0
M  V30 4462 H 408.867 0.486756 -4.18579 0
M  V30 4463 H 407.542 0.965154 -3.08976 0
M  V30 4464 H 406.449 -1.31517 -3.5022 0
M  V30 4465 H 407.782 -1.71191 -4.6147 0
M  V30 4466 N 409.434 1.37368 -0.772513 0
M  V30 4467 C 410.397 2.28601 -0.165541 0
M  V30 4468 C 411.397 1.48062 0.627238 0
M  V30 4469 O 412.587 1.68268 0.450715 0
M  V30 4470 C 409.719 3.32023 0.772897 0
M  V30 4471 H 410.912 2.83787 -0.969787 0
M  V30 4472 H 408.465 1.46647 -0.540775 0
M  V30 4473 H 409.2 2.81962 1.60212 0
M  V30 4474 H 408.985 3.91555 0.206585 0
M  V30 4475 H 410.475 4.00197 1.19298 0
M  V30 4476 N 410.912 0.523116 1.48665 0
M  V30 4477 C 411.842 -0.23231 2.32342 0
M  V30 4478 C 412.823 -0.941637 1.41659 0
M  V30 4479 O 414.008 -0.928751 1.70552 0
M  V30 4480 C 411.138 -1.28387 3.22698 0
M  V30 4481 C 410.092 -0.693098 4.22351 0
M  V30 4482 C 409.418 -1.8468 5.01794 0
M  V30 4483 C 410.718 0.33063 5.21252 0
M  V30 4484 H 412.412 0.466192 2.95748 0
M  V30 4485 H 409.958 0.225643 1.42221 0
M  V30 4486 H 411.911 -1.82024 3.80059 0
M  V30 4487 H 410.635 -2.01186 2.57278 0
M  V30 4488 H 409.294 -0.178299 3.66166 0
M  V30 4489 H 408.942 -2.56301 4.32804 0
M  V30 4490 H 408.642 -1.45747 5.69238 0
M  V30 4491 H 410.166 -2.38709 5.62006 0
M  V30 4492 H 411.58 -0.118407 5.73178 0
M  V30 4493 H 409.977 0.636974 5.9671 0
M  V30 4494 H 411.047 1.23883 4.68808 0
M  V30 4495 N 412.39 -1.55475 0.257931 0
M  V30 4496 C 413.806 -1.59307 -0.0966563 0
M  V30 4497 C 414.006 -1.27514 -1.5602 0
M  V30 4498 O 413.062 -1.02774 -2.30637 0
M  V30 4499 C 414.375 -2.99552 0.262481 0
M  V30 4500 C 415.923 -3.1231 0.207683 0
M  V30 4501 C 416.398 -4.54793 0.541012 0
M  V30 4502 N 417.889 -4.6058 0.491921 0
M  V30 4503 C 418.624 -5.68825 0.722857 0
M  V30 4504 N 418.12 -6.85287 1.0175 0
M  V30 4505 N 419.913 -5.58296 0.652815 0
M  V30 4506 H 412.064 -1.74409 1.21224 0
M  V30 4507 H 414.327 -0.812424 0.48854 0
M  V30 4508 H 414.033 -3.27593 1.27967 0
M  V30 4509 H 413.907 -3.75019 -0.40508 0
M  V30 4510 H 416.294 -2.84044 -0.800195 0
M  V30 4511 H 416.375 -2.39095 0.909255 0
M  V30 4512 H 416.019 -4.83783 1.5465 0
M  V30 4513 H 415.949 -5.26285 -0.18216 0
M  V30 4514 H 418.44 -3.7691 0.273366 0
M  V30 4515 H 418.753 -7.63725 1.18084 0
M  V30 4516 H 417.098 -6.86945 1.05509 0
M  V30 4517 H 420.289 -4.66189 0.422592 0
M  V30 4518 H 420.462 -6.42582 0.836182 0
M  V30 4519 N 413.868 0.0150385 -1.57593 0
M  V30 4520 C 415.114 0.704043 -1.90187 0
M  V30 4521 C 415.447 1.74249 -0.857366 0
M  V30 4522 O 414.722 1.94092 0.125843 0
M  V30 4523 C 415.005 1.36087 -3.33395 0
M  V30 4524 C 414.858 0.334981 -4.48551 0
M  V30 4525 C 416.177 2.29112 -3.7576 0
M  V30 4526 H 413.296 0.254475 -0.691673 0
M  V30 4527 H 415.938 -0.0331678 -1.89971 0
M  V30 4528 H 414.088 1.98922 -3.3371 0
M  V30 4529 H 415.76 -0.292534 -4.60372 0
M  V30 4530 H 414.003 -0.344325 -4.32431 0
M  V30 4531 H 414.674 0.833316 -5.45674 0
M  V30 4532 H 417.15 1.76308 -3.76902 0
M  V30 4533 H 416.026 2.72043 -4.76743 0
M  V30 4534 H 416.287 3.16385 -3.08793 0
M  V30 4535 N 415.346 1.54954 0.287554 0
M  V30 4536 C 416.309 1.86076 1.33823 0
M  V30 4537 C 417.309 0.734414 1.43049 0
M  V30 4538 O 418.499 1.00266 1.42452 0
M  V30 4539 C 415.631 2.05305 2.72144 0
M  V30 4540 H 416.824 2.79984 1.07465 0
M  V30 4541 H 414.377 1.47223 0.524902 0
M  V30 4542 H 415.112 1.1373 3.03704 0
M  V30 4543 H 414.897 2.873 2.66836 0
M  V30 4544 H 416.387 2.30706 3.48087 0
M  V30 4545 N 416.824 -0.551391 1.4764 0
M  V30 4546 C 418.101 -1.31229 1.45046 0
M  V30 4547 C 418.481 -2.10563 0.150527 0
M  V30 4548 O 417.829 -2.11374 -0.867956 0
M  V30 4549 C 418.039 -2.21189 2.69956 0
M  V30 4550 C 419.387 -2.82021 3.1741 0
M  V30 4551 O 420.411 -2.31488 2.70724 0
M  V30 4552 O 419.27 -3.73885 3.98588 0
M  V30 4553 H 416.364 -0.591193 0.578291 0
M  V30 4554 H 418.91 -0.569813 1.59847 0
M  V30 4555 H 417.682 -1.62207 3.56096 0
M  V30 4556 H 417.305 -3.02722 2.57769 0
M  V30 4557 N 418.302 -1.35869 -0.798587 0
M  V30 4558 C 419.548 -1.2978 -1.55836 0
M  V30 4559 C 419.881 0.125322 -1.93795 0
M  V30 4560 O 419.156 1.07658 -1.61987 0
M  V30 4561 C 419.439 -2.21188 -2.84162 0
M  V30 4562 C 419.292 -3.72155 -2.52628 0
M  V30 4563 C 420.611 -2.11545 -3.85923 0
M  V30 4564 H 417.73 -0.472769 -0.565383 0
M  V30 4565 H 420.372 -1.66341 -0.918192 0
M  V30 4566 H 418.522 -1.90139 -3.38791 0
M  V30 4567 H 420.194 -4.13682 -2.04121 0
M  V30 4568 H 418.437 -3.92042 -1.85704 0
M  V30 4569 H 419.108 -4.31511 -3.44242 0
M  V30 4570 H 421.584 -2.38855 -3.40716 0
M  V30 4571 H 420.46 -2.77688 -4.73477 0
M  V30 4572 H 420.721 -1.09987 -4.282 0
M  V30 4573 N 419.78 1.02168 -1.19998 0
M  V30 4574 C 420.73 2.08969 -0.911921 0
M  V30 4575 C 421.714 1.60404 0.12621 0
M  V30 4576 O 422.906 1.76817 -0.0804706 0
M  V30 4577 C 420.035 3.402 -0.460277 0
M  V30 4578 C 419.121 3.9548 -1.53155 0
M  V30 4579 N 419.512 4.24332 -2.75275 0
M  V30 4580 C 417.81 4.23572 -1.39653 0
M  V30 4581 C 418.511 4.68834 -3.44339 0
M  V30 4582 N 417.487 4.70804 -2.71744 0
M  V30 4583 H 421.289 2.29178 -1.83997 0
M  V30 4584 H 418.803 1.20094 -1.09322 0
M  V30 4585 H 420.8 4.16235 -0.235337 0
M  V30 4586 H 419.46 3.21408 0.4612 0
M  V30 4587 H 420.471 4.13393 -3.11973 0
M  V30 4588 H 417.148 4.14005 -0.539067 0
M  V30 4589 H 418.538 5.00019 -4.4881 0
M  V30 4590 N 421.258 1.00505 1.21394 0
M  V30 4591 C 422.208 0.536503 2.21598 0
M  V30 4592 C 423.192 -0.401914 1.55799 0
M  V30 4593 O 424.384 -0.226757 1.75541 0
M  V30 4594 C 421.513 -0.135446 3.43033 0
M  V30 4595 C 420.599 0.823992 4.16018 0
M  V30 4596 N 420.99 1.97683 4.6557 0
M  V30 4597 C 419.288 0.642387 4.4135 0
M  V30 4598 C 419.989 2.58003 5.21354 0
M  V30 4599 N 418.965 1.86162 5.1073 0
M  V30 4600 H 422.767 1.41557 2.57563 0
M  V30 4601 H 420.281 0.868878 1.37202 0
M  V30 4602 H 422.278 -0.488584 4.14027 0
M  V30 4603 H 420.938 -1.01049 3.08576 0
M  V30 4604 H 421.949 2.3572 4.61147 0
M  V30 4605 H 418.626 -0.185578 4.17087 0
M  V30 4606 H 420.016 3.555 5.70149 0
M  V30 4607 N 422.737 -1.36956 0.779787 0
M  V30 4608 C 423.7 -2.2851 0.177662 0
M  V30 4609 C 424.7 -1.48393 -0.619377 0
M  V30 4610 O 425.89 -1.68505 -0.441785 0
M  V30 4611 C 423.022 -3.32428 -0.755279 0
M  V30 4612 H 424.215 -2.83269 0.984823 0
M  V30 4613 H 421.768 -1.46358 0.548544 0
M  V30 4614 H 422.503 -2.82808 -1.58714 0
M  V30 4615 H 422.288 -3.91659 -0.185817 0
M  V30 4616 H 423.778 -4.00824 -1.17174 0
M  V30 4617 N 424.215 -0.530993 -1.48385 0
M  V30 4618 C 425.163 0.244595 -2.3131 0
M  V30 4619 C 426.157 0.93451 -1.41291 0
M  V30 4620 O 427.363 0.85878 -1.58193 0
M  V30 4621 H 423.738 0.0977472 -0.74562 0
M  V30 4622 H 425.709 -0.474369 -2.94605 0
M  V30 4623 C 424.458 1.2779 -3.23365 0
M  V30 4624 H 423.781 0.756439 -3.92579 0
M  V30 4625 H 425.221 1.79198 -3.84271 0
M  V30 4626 C 423.68 2.31205 -2.45042 0
M  V30 4627 O 424.21 3.37661 -2.17596 0
M  V30 4628 N 422.416 2.04446 -2.0652 0
M  V30 4629 H 421.963 1.17891 -2.2904 0
M  V30 4630 H 421.921 2.73861 -1.54427 0
M  V30 4631 N 425.693 1.55336 -0.266172 0
M  V30 4632 C 426.643 2.18848 0.639497 0
M  V30 4633 C 427.627 1.1503 1.12503 0
M  V30 4634 O 428.819 1.40875 1.0716 0
M  V30 4635 C 425.948 2.90626 1.82733 0
M  V30 4636 C 425.034 4.01723 1.35939 0
M  V30 4637 N 425.425 5.02145 0.606988 0
M  V30 4638 C 423.723 4.1463 1.6431 0
M  V30 4639 C 424.424 5.80572 0.362138 0
M  V30 4640 N 423.4 5.35551 0.931971 0
M  V30 4641 H 427.202 2.93845 0.0567057 0
M  V30 4642 H 424.716 1.62252 -0.0693312 0
M  V30 4643 H 426.713 3.34569 2.48735 0
M  V30 4644 H 425.373 2.17137 2.41416 0
M  V30 4645 H 426.384 5.17271 0.255198 0
M  V30 4646 H 423.061 3.52326 2.23993 0
M  V30 4647 H 424.451 6.71472 -0.239848 0
M  V30 4648 N 427.171 -0.0066808 1.57599 0
M  V30 4649 C 428.134 -0.985035 2.06953 0
M  V30 4650 C 429.134 -1.27663 0.977687 0
M  V30 4651 O 430.324 -1.22293 1.24057 0
M  V30 4652 C 427.456 -2.3118 2.50536 0
M  V30 4653 H 428.649 -0.558255 2.94658 0
M  V30 4654 H 426.202 -0.254011 1.54222 0
M  V30 4655 H 426.937 -2.78561 1.66054 0
M  V30 4656 H 426.722 -2.11338 3.3027 0
M  V30 4657 H 428.212 -3.01377 2.8907 0
M  V30 4658 N 428.649 -1.55105 -0.279332 0
M  V30 4659 C 429.579 -1.90557 -1.34945 0
M  V30 4660 C 430.56 -0.766738 -1.51839 0
M  V30 4661 O 431.745 -1.02434 -1.64988 0
M  V30 4662 C 428.875 -2.17193 -2.71006 0
M  V30 4663 C 427.829 -3.33021 -2.68851 0
M  V30 4664 C 427.155 -3.45123 -4.08405 0
M  V30 4665 C 428.455 -4.69578 -2.28678 0
M  V30 4666 H 430.149 -2.80188 -1.05522 0
M  V30 4667 H 427.695 -1.34811 -0.506173 0
M  V30 4668 H 429.648 -2.40581 -3.45975 0
M  V30 4669 H 428.372 -1.24355 -3.01999 0
M  V30 4670 H 427.031 -3.0959 -1.9634 0
M  V30 4671 H 426.679 -2.49762 -4.3661 0
M  V30 4672 H 426.379 -4.22995 -4.07859 0
M  V30 4673 H 427.903 -3.70796 -4.85121 0
M  V30 4674 H 429.317 -4.92553 -2.93368 0
M  V30 4675 H 427.714 -5.5032 -2.39306 0
M  V30 4676 H 428.784 -4.68828 -1.23807 0
M  V30 4677 N 430.127 0.543554 -1.4793 0
M  V30 4678 C 431.538 1.12561 -1.48953 0
M  V30 4679 C 431.889 1.94578 -0.251754 0
M  V30 4680 O 431.014 2.0665 0.642255 0
M  V30 4681 C 431.609 2.04801 -2.69892 0
M  V30 4682 C 430.168 2.58251 -2.73831 0
M  V30 4683 C 429.315 1.34918 -2.42265 0
M  V30 4684 H 432.266 0.32947 -1.55242 0
M  V30 4685 H 432.287 2.88886 -2.47639 0
M  V30 4686 H 431.799 1.4508 -3.59963 0
M  V30 4687 H 429.9 3.21732 -1.87934 0
M  V30 4688 H 430.013 2.98312 -3.74895 0
M  V30 4689 H 428.377 1.66046 -1.93134 0
M  V30 4690 H 429.16 0.769693 -3.3456 0
M  V30 4691 N 431.605 1.3629 0.791371 0
M  V30 4692 C 432.851 1.30605 1.55146 0
M  V30 4693 C 433.184 -0.115042 1.93859 0
M  V30 4694 O 432.459 -1.06798 1.62556 0
M  V30 4695 C 432.742 2.22692 2.82985 0
M  V30 4696 C 432.595 3.73489 2.50651 0
M  V30 4697 C 433.914 2.13588 3.84796 0
M  V30 4698 H 431.033 0.475761 0.562868 0
M  V30 4699 H 433.675 1.66825 0.909358 0
M  V30 4700 H 431.825 1.91933 3.37778 0
M  V30 4701 H 433.497 4.14758 2.01924 0
M  V30 4702 H 431.74 3.93021 1.83622 0
M  V30 4703 H 432.411 4.3333 3.41949 0
M  V30 4704 H 434.887 2.40659 3.39445 0
M  V30 4705 H 433.763 2.80195 4.71998 0
M  V30 4706 H 434.024 1.12256 4.27611 0
M  V30 4707 N 433.083 -1.0153 1.20538 0
M  V30 4708 C 434.313 -1.78487 1.04048 0
M  V30 4709 C 434.721 -1.84631 -0.413292 0
M  V30 4710 O 434.064 -1.29919 -1.29872 0
M  V30 4711 C 434.126 -3.24367 1.55003 0
M  V30 4712 C 433.79 -3.41827 3.0332 0
M  V30 4713 C 434.787 -3.30941 4.00966 0
M  V30 4714 C 432.472 -3.67602 3.42307 0
M  V30 4715 C 434.466 -3.45577 5.35589 0
M  V30 4716 C 432.153 -3.81881 4.77085 0
M  V30 4717 C 433.151 -3.70874 5.73534 0
M  V30 4718 O 432.839 -3.84714 7.05868 0
M  V30 4719 H 432.571 -0.568108 0.366373 0
M  V30 4720 H 435.125 -1.28677 1.60098 0
M  V30 4721 H 433.355 -3.75266 0.933397 0
M  V30 4722 H 435.044 -3.82963 1.34514 0
M  V30 4723 H 435.81 -3.10964 3.72191 0
M  V30 4724 H 431.689 -3.75256 2.67776 0
M  V30 4725 H 435.233 -3.36902 6.10854 0
M  V30 4726 H 431.13 -4.01359 5.0555 0
M  V30 4727 H 431.898 -4.01724 7.13134 0
M  V30 4728 N 434.561 -1.01147 -1.20859 0
M  V30 4729 C 435.807 -0.698899 -1.90377 0
M  V30 4730 C 436.14 0.76904 -1.78324 0
M  V30 4731 O 435.415 1.55817 -1.16409 0
M  V30 4732 C 435.698 -1.12878 -3.41951 0
M  V30 4733 C 435.551 -2.65665 -3.62963 0
M  V30 4734 C 436.87 -0.696114 -4.3456 0
M  V30 4735 H 433.989 -0.255372 -0.691342 0
M  V30 4736 H 436.631 -1.25831 -1.42361 0
M  V30 4737 H 434.781 -0.652827 -3.82976 0
M  V30 4738 H 436.453 -3.21074 -3.31224 0
M  V30 4739 H 434.696 -3.06878 -3.06608 0
M  V30 4740 H 435.367 -2.90797 -4.69192 0
M  V30 4741 H 437.843 -1.10521 -4.01154 0
M  V30 4742 H 436.719 -1.025 -5.39245 0
M  V30 4743 H 436.98 0.402465 -4.40264 0
M  V30 4744 N 436.039 1.36541 -0.78704 0
M  V30 4745 C 437.286 1.99304 -0.358341 0
M  V30 4746 C 437.614 1.62467 1.06933 0
M  V30 4747 O 436.869 0.870019 1.75297 0
M  V30 4748 C 437.168 3.54343 -0.466485 0
M  V30 4749 C 436.834 4.10993 -1.85461 0
M  V30 4750 C 435.496 4.26177 -2.23443 0
M  V30 4751 C 437.848 4.41895 -2.76366 0
M  V30 4752 C 435.176 4.69573 -3.51736 0
M  V30 4753 C 437.528 4.86722 -4.04084 0
M  V30 4754 C 436.192 5.00112 -4.42091 0
M  V30 4755 H 435.462 0.729306 -0.131126 0
M  V30 4756 H 438.109 1.63068 -1.00404 0
M  V30 4757 H 436.414 3.90918 0.262719 0
M  V30 4758 H 438.111 4.00833 -0.115854 0
M  V30 4759 H 434.701 3.99612 -1.54946 0
M  V30 4760 H 438.885 4.29735 -2.48277 0
M  V30 4761 H 434.141 4.78127 -3.81057 0
M  V30 4762 H 438.315 5.09598 -4.7464 0
M  V30 4763 H 435.942 5.33498 -5.41557 0
M  V30 4764 N 437.518 0.538854 1.48102 0
M  V30 4765 C 438.746 0.0123136 2.06896 0
M  V30 4766 C 439.161 -1.27312 1.39417 0
M  V30 4767 O 438.518 -1.75949 0.484582 0
M  V30 4768 C 438.569 -0.206118 3.60912 0
M  V30 4769 O 438.29 1.0284 4.25859 0
M  V30 4770 C 439.791 -0.772033 4.36526 0
M  V30 4771 H 437.011 0.0375239 0.66995 0
M  V30 4772 H 439.555 0.747032 1.90367 0
M  V30 4773 H 437.71 -0.89091 3.77017 0
M  V30 4774 H 438.124 0.814654 5.18135 0
M  V30 4775 H 439.598 -0.874251 5.45033 0
M  V30 4776 H 440.075 -1.77904 4.01555 0
M  V30 4777 H 440.681 -0.123526 4.25121 0
M  V30 4778 N 438.996 -1.55193 0.274407 0
M  V30 4779 C 440.412 -1.59401 -0.0797543 0
M  V30 4780 C 440.612 -1.29162 -1.54659 0
M  V30 4781 O 439.668 -1.05215 -2.29534 0
M  V30 4782 C 440.981 -2.99257 0.294238 0
M  V30 4783 C 442.529 -3.12072 0.240796 0
M  V30 4784 C 443.004 -4.54194 0.589218 0
M  V30 4785 N 444.495 -4.60033 0.540744 0
M  V30 4786 C 445.23 -5.68027 0.783147 0
M  V30 4787 N 444.726 -6.8417 1.09013 0
M  V30 4788 N 446.519 -5.57572 0.711993 0
M  V30 4789 H 438.67 -1.73113 1.23067 0
M  V30 4790 H 440.933 -0.807197 0.497129 0
M  V30 4791 H 440.639 -3.26217 1.31435 0
M  V30 4792 H 440.513 -3.75427 -0.365281 0
M  V30 4793 H 442.9 -2.84877 -0.770024 0
M  V30 4794 H 442.981 -2.38117 0.934563 0
M  V30 4795 H 442.625 -4.82115 1.59772 0
M  V30 4796 H 442.555 -5.26448 -0.126331 0
M  V30 4797 H 445.046 -3.76599 0.313327 0
M  V30 4798 H 445.359 -7.6243 1.26178 0
M  V30 4799 H 443.704 -6.85787 1.12789 0
M  V30 4800 H 446.895 -4.65714 0.472014 0
M  V30 4801 H 447.068 -6.41659 0.90429 0
M  V30 4802 N 440.474 -0.00167713 -1.576 0
M  V30 4803 C 441.885 0.54091 -1.78693 0
M  V30 4804 C 442.236 1.7386 -0.909247 0
M  V30 4805 O 441.361 2.16109 -0.112176 0
M  V30 4806 C 441.956 0.98806 -3.24072 0
M  V30 4807 C 440.515 1.47594 -3.46256 0
M  V30 4808 C 439.662 0.42792 -2.73978 0
M  V30 4809 H 442.613 -0.22784 -1.57056 0
M  V30 4810 H 442.634 1.85398 -3.32277 0
M  V30 4811 H 442.146 0.116164 -3.87926 0
M  V30 4812 H 440.247 2.36868 -2.87618 0
M  V30 4813 H 440.36 1.50225 -4.54939 0
M  V30 4814 H 438.724 0.889934 -2.38647 0
M  V30 4815 H 439.507 -0.435038 -3.40532 0
M  V30 4816 N 441.952 1.55251 0.271103 0
M  V30 4817 C 443.18 1.79974 1.02064 0
M  V30 4818 C 443.595 0.574003 1.79863 0
M  V30 4819 O 442.952 -0.456962 1.76686 0
M  V30 4820 C 443.003 3.02603 1.97772 0
M  V30 4821 O 442.724 4.20443 1.23124 0
M  V30 4822 C 444.225 3.39944 2.84522 0
M  V30 4823 H 441.445 0.599489 0.301419 0
M  V30 4824 H 443.989 2.02268 0.301313 0
M  V30 4825 H 442.144 2.8243 2.65165 0
M  V30 4826 H 442.558 4.89783 1.87651 0
M  V30 4827 H 444.032 4.28915 3.47471 0
M  V30 4828 H 444.509 2.59432 3.54389 0
M  V30 4829 H 445.115 3.62383 2.22618 0
M  V30 4830 N 443.43 -0.535701 1.48216 0
M  V30 4831 C 444.66 -1.3148 1.59363 0
M  V30 4832 C 445.068 -1.8753 0.250844 0
M  V30 4833 O 444.411 -1.66821 -0.769174 0
M  V30 4834 C 444.473 -2.50731 2.57632 0
M  V30 4835 C 444.137 -2.15811 4.02833 0
M  V30 4836 C 445.134 -1.71822 4.90686 0
M  V30 4837 C 442.819 -2.26509 4.48329 0
M  V30 4838 C 444.813 -1.3899 6.22062 0
M  V30 4839 C 442.5 -1.93289 5.79726 0
M  V30 4840 C 443.498 -1.49599 6.66415 0
M  V30 4841 O 443.186 -1.16812 7.95368 0
M  V30 4842 H 442.918 -0.406315 0.540263 0
M  V30 4843 H 445.472 -0.653569 1.94725 0
M  V30 4844 H 443.702 -3.19817 2.1738 0
M  V30 4845 H 445.391 -3.12797 2.58675 0
M  V30 4846 H 446.157 -1.63031 4.56778 0
M  V30 4847 H 442.036 -2.59471 3.81045 0
M  V30 4848 H 445.58 -1.04816 6.89681 0
M  V30 4849 H 441.477 -2.01718 6.13172 0
M  V30 4850 H 442.245 -1.30259 8.08069 0
M  V30 4851 N 444.908 -1.36708 -0.784132 0
M  V30 4852 C 446.133 -1.34565 -1.5782 0
M  V30 4853 C 446.558 0.0695257 -1.87971 0
M  V30 4854 O 445.916 1.04302 -1.48293 0
M  V30 4855 C 445.964 -2.17952 -2.87279 0
M  V30 4856 O 445.068 -1.57563 -3.81114 0
M  V30 4857 H 444.409 -0.460337 -0.478524 0
M  V30 4858 H 446.939 -1.80064 -0.971495 0
M  V30 4859 H 446.949 -2.30721 -3.365 0
M  V30 4860 H 445.624 -3.20823 -2.64661 0
M  V30 4861 H 444.201 -1.53764 -3.39722 0
M  V30 4862 N 446.386 1.0089 -1.21074 0
M  V30 4863 C 447.802 1.2695 -0.967257 0
M  V30 4864 C 448.002 1.9846 0.348673 0
M  V30 4865 O 447.058 2.28459 1.0753 0
M  V30 4866 C 448.371 2.09697 -2.15517 0
M  V30 4867 C 449.919 2.22937 -2.197 0
M  V30 4868 C 450.394 3.09064 -3.37999 0
M  V30 4869 N 451.885 3.16653 -3.38061 0
M  V30 4870 C 452.62 3.8354 -4.26245 0
M  V30 4871 N 452.116 4.52488 -5.2462 0
M  V30 4872 N 453.909 3.80141 -4.14064 0
M  V30 4873 H 446.06 0.529005 -2.05707 0
M  V30 4874 H 448.323 0.296148 -0.900556 0
M  V30 4875 H 448.029 1.64497 -3.10859 0
M  V30 4876 H 447.903 3.10444 -2.14253 0
M  V30 4877 H 450.29 2.67357 -1.24916 0
M  V30 4878 H 450.371 1.21673 -2.2501 0
M  V30 4879 H 450.015 2.65347 -4.33074 0
M  V30 4880 H 449.945 4.10433 -3.29928 0
M  V30 4881 H 452.436 2.67566 -2.66865 0
M  V30 4882 H 452.749 5.01219 -5.88217 0
M  V30 4883 H 451.094 4.51288 -5.28549 0
M  V30 4884 H 454.285 3.25427 -3.36474 0
M  V30 4885 H 454.458 4.31992 -4.82998 0
M  V30 4886 N 447.864 1.01787 1.20321 0
M  V30 4887 C 449.112 0.706538 1.89347 0
M  V30 4888 C 449.433 -0.766289 1.79313 0
M  V30 4889 O 448.703 -1.55126 1.19635 0
M  V30 4890 H 447.283 0.258348 0.700903 0
M  V30 4891 H 449.945 1.28974 1.46122 0
M  V30 4892 H 449.041 0.991066 2.95946 0
M  V30 4893 N 449.342 -1.36122 0.79427 0
M  V30 4894 C 450.272 -2.32551 0.210328 0
M  V30 4895 C 451.253 -1.56884 -0.657386 0
M  V30 4896 O 452.438 -1.85014 -0.590207 0
M  V30 4897 C 449.568 -3.41128 -0.651819 0
M  V30 4898 C 448.522 -4.27842 0.116395 0
M  V30 4899 C 447.848 -5.2763 -0.86666 0
M  V30 4900 C 449.148 -5.05647 1.30837 0
M  V30 4901 H 450.842 -2.81636 1.01594 0
M  V30 4902 H 448.388 -1.35407 0.489981 0
M  V30 4903 H 450.341 -4.07581 -1.07031 0
M  V30 4904 H 449.065 -2.90622 -1.49019 0
M  V30 4905 H 447.724 -3.62952 0.515915 0
M  V30 4906 H 447.372 -4.73395 -1.70019 0
M  V30 4907 H 447.072 -5.86514 -0.35705 0
M  V30 4908 H 448.596 -5.96955 -1.28361 0
M  V30 4909 H 450.01 -5.65113 0.965393 0
M  V30 4910 H 448.407 -5.73967 1.75161 0
M  V30 4911 H 449.477 -4.37006 2.10128 0
M  V30 4912 N 450.82 -0.546701 -1.47814 0
M  V30 4913 C 452.048 -0.0232857 -2.06887 0
M  V30 4914 C 452.463 1.26571 -1.4009 0
M  V30 4915 O 451.82 1.7569 -0.493906 0
M  V30 4916 C 451.871 0.186975 -3.61016 0
M  V30 4917 O 451.592 -1.05097 -4.25307 0
M  V30 4918 C 453.093 0.748872 -4.36929 0
M  V30 4919 H 450.313 -0.0410763 -0.669742 0
M  V30 4920 H 452.857 -0.757117 -1.89968 0
M  V30 4921 H 451.012 0.870903 -3.77484 0
M  V30 4922 H 451.426 -0.842121 -5.17695 0
M  V30 4923 H 452.9 0.845334 -5.45489 0
M  V30 4924 H 453.377 1.75772 -4.02493 0
M  V30 4925 H 453.983 0.100979 -4.2518 0
M  V30 4926 N 452.299 1.55045 -0.282633 0
M  V30 4927 C 453.547 1.99365 0.331334 0
M  V30 4928 C 453.868 1.1725 1.55812 0
M  V30 4929 O 453.138 0.263871 1.94115 0
M  V30 4930 H 451.718 0.736397 0.125414 0
M  V30 4931 H 454.38 1.90964 -0.389711 0
M  V30 4932 H 453.476 3.0596 0.616036 0
M  V30 4933 N 453.777 0.010035 1.57597 0
M  V30 4934 C 454.707 -0.976857 2.12084 0
M  V30 4935 C 455.688 -1.35191 1.03235 0
M  V30 4936 O 456.873 -1.43389 1.3097 0
M  V30 4937 C 454.003 -2.26548 2.63236 0
M  V30 4938 C 452.957 -2.03175 3.76701 0
M  V30 4939 C 452.283 -3.38138 4.14206 0
M  V30 4940 C 453.583 -1.38625 5.03568 0
M  V30 4941 H 455.277 -0.523145 2.94794 0
M  V30 4942 H 452.823 -0.250195 1.4181 0
M  V30 4943 H 454.776 -2.95952 2.99984 0
M  V30 4944 H 453.5 -2.74051 1.77661 0
M  V30 4945 H 452.159 -1.36195 3.40362 0
M  V30 4946 H 451.807 -3.83363 3.25641 0
M  V30 4947 H 451.507 -3.23312 4.90656 0
M  V30 4948 H 453.031 -4.08841 4.53521 0
M  V30 4949 H 454.445 -1.98 5.38023 0
M  V30 4950 H 452.842 -1.34256 5.84889 0
M  V30 4951 H 453.912 -0.356722 4.83586 0
M  V30 4952 N 455.255 -1.55392 -0.262866 0
M  V30 4953 C 456.48 -1.80847 -1.01533 0
M  V30 4954 C 456.905 -0.584946 -1.78774 0
M  V30 4955 O 456.263 0.465701 -1.75217 0
M  V30 4956 C 456.311 -3.03866 -1.94159 0
M  V30 4957 O 455.415 -2.79662 -3.03089 0
M  V30 4958 H 454.756 -0.597441 -0.289759 0
M  V30 4959 H 457.286 -2.02553 -0.288698 0
M  V30 4960 H 457.296 -3.32872 -2.35924 0
M  V30 4961 H 455.971 -3.92564 -1.37354 0
M  V30 4962 H 454.548 -2.61781 -2.65566 0
M  V30 4963 N 456.733 0.527833 -1.48498 0
M  V30 4964 C 457.643 1.65907 -1.65867 0
M  V30 4965 C 458.659 1.6537 -0.541192 0
M  V30 4966 O 459.835 1.84282 -0.812534 0
M  V30 4967 C 456.9 3.02364 -1.69637 0
M  V30 4968 C 455.961 3.1374 -2.93028 0
M  V30 4969 C 455.194 4.43688 -2.96609 0
M  V30 4970 O 455.417 5.30913 -2.08538 0
M  V30 4971 O 454.351 4.59475 -3.88802 0
M  V30 4972 H 458.177 1.5419 -2.61647 0
M  V30 4973 H 455.762 0.701163 -1.31924 0
M  V30 4974 H 457.644 3.83515 -1.74625 0
M  V30 4975 H 456.319 3.14401 -0.770312 0
M  V30 4976 H 455.226 2.31877 -2.93571 0
M  V30 4977 H 456.559 3.06621 -3.85026 0
M  V30 4978 N 458.211 1.37122 0.776871 0
M  V30 4979 C 459.144 1.26835 1.89705 0
M  V30 4980 C 460.122 0.14992 1.61907 0
M  V30 4981 O 461.306 0.323242 1.85708 0
M  V30 4982 C 458.433 0.95986 3.24814 0
M  V30 4983 C 457.479 2.09447 3.7153 0
M  V30 4984 S 458.312 3.71368 3.85806 0
M  V30 4985 C 459.468 3.42659 5.23771 0
M  V30 4986 H 459.701 2.21647 1.98141 0
M  V30 4987 H 457.234 1.22685 0.937433 0
M  V30 4988 H 459.192 0.788696 4.02852 0
M  V30 4989 H 457.853 0.0293137 3.14086 0
M  V30 4990 H 457.046 1.8335 4.69467 0
M  V30 4991 H 456.648 2.2255 3.00578 0
M  V30 4992 H 458.94 2.9733 6.0877 0
M  V30 4993 H 459.883 4.39905 5.54878 0
M  V30 4994 H 460.291 2.77708 4.91466 0
M  V30 4995 N 459.689 -1.00246 1.21608 0
M  V30 4996 C 460.966 -1.71336 0.943568 0
M  V30 4997 C 461.346 -2.03972 -0.543943 0
M  V30 4998 O 460.694 -1.71545 -1.50946 0
M  V30 4999 C 460.904 -2.97094 1.83128 0
M  V30 5000 C 462.252 -3.70071 2.08165 0
M  V30 5001 O 463.276 -3.07081 1.80498 0
M  V30 5002 O 462.135 -4.83376 2.54971 0
M  V30 5003 H 459.229 -0.747386 0.354039 0
M  V30 5004 H 461.775 -1.05967 1.32549 0
M  V30 5005 H 460.547 -2.69407 2.83788 0
M  V30 5006 H 460.17 -3.70204 1.45034 0
M  V30 5007 N 461.167 -1.02423 -1.1978 0
M  V30 5008 C 462.097 -0.62157 -2.25075 0
M  V30 5009 C 463.078 0.367148 -1.6609 0
M  V30 5010 O 464.263 0.250892 -1.92573 0
M  V30 5011 C 461.393 0.0331826 -3.47284 0
M  V30 5012 C 460.347 -0.877323 -4.18912 0
M  V30 5013 C 459.673 -0.0879296 -5.34628 0
M  V30 5014 C 460.973 -2.18892 -4.74219 0
M  V30 5015 H 462.667 -1.50179 -2.59011 0
M  V30 5016 H 460.213 -0.723547 -1.24502 0
M  V30 5017 H 462.166 0.326488 -4.20133 0
M  V30 5018 H 460.89 0.948164 -3.12534 0
M  V30 5019 H 459.549 -1.15475 -3.47938 0
M  V30 5020 H 459.197 0.828941 -4.96123 0
M  V30 5021 H 458.897 -0.694359 -5.83483 0
M  V30 5022 H 460.421 0.198743 -6.10276 0
M  V30 5023 H 461.835 -1.95746 -5.38847 0
M  V30 5024 H 460.232 -2.74686 -5.33542 0
M  V30 5025 H 461.302 -2.84674 -3.92541 0
M  V30 5026 N 462.645 1.35699 -0.801477 0
M  V30 5027 C 463.894 1.98165 -0.375979 0
M  V30 5028 C 464.207 1.64306 1.06127 0
M  V30 5029 O 465.413 2.20097 1.58964 0
M  V30 5030 C 463.869 3.54497 -0.621305 0
M  V30 5031 C 463.477 3.9727 -2.07076 0
M  V30 5032 C 465.221 4.23697 -0.26091 0
M  V30 5033 C 463.128 5.46427 -2.26211 0
M  V30 5034 H 462.058 0.741478 -0.136844 0
M  V30 5035 H 464.709 1.54834 -0.984814 0
M  V30 5036 H 463.091 3.95958 0.0574112 0
M  V30 5037 H 464.265 3.66974 -2.78687 0
M  V30 5038 H 462.58 3.40943 -2.39054 0
M  V30 5039 H 465.177 5.33334 -0.381994 0
M  V30 5040 H 465.52 4.0869 0.792344 0
M  V30 5041 H 466.053 3.87639 -0.893339 0
M  V30 5042 H 462.792 5.66396 -3.29963 0
M  V30 5043 H 462.312 5.78309 -1.59119 0
M  V30 5044 H 463.991 6.12819 -2.07513 0
M  V30 5045 N 464.123 0.554532 1.47522 0
M  V30 5046 C 465.348 0.0322661 2.07375 0
M  V30 5047 C 465.773 -1.25079 1.40488 0
M  V30 5048 O 465.131 -1.74859 0.47896 0
M  V30 5049 C 465.179 -0.149397 3.6029 0
M  V30 5050 O 464.283 -1.21259 3.9417 0
M  V30 5051 H 463.624 0.0501228 0.662106 0
M  V30 5052 H 466.154 0.769452 1.8958 0
M  V30 5053 H 466.164 -0.364437 4.06369 0
M  V30 5054 H 464.839 0.787743 4.08372 0
M  V30 5055 H 463.416 -0.97825 3.5984 0
M  V30 5056 N 465.601 -1.54893 0.290851 0
M  V30 5057 C 466.829 -2.04343 -0.324288 0
M  V30 5058 C 467.244 -1.16859 -1.48289 0
M  V30 5059 O 466.601 -0.192018 -1.81487 0
M  V30 5060 C 466.652 -3.52756 -0.79026 0
M  V30 5061 O 466.373 -4.36913 0.322213 0
M  V30 5062 C 467.874 -4.18161 -1.4716 0
M  V30 5063 H 465.094 -0.667135 -0.0719173 0
M  V30 5064 H 467.638 -1.99981 0.427529 0
M  V30 5065 H 465.793 -3.57511 -1.49213 0
M  V30 5066 H 466.207 -5.24486 -0.0387372 0
M  V30 5067 H 467.681 -5.23562 -1.7489 0
M  V30 5068 H 468.158 -3.67282 -2.40834 0
M  V30 5069 H 468.764 -4.17454 -0.813178 0
M  V30 5070 N 467.08 -0.0183926 -1.57589 0
M  V30 5071 C 468.329 0.66185 -1.90532 0
M  V30 5072 C 468.642 1.73904 -0.895366 0
M  V30 5073 O 469.848 2.47518 -1.11566 0
M  V30 5074 C 468.304 1.22844 -3.38286 0
M  V30 5075 C 467.912 0.185103 -4.47617 0
M  V30 5076 C 469.656 1.88581 -3.80312 0
M  V30 5077 C 467.563 0.762723 -5.86461 0
M  V30 5078 H 466.493 0.250972 -0.711006 0
M  V30 5079 H 469.144 -0.0819435 -1.83317 0
M  V30 5080 H 467.526 2.0235 -3.40398 0
M  V30 5081 H 468.7 -0.58671 -4.5705 0
M  V30 5082 H 467.015 -0.372889 -4.14727 0
M  V30 5083 H 469.612 2.32735 -4.81392 0
M  V30 5084 H 469.955 2.72408 -3.14801 0
M  V30 5085 H 470.488 1.15782 -3.80578 0
M  V30 5086 H 467.227 -0.0371713 -6.55489 0
M  V30 5087 H 466.747 1.50327 -5.80656 0
M  V30 5088 H 468.426 1.25576 -6.34697 0
M  V30 5089 N 468.558 1.5553 0.254621 0
M  V30 5090 C 469.806 1.7665 0.981793 0
M  V30 5091 C 470.127 0.580963 1.86145 0
M  V30 5092 O 469.397 -0.403537 1.91699 0
M  V30 5093 H 467.977 0.651475 0.365498 0
M  V30 5094 H 470.639 1.92958 0.274426 0
M  V30 5095 H 469.735 2.67486 1.60802 0
M  V30 5096 N 470.036 -0.519951 1.48776 0
M  V30 5097 C 470.946 -1.65025 1.66745 0
M  V30 5098 C 471.962 -1.6508 0.549954 0
M  V30 5099 O 473.138 -1.83848 0.822295 0
M  V30 5100 C 470.203 -3.0146 1.71238 0
M  V30 5101 C 469.264 -3.12182 2.94688 0
M  V30 5102 C 468.497 -4.42109 2.98958 0
M  V30 5103 O 468.72 -5.29799 2.1135 0
M  V30 5104 O 467.654 -4.57406 3.91233 0
M  V30 5105 H 471.48 -1.52801 2.62461 0
M  V30 5106 H 469.065 -0.694157 1.32294 0
M  V30 5107 H 470.947 -3.82584 1.76657 0
M  V30 5108 H 469.622 -3.13988 0.786975 0
M  V30 5109 H 468.529 -2.30316 2.94797 0
M  V30 5110 H 469.862 -3.04574 3.86646 0
M  V30 5111 N 471.514 -1.37532 -0.769588 0
M  V30 5112 C 472.739 -1.36231 -1.56384 0
M  V30 5113 C 473.164 0.0495849 -1.88035 0
M  V30 5114 O 472.522 1.02723 -1.49391 0
M  V30 5115 C 472.57 -2.20986 -2.84952 0
M  V30 5116 O 471.674 -1.61597 -3.79421 0
M  V30 5117 H 471.015 -0.465387 -0.473615 0
M  V30 5118 H 473.545 -1.81085 -0.952342 0
M  V30 5119 H 473.555 -2.34277 -3.34034 0
M  V30 5120 H 472.23 -3.23612 -2.61243 0
M  V30 5121 H 470.807 -1.57359 -3.38072 0
M  V30 5122 N 472.992 0.995999 -1.22138 0
M  V30 5123 C 473.955 2.06711 -0.990109 0
M  V30 5124 C 474.955 1.60744 0.0422978 0
M  V30 5125 O 476.145 1.73095 -0.195895 0
M  V30 5126 C 473.277 3.37288 -0.49491 0
M  V30 5127 H 474.47 2.28661 -1.94047 0
M  V30 5128 H 472.023 1.16711 -1.03963 0
M  V30 5129 H 472.758 3.21022 0.459948 0
M  V30 5130 H 472.543 3.71986 -1.23971 0
M  V30 5131 H 474.033 4.16103 -0.353253 0
M  V30 5132 N 474.47 1.03057 1.19235 0
M  V30 5133 C 475.433 0.617418 2.20727 0
M  V30 5134 C 476.433 -0.319856 1.57587 0
M  V30 5135 O 477.623 -0.106633 1.73873 0
M  V30 5136 C 474.755 -0.096296 3.40764 0
M  V30 5137 H 475.948 1.51544 2.58794 0
M  V30 5138 H 473.501 0.821949 1.32942 0
M  V30 5139 H 474.236 -1.00859 3.08217 0
M  V30 5140 H 474.021 0.577217 3.87828 0
M  V30 5141 H 475.511 -0.372219 4.15938 0
M  V30 5142 N 475.948 -1.35272 0.808662 0
M  V30 5143 C 476.878 -2.32315 0.234981 0
M  V30 5144 C 477.859 -1.57572 -0.64071 0
M  V30 5145 O 479.044 -1.8563 -0.570551 0
M  V30 5146 C 476.174 -3.41801 -0.615601 0
M  V30 5147 C 475.128 -4.27694 0.161767 0
M  V30 5148 C 474.454 -5.28519 -0.810649 0
M  V30 5149 C 475.754 -5.04231 1.36193 0
M  V30 5150 H 477.448 -2.80543 1.04575 0
M  V30 5151 H 474.994 -1.3488 0.504315 0
M  V30 5152 H 476.947 -4.08693 -1.02702 0
M  V30 5153 H 475.671 -2.92186 -1.45928 0
M  V30 5154 H 474.33 -3.62384 0.554382 0
M  V30 5155 H 473.978 -4.75171 -1.64988 0
M  V30 5156 H 473.678 -5.8686 -0.294822 0
M  V30 5157 H 475.202 -5.98283 -1.22023 0
M  V30 5158 H 476.616 -5.64058 1.02528 0
M  V30 5159 H 475.013 -5.72077 1.81239 0
M  V30 5160 H 476.083 -4.34753 2.14751 0
M  V30 5161 N 477.426 -0.562348 -1.47226 0
M  V30 5162 C 478.674 -0.0401371 -2.0206 0
M  V30 5163 C 478.995 1.3165 -1.43852 0
M  V30 5164 O 478.265 1.85976 -0.615599 0
M  V30 5165 H 476.845 -0.0118479 -0.746906 0
M  V30 5166 H 479.507 -0.73352 -1.8057 0
M  V30 5167 H 478.603 0.0441254 -3.12069 0
M  V30 5168 N 478.904 1.54736 -0.299062 0
M  V30 5169 C 479.867 2.22127 0.565012 0
M  V30 5170 C 480.867 1.20669 1.06281 0
M  V30 5171 O 482.057 1.45417 0.959145 0
M  V30 5172 C 479.189 2.90611 1.78208 0
M  V30 5173 H 480.382 2.99891 -0.0237448 0
M  V30 5174 H 477.935 1.5622 -0.0498788 0
M  V30 5175 H 478.67 2.16921 2.41072 0
M  V30 5176 H 478.455 3.64984 1.43281 0
M  V30 5177 H 479.945 3.42026 2.396 0
M  V30 5178 N 480.382 0.0267497 1.57577 0
M  V30 5179 C 481.345 -0.940916 2.08996 0
M  V30 5180 C 482.345 -1.25561 1.00455 0
M  V30 5181 O 483.535 -1.19634 1.26623 0
M  V30 5182 C 480.667 -2.25814 2.55384 0
M  V30 5183 H 481.86 -0.495628 2.95776 0
M  V30 5184 H 479.413 -0.221241 1.54726 0
M  V30 5185 H 480.148 -2.74976 1.71926 0
M  V30 5186 H 479.933 -2.04285 3.34679 0
M  V30 5187 H 481.423 -2.95178 2.95398 0
M  V30 5188 N 481.861 -1.55662 -0.24637 0
M  V30 5189 C 483.109 -1.77168 -0.972411 0
M  V30 5190 C 483.43 -0.590827 -1.85834 0
M  V30 5191 O 482.7 0.393365 -1.9191 0
M  V30 5192 H 481.28 -0.653405 -0.362038 0
M  V30 5193 H 483.942 -1.93101 -0.264189 0
M  V30 5194 H 483.038 -2.68335 -1.59382 0
M  V30 5195 N 483.339 0.512053 -1.4905 0
M  V30 5196 C 484.585 1.26874 -1.58212 0
M  V30 5197 C 484.918 1.9241 -0.263073 0
M  V30 5198 O 484.193 1.80181 0.732476 0
M  V30 5199 C 484.476 2.34428 -2.73341 0
M  V30 5200 C 484.329 1.73466 -4.15006 0
M  V30 5201 C 485.648 3.36073 -2.84154 0
M  V30 5202 H 482.767 0.459924 -0.575881 0
M  V30 5203 H 485.409 0.568587 -1.81293 0
M  V30 5204 H 483.559 2.94146 -2.53792 0
M  V30 5205 H 485.231 1.17661 -4.46042 0
M  V30 5206 H 483.474 1.03921 -4.21168 0
M  V30 5207 H 484.145 2.51426 -4.91415 0
M  V30 5208 H 486.621 2.86332 -3.01916 0
M  V30 5209 H 485.497 4.08703 -3.66406 0
M  V30 5210 H 485.758 3.97725 -1.93048 0
M  V30 5211 N 484.817 1.37938 0.762283 0
M  V30 5212 C 486.066 1.32989 1.51647 0
M  V30 5213 C 486.379 -0.0802922 1.95435 0
M  V30 5214 O 487.585 -0.252295 2.70325 0
M  V30 5215 C 486.041 2.33485 2.73885 0
M  V30 5216 C 485.649 3.80079 2.37157 0
M  V30 5217 C 487.393 2.37563 3.51801 0
M  V30 5218 C 485.3 4.72283 3.55954 0
M  V30 5219 H 484.23 0.494301 0.56937 0
M  V30 5220 H 486.881 1.63448 0.834083 0
M  V30 5221 H 485.263 1.96056 3.44061 0
M  V30 5222 H 486.437 4.26398 1.74704 0
M  V30 5223 H 484.752 3.79037 1.72395 0
M  V30 5224 H 487.349 3.0365 4.40114 0
M  V30 5225 H 487.692 1.39199 3.92338 0
M  V30 5226 H 488.225 2.73747 2.8863 0
M  V30 5227 H 484.964 5.7181 3.2049 0
M  V30 5228 H 484.484 4.30663 4.1748 0
M  V30 5229 H 486.163 4.89876 4.22647 0
M  V30 5230 N 486.295 -0.989507 1.22664 0
M  V30 5231 C 487.225 -2.09847 1.02404 0
M  V30 5232 C 488.206 -1.70007 -0.0561303 0
M  V30 5233 O 489.391 -1.93906 0.106748 0
M  V30 5234 C 486.521 -3.41996 0.604663 0
M  V30 5235 C 485.475 -3.95699 1.63115 0
M  V30 5236 C 484.801 -5.23936 1.0675 0
M  V30 5237 C 486.101 -4.25999 3.02196 0
M  V30 5238 H 487.795 -2.27054 1.95158 0
M  V30 5239 H 485.341 -1.09111 0.939727 0
M  V30 5240 H 487.294 -4.1899 0.45002 0
M  V30 5241 H 486.018 -3.24626 -0.35855 0
M  V30 5242 H 484.677 -3.2084 1.77362 0
M  V30 5243 H 484.325 -5.02909 0.0955422 0
M  V30 5244 H 484.025 -5.60833 1.75328 0
M  V30 5245 H 485.549 -6.0356 0.924516 0
M  V30 5246 H 486.963 -4.93777 2.91303 0
M  V30 5247 H 485.36 -4.74076 3.67929 0
M  V30 5248 H 486.43 -3.33636 3.51873 0
M  V30 5249 N 487.773 -1.03688 -1.18687 0
M  V30 5250 C 489.019 -0.74888 -1.89112 0
M  V30 5251 C 489.374 0.715345 -1.78607 0
M  V30 5252 O 488.667 1.51498 -1.17299 0
M  V30 5253 C 488.861 -1.14477 -3.3857 0
M  V30 5254 C 488.69 -2.64594 -3.63621 0
M  V30 5255 C 487.46 -3.31685 -3.812 0
M  V30 5256 C 489.658 -3.62811 -3.64517 0
M  V30 5257 N 487.64 -4.70822 -3.93955 0
M  V30 5258 C 489.011 -4.87603 -3.8294 0
M  V30 5259 C 491.066 -3.56495 -3.47585 0
M  V30 5260 C 489.769 -6.0684 -3.86184 0
M  V30 5261 C 491.795 -4.75155 -3.52111 0
M  V30 5262 C 491.157 -5.98765 -3.71026 0
M  V30 5263 H 487.256 -0.32603 -0.710794 0
M  V30 5264 H 489.84 -1.3258 -1.42586 0
M  V30 5265 H 488.011 -0.595974 -3.838 0
M  V30 5266 H 489.743 -0.808187 -3.96548 0
M  V30 5267 H 486.498 -2.82091 -3.80423 0
M  V30 5268 H 486.922 -5.43122 -4.04163 0
M  V30 5269 H 491.564 -2.61907 -3.31911 0
M  V30 5270 H 489.282 -7.01788 -4.00648 0
M  V30 5271 H 492.868 -4.71905 -3.40289 0
M  V30 5272 H 491.748 -6.89047 -3.74412 0
M  V30 5273 N 489.251 1.34841 -0.815825 0
M  V30 5274 C 490.499 1.98107 -0.399744 0
M  V30 5275 C 490.82 1.65019 1.03894 0
M  V30 5276 O 490.09 0.937311 1.72021 0
M  V30 5277 H 488.67 0.732827 -0.144823 0
M  V30 5278 H 491.332 1.64599 -1.0437 0
M  V30 5279 H 490.428 3.07856 -0.512965 0
M  V30 5280 N 490.729 0.570148 1.46925 0
M  V30 5281 C 492.006 -0.0153259 1.95594 0
M  V30 5282 C 492.386 -1.47232 1.51281 0
M  V30 5283 O 491.734 -2.15574 0.757624 0
M  V30 5284 C 491.944 0.143624 3.48704 0
M  V30 5285 C 493.292 0.00494484 4.246 0
M  V30 5286 O 494.316 0.0718214 3.56128 0
M  V30 5287 O 493.175 -0.141175 5.46318 0
M  V30 5288 H 490.269 -0.0568819 0.825041 0
M  V30 5289 H 492.815 0.637583 1.57267 0
M  V30 5290 H 491.587 1.15699 3.73804 0
M  V30 5291 H 491.21 -0.5463 3.93829 0
M  V30 5292 N 492.207 -1.54576 0.307264 0
M  V30 5293 C 493.17 -2.22423 -0.553224 0
M  V30 5294 C 494.17 -1.21231 -1.05639 0
M  V30 5295 O 495.36 -1.45923 -0.951419 0
M  V30 5296 C 492.492 -2.91552 -1.76664 0
M  V30 5297 H 493.685 -2.99874 0.0396484 0
M  V30 5298 H 491.238 -1.56192 0.0581629 0
M  V30 5299 H 491.973 -2.18196 -2.39918 0
M  V30 5300 H 491.758 -3.65738 -1.41343 0
M  V30 5301 H 493.248 -3.43292 -2.37783 0
M  V30 5302 N 493.685 -0.035106 -1.57561 0
M  V30 5303 C 494.933 0.64096 -1.91667 0
M  V30 5304 C 495.254 1.72323 -0.912681 0
M  V30 5305 O 494.524 1.95849 0.0449089 0
M  V30 5306 H 493.104 0.239743 -0.707483 0
M  V30 5307 H 495.766 -0.084321 -1.94718 0
M  V30 5308 H 494.862 1.08987 -2.92452 0
M  V30 5309 N 495.163 1.55791 0.238111 0
M  V30 5310 C 496.41 1.78033 0.964907 0
M  V30 5311 C 496.738 0.600984 1.84982 0
M  V30 5312 O 495.993 -0.41536 1.91241 0
M  V30 5313 C 496.292 3.05869 1.84875 0
M  V30 5314 C 495.958 4.36808 1.11846 0
M  V30 5315 C 494.62 4.72388 0.916662 0
M  V30 5316 C 496.972 5.17717 0.60151 0
M  V30 5317 C 494.3 5.86406 0.185756 0
M  V30 5318 C 496.652 6.32494 -0.115972 0
M  V30 5319 C 495.316 6.66688 -0.329168 0
M  V30 5320 H 494.586 0.651469 0.353085 0
M  V30 5321 H 497.233 1.90061 0.234318 0
M  V30 5322 H 495.538 2.88891 2.64668 0
M  V30 5323 H 497.235 3.20278 2.41294 0
M  V30 5324 H 493.825 4.08862 1.28569 0
M  V30 5325 H 498.009 4.90678 0.744932 0
M  V30 5326 H 493.265 6.11399 0.0101886 0
M  V30 5327 H 497.439 6.94425 -0.524127 0
M  V30 5328 H 495.066 7.54884 -0.897474 0
M  V30 5329 N 496.642 -0.504142 1.49319 0
M  V30 5330 C 497.87 -1.28256 1.62351 0
M  V30 5331 C 498.285 -1.86502 0.293682 0
M  V30 5332 O 497.642 -1.67678 -0.720449 0
M  V30 5333 C 497.693 -2.41507 2.68992 0
M  V30 5334 O 497.414 -1.85656 3.96817 0
M  V30 5335 C 498.915 -3.32929 2.927 0
M  V30 5336 H 496.135 -0.389115 0.546654 0
M  V30 5337 H 498.679 -0.605531 1.95329 0
M  V30 5338 H 496.834 -3.05046 2.38801 0
M  V30 5339 H 497.248 -2.59981 4.55533 0
M  V30 5340 H 498.722 -4.0868 3.71058 0
M  V30 5341 H 499.199 -3.89733 2.02496 0
M  V30 5342 H 499.805 -2.75158 3.24296 0
M  V30 5343 N 498.12 -1.38341 -0.754957 0
M  V30 5344 C 499.348 -1.37704 -1.54419 0
M  V30 5345 C 499.763 0.0335243 -1.8877 0
M  V30 5346 O 499.12 0.999773 -1.52679 0
M  V30 5347 C 499.171 -2.23136 -2.84416 0
M  V30 5348 O 498.892 -3.58697 -2.51531 0
M  V30 5349 C 500.393 -2.30664 -3.78562 0
M  V30 5350 H 497.613 -0.471061 -0.477852 0
M  V30 5351 H 500.157 -1.81902 -0.934446 0
M  V30 5352 H 498.312 -1.82403 -3.41772 0
M  V30 5353 H 498.726 -4.03665 -3.34896 0
M  V30 5354 H 500.2 -2.9473 -4.66732 0
M  V30 5355 H 500.677 -1.3199 -4.18898 0
M  V30 5356 H 501.283 -2.71781 -3.27131 0
M  V30 5357 N 499.598 0.982988 -1.23187 0
M  V30 5358 C 500.823 1.76455 -1.08988 0
M  V30 5359 C 501.248 1.84726 0.354691 0
M  V30 5360 O 500.606 1.30699 1.25649 0
M  V30 5361 C 500.654 3.17094 -1.71708 0
M  V30 5362 O 499.758 4.00648 -0.977477 0
M  V30 5363 H 499.099 0.542988 -0.382177 0
M  V30 5364 H 501.629 1.23413 -1.63188 0
M  V30 5365 H 501.639 3.67684 -1.76841 0
M  V30 5366 H 500.314 3.10389 -2.76823 0
M  V30 5367 H 498.891 3.59161 -1.0029 0
M  V30 5368 N 501.076 1.04316 1.18135 0
M  V30 5369 C 502.024 0.630175 2.23901 0
M  V30 5370 C 503.018 -0.344254 1.65865 0
M  V30 5371 O 504.224 -0.211273 1.78756 0
M  V30 5372 H 500.599 0.185578 0.728742 0
M  V30 5373 H 502.57 1.53253 2.56039 0
M  V30 5374 C 501.319 0.011666 3.47698 0
M  V30 5375 H 500.642 0.752526 3.92654 0
M  V30 5376 H 502.082 -0.240046 4.2332 0
M  V30 5377 C 500.541 -1.23913 3.13285 0
M  V30 5378 O 501.071 -2.32959 3.27251 0
M  V30 5379 N 499.277 -1.13338 2.67587 0
M  V30 5380 H 498.824 -0.246006 2.56423 0
M  V30 5381 H 498.782 -1.97116 2.44934 0
M  V30 5382 N 502.554 -1.34406 0.822964 0
M  V30 5383 C 503.464 -2.33298 0.246838 0
M  V30 5384 C 504.48 -1.62625 -0.618797 0
M  V30 5385 O 505.656 -1.94391 -0.526685 0
M  V30 5386 C 502.721 -3.41785 -0.581731 0
M  V30 5387 C 501.782 -4.28206 0.306309 0
M  V30 5388 C 501.015 -5.31512 -0.48281 0
M  V30 5389 O 501.238 -5.43973 -1.71607 0
M  V30 5390 O 500.172 -6.01749 0.134884 0
M  V30 5391 H 503.998 -2.84401 1.06534 0
M  V30 5392 H 501.583 -1.37466 0.585108 0
M  V30 5393 H 503.465 -4.08028 -1.05313 0
M  V30 5394 H 502.14 -2.92925 -1.37756 0
M  V30 5395 H 501.047 -3.64885 0.825199 0
M  V30 5396 H 502.38 -4.80507 1.06649 0
M  V30 5397 N 504.032 -0.577932 -1.46621 0
M  V30 5398 C 505.26 -0.0671642 -2.06791 0
M  V30 5399 C 505.675 1.23571 -1.42743 0
M  V30 5400 O 505.032 1.74602 -0.531062 0
M  V30 5401 C 505.083 0.110357 -3.61332 0
M  V30 5402 O 504.804 -1.14095 -4.22982 0
M  V30 5403 C 506.305 0.656025 -4.38419 0
M  V30 5404 H 503.525 -0.0552732 -0.66872 0
M  V30 5405 H 506.069 -0.797242 -1.8832 0
M  V30 5406 H 504.224 0.790637 -3.79246 0
M  V30 5407 H 504.638 -0.951742 -5.15793 0
M  V30 5408 H 506.112 0.729438 -5.47159 0
M  V30 5409 H 506.589 1.67195 -4.06131 0
M  V30 5410 H 507.195 0.0107692 -4.25299 0
M  V30 5411 N 505.51 1.54411 -0.315457 0
M  V30 5412 C 506.75 2.02329 0.290236 0
M  V30 5413 C 507.114 1.19878 1.49977 0
M  V30 5414 O 508.315 1.57562 2.17779 0
M  V30 5415 C 506.586 3.51912 0.623937 0
M  V30 5416 S 508.145 4.21775 1.21044 0
M  V30 5417 H 504.963 0.705499 0.0882739 0
M  V30 5418 H 507.565 1.90328 -0.446694 0
M  V30 5419 H 506.269 4.09546 -0.264624 0
M  V30 5420 H 505.8 3.67977 1.39128 0
M  V30 5421 H 507.815 4.28757 2.49764 0
M  V30 5422 N 506.988 0.0434614 1.5754 0
M  V30 5423 C 508.404 -0.313039 1.565 0
M  V30 5424 C 508.604 -1.71954 1.05043 0
M  V30 5425 O 507.66 -2.425 0.703564 0
M  V30 5426 C 508.973 -0.148544 3.00333 0
M  V30 5427 C 510.521 -0.220231 3.12224 0
M  V30 5428 C 510.996 -0.0843565 4.57922 0
M  V30 5429 N 512.487 -0.140881 4.62986 0
M  V30 5430 C 513.222 -0.0597443 5.73369 0
M  V30 5431 N 512.718 0.0733004 6.92761 0
M  V30 5432 N 514.511 -0.11477 5.61983 0
M  V30 5433 H 506.662 0.96303 1.89313 0
M  V30 5434 H 508.925 0.373164 0.871466 0
M  V30 5435 H 508.631 0.820894 3.41986 0
M  V30 5436 H 508.505 -0.912798 3.65989 0
M  V30 5437 H 510.892 -1.18014 2.70475 0
M  V30 5438 H 510.973 0.574646 2.49262 0
M  V30 5439 H 510.617 0.872192 5.00355 0
M  V30 5440 H 510.547 -0.898281 5.18882 0
M  V30 5441 H 513.038 -0.243273 3.77116 0
M  V30 5442 H 513.351 0.128128 7.72694 0
M  V30 5443 H 511.696 0.10828 6.94916 0
M  V30 5444 H 514.887 -0.217212 4.67596 0
M  V30 5445 H 515.06 -0.0480779 6.47982 0
M  V30 5446 N 508.466 -1.55915 -0.229846 0
M  V30 5447 C 509.882 -1.48721 -0.579166 0
M  V30 5448 C 510.082 -0.736976 -1.87539 0
M  V30 5449 O 509.138 -0.273258 -2.51017 0
M  V30 5450 C 510.451 -2.9323 -0.666082 0
M  V30 5451 C 511.999 -3.03701 -0.757267 0
M  V30 5452 C 512.474 -4.49552 -0.8756 0
M  V30 5453 N 513.965 -4.53561 -0.940035 0
M  V30 5454 C 514.7 -5.63683 -1.05116 0
M  V30 5455 N 514.196 -6.83576 -1.12675 0
M  V30 5456 N 515.989 -5.51516 -1.08565 0
M  V30 5457 H 508.14 -2.03123 0.620857 0
M  V30 5458 H 510.403 -0.922898 0.21671 0
M  V30 5459 H 510.109 -3.51032 0.21664 0
M  V30 5460 H 509.983 -3.44668 -1.53243 0
M  V30 5461 H 512.37 -2.45969 -1.63043 0
M  V30 5462 H 512.451 -2.55446 0.134583 0
M  V30 5463 H 512.095 -5.079 -0.00692351 0
M  V30 5464 H 512.025 -4.95506 -1.78274 0
M  V30 5465 H 514.516 -3.67215 -0.892269 0
M  V30 5466 H 514.829 -7.63251 -1.21109 0
M  V30 5467 H 513.174 -6.86303 -1.09603 0
M  V30 5468 H 516.365 -4.5678 -1.02319 0
M  V30 5469 H 516.538 -6.37372 -1.1688 0
M  V30 5470 N 509.944 0.496216 -1.49584 0
M  V30 5471 C 510.874 1.60576 -1.69521 0
M  V30 5472 C 511.855 1.61169 -0.543933 0
M  V30 5473 O 513.04 1.77834 -0.78031 0
M  V30 5474 C 510.17 2.99038 -1.76616 0
M  V30 5475 C 509.124 3.13312 -2.91581 0
M  V30 5476 C 508.45 4.53172 -2.83794 0
M  V30 5477 C 509.75 2.92886 -4.32452 0
M  V30 5478 H 511.444 1.44146 -2.62416 0
M  V30 5479 H 508.99 0.692024 -1.26282 0
M  V30 5480 H 510.943 3.76564 -1.8915 0
M  V30 5481 H 509.667 3.16568 -0.80324 0
M  V30 5482 H 508.326 2.38213 -2.78658 0
M  V30 5483 H 507.974 4.67585 -1.854 0
M  V30 5484 H 507.674 4.63662 -3.60958 0
M  V30 5485 H 509.198 5.32752 -2.98342 0
M  V30 5486 H 510.612 3.60178 -4.46032 0
M  V30 5487 H 509.009 3.14844 -5.10875 0
M  V30 5488 H 510.079 1.88966 -4.46565 0
M  V30 5489 N 511.423 1.38739 0.74761 0
M  V30 5490 C 512.37 1.36449 1.86146 0
M  V30 5491 C 513.34 0.226098 1.64554 0
M  V30 5492 O 514.525 0.41926 1.86137 0
M  V30 5493 C 511.665 1.2013 3.23516 0
M  V30 5494 C 510.778 2.43407 3.56899 0
M  V30 5495 C 509.913 2.19773 4.83605 0
M  V30 5496 C 508.952 3.3879 5.09792 0
M  V30 5497 N 508.089 3.14553 6.27695 0
M  V30 5498 H 512.929 2.3167 1.87438 0
M  V30 5499 H 510.466 1.15094 0.916063 0
M  V30 5500 H 512.424 1.08683 4.02795 0
M  V30 5501 H 511.054 0.285453 3.21535 0
M  V30 5502 H 510.106 2.65504 2.72418 0
M  V30 5503 H 511.418 3.32094 3.72176 0
M  V30 5504 H 510.572 2.05496 5.70838 0
M  V30 5505 H 509.311 1.28461 4.70478 0
M  V30 5506 H 508.316 3.53579 4.21025 0
M  V30 5507 H 509.541 4.30986 5.24812 0
M  V30 5508 H 507.487 2.25893 6.1588 0
M  V30 5509 H 507.404 3.96791 6.435 0
M  V30 5510 H 508.672 3.03943 7.17801 0
M  V30 5511 N 512.901 -0.976442 1.23707 0
M  V30 5512 C 514.178 -1.69296 0.979699 0
M  V30 5513 C 514.558 -2.0508 -0.500555 0
M  V30 5514 O 513.906 -1.74708 -1.47273 0
M  V30 5515 C 514.116 -2.93143 1.89389 0
M  V30 5516 C 515.464 -3.65572 2.15968 0
M  V30 5517 O 516.488 -3.03184 1.86971 0
M  V30 5518 O 515.347 -4.77859 2.65167 0
M  V30 5519 H 512.441 -0.739708 0.369812 0
M  V30 5520 H 514.987 -1.03131 1.34767 0
M  V30 5521 H 513.759 -2.63327 2.89439 0
M  V30 5522 H 513.382 -3.67044 1.52854 0
M  V30 5523 N 514.379 -1.04941 -1.1758 0
M  V30 5524 C 515.609 -0.777166 -1.91425 0
M  V30 5525 C 516.017 0.670647 -1.76915 0
M  V30 5526 O 515.36 1.46965 -1.10213 0
M  V30 5527 C 515.422 -1.07495 -3.43052 0
M  V30 5528 C 515.086 -2.51844 -3.81345 0
M  V30 5529 C 516.083 -3.50047 -3.844 0
M  V30 5530 C 513.768 -2.86787 -4.12382 0
M  V30 5531 C 515.762 -4.81239 -4.17957 0
M  V30 5532 C 513.449 -4.18182 -4.45608 0
M  V30 5533 C 514.447 -5.15219 -4.48373 0
M  V30 5534 O 514.135 -6.44258 -4.80819 0
M  V30 5535 H 513.867 -0.282209 -0.614275 0
M  V30 5536 H 516.421 -1.40258 -1.50056 0
M  V30 5537 H 514.651 -0.392437 -3.84704 0
M  V30 5538 H 516.34 -0.78912 -3.98155 0
M  V30 5539 H 517.106 -3.24391 -3.60548 0
M  V30 5540 H 512.985 -2.11922 -4.09402 0
M  V30 5541 H 516.529 -5.56974 -4.2003 0
M  V30 5542 H 512.426 -4.43602 -4.68922 0
M  V30 5543 H 513.194 -6.49041 -4.98686 0
M  V30 5544 N 515.857 1.33968 -0.830081 0
M  V30 5545 C 516.787 2.31911 -0.271911 0
M  V30 5546 C 517.768 1.58571 0.61556 0
M  V30 5547 O 518.953 1.86514 0.540946 0
M  V30 5548 C 516.083 3.42737 0.561146 0
M  V30 5549 C 515.037 4.27383 -0.229789 0
M  V30 5550 C 514.363 5.29742 0.726463 0
M  V30 5551 C 515.663 5.02 -1.44197 0
M  V30 5552 H 517.357 2.78844 -1.09025 0
M  V30 5553 H 514.903 1.34061 -0.52571 0
M  V30 5554 H 516.856 4.10276 0.961867 0
M  V30 5555 H 515.58 2.94471 1.41261 0
M  V30 5556 H 514.239 3.61456 -0.611964 0
M  V30 5557 H 513.887 4.77736 1.57408 0
M  V30 5558 H 513.587 5.87255 0.20142 0
M  V30 5559 H 515.111 6.00149 1.12489 0
M  V30 5560 H 516.525 5.62355 -1.11488 0
M  V30 5561 H 514.922 5.69122 -1.90317 0
M  V30 5562 H 515.992 4.31281 -2.2164 0
M  V30 5563 N 517.335 0.585699 1.46312 0
M  V30 5564 C 518.563 0.0781299 2.06752 0
M  V30 5565 C 518.978 -1.22812 1.43396 0
M  V30 5566 O 518.335 -1.74318 0.540314 0
M  V30 5567 C 518.386 -0.0911927 3.61385 0
M  V30 5568 O 518.107 1.16336 4.22371 0
M  V30 5569 C 519.608 -0.632765 4.38761 0
M  V30 5570 H 516.828 0.0588188 0.668417 0
M  V30 5571 H 519.372 0.807218 1.87894 0
M  V30 5572 H 517.527 -0.770514 3.7966 0
M  V30 5573 H 517.941 0.979082 5.15281 0
M  V30 5574 H 519.415 -0.70041 5.47538 0
M  V30 5575 H 519.892 -1.65039 4.07012 0
M  V30 5576 H 520.498 0.0117856 4.25298 0
M  V30 5577 N 518.813 -1.54241 0.323641 0
M  V30 5578 C 520.229 -1.59574 -0.0290018 0
M  V30 5579 C 520.429 -1.34017 -1.50472 0
M  V30 5580 O 519.485 -1.12464 -2.26071 0
M  V30 5581 C 520.798 -2.98169 0.389295 0
M  V30 5582 C 522.346 -3.11148 0.339958 0
M  V30 5583 C 522.821 -4.5209 0.733418 0
M  V30 5584 N 524.312 -4.5808 0.686827 0
M  V30 5585 C 525.047 -5.65248 0.963464 0
M  V30 5586 N 524.543 -6.80355 1.30724 0
M  V30 5587 N 526.336 -5.55025 0.88902 0
M  V30 5588 H 518.487 -1.6911 1.28512 0
M  V30 5589 H 520.75 -0.790972 0.522558 0
M  V30 5590 H 520.456 -3.21871 1.41746 0
M  V30 5591 H 520.33 -3.76399 -0.245657 0
M  V30 5592 H 522.717 -2.87182 -0.679002 0
M  V30 5593 H 522.798 -2.35023 1.00985 0
M  V30 5594 H 522.442 -4.76788 1.75029 0
M  V30 5595 H 522.372 -5.26584 0.0412189 0
M  V30 5596 H 524.863 -3.75411 0.43298 0
M  V30 5597 H 525.176 -7.58029 1.5037 0
M  V30 5598 H 523.521 -6.81851 1.3455 0
M  V30 5599 H 526.712 -4.63977 0.619939 0
M  V30 5600 H 526.885 -6.38458 1.10797 0
M  V30 5601 N 520.291 -0.0518155 -1.57515 0
M  V30 5602 C 521.516 0.634896 -1.97443 0
M  V30 5603 C 521.941 1.63546 -0.929207 0
M  V30 5604 O 521.299 1.80981 0.107484 0
M  V30 5605 C 521.347 1.29765 -3.36442 0
M  V30 5606 O 520.451 2.41333 -3.34413 0
M  V30 5607 H 519.792 0.164994 -0.643174 0
M  V30 5608 H 522.322 -0.120407 -2.04245 0
M  V30 5609 H 522.332 1.64918 -3.73184 0
M  V30 5610 H 521.007 0.564361 -4.12053 0
M  V30 5611 H 519.584 2.08122 -3.09418 0
M  V30 5612 N 521.769 1.56035 0.221574 0
M  V30 5613 C 522.699 1.95434 1.2778 0
M  V30 5614 C 523.68 0.822564 1.48889 0
M  V30 5615 O 524.865 1.08486 1.61072 0
M  V30 5616 C 521.995 2.27102 2.62759 0
M  V30 5617 C 520.949 3.4277 2.56306 0
M  V30 5618 C 520.275 3.60043 3.95314 0
M  V30 5619 C 521.575 4.77742 2.11093 0
M  V30 5620 H 523.269 2.83912 0.950504 0
M  V30 5621 H 520.815 1.36596 0.455791 0
M  V30 5622 H 522.768 2.53256 3.36807 0
M  V30 5623 H 521.492 1.35478 2.97176 0
M  V30 5624 H 520.151 3.16664 1.84715 0
M  V30 5625 H 519.799 2.65794 4.27039 0
M  V30 5626 H 519.499 4.37841 3.91879 0
M  V30 5627 H 521.023 3.88545 4.71025 0
M  V30 5628 H 522.437 5.03102 2.74885 0
M  V30 5629 H 520.834 5.58823 2.18716 0
M  V30 5630 H 521.904 4.731 1.06321 0
M  V30 5631 N 523.247 -0.488276 1.49845 0
M  V30 5632 C 524.493 -1.24341 1.6021 0
M  V30 5633 C 524.826 -1.91967 0.293651 0
M  V30 5634 O 524.101 -1.81323 -0.703718 0
M  V30 5635 C 524.384 -2.3005 2.77036 0
M  V30 5636 C 524.237 -1.66842 4.17713 0
M  V30 5637 C 525.556 -3.31509 2.89464 0
M  V30 5638 H 522.675 -0.450704 0.583125 0
M  V30 5639 H 525.317 -0.539673 1.82174 0
M  V30 5640 H 523.467 -2.90071 2.58439 0
M  V30 5641 H 525.139 -1.1055 4.47858 0
M  V30 5642 H 523.382 -0.972079 4.22768 0
M  V30 5643 H 524.053 -2.43576 4.95353 0
M  V30 5644 H 526.529 -2.81493 3.06433 0
M  V30 5645 H 525.405 -4.02822 3.72861 0
M  V30 5646 H 525.666 -3.94603 1.99351 0
M  V30 5647 N 524.725 -1.39134 -0.740242 0
M  V30 5648 C 526.136 -1.32208 -1.31825 0
M  V30 5649 C 526.487 0.0159919 -1.96193 0
M  V30 5650 O 525.612 0.918111 -1.95958 0
M  V30 5651 C 526.207 -2.39436 -2.39699 0
M  V30 5652 C 524.766 -2.36048 -2.93187 0
M  V30 5653 C 523.913 -2.21599 -1.66701 0
M  V30 5654 H 526.864 -1.49298 -0.538133 0
M  V30 5655 H 526.885 -2.05922 -3.19963 0
M  V30 5656 H 526.397 -3.36811 -1.92821 0
M  V30 5657 H 524.498 -1.42295 -3.44359 0
M  V30 5658 H 524.611 -3.30704 -3.46658 0
M  V30 5659 H 522.975 -1.68681 -1.90837 0
M  V30 5660 H 523.758 -3.20936 -1.21882 0
M  V30 5661 N 526.204 0.969867 -1.24223 0
M  V30 5662 C 527.434 1.74502 -1.106 0
M  V30 5663 C 527.842 1.86038 0.344483 0
M  V30 5664 O 527.185 1.3465 1.24961 0
M  V30 5665 C 527.247 3.18391 -1.66935 0
M  V30 5666 C 526.911 3.30334 -3.15798 0
M  V30 5667 C 527.908 3.15832 -4.12973 0
M  V30 5668 C 525.593 3.54644 -3.55715 0
M  V30 5669 C 527.587 3.25461 -5.48045 0
M  V30 5670 C 525.274 3.63912 -4.90929 0
M  V30 5671 C 526.272 3.49332 -5.86904 0
M  V30 5672 O 525.96 3.58251 -7.1966 0
M  V30 5673 H 525.692 0.554119 -0.387206 0
M  V30 5674 H 528.246 1.22646 -1.64764 0
M  V30 5675 H 526.476 3.71543 -1.07203 0
M  V30 5676 H 528.165 3.77707 -1.48634 0
M  V30 5677 H 528.931 2.96937 -3.83476 0
M  V30 5678 H 524.81 3.65059 -2.81519 0
M  V30 5679 H 528.354 3.13998 -6.22937 0
M  V30 5680 H 524.251 3.82319 -5.20098 0
M  V30 5681 H 525.019 3.7498 -7.27552 0
M  V30 5682 N 527.682 1.05563 1.17022 0
M  V30 5683 C 528.928 0.769074 1.87652 0
M  V30 5684 C 529.261 -0.702326 1.81055 0
M  V30 5685 O 528.536 -1.5139 1.22112 0
M  V30 5686 C 528.819 1.25492 3.37526 0
M  V30 5687 C 528.672 2.78953 3.52853 0
M  V30 5688 C 529.991 0.856919 4.31677 0
M  V30 5689 H 527.11 0.280854 0.681388 0
M  V30 5690 H 529.752 1.31027 1.37593 0
M  V30 5691 H 527.902 0.794516 3.80289 0
M  V30 5692 H 529.574 3.33146 3.19079 0
M  V30 5693 H 527.817 3.18046 2.95007 0
M  V30 5694 H 528.488 3.08011 4.58076 0
M  V30 5695 H 530.964 1.25334 3.96775 0
M  V30 5696 H 529.84 1.22443 5.35069 0
M  V30 5697 H 530.101 -0.238787 4.41455 0
M  V30 5698 N 529.16 -1.33526 0.837174 0
M  V30 5699 C 530.406 -1.9813 0.432704 0
M  V30 5700 C 530.739 -1.66168 -1.00508 0
M  V30 5701 O 530.014 -0.94069 -1.70239 0
M  V30 5702 C 530.297 -3.54151 0.651834 0
M  V30 5703 C 530.15 -3.95806 2.13676 0
M  V30 5704 C 531.469 -4.39993 0.0968937 0
M  V30 5705 H 528.588 -0.719713 0.15869 0
M  V30 5706 H 531.23 -1.58193 1.05237 0
M  V30 5707 H 529.38 -3.88301 0.124369 0
M  V30 5708 H 531.052 -3.71921 2.72896 0
M  V30 5709 H 529.295 -3.45599 2.62191 0
M  V30 5710 H 529.966 -5.0447 2.24084 0
M  V30 5711 H 532.442 -4.12479 0.547733 0
M  V30 5712 H 531.318 -5.48186 0.279917 0
M  V30 5713 H 531.579 -4.3066 -0.9992 0
M  V30 5714 N 530.638 -0.59345 -1.46 0
M  V30 5715 C 531.586 0.146268 -2.3214 0
M  V30 5716 C 532.58 0.873743 -1.45128 0
M  V30 5717 O 533.786 0.790912 -1.61693 0
M  V30 5718 H 530.161 0.0660349 -0.749095 0
M  V30 5719 H 532.132 -0.598895 -2.92328 0
M  V30 5720 C 530.881 1.1396 -3.28494 0
M  V30 5721 H 530.204 0.589252 -3.95434 0
M  V30 5722 H 531.644 1.62738 -3.91526 0
M  V30 5723 C 530.103 2.20604 -2.54628 0
M  V30 5724 O 530.633 3.28128 -2.31722 0
M  V30 5725 N 528.839 1.95502 -2.15005 0
M  V30 5726 H 528.386 1.0807 -2.33834 0
M  V30 5727 H 528.344 2.67064 -1.65904 0
M  V30 5728 N 532.116 1.54067 -0.331816 0
M  V30 5729 C 533.362 2.01012 0.268667 0
M  V30 5730 C 533.695 1.2195 1.51136 0
M  V30 5731 O 532.97 0.303972 1.9211 0
M  V30 5732 C 533.253 3.55158 0.59456 0
M  V30 5733 C 533.106 4.4494 -0.659409 0
M  V30 5734 C 534.425 4.16939 1.4089 0
M  V30 5735 H 531.544 0.730698 0.0961756 0
M  V30 5736 H 534.186 1.84593 -0.450031 0
M  V30 5737 H 532.336 3.6928 1.20685 0
M  V30 5738 H 534.008 4.42675 -1.29756 0
M  V30 5739 H 532.251 4.1428 -1.28665 0
M  V30 5740 H 532.922 5.50643 -0.386804 0
M  V30 5741 H 535.398 4.06443 0.891272 0
M  V30 5742 H 534.274 5.24889 1.60569 0
M  V30 5743 H 534.535 3.70798 2.40752 0
M  V30 5744 N 533.594 0.0601682 1.57485 0
M  V30 5745 C 534.819 -0.624416 1.97777 0
M  V30 5746 C 535.244 -1.63051 0.937867 0
M  V30 5747 O 534.602 -1.81036 -0.0978845 0
M  V30 5748 C 534.65 -1.27979 3.37126 0
M  V30 5749 O 533.754 -2.39556 3.35688 0
M  V30 5750 H 533.095 -0.161581 0.64404 0
M  V30 5751 H 535.625 0.131237 2.04179 0
M  V30 5752 H 535.635 -1.62937 3.74053 0
M  V30 5753 H 534.31 -0.542501 4.12347 0
M  V30 5754 H 532.887 -2.06478 3.10517 0
M  V30 5755 N 535.072 -1.5615 -0.213296 0
M  V30 5756 C 536.318 -1.80718 -0.933402 0
M  V30 5757 C 536.673 -0.634441 -1.81639 0
M  V30 5758 O 535.966 0.371182 -1.8797 0
M  V30 5759 C 536.16 -3.08772 -1.79985 0
M  V30 5760 C 535.989 -4.38389 -1.00224 0
M  V30 5761 C 534.759 -5.00513 -0.693885 0
M  V30 5762 C 536.957 -5.13013 -0.363598 0
M  V30 5763 N 534.939 -6.13774 0.124266 0
M  V30 5764 C 536.31 -6.19186 0.31757 0
M  V30 5765 C 538.365 -4.97126 -0.277468 0
M  V30 5766 C 537.068 -7.11197 1.07664 0
M  V30 5767 C 539.094 -5.89544 0.468155 0
M  V30 5768 C 538.456 -6.95149 1.13784 0
M  V30 5769 H 534.555 -0.712833 -0.321549 0
M  V30 5770 H 537.139 -1.93633 -0.203588 0
M  V30 5771 H 535.31 -2.97126 -2.50142 0
M  V30 5772 H 537.042 -3.21499 -2.45806 0
M  V30 5773 H 533.797 -4.62619 -1.01391 0
M  V30 5774 H 534.221 -6.74981 0.522418 0
M  V30 5775 H 538.863 -4.15526 -0.78087 0
M  V30 5776 H 536.581 -7.92273 1.59153 0
M  V30 5777 H 540.167 -5.79327 0.535911 0
M  V30 5778 H 539.047 -7.65428 1.70557 0
M  V30 5779 N 536.55 0.480323 -1.50102 0
M  V30 5780 C 537.513 1.56181 -1.6775 0
M  V30 5781 C 538.513 1.51156 -0.548503 0
M  V30 5782 O 539.703 1.5394 -0.815363 0
M  V30 5783 C 536.835 2.95823 -1.69415 0
M  V30 5784 H 538.028 1.41855 -2.6423 0
M  V30 5785 H 535.581 0.70605 -1.39444 0
M  V30 5786 H 536.316 3.15604 -0.745948 0
M  V30 5787 H 536.101 3.00878 -2.51425 0
M  V30 5788 H 537.591 3.74359 -1.85054 0
M  V30 5789 N 538.028 1.39524 0.732853 0
M  V30 5790 C 538.991 1.38189 1.82857 0
M  V30 5791 C 539.991 0.278624 1.58368 0
M  V30 5792 O 541.181 0.536639 1.65728 0
M  V30 5793 C 538.313 1.15661 3.2068 0
M  V30 5794 H 539.506 2.35692 1.85444 0
M  V30 5795 H 537.059 1.2512 0.936728 0
M  V30 5796 H 537.794 0.188482 3.23752 0
M  V30 5797 H 537.579 1.95559 3.39852 0
M  V30 5798 H 539.069 1.17472 4.00737 0
M  V30 5799 N 539.506 -0.963266 1.24736 0
M  V30 5800 C 540.438 -2.06162 1.0015 0
M  V30 5801 C 541.451 -1.62771 -0.0305905 0
M  V30 5802 O 542.64 -1.77296 0.206966 0
M  V30 5803 C 539.74 -3.35333 0.490385 0
M  V30 5804 C 538.913 -4.07609 1.58663 0
M  V30 5805 C 537.972 -5.15052 1.0774 0
M  V30 5806 O 536.998 -5.4098 1.77002 0
M  V30 5807 N 538.2 -5.80436 -0.0858605 0
M  V30 5808 H 540.965 -2.27825 1.94719 0
M  V30 5809 H 538.526 -1.13121 1.15825 0
M  V30 5810 H 540.518 -4.04477 0.134371 0
M  V30 5811 H 539.088 -3.10507 -0.361155 0
M  V30 5812 H 538.308 -3.32681 2.11463 0
M  V30 5813 H 539.596 -4.52656 2.32336 0
M  V30 5814 H 538.994 -5.6178 -0.664806 0
M  V30 5815 H 537.551 -6.50674 -0.382981 0
M  V30 5816 N 540.985 -1.06182 -1.16461 0
M  V30 5817 C 542.215 -0.797425 -1.9059 0
M  V30 5818 C 542.623 0.651845 -1.77616 0
M  V30 5819 O 541.966 1.45788 -1.11766 0
M  V30 5820 C 542.028 -1.11128 -3.41893 0
M  V30 5821 C 541.692 -2.55874 -3.78652 0
M  V30 5822 C 542.689 -3.54104 -3.80665 0
M  V30 5823 C 540.374 -2.91144 -4.09317 0
M  V30 5824 C 542.368 -4.85645 -4.12829 0
M  V30 5825 C 540.055 -4.22885 -4.41148 0
M  V30 5826 C 541.053 -5.19945 -4.42883 0
M  V30 5827 O 540.741 -6.49322 -4.73959 0
M  V30 5828 H 540.473 -0.288709 -0.611247 0
M  V30 5829 H 543.027 -1.41841 -1.4856 0
M  V30 5830 H 541.257 -0.433217 -3.84266 0
M  V30 5831 H 542.946 -0.831306 -3.97296 0
M  V30 5832 H 543.712 -3.28197 -3.57088 0
M  V30 5833 H 539.591 -2.16252 -4.07131 0
M  V30 5834 H 543.135 -5.61398 -4.14099 0
M  V30 5835 H 539.032 -4.48551 -4.6419 0
M  V30 5836 H 539.8 -6.54294 -4.91774 0
M  V30 5837 N 542.463 1.3308 -0.844243 0
M  V30 5838 C 543.703 1.99414 -0.448697 0
M  V30 5839 C 544.067 1.65398 0.975058 0
M  V30 5840 O 545.268 2.24741 1.47461 0
M  V30 5841 C 543.539 3.51081 -0.669089 0
M  V30 5842 S 545.098 4.37241 -0.369564 0
M  V30 5843 H 541.916 0.690736 -0.168538 0
M  V30 5844 H 544.518 1.61977 -1.0947 0
M  V30 5845 H 543.222 3.73326 -1.70457 0
M  V30 5846 H 542.753 3.93399 -0.00913211 0
M  V30 5847 H 544.768 4.89568 0.808552 0
M  V30 5848 N 543.941 0.601185 1.45683 0
M  V30 5849 C 545.166 0.0982245 2.07167 0
M  V30 5850 C 545.591 -1.20546 1.44396 0
M  V30 5851 O 544.949 -1.73247 0.534347 0
M  V30 5852 C 544.997 -0.0346976 3.60583 0
M  V30 5853 O 544.101 -1.08657 3.97828 0
M  V30 5854 H 543.442 0.0711618 0.660176 0
M  V30 5855 H 545.972 0.829376 1.87036 0
M  V30 5856 H 545.982 -0.234969 4.07323 0
M  V30 5857 H 544.657 0.917265 4.05659 0
M  V30 5858 H 543.234 -0.863275 3.6277 0
M  V30 5859 N 545.419 -1.53889 0.339982 0
M  V30 5860 C 546.665 -2.01849 -0.250694 0
M  V30 5861 C 547.02 -1.22356 -1.48482 0
M  V30 5862 O 546.313 -0.301906 -1.89206 0
M  V30 5863 C 546.507 -3.51968 -0.620735 0
M  V30 5864 C 546.336 -4.45996 0.575981 0
M  V30 5865 C 545.106 -4.93619 1.08019 0
M  V30 5866 C 547.304 -4.93923 1.43332 0
M  V30 5867 N 545.286 -5.7159 2.2396 0
M  V30 5868 C 546.657 -5.69982 2.43969 0
M  V30 5869 C 548.712 -4.76038 1.45918 0
M  V30 5870 C 547.415 -6.30057 3.47016 0
M  V30 5871 C 549.441 -5.36961 2.47845 0
M  V30 5872 C 548.803 -6.12884 3.47208 0
M  V30 5873 H 544.902 -0.780054 -0.0551368 0
M  V30 5874 H 547.486 -1.88722 0.478741 0
M  V30 5875 H 545.657 -3.65308 -1.31928 0
M  V30 5876 H 547.389 -3.86677 -1.19429 0
M  V30 5877 H 544.144 -4.69134 0.64884 0
M  V30 5878 H 544.568 -6.15247 2.82489 0
M  V30 5879 H 549.21 -4.16887 0.704608 0
M  V30 5880 H 546.928 -6.88319 4.23371 0
M  V30 5881 H 550.514 -5.2503 2.50668 0
M  V30 5882 H 549.394 -6.59187 4.24785 0
M  V30 5883 N 546.897 -0.0685191 -1.57451 0
M  V30 5884 C 547.86 0.885173 -2.11417 0
M  V30 5885 C 548.86 1.22853 -1.03748 0
M  V30 5886 O 550.05 1.16235 -1.2975 0
M  V30 5887 C 547.182 2.18964 -2.61281 0
M  V30 5888 H 548.375 0.417034 -2.96986 0
M  V30 5889 H 545.928 0.18014 -1.55258 0
M  V30 5890 H 546.663 2.70321 -1.79156 0
M  V30 5891 H 546.448 1.9534 -3.39977 0
M  V30 5892 H 547.938 2.87242 -3.0312 0
M  V30 5893 N 548.375 1.56261 0.205012 0
M  V30 5894 C 549.307 1.90266 1.27795 0
M  V30 5895 C 550.32 0.792397 1.42214 0
M  V30 5896 O 551.509 1.07077 1.42817 0
M  V30 5897 C 548.609 2.11074 2.65143 0
M  V30 5898 C 547.782 3.42176 2.7246 0
M  V30 5899 C 546.841 3.52216 3.90936 0
M  V30 5900 O 545.867 4.25119 3.78501 0
M  V30 5901 N 547.069 2.84573 5.05963 0
M  V30 5902 H 549.834 2.82896 0.989434 0
M  V30 5903 H 547.395 1.57008 0.394981 0
M  V30 5904 H 549.387 2.15089 3.4281 0
M  V30 5905 H 547.957 1.2499 2.86524 0
M  V30 5906 H 547.177 3.50116 1.81142 0
M  V30 5907 H 548.465 4.28509 2.74331 0
M  V30 5908 H 547.863 2.25152 5.18963 0
M  V30 5909 H 546.42 2.94228 5.81613 0
M  V30 5910 N 549.853 -0.472356 1.50355 0
M  V30 5911 C 551.093 -1.23439 1.62918 0
M  V30 5912 C 551.457 -1.89284 0.321801 0
M  V30 5913 O 552.658 -2.66854 0.322852 0
M  V30 5914 C 550.929 -2.25119 2.7759 0
M  V30 5915 S 552.488 -3.10278 3.10279 0
M  V30 5916 H 549.306 -0.41911 0.574341 0
M  V30 5917 H 551.908 -0.531621 1.88133 0
M  V30 5918 H 550.612 -1.75324 3.71066 0
M  V30 5919 H 550.143 -3.00026 2.54457 0
M  V30 5920 H 552.158 -4.26257 2.54007 0
M  V30 5921 N 551.331 -1.39911 -0.725443 0
M  V30 5922 C 552.281 -1.35878 -1.83088 0
M  V30 5923 C 553.265 -0.237989 -1.5913 0
M  V30 5924 O 554.457 -0.476302 -1.70471 0
M  V30 5925 C 551.586 -1.21403 -3.21117 0
M  V30 5926 C 550.672 -2.38223 -3.50871 0
M  V30 5927 N 551.063 -3.63703 -3.51502 0
M  V30 5928 C 549.361 -2.31388 -3.81281 0
M  V30 5929 C 550.062 -4.4101 -3.79322 0
M  V30 5930 N 549.038 -3.7072 -3.97577 0
M  V30 5931 H 552.84 -2.3085 -1.81895 0
M  V30 5932 H 550.354 -1.33543 -0.924125 0
M  V30 5933 H 552.351 -1.16597 -4.00263 0
M  V30 5934 H 551.011 -0.273902 -3.23543 0
M  V30 5935 H 552.022 -3.96998 -3.32586 0
M  V30 5936 H 548.699 -1.45689 -3.91256 0
M  V30 5937 H 550.089 -5.49819 -3.86198 0
M  V30 5938 N 552.809 0.956637 -1.25245 0
M  V30 5939 C 554.057 1.69764 -1.09657 0
M  V30 5940 C 554.378 1.91583 0.363464 0
M  V30 5941 O 553.648 1.50149 1.25825 0
M  V30 5942 H 552.228 0.629097 -0.402798 0
M  V30 5943 H 554.89 1.15026 -1.57337 0
M  V30 5944 H 553.986 2.67769 -1.60331 0
M  V30 5945 N 554.287 1.06798 1.15896 0
M  V30 5946 C 555.237 0.653213 2.18443 0
M  V30 5947 C 556.221 -0.318763 1.57711 0
M  V30 5948 O 557.413 -0.133388 1.76497 0
M  V30 5949 C 554.542 0.0465785 3.43268 0
M  V30 5950 C 553.628 1.04336 4.11066 0
M  V30 5951 N 554.019 2.22084 4.54436 0
M  V30 5952 C 552.317 0.875433 4.37324 0
M  V30 5953 C 553.018 2.85276 5.06944 0
M  V30 5954 N 551.994 2.12973 5.00143 0
M  V30 5955 H 555.796 1.55011 2.49698 0
M  V30 5956 H 553.31 0.940384 1.32403 0
M  V30 5957 H 555.307 -0.26843 4.16035 0
M  V30 5958 H 553.967 -0.845504 3.13499 0
M  V30 5959 H 554.978 2.59833 4.48004 0
M  V30 5960 H 551.655 0.0357721 4.17485 0
M  V30 5961 H 553.045 3.85223 5.50503 0
M  V30 5962 N 555.766 -1.3263 0.851289 0
M  V30 5963 C 557.014 -1.96978 0.452128 0
M  V30 5964 C 557.335 -1.67715 -0.99482 0
M  V30 5965 O 556.605 -0.98259 -1.69476 0
M  V30 5966 H 555.185 -0.72873 0.164202 0
M  V30 5967 H 557.847 -1.61774 1.08698 0
M  V30 5968 H 556.943 -3.06387 0.594407 0
M  V30 5969 N 557.244 -0.608902 -1.45362 0
M  V30 5970 C 558.66 -0.272659 -1.57254 0
M  V30 5971 C 558.86 1.22477 -1.60005 0
M  V30 5972 O 557.916 2.00785 -1.53106 0
M  V30 5973 C 559.229 -0.944991 -2.85465 0
M  V30 5974 C 560.777 -0.921033 -2.99142 0
M  V30 5975 C 561.252 -1.5734 -4.30126 0
M  V30 5976 N 562.743 -1.53895 -4.36887 0
M  V30 5977 C 563.478 -2.01286 -5.36909 0
M  V30 5978 N 562.974 -2.56768 -6.43461 0
M  V30 5979 N 564.767 -1.92046 -5.28275 0
M  V30 5980 H 556.918 -1.58117 -1.4182 0
M  V30 5981 H 559.181 -0.662437 -0.678146 0
M  V30 5982 H 558.887 -1.99941 -2.89338 0
M  V30 5983 H 558.761 -0.469079 -3.74272 0
M  V30 5984 H 561.148 0.124846 -2.94836 0
M  V30 5985 H 561.229 -1.43522 -2.11743 0
M  V30 5986 H 560.873 -2.61862 -4.35191 0
M  V30 5987 H 560.803 -1.03422 -5.16344 0
M  V30 5988 H 563.294 -1.13366 -3.60495 0
M  V30 5989 H 563.607 -2.9072 -7.16032 0
M  V30 5990 H 561.952 -2.60808 -6.44208 0
M  V30 5991 H 565.143 -1.48439 -4.43941 0
M  V30 5992 H 565.316 -2.29293 -6.06077 0
M  V30 5993 N 558.722 1.53707 -0.348139 0
M  V30 5994 C 559.962 2.02899 0.247254 0
M  V30 5995 C 560.326 1.23033 1.47401 0
M  V30 5996 O 561.527 1.62146 2.14388 0
M  V30 5997 C 559.798 3.53156 0.549151 0
M  V30 5998 S 561.357 4.24247 1.1207 0
M  V30 5999 H 558.175 0.707213 0.0732894 0
M  V30 6000 H 560.777 1.89338 -0.486965 0
M  V30 6001 H 559.481 4.08893 -0.351435 0
M  V30 6002 H 559.012 3.70845 1.31291 0
M  V30 6003 H 561.027 4.33958 2.40613 0
M  V30 6004 N 560.2 0.0768682 1.57412 0
M  V30 6005 C 561.446 -0.591961 1.93968 0
M  V30 6006 C 561.779 -1.68954 0.9575 0
M  V30 6007 O 561.054 -1.94496 -0.0124675 0
M  V30 6008 C 561.337 -1.16418 3.40762 0
M  V30 6009 C 561.19 -0.0728933 4.49741 0
M  V30 6010 C 562.509 -2.06814 3.88479 0
M  V30 6011 H 559.628 -0.213716 0.705333 0
M  V30 6012 H 562.27 0.14387 1.89455 0
M  V30 6013 H 560.42 -1.79128 3.4474 0
M  V30 6014 H 562.092 0.560446 4.57883 0
M  V30 6015 H 560.335 0.595859 4.29688 0
M  V30 6016 H 561.006 -0.513755 5.49604 0
M  V30 6017 H 563.482 -1.54033 3.8654 0
M  V30 6018 H 562.358 -2.43785 4.91793 0
M  V30 6019 H 562.619 -2.97844 3.26713 0
M  V30 6020 N 561.678 -1.56367 -0.196722 0
M  V30 6021 C 563.094 -1.49916 -0.54749 0
M  V30 6022 C 563.294 -0.77659 -1.85934 0
M  V30 6023 O 562.35 -0.32644 -2.50381 0
M  V30 6024 C 563.663 -2.94577 -0.603734 0
M  V30 6025 C 565.211 -3.05239 -0.692677 0
M  V30 6026 C 565.686 -4.51308 -0.780046 0
M  V30 6027 N 567.177 -4.55453 -0.843616 0
M  V30 6028 C 567.912 -5.65786 -0.931358 0
M  V30 6029 N 567.408 -6.85812 -0.981503 0
M  V30 6030 N 569.201 -5.53695 -0.968421 0
M  V30 6031 H 561.352 -2.01761 0.663803 0
M  V30 6032 H 563.615 -0.918094 0.236238 0
M  V30 6033 H 563.321 -3.50494 0.29105 0
M  V30 6034 H 563.195 -3.47841 -1.45898 0
M  V30 6035 H 565.582 -2.49372 -1.57789 0
M  V30 6036 H 565.663 -2.55103 0.188736 0
M  V30 6037 H 565.307 -5.078 0.100811 0
M  V30 6038 H 565.237 -4.99176 -1.67724 0
M  V30 6039 H 567.728 -3.69025 -0.814176 0
M  V30 6040 H 568.041 -7.65648 -1.04892 0
M  V30 6041 H 566.386 -6.88474 -0.950208 0
M  V30 6042 H 569.577 -4.58848 -0.926072 0
M  V30 6043 H 569.75 -6.39708 -1.03334 0
M  V30 6044 N 563.156 0.464375 -1.50603 0
M  V30 6045 C 564.572 0.798684 -1.38178 0
M  V30 6046 C 564.772 1.96568 -0.44308 0
M  V30 6047 O 563.828 2.52252 0.111814 0
M  V30 6048 C 565.141 1.10444 -2.79683 0
M  V30 6049 C 566.689 1.2105 -2.88645 0
M  V30 6050 C 567.164 1.54934 -4.30998 0
M  V30 6051 N 568.655 1.61913 -4.3398 0
M  V30 6052 C 569.39 1.8965 -5.41129 0
M  V30 6053 N 568.886 2.15361 -6.58477 0
M  V30 6054 N 570.679 1.91207 -5.28579 0
M  V30 6055 H 562.83 -0.304603 -2.10204 0
M  V30 6056 H 565.093 -0.0737804 -0.945125 0
M  V30 6057 H 564.799 0.319934 -3.50242 0
M  V30 6058 H 564.673 2.03896 -3.17342 0
M  V30 6059 H 567.06 1.98567 -2.18301 0
M  V30 6060 H 567.141 0.255613 -2.5452 0
M  V30 6061 H 566.785 0.779549 -5.01882 0
M  V30 6062 H 566.715 2.51584 -4.62615 0
M  V30 6063 H 569.206 1.44055 -3.49366 0
M  V30 6064 H 569.519 2.35818 -7.35941 0
M  V30 6065 H 567.864 2.1274 -6.6164 0
M  V30 6066 H 571.055 1.70622 -4.35897 0
M  V30 6067 H 571.228 2.12488 -6.12171 0
M  V30 6068 N 564.634 1.40294 0.718013 0
M  V30 6069 C 565.911 1.2894 1.47084 0
M  V30 6070 C 566.291 -0.0933625 2.10893 0
M  V30 6071 O 565.639 -1.10598 1.99951 0
M  V30 6072 C 565.849 2.4264 2.50852 0
M  V30 6073 C 567.197 2.8276 3.16752 0
M  V30 6074 O 568.221 2.42215 2.61171 0
M  V30 6075 O 567.08 3.528 4.17366 0
M  V30 6076 H 564.174 0.506236 0.653952 0
M  V30 6077 H 566.72 1.52208 0.750394 0
M  V30 6078 H 565.492 3.35009 2.022 0
M  V30 6079 H 565.115 2.21129 3.30435 0
M  V30 6080 N 566.112 -0.949982 1.2575 0
M  V30 6081 C 567.523 -1.50989 1.09815 0
M  V30 6082 C 567.874 -1.93497 -0.324556 0
M  V30 6083 O 566.999 -1.79068 -1.21506 0
M  V30 6084 C 567.594 -2.74394 1.98729 0
M  V30 6085 C 566.153 -3.26682 1.86965 0
M  V30 6086 C 565.3 -1.99498 1.92603 0
M  V30 6087 H 568.251 -0.766387 1.38968 0
M  V30 6088 H 568.272 -3.48383 1.53001 0
M  V30 6089 H 567.784 -2.43425 3.02268 0
M  V30 6090 H 565.885 -3.62461 0.863279 0
M  V30 6091 H 565.998 -3.94383 2.72027 0
M  V30 6092 H 564.362 -2.15005 1.36546 0
M  V30 6093 H 565.145 -1.70871 2.97755 0
M  V30 6094 N 567.59 -1.07411 -1.15328 0
M  V30 6095 C 568.538 -0.689316 -2.22151 0
M  V30 6096 C 569.532 0.300156 -1.6672 0
M  V30 6097 O 570.738 0.163804 -1.79253 0
M  V30 6098 H 567.113 -0.204834 -0.723566 0
M  V30 6099 H 569.084 -1.59988 -2.51886 0
M  V30 6100 C 567.833 -0.103848 -3.47545 0
M  V30 6101 H 567.156 -0.856367 -3.90521 0
M  V30 6102 H 568.596 0.127725 -4.23808 0
M  V30 6103 C 567.055 1.15563 -3.1646 0
M  V30 6104 O 567.585 2.242 -3.33312 0
M  V30 6105 N 565.791 1.06203 -2.70498 0
M  V30 6106 H 565.338 0.177933 -2.56985 0
M  V30 6107 H 565.296 1.90553 -2.50074 0
M  V30 6108 N 569.068 1.32177 -0.85831 0
M  V30 6109 C 570.031 2.27086 -0.310588 0
M  V30 6110 C 571.031 1.51751 0.531806 0
M  V30 6111 O 572.221 1.70794 0.34279 0
M  V30 6112 C 569.353 3.36266 0.560179 0
M  V30 6113 H 570.546 2.77045 -1.1483 0
M  V30 6114 H 568.099 1.42911 -0.632942 0
M  V30 6115 H 568.834 2.9158 1.41956 0
M  V30 6116 H 568.619 3.92077 -0.0428473 0
M  V30 6117 H 570.109 4.06974 0.936056 0
M  V30 6118 N 570.547 0.616602 1.45037 0
M  V30 6119 C 571.497 -0.118543 2.27692 0
M  V30 6120 C 572.481 -0.830025 1.37838 0
M  V30 6121 O 573.673 -0.718528 1.6176 0
M  V30 6122 C 570.802 -1.10924 3.24886 0
M  V30 6123 C 569.888 -0.398134 4.22227 0
M  V30 6124 N 570.279 0.565233 5.02632 0
M  V30 6125 C 568.577 -0.644506 4.41319 0
M  V30 6126 C 569.278 0.984043 5.73316 0
M  V30 6127 N 568.254 0.325879 5.42622 0
M  V30 6128 H 572.056 0.621239 2.87259 0
M  V30 6129 H 569.57 0.440968 1.56299 0
M  V30 6130 H 571.567 -1.65038 3.82842 0
M  V30 6131 H 570.227 -1.84948 2.66879 0
M  V30 6132 H 571.238 0.942395 5.09254 0
M  V30 6133 H 567.915 -1.36873 3.94426 0
M  V30 6134 H 569.305 1.77911 6.47918 0
M  V30 6135 N 572.025 -1.5352 0.356285 0
M  V30 6136 C 573.253 -2.05534 -0.237328 0
M  V30 6137 C 573.668 -1.23043 -1.43199 0
M  V30 6138 O 573.025 -0.268821 -1.80509 0
M  V30 6139 C 573.076 -3.55791 -0.639933 0
M  V30 6140 O 572.797 -4.35154 0.507233 0
M  V30 6141 C 574.298 -4.24027 -1.29292 0
M  V30 6142 H 571.518 -0.669585 -0.0435572 0
M  V30 6143 H 574.062 -1.97988 0.511963 0
M  V30 6144 H 572.217 -3.63518 -1.33915 0
M  V30 6145 H 572.631 -5.24178 0.18375 0
M  V30 6146 H 574.105 -5.30509 -1.52527 0
M  V30 6147 H 574.582 -3.77166 -2.25039 0
M  V30 6148 H 575.188 -4.20527 -0.63539 0
M  V30 6149 N 573.503 -0.0852151 -1.57369 0
M  V30 6150 C 574.75 0.580806 -1.93992 0
M  V30 6151 C 575.078 1.68801 -0.966252 0
M  V30 6152 O 574.333 1.95694 0.0158649 0
M  V30 6153 C 574.632 1.18482 -3.3719 0
M  V30 6154 C 574.298 0.2024 -4.50446 0
M  V30 6155 C 572.96 -0.0678318 -4.81152 0
M  V30 6156 C 575.312 -0.46895 -5.19086 0
M  V30 6157 C 572.64 -1.01627 -5.77831 0
M  V30 6158 C 574.992 -1.4058 -6.16782 0
M  V30 6159 C 573.656 -1.68436 -6.45899 0
M  V30 6160 H 572.926 0.212532 -0.709867 0
M  V30 6161 H 575.573 -0.158947 -1.90839 0
M  V30 6162 H 573.878 2.0006 -3.36873 0
M  V30 6163 H 575.575 1.70767 -3.62822 0
M  V30 6164 H 572.165 0.423208 -4.26505 0
M  V30 6165 H 576.349 -0.273307 -4.95547 0
M  V30 6166 H 571.605 -1.2392 -5.9871 0
M  V30 6167 H 575.779 -1.93188 -6.69068 0
M  V30 6168 H 573.406 -2.42088 -7.20623 0
M  V30 6169 N 574.981 1.5647 0.188427 0
M  V30 6170 C 575.911 1.98101 1.23606 0
M  V30 6171 C 576.892 0.853961 1.47111 0
M  V30 6172 O 578.077 1.11879 1.58735 0
M  V30 6173 C 575.207 2.32624 2.57882 0
M  V30 6174 C 574.161 3.48129 2.48978 0
M  V30 6175 C 573.487 3.68347 3.87588 0
M  V30 6176 C 574.787 4.82112 2.00911 0
M  V30 6177 H 576.481 2.85864 0.890068 0
M  V30 6178 H 574.027 1.37532 0.426714 0
M  V30 6179 H 575.98 2.60343 3.3136 0
M  V30 6180 H 574.704 1.41751 2.94235 0
M  V30 6181 H 573.363 3.20511 1.77956 0
M  V30 6182 H 573.011 2.74793 4.21305 0
M  V30 6183 H 572.711 4.46055 3.82503 0
M  V30 6184 H 574.235 3.98449 4.62678 0
M  V30 6185 H 575.649 5.08819 2.64151 0
M  V30 6186 H 574.046 5.63337 2.06814 0
M  V30 6187 H 575.116 4.75249 0.96262 0
M  V30 6188 N 576.459 -0.456382 1.50847 0
M  V30 6189 C 577.409 -1.55045 1.67168 0
M  V30 6190 C 578.393 -1.52061 0.525958 0
M  V30 6191 O 579.585 -1.58836 0.781036 0
M  V30 6192 C 576.714 -2.93386 1.78268 0
M  V30 6193 C 575.8 -3.01198 2.98564 0
M  V30 6194 N 576.191 -2.78792 4.22029 0
M  V30 6195 C 574.489 -3.32346 2.97426 0
M  V30 6196 C 575.19 -2.91953 5.03128 0
M  V30 6197 N 574.166 -3.22797 4.37382 0
M  V30 6198 H 577.968 -1.36444 2.60308 0
M  V30 6199 H 575.482 -0.663375 1.48233 0
M  V30 6200 H 577.479 -3.72071 1.88067 0
M  V30 6201 H 576.139 -3.13022 0.862965 0
M  V30 6202 H 577.15 -2.54087 4.51287 0
M  V30 6203 H 573.827 -3.57877 2.15012 0
M  V30 6204 H 575.217 -2.78745 6.11351 0
M  V30 6205 N 577.937 -1.40673 -0.710563 0
M  V30 6206 C 578.867 -1.44095 -1.83736 0
M  V30 6207 C 579.848 -0.301286 -1.67411 0
M  V30 6208 O 581.033 -0.510618 -1.87367 0
M  V30 6209 C 578.163 -1.30773 -3.21738 0
M  V30 6210 C 577.117 -2.42395 -3.52745 0
M  V30 6211 C 576.443 -2.14147 -4.89944 0
M  V30 6212 C 577.743 -3.84738 -3.53234 0
M  V30 6213 H 579.437 -2.38396 -1.81129 0
M  V30 6214 H 576.983 -1.14746 -0.870017 0
M  V30 6215 H 578.936 -1.31783 -4.00264 0
M  V30 6216 H 577.66 -0.329507 -3.24934 0
M  V30 6217 H 576.319 -2.40643 -2.76562 0
M  V30 6218 H 575.967 -1.14703 -4.89747 0
M  V30 6219 H 575.667 -2.88934 -5.11655 0
M  V30 6220 H 577.191 -2.16848 -5.70797 0
M  V30 6221 H 578.605 -3.88286 -4.2179 0
M  V30 6222 H 577.002 -4.59085 -3.86473 0
M  V30 6223 H 578.072 -4.13962 -2.52514 0
M  V30 6224 N 579.415 0.9433 -1.26252 0
M  V30 6225 C 580.64 1.72898 -1.14547 0
M  V30 6226 C 581.065 1.85761 0.295743 0
M  V30 6227 O 580.423 1.3463 1.21427 0
M  V30 6228 C 580.471 3.11471 -1.8171 0
M  V30 6229 O 579.575 3.97336 -1.10445 0
M  V30 6230 H 578.916 0.530555 -0.399259 0
M  V30 6231 H 581.446 1.18159 -1.67032 0
M  V30 6232 H 581.456 3.61872 -1.88449 0
M  V30 6233 H 580.131 3.01425 -2.86558 0
M  V30 6234 H 578.708 3.55788 -1.11666 0
M  V30 6235 N 580.893 1.08022 1.14757 0
M  V30 6236 C 581.856 0.71048 2.1791 0
M  V30 6237 C 582.856 -0.252731 1.58801 0
M  V30 6238 O 584.046 -0.0327915 1.74169 0
M  V30 6239 C 581.178 0.0483203 3.40866 0
M  V30 6240 H 582.371 1.62384 2.52134 0
M  V30 6241 H 579.924 0.877595 1.29337 0
M  V30 6242 H 580.659 -0.876959 3.12218 0
M  V30 6243 H 580.444 0.741189 3.85031 0
M  V30 6244 H 581.934 -0.195471 4.17142 0
M  V30 6245 N 582.371 -1.3172 0.865308 0
M  V30 6246 C 583.596 -2.01591 0.487415 0
M  V30 6247 C 584.021 -1.6455 -0.911307 0
M  V30 6248 O 583.379 -0.851689 -1.6005 0
M  V30 6249 C 583.427 -3.54759 0.646401 0
M  V30 6250 O 582.531 -4.11185 -0.316284 0
M  V30 6251 H 581.872 -0.634884 0.194468 0
M  V30 6252 H 584.402 -1.68024 1.16744 0
M  V30 6253 H 584.412 -4.04438 0.537932 0
M  V30 6254 H 583.087 -3.8106 1.66632 0
M  V30 6255 H 581.664 -3.72543 -0.163162 0
M  V30 6256 N 583.85 -0.624285 -1.44708 0
M  V30 6257 C 585.075 -0.131171 -2.06985 0
M  V30 6258 C 585.5 1.18234 -1.46295 0
M  V30 6259 O 584.858 1.72375 -0.561842 0
M  V30 6260 C 584.906 -0.0226724 -3.60593 0
M  V30 6261 O 584.01 1.02314 -3.99507 0
M  V30 6262 H 583.351 -0.0816556 -0.65896 0
M  V30 6263 H 585.88 -0.859027 -1.85693 0
M  V30 6264 H 585.891 0.170138 -4.07645 0
M  V30 6265 H 584.566 -0.981685 -4.04148 0
M  V30 6266 H 583.143 0.805452 -3.64097 0
M  V30 6267 N 585.328 1.53329 -0.364422 0
M  V30 6268 C 586.575 2.01239 0.225634 0
M  V30 6269 C 586.903 1.25172 1.48869 0
M  V30 6270 O 586.158 0.333289 1.92841 0
M  V30 6271 C 586.457 3.52911 0.564661 0
M  V30 6272 C 586.123 4.46837 -0.603936 0
M  V30 6273 C 584.785 4.72234 -0.924585 0
M  V30 6274 C 587.137 5.02409 -1.38691 0
M  V30 6275 C 584.465 5.50454 -2.0302 0
M  V30 6276 C 586.817 5.81836 -2.48293 0
M  V30 6277 C 585.481 6.0552 -2.80894 0
M  V30 6278 H 584.751 0.736386 0.0825654 0
M  V30 6279 H 587.398 1.84948 -0.496645 0
M  V30 6280 H 585.703 3.67144 1.36794 0
M  V30 6281 H 587.4 3.87455 1.03344 0
M  V30 6282 H 583.99 4.27217 -0.343983 0
M  V30 6283 H 588.174 4.82735 -1.15243 0
M  V30 6284 H 583.43 5.67024 -2.28678 0
M  V30 6285 H 587.604 6.23905 -3.0938 0
M  V30 6286 H 585.231 6.65916 -3.66688 0
M  V30 6287 N 586.806 0.0935595 1.57322 0
M  V30 6288 C 588.222 -0.263091 1.57417 0
M  V30 6289 C 588.422 -1.68526 1.1046 0
M  V30 6290 O 587.478 -2.40139 0.780357 0
M  V30 6291 C 588.791 -0.0529201 3.00653 0
M  V30 6292 C 590.339 -0.120788 3.12767 0
M  V30 6293 C 590.814 0.0613707 4.57959 0
M  V30 6294 N 592.305 0.00648534 4.632 0
M  V30 6295 C 593.04 0.122699 5.73269 0
M  V30 6296 N 592.536 0.29366 6.92177 0
M  V30 6297 N 594.329 0.0640787 5.62063 0
M  V30 6298 H 586.48 1.02277 1.86154 0
M  V30 6299 H 588.743 0.4007 0.859153 0
M  V30 6300 H 588.449 0.929279 3.39201 0
M  V30 6301 H 588.323 -0.795899 3.68708 0
M  V30 6302 H 590.71 -1.09349 2.74093 0
M  V30 6303 H 590.791 0.653656 2.47307 0
M  V30 6304 H 590.435 1.03093 4.97327 0
M  V30 6305 H 590.365 -0.732748 5.21477 0
M  V30 6306 H 592.856 -0.123173 3.77699 0
M  V30 6307 H 593.169 0.37389 7.71895 0
M  V30 6308 H 591.514 0.329307 6.94219 0
M  V30 6309 H 594.705 -0.0683396 4.6805 0
M  V30 6310 H 594.878 0.158097 6.47807 0
M  V30 6311 N 588.284 -1.56567 -0.180126 0
M  V30 6312 C 589.214 -1.98753 -1.22553 0
M  V30 6313 C 590.195 -0.86175 -1.46656 0
M  V30 6314 O 591.38 -1.12719 -1.58139 0
M  V30 6315 C 588.51 -2.33988 -2.56645 0
M  V30 6316 C 587.464 -3.49445 -2.47128 0
M  V30 6317 C 586.79 -3.70397 -3.8563 0
M  V30 6318 C 588.09 -4.83171 -1.98352 0
M  V30 6319 H 589.784 -2.86332 -0.874896 0
M  V30 6320 H 587.33 -1.37757 -0.419414 0
M  V30 6321 H 589.283 -2.62097 -3.29974 0
M  V30 6322 H 588.007 -1.43309 -2.93479 0
M  V30 6323 H 586.666 -3.2145 -1.76254 0
M  V30 6324 H 586.314 -2.77023 -4.19842 0
M  V30 6325 H 586.014 -4.48077 -3.80132 0
M  V30 6326 H 587.538 -4.00897 -4.60558 0
M  V30 6327 H 588.952 -5.10213 -2.61449 0
M  V30 6328 H 587.349 -5.64425 -2.03823 0
M  V30 6329 H 588.419 -4.75753 -0.937402 0
M  V30 6330 N 589.762 0.448376 -1.51087 0
M  V30 6331 C 591.008 1.20049 -1.6345 0
M  V30 6332 C 591.341 1.91121 -0.344444 0
M  V30 6333 O 590.616 1.83125 0.655396 0
M  V30 6334 C 590.899 2.22624 -2.83038 0
M  V30 6335 C 590.752 1.55708 -4.21989 0
M  V30 6336 C 592.071 3.23718 -2.98152 0
M  V30 6337 H 589.19 0.435085 -0.59487 0
M  V30 6338 H 591.832 0.491183 -1.83541 0
M  V30 6339 H 589.982 2.83117 -2.66039 0
M  V30 6340 H 591.654 0.986367 -4.50631 0
M  V30 6341 H 589.897 0.859647 -4.25197 0
M  V30 6342 H 590.568 2.30357 -5.01637 0
M  V30 6343 H 593.044 2.73269 -3.13788 0
M  V30 6344 H 591.92 3.92795 -3.83411 0
M  V30 6345 H 592.181 3.89179 -2.09743 0
M  V30 6346 N 591.24 1.41047 0.703093 0
M  V30 6347 C 592.651 1.35657 1.28274 0
M  V30 6348 C 593.002 0.0360309 1.96167 0
M  V30 6349 O 592.127 -0.865833 1.98324 0
M  V30 6350 C 592.722 2.45707 2.33267 0
M  V30 6351 C 591.281 2.43738 2.86825 0
M  V30 6352 C 590.428 2.25941 1.60767 0
M  V30 6353 H 593.379 1.50672 0.49836 0
M  V30 6354 H 593.4 2.14333 3.14391 0
M  V30 6355 H 592.912 3.41805 1.83824 0
M  V30 6356 H 591.013 1.51375 3.40465 0
M  V30 6357 H 591.126 3.39779 3.37768 0
M  V30 6358 H 589.49 1.73681 1.86298 0
M  V30 6359 H 590.273 3.24054 1.1333 0
M  V30 6360 N 592.718 -0.936591 1.26751 0
M  V30 6361 C 593.943 -1.72288 1.15462 0
M  V30 6362 C 594.368 -1.85915 -0.285887 0
M  V30 6363 O 593.726 -1.35272 -1.20711 0
M  V30 6364 C 593.774 -3.10503 1.83359 0
M  V30 6365 O 592.878 -3.96745 1.1255 0
M  V30 6366 H 592.219 -0.52843 0.402067 0
M  V30 6367 H 594.749 -1.17271 1.67656 0
M  V30 6368 H 594.759 -3.60867 1.90365 0
M  V30 6369 H 593.434 -2.99901 2.88153 0
M  V30 6370 H 592.011 -3.55191 1.13551 0
M  V30 6371 N 594.196 -1.08629 -1.14182 0
M  V30 6372 C 595.146 -0.687882 -2.17376 0
M  V30 6373 C 596.13 0.293632 -1.58198 0
M  V30 6374 O 597.322 0.105292 -1.76687 0
M  V30 6375 C 594.451 -0.101184 -3.43151 0
M  V30 6376 C 593.537 -1.10862 -4.09354 0
M  V30 6377 N 593.928 -2.29285 -4.50846 0
M  V30 6378 C 592.226 -0.944897 -4.35876 0
M  V30 6379 C 592.927 -2.93305 -5.02342 0
M  V30 6380 N 591.903 -2.20903 -4.96692 0
M  V30 6381 H 595.705 -1.58963 -2.472 0
M  V30 6382 H 593.219 -0.961329 -1.3089 0
M  V30 6383 H 595.216 0.202209 -4.16409 0
M  V30 6384 H 593.876 0.795522 -3.14804 0
M  V30 6385 H 594.887 -2.66927 -4.43813 0
M  V30 6386 H 591.564 -0.102186 -4.17375 0
M  V30 6387 H 592.954 -3.93932 -5.44304 0
M  V30 6388 N 595.674 1.31259 -0.872281 0
M  V30 6389 C 596.637 2.26744 -0.334656 0
M  V30 6390 C 597.637 1.52307 0.515681 0
M  V30 6391 O 598.827 1.71148 0.324656 0
M  V30 6392 C 595.959 3.36841 0.524482 0
M  V30 6393 H 597.152 2.75812 -1.17762 0
M  V30 6394 H 594.705 1.42232 -0.648064 0
M  V30 6395 H 595.44 2.93069 1.38855 0
M  V30 6396 H 595.225 3.92009 -0.0844299 0
M  V30 6397 H 596.715 4.07944 0.892838 0
M  V30 6398 N 597.152 0.631951 1.44375 0
M  V30 6399 C 598.563 0.219036 1.85411 0
M  V30 6400 C 598.914 -1.22974 1.52879 0
M  V30 6401 O 598.039 -1.93579 0.967266 0
M  V30 6402 C 598.634 0.39075 3.36539 0
M  V30 6403 C 597.193 0.0323351 3.76386 0
M  V30 6404 C 596.34 0.703744 2.68221 0
M  V30 6405 H 599.291 0.837056 1.3483 0
M  V30 6406 H 599.312 -0.370056 3.78696 0
M  V30 6407 H 598.824 1.44527 3.60185 0
M  V30 6408 H 596.925 -1.02042 3.58355 0
M  V30 6409 H 597.038 0.442969 4.77048 0
M  V30 6410 H 595.402 0.138974 2.54321 0
M  V30 6411 H 596.185 1.76088 2.947 0
M  V30 6412 N 598.631 -1.53133 0.372548 0
M  V30 6413 C 599.908 -1.93704 -0.271693 0
M  V30 6414 C 600.288 -1.30667 -1.65799 0
M  V30 6415 O 599.636 -0.46838 -2.23648 0
M  V30 6416 C 599.846 -3.47576 -0.314903 0
M  V30 6417 C 601.194 -4.20998 -0.551912 0
M  V30 6418 O 602.218 -3.53994 -0.39582 0
M  V30 6419 O 601.077 -5.39748 -0.85639 0
M  V30 6420 H 598.171 -0.810457 -0.164586 0
M  V30 6421 H 600.717 -1.6427 0.425838 0
M  V30 6422 H 599.489 -3.85749 0.656792 0
M  V30 6423 H 599.112 -3.83264 -1.05804 0
M  V30 6424 N 600.109 -0.101901 -1.5727 0
M  V30 6425 C 601.019 0.868647 -2.17926 0
M  V30 6426 C 602.035 1.30527 -1.1506 0
M  V30 6427 O 603.211 1.37178 -1.47459 0
M  V30 6428 C 600.276 2.10727 -2.75309 0
M  V30 6429 C 599.337 1.7242 -3.93154 0
M  V30 6430 C 598.57 2.90377 -4.47791 0
M  V30 6431 O 598.793 4.05305 -4.01353 0
M  V30 6432 O 597.727 2.6845 -5.38719 0
M  V30 6433 H 601.553 0.382544 -3.01281 0
M  V30 6434 H 599.138 0.122812 -1.48894 0
M  V30 6435 H 601.02 2.83303 -3.11958 0
M  V30 6436 H 599.695 2.58376 -1.94996 0
M  V30 6437 H 598.602 0.970039 -3.61305 0
M  V30 6438 H 599.935 1.29528 -4.74851 0
M  V30 6439 N 601.587 1.56661 0.17182 0
M  V30 6440 C 602.998 1.71652 0.734329 0
M  V30 6441 C 603.349 0.712335 1.82812 0
M  V30 6442 O 602.474 -0.126401 2.16031 0
M  V30 6443 C 603.069 3.11226 1.3388 0
M  V30 6444 C 601.628 3.27904 1.84813 0
M  V30 6445 C 600.775 2.67603 0.726917 0
M  V30 6446 H 603.726 1.5861 -0.0535665 0
M  V30 6447 H 603.747 3.09849 2.20849 0
M  V30 6448 H 603.259 3.8429 0.54249 0
M  V30 6449 H 601.36 2.59796 2.6709 0
M  V30 6450 H 601.473 4.35637 1.99392 0
M  V30 6451 H 599.837 2.274 1.14723 0
M  V30 6452 H 600.62 3.43252 -0.0575334 0
M  V30 6453 N 603.065 -0.440357 1.51323 0
M  V30 6454 C 604.481 -0.7766 1.39431 0
M  V30 6455 C 604.681 -1.95838 0.474296 0
M  V30 6456 O 603.737 -2.52398 -0.0716692 0
M  V30 6457 C 605.05 -1.05981 2.81405 0
M  V30 6458 C 606.598 -1.16442 2.90534 0
M  V30 6459 C 607.073 -1.48058 4.33408 0
M  V30 6460 N 608.564 -1.54988 4.36501 0
M  V30 6461 C 609.299 -1.81017 5.44078 0
M  V30 6462 N 608.795 -2.04858 6.61819 0
M  V30 6463 N 610.588 -1.82774 5.31554 0
M  V30 6464 H 602.739 0.338006 2.09693 0
M  V30 6465 H 605.002 0.0888072 0.943831 0
M  V30 6466 H 604.708 -0.264173 3.50706 0
M  V30 6467 H 604.582 -1.98822 3.20546 0
M  V30 6468 H 606.969 -1.95068 2.21432 0
M  V30 6469 H 607.05 -0.215088 2.54894 0
M  V30 6470 H 606.694 -0.699605 5.03059 0
M  V30 6471 H 606.624 -2.44192 4.66559 0
M  V30 6472 H 609.115 -1.38479 3.51613 0
M  V30 6473 H 609.428 -2.2408 7.396 0
M  V30 6474 H 607.773 -2.02187 6.6494 0
M  V30 6475 H 610.964 -1.63665 4.38556 0
M  V30 6476 H 611.137 -2.02722 6.15474 0
M  V30 6477 N 604.543 -1.41418 -0.695603 0
M  V30 6478 C 605.473 -1.46035 -1.82197 0
M  V30 6479 C 606.454 -0.319025 -1.67082 0
M  V30 6480 O 607.639 -0.530462 -1.86815 0
M  V30 6481 C 604.769 -1.34179 -3.20333 0
M  V30 6482 C 603.723 -2.46123 -3.50154 0
M  V30 6483 C 603.049 -2.19332 -4.87645 0
M  V30 6484 C 604.349 -3.88463 -3.49133 0
M  V30 6485 H 606.043 -2.40303 -1.78591 0
M  V30 6486 H 603.589 -1.15663 -0.857797 0
M  V30 6487 H 605.542 -1.36021 -3.98844 0
M  V30 6488 H 604.266 -0.363952 -3.24566 0
M  V30 6489 H 602.925 -2.43563 -2.73994 0
M  V30 6490 H 602.573 -1.19891 -4.88503 0
M  V30 6491 H 602.273 -2.94344 -5.08562 0
M  V30 6492 H 603.797 -2.22889 -5.68465 0
M  V30 6493 H 605.211 -3.92738 -4.17648 0
M  V30 6494 H 603.608 -4.63158 -3.81582 0
M  V30 6495 H 604.678 -4.16617 -2.48109 0
M  V30 6496 N 606.021 0.929856 -1.27246 0
M  V30 6497 C 607.437 1.20542 -1.04603 0
M  V30 6498 C 607.637 2.00276 0.221754 0
M  V30 6499 O 606.693 2.34835 0.927833 0
M  V30 6500 C 608.006 1.95566 -2.28417 0
M  V30 6501 C 609.554 2.08513 -2.33433 0
M  V30 6502 C 610.029 2.86943 -3.5697 0
M  V30 6503 N 611.52 2.94512 -3.57515 0
M  V30 6504 C 612.255 3.55656 -4.49774 0
M  V30 6505 N 611.751 4.18209 -5.52334 0
M  V30 6506 N 613.544 3.53038 -4.37402 0
M  V30 6507 H 605.695 0.397113 -2.08655 0
M  V30 6508 H 607.958 0.238277 -0.917566 0
M  V30 6509 H 607.664 1.44395 -3.20691 0
M  V30 6510 H 607.538 2.9619 -2.33563 0
M  V30 6511 H 609.925 2.58872 -1.41666 0
M  V30 6512 H 610.006 1.07117 -2.32292 0
M  V30 6513 H 609.65 2.37268 -4.49072 0
M  V30 6514 H 609.58 3.8862 -3.55362 0
M  V30 6515 H 612.071 2.50053 -2.83341 0
M  V30 6516 H 612.384 4.62796 -6.18902 0
M  V30 6517 H 610.729 4.16761 -5.56179 0
M  V30 6518 H 613.92 3.0337 -3.56489 0
M  V30 6519 H 614.093 4.004 -5.09493 0
M  V30 6520 N 607.499 1.09233 1.13605 0
M  V30 6521 C 608.91 0.846839 1.6639 0
M  V30 6522 C 609.261 -0.625031 1.85978 0
M  V30 6523 O 608.386 -1.48173 1.57714 0
M  V30 6524 C 608.981 1.5307 3.0225 0
M  V30 6525 C 607.54 1.33223 3.52035 0
M  V30 6526 C 606.687 1.58806 2.27323 0
M  V30 6527 H 609.638 1.25175 0.975541 0
M  V30 6528 H 609.659 0.96267 3.68121 0
M  V30 6529 H 609.171 2.60192 2.87961 0
M  V30 6530 H 607.272 0.282091 3.71531 0
M  V30 6531 H 607.385 2.0657 4.32279 0
M  V30 6532 H 605.749 1.01007 2.33815 0
M  V30 6533 H 606.532 2.67153 2.15602 0
M  V30 6534 N 608.977 -1.30795 0.87923 0
M  V30 6535 C 609.887 -2.32041 0.345565 0
M  V30 6536 C 610.903 -1.65103 -0.549265 0
M  V30 6537 O 612.079 -1.9645 -0.443763 0
M  V30 6538 C 609.144 -3.43944 -0.436245 0
M  V30 6539 C 608.205 -4.26521 0.48765 0
M  V30 6540 C 607.438 -5.33081 -0.256943 0
M  V30 6541 O 607.661 -5.50762 -1.48381 0
M  V30 6542 O 606.595 -6.00635 0.389985 0
M  V30 6543 H 610.421 -2.79627 1.18501 0
M  V30 6544 H 608.006 -1.3486 0.642885 0
M  V30 6545 H 609.888 -4.12128 -0.879119 0
M  V30 6546 H 608.563 -2.98504 -1.25208 0
M  V30 6547 H 607.47 -3.61057 0.979216 0
M  V30 6548 H 608.803 -4.75551 1.26933 0
M  V30 6549 N 610.455 -0.639598 -1.44038 0
M  V30 6550 C 611.703 -0.147188 -2.01563 0
M  V30 6551 C 612.024 1.2384 -1.50628 0
M  V30 6552 O 611.294 1.82452 -0.713316 0
M  V30 6553 H 609.874 -0.0514231 -0.745228 0
M  V30 6554 H 612.536 -0.828205 -1.76428 0
M  V30 6555 H 611.632 -0.121358 -3.11864 0
M  V30 6556 N 611.933 1.52934 -0.380664 0
M  V30 6557 C 612.843 2.29921 0.466192 0
M  V30 6558 C 613.859 1.36488 1.07922 0
M  V30 6559 O 615.035 1.69553 1.0869 0
M  V30 6560 C 612.1 3.08468 1.58266 0
M  V30 6561 C 611.161 4.17595 0.995627 0
M  V30 6562 C 610.394 4.92387 2.05889 0
M  V30 6563 O 610.617 4.67184 3.27254 0
M  V30 6564 O 609.551 5.77949 1.68102 0
M  V30 6565 H 613.377 3.03274 -0.160735 0
M  V30 6566 H 610.962 1.48698 -0.144617 0
M  V30 6567 H 612.844 3.57469 2.23145 0
M  V30 6568 H 611.519 2.37937 2.19471 0
M  V30 6569 H 610.426 3.72811 0.310332 0
M  V30 6570 H 611.759 4.90336 0.427918 0
M  V30 6571 N 613.412 0.11024 1.57214 0
M  V30 6572 C 614.342 -0.840002 2.17867 0
M  V30 6573 C 615.323 -1.28352 1.11624 0
M  V30 6574 O 616.508 -1.3477 1.39824 0
M  V30 6575 C 613.638 -2.09349 2.77111 0
M  V30 6576 C 612.592 -1.78807 3.8886 0
M  V30 6577 C 611.918 -3.11112 4.34872 0
M  V30 6578 C 613.218 -1.0632 5.11364 0
M  V30 6579 H 614.912 -0.334608 2.97524 0
M  V30 6580 H 612.458 -0.159502 1.43114 0
M  V30 6581 H 614.411 -2.76275 3.18198 0
M  V30 6582 H 613.135 -2.62198 1.9473 0
M  V30 6583 H 611.794 -1.14273 3.48335 0
M  V30 6584 H 611.442 -3.61877 3.49362 0
M  V30 6585 H 611.142 -2.91453 5.10224 0
M  V30 6586 H 612.666 -3.79171 4.78604 0
M  V30 6587 H 614.08 -1.63383 5.49526 0
M  V30 6588 H 612.477 -0.967876 5.92243 0
M  V30 6589 H 613.547 -0.0484569 4.84876 0
M  V30 6590 N 614.89 -1.56749 -0.16351 0
M  V30 6591 C 616.115 -1.86938 -0.898264 0
M  V30 6592 C 616.54 -0.697456 -1.74692 0
M  V30 6593 O 615.898 0.353327 -1.77824 0
M  V30 6594 C 615.946 -3.15599 -1.74441 0
M  V30 6595 O 615.05 -2.98371 -2.8469 0
M  V30 6596 H 614.391 -0.614659 -0.251178 0
M  V30 6597 H 616.921 -2.03979 -0.159298 0
M  V30 6598 H 616.931 -3.47202 -2.14277 0
M  V30 6599 H 615.606 -4.00505 -1.1211 0
M  V30 6600 H 614.183 -2.7814 -2.4838 0
M  V30 6601 N 616.368 0.432326 -1.51554 0
M  V30 6602 C 617.614 1.17997 -1.65675 0
M  V30 6603 C 617.969 1.88794 -0.37076 0
M  V30 6604 O 617.262 1.80817 0.633692 0
M  V30 6605 C 617.456 2.21907 -2.80164 0
M  V30 6606 C 617.285 1.6131 -4.19773 0
M  V30 6607 C 616.055 1.39585 -4.85638 0
M  V30 6608 C 618.253 1.08659 -5.0269 0
M  V30 6609 N 616.235 0.746374 -6.09346 0
M  V30 6610 C 617.606 0.562685 -6.17441 0
M  V30 6611 C 619.661 0.978831 -4.88184 0
M  V30 6612 C 618.364 -0.0584015 -7.19276 0
M  V30 6613 C 620.39 0.371631 -5.90231 0
M  V30 6614 C 619.752 -0.141711 -7.04257 0
M  V30 6615 H 615.851 0.419277 -0.660099 0
M  V30 6616 H 618.435 0.475809 -1.88797 0
M  V30 6617 H 616.606 2.89706 -2.58698 0
M  V30 6618 H 618.338 2.88867 -2.8344 0
M  V30 6619 H 615.093 1.65897 -4.43593 0
M  V30 6620 H 615.517 0.438934 -6.75576 0
M  V30 6621 H 620.159 1.36157 -4.00276 0
M  V30 6622 H 617.877 -0.453262 -8.06828 0
M  V30 6623 H 621.463 0.290086 -5.81076 0
M  V30 6624 H 620.343 -0.60417 -7.81869 0
M  V30 6625 N 617.846 1.41785 0.688094 0
M  V30 6626 C 618.809 1.43936 1.78368 0
M  V30 6627 C 619.809 0.328866 1.57401 0
M  V30 6628 O 620.999 0.589093 1.63937 0
M  V30 6629 C 618.131 1.25804 3.16838 0
M  V30 6630 H 619.324 2.41472 1.77852 0
M  V30 6631 H 616.877 1.28037 0.896448 0
M  V30 6632 H 617.612 0.291386 3.22988 0
M  V30 6633 H 617.397 2.06272 3.33458 0
M  V30 6634 H 618.887 1.30162 3.96797 0
M  V30 6635 N 619.324 -0.923095 1.27737 0
M  V30 6636 C 620.601 -1.64989 1.05062 0
M  V30 6637 C 620.981 -2.07018 -0.413124 0
M  V30 6638 O 620.329 -1.80797 -1.39731 0
M  V30 6639 C 620.539 -2.84847 2.01652 0
M  V30 6640 C 621.887 -3.56083 2.31279 0
M  V30 6641 O 622.911 -2.94981 1.99662 0
M  V30 6642 O 621.77 -4.66182 2.85196 0
M  V30 6643 H 618.864 -0.723357 0.400853 0
M  V30 6644 H 621.41 -0.973224 1.3902 0
M  V30 6645 H 620.182 -2.50814 3.00347 0
M  V30 6646 H 619.805 -3.60231 1.68284 0
M  V30 6647 N 620.802 -1.09834 -1.13024 0
M  V30 6648 C 622.218 -0.828875 -1.36388 0
M  V30 6649 C 622.418 0.554756 -1.93713 0
M  V30 6650 O 621.474 1.30882 -2.15931 0
M  V30 6651 C 622.787 -1.92352 -2.3113 0
M  V30 6652 C 624.335 -1.95124 -2.44735 0
M  V30 6653 C 624.81 -3.03745 -3.42787 0
M  V30 6654 N 626.301 -3.03012 -3.5034 0
M  V30 6655 C 627.036 -3.83699 -4.26101 0
M  V30 6656 N 626.532 -4.74306 -5.04981 0
M  V30 6657 N 628.325 -3.71942 -4.21445 0
M  V30 6658 H 620.476 -1.99029 -0.74169 0
M  V30 6659 H 622.739 -0.864557 -0.388903 0
M  V30 6660 H 622.445 -2.91906 -1.96172 0
M  V30 6661 H 622.319 -1.80536 -3.3119 0
M  V30 6662 H 624.706 -0.962069 -2.78977 0
M  V30 6663 H 624.787 -2.11018 -1.44586 0
M  V30 6664 H 624.431 -4.02878 -3.09276 0
M  V30 6665 H 624.361 -2.85094 -4.42752 0
M  V30 6666 H 626.852 -2.37352 -2.94062 0
M  V30 6667 H 627.165 -5.32446 -5.60108 0
M  V30 6668 H 625.51 -4.78339 -5.04199 0
M  V30 6669 H 628.701 -3.00513 -3.589 0
M  V30 6670 H 628.874 -4.35062 -4.80235 0
M  V30 6671 N 622.28 1.30327 -0.886154 0
M  V30 6672 C 623.228 2.30052 -0.343317 0
M  V30 6673 C 624.222 1.60212 0.550305 0
M  V30 6674 O 625.428 1.74674 0.434609 0
M  V30 6675 H 621.803 0.746306 -0.0923681 0
M  V30 6676 H 623.774 2.73294 -1.19804 0
M  V30 6677 C 622.523 3.45079 0.426107 0
M  V30 6678 H 621.846 3.99003 -0.25227 0
M  V30 6679 H 623.286 4.16931 0.771009 0
M  V30 6680 C 621.745 2.95195 1.62363 0
M  V30 6681 O 622.275 2.95323 2.723 0
M  V30 6682 N 620.481 2.51192 1.4612 0
M  V30 6683 H 620.028 2.51286 0.566832 0
M  V30 6684 H 619.986 2.18173 2.2638 0
M  V30 6685 N 623.758 0.647228 1.43697 0
M  V30 6686 C 624.708 -0.0702191 2.27892 0
M  V30 6687 C 625.692 -0.800601 1.39568 0
M  V30 6688 O 626.884 -0.684055 1.63247 0
M  V30 6689 C 624.013 -1.04008 3.27165 0
M  V30 6690 C 623.099 -0.308484 4.22977 0
M  V30 6691 N 623.49 0.671721 5.0132 0
M  V30 6692 C 621.788 -0.550751 4.42586 0
M  V30 6693 C 622.489 1.10543 5.711 0
M  V30 6694 N 621.465 0.440903 5.41809 0
M  V30 6695 H 625.267 0.682031 2.85877 0
M  V30 6696 H 622.781 0.474022 1.55328 0
M  V30 6697 H 624.778 -1.56881 3.86256 0
M  V30 6698 H 623.438 -1.79246 2.70742 0
M  V30 6699 H 624.449 1.0502 5.0714 0
M  V30 6700 H 621.126 -1.28476 3.97241 0
M  V30 6701 H 622.516 1.91614 6.43998 0
M  V30 6702 N 625.236 -1.5273 0.388769 0
M  V30 6703 C 626.166 -2.29353 -0.438111 0
M  V30 6704 C 627.147 -1.32719 -1.06394 0
M  V30 6705 O 628.332 -1.61612 -1.07681 0
M  V30 6706 C 625.462 -3.09995 -1.56589 0
M  V30 6707 C 624.416 -4.14509 -1.06613 0
M  V30 6708 C 623.742 -4.83372 -2.28594 0
M  V30 6709 C 625.042 -5.22127 -0.134459 0
M  V30 6710 H 626.736 -2.98723 0.201206 0
M  V30 6711 H 624.282 -1.43665 0.0982089 0
M  V30 6712 H 626.235 -3.62357 -2.15118 0
M  V30 6713 H 624.959 -2.38357 -2.23279 0
M  V30 6714 H 623.618 -3.63128 -0.503383 0
M  V30 6715 H 623.266 -4.08283 -2.93792 0
M  V30 6716 H 622.966 -5.54012 -1.95817 0
M  V30 6717 H 624.49 -5.38538 -2.87766 0
M  V30 6718 H 625.904 -5.69851 -0.627914 0
M  V30 6719 H 624.301 -6.00011 0.103534 0
M  V30 6720 H 625.371 -4.77971 0.816798 0
M  V30 6721 N 626.714 -0.118576 -1.57153 0
M  V30 6722 C 627.646 0.862247 -2.12363 0
M  V30 6723 C 628.659 1.23025 -1.06625 0
M  V30 6724 O 629.848 1.17927 -1.33998 0
M  V30 6725 C 626.948 2.16425 -2.60794 0
M  V30 6726 C 626.121 1.96801 -3.90626 0
M  V30 6727 C 625.18 3.10726 -4.2466 0
M  V30 6728 O 624.206 2.83659 -4.93484 0
M  V30 6729 N 625.408 4.37147 -3.81946 0
M  V30 6730 H 628.173 0.390564 -2.97144 0
M  V30 6731 H 625.734 0.0658591 -1.61766 0
M  V30 6732 H 627.726 2.91633 -2.80593 0
M  V30 6733 H 626.296 2.54943 -1.80895 0
M  V30 6734 H 625.516 1.05787 -3.7974 0
M  V30 6735 H 626.804 1.80993 -4.7552 0
M  V30 6736 H 626.202 4.62014 -3.26435 0
M  V30 6737 H 624.759 5.09229 -4.06853 0
M  V30 6738 N 628.193 1.56834 0.155195 0
M  V30 6739 C 629.421 1.87049 0.884326 0
M  V30 6740 C 629.836 0.705839 1.7511 0
M  V30 6741 O 629.193 -0.324641 1.79589 0
M  V30 6742 C 629.244 3.1644 1.74781 0
M  V30 6743 O 628.965 4.28417 0.915978 0
M  V30 6744 C 630.466 3.60113 2.58522 0
M  V30 6745 H 627.686 0.620196 0.25612 0
M  V30 6746 H 630.23 2.03946 0.150445 0
M  V30 6747 H 628.385 3.01321 2.43484 0
M  V30 6748 H 628.799 5.02353 1.50803 0
M  V30 6749 H 630.273 4.53508 3.14698 0
M  V30 6750 H 630.75 2.85005 3.34169 0
M  V30 6751 H 631.356 3.77898 1.95124 0
M  V30 6752 N 629.671 -0.424282 1.51781 0
M  V30 6753 C 630.621 -1.51464 1.70419 0
M  V30 6754 C 631.605 -1.50911 0.558094 0
M  V30 6755 O 632.797 -1.57143 0.814552 0
M  V30 6756 C 629.926 -2.89539 1.84451 0
M  V30 6757 C 629.012 -2.94798 3.04886 0
M  V30 6758 N 629.403 -2.69778 4.27848 0
M  V30 6759 C 627.701 -3.25962 3.04408 0
M  V30 6760 C 628.402 -2.81216 5.09208 0
M  V30 6761 N 627.378 -3.13447 4.44131 0
M  V30 6762 H 631.18 -1.30892 2.63144 0
M  V30 6763 H 628.694 -0.631783 1.49607 0
M  V30 6764 H 630.691 -3.67998 1.95917 0
M  V30 6765 H 629.351 -3.11121 0.929168 0
M  V30 6766 H 630.362 -2.44458 4.56575 0
M  V30 6767 H 627.039 -3.53236 2.22555 0
M  V30 6768 H 628.429 -2.65715 6.17127 0
M  V30 6769 N 631.149 -1.42148 -0.680565 0
M  V30 6770 C 632.396 -1.4231 -1.44063 0
M  V30 6771 C 632.724 -0.037488 -1.94464 0
M  V30 6772 O 631.979 0.953184 -1.70918 0
M  V30 6773 C 632.278 -2.38945 -2.65782 0
M  V30 6774 C 631.944 -3.85455 -2.33956 0
M  V30 6775 C 630.606 -4.25364 -2.24987 0
M  V30 6776 C 632.958 -4.77895 -2.08004 0
M  V30 6777 C 630.286 -5.55701 -1.88184 0
M  V30 6778 C 632.638 -6.08568 -1.72706 0
M  V30 6779 C 631.302 -6.47482 -1.62244 0
M  V30 6780 H 630.572 -0.520748 -0.527164 0
M  V30 6781 H 633.219 -1.7505 -0.776524 0
M  V30 6782 H 631.524 -1.99511 -3.37198 0
M  V30 6783 H 633.221 -2.36336 -3.23954 0
M  V30 6784 H 629.811 -3.53855 -2.41836 0
M  V30 6785 H 633.995 -4.47854 -2.1387 0
M  V30 6786 H 629.251 -5.84718 -1.78648 0
M  V30 6787 H 633.425 -6.79688 -1.5165 0
M  V30 6788 H 631.052 -7.48387 -1.33496 0
M  V30 6789 N 632.627 0.916307 -1.28225 0
M  V30 6790 C 634.043 1.19425 -1.05876 0
M  V30 6791 C 634.243 2.005 0.2005 0
M  V30 6792 O 633.299 2.35806 0.902873 0
M  V30 6793 C 634.612 1.93133 -2.30478 0
M  V30 6794 C 636.16 2.06026 -2.35632 0
M  V30 6795 C 636.635 2.83141 -3.59994 0
M  V30 6796 N 638.126 2.90704 -3.60618 0
M  V30 6797 C 638.861 3.50865 -4.53521 0
M  V30 6798 N 638.357 4.12327 -5.56739 0
M  V30 6799 N 640.15 3.48379 -4.41122 0
M  V30 6800 H 632.301 0.37496 -2.09064 0
M  V30 6801 H 634.564 0.228531 -0.920042 0
M  V30 6802 H 634.27 1.40985 -3.22205 0
M  V30 6803 H 634.144 2.93696 -2.36691 0
M  V30 6804 H 636.531 2.57355 -1.44404 0
M  V30 6805 H 636.612 1.04647 -2.33415 0
M  V30 6806 H 636.256 2.32492 -4.51564 0
M  V30 6807 H 636.186 3.84829 -3.59464 0
M  V30 6808 H 638.677 2.47034 -2.85977 0
M  V30 6809 H 638.99 4.56205 -6.23776 0
M  V30 6810 H 637.335 4.10839 -5.60568 0
M  V30 6811 H 640.526 2.99572 -3.59686 0
M  V30 6812 H 640.699 3.94974 -5.13712 0
M  V30 6813 N 634.105 1.10431 1.1244 0
M  V30 6814 C 635.345 0.856518 1.85589 0
M  V30 6815 C 635.709 -0.606905 1.82156 0
M  V30 6816 O 636.91 -0.97105 2.50647 0
M  V30 6817 C 635.181 1.38977 3.29272 0
M  V30 6818 S 636.74 1.27739 4.19795 0
M  V30 6819 H 633.558 0.309509 0.640098 0
M  V30 6820 H 636.16 1.40975 1.35449 0
M  V30 6821 H 634.864 2.44887 3.2933 0
M  V30 6822 H 634.395 0.833112 3.84477 0
M  V30 6823 H 636.41 0.235051 4.95643 0
M  V30 6824 N 635.583 -1.29855 0.893053 0
M  V30 6825 C 636.515 -2.26911 0.32311 0
M  V30 6826 C 637.528 -1.54039 -0.526858 0
M  V30 6827 O 638.717 -1.75132 -0.345095 0
M  V30 6828 C 635.817 -3.34266 -0.558509 0
M  V30 6829 C 634.99 -4.36601 0.264222 0
M  V30 6830 C 634.049 -5.23326 -0.549171 0
M  V30 6831 O 633.075 -5.69192 0.0309883 0
M  V30 6832 N 634.277 -5.50008 -1.85664 0
M  V30 6833 H 637.042 -2.76455 1.15726 0
M  V30 6834 H 634.603 -1.4312 0.756859 0
M  V30 6835 H 636.595 -3.89211 -1.1089 0
M  V30 6836 H 635.165 -2.8459 -1.29334 0
M  V30 6837 H 634.385 -3.81409 0.996046 0
M  V30 6838 H 635.673 -5.02019 0.827906 0
M  V30 6839 H 635.071 -5.14542 -2.35081 0
M  V30 6840 H 633.628 -6.07796 -2.35431 0
M  V30 6841 N 637.061 -0.65484 -1.43351 0
M  V30 6842 C 638.301 -0.172514 -2.03671 0
M  V30 6843 C 638.665 1.19154 -1.50553 0
M  V30 6844 O 639.866 1.76737 -2.02528 0
M  V30 6845 C 638.137 -0.183982 -3.56926 0
M  V30 6846 S 639.696 0.230262 -4.38195 0
M  V30 6847 H 636.514 -0.0727503 -0.707268 0
M  V30 6848 H 639.116 -0.863537 -1.75395 0
M  V30 6849 H 637.82 -1.17945 -3.93087 0
M  V30 6850 H 637.351 0.527527 -3.89847 0
M  V30 6851 H 639.366 1.46874 -4.73965 0
M  V30 6852 N 638.539 1.52521 -0.396863 0
M  V30 6853 C 639.769 2.05792 0.182485 0
M  V30 6854 C 640.177 1.26784 1.40436 0
M  V30 6855 O 639.52 0.309617 1.81072 0
M  V30 6856 C 639.582 3.54291 0.609781 0
M  V30 6857 C 639.246 4.5426 -0.499674 0
M  V30 6858 C 640.243 5.01812 -1.35944 0
M  V30 6859 C 637.928 4.97827 -0.668864 0
M  V30 6860 C 639.922 5.91562 -2.37346 0
M  V30 6861 C 637.609 5.87376 -1.68621 0
M  V30 6862 C 638.607 6.34137 -2.53692 0
M  V30 6863 O 638.295 7.21915 -3.53686 0
M  V30 6864 H 638.027 0.675362 0.0293583 0
M  V30 6865 H 640.581 1.97539 -0.56281 0
M  V30 6866 H 638.811 3.60188 1.40717 0
M  V30 6867 H 640.5 3.90267 1.11565 0
M  V30 6868 H 641.266 4.68879 -1.24008 0
M  V30 6869 H 637.145 4.60997 -0.0163971 0
M  V30 6870 H 640.689 6.27983 -3.03782 0
M  V30 6871 H 636.586 6.19723 -1.80593 0
M  V30 6872 H 637.354 7.39996 -3.49784 0
M  V30 6873 N 640.017 0.126909 1.57088 0
M  V30 6874 C 640.947 -0.816847 2.18746 0
M  V30 6875 C 641.928 -1.27161 1.12979 0
M  V30 6876 O 643.113 -1.33279 1.41246 0
M  V30 6877 C 640.243 -2.06398 2.79315 0
M  V30 6878 C 639.197 -1.74673 3.90735 0
M  V30 6879 C 638.523 -3.06482 4.38147 0
M  V30 6880 C 639.823 -1.0089 5.12463 0
M  V30 6881 H 641.517 -0.303032 2.97863 0
M  V30 6882 H 639.063 -0.144314 1.43275 0
M  V30 6883 H 641.016 -2.72885 3.2111 0
M  V30 6884 H 639.74 -2.60118 1.975 0
M  V30 6885 H 638.399 -1.10572 3.49527 0
M  V30 6886 H 638.047 -3.58152 3.5318 0
M  V30 6887 H 637.747 -2.86025 5.13287 0
M  V30 6888 H 639.271 -3.74073 4.82599 0
M  V30 6889 H 640.685 -1.57546 5.51228 0
M  V30 6890 H 639.082 -0.905006 5.93237 0
M  V30 6891 H 640.152 0.00297335 4.849 0
M  V30 6892 N 641.495 -1.56914 -0.146875 0
M  V30 6893 C 642.743 -1.82994 -0.85777 0
M  V30 6894 C 643.064 -0.707814 -1.817 0
M  V30 6895 O 642.334 0.270521 -1.94023 0
M  V30 6896 H 640.914 -0.675106 -0.319751 0
M  V30 6897 H 643.576 -1.9439 -0.140849 0
M  V30 6898 H 642.672 -2.77928 -1.41994 0
M  V30 6899 N 642.974 0.416227 -1.52004 0
M  V30 6900 C 644.22 1.16233 -1.66917 0
M  V30 6901 C 644.575 1.8839 -0.390763 0
M  V30 6902 O 643.868 1.81479 0.614478 0
M  V30 6903 C 644.062 2.18923 -2.82502 0
M  V30 6904 C 643.891 1.56849 -4.2146 0
M  V30 6905 C 642.661 1.34426 -4.87091 0
M  V30 6906 C 644.859 1.03322 -5.03815 0
M  V30 6907 N 642.841 0.681703 -6.10103 0
M  V30 6908 C 644.212 0.497165 -6.18003 0
M  V30 6909 C 646.267 0.926997 -4.89194 0
M  V30 6910 C 644.97 -0.134687 -7.19174 0
M  V30 6911 C 646.996 0.309009 -5.90592 0
M  V30 6912 C 646.358 -0.216399 -7.04068 0
M  V30 6913 H 642.457 0.412252 -0.664509 0
M  V30 6914 H 645.041 0.455758 -1.89291 0
M  V30 6915 H 643.212 2.86946 -2.61756 0
M  V30 6916 H 644.944 2.85844 -2.86488 0
M  V30 6917 H 641.699 1.61183 -4.45328 0
M  V30 6918 H 642.123 0.367256 -6.76003 0
M  V30 6919 H 646.765 1.31904 -4.01698 0
M  V30 6920 H 644.483 -0.538811 -8.06302 0
M  V30 6921 H 648.069 0.228438 -5.81351 0
M  V30 6922 H 646.949 -0.687064 -7.81184 0
M  V30 6923 N 644.452 1.42507 0.673017 0
M  V30 6924 C 645.7 1.42789 1.43023 0
M  V30 6925 C 646.021 0.0459738 1.94946 0
M  V30 6926 O 645.291 -0.915765 1.73178 0
M  V30 6927 H 643.871 0.525657 0.530748 0
M  V30 6928 H 646.533 1.77944 0.795113 0
M  V30 6929 H 645.629 2.12872 2.28237 0
M  V30 6930 N 645.93 -0.909495 1.28709 0
M  V30 6931 C 647.178 -1.65577 1.15882 0
M  V30 6932 C 647.499 -1.928 -0.292108 0
M  V30 6933 O 646.769 -1.54716 -1.20166 0
M  V30 6934 H 645.349 -0.613714 0.425869 0
M  V30 6935 H 648.011 -1.09108 1.61498 0
M  V30 6936 H 647.107 -2.61634 1.70159 0
M  V30 6937 N 647.408 -1.11026 -1.11852 0
M  V30 6938 C 648.318 -0.777252 -2.2135 0
M  V30 6939 C 649.334 0.227821 -1.72502 0
M  V30 6940 O 650.51 0.0650587 -2.01295 0
M  V30 6941 C 647.575 -0.220668 -3.45997 0
M  V30 6942 C 646.636 -1.2838 -4.09655 0
M  V30 6943 C 645.869 -0.753678 -5.28352 0
M  V30 6944 O 646.092 0.417779 -5.68868 0
M  V30 6945 O 645.026 -1.51647 -5.82483 0
M  V30 6946 H 648.852 -1.69141 -2.5224 0
M  V30 6947 H 646.437 -0.885836 -1.20305 0
M  V30 6948 H 648.319 0.0855756 -4.21313 0
M  V30 6949 H 646.994 0.666262 -3.16769 0
M  V30 6950 H 645.901 -1.64299 -3.3609 0
M  V30 6951 H 647.234 -2.14396 -4.43052 0
M  V30 6952 N 648.886 1.2938 -0.899927 0
M  V30 6953 C 649.818 2.26737 -0.335139 0
M  V30 6954 C 650.831 1.54316 0.518681 0
M  V30 6955 O 652.02 1.75313 0.335803 0
M  V30 6956 C 649.12 3.34558 0.540774 0
M  V30 6957 C 648.293 4.36455 -0.287372 0
M  V30 6958 C 647.352 5.2361 0.52141 0
M  V30 6959 O 646.378 5.69167 -0.0611735 0
M  V30 6960 N 647.58 5.50985 1.82745 0
M  V30 6961 H 650.345 2.75838 -1.17191 0
M  V30 6962 H 647.906 1.42716 -0.764438 0
M  V30 6963 H 649.898 3.89794 1.08825 0
M  V30 6964 H 648.468 2.85272 1.27823 0
M  V30 6965 H 647.688 3.80875 -1.01626 0
M  V30 6966 H 648.976 5.01573 -0.854518 0
M  V30 6967 H 648.374 5.15781 2.32349 0
M  V30 6968 H 646.931 6.09036 2.32204 0
M  V30 6969 N 650.364 0.662433 1.43002 0
M  V30 6970 C 651.604 0.183312 2.03576 0
M  V30 6971 C 651.968 -1.18354 1.51183 0
M  V30 6972 O 653.169 -1.7566 2.03462 0
M  V30 6973 C 651.44 0.202908 3.56824 0
M  V30 6974 S 652.999 -0.20702 4.38311 0
M  V30 6975 H 649.817 0.0765001 0.706872 0
M  V30 6976 H 652.419 0.872827 1.74934 0
M  V30 6977 H 651.123 1.20028 3.92456 0
M  V30 6978 H 650.654 -0.506845 3.90121 0
M  V30 6979 H 652.669 -1.44358 4.74737 0
M  V30 6980 N 651.842 -1.52309 0.404946 0
M  V30 6981 C 652.774 -2.24579 -0.45791 0
M  V30 6982 C 653.787 -1.2739 -1.01369 0
M  V30 6983 O 654.976 -1.53363 -0.91335 0
M  V30 6984 C 652.076 -2.9608 -1.64893 0
M  V30 6985 C 651.249 -4.20106 -1.21777 0
M  V30 6986 C 650.308 -4.74468 -2.27523 0
M  V30 6987 O 649.334 -5.37157 -1.88285 0
M  V30 6988 N 650.536 -4.55678 -3.59635 0
M  V30 6989 H 653.301 -2.99265 0.161341 0
M  V30 6990 H 650.862 -1.60228 0.232107 0
M  V30 6991 H 652.854 -3.29344 -2.35191 0
M  V30 6992 H 651.424 -2.24606 -2.17419 0
M  V30 6993 H 650.644 -3.92704 -0.343071 0
M  V30 6994 H 651.932 -5.00658 -0.906596 0
M  V30 6995 H 651.33 -4.05673 -3.94266 0
M  V30 6996 H 649.887 -4.9339 -4.25922 0
M  V30 6997 N 653.32 -0.135238 -1.57019 0
M  V30 6998 C 654.566 0.513232 -1.96818 0
M  V30 6999 C 654.921 1.63245 -1.01827 0
M  V30 7000 O 654.214 1.91532 -0.0511756 0
M  V30 7001 C 654.408 1.07694 -3.40788 0
M  V30 7002 C 654.237 0.0138667 -4.49698 0
M  V30 7003 C 653.007 -0.423532 -5.03522 0
M  V30 7004 C 655.205 -0.77322 -5.08454 0
M  V30 7005 N 653.187 -1.47068 -5.96024 0
M  V30 7006 C 654.558 -1.67115 -5.97053 0
M  V30 7007 C 656.613 -0.822313 -4.91063 0
M  V30 7008 C 655.316 -2.61395 -6.70123 0
M  V30 7009 C 657.342 -1.75288 -5.64826 0
M  V30 7010 C 656.704 -2.63836 -6.53123 0
M  V30 7011 H 652.803 0.156956 -0.766087 0
M  V30 7012 H 655.387 -0.227118 -1.93371 0
M  V30 7013 H 653.558 1.78694 -3.44852 0
M  V30 7014 H 655.29 1.69106 -3.67675 0
M  V30 7015 H 652.045 -0.0280202 -4.73592 0
M  V30 7016 H 652.469 -1.99366 -6.46979 0
M  V30 7017 H 657.111 -0.151822 -4.22527 0
M  V30 7018 H 654.829 -3.2945 -7.37895 0
M  V30 7019 H 658.415 -1.79652 -5.53368 0
M  V30 7020 H 657.295 -3.34672 -7.092 0
M  V30 7021 N 654.798 1.5699 0.138552 0
M  V30 7022 C 656.075 1.74741 0.87891 0
M  V30 7023 C 656.455 0.705522 1.98961 0
M  V30 7024 O 655.803 -0.274066 2.2685 0
M  V30 7025 C 656.013 3.1909 1.4136 0
M  V30 7026 C 657.361 3.81023 1.87368 0
M  V30 7027 O 658.385 3.22571 1.51084 0
M  V30 7028 O 657.244 4.83722 2.54312 0
M  V30 7029 H 654.338 0.714781 0.415953 0
M  V30 7030 H 656.884 1.69248 0.123817 0
M  V30 7031 H 655.656 3.86424 0.61579 0
M  V30 7032 H 655.279 3.29043 2.23196 0
M  V30 7033 N 656.276 -0.40816 1.52223 0
M  V30 7034 C 657.692 -0.74685 1.41047 0
M  V30 7035 C 657.892 -1.94788 0.51573 0
M  V30 7036 O 656.948 -2.52494 -0.0181156 0
M  V30 7037 C 658.261 -0.999878 2.83589 0
M  V30 7038 C 659.809 -1.10253 2.92939 0
M  V30 7039 C 660.284 -1.38832 4.36451 0
M  V30 7040 N 661.775 -1.45694 4.3969 0
M  V30 7041 C 662.51 -1.69435 5.47795 0
M  V30 7042 N 662.006 -1.90774 6.66016 0
M  V30 7043 N 663.799 -1.71458 5.35312 0
M  V30 7044 H 655.95 0.382409 2.08929 0
M  V30 7045 H 658.213 0.108807 0.941735 0
M  V30 7046 H 657.919 -0.189723 3.51188 0
M  V30 7047 H 657.793 -1.91978 3.24691 0
M  V30 7048 H 660.18 -1.90328 2.2552 0
M  V30 7049 H 660.261 -0.160973 2.55293 0
M  V30 7050 H 659.905 -0.592741 5.04429 0
M  V30 7051 H 659.835 -2.34241 4.71634 0
M  V30 7052 H 662.326 -1.3099 3.54472 0
M  V30 7053 H 662.639 -2.08342 7.44186 0
M  V30 7054 H 660.984 -1.88037 6.69079 0
M  V30 7055 H 664.175 -1.54326 4.41929 0
M  V30 7056 H 664.348 -1.89621 6.19635 0
M  V30 7057 N 657.755 -1.42862 -0.66545 0
M  V30 7058 C 659.171 -1.25993 -0.979687 0
M  V30 7059 C 659.371 -0.170831 -2.00775 0
M  V30 7060 O 658.427 0.454827 -2.4837 0
M  V30 7061 C 659.74 -2.62005 -1.47559 0
M  V30 7062 C 661.288 -2.69437 -1.59288 0
M  V30 7063 C 661.763 -4.05838 -2.12272 0
M  V30 7064 N 663.254 -4.0784 -2.19592 0
M  V30 7065 C 663.989 -5.10205 -2.61684 0
M  V30 7066 N 663.485 -6.22949 -3.03161 0
M  V30 7067 N 665.278 -4.9756 -2.61516 0
M  V30 7068 H 657.429 -2.12395 0.0150493 0
M  V30 7069 H 659.692 -0.946355 -0.0558187 0
M  V30 7070 H 659.398 -3.42605 -0.794654 0
M  V30 7071 H 659.272 -2.86566 -2.45275 0
M  V30 7072 H 661.659 -1.89178 -2.26486 0
M  V30 7073 H 661.74 -2.48655 -0.600374 0
M  V30 7074 H 661.384 -4.86559 -1.4568 0
M  V30 7075 H 661.314 -4.23977 -3.12331 0
M  V30 7076 H 663.805 -3.26452 -1.90361 0
M  V30 7077 H 664.118 -6.96899 -3.33993 0
M  V30 7078 H 662.463 -6.2644 -3.00995 0
M  V30 7079 H 665.654 -4.08551 -2.28481 0
M  V30 7080 H 665.827 -5.77468 -2.93999 0
M  V30 7081 N 659.233 0.902656 -1.29189 0
M  V30 7082 C 660.649 1.18296 -1.07137 0
M  V30 7083 C 660.849 2.00701 0.179223 0
M  V30 7084 O 659.905 2.3675 0.877812 0
M  V30 7085 C 661.218 1.90677 -2.32514 0
M  V30 7086 C 662.766 2.03515 -2.37804 0
M  V30 7087 C 663.241 2.79307 -3.62976 0
M  V30 7088 N 664.732 2.86862 -3.63681 0
M  V30 7089 C 665.467 3.46035 -4.57217 0
M  V30 7090 N 664.963 4.06399 -5.61081 0
M  V30 7091 N 666.756 3.43681 -4.44792 0
M  V30 7092 H 658.907 0.352765 -2.0945 0
M  V30 7093 H 661.17 0.21876 -0.922414 0
M  V30 7094 H 660.876 1.3756 -3.23682 0
M  V30 7095 H 660.75 2.91169 -2.39793 0
M  V30 7096 H 663.137 2.55809 -1.47125 0
M  V30 7097 H 663.218 1.02166 -2.34512 0
M  V30 7098 H 662.862 2.2769 -4.54004 0
M  V30 7099 H 662.792 3.80995 -3.63525 0
M  V30 7100 H 665.283 2.43987 -2.88581 0
M  V30 7101 H 665.596 4.49564 -6.2858 0
M  V30 7102 H 663.941 4.0487 -5.64894 0
M  V30 7103 H 667.132 2.9574 -3.62843 0
M  V30 7104 H 667.305 3.89503 -5.17872 0
M  V30 7105 N 660.711 1.11618 1.11262 0
M  V30 7106 C 661.674 0.779447 2.15539 0
M  V30 7107 C 662.674 -0.202081 1.59525 0
M  V30 7108 O 663.864 0.0226356 1.74185 0
M  V30 7109 C 660.996 0.15674 3.40539 0
M  V30 7110 H 662.189 1.70324 2.4684 0
M  V30 7111 H 659.742 0.918298 1.26479 0
M  V30 7112 H 660.477 -0.777186 3.1485 0
M  V30 7113 H 660.262 0.863308 3.82478 0
M  V30 7114 H 661.752 -0.062661 4.17553 0
M  V30 7115 N 662.189 -1.289 0.906776 0
M  V30 7116 C 663.152 -2.25777 0.394656 0
M  V30 7117 C 664.152 -1.53621 -0.475119 0
M  V30 7118 O 665.342 -1.71949 -0.279165 0
M  V30 7119 C 662.474 -3.38113 -0.43499 0
M  V30 7120 H 663.667 -2.72592 1.25033 0
M  V30 7121 H 661.22 -1.40463 0.685547 0
M  V30 7122 H 661.955 -2.96648 -1.31036 0
M  V30 7123 H 661.74 -3.91647 0.188334 0
M  V30 7124 H 663.23 -4.10168 -0.784365 0
M  V30 7125 N 663.667 -0.670007 -1.42649 0
M  V30 7126 C 664.915 -0.18991 -2.01206 0
M  V30 7127 C 665.236 1.20617 -1.53221 0
M  V30 7128 O 664.506 1.80898 -0.751856 0
M  V30 7129 H 663.086 -0.0672189 -0.743969 0
M  V30 7130 H 665.748 -0.865442 -1.74631 0
M  V30 7131 H 664.844 -0.187481 -3.11536 0
M  V30 7132 N 665.145 1.52092 -0.413018 0
M  V30 7133 C 666.393 2.01456 0.161178 0
M  V30 7134 C 666.714 1.30034 1.45314 0
M  V30 7135 O 665.984 0.427435 1.9118 0
M  V30 7136 H 664.564 0.744376 0.0625526 0
M  V30 7137 H 667.226 1.86974 -0.550151 0
M  V30 7138 H 666.322 3.1008 0.354517 0
M  V30 7139 N 666.623 0.143563 1.56945 0
M  V30 7140 C 667.586 -0.783295 2.154 0
M  V30 7141 C 668.586 -1.17763 1.09492 0
M  V30 7142 O 669.776 -1.09912 1.35148 0
M  V30 7143 C 666.908 -2.06248 2.7143 0
M  V30 7144 H 668.101 -0.274863 2.98638 0
M  V30 7145 H 665.654 -0.105859 1.55941 0
M  V30 7146 H 666.389 -2.61466 1.91849 0
M  V30 7147 H 666.174 -1.78897 3.4891 0
M  V30 7148 H 667.664 -2.72453 3.16479 0
M  V30 7149 N 668.101 -1.57061 -0.130224 0
M  V30 7150 C 669.326 -1.88802 -0.858409 0
M  V30 7151 C 669.751 -0.734353 -1.73173 0
M  V30 7152 O 669.109 0.315529 -1.78533 0
M  V30 7153 C 669.157 -3.19228 -1.67708 0
M  V30 7154 O 668.261 -3.04343 -2.78297 0
M  V30 7155 H 667.602 -0.619849 -0.238083 0
M  V30 7156 H 670.132 -2.04271 -0.115995 0
M  V30 7157 H 670.142 -3.51669 -2.06864 0
M  V30 7158 H 668.817 -4.02793 -1.0359 0
M  V30 7159 H 667.394 -2.83346 -2.42425 0
M  V30 7160 N 669.579 0.400081 -1.52437 0
M  V30 7161 C 670.827 1.14392 -1.6661 0
M  V30 7162 C 671.148 1.90792 -0.402927 0
M  V30 7163 O 670.418 1.87042 0.582425 0
M  V30 7164 H 668.998 0.425275 -0.614125 0
M  V30 7165 H 671.66 0.455076 -1.89513 0
M  V30 7166 H 670.756 1.85298 -2.51139 0
M  V30 7167 N 671.057 1.43213 0.657864 0
M  V30 7168 C 672.02 1.47687 1.75275 0
M  V30 7169 C 673.02 0.362179 1.56668 0
M  V30 7170 O 674.21 0.623734 1.62651 0
M  V30 7171 C 671.342 1.32497 3.14098 0
M  V30 7172 H 672.535 2.4519 1.7269 0
M  V30 7173 H 670.088 1.2991 0.869087 0
M  V30 7174 H 670.823 0.359831 3.22298 0
M  V30 7175 H 670.608 2.13299 3.29008 0
M  V30 7176 H 672.098 1.38549 3.93946 0
M  V30 7177 N 672.536 -0.895792 1.29666 0
M  V30 7178 C 673.782 -1.64921 1.19049 0
M  V30 7179 C 674.137 -1.90707 -0.254678 0
M  V30 7180 O 673.43 -1.5092 -1.18041 0
M  V30 7181 C 673.624 -3.00075 1.94139 0
M  V30 7182 C 673.453 -2.87482 3.4581 0
M  V30 7183 C 672.223 -2.88041 4.15163 0
M  V30 7184 C 674.421 -2.64224 4.41237 0
M  V30 7185 N 672.403 -2.66226 5.5317 0
M  V30 7186 C 673.774 -2.51427 5.66732 0
M  V30 7187 C 675.829 -2.49362 4.30956 0
M  V30 7188 C 674.532 -2.25281 6.83111 0
M  V30 7189 C 676.558 -2.246 5.47091 0
M  V30 7190 C 675.92 -2.12571 6.7156 0
M  V30 7191 H 672.019 -0.608926 0.490646 0
M  V30 7192 H 674.603 -1.05648 1.63544 0
M  V30 7193 H 672.774 -3.574 1.52052 0
M  V30 7194 H 674.506 -3.64544 1.75754 0
M  V30 7195 H 671.261 -2.99471 3.66898 0
M  V30 7196 H 671.685 -2.58361 6.25762 0
M  V30 7197 H 676.327 -2.57403 3.35415 0
M  V30 7198 H 674.045 -2.15978 7.78704 0
M  V30 7199 H 677.631 -2.13939 5.41037 0
M  V30 7200 H 676.511 -1.93676 7.59907 0
M  V30 7201 N 674.014 -1.12206 -1.10668 0
M  V30 7202 C 674.977 -0.790867 -2.15123 0
M  V30 7203 C 675.977 0.193618 -1.5963 0
M  V30 7204 O 677.167 -0.0318728 -1.74171 0
M  V30 7205 C 674.299 -0.174797 -3.40452 0
M  V30 7206 H 675.492 -1.7163 -2.45933 0
M  V30 7207 H 673.045 -0.924993 -1.2599 0
M  V30 7208 H 673.78 0.760478 -3.15257 0
M  V30 7209 H 673.565 -0.88358 -3.82015 0
M  V30 7210 H 675.055 0.0405162 -4.1758 0
M  V30 7211 N 675.492 1.28418 -0.913599 0
M  V30 7212 C 676.74 1.94596 -0.545594 0
M  V30 7213 C 677.061 1.7227 0.913668 0
M  V30 7214 O 676.331 1.06233 1.64595 0
M  V30 7215 H 674.911 0.720065 -0.198783 0
M  V30 7216 H 677.573 1.56404 -1.16292 0
M  V30 7217 H 676.669 3.03202 -0.739911 0
M  V30 7218 N 676.97 0.677563 1.42291 0
M  V30 7219 C 678.217 0.200975 2.015 0
M  V30 7220 C 678.545 -1.19342 1.53583 0
M  V30 7221 O 677.8 -1.81579 0.7299 0
M  V30 7222 C 678.099 0.187229 3.56909 0
M  V30 7223 C 677.765 1.52667 4.24268 0
M  V30 7224 C 676.427 1.89341 4.42384 0
M  V30 7225 C 678.779 2.40869 4.62203 0
M  V30 7226 C 676.107 3.13836 4.95705 0
M  V30 7227 C 678.459 3.64679 5.16906 0
M  V30 7228 C 677.123 4.01519 5.33234 0
M  V30 7229 H 676.393 0.0735418 0.737342 0
M  V30 7230 H 679.04 0.873095 1.70439 0
M  V30 7231 H 677.345 -0.568407 3.87655 0
M  V30 7232 H 679.042 -0.198773 4.00507 0
M  V30 7233 H 675.632 1.23138 4.1053 0
M  V30 7234 H 679.816 2.1382 4.47878 0
M  V30 7235 H 675.072 3.42396 5.06532 0
M  V30 7236 H 679.246 4.33224 5.45243 0
M  V30 7237 H 676.873 4.98062 5.74316 0
M  V30 7238 N 678.448 -1.51871 0.421078 0
M  V30 7239 C 679.398 -2.24171 -0.416111 0
M  V30 7240 C 680.382 -1.25763 -1.00362 0
M  V30 7241 O 681.574 -1.5094 -0.924452 0
M  V30 7242 C 678.703 -3.07533 -1.52571 0
M  V30 7243 C 677.789 -4.1336 -0.948399 0
M  V30 7244 N 678.18 -5.05704 -0.0987933 0
M  V30 7245 C 676.478 -4.29055 -1.21768 0
M  V30 7246 C 677.179 -5.8127 0.223705 0
M  V30 7247 N 676.155 -5.4221 -0.388524 0
M  V30 7248 H 679.957 -2.92925 0.239166 0
M  V30 7249 H 677.471 -1.60732 0.232191 0
M  V30 7250 H 679.468 -3.57893 -2.13819 0
M  V30 7251 H 678.128 -2.4032 -2.18349 0
M  V30 7252 H 679.139 -5.17214 0.266428 0
M  V30 7253 H 675.816 -3.73071 -1.87416 0
M  V30 7254 H 677.206 -6.65653 0.914076 0
M  V30 7255 N 679.926 -0.151884 -1.56866 0
M  V30 7256 C 680.856 0.781943 -2.20018 0
M  V30 7257 C 681.837 1.25347 -1.14987 0
M  V30 7258 O 683.022 1.31015 -1.43348 0
M  V30 7259 C 680.152 2.01928 -2.82564 0
M  V30 7260 C 679.106 1.68434 -3.93464 0
M  V30 7261 C 678.432 2.99472 -4.42968 0
M  V30 7262 C 679.732 0.927244 -5.14003 0
M  V30 7263 H 681.426 0.255607 -2.98307 0
M  V30 7264 H 678.972 0.121502 -1.43486 0
M  V30 7265 H 680.925 2.67741 -3.25411 0
M  V30 7266 H 679.649 2.56943 -2.01614 0
M  V30 7267 H 678.308 1.04998 -3.51242 0
M  V30 7268 H 677.956 3.52488 -3.58834 0
M  V30 7269 H 677.656 2.77823 -5.17772 0
M  V30 7270 H 679.18 3.66348 -4.88489 0
M  V30 7271 H 680.594 1.48756 -5.53665 0
M  V30 7272 H 678.991 0.810513 -5.94601 0
M  V30 7273 H 680.061 -0.0801163 -4.84834 0
M  V30 7274 N 681.404 1.57128 0.121893 0
M  V30 7275 C 682.632 1.88883 0.844451 0
M  V30 7276 C 683.047 0.742824 1.73573 0
M  V30 7277 O 682.404 -0.286475 1.80238 0
M  V30 7278 C 682.455 3.20076 1.68029 0
M  V30 7279 O 682.176 4.30264 0.824898 0
M  V30 7280 C 683.677 3.65515 2.50826 0
M  V30 7281 H 680.897 0.62549 0.242907 0
M  V30 7282 H 683.441 2.04219 0.107151 0
M  V30 7283 H 681.596 3.06418 2.37038 0
M  V30 7284 H 682.01 5.05439 1.40113 0
M  V30 7285 H 683.484 4.60081 3.05008 0
M  V30 7286 H 683.961 2.92029 3.28048 0
M  V30 7287 H 684.567 3.81952 1.87064 0
M  V30 7288 N 682.882 -0.391992 1.52647 0
M  V30 7289 C 684.13 -1.13507 1.67214 0
M  V30 7290 C 684.451 -1.90575 0.41304 0
M  V30 7291 O 683.721 -1.87348 -0.572498 0
M  V30 7292 H 682.301 -0.422013 0.616372 0
M  V30 7293 H 684.963 -0.44502 1.89751 0
M  V30 7294 H 684.059 -1.83964 2.52118 0
M  V30 7295 N 684.36 -1.4356 -0.65026 0
M  V30 7296 C 685.29 -1.51758 -1.77459 0
M  V30 7297 C 686.271 -0.372019 -1.65982 0
M  V30 7298 O 687.456 -0.589627 -1.85033 0
M  V30 7299 C 684.586 -1.44302 -3.15902 0
M  V30 7300 C 683.54 -2.57138 -3.42146 0
M  V30 7301 C 682.866 -2.34735 -4.8042 0
M  V30 7302 C 684.166 -3.99373 -3.36598 0
M  V30 7303 H 685.86 -2.45863 -1.70855 0
M  V30 7304 H 683.406 -1.18333 -0.820566 0
M  V30 7305 H 685.359 -1.48641 -3.94314 0
M  V30 7306 H 684.083 -0.467026 -3.23244 0
M  V30 7307 H 682.742 -2.52157 -2.66106 0
M  V30 7308 H 682.39 -1.35372 -4.84441 0
M  V30 7309 H 682.09 -3.10375 -4.9894 0
M  V30 7310 H 683.614 -2.40862 -5.61086 0
M  V30 7311 H 685.028 -4.05826 -4.04942 0
M  V30 7312 H 683.425 -4.75063 -3.66654 0
M  V30 7313 H 684.495 -4.243 -2.34729 0
M  V30 7314 N 685.838 0.888903 -1.30139 0
M  V30 7315 C 686.768 2.01046 -1.18755 0
M  V30 7316 C 687.749 1.69916 -0.0791438 0
M  V30 7317 O 688.934 1.92445 -0.260498 0
M  V30 7318 C 686.064 3.36109 -0.874518 0
M  V30 7319 C 685.018 3.81486 -1.94043 0
M  V30 7320 C 684.344 5.13796 -1.48047 0
M  V30 7321 C 685.644 4.00637 -3.35093 0
M  V30 7322 H 687.338 2.10828 -2.12584 0
M  V30 7323 H 684.884 1.01298 -1.02346 0
M  V30 7324 H 686.837 4.14089 -0.781548 0
M  V30 7325 H 685.561 3.26449 0.0994519 0
M  V30 7326 H 684.22 3.05731 -2.02297 0
M  V30 7327 H 683.868 5.0056 -0.494878 0
M  V30 7328 H 683.568 5.45127 -2.19341 0
M  V30 7329 H 685.092 5.94305 -1.40121 0
M  V30 7330 H 686.506 4.69067 -3.2962 0
M  V30 7331 H 684.903 4.43339 -4.04438 0
M  V30 7332 H 685.973 3.0462 -3.77273 0
M  V30 7333 N 687.317 1.12792 1.10072 0
M  V30 7334 C 688.28 0.802264 2.14701 0
M  V30 7335 C 689.28 -0.18515 1.59731 0
M  V30 7336 O 690.47 0.041109 1.74151 0
M  V30 7337 C 687.602 0.19285 3.40354 0
M  V30 7338 H 688.795 1.72932 2.45019 0
M  V30 7339 H 686.348 0.931662 1.25498 0
M  V30 7340 H 687.083 -0.743748 3.15656 0
M  V30 7341 H 686.868 0.903827 3.81541 0
M  V30 7342 H 688.358 -0.0183704 4.17596 0
M  V30 7343 N 688.795 -1.27931 0.920396 0
M  V30 7344 C 690.041 -1.94977 0.557832 0
M  V30 7345 C 690.374 -1.72224 -0.897365 0
M  V30 7346 O 689.649 -1.04705 -1.63912 0
M  V30 7347 C 689.932 -3.49289 0.875741 0
M  V30 7348 C 689.785 -3.81416 2.38416 0
M  V30 7349 C 691.104 -4.38486 0.376517 0
M  V30 7350 H 688.223 -0.708164 0.20414 0
M  V30 7351 H 690.865 -1.5118 1.15085 0
M  V30 7352 H 689.015 -3.86724 0.371062 0
M  V30 7353 H 690.687 -3.53813 2.95997 0
M  V30 7354 H 688.93 -3.28225 2.83639 0
M  V30 7355 H 689.601 -4.89198 2.55713 0
M  V30 7356 H 692.077 -4.08161 0.808945 0
M  V30 7357 H 690.953 -5.45296 0.627976 0
M  V30 7358 H 691.214 -4.36143 -0.723293 0
M  V30 7359 N 690.273 -0.685099 -1.4193 0
M  V30 7360 C 691.236 -0.0222632 -2.29189 0
M  V30 7361 C 692.236 0.7186 -1.4385 0
M  V30 7362 O 693.426 0.555058 -1.6512 0
M  V30 7363 C 690.558 0.979013 -3.2654 0
M  V30 7364 H 691.751 -0.790424 -2.89296 0
M  V30 7365 H 689.304 -0.448012 -1.49742 0
M  V30 7366 H 690.039 1.77531 -2.71392 0
M  V30 7367 H 689.824 0.451037 -3.89497 0
M  V30 7368 H 691.314 1.44091 -3.91954 0
M  V30 7369 N 691.751 1.51645 -0.429126 0
M  V30 7370 C 692.997 2.02314 0.140286 0
M  V30 7371 C 693.33 1.31314 1.43074 0
M  V30 7372 O 692.605 0.425531 1.89788 0
M  V30 7373 C 692.888 3.5822 0.36749 0
M  V30 7374 C 692.741 4.39846 -0.941039 0
M  V30 7375 C 694.06 4.25055 1.14089 0
M  V30 7376 H 691.179 0.735335 0.0495112 0
M  V30 7377 H 693.821 1.81358 -0.566514 0
M  V30 7378 H 691.971 3.76207 0.969556 0
M  V30 7379 H 693.643 4.33527 -1.57646 0
M  V30 7380 H 691.886 4.05259 -1.54751 0
M  V30 7381 H 692.557 5.47069 -0.73621 0
M  V30 7382 H 695.033 4.11288 0.630986 0
M  V30 7383 H 693.909 5.34038 1.26863 0
M  V30 7384 H 694.17 3.85358 2.16683 0
M  V30 7385 N 693.229 0.160201 1.56784 0
M  V30 7386 C 694.159 -0.770264 2.2043 0
M  V30 7387 C 695.14 -1.24736 1.15651 0
M  V30 7388 O 696.325 -1.30253 1.44041 0
M  V30 7389 C 693.455 -2.00427 2.83631 0
M  V30 7390 C 692.409 -1.66345 3.94352 0
M  V30 7391 C 691.735 -2.97119 4.4455 0
M  V30 7392 C 693.035 -0.899972 5.14488 0
M  V30 7393 H 694.729 -0.239783 2.98438 0
M  V30 7394 H 692.275 -0.113891 1.43549 0
M  V30 7395 H 694.228 -2.66012 3.26827 0
M  V30 7396 H 692.952 -2.5587 2.02973 0
M  V30 7397 H 691.611 -1.03133 3.51794 0
M  V30 7398 H 691.259 -3.5058 3.60698 0
M  V30 7399 H 690.959 -2.75073 5.19238 0
M  V30 7400 H 692.483 -3.63753 4.90425 0
M  V30 7401 H 693.897 -1.45818 5.54446 0
M  V30 7402 H 692.294 -0.778968 5.95023 0
M  V30 7403 H 693.364 0.105827 4.84785 0
M  V30 7404 N 694.707 -1.5719 -0.113559 0
M  V30 7405 C 695.67 -1.99796 -1.12314 0
M  V30 7406 C 696.67 -0.888847 -1.34001 0
M  V30 7407 O 697.86 -1.15476 -1.30426 0
M  V30 7408 C 694.992 -2.34279 -2.47641 0
M  V30 7409 H 696.185 -2.90193 -0.756825 0
M  V30 7410 H 693.738 -1.52144 -0.358029 0
M  V30 7411 H 694.473 -1.46778 -2.89183 0
M  V30 7412 H 694.258 -3.15175 -2.33253 0
M  V30 7413 H 695.748 -2.67963 -3.2029 0
M  V30 7414 N 696.185 0.383891 -1.52853 0
M  V30 7415 C 697.432 1.12842 -1.68146 0
M  V30 7416 C 697.76 1.89823 -0.423954 0
M  V30 7417 O 697.015 1.86475 0.593765 0
M  V30 7418 C 697.314 2.12881 -2.87082 0
M  V30 7419 C 696.98 1.52519 -4.24322 0
M  V30 7420 C 695.642 1.35783 -4.61645 0
M  V30 7421 C 697.994 1.0868 -5.09743 0
M  V30 7422 C 695.322 0.737643 -5.82044 0
M  V30 7423 C 697.674 0.480699 -6.30771 0
M  V30 7424 C 696.338 0.300681 -6.66822 0
M  V30 7425 H 695.608 0.412917 -0.615289 0
M  V30 7426 H 698.255 0.412416 -1.87006 0
M  V30 7427 H 696.56 2.90719 -2.62659 0
M  V30 7428 H 698.257 2.70408 -2.96109 0
M  V30 7429 H 694.847 1.66534 -3.94923 0
M  V30 7430 H 699.031 1.2041 -4.81472 0
M  V30 7431 H 694.287 0.586415 -6.08581 0
M  V30 7432 H 698.461 0.132733 -6.96273 0
M  V30 7433 H 696.088 -0.181966 -7.59982 0
M  V30 7434 N 697.663 1.43903 0.642637 0
M  V30 7435 C 698.891 1.4954 1.42988 0
M  V30 7436 C 699.306 0.116588 1.8844 0
M  V30 7437 O 698.663 -0.875285 1.60141 0
M  V30 7438 C 698.714 2.45031 2.65785 0
M  V30 7439 O 698.435 3.77551 2.22232 0
M  V30 7440 C 699.936 2.60017 3.59035 0
M  V30 7441 H 697.156 0.507544 0.438907 0
M  V30 7442 H 699.7 1.88752 0.786942 0
M  V30 7443 H 697.855 2.08985 3.26196 0
M  V30 7444 H 698.269 4.29001 3.01759 0
M  V30 7445 H 699.743 3.30887 4.41835 0
M  V30 7446 H 700.22 1.64861 4.07084 0
M  V30 7447 H 700.826 2.96918 3.045 0
M  V30 7448 N 699.141 -0.881989 1.30609 0
M  V30 7449 C 700.387 -1.63649 1.20791 0
M  V30 7450 C 700.742 -1.90966 -0.234437 0
M  V30 7451 O 700.035 -1.52163 -1.16434 0
M  V30 7452 C 700.229 -2.97999 1.97311 0
M  V30 7453 C 700.058 -2.83798 3.48839 0
M  V30 7454 C 698.828 -2.83622 4.18195 0
M  V30 7455 C 701.026 -2.59529 4.44015 0
M  V30 7456 N 699.008 -2.60344 5.55962 0
M  V30 7457 C 700.379 -2.45401 5.69366 0
M  V30 7458 C 702.434 -2.44777 4.33576 0
M  V30 7459 C 701.137 -2.18023 6.85462 0
M  V30 7460 C 703.163 -2.18785 5.49443 0
M  V30 7461 C 702.525 -2.05436 6.73777 0
M  V30 7462 H 698.624 -0.603687 0.497077 0
M  V30 7463 H 701.208 -1.03908 1.64655 0
M  V30 7464 H 699.379 -3.55767 1.55834 0
M  V30 7465 H 701.111 -3.6266 1.79611 0
M  V30 7466 H 697.866 -2.95562 3.70054 0
M  V30 7467 H 698.29 -2.51709 6.28468 0
M  V30 7468 H 702.932 -2.53831 3.38126 0
M  V30 7469 H 700.65 -2.07707 7.8095 0
M  V30 7470 H 704.236 -2.08188 5.43276 0
M  V30 7471 H 703.116 -1.85605 7.61919 0
M  V30 7472 N 700.619 -1.13374 -1.09472 0
M  V30 7473 C 701.847 -0.918351 -1.85402 0
M  V30 7474 C 702.262 0.53281 -1.81126 0
M  V30 7475 O 701.619 1.36879 -1.20708 0
M  V30 7476 C 701.67 -1.39743 -3.33398 0
M  V30 7477 O 701.391 -2.79172 -3.37631 0
M  V30 7478 C 702.892 -1.22042 -4.2617 0
M  V30 7479 H 700.112 -0.327511 -0.585643 0
M  V30 7480 H 702.656 -1.50617 -1.38328 0
M  V30 7481 H 700.811 -0.852619 -3.77901 0
M  V30 7482 H 701.225 -3.00428 -4.29934 0
M  V30 7483 H 702.699 -1.60438 -5.2817 0
M  V30 7484 H 703.176 -0.162047 -4.38901 0
M  V30 7485 H 703.782 -1.75323 -3.87482 0
M  V30 7486 N 702.098 1.27442 -0.927168 0
M  V30 7487 C 703.323 1.99036 -0.583042 0
M  V30 7488 C 703.748 1.68711 0.83176 0
M  V30 7489 O 703.106 0.927081 1.55804 0
M  V30 7490 C 703.154 3.51271 -0.814925 0
M  V30 7491 O 702.258 4.12226 0.119742 0
M  V30 7492 H 701.599 0.624883 -0.224538 0
M  V30 7493 H 704.129 1.62263 -1.24628 0
M  V30 7494 H 704.139 4.01411 -0.730282 0
M  V30 7495 H 702.814 3.72676 -1.84623 0
M  V30 7496 H 701.391 3.72897 -0.0147688 0
M  V30 7497 O 703.615 0.831378 1.38457 0
M  V30 7498 H 704.306 0.416578 1.89167 0
M  V30 END ATOM
M  V30 BEGIN BOND
M  V30 END BOND
M  V30 END CTAB
M  END
$$$$
