drugbank_drug|DB00068 DB00068 sequence
 OpenBabel12092119123D

  0  0  0     0  0            999 V3000
M  V30 BEGIN CTAB
M  V30 COUNTS 2808 2838 0 0 0
M  V30 BEGIN ATOM
M  V30 1 H -0.908 1.98254 -0.117106 0
M  V30 2 N 0 1.576 0 0
M  V30 3 C 1.225 1.95249 0.699468 0
M  V30 4 C 1.65 0.874934 1.66513 0
M  V30 5 O 1.008 -0.166929 1.8053 0
M  V30 6 C 1.056 3.31994 1.40756 0
M  V30 7 O 0.16 3.26298 2.52197 0
M  V30 8 H -0.499 0.637402 0.186051 0
M  V30 9 H 2.031 2.04531 -0.05319 0
M  V30 10 H 2.041 3.6756 1.77098 0
M  V30 11 H 0.716 4.09975 0.69953 0
M  V30 12 H -0.707 3.02408 2.18183 0
M  V30 13 N 1.4781 -0.272755 1.55222 0
M  V30 14 C 2.7081 -1.02107 1.79604 0
M  V30 15 C 3.1161 -1.80419 0.569693 0
M  V30 16 O 2.4591 -1.77566 -0.470743 0
M  V30 17 C 2.5211 -2.02675 2.96922 0
M  V30 18 C 2.1851 -1.43299 4.33952 0
M  V30 19 C 3.1821 -0.84853 5.12929 0
M  V30 20 C 0.8671 -1.46012 4.8061 0
M  V30 21 C 2.8611 -0.299109 6.36698 0
M  V30 22 C 0.5481 -0.906833 6.04334 0
M  V30 23 C 1.5461 -0.32733 6.82215 0
M  V30 24 O 1.2341 0.217479 8.03606 0
M  V30 25 H 0.9661 -0.307322 0.602104 0
M  V30 26 H 3.5201 -0.308862 2.03065 0
M  V30 27 H 1.7501 -2.77656 2.69155 0
M  V30 28 H 3.4391 -2.63637 3.08626 0
M  V30 29 H 4.2051 -0.820265 4.78013 0
M  V30 30 H 0.0841 -1.90056 4.2 0
M  V30 31 H 3.6281 0.153852 6.9743 0
M  V30 32 H -0.4749 -0.932339 6.38731 0
M  V30 33 H 0.2931 0.106863 8.1843 0
M  V30 34 N 2.9562 -1.48159 -0.537278 0
M  V30 35 C 3.9042 -1.62573 -1.66352 0
M  V30 36 C 4.8982 -0.492366 -1.62087 0
M  V30 37 O 6.1042 -0.670847 -1.67032 0
M  V30 38 H 2.4792 -0.511992 -0.550789 0
M  V30 39 H 4.4502 -2.57176 -1.51337 0
M  V30 40 C 3.1992 -1.67583 -3.04649 0
M  V30 41 H 2.5222 -2.54151 -3.08622 0
M  V30 42 H 3.9622 -1.81713 -3.83088 0
M  V30 43 C 2.4212 -0.413039 -3.34358 0
M  V30 44 O 2.9512 0.477259 -3.98855 0
M  V30 45 N 1.1572 -0.286961 -2.8918 0
M  V30 46 H 0.7042 -1.01241 -2.36871 0
M  V30 47 H 0.6622 0.556963 -3.09427 0
M  V30 48 N 4.4343 0.785586 -1.36625 0
M  V30 49 C 5.3643 1.91259 -1.33949 0
M  V30 50 C 6.3453 1.68795 -0.210325 0
M  V30 51 O 7.5303 1.89854 -0.408561 0
M  V30 52 C 4.6603 3.28339 -1.13186 0
M  V30 53 C 3.6143 3.65335 -2.22967 0
M  V30 54 C 2.9403 5.00806 -1.87342 0
M  V30 55 C 4.2403 3.7352 -3.65075 0
M  V30 56 H 5.9343 1.93755 -2.28253 0
M  V30 57 H 3.4803 0.930788 -1.09874 0
M  V30 58 H 5.4333 4.06804 -1.09948 0
M  V30 59 H 4.1573 3.2624 -0.153332 0
M  V30 60 H 2.8163 2.89169 -2.25337 0
M  V30 61 H 2.4643 4.95233 -0.880545 0
M  V30 62 H 2.1643 5.26529 -2.60846 0
M  V30 63 H 3.6883 5.81687 -1.85667 0
M  V30 64 H 5.1023 4.42168 -3.64911 0
M  V30 65 H 3.4993 4.10731 -4.37516 0
M  V30 66 H 4.5693 2.74527 -3.99703 0
M  V30 67 N 5.9124 1.20967 1.01018 0
M  V30 68 C 6.8424 0.988272 2.11555 0
M  V30 69 C 7.8234 -0.0849778 1.69888 0
M  V30 70 O 9.0084 0.0738202 1.9406 0
M  V30 71 C 6.1384 0.546528 3.42973 0
M  V30 72 C 5.0924 1.56375 3.9841 0
M  V30 73 C 4.4184 0.97842 5.25672 0
M  V30 74 C 5.7184 2.94922 4.31066 0
M  V30 75 H 7.4124 1.91276 2.30334 0
M  V30 76 H 4.9584 0.921073 1.1069 0
M  V30 77 H 6.9114 0.378839 4.19694 0
M  V30 78 H 5.6354 -0.413598 3.23971 0
M  V30 79 H 4.2944 1.71891 3.23804 0
M  V30 80 H 3.9424 0.0101688 5.02999 0
M  V30 81 H 3.6424 1.65784 5.63728 0
M  V30 82 H 5.1664 0.821939 6.05043 0
M  V30 83 H 6.5804 2.8288 4.9865 0
M  V30 84 H 4.9774 3.5983 4.80253 0
M  V30 85 H 6.0474 3.4616 3.39561 0
M  V30 86 N 7.3905 -1.2043 1.01659 0
M  V30 87 C 8.6385 -1.89423 0.704522 0
M  V30 88 C 8.9595 -1.79231 -0.768197 0
M  V30 89 O 8.2295 -1.1947 -1.55254 0
M  V30 90 H 6.8095 -0.701178 0.257602 0
M  V30 91 H 9.4715 -1.4626 1.28818 0
M  V30 92 H 8.5675 -2.96052 0.987916 0
M  V30 93 N 8.8686 -0.792821 -1.36206 0
M  V30 94 C 10.1156 -0.366786 -1.99151 0
M  V30 95 C 10.4436 1.06243 -1.62919 0
M  V30 96 O 9.6986 1.74927 -0.877442 0
M  V30 97 C 9.9976 -0.481501 -3.54142 0
M  V30 98 C 9.6636 -1.87202 -4.10203 0
M  V30 99 C 8.3256 -2.25248 -4.25226 0
M  V30 100 C 10.6776 -2.78237 -4.40719 0
M  V30 101 C 8.0056 -3.53723 -4.68078 0
M  V30 102 C 10.3576 -4.06144 -4.85005 0
M  V30 103 C 9.0216 -4.44207 -4.98234 0
M  V30 104 H 8.2916 -0.134217 -0.728743 0
M  V30 105 H 10.9386 -1.01094 -1.62641 0
M  V30 106 H 9.2436 0.246146 -3.91026 0
M  V30 107 H 10.9406 -0.132844 -4.0078 0
M  V30 108 H 7.5306 -1.56639 -3.98951 0
M  V30 109 H 11.7146 -2.50097 -4.28679 0
M  V30 110 H 6.9706 -3.8308 -4.76508 0
M  V30 111 H 11.1446 -4.76796 -5.07581 0
M  V30 112 H 8.7716 -5.43814 -5.31197 0
M  V30 113 N 10.3467 1.47872 -0.545128 0
M  V30 114 C 11.2767 2.32661 0.197793 0
M  V30 115 C 12.2577 1.43041 0.920504 0
M  V30 116 O 13.4427 1.71912 0.90333 0
M  V30 117 C 10.5727 3.24569 1.23582 0
M  V30 118 C 9.5267 4.23333 0.630323 0
M  V30 119 C 8.8527 5.0448 1.77211 0
M  V30 120 C 10.1527 5.20704 -0.407974 0
M  V30 121 H 11.8467 2.95024 -0.510045 0
M  V30 122 H 9.3927 1.4187 -0.246731 0
M  V30 123 H 11.3457 3.8272 1.76362 0
M  V30 124 H 10.0697 2.60236 1.97344 0
M  V30 125 H 8.7287 3.6639 0.123922 0
M  V30 126 H 8.3767 4.36561 2.49847 0
M  V30 127 H 8.0767 5.71339 1.37281 0
M  V30 128 H 9.6007 5.65487 2.3034 0
M  V30 129 H 11.0147 5.7329 0.033305 0
M  V30 130 H 9.4117 5.95699 -0.725486 0
M  V30 131 H 10.4817 4.66917 -1.30828 0
M  V30 132 N 11.8248 0.280983 1.55075 0
M  V30 133 C 12.7568 -0.637268 2.20163 0
M  V30 134 C 13.7698 -1.11298 1.18813 0
M  V30 135 O 14.9588 -1.03388 1.4551 0
M  V30 136 C 12.0588 -1.88199 2.81841 0
M  V30 137 C 11.2318 -1.55211 4.08936 0
M  V30 138 C 10.2908 -2.64991 4.54606 0
M  V30 139 O 9.3168 -2.30929 5.2025 0
M  V30 140 N 10.5188 -3.95161 4.25238 0
M  V30 141 H 13.2838 -0.0801694 2.99593 0
M  V30 142 H 10.8448 0.102329 1.61576 0
M  V30 143 H 12.8368 -2.60948 3.09335 0
M  V30 144 H 11.4068 -2.34799 2.06369 0
M  V30 145 H 10.6268 -0.658185 3.88666 0
M  V30 146 H 11.9148 -1.30681 4.91732 0
M  V30 147 H 11.3128 -4.25653 3.72607 0
M  V30 148 H 9.8698 -4.6427 4.5749 0
M  V30 149 N 13.3029 -1.57598 0.00835791 0
M  V30 150 C 14.7189 -1.55764 -0.347822 0
M  V30 151 C 14.9189 -1.01186 -1.74252 0
M  V30 152 O 13.9749 -0.649371 -2.44007 0
M  V30 153 C 15.2879 -2.99927 -0.215407 0
M  V30 154 C 16.8359 -3.11656 -0.289725 0
M  V30 155 C 17.3109 -4.57621 -0.18634 0
M  V30 156 N 18.8019 -4.62557 -0.243978 0
M  V30 157 C 19.5369 -5.73094 -0.18745 0
M  V30 158 N 19.0329 -6.92753 -0.0810331 0
M  V30 159 N 20.8259 -5.61588 -0.239925 0
M  V30 160 H 12.9769 -1.91411 0.92062 0
M  V30 161 H 15.2399 -0.879562 0.353659 0
M  V30 162 H 14.9459 -3.43729 0.744512 0
M  V30 163 H 14.8199 -3.63865 -0.994097 0
M  V30 164 H 17.2069 -2.67779 -1.24009 0
M  V30 165 H 17.2879 -2.5048 0.51898 0
M  V30 166 H 16.9319 -5.02174 0.760519 0
M  V30 167 H 16.8619 -5.16752 -1.01364 0
M  V30 168 H 19.3529 -3.76481 -0.327217 0
M  V30 169 H 19.6659 -7.72787 -0.0440241 0
M  V30 170 H 18.0109 -6.94984 -0.0465419 0
M  V30 171 H 21.2019 -4.66996 -0.321317 0
M  V30 172 H 21.3749 -6.47714 -0.192407 0
M  V30 173 N 14.781 0.264519 -1.55364 0
M  V30 174 C 16.006 1.01726 -1.80739 0
M  V30 175 C 16.431 1.78836 -0.583044 0
M  V30 176 O 15.789 1.75167 0.467566 0
M  V30 177 C 15.837 1.94482 -3.03659 0
M  V30 178 O 14.941 3.03386 -2.7934 0
M  V30 179 H 14.282 0.290395 -0.597132 0
M  V30 180 H 16.812 0.290854 -2.02522 0
M  V30 181 H 16.822 2.36278 -3.32621 0
M  V30 182 H 15.497 1.37772 -3.92418 0
M  V30 183 H 14.074 2.65844 -2.61498 0
M  V30 184 N 16.2591 1.48442 0.529413 0
M  V30 185 C 17.4841 1.60406 1.31471 0
M  V30 186 C 17.9091 0.264738 1.86228 0
M  V30 187 O 17.2671 -0.763668 1.64432 0
M  V30 188 C 17.3151 2.65419 2.44101 0
M  V30 189 O 16.4191 2.22618 3.47153 0
M  V30 190 H 15.7601 0.537863 0.389357 0
M  V30 191 H 18.2901 1.94432 0.636965 0
M  V30 192 H 18.3001 2.86709 2.90279 0
M  V30 193 H 16.9751 3.62652 2.03608 0
M  V30 194 H 15.5521 2.11543 3.0709 0
M  V30 195 N 17.7372 -0.778329 1.37039 0
M  V30 196 C 18.6852 -1.91278 1.32345 0
M  V30 197 C 19.6792 -1.68051 0.213331 0
M  V30 198 O 20.8852 -1.75922 0.38098 0
M  V30 199 H 17.2602 -0.628909 0.412283 0
M  V30 200 H 19.2312 -1.92355 2.28127 0
M  V30 201 C 17.9802 -3.28455 1.14073 0
M  V30 202 H 17.3032 -3.46901 1.98746 0
M  V30 203 H 18.7432 -4.08152 1.14837 0
M  V30 204 C 17.2022 -3.36548 -0.154015 0
M  V30 205 O 17.7322 -3.85186 -1.13993 0
M  V30 206 N 15.9382 -2.89894 -0.202475 0
M  V30 207 H 15.4852 -2.50504 0.600476 0
M  V30 208 H 15.4432 -2.9569 -1.06841 0
M  V30 209 N 19.2153 -1.21501 -1.00376 0
M  V30 210 C 20.4623 -1.03299 -1.74171 0
M  V30 211 C 20.7903 0.433326 -1.89612 0
M  V30 212 O 20.0453 1.33779 -1.42834 0
M  V30 213 C 20.3443 -1.67673 -3.15627 0
M  V30 214 C 20.0103 -3.17533 -3.2013 0
M  V30 215 C 18.6723 -3.58427 -3.21067 0
M  V30 216 C 21.0243 -4.13504 -3.17275 0
M  V30 217 C 18.3523 -4.93794 -3.16835 0
M  V30 218 C 20.7043 -5.48834 -3.14585 0
M  V30 219 C 19.3683 -5.89123 -3.13831 0
M  V30 220 H 18.6383 -0.377999 -0.637336 0
M  V30 221 H 21.2853 -1.51111 -1.17634 0
M  V30 222 H 19.5903 -1.12158 -3.75404 0
M  V30 223 H 21.2873 -1.51091 -3.71446 0
M  V30 224 H 17.8773 -2.84965 -3.20145 0
M  V30 225 H 22.0613 -3.82936 -3.15711 0
M  V30 226 H 17.3173 -5.24255 -3.1459 0
M  V30 227 H 21.4913 -6.22934 -3.1133 0
M  V30 228 H 19.1183 -6.93984 -3.10307 0
M  V30 229 N 20.6934 1.19889 -1.02296 0
M  V30 230 C 21.6254 2.22334 -0.556787 0
M  V30 231 C 22.6384 1.58674 0.364199 0
M  V30 232 O 23.8274 1.77768 0.161533 0
M  V30 233 C 20.9274 3.38257 0.208694 0
M  V30 234 C 20.1004 4.31504 -0.71577 0
M  V30 235 C 19.1594 5.262 0.00325597 0
M  V30 236 O 18.1854 5.65798 -0.621357 0
M  V30 237 N 19.3874 5.66303 1.27599 0
M  V30 238 H 22.1524 2.62957 -1.43784 0
M  V30 239 H 19.7134 1.34495 -0.901261 0
M  V30 240 H 21.7054 3.98616 0.699111 0
M  V30 241 H 20.2754 2.96472 0.991102 0
M  V30 242 H 19.4954 3.69016 -1.38638 0
M  V30 243 H 20.7834 4.9072 -1.34428 0
M  V30 244 H 20.1814 5.36155 1.80429 0
M  V30 245 H 18.7384 6.28942 1.71102 0
M  V30 246 N 22.1715 0.800033 1.35784 0
M  V30 247 C 23.3965 0.388511 2.03729 0
M  V30 248 C 23.8215 -0.990481 1.5991 0
M  V30 249 O 23.1795 -1.64013 0.772612 0
M  V30 250 C 23.2275 0.4726 3.5749 0
M  V30 251 O 22.3315 -0.51646 4.09153 0
M  V30 252 H 21.6725 0.163271 0.643614 0
M  V30 253 H 24.2025 1.0841 1.73518 0
M  V30 254 H 24.2125 0.34003 4.06581 0
M  V30 255 H 22.8875 1.47848 3.88734 0
M  V30 256 H 21.4645 -0.344673 3.71304 0
M  V30 257 N 23.6496 -1.47581 0.552962 0
M  V30 258 C 24.5816 -2.27997 -0.234533 0
M  V30 259 C 25.5946 -1.36753 -0.883321 0
M  V30 260 O 26.7836 -1.61612 -0.757889 0
M  V30 261 C 23.8836 -3.10879 -1.34935 0
M  V30 262 C 23.0566 -4.30056 -0.798158 0
M  V30 263 C 22.1156 -4.94567 -1.79694 0
M  V30 264 O 21.1416 -5.53087 -1.34474 0
M  V30 265 N 22.3436 -4.88878 -3.13015 0
M  V30 266 H 25.1086 -2.96222 0.455255 0
M  V30 267 H 22.6696 -1.57163 0.388761 0
M  V30 268 H 24.6616 -3.50903 -2.01616 0
M  V30 269 H 23.2316 -2.44924 -1.94244 0
M  V30 270 H 22.4516 -3.94174 0.0453079 0
M  V30 271 H 23.7396 -5.07152 -0.409173 0
M  V30 272 H 23.1376 -4.42526 -3.52402 0
M  V30 273 H 21.6946 -5.32934 -3.75266 0
M  V30 274 N 25.1277 -0.289203 -1.54924 0
M  V30 275 C 26.0747 0.592115 -2.23075 0
M  V30 276 C 27.0447 1.13881 -1.20915 0
M  V30 277 O 28.2297 1.18551 -1.495 0
M  V30 278 C 25.3697 1.76376 -2.96623 0
M  V30 279 C 24.4827 1.24959 -4.13533 0
M  V30 280 C 23.6177 2.38416 -4.74691 0
M  V30 281 C 22.6567 1.84072 -5.83767 0
M  V30 282 N 21.7937 2.91057 -6.38929 0
M  V30 283 H 26.6337 0.00432038 -2.98 0
M  V30 284 H 24.1707 -0.00963529 -1.47097 0
M  V30 285 H 26.1287 2.45268 -3.3749 0
M  V30 286 H 24.7587 2.32337 -2.24097 0
M  V30 287 H 23.8107 0.453307 -3.77689 0
M  V30 288 H 25.1227 0.811662 -4.92152 0
M  V30 289 H 24.2767 3.15276 -5.18349 0
M  V30 290 H 23.0157 2.8553 -3.95378 0
M  V30 291 H 22.0207 1.05697 -5.39545 0
M  V30 292 H 23.2457 1.37877 -6.64956 0
M  V30 293 H 21.1917 3.37526 -5.62505 0
M  V30 294 H 21.1087 2.51724 -7.12861 0
M  V30 295 H 22.3767 3.6785 -6.87246 0
M  V30 296 N 26.6058 1.57591 -0.0167156 0
M  V30 297 C 27.5358 2.12496 0.967858 0
M  V30 298 C 28.5168 1.03807 1.34752 0
M  V30 299 O 29.7018 1.31577 1.42833 0
M  V30 300 C 26.8318 2.64194 2.25431 0
M  V30 301 C 25.7858 3.77559 2.01576 0
M  V30 302 C 25.1118 4.15636 3.36379 0
M  V30 303 C 26.4118 5.04151 1.36489 0
M  V30 304 H 28.1058 2.95013 0.510643 0
M  V30 305 H 25.6518 1.41915 0.244181 0
M  V30 306 H 27.6048 3.01236 2.94678 0
M  V30 307 H 26.3288 1.78821 2.73296 0
M  V30 308 H 24.9878 3.40937 1.34751 0
M  V30 309 H 24.6358 3.27263 3.81979 0
M  V30 310 H 24.3358 4.92022 3.21229 0
M  V30 311 H 25.8598 4.5525 4.06915 0
M  V30 312 H 27.2738 5.38857 1.95718 0
M  V30 313 H 25.6708 5.85453 1.31776 0
M  V30 314 H 26.7408 4.83733 0.336219 0
M  V30 315 N 28.0839 -0.256276 1.55502 0
M  V30 316 C 29.0139 -1.32102 1.92539 0
M  V30 317 C 29.9949 -1.50684 0.789194 0
M  V30 318 O 31.1799 -1.63449 1.04872 0
M  V30 319 C 28.3099 -2.67752 2.21192 0
M  V30 320 C 27.2639 -2.63878 3.36975 0
M  V30 321 C 26.5899 -4.03236 3.51147 0
M  V30 322 C 27.8899 -2.21682 4.72921 0
M  V30 323 H 29.5839 -1.01351 2.81724 0
M  V30 324 H 27.1299 -0.486105 1.35547 0
M  V30 325 H 29.0829 -3.42365 2.45691 0
M  V30 326 H 27.8069 -3.0012 1.28824 0
M  V30 327 H 26.4659 -1.91722 3.12471 0
M  V30 328 H 26.1139 -4.32854 2.56216 0
M  V30 329 H 25.8139 -4.01535 4.29003 0
M  V30 330 H 27.3379 -4.79563 3.77957 0
M  V30 331 H 28.7519 -2.86023 4.96854 0
M  V30 332 H 27.1489 -2.3111 5.53812 0
M  V30 333 H 28.2189 -1.16833 4.70615 0
M  V30 334 N 29.562 -1.4872 -0.521534 0
M  V30 335 C 30.808 -1.58378 -1.27624 0
M  V30 336 C 31.163 -0.258028 -1.90662 0
M  V30 337 O 30.456 0.739917 -1.76736 0
M  V30 338 C 30.65 -2.66497 -2.38148 0
M  V30 339 C 30.479 -4.09456 -1.85945 0
M  V30 340 C 29.249 -4.76495 -1.68168 0
M  V30 341 C 31.447 -4.95353 -1.3831 0
M  V30 342 N 29.429 -6.0384 -1.1068 0
M  V30 343 C 30.8 -6.13012 -0.928238 0
M  V30 344 C 32.855 -4.81512 -1.26692 0
M  V30 345 C 31.558 -7.18354 -0.368701 0
M  V30 346 C 33.584 -5.86984 -0.721368 0
M  V30 347 C 32.946 -7.03857 -0.276623 0
M  V30 348 H 29.045 -0.634045 -0.457724 0
M  V30 349 H 31.629 -1.85639 -0.587049 0
M  V30 350 H 29.8 -2.41043 -3.04553 0
M  V30 351 H 31.532 -2.65791 -3.05184 0
M  V30 352 H 28.287 -4.32962 -1.91939 0
M  V30 353 H 28.711 -6.71778 -0.839217 0
M  V30 354 H 33.353 -3.91487 -1.5968 0
M  V30 355 H 31.071 -8.08096 -0.0265122 0
M  V30 356 H 34.657 -5.78329 -0.634531 0
M  V30 357 H 33.537 -7.84077 0.138947 0
M  V30 358 N 31.0401 0.771051 -1.3745 0
M  V30 359 C 31.9721 1.89352 -1.29146 0
M  V30 360 C 32.9851 1.61477 -0.207124 0
M  V30 361 O 34.1741 1.72382 -0.463324 0
M  V30 362 C 31.2741 3.24596 -0.974195 0
M  V30 363 C 30.4471 3.80111 -2.16413 0
M  V30 364 C 29.5061 4.93832 -1.81703 0
M  V30 365 O 28.5321 5.09382 -2.54006 0
M  V30 366 N 29.7341 5.75483 -0.761573 0
M  V30 367 H 32.4991 1.96991 -2.25864 0
M  V30 368 H 30.0601 0.950191 -1.31084 0
M  V30 369 H 32.0521 3.98193 -0.722828 0
M  V30 370 H 30.6221 3.12454 -0.0955527 0
M  V30 371 H 29.8421 2.98284 -2.57721 0
M  V30 372 H 31.1301 4.13932 -2.95867 0
M  V30 373 H 30.5281 5.65469 -0.161609 0
M  V30 374 H 29.0851 6.49302 -0.570064 0
M  V30 375 N 32.5182 1.22032 0.997298 0
M  V30 376 C 33.4482 1.01065 2.10495 0
M  V30 377 C 34.4292 -0.0669542 1.69968 0
M  V30 378 O 35.6142 0.0943987 1.9397 0
M  V30 379 C 32.7442 0.582874 3.42374 0
M  V30 380 C 31.6982 1.60592 3.96729 0
M  V30 381 C 31.0242 1.03412 5.24605 0
M  V30 382 C 32.3242 2.99478 4.27914 0
M  V30 383 H 34.0182 1.93708 2.28292 0
M  V30 384 H 31.5642 0.932761 1.09707 0
M  V30 385 H 33.5172 0.423332 4.19268 0
M  V30 386 H 32.2412 -0.379213 3.24391 0
M  V30 387 H 30.9002 1.75316 3.21963 0
M  V30 388 H 30.5482 0.063518 5.0296 0
M  V30 389 H 30.2482 1.71754 5.61938 0
M  V30 390 H 31.7722 0.886066 6.04137 0
M  V30 391 H 33.1862 2.88153 4.95622 0
M  V30 392 H 31.5832 3.64903 4.76409 0
M  V30 393 H 32.6532 3.49742 3.3587 0
M  V30 394 N 33.9963 -1.19345 1.0293 0
M  V30 395 C 34.9443 -2.24621 0.604001 0
M  V30 396 C 35.9383 -1.65452 -0.363587 0
M  V30 397 O 37.1443 -1.78497 -0.23212 0
M  V30 398 H 33.5193 -0.730858 0.177061 0
M  V30 399 H 35.4903 -2.5781 1.50255 0
M  V30 400 C 34.2393 -3.47688 -0.0289127 0
M  V30 401 H 33.5623 -3.93505 0.706651 0
M  V30 402 H 35.0023 -4.23011 -0.289432 0
M  V30 403 C 33.4613 -3.11817 -1.2756 0
M  V30 404 O 33.9913 -3.2451 -2.36762 0
M  V30 405 N 32.1973 -2.66246 -1.16453 0
M  V30 406 H 31.7443 -2.56118 -0.275914 0
M  V30 407 H 31.7023 -2.42617 -1.99961 0
M  V30 408 N 35.4744 -0.807222 -1.35358 0
M  V30 409 C 36.7224 -0.387122 -1.98358 0
M  V30 410 C 37.0434 1.04942 -1.64354 0
M  V30 411 O 36.3134 1.72615 -0.926339 0
M  V30 412 H 34.8934 -0.140154 -0.733734 0
M  V30 413 H 37.5554 -1.0332 -1.6526 0
M  V30 414 H 36.6514 -0.493352 -3.08176 0
M  V30 415 N 36.9525 1.47285 -0.560781 0
M  V30 416 C 38.3685 1.58065 -0.22081 0
M  V30 417 C 38.5685 1.55892 1.27671 0
M  V30 418 O 37.6245 1.46422 2.0571 0
M  V30 419 C 38.9375 2.88418 -0.850625 0
M  V30 420 C 40.4855 3.02009 -0.822184 0
M  V30 421 C 40.9605 4.35066 -1.43113 0
M  V30 422 N 42.4515 4.41711 -1.39448 0
M  V30 423 C 43.1865 5.43237 -1.83525 0
M  V30 424 N 42.6825 6.51555 -2.35474 0
M  V30 425 N 44.4755 5.34304 -1.74574 0
M  V30 426 H 36.6265 1.46941 -1.53369 0
M  V30 427 H 38.8895 0.699558 -0.639783 0
M  V30 428 H 38.5955 2.95755 -1.9032 0
M  V30 429 H 38.4695 3.75612 -0.345773 0
M  V30 430 H 40.8565 2.94266 0.221714 0
M  V30 431 H 40.9375 2.16347 -1.36483 0
M  V30 432 H 40.5815 4.43565 -2.47412 0
M  V30 433 H 40.5115 5.19465 -0.863899 0
M  V30 434 H 43.0025 3.64027 -1.01452 0
M  V30 435 H 43.3155 7.25203 -2.67021 0
M  V30 436 H 41.6605 6.52435 -2.39487 0
M  V30 437 H 44.8515 4.48581 -1.33763 0
M  V30 438 H 45.0245 6.13288 -2.09242 0
M  V30 439 N 38.4306 0.297415 1.54768 0
M  V30 440 C 39.3606 -0.573494 2.26348 0
M  V30 441 C 40.3416 -1.14085 1.26169 0
M  V30 442 O 41.5266 -1.17086 1.54934 0
M  V30 443 C 38.6566 -1.74716 3.00153 0
M  V30 444 C 37.6106 -1.31032 4.07449 0
M  V30 445 C 36.9366 -2.56887 4.68949 0
M  V30 446 C 38.2366 -0.444183 5.20408 0
M  V30 447 H 39.9306 0.0235131 2.99391 0
M  V30 448 H 37.4766 0.0127488 1.43994 0
M  V30 449 H 39.4296 -2.3625 3.48947 0
M  V30 450 H 38.1536 -2.37035 2.24682 0
M  V30 451 H 36.8126 -0.718066 3.59499 0
M  V30 452 H 36.4606 -3.17512 3.90122 0
M  V30 453 H 36.1606 -2.2836 5.41411 0
M  V30 454 H 37.6846 -3.19229 5.20505 0
M  V30 455 H 39.0986 -0.9651 5.65118 0
M  V30 456 H 37.4956 -0.252846 5.99567 0
M  V30 457 H 38.5656 0.531609 4.81977 0
M  V30 458 N 39.9087 -1.5758 0.0250728 0
M  V30 459 C 40.8187 -2.1343 -0.973905 0
M  V30 460 C 41.8347 -1.08556 -1.35984 0
M  V30 461 O 43.0107 -1.40592 -1.44207 0
M  V30 462 C 40.0757 -2.64703 -2.23904 0
M  V30 463 C 39.1367 -3.84276 -1.91391 0
M  V30 464 C 38.3697 -4.33095 -3.11873 0
M  V30 465 O 38.5927 -3.81107 -4.24398 0
M  V30 466 O 37.5267 -5.24984 -2.94406 0
M  V30 467 H 41.3527 -2.99057 -0.529036 0
M  V30 468 H 38.9377 -1.48118 -0.195288 0
M  V30 469 H 40.8197 -2.97769 -2.98181 0
M  V30 470 H 39.4947 -1.82161 -2.6758 0
M  V30 471 H 38.4017 -3.56143 -1.14511 0
M  V30 472 H 39.7347 -4.67968 -1.52534 0
M  V30 473 N 41.3868 0.248026 -1.55636 0
M  V30 474 C 42.6168 0.992367 -1.81206 0
M  V30 475 C 43.0248 1.7949 -0.598324 0
M  V30 476 O 42.3678 1.78292 0.442434 0
M  V30 477 C 42.4298 1.97926 -3.00109 0
M  V30 478 C 42.0938 1.36377 -4.36177 0
M  V30 479 C 43.0908 0.76682 -5.14214 0
M  V30 480 C 40.7758 1.38347 -4.82872 0
M  V30 481 C 42.7698 0.197778 -6.37093 0
M  V30 482 C 40.4568 0.810574 -6.057 0
M  V30 483 C 41.4548 0.218754 -6.8265 0
M  V30 484 O 41.1428 -0.345298 -8.03158 0
M  V30 485 H 40.8748 0.297704 -0.606917 0
M  V30 486 H 43.4288 0.276517 -2.0353 0
M  V30 487 H 41.6588 2.73339 -2.73538 0
M  V30 488 H 43.3478 2.58694 -3.12781 0
M  V30 489 H 44.1138 0.744114 -4.79258 0
M  V30 490 H 39.9928 1.8335 -4.2297 0
M  V30 491 H 43.5368 -0.264788 -6.97097 0
M  V30 492 H 39.4338 0.830604 -6.40134 0
M  V30 493 H 40.2018 -0.237055 -8.18157 0
M  V30 494 N 42.8649 1.48995 0.513639 0
M  V30 495 C 44.1049 1.59452 1.27885 0
M  V30 496 C 44.4689 0.269479 1.90099 0
M  V30 497 O 45.6699 0.249139 2.67643 0
M  V30 498 C 43.9409 2.71277 2.32688 0
M  V30 499 S 45.4999 3.01604 3.18717 0
M  V30 500 H 42.3179 0.562565 0.434789 0
M  V30 501 H 44.9199 1.86595 0.583301 0
M  V30 502 H 43.6239 3.66089 1.8549 0
M  V30 503 H 43.1549 2.46086 3.06929 0
M  V30 504 H 45.1699 2.42155 4.331 0
M  V30 505 N 44.343 -0.763751 1.37857 0
M  V30 506 C 45.273 -1.89103 1.36975 0
M  V30 507 C 46.254 -1.68439 0.237152 0
M  V30 508 O 47.439 -1.8918 0.438713 0
M  V30 509 C 44.569 -3.26496 1.18395 0
M  V30 510 C 43.523 -3.61741 2.28751 0
M  V30 511 C 42.849 -4.97762 1.95286 0
M  V30 512 C 44.149 -3.67665 3.70972 0
M  V30 513 H 45.843 -1.90099 2.31307 0
M  V30 514 H 43.389 -0.91319 1.11341 0
M  V30 515 H 45.342 -4.05003 1.16406 0
M  V30 516 H 44.066 -3.25955 0.205215 0
M  V30 517 H 42.725 -2.85547 2.29909 0
M  V30 518 H 42.373 -4.93769 0.959221 0
M  V30 519 H 42.073 -5.22313 2.69189 0
M  V30 520 H 43.597 -5.7866 1.94898 0
M  V30 521 H 45.011 -4.36307 3.719 0
M  V30 522 H 43.408 -4.03718 4.43995 0
M  V30 523 H 44.478 -2.68134 4.0402 0
M  V30 524 N 45.8211 -1.22559 -0.990812 0
M  V30 525 C 46.7681 -0.997519 -2.0813 0
M  V30 526 C 47.7381 0.0814702 -1.659 0
M  V30 527 O 48.9231 -0.0685424 -1.90677 0
M  V30 528 C 46.0631 -0.583615 -3.40129 0
M  V30 529 C 45.1761 -1.7336 -3.9569 0
M  V30 530 C 44.3111 -1.26748 -5.15857 0
M  V30 531 C 43.3501 -2.38888 -5.63559 0
M  V30 532 N 42.4871 -1.93308 -6.74964 0
M  V30 533 H 47.3271 -1.93099 -2.26973 0
M  V30 534 H 44.8641 -0.962114 -1.11273 0
M  V30 535 H 46.8221 -0.324801 -4.15934 0
M  V30 536 H 45.4521 0.312845 -3.2128 0
M  V30 537 H 44.5041 -2.10669 -3.16738 0
M  V30 538 H 45.8161 -2.57704 -4.27071 0
M  V30 539 H 44.9701 -0.966173 -5.98957 0
M  V30 540 H 43.7091 -0.394272 -4.86104 0
M  V30 541 H 42.7141 -2.69805 -4.79046 0
M  V30 542 H 43.9391 -3.26728 -5.95336 0
M  V30 543 H 41.8851 -1.08352 -6.4699 0
M  V30 544 H 41.8021 -2.71217 -7.05675 0
M  V30 545 H 43.0701 -1.66252 -7.61564 0
M  V30 546 N 47.2992 1.18797 -1.03562 0
M  V30 547 C 48.5762 1.84469 -0.650434 0
M  V30 548 C 48.9562 1.92319 0.870433 0
M  V30 549 O 48.3042 1.44528 1.76986 0
M  V30 550 C 48.5142 3.2306 -1.32036 0
M  V30 551 C 49.8622 3.9915 -1.44792 0
M  V30 552 O 50.8862 3.32481 -1.27806 0
M  V30 553 O 49.7452 5.18587 -1.72423 0
M  V30 554 H 46.8392 0.795251 -0.226946 0
M  V30 555 H 49.3852 1.26231 -1.13419 0
M  V30 556 H 48.1572 3.1222 -2.3587 0
M  V30 557 H 47.7802 3.88949 -0.8249 0
M  V30 558 N 48.7773 0.814389 1.34928 0
M  V30 559 C 50.1933 0.499084 1.51596 0
M  V30 560 C 50.3933 -0.978319 1.76157 0
M  V30 561 O 49.4493 -1.76309 1.80752 0
M  V30 562 C 50.7623 1.35121 2.68631 0
M  V30 563 C 52.3103 1.34746 2.82511 0
M  V30 564 C 52.7853 2.18388 4.0258 0
M  V30 565 N 54.2763 2.15966 4.09772 0
M  V30 566 C 55.0113 2.77437 5.01813 0
M  V30 567 N 54.5073 3.47866 5.99134 0
M  V30 568 N 56.3003 2.67037 4.94619 0
M  V30 569 H 48.4513 1.7711 1.17243 0
M  V30 570 H 50.7143 0.754256 0.574284 0
M  V30 571 H 50.4203 2.40001 2.57085 0
M  V30 572 H 50.2943 1.00991 3.63429 0
M  V30 573 H 52.6813 0.30648 2.93504 0
M  V30 574 H 52.7623 1.72869 1.88547 0
M  V30 575 H 52.4063 3.2253 3.92347 0
M  V30 576 H 52.3363 1.77621 4.9574 0
M  V30 577 H 54.8273 1.64729 3.40107 0
M  V30 578 H 55.1403 3.92038 6.65977 0
M  V30 579 H 53.4853 3.51972 5.99284 0
M  V30 580 H 56.6763 2.11597 4.17546 0
M  V30 581 H 56.8493 3.15232 5.66156 0
M  V30 582 N 50.2554 -1.46986 0.568584 0
M  V30 583 C 51.1884 -2.27129 -0.220779 0
M  V30 584 C 52.1664 -1.34757 -0.909905 0
M  V30 585 O 53.3504 -1.64152 -0.926622 0
M  V30 586 C 50.4774 -3.12108 -1.31553 0
M  V30 587 C 49.5234 -4.20141 -0.733748 0
M  V30 588 S 50.3564 -5.33783 0.428479 0
M  V30 589 C 51.5124 -6.22327 -0.667811 0
M  V30 590 H 51.7454 -2.93731 0.459267 0
M  V30 591 H 49.2784 -1.5026 0.355154 0
M  V30 592 H 51.2364 -3.61636 -1.94241 0
M  V30 593 H 49.8974 -2.44847 -1.96746 0
M  V30 594 H 49.0904 -4.79373 -1.5562 0
M  V30 595 H 48.6924 -3.73553 -0.182812 0
M  V30 596 H 50.9844 -6.59364 -1.55708 0
M  V30 597 H 51.9274 -7.0801 -0.11258 0
M  V30 598 H 52.3354 -5.5618 -0.965601 0
M  V30 599 N 51.7335 -0.305618 -1.54608 0
M  V30 600 C 52.6815 0.584119 -2.25146 0
M  V30 601 C 53.6755 1.13326 -1.25911 0
M  V30 602 O 54.8815 1.08337 -1.43747 0
M  V30 603 H 51.2565 0.206983 -0.722954 0
M  V30 604 H 53.2275 -0.033291 -2.98381 0
M  V30 605 C 51.9765 1.74225 -3.009 0
M  V30 606 H 51.2995 1.32892 -3.77067 0
M  V30 607 H 52.7395 2.34077 -3.53531 0
M  V30 608 C 51.1985 2.64914 -2.0814 0
M  V30 609 O 51.7285 3.66137 -1.65246 0
M  V30 610 N 49.9345 2.3275 -1.74 0
M  V30 611 H 49.4815 1.50479 -2.09078 0
M  V30 612 H 49.4395 2.93694 -1.12211 0
M  V30 613 N 53.2116 1.57565 -0.0334293 0
M  V30 614 C 54.4586 1.91978 0.644272 0
M  V30 615 C 54.7866 0.910231 1.71887 0
M  V30 616 O 54.0416 -0.0801961 1.95536 0
M  V30 617 C 54.3406 3.33112 1.29504 0
M  V30 618 C 54.0066 4.49537 0.350388 0
M  V30 619 C 52.6686 4.81115 0.0903974 0
M  V30 620 C 55.0206 5.20347 -0.298032 0
M  V30 621 C 52.3486 5.8086 -0.825746 0
M  V30 622 C 54.7006 6.2107 -1.20226 0
M  V30 623 C 53.3646 6.51088 -1.4711 0
M  V30 624 H 52.6346 0.702496 0.235756 0
M  V30 625 H 55.2816 1.91259 -0.0961176 0
M  V30 626 H 53.5866 3.30113 2.11028 0
M  V30 627 H 55.2836 3.57011 1.82603 0
M  V30 628 H 51.8736 4.24883 0.563205 0
M  V30 629 H 56.0576 4.96178 -0.110234 0
M  V30 630 H 51.3136 6.02461 -1.04169 0
M  V30 631 H 55.4876 6.75057 -1.71086 0
M  V30 632 H 53.1146 7.28193 -2.18264 0
M  V30 633 N 54.6897 -0.239769 1.55765 0
M  V30 634 C 55.9667 -0.990056 1.68693 0
M  V30 635 C 56.3467 -2.03107 0.5754 0
M  V30 636 O 55.6947 -2.24604 -0.42017 0
M  V30 637 C 55.9047 -1.61696 3.09282 0
M  V30 638 C 57.2527 -2.11613 3.6811 0
M  V30 639 O 58.2767 -1.71624 3.12127 0
M  V30 640 O 57.1357 -2.85057 4.66267 0
M  V30 641 H 54.2297 -0.461299 0.686391 0
M  V30 642 H 56.7757 -0.232991 1.68093 0
M  V30 643 H 55.5477 -0.864357 3.81634 0
M  V30 644 H 55.1707 -2.44005 3.13923 0
M  V30 645 N 56.1678 -1.49265 -0.50573 0
M  V30 646 C 57.4168 -1.57761 -1.25675 0
M  V30 647 C 57.7298 -0.267371 -1.93764 0
M  V30 648 O 58.9358 -0.230827 -2.70517 0
M  V30 649 C 57.3918 -2.78332 -2.28165 0
M  V30 650 C 56.9998 -4.16096 -1.66037 0
M  V30 651 C 58.7438 -2.96155 -3.04125 0
M  V30 652 C 56.6508 -5.27895 -2.6661 0
M  V30 653 H 55.5808 -0.587391 -0.472745 0
M  V30 654 H 58.2318 -1.75644 -0.53118 0
M  V30 655 H 56.6138 -2.53934 -3.03865 0
M  V30 656 H 57.7878 -4.50612 -0.963622 0
M  V30 657 H 56.1028 -4.03591 -1.02484 0
M  V30 658 H 58.6998 -3.76849 -3.79327 0
M  V30 659 H 59.0428 -2.06534 -3.61455 0
M  V30 660 H 59.5758 -3.2057 -2.35541 0
M  V30 661 H 56.3148 -6.1956 -2.14068 0
M  V30 662 H 55.8348 -4.97839 -3.34539 0
M  V30 663 H 57.5138 -5.57031 -3.29129 0
M  V30 664 N 57.6459 0.756429 -1.3826 0
M  V30 665 C 59.0569 1.33359 -1.30661 0
M  V30 666 C 59.4079 1.96161 0.0388875 0
M  V30 667 O 58.5329 1.94874 0.940918 0
M  V30 668 C 59.1279 2.42477 -2.36622 0
M  V30 669 C 57.6869 2.95922 -2.3261 0
M  V30 670 C 56.8339 1.69275 -2.19639 0
M  V30 671 H 59.7849 0.55552 -1.4866 0
M  V30 672 H 59.8059 3.22345 -2.02174 0
M  V30 673 H 59.3179 1.96739 -3.34538 0
M  V30 674 H 57.4189 3.45996 -1.38267 0
M  V30 675 H 57.5319 3.50494 -3.26636 0
M  V30 676 H 55.8959 1.92793 -1.66442 0
M  V30 677 H 56.6789 1.25619 -3.19491 0
M  V30 678 N 59.124 1.23083 0.984299 0
M  V30 679 C 60.034 1.02515 2.11016 0
M  V30 680 C 61.05 -0.0291702 1.73976 0
M  V30 681 O 62.226 0.165434 2.00719 0
M  V30 682 C 59.291 0.614673 3.41208 0
M  V30 683 C 58.352 1.74359 3.92297 0
M  V30 684 C 57.585 1.35261 5.16275 0
M  V30 685 O 57.808 0.235136 5.69915 0
M  V30 686 O 56.742 2.17227 5.61334 0
M  V30 687 H 60.568 1.96862 2.31255 0
M  V30 688 H 58.153 1.01753 1.09392 0
M  V30 689 H 60.035 0.396518 4.1953 0
M  V30 690 H 58.71 -0.299851 3.22308 0
M  V30 691 H 57.617 2.01635 3.1511 0
M  V30 692 H 58.95 2.63629 4.15645 0
M  V30 693 N 60.6021 -1.18246 1.0419 0
M  V30 694 C 61.5121 -2.25574 0.644476 0
M  V30 695 C 62.5281 -1.70845 -0.329826 0
M  V30 696 O 63.7041 -2.00554 -0.184443 0
M  V30 697 C 60.7691 -3.46697 0.014877 0
M  V30 698 C 59.8301 -4.16554 1.03834 0
M  V30 699 C 59.0631 -5.31894 0.438692 0
M  V30 700 O 59.2861 -5.65385 -0.754752 0
M  V30 701 O 58.2201 -5.90459 1.168 0
M  V30 702 H 62.0461 -2.61836 1.53869 0
M  V30 703 H 59.6311 -1.25352 0.812854 0
M  V30 704 H 61.5131 -4.20062 -0.335538 0
M  V30 705 H 60.1881 -3.12255 -0.853138 0
M  V30 706 H 59.0951 -3.45251 1.44057 0
M  V30 707 H 60.4281 -4.54998 1.87716 0
M  V30 708 N 62.0802 -0.821533 -1.34494 0
M  V30 709 C 63.3292 -0.405355 -1.97585 0
M  V30 710 C 63.6422 1.03677 -1.65863 0
M  V30 711 O 64.8482 1.55679 -2.22433 0
M  V30 712 C 63.3042 -0.673861 -3.53535 0
M  V30 713 C 62.9122 -2.12951 -3.94152 0
M  V30 714 C 64.6562 -0.32378 -4.23263 0
M  V30 715 C 62.5632 -2.34298 -5.43009 0
M  V30 716 H 61.4932 -0.147836 -0.739365 0
M  V30 717 H 64.1442 -1.00769 -1.53355 0
M  V30 718 H 62.5262 -0.00137554 -3.96 0
M  V30 719 H 63.7002 -2.84104 -3.62797 0
M  V30 720 H 62.0152 -2.44089 -3.37356 0
M  V30 721 H 64.6122 -0.461126 -5.32708 0
M  V30 722 H 64.9552 0.731586 -4.09821 0
M  V30 723 H 65.4882 -0.950786 -3.8627 0
M  V30 724 H 62.2272 -3.38335 -5.61435 0
M  V30 725 H 61.7472 -1.67687 -5.75883 0
M  V30 726 H 63.4262 -2.16588 -6.09671 0
M  V30 727 N 63.5583 1.46682 -0.576371 0
M  V30 728 C 64.5053 2.30241 0.160499 0
M  V30 729 C 65.4753 1.40233 0.890162 0
M  V30 730 O 66.6603 1.69186 0.882084 0
M  V30 731 C 63.8003 3.24578 1.1723 0
M  V30 732 C 62.9133 4.29684 0.446736 0
M  V30 733 C 62.0483 5.11154 1.44551 0
M  V30 734 C 61.0873 6.08015 0.70599 0
M  V30 735 N 60.2243 6.82376 1.65251 0
M  V30 736 H 65.0643 2.92727 -0.558127 0
M  V30 737 H 62.6013 1.44272 -0.287056 0
M  V30 738 H 64.5593 3.77711 1.77172 0
M  V30 739 H 63.1893 2.63916 1.85872 0
M  V30 740 H 62.2413 3.79458 -0.267594 0
M  V30 741 H 63.5533 4.98626 -0.131686 0
M  V30 742 H 62.7073 5.68533 2.11791 0
M  V30 743 H 61.4463 4.42158 2.05786 0
M  V30 744 H 60.4513 5.49796 0.0197725 0
M  V30 745 H 61.6763 6.79028 0.09912 0
M  V30 746 H 59.6223 6.16094 2.25308 0
M  V30 747 H 59.5393 7.47556 1.12673 0
M  V30 748 H 60.8073 7.44316 2.31546 0
M  V30 749 N 65.0364 0.313813 1.54444 0
M  V30 750 C 65.9684 -0.590425 2.21465 0
M  V30 751 C 66.9814 -1.08753 1.21147 0
M  V30 752 O 68.1704 -1.00278 1.4767 0
M  V30 753 C 65.2704 -1.82179 2.85769 0
M  V30 754 C 64.4434 -1.46502 4.12136 0
M  V30 755 C 63.5024 -2.55288 4.60124 0
M  V30 756 O 62.5284 -2.19842 5.25032 0
M  V30 757 N 63.7304 -3.86053 4.33525 0
M  V30 758 H 66.4954 -0.0166033 2.99695 0
M  V30 759 H 64.0564 0.136578 1.61323 0
M  V30 760 H 66.0484 -2.54328 3.14801 0
M  V30 761 H 64.6184 -2.30369 2.11303 0
M  V30 762 H 63.8384 -0.575595 3.89975 0
M  V30 763 H 65.1264 -1.20221 4.94393 0
M  V30 764 H 64.5244 -4.17654 3.81552 0
M  V30 765 H 63.0814 -4.54461 4.67235 0
M  V30 766 N 66.5145 -1.57545 0.0417849 0
M  V30 767 C 67.4445 -2.14009 -0.933929 0
M  V30 768 C 68.4255 -1.05938 -1.33083 0
M  V30 769 O 69.6105 -1.33833 -1.40721 0
M  V30 770 C 66.7405 -2.67747 -2.21199 0
M  V30 771 C 65.6945 -3.80718 -1.95544 0
M  V30 772 C 65.0205 -4.20935 -3.29724 0
M  V30 773 C 66.3205 -5.06258 -1.28452 0
M  V30 774 H 68.0145 -2.95788 -0.463645 0
M  V30 775 H 65.5605 -1.42285 -0.221573 0
M  V30 776 H 67.5135 -3.05886 -2.89848 0
M  V30 777 H 66.2375 -1.83147 -2.70416 0
M  V30 778 H 64.8965 -3.43037 -1.2931 0
M  V30 779 H 64.5445 -3.33298 -3.76724 0
M  V30 780 H 64.2445 -4.9707 -3.13361 0
M  V30 781 H 65.7685 -4.61666 -3.9962 0
M  V30 782 H 67.1825 -5.41903 -1.8712 0
M  V30 783 H 65.5795 -5.87475 -1.22445 0
M  V30 784 H 66.6495 -4.84207 -0.259219 0
M  V30 785 N 67.9926 0.231505 -1.5589 0
M  V30 786 C 68.9246 1.31006 -1.8807 0
M  V30 787 C 69.9376 1.43539 -0.768145 0
M  V30 788 O 71.1266 1.44614 -1.04638 0
M  V30 789 C 68.2266 2.68688 -2.06543 0
M  V30 790 C 67.3996 2.78228 -3.37502 0
M  V30 791 C 66.4586 3.96857 -3.4553 0
M  V30 792 O 65.4846 3.85662 -4.18633 0
M  V30 793 N 66.6866 5.1072 -2.75944 0
M  V30 794 H 69.4516 1.03731 -2.81176 0
M  V30 795 H 67.0126 0.421573 -1.56315 0
M  V30 796 H 69.0046 3.46412 -2.09239 0
M  V30 797 H 67.5746 2.88605 -1.20109 0
M  V30 798 H 66.7946 1.87059 -3.46991 0
M  V30 799 H 68.0826 2.81564 -4.23791 0
M  V30 800 H 67.4806 5.2271 -2.16311 0
M  V30 801 H 66.0376 5.86523 -2.84314 0
M  V30 802 N 69.4707 1.49531 0.497807 0
M  V30 803 C 70.4027 1.62559 1.61578 0
M  V30 804 C 71.4157 0.508134 1.54667 0
M  V30 805 O 72.6047 0.780309 1.60541 0
M  V30 806 C 69.7047 1.56925 3.00379 0
M  V30 807 C 68.8777 2.84257 3.3244 0
M  V30 808 C 67.9367 2.71632 4.50669 0
M  V30 809 O 66.9627 3.4557 4.52294 0
M  V30 810 N 68.1647 1.83391 5.5077 0
M  V30 811 H 70.9297 2.58981 1.50828 0
M  V30 812 H 68.4907 1.4666 0.685743 0
M  V30 813 H 70.4827 1.46129 3.77397 0
M  V30 814 H 69.0527 0.683483 3.05037 0
M  V30 815 H 68.2727 3.09381 2.44289 0
M  V30 816 H 69.5607 3.68666 3.5066 0
M  V30 817 H 68.9587 1.22583 5.52259 0
M  V30 818 H 67.5157 1.78515 6.26878 0
M  V30 819 N 70.9488 -0.749086 1.3866 0
M  V30 820 C 72.1958 -1.50833 1.35114 0
M  V30 821 C 72.5238 -1.94415 -0.0574049 0
M  V30 822 O 71.7788 -1.66065 -1.03541 0
M  V30 823 C 72.0778 -2.7712 2.25697 0
M  V30 824 C 71.7438 -2.52477 3.73585 0
M  V30 825 C 70.4058 -2.45466 4.13884 0
M  V30 826 C 72.7578 -2.31066 4.67181 0
M  V30 827 C 70.0858 -2.15064 5.45861 0
M  V30 828 C 72.4378 -2.02183 5.9942 0
M  V30 829 C 71.1018 -1.93631 6.38798 0
M  V30 830 H 70.3718 -0.551936 0.494416 0
M  V30 831 H 73.0188 -0.860979 1.71054 0
M  V30 832 H 71.3238 -3.46528 1.82827 0
M  V30 833 H 73.0208 -3.35096 2.20254 0
M  V30 834 H 69.6108 -2.58807 3.41638 0
M  V30 835 H 73.7948 -2.35459 4.3689 0
M  V30 836 H 69.0508 -2.06954 5.75308 0
M  V30 837 H 73.2248 -1.8462 6.71482 0
M  V30 838 H 70.8518 -1.69839 7.40985 0
M  V30 839 N 72.4269 -1.23603 -0.977757 0
M  V30 840 C 73.3589 -0.977369 -2.07317 0
M  V30 841 C 74.3719 0.0495845 -1.62724 0
M  V30 842 O 75.5609 -0.186261 -1.77526 0
M  V30 843 C 72.6609 -0.451216 -3.35883 0
M  V30 844 C 71.8339 -1.53896 -4.09432 0
M  V30 845 C 70.8929 -1.01721 -5.16274 0
M  V30 846 O 69.9189 -1.70676 -5.43009 0
M  V30 847 N 71.1209 0.153594 -5.80297 0
M  V30 848 H 73.8859 -1.92047 -2.30082 0
M  V30 849 H 71.4469 -1.14497 -1.14465 0
M  V30 850 H 73.4389 -0.0871574 -4.04606 0
M  V30 851 H 72.0089 0.397368 -3.10064 0
M  V30 852 H 71.2289 -2.07566 -3.35127 0
M  V30 853 H 72.5169 -2.27037 -4.55337 0
M  V30 854 H 71.9149 0.730323 -5.60966 0
M  V30 855 H 70.4719 0.458892 -6.50183 0
M  V30 856 N 73.905 1.17692 -1.04816 0
M  V30 857 C 74.852 2.21581 -0.645797 0
M  V30 858 C 75.822 1.62367 0.350159 0
M  V30 859 O 77.007 1.89254 0.242433 0
M  V30 860 C 74.147 3.45092 -0.0227568 0
M  V30 861 C 73.26 4.18613 -1.06709 0
M  V30 862 C 72.395 5.29602 -0.411767 0
M  V30 863 C 71.434 5.94904 -1.44067 0
M  V30 864 N 70.571 6.97414 -0.809781 0
M  V30 865 H 75.411 2.55353 -1.5362 0
M  V30 866 H 72.948 1.25438 -0.768364 0
M  V30 867 H 74.906 4.15679 0.35588 0
M  V30 868 H 73.536 3.11917 0.831122 0
M  V30 869 H 72.588 3.46779 -1.5636 0
M  V30 870 H 73.9 4.63293 -1.84827 0
M  V30 871 H 73.054 6.06696 0.0206623 0
M  V30 872 H 71.793 4.86045 0.401438 0
M  V30 873 H 70.798 5.16544 -1.88316 0
M  V30 874 H 72.023 6.40542 -2.25571 0
M  V30 875 H 69.969 6.55998 -0.0170186 0
M  V30 876 H 69.886 7.40386 -1.52856 0
M  V30 877 H 71.154 7.78463 -0.401999 0
M  V30 878 N 75.3831 0.828654 1.34056 0
M  V30 879 C 76.2931 0.256725 2.33191 0
M  V30 880 C 77.3091 -0.611898 1.62886 0
M  V30 881 O 78.4851 -0.51844 1.94613 0
M  V30 882 C 75.5501 -0.567238 3.42028 0
M  V30 883 C 74.6111 0.324458 4.28072 0
M  V30 884 C 73.8441 -0.460274 5.31712 0
M  V30 885 O 74.0671 -1.693 5.44696 0
M  V30 886 O 73.0011 0.160391 6.01686 0
M  V30 887 H 76.8271 1.07739 2.83947 0
M  V30 888 H 74.4121 0.59093 1.37217 0
M  V30 889 H 76.2941 -1.03582 4.08471 0
M  V30 890 H 74.9691 -1.36513 2.93506 0
M  V30 891 H 73.8761 0.840659 3.64532 0
M  V30 892 H 75.2091 1.08685 4.8005 0
M  V30 893 N 76.8612 -1.46375 0.584142 0
M  V30 894 C 78.1382 -1.956 0.0033388 0
M  V30 895 C 78.5182 -1.52679 -1.45782 0
M  V30 896 O 77.8662 -0.77816 -2.14842 0
M  V30 897 C 78.0762 -3.48551 0.176891 0
M  V30 898 C 79.4242 -4.24576 0.0454609 0
M  V30 899 O 80.4482 -3.56043 0.105801 0
M  V30 900 O 79.3072 -5.46427 -0.0890376 0
M  V30 901 H 76.4012 -0.825547 -0.0490066 0
M  V30 902 H 78.9472 -1.56652 0.65256 0
M  V30 903 H 77.7192 -3.72683 1.1926 0
M  V30 904 H 77.3422 -3.94332 -0.508695 0
M  V30 905 N 78.3393 -0.321999 -1.54275 0
M  V30 906 C 79.3023 0.531975 -2.22941 0
M  V30 907 C 80.3023 1.04478 -1.22234 0
M  V30 908 O 81.4923 0.937452 -1.46825 0
M  V30 909 C 78.6243 1.73874 -2.93224 0
M  V30 910 H 79.8173 -0.0682612 -2.99822 0
M  V30 911 H 77.3703 -0.0730644 -1.56129 0
M  V30 912 H 78.1053 2.37825 -2.20476 0
M  V30 913 H 77.8903 1.37847 -3.6707 0
M  V30 914 H 79.3803 2.34496 -3.45545 0
M  V30 915 N 79.8174 1.5752 -0.0501392 0
M  V30 916 C 80.7804 2.1037 0.909786 0
M  V30 917 C 81.7804 1.02308 1.24056 0
M  V30 918 O 82.9704 1.28385 1.17741 0
M  V30 919 C 80.1024 2.58708 2.21998 0
M  V30 920 H 81.2954 2.96479 0.451665 0
M  V30 921 H 78.8484 1.55038 0.198248 0
M  V30 922 H 79.5834 1.75989 2.72394 0
M  V30 923 H 79.3684 3.37675 1.99295 0
M  V30 924 H 80.8584 2.99747 2.9076 0
M  V30 925 N 81.2955 -0.223234 1.56011 0
M  V30 926 C 82.2255 -1.27988 1.95298 0
M  V30 927 C 83.2065 -1.48976 0.820979 0
M  V30 928 O 84.3915 -1.61188 1.08315 0
M  V30 929 C 81.5215 -2.63 2.26822 0
M  V30 930 C 80.4755 -2.56671 3.42497 0
M  V30 931 C 79.8015 -3.95697 3.59622 0
M  V30 932 C 81.1015 -2.11601 4.77517 0
M  V30 933 H 82.7955 -0.953525 2.8381 0
M  V30 934 H 80.3415 -0.457244 1.36548 0
M  V30 935 H 82.2945 -3.37077 2.52898 0
M  V30 936 H 81.0185 -2.9732 1.35161 0
M  V30 937 H 79.6775 -1.85051 3.16467 0
M  V30 938 H 79.3255 -4.27322 2.6534 0
M  V30 939 H 79.0255 -3.92345 4.37424 0
M  V30 940 H 80.5495 -4.71438 3.88044 0
M  V30 941 H 81.9635 -2.7542 5.02809 0
M  V30 942 H 80.3605 -2.19311 5.5859 0
M  V30 943 H 81.4305 -1.06824 4.72987 0
M  V30 944 N 82.7736 -1.49793 -0.48987 0
M  V30 945 C 84.0016 -1.63568 -1.26701 0
M  V30 946 C 84.4166 -0.311465 -1.86213 0
M  V30 947 O 83.7736 0.704416 -1.68357 0
M  V30 948 C 83.8246 -2.71284 -2.38929 0
M  V30 949 O 83.5456 -3.9857 -1.81861 0
M  V30 950 C 85.0466 -2.95864 -3.3012 0
M  V30 951 H 82.2666 -0.550342 -0.383881 0
M  V30 952 H 84.8106 -1.95898 -0.586864 0
M  V30 953 H 82.9656 -2.417 -3.02753 0
M  V30 954 H 83.3796 -4.57993 -2.55622 0
M  V30 955 H 84.8536 -3.74941 -4.05121 0
M  V30 956 H 85.3306 -2.06206 -3.87783 0
M  V30 957 H 85.9366 -3.26907 -2.72051 0
M  V30 958 N 84.2517 0.741722 -1.39055 0
M  V30 959 C 85.5007 1.49656 -1.35225 0
M  V30 960 C 85.8137 1.95533 0.0512708 0
M  V30 961 O 87.0197 2.7067 0.212138 0
M  V30 962 C 85.4757 2.70389 -2.37525 0
M  V30 963 C 85.0837 2.31489 -3.83558 0
M  V30 964 C 86.8277 3.48236 -2.42759 0
M  V30 965 C 84.7347 3.48903 -4.77515 0
M  V30 966 H 83.6647 0.56197 -0.502699 0
M  V30 967 H 86.3157 0.809727 -1.64668 0
M  V30 968 H 84.6977 3.41113 -2.01142 0
M  V30 969 H 85.8717 1.68354 -4.28945 0
M  V30 970 H 84.1867 1.66749 -3.81554 0
M  V30 971 H 86.7837 4.35558 -3.1015 0
M  V30 972 H 87.1267 3.90229 -1.45008 0
M  V30 973 H 87.6597 2.84535 -2.78002 0
M  V30 974 H 84.3987 3.11966 -5.76504 0
M  V30 975 H 83.9187 4.11041 -4.36813 0
M  V30 976 H 85.5977 4.15328 -4.96096 0
M  V30 977 N 85.7298 1.2412 0.971189 0
M  V30 978 C 86.9598 1.10415 1.7462 0
M  V30 979 C 87.3678 -0.346462 1.86001 0
M  V30 980 O 86.7108 -1.25104 1.34517 0
M  V30 981 C 86.7728 1.66596 3.18568 0
M  V30 982 C 86.4368 3.15446 3.3067 0
M  V30 983 C 87.4338 4.12636 3.16271 0
M  V30 984 C 85.1188 3.55337 3.55022 0
M  V30 985 C 87.1128 5.47699 3.26044 0
M  V30 986 C 84.7998 4.90542 3.64434 0
M  V30 987 C 85.7978 5.86532 3.49956 0
M  V30 988 O 85.4858 7.19279 3.59017 0
M  V30 989 H 85.2178 0.386616 0.55453 0
M  V30 990 H 87.7718 1.64633 1.22821 0
M  V30 991 H 86.0018 1.06808 3.71657 0
M  V30 992 H 87.6908 1.48232 3.77865 0
M  V30 993 H 88.4568 3.8316 2.97344 0
M  V30 994 H 84.3358 2.8113 3.65359 0
M  V30 995 H 87.8798 6.22603 3.14661 0
M  V30 996 H 83.7768 5.19691 3.82873 0
M  V30 997 H 84.5448 7.27153 3.75754 0
M  V30 998 N 87.2079 -1.17134 1.05439 0
M  V30 999 C 88.1179 -2.24878 0.668365 0
M  V30 1000 C 89.1339 -1.71186 -0.311687 0
M  V30 1001 O 90.3099 -2.00738 -0.163161 0
M  V30 1002 C 87.3749 -3.46662 0.051648 0
M  V30 1003 C 86.4359 -4.15429 1.08246 0
M  V30 1004 C 85.6689 -5.31399 0.495082 0
M  V30 1005 O 85.8919 -5.66153 -0.694743 0
M  V30 1006 O 84.8259 -5.89187 1.23056 0
M  V30 1007 H 88.6519 -2.60189 1.56637 0
M  V30 1008 H 86.2369 -1.24482 0.826104 0
M  V30 1009 H 88.1189 -4.20394 -0.290966 0
M  V30 1010 H 86.7939 -3.13142 -0.819971 0
M  V30 1011 H 85.7009 -3.43704 1.47711 0
M  V30 1012 H 87.0339 -4.52982 1.92532 0
M  V30 1013 N 88.686 -0.835752 -1.33615 0
M  V30 1014 C 89.619 -0.211815 -2.27215 0
M  V30 1015 C 90.597 0.639249 -1.49507 0
M  V30 1016 O 91.781 0.600193 -1.78689 0
M  V30 1017 C 88.908 0.702893 -3.31326 0
M  V30 1018 C 87.954 -0.0723049 -4.26439 0
M  V30 1019 S 88.787 -1.42811 -5.16106 0
M  V30 1020 C 89.943 -0.518613 -6.23748 0
M  V30 1021 H 90.176 -1.00533 -2.79786 0
M  V30 1022 H 87.709 -0.632336 -1.40858 0
M  V30 1023 H 89.667 1.22505 -3.91794 0
M  V30 1024 H 88.328 1.47004 -2.77576 0
M  V30 1025 H 87.521 0.62359 -5.00127 0
M  V30 1026 H 87.123 -0.525424 -3.70291 0
M  V30 1027 H 89.415 0.284778 -6.76901 0
M  V30 1028 H 90.358 -1.22556 -6.97413 0
M  V30 1029 H 90.766 -0.101344 -5.64409 0
M  V30 1030 N 90.1641 1.46063 -0.591896 0
M  V30 1031 C 91.0941 2.33172 0.123673 0
M  V30 1032 C 92.0751 1.45897 0.87453 0
M  V30 1033 O 93.2601 1.74698 0.848181 0
M  V30 1034 C 90.3901 3.28336 1.13194 0
M  V30 1035 C 89.3441 4.25124 0.495324 0
M  V30 1036 C 88.6701 5.09863 1.61071 0
M  V30 1037 C 89.9701 5.19143 -0.573425 0
M  V30 1038 H 91.6641 2.93252 -0.603646 0
M  V30 1039 H 89.2101 1.41014 -0.291741 0
M  V30 1040 H 91.1631 3.88137 1.64097 0
M  V30 1041 H 89.8871 2.66383 1.88965 0
M  V30 1042 H 88.5461 3.66599 0.00729452 0
M  V30 1043 H 88.1941 4.44288 2.35832 0
M  V30 1044 H 87.8941 5.75417 1.19035 0
M  V30 1045 H 89.4181 5.72529 2.12233 0
M  V30 1046 H 90.8321 5.73106 -0.1491 0
M  V30 1047 H 89.2291 5.93089 -0.914636 0
M  V30 1048 H 90.2991 4.62519 -1.45617 0
M  V30 1049 N 91.6422 0.330177 1.54103 0
M  V30 1050 C 92.5742 -0.566902 2.22079 0
M  V30 1051 C 93.5872 -1.07462 1.22294 0
M  V30 1052 O 94.7762 -0.987065 1.48726 0
M  V30 1053 C 91.8762 -1.79138 2.87685 0
M  V30 1054 C 91.0492 -1.42123 4.13666 0
M  V30 1055 C 90.1082 -2.50394 4.62806 0
M  V30 1056 O 89.1342 -2.14261 5.27334 0
M  V30 1057 N 90.3362 -3.81433 4.37595 0
M  V30 1058 H 93.1012 0.0151844 2.99696 0
M  V30 1059 H 90.6622 0.153681 1.61169 0
M  V30 1060 H 92.6542 -2.50975 3.1748 0
M  V30 1061 H 91.2242 -2.28115 2.13734 0
M  V30 1062 H 90.4442 -0.534201 3.90564 0
M  V30 1063 H 91.7322 -1.14971 4.9564 0
M  V30 1064 H 91.1302 -4.13584 3.8596 0
M  V30 1065 H 89.6872 -4.4948 4.72029 0
M  V30 1066 N 93.1203 -1.57491 0.0584922 0
M  V30 1067 C 94.0683 -2.13148 -0.931168 0
M  V30 1068 C 95.0623 -1.06507 -1.31729 0
M  V30 1069 O 96.2683 -1.24906 -1.29609 0
M  V30 1070 H 92.6433 -0.68137 -0.31818 0
M  V30 1071 H 94.6143 -2.95187 -0.436707 0
M  V30 1072 C 93.3633 -2.69732 -2.19408 0
M  V30 1073 H 92.6863 -3.51454 -1.90578 0
M  V30 1074 H 94.1263 -3.12287 -2.86798 0
M  V30 1075 C 92.5853 -1.63855 -2.94369 0
M  V30 1076 O 93.1153 -1.05565 -3.87581 0
M  V30 1077 N 91.3213 -1.35202 -2.57233 0
M  V30 1078 H 90.8683 -1.82791 -1.81508 0
M  V30 1079 H 90.8263 -0.645922 -3.07693 0
M  V30 1080 N 94.5984 0.214957 -1.56127 0
M  V30 1081 C 95.8474 0.936451 -1.78643 0
M  V30 1082 C 96.1604 1.85237 -0.628229 0
M  V30 1083 O 97.3664 2.613 -0.737186 0
M  V30 1084 C 95.8224 1.7154 -3.16389 0
M  V30 1085 C 95.4304 0.845299 -4.39953 0
M  V30 1086 C 97.1744 2.42772 -3.48227 0
M  V30 1087 C 95.0814 1.62198 -5.68723 0
M  V30 1088 H 94.0114 0.353401 -0.666051 0
M  V30 1089 H 96.6624 0.190169 -1.82512 0
M  V30 1090 H 95.0444 2.50484 -3.06715 0
M  V30 1091 H 96.2184 0.0959353 -4.607 0
M  V30 1092 H 94.5334 0.244789 -4.1568 0
M  V30 1093 H 97.1304 3.01394 -4.41663 0
M  V30 1094 H 97.4734 3.15984 -2.71035 0
M  V30 1095 H 98.0064 1.70813 -3.5926 0
M  V30 1096 H 94.7454 0.933011 -6.48826 0
M  V30 1097 H 94.2654 2.34579 -5.52026 0
M  V30 1098 H 95.9444 2.18095 -6.09133 0
M  V30 1099 N 96.0765 1.50051 0.48192 0
M  V30 1100 C 97.3235 1.60498 1.23477 0
M  V30 1101 C 97.6515 0.300331 1.92167 0
M  V30 1102 O 96.9065 -0.713094 1.82246 0
M  V30 1103 C 97.2055 2.72717 2.30998 0
M  V30 1104 C 96.8715 4.13572 1.79636 0
M  V30 1105 C 95.5335 4.519 1.65348 0
M  V30 1106 C 97.8855 5.01649 1.41412 0
M  V30 1107 C 95.2135 5.76057 1.11244 0
M  V30 1108 C 97.5655 6.26343 0.887538 0
M  V30 1109 C 96.2295 6.63483 0.731207 0
M  V30 1110 H 95.4995 0.587303 0.451836 0
M  V30 1111 H 98.1465 1.83948 0.532468 0
M  V30 1112 H 96.4515 2.43312 3.07094 0
M  V30 1113 H 98.1485 2.78006 2.88988 0
M  V30 1114 H 94.7385 3.83329 1.91721 0
M  V30 1115 H 98.9225 4.72679 1.51289 0
M  V30 1116 H 94.1785 6.03516 0.978686 0
M  V30 1117 H 98.3525 6.93958 0.582654 0
M  V30 1118 H 95.9795 7.59568 0.309806 0
M  V30 1119 N 97.5546 -0.734337 1.39446 0
M  V30 1120 C 98.5176 -1.83004 1.37994 0
M  V30 1121 C 99.5176 -1.58397 0.276938 0
M  V30 1122 O 100.708 -1.65785 0.534875 0
M  V30 1123 C 97.8396 -3.20802 1.1532 0
M  V30 1124 H 99.0326 -1.85694 2.35494 0
M  V30 1125 H 96.5856 -0.938059 1.25021 0
M  V30 1126 H 97.3206 -3.23772 0.185036 0
M  V30 1127 H 97.1056 -3.4006 1.95197 0
M  V30 1128 H 98.5956 -4.00862 1.17046 0
M  V30 1129 N 99.0327 -1.24633 -0.964593 0
M  V30 1130 C 100.282 -1.08188 -1.7023 0
M  V30 1131 C 100.595 0.37873 -1.91898 0
M  V30 1132 O 101.801 0.663427 -2.6327 0
M  V30 1133 C 100.257 -1.88773 -3.06419 0
M  V30 1134 C 99.8647 -3.39263 -2.92582 0
M  V30 1135 C 101.609 -1.80867 -3.84041 0
M  V30 1136 C 99.5157 -4.1218 -4.24101 0
M  V30 1137 H 98.4457 -0.401245 -0.638372 0
M  V30 1138 H 101.097 -1.48742 -1.07462 0
M  V30 1139 H 99.4787 -1.41035 -3.70034 0
M  V30 1140 H 100.653 -3.94603 -2.37961 0
M  V30 1141 H 98.9677 -3.48154 -2.28424 0
M  V30 1142 H 101.565 -2.32646 -4.81435 0
M  V30 1143 H 101.908 -0.774543 -4.09031 0
M  V30 1144 H 102.441 -2.26301 -3.27159 0
M  V30 1145 H 99.1797 -5.15965 -4.04303 0
M  V30 1146 H 98.6997 -3.61626 -4.78526 0
M  V30 1147 H 100.379 -4.19349 -4.92702 0
M  V30 1148 N 100.511 1.16574 -1.06058 0
M  V30 1149 C 101.758 1.87047 -0.775873 0
M  V30 1150 C 102.086 1.81562 0.697534 0
M  V30 1151 O 101.341 1.22445 1.52662 0
M  V30 1152 C 101.64 3.36195 -1.21275 0
M  V30 1153 C 101.306 3.6188 -2.68986 0
M  V30 1154 C 99.9678 3.68599 -3.09335 0
M  V30 1155 C 102.32 3.72648 -3.64394 0
M  V30 1156 C 99.6478 3.83584 -4.43937 0
M  V30 1157 C 102 3.89154 -4.98741 0
M  V30 1158 C 100.664 3.94114 -5.3873 0
M  V30 1159 H 99.9338 0.684452 -0.283912 0
M  V30 1160 H 102.581 1.37853 -1.32925 0
M  V30 1161 H 100.886 3.87505 -0.578528 0
M  V30 1162 H 102.583 3.89103 -0.969542 0
M  V30 1163 H 99.1728 3.57281 -2.36744 0
M  V30 1164 H 103.357 3.66769 -3.34356 0
M  V30 1165 H 98.6128 3.85677 -4.74409 0
M  V30 1166 H 102.787 3.96427 -5.72554 0
M  V30 1167 H 100.414 4.05478 -6.43033 0
M  V30 1168 N 101.989 0.842826 1.3317 0
M  V30 1169 C 103.405 0.531128 1.50503 0
M  V30 1170 C 103.605 -0.940734 1.78192 0
M  V30 1171 O 102.661 -1.72436 1.84451 0
M  V30 1172 C 103.974 1.40789 2.65705 0
M  V30 1173 C 105.522 1.40708 2.79589 0
M  V30 1174 C 105.997 2.26878 3.97857 0
M  V30 1175 N 107.488 2.24609 4.05099 0
M  V30 1176 C 108.223 2.88019 4.95815 0
M  V30 1177 N 107.719 3.60496 5.9162 0
M  V30 1178 N 109.512 2.77469 4.88843 0
M  V30 1179 H 101.663 1.79557 1.1346 0
M  V30 1180 H 103.926 0.766267 0.558156 0
M  V30 1181 H 103.632 2.454 2.51936 0
M  V30 1182 H 103.506 1.08677 3.61205 0
M  V30 1183 H 105.893 0.368668 2.92788 0
M  V30 1184 H 105.974 1.76829 1.84838 0
M  V30 1185 H 105.618 3.3078 3.85418 0
M  V30 1186 H 105.548 1.88096 4.91861 0
M  V30 1187 H 108.039 1.71906 3.36536 0
M  V30 1188 H 108.352 4.06076 6.57512 0
M  V30 1189 H 106.697 3.64604 5.91683 0
M  V30 1190 H 109.888 2.20406 4.12963 0
M  V30 1191 H 110.061 3.2717 5.59342 0
M  V30 1192 N 103.467 -1.45747 0.599634 0
M  V30 1193 C 104.399 -2.28628 -0.161879 0
M  V30 1194 C 105.412 -1.39494 -0.839367 0
M  V30 1195 O 106.601 -1.63941 -0.706089 0
M  V30 1196 C 103.701 -3.15014 -1.24976 0
M  V30 1197 C 102.874 -4.32378 -0.660935 0
M  V30 1198 C 101.933 -5.00033 -1.63869 0
M  V30 1199 O 100.959 -5.57085 -1.1681 0
M  V30 1200 N 102.161 -4.98589 -2.97303 0
M  V30 1201 H 104.926 -2.94624 0.549265 0
M  V30 1202 H 102.487 -1.55847 0.438565 0
M  V30 1203 H 104.479 -3.5714 -1.9035 0
M  V30 1204 H 103.049 -2.5098 -1.86354 0
M  V30 1205 H 102.269 -3.9383 0.170688 0
M  V30 1206 H 103.557 -5.08197 -0.247619 0
M  V30 1207 H 102.955 -4.53514 -3.38145 0
M  V30 1208 H 101.512 -5.44603 -3.58121 0
M  V30 1209 N 104.945 -0.338344 -1.53925 0
M  V30 1210 C 106.222 0.314774 -1.93051 0
M  V30 1211 C 106.602 1.68669 -1.26941 0
M  V30 1212 O 105.95 2.24636 -0.418445 0
M  V30 1213 C 106.16 0.392249 -3.46789 0
M  V30 1214 C 107.508 0.645554 -4.19664 0
M  V30 1215 O 108.532 0.474575 -3.53024 0
M  V30 1216 O 107.391 0.976408 -5.37707 0
M  V30 1217 H 104.485 0.182598 -0.80659 0
M  V30 1218 H 107.031 -0.389141 -1.65178 0
M  V30 1219 H 105.803 -0.570702 -3.87116 0
M  V30 1220 H 105.426 1.14316 -3.80812 0
M  V30 1221 N 106.423 1.57458 -0.0668435 0
M  V30 1222 C 107.648 1.9804 0.616027 0
M  V30 1223 C 108.073 0.944771 1.62652 0
M  V30 1224 O 107.431 -0.0902094 1.81075 0
M  V30 1225 C 107.479 3.37665 1.26549 0
M  V30 1226 O 106.583 3.36701 2.38131 0
M  V30 1227 H 105.924 0.644719 0.158849 0
M  V30 1228 H 108.454 2.04121 -0.139891 0
M  V30 1229 H 108.464 3.7474 1.6135 0
M  V30 1230 H 107.139 4.12573 0.525016 0
M  V30 1231 H 105.716 3.1139 2.0516 0
M  V30 1232 N 107.901 -0.206675 1.56239 0
M  V30 1233 C 109.126 -0.949474 1.8439 0
M  V30 1234 C 109.551 -1.76549 0.649016 0
M  V30 1235 O 108.909 -1.76782 -0.402231 0
M  V30 1236 C 108.957 -1.83078 3.10668 0
M  V30 1237 O 108.061 -2.9281 2.90407 0
M  V30 1238 H 107.402 -0.268033 0.607499 0
M  V30 1239 H 109.932 -0.215488 2.03462 0
M  V30 1240 H 109.942 -2.2377 3.41161 0
M  V30 1241 H 108.617 -1.23112 3.97261 0
M  V30 1242 H 107.194 -2.55956 2.71184 0
M  V30 1243 N 109.379 -1.50304 -0.473955 0
M  V30 1244 C 110.604 -1.65175 -1.25427 0
M  V30 1245 C 111.029 -0.333673 -1.85117 0
M  V30 1246 O 110.387 0.702114 -1.67153 0
M  V30 1247 C 110.435 -2.74295 -2.34082 0
M  V30 1248 O 109.539 -2.35349 -3.38651 0
M  V30 1249 H 108.88 -0.551944 -0.369126 0
M  V30 1250 H 111.41 -1.96662 -0.564364 0
M  V30 1251 H 111.42 -2.97285 -2.79438 0
M  V30 1252 H 110.095 -3.69959 -1.90008 0
M  V30 1253 H 108.672 -2.22794 -2.99027 0
M  V30 1254 N 110.857 0.726932 -1.39834 0
M  V30 1255 C 112.085 1.51613 -1.40787 0
M  V30 1256 C 112.5 1.88799 -0.00451505 0
M  V30 1257 O 111.857 1.54662 0.968809 0
M  V30 1258 C 111.908 2.79863 -2.28821 0
M  V30 1259 O 111.629 2.44253 -3.63692 0
M  V30 1260 C 113.13 3.73837 -2.38245 0
M  V30 1261 H 110.35 0.468264 -0.480593 0
M  V30 1262 H 112.894 0.897607 -1.83748 0
M  V30 1263 H 111.049 3.38027 -1.89252 0
M  V30 1264 H 111.463 3.26695 -4.1033 0
M  V30 1265 H 112.937 4.60699 -3.04073 0
M  V30 1266 H 113.414 4.16153 -1.40403 0
M  V30 1267 H 114.02 3.21589 -2.78317 0
M  V30 1268 N 112.336 1.25143 0.95797 0
M  V30 1269 C 113.584 1.09476 1.69881 0
M  V30 1270 C 113.905 -0.365502 1.91544 0
M  V30 1271 O 113.175 -1.25985 1.50015 0
M  V30 1272 H 111.755 0.402128 0.629525 0
M  V30 1273 H 114.417 1.57214 1.15194 0
M  V30 1274 H 113.513 1.60046 2.6794 0
M  V30 1275 N 113.814 -1.1601 1.06675 0
M  V30 1276 C 115.06 -1.87145 0.796766 0
M  V30 1277 C 115.415 -1.8037 -0.669658 0
M  V30 1278 O 114.708 -1.21116 -1.48463 0
M  V30 1279 C 114.902 -3.35547 1.23057 0
M  V30 1280 C 114.731 -3.56769 2.73762 0
M  V30 1281 C 113.501 -3.72635 3.41279 0
M  V30 1282 C 115.699 -3.55166 3.7197 0
M  V30 1283 N 113.681 -3.81845 4.80695 0
M  V30 1284 C 115.052 -3.70406 4.97191 0
M  V30 1285 C 117.107 -3.384 3.65226 0
M  V30 1286 C 115.81 -3.70615 6.16471 0
M  V30 1287 C 117.836 -3.39904 4.83962 0
M  V30 1288 C 117.198 -3.55667 6.08013 0
M  V30 1289 H 113.297 -0.702267 0.344014 0
M  V30 1290 H 115.881 -1.39165 1.36166 0
M  V30 1291 H 114.052 -3.82159 0.693456 0
M  V30 1292 H 115.784 -3.94363 0.908844 0
M  V30 1293 H 112.539 -3.73121 2.91681 0
M  V30 1294 H 112.963 -3.90209 5.53232 0
M  V30 1295 H 117.605 -3.25138 2.70269 0
M  V30 1296 H 115.323 -3.82658 7.11757 0
M  V30 1297 H 118.909 -3.28169 4.80413 0
M  V30 1298 H 117.789 -3.56755 6.98352 0
M  V30 1299 N 115.292 -0.849877 -1.32721 0
M  V30 1300 C 116.24 -0.279745 -2.30912 0
M  V30 1301 C 117.234 0.594278 -1.58634 0
M  V30 1302 O 118.44 0.482613 -1.73409 0
M  V30 1303 H 114.815 -0.0717521 -0.748569 0
M  V30 1304 H 116.786 -1.12222 -2.76494 0
M  V30 1305 C 115.535 0.521108 -3.43773 0
M  V30 1306 H 114.858 -0.142141 -3.99547 0
M  V30 1307 H 116.298 0.885693 -4.14646 0
M  V30 1308 C 114.757 1.70442 -2.90605 0
M  V30 1309 O 115.287 2.8034 -2.87702 0
M  V30 1310 N 113.493 1.52991 -2.47067 0
M  V30 1311 H 113.04 0.635914 -2.49628 0
M  V30 1312 H 112.998 2.32311 -2.11847 0
M  V30 1313 N 116.77 1.45427 -0.607355 0
M  V30 1314 C 117.68 2.34325 0.113463 0
M  V30 1315 C 118.696 1.51226 0.860617 0
M  V30 1316 O 119.872 1.84029 0.818255 0
M  V30 1317 C 116.937 3.28839 1.09844 0
M  V30 1318 C 115.998 4.27844 0.353271 0
M  V30 1319 C 115.231 5.17842 1.29133 0
M  V30 1320 O 115.454 5.11264 2.52913 0
M  V30 1321 O 114.388 5.96713 0.788523 0
M  V30 1322 H 118.214 2.97364 -0.617094 0
M  V30 1323 H 115.799 1.44807 -0.367619 0
M  V30 1324 H 117.681 3.8708 1.66575 0
M  V30 1325 H 116.356 2.68365 1.81003 0
M  V30 1326 H 115.263 3.7322 -0.256494 0
M  V30 1327 H 116.596 4.91173 -0.317822 0
M  V30 1328 N 118.248 0.346503 1.53744 0
M  V30 1329 C 119.476 -0.25041 2.05379 0
M  V30 1330 C 119.891 -1.43979 1.22129 0
M  V30 1331 O 119.248 -1.80677 0.257321 0
M  V30 1332 C 119.299 -0.662575 3.55376 0
M  V30 1333 O 119.02 0.479515 4.35468 0
M  V30 1334 C 120.521 -1.31989 4.23195 0
M  V30 1335 H 117.741 -0.0478198 0.669294 0
M  V30 1336 H 120.285 0.499346 1.9831 0
M  V30 1337 H 118.44 -1.36227 3.62658 0
M  V30 1338 H 118.854 0.15037 5.24284 0
M  V30 1339 H 120.328 -1.55902 5.29527 0
M  V30 1340 H 120.805 -2.27436 3.75725 0
M  V30 1341 H 121.411 -0.662154 4.20114 0
M  V30 1342 N 119.726 -1.57421 0.075193 0
M  V30 1343 C 120.975 -1.92794 -0.592731 0
M  V30 1344 C 121.288 -0.957478 -1.70563 0
M  V30 1345 O 122.494 -1.20417 -2.43335 0
M  V30 1346 C 120.95 -3.42495 -1.10569 0
M  V30 1347 C 120.558 -4.47994 -0.0236121 0
M  V30 1348 C 122.302 -3.86864 -1.74748 0
M  V30 1349 C 120.209 -5.88829 -0.550803 0
M  V30 1350 H 119.139 -0.719591 -0.225177 0
M  V30 1351 H 121.79 -1.82902 0.147978 0
M  V30 1352 H 120.172 -3.47471 -1.89947 0
M  V30 1353 H 121.346 -4.54637 0.751099 0
M  V30 1354 H 119.661 -4.13113 0.522159 0
M  V30 1355 H 122.258 -4.8947 -2.15229 0
M  V30 1356 H 122.601 -3.24417 -2.60882 0
M  V30 1357 H 123.134 -3.84504 -1.01986 0
M  V30 1358 H 119.873 -6.54929 0.273457 0
M  V30 1359 H 119.393 -5.85698 -1.29296 0
M  V30 1360 H 121.072 -6.38811 -1.02613 0
M  V30 1361 N 121.204 0.198386 -1.56346 0
M  V30 1362 C 122.45 0.920648 -1.80698 0
M  V30 1363 C 122.783 1.83045 -0.648697 0
M  V30 1364 O 122.058 1.91308 0.350925 0
M  V30 1365 C 122.341 1.73971 -3.15287 0
M  V30 1366 C 122.194 0.85485 -4.41602 0
M  V30 1367 C 123.513 2.71296 -3.46535 0
M  V30 1368 H 120.632 0.333261 -0.657348 0
M  V30 1369 H 123.274 0.188198 -1.89066 0
M  V30 1370 H 121.424 2.36416 -3.08285 0
M  V30 1371 H 123.096 0.245362 -4.60647 0
M  V30 1372 H 121.339 0.161398 -4.335 0
M  V30 1373 H 122.01 1.46286 -5.32264 0
M  V30 1374 H 124.486 2.18983 -3.53816 0
M  V30 1375 H 123.362 3.2569 -4.41834 0
M  V30 1376 H 123.623 3.5018 -2.69864 0
M  V30 1377 N 122.682 1.50554 0.465978 0
M  V30 1378 C 123.592 1.72585 1.58907 0
M  V30 1379 C 124.608 0.60911 1.6299 0
M  V30 1380 O 125.784 0.88804 1.80765 0
M  V30 1381 C 122.849 1.81995 2.95091 0
M  V30 1382 C 121.91 3.05751 3.01355 0
M  V30 1383 C 121.143 3.14702 4.31043 0
M  V30 1384 O 121.366 2.30313 5.21835 0
M  V30 1385 O 120.3 4.07468 4.43005 0
M  V30 1386 H 124.126 2.67799 1.43239 0
M  V30 1387 H 121.711 1.34711 0.646013 0
M  V30 1388 H 123.593 1.90335 3.75966 0
M  V30 1389 H 122.268 0.899659 3.10947 0
M  V30 1390 H 121.175 3.02908 2.19539 0
M  V30 1391 H 122.508 3.97375 2.90437 0
M  V30 1392 N 124.16 -0.719506 1.40217 0
M  V30 1393 C 125.108 -1.85493 1.40339 0
M  V30 1394 C 126.102 -1.66995 0.284415 0
M  V30 1395 O 127.308 -1.74148 0.455252 0
M  V30 1396 H 123.683 -0.610857 0.438586 0
M  V30 1397 H 125.654 -1.82506 2.36081 0
M  V30 1398 C 124.403 -3.23321 1.27901 0
M  V30 1399 H 123.726 -3.38159 2.1328 0
M  V30 1400 H 125.166 -4.02914 1.32045 0
M  V30 1401 C 123.625 -3.36898 -0.0111355 0
M  V30 1402 O 124.155 -3.89674 -0.975538 0
M  V30 1403 N 122.361 -2.90492 -0.0793393 0
M  V30 1404 H 121.908 -2.47731 0.706183 0
M  V30 1405 H 121.866 -2.99955 -0.942038 0
M  V30 1406 N 125.638 -1.25649 -0.95132 0
M  V30 1407 C 126.568 -1.08808 -2.06599 0
M  V30 1408 C 127.549 0.00382547 -1.701 0
M  V30 1409 O 128.734 -0.166325 -1.93486 0
M  V30 1410 C 125.864 -0.709542 -3.39975 0
M  V30 1411 C 124.818 -1.75206 -3.90496 0
M  V30 1412 C 124.144 -1.22811 -5.20405 0
M  V30 1413 C 125.444 -3.15153 -4.16504 0
M  V30 1414 H 127.138 -2.02048 -2.20946 0
M  V30 1415 H 124.684 -0.972835 -1.06169 0
M  V30 1416 H 126.637 -0.578649 -4.17408 0
M  V30 1417 H 125.361 0.258556 -3.25575 0
M  V30 1418 H 124.02 -1.87145 -3.15234 0
M  V30 1419 H 123.668 -0.250145 -5.02378 0
M  V30 1420 H 123.368 -1.92492 -5.55176 0
M  V30 1421 H 124.892 -1.10968 -6.00432 0
M  V30 1422 H 126.306 -3.06349 -4.84586 0
M  V30 1423 H 124.703 -3.82333 -4.62538 0
M  V30 1424 H 125.773 -3.61966 -3.22658 0
M  V30 1425 N 127.117 1.15442 -1.07289 0
M  V30 1426 C 128.047 2.22312 -0.714107 0
M  V30 1427 C 129.028 1.67467 0.298155 0
M  V30 1428 O 130.213 1.93445 0.171048 0
M  V30 1429 C 127.343 3.47124 -0.110448 0
M  V30 1430 C 126.297 4.14926 -1.04979 0
M  V30 1431 C 125.623 5.33807 -0.308924 0
M  V30 1432 C 126.923 4.64762 -2.38314 0
M  V30 1433 H 128.617 2.5258 -1.6076 0
M  V30 1434 H 126.163 1.21404 -0.77441 0
M  V30 1435 H 128.116 4.21124 0.152482 0
M  V30 1436 H 126.84 3.16187 0.81812 0
M  V30 1437 H 125.499 3.42866 -1.29764 0
M  V30 1438 H 125.147 4.99126 0.623084 0
M  V30 1439 H 124.847 5.80113 -0.935036 0
M  V30 1440 H 126.371 6.10576 -0.0537771 0
M  V30 1441 H 127.785 5.30292 -2.1786 0
M  V30 1442 H 126.182 5.21728 -2.96514 0
M  V30 1443 H 127.252 3.80434 -3.00663 0
M  V30 1444 N 128.595 0.856903 1.32268 0
M  V30 1445 C 129.558 0.308171 2.27119 0
M  V30 1446 C 130.558 -0.533421 1.51695 0
M  V30 1447 O 131.748 -0.344607 1.70757 0
M  V30 1448 C 128.88 -0.563757 3.36206 0
M  V30 1449 H 130.073 1.14535 2.77167 0
M  V30 1450 H 127.626 0.631421 1.42978 0
M  V30 1451 H 128.361 -1.42266 2.91429 0
M  V30 1452 H 128.146 0.0386749 3.92081 0
M  V30 1453 H 129.636 -0.940386 4.06874 0
M  V30 1454 N 130.073 -1.45103 0.615059 0
M  V30 1455 C 131.021 -2.32331 -0.111791 0
M  V30 1456 C 132.015 -1.46409 -0.852102 0
M  V30 1457 O 133.221 -1.62849 -0.766821 0
M  V30 1458 H 129.596 -0.749993 -0.0549072 0
M  V30 1459 H 131.567 -2.91407 0.642225 0
M  V30 1460 C 130.316 -3.3015 -1.09071 0
M  V30 1461 H 129.639 -3.96265 -0.530485 0
M  V30 1462 H 131.079 -3.93898 -1.56908 0
M  V30 1463 C 129.538 -2.57875 -2.168 0
M  V30 1464 O 130.068 -2.36567 -3.24652 0
M  V30 1465 N 128.274 -2.17884 -1.92289 0
M  V30 1466 H 127.821 -2.35413 -1.04587 0
M  V30 1467 H 127.779 -1.6985 -2.64572 0
M  V30 1468 N 131.551 -0.354651 -1.53558 0
M  V30 1469 C 132.797 0.238797 -2.01389 0
M  V30 1470 C 133.13 1.49309 -1.2418 0
M  V30 1471 O 132.405 1.91638 -0.332457 0
M  V30 1472 C 132.688 0.541771 -3.56001 0
M  V30 1473 C 132.541 -0.725388 -4.43912 0
M  V30 1474 C 133.86 1.34685 -4.18984 0
M  V30 1475 H 130.979 0.0853177 -0.732045 0
M  V30 1476 H 133.621 -0.477384 -1.83905 0
M  V30 1477 H 131.771 1.15189 -3.71031 0
M  V30 1478 H 133.443 -1.36313 -4.407 0
M  V30 1479 H 131.686 -1.34801 -4.12324 0
M  V30 1480 H 132.357 -0.468505 -5.50008 0
M  V30 1481 H 134.833 0.830837 -4.07721 0
M  V30 1482 H 133.709 1.52759 -5.27215 0
M  V30 1483 H 133.97 2.35221 -3.74331 0
M  V30 1484 N 133.029 1.57378 -0.0835403 0
M  V30 1485 C 134.259 1.97975 0.590713 0
M  V30 1486 C 134.667 0.961083 1.62972 0
M  V30 1487 O 134.01 -0.0590879 1.83605 0
M  V30 1488 C 134.072 3.34915 1.3066 0
M  V30 1489 C 133.736 4.55069 0.419698 0
M  V30 1490 C 134.733 5.18868 -0.32749 0
M  V30 1491 C 132.418 5.0114 0.341137 0
M  V30 1492 C 134.412 6.27098 -1.14134 0
M  V30 1493 C 132.099 6.0924 -0.476374 0
M  V30 1494 C 133.097 6.72083 -1.21627 0
M  V30 1495 O 132.785 7.781 -2.02028 0
M  V30 1496 H 132.517 0.655818 0.163947 0
M  V30 1497 H 135.071 2.04807 -0.156021 0
M  V30 1498 H 133.301 3.24733 2.09966 0
M  V30 1499 H 134.99 3.60037 1.87424 0
M  V30 1500 H 135.756 4.84211 -0.276459 0
M  V30 1501 H 131.635 4.51996 0.90668 0
M  V30 1502 H 135.179 6.7608 -1.71935 0
M  V30 1503 H 131.076 6.43329 -0.528927 0
M  V30 1504 H 131.844 7.95034 -1.94586 0
M  V30 1505 N 134.507 -0.190092 1.56449 0
M  V30 1506 C 135.457 -1.23977 1.91347 0
M  V30 1507 C 136.441 -1.40747 0.779693 0
M  V30 1508 O 137.633 -1.43033 1.04262 0
M  V30 1509 C 134.762 -2.58347 2.26079 0
M  V30 1510 C 133.848 -2.4535 3.45925 0
M  V30 1511 N 134.239 -2.02039 4.63696 0
M  V30 1512 C 132.537 -2.76229 3.50162 0
M  V30 1513 C 133.238 -2.01053 5.4585 0
M  V30 1514 N 132.214 -2.42747 4.8639 0
M  V30 1515 H 136.016 -0.896318 2.79899 0
M  V30 1516 H 133.53 -0.398496 1.57435 0
M  V30 1517 H 135.527 -3.34173 2.49267 0
M  V30 1518 H 134.187 -2.93512 1.38856 0
M  V30 1519 H 135.198 -1.7267 4.88268 0
M  V30 1520 H 131.875 -3.15556 2.73369 0
M  V30 1521 H 133.265 -1.69426 6.50188 0
M  V30 1522 N 135.985 -1.50799 -0.457987 0
M  V30 1523 C 136.917 -1.66786 -1.57211 0
M  V30 1524 C 137.93 -0.548962 -1.53265 0
M  V30 1525 O 139.119 -0.8226 -1.58416 0
M  V30 1526 C 136.219 -1.64834 -2.96113 0
M  V30 1527 C 135.392 -2.92971 -3.24787 0
M  V30 1528 C 134.451 -2.83485 -4.43309 0
M  V30 1529 O 133.477 -3.5744 -4.42973 0
M  V30 1530 N 134.679 -1.97929 -5.45714 0
M  V30 1531 H 137.444 -2.62889 -1.43909 0
M  V30 1532 H 135.005 -1.48427 -0.646617 0
M  V30 1533 H 136.997 -1.56084 -3.7339 0
M  V30 1534 H 135.567 -0.764118 -3.03117 0
M  V30 1535 H 134.787 -3.15749 -2.36 0
M  V30 1536 H 136.075 -3.77834 -3.40762 0
M  V30 1537 H 135.473 -1.37182 -5.48815 0
M  V30 1538 H 134.03 -1.95073 -6.21924 0
M  V30 1539 N 137.463 0.71206 -1.40597 0
M  V30 1540 C 138.712 1.46754 -1.38369 0
M  V30 1541 C 139.025 1.95598 0.0097839 0
M  V30 1542 O 140.231 2.71059 0.154677 0
M  V30 1543 C 138.687 2.65289 -2.43207 0
M  V30 1544 C 138.295 2.23301 -3.88382 0
M  V30 1545 C 140.039 3.43008 -2.50091 0
M  V30 1546 C 137.946 3.38696 -4.84808 0
M  V30 1547 H 136.876 0.55118 -0.514506 0
M  V30 1548 H 139.527 0.774616 -1.66349 0
M  V30 1549 H 137.909 3.36769 -2.08332 0
M  V30 1550 H 139.083 1.59218 -4.32419 0
M  V30 1551 H 137.398 1.58618 -3.85006 0
M  V30 1552 H 139.995 4.28881 -3.1932 0
M  V30 1553 H 140.338 3.87065 -1.53253 0
M  V30 1554 H 140.871 2.78574 -2.83974 0
M  V30 1555 H 137.61 2.99668 -5.82992 0
M  V30 1556 H 137.13 4.01683 -4.45433 0
M  V30 1557 H 138.809 4.04712 -5.04794 0
M  V30 1558 N 138.941 1.26152 0.944643 0
M  V30 1559 C 139.889 1.07215 2.06417 0
M  V30 1560 C 140.883 9.2007e-05 1.694 0
M  V30 1561 O 142.089 0.1565 1.79318 0
M  V30 1562 H 138.464 0.329837 0.675805 0
M  V30 1563 H 140.435 2.02099 2.19541 0
M  V30 1564 C 139.184 0.718197 3.40202 0
M  V30 1565 H 138.507 1.53497 3.69159 0
M  V30 1566 H 139.947 0.625459 4.19361 0
M  V30 1567 C 138.406 -0.576435 3.31932 0
M  V30 1568 O 138.936 -1.61574 3.67773 0
M  V30 1569 N 137.142 -0.565781 2.85039 0
M  V30 1570 H 136.689 0.280367 2.5607 0
M  V30 1571 H 136.647 -1.43213 2.79888 0
M  V30 1572 N 140.419 -1.14872 1.07899 0
M  V30 1573 C 141.369 -2.17809 0.674027 0
M  V30 1574 C 142.353 -1.58008 -0.303699 0
M  V30 1575 O 143.545 -1.76616 -0.11654 0
M  V30 1576 C 140.674 -3.43208 0.0793318 0
M  V30 1577 C 139.76 -4.10051 1.08253 0
M  V30 1578 N 140.151 -4.52296 2.2641 0
M  V30 1579 C 138.449 -4.36469 0.917124 0
M  V30 1580 C 139.15 -5.04199 2.901 0
M  V30 1581 N 138.126 -4.98088 2.17736 0
M  V30 1582 H 141.928 -2.48207 1.57386 0
M  V30 1583 H 139.442 -1.315 0.952976 0
M  V30 1584 H 141.439 -4.16272 -0.228719 0
M  V30 1585 H 140.099 -3.14291 -0.815551 0
M  V30 1586 H 141.11 -4.45504 2.64096 0
M  V30 1587 H 137.787 -4.17432 0.0756078 0
M  V30 1588 H 139.177 -5.46802 3.90458 0
M  V30 1589 N 141.898 -0.863906 -1.31812 0
M  V30 1590 C 142.828 -0.330843 -2.31144 0
M  V30 1591 C 143.809 0.575005 -1.60087 0
M  V30 1592 O 144.994 0.493304 -1.8783 0
M  V30 1593 C 142.124 0.47374 -3.44054 0
M  V30 1594 C 141.078 -0.338481 -4.26659 0
M  V30 1595 C 140.404 0.591412 -5.31419 0
M  V30 1596 C 141.704 -1.56926 -4.98168 0
M  V30 1597 H 143.398 -1.16086 -2.75979 0
M  V30 1598 H 140.944 -0.559657 -1.32679 0
M  V30 1599 H 142.897 0.857143 -4.12591 0
M  V30 1600 H 141.621 1.33721 -2.9797 0
M  V30 1601 H 140.28 -0.703754 -3.59782 0
M  V30 1602 H 139.928 1.45199 -4.81587 0
M  V30 1603 H 139.628 0.0519022 -5.87577 0
M  V30 1604 H 141.152 0.97179 -6.02817 0
M  V30 1605 H 142.566 -1.25764 -5.59336 0
M  V30 1606 H 140.963 -2.04739 -5.64094 0
M  V30 1607 H 142.033 -2.32544 -4.25501 0
M  V30 1608 N 143.376 1.44774 -0.622745 0
M  V30 1609 C 144.323 2.30635 0.0871679 0
M  V30 1610 C 145.293 1.42994 0.845097 0
M  V30 1611 O 146.478 1.71907 0.827812 0
M  V30 1612 C 143.618 3.28144 1.06844 0
M  V30 1613 C 142.731 4.30888 0.309809 0
M  V30 1614 C 141.866 5.15494 1.28215 0
M  V30 1615 C 140.905 6.09953 0.512198 0
M  V30 1616 N 140.042 6.87287 1.43458 0
M  V30 1617 H 144.882 2.90803 -0.650974 0
M  V30 1618 H 142.419 1.43286 -0.33281 0
M  V30 1619 H 144.377 3.83157 1.65066 0
M  V30 1620 H 143.007 2.69695 1.77382 0
M  V30 1621 H 142.059 3.78414 -0.388181 0
M  V30 1622 H 143.371 4.97955 -0.290254 0
M  V30 1623 H 142.525 5.74983 1.93596 0
M  V30 1624 H 141.264 4.48481 1.91614 0
M  V30 1625 H 140.269 5.49581 -0.155151 0
M  V30 1626 H 141.494 6.78999 -0.116958 0
M  V30 1627 H 139.44 6.2295 2.05594 0
M  V30 1628 H 139.357 7.50763 0.888335 0
M  V30 1629 H 140.625 7.51306 2.07749 0
M  V30 1630 N 144.854 0.36279 1.53368 0
M  V30 1631 C 146.082 -0.228613 2.05633 0
M  V30 1632 C 146.497 -1.42676 1.23649 0
M  V30 1633 O 145.854 -1.80394 0.27647 0
M  V30 1634 C 145.905 -0.624845 3.56059 0
M  V30 1635 O 145.626 0.525675 4.34935 0
M  V30 1636 C 147.127 -1.27493 4.24571 0
M  V30 1637 H 144.347 -0.0407183 0.669763 0
M  V30 1638 H 146.891 0.520352 1.97769 0
M  V30 1639 H 145.046 -1.32373 3.64083 0
M  V30 1640 H 145.46 0.205969 5.24095 0
M  V30 1641 H 146.934 -1.50277 5.31151 0
M  V30 1642 H 147.411 -2.23439 3.78116 0
M  V30 1643 H 148.017 -0.617558 4.20792 0
M  V30 1644 N 146.332 -1.57332 0.0918853 0
M  V30 1645 C 147.578 -1.94524 -0.573425 0
M  V30 1646 C 147.911 -0.973578 -1.68033 0
M  V30 1647 O 147.186 -0.00609226 -1.94499 0
M  V30 1648 C 147.469 -3.41858 -1.13161 0
M  V30 1649 C 147.322 -4.4979 -0.0299747 0
M  V30 1650 C 148.641 -3.90435 -2.03098 0
M  V30 1651 H 145.76 -0.70734 -0.206975 0
M  V30 1652 H 148.402 -1.89309 0.161942 0
M  V30 1653 H 146.552 -3.46433 -1.7583 0
M  V30 1654 H 148.224 -4.57327 0.604112 0
M  V30 1655 H 146.467 -4.291 0.636833 0
M  V30 1656 H 147.138 -5.50069 -0.461287 0
M  V30 1657 H 149.614 -3.87992 -1.50338 0
M  V30 1658 H 148.49 -4.94097 -2.39081 0
M  V30 1659 H 148.751 -3.29541 -2.94712 0
M  V30 1660 N 147.81 0.181792 -1.56548 0
M  V30 1661 C 148.74 1.22765 -1.98623 0
M  V30 1662 C 149.721 1.46747 -0.860189 0
M  V30 1663 O 150.906 1.58259 -1.12551 0
M  V30 1664 C 148.036 2.56894 -2.33715 0
M  V30 1665 C 146.99 2.475 -3.49182 0
M  V30 1666 C 146.316 3.86023 -3.69986 0
M  V30 1667 C 147.616 1.98866 -4.82959 0
M  V30 1668 H 149.31 0.877942 -2.86239 0
M  V30 1669 H 146.856 0.42088 -1.37712 0
M  V30 1670 H 148.809 3.30253 -2.61746 0
M  V30 1671 H 147.533 2.93632 -1.42997 0
M  V30 1672 H 146.192 1.76596 -3.21262 0
M  V30 1673 H 145.84 4.20136 -2.76576 0
M  V30 1674 H 145.54 3.80609 -4.47672 0
M  V30 1675 H 147.064 4.60984 -4.00407 0
M  V30 1676 H 148.478 2.61992 -5.09934 0
M  V30 1677 H 146.875 2.04424 -5.64208 0
M  V30 1678 H 147.945 0.942465 -4.75653 0
M  V30 1679 N 149.288 1.51039 0.449983 0
M  V30 1680 C 150.198 1.74261 1.57067 0
M  V30 1681 C 151.214 0.626363 1.62335 0
M  V30 1682 O 152.39 0.907162 1.79812 0
M  V30 1683 C 149.455 1.85114 2.93144 0
M  V30 1684 C 148.516 3.0893 2.98095 0
M  V30 1685 C 147.749 3.19256 4.27681 0
M  V30 1686 O 147.972 2.35835 5.19363 0
M  V30 1687 O 146.906 4.12144 4.38658 0
M  V30 1688 H 150.732 2.69303 1.40391 0
M  V30 1689 H 148.317 1.35389 0.631688 0
M  V30 1690 H 150.199 1.94311 3.73926 0
M  V30 1691 H 148.874 0.932588 3.09975 0
M  V30 1692 H 147.781 3.0522 2.16314 0
M  V30 1693 H 149.114 4.00433 2.86206 0
M  V30 1694 N 150.766 -0.704594 1.40972 0
M  V30 1695 C 151.676 -1.84856 1.44448 0
M  V30 1696 C 152.692 -1.70726 0.335961 0
M  V30 1697 O 153.868 -1.92799 0.582276 0
M  V30 1698 C 150.933 -3.20758 1.31587 0
M  V30 1699 C 149.994 -3.47063 2.52677 0
M  V30 1700 C 149.227 -4.76481 2.4042 0
M  V30 1701 O 149.45 -5.52341 1.42391 0
M  V30 1702 O 148.384 -5.03367 3.30007 0
M  V30 1703 H 152.21 -1.8488 2.40942 0
M  V30 1704 H 149.795 -0.85647 1.22413 0
M  V30 1705 H 151.677 -4.01913 1.26665 0
M  V30 1706 H 150.352 -3.21438 0.382049 0
M  V30 1707 H 149.259 -2.65873 2.63177 0
M  V30 1708 H 150.592 -3.5119 3.44858 0
M  V30 1709 N 152.244 -1.26651 -0.937939 0
M  V30 1710 C 153.191 -1.0849 -2.03712 0
M  V30 1711 C 154.161 0.011033 -1.66096 0
M  V30 1712 O 155.346 -0.149353 -1.90215 0
M  V30 1713 C 152.486 -0.72735 -3.37348 0
M  V30 1714 C 151.599 -1.89986 -3.87981 0
M  V30 1715 C 150.734 -1.48513 -5.10017 0
M  V30 1716 C 149.773 -2.62575 -5.5292 0
M  V30 1717 N 148.91 -2.21762 -6.66158 0
M  V30 1718 H 153.75 -2.02551 -2.18579 0
M  V30 1719 H 151.287 -1.00844 -1.07093 0
M  V30 1720 H 153.245 -0.50092 -4.14182 0
M  V30 1721 H 151.875 0.176298 -3.22318 0
M  V30 1722 H 150.927 -2.23913 -3.07518 0
M  V30 1723 H 152.239 -2.75586 -4.15757 0
M  V30 1724 H 151.393 -1.21934 -5.94321 0
M  V30 1725 H 150.132 -0.60009 -4.83994 0
M  V30 1726 H 149.137 -2.8988 -4.67172 0
M  V30 1727 H 150.362 -3.51685 -5.80943 0
M  V30 1728 H 148.308 -1.35696 -6.41812 0
M  V30 1729 H 148.225 -3.00903 -6.93537 0
M  V30 1730 H 149.493 -1.98403 -7.53828 0
M  V30 1731 N 153.722 1.14298 -1.08507 0
M  V30 1732 C 154.652 2.21542 -0.737646 0
M  V30 1733 C 155.633 1.67773 0.280377 0
M  V30 1734 O 156.818 1.93616 0.150521 0
M  V30 1735 C 153.948 3.46988 -0.147259 0
M  V30 1736 C 152.902 4.13789 -1.09374 0
M  V30 1737 C 152.228 5.33449 -0.365524 0
M  V30 1738 C 153.528 4.62208 -2.4323 0
M  V30 1739 H 155.222 2.5086 -1.6343 0
M  V30 1740 H 152.768 1.20576 -0.787243 0
M  V30 1741 H 154.721 4.21262 0.107808 0
M  V30 1742 H 153.445 3.17037 0.784538 0
M  V30 1743 H 152.104 3.4147 -1.33393 0
M  V30 1744 H 151.752 4.99759 0.57011 0
M  V30 1745 H 151.452 5.79088 -0.996512 0
M  V30 1746 H 152.976 6.10485 -0.118534 0
M  V30 1747 H 154.39 5.27952 -2.23472 0
M  V30 1748 H 152.787 5.18553 -3.02031 0
M  V30 1749 H 153.857 3.77224 -3.04681 0
M  V30 1750 N 155.201 0.870884 1.31352 0
M  V30 1751 C 156.111 0.330783 2.32256 0
M  V30 1752 C 157.127 -0.559767 1.6475 0
M  V30 1753 O 158.303 -0.456263 1.96164 0
M  V30 1754 C 155.368 -0.458137 3.4366 0
M  V30 1755 C 154.429 0.460482 4.26823 0
M  V30 1756 C 153.662 -0.290881 5.32907 0
M  V30 1757 O 153.885 -1.51885 5.49806 0
M  V30 1758 O 152.819 0.351732 6.00871 0
M  V30 1759 H 156.645 1.16718 2.80376 0
M  V30 1760 H 154.23 0.634285 1.35267 0
M  V30 1761 H 156.112 -0.905343 4.1156 0
M  V30 1762 H 154.787 -1.27106 2.97701 0
M  V30 1763 H 153.694 0.956207 3.61673 0
M  V30 1764 H 155.027 1.23903 4.7635 0
M  V30 1765 N 156.679 -1.44442 0.630414 0
M  V30 1766 C 157.626 -2.30678 -0.0749355 0
M  V30 1767 C 158.596 -1.4344 -0.837502 0
M  V30 1768 O 159.781 -1.72343 -0.818684 0
M  V30 1769 C 156.921 -3.28706 -1.05103 0
M  V30 1770 C 156.034 -4.31046 -0.286954 0
M  V30 1771 C 155.169 -5.16167 -1.2548 0
M  V30 1772 C 154.208 -6.10216 -0.479843 0
M  V30 1773 N 153.345 -6.88039 -1.39811 0
M  V30 1774 H 158.185 -2.90454 0.666386 0
M  V30 1775 H 155.722 -1.43107 0.340404 0
M  V30 1776 H 157.68 -3.84027 -1.63031 0
M  V30 1777 H 156.31 -2.70632 -1.75949 0
M  V30 1778 H 155.362 -3.78203 0.408243 0
M  V30 1779 H 156.674 -4.97794 0.316657 0
M  V30 1780 H 155.828 -5.76002 -1.90544 0
M  V30 1781 H 154.567 -4.49491 -1.89233 0
M  V30 1782 H 153.572 -5.49491 0.184295 0
M  V30 1783 H 154.797 -6.78928 0.152965 0
M  V30 1784 H 152.743 -6.24032 -2.02287 0
M  V30 1785 H 152.66 -7.51223 -0.848508 0
M  V30 1786 H 153.928 -7.52397 -2.03762 0
M  V30 1787 N 158.157 -0.370918 -1.53173 0
M  V30 1788 C 159.067 0.480823 -2.2962 0
M  V30 1789 C 160.083 1.08789 -1.35798 0
M  V30 1790 O 161.259 1.09768 -1.68858 0
M  V30 1791 C 158.324 1.60227 -3.07454 0
M  V30 1792 C 157.385 1.0222 -4.16953 0
M  V30 1793 C 156.618 2.0902 -4.91066 0
M  V30 1794 O 156.841 3.30222 -4.65091 0
M  V30 1795 O 155.775 1.71778 -5.76867 0
M  V30 1796 H 159.601 -0.141421 -3.03371 0
M  V30 1797 H 157.186 -0.135146 -1.48787 0
M  V30 1798 H 159.068 2.25417 -3.56041 0
M  V30 1799 H 157.743 2.20982 -2.36535 0
M  V30 1800 H 156.65 0.334064 -3.72605 0
M  V30 1801 H 157.983 0.459131 -4.90054 0
M  V30 1802 N 159.635 1.57281 -0.100228 0
M  V30 1803 C 160.912 1.86014 0.604812 0
M  V30 1804 C 161.292 0.998025 1.86018 0
M  V30 1805 O 160.64 0.0718184 2.28387 0
M  V30 1806 C 160.85 3.36784 0.915278 0
M  V30 1807 C 162.198 4.04957 1.27651 0
M  V30 1808 O 163.222 3.41695 1.00613 0
M  V30 1809 O 162.081 5.16593 1.7831 0
M  V30 1810 H 159.175 0.76942 0.303185 0
M  V30 1811 H 161.721 1.69176 -0.133313 0
M  V30 1812 H 160.493 3.91292 0.0248896 0
M  V30 1813 H 160.116 3.58987 1.70921 0
M  V30 1814 N 161.113 -0.173488 1.56642 0
M  V30 1815 C 162.36 -0.890465 1.81871 0
M  V30 1816 C 162.688 -1.82339 0.67696 0
M  V30 1817 O 161.943 -1.92795 -0.335926 0
M  V30 1818 C 162.242 -1.72069 3.13252 0
M  V30 1819 C 161.908 -0.936878 4.41059 0
M  V30 1820 C 160.57 -0.720545 4.75775 0
M  V30 1821 C 162.922 -0.386919 5.19762 0
M  V30 1822 C 160.25 0.0568829 5.86672 0
M  V30 1823 C 162.602 0.37741 6.31473 0
M  V30 1824 C 161.266 0.604563 6.64757 0
M  V30 1825 H 160.536 -0.325844 0.665512 0
M  V30 1826 H 163.183 -0.155527 1.90867 0
M  V30 1827 H 161.488 -2.52496 2.99588 0
M  V30 1828 H 163.185 -2.27844 3.29982 0
M  V30 1829 H 159.775 -1.11553 4.13828 0
M  V30 1830 H 163.959 -0.541398 4.93338 0
M  V30 1831 H 159.215 0.242635 6.10918 0
M  V30 1832 H 163.389 0.810825 6.91664 0
M  V30 1833 H 161.016 1.20885 7.50527 0
M  V30 1834 N 162.591 -1.51276 -0.441967 0
M  V30 1835 C 163.819 -1.67516 -1.21434 0
M  V30 1836 C 164.234 -0.37055 -1.85128 0
M  V30 1837 O 163.591 0.650498 -1.70513 0
M  V30 1838 C 163.642 -2.78748 -2.30177 0
M  V30 1839 O 163.363 -4.04154 -1.69089 0
M  V30 1840 C 164.864 -3.06217 -3.20541 0
M  V30 1841 H 162.084 -0.562276 -0.366178 0
M  V30 1842 H 164.628 -1.97666 -0.524244 0
M  V30 1843 H 162.783 -2.5121 -2.94911 0
M  V30 1844 H 163.197 -4.65894 -2.40922 0
M  V30 1845 H 164.671 -3.8764 -3.92987 0
M  V30 1846 H 165.148 -2.18439 -3.81026 0
M  V30 1847 H 165.754 -3.35397 -2.61513 0
M  V30 1848 N 164.069 0.697108 -1.41344 0
M  V30 1849 C 165.485 1.00751 -1.2378 0
M  V30 1850 C 165.685 2.01105 -0.126066 0
M  V30 1851 O 164.741 2.47295 0.51004 0
M  V30 1852 C 166.054 1.53359 -2.58653 0
M  V30 1853 C 167.602 1.6525 -2.65822 0
M  V30 1854 C 168.077 2.2126 -4.01009 0
M  V30 1855 N 169.568 2.28622 -4.02847 0
M  V30 1856 C 170.303 2.72984 -5.04249 0
M  V30 1857 N 169.799 3.16962 -6.16041 0
M  V30 1858 N 171.592 2.72534 -4.91611 0
M  V30 1859 H 163.743 0.0322662 -2.12375 0
M  V30 1860 H 166.006 0.0768853 -0.944877 0
M  V30 1861 H 165.712 0.870773 -3.4075 0
M  V30 1862 H 165.586 2.51597 -2.81032 0
M  V30 1863 H 167.973 2.30644 -1.84086 0
M  V30 1864 H 168.054 0.655614 -2.47256 0
M  V30 1865 H 167.698 1.56482 -4.83193 0
M  V30 1866 H 167.628 3.21698 -4.16915 0
M  V30 1867 H 170.119 1.97585 -3.22131 0
M  V30 1868 H 170.432 3.49434 -6.89287 0
M  V30 1869 H 168.777 3.14875 -6.1958 0
M  V30 1870 H 171.968 2.37525 -4.0336 0
M  V30 1871 H 172.141 3.06789 -5.70775 0
M  V30 1872 N 165.547 1.27147 0.931209 0
M  V30 1873 C 166.795 1.13055 1.6752 0
M  V30 1874 C 167.116 -0.324791 1.92276 0
M  V30 1875 O 166.386 -1.22775 1.52654 0
M  V30 1876 H 164.966 0.415391 0.620854 0
M  V30 1877 H 167.628 1.59623 1.11833 0
M  V30 1878 H 166.724 1.65694 2.64485 0
M  V30 1879 N 167.025 -1.13721 1.09112 0
M  V30 1880 C 167.972 -2.19031 0.727591 0
M  V30 1881 C 168.942 -1.63555 -0.289656 0
M  V30 1882 O 170.127 -1.90023 -0.172026 0
M  V30 1883 C 167.267 -3.4477 0.15082 0
M  V30 1884 C 166.38 -4.14365 1.22172 0
M  V30 1885 C 165.515 -5.27709 0.608042 0
M  V30 1886 C 164.554 -5.89147 1.66047 0
M  V30 1887 N 163.691 -6.93929 1.06806 0
M  V30 1888 H 168.531 -2.49475 1.62991 0
M  V30 1889 H 166.068 -1.22499 0.81439 0
M  V30 1890 H 168.026 -4.16714 -0.201358 0
M  V30 1891 H 166.656 -3.14787 -0.714783 0
M  V30 1892 H 165.708 -3.40737 1.69122 0
M  V30 1893 H 167.02 -4.56114 2.01895 0
M  V30 1894 H 166.174 -6.06355 0.204523 0
M  V30 1895 H 164.913 -4.872 -0.220769 0
M  V30 1896 H 163.918 -5.09198 2.07357 0
M  V30 1897 H 165.143 -6.31729 2.49189 0
M  V30 1898 H 163.089 -6.55483 0.260476 0
M  V30 1899 H 163.006 -7.34202 1.8023 0
M  V30 1900 H 164.274 -7.76434 0.690644 0
M  V30 1901 N 168.503 -0.877838 -1.30888 0
M  V30 1902 C 169.433 -0.35534 -2.3078 0
M  V30 1903 C 170.414 0.557994 -1.60687 0
M  V30 1904 O 171.599 0.473355 -1.88343 0
M  V30 1905 C 168.729 0.437221 -3.44537 0
M  V30 1906 C 167.683 -0.383715 -4.26276 0
M  V30 1907 C 167.009 0.535014 -5.32017 0
M  V30 1908 C 168.309 -1.62201 -4.96476 0
M  V30 1909 H 170.003 -1.19007 -2.74732 0
M  V30 1910 H 167.549 -0.573698 -1.32078 0
M  V30 1911 H 169.502 0.813334 -4.13477 0
M  V30 1912 H 168.226 1.30553 -2.99372 0
M  V30 1913 H 166.885 -0.741874 -3.59015 0
M  V30 1914 H 166.533 1.40083 -4.831 0
M  V30 1915 H 166.233 -0.0104211 -5.87599 0
M  V30 1916 H 167.757 0.907799 -6.03814 0
M  V30 1917 H 169.171 -1.31689 -5.5797 0
M  V30 1918 H 167.568 -2.10711 -5.61891 0
M  V30 1919 H 168.638 -2.37044 -4.23011 0
M  V30 1920 N 169.982 1.44106 -0.638065 0
M  V30 1921 C 170.915 2.27924 0.112161 0
M  V30 1922 C 171.893 1.38945 0.844574 0
M  V30 1923 O 173.077 1.68386 0.847248 0
M  V30 1924 C 170.204 3.18029 1.16512 0
M  V30 1925 C 169.25 4.23163 0.532458 0
M  V30 1926 S 170.083 5.31131 -0.682666 0
M  V30 1927 C 171.239 6.24805 0.37013 0
M  V30 1928 H 171.472 2.91205 -0.598887 0
M  V30 1929 H 169.005 1.48394 -0.426441 0
M  V30 1930 H 170.963 3.70492 1.76766 0
M  V30 1931 H 169.624 2.53955 1.8484 0
M  V30 1932 H 168.817 4.86252 1.32571 0
M  V30 1933 H 168.419 3.74 0.00437644 0
M  V30 1934 H 170.711 6.66042 1.24071 0
M  V30 1935 H 171.654 7.07741 -0.225349 0
M  V30 1936 H 172.062 5.60154 0.699141 0
M  V30 1937 N 171.46 0.379036 1.52974 0
M  V30 1938 C 172.685 -0.209353 2.06341 0
M  V30 1939 C 173.11 -1.40583 1.24972 0
M  V30 1940 O 172.468 -1.79246 0.272155 0
M  V30 1941 C 172.516 -0.567786 3.56102 0
M  V30 1942 O 171.62 -1.66318 3.77375 0
M  V30 1943 H 170.961 -0.0272919 0.663439 0
M  V30 1944 H 173.491 0.543536 1.97248 0
M  V30 1945 H 173.501 -0.835003 3.99364 0
M  V30 1946 H 172.176 0.307013 4.14765 0
M  V30 1947 H 170.753 -1.39048 3.46006 0
M  V30 1948 N 172.938 -1.57226 0.108567 0
M  V30 1949 C 174.163 -1.99604 -0.563303 0
M  V30 1950 C 174.588 -0.987563 -1.6009 0
M  V30 1951 O 173.946 0.0421687 -1.81251 0
M  V30 1952 C 173.994 -3.40902 -1.17552 0
M  V30 1953 O 173.098 -3.42896 -2.2912 0
M  V30 1954 H 172.439 -0.648704 -0.1417 0
M  V30 1955 H 174.969 -2.03679 0.193961 0
M  V30 1956 H 174.979 -3.78886 -1.51357 0
M  V30 1957 H 173.654 -4.1382 -0.415445 0
M  V30 1958 H 172.231 -3.1672 -1.96832 0
M  V30 1959 N 174.416 0.165178 -1.56732 0
M  V30 1960 C 175.346 1.20651 -1.99914 0
M  V30 1961 C 176.327 1.45827 -0.875705 0
M  V30 1962 O 177.512 1.57057 -1.14223 0
M  V30 1963 C 174.642 2.54401 -2.36427 0
M  V30 1964 C 173.596 2.43782 -3.51787 0
M  V30 1965 C 172.922 3.82078 -3.7406 0
M  V30 1966 C 174.222 1.93732 -4.85041 0
M  V30 1967 H 175.916 0.847534 -2.87154 0
M  V30 1968 H 173.462 0.40625 -1.38151 0
M  V30 1969 H 175.415 3.27458 -2.65234 0
M  V30 1970 H 174.139 2.92098 -1.46103 0
M  V30 1971 H 172.798 1.73178 -3.23117 0
M  V30 1972 H 172.446 4.17179 -2.81017 0
M  V30 1973 H 172.146 3.7584 -4.51684 0
M  V30 1974 H 173.67 4.56712 -4.05274 0
M  V30 1975 H 175.084 2.56569 -5.12684 0
M  V30 1976 H 173.481 1.98428 -5.66345 0
M  V30 1977 H 174.551 0.891962 -4.76626 0
M  V30 1978 N 175.894 1.51508 0.433938 0
M  V30 1979 C 176.844 1.69451 1.52546 0
M  V30 1980 C 177.828 0.548474 1.51263 0
M  V30 1981 O 179.02 0.804529 1.57659 0
M  V30 1982 C 176.149 1.82604 2.90707 0
M  V30 1983 C 175.235 3.03002 2.96733 0
M  V30 1984 N 175.626 4.26121 2.72496 0
M  V30 1985 C 173.924 3.02327 3.27894 0
M  V30 1986 C 174.625 5.07407 2.84452 0
M  V30 1987 N 173.601 4.42126 3.16269 0
M  V30 1988 H 177.403 2.62305 1.32564 0
M  V30 1989 H 174.917 1.49202 0.641297 0
M  V30 1990 H 176.914 1.93569 3.69238 0
M  V30 1991 H 175.574 0.909339 3.11707 0
M  V30 1992 H 176.585 4.55009 2.4736 0
M  V30 1993 H 173.262 2.20301 3.54646 0
M  V30 1994 H 174.652 6.15422 2.69639 0
M  V30 1995 N 177.372 -0.689602 1.41712 0
M  V30 1996 C 178.302 -1.81577 1.46806 0
M  V30 1997 C 179.283 -1.66945 0.326105 0
M  V30 1998 O 180.468 -1.86588 0.538377 0
M  V30 1999 C 177.598 -3.19762 1.35535 0
M  V30 2000 C 176.552 -3.49107 2.47605 0
M  V30 2001 C 175.878 -4.86711 2.21397 0
M  V30 2002 C 177.178 -3.47483 3.89939 0
M  V30 2003 H 178.872 -1.7757 2.41058 0
M  V30 2004 H 176.418 -0.852887 1.16025 0
M  V30 2005 H 178.371 -3.98263 1.3771 0
M  V30 2006 H 177.095 -3.24409 0.377708 0
M  V30 2007 H 175.754 -2.72959 2.44722 0
M  V30 2008 H 175.402 -4.8799 1.21961 0
M  V30 2009 H 175.102 -5.0731 2.96497 0
M  V30 2010 H 176.626 -5.67515 2.25297 0
M  V30 2011 H 178.04 -4.1598 3.94505 0
M  V30 2012 H 176.437 -3.79615 4.64771 0
M  V30 2013 H 177.507 -2.46341 4.17665 0
M  V30 2014 N 178.85 -1.27639 -0.924453 0
M  V30 2015 C 179.797 -1.10644 -2.0255 0
M  V30 2016 C 180.767 -0.00658438 -1.66099 0
M  V30 2017 O 181.952 -0.16952 -1.90045 0
M  V30 2018 C 179.092 -0.76309 -3.36557 0
M  V30 2019 C 178.205 -1.94091 -3.85944 0
M  V30 2020 C 177.34 -1.53914 -5.08413 0
M  V30 2021 C 176.379 -2.68425 -5.50104 0
M  V30 2022 N 175.516 -2.28815 -6.63768 0
M  V30 2023 H 180.356 -2.04858 -2.16419 0
M  V30 2024 H 177.893 -1.01974 -1.06017 0
M  V30 2025 H 179.851 -0.544822 -4.13627 0
M  V30 2026 H 178.481 0.142102 -3.22487 0
M  V30 2027 H 177.533 -2.27162 -3.05125 0
M  V30 2028 H 178.845 -2.7998 -4.12811 0
M  V30 2029 H 177.999 -1.28231 -5.92994 0
M  V30 2030 H 176.738 -0.651391 -4.8333 0
M  V30 2031 H 175.743 -2.94819 -4.64071 0
M  V30 2032 H 176.968 -3.57826 -5.7718 0
M  V30 2033 H 174.914 -1.42495 -6.40337 0
M  V30 2034 H 174.831 -3.08242 -6.90306 0
M  V30 2035 H 176.099 -2.06387 -7.51681 0
M  V30 2036 N 180.328 1.1314 -1.09713 0
M  V30 2037 C 181.744 1.36477 -0.827423 0
M  V30 2038 C 181.944 1.93654 0.556817 0
M  V30 2039 O 181 2.15791 1.31112 0
M  V30 2040 C 182.313 2.31334 -1.92106 0
M  V30 2041 C 183.861 2.44943 -1.94864 0
M  V30 2042 C 184.336 3.4311 -3.0338 0
M  V30 2043 N 185.827 3.50662 -3.02639 0
M  V30 2044 C 186.562 4.2651 -3.83246 0
M  V30 2045 N 186.058 5.05485 -4.73768 0
M  V30 2046 N 187.851 4.2184 -3.71493 0
M  V30 2047 H 180.002 0.743807 -1.9895 0
M  V30 2048 H 182.265 0.389823 -0.864143 0
M  V30 2049 H 181.971 1.96483 -2.91698 0
M  V30 2050 H 181.845 3.31381 -1.80184 0
M  V30 2051 H 184.232 2.79079 -0.959099 0
M  V30 2052 H 184.313 1.4481 -2.10864 0
M  V30 2053 H 183.957 3.09704 -4.02549 0
M  V30 2054 H 183.887 4.43055 -2.84622 0
M  V30 2055 H 186.378 2.94315 -2.37039 0
M  V30 2056 H 186.691 5.60675 -5.3185 0
M  V30 2057 H 185.036 5.04708 -4.77802 0
M  V30 2058 H 188.227 3.5922 -3.00131 0
M  V30 2059 H 188.4 4.80697 -4.3455 0
M  V30 2060 N 181.806 0.884767 1.30421 0
M  V30 2061 C 183.036 0.517293 2.00019 0
M  V30 2062 C 183.444 -0.898632 1.66497 0
M  V30 2063 O 182.787 -1.60245 0.898181 0
M  V30 2064 C 182.849 0.612025 3.54252 0
M  V30 2065 C 182.513 1.99222 4.1129 0
M  V30 2066 C 183.51 2.9616 4.273 0
M  V30 2067 C 181.195 2.29755 4.46674 0
M  V30 2068 C 183.189 4.21764 4.77906 0
M  V30 2069 C 180.876 3.55606 4.96979 0
M  V30 2070 C 181.874 4.51425 5.12547 0
M  V30 2071 O 181.562 5.75043 5.61766 0
M  V30 2072 H 181.294 0.198529 0.64619 0
M  V30 2073 H 183.848 1.1919 1.67281 0
M  V30 2074 H 182.078 -0.119561 3.86515 0
M  V30 2075 H 183.767 0.255859 4.05093 0
M  V30 2076 H 184.533 2.73882 4.00267 0
M  V30 2077 H 180.412 1.55942 4.33824 0
M  V30 2078 H 183.956 4.96561 4.89972 0
M  V30 2079 H 179.853 3.7772 5.23448 0
M  V30 2080 H 180.621 5.77422 5.80109 0
M  V30 2081 N 183.284 -1.43765 0.645699 0
M  V30 2082 C 184.514 -2.05953 0.163318 0
M  V30 2083 C 184.922 -1.48432 -1.17322 0
M  V30 2084 O 184.265 -0.607295 -1.73371 0
M  V30 2085 C 184.327 -3.59499 -0.0103065 0
M  V30 2086 C 183.991 -4.39563 1.25035 0
M  V30 2087 C 184.988 -4.72108 2.17739 0
M  V30 2088 C 182.673 -4.79697 1.48983 0
M  V30 2089 C 184.667 -5.43688 3.3269 0
M  V30 2090 C 182.354 -5.51023 2.64229 0
M  V30 2091 C 183.352 -5.8294 3.55908 0
M  V30 2092 O 183.04 -6.5281 4.69142 0
M  V30 2093 H 182.772 -0.670798 0.0836986 0
M  V30 2094 H 185.326 -1.85384 0.884407 0
M  V30 2095 H 183.556 -3.78613 -0.78669 0
M  V30 2096 H 185.245 -4.03408 -0.449087 0
M  V30 2097 H 186.011 -4.41627 2.00476 0
M  V30 2098 H 181.89 -4.54266 0.785078 0
M  V30 2099 H 185.434 -5.68517 4.04269 0
M  V30 2100 H 181.331 -5.8092 2.81429 0
M  V30 2101 H 182.099 -6.71288 4.6831 0
M  V30 2102 N 184.763 -0.387143 -1.52771 0
M  V30 2103 C 186.011 0.195349 -2.01154 0
M  V30 2104 C 186.332 1.475 -1.27549 0
M  V30 2105 O 185.602 1.91878 -0.394924 0
M  V30 2106 H 184.182 0.075178 -0.743207 0
M  V30 2107 H 186.844 -0.518337 -1.87881 0
M  V30 2108 H 185.94 0.407096 -3.09434 0
M  V30 2109 N 186.241 1.57166 -0.116904 0
M  V30 2110 C 187.657 1.5779 0.239693 0
M  V30 2111 C 187.857 1.1295 1.66867 0
M  V30 2112 O 186.913 0.81592 2.38954 0
M  V30 2113 C 188.226 3.00699 0.00828202 0
M  V30 2114 C 189.774 3.12912 0.0743438 0
M  V30 2115 C 190.249 4.57817 -0.129348 0
M  V30 2116 N 191.74 4.63139 -0.075247 0
M  V30 2117 C 192.475 5.73023 -0.207788 0
M  V30 2118 N 191.971 6.91665 -0.396382 0
M  V30 2119 N 193.764 5.61906 -0.14751 0
M  V30 2120 H 185.915 1.84615 -1.05029 0
M  V30 2121 H 188.178 0.85311 -0.41341 0
M  V30 2122 H 187.884 3.37784 -0.979531 0
M  V30 2123 H 187.758 3.69848 0.741077 0
M  V30 2124 H 190.145 2.75686 1.05268 0
M  V30 2125 H 190.226 2.4631 -0.690297 0
M  V30 2126 H 189.87 4.95742 -1.10465 0
M  V30 2127 H 189.8 5.22507 0.655253 0
M  V30 2128 H 192.291 3.7784 0.0670898 0
M  V30 2129 H 192.604 7.71255 -0.488437 0
M  V30 2130 H 190.949 6.93654 -0.432329 0
M  V30 2131 H 194.14 4.681 -0.00115036 0
M  V30 2132 H 194.313 6.47501 -0.254247 0
M  V30 2133 N 187.719 -0.156864 1.56817 0
M  V30 2134 C 188.968 -0.869504 1.81996 0
M  V30 2135 C 189.281 -1.82777 0.696545 0
M  V30 2136 O 190.487 -2.58384 0.833658 0
M  V30 2137 C 188.943 -1.59679 3.22538 0
M  V30 2138 C 188.551 -0.681431 4.42787 0
M  V30 2139 C 190.295 -2.2968 3.56997 0
M  V30 2140 C 188.202 -1.40978 5.74351 0
M  V30 2141 H 187.132 -0.328438 0.678708 0
M  V30 2142 H 189.783 -0.1223 1.83092 0
M  V30 2143 H 188.165 -2.38927 3.158 0
M  V30 2144 H 189.339 0.0751166 4.60739 0
M  V30 2145 H 187.654 -0.0903431 4.16302 0
M  V30 2146 H 190.251 -2.84794 4.52544 0
M  V30 2147 H 190.594 -3.05707 2.82576 0
M  V30 2148 H 191.127 -1.57361 3.65352 0
M  V30 2149 H 187.866 -0.691561 6.51842 0
M  V30 2150 H 187.386 -2.13929 5.60352 0
M  V30 2151 H 189.065 -1.95337 6.16808 0
M  V30 2152 N 189.197 -1.51736 -0.425897 0
M  V30 2153 C 190.127 -1.76827 -1.52494 0
M  V30 2154 C 191.108 -0.618524 -1.58456 0
M  V30 2155 O 192.293 -0.862416 -1.74 0
M  V30 2156 C 189.423 -1.90374 -2.90474 0
M  V30 2157 C 188.377 -3.0588 -2.99369 0
M  V30 2158 C 187.703 -3.04625 -4.3944 0
M  V30 2159 C 189.003 -4.45644 -2.72394 0
M  V30 2160 H 190.697 -2.68855 -1.31748 0
M  V30 2161 H 188.243 -1.29372 -0.632362 0
M  V30 2162 H 190.196 -2.0651 -3.6733 0
M  V30 2163 H 188.92 -0.95004 -3.12477 0
M  V30 2164 H 187.579 -2.89467 -2.24954 0
M  V30 2165 H 187.227 -2.0701 -4.58428 0
M  V30 2166 H 186.927 -3.82195 -4.46319 0
M  V30 2167 H 188.451 -3.22869 -5.18255 0
M  V30 2168 H 189.865 -4.62348 -3.38979 0
M  V30 2169 H 188.262 -5.25006 -2.9067 0
M  V30 2170 H 189.332 -4.54893 -1.67929 0
M  V30 2171 N 190.675 0.682077 -1.42076 0
M  V30 2172 C 191.625 1.78823 -1.41444 0
M  V30 2173 C 192.609 1.58323 -0.28681 0
M  V30 2174 O 193.801 1.68926 -0.528498 0
M  V30 2175 C 190.93 3.17232 -1.3122 0
M  V30 2176 C 190.016 3.4338 -2.489 0
M  V30 2177 N 190.407 3.40152 -3.7434 0
M  V30 2178 C 188.705 3.73986 -2.43003 0
M  V30 2179 C 189.406 3.65581 -4.52466 0
M  V30 2180 N 188.382 3.85989 -3.8277 0
M  V30 2181 H 192.184 1.7471 -2.36334 0
M  V30 2182 H 189.698 0.882622 -1.36321 0
M  V30 2183 H 191.695 3.96489 -1.2885 0
M  V30 2184 H 190.355 3.22547 -0.373263 0
M  V30 2185 H 191.366 3.20221 -4.07037 0
M  V30 2186 H 188.043 3.86591 -1.57651 0
M  V30 2187 H 189.433 3.69108 -5.61435 0
M  V30 2188 N 192.153 1.28127 0.917671 0
M  V30 2189 C 193.383 1.17722 1.6978 0
M  V30 2190 C 193.791 -0.267261 1.87303 0
M  V30 2191 O 193.134 -1.19286 1.39702 0
M  V30 2192 C 193.196 1.79958 3.11216 0
M  V30 2193 C 192.86 3.29187 3.16993 0
M  V30 2194 C 193.857 4.25679 2.98485 0
M  V30 2195 C 191.542 3.70075 3.39632 0
M  V30 2196 C 193.536 5.61035 3.02521 0
M  V30 2197 C 191.223 5.05557 3.433 0
M  V30 2198 C 192.221 6.00847 3.24764 0
M  V30 2199 O 191.909 7.33859 3.28187 0
M  V30 2200 H 191.641 0.409788 0.537634 0
M  V30 2201 H 194.195 1.69694 1.15728 0
M  V30 2202 H 192.425 1.22475 3.66793 0
M  V30 2203 H 194.114 1.64125 3.71238 0
M  V30 2204 H 194.88 3.95426 2.80826 0
M  V30 2205 H 190.759 2.96373 3.53106 0
M  V30 2206 H 194.303 6.35388 2.87971 0
M  V30 2207 H 190.2 5.35462 3.60486 0
M  V30 2208 H 190.968 7.42436 3.44575 0
M  V30 2209 N 193.631 -1.12557 1.10312 0
M  V30 2210 C 194.561 -2.20341 0.772798 0
M  V30 2211 C 195.542 -1.68198 -0.25365 0
M  V30 2212 O 196.727 -1.93831 -0.119699 0
M  V30 2213 C 193.857 -3.46709 0.202443 0
M  V30 2214 C 192.811 -4.11996 1.15943 0
M  V30 2215 C 192.137 -5.328 0.450345 0
M  V30 2216 C 193.437 -4.5828 2.50552 0
M  V30 2217 H 195.131 -2.48229 1.674 0
M  V30 2218 H 192.677 -1.19308 0.806326 0
M  V30 2219 H 194.63 -4.2138 -0.0407752 0
M  V30 2220 H 193.354 -3.18245 -0.734001 0
M  V30 2221 H 192.013 -3.39305 1.38808 0
M  V30 2222 H 191.661 -5.00602 -0.490531 0
M  V30 2223 H 191.361 -5.7743 1.08851 0
M  V30 2224 H 192.885 -6.10219 0.215642 0
M  V30 2225 H 194.299 -5.2433 2.31843 0
M  V30 2226 H 192.696 -5.13683 3.10242 0
M  V30 2227 H 193.766 -3.72329 3.10643 0
M  V30 2228 N 195.109 -0.891671 -1.2995 0
M  V30 2229 C 196.056 -0.361736 -2.27948 0
M  V30 2230 C 197.026 0.551761 -1.56668 0
M  V30 2231 O 198.211 0.478736 -1.84696 0
M  V30 2232 C 195.351 0.411825 -3.42634 0
M  V30 2233 C 194.464 -0.531651 -4.28716 0
M  V30 2234 C 193.599 0.258167 -5.30572 0
M  V30 2235 C 192.638 -0.680349 -6.08307 0
M  V30 2236 N 191.775 0.0745613 -7.0206 0
M  V30 2237 H 196.615 -1.20254 -2.72659 0
M  V30 2238 H 194.152 -0.604352 -1.34112 0
M  V30 2239 H 196.11 0.876304 -4.07893 0
M  V30 2240 H 194.74 1.21715 -2.98974 0
M  V30 2241 H 193.792 -1.11463 -3.63703 0
M  V30 2242 H 195.104 -1.25038 -4.82874 0
M  V30 2243 H 194.258 0.784204 -6.0161 0
M  V30 2244 H 192.997 1.01008 -4.77126 0
M  V30 2245 H 192.002 -1.21796 -5.3614 0
M  V30 2246 H 193.227 -1.43145 -6.63842 0
M  V30 2247 H 191.173 0.808883 -6.50994 0
M  V30 2248 H 191.09 -0.584409 -7.53738 0
M  V30 2249 H 192.358 0.581123 -7.77331 0
M  V30 2250 N 196.587 1.43421 -0.653314 0
M  V30 2251 C 197.55 2.29182 0.0287951 0
M  V30 2252 C 198.55 1.42213 0.750465 0
M  V30 2253 O 199.74 1.63843 0.591701 0
M  V30 2254 C 196.872 3.24278 1.05151 0
M  V30 2255 H 198.065 2.90985 -0.725786 0
M  V30 2256 H 195.618 1.50702 -0.414545 0
M  V30 2257 H 196.353 2.6737 1.83532 0
M  V30 2258 H 196.138 3.88396 0.537687 0
M  V30 2259 H 197.628 3.88647 1.52786 0
M  V30 2260 N 198.065 0.39524 1.52563 0
M  V30 2261 C 199.012 -0.437036 2.26624 0
M  V30 2262 C 199.982 -1.05281 1.28472 0
M  V30 2263 O 201.167 -1.07971 1.57311 0
M  V30 2264 C 198.307 -1.55524 3.08069 0
M  V30 2265 C 197.42 -0.961745 4.21158 0
M  V30 2266 C 196.555 -2.05149 4.89987 0
M  V30 2267 C 195.594 -1.4342 5.95061 0
M  V30 2268 N 194.731 -2.46351 6.57462 0
M  V30 2269 H 199.571 0.200976 2.97322 0
M  V30 2270 H 197.108 0.110944 1.46681 0
M  V30 2271 H 199.066 -2.21437 3.53584 0
M  V30 2272 H 197.696 -2.16348 2.3957 0
M  V30 2273 H 196.748 -0.192048 3.79915 0
M  V30 2274 H 198.06 -0.470701 4.96574 0
M  V30 2275 H 197.214 -2.78819 5.38837 0
M  V30 2276 H 195.953 -2.57615 4.14109 0
M  V30 2277 H 194.958 -0.682774 5.45544 0
M  V30 2278 H 196.183 -0.917416 6.72875 0
M  V30 2279 H 194.129 -2.97975 5.8442 0
M  V30 2280 H 194.046 -2.02019 7.28508 0
M  V30 2281 H 195.314 -3.19633 7.10954 0
M  V30 2282 N 199.544 -1.57102 0.125237 0
M  V30 2283 C 200.454 -2.19191 -0.8362 0
M  V30 2284 C 201.47 -1.16985 -1.28805 0
M  V30 2285 O 202.646 -1.49479 -1.34974 0
M  V30 2286 C 199.711 -2.78407 -2.06617 0
M  V30 2287 C 198.772 -3.9567 -1.66565 0
M  V30 2288 C 198.005 -4.52052 -2.83698 0
M  V30 2289 O 198.228 -4.07326 -3.99302 0
M  V30 2290 O 197.162 -5.42645 -2.60423 0
M  V30 2291 H 200.988 -3.01816 -0.337776 0
M  V30 2292 H 198.573 -1.4906 -0.100695 0
M  V30 2293 H 200.455 -3.16129 -2.7864 0
M  V30 2294 H 199.13 -1.9881 -2.55453 0
M  V30 2295 H 198.037 -3.62705 -0.916296 0
M  V30 2296 H 199.37 -4.76722 -1.22464 0
M  V30 2297 N 201.022 0.148545 -1.56898 0
M  V30 2298 C 202.252 0.875118 -1.8715 0
M  V30 2299 C 202.66 1.75322 -0.711262 0
M  V30 2300 O 202.003 1.80745 0.328151 0
M  V30 2301 C 202.065 1.7844 -3.12089 0
M  V30 2302 C 201.729 1.08361 -4.43967 0
M  V30 2303 C 202.726 0.438247 -5.1805 0
M  V30 2304 C 200.411 1.07358 -4.90693 0
M  V30 2305 C 202.405 -0.20779 -6.37061 0
M  V30 2306 C 200.092 0.42373 -6.09629 0
M  V30 2307 C 201.09 -0.215829 -6.82659 0
M  V30 2308 O 200.778 -0.855378 -7.99336 0
M  V30 2309 H 200.51 0.258504 -0.624621 0
M  V30 2310 H 203.064 0.14652 -2.04877 0
M  V30 2311 H 201.294 2.55389 -2.90367 0
M  V30 2312 H 202.983 2.38279 -3.286 0
M  V30 2313 H 203.749 0.437817 -4.8302 0
M  V30 2314 H 199.628 1.5608 -4.33774 0
M  V30 2315 H 203.172 -0.70758 -6.94002 0
M  V30 2316 H 199.069 0.421822 -6.4412 0
M  V30 2317 H 199.837 -0.756892 -8.14993 0
M  V30 2318 N 202.5 1.5196 0.417844 0
M  V30 2319 C 203.725 1.69717 1.1921 0
M  V30 2320 C 204.15 0.402148 1.83751 0
M  V30 2321 O 203.508 -0.639593 1.69643 0
M  V30 2322 C 203.556 2.82794 2.2374 0
M  V30 2323 O 202.66 2.47756 3.29683 0
M  V30 2324 H 202.001 0.565263 0.348387 0
M  V30 2325 H 204.531 1.98621 0.490985 0
M  V30 2326 H 204.541 3.07452 2.68212 0
M  V30 2327 H 203.216 3.76756 1.76146 0
M  V30 2328 H 201.793 2.33739 2.90552 0
M  V30 2329 N 203.978 -0.674533 1.42435 0
M  V30 2330 C 204.928 -1.7807 1.4239 0
M  V30 2331 C 205.912 -1.58169 0.295202 0
M  V30 2332 O 207.104 -1.68643 0.537449 0
M  V30 2333 C 204.233 -3.16532 1.32901 0
M  V30 2334 C 203.319 -3.42055 2.50717 0
M  V30 2335 N 203.71 -3.38162 3.76139 0
M  V30 2336 C 202.008 -3.72692 2.44983 0
M  V30 2337 C 202.709 -3.63177 4.54398 0
M  V30 2338 N 201.685 -3.83954 3.84812 0
M  V30 2339 H 205.487 -1.73454 2.37257 0
M  V30 2340 H 203.001 -0.875381 1.36788 0
M  V30 2341 H 204.998 -3.958 1.30951 0
M  V30 2342 H 203.658 -3.22345 0.390363 0
M  V30 2343 H 204.669 -3.18057 4.0873 0
M  V30 2344 H 201.346 -3.85749 1.59699 0
M  V30 2345 H 202.736 -3.66125 5.63384 0
M  V30 2346 N 205.456 -1.28612 -0.910864 0
M  V30 2347 C 206.696 -1.1719 -1.67469 0
M  V30 2348 C 207.06 0.274441 -1.90028 0
M  V30 2349 O 208.261 0.511425 -2.6389 0
M  V30 2350 C 206.532 -1.95137 -2.99427 0
M  V30 2351 S 208.091 -2.00122 -3.90508 0
M  V30 2352 H 204.909 -0.41806 -0.575106 0
M  V30 2353 H 207.511 -1.6275 -1.08317 0
M  V30 2354 H 206.215 -2.99381 -2.80712 0
M  V30 2355 H 205.746 -1.50137 -3.63624 0
M  V30 2356 H 207.761 -1.10981 -4.8363 0
M  V30 2357 N 206.934 1.1197 -1.10907 0
M  V30 2358 C 207.897 2.16031 -0.765707 0
M  V30 2359 C 208.897 1.59393 0.212235 0
M  V30 2360 O 210.087 1.74196 -0.0115441 0
M  V30 2361 C 207.219 3.40632 -0.135053 0
M  V30 2362 H 208.412 2.47919 -1.68748 0
M  V30 2363 H 205.965 1.27061 -0.910226 0
M  V30 2364 H 206.7 3.14348 0.797218 0
M  V30 2365 H 206.485 3.8302 -0.838937 0
M  V30 2366 H 207.975 4.17505 0.0892469 0
M  V30 2367 N 208.412 0.89855 1.29475 0
M  V30 2368 C 209.658 0.534065 1.96263 0
M  V30 2369 C 210.013 -0.909415 1.69551 0
M  V30 2370 O 209.306 -1.63596 0.997349 0
M  V30 2371 C 209.5 0.761398 3.49195 0
M  V30 2372 C 209.329 2.22542 3.90775 0
M  V30 2373 C 208.099 2.87264 4.15701 0
M  V30 2374 C 210.297 3.20051 4.02581 0
M  V30 2375 N 208.279 4.24121 4.4384 0
M  V30 2376 C 209.65 4.42023 4.34759 0
M  V30 2377 C 211.705 3.15657 3.85052 0
M  V30 2378 C 210.408 5.60161 4.51235 0
M  V30 2379 C 212.434 4.33078 4.02737 0
M  V30 2380 C 211.796 5.5382 4.35273 0
M  V30 2381 H 207.895 0.245013 0.742625 0
M  V30 2382 H 210.479 1.15912 1.56437 0
M  V30 2383 H 208.65 0.165732 3.88046 0
M  V30 2384 H 210.382 0.362462 4.03074 0
M  V30 2385 H 207.137 2.38064 4.09417 0
M  V30 2386 H 207.561 4.94839 4.6202 0
M  V30 2387 H 212.203 2.23396 3.58962 0
M  V30 2388 H 209.921 6.52913 4.76162 0
M  V30 2389 H 213.507 4.31163 3.90628 0
M  V30 2390 H 212.387 6.43166 4.48672 0
M  V30 2391 N 209.89 -1.43072 0.660911 0
M  V30 2392 C 211.118 -2.06067 0.185422 0
M  V30 2393 C 211.533 -1.49582 -1.15198 0
M  V30 2394 O 210.89 -0.630134 -1.71276 0
M  V30 2395 C 210.941 -3.61371 0.0966523 0
M  V30 2396 O 210.662 -4.15758 1.38119 0
M  V30 2397 C 212.163 -4.41455 -0.403996 0
M  V30 2398 H 209.383 -0.664459 0.0934604 0
M  V30 2399 H 211.927 -1.83447 0.90373 0
M  V30 2400 H 210.082 -3.8315 -0.572259 0
M  V30 2401 H 210.496 -5.09499 1.24542 0
M  V30 2402 H 211.97 -5.50437 -0.415045 0
M  V30 2403 H 212.447 -4.15036 -1.43674 0
M  V30 2404 H 213.053 -4.24663 0.232691 0
M  V30 2405 N 211.368 -0.403325 -1.52352 0
M  V30 2406 C 212.617 0.175668 -2.00934 0
M  V30 2407 C 212.93 1.46718 -1.29356 0
M  V30 2408 O 214.136 2.12708 -1.68724 0
M  V30 2409 C 212.592 0.363612 -3.58058 0
M  V30 2410 C 212.2 -0.915472 -4.38547 0
M  V30 2411 C 213.944 0.89821 -4.14888 0
M  V30 2412 C 211.851 -0.695035 -5.87302 0
M  V30 2413 H 210.781 0.0694234 -0.750797 0
M  V30 2414 H 213.432 -0.527879 -1.75743 0
M  V30 2415 H 211.814 1.12935 -3.79555 0
M  V30 2416 H 212.988 -1.68691 -4.28812 0
M  V30 2417 H 211.303 -1.37606 -3.93006 0
M  V30 2418 H 213.9 1.07907 -5.23699 0
M  V30 2419 H 214.243 1.87126 -3.71873 0
M  V30 2420 H 214.776 0.191681 -3.97338 0
M  V30 2421 H 211.515 -1.63948 -6.34666 0
M  V30 2422 H 211.035 0.0372116 -5.99788 0
M  V30 2423 H 212.714 -0.33497 -6.46132 0
M  V30 2424 N 212.846 1.57033 -0.133567 0
M  V30 2425 C 214.092 1.95976 0.521649 0
M  V30 2426 C 214.425 1.01779 1.65393 0
M  V30 2427 O 213.7 0.0576581 1.94415 0
M  V30 2428 C 213.983 3.44738 1.04057 0
M  V30 2429 C 213.836 4.49711 -0.0892897 0
M  V30 2430 C 215.155 3.95682 1.92675 0
M  V30 2431 H 212.274 0.712579 0.188149 0
M  V30 2432 H 214.916 1.88813 -0.212076 0
M  V30 2433 H 213.066 3.50973 1.66583 0
M  V30 2434 H 214.738 4.55565 -0.725152 0
M  V30 2435 H 212.981 4.27261 -0.750378 0
M  V30 2436 H 213.652 5.51099 0.315284 0
M  V30 2437 H 216.128 3.91841 1.39998 0
M  V30 2438 H 215.004 5.00262 2.25897 0
M  V30 2439 H 215.265 3.37239 2.85872 0
M  V30 2440 N 214.325 -0.140222 1.56975 0
M  V30 2441 C 215.741 -0.493088 1.51792 0
M  V30 2442 C 215.941 -1.83013 0.843116 0
M  V30 2443 O 214.997 -2.49041 0.416493 0
M  V30 2444 C 216.31 -0.497144 2.96562 0
M  V30 2445 C 217.858 -0.582186 3.07538 0
M  V30 2446 C 218.333 -0.616838 4.53827 0
M  V30 2447 N 219.824 -0.678873 4.58198 0
M  V30 2448 C 220.559 -0.726782 5.68775 0
M  V30 2449 N 220.055 -0.733623 6.88905 0
M  V30 2450 N 221.848 -0.768179 5.56826 0
M  V30 2451 H 213.999 0.736108 1.99237 0
M  V30 2452 H 216.262 0.269182 0.90898 0
M  V30 2453 H 215.968 0.417217 3.49217 0
M  V30 2454 H 215.842 -1.33263 3.52875 0
M  V30 2455 H 218.229 -1.48697 2.54899 0
M  V30 2456 H 218.31 0.280581 2.54257 0
M  V30 2457 H 217.954 0.283812 5.07106 0
M  V30 2458 H 217.884 -1.49619 5.04898 0
M  V30 2459 H 220.375 -0.68061 3.7172 0
M  V30 2460 H 220.688 -0.772215 7.68932 0
M  V30 2461 H 219.033 -0.701389 6.91452 0
M  V30 2462 H 222.224 -0.760051 4.61888 0
M  V30 2463 H 222.397 -0.80205 6.43017 0
M  V30 2464 N 215.803 -1.52179 -0.40978 0
M  V30 2465 C 217.049 -1.66453 -1.15851 0
M  V30 2466 C 217.382 -0.392972 -1.90182 0
M  V30 2467 O 216.657 0.608579 -1.84734 0
M  V30 2468 C 216.94 -2.88612 -2.15349 0
M  V30 2469 C 216.793 -4.25815 -1.44918 0
M  V30 2470 C 218.112 -3.06294 -3.16026 0
M  V30 2471 H 215.231 -0.60575 -0.419805 0
M  V30 2472 H 217.873 -1.84732 -0.444314 0
M  V30 2473 H 216.023 -2.73158 -2.76255 0
M  V30 2474 H 217.695 -4.52995 -0.871365 0
M  V30 2475 H 215.938 -4.27247 -0.751159 0
M  V30 2476 H 216.609 -5.07337 -2.17516 0
M  V30 2477 H 219.085 -3.20641 -2.65195 0
M  V30 2478 H 217.961 -3.93283 -3.8291 0
M  V30 2479 H 218.222 -2.19579 -3.83715 0
M  V30 2480 N 217.281 0.66697 -1.42791 0
M  V30 2481 C 218.191 1.80962 -1.49299 0
M  V30 2482 C 219.207 1.69775 -0.381108 0
M  V30 2483 O 220.383 1.91188 -0.633188 0
M  V30 2484 C 217.448 3.17156 -1.40045 0
M  V30 2485 C 216.509 3.40242 -2.6179 0
M  V30 2486 C 215.742 4.69939 -2.52969 0
M  V30 2487 O 215.965 5.48372 -1.56985 0
M  V30 2488 O 214.899 4.94441 -3.43237 0
M  V30 2489 H 218.725 1.78427 -2.45759 0
M  V30 2490 H 216.31 0.823713 -1.24641 0
M  V30 2491 H 218.192 3.98413 -1.37276 0
M  V30 2492 H 216.867 3.20312 -0.467138 0
M  V30 2493 H 215.774 2.58802 -2.70134 0
M  V30 2494 H 217.107 3.41923 -3.54047 0
M  V30 2495 N 218.759 1.29093 0.90403 0
M  V30 2496 C 220.008 1.16187 1.64874 0
M  V30 2497 C 220.321 -0.286742 1.93487 0
M  V30 2498 O 221.527 -0.537062 2.66135 0
M  V30 2499 C 219.983 2.03177 2.97064 0
M  V30 2500 C 219.591 3.52836 2.76062 0
M  V30 2501 C 221.335 1.98984 3.74974 0
M  V30 2502 C 219.242 4.31945 4.03952 0
M  V30 2503 H 218.172 0.431246 0.618501 0
M  V30 2504 H 220.823 1.53699 1.00243 0
M  V30 2505 H 219.205 1.5853 3.62883 0
M  V30 2506 H 220.379 4.05507 2.18863 0
M  V30 2507 H 218.694 3.58656 2.11553 0
M  V30 2508 H 221.291 2.55351 4.69787 0
M  V30 2509 H 221.634 0.968815 4.0487 0
M  V30 2510 H 222.167 2.41652 3.15989 0
M  V30 2511 H 218.906 5.34667 3.79225 0
M  V30 2512 H 218.426 3.84045 4.60727 0
M  V30 2513 H 220.105 4.42379 4.72133 0
M  V30 2514 N 220.237 -1.11381 1.11499 0
M  V30 2515 C 221.167 -2.19509 0.796125 0
M  V30 2516 C 222.148 -1.68458 -0.235796 0
M  V30 2517 O 223.333 -1.93947 -0.0991344 0
M  V30 2518 C 220.463 -3.46475 0.239205 0
M  V30 2519 C 219.417 -4.10744 1.20307 0
M  V30 2520 C 218.743 -5.32293 0.50683 0
M  V30 2521 C 220.043 -4.55597 2.55399 0
M  V30 2522 H 221.737 -2.46439 1.70024 0
M  V30 2523 H 219.283 -1.18446 0.818935 0
M  V30 2524 H 221.236 -4.214 0.00392006 0
M  V30 2525 H 219.96 -3.19006 -0.700206 0
M  V30 2526 H 218.619 -3.37813 1.42399 0
M  V30 2527 H 218.267 -5.01095 -0.437408 0
M  V30 2528 H 217.967 -5.76243 1.1497 0
M  V30 2529 H 219.491 -6.09956 0.280351 0
M  V30 2530 H 220.905 -5.21841 2.37391 0
M  V30 2531 H 219.302 -5.10363 3.15673 0
M  V30 2532 H 220.372 -3.69013 3.14575 0
M  V30 2533 N 221.715 -0.905404 -1.28997 0
M  V30 2534 C 223.131 -0.60233 -1.47798 0
M  V30 2535 C 223.331 0.854645 -1.82478 0
M  V30 2536 O 222.387 1.63439 -1.92468 0
M  V30 2537 C 223.7 -1.53306 -2.58685 0
M  V30 2538 C 225.248 -1.53887 -2.72558 0
M  V30 2539 C 225.723 -2.45602 -3.86579 0
M  V30 2540 N 227.214 -2.43681 -3.93921 0
M  V30 2541 C 227.949 -3.11347 -4.81509 0
M  V30 2542 N 227.445 -3.88313 -5.73746 0
M  V30 2543 N 229.238 -3.00476 -4.75048 0
M  V30 2544 H 221.389 -1.84765 -1.04764 0
M  V30 2545 H 223.652 -0.792025 -0.520961 0
M  V30 2546 H 223.358 -2.57141 -2.39941 0
M  V30 2547 H 223.232 -1.25787 -3.55609 0
M  V30 2548 H 225.619 -0.507941 -2.90696 0
M  V30 2549 H 225.7 -1.85447 -1.76191 0
M  V30 2550 H 225.344 -3.48792 -3.69197 0
M  V30 2551 H 225.274 -2.11349 -4.82327 0
M  V30 2552 H 227.765 -1.87767 -3.27951 0
M  V30 2553 H 228.078 -4.36985 -6.37389 0
M  V30 2554 H 226.423 -3.92419 -5.73614 0
M  V30 2555 H 229.614 -2.39858 -4.01977 0
M  V30 2556 H 229.787 -3.53485 -5.43095 0
M  V30 2557 N 223.193 1.4272 -0.668489 0
M  V30 2558 C 224.141 2.32586 0.0254857 0
M  V30 2559 C 225.135 1.49471 0.797176 0
M  V30 2560 O 226.341 1.65583 0.705853 0
M  V30 2561 H 222.716 0.751514 0.0270339 0
M  V30 2562 H 224.687 2.88823 -0.749936 0
M  V30 2563 C 223.436 3.3397 0.967427 0
M  V30 2564 H 222.759 3.97961 0.383048 0
M  V30 2565 H 224.199 3.9945 1.42181 0
M  V30 2566 C 222.658 2.65744 2.0708 0
M  V30 2567 O 223.188 2.48454 3.15648 0
M  V30 2568 N 221.394 2.2487 1.8407 0
M  V30 2569 H 220.941 2.39132 0.95778 0
M  V30 2570 H 220.899 1.79552 2.58086 0
M  V30 2571 N 224.671 0.411399 1.52136 0
M  V30 2572 C 225.918 -0.163645 2.01838 0
M  V30 2573 C 226.246 -1.4495 1.29691 0
M  V30 2574 O 225.501 -1.91725 0.392431 0
M  V30 2575 C 225.8 -0.455872 3.54481 0
M  V30 2576 C 225.466 0.741055 4.44769 0
M  V30 2577 C 224.128 1.06936 4.69167 0
M  V30 2578 C 226.48 1.54075 4.97906 0
M  V30 2579 C 223.808 2.19851 5.43951 0
M  V30 2580 C 226.16 2.66067 5.73926 0
M  V30 2581 C 224.824 2.99381 5.96596 0
M  V30 2582 H 224.094 -0.0598821 0.738576 0
M  V30 2583 H 226.741 0.553283 1.83333 0
M  V30 2584 H 225.046 -1.2544 3.71177 0
M  V30 2585 H 226.743 -0.913802 3.90449 0
M  V30 2586 H 223.333 0.475192 4.25958 0
M  V30 2587 H 227.517 1.30033 4.78963 0
M  V30 2588 H 222.773 2.46006 5.59724 0
M  V30 2589 H 226.947 3.28419 6.14096 0
M  V30 2590 H 224.574 3.86992 6.54325 0
M  V30 2591 N 226.149 -1.5696 0.141893 0
M  V30 2592 C 227.379 -2.00031 -0.516828 0
M  V30 2593 C 227.787 -1.02091 -1.59293 0
M  V30 2594 O 227.13 -0.00909657 -1.83698 0
M  V30 2595 C 227.192 -3.39534 -1.1814 0
M  V30 2596 C 226.856 -4.56313 -0.250513 0
M  V30 2597 C 227.853 -5.17295 0.519839 0
M  V30 2598 C 225.538 -5.02061 -0.154907 0
M  V30 2599 C 227.532 -6.2243 1.3733 0
M  V30 2600 C 225.219 -6.07053 0.702161 0
M  V30 2601 C 226.217 -6.67106 1.46487 0
M  V30 2602 O 225.905 -7.70066 2.30767 0
M  V30 2603 H 225.637 -0.661451 -0.139493 0
M  V30 2604 H 228.191 -2.04086 0.231926 0
M  V30 2605 H 226.421 -3.32302 -1.97769 0
M  V30 2606 H 228.11 -3.66745 -1.73933 0
M  V30 2607 H 228.876 -4.82852 0.45598 0
M  V30 2608 H 224.755 -4.5505 -0.7383 0
M  V30 2609 H 228.299 -6.69233 1.96909 0
M  V30 2610 H 224.196 -6.40923 0.76733 0
M  V30 2611 H 224.964 -7.87264 2.23959 0
M  V30 2612 N 227.627 0.131896 -1.57047 0
M  V30 2613 C 228.874 0.841932 -1.84168 0
M  V30 2614 C 229.202 1.8048 -0.725066 0
M  V30 2615 O 228.457 1.93618 0.284692 0
M  V30 2616 C 228.756 1.63703 -3.17704 0
M  V30 2617 C 228.422 0.81961 -4.43388 0
M  V30 2618 C 227.084 0.594148 -4.77518 0
M  V30 2619 C 229.436 0.248977 -5.20605 0
M  V30 2620 C 226.764 -0.212409 -5.86315 0
M  V30 2621 C 229.116 -0.544701 -6.30251 0
M  V30 2622 C 227.78 -0.780599 -6.6292 0
M  V30 2623 H 227.05 0.308085 -0.673917 0
M  V30 2624 H 229.697 0.104867 -1.91213 0
M  V30 2625 H 228.002 2.44464 -3.06177 0
M  V30 2626 H 229.699 2.19015 -3.35907 0
M  V30 2627 H 226.289 1.00542 -4.16641 0
M  V30 2628 H 230.473 0.410408 -4.946 0
M  V30 2629 H 225.729 -0.404524 -6.1006 0
M  V30 2630 H 229.903 -0.993922 -6.89271 0
M  V30 2631 H 227.53 -1.40742 -7.47058 0
M  V30 2632 N 229.106 1.52395 0.401703 0
M  V30 2633 C 230.355 1.66044 1.14509 0
M  V30 2634 C 230.668 0.400216 1.91462 0
M  V30 2635 O 231.874 0.416632 2.68284 0
M  V30 2636 C 230.33 2.93388 2.0845 0
M  V30 2637 C 229.938 4.26545 1.36978 0
M  V30 2638 C 231.682 3.16402 2.83001 0
M  V30 2639 C 229.589 5.45007 2.29611 0
M  V30 2640 H 228.519 0.618562 0.431158 0
M  V30 2641 H 231.17 1.78886 0.40892 0
M  V30 2642 H 229.552 2.74263 2.8565 0
M  V30 2643 H 230.726 4.56179 0.650916 0
M  V30 2644 H 229.041 4.09692 0.74438 0
M  V30 2645 H 231.638 4.02085 3.52465 0
M  V30 2646 H 231.981 2.30943 3.46368 0
M  V30 2647 H 232.514 3.36034 2.12898 0
M  V30 2648 H 229.253 6.32835 1.70879 0
M  V30 2649 H 228.773 5.19702 2.9945 0
M  V30 2650 H 230.452 5.7838 2.89974 0
M  V30 2651 N 230.584 -0.659388 1.43143 0
M  V30 2652 C 231.532 -1.79374 1.4808 0
M  V30 2653 C 232.526 -1.65639 0.354988 0
M  V30 2654 O 233.732 -1.7206 0.528704 0
M  V30 2655 H 230.107 -0.591705 0.4641 0
M  V30 2656 H 232.078 -1.72329 2.43609 0
M  V30 2657 C 230.827 -3.17606 1.41499 0
M  V30 2658 H 230.15 -3.28809 2.27431 0
M  V30 2659 H 231.59 -3.96951 1.49015 0
M  V30 2660 C 230.049 -3.36642 0.131765 0
M  V30 2661 O 230.579 -3.93461 -0.809386 0
M  V30 2662 N 228.785 -2.90567 0.0439396 0
M  V30 2663 H 228.332 -2.44513 0.810619 0
M  V30 2664 H 228.29 -3.03681 -0.813969 0
M  V30 2665 N 232.062 -1.29571 -0.897171 0
M  V30 2666 C 233.478 -1.07637 -1.17841 0
M  V30 2667 C 233.678 0.170713 -2.00776 0
M  V30 2668 O 232.734 0.867768 -2.3712 0
M  V30 2669 C 234.047 -2.3332 -1.8969 0
M  V30 2670 C 235.595 -2.38664 -2.02505 0
M  V30 2671 C 236.07 -3.64157 -2.77765 0
M  V30 2672 N 237.561 -3.64894 -2.85318 0
M  V30 2673 C 238.296 -4.58679 -3.44094 0
M  V30 2674 N 237.792 -5.62799 -4.04017 0
M  V30 2675 N 239.585 -4.46245 -3.41793 0
M  V30 2676 H 231.736 -2.09598 -0.343883 0
M  V30 2677 H 233.999 -0.923333 -0.214848 0
M  V30 2678 H 233.705 -3.24262 -1.36187 0
M  V30 2679 H 233.579 -2.41025 -2.9015 0
M  V30 2680 H 235.966 -1.48208 -2.55183 0
M  V30 2681 H 236.047 -2.34943 -1.01171 0
M  V30 2682 H 235.691 -4.54965 -2.25763 0
M  V30 2683 H 235.621 -3.65137 -3.7945 0
M  V30 2684 H 238.112 -2.89613 -2.42761 0
M  V30 2685 H 238.425 -6.3048 -4.46895 0
M  V30 2686 H 236.77 -5.66605 -4.02472 0
M  V30 2687 H 239.961 -3.64094 -2.94199 0
M  V30 2688 H 240.134 -5.19518 -3.87304 0
M  V30 2689 N 233.54 1.10788 -1.12088 0
M  V30 2690 C 234.47 2.19083 -0.807755 0
M  V30 2691 C 235.451 1.6858 0.226859 0
M  V30 2692 O 236.636 1.93997 0.0888475 0
M  V30 2693 C 233.766 3.46344 -0.257576 0
M  V30 2694 C 232.72 4.101 -1.22483 0
M  V30 2695 C 232.046 5.32016 -0.535052 0
M  V30 2696 C 233.346 4.54236 -2.57811 0
M  V30 2697 H 235.04 2.45534 -1.71328 0
M  V30 2698 H 232.586 1.1801 -0.825205 0
M  V30 2699 H 234.539 4.21392 -0.0262679 0
M  V30 2700 H 233.263 3.19373 0.683278 0
M  V30 2701 H 231.922 3.37054 -1.44189 0
M  V30 2702 H 231.57 5.01319 0.410827 0
M  V30 2703 H 231.27 5.75625 -1.18024 0
M  V30 2704 H 232.794 6.09799 -0.312695 0
M  V30 2705 H 234.208 5.20575 -2.40155 0
M  V30 2706 H 232.605 5.08682 -3.18375 0
M  V30 2707 H 233.675 3.6734 -3.16528 0
M  V30 2708 N 235.018 0.912232 1.28515 0
M  V30 2709 C 236.246 0.560416 1.99166 0
M  V30 2710 C 236.661 -0.857927 1.68182 0
M  V30 2711 O 236.018 -1.56805 0.933733 0
M  V30 2712 C 236.069 0.758142 3.53461 0
M  V30 2713 O 235.79 2.12067 3.83352 0
M  V30 2714 C 237.291 0.412954 4.41372 0
M  V30 2715 H 234.511 0.213805 0.636026 0
M  V30 2716 H 237.055 1.22502 1.63749 0
M  V30 2717 H 235.21 0.140556 3.87145 0
M  V30 2718 H 235.624 2.15923 4.77993 0
M  V30 2719 H 237.098 0.60208 5.48707 0
M  V30 2720 H 237.575 -0.65073 4.34353 0
M  V30 2721 H 238.181 1.00802 4.13182 0
M  V30 2722 N 236.496 -1.42363 0.676048 0
M  V30 2723 C 237.744 -2.01123 0.198437 0
M  V30 2724 C 238.065 -1.53731 -1.19966 0
M  V30 2725 O 237.335 -0.759518 -1.80577 0
M  V30 2726 H 235.915 -0.743678 0.0703721 0
M  V30 2727 H 238.577 -1.74263 0.872837 0
M  V30 2728 H 237.673 -3.11454 0.200686 0
M  V30 2729 N 237.974 -0.419461 -1.51915 0
M  V30 2730 C 239.204 0.151915 -2.06041 0
M  V30 2731 C 239.612 1.38539 -1.28855 0
M  V30 2732 O 238.955 1.80592 -0.336463 0
M  V30 2733 C 239.017 0.557119 -3.55157 0
M  V30 2734 C 238.681 -0.567054 -4.53468 0
M  V30 2735 C 239.678 -1.43379 -4.99738 0
M  V30 2736 C 237.363 -0.742693 -4.96779 0
M  V30 2737 C 239.357 -2.46102 -5.87973 0
M  V30 2738 C 237.044 -1.77322 -5.84808 0
M  V30 2739 C 238.042 -2.63078 -6.30301 0
M  V30 2740 O 237.73 -3.64364 -7.16585 0
M  V30 2741 H 237.462 0.0193293 -0.675724 0
M  V30 2742 H 240.016 -0.592073 -1.96682 0
M  V30 2743 H 238.246 1.35355 -3.62238 0
M  V30 2744 H 239.935 1.05759 -3.9188 0
M  V30 2745 H 240.701 -1.30954 -4.66986 0
M  V30 2746 H 236.58 -0.0848307 -4.60922 0
M  V30 2747 H 240.124 -3.13071 -6.23404 0
M  V30 2748 H 236.021 -1.89773 -6.16974 0
M  V30 2749 H 236.789 -3.60731 -7.34721 0
M  V30 2750 N 239.452 1.56882 -0.150215 0
M  V30 2751 C 240.382 2.19935 0.784284 0
M  V30 2752 C 241.363 1.14854 1.25469 0
M  V30 2753 O 242.548 1.43209 1.31168 0
M  V30 2754 C 239.678 2.82349 2.02229 0
M  V30 2755 C 238.632 3.93285 1.68853 0
M  V30 2756 C 237.958 4.42649 2.99944 0
M  V30 2757 C 239.258 5.13904 0.932714 0
M  V30 2758 H 240.952 2.9828 0.258781 0
M  V30 2759 H 238.498 1.43473 0.123029 0
M  V30 2760 H 240.451 3.25126 2.68088 0
M  V30 2761 H 239.175 2.0134 2.57157 0
M  V30 2762 H 237.834 3.5113 1.05371 0
M  V30 2763 H 237.482 3.58458 3.52869 0
M  V30 2764 H 237.182 5.17476 2.78374 0
M  V30 2765 H 238.706 4.88099 3.66868 0
M  V30 2766 H 240.12 5.53506 1.49345 0
M  V30 2767 H 238.517 5.94515 0.81684 0
M  V30 2768 H 239.587 4.84842 -0.0749568 0
M  V30 2769 N 240.93 -0.123565 1.57115 0
M  V30 2770 C 242.346 -0.476961 1.52306 0
M  V30 2771 C 242.546 -1.82109 0.86248 0
M  V30 2772 O 241.602 -2.48586 0.442884 0
M  V30 2773 C 242.915 -0.465661 2.97073 0
M  V30 2774 C 244.463 -0.549534 3.08138 0
M  V30 2775 C 244.938 -0.568669 4.54456 0
M  V30 2776 N 246.429 -0.630237 4.58892 0
M  V30 2777 C 247.164 -0.666415 5.69514 0
M  V30 2778 N 246.66 -0.660514 6.89644 0
M  V30 2779 N 248.453 -0.709077 5.5761 0
M  V30 2780 H 240.604 0.757198 1.98445 0
M  V30 2781 H 242.867 0.278808 0.906074 0
M  V30 2782 H 242.573 0.454232 3.48754 0
M  V30 2783 H 242.447 -1.29513 3.54269 0
M  V30 2784 H 244.834 -1.45985 2.56461 0
M  V30 2785 H 244.915 0.307532 2.53945 0
M  V30 2786 H 244.559 0.337581 5.06777 0
M  V30 2787 H 244.489 -1.44256 5.06456 0
M  V30 2788 H 246.98 -0.641146 3.72421 0
M  V30 2789 H 247.293 -0.690616 7.69708 0
M  V30 2790 H 245.638 -0.628012 6.92157 0
M  V30 2791 H 248.829 -0.711019 4.62668 0
M  V30 2792 H 249.002 -0.733804 6.43832 0
M  V30 2793 N 242.408 -1.52605 -0.393616 0
M  V30 2794 C 243.356 -1.77688 -1.50099 0
M  V30 2795 C 244.35 -0.644615 -1.56656 0
M  V30 2796 O 245.556 -0.826997 -1.59877 0
M  V30 2797 H 241.931 -0.562159 -0.499481 0
M  V30 2798 H 243.902 -2.7043 -1.26135 0
M  V30 2799 C 242.651 -1.95858 -2.87289 0
M  V30 2800 H 241.974 -2.8241 -2.82992 0
M  V30 2801 H 243.414 -2.174 -3.64024 0
M  V30 2802 C 241.873 -0.729848 -3.28899 0
M  V30 2803 O 242.403 0.0949217 -4.01588 0
M  V30 2804 N 240.609 -0.561283 -2.85128 0
M  V30 2805 H 240.156 -1.23357 -2.26143 0
M  V30 2806 H 240.114 0.2595 -3.13327 0
M  V30 2807 O 243.925 0.539544 -1.52221 0
M  V30 2808 H 244.616 1.19468 -1.5247 0
M  V30 END ATOM
M  V30 BEGIN BOND
M  V30 END BOND
M  V30 END CTAB
M  END
$$$$
