drugbank_drug|DB00020 DB00020 sequence
 OpenBabel12092119123D

  0  0  0     0  0            999 V3000
M  V30 BEGIN CTAB
M  V30 COUNTS 2011 2035 0 0 0
M  V30 BEGIN ATOM
M  V30 1 H -0.908 1.98254 -0.117106 0
M  V30 2 N 0 1.576 0 0
M  V30 3 C 0.963 2.07369 0.976253 0
M  V30 4 C 1.963 0.98309 1.27248 0
M  V30 5 O 3.153 1.24574 1.21766 0
M  V30 6 C 0.285 2.51514 2.30116 0
M  V30 7 H 1.478 2.94892 0.545759 0
M  V30 8 H -0.969 1.54328 0.247471 0
M  V30 9 H -0.234 1.67234 2.77855 0
M  V30 10 H -0.449 3.31163 2.09937 0
M  V30 11 H 1.041 2.90345 3.00149 0
M  V30 12 N 1.4781 -0.272755 1.55222 0
M  V30 13 C 2.8891 -0.84378 1.66545 0
M  V30 14 C 3.2401 -1.87035 0.592641 0
M  V30 15 O 2.3651 -2.14761 -0.265818 0
M  V30 16 C 2.9601 -1.53723 3.01918 0
M  V30 17 C 1.5191 -2.05628 3.15268 0
M  V30 18 C 0.6661 -0.898424 2.62343 0
M  V30 19 H 3.6171 -0.0490998 1.58624 0
M  V30 20 H 3.6381 -2.40421 2.94921 0
M  V30 21 H 3.1501 -0.78983 3.79978 0
M  V30 22 H 1.2511 -2.83329 2.41983 0
M  V30 23 H 1.3641 -2.27142 4.21833 0
M  V30 24 H -0.2719 -1.29186 2.19506 0
M  V30 25 H 0.5111 -0.164528 3.42906 0
M  V30 26 N 2.9562 -1.48159 -0.537278 0
M  V30 27 C 3.9192 -1.61665 -1.62472 0
M  V30 28 C 4.9192 -0.490395 -1.5314 0
M  V30 29 O 6.1092 -0.755998 -1.5694 0
M  V30 30 C 3.2412 -1.57997 -3.02076 0
M  V30 31 H 4.4342 -2.58621 -1.51839 0
M  V30 32 H 1.9872 -1.36647 -0.758771 0
M  V30 33 H 2.7222 -0.624913 -3.18222 0
M  V30 34 H 2.5072 -2.39755 -3.10258 0
M  V30 35 H 3.9972 -1.70627 -3.81151 0
M  V30 36 N 4.4343 0.785586 -1.36625 0
M  V30 37 C 5.8503 1.08419 -1.17122 0
M  V30 38 C 6.0503 2.015 0.00208491 0
M  V30 39 O 5.1063 2.43551 0.666278 0
M  V30 40 C 6.4193 1.69498 -2.48377 0
M  V30 41 C 7.9673 1.81821 -2.54775 0
M  V30 42 C 8.4423 2.46315 -3.86126 0
M  V30 43 N 9.9333 2.53779 -3.87492 0
M  V30 44 C 10.6683 3.045 -4.85868 0
M  V30 45 N 10.1643 3.55499 -5.94637 0
M  V30 46 N 11.9573 3.03247 -4.73284 0
M  V30 47 H 4.1083 0.167264 -2.1174 0
M  V30 48 H 6.3713 0.13682 -0.938075 0
M  V30 49 H 6.0773 1.08571 -3.34522 0
M  V30 50 H 5.9513 2.6896 -2.64462 0
M  V30 51 H 8.3383 2.41884 -1.69045 0
M  V30 52 H 8.4193 0.811532 -2.42586 0
M  V30 53 H 8.0633 1.86895 -4.72263 0
M  V30 54 H 7.9933 3.47561 -3.95612 0
M  V30 55 H 10.4843 2.17672 -3.08913 0
M  V30 56 H 10.7973 3.92562 -6.65669 0
M  V30 57 H 9.1423 3.5364 -5.98301 0
M  V30 58 H 12.3333 2.62696 -3.87438 0
M  V30 59 H 12.5063 3.42467 -5.50109 0
M  V30 60 N 5.9124 1.20967 1.01018 0
M  V30 61 C 7.1374 1.0503 1.78839 0
M  V30 62 C 7.5624 -0.395752 1.8389 0
M  V30 63 O 6.9204 -1.28529 1.27867 0
M  V30 64 C 6.9684 1.64602 3.2084 0
M  V30 65 O 6.0724 0.887988 4.02726 0
M  V30 66 H 5.4134 0.369987 0.551367 0
M  V30 67 H 7.9434 1.60399 1.27018 0
M  V30 68 H 7.9534 1.68607 3.71532 0
M  V30 69 H 6.6284 2.69841 3.16479 0
M  V30 70 H 5.2054 0.922648 3.61305 0
M  V30 71 N 7.3905 -1.2043 1.01659 0
M  V30 72 C 8.8015 -1.71517 0.737482 0
M  V30 73 C 9.1525 -1.81547 -0.743973 0
M  V30 74 O 8.2775 -1.47803 -1.58061 0
M  V30 75 C 8.8725 -3.11515 1.33206 0
M  V30 76 C 7.4315 -3.59912 1.10183 0
M  V30 77 C 6.5785 -2.37116 1.43776 0
M  V30 78 H 9.5295 -1.05444 1.18606 0
M  V30 79 H 9.5505 -3.73575 0.722636 0
M  V30 80 H 9.0625 -3.04182 2.41028 0
M  V30 81 H 7.1635 -3.72577 0.0412756 0
M  V30 82 H 7.2765 -4.44731 1.78188 0
M  V30 83 H 5.6405 -2.39857 0.856778 0
M  V30 84 H 6.4235 -2.32424 2.52654 0
M  V30 85 N 8.8686 -0.792821 -1.36206 0
M  V30 86 C 10.0936 -0.377701 -2.03932 0
M  V30 87 C 10.5186 0.998947 -1.59382 0
M  V30 88 O 9.8766 1.64421 -0.763903 0
M  V30 89 C 9.9246 -0.453635 -3.57735 0
M  V30 90 O 9.0286 0.538151 -4.08874 0
M  V30 91 H 8.3696 -0.159855 -0.644471 0
M  V30 92 H 10.8996 -1.07488 -1.7409 0
M  V30 93 H 10.9096 -0.318464 -4.06755 0
M  V30 94 H 9.5846 -1.45784 -3.89512 0
M  V30 95 H 8.1616 0.364359 -3.71116 0
M  V30 96 N 10.3467 1.47872 -0.545128 0
M  V30 97 C 11.7577 1.86384 -0.108581 0
M  V30 98 C 12.1087 1.45309 1.31832 0
M  V30 99 O 11.2337 0.850641 1.9898 0
M  V30 100 C 11.8287 3.38265 -0.190274 0
M  V30 101 C 10.3877 3.75914 0.191164 0
M  V30 102 C 9.5347 2.71926 -0.543273 0
M  V30 103 H 12.4857 1.39561 -0.755537 0
M  V30 104 H 12.5067 3.75831 0.594217 0
M  V30 105 H 12.0187 3.6813 -1.2289 0
M  V30 106 H 10.1197 3.51665 1.23136 0
M  V30 107 H 10.2327 4.78836 -0.158987 0
M  V30 108 H 8.5967 2.54697 0.0122495 0
M  V30 109 H 9.3797 3.04634 -1.58282 0
M  V30 110 N 11.8248 0.280983 1.55075 0
M  V30 111 C 13.0498 -0.340154 2.04592 0
M  V30 112 C 13.4748 -1.48246 1.15779 0
M  V30 113 O 12.8328 -1.80614 0.15761 0
M  V30 114 C 12.8808 -0.793104 3.5177 0
M  V30 115 O 11.9848 -1.89981 3.66034 0
M  V30 116 H 11.3258 -0.0694289 0.66036 0
M  V30 117 H 13.8558 0.416993 2.00306 0
M  V30 118 H 13.8658 -1.08729 3.93245 0
M  V30 119 H 12.5408 0.0426163 4.15878 0
M  V30 120 H 11.1178 -1.60771 3.36463 0
M  V30 121 N 13.3029 -1.57598 0.00835791 0
M  V30 122 C 14.5309 -1.95214 -0.68549 0
M  V30 123 C 14.9459 -0.883706 -1.66841 0
M  V30 124 O 14.3029 0.136565 -1.81988 0
M  V30 125 C 14.3539 -3.32865 -1.41007 0
M  V30 126 O 14.0749 -4.35609 -0.466552 0
M  V30 127 C 15.5759 -3.84991 -2.19765 0
M  V30 128 H 12.7959 -0.643422 -0.190392 0
M  V30 129 H 15.3399 -2.04406 0.0619607 0
M  V30 130 H 13.4949 -3.24956 -2.10908 0
M  V30 131 H 13.9089 -5.15288 -0.978699 0
M  V30 132 H 15.3829 -4.8371 -2.65948 0
M  V30 133 H 15.8599 -3.18137 -3.02796 0
M  V30 134 H 16.4659 -3.96103 -1.54864 0
M  V30 135 N 14.781 0.264519 -1.55364 0
M  V30 136 C 15.713 1.34965 -1.85248 0
M  V30 137 C 16.726 1.45136 -0.737525 0
M  V30 138 O 17.915 1.46801 -1.01547 0
M  V30 139 C 15.015 2.73008 -2.00797 0
M  V30 140 C 14.188 2.85324 -3.31525 0
M  V30 141 C 13.247 4.04097 -3.37034 0
M  V30 142 O 12.273 3.94455 -4.10358 0
M  V30 143 N 13.475 5.16458 -2.65049 0
M  V30 144 H 16.24 1.09672 -2.78913 0
M  V30 145 H 13.801 0.454635 -1.55386 0
M  V30 146 H 15.793 3.50772 -2.01844 0
M  V30 147 H 14.363 2.91087 -1.1396 0
M  V30 148 H 13.583 1.94377 -3.42945 0
M  V30 149 H 14.871 2.9049 -4.17724 0
M  V30 150 H 14.269 5.27181 -2.05175 0
M  V30 151 H 12.826 5.92422 -2.71809 0
M  V30 152 N 16.2591 1.48442 0.529413 0
M  V30 153 C 17.6701 1.5002 1.11134 0
M  V30 154 C 18.0211 0.27031 1.94329 0
M  V30 155 O 17.1461 -0.622507 2.07253 0
M  V30 156 C 17.7411 2.71834 2.02217 0
M  V30 157 C 16.3001 2.76283 2.55627 0
M  V30 158 C 15.4471 2.43542 1.326 0
M  V30 159 H 18.3981 1.5555 0.314641 0
M  V30 160 H 18.4191 2.50384 2.8651 0
M  V30 161 H 17.9311 3.61331 1.41639 0
M  V30 162 H 16.0321 1.90995 3.19924 0
M  V30 163 H 16.1451 3.77725 2.94721 0
M  V30 164 H 14.5091 1.94709 1.64196 0
M  V30 165 H 15.2921 3.3528 0.737734 0
M  V30 166 N 17.7372 -0.778329 1.37039 0
M  V30 167 C 18.9832 -1.53817 1.33086 0
M  V30 168 C 19.3382 -1.92208 -0.0860346 0
M  V30 169 O 18.6312 -1.60713 -1.04316 0
M  V30 170 C 18.8252 -2.81845 2.19768 0
M  V30 171 C 18.6542 -2.55967 3.69744 0
M  V30 172 C 17.4242 -2.50428 4.38878 0
M  V30 173 C 19.6222 -2.2441 4.62758 0
M  V30 174 N 17.6042 -2.16564 5.74433 0
M  V30 175 C 18.9752 -2.0063 5.86641 0
M  V30 176 C 21.0302 -2.1051 4.5121 0
M  V30 177 C 19.7332 -1.64354 7.00272 0
M  V30 178 C 21.7592 -1.75634 5.64718 0
M  V30 179 C 21.1212 -1.52709 6.87648 0
M  V30 180 H 17.2202 -0.563434 0.542279 0
M  V30 181 H 19.8042 -0.908617 1.72198 0
M  V30 182 H 17.9752 -3.42649 1.82883 0
M  V30 183 H 19.7072 -3.47682 2.07122 0
M  V30 184 H 16.4622 -2.66056 3.91805 0
M  V30 185 H 16.8862 -2.02348 6.46053 0
M  V30 186 H 21.5282 -2.26919 3.56746 0
M  V30 187 H 19.2462 -1.46683 7.94676 0
M  V30 188 H 22.8322 -1.65546 5.57751 0
M  V30 189 H 21.7122 -1.2612 7.73992 0
M  V30 190 N 19.2153 -1.21501 -1.00376 0
M  V30 191 C 20.1253 -0.991447 -2.12621 0
M  V30 192 C 21.1413 0.0568446 -1.73907 0
M  V30 193 O 22.3173 -0.13348 -2.00957 0
M  V30 194 C 19.3823 -0.560312 -3.42142 0
M  V30 195 C 18.4433 -1.68096 -3.95022 0
M  V30 196 C 17.6763 -1.2703 -5.18362 0
M  V30 197 O 17.8993 -0.144438 -5.70217 0
M  V30 198 O 16.8333 -2.08269 -5.64719 0
M  V30 199 H 20.6593 -1.93158 -2.34358 0
M  V30 200 H 18.2443 -0.999999 -1.10997 0
M  V30 201 H 20.1263 -0.329724 -4.20108 0
M  V30 202 H 18.8013 0.351089 -3.2179 0
M  V30 203 H 17.7083 -1.96597 -3.18278 0
M  V30 204 H 19.0413 -2.56983 -4.19786 0
M  V30 205 N 20.6934 1.19889 -1.02296 0
M  V30 206 C 21.6434 2.20777 -0.56934 0
M  V30 207 C 22.6274 1.56379 0.378741 0
M  V30 208 O 23.8194 1.75859 0.200673 0
M  V30 209 C 20.9484 3.43196 0.0845077 0
M  V30 210 C 20.0344 4.14749 -0.88566 0
M  V30 211 N 20.4254 4.62584 -2.04573 0
M  V30 212 C 18.7234 4.40347 -0.707835 0
M  V30 213 C 19.4244 5.17466 -2.65714 0
M  V30 214 N 18.4004 5.0791 -1.93723 0
M  V30 215 H 22.2024 2.55434 -1.45365 0
M  V30 216 H 19.7164 1.35897 -0.88915 0
M  V30 217 H 21.7134 4.14707 0.427067 0
M  V30 218 H 20.3734 3.10042 0.964574 0
M  V30 219 H 21.3844 4.57597 -2.4254 0
M  V30 220 H 18.0614 4.17317 0.12364 0
M  V30 221 H 19.4514 5.64808 -3.63925 0
M  V30 222 N 22.1715 0.800033 1.35784 0
M  V30 223 C 23.4175 0.377901 1.99248 0
M  V30 224 C 23.7505 -1.05052 1.63333 0
M  V30 225 O 23.0255 -1.72768 0.893385 0
M  V30 226 C 23.3085 0.553922 3.55814 0
M  V30 227 C 23.1615 2.0268 4.01548 0
M  V30 228 C 24.4805 -0.0244802 4.40093 0
M  V30 229 H 21.5995 0.138782 0.723815 0
M  V30 230 H 24.2415 1.00835 1.61035 0
M  V30 231 H 22.3915 0.0172398 3.88496 0
M  V30 232 H 24.0635 2.62536 3.79305 0
M  V30 233 H 22.3065 2.5256 3.52698 0
M  V30 234 H 22.9775 2.10087 5.10458 0
M  V30 235 H 25.4535 0.433775 4.13833 0
M  V30 236 H 24.3295 0.128637 5.48749 0
M  V30 237 H 24.5905 -1.11758 4.27741 0
M  V30 238 N 23.6496 -1.47581 0.552962 0
M  V30 239 C 24.5976 -2.31648 -0.21023 0
M  V30 240 C 25.5916 -1.42663 -0.913432 0
M  V30 241 O 26.7976 -1.5945 -0.835201 0
M  V30 242 H 23.1726 -0.746989 -0.0866676 0
M  V30 243 H 25.1436 -2.93869 0.518051 0
M  V30 244 C 23.8926 -3.25226 -1.22976 0
M  V30 245 H 23.2156 -3.93658 -0.698077 0
M  V30 246 H 24.6556 -3.86889 -1.73473 0
M  V30 247 C 23.1146 -2.48448 -2.27542 0
M  V30 248 O 23.6446 -2.22585 -3.34393 0
M  V30 249 N 21.8506 -2.09532 -2.01357 0
M  V30 250 H 21.3976 -2.30765 -1.14478 0
M  V30 251 H 21.3556 -1.58476 -2.71538 0
M  V30 252 N 25.1277 -0.289203 -1.54924 0
M  V30 253 C 26.0907 0.579144 -2.21762 0
M  V30 254 C 27.0907 1.07047 -1.1999 0
M  V30 255 O 28.2807 0.968384 -1.44803 0
M  V30 256 C 25.4127 1.80055 -2.8947 0
M  V30 257 H 26.6057 -0.00464908 -2.999 0
M  V30 258 H 24.1587 -0.0399306 -1.56249 0
M  V30 259 H 24.8937 2.42449 -2.15381 0
M  V30 260 H 24.6787 1.45602 -3.64064 0
M  V30 261 H 26.1687 2.41773 -3.40493 0
M  V30 262 N 26.6058 1.57591 -0.0167156 0
M  V30 263 C 27.8548 1.90461 0.663877 0
M  V30 264 C 28.1678 0.893515 1.73999 0
M  V30 265 O 29.3738 1.11302 2.47637 0
M  V30 266 C 27.8298 3.38155 1.23204 0
M  V30 267 C 27.4378 4.47597 0.189866 0
M  V30 268 C 29.1818 3.80111 1.88986 0
M  V30 269 C 27.0888 5.86379 0.768964 0
M  V30 270 H 26.0188 0.710738 0.251729 0
M  V30 271 H 28.6698 1.83326 -0.0799926 0
M  V30 272 H 27.0518 3.40182 2.02712 0
M  V30 273 H 28.2258 4.57112 -0.581846 0
M  V30 274 H 26.5408 4.14766 -0.368475 0
M  V30 275 H 29.1378 4.81145 2.33247 0
M  V30 276 H 29.4808 3.14511 2.72743 0
M  V30 277 H 30.0138 3.80454 1.16187 0
M  V30 278 H 26.7528 6.55493 -0.0301957 0
M  V30 279 H 26.2728 5.80496 1.50945 0
M  V30 280 H 27.9518 6.34563 1.26251 0
M  V30 281 N 28.0839 -0.256276 1.55502 0
M  V30 282 C 29.0159 -1.33981 1.85962 0
M  V30 283 C 30.0289 -1.44743 0.745212 0
M  V30 284 O 31.2179 -1.4626 1.02324 0
M  V30 285 C 28.3179 -2.7194 2.02242 0
M  V30 286 C 27.4909 -2.83562 3.33033 0
M  V30 287 C 26.5499 -4.02304 3.39172 0
M  V30 288 O 25.5759 -3.92273 4.12444 0
M  V30 289 N 26.7779 -5.15045 2.67784 0
M  V30 290 H 29.5429 -1.08191 2.7949 0
M  V30 291 H 27.1039 -0.446388 1.55624 0
M  V30 292 H 29.0959 -3.49697 2.03701 0
M  V30 293 H 27.6659 -2.90479 1.15502 0
M  V30 294 H 26.8859 -1.92555 3.43971 0
M  V30 295 H 28.1739 -2.88271 4.19258 0
M  V30 296 H 27.5719 -5.26085 2.07968 0
M  V30 297 H 26.1289 -5.90972 2.74947 0
M  V30 298 N 29.562 -1.4872 -0.521534 0
M  V30 299 C 30.472 -1.66569 -1.65203 0
M  V30 300 C 31.488 -0.548197 -1.65139 0
M  V30 301 O 32.664 -0.820339 -1.83936 0
M  V30 302 C 29.729 -1.70917 -3.01642 0
M  V30 303 C 28.79 -2.94356 -3.12495 0
M  V30 304 C 28.023 -2.98487 -4.42426 0
M  V30 305 O 28.246 -2.10786 -5.30024 0
M  V30 306 O 27.18 -3.90746 -4.57822 0
M  V30 307 H 31.006 -2.62298 -1.5308 0
M  V30 308 H 28.591 -1.3222 -0.695565 0
M  V30 309 H 30.473 -1.7625 -3.82771 0
M  V30 310 H 29.148 -0.783633 -3.14071 0
M  V30 311 H 28.055 -2.94552 -2.3063 0
M  V30 312 H 29.388 -3.86322 -3.04986 0
M  V30 313 N 31.0401 0.771051 -1.3745 0
M  V30 314 C 32.0031 1.86598 -1.33093 0
M  V30 315 C 33.0031 1.59076 -0.234845 0
M  V30 316 O 34.1931 1.67145 -0.490732 0
M  V30 317 C 31.3251 3.23747 -1.06773 0
M  V30 318 H 32.5181 1.91873 -2.30488 0
M  V30 319 H 30.0711 0.970876 -1.2249 0
M  V30 320 H 30.8061 3.24148 -0.099129 0
M  V30 321 H 30.5911 3.45115 -1.86112 0
M  V30 322 H 32.0811 4.03824 -1.06377 0
M  V30 323 N 32.5182 1.22032 0.997298 0
M  V30 324 C 33.4482 1.01065 2.10495 0
M  V30 325 C 34.4292 -0.0669542 1.69968 0
M  V30 326 O 35.6142 0.0943987 1.9397 0
M  V30 327 C 32.7442 0.582874 3.42374 0
M  V30 328 C 31.6982 1.60592 3.96729 0
M  V30 329 C 31.0242 1.03412 5.24605 0
M  V30 330 C 32.3242 2.99478 4.27914 0
M  V30 331 H 34.0182 1.93708 2.28292 0
M  V30 332 H 31.5642 0.932761 1.09707 0
M  V30 333 H 33.5172 0.423332 4.19268 0
M  V30 334 H 32.2412 -0.379213 3.24391 0
M  V30 335 H 30.9002 1.75316 3.21963 0
M  V30 336 H 30.5482 0.063518 5.0296 0
M  V30 337 H 30.2482 1.71754 5.61938 0
M  V30 338 H 31.7722 0.886066 6.04137 0
M  V30 339 H 33.1862 2.88153 4.95622 0
M  V30 340 H 31.5832 3.64903 4.76409 0
M  V30 341 H 32.6532 3.49742 3.3587 0
M  V30 342 N 33.9963 -1.19345 1.0293 0
M  V30 343 C 35.4123 -1.41069 0.746446 0
M  V30 344 C 35.6123 -1.90078 -0.668776 0
M  V30 345 O 34.6683 -2.0778 -1.4347 0
M  V30 346 C 35.9813 -2.42141 1.78292 0
M  V30 347 C 37.5293 -2.55887 1.80252 0
M  V30 348 C 38.0043 -3.60214 2.8286 0
M  V30 349 N 39.4953 -3.67711 2.81679 0
M  V30 350 C 40.2303 -4.48128 3.57727 0
M  V30 351 N 39.7263 -5.32248 4.43491 0
M  V30 352 N 41.5193 -4.42782 3.46267 0
M  V30 353 H 33.6703 -0.858536 1.94275 0
M  V30 354 H 35.9333 -0.439541 0.839945 0
M  V30 355 H 35.6393 -2.13155 2.79746 0
M  V30 356 H 35.5133 -3.41323 1.60557 0
M  V30 357 H 37.9003 -2.84196 0.794757 0
M  V30 358 H 37.9813 -1.56858 2.02062 0
M  V30 359 H 37.6253 -3.32647 3.83807 0
M  V30 360 H 37.5553 -4.58895 2.58307 0
M  V30 361 H 40.0463 -3.07634 2.19476 0
M  V30 362 H 40.3593 -5.90729 4.98256 0
M  V30 363 H 38.7043 -5.31707 4.47564 0
M  V30 364 H 41.8953 -3.76107 2.78677 0
M  V30 365 H 42.0683 -5.05215 4.05785 0
M  V30 366 N 35.4744 -0.807222 -1.35358 0
M  V30 367 C 36.4044 -0.232509 -2.3234 0
M  V30 368 C 37.3854 0.642386 -1.57504 0
M  V30 369 O 38.5704 0.572526 -1.85569 0
M  V30 370 C 35.7004 0.619238 -3.41735 0
M  V30 371 C 34.6544 -0.157215 -4.27711 0
M  V30 372 C 33.9804 0.816273 -5.28433 0
M  V30 373 C 35.2804 -1.35656 -5.04376 0
M  V30 374 H 36.9744 -1.04276 -2.80654 0
M  V30 375 H 34.5204 -0.50288 -1.34934 0
M  V30 376 H 36.4734 1.03137 -4.08584 0
M  V30 377 H 35.1974 1.46239 -2.92031 0
M  V30 378 H 33.8564 -0.550525 -3.62443 0
M  V30 379 H 33.5044 1.65494 -4.74996 0
M  V30 380 H 33.2044 0.301067 -5.86828 0
M  V30 381 H 34.7284 1.22659 -5.98153 0
M  V30 382 H 36.1424 -1.01927 -5.64166 0
M  V30 383 H 34.5394 -1.8063 -5.7227 0
M  V30 384 H 35.6094 -2.14288 -4.34981 0
M  V30 385 N 36.9525 1.47285 -0.560781 0
M  V30 386 C 37.8825 2.32857 0.173105 0
M  V30 387 C 38.8635 1.44009 0.905281 0
M  V30 388 O 40.0485 1.7286 0.885046 0
M  V30 389 C 37.1785 3.25861 1.20133 0
M  V30 390 C 36.1325 4.23978 0.585388 0
M  V30 391 C 35.4585 5.06332 1.7185 0
M  V30 392 C 36.7585 5.20242 -0.463178 0
M  V30 393 H 38.4525 2.94466 -0.541307 0
M  V30 394 H 35.9985 1.41601 -0.261764 0
M  V30 395 H 37.9515 3.84569 1.72293 0
M  V30 396 H 36.6755 2.62315 1.94573 0
M  V30 397 H 35.3345 3.66501 0.085054 0
M  V30 398 H 34.9825 4.39186 2.45203 0
M  V30 399 H 34.6825 5.72762 1.31213 0
M  V30 400 H 36.2065 5.67899 2.24329 0
M  V30 401 H 37.6205 5.73293 -0.027502 0
M  V30 402 H 36.0175 5.94896 -0.788627 0
M  V30 403 H 37.0875 4.65504 -1.35773 0
M  V30 404 N 38.4306 0.297415 1.54768 0
M  V30 405 C 39.3786 -0.596051 2.24833 0
M  V30 406 C 40.3726 -1.13992 1.25308 0
M  V30 407 O 41.5786 -1.09098 1.4317 0
M  V30 408 H 37.9536 -0.210814 0.721846 0
M  V30 409 H 39.9246 0.0174667 2.98395 0
M  V30 410 C 38.6736 -1.75818 2.99972 0
M  V30 411 H 37.9966 -1.3489 3.76357 0
M  V30 412 H 39.4366 -2.35949 3.52284 0
M  V30 413 C 37.8956 -2.66014 2.06732 0
M  V30 414 O 38.4256 -3.67009 1.63302 0
M  V30 415 N 36.6316 -2.33669 1.72763 0
M  V30 416 H 36.1786 -1.51586 2.08277 0
M  V30 417 H 36.1366 -2.94285 1.10652 0
M  V30 418 N 39.9087 -1.5758 0.0250728 0
M  V30 419 C 40.8387 -2.13007 -0.956575 0
M  V30 420 C 41.8197 -1.0452 -1.342 0
M  V30 421 O 43.0047 -1.32332 -1.42133 0
M  V30 422 C 40.1347 -2.65386 -2.24026 0
M  V30 423 C 39.0887 -3.78623 -1.99571 0
M  V30 424 C 38.4147 -4.17414 -3.3417 0
M  V30 425 C 39.7147 -5.04867 -1.33814 0
M  V30 426 H 41.4087 -2.9528 -0.494991 0
M  V30 427 H 38.9547 -1.42042 -0.236651 0
M  V30 428 H 40.9077 -3.02794 -2.93076 0
M  V30 429 H 39.6317 -1.80268 -2.72343 0
M  V30 430 H 38.2907 -3.41646 -1.32941 0
M  V30 431 H 37.9387 -3.29284 -3.80238 0
M  V30 432 H 37.6387 -4.93719 -3.18615 0
M  V30 433 H 39.1627 -4.57402 -4.04495 0
M  V30 434 H 40.5767 -5.39888 -1.92857 0
M  V30 435 H 38.9737 -5.86144 -1.28669 0
M  V30 436 H 40.0437 -4.83904 -0.310561 0
M  V30 437 N 41.3868 0.248026 -1.55636 0
M  V30 438 C 42.6118 0.998028 -1.81808 0
M  V30 439 C 43.0368 1.78207 -0.601979 0
M  V30 440 O 42.3948 1.75653 0.448961 0
M  V30 441 C 42.4428 1.9125 -3.05705 0
M  V30 442 O 41.5468 3.00406 -2.82542 0
M  V30 443 H 40.8878 0.284045 -0.600179 0
M  V30 444 H 43.4178 0.269357 -2.02819 0
M  V30 445 H 43.4278 2.32737 -3.35108 0
M  V30 446 H 42.1028 1.33602 -3.93857 0
M  V30 447 H 40.6798 2.63056 -2.64303 0
M  V30 448 N 42.8649 1.48995 0.513639 0
M  V30 449 C 44.2809 1.35478 0.843682 0
M  V30 450 C 44.4809 0.378213 1.97919 0
M  V30 451 O 43.5369 -0.194689 2.51748 0
M  V30 452 C 44.8499 2.75901 1.1958 0
M  V30 453 C 46.3979 2.84509 1.30474 0
M  V30 454 C 46.8729 4.25671 1.69021 0
M  V30 455 N 48.3639 4.28422 1.76094 0
M  V30 456 C 49.0989 5.34601 2.07338 0
M  V30 457 N 48.5949 6.5104 2.36894 0
M  V30 458 N 50.3879 5.22007 2.08483 0
M  V30 459 H 42.5389 2.11092 -0.235328 0
M  V30 460 H 44.8019 0.947039 -0.0426669 0
M  V30 461 H 44.5079 3.49001 0.434913 0
M  V30 462 H 44.3819 3.10467 2.1422 0
M  V30 463 H 46.7689 2.11655 2.05637 0
M  V30 464 H 46.8499 2.53542 0.339155 0
M  V30 465 H 46.4939 4.99048 0.944135 0
M  V30 466 H 46.4239 4.54094 2.66658 0
M  V30 467 H 48.9149 3.44441 1.55464 0
M  V30 468 H 49.2279 7.2779 2.59887 0
M  V30 469 H 47.5729 6.54287 2.34378 0
M  V30 470 H 50.7639 4.30051 1.84861 0
M  V30 471 H 50.9369 6.04854 2.325 0
M  V30 472 N 44.343 -0.763751 1.37857 0
M  V30 473 C 45.62 -1.51244 1.24035 0
M  V30 474 C 46 -2.10472 -0.162649 0
M  V30 475 O 45.348 -1.96206 -1.17112 0
M  V30 476 C 45.558 -2.58694 2.34261 0
M  V30 477 C 46.906 -3.25878 2.72193 0
M  V30 478 O 47.93 -2.68993 2.33497 0
M  V30 479 O 46.789 -4.2874 3.38887 0
M  V30 480 H 43.883 -0.670243 0.484462 0
M  V30 481 H 46.429 -0.800031 1.49658 0
M  V30 482 H 45.201 -2.13105 3.2818 0
M  V30 483 H 44.824 -3.37527 2.10146 0
M  V30 484 N 45.8211 -1.22559 -0.990812 0
M  V30 485 C 47.0491 -1.07779 -1.76611 0
M  V30 486 C 47.4641 0.371513 -1.85109 0
M  V30 487 O 46.8211 1.25737 -1.32274 0
M  V30 488 C 46.8721 -1.68512 -3.19822 0
M  V30 489 O 46.5931 -3.07774 -3.1178 0
M  V30 490 C 48.0941 -1.59035 -4.13791 0
M  V30 491 H 45.3141 -0.377729 -0.554583 0
M  V30 492 H 47.8581 -1.62195 -1.24551 0
M  V30 493 H 46.0131 -1.18154 -3.68942 0
M  V30 494 H 46.4271 -3.37062 -4.01858 0
M  V30 495 H 47.9011 -2.0625 -5.1202 0
M  V30 496 H 48.3781 -0.547273 -4.35777 0
M  V30 497 H 48.9841 -2.08709 -3.70568 0
M  V30 498 N 47.2992 1.18797 -1.03562 0
M  V30 499 C 48.2622 2.20464 -0.626769 0
M  V30 500 C 49.2622 1.57721 0.313173 0
M  V30 501 O 50.4522 1.73917 0.0992615 0
M  V30 502 C 47.5842 3.40802 0.0818498 0
M  V30 503 H 48.7772 2.58149 -1.5264 0
M  V30 504 H 46.3302 1.32593 -0.827578 0
M  V30 505 H 47.0652 3.08642 0.995518 0
M  V30 506 H 46.8502 3.8758 -0.593652 0
M  V30 507 H 48.3402 4.16092 0.354584 0
M  V30 508 N 48.7773 0.814389 1.34928 0
M  V30 509 C 49.7403 0.235759 2.27984 0
M  V30 510 C 50.7403 -0.581412 1.49921 0
M  V30 511 O 51.9303 -0.398758 1.69575 0
M  V30 512 C 49.0623 -0.670433 3.34242 0
M  V30 513 H 50.2553 1.05659 2.80671 0
M  V30 514 H 47.8083 0.585614 1.44915 0
M  V30 515 H 48.5433 -1.51466 2.86755 0
M  V30 516 H 48.3283 -0.0860822 3.92005 0
M  V30 517 H 49.8183 -1.06935 4.03676 0
M  V30 518 N 50.2554 -1.46986 0.568584 0
M  V30 519 C 51.1654 -2.33942 -0.17555 0
M  V30 520 C 52.1814 -1.48891 -0.90041 0
M  V30 521 O 53.3574 -1.81794 -0.86676 0
M  V30 522 C 50.4224 -3.25811 -1.18524 0
M  V30 523 C 49.4834 -4.26757 -0.466582 0
M  V30 524 C 48.7164 -5.14236 -1.42817 0
M  V30 525 O 48.9394 -5.04379 -2.66379 0
M  V30 526 O 47.8734 -5.94412 -0.946453 0
M  V30 527 H 51.6994 -2.98896 0.538036 0
M  V30 528 H 49.2844 -1.4573 0.329097 0
M  V30 529 H 51.1664 -3.82527 -1.76779 0
M  V30 530 H 49.8414 -2.63471 -1.88055 0
M  V30 531 H 48.7484 -3.73769 0.157451 0
M  V30 532 H 50.0814 -4.91843 0.187485 0
M  V30 533 N 51.7335 -0.305618 -1.54608 0
M  V30 534 C 52.6665 0.610536 -2.19881 0
M  V30 535 C 53.6445 1.1294 -1.16976 0
M  V30 536 O 54.8285 1.19673 -1.45638 0
M  V30 537 C 51.9555 1.83583 -2.84631 0
M  V30 538 C 51.0015 1.4498 -4.01102 0
M  V30 539 S 51.8345 0.501793 -5.33144 0
M  V30 540 C 52.9905 1.73478 -6.01379 0
M  V30 541 H 53.2235 0.0560177 -2.97247 0
M  V30 542 H 50.7565 -0.0897434 -1.54139 0
M  V30 543 H 52.7145 2.53898 -3.22562 0
M  V30 544 H 51.3755 2.36152 -2.07102 0
M  V30 545 H 50.5685 2.36236 -4.45206 0
M  V30 546 H 50.1705 0.826553 -3.64752 0
M  V30 547 H 52.4625 2.67473 -6.22467 0
M  V30 548 H 53.4055 1.33622 -6.95378 0
M  V30 549 H 53.8135 1.9136 -5.31076 0
M  V30 550 N 53.2116 1.57565 -0.0334293 0
M  V30 551 C 54.1596 2.1164 0.96496 0
M  V30 552 C 55.1536 1.04398 1.33407 0
M  V30 553 O 56.3596 1.22828 1.3158 0
M  V30 554 H 52.7346 0.676222 0.32898 0
M  V30 555 H 54.7056 2.94455 0.483614 0
M  V30 556 C 53.4546 2.66207 2.23672 0
M  V30 557 H 52.7776 3.48378 1.96145 0
M  V30 558 H 54.2176 3.07685 2.9173 0
M  V30 559 C 52.6766 1.59151 2.96939 0
M  V30 560 O 53.2066 0.993858 3.89211 0
M  V30 561 N 51.4126 1.31093 2.59351 0
M  V30 562 H 50.9596 1.7988 1.84393 0
M  V30 563 H 50.9176 0.596889 3.08682 0
M  V30 564 N 54.6897 -0.239769 1.55765 0
M  V30 565 C 55.5997 -1.31831 1.94056 0
M  V30 566 C 56.6157 -1.52275 0.841925 0
M  V30 567 O 57.7917 -1.65759 1.14394 0
M  V30 568 C 54.8567 -2.65156 2.23368 0
M  V30 569 C 53.9177 -2.53173 3.46701 0
M  V30 570 C 53.1507 -3.8014 3.74606 0
M  V30 571 O 53.3737 -4.82343 3.04469 0
M  V30 572 O 52.3077 -3.78344 4.68123 0
M  V30 573 H 56.1337 -1.02347 2.85935 0
M  V30 574 H 53.7187 -0.441123 1.42739 0
M  V30 575 H 55.6007 -3.43929 2.43497 0
M  V30 576 H 54.2757 -2.94358 1.34666 0
M  V30 577 H 53.1827 -1.72662 3.31871 0
M  V30 578 H 54.5157 -2.28915 4.35728 0
M  V30 579 N 56.1678 -1.49265 -0.50573 0
M  V30 580 C 57.3958 -1.62215 -1.28429 0
M  V30 581 C 57.8108 -0.291697 -1.86533 0
M  V30 582 O 57.1678 0.722233 -1.67601 0
M  V30 583 C 57.2188 -2.68735 -2.41793 0
M  V30 584 O 56.9398 -3.96619 -1.86078 0
M  V30 585 C 58.4408 -2.92346 -3.3324 0
M  V30 586 H 55.6608 -0.546239 -0.389697 0
M  V30 587 H 58.2048 -1.95265 -0.607609 0
M  V30 588 H 56.3598 -2.38476 -3.053 0
M  V30 589 H 56.7738 -4.55256 -2.60465 0
M  V30 590 H 58.2478 -3.70623 -4.09075 0
M  V30 591 H 58.7248 -2.02081 -3.89948 0
M  V30 592 H 59.3308 -3.24003 -2.75503 0
M  V30 593 N 57.6459 0.756429 -1.3826 0
M  V30 594 C 58.8919 1.51772 -1.34511 0
M  V30 595 C 59.2249 1.94089 0.0656691 0
M  V30 596 O 58.4999 1.65221 1.02626 0
M  V30 597 C 58.7829 2.77226 -2.29821 0
M  V30 598 C 58.6359 2.41065 -3.79747 0
M  V30 599 C 59.9549 3.79236 -2.23312 0
M  V30 600 H 57.0739 0.550578 -0.489931 0
M  V30 601 H 59.7159 0.866607 -1.69086 0
M  V30 602 H 57.8659 3.32784 -2.00467 0
M  V30 603 H 59.5379 1.91303 -4.19763 0
M  V30 604 H 57.7809 1.7356 -3.97567 0
M  V30 605 H 58.4519 3.3081 -4.41892 0
M  V30 606 H 60.9279 3.3321 -2.49219 0
M  V30 607 H 59.8039 4.64714 -2.92116 0
M  V30 608 H 60.0649 4.24615 -1.23102 0
M  V30 609 N 59.124 1.23083 0.984299 0
M  V30 610 C 60.034 1.02515 2.11016 0
M  V30 611 C 61.05 -0.0291702 1.73976 0
M  V30 612 O 62.226 0.165434 2.00719 0
M  V30 613 C 59.291 0.614673 3.41208 0
M  V30 614 C 58.352 1.74359 3.92297 0
M  V30 615 C 57.585 1.35261 5.16275 0
M  V30 616 O 57.808 0.235136 5.69915 0
M  V30 617 O 56.742 2.17227 5.61334 0
M  V30 618 H 60.568 1.96862 2.31255 0
M  V30 619 H 58.153 1.01753 1.09392 0
M  V30 620 H 60.035 0.396518 4.1953 0
M  V30 621 H 58.71 -0.299851 3.22308 0
M  V30 622 H 57.617 2.01635 3.1511 0
M  V30 623 H 58.95 2.63629 4.15645 0
M  V30 624 N 60.6021 -1.18246 1.0419 0
M  V30 625 C 61.8481 -1.88536 0.747122 0
M  V30 626 C 62.1811 -1.80223 -0.723409 0
M  V30 627 O 61.4561 -1.20337 -1.52804 0
M  V30 628 C 61.7391 -3.38968 1.21544 0
M  V30 629 C 61.5921 -3.56084 2.74816 0
M  V30 630 C 62.9111 -4.32648 0.806482 0
M  V30 631 H 60.0301 -0.684619 0.272883 0
M  V30 632 H 62.6721 -1.39113 1.29413 0
M  V30 633 H 60.8221 -3.8119 0.750081 0
M  V30 634 H 62.4941 -3.22946 3.29399 0
M  V30 635 H 60.7371 -2.98699 3.14582 0
M  V30 636 H 61.4081 -4.61639 3.02644 0
M  V30 637 H 63.8841 -3.98211 1.20695 0
M  V30 638 H 62.7601 -5.36462 1.1619 0
M  V30 639 H 63.0211 -4.41146 -0.29029 0
M  V30 640 N 62.0802 -0.821533 -1.34494 0
M  V30 641 C 63.3292 -0.405355 -1.97585 0
M  V30 642 C 63.6422 1.03677 -1.65863 0
M  V30 643 O 64.8482 1.55679 -2.22433 0
M  V30 644 C 63.3042 -0.673861 -3.53535 0
M  V30 645 C 62.9122 -2.12951 -3.94152 0
M  V30 646 C 64.6562 -0.32378 -4.23263 0
M  V30 647 C 62.5632 -2.34298 -5.43009 0
M  V30 648 H 61.4932 -0.147836 -0.739365 0
M  V30 649 H 64.1442 -1.00769 -1.53355 0
M  V30 650 H 62.5262 -0.00137554 -3.96 0
M  V30 651 H 63.7002 -2.84104 -3.62797 0
M  V30 652 H 62.0152 -2.44089 -3.37356 0
M  V30 653 H 64.6122 -0.461126 -5.32708 0
M  V30 654 H 64.9552 0.731586 -4.09821 0
M  V30 655 H 65.4882 -0.950786 -3.8627 0
M  V30 656 H 62.2272 -3.38335 -5.61435 0
M  V30 657 H 61.7472 -1.67687 -5.75883 0
M  V30 658 H 63.4262 -2.16588 -6.09671 0
M  V30 659 N 63.5583 1.46682 -0.576371 0
M  V30 660 C 64.7833 2.07304 -0.0630475 0
M  V30 661 C 65.2083 1.42329 1.2298 0
M  V30 662 O 64.5663 0.504865 1.74129 0
M  V30 663 C 64.6143 3.60472 0.095895 0
M  V30 664 O 63.7183 3.95927 1.15394 0
M  V30 665 H 63.0593 0.661288 -0.0599463 0
M  V30 666 H 65.5893 1.88417 -0.797511 0
M  V30 667 H 65.5993 4.06865 0.304071 0
M  V30 668 H 64.2743 4.07157 -0.84828 0
M  V30 669 H 62.8513 3.61252 0.924724 0
M  V30 670 N 65.0364 0.313813 1.54444 0
M  V30 671 C 65.9464 -0.565714 2.27677 0
M  V30 672 C 66.9624 -1.13754 1.31666 0
M  V30 673 O 68.1384 -1.15959 1.64668 0
M  V30 674 C 65.2034 -1.71528 3.01296 0
M  V30 675 C 64.2644 -1.17624 4.12872 0
M  V30 676 C 63.4974 -2.27102 4.8297 0
M  V30 677 O 63.7204 -3.47256 4.52514 0
M  V30 678 O 62.6544 -1.9307 5.70094 0
M  V30 679 H 66.4804 0.0287296 3.03686 0
M  V30 680 H 64.0654 0.0798312 1.49187 0
M  V30 681 H 65.9474 -2.38476 3.4743 0
M  V30 682 H 64.6224 -2.29608 2.2817 0
M  V30 683 H 63.5294 -0.472124 3.71109 0
M  V30 684 H 64.8624 -0.640695 4.88012 0
M  V30 685 N 66.5145 -1.57545 0.0417849 0
M  V30 686 C 67.4475 -2.06514 -0.970928 0
M  V30 687 C 68.4255 -0.963607 -1.30971 0
M  V30 688 O 69.6095 -1.23486 -1.4242 0
M  V30 689 C 66.7365 -2.4978 -2.28752 0
M  V30 690 C 65.7825 -3.71078 -2.10246 0
M  V30 691 S 66.6155 -5.17158 -1.38952 0
M  V30 692 C 67.7715 -5.6373 -2.71954 0
M  V30 693 H 68.0045 -2.9209 -0.554129 0
M  V30 694 H 65.5375 -1.53459 -0.17024 0
M  V30 695 H 67.4955 -2.75371 -3.04435 0
M  V30 696 H 66.1565 -1.64527 -2.67562 0
M  V30 697 H 65.3495 -3.9924 -3.07609 0
M  V30 698 H 64.9515 -3.45705 -1.42704 0
M  V30 699 H 67.2435 -5.68743 -3.68154 0
M  V30 700 H 68.1865 -6.63086 -2.4844 0
M  V30 701 H 68.5945 -4.91424 -2.77782 0
M  V30 702 N 67.9926 0.231505 -1.5589 0
M  V30 703 C 69.2396 0.957352 -1.78441 0
M  V30 704 C 69.5676 1.84726 -0.60882 0
M  V30 705 O 68.8226 1.91416 0.40725 0
M  V30 706 C 69.1216 1.83577 -3.0665 0
M  V30 707 C 68.7876 1.09993 -4.37278 0
M  V30 708 C 67.4496 0.896629 -4.72773 0
M  V30 709 C 69.8016 0.579558 -5.17968 0
M  V30 710 C 67.1296 0.160896 -5.86479 0
M  V30 711 C 69.4816 -0.142783 -6.32439 0
M  V30 712 C 68.1456 -0.357427 -6.66542 0
M  V30 713 H 67.4156 0.35032 -0.65296 0
M  V30 714 H 70.0626 0.226259 -1.90159 0
M  V30 715 H 68.3676 2.63441 -2.90011 0
M  V30 716 H 70.0646 2.39934 -3.21298 0
M  V30 717 H 66.6546 1.26835 -4.09403 0
M  V30 718 H 70.8386 0.724125 -4.90989 0
M  V30 719 H 66.0946 -0.0157293 -6.11398 0
M  V30 720 H 70.2686 -0.553559 -6.94196 0
M  V30 721 H 67.8956 -0.929466 -7.54497 0
M  V30 722 N 69.4707 1.49531 0.497807 0
M  V30 723 C 70.7477 1.49682 1.25915 0
M  V30 724 C 71.1277 0.226339 2.09883 0
M  V30 725 O 70.4757 -0.791189 2.14365 0
M  V30 726 C 70.6857 2.77755 2.11313 0
M  V30 727 C 72.0337 3.27371 2.70395 0
M  V30 728 O 73.0577 2.78894 2.21578 0
M  V30 729 O 71.9167 4.11808 3.59272 0
M  V30 730 H 69.0107 0.599228 0.56996 0
M  V30 731 H 71.5567 1.61798 0.511816 0
M  V30 732 H 70.3287 3.61713 1.49264 0
M  V30 733 H 69.9517 2.68515 2.93233 0
M  V30 734 N 70.9488 -0.749086 1.3866 0
M  V30 735 C 71.8788 -1.8764 1.38973 0
M  V30 736 C 72.8598 -1.68178 0.255004 0
M  V30 737 O 74.0448 -1.88704 0.458754 0
M  V30 738 C 71.1748 -3.25222 1.21851 0
M  V30 739 C 70.1288 -3.59295 2.32575 0
M  V30 740 C 69.4548 -4.95663 2.00555 0
M  V30 741 C 70.7548 -3.63709 3.7485 0
M  V30 742 H 72.4488 -1.87635 2.3331 0
M  V30 743 H 69.9948 -0.901329 1.12303 0
M  V30 744 H 71.9478 -4.03746 1.20695 0
M  V30 745 H 70.6718 -3.25719 0.239775 0
M  V30 746 H 69.3308 -2.83093 2.32925 0
M  V30 747 H 68.9788 -4.92724 1.01154 0
M  V30 748 H 68.6788 -5.19429 2.74714 0
M  V30 749 H 70.2028 -5.7656 2.01024 0
M  V30 750 H 71.6168 -4.32338 3.76506 0
M  V30 751 H 70.0138 -3.98986 4.48252 0
M  V30 752 H 71.0838 -2.63834 4.06841 0
M  V30 753 N 72.4269 -1.23603 -0.977757 0
M  V30 754 C 73.3589 -0.977369 -2.07317 0
M  V30 755 C 74.3719 0.0495845 -1.62724 0
M  V30 756 O 75.5609 -0.186261 -1.77526 0
M  V30 757 C 72.6609 -0.451216 -3.35883 0
M  V30 758 C 71.8339 -1.53896 -4.09432 0
M  V30 759 C 70.8929 -1.01721 -5.16274 0
M  V30 760 O 69.9189 -1.70676 -5.43009 0
M  V30 761 N 71.1209 0.153594 -5.80297 0
M  V30 762 H 73.8859 -1.92047 -2.30082 0
M  V30 763 H 71.4469 -1.14497 -1.14465 0
M  V30 764 H 73.4389 -0.0871574 -4.04606 0
M  V30 765 H 72.0089 0.397368 -3.10064 0
M  V30 766 H 71.2289 -2.07566 -3.35127 0
M  V30 767 H 72.5169 -2.27037 -4.55337 0
M  V30 768 H 71.9149 0.730323 -5.60966 0
M  V30 769 H 70.4719 0.458892 -6.50183 0
M  V30 770 N 73.905 1.17692 -1.04816 0
M  V30 771 C 74.815 2.25229 -0.65643 0
M  V30 772 C 75.831 1.71018 0.320761 0
M  V30 773 O 77.007 2.00649 0.173805 0
M  V30 774 C 74.072 3.46684 -0.0332629 0
M  V30 775 C 73.133 4.15997 -1.06042 0
M  V30 776 C 72.366 5.31654 -0.466893 0
M  V30 777 O 72.589 5.65777 0.724758 0
M  V30 778 O 71.523 5.89831 -1.1993 0
M  V30 779 H 75.349 2.61016 -1.55255 0
M  V30 780 H 72.934 1.24919 -0.81949 0
M  V30 781 H 74.816 4.20234 0.313256 0
M  V30 782 H 73.491 3.12703 0.836566 0
M  V30 783 H 72.398 3.44482 -1.45886 0
M  V30 784 H 73.731 4.53996 -1.90127 0
M  V30 785 N 75.3831 0.828654 1.34056 0
M  V30 786 C 76.7941 0.477534 1.8049 0
M  V30 787 C 77.1451 -1.00258 1.6865 0
M  V30 788 O 76.2701 -1.78057 1.22982 0
M  V30 789 C 76.8651 0.860018 3.27703 0
M  V30 790 C 75.4241 0.561185 3.72193 0
M  V30 791 C 74.5711 1.07385 2.55663 0
M  V30 792 H 77.5221 1.0183 1.21722 0
M  V30 793 H 77.5431 0.166038 3.80138 0
M  V30 794 H 77.0551 1.93731 3.36288 0
M  V30 795 H 75.1561 -0.506465 3.69142 0
M  V30 796 H 75.2691 1.10926 4.66082 0
M  V30 797 H 73.6331 0.495149 2.49841 0
M  V30 798 H 74.4161 2.15771 2.67016 0
M  V30 799 N 76.8612 -1.46375 0.584142 0
M  V30 800 C 78.0892 -2.06761 0.0759296 0
M  V30 801 C 78.5042 -1.43266 -1.22965 0
M  V30 802 O 77.8612 -0.538458 -1.74376 0
M  V30 803 C 77.9122 -3.61375 -0.0950384 0
M  V30 804 O 77.6332 -4.22495 1.15887 0
M  V30 805 C 79.1342 -4.38693 -0.637434 0
M  V30 806 H 76.3542 -0.668479 0.0581075 0
M  V30 807 H 78.8982 -1.8798 0.805218 0
M  V30 808 H 77.0532 -3.79578 -0.774554 0
M  V30 809 H 77.4672 -5.15385 0.973598 0
M  V30 810 H 78.9412 -5.47464 -0.706237 0
M  V30 811 H 79.4182 -4.06836 -1.65472 0
M  V30 812 H 80.0242 -4.25299 0.00725967 0
M  V30 813 N 78.3393 -0.321999 -1.54275 0
M  V30 814 C 79.5793 0.281657 -2.0245 0
M  V30 815 C 79.9433 1.49468 -1.20513 0
M  V30 816 O 81.1443 2.17109 -1.58484 0
M  V30 817 C 79.4153 0.609014 -3.52173 0
M  V30 818 S 80.9743 1.19255 -4.22284 0
M  V30 819 H 77.7923 0.0852825 -0.705867 0
M  V30 820 H 80.3943 -0.454758 -1.90137 0
M  V30 821 H 79.0983 -0.281982 -4.0943 0
M  V30 822 H 78.6293 1.37567 -3.68563 0
M  V30 823 H 80.6443 2.47944 -4.29812 0
M  V30 824 N 79.8174 1.5752 -0.0501392 0
M  V30 825 C 80.7474 2.14502 0.922566 0
M  V30 826 C 81.7284 1.06642 1.3252 0
M  V30 827 O 82.9134 1.34577 1.4001 0
M  V30 828 C 80.0434 2.68916 2.19776 0
M  V30 829 C 78.9974 3.8175 1.93523 0
M  V30 830 C 78.3234 4.22677 3.27487 0
M  V30 831 C 79.6234 5.06932 1.25765 0
M  V30 832 H 81.3174 2.9603 0.447952 0
M  V30 833 H 78.8634 1.42401 0.214024 0
M  V30 834 H 80.8164 3.07419 2.88222 0
M  V30 835 H 79.5404 1.84578 2.69441 0
M  V30 836 H 78.1994 3.43718 1.27489 0
M  V30 837 H 77.8474 3.35291 3.74952 0
M  V30 838 H 77.5474 4.98725 3.1072 0
M  V30 839 H 79.0714 4.63779 3.97166 0
M  V30 840 H 80.4854 5.42888 1.84244 0
M  V30 841 H 78.8824 5.88116 1.19328 0
M  V30 842 H 79.9524 4.84337 0.233536 0
M  V30 843 N 81.2955 -0.223234 1.56011 0
M  V30 844 C 82.2275 -1.30006 1.88762 0
M  V30 845 C 83.2405 -1.43129 0.775746 0
M  V30 846 O 84.4295 -1.44057 1.05403 0
M  V30 847 C 81.5295 -2.67589 2.07965 0
M  V30 848 C 80.7025 -2.76434 3.38973 0
M  V30 849 C 79.7615 -3.95019 3.47629 0
M  V30 850 O 78.7875 -3.83436 4.20672 0
M  V30 851 N 79.9895 -5.09249 2.78649 0
M  V30 852 H 82.7545 -1.02238 2.81722 0
M  V30 853 H 80.3155 -0.413278 1.56536 0
M  V30 854 H 82.3075 -3.45297 2.11073 0
M  V30 855 H 80.8775 -2.87964 1.21638 0
M  V30 856 H 80.0975 -1.85216 3.47978 0
M  V30 857 H 81.3855 -2.79313 4.25278 0
M  V30 858 H 80.7835 -5.21556 2.19081 0
M  V30 859 H 79.3405 -5.85007 2.8742 0
M  V30 860 N 82.7736 -1.49793 -0.48987 0
M  V30 861 C 84.0016 -1.63568 -1.26701 0
M  V30 862 C 84.4166 -0.311465 -1.86213 0
M  V30 863 O 83.7736 0.704416 -1.68357 0
M  V30 864 C 83.8246 -2.71284 -2.38929 0
M  V30 865 O 83.5456 -3.9857 -1.81861 0
M  V30 866 C 85.0466 -2.95864 -3.3012 0
M  V30 867 H 82.2666 -0.550342 -0.383881 0
M  V30 868 H 84.8106 -1.95898 -0.586864 0
M  V30 869 H 82.9656 -2.417 -3.02753 0
M  V30 870 H 83.3796 -4.57993 -2.55622 0
M  V30 871 H 84.8536 -3.74941 -4.05121 0
M  V30 872 H 85.3306 -2.06206 -3.87783 0
M  V30 873 H 85.9366 -3.26907 -2.72051 0
M  V30 874 N 84.2517 0.741722 -1.39055 0
M  V30 875 C 85.6677 1.04638 -1.20512 0
M  V30 876 C 85.8677 2.01405 -0.0620218 0
M  V30 877 O 84.9237 2.45547 0.588457 0
M  V30 878 C 86.2367 1.6151 -2.53643 0
M  V30 879 C 87.7847 1.73623 -2.6043 0
M  V30 880 C 88.2597 2.33906 -3.93767 0
M  V30 881 N 89.7507 2.41323 -3.9537 0
M  V30 882 C 90.4857 2.88888 -4.95309 0
M  V30 883 N 89.9817 3.36401 -6.05645 0
M  V30 884 N 91.7747 2.88037 -4.82692 0
M  V30 885 H 83.9257 0.0998155 -2.12165 0
M  V30 886 H 86.1887 0.106907 -0.941953 0
M  V30 887 H 85.8947 0.978739 -3.37807 0
M  V30 888 H 85.7687 2.60411 -2.72885 0
M  V30 889 H 88.1557 2.36384 -1.76655 0
M  V30 890 H 88.2367 0.733945 -2.45045 0
M  V30 891 H 87.8807 1.71776 -4.7797 0
M  V30 892 H 87.8107 3.34799 -4.06469 0
M  V30 893 H 90.3017 2.07734 -3.15682 0
M  V30 894 H 90.6147 3.71186 -6.77821 0
M  V30 895 H 88.9597 3.34427 -6.09248 0
M  V30 896 H 92.1507 2.50237 -3.95599 0
M  V30 897 H 92.3237 3.24792 -5.60726 0
M  V30 898 N 85.7298 1.2412 0.971189 0
M  V30 899 C 86.6598 1.05508 2.08304 0
M  V30 900 C 87.6408 -0.0308864 1.70072 0
M  V30 901 O 88.8258 0.135521 1.93727 0
M  V30 902 C 85.9558 0.655365 3.4106 0
M  V30 903 C 84.9098 1.68971 3.93234 0
M  V30 904 C 84.2358 1.14516 5.22293 0
M  V30 905 C 85.5358 3.08487 4.21465 0
M  V30 906 H 87.2298 1.98507 2.24132 0
M  V30 907 H 84.7758 0.955821 1.07704 0
M  V30 908 H 86.7288 0.51217 4.18276 0
M  V30 909 H 85.4528 -0.31032 3.25122 0
M  V30 910 H 84.1118 1.82106 3.18171 0
M  V30 911 H 83.7598 0.170189 5.02712 0
M  V30 912 H 83.4598 1.83635 5.58168 0
M  V30 913 H 84.9838 1.01401 6.02121 0
M  V30 914 H 86.3978 2.98601 4.89398 0
M  V30 915 H 84.7948 3.74926 4.68562 0
M  V30 916 H 85.8648 3.56787 3.28376 0
M  V30 917 N 87.2079 -1.17134 1.05439 0
M  V30 918 C 88.1179 -2.24878 0.668365 0
M  V30 919 C 89.1339 -1.71186 -0.311687 0
M  V30 920 O 90.3099 -2.00738 -0.163161 0
M  V30 921 C 87.3749 -3.46662 0.051648 0
M  V30 922 C 86.4359 -4.15429 1.08246 0
M  V30 923 C 85.6689 -5.31399 0.495082 0
M  V30 924 O 85.8919 -5.66153 -0.694743 0
M  V30 925 O 84.8259 -5.89187 1.23056 0
M  V30 926 H 88.6519 -2.60189 1.56637 0
M  V30 927 H 86.2369 -1.24482 0.826104 0
M  V30 928 H 88.1189 -4.20394 -0.290966 0
M  V30 929 H 86.7939 -3.13142 -0.819971 0
M  V30 930 H 85.7009 -3.43704 1.47711 0
M  V30 931 H 87.0339 -4.52982 1.92532 0
M  V30 932 N 88.686 -0.835752 -1.33615 0
M  V30 933 C 89.616 -0.281739 -2.31794 0
M  V30 934 C 90.597 0.608833 -1.58831 0
M  V30 935 O 91.782 0.533035 -1.86741 0
M  V30 936 C 88.912 0.546612 -3.42971 0
M  V30 937 C 87.866 -0.247904 -4.27281 0
M  V30 938 C 87.192 0.704001 -5.30045 0
M  V30 939 C 88.492 -1.46324 -5.01385 0
M  V30 940 H 90.186 -1.10206 -2.78379 0
M  V30 941 H 87.732 -0.531388 -1.33837 0
M  V30 942 H 89.685 0.944467 -4.1068 0
M  V30 943 H 88.409 1.40011 -2.95067 0
M  V30 944 H 87.068 -0.627281 -3.61194 0
M  V30 945 H 86.716 1.55381 -4.78399 0
M  V30 946 H 86.416 0.176524 -5.87335 0
M  V30 947 H 87.94 1.09944 -6.0062 0
M  V30 948 H 89.354 -1.13871 -5.61877 0
M  V30 949 H 87.751 -1.92728 -5.6831 0
M  V30 950 H 88.821 -2.23467 -4.30338 0
M  V30 951 N 90.1641 1.46063 -0.591896 0
M  V30 952 C 91.3941 2.06418 -0.0867676 0
M  V30 953 C 91.8021 1.43975 1.22751 0
M  V30 954 O 91.1451 0.542531 1.75506 0
M  V30 955 C 91.2071 3.59213 0.143725 0
M  V30 956 C 90.8711 4.439 -1.08635 0
M  V30 957 C 91.8681 4.79864 -2.00067 0
M  V30 958 C 89.5531 4.84896 -1.31077 0
M  V30 959 C 91.5471 5.55661 -3.12282 0
M  V30 960 C 89.2341 5.6045 -2.43596 0
M  V30 961 C 90.2321 5.95747 -3.34027 0
M  V30 962 O 89.9201 6.69772 -4.4459 0
M  V30 963 H 89.6521 0.673443 -0.0587447 0
M  V30 964 H 92.2061 1.88539 -0.814994 0
M  V30 965 H 90.4361 3.75433 0.926668 0
M  V30 966 H 92.1251 4.01463 0.5985 0
M  V30 967 H 92.8911 4.48763 -1.83947 0
M  V30 968 H 88.7701 4.56867 -0.61594 0
M  V30 969 H 92.3141 5.8313 -3.82891 0
M  V30 970 H 88.2111 5.90965 -2.59674 0
M  V30 971 H 88.9791 6.88207 -4.43073 0
M  V30 972 N 91.6422 0.330177 1.54103 0
M  V30 973 C 92.5892 -0.532762 2.24567 0
M  V30 974 C 93.5592 -1.10635 1.23892 0
M  V30 975 O 94.7442 -1.14546 1.5259 0
M  V30 976 C 91.8842 -1.6845 3.01195 0
M  V30 977 C 90.9972 -1.13951 4.167 0
M  V30 978 C 90.1322 -2.25746 4.80845 0
M  V30 979 C 89.1712 -1.6853 5.88442 0
M  V30 980 N 88.3082 -2.74014 6.46421 0
M  V30 981 H 93.1482 0.0746905 2.97906 0
M  V30 982 H 90.6852 0.048632 1.4702 0
M  V30 983 H 92.6432 -2.36234 3.43874 0
M  V30 984 H 91.2732 -2.26314 2.30178 0
M  V30 985 H 90.3252 -0.35301 3.78758 0
M  V30 986 H 91.6372 -0.680892 4.94131 0
M  V30 987 H 90.7912 -3.01422 5.26526 0
M  V30 988 H 89.5302 -2.74947 4.0281 0
M  V30 989 H 88.5352 -0.913543 5.42157 0
M  V30 990 H 89.7602 -1.20198 6.68378 0
M  V30 991 H 87.7062 -3.22494 5.71256 0
M  V30 992 H 87.6232 -2.32735 7.19285 0
M  V30 993 H 88.8912 -3.49499 6.96757 0
M  V30 994 N 93.1203 -1.57491 0.0584922 0
M  V30 995 C 94.0523 -2.08916 -0.942694 0
M  V30 996 C 95.0653 -1.0185 -1.27006 0
M  V30 997 O 96.2543 -1.29398 -1.22957 0
M  V30 998 C 93.3543 -2.52341 -2.26224 0
M  V30 999 C 92.5273 -3.82827 -2.1157 0
M  V30 1000 C 91.5863 -4.12487 -3.26712 0
M  V30 1001 O 90.6123 -4.82295 -3.02292 0
M  V30 1002 N 91.8143 -3.64978 -4.5141 0
M  V30 1003 H 94.5793 -2.95437 -0.503722 0
M  V30 1004 H 92.1403 -1.61397 -0.12757 0
M  V30 1005 H 94.1323 -2.69254 -3.02133 0
M  V30 1006 H 92.7023 -1.7103 -2.61663 0
M  V30 1007 H 91.9223 -3.75425 -1.20208 0
M  V30 1008 H 93.2103 -4.68263 -1.99015 0
M  V30 1009 H 92.6083 -3.08558 -4.7414 0
M  V30 1010 H 91.1653 -3.87115 -5.2439 0
M  V30 1011 N 94.5984 0.214957 -1.56127 0
M  V30 1012 C 95.8464 0.936518 -1.79091 0
M  V30 1013 C 96.1674 1.84606 -0.628148 0
M  V30 1014 O 95.4374 1.92664 0.35462 0
M  V30 1015 H 94.0174 0.3488 -0.660566 0
M  V30 1016 H 96.6794 0.22523 -1.93594 0
M  V30 1017 H 95.7754 1.53943 -2.71492 0
M  V30 1018 N 96.0765 1.50051 0.48192 0
M  V30 1019 C 97.0065 1.71046 1.58951 0
M  V30 1020 C 97.9875 0.559288 1.60642 0
M  V30 1021 O 99.1725 0.797243 1.77081 0
M  V30 1022 C 96.3025 1.79462 2.97339 0
M  V30 1023 C 95.2565 2.94558 3.10515 0
M  V30 1024 C 94.5825 2.88105 4.50444 0
M  V30 1025 C 95.8825 4.35227 2.88747 0
M  V30 1026 H 97.5765 2.6378 1.41635 0
M  V30 1027 H 95.1225 1.26936 0.679942 0
M  V30 1028 H 97.0755 1.92734 3.74742 0
M  V30 1029 H 95.7995 0.833412 3.15788 0
M  V30 1030 H 94.4585 2.80918 2.35543 0
M  V30 1031 H 94.1065 1.89853 4.65795 0
M  V30 1032 H 93.8065 3.65366 4.60197 0
M  V30 1033 H 95.3305 3.03412 5.29881 0
M  V30 1034 H 96.7445 4.49449 3.55905 0
M  V30 1035 H 95.1415 5.13856 3.09955 0
M  V30 1036 H 96.2115 4.48347 1.84696 0
M  V30 1037 N 97.5546 -0.734337 1.39446 0
M  V30 1038 C 98.9706 -1.03997 1.21065 0
M  V30 1039 C 99.1706 -2.01369 0.0727019 0
M  V30 1040 O 98.2266 -2.45856 -0.575426 0
M  V30 1041 C 99.5396 -1.60163 2.54496 0
M  V30 1042 C 101.088 -1.7224 2.61347 0
M  V30 1043 C 101.563 -2.31814 3.95002 0
M  V30 1044 N 103.054 -2.39223 3.96644 0
M  V30 1045 C 103.789 -2.86258 4.96834 0
M  V30 1046 N 103.285 -3.33184 6.07421 0
M  V30 1047 N 105.078 -2.85473 4.84213 0
M  V30 1048 H 97.2286 -0.0885624 2.12215 0
M  V30 1049 H 99.4916 -0.10191 0.942506 0
M  V30 1050 H 99.1976 -0.960811 3.38321 0
M  V30 1051 H 99.0716 -2.5896 2.74262 0
M  V30 1052 H 101.459 -2.35443 1.77906 0
M  V30 1053 H 101.54 -0.720939 2.4543 0
M  V30 1054 H 101.184 -1.69238 4.78875 0
M  V30 1055 H 101.114 -3.32638 4.08239 0
M  V30 1056 H 103.605 -2.06057 3.16779 0
M  V30 1057 H 103.918 -3.67586 6.7978 0
M  V30 1058 H 102.263 -3.31191 6.11013 0
M  V30 1059 H 105.454 -2.48136 3.96921 0
M  V30 1060 H 105.627 -3.21814 5.62441 0
M  V30 1061 N 99.0327 -1.24633 -0.964593 0
M  V30 1062 C 100.281 -1.08573 -1.70459 0
M  V30 1063 C 100.602 0.375655 -1.91347 0
M  V30 1064 O 99.8717 1.26779 -1.49345 0
M  V30 1065 H 98.4517 -0.398784 -0.631649 0
M  V30 1066 H 101.114 -1.56601 -1.16026 0
M  V30 1067 H 100.21 -1.58623 -2.68785 0
M  V30 1068 N 100.511 1.16574 -1.06058 0
M  V30 1069 C 101.736 1.91493 -0.796562 0
M  V30 1070 C 102.161 1.76773 0.642868 0
M  V30 1071 O 101.519 1.09142 1.44768 0
M  V30 1072 C 101.567 3.40293 -1.19303 0
M  V30 1073 O 100.671 4.11074 -0.330394 0
M  V30 1074 H 100.012 0.596678 -0.291326 0
M  V30 1075 H 102.542 1.47708 -1.41575 0
M  V30 1076 H 102.552 3.91057 -1.16356 0
M  V30 1077 H 101.227 3.50326 -2.24153 0
M  V30 1078 H 99.8038 3.70513 -0.421225 0
M  V30 1079 N 101.989 0.842826 1.3317 0
M  V30 1080 C 102.919 0.294028 2.31641 0
M  V30 1081 C 103.9 -0.600401 1.59151 0
M  V30 1082 O 105.085 -0.523124 1.87022 0
M  V30 1083 C 102.215 -0.528416 3.43257 0
M  V30 1084 C 101.169 0.27056 4.27144 0
M  V30 1085 C 100.495 -0.675881 5.30411 0
M  V30 1086 C 101.795 1.48981 5.00602 0
M  V30 1087 H 103.489 1.11681 2.77791 0
M  V30 1088 H 101.035 0.538478 1.33553 0
M  V30 1089 H 102.988 -0.922674 4.11175 0
M  V30 1090 H 101.712 -1.38445 2.95805 0
M  V30 1091 H 100.371 0.646427 3.60856 0
M  V30 1092 H 100.019 -1.52842 4.79216 0
M  V30 1093 H 99.7189 -0.145374 5.8742 0
M  V30 1094 H 101.243 -1.06757 6.01195 0
M  V30 1095 H 102.657 1.16849 5.61266 0
M  V30 1096 H 101.054 1.95739 5.6728 0
M  V30 1097 H 102.124 2.25746 4.29147 0
M  V30 1098 N 103.467 -1.45747 0.599634 0
M  V30 1099 C 104.695 -2.06668 0.0978551 0
M  V30 1100 C 105.11 -1.44562 -1.21439 0
M  V30 1101 O 104.467 -0.556923 -1.73795 0
M  V30 1102 C 104.518 -3.61456 -0.0567044 0
M  V30 1103 O 104.239 -4.21242 1.20361 0
M  V30 1104 C 105.74 -4.39345 -0.590869 0
M  V30 1105 H 102.96 -0.667825 0.0651943 0
M  V30 1106 H 105.504 -1.87115 0.82511 0
M  V30 1107 H 103.659 -3.80378 -0.734251 0
M  V30 1108 H 104.073 -5.14323 1.02821 0
M  V30 1109 H 105.547 -5.48182 -0.648131 0
M  V30 1110 H 106.024 -4.08568 -1.61147 0
M  V30 1111 H 106.63 -4.25268 0.0523679 0
M  V30 1112 N 104.945 -0.338344 -1.53925 0
M  V30 1113 C 105.892 0.520845 -2.24846 0
M  V30 1114 C 106.862 1.09976 -1.24477 0
M  V30 1115 O 108.047 1.13735 -1.53196 0
M  V30 1116 C 105.187 1.6685 -3.02084 0
M  V30 1117 C 104.3 1.11739 -4.17299 0
M  V30 1118 C 103.435 2.23193 -4.82036 0
M  V30 1119 C 102.474 1.65407 -5.89328 0
M  V30 1120 N 101.611 2.70582 -6.47866 0
M  V30 1121 H 106.451 -0.0904881 -2.97863 0
M  V30 1122 H 103.988 -0.0564282 -1.46992 0
M  V30 1123 H 105.946 2.34407 -3.45122 0
M  V30 1124 H 104.576 2.2509 -2.31375 0
M  V30 1125 H 103.628 0.332919 -3.7894 0
M  V30 1126 H 104.94 0.654677 -4.94485 0
M  V30 1127 H 104.094 2.98626 -5.28117 0
M  V30 1128 H 102.833 2.72807 -4.04262 0
M  V30 1129 H 101.838 0.884779 -5.42634 0
M  V30 1130 H 103.063 1.16652 -6.69006 0
M  V30 1131 H 101.009 3.1946 -5.72959 0
M  V30 1132 H 100.926 2.28917 -7.20509 0
M  V30 1133 H 102.194 3.45799 -6.98601 0
M  V30 1134 N 106.423 1.57458 -0.0668435 0
M  V30 1135 C 107.353 2.15468 0.899764 0
M  V30 1136 C 108.334 1.08042 1.31381 0
M  V30 1137 O 109.519 1.36054 1.38574 0
M  V30 1138 C 106.649 2.71232 2.16911 0
M  V30 1139 C 105.603 3.83781 1.89463 0
M  V30 1140 C 104.929 4.26127 3.22986 0
M  V30 1141 C 106.229 5.08238 1.20381 0
M  V30 1142 H 107.923 2.96488 0.416529 0
M  V30 1143 H 105.469 1.4262 0.198908 0
M  V30 1144 H 107.422 3.10458 2.84945 0
M  V30 1145 H 106.146 1.87426 2.67468 0
M  V30 1146 H 104.805 3.45051 1.23836 0
M  V30 1147 H 104.453 3.39249 3.71374 0
M  V30 1148 H 104.153 5.01993 3.05413 0
M  V30 1149 H 105.677 4.67966 3.92225 0
M  V30 1150 H 107.091 5.44811 1.78475 0
M  V30 1151 H 105.488 5.89349 1.13083 0
M  V30 1152 H 106.558 4.84558 0.182153 0
M  V30 1153 N 107.901 -0.206675 1.56239 0
M  V30 1154 C 108.848 -1.25617 1.93621 0
M  V30 1155 C 109.818 -1.45824 0.795274 0
M  V30 1156 O 111.003 -1.59148 1.05245 0
M  V30 1157 C 108.143 -2.59839 2.27107 0
M  V30 1158 C 107.256 -2.47308 3.54207 0
M  V30 1159 C 106.391 -3.74155 3.7707 0
M  V30 1160 C 105.43 -3.56407 4.97635 0
M  V30 1161 N 104.567 -4.75238 5.1681 0
M  V30 1162 H 109.407 -0.930383 2.83104 0
M  V30 1163 H 106.944 -0.448065 1.4011 0
M  V30 1164 H 108.902 -3.38021 2.44535 0
M  V30 1165 H 107.532 -2.90485 1.40778 0
M  V30 1166 H 106.584 -1.60483 3.4489 0
M  V30 1167 H 107.896 -2.30122 4.42544 0
M  V30 1168 H 107.05 -4.60778 3.94675 0
M  V30 1169 H 105.789 -3.94282 2.87042 0
M  V30 1170 H 104.794 -2.68168 4.79964 0
M  V30 1171 H 106.019 -3.37736 5.89161 0
M  V30 1172 H 103.965 -4.95651 4.29728 0
M  V30 1173 H 103.882 -4.60835 5.99306 0
M  V30 1174 H 105.15 -5.63246 5.38864 0
M  V30 1175 N 109.379 -1.50304 -0.473955 0
M  V30 1176 C 110.627 -1.60832 -1.22382 0
M  V30 1177 C 110.948 -0.30939 -1.9253 0
M  V30 1178 O 110.218 0.67296 -1.83978 0
M  V30 1179 H 108.798 -0.592652 -0.454723 0
M  V30 1180 H 111.46 -1.87068 -0.546968 0
M  V30 1181 H 110.556 -2.41803 -1.97327 0
M  V30 1182 N 110.857 0.726932 -1.39834 0
M  V30 1183 C 112.268 1.30558 -1.3346 0
M  V30 1184 C 112.619 1.962 -0.00273003 0
M  V30 1185 O 111.744 1.96826 0.899371 0
M  V30 1186 C 112.339 2.37404 -2.41713 0
M  V30 1187 C 110.898 2.90921 -2.38835 0
M  V30 1188 C 110.045 1.64578 -2.2318 0
M  V30 1189 H 112.996 0.523862 -1.49804 0
M  V30 1190 H 113.017 3.17984 -2.08966 0
M  V30 1191 H 112.529 1.89599 -3.38635 0
M  V30 1192 H 110.63 3.42985 -1.45575 0
M  V30 1193 H 110.743 3.43487 -3.33997 0
M  V30 1194 H 109.107 1.89219 -1.70494 0
M  V30 1195 H 109.89 1.18814 -3.22084 0
M  V30 1196 N 112.336 1.25143 0.95797 0
M  V30 1197 C 113.266 1.07711 2.07173 0
M  V30 1198 C 114.247 -0.0128462 1.70095 0
M  V30 1199 O 115.432 0.156061 1.93572 0
M  V30 1200 C 112.562 0.691503 3.40346 0
M  V30 1201 C 111.516 1.73132 3.9142 0
M  V30 1202 C 110.842 1.20049 5.21049 0
M  V30 1203 C 112.142 3.1294 4.1817 0
M  V30 1204 H 113.836 2.00873 2.22014 0
M  V30 1205 H 111.382 0.967191 1.06684 0
M  V30 1206 H 113.335 0.556505 4.17709 0
M  V30 1207 H 112.059 -0.275819 3.25433 0
M  V30 1208 H 110.718 1.8547 3.16222 0
M  V30 1209 H 110.366 0.223499 5.02503 0
M  V30 1210 H 110.066 1.89545 5.56189 0
M  V30 1211 H 111.59 1.07782 6.01012 0
M  V30 1212 H 113.004 3.03775 4.86203 0
M  V30 1213 H 111.401 3.79875 4.64559 0
M  V30 1214 H 112.471 3.6025 3.24573 0
M  V30 1215 N 113.814 -1.1601 1.06675 0
M  V30 1216 C 115.042 -1.90527 0.806667 0
M  V30 1217 C 115.457 -1.77643 -0.639396 0
M  V30 1218 O 114.814 -1.12369 -1.43803 0
M  V30 1219 C 114.865 -3.41106 1.19705 0
M  V30 1220 O 114.586 -3.53608 2.58636 0
M  V30 1221 C 116.087 -4.32663 0.965266 0
M  V30 1222 H 113.307 -0.604053 0.292166 0
M  V30 1223 H 115.851 -1.47026 1.4214 0
M  V30 1224 H 114.006 -3.82296 0.626774 0
M  V30 1225 H 114.42 -4.47011 2.74375 0
M  V30 1226 H 115.894 -5.36763 1.288 0
M  V30 1227 H 116.371 -4.39089 -0.0987936 0
M  V30 1228 H 116.977 -3.97206 1.52011 0
M  V30 1229 N 115.292 -0.849877 -1.32721 0
M  V30 1230 C 116.225 -0.235903 -2.26977 0
M  V30 1231 C 117.203 0.623355 -1.50177 0
M  V30 1232 O 118.387 0.581207 -1.79316 0
M  V30 1233 C 115.514 0.667712 -3.32053 0
M  V30 1234 C 114.56 -0.11753 -4.26338 0
M  V30 1235 S 115.393 -1.48277 -5.14562 0
M  V30 1236 C 116.549 -0.584741 -6.23163 0
M  V30 1237 H 116.782 -1.03495 -2.78704 0
M  V30 1238 H 114.315 -0.64724 -1.40179 0
M  V30 1239 H 116.273 1.18343 -3.93072 0
M  V30 1240 H 114.934 1.44052 -2.7912 0
M  V30 1241 H 114.127 0.57051 -5.00761 0
M  V30 1242 H 113.729 -0.564668 -3.69713 0
M  V30 1243 H 116.021 0.212968 -6.77165 0
M  V30 1244 H 116.964 -1.29947 -6.96074 0
M  V30 1245 H 117.372 -0.161202 -5.6427 0
M  V30 1246 N 116.77 1.45427 -0.607355 0
M  V30 1247 C 117.703 2.27635 0.160482 0
M  V30 1248 C 118.681 1.37122 0.873857 0
M  V30 1249 O 119.865 1.66551 0.882775 0
M  V30 1250 C 116.992 3.15486 1.23231 0
M  V30 1251 C 116.038 4.21939 0.622097 0
M  V30 1252 S 116.871 5.32459 -0.569852 0
M  V30 1253 C 118.027 6.23879 0.502577 0
M  V30 1254 H 118.26 2.9241 -0.536983 0
M  V30 1255 H 115.793 1.49265 -0.394868 0
M  V30 1256 H 117.751 3.66659 1.84585 0
M  V30 1257 H 116.412 2.49977 1.90185 0
M  V30 1258 H 115.605 4.8333 1.42856 0
M  V30 1259 H 115.207 3.73906 0.0837063 0
M  V30 1260 H 117.499 6.63261 1.38171 0
M  V30 1261 H 118.442 7.0806 -0.0751759 0
M  V30 1262 H 118.85 5.58545 0.8178 0
M  V30 1263 N 118.248 0.346503 1.53744 0
M  V30 1264 C 119.211 -0.496439 2.23759 0
M  V30 1265 C 120.211 -1.0252 1.2388 0
M  V30 1266 O 121.401 -0.913974 1.48297 0
M  V30 1267 C 118.533 -1.69187 2.95954 0
M  V30 1268 H 119.726 0.115952 2.99676 0
M  V30 1269 H 117.279 0.0978939 1.55993 0
M  V30 1270 H 118.014 -2.34288 2.24231 0
M  V30 1271 H 117.799 -1.31989 3.69217 0
M  V30 1272 H 119.289 -2.28969 3.49232 0
M  V30 1273 N 119.726 -1.57421 0.075193 0
M  V30 1274 C 120.951 -1.98364 -0.605515 0
M  V30 1275 C 121.376 -0.953383 -1.62149 0
M  V30 1276 O 120.734 0.0806053 -1.81121 0
M  V30 1277 C 120.782 -3.38332 -1.24756 0
M  V30 1278 O 119.886 -3.37959 -2.36342 0
M  V30 1279 H 119.227 -0.645553 -0.155428 0
M  V30 1280 H 121.757 -2.04044 0.150714 0
M  V30 1281 H 121.767 -3.75591 -1.5936 0
M  V30 1282 H 120.442 -4.12846 -0.503129 0
M  V30 1283 H 119.019 -3.12474 -2.03506 0
M  V30 1284 N 121.204 0.198386 -1.56346 0
M  V30 1285 C 122.154 1.2499 -1.90687 0
M  V30 1286 C 123.138 1.41158 -0.772217 0
M  V30 1287 O 124.33 1.43584 -1.03502 0
M  V30 1288 C 121.459 2.59542 -2.24706 0
M  V30 1289 C 120.545 2.47181 -3.44619 0
M  V30 1290 N 120.936 2.04495 -4.62618 0
M  V30 1291 C 119.234 2.78082 -3.48692 0
M  V30 1292 C 119.935 2.03945 -5.44776 0
M  V30 1293 N 118.911 2.45323 -4.85095 0
M  V30 1294 H 122.713 0.911149 -2.7942 0
M  V30 1295 H 120.227 0.40684 -1.57221 0
M  V30 1296 H 122.224 3.3549 -2.47491 0
M  V30 1297 H 120.884 2.94244 -1.37298 0
M  V30 1298 H 121.895 1.75256 -4.87345 0
M  V30 1299 H 118.572 3.17002 -2.71691 0
M  V30 1300 H 119.962 1.72872 -6.4928 0
M  V30 1301 N 122.682 1.50554 0.465978 0
M  V30 1302 C 123.912 1.65323 1.23903 0
M  V30 1303 C 124.32 0.338051 1.86155 0
M  V30 1304 O 123.663 -0.690518 1.70228 0
M  V30 1305 C 123.725 2.69048 2.3844 0
M  V30 1306 C 123.389 4.12462 1.96784 0
M  V30 1307 C 124.386 4.98168 1.48745 0
M  V30 1308 C 122.071 4.58407 2.05349 0
M  V30 1309 C 124.065 6.27868 1.0982 0
M  V30 1310 C 121.752 5.88112 1.66035 0
M  V30 1311 C 122.75 6.72668 1.18349 0
M  V30 1312 O 122.438 7.99951 0.795825 0
M  V30 1313 H 122.17 0.558629 0.38067 0
M  V30 1314 H 124.724 1.97561 0.562022 0
M  V30 1315 H 122.954 2.32062 3.09328 0
M  V30 1316 H 124.643 2.72985 3.0039 0
M  V30 1317 H 125.409 4.63885 1.41546 0
M  V30 1318 H 121.288 3.92735 2.41414 0
M  V30 1319 H 124.832 6.93819 0.725293 0
M  V30 1320 H 120.729 6.21914 1.72895 0
M  V30 1321 H 121.497 8.13265 0.924222 0
M  V30 1322 N 124.16 -0.719506 1.40217 0
M  V30 1323 C 125.107 -1.83359 1.40172 0
M  V30 1324 C 126.077 -1.64065 0.259206 0
M  V30 1325 O 127.262 -1.85254 0.456677 0
M  V30 1326 C 124.402 -3.2103 1.26624 0
M  V30 1327 C 123.515 -3.51923 2.50548 0
M  V30 1328 C 122.65 -4.79079 2.29471 0
M  V30 1329 C 121.689 -5.02863 3.48992 0
M  V30 1330 N 120.826 -6.2123 3.27135 0
M  V30 1331 H 125.666 -1.82733 2.35399 0
M  V30 1332 H 123.203 -0.892688 1.16917 0
M  V30 1333 H 125.161 -4.00524 1.16776 0
M  V30 1334 H 123.791 -3.20895 0.350176 0
M  V30 1335 H 122.843 -2.67014 2.70939 0
M  V30 1336 H 124.155 -3.6541 3.39525 0
M  V30 1337 H 123.309 -5.66582 2.16955 0
M  V30 1338 H 122.048 -4.67794 1.37913 0
M  V30 1339 H 121.053 -4.13816 3.6199 0
M  V30 1340 H 122.278 -5.16023 4.41472 0
M  V30 1341 H 120.224 -6.11204 2.38256 0
M  V30 1342 H 120.141 -6.35375 4.09675 0
M  V30 1343 H 121.409 -7.11532 3.18344 0
M  V30 1344 N 125.638 -1.25649 -0.95132 0
M  V30 1345 C 126.57 -1.02112 -2.05197 0
M  V30 1346 C 127.583 0.0150571 -1.62793 0
M  V30 1347 O 128.772 -0.223874 -1.77091 0
M  V30 1348 C 125.872 -0.522361 -3.3485 0
M  V30 1349 C 125.045 -1.62546 -4.06076 0
M  V30 1350 C 124.104 -1.12649 -5.14001 0
M  V30 1351 O 123.13 -1.82156 -5.39266 0
M  V30 1352 N 124.332 0.03047 -5.80492 0
M  V30 1353 H 127.097 -1.96885 -2.25957 0
M  V30 1354 H 124.658 -1.16899 -1.1201 0
M  V30 1355 H 126.65 -0.172961 -4.0433 0
M  V30 1356 H 125.22 0.33151 -3.10837 0
M  V30 1357 H 124.44 -2.14628 -3.30649 0
M  V30 1358 H 125.728 -2.36644 -4.50419 0
M  V30 1359 H 125.126 0.611169 -5.62389 0
M  V30 1360 H 123.683 0.320875 -6.5101 0
M  V30 1361 N 127.117 1.15442 -1.07289 0
M  V30 1362 C 128.067 2.18164 -0.662467 0
M  V30 1363 C 129.051 1.57845 0.312074 0
M  V30 1364 O 130.243 1.76552 0.125905 0
M  V30 1365 C 127.372 3.43246 -0.0611295 0
M  V30 1366 C 126.458 4.1062 -1.06077 0
M  V30 1367 N 126.849 4.53491 -2.24008 0
M  V30 1368 C 125.147 4.36949 -0.893964 0
M  V30 1369 C 125.848 5.05731 -2.87422 0
M  V30 1370 N 124.824 4.99236 -2.15091 0
M  V30 1371 H 128.626 2.49038 -1.56068 0
M  V30 1372 H 126.14 1.32003 -0.945988 0
M  V30 1373 H 128.137 4.16145 0.250792 0
M  V30 1374 H 126.797 3.13854 0.832207 0
M  V30 1375 H 127.808 4.46898 -2.6173 0
M  V30 1376 H 124.485 4.17466 -0.0534693 0
M  V30 1377 H 125.875 5.48865 -3.87553 0
M  V30 1378 N 128.595 0.856903 1.32268 0
M  V30 1379 C 129.835 0.467705 1.98977 0
M  V30 1380 C 130.199 -0.959231 1.66321 0
M  V30 1381 O 131.4 -1.4531 2.26138 0
M  V30 1382 C 129.671 0.70256 3.50427 0
M  V30 1383 S 131.23 0.411269 4.36868 0
M  V30 1384 H 128.048 0.175121 0.689096 0
M  V30 1385 H 130.65 1.1101 1.60925 0
M  V30 1386 H 129.354 1.74012 3.71683 0
M  V30 1387 H 128.885 0.0466707 3.93372 0
M  V30 1388 H 130.9 -0.761799 4.90317 0
M  V30 1389 N 130.073 -1.45103 0.615059 0
M  V30 1390 C 131.484 -1.85654 0.197383 0
M  V30 1391 C 131.835 -1.51433 -1.24749 0
M  V30 1392 O 130.96 -0.944608 -1.94695 0
M  V30 1393 C 131.555 -3.36972 0.351448 0
M  V30 1394 C 130.114 -3.76398 -0.011593 0
M  V30 1395 C 129.261 -2.69024 0.672394 0
M  V30 1396 H 132.212 -1.35797 0.821263 0
M  V30 1397 H 132.233 -3.78239 -0.414227 0
M  V30 1398 H 131.745 -3.61847 1.40314 0
M  V30 1399 H 129.846 -3.5714 -1.06217 0
M  V30 1400 H 129.959 -4.77532 0.387265 0
M  V30 1401 H 128.323 -2.54465 0.109284 0
M  V30 1402 H 129.106 -2.96735 1.72636 0
M  V30 1403 N 131.551 -0.354651 -1.53558 0
M  V30 1404 C 132.962 0.126902 -1.86268 0
M  V30 1405 C 133.313 1.49075 -1.27558 0
M  V30 1406 O 132.438 2.08105 -0.5934 0
M  V30 1407 C 133.033 0.237046 -3.3797 0
M  V30 1408 C 131.592 0.662842 -3.70518 0
M  V30 1409 C 130.739 -0.196652 -2.76602 0
M  V30 1410 H 133.69 -0.573849 -1.47962 0
M  V30 1411 H 133.711 1.06259 -3.65362 0
M  V30 1412 H 133.223 -0.755725 -3.80671 0
M  V30 1413 H 131.324 1.66424 -3.33367 0
M  V30 1414 H 131.437 0.445034 -4.77029 0
M  V30 1415 H 129.801 0.332763 -2.52517 0
M  V30 1416 H 130.584 -1.18676 -3.22135 0
M  V30 1417 N 133.029 1.57378 -0.0835403 0
M  V30 1418 C 134.257 1.98263 0.59157 0
M  V30 1419 C 134.672 0.962302 1.62435 0
M  V30 1420 O 134.029 -0.049581 1.82433 0
M  V30 1421 C 134.08 3.39214 1.24965 0
M  V30 1422 O 133.801 4.37339 0.258186 0
M  V30 1423 C 135.302 3.95038 2.01147 0
M  V30 1424 H 132.522 0.651773 0.159477 0
M  V30 1425 H 135.066 2.03878 -0.159415 0
M  V30 1426 H 133.221 3.34649 1.95164 0
M  V30 1427 H 133.635 5.19371 0.731734 0
M  V30 1428 H 135.109 4.95848 2.42567 0
M  V30 1429 H 135.586 3.32222 2.87272 0
M  V30 1430 H 136.192 4.0304 1.35789 0
M  V30 1431 N 134.507 -0.190092 1.56449 0
M  V30 1432 C 135.918 -0.754312 1.70784 0
M  V30 1433 C 136.269 -1.83631 0.690951 0
M  V30 1434 O 135.394 -2.15868 -0.151604 0
M  V30 1435 C 135.989 -1.37503 3.09642 0
M  V30 1436 C 134.548 -1.88628 3.25725 0
M  V30 1437 C 133.695 -0.758098 2.66736 0
M  V30 1438 H 136.646 0.0350524 1.58661 0
M  V30 1439 H 136.667 -2.2445 3.0725 0
M  V30 1440 H 136.179 -0.587302 3.83631 0
M  V30 1441 H 134.28 -2.70103 2.56661 0
M  V30 1442 H 134.393 -2.04462 4.3328 0
M  V30 1443 H 132.757 -1.17369 2.26046 0
M  V30 1444 H 133.54 0.0174705 3.43296 0
M  V30 1445 N 135.985 -1.50799 -0.457987 0
M  V30 1446 C 136.895 -1.73426 -1.57989 0
M  V30 1447 C 137.911 -0.617745 -1.62665 0
M  V30 1448 O 139.087 -0.897614 -1.80291 0
M  V30 1449 C 136.152 -1.83557 -2.94122 0
M  V30 1450 C 135.213 -3.07345 -2.99729 0
M  V30 1451 C 134.446 -3.16983 -4.29368 0
M  V30 1452 O 134.669 -2.33077 -5.20607 0
M  V30 1453 O 133.603 -4.09812 -4.40837 0
M  V30 1454 H 137.429 -2.68555 -1.41817 0
M  V30 1455 H 135.014 -1.35052 -0.638859 0
M  V30 1456 H 136.896 -1.92326 -3.74952 0
M  V30 1457 H 135.571 -0.916137 -3.10465 0
M  V30 1458 H 134.478 -3.04068 -2.1793 0
M  V30 1459 H 135.811 -3.9891 -2.88326 0
M  V30 1460 N 137.463 0.71206 -1.40597 0
M  V30 1461 C 138.691 1.50111 -1.42388 0
M  V30 1462 C 139.106 1.88784 -0.0245395 0
M  V30 1463 O 138.463 1.55681 0.952351 0
M  V30 1464 C 138.514 2.7742 -2.31776 0
M  V30 1465 O 138.235 2.40382 -3.66262 0
M  V30 1466 C 139.736 3.7129 -2.42196 0
M  V30 1467 H 136.956 0.46314 -0.485533 0
M  V30 1468 H 139.5 0.878068 -1.8469 0
M  V30 1469 H 137.655 3.36001 -1.92827 0
M  V30 1470 H 138.069 3.22324 -4.13772 0
M  V30 1471 H 139.543 4.57448 -3.08943 0
M  V30 1472 H 140.02 4.14641 -1.44809 0
M  V30 1473 H 140.626 3.18619 -2.81712 0
M  V30 1474 N 138.941 1.26152 0.944643 0
M  V30 1475 C 140.166 1.14363 1.7302 0
M  V30 1476 C 140.591 -0.29772 1.85729 0
M  V30 1477 O 139.949 -1.2157 1.34501 0
M  V30 1478 C 139.997 1.81378 3.11664 0
M  V30 1479 O 139.101 1.10022 3.97453 0
M  V30 1480 H 138.442 0.398694 0.53098 0
M  V30 1481 H 140.972 1.66906 1.18337 0
M  V30 1482 H 140.982 1.88064 3.62072 0
M  V30 1483 H 139.657 2.86237 3.0173 0
M  V30 1484 H 138.234 1.11287 3.55907 0
M  V30 1485 N 140.419 -1.14872 1.07899 0
M  V30 1486 C 141.659 -1.8745 0.814965 0
M  V30 1487 C 142.023 -1.80758 -0.64733 0
M  V30 1488 O 143.224 -2.48422 -1.02664 0
M  V30 1489 C 141.495 -3.32286 1.31607 0
M  V30 1490 S 143.054 -4.22537 1.18357 0
M  V30 1491 H 139.872 -0.646833 0.295174 0
M  V30 1492 H 142.474 -1.38555 1.37923 0
M  V30 1493 H 141.178 -3.34703 2.37491 0
M  V30 1494 H 140.709 -3.86238 0.747261 0
M  V30 1495 H 142.724 -4.96044 0.124586 0
M  V30 1496 N 141.898 -0.863906 -1.31812 0
M  V30 1497 C 142.861 -0.320212 -2.26952 0
M  V30 1498 C 143.861 0.525369 -1.51975 0
M  V30 1499 O 145.051 0.335547 -1.70938 0
M  V30 1500 C 142.183 0.545919 -3.365 0
M  V30 1501 H 143.376 -1.16004 -2.76556 0
M  V30 1502 H 140.929 -0.638995 -1.42641 0
M  V30 1503 H 141.664 1.40718 -2.92179 0
M  V30 1504 H 141.449 -0.0594674 -3.92055 0
M  V30 1505 H 142.939 0.918796 -4.07367 0
M  V30 1506 N 143.376 1.44774 -0.622745 0
M  V30 1507 C 144.604 2.06487 -0.130722 0
M  V30 1508 C 145.019 1.46476 1.19123 0
M  V30 1509 O 144.376 0.584502 1.72887 0
M  V30 1510 C 144.427 3.615 -0.000807207 0
M  V30 1511 O 144.148 4.19274 -1.27048 0
M  V30 1512 C 145.649 4.40229 0.520898 0
M  V30 1513 H 142.869 0.666704 -0.0758106 0
M  V30 1514 H 145.413 1.85779 -0.854774 0
M  V30 1515 H 143.568 3.81498 0.673643 0
M  V30 1516 H 143.982 5.12622 -1.1099 0
M  V30 1517 H 145.456 5.49144 0.560838 0
M  V30 1518 H 145.933 4.1108 1.54627 0
M  V30 1519 H 146.539 4.25131 -0.120018 0
M  V30 1520 N 144.854 0.36279 1.53368 0
M  V30 1521 C 145.786 -0.519668 2.23231 0
M  V30 1522 C 146.799 -1.04844 1.24546 0
M  V30 1523 O 147.988 -0.955296 1.50786 0
M  V30 1524 C 145.088 -1.72995 2.9142 0
M  V30 1525 C 144.261 -1.33316 4.16588 0
M  V30 1526 C 143.32 -2.40521 4.68013 0
M  V30 1527 O 142.346 -2.03027 5.3176 0
M  V30 1528 N 143.548 -3.72065 4.45587 0
M  V30 1529 H 146.313 0.078751 2.99597 0
M  V30 1530 H 143.874 0.187833 1.60807 0
M  V30 1531 H 145.866 -2.44184 3.22733 0
M  V30 1532 H 144.436 -2.2353 2.18525 0
M  V30 1533 H 143.656 -0.451236 3.91609 0
M  V30 1534 H 144.944 -1.04432 4.97967 0
M  V30 1535 H 144.342 -4.05304 3.94646 0
M  V30 1536 H 142.899 -4.39366 4.81457 0
M  V30 1537 N 146.332 -1.57332 0.0918853 0
M  V30 1538 C 147.581 -1.93412 -0.572249 0
M  V30 1539 C 147.894 -0.975515 -1.69538 0
M  V30 1540 O 149.1 -1.22991 -2.42045 0
M  V30 1541 C 147.556 -3.43648 -1.0693 0
M  V30 1542 C 147.164 -4.47994 0.0239049 0
M  V30 1543 C 148.908 -3.88695 -1.70635 0
M  V30 1544 C 146.815 -5.89381 -0.488319 0
M  V30 1545 H 145.745 -0.721939 -0.217532 0
M  V30 1546 H 148.396 -1.82735 0.167369 0
M  V30 1547 H 146.778 -3.49466 -1.8625 0
M  V30 1548 H 147.952 -4.53815 0.799277 0
M  V30 1549 H 146.267 -4.12536 0.565946 0
M  V30 1550 H 148.864 -4.91725 -2.10025 0
M  V30 1551 H 149.207 -3.27166 -2.57426 0
M  V30 1552 H 149.74 -3.85564 -0.979023 0
M  V30 1553 H 146.479 -6.54602 0.342906 0
M  V30 1554 H 145.999 -5.87037 -1.23077 0
M  V30 1555 H 147.678 -6.39863 -0.958317 0
M  V30 1556 N 147.81 0.181792 -1.56548 0
M  V30 1557 C 149.059 0.898348 -1.8059 0
M  V30 1558 C 149.372 1.83862 -0.667379 0
M  V30 1559 O 150.578 2.59678 -0.792446 0
M  V30 1560 C 149.034 1.64791 -3.19956 0
M  V30 1561 C 148.642 0.751789 -4.41647 0
M  V30 1562 C 150.386 2.35331 -3.53298 0
M  V30 1563 C 148.293 1.50098 -5.72035 0
M  V30 1564 H 147.223 0.339194 -0.673397 0
M  V30 1565 H 149.874 0.151413 -1.82874 0
M  V30 1566 H 148.256 2.43921 -3.11959 0
M  V30 1567 H 149.43 -0.0018076 -4.608 0
M  V30 1568 H 147.745 0.156562 -4.16106 0
M  V30 1569 H 150.342 2.91958 -4.47956 0
M  V30 1570 H 150.685 3.10164 -2.77676 0
M  V30 1571 H 151.218 1.63154 -3.62803 0
M  V30 1572 H 147.957 0.795175 -6.50659 0
M  V30 1573 H 147.477 2.22817 -5.56878 0
M  V30 1574 H 149.156 2.05125 -6.13622 0
M  V30 1575 N 149.288 1.51039 0.449983 0
M  V30 1576 C 150.516 1.66869 1.2232 0
M  V30 1577 C 150.931 0.360727 1.85322 0
M  V30 1578 O 150.288 -0.659531 1.70166 0
M  V30 1579 C 150.339 2.77524 2.31652 0
M  V30 1580 O 150.06 4.03252 1.7123 0
M  V30 1581 C 151.561 3.04512 3.2216 0
M  V30 1582 H 148.781 0.560326 0.369155 0
M  V30 1583 H 151.325 1.97385 0.534719 0
M  V30 1584 H 149.48 2.49642 2.96239 0
M  V30 1585 H 149.894 4.64609 2.43389 0
M  V30 1586 H 151.368 3.85551 3.95038 0
M  V30 1587 H 151.845 2.16415 3.8218 0
M  V30 1588 H 152.451 3.34005 2.63288 0
M  V30 1589 N 150.766 -0.704594 1.40972 0
M  V30 1590 C 152.013 -1.46458 1.39844 0
M  V30 1591 C 152.341 -1.94499 0.00447594 0
M  V30 1592 O 151.596 -1.69275 -0.982057 0
M  V30 1593 C 151.895 -2.698 2.34399 0
M  V30 1594 C 151.561 -2.40464 3.81429 0
M  V30 1595 C 150.223 -2.32174 4.21484 0
M  V30 1596 C 152.575 -2.16086 4.74296 0
M  V30 1597 C 149.903 -1.97589 5.52427 0
M  V30 1598 C 152.255 -1.83011 6.05549 0
M  V30 1599 C 150.919 -1.7321 6.44635 0
M  V30 1600 H 150.189 -0.535927 0.511725 0
M  V30 1601 H 152.836 -0.806124 1.73706 0
M  V30 1602 H 151.141 -3.40536 1.93759 0
M  V30 1603 H 152.838 -3.27919 2.30804 0
M  V30 1604 H 149.428 -2.47808 3.49699 0
M  V30 1605 H 153.612 -2.2144 4.4416 0
M  V30 1606 H 148.868 -1.88547 5.81601 0
M  V30 1607 H 153.042 -1.63164 6.77016 0
M  V30 1608 H 150.669 -1.46179 7.46013 0
M  V30 1609 N 152.244 -1.26651 -0.937939 0
M  V30 1610 C 153.154 -1.10276 -2.07066 0
M  V30 1611 C 154.17 -0.0354197 -1.73964 0
M  V30 1612 O 155.346 -0.239816 -1.99967 0
M  V30 1613 C 152.411 -0.740887 -3.38691 0
M  V30 1614 C 151.472 -1.88799 -3.85556 0
M  V30 1615 C 150.705 -1.54329 -5.10899 0
M  V30 1616 O 150.928 -0.446494 -5.6865 0
M  V30 1617 O 149.862 -2.37911 -5.52885 0
M  V30 1618 H 153.688 -2.05309 -2.23789 0
M  V30 1619 H 151.273 -1.05743 -1.0554 0
M  V30 1620 H 153.155 -0.55195 -4.1777 0
M  V30 1621 H 151.83 0.180022 -3.23199 0
M  V30 1622 H 150.737 -2.13191 -3.07409 0
M  V30 1623 H 152.07 -2.78874 -4.05574 0
M  V30 1624 N 153.722 1.14298 -1.08507 0
M  V30 1625 C 154.947 1.8976 -0.837001 0
M  V30 1626 C 155.372 1.78097 0.605228 0
M  V30 1627 O 154.73 1.12188 1.4242 0
M  V30 1628 C 154.778 3.37685 -1.26495 0
M  V30 1629 O 153.882 4.10281 -0.417514 0
M  V30 1630 H 153.223 0.590365 -0.303917 0
M  V30 1631 H 155.753 1.44672 -1.44676 0
M  V30 1632 H 155.763 3.88501 -1.24625 0
M  V30 1633 H 154.438 3.45492 -2.31534 0
M  V30 1634 H 153.015 3.69536 -0.499722 0
M  V30 1635 N 155.201 0.870884 1.31352 0
M  V30 1636 C 156.448 0.482273 1.96673 0
M  V30 1637 C 156.776 -0.965638 1.68836 0
M  V30 1638 O 156.031 -1.69514 0.977937 0
M  V30 1639 C 156.33 0.687157 3.50732 0
M  V30 1640 C 155.996 2.108 3.9859 0
M  V30 1641 C 154.658 2.49656 4.1137 0
M  V30 1642 C 157.01 3.03459 4.23748 0
M  V30 1643 C 154.338 3.80412 4.46659 0
M  V30 1644 C 156.69 4.3373 4.60501 0
M  V30 1645 C 155.354 4.725 4.71487 0
M  V30 1646 H 154.624 0.176476 0.719679 0
M  V30 1647 H 157.271 1.10405 1.56471 0
M  V30 1648 H 155.576 -0.0177476 3.91796 0
M  V30 1649 H 157.273 0.366284 3.99324 0
M  V30 1650 H 153.863 1.79633 3.8914 0
M  V30 1651 H 158.047 2.74665 4.13368 0
M  V30 1652 H 153.303 4.1021 4.53362 0
M  V30 1653 H 157.477 5.05578 4.78919 0
M  V30 1654 H 155.104 5.73859 4.98588 0
M  V30 1655 N 156.679 -1.44442 0.630414 0
M  V30 1656 C 157.626 -2.30678 -0.0749355 0
M  V30 1657 C 158.596 -1.4344 -0.837502 0
M  V30 1658 O 159.781 -1.72343 -0.818684 0
M  V30 1659 C 156.921 -3.28706 -1.05103 0
M  V30 1660 C 156.034 -4.31046 -0.286954 0
M  V30 1661 C 155.169 -5.16167 -1.2548 0
M  V30 1662 C 154.208 -6.10216 -0.479843 0
M  V30 1663 N 153.345 -6.88039 -1.39811 0
M  V30 1664 H 158.185 -2.90454 0.666386 0
M  V30 1665 H 155.722 -1.43107 0.340404 0
M  V30 1666 H 157.68 -3.84027 -1.63031 0
M  V30 1667 H 156.31 -2.70632 -1.75949 0
M  V30 1668 H 155.362 -3.78203 0.408243 0
M  V30 1669 H 156.674 -4.97794 0.316657 0
M  V30 1670 H 155.828 -5.76002 -1.90544 0
M  V30 1671 H 154.567 -4.49491 -1.89233 0
M  V30 1672 H 153.572 -5.49491 0.184295 0
M  V30 1673 H 154.797 -6.78928 0.152965 0
M  V30 1674 H 152.743 -6.24032 -2.02287 0
M  V30 1675 H 152.66 -7.51223 -0.848508 0
M  V30 1676 H 153.928 -7.52397 -2.03762 0
M  V30 1677 N 158.157 -0.370918 -1.53173 0
M  V30 1678 C 159.067 0.480823 -2.2962 0
M  V30 1679 C 160.083 1.08789 -1.35798 0
M  V30 1680 O 161.259 1.09768 -1.68858 0
M  V30 1681 C 158.324 1.60227 -3.07454 0
M  V30 1682 C 157.385 1.0222 -4.16953 0
M  V30 1683 C 156.618 2.0902 -4.91066 0
M  V30 1684 O 156.841 3.30222 -4.65091 0
M  V30 1685 O 155.775 1.71778 -5.76867 0
M  V30 1686 H 159.601 -0.141421 -3.03371 0
M  V30 1687 H 157.186 -0.135146 -1.48787 0
M  V30 1688 H 159.068 2.25417 -3.56041 0
M  V30 1689 H 157.743 2.20982 -2.36535 0
M  V30 1690 H 156.65 0.334064 -3.72605 0
M  V30 1691 H 157.983 0.459131 -4.90054 0
M  V30 1692 N 159.635 1.57281 -0.100228 0
M  V30 1693 C 160.583 2.15542 0.874328 0
M  V30 1694 C 161.577 1.09962 1.28859 0
M  V30 1695 O 162.783 1.28298 1.26252 0
M  V30 1696 H 159.158 0.689567 0.300003 0
M  V30 1697 H 161.129 2.96241 0.35829 0
M  V30 1698 C 159.878 2.75454 2.1218 0
M  V30 1699 H 159.201 3.56384 1.81193 0
M  V30 1700 H 160.641 3.19781 2.78417 0
M  V30 1701 C 159.1 1.71602 2.89921 0
M  V30 1702 O 159.63 1.15804 3.84646 0
M  V30 1703 N 157.836 1.41975 2.53558 0
M  V30 1704 H 157.383 1.87539 1.76598 0
M  V30 1705 H 157.341 0.727274 3.05873 0
M  V30 1706 N 161.113 -0.173488 1.56642 0
M  V30 1707 C 162.043 -1.2171 1.99271 0
M  V30 1708 C 163.024 -1.46289 0.867959 0
M  V30 1709 O 164.209 -1.5766 1.13388 0
M  V30 1710 C 161.339 -2.55651 2.35074 0
M  V30 1711 C 160.293 -2.45645 3.50489 0
M  V30 1712 C 159.619 -3.84056 3.72028 0
M  V30 1713 C 160.919 -1.96302 4.84007 0
M  V30 1714 H 162.613 -0.86275 2.867 0
M  V30 1715 H 160.159 -0.413571 1.37933 0
M  V30 1716 H 162.112 -3.2886 2.63494 0
M  V30 1717 H 160.836 -2.92869 1.44552 0
M  V30 1718 H 159.495 -1.7489 3.22194 0
M  V30 1719 H 159.143 -4.18664 2.788 0
M  V30 1720 H 158.843 -3.7823 4.49684 0
M  V30 1721 H 160.367 -4.58854 4.02846 0
M  V30 1722 H 161.781 -2.59284 5.11317 0
M  V30 1723 H 160.178 -2.01429 5.65284 0
M  V30 1724 H 161.248 -0.917226 4.76146 0
M  V30 1725 N 162.591 -1.51276 -0.441967 0
M  V30 1726 C 163.538 -1.72256 -1.53612 0
M  V30 1727 C 164.508 -0.564164 -1.56225 0
M  V30 1728 O 165.693 -0.798074 -1.73307 0
M  V30 1729 C 162.833 -1.84932 -2.91366 0
M  V30 1730 C 161.946 -3.12459 -2.98317 0
M  V30 1731 C 161.081 -3.15758 -4.27166 0
M  V30 1732 C 160.12 -4.37619 -4.27967 0
M  V30 1733 N 159.257 -4.38493 -5.48333 0
M  V30 1734 H 164.097 -2.65654 -1.35026 0
M  V30 1735 H 161.634 -1.31662 -0.656009 0
M  V30 1736 H 163.592 -1.90263 -3.7129 0
M  V30 1737 H 162.222 -0.949461 -3.08521 0
M  V30 1738 H 161.274 -3.1646 -2.11086 0
M  V30 1739 H 162.586 -4.02382 -2.94771 0
M  V30 1740 H 161.74 -3.19979 -5.15459 0
M  V30 1741 H 160.479 -2.23715 -4.33362 0
M  V30 1742 H 159.484 -4.33579 -3.38067 0
M  V30 1743 H 160.709 -5.30921 -4.23438 0
M  V30 1744 H 158.655 -3.49318 -5.55259 0
M  V30 1745 H 158.572 -5.22219 -5.46647 0
M  V30 1746 H 159.84 -4.469 -6.38671 0
M  V30 1747 N 164.069 0.697108 -1.41344 0
M  V30 1748 C 165.346 1.45154 -1.31109 0
M  V30 1749 C 165.726 2.11009 0.0620449 0
M  V30 1750 O 165.074 2.01571 1.07618 0
M  V30 1751 C 165.284 2.47223 -2.46337 0
M  V30 1752 C 166.632 3.1252 -2.87431 0
M  V30 1753 O 167.656 2.57547 -2.46065 0
M  V30 1754 O 166.515 4.12083 -3.58957 0
M  V30 1755 H 163.609 0.646365 -0.515889 0
M  V30 1756 H 166.155 0.727716 -1.53305 0
M  V30 1757 H 164.927 1.97204 -3.37974 0
M  V30 1758 H 164.55 3.27116 -2.2601 0
M  V30 1759 N 165.547 1.27147 0.931209 0
M  V30 1760 C 166.794 1.13278 1.67852 0
M  V30 1761 C 167.122 -0.32204 1.91815 0
M  V30 1762 O 166.377 -1.25224 1.50391 0
M  V30 1763 C 166.676 1.8579 3.05314 0
M  V30 1764 C 166.342 3.35657 3.01073 0
M  V30 1765 C 165.004 3.76536 2.99623 0
M  V30 1766 C 167.356 4.31299 2.92627 0
M  V30 1767 C 164.684 5.11426 2.87506 0
M  V30 1768 C 167.036 5.66242 2.82051 0
M  V30 1769 C 165.7 6.06418 2.7895 0
M  V30 1770 H 164.97 0.414515 0.614214 0
M  V30 1771 H 167.617 1.57712 1.08624 0
M  V30 1772 H 165.922 1.33854 3.68226 0
M  V30 1773 H 167.619 1.72491 3.62005 0
M  V30 1774 H 164.209 3.03146 3.02986 0
M  V30 1775 H 168.393 4.00692 2.92848 0
M  V30 1776 H 163.649 5.41705 2.83489 0
M  V30 1777 H 167.823 6.40026 2.74481 0
M  V30 1778 H 165.45 7.10895 2.69318 0
M  V30 1779 N 167.025 -1.13721 1.09112 0
M  V30 1780 C 167.955 -2.21148 0.749385 0
M  V30 1781 C 168.936 -1.6792 -0.271475 0
M  V30 1782 O 170.121 -1.93693 -0.140251 0
M  V30 1783 C 167.251 -3.46905 0.165659 0
M  V30 1784 C 166.205 -4.13203 1.11567 0
M  V30 1785 C 165.531 -5.33248 0.393809 0
M  V30 1786 C 166.831 -4.60912 2.45678 0
M  V30 1787 H 168.525 -2.4999 1.64758 0
M  V30 1788 H 166.071 -1.20156 0.793626 0
M  V30 1789 H 168.024 -4.21313 -0.085466 0
M  V30 1790 H 166.748 -3.17449 -0.767714 0
M  V30 1791 H 165.407 -3.40758 1.35202 0
M  V30 1792 H 165.055 -5.00054 -0.543599 0
M  V30 1793 H 164.755 -5.78552 1.02721 0
M  V30 1794 H 166.279 -6.10413 0.150908 0
M  V30 1795 H 167.693 -5.26759 2.26269 0
M  V30 1796 H 166.09 -5.16944 3.04776 0
M  V30 1797 H 167.16 -3.75603 3.06677 0
M  V30 1798 N 168.503 -0.877838 -1.30888 0
M  V30 1799 C 169.433 -0.35534 -2.3078 0
M  V30 1800 C 170.414 0.557994 -1.60687 0
M  V30 1801 O 171.599 0.473355 -1.88343 0
M  V30 1802 C 168.729 0.437221 -3.44537 0
M  V30 1803 C 167.683 -0.383715 -4.26276 0
M  V30 1804 C 167.009 0.535014 -5.32017 0
M  V30 1805 C 168.309 -1.62201 -4.96476 0
M  V30 1806 H 170.003 -1.19007 -2.74732 0
M  V30 1807 H 167.549 -0.573698 -1.32078 0
M  V30 1808 H 169.502 0.813334 -4.13477 0
M  V30 1809 H 168.226 1.30553 -2.99372 0
M  V30 1810 H 166.885 -0.741874 -3.59015 0
M  V30 1811 H 166.533 1.40083 -4.831 0
M  V30 1812 H 166.233 -0.0104211 -5.87599 0
M  V30 1813 H 167.757 0.907799 -6.03814 0
M  V30 1814 H 169.171 -1.31689 -5.5797 0
M  V30 1815 H 167.568 -2.10711 -5.61891 0
M  V30 1816 H 168.638 -2.37044 -4.23011 0
M  V30 1817 N 169.982 1.44106 -0.638065 0
M  V30 1818 C 171.228 2.02277 -0.145546 0
M  V30 1819 C 171.561 1.50125 1.23191 0
M  V30 1820 O 170.836 0.688133 1.8192 0
M  V30 1821 C 171.119 3.59829 -0.139791 0
M  V30 1822 C 170.972 4.22247 -1.55008 0
M  V30 1823 C 172.291 4.36873 0.531966 0
M  V30 1824 H 169.41 0.734992 -0.0543632 0
M  V30 1825 H 172.052 1.71592 -0.815863 0
M  V30 1826 H 170.202 3.86102 0.431007 0
M  V30 1827 H 171.874 4.07057 -2.1703 0
M  V30 1828 H 170.117 3.79476 -2.10191 0
M  V30 1829 H 170.788 5.31284 -1.49804 0
M  V30 1830 H 173.264 4.16074 0.0464781 0
M  V30 1831 H 172.14 5.4657 0.505206 0
M  V30 1832 H 172.401 4.11995 1.60352 0
M  V30 1833 N 171.46 0.379036 1.52974 0
M  V30 1834 C 172.709 -0.207612 2.00629 0
M  V30 1835 C 173.022 -1.48758 1.27006 0
M  V30 1836 O 174.228 -2.15365 1.65318 0
M  V30 1837 C 172.684 -0.42053 3.57435 0
M  V30 1838 C 172.292 0.845587 4.39948 0
M  V30 1839 C 174.036 -0.964102 4.13407 0
M  V30 1840 C 171.943 0.601513 5.88333 0
M  V30 1841 H 170.873 -0.0813591 0.749598 0
M  V30 1842 H 173.524 0.499853 1.76561 0
M  V30 1843 H 171.906 -1.18959 3.7771 0
M  V30 1844 H 173.08 1.61848 4.31442 0
M  V30 1845 H 171.395 1.31336 3.95145 0
M  V30 1846 H 173.992 -1.16225 5.21916 0
M  V30 1847 H 174.335 -1.93019 3.68849 0
M  V30 1848 H 174.868 -0.25487 3.96983 0
M  V30 1849 H 171.607 1.53831 6.37194 0
M  V30 1850 H 171.127 -0.132628 5.99653 0
M  V30 1851 H 172.806 0.232134 6.46583 0
M  V30 1852 N 172.938 -1.57226 0.108567 0
M  V30 1853 C 174.349 -1.8195 -0.418464 0
M  V30 1854 C 174.7 -1.02508 -1.67292 0
M  V30 1855 O 173.825 -0.258496 -2.14851 0
M  V30 1856 C 174.42 -3.30028 -0.765979 0
M  V30 1857 C 172.979 -3.55469 -1.23769 0
M  V30 1858 C 172.126 -2.7625 -0.241106 0
M  V30 1859 H 175.077 -1.55149 0.33384 0
M  V30 1860 H 175.098 -3.44086 -1.62434 0
M  V30 1861 H 174.61 -3.87821 0.147219 0
M  V30 1862 H 172.711 -3.03022 -2.16814 0
M  V30 1863 H 172.824 -4.6408 -1.19022 0
M  V30 1864 H 171.188 -2.44133 -0.72602 0
M  V30 1865 H 171.971 -3.36797 0.665007 0
M  V30 1866 N 174.416 0.165178 -1.56732 0
M  V30 1867 C 175.663 0.880807 -1.8234 0
M  V30 1868 C 175.991 1.81977 -0.686621 0
M  V30 1869 O 175.246 1.92971 0.325697 0
M  V30 1870 C 175.545 1.70405 -3.1416 0
M  V30 1871 C 175.211 0.913475 -4.4155 0
M  V30 1872 C 173.873 0.695303 -4.7615 0
M  V30 1873 C 176.225 0.359349 -5.1996 0
M  V30 1874 C 173.553 -0.0879947 -5.86634 0
M  V30 1875 C 175.905 -0.410893 -6.31264 0
M  V30 1876 C 174.569 -0.639808 -6.64427 0
M  V30 1877 H 173.839 0.32231 -0.667231 0
M  V30 1878 H 176.486 0.145402 -1.90947 0
M  V30 1879 H 174.791 2.50903 -3.00923 0
M  V30 1880 H 176.488 2.26091 -3.31186 0
M  V30 1881 H 173.078 1.09357 -4.14414 0
M  V30 1882 H 177.262 0.515228 -4.93618 0
M  V30 1883 H 172.518 -0.27503 -6.10781 0
M  V30 1884 H 176.692 -0.847494 -6.91224 0
M  V30 1885 H 174.319 -1.24864 -7.49875 0
M  V30 1886 N 175.894 1.51508 0.433938 0
M  V30 1887 C 177.171 1.54888 1.19453 0
M  V30 1888 C 177.551 0.315154 2.08734 0
M  V30 1889 O 176.899 -0.699558 2.17528 0
M  V30 1890 C 177.109 2.86467 1.99342 0
M  V30 1891 C 178.457 3.38545 2.56267 0
M  V30 1892 O 179.481 2.88041 2.0955 0
M  V30 1893 O 178.34 4.26675 3.41483 0
M  V30 1894 H 175.434 0.622863 0.544032 0
M  V30 1895 H 177.98 1.63823 0.442732 0
M  V30 1896 H 176.752 3.67718 1.33788 0
M  V30 1897 H 176.375 2.8071 2.8158 0
M  V30 1898 N 177.372 -0.689602 1.41712 0
M  V30 1899 C 178.612 -1.46184 1.42862 0
M  V30 1900 C 178.976 -1.91962 0.0382204 0
M  V30 1901 O 180.177 -2.68694 -0.0755019 0
M  V30 1902 C 178.448 -2.6371 2.4123 0
M  V30 1903 S 180.007 -3.52768 2.6096 0
M  V30 1904 H 176.825 -0.49947 0.506015 0
M  V30 1905 H 179.427 -0.804107 1.78198 0
M  V30 1906 H 178.131 -2.28293 3.41044 0
M  V30 1907 H 177.662 -3.3437 2.07269 0
M  V30 1908 H 179.677 -4.59146 1.88148 0
M  V30 1909 N 178.85 -1.27639 -0.924453 0
M  V30 1910 C 180.096 -1.15345 -1.67532 0
M  V30 1911 C 180.451 0.297096 -1.90092 0
M  V30 1912 O 179.744 1.21374 -1.48253 0
M  V30 1913 C 179.938 -1.87407 -3.04325 0
M  V30 1914 C 179.767 -3.3932 -2.95114 0
M  V30 1915 C 178.537 -4.08644 -2.97218 0
M  V30 1916 C 180.735 -4.35242 -2.73987 0
M  V30 1917 N 178.717 -5.47102 -2.78482 0
M  V30 1918 C 180.088 -5.6099 -2.63988 0
M  V30 1919 C 182.143 -4.25294 -2.589 0
M  V30 1920 C 180.846 -6.77924 -2.40442 0
M  V30 1921 C 182.872 -5.41952 -2.36731 0
M  V30 1922 C 182.234 -6.66658 -2.27478 0
M  V30 1923 H 178.333 -0.47696 -0.619704 0
M  V30 1924 H 180.917 -1.6115 -1.09265 0
M  V30 1925 H 179.088 -1.44053 -3.60699 0
M  V30 1926 H 180.82 -1.6759 -3.68369 0
M  V30 1927 H 177.575 -3.60136 -3.07569 0
M  V30 1928 H 177.999 -6.19852 -2.72236 0
M  V30 1929 H 182.641 -3.29598 -2.64811 0
M  V30 1930 H 180.359 -7.73699 -2.3327 0
M  V30 1931 H 183.945 -5.36137 -2.25938 0
M  V30 1932 H 182.825 -7.55405 -2.10555 0
M  V30 1933 N 180.328 1.1314 -1.09713 0
M  V30 1934 C 181.238 2.22242 -0.751367 0
M  V30 1935 C 182.254 1.72224 0.247938 0
M  V30 1936 O 183.43 2.01205 0.0885463 0
M  V30 1937 C 180.495 3.46231 -0.180274 0
M  V30 1938 C 179.556 4.11125 -1.2359 0
M  V30 1939 C 178.789 5.29195 -0.691966 0
M  V30 1940 O 179.012 5.68342 0.48414 0
M  V30 1941 O 177.946 5.84214 -1.44838 0
M  V30 1942 H 181.772 2.54197 -1.66186 0
M  V30 1943 H 179.357 1.21331 -0.871735 0
M  V30 1944 H 181.239 4.21185 0.134739 0
M  V30 1945 H 179.914 3.1597 0.703185 0
M  V30 1946 H 178.821 3.37985 -1.60366 0
M  V30 1947 H 180.154 4.45524 -2.09211 0
M  V30 1948 N 181.806 0.884767 1.30421 0
M  V30 1949 C 183.217 0.553656 1.78302 0
M  V30 1950 C 183.568 -0.930153 1.7275 0
M  V30 1951 O 182.693 -1.72681 1.30423 0
M  V30 1952 C 183.288 0.998234 3.2376 0
M  V30 1953 C 181.847 0.71854 3.69478 0
M  V30 1954 C 180.994 1.18132 2.50879 0
M  V30 1955 H 183.945 1.06901 1.17294 0
M  V30 1956 H 183.966 0.327118 3.79091 0
M  V30 1957 H 183.478 2.0782 3.27769 0
M  V30 1958 H 181.579 -0.349444 3.70958 0
M  V30 1959 H 181.692 1.30595 4.60958 0
M  V30 1960 H 180.056 0.600669 2.47516 0
M  V30 1961 H 180.839 2.26902 2.57624 0
M  V30 1962 N 183.284 -1.43765 0.645699 0
M  V30 1963 C 184.53 -2.02197 0.156271 0
M  V30 1964 C 184.863 -1.50776 -1.22393 0
M  V30 1965 O 184.138 -0.697771 -1.81553 0
M  V30 1966 C 184.421 -3.59749 0.158872 0
M  V30 1967 C 184.274 -4.21419 1.57245 0
M  V30 1968 C 185.593 -4.37149 -0.50879 0
M  V30 1969 H 182.712 -0.734694 0.0582602 0
M  V30 1970 H 185.354 -1.71157 0.824951 0
M  V30 1971 H 183.504 -3.86325 -0.410525 0
M  V30 1972 H 185.176 -4.059 2.19186 0
M  V30 1973 H 183.419 -3.78356 2.122 0
M  V30 1974 H 184.09 -5.30482 1.52619 0
M  V30 1975 H 186.566 -4.16093 -0.024412 0
M  V30 1976 H 185.442 -5.4683 -0.476213 0
M  V30 1977 H 185.703 -4.12839 -1.58165 0
M  V30 1978 N 184.763 -0.387143 -1.52771 0
M  V30 1979 C 185.695 0.484089 -2.2403 0
M  V30 1980 C 186.708 1.02849 -1.26198 0
M  V30 1981 O 187.897 0.931186 -1.52286 0
M  V30 1982 C 184.997 1.68337 -2.94136 0
M  V30 1983 C 184.17 1.26672 -4.18656 0
M  V30 1984 C 183.229 2.33045 -4.7178 0
M  V30 1985 O 182.255 1.94541 -5.34923 0
M  V30 1986 N 183.457 3.64929 -4.5145 0
M  V30 1987 H 186.222 -0.126404 -2.99433 0
M  V30 1988 H 183.783 -0.213392 -1.60488 0
M  V30 1989 H 185.775 2.39019 -3.26577 0
M  V30 1990 H 184.345 2.20025 -2.22053 0
M  V30 1991 H 183.565 0.388878 -3.92277 0
M  V30 1992 H 184.853 0.964964 -4.99566 0
M  V30 1993 H 184.251 3.98974 -4.01044 0
M  V30 1994 H 182.808 4.31651 -4.88386 0
M  V30 1995 N 186.241 1.57166 -0.116904 0
M  V30 1996 C 187.151 2.18745 0.847812 0
M  V30 1997 C 188.167 1.163 1.29423 0
M  V30 1998 O 189.343 1.48761 1.35765 0
M  V30 1999 C 186.408 2.77307 2.0809 0
M  V30 2000 C 185.469 3.94781 1.68661 0
M  V30 2001 C 184.702 4.50541 2.86091 0
M  V30 2002 O 184.925 4.05202 4.01456 0
M  V30 2003 O 183.859 5.41256 2.63298 0
M  V30 2004 H 187.685 3.01632 0.353778 0
M  V30 2005 H 185.27 1.49005 0.108599 0
M  V30 2006 H 187.152 3.14647 2.80313 0
M  V30 2007 H 185.827 1.97452 2.56504 0
M  V30 2008 H 184.734 3.62214 0.935518 0
M  V30 2009 H 186.067 4.76065 1.24991 0
M  V30 2010 O 187.758 -0.0225413 1.61484 0
M  V30 2011 H 188.449 -0.642234 1.82743 0
M  V30 END ATOM
M  V30 BEGIN BOND
M  V30 END BOND
M  V30 END CTAB
M  END
$$$$
